0:0
     RDKit          3D

 61 63  0  0  0  0  0  0  0  0999 V2000
   -9.0740   18.8880  -31.3030 C   0  0  0  0  0  0  0  0  0  0  0  0
   -8.7840   19.9160  -32.4030 C   0  0  0  0  0  0  0  0  0  0  0  0
   -7.5560   19.5850  -33.1750 N   0  0  1  0  0  0  0  0  0  0  0  0
   -6.6320   20.7520  -33.2120 C   0  0  0  0  0  0  0  0  0  0  0  0
   -7.0270   21.8340  -32.1850 C   0  0  0  0  0  0  0  0  0  0  0  0
   -6.0100   21.9680  -31.0410 C   0  0  0  0  0  0  0  0  0  0  0  0
   -6.6020   22.6560  -29.8010 C   0  0  0  0  0  0  0  0  0  0  0  0
   -7.1530   24.0470  -30.1530 C   0  0  0  0  0  0  0  0  0  0  0  0
   -6.2040   25.1840  -29.7420 C   0  0  0  0  0  0  0  0  0  0  0  0
   -5.2260   25.6330  -30.8410 C   0  0  0  0  0  0  0  0  0  0  0  0
   -3.8750   25.2930  -30.5150 O   0  0  0  0  0  0  0  0  0  0  0  0
   -3.4530   24.1780  -29.7710 C   0  0  0  0  0  0  0  0  0  0  0  0
   -3.6480   24.2040  -28.3830 C   0  0  0  0  0  0  0  0  0  0  0  0
   -3.2110   23.1470  -27.5790 C   0  0  0  0  0  0  0  0  0  0  0  0
   -2.5770   22.0440  -28.1560 C   0  0  0  0  0  0  0  0  0  0  0  0
   -2.1360   21.0220  -27.3730 N   0  0  0  0  0  0  0  0  0  0  0  0
   -1.5130   19.9350  -27.9030 C   0  0  0  0  0  0  0  0  0  0  0  0
   -1.3120   19.8440  -29.2820 C   0  0  0  0  0  0  0  0  0  0  0  0
   -1.7560   20.8760  -30.1110 C   0  0  0  0  0  0  0  0  0  0  0  0
   -2.3940   21.9920  -29.5540 C   0  0  0  0  0  0  0  0  0  0  0  0
   -2.8460   23.0480  -30.3570 C   0  0  0  0  0  0  0  0  0  0  0  0
   -6.8720   18.4090  -32.5710 C   0  0  0  0  0  0  0  0  0  0  0  0
   -5.5550   18.1070  -33.2500 C   0  0  0  0  0  0  0  0  0  0  0  0
   -4.3500   18.6210  -32.7390 C   0  0  0  0  0  0  0  0  0  0  0  0
   -3.1370   18.3320  -33.3720 C   0  0  0  0  0  0  0  0  0  0  0  0
   -3.1170   17.5300  -34.5170 C   0  0  0  0  0  0  0  0  0  0  0  0
   -4.3110   17.0190  -35.0340 C   0  0  0  0  0  0  0  0  0  0  0  0
   -5.5270   17.3070  -34.4050 C   0  0  0  0  0  0  0  0  0  0  0  0
   -8.9413   19.3583  -30.3175 H   0  0  0  0  0  0  0  0  0  0  0  0
  -10.1088   18.5280  -31.4012 H   0  0  0  0  0  0  0  0  0  0  0  0
   -8.3799   18.0403  -31.4012 H   0  0  0  0  0  0  0  0  0  0  0  0
   -9.6392   19.9454  -33.0941 H   0  0  0  0  0  0  0  0  0  0  0  0
   -8.6250   20.8910  -31.9192 H   0  0  0  0  0  0  0  0  0  0  0  0
   -7.8340   19.3430  -34.1570 H   0  0  0  0  0  0  0  0  0  0  0  0
   -5.6124   20.4051  -32.9882 H   0  0  0  0  0  0  0  0  0  0  0  0
   -6.6886   21.1989  -34.2156 H   0  0  0  0  0  0  0  0  0  0  0  0
   -7.1016   22.8009  -32.7041 H   0  0  0  0  0  0  0  0  0  0  0  0
   -7.9877   21.5344  -31.7409 H   0  0  0  0  0  0  0  0  0  0  0  0
   -5.6663   20.9628  -30.7557 H   0  0  0  0  0  0  0  0  0  0  0  0
   -5.1806   22.5926  -31.4043 H   0  0  0  0  0  0  0  0  0  0  0  0
   -7.4182   22.0364  -29.4012 H   0  0  0  0  0  0  0  0  0  0  0  0
   -5.8052   22.7740  -29.0519 H   0  0  0  0  0  0  0  0  0  0  0  0
   -7.3120   24.0974  -31.2403 H   0  0  0  0  0  0  0  0  0  0  0  0
   -8.0925   24.1819  -29.5970 H   0  0  0  0  0  0  0  0  0  0  0  0
   -6.8144   26.0516  -29.4510 H   0  0  0  0  0  0  0  0  0  0  0  0
   -5.5883   24.7928  -28.9187 H   0  0  0  0  0  0  0  0  0  0  0  0
   -5.5000   25.1405  -31.7856 H   0  0  0  0  0  0  0  0  0  0  0  0
   -5.2924   26.7270  -30.9346 H   0  0  0  0  0  0  0  0  0  0  0  0
   -4.1508   25.0663  -27.9209 H   0  0  0  0  0  0  0  0  0  0  0  0
   -3.3666   23.1839  -26.4907 H   0  0  0  0  0  0  0  0  0  0  0  0
   -1.1666   19.1255  -27.2436 H   0  0  0  0  0  0  0  0  0  0  0  0
   -0.8077   18.9659  -29.7118 H   0  0  0  0  0  0  0  0  0  0  0  0
   -1.6052   20.8130  -31.1988 H   0  0  0  0  0  0  0  0  0  0  0  0
   -2.7268   22.9952  -31.4492 H   0  0  0  0  0  0  0  0  0  0  0  0
   -6.6835   18.6159  -31.5072 H   0  0  0  0  0  0  0  0  0  0  0  0
   -7.5269   17.5342  -32.6972 H   0  0  0  0  0  0  0  0  0  0  0  0
   -4.3616   19.2525  -31.8384 H   0  0  0  0  0  0  0  0  0  0  0  0
   -2.1970   18.7364  -32.9684 H   0  0  0  0  0  0  0  0  0  0  0  0
   -2.1613   17.3010  -35.0112 H   0  0  0  0  0  0  0  0  0  0  0  0
   -4.2945   16.3899  -35.9362 H   0  0  0  0  0  0  0  0  0  0  0  0
   -6.4650   16.9056  -34.8162 H   0  0  0  0  0  0  0  0  0  0  0  0
  1  2  1  0
  2  3  1  0
  3  4  1  0
  4  5  1  0
  5  6  1  0
  6  7  1  0
  7  8  1  0
  8  9  1  0
  9 10  1  0
 10 11  1  0
 11 12  1  0
 12 13  2  0
 13 14  1  0
 14 15  2  0
 15 16  1  0
 16 17  2  0
 17 18  1  0
 18 19  2  0
 19 20  1  0
 20 21  2  0
  3 22  1  0
 22 23  1  0
 23 24  2  0
 24 25  1  0
 25 26  2  0
 26 27  1  0
 27 28  2  0
 21 12  1  0
 28 23  1  0
 20 15  1  0
  1 29  1  0
  1 30  1  0
  1 31  1  0
  2 32  1  0
  2 33  1  0
  3 34  1  6
  4 35  1  0
  4 36  1  0
  5 37  1  0
  5 38  1  0
  6 39  1  0
  6 40  1  0
  7 41  1  0
  7 42  1  0
  8 43  1  0
  8 44  1  0
  9 45  1  0
  9 46  1  0
 10 47  1  0
 10 48  1  0
 13 49  1  0
 14 50  1  0
 17 51  1  0
 18 52  1  0
 19 53  1  0
 21 54  1  0
 22 55  1  0
 22 56  1  0
 24 57  1  0
 25 58  1  0
 26 59  1  0
 27 60  1  0
 28 61  1  0
M  CHG  1   3   1
M  END
>  <UniqueID>  (1) 
1

>  <SMILES>  (1) 
CC[N@@H+](CCCCCCCOc1ccc2ncccc2c1)Cc1ccccc1

>  <Energy>  (1) 
61.04106168305785

>  <Genealogy>  (1) 
CC[NH+](CCCCCCCOc1ccc2ncccc2c1)Cc1ccccc1 (protonated)
CC[N@@H+](CCCCCCCOc1ccc2ncccc2c1)Cc1ccccc1 (chirality)
CC[N@@H+](CCCCCCCOc1ccc2ncccc2c1)Cc1ccccc1 (3D coordinates assigned)
CC[N@@H+](CCCCCCCOc1ccc2ncccc2c1)Cc1ccccc1 (optimized conformer: 61.04106168305785 kcal/mol)

>  <smiles>  (1) 
CCN(CCCCCCCOc1ccc2ncccc2c1)Cc1ccccc1

>  <score_type>  (1) 
oracle

>  <origin>  (1) 
adg

>  <m_score__min__energy>  (1) 
-8.4499999999999993

>  <m_primary>  (1) 
energy

$$$$
1:0
     RDKit          3D

 28 29  0  0  0  0  0  0  0  0999 V2000
   -6.6127   20.3484  -33.9660 H   0  0  0  0  0  0  0  0  0  0  0  0
   -6.8620   20.6100  -32.9270 C   0  0  0  0  0  0  0  0  0  0  0  0
   -6.1440   21.5610  -32.3160 C   0  0  0  0  0  0  0  0  0  0  0  0
   -6.6180   23.2120  -32.2640 S   0  0  0  0  0  0  0  0  0  0  0  0
   -5.2440   23.6300  -31.3960 C   0  0  0  0  0  0  0  0  0  0  0  0
   -4.7930   24.8070  -30.9230 N   0  0  0  0  0  0  0  0  0  0  0  0
   -3.6220   24.4190  -30.3480 C   0  0  0  0  0  0  0  0  0  0  0  0
   -2.7600   25.2980  -29.7050 O   0  0  0  0  0  0  0  0  0  0  0  0
   -3.3990   23.0510  -30.4860 C   0  0  0  0  0  0  0  0  0  0  0  0
   -2.5381   22.4714  -30.1215 H   0  0  0  0  0  0  0  0  0  0  0  0
   -4.4600   22.5980  -31.1580 N   0  0  0  0  0  0  0  0  0  0  0  0
   -4.9070   21.4240  -31.6520 C   0  0  0  0  0  0  0  0  0  0  0  0
   -4.2590   20.3510  -31.5410 O   0  0  0  0  0  0  0  0  0  0  0  0
   -7.9430   19.9170  -32.2850 N   0  0  0  0  0  0  0  0  0  0  0  0
   -7.7810   18.4720  -32.0730 C   0  0  0  0  0  0  0  0  0  0  0  0
   -8.7624   17.9809  -32.1480 H   0  0  0  0  0  0  0  0  0  0  0  0
   -7.3521   18.3001  -31.0747 H   0  0  0  0  0  0  0  0  0  0  0  0
   -6.8450   17.8910  -33.1250 C   0  0  0  0  0  0  0  0  0  0  0  0
   -6.0112   17.3734  -32.6282 H   0  0  0  0  0  0  0  0  0  0  0  0
   -7.3976   17.1769  -33.7533 H   0  0  0  0  0  0  0  0  0  0  0  0
   -6.4503   18.7031  -33.7533 H   0  0  0  0  0  0  0  0  0  0  0  0
   -9.2860   20.5130  -32.3470 C   0  0  0  0  0  0  0  0  0  0  0  0
   -9.4431   20.9292  -33.3530 H   0  0  0  0  0  0  0  0  0  0  0  0
  -10.0176   19.7228  -32.1228 H   0  0  0  0  0  0  0  0  0  0  0  0
   -9.4690   21.6300  -31.3170 C   0  0  0  0  0  0  0  0  0  0  0  0
   -9.4000   21.2088  -30.3032 H   0  0  0  0  0  0  0  0  0  0  0  0
   -8.6829   22.3872  -31.4537 H   0  0  0  0  0  0  0  0  0  0  0  0
  -10.4556   22.0968  -31.4537 H   0  0  0  0  0  0  0  0  0  0  0  0
  1  2  1  0
  2  3  2  0
  3  4  1  0
  4  5  1  0
  5  6  2  0
  6  7  1  0
  7  8  1  0
  7  9  2  0
  9 10  1  0
  9 11  1  0
 11 12  1  0
 12 13  2  0
  2 14  1  0
 14 15  1  0
 15 16  1  0
 15 17  1  0
 15 18  1  0
 18 19  1  0
 18 20  1  0
 18 21  1  0
 14 22  1  0
 22 23  1  0
 22 24  1  0
 22 25  1  0
 25 26  1  0
 25 27  1  0
 25 28  1  0
 12  3  1  0
 11  5  1  0
M  CHG  1   8  -1
M  END
>  <UniqueID>  (2) 
2

>  <SMILES>  (2) 
CCN(/C=c1/sc2nc([O-])cn2c1=O)CC

>  <Energy>  (2) 
108.8415618528963

>  <Genealogy>  (2) 
CCN(C=c1sc2nc([O-])cn2c1=O)CC (protonated)
CCN(/C=c1/sc2nc([O-])cn2c1=O)CC (cis-trans isomerization)
CCN(/C=c1/sc2nc([O-])cn2c1=O)CC (3D coordinates assigned)
CCN(/C=c1/sc2nc([O-])cn2c1=O)CC (optimized conformer: 108.8415618528963 kcal/mol)

>  <smiles>  (2) 
CCN(C=c1sc2nc(O)cn2c1=O)CC

>  <score_type>  (2) 
oracle

>  <origin>  (2) 
adg

>  <m_score__min__energy>  (2) 
-9.2400000000000002

>  <m_primary>  (2) 
energy

$$$$
2:0
     RDKit          3D

 60 64  0  0  0  0  0  0  0  0999 V2000
   -4.0020   24.1750  -27.4320 C   0  0  0  0  0  0  0  0  0  0  0  0
   -2.9230   24.5490  -28.4570 C   0  0  0  0  0  0  0  0  0  0  0  0
   -3.2640   24.1890  -29.8560 N   0  0  0  0  0  0  0  0  0  0  0  0
   -4.7220   24.0280  -30.0570 C   0  0  0  0  0  0  0  0  0  0  0  0
   -5.3440   25.3570  -30.4740 C   0  0  0  0  0  0  0  0  0  0  0  0
   -2.5030   23.0330  -30.3880 C   0  0  0  0  0  0  0  0  0  0  0  0
   -3.4130   21.9900  -31.0550 C   0  0  0  0  0  0  0  0  0  0  0  0
   -3.0860   21.8060  -32.5420 C   0  0  0  0  0  0  0  0  0  0  0  0
   -4.3020   21.8640  -33.3520 N   0  0  0  0  0  0  0  0  0  0  0  0
   -5.4100   21.0130  -33.0410 C   0  0  0  0  0  0  0  0  0  0  0  0
   -5.3090   19.6460  -33.2640 C   0  0  0  0  0  0  0  0  0  0  0  0
   -6.3770   18.8050  -33.0130 C   0  0  0  0  0  0  0  0  0  0  0  0
   -7.5340   19.2570  -32.4300 N   0  0  0  0  0  0  0  0  0  0  0  0
   -8.5140   18.2950  -31.8980 C   0  0  0  0  0  0  0  0  0  0  0  0
   -7.7150   20.6250  -32.2910 C   0  0  0  0  0  0  0  0  0  0  0  0
   -8.9570   21.1770  -31.8950 C   0  0  0  0  0  0  0  0  0  0  0  0
   -9.1060   22.5520  -31.7120 C   0  0  0  0  0  0  0  0  0  0  0  0
   -8.0310   23.4110  -31.9240 C   0  0  0  0  0  0  0  0  0  0  0  0
   -6.8050   22.9060  -32.3500 C   0  0  0  0  0  0  0  0  0  0  0  0
   -6.6350   21.5250  -32.5660 C   0  0  0  0  0  0  0  0  0  0  0  0
   -5.9950   17.4570  -33.4540 C   0  0  0  0  0  0  0  0  0  0  0  0
   -6.7520   16.2770  -33.6160 C   0  0  0  0  0  0  0  0  0  0  0  0
   -6.0800   15.1740  -34.1510 C   0  0  0  0  0  0  0  0  0  0  0  0
   -4.7720   15.2320  -34.5390 C   0  0  0  0  0  0  0  0  0  0  0  0
   -4.0180   16.4030  -34.4400 C   0  0  0  0  0  0  0  0  0  0  0  0
   -4.6670   17.5230  -33.8960 C   0  0  0  0  0  0  0  0  0  0  0  0
   -4.1200   18.9090  -33.8070 C   0  0  0  0  0  0  0  0  0  0  0  0
   -4.3880   14.0040  -35.0400 O   0  0  0  0  0  0  0  0  0  0  0  0
   -5.5160   13.1210  -34.9660 C   0  0  0  0  0  0  0  0  0  0  0  0
   -6.5730   13.9080  -34.3990 O   0  0  0  0  0  0  0  0  0  0  0  0
   -3.6053   24.3125  -26.4153 H   0  0  0  0  0  0  0  0  0  0  0  0
   -4.8812   24.8208  -27.5730 H   0  0  0  0  0  0  0  0  0  0  0  0
   -4.2929   23.1236  -27.5730 H   0  0  0  0  0  0  0  0  0  0  0  0
   -2.7636   25.6363  -28.4094 H   0  0  0  0  0  0  0  0  0  0  0  0
   -2.0226   23.9751  -28.1927 H   0  0  0  0  0  0  0  0  0  0  0  0
   -4.9003   23.2802  -30.8437 H   0  0  0  0  0  0  0  0  0  0  0  0
   -5.1808   23.6961  -29.1139 H   0  0  0  0  0  0  0  0  0  0  0  0
   -5.6137   25.9332  -29.5766 H   0  0  0  0  0  0  0  0  0  0  0  0
   -4.6200   25.9288  -31.0730 H   0  0  0  0  0  0  0  0  0  0  0  0
   -6.2469   25.1673  -31.0730 H   0  0  0  0  0  0  0  0  0  0  0  0
   -1.7798   23.3983  -31.1320 H   0  0  0  0  0  0  0  0  0  0  0  0
   -1.9982   22.5452  -29.5411 H   0  0  0  0  0  0  0  0  0  0  0  0
   -3.2834   21.0259  -30.5414 H   0  0  0  0  0  0  0  0  0  0  0  0
   -4.4506   22.3469  -30.9779 H   0  0  0  0  0  0  0  0  0  0  0  0
   -2.4010   22.6049  -32.8622 H   0  0  0  0  0  0  0  0  0  0  0  0
   -2.6167   20.8209  -32.6806 H   0  0  0  0  0  0  0  0  0  0  0  0
   -4.4690   22.6720  -33.9920 H   0  0  0  0  0  0  0  0  0  0  0  0
   -8.4906   18.3179  -30.7985 H   0  0  0  0  0  0  0  0  0  0  0  0
   -9.5208   18.5652  -32.2491 H   0  0  0  0  0  0  0  0  0  0  0  0
   -8.2625   17.2833  -32.2491 H   0  0  0  0  0  0  0  0  0  0  0  0
   -9.8173   20.5119  -31.7291 H   0  0  0  0  0  0  0  0  0  0  0  0
  -10.0783   22.9598  -31.3984 H   0  0  0  0  0  0  0  0  0  0  0  0
   -8.1503   24.4913  -31.7546 H   0  0  0  0  0  0  0  0  0  0  0  0
   -5.9620   23.5921  -32.5192 H   0  0  0  0  0  0  0  0  0  0  0  0
   -7.8147   16.2277  -33.3361 H   0  0  0  0  0  0  0  0  0  0  0  0
   -2.9699   16.4459  -34.7710 H   0  0  0  0  0  0  0  0  0  0  0  0
   -3.2623   18.9624  -33.1203 H   0  0  0  0  0  0  0  0  0  0  0  0
   -3.7317   19.3072  -34.7560 H   0  0  0  0  0  0  0  0  0  0  0  0
   -5.7947   12.7663  -35.9692 H   0  0  0  0  0  0  0  0  0  0  0  0
   -5.2996   12.2272  -34.3624 H   0  0  0  0  0  0  0  0  0  0  0  0
  1  2  1  0
  2  3  1  0
  3  4  1  0
  4  5  1  0
  3  6  1  0
  6  7  1  0
  7  8  1  0
  8  9  1  0
  9 10  1  0
 10 11  2  0
 11 12  1  0
 12 13  2  0
 13 14  1  0
 13 15  1  0
 15 16  2  0
 16 17  1  0
 17 18  2  0
 18 19  1  0
 19 20  2  0
 12 21  1  0
 21 22  2  0
 22 23  1  0
 23 24  2  0
 24 25  1  0
 25 26  2  0
 26 27  1  0
 24 28  1  0
 28 29  1  0
 29 30  1  0
 20 10  1  0
 26 21  1  0
 27 11  1  0
 20 15  1  0
 30 23  1  0
  1 31  1  0
  1 32  1  0
  1 33  1  0
  2 34  1  0
  2 35  1  0
  4 36  1  0
  4 37  1  0
  5 38  1  0
  5 39  1  0
  5 40  1  0
  6 41  1  0
  6 42  1  0
  7 43  1  0
  7 44  1  0
  8 45  1  0
  8 46  1  0
  9 47  1  0
 14 48  1  0
 14 49  1  0
 14 50  1  0
 16 51  1  0
 17 52  1  0
 18 53  1  0
 19 54  1  0
 22 55  1  0
 25 56  1  0
 27 57  1  0
 27 58  1  0
 29 59  1  0
 29 60  1  0
M  CHG  1  13   1
M  END
>  <UniqueID>  (3) 
3

>  <SMILES>  (3) 
CCN(CC)CCCNc1c2c([n+](C)c3ccccc13)-c1cc3c(cc1C2)OCO3

>  <Energy>  (3) 
132.78524581530928

>  <Genealogy>  (3) 
CCN(CC)CCCNc1c2c([n+](C)c3ccccc13)-c1cc3c(cc1C2)OCO3 (3D coordinates assigned)
CCN(CC)CCCNc1c2c([n+](C)c3ccccc13)-c1cc3c(cc1C2)OCO3 (nonaromatic ring conformer: 132.78524581530928 kcal/mol)

>  <smiles>  (3) 
CCN(CC)CCCNc1c2c([n+](C)c3ccccc13)-c1cc3c(cc1C2)OCO3

>  <score_type>  (3) 
oracle

>  <origin>  (3) 
adg

>  <m_score__min__energy>  (3) 
-9.4299999999999997

>  <m_primary>  (3) 
energy

$$$$
3:0
     RDKit          3D

 45 46  0  0  0  0  0  0  0  0999 V2000
   -6.4770   17.4140  -31.2820 C   0  0  0  0  0  0  0  0  0  0  0  0
   -6.7020   17.1160  -32.7700 C   0  0  0  0  0  0  0  0  0  0  0  0
   -5.9380   18.0240  -33.6650 N   0  0  0  0  0  0  0  0  0  0  0  0
   -5.2840   17.3240  -34.8070 C   0  0  0  0  0  0  0  0  0  0  0  0
   -3.7780   17.0660  -34.6310 C   0  0  0  0  0  0  0  0  0  0  0  0
   -4.9640   18.8480  -32.8850 C   0  0  0  0  0  0  0  0  0  0  0  0
   -4.8120   20.2800  -33.4360 C   0  0  0  0  0  0  0  0  0  0  0  0
   -5.6220   21.2340  -32.6750 N   0  0  0  0  0  0  0  0  0  0  0  0
   -5.1810   22.4230  -32.1990 C   0  0  0  0  0  0  0  0  0  0  0  0
   -6.2250   23.1210  -31.6040 C   0  0  0  0  0  0  0  0  0  0  0  0
   -6.1640   24.5140  -31.0490 C   0  0  0  0  0  0  0  0  0  0  0  0
   -5.0220   24.6680  -30.0390 C   0  0  0  0  0  0  0  0  0  0  0  0
   -3.9220   25.4400  -30.6120 N   0  0  0  0  0  0  0  0  0  0  0  0
   -7.3420   22.3190  -31.7400 C   0  0  0  0  0  0  0  0  0  0  0  0
   -8.6700   22.5300  -31.3690 C   0  0  0  0  0  0  0  0  0  0  0  0
   -9.6050   21.5250  -31.6690 C   0  0  0  0  0  0  0  0  0  0  0  0
   -9.2000   20.3470  -32.3300 C   0  0  0  0  0  0  0  0  0  0  0  0
   -7.8560   20.1620  -32.7000 C   0  0  0  0  0  0  0  0  0  0  0  0
   -6.9420   21.1750  -32.3910 C   0  0  0  0  0  0  0  0  0  0  0  0
   -7.0293   16.6824  -30.6739 H   0  0  0  0  0  0  0  0  0  0  0  0
   -5.4034   17.3454  -31.0526 H   0  0  0  0  0  0  0  0  0  0  0  0
   -6.8369   18.4278  -31.0526 H   0  0  0  0  0  0  0  0  0  0  0  0
   -6.3899   16.0806  -32.9715 H   0  0  0  0  0  0  0  0  0  0  0  0
   -7.7709   17.2700  -32.9790 H   0  0  0  0  0  0  0  0  0  0  0  0
   -6.6490   18.6680  -34.0860 H   0  0  0  0  0  0  0  0  0  0  0  0
   -5.7833   16.3535  -34.9442 H   0  0  0  0  0  0  0  0  0  0  0  0
   -5.3834   17.9912  -35.6759 H   0  0  0  0  0  0  0  0  0  0  0  0
   -3.5359   17.0245  -33.5588 H   0  0  0  0  0  0  0  0  0  0  0  0
   -3.5121   16.1092  -35.1042 H   0  0  0  0  0  0  0  0  0  0  0  0
   -3.2088   17.8797  -35.1042 H   0  0  0  0  0  0  0  0  0  0  0  0
   -5.3107   18.9080  -31.8428 H   0  0  0  0  0  0  0  0  0  0  0  0
   -3.9818   18.3588  -32.9625 H   0  0  0  0  0  0  0  0  0  0  0  0
   -3.7549   20.5775  -33.3727 H   0  0  0  0  0  0  0  0  0  0  0  0
   -5.1578   20.2878  -34.4802 H   0  0  0  0  0  0  0  0  0  0  0  0
   -4.1447   22.7844  -32.2729 H   0  0  0  0  0  0  0  0  0  0  0  0
   -6.0069   25.2216  -31.8764 H   0  0  0  0  0  0  0  0  0  0  0  0
   -7.1122   24.7204  -30.5311 H   0  0  0  0  0  0  0  0  0  0  0  0
   -5.3989   25.1864  -29.1450 H   0  0  0  0  0  0  0  0  0  0  0  0
   -4.6494   23.6677  -29.7735 H   0  0  0  0  0  0  0  0  0  0  0  0
   -4.1670   25.6780  -31.6000 H   0  0  0  0  0  0  0  0  0  0  0  0
   -3.8710   26.3500  -30.0980 H   0  0  0  0  0  0  0  0  0  0  0  0
   -8.9758   23.4545  -30.8574 H   0  0  0  0  0  0  0  0  0  0  0  0
  -10.6597   21.6580  -31.3864 H   0  0  0  0  0  0  0  0  0  0  0  0
   -9.9412   19.5668  -32.5579 H   0  0  0  0  0  0  0  0  0  0  0  0
   -7.5326   19.2469  -33.2176 H   0  0  0  0  0  0  0  0  0  0  0  0
  1  2  1  0
  2  3  1  0
  3  4  1  0
  4  5  1  0
  3  6  1  0
  6  7  1  0
  7  8  1  0
  8  9  1  0
  9 10  2  0
 10 11  1  0
 11 12  1  0
 12 13  1  0
 10 14  1  0
 14 15  2  0
 15 16  1  0
 16 17  2  0
 17 18  1  0
 18 19  2  0
 19  8  1  0
 19 14  1  0
  1 20  1  0
  1 21  1  0
  1 22  1  0
  2 23  1  0
  2 24  1  0
  3 25  1  0
  4 26  1  0
  4 27  1  0
  5 28  1  0
  5 29  1  0
  5 30  1  0
  6 31  1  0
  6 32  1  0
  7 33  1  0
  7 34  1  0
  9 35  1  0
 11 36  1  0
 11 37  1  0
 12 38  1  0
 12 39  1  0
 13 40  1  0
 13 41  1  0
 15 42  1  0
 16 43  1  0
 17 44  1  0
 18 45  1  0
M  CHG  1   3   1
M  END
>  <UniqueID>  (4) 
4

>  <SMILES>  (4) 
CC[NH+](CC)CCn1cc(CCN)c2ccccc21

>  <Energy>  (4) 
75.67295288084408

>  <Genealogy>  (4) 
CC[NH+](CC)CCn1cc(CCN)c2ccccc21 (protonated)
CC[NH+](CC)CCn1cc(CCN)c2ccccc21 (3D coordinates assigned)
CC[NH+](CC)CCn1cc(CCN)c2ccccc21 (optimized conformer: 75.67295288084408 kcal/mol)

>  <smiles>  (4) 
CCN(CC)CCn1cc(CCN)c2ccccc21

>  <score_type>  (4) 
oracle

>  <origin>  (4) 
adg

>  <m_score__min__energy>  (4) 
-7.3499999999999996

>  <m_primary>  (4) 
energy

$$$$
4:0
     RDKit          3D

 36 37  0  0  0  0  0  0  0  0999 V2000
   -2.7660   23.9160  -27.7540 C   0  0  0  0  0  0  0  0  0  0  0  0
   -4.1530   24.5500  -27.7080 C   0  0  0  0  0  0  0  0  0  0  0  0
   -4.9880   24.0390  -28.7940 N   0  0  0  0  0  0  0  0  0  0  0  0
   -4.8010   24.4280  -30.1620 C   0  0  0  0  0  0  0  0  0  0  0  0
   -3.8900   25.2470  -30.4630 O   0  0  0  0  0  0  0  0  0  0  0  0
   -5.7170   23.8980  -31.1970 C   0  0  0  0  0  0  0  0  0  0  0  0
   -5.7580   22.6170  -31.6270 C   0  0  0  0  0  0  0  0  0  0  0  0
   -4.4860   21.8910  -31.9010 C   0  0  0  0  0  0  0  0  0  0  0  0
   -3.8040   21.2110  -30.8730 C   0  0  0  0  0  0  0  0  0  0  0  0
   -2.6180   20.5220  -31.1440 C   0  0  0  0  0  0  0  0  0  0  0  0
   -2.1030   20.4980  -32.4420 C   0  0  0  0  0  0  0  0  0  0  0  0
   -2.7730   21.1620  -33.4710 C   0  0  0  0  0  0  0  0  0  0  0  0
   -3.9590   21.8530  -33.2060 C   0  0  0  0  0  0  0  0  0  0  0  0
   -7.0360   21.9130  -31.8920 C   0  0  0  0  0  0  0  0  0  0  0  0
   -7.0410   20.6170  -32.4370 C   0  0  0  0  0  0  0  0  0  0  0  0
   -8.2490   19.9470  -32.6490 C   0  0  0  0  0  0  0  0  0  0  0  0
   -9.4580   20.5590  -32.3090 C   0  0  0  0  0  0  0  0  0  0  0  0
   -9.4610   21.8410  -31.7520 C   0  0  0  0  0  0  0  0  0  0  0  0
   -8.2550   22.5150  -31.5370 C   0  0  0  0  0  0  0  0  0  0  0  0
   -2.4042   23.7506  -26.7284 H   0  0  0  0  0  0  0  0  0  0  0  0
   -2.8203   22.9533  -28.2834 H   0  0  0  0  0  0  0  0  0  0  0  0
   -2.0735   24.5870  -28.2834 H   0  0  0  0  0  0  0  0  0  0  0  0
   -4.6275   24.3123  -26.7445 H   0  0  0  0  0  0  0  0  0  0  0  0
   -4.0494   25.6391  -27.8224 H   0  0  0  0  0  0  0  0  0  0  0  0
   -5.7070   23.3150  -28.5660 H   0  0  0  0  0  0  0  0  0  0  0  0
   -6.4237   24.6059  -31.6547 H   0  0  0  0  0  0  0  0  0  0  0  0
   -4.2074   21.2222  -29.8497 H   0  0  0  0  0  0  0  0  0  0  0  0
   -2.0898   19.9981  -30.3338 H   0  0  0  0  0  0  0  0  0  0  0  0
   -1.1695   19.9559  -32.6534 H   0  0  0  0  0  0  0  0  0  0  0  0
   -2.3667   21.1415  -34.4930 H   0  0  0  0  0  0  0  0  0  0  0  0
   -4.4839   22.3705  -34.0225 H   0  0  0  0  0  0  0  0  0  0  0  0
   -6.0905   20.1285  -32.6975 H   0  0  0  0  0  0  0  0  0  0  0  0
   -8.2479   18.9367  -33.0840 H   0  0  0  0  0  0  0  0  0  0  0  0
  -10.4081   20.0317  -32.4797 H   0  0  0  0  0  0  0  0  0  0  0  0
  -10.4136   22.3204  -31.4824 H   0  0  0  0  0  0  0  0  0  0  0  0
   -8.2605   23.5195  -31.0886 H   0  0  0  0  0  0  0  0  0  0  0  0
  1  2  1  0
  2  3  1  0
  3  4  1  0
  4  5  2  0
  4  6  1  0
  6  7  2  3
  7  8  1  0
  8  9  2  0
  9 10  1  0
 10 11  2  0
 11 12  1  0
 12 13  2  0
  7 14  1  0
 14 15  2  0
 15 16  1  0
 16 17  2  0
 17 18  1  0
 18 19  2  0
 13  8  1  0
 19 14  1  0
  1 20  1  0
  1 21  1  0
  1 22  1  0
  2 23  1  0
  2 24  1  0
  3 25  1  0
  6 26  1  0
  9 27  1  0
 10 28  1  0
 11 29  1  0
 12 30  1  0
 13 31  1  0
 15 32  1  0
 16 33  1  0
 17 34  1  0
 18 35  1  0
 19 36  1  0
M  END
>  <UniqueID>  (5) 
5

>  <SMILES>  (5) 
CCNC(=O)C=C(c1ccccc1)c1ccccc1

>  <Energy>  (5) 
44.32444451390245

>  <Genealogy>  (5) 
CCNC(=O)C=C(c1ccccc1)c1ccccc1 (3D coordinates assigned)
CCNC(=O)C=C(c1ccccc1)c1ccccc1 (optimized conformer: 44.32444451390245 kcal/mol)

>  <smiles>  (5) 
CCNC(=O)C=C(c1ccccc1)c1ccccc1

>  <score_type>  (5) 
oracle

>  <origin>  (5) 
adg

>  <m_score__min__energy>  (5) 
-7.7999999999999998

>  <m_primary>  (5) 
energy

$$$$
5:0
     RDKit          3D

 52 54  0  0  0  0  0  0  0  0999 V2000
   -0.2400   18.2430  -32.2400 C   0  0  0  0  0  0  0  0  0  0  0  0
   -0.3940   19.5610  -32.7540 O   0  0  0  0  0  0  0  0  0  0  0  0
   -1.1080   20.5860  -32.1120 C   0  0  0  0  0  0  0  0  0  0  0  0
   -0.5510   21.3260  -31.0450 C   0  0  0  0  0  0  0  0  0  0  0  0
   -1.3160   22.3220  -30.4420 C   0  0  0  0  0  0  0  0  0  0  0  0
   -2.5830   22.6020  -30.8650 C   0  0  0  0  0  0  0  0  0  0  0  0
   -3.1750   21.8850  -31.9080 C   0  0  0  0  0  0  0  0  0  0  0  0
   -2.4300   20.8720  -32.5450 C   0  0  0  0  0  0  0  0  0  0  0  0
   -3.0630   20.0610  -33.6480 C   0  0  0  0  0  0  0  0  0  0  0  0
   -4.1310   19.1910  -33.1120 N   0  0  0  0  0  0  0  0  0  0  0  0
   -4.4330   18.1180  -34.0740 C   0  0  0  0  0  0  0  0  0  0  0  0
   -5.3580   19.9530  -32.7670 C   0  0  0  0  0  0  0  0  0  0  0  0
   -6.4830   19.6110  -33.7480 C   0  0  0  0  0  0  0  0  0  0  0  0
   -7.7390   19.6200  -33.0930 O   0  0  0  0  0  0  0  0  0  0  0  0
   -7.7930   18.6210  -32.0960 C   0  0  0  0  0  0  0  0  0  0  0  0
   -7.3380   17.4170  -32.6070 F   0  0  0  0  0  0  0  0  0  0  0  0
   -9.1070   18.4610  -31.7000 F   0  0  0  0  0  0  0  0  0  0  0  0
   -3.1780   23.6240  -30.0820 N   0  0  0  0  0  0  0  0  0  0  0  0
   -4.3300   24.3970  -30.4580 C   0  0  0  0  0  0  0  0  0  0  0  0
   -4.2460   25.6550  -30.5080 O   0  0  0  0  0  0  0  0  0  0  0  0
   -5.6230   23.7450  -30.7590 C   0  0  0  0  0  0  0  0  0  0  0  0
   -6.1430   23.7710  -32.0640 C   0  0  0  0  0  0  0  0  0  0  0  0
   -7.3610   23.1460  -32.3520 C   0  0  0  0  0  0  0  0  0  0  0  0
   -8.0660   22.4840  -31.3430 C   0  0  0  0  0  0  0  0  0  0  0  0
   -9.5920   21.7010  -31.7060 Cl  0  0  0  0  0  0  0  0  0  0  0  0
   -7.5480   22.4390  -30.0450 C   0  0  0  0  0  0  0  0  0  0  0  0
   -6.3310   23.0630  -29.7540 C   0  0  0  0  0  0  0  0  0  0  0  0
   -2.2030   24.0610  -29.0780 C   0  0  0  0  0  0  0  0  0  0  0  0
   -0.9420   23.1910  -29.2930 C   0  0  0  0  0  0  0  0  0  0  0  0
   -0.2438   18.2755  -31.1405 H   0  0  0  0  0  0  0  0  0  0  0  0
   -1.0707   17.6131  -32.5911 H   0  0  0  0  0  0  0  0  0  0  0  0
    0.7135   17.8216  -32.5911 H   0  0  0  0  0  0  0  0  0  0  0  0
    0.4713   21.1188  -30.6957 H   0  0  0  0  0  0  0  0  0  0  0  0
   -4.2042   22.1071  -32.2264 H   0  0  0  0  0  0  0  0  0  0  0  0
   -3.4944   20.7432  -34.3953 H   0  0  0  0  0  0  0  0  0  0  0  0
   -2.2902   19.4281  -34.1088 H   0  0  0  0  0  0  0  0  0  0  0  0
   -4.6918   17.1986  -33.5284 H   0  0  0  0  0  0  0  0  0  0  0  0
   -5.2810   18.4202  -34.7061 H   0  0  0  0  0  0  0  0  0  0  0  0
   -3.5519   17.9336  -34.7061 H   0  0  0  0  0  0  0  0  0  0  0  0
   -5.6735   19.6917  -31.7461 H   0  0  0  0  0  0  0  0  0  0  0  0
   -5.1421   21.0299  -32.8279 H   0  0  0  0  0  0  0  0  0  0  0  0
   -6.4933   20.3543  -34.5588 H   0  0  0  0  0  0  0  0  0  0  0  0
   -6.3036   18.6048  -34.1547 H   0  0  0  0  0  0  0  0  0  0  0  0
   -7.1628   18.9208  -31.2457 H   0  0  0  0  0  0  0  0  0  0  0  0
   -5.5895   24.2855  -32.8634 H   0  0  0  0  0  0  0  0  0  0  0  0
   -7.7647   23.1757  -33.3748 H   0  0  0  0  0  0  0  0  0  0  0  0
   -8.0986   21.9120  -29.2518 H   0  0  0  0  0  0  0  0  0  0  0  0
   -5.9251   23.0200  -28.7325 H   0  0  0  0  0  0  0  0  0  0  0  0
   -1.9609   25.1247  -29.2193 H   0  0  0  0  0  0  0  0  0  0  0  0
   -2.5994   23.9469  -28.0583 H   0  0  0  0  0  0  0  0  0  0  0  0
   -0.0701   23.8151  -29.5386 H   0  0  0  0  0  0  0  0  0  0  0  0
   -0.6557   22.6201  -28.3974 H   0  0  0  0  0  0  0  0  0  0  0  0
  1  2  1  0
  2  3  1  0
  3  4  2  0
  4  5  1  0
  5  6  2  0
  6  7  1  0
  7  8  2  0
  8  9  1  0
  9 10  1  0
 10 11  1  0
 10 12  1  0
 12 13  1  0
 13 14  1  0
 14 15  1  0
 15 16  1  0
 15 17  1  0
  6 18  1  0
 18 19  1  0
 19 20  2  0
 19 21  1  0
 21 22  2  0
 22 23  1  0
 23 24  2  0
 24 25  1  0
 24 26  1  0
 26 27  2  0
 18 28  1  0
 28 29  1  0
  8  3  1  0
 27 21  1  0
 29  5  1  0
  1 30  1  0
  1 31  1  0
  1 32  1  0
  4 33  1  0
  7 34  1  0
  9 35  1  0
  9 36  1  0
 11 37  1  0
 11 38  1  0
 11 39  1  0
 12 40  1  0
 12 41  1  0
 13 42  1  0
 13 43  1  0
 15 44  1  0
 22 45  1  0
 23 46  1  0
 26 47  1  0
 27 48  1  0
 28 49  1  0
 28 50  1  0
 29 51  1  0
 29 52  1  0
M  END
>  <UniqueID>  (6) 
6

>  <SMILES>  (6) 
COc1cc2c(cc1CN(C)CCOC(F)F)N(C(=O)c1ccc(Cl)cc1)CC2

>  <Energy>  (6) 
74.93908664216472

>  <Genealogy>  (6) 
COc1cc2c(cc1CN(C)CCOC(F)F)N(C(=O)c1ccc(Cl)cc1)CC2 (3D coordinates assigned)
COc1cc2c(cc1CN(C)CCOC(F)F)N(C(=O)c1ccc(Cl)cc1)CC2 (nonaromatic ring conformer: 74.93908664216472 kcal/mol)

>  <smiles>  (6) 
COc1cc2c(cc1CN(C)CCOC(F)F)N(C(=O)c1ccc(Cl)cc1)CC2

>  <score_type>  (6) 
oracle

>  <origin>  (6) 
adg

>  <m_score__min__energy>  (6) 
-8.6899999999999995

>  <m_primary>  (6) 
energy

$$$$
6:0
     RDKit          3D

 47 49  0  0  0  0  0  0  0  0999 V2000
   -3.0550   25.0000  -26.4630 C   0  0  0  0  0  0  0  0  0  0  0  0
   -4.3180   24.5530  -27.1940 C   0  0  0  0  0  0  0  0  0  0  0  0
   -4.0160   24.2220  -28.5900 N   0  0  0  0  0  0  0  0  0  0  0  0
   -2.9170   23.3580  -28.9140 C   0  0  0  0  0  0  0  0  0  0  0  0
   -3.0870   21.9650  -28.8740 C   0  0  0  0  0  0  0  0  0  0  0  0
   -2.0190   21.1170  -29.1830 C   0  0  0  0  0  0  0  0  0  0  0  0
   -0.7780   21.6540  -29.5350 C   0  0  0  0  0  0  0  0  0  0  0  0
   -0.6030   23.0390  -29.5800 C   0  0  0  0  0  0  0  0  0  0  0  0
   -1.6680   23.8930  -29.2720 C   0  0  0  0  0  0  0  0  0  0  0  0
   -1.4890   25.2350  -29.3510 F   0  0  0  0  0  0  0  0  0  0  0  0
   -5.0640   24.7860  -29.8560 S   0  0  0  0  0  0  0  0  0  0  0  0
   -4.2740   25.6000  -30.8430 O   0  0  0  0  0  0  0  0  0  0  0  0
   -6.1330   25.6690  -29.2750 O   0  0  0  0  0  0  0  0  0  0  0  0
   -5.7990   23.4080  -30.6660 C   0  0  0  0  0  0  0  0  0  0  0  0
   -5.0410   22.5950  -31.5140 C   0  0  0  0  0  0  0  0  0  0  0  0
   -5.6170   21.4780  -32.1220 C   0  0  0  0  0  0  0  0  0  0  0  0
   -6.9630   21.1420  -31.8760 C   0  0  0  0  0  0  0  0  0  0  0  0
   -7.7400   21.9970  -31.0670 C   0  0  0  0  0  0  0  0  0  0  0  0
   -7.1480   23.1080  -30.4470 C   0  0  0  0  0  0  0  0  0  0  0  0
   -9.1950   21.6970  -30.8400 C   0  0  0  0  0  0  0  0  0  0  0  0
   -9.7920   21.0380  -32.0820 C   0  0  0  0  0  0  0  0  0  0  0  0
   -9.0270   19.7560  -32.4250 C   0  0  0  0  0  0  0  0  0  0  0  0
   -7.5720   19.9730  -32.4850 N   0  0  0  0  0  0  0  0  0  0  0  0
   -6.7760   18.8710  -32.9580 C   0  0  0  0  0  0  0  0  0  0  0  0
   -6.0770   18.9290  -34.2810 C   0  0  0  0  0  0  0  0  0  0  0  0
   -6.6150   17.8580  -32.2250 O   0  0  0  0  0  0  0  0  0  0  0  0
   -3.2198   24.9417  -25.3770 H   0  0  0  0  0  0  0  0  0  0  0  0
   -2.2178   24.3436  -26.7426 H   0  0  0  0  0  0  0  0  0  0  0  0
   -2.8171   26.0369  -26.7426 H   0  0  0  0  0  0  0  0  0  0  0  0
   -4.7306   23.6649  -26.6929 H   0  0  0  0  0  0  0  0  0  0  0  0
   -5.0489   25.3748  -27.1744 H   0  0  0  0  0  0  0  0  0  0  0  0
   -4.0633   21.5394  -28.5988 H   0  0  0  0  0  0  0  0  0  0  0  0
   -2.1559   20.0261  -29.1489 H   0  0  0  0  0  0  0  0  0  0  0  0
    0.0616   20.9857  -29.7768 H   0  0  0  0  0  0  0  0  0  0  0  0
    0.3746   23.4596  -29.8583 H   0  0  0  0  0  0  0  0  0  0  0  0
   -3.9847   22.8368  -31.7032 H   0  0  0  0  0  0  0  0  0  0  0  0
   -5.0146   20.8547  -32.7992 H   0  0  0  0  0  0  0  0  0  0  0  0
   -7.7489   23.7477  -29.7839 H   0  0  0  0  0  0  0  0  0  0  0  0
   -9.2972   21.0166  -29.9818 H   0  0  0  0  0  0  0  0  0  0  0  0
   -9.7301   22.6363  -30.6368 H   0  0  0  0  0  0  0  0  0  0  0  0
  -10.8465   20.7907  -31.8899 H   0  0  0  0  0  0  0  0  0  0  0  0
   -9.7162   21.7365  -32.9284 H   0  0  0  0  0  0  0  0  0  0  0  0
   -9.2405   18.9999  -31.6551 H   0  0  0  0  0  0  0  0  0  0  0  0
   -9.3588   19.4217  -33.4191 H   0  0  0  0  0  0  0  0  0  0  0  0
   -4.9927   19.0190  -34.1192 H   0  0  0  0  0  0  0  0  0  0  0  0
   -6.2881   18.0102  -34.8478 H   0  0  0  0  0  0  0  0  0  0  0  0
   -6.4367   19.8004  -34.8478 H   0  0  0  0  0  0  0  0  0  0  0  0
  1  2  1  0
  2  3  1  0
  3  4  1  0
  4  5  2  0
  5  6  1  0
  6  7  2  0
  7  8  1  0
  8  9  2  0
  9 10  1  0
  3 11  1  0
 11 12  2  0
 11 13  2  0
 11 14  1  0
 14 15  2  0
 15 16  1  0
 16 17  2  0
 17 18  1  0
 18 19  2  0
 18 20  1  0
 20 21  1  0
 21 22  1  0
 22 23  1  0
 23 24  1  0
 24 25  1  0
 24 26  2  0
  9  4  1  0
 19 14  1  0
 23 17  1  0
  1 27  1  0
  1 28  1  0
  1 29  1  0
  2 30  1  0
  2 31  1  0
  5 32  1  0
  6 33  1  0
  7 34  1  0
  8 35  1  0
 15 36  1  0
 16 37  1  0
 19 38  1  0
 20 39  1  0
 20 40  1  0
 21 41  1  0
 21 42  1  0
 22 43  1  0
 22 44  1  0
 25 45  1  0
 25 46  1  0
 25 47  1  0
M  END
>  <UniqueID>  (7) 
7

>  <SMILES>  (7) 
CCN(c1ccccc1F)S(=O)(=O)c1ccc2c(c1)CCCN2C(C)=O

>  <Energy>  (7) 
55.848846899387624

>  <Genealogy>  (7) 
CCN(c1ccccc1F)S(=O)(=O)c1ccc2c(c1)CCCN2C(C)=O (3D coordinates assigned)
CCN(c1ccccc1F)S(=O)(=O)c1ccc2c(c1)CCCN2C(C)=O (nonaromatic ring conformer: 55.848846899387624 kcal/mol)

>  <smiles>  (7) 
CCN(c1ccccc1F)S(=O)(=O)c1ccc2c(c1)CCCN2C(C)=O

>  <score_type>  (7) 
oracle

>  <origin>  (7) 
adg

>  <m_score__min__energy>  (7) 
-10.16

>  <m_primary>  (7) 
energy

$$$$
7:0
     RDKit          3D

 59 62  0  0  0  0  0  0  0  0999 V2000
    0.8840   20.5700  -33.4750 C   0  0  0  0  0  0  0  0  0  0  0  0
   -0.1100   21.2120  -32.6840 O   0  0  0  0  0  0  0  0  0  0  0  0
   -1.4620   20.8390  -32.6530 C   0  0  0  0  0  0  0  0  0  0  0  0
   -2.1760   20.4910  -33.8150 C   0  0  0  0  0  0  0  0  0  0  0  0
   -3.5230   20.1240  -33.7330 C   0  0  0  0  0  0  0  0  0  0  0  0
   -4.1810   20.0990  -32.4910 C   0  0  0  0  0  0  0  0  0  0  0  0
   -5.6100   19.7070  -32.4080 C   0  0  0  0  0  0  0  0  0  0  0  0
   -6.0280   18.4440  -32.8390 C   0  0  0  0  0  0  0  0  0  0  0  0
   -7.3680   18.0990  -32.7400 C   0  0  0  0  0  0  0  0  0  0  0  0
   -8.2750   19.0140  -32.2100 C   0  0  0  0  0  0  0  0  0  0  0  0
   -9.4920   18.6940  -32.1270 O   0  0  0  0  0  0  0  0  0  0  0  0
   -7.8340   20.2440  -31.7900 N   0  0  0  0  0  0  0  0  0  0  0  0
   -8.7610   21.2250  -31.2000 C   0  0  0  0  0  0  0  0  0  0  0  0
   -8.2610   22.6640  -31.4040 C   0  0  0  0  0  0  0  0  0  0  0  0
   -7.2210   23.1010  -30.3590 C   0  0  0  0  0  0  0  0  0  0  0  0
   -6.2660   24.0820  -30.9230 N   0  0  0  0  0  0  0  0  0  0  0  0
   -5.8760   25.1050  -29.9280 C   0  0  0  0  0  0  0  0  0  0  0  0
   -4.9890   24.5070  -28.8270 C   0  0  0  0  0  0  0  0  0  0  0  0
   -3.9660   23.6330  -29.4050 N   0  0  0  0  0  0  0  0  0  0  0  0
   -3.0330   22.9670  -28.5410 C   0  0  0  0  0  0  0  0  0  0  0  0
   -3.2580   21.6330  -28.1680 C   0  0  0  0  0  0  0  0  0  0  0  0
   -2.3620   20.9770  -27.3190 C   0  0  0  0  0  0  0  0  0  0  0  0
   -1.2350   21.6490  -26.8390 C   0  0  0  0  0  0  0  0  0  0  0  0
   -1.0010   22.9760  -27.2070 C   0  0  0  0  0  0  0  0  0  0  0  0
   -1.8950   23.6400  -28.0570 C   0  0  0  0  0  0  0  0  0  0  0  0
   -1.5500   25.2990  -28.5250 Cl  0  0  0  0  0  0  0  0  0  0  0  0
   -3.7600   23.6180  -30.8540 C   0  0  0  0  0  0  0  0  0  0  0  0
   -5.1020   23.4340  -31.5900 C   0  0  0  0  0  0  0  0  0  0  0  0
   -6.5380   20.5720  -31.8980 N   0  0  0  0  0  0  0  0  0  0  0  0
   -3.4630   20.4480  -31.3330 C   0  0  0  0  0  0  0  0  0  0  0  0
   -2.1160   20.8130  -31.4170 C   0  0  0  0  0  0  0  0  0  0  0  0
    1.6242   20.0919  -32.8166 H   0  0  0  0  0  0  0  0  0  0  0  0
    0.4107   19.8065  -34.1099 H   0  0  0  0  0  0  0  0  0  0  0  0
    1.3853   21.3154  -34.1099 H   0  0  0  0  0  0  0  0  0  0  0  0
   -1.6720   20.5078  -34.7926 H   0  0  0  0  0  0  0  0  0  0  0  0
   -4.0716   19.8529  -34.6471 H   0  0  0  0  0  0  0  0  0  0  0  0
   -5.3005   17.7303  -33.2529 H   0  0  0  0  0  0  0  0  0  0  0  0
   -7.7119   17.1102  -33.0775 H   0  0  0  0  0  0  0  0  0  0  0  0
   -9.7464   21.1177  -31.6769 H   0  0  0  0  0  0  0  0  0  0  0  0
   -8.8267   21.0319  -30.1191 H   0  0  0  0  0  0  0  0  0  0  0  0
   -7.8046   22.7367  -32.4022 H   0  0  0  0  0  0  0  0  0  0  0  0
   -9.1304   23.3292  -31.2960 H   0  0  0  0  0  0  0  0  0  0  0  0
   -7.7422   23.5592  -29.5056 H   0  0  0  0  0  0  0  0  0  0  0  0
   -6.6562   22.2123  -30.0408 H   0  0  0  0  0  0  0  0  0  0  0  0
   -5.3218   25.9069  -30.4377 H   0  0  0  0  0  0  0  0  0  0  0  0
   -6.7904   25.4985  -29.4599 H   0  0  0  0  0  0  0  0  0  0  0  0
   -4.4979   25.3226  -28.2760 H   0  0  0  0  0  0  0  0  0  0  0  0
   -5.6191   23.9135  -28.1482 H   0  0  0  0  0  0  0  0  0  0  0  0
   -4.1437   21.1010  -28.5455 H   0  0  0  0  0  0  0  0  0  0  0  0
   -2.5442   19.9317  -27.0288 H   0  0  0  0  0  0  0  0  0  0  0  0
   -0.5309   21.1323  -26.1703 H   0  0  0  0  0  0  0  0  0  0  0  0
   -0.1119   23.5013  -26.8282 H   0  0  0  0  0  0  0  0  0  0  0  0
   -3.3048   24.5700  -31.1645 H   0  0  0  0  0  0  0  0  0  0  0  0
   -3.0969   22.7784  -31.1096 H   0  0  0  0  0  0  0  0  0  0  0  0
   -5.0022   23.8614  -32.5986 H   0  0  0  0  0  0  0  0  0  0  0  0
   -5.3083   22.3536  -31.5994 H   0  0  0  0  0  0  0  0  0  0  0  0
   -6.2270   21.5250  -31.6020 H   0  0  0  0  0  0  0  0  0  0  0  0
   -3.9649   20.4337  -30.3543 H   0  0  0  0  0  0  0  0  0  0  0  0
   -1.5659   21.0820  -30.5032 H   0  0  0  0  0  0  0  0  0  0  0  0
  1  2  1  0
  2  3  1  0
  3  4  2  0
  4  5  1  0
  5  6  2  0
  6  7  1  0
  7  8  1  0
  8  9  2  0
  9 10  1  0
 10 11  2  0
 10 12  1  0
 12 13  1  0
 13 14  1  0
 14 15  1  0
 15 16  1  0
 16 17  1  0
 17 18  1  0
 18 19  1  0
 19 20  1  0
 20 21  2  0
 21 22  1  0
 22 23  2  0
 23 24  1  0
 24 25  2  0
 25 26  1  0
 19 27  1  0
 27 28  1  0
 12 29  1  0
  6 30  1  0
 30 31  2  0
 31  3  1  0
 29  7  2  0
 28 16  1  0
 25 20  1  0
  1 32  1  0
  1 33  1  0
  1 34  1  0
  4 35  1  0
  5 36  1  0
  8 37  1  0
  9 38  1  0
 13 39  1  0
 13 40  1  0
 14 41  1  0
 14 42  1  0
 15 43  1  0
 15 44  1  0
 17 45  1  0
 17 46  1  0
 18 47  1  0
 18 48  1  0
 21 49  1  0
 22 50  1  0
 23 51  1  0
 24 52  1  0
 27 53  1  0
 27 54  1  0
 28 55  1  0
 28 56  1  0
 29 57  1  0
 30 58  1  0
 31 59  1  0
M  CHG  1  29   1
M  END
>  <UniqueID>  (8) 
8

>  <SMILES>  (8) 
COc1ccc(-c2ccc(=O)n(CCCN3CCN(c4ccccc4Cl)CC3)[nH+]2)cc1

>  <Energy>  (8) 
77.87656748209551

>  <Genealogy>  (8) 
COc1ccc(-c2ccc(=O)n(CCCN3CCN(c4ccccc4Cl)CC3)[nH+]2)cc1 (protonated)
COc1ccc(-c2ccc(=O)n(CCCN3CCN(c4ccccc4Cl)CC3)[nH+]2)cc1 (3D coordinates assigned)
COc1ccc(-c2ccc(=O)n(CCCN3CCN(c4ccccc4Cl)CC3)[nH+]2)cc1 (nonaromatic ring conformer: 77.87656748209551 kcal/mol)

>  <smiles>  (8) 
COc1ccc(-c2ccc(=O)n(CCCN3CCN(c4ccccc4Cl)CC3)n2)cc1

>  <score_type>  (8) 
oracle

>  <origin>  (8) 
adg

>  <m_score__min__energy>  (8) 
-9.5199999999999996

>  <m_primary>  (8) 
energy

$$$$
8:0
     RDKit          3D

 44 46  0  0  0  0  0  0  0  0999 V2000
   -8.4411   17.2082  -33.3064 H   0  0  0  0  0  0  0  0  0  0  0  0
   -7.6130   17.8860  -33.0520 C   0  0  0  0  0  0  0  0  0  0  0  0
   -7.9060   19.0350  -32.4230 C   0  0  0  0  0  0  0  0  0  0  0  0
   -7.2440   20.2950  -32.6920 C   0  0  0  0  0  0  0  0  0  0  0  0
   -6.2580   20.4490  -33.4630 O   0  0  0  0  0  0  0  0  0  0  0  0
   -7.9050   21.3550  -31.9590 C   0  0  0  0  0  0  0  0  0  0  0  0
   -7.6110   22.6580  -32.0960 C   0  0  0  0  0  0  0  0  0  0  0  0
   -8.2760   23.2773  -32.7159 H   0  0  0  0  0  0  0  0  0  0  0  0
   -6.4460   23.3070  -31.4620 C   0  0  0  0  0  0  0  0  0  0  0  0
   -5.1650   22.7350  -31.5230 C   0  0  0  0  0  0  0  0  0  0  0  0
   -5.0189   21.7725  -32.0352 H   0  0  0  0  0  0  0  0  0  0  0  0
   -4.0750   23.3830  -30.9360 C   0  0  0  0  0  0  0  0  0  0  0  0
   -3.0785   22.9190  -30.9766 H   0  0  0  0  0  0  0  0  0  0  0  0
   -4.2400   24.6170  -30.2970 C   0  0  0  0  0  0  0  0  0  0  0  0
   -3.1160   25.2250  -29.7200 O   0  0  0  0  0  0  0  0  0  0  0  0
   -2.3280   24.6420  -28.6880 C   0  0  0  0  0  0  0  0  0  0  0  0
   -2.7295   24.9390  -27.7079 H   0  0  0  0  0  0  0  0  0  0  0  0
   -2.3569   23.5462  -28.7793 H   0  0  0  0  0  0  0  0  0  0  0  0
   -1.2886   24.9902  -28.7793 H   0  0  0  0  0  0  0  0  0  0  0  0
   -5.5190   25.2040  -30.2600 C   0  0  0  0  0  0  0  0  0  0  0  0
   -5.6610   26.1765  -29.7659 H   0  0  0  0  0  0  0  0  0  0  0  0
   -6.6090   24.5570  -30.8480 C   0  0  0  0  0  0  0  0  0  0  0  0
   -7.6013   25.0313  -30.8291 H   0  0  0  0  0  0  0  0  0  0  0  0
   -9.0380   20.7780  -31.1590 C   0  0  0  0  0  0  0  0  0  0  0  0
   -9.9926   21.2307  -31.4652 H   0  0  0  0  0  0  0  0  0  0  0  0
   -8.9161   20.9753  -30.0837 H   0  0  0  0  0  0  0  0  0  0  0  0
   -9.0390   19.2620  -31.4630 C   0  0  0  0  0  0  0  0  0  0  0  0
   -9.9939   18.9639  -31.9205 H   0  0  0  0  0  0  0  0  0  0  0  0
   -8.9181   18.6658  -30.5466 H   0  0  0  0  0  0  0  0  0  0  0  0
   -6.2420   17.4800  -33.4220 C   0  0  0  0  0  0  0  0  0  0  0  0
   -5.3950   16.8420  -32.5020 C   0  0  0  0  0  0  0  0  0  0  0  0
   -5.7583   16.6180  -31.4882 H   0  0  0  0  0  0  0  0  0  0  0  0
   -4.0930   16.4900  -32.8670 C   0  0  0  0  0  0  0  0  0  0  0  0
   -3.4418   15.9752  -32.1452 H   0  0  0  0  0  0  0  0  0  0  0  0
   -3.6110   16.7920  -34.1560 C   0  0  0  0  0  0  0  0  0  0  0  0
   -2.3130   16.4580  -34.5710 O   0  0  0  0  0  0  0  0  0  0  0  0
   -1.1830   17.3130  -34.4440 C   0  0  0  0  0  0  0  0  0  0  0  0
   -0.9656   17.4775  -33.3783 H   0  0  0  0  0  0  0  0  0  0  0  0
   -0.3129   16.8451  -34.9277 H   0  0  0  0  0  0  0  0  0  0  0  0
   -1.3968   18.2775  -34.9277 H   0  0  0  0  0  0  0  0  0  0  0  0
   -4.4490   17.4550  -35.0600 C   0  0  0  0  0  0  0  0  0  0  0  0
   -4.0796   17.7018  -36.0663 H   0  0  0  0  0  0  0  0  0  0  0  0
   -5.7520   17.8060  -34.6940 C   0  0  0  0  0  0  0  0  0  0  0  0
   -6.3957   18.3407  -35.4079 H   0  0  0  0  0  0  0  0  0  0  0  0
  1  2  1  0
  2  3  2  0
  3  4  1  0
  4  5  2  0
  4  6  1  0
  6  7  2  0
  7  8  1  0
  7  9  1  0
  9 10  2  0
 10 11  1  0
 10 12  1  0
 12 13  1  0
 12 14  2  0
 14 15  1  0
 15 16  1  0
 16 17  1  0
 16 18  1  0
 16 19  1  0
 14 20  1  0
 20 21  1  0
 20 22  2  0
 22 23  1  0
  6 24  1  0
 24 25  1  0
 24 26  1  0
 24 27  1  0
 27 28  1  0
 27 29  1  0
  2 30  1  0
 30 31  2  0
 31 32  1  0
 31 33  1  0
 33 34  1  0
 33 35  2  0
 35 36  1  0
 36 37  1  0
 37 38  1  0
 37 39  1  0
 37 40  1  0
 35 41  1  0
 41 42  1  0
 41 43  2  0
 43 44  1  0
 27  3  1  0
 43 30  1  0
 22  9  1  0
M  END
>  <UniqueID>  (9) 
9

>  <SMILES>  (9) 
COc1ccc(/C=C2\CC/C(=C\c3ccc(OC)cc3)C2=O)cc1

>  <Energy>  (9) 
66.3485170912523

>  <Genealogy>  (9) 
COc1ccc(/C=C2\CC/C(=C\c3ccc(OC)cc3)C2=O)cc1 (cis-trans isomerization)
COc1ccc(/C=C2\CC/C(=C\c3ccc(OC)cc3)C2=O)cc1 (3D coordinates assigned)
COc1ccc(/C=C2\CC/C(=C\c3ccc(OC)cc3)C2=O)cc1 (nonaromatic ring conformer: 66.3485170912523 kcal/mol)

>  <smiles>  (9) 
COc1ccc(C=C2CCC(=Cc3ccc(OC)cc3)C2=O)cc1

>  <score_type>  (9) 
oracle

>  <origin>  (9) 
adg

>  <m_score__min__energy>  (9) 
-9.2699999999999996

>  <m_primary>  (9) 
energy

$$$$
9:0
     RDKit          3D

 84 87  0  0  0  0  0  0  0  0999 V2000
   -8.0200   21.9370  -30.4590 C   0  0  0  0  0  0  0  0  0  0  0  0
   -8.6410   21.9830  -31.8540 C   0  0  0  0  0  0  0  0  0  0  0  0
   -9.2850   20.6400  -32.2550 C   0  0  0  0  0  0  0  0  0  0  0  0
   -8.7430   19.4390  -31.4590 C   0  0  0  0  0  0  0  0  0  0  0  0
   -7.5110   18.7590  -32.0760 C   0  0  0  0  0  0  0  0  0  0  0  0
   -6.8240   19.6380  -33.1400 C   0  0  0  0  0  0  0  0  0  0  0  0
   -6.0300   18.8090  -34.1610 C   0  0  0  0  0  0  0  0  0  0  0  0
   -4.5010   18.9060  -33.9460 C   0  0  0  0  0  0  0  0  0  0  0  0
   -4.0530   19.1570  -32.4750 C   0  0  0  0  0  0  0  0  0  0  0  0
   -3.5870   20.5400  -32.1170 N   0  0  0  0  0  0  0  0  0  0  0  0
   -3.6350   21.4240  -33.3140 C   0  0  0  0  0  0  0  0  0  0  0  0
   -2.1630   20.4460  -31.6990 C   0  0  0  0  0  0  0  0  0  0  0  0
   -4.3850   21.1900  -31.0290 C   0  0  0  0  0  0  0  0  0  0  0  0
   -4.8460   22.6440  -31.3030 C   0  0  0  0  0  0  0  0  0  0  0  0
   -4.0220   23.6510  -30.4940 C   0  0  0  0  0  0  0  0  0  0  0  0
   -3.0370   22.9740  -29.6130 N   0  0  0  0  0  0  0  0  0  0  0  0
   -1.6670   23.2290  -30.1170 C   0  0  0  0  0  0  0  0  0  0  0  0
   -0.5610   22.6210  -29.2370 C   0  0  0  0  0  0  0  0  0  0  0  0
   -0.8980   22.5810  -27.7160 C   0  0  1  0  0  0  0  0  0  0  0  0
    0.3820   22.8710  -26.8500 C   0  0  0  0  0  0  0  0  0  0  0  0
    0.5940   24.3480  -26.4570 C   0  0  0  0  0  0  0  0  0  0  0  0
   -0.0430   25.3350  -27.4360 C   0  0  0  0  0  0  0  0  0  0  0  0
   -1.5590   25.1180  -27.5580 C   0  0  0  0  0  0  0  0  0  0  0  0
   -1.9850   23.6350  -27.3800 C   0  0  1  0  0  0  0  0  0  0  0  0
   -3.2700   23.2760  -28.1620 C   0  0  2  0  0  0  0  0  0  0  0  0
   -3.8590   22.0260  -27.4810 C   0  0  0  0  0  0  0  0  0  0  0  0
   -2.8420   20.9140  -27.3600 C   0  0  0  0  0  0  0  0  0  0  0  0
   -3.3090   19.6110  -27.1170 C   0  0  0  0  0  0  0  0  0  0  0  0
   -2.4140   18.5500  -26.9880 C   0  0  0  0  0  0  0  0  0  0  0  0
   -1.0370   18.7760  -27.0920 C   0  0  0  0  0  0  0  0  0  0  0  0
   -0.1370   17.7160  -26.9890 O   0  0  0  0  0  0  0  0  0  0  0  0
   -0.5580   20.0720  -27.2980 C   0  0  0  0  0  0  0  0  0  0  0  0
   -1.4430   21.1700  -27.4030 C   0  0  0  0  0  0  0  0  0  0  0  0
   -8.8154   21.9959  -29.7014 H   0  0  0  0  0  0  0  0  0  0  0  0
   -7.4651   20.9953  -30.3355 H   0  0  0  0  0  0  0  0  0  0  0  0
   -7.3324   22.7867  -30.3355 H   0  0  0  0  0  0  0  0  0  0  0  0
   -9.4146   22.7648  -31.8708 H   0  0  0  0  0  0  0  0  0  0  0  0
   -7.8362   22.1971  -32.5727 H   0  0  0  0  0  0  0  0  0  0  0  0
  -10.3697   20.7094  -32.0857 H   0  0  0  0  0  0  0  0  0  0  0  0
   -9.0390   20.4655  -33.3128 H   0  0  0  0  0  0  0  0  0  0  0  0
   -8.4717   19.7901  -30.4525 H   0  0  0  0  0  0  0  0  0  0  0  0
   -9.5432   18.6842  -31.4548 H   0  0  0  0  0  0  0  0  0  0  0  0
   -6.7881   18.5443  -31.2751 H   0  0  0  0  0  0  0  0  0  0  0  0
   -7.8503   17.8373  -32.5714 H   0  0  0  0  0  0  0  0  0  0  0  0
   -7.5946   20.2128  -33.6745 H   0  0  0  0  0  0  0  0  0  0  0  0
   -6.1148   20.2997  -32.6212 H   0  0  0  0  0  0  0  0  0  0  0  0
   -6.3323   17.7552  -34.0706 H   0  0  0  0  0  0  0  0  0  0  0  0
   -6.2520   19.2104  -35.1608 H   0  0  0  0  0  0  0  0  0  0  0  0
   -4.0493   17.9613  -34.2829 H   0  0  0  0  0  0  0  0  0  0  0  0
   -4.1667   19.7822  -34.5209 H   0  0  0  0  0  0  0  0  0  0  0  0
   -4.9081   18.9192  -31.8252 H   0  0  0  0  0  0  0  0  0  0  0  0
   -3.1669   18.5195  -32.3398 H   0  0  0  0  0  0  0  0  0  0  0  0
   -3.6920   22.4743  -32.9921 H   0  0  0  0  0  0  0  0  0  0  0  0
   -2.7274   21.2741  -33.9171 H   0  0  0  0  0  0  0  0  0  0  0  0
   -4.5210   21.1767  -33.9171 H   0  0  0  0  0  0  0  0  0  0  0  0
   -2.1028   20.4420  -30.6007 H   0  0  0  0  0  0  0  0  0  0  0  0
   -1.7256   19.5170  -32.0936 H   0  0  0  0  0  0  0  0  0  0  0  0
   -1.6073   21.3094  -32.0936 H   0  0  0  0  0  0  0  0  0  0  0  0
   -5.2832   20.5783  -30.8586 H   0  0  0  0  0  0  0  0  0  0  0  0
   -3.7113   21.2502  -30.1615 H   0  0  0  0  0  0  0  0  0  0  0  0
   -4.7265   22.8619  -32.3746 H   0  0  0  0  0  0  0  0  0  0  0  0
   -5.9000   22.7366  -31.0022 H   0  0  0  0  0  0  0  0  0  0  0  0
   -3.4832   24.3112  -31.1896 H   0  0  0  0  0  0  0  0  0  0  0  0
   -4.7116   24.2259  -29.8585 H   0  0  0  0  0  0  0  0  0  0  0  0
   -1.5828   22.7999  -31.1264 H   0  0  0  0  0  0  0  0  0  0  0  0
   -1.5199   24.3191  -30.1107 H   0  0  0  0  0  0  0  0  0  0  0  0
   -0.3788   21.5906  -29.5763 H   0  0  0  0  0  0  0  0  0  0  0  0
    0.3200   23.2705  -29.3465 H   0  0  0  0  0  0  0  0  0  0  0  0
    0.3066   22.2810  -25.9247 H   0  0  0  0  0  0  0  0  0  0  0  0
    1.2420   22.5981  -27.4792 H   0  0  0  0  0  0  0  0  0  0  0  0
    0.1538   24.5106  -25.4621 H   0  0  0  0  0  0  0  0  0  0  0  0
    1.6781   24.5342  -26.4678 H   0  0  0  0  0  0  0  0  0  0  0  0
    0.1428   26.3593  -27.0806 H   0  0  0  0  0  0  0  0  0  0  0  0
    0.4068   25.1730  -28.4267 H   0  0  0  0  0  0  0  0  0  0  0  0
   -2.0609   25.7202  -26.7863 H   0  0  0  0  0  0  0  0  0  0  0  0
   -1.8500   25.4202  -28.5749 H   0  0  0  0  0  0  0  0  0  0  0  0
   -2.1716   23.5793  -26.2974 H   0  0  0  0  0  0  0  0  0  0  0  0
   -3.9430   24.1459  -28.1404 H   0  0  0  0  0  0  0  0  0  0  0  0
   -4.2062   22.3007  -26.4740 H   0  0  0  0  0  0  0  0  0  0  0  0
   -4.6896   21.6603  -28.1026 H   0  0  0  0  0  0  0  0  0  0  0  0
   -4.3898   19.4268  -27.0278 H   0  0  0  0  0  0  0  0  0  0  0  0
   -2.7910   17.5331  -26.8041 H   0  0  0  0  0  0  0  0  0  0  0  0
   -0.3120   16.9270  -26.3780 H   0  0  0  0  0  0  0  0  0  0  0  0
    0.5258   20.2413  -27.3799 H   0  0  0  0  0  0  0  0  0  0  0  0
  1  2  1  0
  2  3  1  0
  3  4  1  0
  4  5  1  0
  5  6  1  0
  6  7  1  0
  7  8  1  0
  8  9  1  0
  9 10  1  0
 10 11  1  0
 10 12  1  0
 10 13  1  0
 13 14  1  0
 14 15  1  0
 15 16  1  0
 16 17  1  0
 17 18  1  0
 19 18  1  6
 19 20  1  0
 20 21  1  0
 21 22  1  0
 22 23  1  0
 23 24  1  0
 24 25  1  0
 25 26  1  0
 26 27  1  0
 27 28  2  0
 28 29  1  0
 29 30  2  0
 30 31  1  0
 30 32  1  0
 32 33  2  0
 25 16  1  0
 33 27  1  0
 24 19  1  0
 33 19  1  0
  1 34  1  0
  1 35  1  0
  1 36  1  0
  2 37  1  0
  2 38  1  0
  3 39  1  0
  3 40  1  0
  4 41  1  0
  4 42  1  0
  5 43  1  0
  5 44  1  0
  6 45  1  0
  6 46  1  0
  7 47  1  0
  7 48  1  0
  8 49  1  0
  8 50  1  0
  9 51  1  0
  9 52  1  0
 11 53  1  0
 11 54  1  0
 11 55  1  0
 12 56  1  0
 12 57  1  0
 12 58  1  0
 13 59  1  0
 13 60  1  0
 14 61  1  0
 14 62  1  0
 15 63  1  0
 15 64  1  0
 17 65  1  0
 17 66  1  0
 18 67  1  0
 18 68  1  0
 20 69  1  0
 20 70  1  0
 21 71  1  0
 21 72  1  0
 22 73  1  0
 22 74  1  0
 23 75  1  0
 23 76  1  0
 24 77  1  1
 25 78  1  6
 26 79  1  0
 26 80  1  0
 28 81  1  0
 29 82  1  0
 31 83  1  0
 32 84  1  0
M  CHG  1  10   1
M  END
>  <UniqueID>  (10) 
10

>  <SMILES>  (10) 
CCCCCCCCC[N+](C)(C)CCCN1CC[C@@]23CCCC[C@H]2C1Cc1ccc(O)cc13

>  <Energy>  (10) 
114.97335599457259

>  <Genealogy>  (10) 
CCCCCCCCC[N+](C)(C)CCCN1CC[C@@]23CCCC[C@H]2C1Cc1ccc(O)cc13 (chirality)
CCCCCCCCC[N+](C)(C)CCCN1CC[C@@]23CCCC[C@H]2C1Cc1ccc(O)cc13 (3D coordinates assigned)
CCCCCCCCC[N+](C)(C)CCCN1CC[C@@]23CCCC[C@H]2C1Cc1ccc(O)cc13 (nonaromatic ring conformer: 114.97335599457259 kcal/mol)

>  <smiles>  (10) 
CCCCCCCCC[N+](C)(C)CCCN1CCC23CCCCC2C1Cc1ccc(O)cc13

>  <score_type>  (10) 
oracle

>  <origin>  (10) 
adg

>  <m_score__min__energy>  (10) 
-8.5199999999999996

>  <m_primary>  (10) 
energy

$$$$
10:0
     RDKit          3D

 35 37  0  0  0  0  0  0  0  0999 V2000
   -2.8990   24.1260  -29.1820 C   0  0  0  0  0  0  0  0  0  0  0  0
   -3.4800   24.3400  -30.4650 O   0  0  0  0  0  0  0  0  0  0  0  0
   -4.7830   23.9690  -30.8420 C   0  0  0  0  0  0  0  0  0  0  0  0
   -5.8700   24.7990  -30.4950 C   0  0  0  0  0  0  0  0  0  0  0  0
   -7.1760   24.4290  -30.7870 C   0  0  0  0  0  0  0  0  0  0  0  0
   -7.4340   23.2190  -31.4130 C   0  0  0  0  0  0  0  0  0  0  0  0
   -6.3790   22.3740  -31.7830 C   0  0  0  0  0  0  0  0  0  0  0  0
   -6.6730   21.1530  -32.3870 C   0  0  0  0  0  0  0  0  0  0  0  0
   -5.6540   20.2780  -32.7390 C   0  0  0  0  0  0  0  0  0  0  0  0
   -5.9890   18.9740  -33.3580 C   0  0  0  0  0  0  0  0  0  0  0  0
   -5.4920   18.4910  -34.5510 C   0  0  0  0  0  0  0  0  0  0  0  0
   -6.0430   17.2880  -34.8110 N   0  0  0  0  0  0  0  0  0  0  0  0
   -6.8640   17.0580  -33.7660 C   0  0  0  0  0  0  0  0  0  0  0  0
   -6.8460   18.0580  -32.8620 N   0  0  0  0  0  0  0  0  0  0  0  0
   -7.6190   18.1100  -31.6240 C   0  0  0  0  0  0  0  0  0  0  0  0
   -4.3200   20.6690  -32.5380 C   0  0  0  0  0  0  0  0  0  0  0  0
   -3.4010   19.8610  -32.8500 O   0  0  0  0  0  0  0  0  0  0  0  0
   -4.0120   21.9010  -31.9960 N   0  0  0  0  0  0  0  0  0  0  0  0
   -2.5890   22.2960  -31.9360 C   0  0  0  0  0  0  0  0  0  0  0  0
   -5.0240   22.7430  -31.5460 C   0  0  0  0  0  0  0  0  0  0  0  0
   -3.6259   24.3937  -28.4010 H   0  0  0  0  0  0  0  0  0  0  0  0
   -2.6217   23.0667  -29.0771 H   0  0  0  0  0  0  0  0  0  0  0  0
   -2.0008   24.7523  -29.0771 H   0  0  0  0  0  0  0  0  0  0  0  0
   -5.6796   25.7548  -29.9848 H   0  0  0  0  0  0  0  0  0  0  0  0
   -8.0081   25.0975  -30.5210 H   0  0  0  0  0  0  0  0  0  0  0  0
   -8.4723   22.9207  -31.6203 H   0  0  0  0  0  0  0  0  0  0  0  0
   -7.7199   20.8805  -32.5863 H   0  0  0  0  0  0  0  0  0  0  0  0
   -4.7604   19.0068  -35.1903 H   0  0  0  0  0  0  0  0  0  0  0  0
   -7.4810   16.1532  -33.6626 H   0  0  0  0  0  0  0  0  0  0  0  0
   -6.9359   18.0640  -30.7630 H   0  0  0  0  0  0  0  0  0  0  0  0
   -8.1914   19.0487  -31.5883 H   0  0  0  0  0  0  0  0  0  0  0  0
   -8.3119   17.2564  -31.5883 H   0  0  0  0  0  0  0  0  0  0  0  0
   -2.2766   22.3827  -30.8849 H   0  0  0  0  0  0  0  0  0  0  0  0
   -1.9755   21.5342  -32.4392 H   0  0  0  0  0  0  0  0  0  0  0  0
   -2.4559   23.2650  -32.4392 H   0  0  0  0  0  0  0  0  0  0  0  0
  1  2  1  0
  2  3  1  0
  3  4  2  0
  4  5  1  0
  5  6  2  0
  6  7  1  0
  7  8  1  0
  8  9  2  0
  9 10  1  0
 10 11  2  0
 11 12  1  0
 12 13  2  0
 13 14  1  0
 14 15  1  0
  9 16  1  0
 16 17  2  0
 16 18  1  0
 18 19  1  0
 18 20  1  0
 20  3  1  0
 20  7  2  0
 14 10  1  0
  1 21  1  0
  1 22  1  0
  1 23  1  0
  4 24  1  0
  5 25  1  0
  6 26  1  0
  8 27  1  0
 11 28  1  0
 13 29  1  0
 15 30  1  0
 15 31  1  0
 15 32  1  0
 19 33  1  0
 19 34  1  0
 19 35  1  0
M  END
>  <UniqueID>  (11) 
11

>  <SMILES>  (11) 
COc1cccc2cc(-c3cncn3C)c(=O)n(C)c12

>  <Energy>  (11) 
87.63532865238392

>  <Genealogy>  (11) 
COc1cccc2cc(-c3cncn3C)c(=O)n(C)c12 (3D coordinates assigned)
COc1cccc2cc(-c3cncn3C)c(=O)n(C)c12 (optimized conformer: 87.63532865238392 kcal/mol)

>  <smiles>  (11) 
COc1cccc2cc(-c3cncn3C)c(=O)n(C)c12

>  <score_type>  (11) 
oracle

>  <origin>  (11) 
adg

>  <m_score__min__energy>  (11) 
-6.9100000000000001

>  <m_primary>  (11) 
energy

$$$$
11:0
     RDKit          3D

 59 63  0  0  0  0  0  0  0  0999 V2000
   -6.8140   16.0550  -34.2170 C   0  0  0  0  0  0  0  0  0  0  0  0
   -5.6940   15.0150  -34.1580 C   0  0  0  0  0  0  0  0  0  0  0  0
   -4.5560   15.4720  -33.3300 N   0  0  0  0  0  0  0  0  0  0  0  0
   -4.9980   15.7660  -31.9570 C   0  0  0  0  0  0  0  0  0  0  0  0
   -3.3690   14.5800  -33.3530 C   0  0  0  0  0  0  0  0  0  0  0  0
   -2.1310   15.1740  -34.0620 C   0  0  0  0  0  0  0  0  0  0  0  0
   -2.5410   16.1290  -35.1030 N   0  0  0  0  0  0  0  0  0  0  0  0
   -1.9300   17.4240  -34.8660 C   0  0  0  0  0  0  0  0  0  0  0  0
   -0.5770   17.6240  -35.2340 C   0  0  0  0  0  0  0  0  0  0  0  0
    0.1410   16.5520  -35.7930 O   0  0  0  0  0  0  0  0  0  0  0  0
    1.4340   16.6590  -36.3820 C   0  0  0  0  0  0  0  0  0  0  0  0
    0.0240   18.8780  -35.0340 C   0  0  0  0  0  0  0  0  0  0  0  0
   -0.6900   19.9230  -34.4580 C   0  0  0  0  0  0  0  0  0  0  0  0
   -2.0130   19.7370  -34.0470 C   0  0  0  0  0  0  0  0  0  0  0  0
   -2.7040   20.7880  -33.4390 C   0  0  0  0  0  0  0  0  0  0  0  0
   -4.0230   20.6020  -32.9930 C   0  0  0  0  0  0  0  0  0  0  0  0
   -4.6400   19.3930  -33.2030 N   0  0  0  0  0  0  0  0  0  0  0  0
   -3.9730   18.3480  -33.7800 C   0  0  0  0  0  0  0  0  0  0  0  0
   -2.6460   18.4880  -34.2360 C   0  0  0  0  0  0  0  0  0  0  0  0
   -6.0160   19.1680  -32.7180 C   0  0  0  0  0  0  0  0  0  0  0  0
   -6.8790   20.4170  -32.9070 C   0  0  0  0  0  0  0  0  0  0  0  0
   -6.2030   21.6080  -32.2910 C   0  0  0  0  0  0  0  0  0  0  0  0
   -6.9740   22.6400  -31.7130 C   0  0  0  0  0  0  0  0  0  0  0  0
   -6.3020   23.7260  -31.1660 C   0  0  0  0  0  0  0  0  0  0  0  0
   -4.9500   23.8170  -31.1840 C   0  0  0  0  0  0  0  0  0  0  0  0
   -4.1490   22.8350  -31.7560 C   0  0  0  0  0  0  0  0  0  0  0  0
   -4.7850   21.7120  -32.3460 C   0  0  0  0  0  0  0  0  0  0  0  0
   -4.5600   24.9880  -30.5630 O   0  0  0  0  0  0  0  0  0  0  0  0
   -5.7430   25.6770  -30.1340 C   0  0  0  0  0  0  0  0  0  0  0  0
   -6.8320   24.8370  -30.5390 O   0  0  0  0  0  0  0  0  0  0  0  0
   -7.1118   16.3315  -33.1948 H   0  0  0  0  0  0  0  0  0  0  0  0
   -6.4567   16.9489  -34.7493 H   0  0  0  0  0  0  0  0  0  0  0  0
   -7.6790   15.6325  -34.7493 H   0  0  0  0  0  0  0  0  0  0  0  0
   -6.0950   14.0852  -33.7282 H   0  0  0  0  0  0  0  0  0  0  0  0
   -5.3259   14.8538  -35.1820 H   0  0  0  0  0  0  0  0  0  0  0  0
   -4.3027   15.3035  -31.2410 H   0  0  0  0  0  0  0  0  0  0  0  0
   -5.0134   16.8549  -31.8020 H   0  0  0  0  0  0  0  0  0  0  0  0
   -6.0082   15.3593  -31.8020 H   0  0  0  0  0  0  0  0  0  0  0  0
   -3.0919   14.3509  -32.3134 H   0  0  0  0  0  0  0  0  0  0  0  0
   -3.6600   13.6889  -33.9286 H   0  0  0  0  0  0  0  0  0  0  0  0
   -1.5043   15.6928  -33.3217 H   0  0  0  0  0  0  0  0  0  0  0  0
   -1.5649   14.3567  -34.5327 H   0  0  0  0  0  0  0  0  0  0  0  0
   -2.2540   15.7580  -36.0380 H   0  0  0  0  0  0  0  0  0  0  0  0
   -3.5810   16.2140  -35.1500 H   0  0  0  0  0  0  0  0  0  0  0  0
    2.1940   16.7219  -35.5892 H   0  0  0  0  0  0  0  0  0  0  0  0
    1.6272   15.7738  -37.0057 H   0  0  0  0  0  0  0  0  0  0  0  0
    1.4790   17.5639  -37.0057 H   0  0  0  0  0  0  0  0  0  0  0  0
    1.0700   19.0348  -35.3361 H   0  0  0  0  0  0  0  0  0  0  0  0
   -0.2099   20.9037  -34.3247 H   0  0  0  0  0  0  0  0  0  0  0  0
   -2.2137   21.7641  -33.3091 H   0  0  0  0  0  0  0  0  0  0  0  0
   -4.4817   17.3790  -33.8906 H   0  0  0  0  0  0  0  0  0  0  0  0
   -6.4629   18.3345  -33.2797 H   0  0  0  0  0  0  0  0  0  0  0  0
   -5.9734   18.9326  -31.6443 H   0  0  0  0  0  0  0  0  0  0  0  0
   -7.0270   20.5980  -33.9819 H   0  0  0  0  0  0  0  0  0  0  0  0
   -7.8513   20.2609  -32.4169 H   0  0  0  0  0  0  0  0  0  0  0  0
   -8.0725   22.5858  -31.6963 H   0  0  0  0  0  0  0  0  0  0  0  0
   -3.0528   22.9261  -31.7513 H   0  0  0  0  0  0  0  0  0  0  0  0
   -5.7402   25.8058  -29.0416 H   0  0  0  0  0  0  0  0  0  0  0  0
   -5.8147   26.6840  -30.5707 H   0  0  0  0  0  0  0  0  0  0  0  0
  1  2  1  0
  2  3  1  0
  3  4  1  0
  3  5  1  0
  5  6  1  0
  6  7  1  0
  7  8  1  0
  8  9  2  0
  9 10  1  0
 10 11  1  0
  9 12  1  0
 12 13  2  0
 13 14  1  0
 14 15  2  0
 15 16  1  0
 16 17  2  0
 17 18  1  0
 18 19  2  0
 17 20  1  0
 20 21  1  0
 21 22  1  0
 22 23  2  0
 23 24  1  0
 24 25  2  0
 25 26  1  0
 26 27  2  0
 25 28  1  0
 28 29  1  0
 29 30  1  0
 19  8  1  0
 27 22  1  0
 19 14  1  0
 30 24  1  0
 27 16  1  0
  1 31  1  0
  1 32  1  0
  1 33  1  0
  2 34  1  0
  2 35  1  0
  4 36  1  0
  4 37  1  0
  4 38  1  0
  5 39  1  0
  5 40  1  0
  6 41  1  0
  6 42  1  0
  7 43  1  0
  7 44  1  0
 11 45  1  0
 11 46  1  0
 11 47  1  0
 12 48  1  0
 13 49  1  0
 15 50  1  0
 18 51  1  0
 20 52  1  0
 20 53  1  0
 21 54  1  0
 21 55  1  0
 23 56  1  0
 26 57  1  0
 29 58  1  0
 29 59  1  0
M  CHG  2   7   1  17   1
M  END
>  <UniqueID>  (12) 
12

>  <SMILES>  (12) 
CCN(C)CC[NH2+]c1c(OC)ccc2cc3[n+](cc12)CCc1cc2c(cc1-3)OCO2

>  <Energy>  (12) 
106.05256191037526

>  <Genealogy>  (12) 
CCN(C)CC[NH2+]c1c(OC)ccc2cc3[n+](cc12)CCc1cc2c(cc1-3)OCO2 (protonated)
CCN(C)CC[NH2+]c1c(OC)ccc2cc3[n+](cc12)CCc1cc2c(cc1-3)OCO2 (3D coordinates assigned)
CCN(C)CC[NH2+]c1c(OC)ccc2cc3[n+](cc12)CCc1cc2c(cc1-3)OCO2 (nonaromatic ring conformer: 106.05256191037526 kcal/mol)

>  <smiles>  (12) 
CCN(C)CCNc1c(OC)ccc2cc3[n+](cc12)CCc1cc2c(cc1-3)OCO2

>  <score_type>  (12) 
oracle

>  <origin>  (12) 
adg

>  <m_score__min__energy>  (12) 
-7.1699999999999999

>  <m_primary>  (12) 
energy

$$$$
12:0
     RDKit          3D

 55 59  0  0  0  0  0  0  0  0999 V2000
   -3.5400   21.7610  -30.0740 C   0  0  0  0  0  0  0  0  0  0  0  0
   -4.3970   22.9450  -30.4660 C   0  0  0  0  0  0  0  0  0  0  0  0
   -5.3640   22.8320  -31.4970 C   0  0  0  0  0  0  0  0  0  0  0  0
   -5.6040   21.5610  -32.2190 C   0  0  0  0  0  0  0  0  0  0  0  0
   -6.9150   21.1990  -32.6000 C   0  0  0  0  0  0  0  0  0  0  0  0
   -7.1450   20.0120  -33.3120 C   0  0  0  0  0  0  0  0  0  0  0  0
   -6.0580   19.1950  -33.6260 C   0  0  0  0  0  0  0  0  0  0  0  0
   -4.7830   19.5340  -33.2470 C   0  0  0  0  0  0  0  0  0  0  0  0
   -4.5280   20.7070  -32.5350 C   0  0  0  0  0  0  0  0  0  0  0  0
   -3.7790   18.5510  -33.7130 C   0  0  0  0  0  0  0  0  0  0  0  0
   -4.6420   17.3870  -34.2850 C   0  0  1  0  0  0  0  0  0  0  0  0
   -4.0970   16.8580  -35.6450 C   0  0  0  0  0  0  0  0  0  0  0  0
   -3.3000   15.5870  -35.3320 C   0  0  0  0  0  0  0  0  0  0  0  0
   -3.7830   15.2230  -33.9850 C   0  0  0  0  0  0  0  0  0  0  0  0
   -3.4970   14.1390  -33.4080 O   0  0  0  0  0  0  0  0  0  0  0  0
   -4.5740   16.2320  -33.3870 N   0  0  0  0  0  0  0  0  0  0  0  0
   -5.0270   16.1900  -31.9960 C   0  0  0  0  0  0  0  0  0  0  0  0
   -6.0960   17.9290  -34.3970 C   0  0  0  0  0  0  0  0  0  0  0  0
   -6.1080   23.9660  -31.8580 C   0  0  0  0  0  0  0  0  0  0  0  0
   -5.9300   25.1430  -31.2090 N   0  0  0  0  0  0  0  0  0  0  0  0
   -5.0330   25.2740  -30.1980 C   0  0  0  0  0  0  0  0  0  0  0  0
   -4.2530   24.1850  -29.7990 C   0  0  0  0  0  0  0  0  0  0  0  0
   -3.3040   24.3590  -28.7380 N   0  0  0  0  0  0  0  0  0  0  0  0
   -3.8230   24.5480  -27.3770 C   0  0  0  0  0  0  0  0  0  0  0  0
   -2.7110   24.7870  -26.3520 C   0  0  0  0  0  0  0  0  0  0  0  0
   -1.6400   25.5120  -26.9150 O   0  0  0  0  0  0  0  0  0  0  0  0
   -0.9920   24.7020  -27.8680 C   0  0  0  0  0  0  0  0  0  0  0  0
   -1.8820   24.4720  -29.0930 C   0  0  0  0  0  0  0  0  0  0  0  0
   -3.4899   21.6917  -28.9773 H   0  0  0  0  0  0  0  0  0  0  0  0
   -3.9811   20.8387  -30.4799 H   0  0  0  0  0  0  0  0  0  0  0  0
   -2.5260   21.8919  -30.4799 H   0  0  0  0  0  0  0  0  0  0  0  0
   -7.7607   21.8514  -32.3370 H   0  0  0  0  0  0  0  0  0  0  0  0
   -8.1636   19.7305  -33.6172 H   0  0  0  0  0  0  0  0  0  0  0  0
   -3.5035   20.9611  -32.2253 H   0  0  0  0  0  0  0  0  0  0  0  0
   -3.1380   18.9851  -34.4945 H   0  0  0  0  0  0  0  0  0  0  0  0
   -3.0981   18.2244  -32.9132 H   0  0  0  0  0  0  0  0  0  0  0  0
   -4.9309   16.6257  -36.3237 H   0  0  0  0  0  0  0  0  0  0  0  0
   -3.4655   17.6108  -36.1394 H   0  0  0  0  0  0  0  0  0  0  0  0
   -3.5194   14.7921  -36.0600 H   0  0  0  0  0  0  0  0  0  0  0  0
   -2.2107   15.7325  -35.3801 H   0  0  0  0  0  0  0  0  0  0  0  0
   -4.1590   16.2705  -31.3251 H   0  0  0  0  0  0  0  0  0  0  0  0
   -5.7142   17.0283  -31.8087 H   0  0  0  0  0  0  0  0  0  0  0  0
   -5.5483   15.2397  -31.8087 H   0  0  0  0  0  0  0  0  0  0  0  0
   -6.3651   18.1168  -35.4469 H   0  0  0  0  0  0  0  0  0  0  0  0
   -6.8463   17.2201  -34.0169 H   0  0  0  0  0  0  0  0  0  0  0  0
   -6.8419   23.8993  -32.6746 H   0  0  0  0  0  0  0  0  0  0  0  0
   -4.9195   26.2430  -29.6900 H   0  0  0  0  0  0  0  0  0  0  0  0
   -4.4975   25.4169  -27.3744 H   0  0  0  0  0  0  0  0  0  0  0  0
   -4.3492   23.6258  -27.0895 H   0  0  0  0  0  0  0  0  0  0  0  0
   -3.1216   25.3552  -25.5043 H   0  0  0  0  0  0  0  0  0  0  0  0
   -2.3309   23.8099  -26.0191 H   0  0  0  0  0  0  0  0  0  0  0  0
   -0.0625   25.1962  -28.1870 H   0  0  0  0  0  0  0  0  0  0  0  0
   -0.7733   23.7274  -27.4072 H   0  0  0  0  0  0  0  0  0  0  0  0
   -1.7566   25.3179  -29.7849 H   0  0  0  0  0  0  0  0  0  0  0  0
   -1.5754   23.5232  -29.5575 H   0  0  0  0  0  0  0  0  0  0  0  0
  1  2  1  0
  2  3  2  0
  3  4  1  0
  4  5  2  0
  5  6  1  0
  6  7  2  0
  7  8  1  0
  8  9  2  0
  8 10  1  0
 10 11  1  0
 11 12  1  0
 12 13  1  0
 13 14  1  0
 14 15  2  0
 14 16  1  0
 16 17  1  0
 11 18  1  0
  3 19  1  0
 19 20  2  0
 20 21  1  0
 21 22  2  0
 22 23  1  0
 23 24  1  0
 24 25  1  0
 25 26  1  0
 26 27  1  0
 27 28  1  0
 22  2  1  0
 28 23  1  0
  9  4  1  0
 11 16  1  1
 18  7  1  0
  1 29  1  0
  1 30  1  0
  1 31  1  0
  5 32  1  0
  6 33  1  0
  9 34  1  0
 10 35  1  0
 10 36  1  0
 12 37  1  0
 12 38  1  0
 13 39  1  0
 13 40  1  0
 17 41  1  0
 17 42  1  0
 17 43  1  0
 18 44  1  0
 18 45  1  0
 19 46  1  0
 21 47  1  0
 24 48  1  0
 24 49  1  0
 25 50  1  0
 25 51  1  0
 27 52  1  0
 27 53  1  0
 28 54  1  0
 28 55  1  0
M  END
>  <UniqueID>  (13) 
13

>  <SMILES>  (13) 
Cc1c(-c2ccc3c(c2)C[C@]2(CCC(=O)N2C)C3)cncc1N1CCOCC1

>  <Energy>  (13) 
92.51002253559633

>  <Genealogy>  (13) 
Cc1c(-c2ccc3c(c2)C[C@]2(CCC(=O)N2C)C3)cncc1N1CCOCC1 (chirality)
Cc1c(-c2ccc3c(c2)C[C@]2(CCC(=O)N2C)C3)cncc1N1CCOCC1 (3D coordinates assigned)
Cc1c(-c2ccc3c(c2)C[C@]2(CCC(=O)N2C)C3)cncc1N1CCOCC1 (nonaromatic ring conformer: 92.51002253559633 kcal/mol)

>  <smiles>  (13) 
Cc1c(-c2ccc3c(c2)CC2(CCC(=O)N2C)C3)cncc1N1CCOCC1

>  <score_type>  (13) 
oracle

>  <origin>  (13) 
adg

>  <m_score__min__energy>  (13) 
-9.1500000000000004

>  <m_primary>  (13) 
energy

$$$$
13:0
     RDKit          3D

 46 47  0  0  0  0  0  0  0  0999 V2000
   -3.2400   25.2820  -26.2930 C   0  0  0  0  0  0  0  0  0  0  0  0
   -2.7040   24.5580  -27.5390 C   0  0  0  0  0  0  0  0  0  0  0  0
   -3.7140   23.7850  -28.3220 N   0  0  0  0  0  0  0  0  0  0  0  0
   -3.8990   22.3850  -27.8540 C   0  0  0  0  0  0  0  0  0  0  0  0
   -2.8160   21.4290  -28.3660 C   0  0  0  0  0  0  0  0  0  0  0  0
   -4.9760   24.5420  -28.5680 C   0  0  0  0  0  0  0  0  0  0  0  0
   -5.2450   24.9650  -30.0240 C   0  0  0  0  0  0  0  0  0  0  0  0
   -4.2730   24.4070  -30.8880 O   0  0  0  0  0  0  0  0  0  0  0  0
   -4.5770   23.0600  -31.2030 C   0  0  0  0  0  0  0  0  0  0  0  0
   -5.4200   22.9190  -32.4800 C   0  0  0  0  0  0  0  0  0  0  0  0
   -6.7430   22.3590  -32.1900 N   0  0  0  0  0  0  0  0  0  0  0  0
   -7.8960   23.1530  -31.7610 C   0  0  0  0  0  0  0  0  0  0  0  0
   -9.0660   22.1540  -31.5930 C   0  0  0  0  0  0  0  0  0  0  0  0
   -8.4630   20.8480  -31.9710 C   0  0  0  0  0  0  0  0  0  0  0  0
   -9.0760   19.5940  -31.9790 C   0  0  0  0  0  0  0  0  0  0  0  0
   -8.3140   18.4780  -32.3570 C   0  0  0  0  0  0  0  0  0  0  0  0
   -6.9640   18.6330  -32.7220 C   0  0  0  0  0  0  0  0  0  0  0  0
   -6.3680   19.9040  -32.7060 C   0  0  0  0  0  0  0  0  0  0  0  0
   -7.1470   21.0020  -32.3150 C   0  0  0  0  0  0  0  0  0  0  0  0
   -2.8677   24.7792  -25.3882 H   0  0  0  0  0  0  0  0  0  0  0  0
   -2.8960   26.3268  -26.2997 H   0  0  0  0  0  0  0  0  0  0  0  0
   -4.3397   25.2580  -26.2997 H   0  0  0  0  0  0  0  0  0  0  0  0
   -2.2648   25.3139  -28.2066 H   0  0  0  0  0  0  0  0  0  0  0  0
   -1.9804   23.8172  -27.1680 H   0  0  0  0  0  0  0  0  0  0  0  0
   -3.2870   23.6970  -29.2760 H   0  0  0  0  0  0  0  0  0  0  0  0
   -3.8794   22.3786  -26.7542 H   0  0  0  0  0  0  0  0  0  0  0  0
   -4.8616   22.0318  -28.2523 H   0  0  0  0  0  0  0  0  0  0  0  0
   -2.2972   20.9710  -27.5110 H   0  0  0  0  0  0  0  0  0  0  0  0
   -3.2811   20.6416  -28.9772 H   0  0  0  0  0  0  0  0  0  0  0  0
   -2.0924   21.9883  -28.9772 H   0  0  0  0  0  0  0  0  0  0  0  0
   -5.8151   23.9097  -28.2422 H   0  0  0  0  0  0  0  0  0  0  0  0
   -4.8695   25.4808  -28.0047 H   0  0  0  0  0  0  0  0  0  0  0  0
   -6.2426   24.6127  -30.3253 H   0  0  0  0  0  0  0  0  0  0  0  0
   -5.1947   26.0618  -30.0918 H   0  0  0  0  0  0  0  0  0  0  0  0
   -3.6341   22.5110  -31.3427 H   0  0  0  0  0  0  0  0  0  0  0  0
   -5.1692   22.6523  -30.3704 H   0  0  0  0  0  0  0  0  0  0  0  0
   -5.5443   23.9114  -32.9379 H   0  0  0  0  0  0  0  0  0  0  0  0
   -4.8978   22.2349  -33.1650 H   0  0  0  0  0  0  0  0  0  0  0  0
   -7.6808   23.6532  -30.8052 H   0  0  0  0  0  0  0  0  0  0  0  0
   -8.1389   23.9372  -32.4932 H   0  0  0  0  0  0  0  0  0  0  0  0
   -9.4219   22.1364  -30.5523 H   0  0  0  0  0  0  0  0  0  0  0  0
   -9.9431   22.4142  -32.2037 H   0  0  0  0  0  0  0  0  0  0  0  0
  -10.1330   19.4831  -31.6953 H   0  0  0  0  0  0  0  0  0  0  0  0
   -8.7736   17.4787  -32.3680 H   0  0  0  0  0  0  0  0  0  0  0  0
   -6.3731   17.7547  -33.0211 H   0  0  0  0  0  0  0  0  0  0  0  0
   -5.3144   20.0353  -32.9935 H   0  0  0  0  0  0  0  0  0  0  0  0
  1  2  1  0
  2  3  1  0
  3  4  1  0
  4  5  1  0
  3  6  1  0
  6  7  1  0
  7  8  1  0
  8  9  1  0
  9 10  1  0
 10 11  1  0
 11 12  1  0
 12 13  1  0
 13 14  1  0
 14 15  2  0
 15 16  1  0
 16 17  2  0
 17 18  1  0
 18 19  2  0
 19 11  1  0
 19 14  1  0
  1 20  1  0
  1 21  1  0
  1 22  1  0
  2 23  1  0
  2 24  1  0
  3 25  1  0
  4 26  1  0
  4 27  1  0
  5 28  1  0
  5 29  1  0
  5 30  1  0
  6 31  1  0
  6 32  1  0
  7 33  1  0
  7 34  1  0
  9 35  1  0
  9 36  1  0
 10 37  1  0
 10 38  1  0
 12 39  1  0
 12 40  1  0
 13 41  1  0
 13 42  1  0
 15 43  1  0
 16 44  1  0
 17 45  1  0
 18 46  1  0
M  CHG  1   3   1
M  END
>  <UniqueID>  (14) 
14

>  <SMILES>  (14) 
CC[NH+](CC)CCOCCN1CCc2ccccc21

>  <Energy>  (14) 
65.00195137500054

>  <Genealogy>  (14) 
CC[NH+](CC)CCOCCN1CCc2ccccc21 (protonated)
CC[NH+](CC)CCOCCN1CCc2ccccc21 (3D coordinates assigned)
CC[NH+](CC)CCOCCN1CCc2ccccc21 (nonaromatic ring conformer: 65.00195137500054 kcal/mol)

>  <smiles>  (14) 
CCN(CC)CCOCCN1CCc2ccccc21

>  <score_type>  (14) 
oracle

>  <origin>  (14) 
adg

>  <m_score__min__energy>  (14) 
-5.5

>  <m_primary>  (14) 
energy

$$$$
14:0
     RDKit          3D

 37 38  0  0  0  0  0  0  0  0999 V2000
   -9.4970   20.7690  -32.3470 C   0  0  0  0  0  0  0  0  0  0  0  0
   -8.5070   19.6200  -32.5720 C   0  0  0  0  0  0  0  0  0  0  0  0
   -8.8090   18.4400  -31.6410 C   0  0  0  0  0  0  0  0  0  0  0  0
   -7.0680   20.0940  -32.4080 C   0  0  0  0  0  0  0  0  0  0  0  0
   -6.7960   21.2520  -31.6520 C   0  0  0  0  0  0  0  0  0  0  0  0
   -5.4870   21.7220  -31.5060 C   0  0  0  0  0  0  0  0  0  0  0  0
   -5.2510   22.8420  -30.7730 N   0  0  0  0  0  0  0  0  0  0  0  0
   -3.9970   23.3430  -30.5980 C   0  0  0  0  0  0  0  0  0  0  0  0
   -3.7900   24.5830  -29.7800 C   0  0  0  0  0  0  0  0  0  0  0  0
   -2.4480   24.7540  -29.4860 F   0  0  0  0  0  0  0  0  0  0  0  0
   -4.2370   25.6850  -30.4840 F   0  0  0  0  0  0  0  0  0  0  0  0
   -4.4970   24.4820  -28.5960 F   0  0  0  0  0  0  0  0  0  0  0  0
   -2.9040   22.6940  -31.1880 C   0  0  0  0  0  0  0  0  0  0  0  0
   -3.1110   21.5400  -31.9490 C   0  0  0  0  0  0  0  0  0  0  0  0
   -2.1220   20.9620  -32.4770 O   0  0  0  0  0  0  0  0  0  0  0  0
   -4.4160   21.0380  -32.1170 C   0  0  0  0  0  0  0  0  0  0  0  0
   -4.6780   19.8830  -32.8690 C   0  0  0  0  0  0  0  0  0  0  0  0
   -5.9900   19.4060  -33.0160 C   0  0  0  0  0  0  0  0  0  0  0  0
   -6.2140   18.2110  -33.7800 N   0  0  0  0  0  0  0  0  0  0  0  0
   -6.4530   16.9580  -33.0680 C   0  0  0  0  0  0  0  0  0  0  0  0
   -5.7490   18.1560  -35.1650 C   0  0  0  0  0  0  0  0  0  0  0  0
   -9.6344   20.9285  -31.2673 H   0  0  0  0  0  0  0  0  0  0  0  0
   -9.1030   21.6877  -32.8061 H   0  0  0  0  0  0  0  0  0  0  0  0
  -10.4638   20.5152  -32.8061 H   0  0  0  0  0  0  0  0  0  0  0  0
   -8.6292   19.2705  -33.6078 H   0  0  0  0  0  0  0  0  0  0  0  0
   -8.7251   18.7679  -30.5944 H   0  0  0  0  0  0  0  0  0  0  0  0
   -9.8294   18.0754  -31.8303 H   0  0  0  0  0  0  0  0  0  0  0  0
   -8.0892   17.6300  -31.8303 H   0  0  0  0  0  0  0  0  0  0  0  0
   -7.6240   21.7930  -31.1706 H   0  0  0  0  0  0  0  0  0  0  0  0
   -1.8872   23.0912  -31.0527 H   0  0  0  0  0  0  0  0  0  0  0  0
   -3.8466   19.3455  -33.3485 H   0  0  0  0  0  0  0  0  0  0  0  0
   -6.4183   17.1400  -31.9837 H   0  0  0  0  0  0  0  0  0  0  0  0
   -7.4426   16.5635  -33.3421 H   0  0  0  0  0  0  0  0  0  0  0  0
   -5.6781   16.2270  -33.3421 H   0  0  0  0  0  0  0  0  0  0  0  0
   -4.6567   18.0268  -35.1802 H   0  0  0  0  0  0  0  0  0  0  0  0
   -6.2257   17.3080  -35.6784 H   0  0  0  0  0  0  0  0  0  0  0  0
   -6.0147   19.0918  -35.6784 H   0  0  0  0  0  0  0  0  0  0  0  0
  1  2  1  0
  2  3  1  0
  2  4  1  0
  4  5  2  0
  5  6  1  0
  6  7  1  0
  7  8  1  0
  8  9  1  0
  9 10  1  0
  9 11  1  0
  9 12  1  0
  8 13  2  0
 13 14  1  0
 14 15  2  0
 14 16  1  0
 16 17  1  0
 17 18  2  0
 18 19  1  0
 19 20  1  0
 19 21  1  0
 18  4  1  0
 16  6  2  0
  1 22  1  0
  1 23  1  0
  1 24  1  0
  2 25  1  0
  3 26  1  0
  3 27  1  0
  3 28  1  0
  5 29  1  0
 13 30  1  0
 17 31  1  0
 20 32  1  0
 20 33  1  0
 20 34  1  0
 21 35  1  0
 21 36  1  0
 21 37  1  0
M  CHG  1   7  -1
M  END
>  <UniqueID>  (15) 
15

>  <SMILES>  (15) 
CC(C)c1cc2[n-]c(C(F)(F)F)cc(=O)c2cc1N(C)C

>  <Energy>  (15) 
42.06715169523542

>  <Genealogy>  (15) 
CC(C)c1cc2[n-]c(C(F)(F)F)cc(=O)c2cc1N(C)C (protonated)
CC(C)c1cc2[n-]c(C(F)(F)F)cc(=O)c2cc1N(C)C (3D coordinates assigned)
CC(C)c1cc2[n-]c(C(F)(F)F)cc(=O)c2cc1N(C)C (optimized conformer: 42.06715169523542 kcal/mol)

>  <smiles>  (15) 
CC(C)c1cc2[nH]c(C(F)(F)F)cc(=O)c2cc1N(C)C

>  <score_type>  (15) 
oracle

>  <origin>  (15) 
adg

>  <m_score__min__energy>  (15) 
-6.75

>  <m_primary>  (15) 
energy

$$$$
15:0
     RDKit          3D

 70 74  0  0  0  0  0  0  0  0999 V2000
   -2.7710   21.3160  -27.8100 C   0  0  0  0  0  0  0  0  0  0  0  0
   -3.1170   21.3890  -29.2970 C   0  0  0  0  0  0  0  0  0  0  0  0
   -2.4230   22.4830  -30.0130 N   0  0  0  0  0  0  0  0  0  0  0  0
   -1.2650   22.0920  -30.8500 C   0  0  0  0  0  0  0  0  0  0  0  0
   -0.8800   20.6070  -30.7550 C   0  0  0  0  0  0  0  0  0  0  0  0
   -2.3440   23.7720  -29.2920 C   0  0  0  0  0  0  0  0  0  0  0  0
   -3.7090   24.4650  -29.3220 C   0  0  0  0  0  0  0  0  0  0  0  0
   -3.9420   25.0690  -30.5820 O   0  0  0  0  0  0  0  0  0  0  0  0
   -5.1690   24.6420  -31.1420 C   0  0  0  0  0  0  0  0  0  0  0  0
   -5.2880   23.1210  -31.0460 C   0  0  0  0  0  0  0  0  0  0  0  0
   -5.5260   22.5480  -32.3690 N   0  0  0  0  0  0  0  0  0  0  0  0
   -5.6960   21.1300  -32.5450 C   0  0  0  0  0  0  0  0  0  0  0  0
   -6.9500   20.5350  -32.3240 C   0  0  0  0  0  0  0  0  0  0  0  0
   -8.0770   21.3240  -32.0040 C   0  0  0  0  0  0  0  0  0  0  0  0
   -9.3280   20.7400  -31.8280 C   0  0  0  0  0  0  0  0  0  0  0  0
   -9.4850   19.3670  -31.9850 C   0  0  0  0  0  0  0  0  0  0  0  0
   -8.3890   18.5680  -32.3080 C   0  0  0  0  0  0  0  0  0  0  0  0
   -7.0940   19.1270  -32.4570 C   0  0  0  0  0  0  0  0  0  0  0  0
   -5.9960   18.3410  -32.7520 N   0  0  0  0  0  0  0  0  0  0  0  0
   -6.0770   16.8710  -32.5970 C   0  0  0  0  0  0  0  0  0  0  0  0
   -4.8160   18.9270  -33.1640 C   0  0  0  0  0  0  0  0  0  0  0  0
   -3.7670   18.1570  -33.7480 C   0  0  0  0  0  0  0  0  0  0  0  0
   -2.5740   18.7850  -34.0830 C   0  0  0  0  0  0  0  0  0  0  0  0
   -1.4830   18.2150  -34.6390 N   0  0  0  0  0  0  0  0  0  0  0  0
   -0.5970   19.2270  -34.7710 C   0  0  0  0  0  0  0  0  0  0  0  0
    0.6870   19.1580  -35.3060 C   0  0  0  0  0  0  0  0  0  0  0  0
    1.4450   20.3430  -35.3550 C   0  0  0  0  0  0  0  0  0  0  0  0
    0.9180   21.5660  -34.8770 C   0  0  0  0  0  0  0  0  0  0  0  0
    1.7260   22.7110  -34.9540 O   0  0  0  0  0  0  0  0  0  0  0  0
    1.4880   23.8010  -35.8400 C   0  0  0  0  0  0  0  0  0  0  0  0
   -0.3940   21.6060  -34.3410 C   0  0  0  0  0  0  0  0  0  0  0  0
   -1.1170   20.4160  -34.3080 C   0  0  0  0  0  0  0  0  0  0  0  0
   -2.3890   20.1280  -33.8700 C   0  0  0  0  0  0  0  0  0  0  0  0
   -3.3860   20.9370  -33.3440 C   0  0  0  0  0  0  0  0  0  0  0  0
   -4.6320   20.3430  -33.0160 C   0  0  0  0  0  0  0  0  0  0  0  0
   -3.6752   21.5068  -27.2133 H   0  0  0  0  0  0  0  0  0  0  0  0
   -2.3798   20.3155  -27.5732 H   0  0  0  0  0  0  0  0  0  0  0  0
   -2.0090   22.0731  -27.5732 H   0  0  0  0  0  0  0  0  0  0  0  0
   -2.8381   20.4341  -29.7664 H   0  0  0  0  0  0  0  0  0  0  0  0
   -4.1961   21.5901  -29.3680 H   0  0  0  0  0  0  0  0  0  0  0  0
   -1.5081   22.3171  -31.8989 H   0  0  0  0  0  0  0  0  0  0  0  0
   -0.4024   22.6626  -30.4753 H   0  0  0  0  0  0  0  0  0  0  0  0
   -0.8042   20.3148  -29.6972 H   0  0  0  0  0  0  0  0  0  0  0  0
   -1.6495   19.9963  -31.2499 H   0  0  0  0  0  0  0  0  0  0  0  0
    0.0893   20.4471  -31.2499 H   0  0  0  0  0  0  0  0  0  0  0  0
   -2.0495   23.5895  -28.2480 H   0  0  0  0  0  0  0  0  0  0  0  0
   -1.5976   24.4166  -29.7792 H   0  0  0  0  0  0  0  0  0  0  0  0
   -4.4952   23.7203  -29.1287 H   0  0  0  0  0  0  0  0  0  0  0  0
   -3.7227   25.2478  -28.5493 H   0  0  0  0  0  0  0  0  0  0  0  0
   -6.0011   25.1076  -30.5935 H   0  0  0  0  0  0  0  0  0  0  0  0
   -5.2055   24.9403  -32.2001 H   0  0  0  0  0  0  0  0  0  0  0  0
   -4.3549   22.7090  -30.6343 H   0  0  0  0  0  0  0  0  0  0  0  0
   -6.1329   22.8683  -30.3886 H   0  0  0  0  0  0  0  0  0  0  0  0
   -5.3310   23.1410  -33.2070 H   0  0  0  0  0  0  0  0  0  0  0  0
   -7.9647   22.4126  -31.8926 H   0  0  0  0  0  0  0  0  0  0  0  0
  -10.1938   21.3652  -31.5643 H   0  0  0  0  0  0  0  0  0  0  0  0
  -10.4770   18.9100  -31.8539 H   0  0  0  0  0  0  0  0  0  0  0  0
   -8.5310   17.4864  -32.4496 H   0  0  0  0  0  0  0  0  0  0  0  0
   -6.0911   16.6153  -31.5272 H   0  0  0  0  0  0  0  0  0  0  0  0
   -6.9968   16.5021  -33.0743 H   0  0  0  0  0  0  0  0  0  0  0  0
   -5.2033   16.4033  -33.0743 H   0  0  0  0  0  0  0  0  0  0  0  0
   -3.9008   17.0806  -33.9306 H   0  0  0  0  0  0  0  0  0  0  0  0
   -1.3550   17.2140  -34.9110 H   0  0  0  0  0  0  0  0  0  0  0  0
    1.0959   18.2072  -35.6786 H   0  0  0  0  0  0  0  0  0  0  0  0
    2.4628   20.3179  -35.7714 H   0  0  0  0  0  0  0  0  0  0  0  0
    1.2892   24.7116  -35.2559 H   0  0  0  0  0  0  0  0  0  0  0  0
    2.3730   23.9581  -36.4741 H   0  0  0  0  0  0  0  0  0  0  0  0
    0.6181   23.5749  -36.4741 H   0  0  0  0  0  0  0  0  0  0  0  0
   -0.8261   22.5447  -33.9641 H   0  0  0  0  0  0  0  0  0  0  0  0
   -3.2147   22.0119  -33.1853 H   0  0  0  0  0  0  0  0  0  0  0  0
  1  2  1  0
  2  3  1  0
  3  4  1  0
  4  5  1  0
  3  6  1  0
  6  7  1  0
  7  8  1  0
  8  9  1  0
  9 10  1  0
 10 11  1  0
 11 12  1  0
 12 13  2  0
 13 14  1  0
 14 15  2  0
 15 16  1  0
 16 17  2  0
 17 18  1  0
 18 19  2  0
 19 20  1  0
 19 21  1  0
 21 22  2  0
 22 23  1  0
 23 24  1  0
 24 25  1  0
 25 26  2  0
 26 27  1  0
 27 28  2  0
 28 29  1  0
 29 30  1  0
 28 31  1  0
 31 32  2  0
 32 33  1  0
 33 34  1  0
 34 35  2  0
 35 12  1  0
 18 13  1  0
 35 21  1  0
 33 23  2  0
 32 25  1  0
  1 36  1  0
  1 37  1  0
  1 38  1  0
  2 39  1  0
  2 40  1  0
  4 41  1  0
  4 42  1  0
  5 43  1  0
  5 44  1  0
  5 45  1  0
  6 46  1  0
  6 47  1  0
  7 48  1  0
  7 49  1  0
  9 50  1  0
  9 51  1  0
 10 52  1  0
 10 53  1  0
 11 54  1  0
 14 55  1  0
 15 56  1  0
 16 57  1  0
 17 58  1  0
 20 59  1  0
 20 60  1  0
 20 61  1  0
 22 62  1  0
 24 63  1  0
 26 64  1  0
 27 65  1  0
 30 66  1  0
 30 67  1  0
 30 68  1  0
 31 69  1  0
 34 70  1  0
M  CHG  1  19   1
M  END
>  <UniqueID>  (16) 
16

>  <SMILES>  (16) 
CCN(CC)CCOCCNc1c2ccccc2[n+](C)c2cc3[nH]c4ccc(OC)cc4c3cc12

>  <Energy>  (16) 
147.1074703116038

>  <Genealogy>  (16) 
CCN(CC)CCOCCNc1c2ccccc2[n+](C)c2cc3[nH]c4ccc(OC)cc4c3cc12 (3D coordinates assigned)
CCN(CC)CCOCCNc1c2ccccc2[n+](C)c2cc3[nH]c4ccc(OC)cc4c3cc12 (optimized conformer: 147.1074703116038 kcal/mol)

>  <smiles>  (16) 
CCN(CC)CCOCCNc1c2ccccc2[n+](C)c2cc3[nH]c4ccc(OC)cc4c3cc12

>  <score_type>  (16) 
oracle

>  <origin>  (16) 
adg

>  <m_score__min__energy>  (16) 
-9.9900000000000002

>  <m_primary>  (16) 
energy

$$$$
16:0
     RDKit          3D

 57 59  0  0  0  0  0  0  0  0999 V2000
   -3.0160   25.0060  -26.3630 C   0  0  0  0  0  0  0  0  0  0  0  0
   -4.2320   24.4870  -27.1260 C   0  0  0  0  0  0  0  0  0  0  0  0
   -3.8060   23.5930  -28.2280 N   0  0  0  0  0  0  0  0  0  0  0  0
   -2.6800   22.7270  -27.8120 C   0  0  0  0  0  0  0  0  0  0  0  0
   -3.0940   21.2590  -27.8760 C   0  0  0  0  0  0  0  0  0  0  0  0
   -3.4650   24.3680  -29.4440 C   0  0  0  0  0  0  0  0  0  0  0  0
   -4.6600   24.4280  -30.4130 C   0  0  0  0  0  0  0  0  0  0  0  0
   -4.4780   23.5620  -31.5190 O   0  0  0  0  0  0  0  0  0  0  0  0
   -3.6530   22.4700  -31.1690 C   0  0  0  0  0  0  0  0  0  0  0  0
   -3.5200   21.5440  -32.3820 C   0  0  0  0  0  0  0  0  0  0  0  0
   -4.6090   21.7350  -33.3600 N   0  0  0  0  0  0  0  0  0  0  0  0
   -5.7520   20.8720  -33.0770 C   0  0  0  0  0  0  0  0  0  0  0  0
   -6.9780   21.4040  -32.5780 C   0  0  0  0  0  0  0  0  0  0  0  0
   -7.1620   22.7910  -32.3320 C   0  0  0  0  0  0  0  0  0  0  0  0
   -8.3910   23.2950  -31.9170 C   0  0  0  0  0  0  0  0  0  0  0  0
   -9.4700   22.4440  -31.7410 C   0  0  0  0  0  0  0  0  0  0  0  0
   -9.3140   21.0760  -31.9310 C   0  0  0  0  0  0  0  0  0  0  0  0
   -8.0630   20.5210  -32.3020 C   0  0  0  0  0  0  0  0  0  0  0  0
   -7.8930   19.1560  -32.3970 N   0  0  0  0  0  0  0  0  0  0  0  0
   -8.8850   18.2450  -31.7800 C   0  0  0  0  0  0  0  0  0  0  0  0
   -6.7790   18.6360  -33.0210 C   0  0  0  0  0  0  0  0  0  0  0  0
   -6.7140   17.2640  -33.3770 C   0  0  0  0  0  0  0  0  0  0  0  0
   -5.5610   16.7150  -33.9300 C   0  0  0  0  0  0  0  0  0  0  0  0
   -4.4490   17.5140  -34.1540 C   0  0  0  0  0  0  0  0  0  0  0  0
   -2.8580   16.7480  -34.8840 Br  0  0  0  0  0  0  0  0  0  0  0  0
   -4.4990   18.8760  -33.8620 C   0  0  0  0  0  0  0  0  0  0  0  0
   -5.6690   19.4720  -33.3250 C   0  0  0  0  0  0  0  0  0  0  0  0
   -3.2007   24.9272  -25.2815 H   0  0  0  0  0  0  0  0  0  0  0  0
   -2.1330   24.4064  -26.6288 H   0  0  0  0  0  0  0  0  0  0  0  0
   -2.8381   26.0585  -26.6288 H   0  0  0  0  0  0  0  0  0  0  0  0
   -4.8816   23.9282  -26.4362 H   0  0  0  0  0  0  0  0  0  0  0  0
   -4.7790   25.3418  -27.5505 H   0  0  0  0  0  0  0  0  0  0  0  0
   -1.8256   22.8935  -28.4845 H   0  0  0  0  0  0  0  0  0  0  0  0
   -2.3977   22.9761  -26.7784 H   0  0  0  0  0  0  0  0  0  0  0  0
   -3.2052   20.8646  -26.8552 H   0  0  0  0  0  0  0  0  0  0  0  0
   -4.0520   21.1711  -28.4095 H   0  0  0  0  0  0  0  0  0  0  0  0
   -2.3231   20.6835  -28.4095 H   0  0  0  0  0  0  0  0  0  0  0  0
   -3.1868   25.3914  -29.1521 H   0  0  0  0  0  0  0  0  0  0  0  0
   -2.6259   23.8709  -29.9527 H   0  0  0  0  0  0  0  0  0  0  0  0
   -5.5720   24.1319  -29.8740 H   0  0  0  0  0  0  0  0  0  0  0  0
   -4.7445   25.4572  -30.7919 H   0  0  0  0  0  0  0  0  0  0  0  0
   -2.6592   22.8372  -30.8733 H   0  0  0  0  0  0  0  0  0  0  0  0
   -4.0974   21.9206  -30.3260 H   0  0  0  0  0  0  0  0  0  0  0  0
   -2.5599   21.7484  -32.8785 H   0  0  0  0  0  0  0  0  0  0  0  0
   -3.5744   20.5071  -32.0189 H   0  0  0  0  0  0  0  0  0  0  0  0
   -4.2480   21.5390  -34.3200 H   0  0  0  0  0  0  0  0  0  0  0  0
   -4.8520   22.7430  -33.4310 H   0  0  0  0  0  0  0  0  0  0  0  0
   -6.3163   23.4803  -32.4723 H   0  0  0  0  0  0  0  0  0  0  0  0
   -8.5061   24.3725  -31.7281 H   0  0  0  0  0  0  0  0  0  0  0  0
  -10.4500   22.8509  -31.4510 H   0  0  0  0  0  0  0  0  0  0  0  0
  -10.1785   20.4104  -31.7907 H   0  0  0  0  0  0  0  0  0  0  0  0
   -8.8124   18.3117  -30.6844 H   0  0  0  0  0  0  0  0  0  0  0  0
   -9.8971   18.5350  -32.0987 H   0  0  0  0  0  0  0  0  0  0  0  0
   -8.6821   17.2119  -32.0987 H   0  0  0  0  0  0  0  0  0  0  0  0
   -7.5919   16.6219  -33.2127 H   0  0  0  0  0  0  0  0  0  0  0  0
   -5.5312   15.6465  -34.1898 H   0  0  0  0  0  0  0  0  0  0  0  0
   -3.6139   19.5010  -34.0517 H   0  0  0  0  0  0  0  0  0  0  0  0
  1  2  1  0
  2  3  1  0
  3  4  1  0
  4  5  1  0
  3  6  1  0
  6  7  1  0
  7  8  1  0
  8  9  1  0
  9 10  1  0
 10 11  1  0
 11 12  1  0
 12 13  2  0
 13 14  1  0
 14 15  2  0
 15 16  1  0
 16 17  2  0
 17 18  1  0
 18 19  2  0
 19 20  1  0
 19 21  1  0
 21 22  2  0
 22 23  1  0
 23 24  2  0
 24 25  1  0
 24 26  1  0
 26 27  2  0
 27 12  1  0
 18 13  1  0
 27 21  1  0
  1 28  1  0
  1 29  1  0
  1 30  1  0
  2 31  1  0
  2 32  1  0
  4 33  1  0
  4 34  1  0
  5 35  1  0
  5 36  1  0
  5 37  1  0
  6 38  1  0
  6 39  1  0
  7 40  1  0
  7 41  1  0
  9 42  1  0
  9 43  1  0
 10 44  1  0
 10 45  1  0
 11 46  1  0
 11 47  1  0
 14 48  1  0
 15 49  1  0
 16 50  1  0
 17 51  1  0
 20 52  1  0
 20 53  1  0
 20 54  1  0
 22 55  1  0
 23 56  1  0
 26 57  1  0
M  CHG  2  11   1  19   1
M  END
>  <UniqueID>  (17) 
17

>  <SMILES>  (17) 
CCN(CC)CCOCC[NH2+]c1c2ccccc2[n+](C)c2ccc(Br)cc12

>  <Energy>  (17) 
81.97491681123147

>  <Genealogy>  (17) 
CCN(CC)CCOCC[NH2+]c1c2ccccc2[n+](C)c2ccc(Br)cc12 (protonated)
CCN(CC)CCOCC[NH2+]c1c2ccccc2[n+](C)c2ccc(Br)cc12 (3D coordinates assigned)
CCN(CC)CCOCC[NH2+]c1c2ccccc2[n+](C)c2ccc(Br)cc12 (optimized conformer: 81.97491681123147 kcal/mol)

>  <smiles>  (17) 
CCN(CC)CCOCCNc1c2ccccc2[n+](C)c2ccc(Br)cc12

>  <score_type>  (17) 
oracle

>  <origin>  (17) 
adg

>  <m_score__min__energy>  (17) 
-8.3100000000000005

>  <m_primary>  (17) 
energy

$$$$
17:0
     RDKit          3D

 53 55  0  0  0  0  0  0  0  0999 V2000
    0.4410   22.3370  -27.2200 C   0  0  0  0  0  0  0  0  0  0  0  0
   -0.9580   21.9020  -26.7930 C   0  0  0  0  0  0  0  0  0  0  0  0
   -1.9430   22.2150  -27.8540 N   0  0  0  0  0  0  0  0  0  0  0  0
   -3.0820   21.2700  -27.8170 C   0  0  0  0  0  0  0  0  0  0  0  0
   -2.6290   19.9150  -27.2850 C   0  0  0  0  0  0  0  0  0  0  0  0
   -2.4040   23.6220  -27.7660 C   0  0  0  0  0  0  0  0  0  0  0  0
   -1.9350   24.4130  -28.9910 C   0  0  0  0  0  0  0  0  0  0  0  0
   -3.0480   24.9280  -29.6920 O   0  0  0  0  0  0  0  0  0  0  0  0
   -4.2320   24.2420  -29.3280 C   0  0  0  0  0  0  0  0  0  0  0  0
   -5.3330   24.5390  -30.3450 C   0  0  0  0  0  0  0  0  0  0  0  0
   -5.0390   23.9140  -31.5940 O   0  0  0  0  0  0  0  0  0  0  0  0
   -5.5250   22.6460  -31.9230 C   0  0  0  0  0  0  0  0  0  0  0  0
   -4.7640   21.5190  -32.2060 C   0  0  0  0  0  0  0  0  0  0  0  0
   -3.2900   21.4280  -32.2480 C   0  0  0  0  0  0  0  0  0  0  0  0
   -2.5410   21.6770  -31.0840 C   0  0  0  0  0  0  0  0  0  0  0  0
   -1.1440   21.6060  -31.1150 C   0  0  0  0  0  0  0  0  0  0  0  0
   -0.4850   21.2770  -32.3020 C   0  0  0  0  0  0  0  0  0  0  0  0
   -1.2220   21.0070  -33.4580 C   0  0  0  0  0  0  0  0  0  0  0  0
   -2.6180   21.0770  -33.4310 C   0  0  0  0  0  0  0  0  0  0  0  0
   -5.5850   20.4540  -32.3830 N   0  0  0  0  0  0  0  0  0  0  0  0
   -6.8210   20.9750  -32.2310 C   0  0  0  0  0  0  0  0  0  0  0  0
   -8.0200   20.2720  -32.3460 C   0  0  0  0  0  0  0  0  0  0  0  0
   -9.2160   20.9890  -32.1810 C   0  0  0  0  0  0  0  0  0  0  0  0
   -9.1860   22.3720  -31.9150 C   0  0  0  0  0  0  0  0  0  0  0  0
   -7.9510   23.0280  -31.8080 C   0  0  0  0  0  0  0  0  0  0  0  0
   -6.8180   22.2930  -31.9590 N   0  0  0  0  0  0  0  0  0  0  0  0
    1.0542   22.5277  -26.3269 H   0  0  0  0  0  0  0  0  0  0  0  0
    0.9053   21.5408  -27.8204 H   0  0  0  0  0  0  0  0  0  0  0  0
    0.3719   23.2561  -27.8204 H   0  0  0  0  0  0  0  0  0  0  0  0
   -0.9591   20.8180  -26.6059 H   0  0  0  0  0  0  0  0  0  0  0  0
   -1.2360   22.4442  -25.8772 H   0  0  0  0  0  0  0  0  0  0  0  0
   -3.8670   21.6735  -27.1605 H   0  0  0  0  0  0  0  0  0  0  0  0
   -3.4729   21.1411  -28.8371 H   0  0  0  0  0  0  0  0  0  0  0  0
   -2.6348   19.9323  -26.1852 H   0  0  0  0  0  0  0  0  0  0  0  0
   -3.3145   19.1327  -27.6430 H   0  0  0  0  0  0  0  0  0  0  0  0
   -1.6109   19.7023  -27.6430 H   0  0  0  0  0  0  0  0  0  0  0  0
   -3.5029   23.6416  -27.7204 H   0  0  0  0  0  0  0  0  0  0  0  0
   -1.9809   24.0811  -26.8603 H   0  0  0  0  0  0  0  0  0  0  0  0
   -1.2947   25.2452  -28.6633 H   0  0  0  0  0  0  0  0  0  0  0  0
   -1.3688   23.7443  -29.6560 H   0  0  0  0  0  0  0  0  0  0  0  0
   -4.0358   23.1598  -29.3072 H   0  0  0  0  0  0  0  0  0  0  0  0
   -4.5560   24.5781  -28.3320 H   0  0  0  0  0  0  0  0  0  0  0  0
   -6.2910   24.1552  -29.9644 H   0  0  0  0  0  0  0  0  0  0  0  0
   -5.3947   25.6268  -30.4963 H   0  0  0  0  0  0  0  0  0  0  0  0
   -3.0558   21.9287  -30.1450 H   0  0  0  0  0  0  0  0  0  0  0  0
   -0.5636   21.8096  -30.2031 H   0  0  0  0  0  0  0  0  0  0  0  0
    0.6137   21.2305  -32.3266 H   0  0  0  0  0  0  0  0  0  0  0  0
   -0.7032   20.7391  -34.3903 H   0  0  0  0  0  0  0  0  0  0  0  0
   -3.1940   20.8559  -34.3417 H   0  0  0  0  0  0  0  0  0  0  0  0
   -8.0285   19.1928  -32.5587 H   0  0  0  0  0  0  0  0  0  0  0  0
  -10.1815   20.4679  -32.2599 H   0  0  0  0  0  0  0  0  0  0  0  0
  -10.1241   22.9332  -31.7921 H   0  0  0  0  0  0  0  0  0  0  0  0
   -7.9008   24.1084  -31.6073 H   0  0  0  0  0  0  0  0  0  0  0  0
  1  2  1  0
  2  3  1  0
  3  4  1  0
  4  5  1  0
  3  6  1  0
  6  7  1  0
  7  8  1  0
  8  9  1  0
  9 10  1  0
 10 11  1  0
 11 12  1  0
 12 13  2  0
 13 14  1  0
 14 15  2  0
 15 16  1  0
 16 17  2  0
 17 18  1  0
 18 19  2  0
 13 20  1  0
 20 21  2  0
 21 22  1  0
 22 23  2  0
 23 24  1  0
 24 25  2  0
 25 26  1  0
 26 12  1  0
 19 14  1  0
 26 21  1  0
  1 27  1  0
  1 28  1  0
  1 29  1  0
  2 30  1  0
  2 31  1  0
  4 32  1  0
  4 33  1  0
  5 34  1  0
  5 35  1  0
  5 36  1  0
  6 37  1  0
  6 38  1  0
  7 39  1  0
  7 40  1  0
  9 41  1  0
  9 42  1  0
 10 43  1  0
 10 44  1  0
 15 45  1  0
 16 46  1  0
 17 47  1  0
 18 48  1  0
 19 49  1  0
 22 50  1  0
 23 51  1  0
 24 52  1  0
 25 53  1  0
M  END
>  <UniqueID>  (18) 
18

>  <SMILES>  (18) 
CCN(CC)CCOCCOc1c(-c2ccccc2)nc2ccccn12

>  <Energy>  (18) 
94.65842835273037

>  <Genealogy>  (18) 
CCN(CC)CCOCCOc1c(-c2ccccc2)nc2ccccn12 (3D coordinates assigned)
CCN(CC)CCOCCOc1c(-c2ccccc2)nc2ccccn12 (optimized conformer: 94.65842835273037 kcal/mol)

>  <smiles>  (18) 
CCN(CC)CCOCCOc1c(-c2ccccc2)nc2ccccn12

>  <score_type>  (18) 
oracle

>  <origin>  (18) 
adg

>  <m_score__min__energy>  (18) 
-8.1400000000000006

>  <m_primary>  (18) 
energy

$$$$
18:0
     RDKit          3D

 47 49  0  0  0  0  0  0  0  0999 V2000
   -0.9390   23.9080  -28.7490 C   0  0  0  0  0  0  0  0  0  0  0  0
   -1.4130   25.1100  -27.9110 C   0  0  0  0  0  0  0  0  0  0  0  0
   -2.7610   24.9760  -27.2820 N   0  0  0  0  0  0  0  0  0  0  0  0
   -2.8950   25.5650  -25.9230 C   0  0  0  0  0  0  0  0  0  0  0  0
   -1.5840   26.1870  -25.4280 C   0  0  0  0  0  0  0  0  0  0  0  0
   -3.3290   23.6020  -27.3800 C   0  0  0  0  0  0  0  0  0  0  0  0
   -4.1850   23.3190  -28.6240 C   0  0  0  0  0  0  0  0  0  0  0  0
   -4.0020   24.3320  -29.6050 O   0  0  0  0  0  0  0  0  0  0  0  0
   -4.8840   24.5260  -30.6720 C   0  0  0  0  0  0  0  0  0  0  0  0
   -4.9950   25.6660  -31.2040 O   0  0  0  0  0  0  0  0  0  0  0  0
   -5.6780   23.3870  -31.1810 C   0  0  0  0  0  0  0  0  0  0  0  0
   -7.0880   23.3640  -31.0340 C   0  0  0  0  0  0  0  0  0  0  0  0
   -7.8450   22.2880  -31.5270 C   0  0  0  0  0  0  0  0  0  0  0  0
   -7.1830   21.2410  -32.1650 C   0  0  0  0  0  0  0  0  0  0  0  0
   -5.8100   21.2590  -32.3090 C   0  0  0  0  0  0  0  0  0  0  0  0
   -5.0320   22.3110  -31.8280 C   0  0  0  0  0  0  0  0  0  0  0  0
   -5.4130   20.0550  -33.0080 C   0  0  0  0  0  0  0  0  0  0  0  0
   -4.1450   19.6190  -33.3950 C   0  0  0  0  0  0  0  0  0  0  0  0
   -4.0460   18.3940  -34.0750 C   0  0  0  0  0  0  0  0  0  0  0  0
   -5.2020   17.6380  -34.3520 C   0  0  0  0  0  0  0  0  0  0  0  0
   -6.4680   18.1000  -33.9530 C   0  0  0  0  0  0  0  0  0  0  0  0
   -6.5510   19.3190  -33.2780 C   0  0  0  0  0  0  0  0  0  0  0  0
   -7.7850   20.0040  -32.7660 C   0  0  0  0  0  0  0  0  0  0  0  0
   -0.6191   23.0968  -28.0784 H   0  0  0  0  0  0  0  0  0  0  0  0
   -1.7652   23.5548  -29.3836 H   0  0  0  0  0  0  0  0  0  0  0  0
   -0.0941   24.2138  -29.3836 H   0  0  0  0  0  0  0  0  0  0  0  0
   -0.6801   25.2698  -27.1064 H   0  0  0  0  0  0  0  0  0  0  0  0
   -1.4959   25.9502  -28.6162 H   0  0  0  0  0  0  0  0  0  0  0  0
   -3.4010   25.5390  -27.8950 H   0  0  0  0  0  0  0  0  0  0  0  0
   -3.6691   26.3460  -25.9504 H   0  0  0  0  0  0  0  0  0  0  0  0
   -3.1667   24.7552  -25.2299 H   0  0  0  0  0  0  0  0  0  0  0  0
   -1.5730   26.1922  -24.3281 H   0  0  0  0  0  0  0  0  0  0  0  0
   -0.7342   25.5961  -25.8004 H   0  0  0  0  0  0  0  0  0  0  0  0
   -1.5042   27.2190  -25.8004 H   0  0  0  0  0  0  0  0  0  0  0  0
   -2.4909   22.8895  -27.3779 H   0  0  0  0  0  0  0  0  0  0  0  0
   -4.0076   23.4975  -26.5206 H   0  0  0  0  0  0  0  0  0  0  0  0
   -3.8923   22.3479  -29.0497 H   0  0  0  0  0  0  0  0  0  0  0  0
   -5.2440   23.3037  -28.3268 H   0  0  0  0  0  0  0  0  0  0  0  0
   -7.5953   24.1986  -30.5279 H   0  0  0  0  0  0  0  0  0  0  0  0
   -8.9388   22.2724  -31.4116 H   0  0  0  0  0  0  0  0  0  0  0  0
   -3.9388   22.3030  -31.9498 H   0  0  0  0  0  0  0  0  0  0  0  0
   -3.2489   20.2175  -33.1739 H   0  0  0  0  0  0  0  0  0  0  0  0
   -3.0605   18.0229  -34.3930 H   0  0  0  0  0  0  0  0  0  0  0  0
   -5.1132   16.6795  -34.8843 H   0  0  0  0  0  0  0  0  0  0  0  0
   -7.3736   17.5138  -34.1679 H   0  0  0  0  0  0  0  0  0  0  0  0
   -8.4824   20.2468  -33.5813 H   0  0  0  0  0  0  0  0  0  0  0  0
   -8.3870   19.4025  -32.0690 H   0  0  0  0  0  0  0  0  0  0  0  0
  1  2  1  0
  2  3  1  0
  3  4  1  0
  4  5  1  0
  3  6  1  0
  6  7  1  0
  7  8  1  0
  8  9  1  0
  9 10  2  0
  9 11  1  0
 11 12  2  0
 12 13  1  0
 13 14  2  0
 14 15  1  0
 15 16  2  0
 15 17  1  0
 17 18  2  0
 18 19  1  0
 19 20  2  0
 20 21  1  0
 21 22  2  0
 22 23  1  0
 16 11  1  0
 22 17  1  0
 23 14  1  0
  1 24  1  0
  1 25  1  0
  1 26  1  0
  2 27  1  0
  2 28  1  0
  3 29  1  0
  4 30  1  0
  4 31  1  0
  5 32  1  0
  5 33  1  0
  5 34  1  0
  6 35  1  0
  6 36  1  0
  7 37  1  0
  7 38  1  0
 12 39  1  0
 13 40  1  0
 16 41  1  0
 18 42  1  0
 19 43  1  0
 20 44  1  0
 21 45  1  0
 23 46  1  0
 23 47  1  0
M  CHG  1   3   1
M  END
>  <UniqueID>  (19) 
19

>  <SMILES>  (19) 
CC[NH+](CC)CCOC(=O)c1ccc2c(c1)-c1ccccc1C2

>  <Energy>  (19) 
75.32362758415941

>  <Genealogy>  (19) 
CC[NH+](CC)CCOC(=O)c1ccc2c(c1)-c1ccccc1C2 (protonated)
CC[NH+](CC)CCOC(=O)c1ccc2c(c1)-c1ccccc1C2 (3D coordinates assigned)
CC[NH+](CC)CCOC(=O)c1ccc2c(c1)-c1ccccc1C2 (nonaromatic ring conformer: 75.32362758415941 kcal/mol)

>  <smiles>  (19) 
CCN(CC)CCOC(=O)c1ccc2c(c1)-c1ccccc1C2

>  <score_type>  (19) 
oracle

>  <origin>  (19) 
adg

>  <m_score__min__energy>  (19) 
-7.5599999999999996

>  <m_primary>  (19) 
energy

$$$$
19:0
     RDKit          3D

 40 41  0  0  0  0  0  0  0  0999 V2000
    0.1630   26.0360  -26.9190 C   0  0  0  0  0  0  0  0  0  0  0  0
    0.5460   24.5740  -27.1770 C   0  0  0  0  0  0  0  0  0  0  0  0
    0.3550   24.1790  -28.5820 N   0  0  0  0  0  0  0  0  0  0  0  0
   -0.5370   23.0170  -28.7180 C   0  0  0  0  0  0  0  0  0  0  0  0
   -1.8430   23.2410  -27.9260 C   0  0  0  0  0  0  0  0  0  0  0  0
   -2.7830   22.0110  -28.0430 C   0  0  0  0  0  0  0  0  0  0  0  0
   -3.6680   22.0640  -29.2980 C   0  0  0  0  0  0  0  0  0  0  0  0
   -4.3610   23.3580  -29.4160 N   0  0  0  0  0  0  0  0  0  0  0  0
   -5.1240   23.6410  -30.6020 C   0  0  0  0  0  0  0  0  0  0  0  0
   -4.9500   24.7350  -31.2050 O   0  0  0  0  0  0  0  0  0  0  0  0
   -6.0990   22.6690  -31.1380 C   0  0  0  0  0  0  0  0  0  0  0  0
   -7.4290   22.6780  -30.6830 C   0  0  0  0  0  0  0  0  0  0  0  0
   -8.3510   21.7520  -31.1790 C   0  0  0  0  0  0  0  0  0  0  0  0
   -7.9570   20.8020  -32.1260 C   0  0  0  0  0  0  0  0  0  0  0  0
   -9.1430   19.6490  -32.7210 Cl  0  0  0  0  0  0  0  0  0  0  0  0
   -6.6240   20.7760  -32.5770 C   0  0  0  0  0  0  0  0  0  0  0  0
   -6.0830   19.5880  -33.7530 Cl  0  0  0  0  0  0  0  0  0  0  0  0
   -5.7020   21.7030  -32.0770 C   0  0  0  0  0  0  0  0  0  0  0  0
   -4.0570   24.4320  -28.4630 C   0  0  0  0  0  0  0  0  0  0  0  0
   -2.5400   24.5750  -28.3350 C   0  0  0  0  0  0  0  0  0  0  0  0
    0.1156   26.2168  -25.8350 H   0  0  0  0  0  0  0  0  0  0  0  0
    0.9181   26.6977  -27.3685 H   0  0  0  0  0  0  0  0  0  0  0  0
   -0.8195   26.2424  -27.3685 H   0  0  0  0  0  0  0  0  0  0  0  0
    1.6047   24.4351  -26.9127 H   0  0  0  0  0  0  0  0  0  0  0  0
   -0.1117   23.9433  -26.5609 H   0  0  0  0  0  0  0  0  0  0  0  0
    1.2890   23.9540  -28.9970 H   0  0  0  0  0  0  0  0  0  0  0  0
   -0.7792   22.8692  -29.7808 H   0  0  0  0  0  0  0  0  0  0  0  0
   -0.0267   22.1285  -28.3177 H   0  0  0  0  0  0  0  0  0  0  0  0
   -1.5848   23.3437  -26.8617 H   0  0  0  0  0  0  0  0  0  0  0  0
   -2.1682   21.0997  -28.0831 H   0  0  0  0  0  0  0  0  0  0  0  0
   -3.4466   22.0129  -27.1657 H   0  0  0  0  0  0  0  0  0  0  0  0
   -3.0373   21.9141  -30.1866 H   0  0  0  0  0  0  0  0  0  0  0  0
   -4.4273   21.2721  -29.2183 H   0  0  0  0  0  0  0  0  0  0  0  0
   -7.7457   23.4175  -29.9328 H   0  0  0  0  0  0  0  0  0  0  0  0
   -9.3915   21.7708  -30.8226 H   0  0  0  0  0  0  0  0  0  0  0  0
   -4.6580   21.6746  -32.4223 H   0  0  0  0  0  0  0  0  0  0  0  0
   -4.4866   25.3777  -28.8250 H   0  0  0  0  0  0  0  0  0  0  0  0
   -4.4898   24.1889  -27.4814 H   0  0  0  0  0  0  0  0  0  0  0  0
   -2.1342   24.9017  -29.3038 H   0  0  0  0  0  0  0  0  0  0  0  0
   -2.3410   25.3110  -27.5421 H   0  0  0  0  0  0  0  0  0  0  0  0
  1  2  1  0
  2  3  1  0
  3  4  1  0
  4  5  1  0
  5  6  1  0
  6  7  1  0
  7  8  1  0
  8  9  1  0
  9 10  2  0
  9 11  1  0
 11 12  2  0
 12 13  1  0
 13 14  2  0
 14 15  1  0
 14 16  1  0
 16 17  1  0
 16 18  2  0
  8 19  1  0
 19 20  1  0
 20  5  1  0
 18 11  1  0
  1 21  1  0
  1 22  1  0
  1 23  1  0
  2 24  1  0
  2 25  1  0
  3 26  1  0
  4 27  1  0
  4 28  1  0
  5 29  1  0
  6 30  1  0
  6 31  1  0
  7 32  1  0
  7 33  1  0
 12 34  1  0
 13 35  1  0
 18 36  1  0
 19 37  1  0
 19 38  1  0
 20 39  1  0
 20 40  1  0
M  END
>  <UniqueID>  (20) 
20

>  <SMILES>  (20) 
CCNCC1CCN(C(=O)c2ccc(Cl)c(Cl)c2)CC1

>  <Energy>  (20) 
45.06073185053214

>  <Genealogy>  (20) 
CCNCC1CCN(C(=O)c2ccc(Cl)c(Cl)c2)CC1 (3D coordinates assigned)
CCNCC1CCN(C(=O)c2ccc(Cl)c(Cl)c2)CC1 (nonaromatic ring conformer: 45.06073185053214 kcal/mol)

>  <smiles>  (20) 
CCNCC1CCN(C(=O)c2ccc(Cl)c(Cl)c2)CC1

>  <score_type>  (20) 
oracle

>  <origin>  (20) 
adg

>  <m_score__min__energy>  (20) 
-7.9299999999999997

>  <m_primary>  (20) 
energy

$$$$
20:0
     RDKit          3D

 35 36  0  0  0  0  0  0  0  0999 V2000
   -5.4560   25.9640  -30.4670 C   0  0  0  0  0  0  0  0  0  0  0  0
   -6.3590   24.7860  -30.0810 C   0  0  0  0  0  0  0  0  0  0  0  0
   -5.6170   23.7200  -29.3580 N   0  0  2  0  0  0  0  0  0  0  0  0
   -4.3160   24.2520  -28.9030 C   0  0  0  0  0  0  0  0  0  0  0  0
   -5.4160   22.5290  -30.2270 C   0  0  0  0  0  0  0  0  0  0  0  0
   -4.9960   22.9140  -31.6580 C   0  0  0  0  0  0  0  0  0  0  0  0
   -6.1520   22.9270  -32.5570 N   0  0  0  0  0  0  0  0  0  0  0  0
   -7.3490   22.1790  -32.2740 C   0  0  0  0  0  0  0  0  0  0  0  0
   -8.5620   22.7750  -31.9090 C   0  0  0  0  0  0  0  0  0  0  0  0
   -9.7180   21.5700  -31.6630 S   0  0  0  0  0  0  0  0  0  0  0  0
   -8.6950   20.2910  -32.0150 C   0  0  0  0  0  0  0  0  0  0  0  0
   -8.9960   18.9300  -32.0120 C   0  0  0  0  0  0  0  0  0  0  0  0
   -7.9780   18.0240  -32.3420 C   0  0  0  0  0  0  0  0  0  0  0  0
   -6.6910   18.4910  -32.6660 C   0  0  0  0  0  0  0  0  0  0  0  0
   -6.4090   19.8670  -32.6640 C   0  0  0  0  0  0  0  0  0  0  0  0
   -7.4300   20.7720  -32.3330 C   0  0  0  0  0  0  0  0  0  0  0  0
   -5.0813   26.4528  -29.5556 H   0  0  0  0  0  0  0  0  0  0  0  0
   -4.6067   25.5957  -31.0611 H   0  0  0  0  0  0  0  0  0  0  0  0
   -6.0323   26.6885  -31.0611 H   0  0  0  0  0  0  0  0  0  0  0  0
   -7.1666   25.1569  -29.4327 H   0  0  0  0  0  0  0  0  0  0  0  0
   -6.7573   24.3491  -31.0086 H   0  0  0  0  0  0  0  0  0  0  0  0
   -6.1610   23.4490  -28.5050 H   0  0  0  0  0  0  0  0  0  0  0  0
   -4.2888   24.2631  -27.8034 H   0  0  0  0  0  0  0  0  0  0  0  0
   -3.5053   23.6132  -29.2834 H   0  0  0  0  0  0  0  0  0  0  0  0
   -4.1852   25.2758  -29.2834 H   0  0  0  0  0  0  0  0  0  0  0  0
   -4.6309   21.8975  -29.7857 H   0  0  0  0  0  0  0  0  0  0  0  0
   -6.3744   21.9928  -30.2902 H   0  0  0  0  0  0  0  0  0  0  0  0
   -4.5407   23.9152  -31.6425 H   0  0  0  0  0  0  0  0  0  0  0  0
   -4.2744   22.1691  -32.0246 H   0  0  0  0  0  0  0  0  0  0  0  0
   -6.1010   23.4960  -33.4310 H   0  0  0  0  0  0  0  0  0  0  0  0
   -8.7342   23.8559  -31.7999 H   0  0  0  0  0  0  0  0  0  0  0  0
  -10.0059   18.5759  -31.7574 H   0  0  0  0  0  0  0  0  0  0  0  0
   -8.1864   16.9439  -32.3476 H   0  0  0  0  0  0  0  0  0  0  0  0
   -5.8988   17.7724  -32.9231 H   0  0  0  0  0  0  0  0  0  0  0  0
   -5.4024   20.2304  -32.9182 H   0  0  0  0  0  0  0  0  0  0  0  0
  1  2  1  0
  2  3  1  0
  3  4  1  0
  3  5  1  0
  5  6  1  0
  6  7  1  0
  7  8  1  0
  8  9  2  0
  9 10  1  0
 10 11  1  0
 11 12  2  0
 12 13  1  0
 13 14  2  0
 14 15  1  0
 15 16  2  0
 16  8  1  0
 16 11  1  0
  1 17  1  0
  1 18  1  0
  1 19  1  0
  2 20  1  0
  2 21  1  0
  3 22  1  1
  4 23  1  0
  4 24  1  0
  4 25  1  0
  5 26  1  0
  5 27  1  0
  6 28  1  0
  6 29  1  0
  7 30  1  0
  9 31  1  0
 12 32  1  0
 13 33  1  0
 14 34  1  0
 15 35  1  0
M  CHG  1   3   1
M  END
>  <UniqueID>  (21) 
21

>  <SMILES>  (21) 
CC[N@H+](C)CCNc1csc2ccccc12

>  <Energy>  (21) 
65.28824370335415

>  <Genealogy>  (21) 
CC[NH+](C)CCNc1csc2ccccc12 (protonated)
CC[N@H+](C)CCNc1csc2ccccc12 (chirality)
CC[N@H+](C)CCNc1csc2ccccc12 (3D coordinates assigned)
CC[N@H+](C)CCNc1csc2ccccc12 (optimized conformer: 65.28824370335415 kcal/mol)

>  <smiles>  (21) 
CCN(C)CCNc1csc2ccccc12

>  <score_type>  (21) 
oracle

>  <origin>  (21) 
adg

>  <m_score__min__energy>  (21) 
-5.8300000000000001

>  <m_primary>  (21) 
energy

$$$$
21:0
     RDKit          3D

 43 46  0  0  0  0  0  0  0  0999 V2000
    2.0865   12.1629  -25.4777 H   0  0  0  0  0  0  0  0  0  0  0  0
    2.2460   13.1100  -26.0140 C   0  0  0  0  0  0  0  0  0  0  0  0
    3.4810   13.4020  -26.5230 N   0  0  0  0  0  0  0  0  0  0  0  0
    3.7270   14.5640  -27.1950 C   0  0  0  0  0  0  0  0  0  0  0  0
    4.7278   14.7824  -27.5959 H   0  0  0  0  0  0  0  0  0  0  0  0
    2.6820   15.4640  -27.3600 C   0  0  0  0  0  0  0  0  0  0  0  0
    2.6720   16.9590  -28.1210 S   0  0  0  0  0  0  0  0  0  0  0  0
    1.0260   17.2180  -27.7820 C   0  0  0  0  0  0  0  0  0  0  0  0
    0.2630   18.4270  -28.1810 C   0  0  0  0  0  0  0  0  0  0  0  0
    0.5920   19.1190  -29.3600 C   0  0  0  0  0  0  0  0  0  0  0  0
    1.4206   18.7610  -29.9887 H   0  0  0  0  0  0  0  0  0  0  0  0
   -0.1230   20.2560  -29.7400 C   0  0  0  0  0  0  0  0  0  0  0  0
    0.1485   20.7855  -30.6651 H   0  0  0  0  0  0  0  0  0  0  0  0
   -1.1850   20.7310  -28.9540 C   0  0  0  0  0  0  0  0  0  0  0  0
   -1.9310   21.9440  -29.3670 C   0  0  0  0  0  0  0  0  0  0  0  0
   -2.4950   22.0380  -30.6480 C   0  0  0  0  0  0  0  0  0  0  0  0
   -2.3887   21.2022  -31.3552 H   0  0  0  0  0  0  0  0  0  0  0  0
   -3.1720   23.1560  -31.0200 N   0  0  0  0  0  0  0  0  0  0  0  0
   -3.3380   24.2220  -30.1920 C   0  0  0  0  0  0  0  0  0  0  0  0
   -3.9980   25.2520  -30.6450 N   0  0  0  0  0  0  0  0  0  0  0  0
   -5.3760   25.6130  -30.4490 C   0  0  0  0  0  0  0  0  0  0  0  0
   -5.6990   26.7740  -30.0850 O   0  0  0  0  0  0  0  0  0  0  0  0
   -6.4010   24.6250  -30.5890 N   0  0  0  0  0  0  0  0  0  0  0  0
   -6.5540   23.7770  -31.7660 C   0  0  0  0  0  0  0  0  0  0  0  0
   -5.5840   23.3193  -32.0100 H   0  0  0  0  0  0  0  0  0  0  0  0
   -6.9054   24.3958  -32.6048 H   0  0  0  0  0  0  0  0  0  0  0  0
   -7.5760   22.6760  -31.5070 C   0  0  0  0  0  0  0  0  0  0  0  0
   -7.7019   22.5403  -30.4227 H   0  0  0  0  0  0  0  0  0  0  0  0
   -8.5400   22.9576  -31.9557 H   0  0  0  0  0  0  0  0  0  0  0  0
   -7.2235   21.7356  -31.9557 H   0  0  0  0  0  0  0  0  0  0  0  0
   -2.7640   24.1780  -28.9050 C   0  0  0  0  0  0  0  0  0  0  0  0
   -2.8646   25.0363  -28.2244 H   0  0  0  0  0  0  0  0  0  0  0  0
   -2.0670   23.0380  -28.5000 C   0  0  0  0  0  0  0  0  0  0  0  0
   -1.6219   22.9977  -27.4949 H   0  0  0  0  0  0  0  0  0  0  0  0
   -1.5260   20.0350  -27.7790 C   0  0  0  0  0  0  0  0  0  0  0  0
   -2.5790   20.4290  -27.0190 F   0  0  0  0  0  0  0  0  0  0  0  0
   -0.8090   18.8950  -27.3990 C   0  0  0  0  0  0  0  0  0  0  0  0
   -1.0864   18.3591  -26.4793 H   0  0  0  0  0  0  0  0  0  0  0  0
    0.5000   16.1710  -27.0920 N   0  0  0  0  0  0  0  0  0  0  0  0
   -0.4840   16.1150  -26.7490 H   0  0  0  0  0  0  0  0  0  0  0  0
    1.4220   15.2000  -26.8590 C   0  0  0  0  0  0  0  0  0  0  0  0
    1.1790   14.0110  -26.1710 C   0  0  0  0  0  0  0  0  0  0  0  0
    0.1824   13.7855  -25.7637 H   0  0  0  0  0  0  0  0  0  0  0  0
  1  2  1  0
  2  3  2  0
  3  4  1  0
  4  5  1  0
  4  6  2  0
  6  7  1  0
  7  8  1  0
  8  9  1  0
  9 10  2  0
 10 11  1  0
 10 12  1  0
 12 13  1  0
 12 14  2  0
 14 15  1  0
 15 16  2  0
 16 17  1  0
 16 18  1  0
 18 19  1  0
 19 20  2  0
 20 21  1  0
 21 22  2  0
 21 23  1  0
 23 24  1  0
 24 25  1  0
 24 26  1  0
 24 27  1  0
 27 28  1  0
 27 29  1  0
 27 30  1  0
 19 31  1  0
 31 32  1  0
 31 33  2  0
 33 34  1  0
 14 35  1  0
 35 36  1  0
 35 37  2  0
 37 38  1  0
  8 39  2  0
 39 40  1  0
 39 41  1  0
 41 42  2  0
 42 43  1  0
 42  2  1  0
 41  6  1  0
 37  9  1  0
 33 15  1  0
M  CHG  3  18  -1  23  -1  39   1
M  END
>  <UniqueID>  (22) 
22

>  <SMILES>  (22) 
CC[N-]C(=O)/N=c1\ccc(-c2ccc(-c3[nH+]c4ccncc4s3)cc2F)c[n-]1

>  <Energy>  (22) 
95.49581721802033

>  <Genealogy>  (22) 
CC[N-]C(=O)N=c1ccc(-c2ccc(-c3[nH+]c4ccncc4s3)cc2F)c[n-]1 (protonated)
CC[N-]C(=O)/N=c1\ccc(-c2ccc(-c3[nH+]c4ccncc4s3)cc2F)c[n-]1 (cis-trans isomerization)
CC[N-]C(=O)/N=c1\ccc(-c2ccc(-c3[nH+]c4ccncc4s3)cc2F)c[n-]1 (3D coordinates assigned)
CC[N-]C(=O)/N=c1\ccc(-c2ccc(-c3[nH+]c4ccncc4s3)cc2F)c[n-]1 (optimized conformer: 95.49581721802033 kcal/mol)

>  <smiles>  (22) 
CCNC(=O)N=c1ccc(-c2ccc(-c3nc4ccncc4s3)cc2F)c[nH]1

>  <score_type>  (22) 
oracle

>  <origin>  (22) 
adg

>  <m_score__min__energy>  (22) 
-8.5299999999999994

>  <m_primary>  (22) 
energy

$$$$
22:0
     RDKit          3D

 61 64  0  0  0  0  0  0  0  0999 V2000
   -5.3080   25.6510  -30.4700 C   0  0  0  0  0  0  0  0  0  0  0  0
   -3.9090   25.4000  -30.5490 O   0  0  0  0  0  0  0  0  0  0  0  0
   -3.2380   24.3980  -29.8290 C   0  0  0  0  0  0  0  0  0  0  0  0
   -2.1800   24.6940  -28.9460 C   0  0  0  0  0  0  0  0  0  0  0  0
   -1.5210   23.6670  -28.2660 C   0  0  0  0  0  0  0  0  0  0  0  0
   -1.9040   22.3390  -28.4580 C   0  0  0  0  0  0  0  0  0  0  0  0
   -2.9530   22.0340  -29.3280 C   0  0  0  0  0  0  0  0  0  0  0  0
   -3.6280   23.0590  -30.0100 C   0  0  0  0  0  0  0  0  0  0  0  0
   -4.7110   22.7270  -30.8910 N   0  0  0  0  0  0  0  0  0  0  0  0
   -4.4880   22.6660  -32.3370 C   0  0  0  0  0  0  0  0  0  0  0  0
   -4.9340   21.3010  -32.8620 C   0  0  0  0  0  0  0  0  0  0  0  0
   -6.2800   20.9510  -32.3780 N   0  0  0  0  0  0  0  0  0  0  0  0
   -7.0580   19.9500  -33.0610 C   0  0  0  0  0  0  0  0  0  0  0  0
   -8.2240   20.2400  -33.4470 O   0  0  0  0  0  0  0  0  0  0  0  0
   -6.5490   18.5430  -33.3040 C   0  0  1  0  0  0  0  0  0  0  0  0
   -6.1130   18.2990  -34.7700 C   0  0  0  0  0  0  0  0  0  0  0  0
   -4.6200   17.9590  -34.8990 C   0  0  0  0  0  0  0  0  0  0  0  0
   -4.2120   16.8200  -34.0390 N   0  0  1  0  0  0  0  0  0  0  0  0
   -2.4720   16.8260  -33.8580 S   0  0  0  0  0  0  0  0  0  0  0  0
   -1.8310   16.2880  -35.1080 O   0  0  0  0  0  0  0  0  0  0  0  0
   -2.0750   15.9500  -32.7010 O   0  0  0  0  0  0  0  0  0  0  0  0
   -1.8920   18.4680  -33.5860 C   0  0  0  0  0  0  0  0  0  0  0  0
   -1.1300   19.1110  -34.5710 C   0  0  0  0  0  0  0  0  0  0  0  0
   -0.6820   20.4220  -34.3700 C   0  0  0  0  0  0  0  0  0  0  0  0
   -1.0000   21.0950  -33.1880 C   0  0  0  0  0  0  0  0  0  0  0  0
   -1.7690   20.4620  -32.2060 C   0  0  0  0  0  0  0  0  0  0  0  0
   -2.2160   19.1510  -32.4040 C   0  0  0  0  0  0  0  0  0  0  0  0
   -4.8740   16.7760  -32.7040 C   0  0  0  0  0  0  0  0  0  0  0  0
   -5.4750   18.1240  -32.2850 C   0  0  0  0  0  0  0  0  0  0  0  0
   -6.9640   21.8250  -31.4130 C   0  0  0  0  0  0  0  0  0  0  0  0
   -5.9920   22.2900  -30.3210 C   0  0  0  0  0  0  0  0  0  0  0  0
   -5.6117   25.7055  -29.4142 H   0  0  0  0  0  0  0  0  0  0  0  0
   -5.5381   26.6048  -30.9674 H   0  0  0  0  0  0  0  0  0  0  0  0
   -5.8553   24.8367  -30.9674 H   0  0  0  0  0  0  0  0  0  0  0  0
   -1.8718   25.7386  -28.7916 H   0  0  0  0  0  0  0  0  0  0  0  0
   -0.6975   23.9059  -27.5770 H   0  0  0  0  0  0  0  0  0  0  0  0
   -1.3798   21.5326  -27.9242 H   0  0  0  0  0  0  0  0  0  0  0  0
   -3.2517   20.9862  -29.4796 H   0  0  0  0  0  0  0  0  0  0  0  0
   -5.0698   23.4576  -32.8319 H   0  0  0  0  0  0  0  0  0  0  0  0
   -3.4186   22.8105  -32.5505 H   0  0  0  0  0  0  0  0  0  0  0  0
   -4.9450   21.3270  -33.9616 H   0  0  0  0  0  0  0  0  0  0  0  0
   -4.2270   20.5421  -32.4957 H   0  0  0  0  0  0  0  0  0  0  0  0
   -7.4089   17.8773  -33.1384 H   0  0  0  0  0  0  0  0  0  0  0  0
   -6.3179   19.2087  -35.3535 H   0  0  0  0  0  0  0  0  0  0  0  0
   -6.6826   17.4361  -35.1455 H   0  0  0  0  0  0  0  0  0  0  0  0
   -4.0323   18.8436  -34.6125 H   0  0  0  0  0  0  0  0  0  0  0  0
   -4.4363   17.6671  -35.9435 H   0  0  0  0  0  0  0  0  0  0  0  0
   -4.4540   15.9360  -34.5460 H   0  0  0  0  0  0  0  0  0  0  0  0
   -0.8833   18.5841  -35.5046 H   0  0  0  0  0  0  0  0  0  0  0  0
   -0.0797   20.9221  -35.1427 H   0  0  0  0  0  0  0  0  0  0  0  0
   -0.6452   22.1240  -33.0293 H   0  0  0  0  0  0  0  0  0  0  0  0
   -2.0224   20.9950  -31.2777 H   0  0  0  0  0  0  0  0  0  0  0  0
   -2.8224   18.6550  -31.6318 H   0  0  0  0  0  0  0  0  0  0  0  0
   -4.1279   16.4769  -31.9531 H   0  0  0  0  0  0  0  0  0  0  0  0
   -5.7020   16.0550  -32.7723 H   0  0  0  0  0  0  0  0  0  0  0  0
   -4.6819   18.8856  -32.2535 H   0  0  0  0  0  0  0  0  0  0  0  0
   -5.9308   18.0294  -31.2884 H   0  0  0  0  0  0  0  0  0  0  0  0
   -7.3620   22.7042  -31.9407 H   0  0  0  0  0  0  0  0  0  0  0  0
   -7.7823   21.2607  -30.9420 H   0  0  0  0  0  0  0  0  0  0  0  0
   -6.4447   23.1299  -29.7736 H   0  0  0  0  0  0  0  0  0  0  0  0
   -5.7986   21.4422  -29.6473 H   0  0  0  0  0  0  0  0  0  0  0  0
  1  2  1  0
  2  3  1  0
  3  4  2  0
  4  5  1  0
  5  6  2  0
  6  7  1  0
  7  8  2  0
  8  9  1  0
  9 10  1  0
 10 11  1  0
 11 12  1  0
 12 13  1  0
 13 14  2  0
 13 15  1  0
 15 16  1  0
 16 17  1  0
 17 18  1  0
 18 19  1  0
 19 20  2  0
 19 21  2  0
 19 22  1  0
 22 23  2  0
 23 24  1  0
 24 25  2  0
 25 26  1  0
 26 27  2  0
 18 28  1  0
 28 29  1  0
 12 30  1  0
 30 31  1  0
  8  3  1  0
 31  9  1  0
 29 15  1  0
 27 22  1  0
  1 32  1  0
  1 33  1  0
  1 34  1  0
  4 35  1  0
  5 36  1  0
  6 37  1  0
  7 38  1  0
 10 39  1  0
 10 40  1  0
 11 41  1  0
 11 42  1  0
 15 43  1  1
 16 44  1  0
 16 45  1  0
 17 46  1  0
 17 47  1  0
 18 48  1  6
 23 49  1  0
 24 50  1  0
 25 51  1  0
 26 52  1  0
 27 53  1  0
 28 54  1  0
 28 55  1  0
 29 56  1  0
 29 57  1  0
 30 58  1  0
 30 59  1  0
 31 60  1  0
 31 61  1  0
M  CHG  1  18   1
M  END
>  <UniqueID>  (23) 
23

>  <SMILES>  (23) 
COc1ccccc1N1CCN(C(=O)C2CC[NH+](S(=O)(=O)c3ccccc3)CC2)CC1

>  <Energy>  (23) 
78.03652639261512

>  <Genealogy>  (23) 
COc1ccccc1N1CCN(C(=O)C2CC[NH+](S(=O)(=O)c3ccccc3)CC2)CC1 (protonated)
COc1ccccc1N1CCN(C(=O)C2CC[NH+](S(=O)(=O)c3ccccc3)CC2)CC1 (3D coordinates assigned)
COc1ccccc1N1CCN(C(=O)C2CC[NH+](S(=O)(=O)c3ccccc3)CC2)CC1 (nonaromatic ring conformer: 78.03652639261512 kcal/mol)

>  <smiles>  (23) 
COc1ccccc1N1CCN(C(=O)C2CCN(S(=O)(=O)c3ccccc3)CC2)CC1

>  <score_type>  (23) 
oracle

>  <origin>  (23) 
adg

>  <m_score__min__energy>  (23) 
-9.3499999999999996

>  <m_primary>  (23) 
energy

$$$$
23:0
     RDKit          3D

 46 48  0  0  0  0  0  0  0  0999 V2000
   -5.3470   25.8550  -30.4620 C   0  0  0  0  0  0  0  0  0  0  0  0
   -4.1090   25.1610  -30.5710 O   0  0  0  0  0  0  0  0  0  0  0  0
   -3.5830   24.3100  -29.5860 C   0  0  0  0  0  0  0  0  0  0  0  0
   -2.3380   24.5620  -28.9740 C   0  0  0  0  0  0  0  0  0  0  0  0
   -1.8360   23.6880  -28.0070 C   0  0  0  0  0  0  0  0  0  0  0  0
   -2.5610   22.5530  -27.6440 C   0  0  0  0  0  0  0  0  0  0  0  0
   -3.7950   22.2900  -28.2410 C   0  0  0  0  0  0  0  0  0  0  0  0
   -4.3220   23.1700  -29.2030 C   0  0  0  0  0  0  0  0  0  0  0  0
   -5.6400   22.8580  -29.8590 C   0  0  0  0  0  0  0  0  0  0  0  0
   -5.5020   22.9890  -31.3130 N   0  0  0  0  0  0  0  0  0  0  0  0
   -5.9480   21.7930  -32.0450 C   0  0  0  0  0  0  0  0  0  0  0  0
   -7.2120   21.1330  -31.4280 C   0  0  1  0  0  0  0  0  0  0  0  0
   -8.4460   22.0460  -31.5040 C   0  0  0  0  0  0  0  0  0  0  0  0
   -9.5950   21.1660  -31.9840 C   0  0  0  0  0  0  0  0  0  0  0  0
   -8.9460   19.9740  -32.6650 C   0  0  0  0  0  0  0  0  0  0  0  0
   -7.5800   19.9250  -32.1670 N   0  0  0  0  0  0  0  0  0  0  0  0
   -6.7590   18.7360  -32.2700 C   0  0  0  0  0  0  0  0  0  0  0  0
   -6.0870   18.4330  -33.4670 C   0  0  0  0  0  0  0  0  0  0  0  0
   -5.3000   17.2850  -33.5610 C   0  0  0  0  0  0  0  0  0  0  0  0
   -5.1870   16.4400  -32.4580 C   0  0  0  0  0  0  0  0  0  0  0  0
   -5.8410   16.7360  -31.3030 N   0  0  0  0  0  0  0  0  0  0  0  0
   -6.6150   17.8500  -31.1850 C   0  0  0  0  0  0  0  0  0  0  0  0
   -5.5966   25.9949  -29.3999 H   0  0  0  0  0  0  0  0  0  0  0  0
   -5.2614   26.8366  -30.9509 H   0  0  0  0  0  0  0  0  0  0  0  0
   -6.1397   25.2697  -30.9509 H   0  0  0  0  0  0  0  0  0  0  0  0
   -1.7586   25.4523  -29.2598 H   0  0  0  0  0  0  0  0  0  0  0  0
   -0.8665   23.8953  -27.5305 H   0  0  0  0  0  0  0  0  0  0  0  0
   -2.1597   21.8641  -26.8861 H   0  0  0  0  0  0  0  0  0  0  0  0
   -4.3586   21.3890  -27.9573 H   0  0  0  0  0  0  0  0  0  0  0  0
   -5.9399   21.8294  -29.6098 H   0  0  0  0  0  0  0  0  0  0  0  0
   -6.4062   23.5595  -29.4974 H   0  0  0  0  0  0  0  0  0  0  0  0
   -4.5050   23.2010  -31.5480 H   0  0  0  0  0  0  0  0  0  0  0  0
   -6.1755   22.0823  -33.0816 H   0  0  0  0  0  0  0  0  0  0  0  0
   -5.1345   21.0546  -31.9908 H   0  0  0  0  0  0  0  0  0  0  0  0
   -6.9472   20.9206  -30.3817 H   0  0  0  0  0  0  0  0  0  0  0  0
   -8.6736   22.4634  -30.5120 H   0  0  0  0  0  0  0  0  0  0  0  0
   -8.2774   22.8932  -32.1850 H   0  0  0  0  0  0  0  0  0  0  0  0
  -10.2057   20.8344  -31.1313 H   0  0  0  0  0  0  0  0  0  0  0  0
  -10.2628   21.7095  -32.6686 H   0  0  0  0  0  0  0  0  0  0  0  0
   -9.4808   19.0480  -32.4069 H   0  0  0  0  0  0  0  0  0  0  0  0
   -8.9732   20.0707  -33.7604 H   0  0  0  0  0  0  0  0  0  0  0  0
   -6.1821   19.1041  -34.3334 H   0  0  0  0  0  0  0  0  0  0  0  0
   -4.7732   17.0486  -34.4973 H   0  0  0  0  0  0  0  0  0  0  0  0
   -4.5682   15.5328  -32.5220 H   0  0  0  0  0  0  0  0  0  0  0  0
   -5.7480   16.0910  -30.4870 H   0  0  0  0  0  0  0  0  0  0  0  0
   -7.1310   18.0591  -30.2363 H   0  0  0  0  0  0  0  0  0  0  0  0
  1  2  1  0
  2  3  1  0
  3  4  2  0
  4  5  1  0
  5  6  2  0
  6  7  1  0
  7  8  2  0
  8  9  1  0
  9 10  1  0
 10 11  1  0
 11 12  1  0
 12 13  1  0
 13 14  1  0
 14 15  1  0
 15 16  1  0
 16 17  1  0
 17 18  2  0
 18 19  1  0
 19 20  2  0
 20 21  1  0
 21 22  2  0
  8  3  1  0
 16 12  1  0
 22 17  1  0
  1 23  1  0
  1 24  1  0
  1 25  1  0
  4 26  1  0
  5 27  1  0
  6 28  1  0
  7 29  1  0
  9 30  1  0
  9 31  1  0
 10 32  1  0
 11 33  1  0
 11 34  1  0
 12 35  1  1
 13 36  1  0
 13 37  1  0
 14 38  1  0
 14 39  1  0
 15 40  1  0
 15 41  1  0
 18 42  1  0
 19 43  1  0
 20 44  1  0
 21 45  1  0
 22 46  1  0
M  CHG  1  21   1
M  END
>  <UniqueID>  (24) 
24

>  <SMILES>  (24) 
COc1ccccc1CNC[C@H]1CCCN1c1ccc[nH+]c1

>  <Energy>  (24) 
50.430759124271056

>  <Genealogy>  (24) 
COc1ccccc1CNCC1CCCN1c1ccc[nH+]c1 (protonated)
COc1ccccc1CNC[C@H]1CCCN1c1ccc[nH+]c1 (chirality)
COc1ccccc1CNC[C@H]1CCCN1c1ccc[nH+]c1 (3D coordinates assigned)
COc1ccccc1CNC[C@H]1CCCN1c1ccc[nH+]c1 (nonaromatic ring conformer: 50.430759124271056 kcal/mol)

>  <smiles>  (24) 
COc1ccccc1CNCC1CCCN1c1cccnc1

>  <score_type>  (24) 
oracle

>  <origin>  (24) 
adg

>  <m_score__min__energy>  (24) 
-8.1099999999999994

>  <m_primary>  (24) 
energy

$$$$
24:0
     RDKit          3D

 49 51  0  0  0  0  0  0  0  0999 V2000
   -6.6510   25.2760  -29.8060 C   0  0  0  0  0  0  0  0  0  0  0  0
   -5.3820   25.8040  -30.4690 C   0  0  0  0  0  0  0  0  0  0  0  0
   -4.4620   24.7030  -30.8420 N   0  0  0  0  0  0  0  0  0  0  0  0
   -3.4810   24.4270  -29.7650 C   0  0  0  0  0  0  0  0  0  0  0  0
   -4.0560   23.6130  -28.5970 C   0  0  0  0  0  0  0  0  0  0  0  0
   -5.1590   23.4720  -31.2930 C   0  0  0  0  0  0  0  0  0  0  0  0
   -4.1700   22.4290  -31.8390 C   0  0  0  0  0  0  0  0  0  0  0  0
   -4.6430   21.8000  -33.0760 N   0  0  0  0  0  0  0  0  0  0  0  0
   -5.1540   20.4570  -33.1390 C   0  0  0  0  0  0  0  0  0  0  0  0
   -6.4930   20.1560  -32.7760 C   0  0  0  0  0  0  0  0  0  0  0  0
   -7.3730   21.1680  -32.3410 C   0  0  0  0  0  0  0  0  0  0  0  0
   -8.6930   20.8690  -32.0120 C   0  0  0  0  0  0  0  0  0  0  0  0
   -9.1620   19.5630  -32.1080 C   0  0  0  0  0  0  0  0  0  0  0  0
   -8.3190   18.5400  -32.5410 C   0  0  0  0  0  0  0  0  0  0  0  0
   -6.9740   18.8060  -32.8880 C   0  0  0  0  0  0  0  0  0  0  0  0
   -6.1330   17.8000  -33.3340 N   0  0  0  0  0  0  0  0  0  0  0  0
   -6.5830   16.4040  -33.4650 C   0  0  0  0  0  0  0  0  0  0  0  0
   -4.8440   18.1220  -33.6450 C   0  0  0  0  0  0  0  0  0  0  0  0
   -3.9070   17.2890  -34.0330 O   0  0  0  0  0  0  0  0  0  0  0  0
   -2.8010   17.9870  -34.1940 C   0  0  0  0  0  0  0  0  0  0  0  0
   -1.4950   17.3940  -34.5980 C   0  0  0  0  0  0  0  0  0  0  0  0
   -3.0170   19.3270  -33.8940 C   0  0  0  0  0  0  0  0  0  0  0  0
   -4.3540   19.3950  -33.5570 C   0  0  0  0  0  0  0  0  0  0  0  0
   -6.5399   25.3222  -28.7126 H   0  0  0  0  0  0  0  0  0  0  0  0
   -7.5089   25.8918  -30.1137 H   0  0  0  0  0  0  0  0  0  0  0  0
   -6.8189   24.2334  -30.1137 H   0  0  0  0  0  0  0  0  0  0  0  0
   -5.6586   26.3608  -31.3764 H   0  0  0  0  0  0  0  0  0  0  0  0
   -4.8643   26.4561  -29.7502 H   0  0  0  0  0  0  0  0  0  0  0  0
   -2.6396   23.8660  -30.1977 H   0  0  0  0  0  0  0  0  0  0  0  0
   -3.1720   25.4002  -29.3559 H   0  0  0  0  0  0  0  0  0  0  0  0
   -3.7381   24.0630  -27.6449 H   0  0  0  0  0  0  0  0  0  0  0  0
   -5.1545   23.6146  -28.6547 H   0  0  0  0  0  0  0  0  0  0  0  0
   -3.6873   22.5782  -28.6547 H   0  0  0  0  0  0  0  0  0  0  0  0
   -5.7023   23.0370  -30.4412 H   0  0  0  0  0  0  0  0  0  0  0  0
   -5.8517   23.7459  -32.1024 H   0  0  0  0  0  0  0  0  0  0  0  0
   -3.2094   22.9255  -32.0407 H   0  0  0  0  0  0  0  0  0  0  0  0
   -4.0656   21.6387  -31.0810 H   0  0  0  0  0  0  0  0  0  0  0  0
   -4.4650   22.3060  -33.9720 H   0  0  0  0  0  0  0  0  0  0  0  0
   -7.0134   22.2044  -32.2606 H   0  0  0  0  0  0  0  0  0  0  0  0
   -9.3678   21.6695  -31.6746 H   0  0  0  0  0  0  0  0  0  0  0  0
  -10.2045   19.3357  -31.8407 H   0  0  0  0  0  0  0  0  0  0  0  0
   -8.7052   17.5126  -32.6136 H   0  0  0  0  0  0  0  0  0  0  0  0
   -6.7234   15.9686  -32.4646 H   0  0  0  0  0  0  0  0  0  0  0  0
   -7.5357   16.3759  -34.0141 H   0  0  0  0  0  0  0  0  0  0  0  0
   -5.8261   15.8247  -34.0141 H   0  0  0  0  0  0  0  0  0  0  0  0
   -0.9176   17.1318  -33.6992 H   0  0  0  0  0  0  0  0  0  0  0  0
   -1.6730   16.4884  -35.1965 H   0  0  0  0  0  0  0  0  0  0  0  0
   -0.9303   18.1240  -35.1965 H   0  0  0  0  0  0  0  0  0  0  0  0
   -2.2864   20.1489  -33.9194 H   0  0  0  0  0  0  0  0  0  0  0  0
  1  2  1  0
  2  3  1  0
  3  4  1  0
  4  5  1  0
  3  6  1  0
  6  7  1  0
  7  8  1  0
  8  9  1  0
  9 10  2  0
 10 11  1  0
 11 12  2  0
 12 13  1  0
 13 14  2  0
 14 15  1  0
 15 16  2  0
 16 17  1  0
 16 18  1  0
 18 19  1  0
 19 20  1  0
 20 21  1  0
 20 22  2  0
 22 23  1  0
 23  9  1  0
 15 10  1  0
 23 18  2  0
  1 24  1  0
  1 25  1  0
  1 26  1  0
  2 27  1  0
  2 28  1  0
  4 29  1  0
  4 30  1  0
  5 31  1  0
  5 32  1  0
  5 33  1  0
  6 34  1  0
  6 35  1  0
  7 36  1  0
  7 37  1  0
  8 38  1  0
 11 39  1  0
 12 40  1  0
 13 41  1  0
 14 42  1  0
 17 43  1  0
 17 44  1  0
 17 45  1  0
 21 46  1  0
 21 47  1  0
 21 48  1  0
 22 49  1  0
M  CHG  1  16   1
M  END
>  <UniqueID>  (25) 
25

>  <SMILES>  (25) 
CCN(CC)CCNc1c2ccccc2[n+](C)c2oc(C)cc12

>  <Energy>  (25) 
93.45379933914776

>  <Genealogy>  (25) 
CCN(CC)CCNc1c2ccccc2[n+](C)c2oc(C)cc12 (3D coordinates assigned)
CCN(CC)CCNc1c2ccccc2[n+](C)c2oc(C)cc12 (optimized conformer: 93.45379933914776 kcal/mol)

>  <smiles>  (25) 
CCN(CC)CCNc1c2ccccc2[n+](C)c2oc(C)cc12

>  <score_type>  (25) 
oracle

>  <origin>  (25) 
adg

>  <m_score__min__energy>  (25) 
-7.96

>  <m_primary>  (25) 
energy

$$$$
25:0
     RDKit          3D

 60 63  0  0  0  0  0  0  0  0999 V2000
   -8.5480   21.8320  -31.9720 C   0  0  0  0  0  0  0  0  0  0  0  0
   -8.2860   20.3990  -32.0590 N   0  0  0  0  0  0  0  0  0  0  0  0
   -9.0390   19.4260  -31.5080 C   0  0  0  0  0  0  0  0  0  0  0  0
   -8.4870   18.1910  -31.7810 C   0  0  0  0  0  0  0  0  0  0  0  0
   -7.3470   18.4230  -32.5240 C   0  0  0  0  0  0  0  0  0  0  0  0
   -7.2520   19.7940  -32.6800 C   0  0  0  0  0  0  0  0  0  0  0  0
   -6.1510   20.4950  -33.4330 C   0  0  0  0  0  0  0  0  0  0  0  0
   -5.1530   21.0660  -32.5050 N   0  0  0  0  0  0  0  0  0  0  0  0
   -4.5810   20.0210  -31.6190 C   0  0  0  0  0  0  0  0  0  0  0  0
   -3.2590   20.4820  -30.9970 C   0  0  0  0  0  0  0  0  0  0  0  0
   -2.2410   20.7110  -32.0440 N   0  0  0  0  0  0  0  0  0  0  0  0
   -1.0730   21.4900  -31.5730 C   0  0  0  0  0  0  0  0  0  0  0  0
   -1.1930   21.9990  -30.1250 C   0  0  0  0  0  0  0  0  0  0  0  0
   -1.8610   23.2450  -30.1410 O   0  0  0  0  0  0  0  0  0  0  0  0
   -2.7990   23.3320  -29.0800 C   0  0  0  0  0  0  0  0  0  0  0  0
   -2.3550   24.3650  -28.0680 C   0  0  0  0  0  0  0  0  0  0  0  0
   -1.2490   25.2020  -28.3080 C   0  0  0  0  0  0  0  0  0  0  0  0
   -0.8750   26.1690  -27.3710 C   0  0  0  0  0  0  0  0  0  0  0  0
   -1.6190   26.3330  -26.2010 C   0  0  0  0  0  0  0  0  0  0  0  0
   -2.7350   25.5260  -25.9620 C   0  0  0  0  0  0  0  0  0  0  0  0
   -3.1020   24.5490  -26.8910 C   0  0  0  0  0  0  0  0  0  0  0  0
   -4.1600   23.7200  -29.6170 C   0  0  0  0  0  0  0  0  0  0  0  0
   -4.3310   24.9130  -30.3410 C   0  0  0  0  0  0  0  0  0  0  0  0
   -5.5930   25.2710  -30.8240 C   0  0  0  0  0  0  0  0  0  0  0  0
   -6.6970   24.4450  -30.5840 C   0  0  0  0  0  0  0  0  0  0  0  0
   -6.5390   23.2590  -29.8620 C   0  0  0  0  0  0  0  0  0  0  0  0
   -5.2790   22.8980  -29.3760 C   0  0  0  0  0  0  0  0  0  0  0  0
   -2.7820   21.1270  -33.3600 C   0  0  0  0  0  0  0  0  0  0  0  0
   -4.1260   21.8650  -33.2260 C   0  0  0  0  0  0  0  0  0  0  0  0
   -8.6027   22.1312  -30.9149 H   0  0  0  0  0  0  0  0  0  0  0  0
   -7.7359   22.3840  -32.4678 H   0  0  0  0  0  0  0  0  0  0  0  0
   -9.5029   22.0609  -32.4678 H   0  0  0  0  0  0  0  0  0  0  0  0
   -9.9579   19.5920  -30.9266 H   0  0  0  0  0  0  0  0  0  0  0  0
   -8.8791   17.2122  -31.4675 H   0  0  0  0  0  0  0  0  0  0  0  0
   -6.6510   17.6663  -32.9151 H   0  0  0  0  0  0  0  0  0  0  0  0
   -5.6529   19.7727  -34.0964 H   0  0  0  0  0  0  0  0  0  0  0  0
   -6.5941   21.3146  -34.0177 H   0  0  0  0  0  0  0  0  0  0  0  0
   -5.2983   19.8013  -30.8145 H   0  0  0  0  0  0  0  0  0  0  0  0
   -4.3863   19.1222  -32.2226 H   0  0  0  0  0  0  0  0  0  0  0  0
   -3.4267   21.4188  -30.4453 H   0  0  0  0  0  0  0  0  0  0  0  0
   -2.8960   19.6980  -30.3161 H   0  0  0  0  0  0  0  0  0  0  0  0
   -0.1817   20.8489  -31.6400 H   0  0  0  0  0  0  0  0  0  0  0  0
   -1.0085   22.3805  -32.2155 H   0  0  0  0  0  0  0  0  0  0  0  0
   -1.7672   21.2779  -29.5247 H   0  0  0  0  0  0  0  0  0  0  0  0
   -0.1928   22.1134  -29.6818 H   0  0  0  0  0  0  0  0  0  0  0  0
   -2.8612   22.3473  -28.5937 H   0  0  0  0  0  0  0  0  0  0  0  0
   -0.6748   25.0941  -29.2400 H   0  0  0  0  0  0  0  0  0  0  0  0
    0.0060   26.8013  -27.5554 H   0  0  0  0  0  0  0  0  0  0  0  0
   -1.3267   27.0980  -25.4666 H   0  0  0  0  0  0  0  0  0  0  0  0
   -3.3241   25.6601  -25.0428 H   0  0  0  0  0  0  0  0  0  0  0  0
   -3.9828   23.9184  -26.7000 H   0  0  0  0  0  0  0  0  0  0  0  0
   -3.4674   25.5680  -30.5283 H   0  0  0  0  0  0  0  0  0  0  0  0
   -5.7186   26.2036  -31.3937 H   0  0  0  0  0  0  0  0  0  0  0  0
   -7.6894   24.7294  -30.9638 H   0  0  0  0  0  0  0  0  0  0  0  0
   -7.4067   22.6090  -29.6760 H   0  0  0  0  0  0  0  0  0  0  0  0
   -5.1603   21.9670  -28.8022 H   0  0  0  0  0  0  0  0  0  0  0  0
   -2.0568   21.7961  -33.8462 H   0  0  0  0  0  0  0  0  0  0  0  0
   -2.9517   20.2199  -33.9587 H   0  0  0  0  0  0  0  0  0  0  0  0
   -3.9589   22.8021  -32.6747 H   0  0  0  0  0  0  0  0  0  0  0  0
   -4.5044   22.0512  -34.2420 H   0  0  0  0  0  0  0  0  0  0  0  0
  1  2  1  0
  2  3  1  0
  3  4  2  0
  4  5  1  0
  5  6  2  0
  6  7  1  0
  7  8  1  0
  8  9  1  0
  9 10  1  0
 10 11  1  0
 11 12  1  0
 12 13  1  0
 13 14  1  0
 14 15  1  0
 15 16  1  0
 16 17  2  0
 17 18  1  0
 18 19  2  0
 19 20  1  0
 20 21  2  0
 15 22  1  0
 22 23  2  0
 23 24  1  0
 24 25  2  0
 25 26  1  0
 26 27  2  0
 11 28  1  0
 28 29  1  0
  6  2  1  0
 29  8  1  0
 21 16  1  0
 27 22  1  0
  1 30  1  0
  1 31  1  0
  1 32  1  0
  3 33  1  0
  4 34  1  0
  5 35  1  0
  7 36  1  0
  7 37  1  0
  9 38  1  0
  9 39  1  0
 10 40  1  0
 10 41  1  0
 12 42  1  0
 12 43  1  0
 13 44  1  0
 13 45  1  0
 15 46  1  0
 17 47  1  0
 18 48  1  0
 19 49  1  0
 20 50  1  0
 21 51  1  0
 23 52  1  0
 24 53  1  0
 25 54  1  0
 26 55  1  0
 27 56  1  0
 28 57  1  0
 28 58  1  0
 29 59  1  0
 29 60  1  0
M  END
>  <UniqueID>  (26) 
26

>  <SMILES>  (26) 
Cn1cccc1CN1CCN(CCOC(c2ccccc2)c2ccccc2)CC1

>  <Energy>  (26) 
104.87207046442008

>  <Genealogy>  (26) 
Cn1cccc1CN1CCN(CCOC(c2ccccc2)c2ccccc2)CC1 (3D coordinates assigned)
Cn1cccc1CN1CCN(CCOC(c2ccccc2)c2ccccc2)CC1 (nonaromatic ring conformer: 104.87207046442008 kcal/mol)

>  <smiles>  (26) 
Cn1cccc1CN1CCN(CCOC(c2ccccc2)c2ccccc2)CC1

>  <score_type>  (26) 
oracle

>  <origin>  (26) 
adg

>  <m_score__min__energy>  (26) 
-9.4600000000000009

>  <m_primary>  (26) 
energy

$$$$
26:0
     RDKit          3D

 38 40  0  0  0  0  0  0  0  0999 V2000
   -0.7100   25.0490  -27.6850 C   0  0  0  0  0  0  0  0  0  0  0  0
   -2.1110   24.7520  -27.9540 N   0  0  0  0  0  0  0  0  0  0  0  0
   -3.0640   24.5200  -27.0300 C   0  0  0  0  0  0  0  0  0  0  0  0
   -4.2440   24.1670  -27.6540 C   0  0  0  0  0  0  0  0  0  0  0  0
   -3.9810   24.1780  -29.0110 C   0  0  0  0  0  0  0  0  0  0  0  0
   -4.9230   23.8080  -30.0750 C   0  0  0  0  0  0  0  0  0  0  0  0
   -6.2200   23.5040  -29.8690 N   0  0  0  0  0  0  0  0  0  0  0  0
   -6.7110   23.2950  -31.1020 C   0  0  0  0  0  0  0  0  0  0  0  0
   -8.1600   23.0750  -31.4150 C   0  0  0  0  0  0  0  0  0  0  0  0
   -8.6390   21.8400  -30.7740 N   0  0  0  0  0  0  0  0  0  0  0  0
   -9.2660   20.9080  -31.7280 C   0  0  0  0  0  0  0  0  0  0  0  0
   -8.2630   19.9240  -32.2770 C   0  0  0  0  0  0  0  0  0  0  0  0
   -7.2140   20.3620  -33.1040 C   0  0  0  0  0  0  0  0  0  0  0  0
   -6.2610   19.4530  -33.5720 C   0  0  0  0  0  0  0  0  0  0  0  0
   -6.3520   18.1020  -33.2280 C   0  0  0  0  0  0  0  0  0  0  0  0
   -7.4050   17.6550  -32.4250 C   0  0  0  0  0  0  0  0  0  0  0  0
   -8.3620   18.5600  -31.9550 C   0  0  0  0  0  0  0  0  0  0  0  0
   -5.6950   23.4640  -32.0180 C   0  0  0  0  0  0  0  0  0  0  0  0
   -4.6060   23.7750  -31.3520 O   0  0  0  0  0  0  0  0  0  0  0  0
   -2.6540   24.5310  -29.1660 C   0  0  0  0  0  0  0  0  0  0  0  0
   -0.5448   25.0840  -26.5980 H   0  0  0  0  0  0  0  0  0  0  0  0
   -0.0776   24.2650  -28.1269 H   0  0  0  0  0  0  0  0  0  0  0  0
   -0.4501   26.0222  -28.1269 H   0  0  0  0  0  0  0  0  0  0  0  0
   -2.9230   24.5999  -25.9420 H   0  0  0  0  0  0  0  0  0  0  0  0
   -5.2012   23.9255  -27.1687 H   0  0  0  0  0  0  0  0  0  0  0  0
   -6.7400   23.4800  -28.9650 H   0  0  0  0  0  0  0  0  0  0  0  0
   -8.7455   23.9282  -31.0418 H   0  0  0  0  0  0  0  0  0  0  0  0
   -8.2808   22.9829  -32.5045 H   0  0  0  0  0  0  0  0  0  0  0  0
   -9.3790   22.1130  -30.0840 H   0  0  0  0  0  0  0  0  0  0  0  0
  -10.0659   20.3546  -31.2143 H   0  0  0  0  0  0  0  0  0  0  0  0
   -9.6719   21.4926  -32.5667 H   0  0  0  0  0  0  0  0  0  0  0  0
   -7.1430   21.4235  -33.3837 H   0  0  0  0  0  0  0  0  0  0  0  0
   -5.4376   19.8020  -34.2125 H   0  0  0  0  0  0  0  0  0  0  0  0
   -5.5950   17.3902  -33.5891 H   0  0  0  0  0  0  0  0  0  0  0  0
   -7.4811   16.5896  -32.1622 H   0  0  0  0  0  0  0  0  0  0  0  0
   -9.1948   18.2029  -31.3313 H   0  0  0  0  0  0  0  0  0  0  0  0
   -5.7805   23.3577  -33.1095 H   0  0  0  0  0  0  0  0  0  0  0  0
   -2.1254   24.6176  -30.1268 H   0  0  0  0  0  0  0  0  0  0  0  0
  1  2  1  0
  2  3  1  0
  3  4  2  0
  4  5  1  0
  5  6  1  0
  6  7  2  0
  7  8  1  0
  8  9  1  0
  9 10  1  0
 10 11  1  0
 11 12  1  0
 12 13  2  0
 13 14  1  0
 14 15  2  0
 15 16  1  0
 16 17  2  0
  8 18  2  0
 18 19  1  0
  5 20  2  0
 20  2  1  0
 19  6  1  0
 17 12  1  0
  1 21  1  0
  1 22  1  0
  1 23  1  0
  3 24  1  0
  4 25  1  0
  7 26  1  0
  9 27  1  0
  9 28  1  0
 10 29  1  0
 11 30  1  0
 11 31  1  0
 13 32  1  0
 14 33  1  0
 15 34  1  0
 16 35  1  0
 17 36  1  0
 18 37  1  0
 20 38  1  0
M  CHG  1   7   1
M  END
>  <UniqueID>  (27) 
27

>  <SMILES>  (27) 
Cn1ccc(-c2[nH+]c(CNCc3ccccc3)co2)c1

>  <Energy>  (27) 
90.42038635281922

>  <Genealogy>  (27) 
Cn1ccc(-c2[nH+]c(CNCc3ccccc3)co2)c1 (protonated)
Cn1ccc(-c2[nH+]c(CNCc3ccccc3)co2)c1 (3D coordinates assigned)
Cn1ccc(-c2[nH+]c(CNCc3ccccc3)co2)c1 (optimized conformer: 90.42038635281922 kcal/mol)

>  <smiles>  (27) 
Cn1ccc(-c2nc(CNCc3ccccc3)co2)c1

>  <score_type>  (27) 
oracle

>  <origin>  (27) 
adg

>  <m_score__min__energy>  (27) 
-6.5499999999999998

>  <m_primary>  (27) 
energy

$$$$
27:0
     RDKit          3D

 53 56  0  0  0  0  0  0  0  0999 V2000
   -1.4190   25.4580  -29.7630 H   0  0  0  0  0  0  0  0  0  0  0  0
   -2.3300   25.2870  -29.2820 N   0  0  0  0  0  0  0  0  0  0  0  0
   -3.3510   24.7940  -29.9130 C   0  0  0  0  0  0  0  0  0  0  0  0
   -4.2630   25.6370  -30.4560 N   0  0  0  0  0  0  0  0  0  0  0  0
   -5.3610   25.1970  -31.1170 C   0  0  0  0  0  0  0  0  0  0  0  0
   -6.0567   25.9265  -31.5572 H   0  0  0  0  0  0  0  0  0  0  0  0
   -5.6250   23.8200  -31.2490 C   0  0  0  0  0  0  0  0  0  0  0  0
   -6.8770   23.3180  -31.9760 C   0  0  0  0  0  0  0  0  0  0  0  0
   -7.3678   24.1858  -32.4408 H   0  0  0  0  0  0  0  0  0  0  0  0
   -6.5224   22.5652  -32.6954 H   0  0  0  0  0  0  0  0  0  0  0  0
   -7.8750   22.6300  -31.1370 N   0  0  0  0  0  0  0  0  0  0  0  0
   -7.4200   22.1080  -30.3540 H   0  0  0  0  0  0  0  0  0  0  0  0
   -8.7850   21.7600  -31.9000 C   0  0  0  0  0  0  0  0  0  0  0  0
   -9.6850   21.5619  -31.2994 H   0  0  0  0  0  0  0  0  0  0  0  0
   -9.0588   22.2662  -32.8374 H   0  0  0  0  0  0  0  0  0  0  0  0
   -8.1120   20.4540  -32.2300 C   0  0  0  0  0  0  0  0  0  0  0  0
   -8.5510   19.2660  -31.6280 C   0  0  0  0  0  0  0  0  0  0  0  0
   -9.3743   19.2936  -30.8990 H   0  0  0  0  0  0  0  0  0  0  0  0
   -7.9470   18.0460  -31.9500 C   0  0  0  0  0  0  0  0  0  0  0  0
   -8.2878   17.1205  -31.4628 H   0  0  0  0  0  0  0  0  0  0  0  0
   -6.9070   17.9980  -32.8930 C   0  0  0  0  0  0  0  0  0  0  0  0
   -6.2330   16.6960  -33.2110 C   0  0  0  0  0  0  0  0  0  0  0  0
   -5.9672   16.1826  -32.2752 H   0  0  0  0  0  0  0  0  0  0  0  0
   -6.9164   16.0625  -33.7955 H   0  0  0  0  0  0  0  0  0  0  0  0
   -5.3212   16.8883  -33.7955 H   0  0  0  0  0  0  0  0  0  0  0  0
   -6.4610   19.1880  -33.4880 C   0  0  0  0  0  0  0  0  0  0  0  0
   -5.6332   19.1613  -34.2119 H   0  0  0  0  0  0  0  0  0  0  0  0
   -7.0640   20.4080  -33.1650 C   0  0  0  0  0  0  0  0  0  0  0  0
   -6.7166   21.3349  -33.6447 H   0  0  0  0  0  0  0  0  0  0  0  0
   -4.6510   22.9070  -30.7500 C   0  0  0  0  0  0  0  0  0  0  0  0
   -4.7670   21.5110  -30.9400 C   0  0  0  0  0  0  0  0  0  0  0  0
   -5.6207   21.1103  -31.5063 H   0  0  0  0  0  0  0  0  0  0  0  0
   -3.8150   20.6340  -30.4200 C   0  0  0  0  0  0  0  0  0  0  0  0
   -3.9316   19.5513  -30.5755 H   0  0  0  0  0  0  0  0  0  0  0  0
   -2.7120   21.1150  -29.7020 C   0  0  0  0  0  0  0  0  0  0  0  0
   -1.7040   20.1740  -29.1480 C   0  0  0  0  0  0  0  0  0  0  0  0
   -0.6000   19.7680  -29.9130 C   0  0  0  0  0  0  0  0  0  0  0  0
   -0.4751   20.1467  -30.9382 H   0  0  0  0  0  0  0  0  0  0  0  0
    0.3400   18.8860  -29.3790 C   0  0  0  0  0  0  0  0  0  0  0  0
    1.2056   18.5695  -29.9795 H   0  0  0  0  0  0  0  0  0  0  0  0
    0.1740   18.4040  -28.0680 C   0  0  0  0  0  0  0  0  0  0  0  0
    1.0870   17.5150  -27.4780 O   0  0  0  0  0  0  0  0  0  0  0  0
    1.0300   16.0990  -27.6100 C   0  0  0  0  0  0  0  0  0  0  0  0
    1.0114   15.6381  -26.6114 H   0  0  0  0  0  0  0  0  0  0  0  0
    0.1198   15.8184  -28.1603 H   0  0  0  0  0  0  0  0  0  0  0  0
    1.9147   15.7461  -28.1603 H   0  0  0  0  0  0  0  0  0  0  0  0
   -0.9050   18.8080  -27.3420 N   0  0  0  0  0  0  0  0  0  0  0  0
   -1.0290   18.4460  -26.3700 H   0  0  0  0  0  0  0  0  0  0  0  0
   -1.8320   19.6690  -27.8440 C   0  0  0  0  0  0  0  0  0  0  0  0
   -2.6882   19.9716  -27.2233 H   0  0  0  0  0  0  0  0  0  0  0  0
   -2.5670   22.5000  -29.5280 C   0  0  0  0  0  0  0  0  0  0  0  0
   -1.6995   22.8881  -28.9742 H   0  0  0  0  0  0  0  0  0  0  0  0
   -3.5160   23.4020  -30.0520 C   0  0  0  0  0  0  0  0  0  0  0  0
  1  2  1  0
  2  3  2  0
  3  4  1  0
  4  5  1  0
  5  6  1  0
  5  7  2  0
  7  8  1  0
  8  9  1  0
  8 10  1  0
  8 11  1  0
 11 12  1  0
 11 13  1  0
 13 14  1  0
 13 15  1  0
 13 16  1  0
 16 17  2  0
 17 18  1  0
 17 19  1  0
 19 20  1  0
 19 21  2  0
 21 22  1  0
 22 23  1  0
 22 24  1  0
 22 25  1  0
 21 26  1  0
 26 27  1  0
 26 28  2  0
 28 29  1  0
  7 30  1  0
 30 31  2  0
 31 32  1  0
 31 33  1  0
 33 34  1  0
 33 35  2  0
 35 36  1  0
 36 37  2  0
 37 38  1  0
 37 39  1  0
 39 40  1  0
 39 41  2  0
 41 42  1  0
 42 43  1  0
 43 44  1  0
 43 45  1  0
 43 46  1  0
 41 47  1  0
 47 48  1  0
 47 49  2  0
 49 50  1  0
 35 51  1  0
 51 52  1  0
 51 53  2  0
 53  3  1  0
 28 16  1  0
 53 30  1  0
 49 36  1  0
M  CHG  2   4  -1  47   1
M  END
>  <UniqueID>  (28) 
28

>  <SMILES>  (28) 
[H]/N=c1\[n-]cc(CNCc2ccc(C)cc2)c2ccc(-c3ccc(OC)[nH+]c3)cc12

>  <Energy>  (28) 
74.33152335894161

>  <Genealogy>  (28) 
COc1ccc(-c2ccc3c(CNCc4ccc(C)cc4)c[n-]c(=N)c3c2)c[nH+]1 (protonated)
[H]/N=c1\[n-]cc(CNCc2ccc(C)cc2)c2ccc(-c3ccc(OC)[nH+]c3)cc12 (cis-trans isomerization)
[H]/N=c1\[n-]cc(CNCc2ccc(C)cc2)c2ccc(-c3ccc(OC)[nH+]c3)cc12 (3D coordinates assigned)
[H]/N=c1\[n-]cc(CNCc2ccc(C)cc2)c2ccc(-c3ccc(OC)[nH+]c3)cc12 (optimized conformer: 74.33152335894161 kcal/mol)

>  <smiles>  (28) 
COc1ccc(-c2ccc3c(CNCc4ccc(C)cc4)c[nH]c(=N)c3c2)cn1

>  <score_type>  (28) 
oracle

>  <origin>  (28) 
adg

>  <m_score__min__energy>  (28) 
-10.890000000000001

>  <m_primary>  (28) 
energy

$$$$
28:0
     RDKit          3D

 36 37  0  0  0  0  0  0  0  0999 V2000
   -5.5600   22.2090  -32.3010 C   0  0  0  0  0  0  0  0  0  0  0  0
   -5.1530   23.2950  -31.5000 O   0  0  0  0  0  0  0  0  0  0  0  0
   -4.1190   23.2170  -30.5990 C   0  0  0  0  0  0  0  0  0  0  0  0
   -3.6420   22.0340  -30.0710 C   0  0  0  0  0  0  0  0  0  0  0  0
   -2.6000   22.0370  -29.1730 C   0  0  0  0  0  0  0  0  0  0  0  0
   -2.0340   20.8390  -28.5760 C   0  0  0  0  0  0  0  0  0  0  0  0
   -2.5890   20.3460  -27.4490 N   0  0  0  0  0  0  0  0  0  0  0  0
   -2.1650   19.2750  -26.8150 N   0  0  0  0  0  0  0  0  0  0  0  0
   -1.0970   18.5950  -27.2980 C   0  0  0  0  0  0  0  0  0  0  0  0
   -0.6710   17.5740  -26.7170 O   0  0  0  0  0  0  0  0  0  0  0  0
   -0.4660   19.0240  -28.4430 C   0  0  0  0  0  0  0  0  0  0  0  0
   -0.9500   20.1620  -29.0800 C   0  0  0  0  0  0  0  0  0  0  0  0
   -0.2670   20.6330  -30.3090 C   0  0  0  0  0  0  0  0  0  0  0  0
   -2.0150   23.2470  -28.7850 C   0  0  0  0  0  0  0  0  0  0  0  0
   -2.4810   24.4380  -29.3040 C   0  0  0  0  0  0  0  0  0  0  0  0
   -1.9520   25.6760  -28.9680 O   0  0  0  0  0  0  0  0  0  0  0  0
   -1.1910   25.9660  -27.8380 C   0  0  0  0  0  0  0  0  0  0  0  0
   -3.5270   24.4180  -30.2050 C   0  0  0  0  0  0  0  0  0  0  0  0
   -4.0050   25.6310  -30.7360 O   0  0  0  0  0  0  0  0  0  0  0  0
   -5.3560   25.9730  -30.4710 C   0  0  0  0  0  0  0  0  0  0  0  0
   -5.8727   21.3746  -31.6560 H   0  0  0  0  0  0  0  0  0  0  0  0
   -6.4035   22.5176  -32.9360 H   0  0  0  0  0  0  0  0  0  0  0  0
   -4.7214   21.8872  -32.9360 H   0  0  0  0  0  0  0  0  0  0  0  0
   -4.0996   21.0798  -30.3713 H   0  0  0  0  0  0  0  0  0  0  0  0
   -2.6700   18.9730  -25.9400 H   0  0  0  0  0  0  0  0  0  0  0  0
    0.4011   18.4797  -28.8453 H   0  0  0  0  0  0  0  0  0  0  0  0
    0.6095   21.2374  -30.0326 H   0  0  0  0  0  0  0  0  0  0  0  0
    0.0580   19.7661  -30.9030 H   0  0  0  0  0  0  0  0  0  0  0  0
   -0.9618   21.2449  -30.9030 H   0  0  0  0  0  0  0  0  0  0  0  0
   -1.1828   23.2493  -28.0656 H   0  0  0  0  0  0  0  0  0  0  0  0
   -1.7769   25.7427  -26.9342 H   0  0  0  0  0  0  0  0  0  0  0  0
   -0.2777   25.3529  -27.8437 H   0  0  0  0  0  0  0  0  0  0  0  0
   -0.9174   27.0314  -27.8437 H   0  0  0  0  0  0  0  0  0  0  0  0
   -5.5174   26.0139  -29.3837 H   0  0  0  0  0  0  0  0  0  0  0  0
   -5.5787   26.9558  -30.9119 H   0  0  0  0  0  0  0  0  0  0  0  0
   -6.0195   25.2145  -30.9119 H   0  0  0  0  0  0  0  0  0  0  0  0
  1  2  1  0
  2  3  1  0
  3  4  2  0
  4  5  1  0
  5  6  1  0
  6  7  2  0
  7  8  1  0
  8  9  1  0
  9 10  2  0
  9 11  1  0
 11 12  2  0
 12 13  1  0
  5 14  2  0
 14 15  1  0
 15 16  1  0
 16 17  1  0
 15 18  2  0
 18 19  1  0
 19 20  1  0
 18  3  1  0
 12  6  1  0
  1 21  1  0
  1 22  1  0
  1 23  1  0
  4 24  1  0
  8 25  1  0
 11 26  1  0
 13 27  1  0
 13 28  1  0
 13 29  1  0
 14 30  1  0
 17 31  1  0
 17 32  1  0
 17 33  1  0
 20 34  1  0
 20 35  1  0
 20 36  1  0
M  END
>  <smiles>  (29) 
COc1cc(-c2n[nH]c(=O)cc2C)cc(OC)c1OC

>  <score_type>  (29) 
oracle

>  <origin>  (29) 
adg

>  <m_score__min__energy>  (29) 
-6.8200000000000003

>  <m_primary>  (29) 
energy

$$$$
29:0
     RDKit          3D

 44 46  0  0  0  0  0  0  0  0999 V2000
   -0.4190   21.0920  -33.9140 C   0  0  0  0  0  0  0  0  0  0  0  0
   -1.6590   20.5970  -33.1610 C   0  0  0  0  0  0  0  0  0  0  0  0
   -2.9110   21.1220  -33.7310 N   0  0  0  0  0  0  0  0  0  0  0  0
   -3.6930   21.8880  -32.7470 C   0  0  0  0  0  0  0  0  0  0  0  0
   -4.2860   20.9600  -31.6810 C   0  0  0  0  0  0  0  0  0  0  0  0
   -5.7460   21.1020  -31.6360 N   0  0  0  0  0  0  0  0  0  0  0  0
   -6.4820   22.0960  -31.0610 C   0  0  0  0  0  0  0  0  0  0  0  0
   -5.9220   23.2790  -30.4700 N   0  0  0  0  0  0  0  0  0  0  0  0
   -4.6690   23.2240  -29.7080 C   0  0  0  0  0  0  0  0  0  0  0  0
   -3.7250   24.3860  -30.0890 C   0  0  0  0  0  0  0  0  0  0  0  0
   -4.4160   25.5720  -30.6340 N   0  0  0  0  0  0  0  0  0  0  0  0
   -5.7790   25.7130  -30.1150 C   0  0  0  0  0  0  0  0  0  0  0  0
   -6.6280   24.5550  -30.6350 C   0  0  0  0  0  0  0  0  0  0  0  0
   -7.8130   21.8270  -31.0060 N   0  0  0  0  0  0  0  0  0  0  0  0
   -7.8990   20.6150  -31.5780 C   0  0  0  0  0  0  0  0  0  0  0  0
   -9.0470   19.8450  -31.7540 C   0  0  0  0  0  0  0  0  0  0  0  0
   -8.8990   18.5700  -32.3280 C   0  0  0  0  0  0  0  0  0  0  0  0
   -7.6200   18.0960  -32.6980 C   0  0  0  0  0  0  0  0  0  0  0  0
   -6.4790   18.8970  -32.5030 C   0  0  0  0  0  0  0  0  0  0  0  0
   -6.6630   20.1670  -31.9450 C   0  0  0  0  0  0  0  0  0  0  0  0
    0.3508   21.3993  -33.1908 H   0  0  0  0  0  0  0  0  0  0  0  0
   -0.0260   20.2818  -34.5458 H   0  0  0  0  0  0  0  0  0  0  0  0
   -0.6919   21.9501  -34.5458 H   0  0  0  0  0  0  0  0  0  0  0  0
   -1.6841   19.4982  -33.2063 H   0  0  0  0  0  0  0  0  0  0  0  0
   -1.5866   20.9571  -32.1242 H   0  0  0  0  0  0  0  0  0  0  0  0
   -3.4880   20.3340  -34.1110 H   0  0  0  0  0  0  0  0  0  0  0  0
   -2.6580   21.7550  -34.5270 H   0  0  0  0  0  0  0  0  0  0  0  0
   -3.0370   22.6243  -32.2595 H   0  0  0  0  0  0  0  0  0  0  0  0
   -4.5169   22.3958  -33.2699 H   0  0  0  0  0  0  0  0  0  0  0  0
   -4.0302   19.9182  -31.9242 H   0  0  0  0  0  0  0  0  0  0  0  0
   -3.8701   21.2313  -30.6995 H   0  0  0  0  0  0  0  0  0  0  0  0
   -4.9001   23.2882  -28.6345 H   0  0  0  0  0  0  0  0  0  0  0  0
   -4.1628   22.2761  -29.9428 H   0  0  0  0  0  0  0  0  0  0  0  0
   -3.1729   24.6918  -29.1881 H   0  0  0  0  0  0  0  0  0  0  0  0
   -3.0655   24.0101  -30.8851 H   0  0  0  0  0  0  0  0  0  0  0  0
   -3.8730   26.4250  -30.3630 H   0  0  0  0  0  0  0  0  0  0  0  0
   -5.7595   25.6920  -29.0154 H   0  0  0  0  0  0  0  0  0  0  0  0
   -6.2081   26.6693  -30.4488 H   0  0  0  0  0  0  0  0  0  0  0  0
   -7.5733   24.5198  -30.0736 H   0  0  0  0  0  0  0  0  0  0  0  0
   -6.8254   24.7141  -31.7054 H   0  0  0  0  0  0  0  0  0  0  0  0
  -10.0359   20.2220  -31.4539 H   0  0  0  0  0  0  0  0  0  0  0  0
   -9.7842   17.9375  -32.4901 H   0  0  0  0  0  0  0  0  0  0  0  0
   -7.5155   17.0947  -33.1412 H   0  0  0  0  0  0  0  0  0  0  0  0
   -5.4771   18.5369  -32.7798 H   0  0  0  0  0  0  0  0  0  0  0  0
  1  2  1  0
  2  3  1  0
  3  4  1  0
  4  5  1  0
  5  6  1  0
  6  7  1  0
  7  8  1  0
  8  9  1  0
  9 10  1  0
 10 11  1  0
 11 12  1  0
 12 13  1  0
  7 14  2  0
 14 15  1  0
 15 16  2  0
 16 17  1  0
 17 18  2  0
 18 19  1  0
 19 20  2  0
 20  6  1  0
 13  8  1  0
 20 15  1  0
  1 21  1  0
  1 22  1  0
  1 23  1  0
  2 24  1  0
  2 25  1  0
  3 26  1  0
  3 27  1  0
  4 28  1  0
  4 29  1  0
  5 30  1  0
  5 31  1  0
  9 32  1  0
  9 33  1  0
 10 34  1  0
 10 35  1  0
 11 36  1  0
 12 37  1  0
 12 38  1  0
 13 39  1  0
 13 40  1  0
 16 41  1  0
 17 42  1  0
 18 43  1  0
 19 44  1  0
M  CHG  1   3   1
M  END
>  <UniqueID>  (30) 
29

>  <SMILES>  (30) 
CC[NH2+]CCn1c(N2CCNCC2)nc2ccccc21

>  <Energy>  (30) 
85.10480457430494

>  <Genealogy>  (30) 
CC[NH2+]CCn1c(N2CCNCC2)nc2ccccc21 (protonated)
CC[NH2+]CCn1c(N2CCNCC2)nc2ccccc21 (3D coordinates assigned)
CC[NH2+]CCn1c(N2CCNCC2)nc2ccccc21 (nonaromatic ring conformer: 85.10480457430494 kcal/mol)

>  <smiles>  (30) 
CCNCCn1c(N2CCNCC2)nc2ccccc21

>  <score_type>  (30) 
oracle

>  <origin>  (30) 
adg

>  <m_score__min__energy>  (30) 
-7.2400000000000002

>  <m_primary>  (30) 
energy

$$$$
30:0
     RDKit          3D

 30 32  0  0  0  0  0  0  0  0999 V2000
   -7.1950   22.3680  -31.9090 C   0  0  0  0  0  0  0  0  0  0  0  0
   -6.1090   22.9740  -31.0710 C   0  0  0  0  0  0  0  0  0  0  0  0
   -6.2990   24.2260  -30.4650 C   0  0  0  0  0  0  0  0  0  0  0  0
   -5.2730   24.8090  -29.7140 C   0  0  0  0  0  0  0  0  0  0  0  0
   -4.0390   24.1540  -29.5680 C   0  0  0  0  0  0  0  0  0  0  0  0
   -2.9540   24.7640  -28.7760 C   0  0  0  0  0  0  0  0  0  0  0  0
   -2.9560   24.8620  -27.4320 N   0  0  0  0  0  0  0  0  0  0  0  0
   -1.7770   25.4800  -27.2030 C   0  0  0  0  0  0  0  0  0  0  0  0
   -1.2800   25.8310  -25.8560 C   0  0  0  0  0  0  0  0  0  0  0  0
   -1.2040   27.1720  -25.4460 C   0  0  0  0  0  0  0  0  0  0  0  0
   -0.7330   27.4880  -24.1720 C   0  0  0  0  0  0  0  0  0  0  0  0
   -0.3390   26.4620  -23.3130 C   0  0  0  0  0  0  0  0  0  0  0  0
   -0.4140   25.1660  -23.7180 N   0  0  0  0  0  0  0  0  0  0  0  0
   -0.8710   24.8320  -24.9570 C   0  0  0  0  0  0  0  0  0  0  0  0
   -1.1050   25.7380  -28.3430 N   0  0  0  0  0  0  0  0  0  0  0  0
   -1.8650   25.2810  -29.2910 O   0  0  0  0  0  0  0  0  0  0  0  0
   -3.8470   22.9090  -30.1890 C   0  0  0  0  0  0  0  0  0  0  0  0
   -4.8710   22.3280  -30.9400 C   0  0  0  0  0  0  0  0  0  0  0  0
   -7.9666   21.9374  -31.2538 H   0  0  0  0  0  0  0  0  0  0  0  0
   -7.6451   23.1453  -32.5439 H   0  0  0  0  0  0  0  0  0  0  0  0
   -6.7698   21.5767  -32.5439 H   0  0  0  0  0  0  0  0  0  0  0  0
   -7.2588   24.7507  -30.5812 H   0  0  0  0  0  0  0  0  0  0  0  0
   -5.4334   25.7861  -29.2349 H   0  0  0  0  0  0  0  0  0  0  0  0
   -1.5164   27.9742  -26.1307 H   0  0  0  0  0  0  0  0  0  0  0  0
   -0.6727   28.5373  -23.8473 H   0  0  0  0  0  0  0  0  0  0  0  0
    0.0331   26.7017  -22.3060 H   0  0  0  0  0  0  0  0  0  0  0  0
   -0.1150   24.4080  -23.0640 H   0  0  0  0  0  0  0  0  0  0  0  0
   -0.9200   23.7743  -25.2552 H   0  0  0  0  0  0  0  0  0  0  0  0
   -2.8839   22.3882  -30.0831 H   0  0  0  0  0  0  0  0  0  0  0  0
   -4.7057   21.3580  -31.4317 H   0  0  0  0  0  0  0  0  0  0  0  0
  1  2  1  0
  2  3  2  0
  3  4  1  0
  4  5  2  0
  5  6  1  0
  6  7  2  0
  7  8  1  0
  8  9  1  0
  9 10  2  0
 10 11  1  0
 11 12  2  0
 12 13  1  0
 13 14  2  0
  8 15  2  0
 15 16  1  0
  5 17  1  0
 17 18  2  0
 18  2  1  0
 16  6  1  0
 14  9  1  0
  1 19  1  0
  1 20  1  0
  1 21  1  0
  3 22  1  0
  4 23  1  0
 10 24  1  0
 11 25  1  0
 12 26  1  0
 13 27  1  0
 14 28  1  0
 17 29  1  0
 18 30  1  0
M  CHG  1  13   1
M  END
>  <UniqueID>  (31) 
30

>  <SMILES>  (31) 
Cc1ccc(-c2nc(-c3ccc[nH+]c3)no2)cc1

>  <Energy>  (31) 
65.42170814234882

>  <Genealogy>  (31) 
Cc1ccc(-c2nc(-c3ccc[nH+]c3)no2)cc1 (protonated)
Cc1ccc(-c2nc(-c3ccc[nH+]c3)no2)cc1 (3D coordinates assigned)
Cc1ccc(-c2nc(-c3ccc[nH+]c3)no2)cc1 (optimized conformer: 65.42170814234882 kcal/mol)

>  <smiles>  (31) 
Cc1ccc(-c2nc(-c3cccnc3)no2)cc1

>  <score_type>  (31) 
oracle

>  <origin>  (31) 
adg

>  <m_score__min__energy>  (31) 
-7.5999999999999996

>  <m_primary>  (31) 
energy

$$$$
31:0
     RDKit          3D

 63 65  0  0  0  0  0  0  0  0999 V2000
   -1.9760   19.6780  -26.3390 C   0  0  0  0  0  0  0  0  0  0  0  0
   -1.8800   21.0920  -26.9120 C   0  0  0  0  0  0  0  0  0  0  0  0
   -3.1240   21.4930  -27.7210 C   0  0  0  0  0  0  0  0  0  0  0  0
   -3.5340   22.9640  -27.4700 C   0  0  0  0  0  0  0  0  0  0  0  0
   -2.4320   23.9410  -27.6380 N   0  0  0  0  0  0  0  0  0  0  0  0
   -2.3650   24.9390  -26.5490 C   0  0  0  0  0  0  0  0  0  0  0  0
   -0.9030   25.2580  -26.2090 C   0  0  0  0  0  0  0  0  0  0  0  0
   -0.4880   24.6050  -24.8780 C   0  0  0  0  0  0  0  0  0  0  0  0
    0.0710   25.5860  -23.9150 N   0  0  0  0  0  0  0  0  0  0  0  0
   -0.8550   26.7110  -23.6810 C   0  0  0  0  0  0  0  0  0  0  0  0
    1.3570   26.1020  -24.4160 C   0  0  0  0  0  0  0  0  0  0  0  0
   -2.3840   24.5500  -28.9870 C   0  0  0  0  0  0  0  0  0  0  0  0
   -3.1070   23.6640  -29.9870 C   0  0  0  0  0  0  0  0  0  0  0  0
   -2.3470   22.6440  -30.5670 C   0  0  0  0  0  0  0  0  0  0  0  0
   -2.8970   21.7570  -31.4910 C   0  0  0  0  0  0  0  0  0  0  0  0
   -2.0790   20.7620  -32.0470 C   0  0  0  0  0  0  0  0  0  0  0  0
   -2.5910   19.8630  -32.9760 C   0  0  0  0  0  0  0  0  0  0  0  0
   -3.9260   19.9370  -33.3710 C   0  0  0  0  0  0  0  0  0  0  0  0
   -4.3860   19.0060  -34.3140 O   0  0  0  0  0  0  0  0  0  0  0  0
   -5.7320   18.5520  -34.4160 C   0  0  0  0  0  0  0  0  0  0  0  0
   -4.7560   20.9320  -32.8180 C   0  0  0  0  0  0  0  0  0  0  0  0
   -4.2600   21.8600  -31.8640 C   0  0  0  0  0  0  0  0  0  0  0  0
   -5.0690   22.8780  -31.2660 C   0  0  0  0  0  0  0  0  0  0  0  0
   -6.4480   23.0230  -31.5710 C   0  0  0  0  0  0  0  0  0  0  0  0
   -7.2200   24.0140  -30.9700 C   0  0  0  0  0  0  0  0  0  0  0  0
   -6.6510   24.8830  -30.0540 C   0  0  0  0  0  0  0  0  0  0  0  0
   -5.3030   24.7760  -29.7300 C   0  0  0  0  0  0  0  0  0  0  0  0
   -4.4850   23.7830  -30.3210 C   0  0  0  0  0  0  0  0  0  0  0  0
   -1.9727   19.7267  -25.2401 H   0  0  0  0  0  0  0  0  0  0  0  0
   -2.9083   19.2058  -26.6823 H   0  0  0  0  0  0  0  0  0  0  0  0
   -1.1161   19.0841  -26.6823 H   0  0  0  0  0  0  0  0  0  0  0  0
   -1.7585   21.8009  -26.0797 H   0  0  0  0  0  0  0  0  0  0  0  0
   -1.0189   21.1142  -27.5961 H   0  0  0  0  0  0  0  0  0  0  0  0
   -2.9076   21.3631  -28.7917 H   0  0  0  0  0  0  0  0  0  0  0  0
   -3.9573   20.8503  -27.4007 H   0  0  0  0  0  0  0  0  0  0  0  0
   -4.3356   23.2238  -28.1771 H   0  0  0  0  0  0  0  0  0  0  0  0
   -3.8539   23.0272  -26.4194 H   0  0  0  0  0  0  0  0  0  0  0  0
   -2.8726   25.8607  -26.8696 H   0  0  0  0  0  0  0  0  0  0  0  0
   -2.8589   24.5283  -25.6560 H   0  0  0  0  0  0  0  0  0  0  0  0
   -0.2559   24.8773  -27.0130 H   0  0  0  0  0  0  0  0  0  0  0  0
   -0.7972   26.3485  -26.1110 H   0  0  0  0  0  0  0  0  0  0  0  0
   -1.3722   24.1315  -24.4263 H   0  0  0  0  0  0  0  0  0  0  0  0
    0.2974   23.8669  -25.0978 H   0  0  0  0  0  0  0  0  0  0  0  0
    0.2550   25.1080  -23.0000 H   0  0  0  0  0  0  0  0  0  0  0  0
   -0.9806   26.8635  -22.5989 H   0  0  0  0  0  0  0  0  0  0  0  0
   -0.4439   27.6248  -24.1348 H   0  0  0  0  0  0  0  0  0  0  0  0
   -1.8308   26.4832  -24.1348 H   0  0  0  0  0  0  0  0  0  0  0  0
    2.0043   26.3617  -23.5654 H   0  0  0  0  0  0  0  0  0  0  0  0
    1.8478   25.3312  -25.0283 H   0  0  0  0  0  0  0  0  0  0  0  0
    1.1789   26.9983  -25.0283 H   0  0  0  0  0  0  0  0  0  0  0  0
   -2.8693   25.5367  -28.9580 H   0  0  0  0  0  0  0  0  0  0  0  0
   -1.3337   24.6578  -29.2957 H   0  0  0  0  0  0  0  0  0  0  0  0
   -1.2884   22.5387  -30.2872 H   0  0  0  0  0  0  0  0  0  0  0  0
   -1.0234   20.6925  -31.7454 H   0  0  0  0  0  0  0  0  0  0  0  0
   -1.9378   19.0875  -33.4025 H   0  0  0  0  0  0  0  0  0  0  0  0
   -6.1489   18.4114  -33.4078 H   0  0  0  0  0  0  0  0  0  0  0  0
   -6.3304   19.2980  -34.9595 H   0  0  0  0  0  0  0  0  0  0  0  0
   -5.7563   17.5959  -34.9595 H   0  0  0  0  0  0  0  0  0  0  0  0
   -5.8088   20.9913  -33.1312 H   0  0  0  0  0  0  0  0  0  0  0  0
   -6.9153   22.3398  -32.2955 H   0  0  0  0  0  0  0  0  0  0  0  0
   -8.2863   24.1070  -31.2239 H   0  0  0  0  0  0  0  0  0  0  0  0
   -7.2680   25.6611  -29.5808 H   0  0  0  0  0  0  0  0  0  0  0  0
   -4.8647   25.4747  -29.0022 H   0  0  0  0  0  0  0  0  0  0  0  0
  1  2  1  0
  2  3  1  0
  3  4  1  0
  4  5  1  0
  5  6  1  0
  6  7  1  0
  7  8  1  0
  8  9  1  0
  9 10  1  0
  9 11  1  0
  5 12  1  0
 12 13  1  0
 13 14  2  0
 14 15  1  0
 15 16  2  0
 16 17  1  0
 17 18  2  0
 18 19  1  0
 19 20  1  0
 18 21  1  0
 21 22  2  0
 22 23  1  0
 23 24  2  0
 24 25  1  0
 25 26  2  0
 26 27  1  0
 27 28  2  0
 28 13  1  0
 22 15  1  0
 28 23  1  0
  1 29  1  0
  1 30  1  0
  1 31  1  0
  2 32  1  0
  2 33  1  0
  3 34  1  0
  3 35  1  0
  4 36  1  0
  4 37  1  0
  6 38  1  0
  6 39  1  0
  7 40  1  0
  7 41  1  0
  8 42  1  0
  8 43  1  0
  9 44  1  0
 10 45  1  0
 10 46  1  0
 10 47  1  0
 11 48  1  0
 11 49  1  0
 11 50  1  0
 12 51  1  0
 12 52  1  0
 14 53  1  0
 16 54  1  0
 17 55  1  0
 20 56  1  0
 20 57  1  0
 20 58  1  0
 21 59  1  0
 24 60  1  0
 25 61  1  0
 26 62  1  0
 27 63  1  0
M  CHG  1   9   1
M  END
>  <UniqueID>  (32) 
31

>  <SMILES>  (32) 
CCCCN(CCC[NH+](C)C)Cc1cc2ccc(OC)cc2c2ccccc12

>  <Energy>  (32) 
76.2065953939228

>  <Genealogy>  (32) 
CCCCN(CCC[NH+](C)C)Cc1cc2ccc(OC)cc2c2ccccc12 (protonated)
CCCCN(CCC[NH+](C)C)Cc1cc2ccc(OC)cc2c2ccccc12 (3D coordinates assigned)
CCCCN(CCC[NH+](C)C)Cc1cc2ccc(OC)cc2c2ccccc12 (optimized conformer: 76.2065953939228 kcal/mol)

>  <smiles>  (32) 
CCCCN(CCCN(C)C)Cc1cc2ccc(OC)cc2c2ccccc12

>  <score_type>  (32) 
oracle

>  <origin>  (32) 
adg

>  <m_score__min__energy>  (32) 
-8.6199999999999992

>  <m_primary>  (32) 
energy

$$$$
32:0
     RDKit          3D

 43 44  0  0  0  0  0  0  0  0999 V2000
   -2.7750   24.5610  -29.2150 C   0  0  0  0  0  0  0  0  0  0  0  0
   -3.4960   24.5500  -30.4430 O   0  0  0  0  0  0  0  0  0  0  0  0
   -4.2160   23.4490  -30.9310 C   0  0  0  0  0  0  0  0  0  0  0  0
   -3.5360   22.2460  -31.1170 C   0  0  0  0  0  0  0  0  0  0  0  0
   -4.2060   21.1260  -31.6000 C   0  0  0  0  0  0  0  0  0  0  0  0
   -5.5710   21.1730  -31.9100 C   0  0  0  0  0  0  0  0  0  0  0  0
   -6.2850   22.3930  -31.7310 C   0  0  0  0  0  0  0  0  0  0  0  0
   -5.5860   23.5150  -31.2350 C   0  0  0  0  0  0  0  0  0  0  0  0
   -7.7420   22.5700  -31.9870 C   0  0  0  0  0  0  0  0  0  0  0  0
   -8.1480   23.7180  -32.3250 O   0  0  0  0  0  0  0  0  0  0  0  0
   -8.6930   21.4860  -31.9320 N   0  0  0  0  0  0  0  0  0  0  0  0
   -9.8290   21.5920  -31.0090 C   0  0  0  0  0  0  0  0  0  0  0  0
   -8.4940   20.2580  -32.7030 C   0  0  0  0  0  0  0  0  0  0  0  0
   -7.3900   19.4170  -32.0460 C   0  0  1  0  0  0  0  0  0  0  0  0
   -7.4400   17.9540  -32.5310 C   0  0  0  0  0  0  0  0  0  0  0  0
   -6.5260   17.6750  -33.7450 C   0  0  0  0  0  0  0  0  0  0  0  0
   -5.0770   17.6370  -33.3930 N   0  0  0  0  0  0  0  0  0  0  0  0
   -4.2370   17.8610  -34.5830 C   0  0  0  0  0  0  0  0  0  0  0  0
   -4.7130   16.3480  -32.7750 C   0  0  0  0  0  0  0  0  0  0  0  0
   -6.1260   19.9740  -32.3820 O   0  0  0  0  0  0  0  0  0  0  0  0
   -3.4836   24.5502  -28.3737 H   0  0  0  0  0  0  0  0  0  0  0  0
   -2.1286   23.6726  -29.1614 H   0  0  0  0  0  0  0  0  0  0  0  0
   -2.1560   25.4687  -29.1614 H   0  0  0  0  0  0  0  0  0  0  0  0
   -2.4636   22.1819  -30.8806 H   0  0  0  0  0  0  0  0  0  0  0  0
   -3.6529   20.1857  -31.7410 H   0  0  0  0  0  0  0  0  0  0  0  0
   -6.1258   24.4613  -31.0833 H   0  0  0  0  0  0  0  0  0  0  0  0
   -9.4634   21.5579  -29.9721 H   0  0  0  0  0  0  0  0  0  0  0  0
  -10.3541   22.5430  -31.1815 H   0  0  0  0  0  0  0  0  0  0  0  0
  -10.5210   20.7545  -31.1815 H   0  0  0  0  0  0  0  0  0  0  0  0
   -9.4308   19.6819  -32.7240 H   0  0  0  0  0  0  0  0  0  0  0  0
   -8.1987   20.5134  -33.7314 H   0  0  0  0  0  0  0  0  0  0  0  0
   -7.5433   19.4272  -30.9568 H   0  0  0  0  0  0  0  0  0  0  0  0
   -7.1269   17.3017  -31.7024 H   0  0  0  0  0  0  0  0  0  0  0  0
   -8.4732   17.7548  -32.8517 H   0  0  0  0  0  0  0  0  0  0  0  0
   -6.8063   16.7033  -34.1777 H   0  0  0  0  0  0  0  0  0  0  0  0
   -6.6678   18.5009  -34.4576 H   0  0  0  0  0  0  0  0  0  0  0  0
   -4.8390   18.3970  -32.7140 H   0  0  0  0  0  0  0  0  0  0  0  0
   -3.2189   18.1325  -34.2673 H   0  0  0  0  0  0  0  0  0  0  0  0
   -4.2012   16.9410  -35.1850 H   0  0  0  0  0  0  0  0  0  0  0  0
   -4.6640   18.6767  -35.1850 H   0  0  0  0  0  0  0  0  0  0  0  0
   -4.7406   16.4457  -31.6797 H   0  0  0  0  0  0  0  0  0  0  0  0
   -5.4278   15.5744  -33.0922 H   0  0  0  0  0  0  0  0  0  0  0  0
   -3.6991   16.0626  -33.0922 H   0  0  0  0  0  0  0  0  0  0  0  0
  1  2  1  0
  2  3  1  0
  3  4  2  0
  4  5  1  0
  5  6  2  0
  6  7  1  0
  7  8  2  0
  7  9  1  0
  9 10  2  0
  9 11  1  0
 11 12  1  0
 11 13  1  0
 13 14  1  0
 14 15  1  0
 15 16  1  0
 16 17  1  0
 17 18  1  0
 17 19  1  0
 14 20  1  0
  8  3  1  0
 20  6  1  0
  1 21  1  0
  1 22  1  0
  1 23  1  0
  4 24  1  0
  5 25  1  0
  8 26  1  0
 12 27  1  0
 12 28  1  0
 12 29  1  0
 13 30  1  0
 13 31  1  0
 14 32  1  1
 15 33  1  0
 15 34  1  0
 16 35  1  0
 16 36  1  0
 17 37  1  0
 18 38  1  0
 18 39  1  0
 18 40  1  0
 19 41  1  0
 19 42  1  0
 19 43  1  0
M  CHG  1  17   1
M  END
>  <UniqueID>  (33) 
32

>  <SMILES>  (33) 
COc1ccc2c(c1)C(=O)N(C)C[C@@H](CC[NH+](C)C)O2

>  <Energy>  (33) 
52.96199190902126

>  <Genealogy>  (33) 
COc1ccc2c(c1)C(=O)N(C)CC(CC[NH+](C)C)O2 (protonated)
COc1ccc2c(c1)C(=O)N(C)C[C@@H](CC[NH+](C)C)O2 (chirality)
COc1ccc2c(c1)C(=O)N(C)C[C@@H](CC[NH+](C)C)O2 (3D coordinates assigned)
COc1ccc2c(c1)C(=O)N(C)C[C@@H](CC[NH+](C)C)O2 (nonaromatic ring conformer: 52.96199190902126 kcal/mol)

>  <smiles>  (33) 
COc1ccc2c(c1)C(=O)N(C)CC(CCN(C)C)O2

>  <score_type>  (33) 
oracle

>  <origin>  (33) 
adg

>  <m_score__min__energy>  (33) 
-4.1699999999999999

>  <m_primary>  (33) 
energy

$$$$
33:0
     RDKit          3D

 48 49  0  0  0  0  0  0  0  0999 V2000
   -3.0840   20.8670  -33.3320 C   0  0  0  0  0  0  0  0  0  0  0  0
   -3.4910   21.9490  -32.3350 C   0  0  0  0  0  0  0  0  0  0  0  0
   -3.0560   21.5910  -30.9710 N   0  0  0  0  0  0  0  0  0  0  0  0
   -1.5870   21.5200  -30.8510 C   0  0  0  0  0  0  0  0  0  0  0  0
   -3.6760   22.4320  -29.9200 C   0  0  0  0  0  0  0  0  0  0  0  0
   -3.0770   23.8470  -29.7820 C   0  0  0  0  0  0  0  0  0  0  0  0
   -3.8350   24.8220  -30.4970 O   0  0  0  0  0  0  0  0  0  0  0  0
   -5.2220   24.9630  -30.3750 C   0  0  0  0  0  0  0  0  0  0  0  0
   -5.7410   25.3260  -29.2840 O   0  0  0  0  0  0  0  0  0  0  0  0
   -6.0940   24.6840  -31.5560 C   0  0  0  0  0  0  0  0  0  0  0  0
   -6.6550   23.3430  -31.4530 N   0  0  0  0  0  0  0  0  0  0  0  0
   -7.3230   22.8250  -30.4080 C   0  0  0  0  0  0  0  0  0  0  0  0
   -7.6040   21.5230  -30.6060 N   0  0  0  0  0  0  0  0  0  0  0  0
   -7.0580   21.2960  -31.8230 C   0  0  0  0  0  0  0  0  0  0  0  0
   -7.0500   20.0060  -32.4590 N   0  0  0  0  0  0  0  0  0  0  0  0
   -7.5550   18.8360  -31.7330 C   0  0  0  0  0  0  0  0  0  0  0  0
   -7.5920   17.5970  -32.6400 C   0  0  0  0  0  0  0  0  0  0  0  0
   -6.3090   17.3670  -33.3450 N   0  0  0  0  0  0  0  0  0  0  0  0
   -5.3780   16.5770  -32.5240 C   0  0  0  0  0  0  0  0  0  0  0  0
   -5.6520   18.5910  -33.8780 C   0  0  0  0  0  0  0  0  0  0  0  0
   -6.5440   19.8370  -33.8240 C   0  0  0  0  0  0  0  0  0  0  0  0
   -6.4700   22.3890  -32.3470 N   0  0  0  0  0  0  0  0  0  0  0  0
   -2.7478   19.9732  -32.7861 H   0  0  0  0  0  0  0  0  0  0  0  0
   -3.9461   20.6079  -33.9642 H   0  0  0  0  0  0  0  0  0  0  0  0
   -2.2648   21.2403  -33.9642 H   0  0  0  0  0  0  0  0  0  0  0  0
   -3.0235   22.9016  -32.6249 H   0  0  0  0  0  0  0  0  0  0  0  0
   -4.5869   22.0439  -32.3435 H   0  0  0  0  0  0  0  0  0  0  0  0
   -1.3062   21.5064  -29.7875 H   0  0  0  0  0  0  0  0  0  0  0  0
   -1.2232   20.6032  -31.3380 H   0  0  0  0  0  0  0  0  0  0  0  0
   -1.1365   22.3974  -31.3380 H   0  0  0  0  0  0  0  0  0  0  0  0
   -4.7462   22.5353  -30.1524 H   0  0  0  0  0  0  0  0  0  0  0  0
   -3.4848   21.9218  -28.9644 H   0  0  0  0  0  0  0  0  0  0  0  0
   -3.0590   24.1224  -28.7172 H   0  0  0  0  0  0  0  0  0  0  0  0
   -2.0622   23.8285  -30.2062 H   0  0  0  0  0  0  0  0  0  0  0  0
   -6.9112   25.4197  -31.5879 H   0  0  0  0  0  0  0  0  0  0  0  0
   -5.4931   24.7554  -32.4746 H   0  0  0  0  0  0  0  0  0  0  0  0
   -7.6038   23.3912  -29.5077 H   0  0  0  0  0  0  0  0  0  0  0  0
   -6.8969   18.6338  -30.8750 H   0  0  0  0  0  0  0  0  0  0  0  0
   -8.5787   19.0508  -31.3924 H   0  0  0  0  0  0  0  0  0  0  0  0
   -7.8174   16.7151  -32.0224 H   0  0  0  0  0  0  0  0  0  0  0  0
   -8.3654   17.7667  -33.4036 H   0  0  0  0  0  0  0  0  0  0  0  0
   -5.5872   16.7545  -31.4588 H   0  0  0  0  0  0  0  0  0  0  0  0
   -5.5065   15.5081  -32.7497 H   0  0  0  0  0  0  0  0  0  0  0  0
   -4.3443   16.8777  -32.7497 H   0  0  0  0  0  0  0  0  0  0  0  0
   -4.7457   18.7857  -33.2857 H   0  0  0  0  0  0  0  0  0  0  0  0
   -5.4253   18.4012  -34.9375 H   0  0  0  0  0  0  0  0  0  0  0  0
   -5.9579   20.7223  -34.1118 H   0  0  0  0  0  0  0  0  0  0  0  0
   -7.3877   19.7191  -34.5199 H   0  0  0  0  0  0  0  0  0  0  0  0
  1  2  1  0
  2  3  1  0
  3  4  1  0
  3  5  1  0
  5  6  1  0
  6  7  1  0
  7  8  1  0
  8  9  2  0
  8 10  1  0
 10 11  1  0
 11 12  1  0
 12 13  2  0
 13 14  1  0
 14 15  1  0
 15 16  1  0
 16 17  1  0
 17 18  1  0
 18 19  1  0
 18 20  1  0
 20 21  1  0
 14 22  2  0
 22 11  1  0
 21 15  1  0
  1 23  1  0
  1 24  1  0
  1 25  1  0
  2 26  1  0
  2 27  1  0
  4 28  1  0
  4 29  1  0
  4 30  1  0
  5 31  1  0
  5 32  1  0
  6 33  1  0
  6 34  1  0
 10 35  1  0
 10 36  1  0
 12 37  1  0
 16 38  1  0
 16 39  1  0
 17 40  1  0
 17 41  1  0
 19 42  1  0
 19 43  1  0
 19 44  1  0
 20 45  1  0
 20 46  1  0
 21 47  1  0
 21 48  1  0
M  END
>  <UniqueID>  (34) 
33

>  <SMILES>  (34) 
CCN(C)CCOC(=O)Cn1cnc(N2CCN(C)CC2)n1

>  <Energy>  (34) 
78.42316568546211

>  <Genealogy>  (34) 
CCN(C)CCOC(=O)Cn1cnc(N2CCN(C)CC2)n1 (3D coordinates assigned)
CCN(C)CCOC(=O)Cn1cnc(N2CCN(C)CC2)n1 (nonaromatic ring conformer: 78.42316568546211 kcal/mol)

>  <smiles>  (34) 
CCN(C)CCOC(=O)Cn1cnc(N2CCN(C)CC2)n1

>  <score_type>  (34) 
oracle

>  <origin>  (34) 
adg

>  <m_score__min__energy>  (34) 
-6.8200000000000003

>  <m_primary>  (34) 
energy

$$$$
34:0
     RDKit          3D

 35 38  0  0  0  0  0  0  0  0999 V2000
   -2.0850   19.9415  -27.8548 H   0  0  0  0  0  0  0  0  0  0  0  0
   -2.4770   20.8000  -28.4200 C   0  0  0  0  0  0  0  0  0  0  0  0
   -2.0110   21.0580  -29.7100 C   0  0  0  0  0  0  0  0  0  0  0  0
   -1.2518   20.4020  -30.1608 H   0  0  0  0  0  0  0  0  0  0  0  0
   -2.5070   22.1480  -30.4300 C   0  0  0  0  0  0  0  0  0  0  0  0
   -2.1362   22.3446  -31.4468 H   0  0  0  0  0  0  0  0  0  0  0  0
   -3.4780   22.9970  -29.8640 C   0  0  0  0  0  0  0  0  0  0  0  0
   -4.0070   24.1510  -30.6280 C   0  0  0  0  0  0  0  0  0  0  0  0
   -3.5070   25.2970  -30.4570 O   0  0  0  0  0  0  0  0  0  0  0  0
   -5.1480   23.9780  -31.4840 N   0  0  0  0  0  0  0  0  0  0  0  0
   -5.7100   22.8690  -31.8800 C   0  0  0  0  0  0  0  0  0  0  0  0
   -4.8930   21.8980  -32.4910 C   0  0  0  0  0  0  0  0  0  0  0  0
   -3.8149   22.0659  -32.6306 H   0  0  0  0  0  0  0  0  0  0  0  0
   -5.4990   20.7200  -32.9110 C   0  0  0  0  0  0  0  0  0  0  0  0
   -4.9960   19.5940  -33.5210 C   0  0  0  0  0  0  0  0  0  0  0  0
   -3.7080   19.2510  -33.9250 C   0  0  0  0  0  0  0  0  0  0  0  0
   -2.8617   19.9372  -33.7735 H   0  0  0  0  0  0  0  0  0  0  0  0
   -3.5280   17.9950  -34.5340 C   0  0  0  0  0  0  0  0  0  0  0  0
   -2.5253   17.6881  -34.8662 H   0  0  0  0  0  0  0  0  0  0  0  0
   -4.6260   17.1250  -34.7220 C   0  0  0  0  0  0  0  0  0  0  0  0
   -4.4704   16.1466  -35.2001 H   0  0  0  0  0  0  0  0  0  0  0  0
   -5.9170   17.4990  -34.3030 C   0  0  0  0  0  0  0  0  0  0  0  0
   -6.7767   16.8277  -34.4454 H   0  0  0  0  0  0  0  0  0  0  0  0
   -6.0710   18.7470  -33.7020 C   0  0  0  0  0  0  0  0  0  0  0  0
   -7.2160   19.2930  -33.2340 N   0  0  0  0  0  0  0  0  0  0  0  0
   -8.1700   18.8710  -33.2480 H   0  0  0  0  0  0  0  0  0  0  0  0
   -6.8470   20.5020  -32.7520 C   0  0  0  0  0  0  0  0  0  0  0  0
   -7.6510   21.4750  -32.1660 C   0  0  0  0  0  0  0  0  0  0  0  0
   -9.5370   21.2150  -31.9650 Br  0  0  0  0  0  0  0  0  0  0  0  0
   -7.0680   22.6410  -31.7500 N   0  0  0  0  0  0  0  0  0  0  0  0
   -7.7050   23.3700  -31.3680 H   0  0  0  0  0  0  0  0  0  0  0  0
   -3.9410   22.7240  -28.5620 C   0  0  0  0  0  0  0  0  0  0  0  0
   -4.7011   23.3745  -28.1049 H   0  0  0  0  0  0  0  0  0  0  0  0
   -3.4410   21.6320  -27.8470 C   0  0  0  0  0  0  0  0  0  0  0  0
   -3.8078   21.4275  -26.8303 H   0  0  0  0  0  0  0  0  0  0  0  0
  1  2  1  0
  2  3  2  0
  3  4  1  0
  3  5  1  0
  5  6  1  0
  5  7  2  0
  7  8  1  0
  8  9  2  0
  8 10  1  0
 10 11  2  0
 11 12  1  0
 12 13  1  0
 12 14  2  0
 14 15  1  0
 15 16  2  0
 16 17  1  0
 16 18  1  0
 18 19  1  0
 18 20  2  0
 20 21  1  0
 20 22  1  0
 22 23  1  0
 22 24  2  0
 24 25  1  0
 25 26  1  0
 25 27  1  0
 27 28  2  0
 28 29  1  0
 28 30  1  0
 30 31  1  0
  7 32  1  0
 32 33  1  0
 32 34  2  0
 34 35  1  0
 34  2  1  0
 30 11  1  0
 27 14  1  0
 24 15  1  0
M  END
>  <UniqueID>  (35) 
34

>  <SMILES>  (35) 
O=C(/N=c1/cc2c([nH]c3ccccc32)c(Br)[nH]1)c1ccccc1

>  <Energy>  (35) 
89.59473068009014

>  <Genealogy>  (35) 
O=C(/N=c1/cc2c([nH]c3ccccc32)c(Br)[nH]1)c1ccccc1 (cis-trans isomerization)
O=C(/N=c1/cc2c([nH]c3ccccc32)c(Br)[nH]1)c1ccccc1 (3D coordinates assigned)
O=C(/N=c1/cc2c([nH]c3ccccc32)c(Br)[nH]1)c1ccccc1 (optimized conformer: 89.59473068009014 kcal/mol)

>  <smiles>  (35) 
O=C(N=c1cc2c([nH]c3ccccc32)c(Br)[nH]1)c1ccccc1

>  <score_type>  (35) 
oracle

>  <origin>  (35) 
adg

>  <m_score__min__energy>  (35) 
-8.9800000000000004

>  <m_primary>  (35) 
energy

$$$$
35:0
     RDKit          3D

 51 50  0  0  0  0  0  0  0  0999 V2000
   -1.7800   20.9040  -32.6100 C   0  0  0  0  0  0  0  0  0  0  0  0
   -3.0360   21.6050  -33.1420 C   0  0  0  0  0  0  0  0  0  0  0  0
   -4.2040   21.4400  -32.2340 N   0  0  0  0  0  0  0  0  0  0  0  0
   -5.1340   20.4110  -32.7780 C   0  0  0  0  0  0  0  0  0  0  0  0
   -4.7160   18.9890  -32.3860 C   0  0  0  0  0  0  0  0  0  0  0  0
   -3.7450   21.0590  -30.8690 C   0  0  0  0  0  0  0  0  0  0  0  0
   -3.4870   22.2720  -29.9600 C   0  0  0  0  0  0  0  0  0  0  0  0
   -3.5270   23.4740  -30.7210 O   0  0  0  0  0  0  0  0  0  0  0  0
   -4.5030   24.4560  -30.5420 C   0  0  0  0  0  0  0  0  0  0  0  0
   -4.2300   25.6760  -30.7060 O   0  0  0  0  0  0  0  0  0  0  0  0
   -5.8630   24.0500  -30.0770 C   0  0  0  0  0  0  0  0  0  0  0  0
   -6.4510   23.0900  -31.0400 N   0  0  0  0  0  0  0  0  0  0  0  0
   -6.7340   23.7510  -32.3250 C   0  0  0  0  0  0  0  0  0  0  0  0
   -7.6670   22.4460  -30.4980 C   0  0  0  0  0  0  0  0  0  0  0  0
   -8.7330   22.3440  -31.5970 C   0  0  0  0  0  0  0  0  0  0  0  0
   -9.4330   20.9700  -31.5670 C   0  0  0  0  0  0  0  0  0  0  0  0
   -8.5190   19.8140  -31.7200 N   0  0  0  0  0  0  0  0  0  0  0  0
   -9.1110   18.5550  -31.2450 C   0  0  0  0  0  0  0  0  0  0  0  0
   -7.9870   19.6710  -33.0840 C   0  0  0  0  0  0  0  0  0  0  0  0
   -1.7939   20.9117  -31.5101 H   0  0  0  0  0  0  0  0  0  0  0  0
   -1.7603   19.8645  -32.9692 H   0  0  0  0  0  0  0  0  0  0  0  0
   -0.8849   21.4330  -32.9692 H   0  0  0  0  0  0  0  0  0  0  0  0
   -2.8222   22.6785  -33.2514 H   0  0  0  0  0  0  0  0  0  0  0  0
   -3.2936   21.1455  -34.1077 H   0  0  0  0  0  0  0  0  0  0  0  0
   -4.7130   22.3550  -32.1830 H   0  0  0  0  0  0  0  0  0  0  0  0
   -6.1440   20.6040  -32.3872 H   0  0  0  0  0  0  0  0  0  0  0  0
   -5.1101   20.4800  -33.8756 H   0  0  0  0  0  0  0  0  0  0  0  0
   -4.6908   18.9033  -31.2896 H   0  0  0  0  0  0  0  0  0  0  0  0
   -5.4403   18.2684  -32.7936 H   0  0  0  0  0  0  0  0  0  0  0  0
   -3.7169   18.7750  -32.7936 H   0  0  0  0  0  0  0  0  0  0  0  0
   -4.5174   20.4298  -30.4026 H   0  0  0  0  0  0  0  0  0  0  0  0
   -2.7906   20.5236  -30.9809 H   0  0  0  0  0  0  0  0  0  0  0  0
   -4.2598   22.3111  -29.1782 H   0  0  0  0  0  0  0  0  0  0  0  0
   -2.4927   22.1711  -29.5005 H   0  0  0  0  0  0  0  0  0  0  0  0
   -5.7851   23.5751  -29.0878 H   0  0  0  0  0  0  0  0  0  0  0  0
   -6.5065   24.9395  -30.0086 H   0  0  0  0  0  0  0  0  0  0  0  0
   -7.1607   24.7476  -32.1386 H   0  0  0  0  0  0  0  0  0  0  0  0
   -5.8007   23.8531  -32.8982 H   0  0  0  0  0  0  0  0  0  0  0  0
   -7.4520   23.1461  -32.8982 H   0  0  0  0  0  0  0  0  0  0  0  0
   -7.4165   21.4375  -30.1371 H   0  0  0  0  0  0  0  0  0  0  0  0
   -8.0586   23.0499  -29.6662 H   0  0  0  0  0  0  0  0  0  0  0  0
   -9.4839   23.1330  -31.4433 H   0  0  0  0  0  0  0  0  0  0  0  0
   -8.2403   22.4635  -32.5732 H   0  0  0  0  0  0  0  0  0  0  0  0
   -9.9550   20.8708  -30.6038 H   0  0  0  0  0  0  0  0  0  0  0  0
  -10.1158   20.9466  -32.4291 H   0  0  0  0  0  0  0  0  0  0  0  0
   -9.1161   18.5442  -30.1451 H   0  0  0  0  0  0  0  0  0  0  0  0
  -10.1427   18.4715  -31.6173 H   0  0  0  0  0  0  0  0  0  0  0  0
   -8.5172   17.7072  -31.6173 H   0  0  0  0  0  0  0  0  0  0  0  0
   -6.9257   19.3857  -33.0356 H   0  0  0  0  0  0  0  0  0  0  0  0
   -8.5519   18.8928  -33.6182 H   0  0  0  0  0  0  0  0  0  0  0  0
   -8.0856   20.6275  -33.6182 H   0  0  0  0  0  0  0  0  0  0  0  0
  1  2  1  0
  2  3  1  0
  3  4  1  0
  4  5  1  0
  3  6  1  0
  6  7  1  0
  7  8  1  0
  8  9  1  0
  9 10  2  0
  9 11  1  0
 11 12  1  0
 12 13  1  0
 12 14  1  0
 14 15  1  0
 15 16  1  0
 16 17  1  0
 17 18  1  0
 17 19  1  0
  1 20  1  0
  1 21  1  0
  1 22  1  0
  2 23  1  0
  2 24  1  0
  3 25  1  0
  4 26  1  0
  4 27  1  0
  5 28  1  0
  5 29  1  0
  5 30  1  0
  6 31  1  0
  6 32  1  0
  7 33  1  0
  7 34  1  0
 11 35  1  0
 11 36  1  0
 13 37  1  0
 13 38  1  0
 13 39  1  0
 14 40  1  0
 14 41  1  0
 15 42  1  0
 15 43  1  0
 16 44  1  0
 16 45  1  0
 18 46  1  0
 18 47  1  0
 18 48  1  0
 19 49  1  0
 19 50  1  0
 19 51  1  0
M  CHG  1   3   1
M  END
>  <UniqueID>  (36) 
35

>  <SMILES>  (36) 
CC[NH+](CC)CCOC(=O)CN(C)CCCN(C)C

>  <Energy>  (36) 
42.544460769300585

>  <Genealogy>  (36) 
CC[NH+](CC)CCOC(=O)CN(C)CCCN(C)C (protonated)
CC[NH+](CC)CCOC(=O)CN(C)CCCN(C)C (3D coordinates assigned)
CC[NH+](CC)CCOC(=O)CN(C)CCCN(C)C (optimized conformer: 42.544460769300585 kcal/mol)

>  <smiles>  (36) 
CCN(CC)CCOC(=O)CN(C)CCCN(C)C

>  <score_type>  (36) 
oracle

>  <origin>  (36) 
adg

>  <m_score__min__energy>  (36) 
-4.7300000000000004

>  <m_primary>  (36) 
energy

$$$$
36:0
     RDKit          3D

 51 53  0  0  0  0  0  0  0  0999 V2000
    2.9680   25.1050  -24.0770 C   0  0  0  0  0  0  0  0  0  0  0  0
    1.9050   24.4640  -24.9860 C   0  0  0  0  0  0  0  0  0  0  0  0
    0.5020   24.4960  -24.4750 N   0  0  0  0  0  0  0  0  0  0  0  0
   -0.0980   23.1440  -24.3250 C   0  0  0  0  0  0  0  0  0  0  0  0
   -0.5000   22.4660  -25.6390 C   0  0  0  0  0  0  0  0  0  0  0  0
   -0.4110   25.4470  -25.1660 C   0  0  0  0  0  0  0  0  0  0  0  0
    0.2750   26.1880  -26.3300 C   0  0  0  0  0  0  0  0  0  0  0  0
    0.4910   25.3220  -27.4460 O   0  0  0  0  0  0  0  0  0  0  0  0
   -0.5130   24.7140  -28.2160 C   0  0  0  0  0  0  0  0  0  0  0  0
   -1.8270   25.2100  -28.2880 C   0  0  0  0  0  0  0  0  0  0  0  0
   -2.7850   24.5640  -29.0750 C   0  0  0  0  0  0  0  0  0  0  0  0
   -2.4530   23.4070  -29.8050 C   0  0  0  0  0  0  0  0  0  0  0  0
   -3.4650   22.7130  -30.6450 C   0  0  0  0  0  0  0  0  0  0  0  0
   -3.2680   22.1590  -31.9100 C   0  0  0  0  0  0  0  0  0  0  0  0
   -4.4160   21.5640  -32.4530 C   0  0  0  0  0  0  0  0  0  0  0  0
   -5.5360   21.6390  -31.6250 C   0  0  0  0  0  0  0  0  0  0  0  0
   -6.8940   21.1040  -31.9070 C   0  0  0  0  0  0  0  0  0  0  0  0
   -8.0320   21.9050  -31.6870 C   0  0  0  0  0  0  0  0  0  0  0  0
   -9.3130   21.4080  -31.9520 C   0  0  0  0  0  0  0  0  0  0  0  0
   -9.4740   20.1100  -32.4400 C   0  0  0  0  0  0  0  0  0  0  0  0
   -8.3560   19.3060  -32.6650 C   0  0  0  0  0  0  0  0  0  0  0  0
   -7.0730   19.7980  -32.4030 C   0  0  0  0  0  0  0  0  0  0  0  0
   -5.0740   22.4460  -30.2200 S   0  0  0  0  0  0  0  0  0  0  0  0
   -1.1390   22.9120  -29.7200 C   0  0  0  0  0  0  0  0  0  0  0  0
   -0.1840   23.5600  -28.9340 C   0  0  0  0  0  0  0  0  0  0  0  0
    2.6966   24.9414  -23.0236 H   0  0  0  0  0  0  0  0  0  0  0  0
    3.9475   24.6468  -24.2787 H   0  0  0  0  0  0  0  0  0  0  0  0
    3.0199   26.1851  -24.2787 H   0  0  0  0  0  0  0  0  0  0  0  0
    1.9241   24.9923  -25.9507 H   0  0  0  0  0  0  0  0  0  0  0  0
    2.1730   23.3991  -25.0509 H   0  0  0  0  0  0  0  0  0  0  0  0
    0.5790   24.8340  -23.4870 H   0  0  0  0  0  0  0  0  0  0  0  0
    0.6353   22.4993  -23.8184 H   0  0  0  0  0  0  0  0  0  0  0  0
   -1.0271   23.2811  -23.7523 H   0  0  0  0  0  0  0  0  0  0  0  0
   -1.0498   21.5388  -25.4199 H   0  0  0  0  0  0  0  0  0  0  0  0
   -1.1420   23.1443  -26.2202 H   0  0  0  0  0  0  0  0  0  0  0  0
    0.4031   22.2282  -26.2202 H   0  0  0  0  0  0  0  0  0  0  0  0
   -1.2695   24.8855  -25.5631 H   0  0  0  0  0  0  0  0  0  0  0  0
   -0.7249   26.2016  -24.4298 H   0  0  0  0  0  0  0  0  0  0  0  0
   -0.3634   27.0262  -26.6461 H   0  0  0  0  0  0  0  0  0  0  0  0
    1.2526   26.5512  -25.9801 H   0  0  0  0  0  0  0  0  0  0  0  0
   -2.1027   26.1118  -27.7216 H   0  0  0  0  0  0  0  0  0  0  0  0
   -3.8086   24.9638  -29.1243 H   0  0  0  0  0  0  0  0  0  0  0  0
   -2.3010   22.1863  -32.4336 H   0  0  0  0  0  0  0  0  0  0  0  0
   -4.4318   21.0821  -33.4417 H   0  0  0  0  0  0  0  0  0  0  0  0
   -7.9126   22.9292  -31.3039 H   0  0  0  0  0  0  0  0  0  0  0  0
  -10.1949   22.0414  -31.7754 H   0  0  0  0  0  0  0  0  0  0  0  0
  -10.4819   19.7212  -32.6471 H   0  0  0  0  0  0  0  0  0  0  0  0
   -8.4838   18.2832  -33.0492 H   0  0  0  0  0  0  0  0  0  0  0  0
   -6.1963   19.1593  -32.5859 H   0  0  0  0  0  0  0  0  0  0  0  0
   -0.8612   22.0057  -30.2781 H   0  0  0  0  0  0  0  0  0  0  0  0
    0.8385   23.1582  -28.8790 H   0  0  0  0  0  0  0  0  0  0  0  0
  1  2  1  0
  2  3  1  0
  3  4  1  0
  4  5  1  0
  3  6  1  0
  6  7  1  0
  7  8  1  0
  8  9  1  0
  9 10  2  0
 10 11  1  0
 11 12  2  0
 12 13  1  0
 13 14  2  0
 14 15  1  0
 15 16  2  0
 16 17  1  0
 17 18  2  0
 18 19  1  0
 19 20  2  0
 20 21  1  0
 21 22  2  0
 16 23  1  0
 12 24  1  0
 24 25  2  0
 25  9  1  0
 23 13  1  0
 22 17  1  0
  1 26  1  0
  1 27  1  0
  1 28  1  0
  2 29  1  0
  2 30  1  0
  3 31  1  0
  4 32  1  0
  4 33  1  0
  5 34  1  0
  5 35  1  0
  5 36  1  0
  6 37  1  0
  6 38  1  0
  7 39  1  0
  7 40  1  0
 10 41  1  0
 11 42  1  0
 14 43  1  0
 15 44  1  0
 18 45  1  0
 19 46  1  0
 20 47  1  0
 21 48  1  0
 22 49  1  0
 24 50  1  0
 25 51  1  0
M  CHG  1   3   1
M  END
>  <UniqueID>  (37) 
36

>  <SMILES>  (37) 
CC[NH+](CC)CCOc1ccc(-c2ccc(-c3ccccc3)s2)cc1

>  <Energy>  (37) 
90.93102982047091

>  <Genealogy>  (37) 
CC[NH+](CC)CCOc1ccc(-c2ccc(-c3ccccc3)s2)cc1 (protonated)
CC[NH+](CC)CCOc1ccc(-c2ccc(-c3ccccc3)s2)cc1 (3D coordinates assigned)
CC[NH+](CC)CCOc1ccc(-c2ccc(-c3ccccc3)s2)cc1 (optimized conformer: 90.93102982047091 kcal/mol)

>  <smiles>  (37) 
CCN(CC)CCOc1ccc(-c2ccc(-c3ccccc3)s2)cc1

>  <score_type>  (37) 
oracle

>  <origin>  (37) 
adg

>  <m_score__min__energy>  (37) 
-8.3399999999999999

>  <m_primary>  (37) 
energy

$$$$
37:0
     RDKit          3D

 69 71  0  0  0  0  0  0  0  0999 V2000
   -9.1570   18.3260  -31.5730 C   0  0  0  0  0  0  0  0  0  0  0  0
   -9.1470   19.6340  -32.3790 C   0  0  0  0  0  0  0  0  0  0  0  0
   -8.0540   20.5560  -31.9690 N   0  0  2  0  0  0  0  0  0  0  0  0
   -8.6020   21.9220  -31.7100 C   0  0  0  0  0  0  0  0  0  0  0  0
   -7.6080   23.0420  -32.0590 C   0  0  0  0  0  0  0  0  0  0  0  0
   -6.3790   22.8310  -31.3990 O   0  0  0  0  0  0  0  0  0  0  0  0
   -5.6310   24.0290  -31.3750 C   0  0  0  0  0  0  0  0  0  0  0  0
   -5.3990   24.4480  -29.9250 C   0  0  0  0  0  0  0  0  0  0  0  0
   -4.0550   25.0270  -29.7820 N   0  0  0  0  0  0  0  0  0  0  0  0
   -3.0340   23.9940  -29.5590 C   0  0  0  0  0  0  0  0  0  0  0  0
   -3.3830   23.1520  -28.3240 C   0  0  0  0  0  0  0  0  0  0  0  0
   -3.5090   21.7690  -28.6600 O   0  0  0  0  0  0  0  0  0  0  0  0
   -2.6950   20.7200  -28.1950 C   0  0  0  0  0  0  0  0  0  0  0  0
   -3.0710   19.9060  -27.1110 C   0  0  0  0  0  0  0  0  0  0  0  0
   -2.2440   18.8670  -26.6830 C   0  0  0  0  0  0  0  0  0  0  0  0
   -1.0260   18.6350  -27.3200 C   0  0  0  0  0  0  0  0  0  0  0  0
   -0.6340   19.4380  -28.3920 C   0  0  0  0  0  0  0  0  0  0  0  0
   -1.4560   20.4910  -28.8320 C   0  0  0  0  0  0  0  0  0  0  0  0
   -1.0370   21.3160  -30.0220 C   0  0  0  0  0  0  0  0  0  0  0  0
   -1.7790   20.8750  -31.2560 C   0  0  0  0  0  0  0  0  0  0  0  0
   -2.8200   21.6640  -31.7730 C   0  0  0  0  0  0  0  0  0  0  0  0
   -3.4890   21.2730  -32.9370 C   0  0  0  0  0  0  0  0  0  0  0  0
   -3.1210   20.0970  -33.5960 C   0  0  0  0  0  0  0  0  0  0  0  0
   -2.0820   19.3100  -33.0920 C   0  0  0  0  0  0  0  0  0  0  0  0
   -1.4130   19.6950  -31.9250 C   0  0  0  0  0  0  0  0  0  0  0  0
   -6.9970   20.6080  -33.0160 C   0  0  0  0  0  0  0  0  0  0  0  0
   -6.3470   19.2580  -33.2210 C   0  0  0  0  0  0  0  0  0  0  0  0
   -5.9890   18.4570  -32.1240 C   0  0  0  0  0  0  0  0  0  0  0  0
   -5.4100   17.2000  -32.3280 C   0  0  0  0  0  0  0  0  0  0  0  0
   -5.1830   16.7370  -33.6270 C   0  0  0  0  0  0  0  0  0  0  0  0
   -5.5280   17.5310  -34.7230 C   0  0  0  0  0  0  0  0  0  0  0  0
   -6.1050   18.7880  -34.5240 C   0  0  0  0  0  0  0  0  0  0  0  0
   -9.1552   18.5579  -30.4977 H   0  0  0  0  0  0  0  0  0  0  0  0
  -10.0596   17.7487  -31.8221 H   0  0  0  0  0  0  0  0  0  0  0  0
   -8.2633   17.7350  -31.8221 H   0  0  0  0  0  0  0  0  0  0  0  0
   -9.0195   19.3895  -33.4439 H   0  0  0  0  0  0  0  0  0  0  0  0
  -10.1014   20.1470  -32.1892 H   0  0  0  0  0  0  0  0  0  0  0  0
   -7.6270   20.1860  -31.0890 H   0  0  0  0  0  0  0  0  0  0  0  0
   -9.5097   22.0568  -32.3166 H   0  0  0  0  0  0  0  0  0  0  0  0
   -8.8147   21.9934  -30.6331 H   0  0  0  0  0  0  0  0  0  0  0  0
   -7.4390   23.0511  -33.1459 H   0  0  0  0  0  0  0  0  0  0  0  0
   -8.0272   24.0057  -31.7340 H   0  0  0  0  0  0  0  0  0  0  0  0
   -4.6624   23.8678  -31.8707 H   0  0  0  0  0  0  0  0  0  0  0  0
   -6.1832   24.8197  -31.9040 H   0  0  0  0  0  0  0  0  0  0  0  0
   -6.1516   25.1966  -29.6365 H   0  0  0  0  0  0  0  0  0  0  0  0
   -5.4850   23.5655  -29.2741 H   0  0  0  0  0  0  0  0  0  0  0  0
   -4.0620   25.6700  -28.9560 H   0  0  0  0  0  0  0  0  0  0  0  0
   -2.9829   23.3390  -30.4412 H   0  0  0  0  0  0  0  0  0  0  0  0
   -2.0627   24.4832  -29.3936 H   0  0  0  0  0  0  0  0  0  0  0  0
   -2.5866   23.2679  -27.5741 H   0  0  0  0  0  0  0  0  0  0  0  0
   -4.3461   23.5024  -27.9245 H   0  0  0  0  0  0  0  0  0  0  0  0
   -4.0255   20.0903  -26.5963 H   0  0  0  0  0  0  0  0  0  0  0  0
   -2.5537   18.2299  -25.8415 H   0  0  0  0  0  0  0  0  0  0  0  0
   -0.3734   17.8184  -26.9775 H   0  0  0  0  0  0  0  0  0  0  0  0
    0.3245   19.2460  -28.8963 H   0  0  0  0  0  0  0  0  0  0  0  0
   -1.2594   22.3751  -29.8248 H   0  0  0  0  0  0  0  0  0  0  0  0
    0.0419   21.1800  -30.1875 H   0  0  0  0  0  0  0  0  0  0  0  0
   -3.1100   22.5929  -31.2602 H   0  0  0  0  0  0  0  0  0  0  0  0
   -4.3065   21.8923  -33.3347 H   0  0  0  0  0  0  0  0  0  0  0  0
   -3.6490   19.7909  -34.5112 H   0  0  0  0  0  0  0  0  0  0  0  0
   -1.7897   18.3866  -33.6135 H   0  0  0  0  0  0  0  0  0  0  0  0
   -0.5975   19.0715  -31.5298 H   0  0  0  0  0  0  0  0  0  0  0  0
   -7.4499   20.9334  -33.9641 H   0  0  0  0  0  0  0  0  0  0  0  0
   -6.2220   21.3156  -32.6865 H   0  0  0  0  0  0  0  0  0  0  0  0
   -6.1646   18.8196  -31.1005 H   0  0  0  0  0  0  0  0  0  0  0  0
   -5.1333   16.5757  -31.4656 H   0  0  0  0  0  0  0  0  0  0  0  0
   -4.7322   15.7463  -33.7863 H   0  0  0  0  0  0  0  0  0  0  0  0
   -5.3452   17.1662  -35.7445 H   0  0  0  0  0  0  0  0  0  0  0  0
   -6.3709   19.4122  -35.3899 H   0  0  0  0  0  0  0  0  0  0  0  0
  1  2  1  0
  2  3  1  0
  3  4  1  0
  4  5  1  0
  5  6  1  0
  6  7  1  0
  7  8  1  0
  8  9  1  0
  9 10  1  0
 10 11  1  0
 11 12  1  0
 12 13  1  0
 13 14  2  0
 14 15  1  0
 15 16  2  0
 16 17  1  0
 17 18  2  0
 18 19  1  0
 19 20  1  0
 20 21  2  0
 21 22  1  0
 22 23  2  0
 23 24  1  0
 24 25  2  0
  3 26  1  0
 26 27  1  0
 27 28  2  0
 28 29  1  0
 29 30  2  0
 30 31  1  0
 31 32  2  0
 18 13  1  0
 25 20  1  0
 32 27  1  0
  1 33  1  0
  1 34  1  0
  1 35  1  0
  2 36  1  0
  2 37  1  0
  3 38  1  1
  4 39  1  0
  4 40  1  0
  5 41  1  0
  5 42  1  0
  7 43  1  0
  7 44  1  0
  8 45  1  0
  8 46  1  0
  9 47  1  0
 10 48  1  0
 10 49  1  0
 11 50  1  0
 11 51  1  0
 14 52  1  0
 15 53  1  0
 16 54  1  0
 17 55  1  0
 19 56  1  0
 19 57  1  0
 21 58  1  0
 22 59  1  0
 23 60  1  0
 24 61  1  0
 25 62  1  0
 26 63  1  0
 26 64  1  0
 28 65  1  0
 29 66  1  0
 30 67  1  0
 31 68  1  0
 32 69  1  0
M  CHG  1   3   1
M  END
>  <UniqueID>  (38) 
37

>  <SMILES>  (38) 
CC[N@H+](CCOCCNCCOc1ccccc1Cc1ccccc1)Cc1ccccc1

>  <Energy>  (38) 
66.43197758330786

>  <Genealogy>  (38) 
CC[NH+](CCOCCNCCOc1ccccc1Cc1ccccc1)Cc1ccccc1 (protonated)
CC[N@H+](CCOCCNCCOc1ccccc1Cc1ccccc1)Cc1ccccc1 (chirality)
CC[N@H+](CCOCCNCCOc1ccccc1Cc1ccccc1)Cc1ccccc1 (3D coordinates assigned)
CC[N@H+](CCOCCNCCOc1ccccc1Cc1ccccc1)Cc1ccccc1 (optimized conformer: 66.43197758330786 kcal/mol)

>  <smiles>  (38) 
CCN(CCOCCNCCOc1ccccc1Cc1ccccc1)Cc1ccccc1

>  <score_type>  (38) 
oracle

>  <origin>  (38) 
adg

>  <m_score__min__energy>  (38) 
-8.3800000000000008

>  <m_primary>  (38) 
energy

$$$$
38:0
     RDKit          3D

 70 73  0  0  0  0  0  0  0  0999 V2000
   -4.0100   24.2200  -27.0840 C   0  0  0  0  0  0  0  0  0  0  0  0
   -4.1780   22.7640  -27.5290 C   0  0  0  0  0  0  0  0  0  0  0  0
   -2.9060   22.0670  -27.8470 N   0  0  0  0  0  0  0  0  0  0  0  0
   -2.9390   20.5980  -27.6490 C   0  0  0  0  0  0  0  0  0  0  0  0
   -1.8600   20.0520  -26.6980 C   0  0  0  0  0  0  0  0  0  0  0  0
   -1.6740   22.7430  -27.3830 C   0  0  0  0  0  0  0  0  0  0  0  0
   -0.6740   22.9270  -28.5380 C   0  0  0  0  0  0  0  0  0  0  0  0
   -1.3060   23.4470  -29.7590 N   0  0  0  0  0  0  0  0  0  0  0  0
   -2.2220   22.6920  -30.5750 C   0  0  0  0  0  0  0  0  0  0  0  0
   -1.8560   21.4250  -31.0630 C   0  0  0  0  0  0  0  0  0  0  0  0
   -0.5900   20.8690  -30.7830 C   0  0  0  0  0  0  0  0  0  0  0  0
   -0.2530   19.5960  -31.2390 C   0  0  0  0  0  0  0  0  0  0  0  0
   -1.1620   18.8620  -31.9940 C   0  0  0  0  0  0  0  0  0  0  0  0
   -2.4000   19.4110  -32.3240 C   0  0  0  0  0  0  0  0  0  0  0  0
   -2.7630   20.7100  -31.8880 C   0  0  0  0  0  0  0  0  0  0  0  0
   -3.9560   21.2880  -32.2660 N   0  0  0  0  0  0  0  0  0  0  0  0
   -4.6170   20.8090  -33.5010 C   0  0  0  0  0  0  0  0  0  0  0  0
   -4.4230   22.4150  -31.6130 C   0  0  0  0  0  0  0  0  0  0  0  0
   -5.7910   22.8340  -31.6870 C   0  0  0  0  0  0  0  0  0  0  0  0
   -6.8320   21.9060  -32.0610 N   0  0  0  0  0  0  0  0  0  0  0  0
   -7.2570   20.7590  -31.2520 C   0  0  0  0  0  0  0  0  0  0  0  0
   -8.0150   19.7270  -32.1160 C   0  0  0  0  0  0  0  0  0  0  0  0
   -7.2720   18.4740  -32.3760 N   0  0  0  0  0  0  0  0  0  0  0  0
   -6.3660   18.0910  -31.2780 C   0  0  0  0  0  0  0  0  0  0  0  0
   -5.7400   16.7270  -31.5950 C   0  0  0  0  0  0  0  0  0  0  0  0
   -5.0350   16.7750  -32.8200 O   0  0  0  0  0  0  0  0  0  0  0  0
   -5.9260   17.0760  -33.8790 C   0  0  0  0  0  0  0  0  0  0  0  0
   -6.5740   18.4500  -33.6730 C   0  0  0  0  0  0  0  0  0  0  0  0
   -6.1490   24.1090  -31.2190 C   0  0  0  0  0  0  0  0  0  0  0  0
   -5.2180   24.9230  -30.5900 C   0  0  0  0  0  0  0  0  0  0  0  0
   -3.9250   24.4650  -30.3590 C   0  0  0  0  0  0  0  0  0  0  0  0
   -3.0900   25.2760  -29.6590 F   0  0  0  0  0  0  0  0  0  0  0  0
   -3.5130   23.2000  -30.8450 C   0  0  0  0  0  0  0  0  0  0  0  0
   -4.0043   24.2692  -25.9851 H   0  0  0  0  0  0  0  0  0  0  0  0
   -3.0603   24.6152  -27.4737 H   0  0  0  0  0  0  0  0  0  0  0  0
   -4.8447   24.8211  -27.4737 H   0  0  0  0  0  0  0  0  0  0  0  0
   -4.6788   22.2128  -26.7194 H   0  0  0  0  0  0  0  0  0  0  0  0
   -4.7636   22.7868  -28.4599 H   0  0  0  0  0  0  0  0  0  0  0  0
   -3.9240   20.3297  -27.2394 H   0  0  0  0  0  0  0  0  0  0  0  0
   -2.7417   20.1479  -28.6331 H   0  0  0  0  0  0  0  0  0  0  0  0
   -2.1749   20.2113  -25.6561 H   0  0  0  0  0  0  0  0  0  0  0  0
   -1.7223   18.9758  -26.8789 H   0  0  0  0  0  0  0  0  0  0  0  0
   -0.9113   20.5785  -26.8789 H   0  0  0  0  0  0  0  0  0  0  0  0
   -1.9377   23.7301  -26.9755 H   0  0  0  0  0  0  0  0  0  0  0  0
   -1.2031   22.1184  -26.6096 H   0  0  0  0  0  0  0  0  0  0  0  0
    0.1069   23.6326  -28.2182 H   0  0  0  0  0  0  0  0  0  0  0  0
   -0.2561   21.9377  -28.7760 H   0  0  0  0  0  0  0  0  0  0  0  0
   -1.0050   24.3850  -30.1130 H   0  0  0  0  0  0  0  0  0  0  0  0
    0.1400   21.4473  -30.1976 H   0  0  0  0  0  0  0  0  0  0  0  0
    0.7334   19.1709  -31.0015 H   0  0  0  0  0  0  0  0  0  0  0  0
   -0.9036   17.8473  -32.3310 H   0  0  0  0  0  0  0  0  0  0  0  0
   -3.1064   18.8270  -32.9323 H   0  0  0  0  0  0  0  0  0  0  0  0
   -5.4813   20.1827  -33.2350 H   0  0  0  0  0  0  0  0  0  0  0  0
   -4.9575   21.6715  -34.0928 H   0  0  0  0  0  0  0  0  0  0  0  0
   -3.9034   20.2169  -34.0928 H   0  0  0  0  0  0  0  0  0  0  0  0
   -7.2530   21.9980  -33.0120 H   0  0  0  0  0  0  0  0  0  0  0  0
   -6.3698   20.2792  -30.8130 H   0  0  0  0  0  0  0  0  0  0  0  0
   -7.9308   21.1175  -30.4599 H   0  0  0  0  0  0  0  0  0  0  0  0
   -8.9514   19.4693  -31.5994 H   0  0  0  0  0  0  0  0  0  0  0  0
   -8.1775   20.2009  -33.0953 H   0  0  0  0  0  0  0  0  0  0  0  0
   -5.5722   18.8455  -31.1756 H   0  0  0  0  0  0  0  0  0  0  0  0
   -6.9312   18.0290  -30.3363 H   0  0  0  0  0  0  0  0  0  0  0  0
   -5.0445   16.4523  -30.7883 H   0  0  0  0  0  0  0  0  0  0  0  0
   -6.5425   15.9792  -31.6770 H   0  0  0  0  0  0  0  0  0  0  0  0
   -5.3700   17.0784  -34.8281 H   0  0  0  0  0  0  0  0  0  0  0  0
   -6.7180   16.3129  -33.9004 H   0  0  0  0  0  0  0  0  0  0  0  0
   -5.7963   19.2278  -33.6853 H   0  0  0  0  0  0  0  0  0  0  0  0
   -7.2954   18.6402  -34.4813 H   0  0  0  0  0  0  0  0  0  0  0  0
   -7.1806   24.4667  -31.3529 H   0  0  0  0  0  0  0  0  0  0  0  0
   -5.5040   25.9365  -30.2721 H   0  0  0  0  0  0  0  0  0  0  0  0
  1  2  1  0
  2  3  1  0
  3  4  1  0
  4  5  1  0
  3  6  1  0
  6  7  1  0
  7  8  1  0
  8  9  1  0
  9 10  2  0
 10 11  1  0
 11 12  2  0
 12 13  1  0
 13 14  2  0
 14 15  1  0
 15 16  2  0
 16 17  1  0
 16 18  1  0
 18 19  2  0
 19 20  1  0
 20 21  1  0
 21 22  1  0
 22 23  1  0
 23 24  1  0
 24 25  1  0
 25 26  1  0
 26 27  1  0
 27 28  1  0
 19 29  1  0
 29 30  2  0
 30 31  1  0
 31 32  1  0
 31 33  2  0
 33  9  1  0
 15 10  1  0
 33 18  1  0
 28 23  1  0
  1 34  1  0
  1 35  1  0
  1 36  1  0
  2 37  1  0
  2 38  1  0
  4 39  1  0
  4 40  1  0
  5 41  1  0
  5 42  1  0
  5 43  1  0
  6 44  1  0
  6 45  1  0
  7 46  1  0
  7 47  1  0
  8 48  1  0
 11 49  1  0
 12 50  1  0
 13 51  1  0
 14 52  1  0
 17 53  1  0
 17 54  1  0
 17 55  1  0
 20 56  1  0
 21 57  1  0
 21 58  1  0
 22 59  1  0
 22 60  1  0
 24 61  1  0
 24 62  1  0
 25 63  1  0
 25 64  1  0
 27 65  1  0
 27 66  1  0
 28 67  1  0
 28 68  1  0
 29 69  1  0
 30 70  1  0
M  CHG  1  16   1
M  END
>  <UniqueID>  (39) 
38

>  <SMILES>  (39) 
CCN(CC)CCNc1c2ccccc2[n+](C)c2c(NCCN3CCOCC3)ccc(F)c12

>  <Energy>  (39) 
119.93973598010916

>  <Genealogy>  (39) 
CCN(CC)CCNc1c2ccccc2[n+](C)c2c(NCCN3CCOCC3)ccc(F)c12 (3D coordinates assigned)
CCN(CC)CCNc1c2ccccc2[n+](C)c2c(NCCN3CCOCC3)ccc(F)c12 (nonaromatic ring conformer: 119.93973598010916 kcal/mol)

>  <smiles>  (39) 
CCN(CC)CCNc1c2ccccc2[n+](C)c2c(NCCN3CCOCC3)ccc(F)c12

>  <score_type>  (39) 
oracle

>  <origin>  (39) 
adg

>  <m_score__min__energy>  (39) 
-8.6099999999999994

>  <m_primary>  (39) 
energy

$$$$
39:0
     RDKit          3D

 51 54  0  0  0  0  0  0  0  0999 V2000
   -0.5120   21.2550  -34.4300 C   0  0  0  0  0  0  0  0  0  0  0  0
   -1.4880   20.1900  -34.1460 N   0  0  0  0  0  0  0  0  0  0  0  0
   -0.9500   18.8950  -34.5940 C   0  0  0  0  0  0  0  0  0  0  0  0
   -1.8130   20.1390  -32.7040 C   0  0  0  0  0  0  0  0  0  0  0  0
   -1.8500   21.5570  -32.1030 C   0  0  0  0  0  0  0  0  0  0  0  0
   -3.2280   22.2420  -32.2430 C   0  0  0  0  0  0  0  0  0  0  0  0
   -3.9530   21.8490  -33.4700 N   0  0  0  0  0  0  0  0  0  0  0  0
   -5.1300   21.0470  -33.1910 C   0  0  0  0  0  0  0  0  0  0  0  0
   -6.2360   21.5500  -32.4420 C   0  0  0  0  0  0  0  0  0  0  0  0
   -6.2640   22.8830  -31.9730 C   0  0  0  0  0  0  0  0  0  0  0  0
   -7.3220   23.3490  -31.1960 C   0  0  0  0  0  0  0  0  0  0  0  0
   -8.3680   22.5020  -30.8580 C   0  0  0  0  0  0  0  0  0  0  0  0
   -8.3840   21.1870  -31.3160 C   0  0  0  0  0  0  0  0  0  0  0  0
   -7.3480   20.6850  -32.1420 C   0  0  0  0  0  0  0  0  0  0  0  0
   -7.3820   19.3880  -32.6290 N   0  0  0  0  0  0  0  0  0  0  0  0
   -8.6100   18.5770  -32.5770 C   0  0  0  0  0  0  0  0  0  0  0  0
   -6.2600   18.8990  -33.2400 C   0  0  0  0  0  0  0  0  0  0  0  0
   -5.1840   19.6980  -33.5720 C   0  0  0  0  0  0  0  0  0  0  0  0
   -4.2290   18.9850  -34.2130 N   0  0  0  0  0  0  0  0  0  0  0  0
   -4.6840   17.7180  -34.2410 C   0  0  0  0  0  0  0  0  0  0  0  0
   -3.9990   16.6070  -34.7290 C   0  0  0  0  0  0  0  0  0  0  0  0
   -4.5970   15.3440  -34.5830 C   0  0  0  0  0  0  0  0  0  0  0  0
   -5.8420   15.2170  -33.9360 C   0  0  0  0  0  0  0  0  0  0  0  0
   -6.5120   16.3500  -33.4430 C   0  0  0  0  0  0  0  0  0  0  0  0
   -5.9230   17.6070  -33.6420 C   0  0  0  0  0  0  0  0  0  0  0  0
   -0.1338   21.6677  -33.4831 H   0  0  0  0  0  0  0  0  0  0  0  0
    0.3256   20.8397  -35.0095 H   0  0  0  0  0  0  0  0  0  0  0  0
   -0.9987   22.0533  -35.0095 H   0  0  0  0  0  0  0  0  0  0  0  0
   -0.6949   18.2810  -33.7177 H   0  0  0  0  0  0  0  0  0  0  0  0
   -1.7060   18.3736  -35.1995 H   0  0  0  0  0  0  0  0  0  0  0  0
   -0.0471   19.0628  -35.1995 H   0  0  0  0  0  0  0  0  0  0  0  0
   -2.7970   19.6653  -32.5723 H   0  0  0  0  0  0  0  0  0  0  0  0
   -1.0363   19.5563  -32.1871 H   0  0  0  0  0  0  0  0  0  0  0  0
   -1.5999   21.4902  -31.0339 H   0  0  0  0  0  0  0  0  0  0  0  0
   -1.1237   22.1671  -32.6601 H   0  0  0  0  0  0  0  0  0  0  0  0
   -3.8429   21.9713  -31.3720 H   0  0  0  0  0  0  0  0  0  0  0  0
   -3.0492   23.3257  -32.3025 H   0  0  0  0  0  0  0  0  0  0  0  0
   -4.2390   22.7090  -33.9910 H   0  0  0  0  0  0  0  0  0  0  0  0
   -3.3050   21.3620  -34.1250 H   0  0  0  0  0  0  0  0  0  0  0  0
   -5.4372   23.5632  -32.2256 H   0  0  0  0  0  0  0  0  0  0  0  0
   -7.3284   24.3928  -30.8489 H   0  0  0  0  0  0  0  0  0  0  0  0
   -9.1885   22.8712  -30.2252 H   0  0  0  0  0  0  0  0  0  0  0  0
   -9.2160   20.5261  -31.0314 H   0  0  0  0  0  0  0  0  0  0  0  0
   -8.8852   18.3952  -31.5276 H   0  0  0  0  0  0  0  0  0  0  0  0
   -9.4260   19.1144  -33.0823 H   0  0  0  0  0  0  0  0  0  0  0  0
   -8.4361   17.6155  -33.0823 H   0  0  0  0  0  0  0  0  0  0  0  0
   -3.3100   19.3070  -34.5860 H   0  0  0  0  0  0  0  0  0  0  0  0
   -3.0180   16.7157  -35.2147 H   0  0  0  0  0  0  0  0  0  0  0  0
   -4.0906   14.4500  -34.9758 H   0  0  0  0  0  0  0  0  0  0  0  0
   -6.2941   14.2215  -33.8155 H   0  0  0  0  0  0  0  0  0  0  0  0
   -7.4723   16.2533  -32.9154 H   0  0  0  0  0  0  0  0  0  0  0  0
  1  2  1  0
  2  3  1  0
  2  4  1  0
  4  5  1  0
  5  6  1  0
  6  7  1  0
  7  8  1  0
  8  9  2  0
  9 10  1  0
 10 11  2  0
 11 12  1  0
 12 13  2  0
 13 14  1  0
 14 15  2  0
 15 16  1  0
 15 17  1  0
 17 18  2  0
 18 19  1  0
 19 20  1  0
 20 21  2  0
 21 22  1  0
 22 23  2  0
 23 24  1  0
 24 25  2  0
 18  8  1  0
 25 20  1  0
 14  9  1  0
 25 17  1  0
  1 26  1  0
  1 27  1  0
  1 28  1  0
  3 29  1  0
  3 30  1  0
  3 31  1  0
  4 32  1  0
  4 33  1  0
  5 34  1  0
  5 35  1  0
  6 36  1  0
  6 37  1  0
  7 38  1  0
  7 39  1  0
 10 40  1  0
 11 41  1  0
 12 42  1  0
 13 43  1  0
 16 44  1  0
 16 45  1  0
 16 46  1  0
 19 47  1  0
 21 48  1  0
 22 49  1  0
 23 50  1  0
 24 51  1  0
M  CHG  2   7   1  15   1
M  END
>  <UniqueID>  (40) 
39

>  <SMILES>  (40) 
CN(C)CCC[NH2+]c1c2ccccc2[n+](C)c2c1[nH]c1ccccc12

>  <Energy>  (40) 
112.68006568455193

>  <Genealogy>  (40) 
CN(C)CCC[NH2+]c1c2ccccc2[n+](C)c2c1[nH]c1ccccc12 (protonated)
CN(C)CCC[NH2+]c1c2ccccc2[n+](C)c2c1[nH]c1ccccc12 (3D coordinates assigned)
CN(C)CCC[NH2+]c1c2ccccc2[n+](C)c2c1[nH]c1ccccc12 (optimized conformer: 112.68006568455193 kcal/mol)

>  <smiles>  (40) 
CN(C)CCCNc1c2ccccc2[n+](C)c2c1[nH]c1ccccc12

>  <score_type>  (40) 
oracle

>  <origin>  (40) 
adg

>  <m_score__min__energy>  (40) 
-7.3499999999999996

>  <m_primary>  (40) 
energy

$$$$
