0:0
     RDKit          3D

 39 40  0  0  0  0  0  0  0  0999 V2000
   -3.4128   20.1717  -31.8339 H   0  0  0  0  0  0  0  0  0  0  0  0
   -4.1570   20.9710  -31.7020 C   0  0  0  0  0  0  0  0  0  0  0  0
   -5.4040   20.8020  -31.3240 O   0  0  0  0  0  0  0  0  0  0  0  0
   -6.0420   21.9350  -31.2770 N   0  0  0  0  0  0  0  0  0  0  0  0
   -7.3810   22.0330  -30.6880 C   0  0  0  0  0  0  0  0  0  0  0  0
   -7.6831   21.0426  -30.3168 H   0  0  0  0  0  0  0  0  0  0  0  0
   -7.3471   22.7618  -29.8648 H   0  0  0  0  0  0  0  0  0  0  0  0
   -8.4040   22.5130  -31.7180 C   0  0  0  0  0  0  0  0  0  0  0  0
   -8.9116   23.4101  -31.3339 H   0  0  0  0  0  0  0  0  0  0  0  0
   -7.8819   22.7475  -32.6574 H   0  0  0  0  0  0  0  0  0  0  0  0
   -9.6440   21.2100  -32.0380 S   0  0  0  0  0  0  0  0  0  0  0  0
   -8.7440   19.8530  -31.1980 C   0  0  0  0  0  0  0  0  0  0  0  0
   -7.7047   20.1723  -31.0310 H   0  0  0  0  0  0  0  0  0  0  0  0
   -9.2672   19.6470  -30.2526 H   0  0  0  0  0  0  0  0  0  0  0  0
   -8.7310   18.5500  -32.0090 C   0  0  0  0  0  0  0  0  0  0  0  0
   -8.8421   17.7016  -31.3177 H   0  0  0  0  0  0  0  0  0  0  0  0
   -9.5620   18.5925  -32.7285 H   0  0  0  0  0  0  0  0  0  0  0  0
   -7.4530   18.3760  -32.7890 C   0  0  0  0  0  0  0  0  0  0  0  0
   -6.8810   19.4670  -33.4670 C   0  0  0  0  0  0  0  0  0  0  0  0
   -7.3503   20.4597  -33.4018 H   0  0  0  0  0  0  0  0  0  0  0  0
   -5.7190   19.2950  -34.2230 C   0  0  0  0  0  0  0  0  0  0  0  0
   -5.2759   20.1520  -34.7515 H   0  0  0  0  0  0  0  0  0  0  0  0
   -5.1190   18.0370  -34.3090 C   0  0  0  0  0  0  0  0  0  0  0  0
   -4.2039   17.9042  -34.9048 H   0  0  0  0  0  0  0  0  0  0  0  0
   -5.6800   16.9470  -33.6390 C   0  0  0  0  0  0  0  0  0  0  0  0
   -5.2050   15.9571  -33.7061 H   0  0  0  0  0  0  0  0  0  0  0  0
   -6.8450   17.1130  -32.8830 C   0  0  0  0  0  0  0  0  0  0  0  0
   -7.2866   16.2518  -32.3603 H   0  0  0  0  0  0  0  0  0  0  0  0
   -5.1550   22.9020  -31.6370 C   0  0  0  0  0  0  0  0  0  0  0  0
   -5.3520   24.1890  -31.6850 N   0  0  0  0  0  0  0  0  0  0  0  0
   -4.8800   25.1840  -30.7780 C   0  0  0  0  0  0  0  0  0  0  0  0
   -5.6670   26.0760  -30.3580 O   0  0  0  0  0  0  0  0  0  0  0  0
   -3.5230   25.2210  -30.4500 O   0  0  0  0  0  0  0  0  0  0  0  0
   -2.9710   24.4550  -29.3880 C   0  0  0  0  0  0  0  0  0  0  0  0
   -3.2817   24.8862  -28.4249 H   0  0  0  0  0  0  0  0  0  0  0  0
   -3.3307   23.4179  -29.4585 H   0  0  0  0  0  0  0  0  0  0  0  0
   -1.8733   24.4680  -29.4585 H   0  0  0  0  0  0  0  0  0  0  0  0
   -3.9360   22.3180  -31.9060 C   0  0  0  0  0  0  0  0  0  0  0  0
   -3.0021   22.8117  -32.2126 H   0  0  0  0  0  0  0  0  0  0  0  0
  1  2  1  0
  2  3  1  0
  3  4  1  0
  4  5  1  0
  5  6  1  0
  5  7  1  0
  5  8  1  0
  8  9  1  0
  8 10  1  0
  8 11  1  0
 11 12  1  0
 12 13  1  0
 12 14  1  0
 12 15  1  0
 15 16  1  0
 15 17  1  0
 15 18  1  0
 18 19  2  0
 19 20  1  0
 19 21  1  0
 21 22  1  0
 21 23  2  0
 23 24  1  0
 23 25  1  0
 25 26  1  0
 25 27  2  0
 27 28  1  0
  4 29  1  0
 29 30  2  0
 30 31  1  0
 31 32  2  0
 31 33  1  0
 33 34  1  0
 34 35  1  0
 34 36  1  0
 34 37  1  0
 29 38  1  0
 38 39  1  0
 38  2  2  0
 27 18  1  0
M  END
>  <UniqueID>  (1) 
1

>  <SMILES>  (1) 
COC(=O)/N=c1/ccon1CCSCCc1ccccc1

>  <Energy>  (1) 
71.90044162240491

>  <Genealogy>  (1) 
COC(=O)/N=c1/ccon1CCSCCc1ccccc1 (cis-trans isomerization)
COC(=O)/N=c1/ccon1CCSCCc1ccccc1 (3D coordinates assigned)
COC(=O)/N=c1/ccon1CCSCCc1ccccc1 (optimized conformer: 71.90044162240491 kcal/mol)

>  <smiles>  (1) 
COC(=O)N=c1ccon1CCSCCc1ccccc1

>  <score_type>  (1) 
oracle

>  <origin>  (1) 
adg

>  <m_score__min__energy>  (1) 
-7.2800000000000002

>  <m_primary>  (1) 
energy

$$$$
1:0
     RDKit          3D

 38 40  0  0  0  0  0  0  0  0999 V2000
   -1.6490   20.6910  -27.4930 C   0  0  0  0  0  0  0  0  0  0  0  0
   -1.5730   22.1090  -27.9960 C   0  0  0  0  0  0  0  0  0  0  0  0
   -0.4300   22.8760  -27.7120 C   0  0  0  0  0  0  0  0  0  0  0  0
   -0.3250   24.1930  -28.1620 C   0  0  0  0  0  0  0  0  0  0  0  0
   -1.3570   24.7710  -28.9030 C   0  0  0  0  0  0  0  0  0  0  0  0
   -1.2370   26.0850  -29.3420 O   0  0  0  0  0  0  0  0  0  0  0  0
   -2.5060   24.0270  -29.1990 C   0  0  0  0  0  0  0  0  0  0  0  0
   -3.5110   24.5920  -29.9190 N   0  0  0  0  0  0  0  0  0  0  0  0
   -4.6380   23.8960  -30.2220 C   0  0  0  0  0  0  0  0  0  0  0  0
   -5.7400   24.5530  -30.9970 C   0  0  0  0  0  0  0  0  0  0  0  0
   -7.1070   23.9150  -30.7020 C   0  0  0  0  0  0  0  0  0  0  0  0
   -7.8380   23.4090  -31.9580 C   0  0  0  0  0  0  0  0  0  0  0  0
   -7.8270   21.9040  -32.0540 C   0  0  0  0  0  0  0  0  0  0  0  0
   -6.6480   21.2190  -32.3940 C   0  0  0  0  0  0  0  0  0  0  0  0
   -6.6500   19.8250  -32.5000 C   0  0  0  0  0  0  0  0  0  0  0  0
   -7.8250   19.1050  -32.2680 C   0  0  0  0  0  0  0  0  0  0  0  0
   -9.0020   19.7790  -31.9300 C   0  0  0  0  0  0  0  0  0  0  0  0
   -9.0050   21.1730  -31.8230 C   0  0  0  0  0  0  0  0  0  0  0  0
   -4.7740   22.6130  -29.7990 N   0  0  0  0  0  0  0  0  0  0  0  0
   -3.8030   21.9990  -29.0770 C   0  0  0  0  0  0  0  0  0  0  0  0
   -2.6240   22.6920  -28.7490 C   0  0  0  0  0  0  0  0  0  0  0  0
   -1.6490   20.6917  -26.3930 H   0  0  0  0  0  0  0  0  0  0  0  0
   -2.5736   20.2210  -27.8594 H   0  0  0  0  0  0  0  0  0  0  0  0
   -0.7799   20.1249  -27.8594 H   0  0  0  0  0  0  0  0  0  0  0  0
    0.3909   22.4334  -27.1286 H   0  0  0  0  0  0  0  0  0  0  0  0
    0.5768   24.7791  -27.9312 H   0  0  0  0  0  0  0  0  0  0  0  0
   -5.7789   25.6185  -30.7263 H   0  0  0  0  0  0  0  0  0  0  0  0
   -5.5274   24.4237  -32.0685 H   0  0  0  0  0  0  0  0  0  0  0  0
   -6.9534   23.0634  -30.0230 H   0  0  0  0  0  0  0  0  0  0  0  0
   -7.7379   24.6985  -30.2569 H   0  0  0  0  0  0  0  0  0  0  0  0
   -8.8818   23.7545  -31.9241 H   0  0  0  0  0  0  0  0  0  0  0  0
   -7.3135   23.8081  -32.8387 H   0  0  0  0  0  0  0  0  0  0  0  0
   -5.7206   21.7814  -32.5773 H   0  0  0  0  0  0  0  0  0  0  0  0
   -5.7245   19.2937  -32.7667 H   0  0  0  0  0  0  0  0  0  0  0  0
   -7.8237   18.0082  -32.3513 H   0  0  0  0  0  0  0  0  0  0  0  0
   -9.9269   19.2120  -31.7480 H   0  0  0  0  0  0  0  0  0  0  0  0
   -9.9332   21.6999  -31.5569 H   0  0  0  0  0  0  0  0  0  0  0  0
   -3.9381   20.9581  -28.7479 H   0  0  0  0  0  0  0  0  0  0  0  0
  1  2  1  0
  2  3  2  0
  3  4  1  0
  4  5  2  0
  5  6  1  0
  5  7  1  0
  7  8  2  0
  8  9  1  0
  9 10  1  0
 10 11  1  0
 11 12  1  0
 12 13  1  0
 13 14  2  0
 14 15  1  0
 15 16  2  0
 16 17  1  0
 17 18  2  0
  9 19  2  0
 19 20  1  0
 20 21  2  0
 21  2  1  0
 21  7  1  0
 18 13  1  0
  1 22  1  0
  1 23  1  0
  1 24  1  0
  3 25  1  0
  4 26  1  0
 10 27  1  0
 10 28  1  0
 11 29  1  0
 11 30  1  0
 12 31  1  0
 12 32  1  0
 14 33  1  0
 15 34  1  0
 16 35  1  0
 17 36  1  0
 18 37  1  0
 20 38  1  0
M  CHG  1   6  -1
M  END
>  <UniqueID>  (2) 
2

>  <SMILES>  (2) 
Cc1ccc([O-])c2nc(CCCc3ccccc3)ncc12

>  <Energy>  (2) 
40.30632806736897

>  <Genealogy>  (2) 
Cc1ccc([O-])c2nc(CCCc3ccccc3)ncc12 (protonated)
Cc1ccc([O-])c2nc(CCCc3ccccc3)ncc12 (3D coordinates assigned)
Cc1ccc([O-])c2nc(CCCc3ccccc3)ncc12 (optimized conformer: 40.30632806736897 kcal/mol)

>  <smiles>  (2) 
Cc1ccc(O)c2nc(CCCc3ccccc3)ncc12

>  <score_type>  (2) 
oracle

>  <origin>  (2) 
adg

>  <m_score__min__energy>  (2) 
-11.41

>  <m_primary>  (2) 
energy

$$$$
2:0
     RDKit          3D

 58 60  0  0  0  0  0  0  0  0999 V2000
   -9.3304   19.3536  -32.4036 H   0  0  0  0  0  0  0  0  0  0  0  0
   -8.2740   19.0720  -32.2820 C   0  0  0  0  0  0  0  0  0  0  0  0
   -7.3620   20.0570  -31.6620 C   0  0  0  0  0  0  0  0  0  0  0  0
   -6.2400   19.6770  -31.2320 O   0  0  0  0  0  0  0  0  0  0  0  0
   -7.7240   21.4790  -31.5130 C   0  0  0  0  0  0  0  0  0  0  0  0
   -8.5726   21.7351  -30.8616 H   0  0  0  0  0  0  0  0  0  0  0  0
   -7.0740   22.4750  -32.1290 C   0  0  0  0  0  0  0  0  0  0  0  0
   -7.2963   22.6859  -33.1855 H   0  0  0  0  0  0  0  0  0  0  0  0
   -6.0670   23.2980  -31.4290 C   0  0  0  0  0  0  0  0  0  0  0  0
   -6.4360   24.5860  -31.0110 C   0  0  0  0  0  0  0  0  0  0  0  0
   -7.4430   24.9660  -31.2379 H   0  0  0  0  0  0  0  0  0  0  0  0
   -5.5340   25.3890  -30.3090 C   0  0  0  0  0  0  0  0  0  0  0  0
   -5.8356   26.3940  -29.9788 H   0  0  0  0  0  0  0  0  0  0  0  0
   -4.2520   24.9190  -30.0260 C   0  0  0  0  0  0  0  0  0  0  0  0
   -3.5499   25.5472  -29.4581 H   0  0  0  0  0  0  0  0  0  0  0  0
   -3.8580   23.6530  -30.4620 C   0  0  0  0  0  0  0  0  0  0  0  0
   -2.8425   23.2914  -30.2431 H   0  0  0  0  0  0  0  0  0  0  0  0
   -4.7490   22.8380  -31.1780 C   0  0  0  0  0  0  0  0  0  0  0  0
   -4.2770   21.5840  -31.7030 N   0  0  0  0  0  0  0  0  0  0  0  0
   -4.3340   21.3290  -33.1450 C   0  0  0  0  0  0  0  0  0  0  0  0
   -5.3639   21.0621  -33.4243 H   0  0  0  0  0  0  0  0  0  0  0  0
   -4.0181   22.2378  -33.6783 H   0  0  0  0  0  0  0  0  0  0  0  0
   -3.3920   20.1770  -33.5290 C   0  0  0  0  0  0  0  0  0  0  0  0
   -3.8677   19.2229  -33.2581 H   0  0  0  0  0  0  0  0  0  0  0  0
   -3.2069   20.2335  -34.6118 H   0  0  0  0  0  0  0  0  0  0  0  0
   -2.0870   20.2770  -32.8330 N   0  0  0  0  0  0  0  0  0  0  0  0
   -1.5400   19.4230  -33.1010 H   0  0  0  0  0  0  0  0  0  0  0  0
   -1.3090   21.4340  -33.3150 C   0  0  0  0  0  0  0  0  0  0  0  0
   -0.9265   22.0028  -32.4546 H   0  0  0  0  0  0  0  0  0  0  0  0
   -0.4649   21.0798  -33.9249 H   0  0  0  0  0  0  0  0  0  0  0  0
   -1.9555   22.0822  -33.9249 H   0  0  0  0  0  0  0  0  0  0  0  0
   -2.2060   20.2860  -31.3440 C   0  0  0  0  0  0  0  0  0  0  0  0
   -1.9240   19.2909  -30.9694 H   0  0  0  0  0  0  0  0  0  0  0  0
   -1.5417   21.0831  -30.9787 H   0  0  0  0  0  0  0  0  0  0  0  0
   -3.6190   20.6150  -30.8250 C   0  0  0  0  0  0  0  0  0  0  0  0
   -4.2165   19.6920  -30.7930 H   0  0  0  0  0  0  0  0  0  0  0  0
   -3.5350   21.0487  -29.8176 H   0  0  0  0  0  0  0  0  0  0  0  0
   -7.8950   17.8560  -32.7060 C   0  0  0  0  0  0  0  0  0  0  0  0
   -8.6455   17.0521  -32.6839 H   0  0  0  0  0  0  0  0  0  0  0  0
   -6.5420   17.5170  -33.2010 C   0  0  0  0  0  0  0  0  0  0  0  0
   -5.7230   16.6790  -32.4380 C   0  0  0  0  0  0  0  0  0  0  0  0
   -6.0805   16.3036  -31.4678 H   0  0  0  0  0  0  0  0  0  0  0  0
   -4.4540   16.3140  -32.8970 C   0  0  0  0  0  0  0  0  0  0  0  0
   -3.8179   15.6671  -32.2750 H   0  0  0  0  0  0  0  0  0  0  0  0
   -3.9770   16.7640  -34.1480 C   0  0  0  0  0  0  0  0  0  0  0  0
   -2.6540   16.3880  -34.6290 N   0  0  0  0  0  0  0  0  0  0  0  0
   -2.5020   15.4350  -35.7380 C   0  0  0  0  0  0  0  0  0  0  0  0
   -2.3409   14.4247  -35.3338 H   0  0  0  0  0  0  0  0  0  0  0  0
   -3.4126   15.4421  -36.3550 H   0  0  0  0  0  0  0  0  0  0  0  0
   -1.6388   15.7251  -36.3550 H   0  0  0  0  0  0  0  0  0  0  0  0
   -1.4440   16.9510  -34.0130 C   0  0  0  0  0  0  0  0  0  0  0  0
   -1.5362   16.9081  -32.9177 H   0  0  0  0  0  0  0  0  0  0  0  0
   -0.5662   16.3688  -34.3301 H   0  0  0  0  0  0  0  0  0  0  0  0
   -1.3240   17.9974  -34.3301 H   0  0  0  0  0  0  0  0  0  0  0  0
   -4.8270   17.5850  -34.9230 C   0  0  0  0  0  0  0  0  0  0  0  0
   -4.4863   17.9444  -35.9052 H   0  0  0  0  0  0  0  0  0  0  0  0
   -6.0930   17.9460  -34.4590 C   0  0  0  0  0  0  0  0  0  0  0  0
   -6.7447   18.5727  -35.0855 H   0  0  0  0  0  0  0  0  0  0  0  0
  1  2  1  0
  2  3  1  0
  3  4  2  0
  3  5  1  0
  5  6  1  0
  5  7  2  0
  7  8  1  0
  7  9  1  0
  9 10  2  0
 10 11  1  0
 10 12  1  0
 12 13  1  0
 12 14  2  0
 14 15  1  0
 14 16  1  0
 16 17  1  0
 16 18  2  0
 18 19  1  0
 19 20  1  0
 20 21  1  0
 20 22  1  0
 20 23  1  0
 23 24  1  0
 23 25  1  0
 23 26  1  0
 26 27  1  0
 26 28  1  0
 28 29  1  0
 28 30  1  0
 28 31  1  0
 26 32  1  0
 32 33  1  0
 32 34  1  0
 32 35  1  0
 35 36  1  0
 35 37  1  0
  2 38  2  3
 38 39  1  0
 38 40  1  0
 40 41  2  0
 41 42  1  0
 41 43  1  0
 43 44  1  0
 43 45  2  0
 45 46  1  0
 46 47  1  0
 47 48  1  0
 47 49  1  0
 47 50  1  0
 46 51  1  0
 51 52  1  0
 51 53  1  0
 51 54  1  0
 45 55  1  0
 55 56  1  0
 55 57  2  0
 57 58  1  0
 18  9  1  0
 35 19  1  0
 57 40  1  0
M  CHG  1  26   1
M  END
>  <UniqueID>  (3) 
3

>  <SMILES>  (3) 
CN(C)c1ccc(C=CC(=O)/C=C/c2ccccc2N2CC[NH+](C)CC2)cc1

>  <Energy>  (3) 
84.78305013273818

>  <Genealogy>  (3) 
CN(C)c1ccc(C=CC(=O)C=Cc2ccccc2N2CC[NH+](C)CC2)cc1 (protonated)
CN(C)c1ccc(C=CC(=O)/C=C/c2ccccc2N2CC[NH+](C)CC2)cc1 (cis-trans isomerization)
CN(C)c1ccc(C=CC(=O)/C=C/c2ccccc2N2CC[NH+](C)CC2)cc1 (3D coordinates assigned)
CN(C)c1ccc(C=CC(=O)/C=C/c2ccccc2N2CC[NH+](C)CC2)cc1 (nonaromatic ring conformer: 84.78305013273818 kcal/mol)

>  <smiles>  (3) 
CN1CCN(c2ccccc2C=CC(=O)C=Cc2ccc(N(C)C)cc2)CC1

>  <score_type>  (3) 
oracle

>  <origin>  (3) 
adg

>  <m_score__min__energy>  (3) 
-9.3000000000000007

>  <m_primary>  (3) 
energy

$$$$
3:0
     RDKit          3D

 41 43  0  0  0  0  0  0  0  0999 V2000
   -2.4150   24.2300  -28.8880 C   0  0  0  0  0  0  0  0  0  0  0  0
   -3.6890   24.3620  -29.5810 N   0  0  0  0  0  0  0  0  0  0  0  0
   -4.8020   23.6490  -29.3240 C   0  0  0  0  0  0  0  0  0  0  0  0
   -5.8050   24.1290  -30.1380 C   0  0  0  0  0  0  0  0  0  0  0  0
   -7.2330   23.6780  -30.1830 C   0  0  0  0  0  0  0  0  0  0  0  0
   -7.3220   22.3110  -30.7340 N   0  0  0  0  0  0  0  0  0  0  0  0
   -8.7310   21.9660  -31.0370 C   0  0  0  0  0  0  0  0  0  0  0  0
   -8.8750   20.7490  -31.9800 C   0  0  0  0  0  0  0  0  0  0  0  0
   -7.6060   19.8730  -31.9880 C   0  0  0  0  0  0  0  0  0  0  0  0
   -7.7390   18.7380  -32.8540 O   0  0  0  0  0  0  0  0  0  0  0  0
   -6.7250   17.9170  -33.3870 C   0  0  0  0  0  0  0  0  0  0  0  0
   -6.3830   16.6520  -32.8620 C   0  0  0  0  0  0  0  0  0  0  0  0
   -5.3620   15.8980  -33.4510 C   0  0  0  0  0  0  0  0  0  0  0  0
   -4.6750   16.3920  -34.5620 C   0  0  0  0  0  0  0  0  0  0  0  0
   -5.0100   17.6400  -35.0890 C   0  0  0  0  0  0  0  0  0  0  0  0
   -6.0300   18.3960  -34.5050 C   0  0  0  0  0  0  0  0  0  0  0  0
   -6.3040   20.6660  -32.2500 C   0  0  0  0  0  0  0  0  0  0  0  0
   -6.4700   22.1570  -31.9300 C   0  0  0  0  0  0  0  0  0  0  0  0
   -5.2310   25.1590  -30.8590 C   0  0  0  0  0  0  0  0  0  0  0  0
   -3.9400   25.2860  -30.4960 N   0  0  0  0  0  0  0  0  0  0  0  0
   -2.5851   24.2476  -27.8014 H   0  0  0  0  0  0  0  0  0  0  0  0
   -1.9413   23.2780  -29.1696 H   0  0  0  0  0  0  0  0  0  0  0  0
   -1.7562   25.0647  -29.1696 H   0  0  0  0  0  0  0  0  0  0  0  0
   -4.8941   22.8303  -28.5951 H   0  0  0  0  0  0  0  0  0  0  0  0
   -7.6484   23.6864  -29.1645 H   0  0  0  0  0  0  0  0  0  0  0  0
   -7.8038   24.3617  -30.8286 H   0  0  0  0  0  0  0  0  0  0  0  0
   -9.2453   21.7377  -30.0918 H   0  0  0  0  0  0  0  0  0  0  0  0
   -9.1740   22.8310  -31.5524 H   0  0  0  0  0  0  0  0  0  0  0  0
   -9.7263   20.1384  -31.6447 H   0  0  0  0  0  0  0  0  0  0  0  0
   -9.0346   21.1264  -33.0008 H   0  0  0  0  0  0  0  0  0  0  0  0
   -7.5072   19.4870  -30.9627 H   0  0  0  0  0  0  0  0  0  0  0  0
   -6.9208   16.2578  -31.9872 H   0  0  0  0  0  0  0  0  0  0  0  0
   -5.0996   14.9130  -33.0376 H   0  0  0  0  0  0  0  0  0  0  0  0
   -3.8709   15.7982  -35.0211 H   0  0  0  0  0  0  0  0  0  0  0  0
   -4.4706   18.0291  -35.9651 H   0  0  0  0  0  0  0  0  0  0  0  0
   -6.2899   19.3777  -34.9277 H   0  0  0  0  0  0  0  0  0  0  0  0
   -5.5030   20.2536  -31.6189 H   0  0  0  0  0  0  0  0  0  0  0  0
   -6.0553   20.5713  -33.3173 H   0  0  0  0  0  0  0  0  0  0  0  0
   -5.4831   22.6029  -31.7372 H   0  0  0  0  0  0  0  0  0  0  0  0
   -6.9411   22.6654  -32.7841 H   0  0  0  0  0  0  0  0  0  0  0  0
   -5.7462   25.7765  -31.6095 H   0  0  0  0  0  0  0  0  0  0  0  0
  1  2  1  0
  2  3  1  0
  3  4  2  0
  4  5  1  0
  5  6  1  0
  6  7  1  0
  7  8  1  0
  8  9  1  0
  9 10  1  0
 10 11  1  0
 11 12  2  0
 12 13  1  0
 13 14  2  0
 14 15  1  0
 15 16  2  0
  9 17  1  0
 17 18  1  0
  4 19  1  0
 19 20  2  0
 20  2  1  0
 18  6  1  0
 16 11  1  0
  1 21  1  0
  1 22  1  0
  1 23  1  0
  3 24  1  0
  5 25  1  0
  5 26  1  0
  7 27  1  0
  7 28  1  0
  8 29  1  0
  8 30  1  0
  9 31  1  0
 12 32  1  0
 13 33  1  0
 14 34  1  0
 15 35  1  0
 16 36  1  0
 17 37  1  0
 17 38  1  0
 18 39  1  0
 18 40  1  0
 19 41  1  0
M  END
>  <UniqueID>  (4) 
4

>  <SMILES>  (4) 
Cn1cc(CN2CCC(Oc3ccccc3)CC2)cn1

>  <Energy>  (4) 
80.6630598546547

>  <Genealogy>  (4) 
Cn1cc(CN2CCC(Oc3ccccc3)CC2)cn1 (3D coordinates assigned)
Cn1cc(CN2CCC(Oc3ccccc3)CC2)cn1 (nonaromatic ring conformer: 80.6630598546547 kcal/mol)

>  <smiles>  (4) 
Cn1cc(CN2CCC(Oc3ccccc3)CC2)cn1

>  <score_type>  (4) 
oracle

>  <origin>  (4) 
adg

>  <m_score__min__energy>  (4) 
-7.6900000000000004

>  <m_primary>  (4) 
energy

$$$$
4:0
     RDKit          3D

 46 47  0  0  0  0  0  0  0  0999 V2000
   -9.2420   21.2200  -31.9900 C   0  0  0  0  0  0  0  0  0  0  0  0
   -7.9660   20.4810  -32.2680 C   0  0  0  0  0  0  0  0  0  0  0  0
   -7.9970   19.1130  -32.5740 C   0  0  0  0  0  0  0  0  0  0  0  0
   -6.8130   18.4270  -32.8750 C   0  0  0  0  0  0  0  0  0  0  0  0
   -6.8430   16.9520  -33.1460 C   0  0  0  0  0  0  0  0  0  0  0  0
   -5.5900   19.1130  -32.8530 C   0  0  0  0  0  0  0  0  0  0  0  0
   -5.5480   20.4920  -32.5820 C   0  0  0  0  0  0  0  0  0  0  0  0
   -4.2570   21.2190  -32.5740 C   0  0  0  0  0  0  0  0  0  0  0  0
   -3.6300   21.3820  -33.6570 O   0  0  0  0  0  0  0  0  0  0  0  0
   -3.7150   21.7660  -31.3590 N   0  0  0  0  0  0  0  0  0  0  0  0
   -2.3310   22.2590  -31.3300 C   0  0  0  0  0  0  0  0  0  0  0  0
   -1.6190   21.8840  -30.0170 C   0  0  0  0  0  0  0  0  0  0  0  0
   -2.5890   21.5090  -28.8820 C   0  0  0  0  0  0  0  0  0  0  0  0
   -3.8920   22.3320  -28.9190 C   0  0  1  0  0  0  0  0  0  0  0  0
   -3.6740   23.8430  -28.6630 C   0  0  0  0  0  0  0  0  0  0  0  0
   -4.9560   24.5510  -28.5940 N   0  0  0  0  0  0  0  0  0  0  0  0
   -5.4240   25.0990  -30.1770 S   0  0  0  0  0  0  0  0  0  0  0  0
   -6.8800   24.2310  -30.7210 C   0  0  0  0  0  0  0  0  0  0  0  0
   -4.3060   24.8730  -31.1570 O   0  0  0  0  0  0  0  0  0  0  0  0
   -5.7320   26.5680  -30.1150 O   0  0  0  0  0  0  0  0  0  0  0  0
   -4.6350   22.0750  -30.2540 C   0  0  0  0  0  0  0  0  0  0  0  0
   -6.7430   21.1680  -32.2880 C   0  0  0  0  0  0  0  0  0  0  0  0
   -9.3875   21.3043  -30.9029 H   0  0  0  0  0  0  0  0  0  0  0  0
   -9.1868   22.2259  -32.4316 H   0  0  0  0  0  0  0  0  0  0  0  0
  -10.0871   20.6715  -32.4316 H   0  0  0  0  0  0  0  0  0  0  0  0
   -8.9566   18.5752  -32.5778 H   0  0  0  0  0  0  0  0  0  0  0  0
   -6.8541   16.4041  -32.1922 H   0  0  0  0  0  0  0  0  0  0  0  0
   -7.7464   16.7034  -33.7223 H   0  0  0  0  0  0  0  0  0  0  0  0
   -5.9505   16.6668  -33.7223 H   0  0  0  0  0  0  0  0  0  0  0  0
   -4.6553   18.5674  -33.0495 H   0  0  0  0  0  0  0  0  0  0  0  0
   -1.7783   21.8191  -32.1732 H   0  0  0  0  0  0  0  0  0  0  0  0
   -2.3567   23.3562  -31.4043 H   0  0  0  0  0  0  0  0  0  0  0  0
   -0.9599   21.0249  -30.2107 H   0  0  0  0  0  0  0  0  0  0  0  0
   -1.0589   22.7710  -29.6861 H   0  0  0  0  0  0  0  0  0  0  0  0
   -2.8432   20.4427  -28.9738 H   0  0  0  0  0  0  0  0  0  0  0  0
   -2.0853   21.7256  -27.9284 H   0  0  0  0  0  0  0  0  0  0  0  0
   -4.5209   21.9888  -28.0843 H   0  0  0  0  0  0  0  0  0  0  0  0
   -3.1385   23.9737  -27.7111 H   0  0  0  0  0  0  0  0  0  0  0  0
   -3.0861   24.2596  -29.4942 H   0  0  0  0  0  0  0  0  0  0  0  0
   -4.8190   25.4150  -28.0200 H   0  0  0  0  0  0  0  0  0  0  0  0
   -7.4521   23.8899  -29.8456 H   0  0  0  0  0  0  0  0  0  0  0  0
   -7.5037   24.9048  -31.3268 H   0  0  0  0  0  0  0  0  0  0  0  0
   -6.5839   23.3619  -31.3268 H   0  0  0  0  0  0  0  0  0  0  0  0
   -5.3213   21.2261  -30.1182 H   0  0  0  0  0  0  0  0  0  0  0  0
   -5.1776   22.9949  -30.5175 H   0  0  0  0  0  0  0  0  0  0  0  0
   -6.7200   22.2462  -32.0713 H   0  0  0  0  0  0  0  0  0  0  0  0
  1  2  1  0
  2  3  2  0
  3  4  1  0
  4  5  1  0
  4  6  2  0
  6  7  1  0
  7  8  1  0
  8  9  2  0
  8 10  1  0
 10 11  1  0
 11 12  1  0
 12 13  1  0
 13 14  1  0
 14 15  1  0
 15 16  1  0
 16 17  1  0
 17 18  1  0
 17 19  2  0
 17 20  2  0
 14 21  1  0
  7 22  2  0
 22  2  1  0
 21 10  1  0
  1 23  1  0
  1 24  1  0
  1 25  1  0
  3 26  1  0
  5 27  1  0
  5 28  1  0
  5 29  1  0
  6 30  1  0
 11 31  1  0
 11 32  1  0
 12 33  1  0
 12 34  1  0
 13 35  1  0
 13 36  1  0
 14 37  1  1
 15 38  1  0
 15 39  1  0
 16 40  1  0
 18 41  1  0
 18 42  1  0
 18 43  1  0
 21 44  1  0
 21 45  1  0
 22 46  1  0
M  END
>  <UniqueID>  (5) 
5

>  <SMILES>  (5) 
Cc1cc(C)cc(C(=O)N2CCC[C@@H](CNS(C)(=O)=O)C2)c1

>  <Energy>  (5) 
43.80109759904136

>  <Genealogy>  (5) 
Cc1cc(C)cc(C(=O)N2CCC[C@@H](CNS(C)(=O)=O)C2)c1 (chirality)
Cc1cc(C)cc(C(=O)N2CCC[C@@H](CNS(C)(=O)=O)C2)c1 (3D coordinates assigned)
Cc1cc(C)cc(C(=O)N2CCC[C@@H](CNS(C)(=O)=O)C2)c1 (nonaromatic ring conformer: 43.80109759904136 kcal/mol)

>  <smiles>  (5) 
Cc1cc(C)cc(C(=O)N2CCCC(CNS(C)(=O)=O)C2)c1

>  <score_type>  (5) 
oracle

>  <origin>  (5) 
adg

>  <m_score__min__energy>  (5) 
-8.8100000000000005

>  <m_primary>  (5) 
energy

$$$$
5:0
     RDKit          3D

 32 34  0  0  0  0  0  0  0  0999 V2000
   -9.4880   19.4950  -32.7080 C   0  0  0  0  0  0  0  0  0  0  0  0
   -8.2540   20.1880  -32.3520 N   0  0  0  0  0  0  0  0  0  0  0  0
   -8.2160   21.4380  -31.9200 N   0  0  0  0  0  0  0  0  0  0  0  0
   -6.9210   21.7790  -31.7480 C   0  0  0  0  0  0  0  0  0  0  0  0
   -6.5040   23.0990  -31.2280 C   0  0  0  0  0  0  0  0  0  0  0  0
   -7.2420   23.7170  -30.2070 C   0  0  0  0  0  0  0  0  0  0  0  0
   -6.8410   24.9570  -29.7050 C   0  0  0  0  0  0  0  0  0  0  0  0
   -5.6940   25.5640  -30.2180 C   0  0  0  0  0  0  0  0  0  0  0  0
   -4.9740   24.9450  -31.1920 N   0  0  0  0  0  0  0  0  0  0  0  0
   -5.3450   23.7400  -31.6990 C   0  0  0  0  0  0  0  0  0  0  0  0
   -6.1080   20.7030  -32.1040 C   0  0  0  0  0  0  0  0  0  0  0  0
   -4.6330   20.6590  -32.2140 C   0  0  0  0  0  0  0  0  0  0  0  0
   -4.0210   20.4620  -33.4630 C   0  0  0  0  0  0  0  0  0  0  0  0
   -2.6270   20.4250  -33.5680 C   0  0  0  0  0  0  0  0  0  0  0  0
   -1.8350   20.5870  -32.4280 C   0  0  0  0  0  0  0  0  0  0  0  0
   -2.4350   20.7900  -31.1830 C   0  0  0  0  0  0  0  0  0  0  0  0
   -3.8290   20.8290  -31.0750 C   0  0  0  0  0  0  0  0  0  0  0  0
   -6.9990   19.7130  -32.4810 C   0  0  0  0  0  0  0  0  0  0  0  0
   -6.6640   18.4220  -33.0320 C   0  0  0  0  0  0  0  0  0  0  0  0
   -6.3950   17.3870  -33.4740 N   0  0  0  0  0  0  0  0  0  0  0  0
  -10.0186   19.1970  -31.7917 H   0  0  0  0  0  0  0  0  0  0  0  0
  -10.1275   20.1659  -33.3003 H   0  0  0  0  0  0  0  0  0  0  0  0
   -9.2480   18.5997  -33.3003 H   0  0  0  0  0  0  0  0  0  0  0  0
   -8.1378   23.2240  -29.8014 H   0  0  0  0  0  0  0  0  0  0  0  0
   -7.4236   25.4503  -28.9130 H   0  0  0  0  0  0  0  0  0  0  0  0
   -5.3720   26.5434  -29.8346 H   0  0  0  0  0  0  0  0  0  0  0  0
   -4.7357   23.2641  -32.4814 H   0  0  0  0  0  0  0  0  0  0  0  0
   -4.6412   20.3362  -34.3627 H   0  0  0  0  0  0  0  0  0  0  0  0
   -2.1536   20.2683  -34.5485 H   0  0  0  0  0  0  0  0  0  0  0  0
   -0.7386   20.5546  -32.5112 H   0  0  0  0  0  0  0  0  0  0  0  0
   -1.8106   20.9193  -30.2867 H   0  0  0  0  0  0  0  0  0  0  0  0
   -4.2977   20.9936  -30.0936 H   0  0  0  0  0  0  0  0  0  0  0  0
  1  2  1  0
  2  3  1  0
  3  4  2  0
  4  5  1  0
  5  6  2  0
  6  7  1  0
  7  8  2  0
  8  9  1  0
  9 10  2  0
  4 11  1  0
 11 12  1  0
 12 13  2  0
 13 14  1  0
 14 15  2  0
 15 16  1  0
 16 17  2  0
 11 18  2  0
 18 19  1  0
 19 20  3  0
 18  2  1  0
 10  5  1  0
 17 12  1  0
  1 21  1  0
  1 22  1  0
  1 23  1  0
  6 24  1  0
  7 25  1  0
  8 26  1  0
 10 27  1  0
 13 28  1  0
 14 29  1  0
 15 30  1  0
 16 31  1  0
 17 32  1  0
M  END
>  <UniqueID>  (6) 
6

>  <SMILES>  (6) 
Cn1nc(-c2cccnc2)c(-c2ccccc2)c1C#N

>  <Energy>  (6) 
73.56232577268494

>  <Genealogy>  (6) 
Cn1nc(-c2cccnc2)c(-c2ccccc2)c1C#N (3D coordinates assigned)
Cn1nc(-c2cccnc2)c(-c2ccccc2)c1C#N (optimized conformer: 73.56232577268494 kcal/mol)

>  <smiles>  (6) 
Cn1nc(-c2cccnc2)c(-c2ccccc2)c1C#N

>  <score_type>  (6) 
oracle

>  <origin>  (6) 
adg

>  <m_score__min__energy>  (6) 
-7.4400000000000004

>  <m_primary>  (6) 
energy

$$$$
6:0
     RDKit          3D

 45 47  0  0  0  0  0  0  0  0999 V2000
   -2.2680   17.5350  -33.8150 C   0  0  0  0  0  0  0  0  0  0  0  0
   -3.5470   18.2380  -33.7830 N   0  0  0  0  0  0  0  0  0  0  0  0
   -4.6320   17.9550  -34.5240 C   0  0  0  0  0  0  0  0  0  0  0  0
   -5.6220   18.8520  -34.1900 C   0  0  0  0  0  0  0  0  0  0  0  0
   -5.1670   19.6980  -33.2420 N   0  0  0  0  0  0  0  0  0  0  0  0
   -3.8970   19.2980  -33.0220 C   0  0  0  0  0  0  0  0  0  0  0  0
   -3.0090   19.9560  -32.0020 C   0  0  0  0  0  0  0  0  0  0  0  0
   -3.6790   21.1290  -31.4010 N   0  0  0  0  0  0  0  0  0  0  0  0
   -2.9980   21.5460  -30.1540 C   0  0  0  0  0  0  0  0  0  0  0  0
   -3.9630   21.9580  -29.0270 C   0  0  0  0  0  0  0  0  0  0  0  0
   -5.0010   23.0210  -29.4450 C   0  0  0  0  0  0  0  0  0  0  0  0
   -5.6640   22.7270  -30.7350 N   0  0  0  0  0  0  0  0  0  0  0  0
   -7.1090   23.0330  -30.7650 C   0  0  0  0  0  0  0  0  0  0  0  0
   -7.8710   21.8530  -31.3070 C   0  0  0  0  0  0  0  0  0  0  0  0
   -9.2640   21.9160  -31.4630 C   0  0  0  0  0  0  0  0  0  0  0  0
   -9.9450   20.8160  -31.9860 C   0  0  0  0  0  0  0  0  0  0  0  0
   -9.2380   19.6700  -32.3490 C   0  0  0  0  0  0  0  0  0  0  0  0
   -7.8520   19.6410  -32.1850 C   0  0  0  0  0  0  0  0  0  0  0  0
   -7.2000   20.7220  -31.6750 N   0  0  0  0  0  0  0  0  0  0  0  0
   -4.9280   23.1810  -31.9350 C   0  0  0  0  0  0  0  0  0  0  0  0
   -3.7900   22.2430  -32.3680 C   0  0  0  0  0  0  0  0  0  0  0  0
   -1.9268   17.3475  -32.7862 H   0  0  0  0  0  0  0  0  0  0  0  0
   -2.3893   16.5768  -34.3415 H   0  0  0  0  0  0  0  0  0  0  0  0
   -1.5241   18.1510  -34.3415 H   0  0  0  0  0  0  0  0  0  0  0  0
   -4.7147   17.1482  -35.2671 H   0  0  0  0  0  0  0  0  0  0  0  0
   -6.6303   18.8754  -34.6291 H   0  0  0  0  0  0  0  0  0  0  0  0
   -2.7715   19.2311  -31.2095 H   0  0  0  0  0  0  0  0  0  0  0  0
   -2.0885   20.2931  -32.5011 H   0  0  0  0  0  0  0  0  0  0  0  0
   -2.3851   20.7057  -29.7959 H   0  0  0  0  0  0  0  0  0  0  0  0
   -2.3947   22.4325  -30.3994 H   0  0  0  0  0  0  0  0  0  0  0  0
   -4.5033   21.0612  -28.6895 H   0  0  0  0  0  0  0  0  0  0  0  0
   -3.3498   22.4080  -28.2323 H   0  0  0  0  0  0  0  0  0  0  0  0
   -5.7724   23.0800  -28.6631 H   0  0  0  0  0  0  0  0  0  0  0  0
   -4.4585   23.9697  -29.5701 H   0  0  0  0  0  0  0  0  0  0  0  0
   -7.4563   23.2543  -29.7450 H   0  0  0  0  0  0  0  0  0  0  0  0
   -7.2814   23.9046  -31.4135 H   0  0  0  0  0  0  0  0  0  0  0  0
   -9.8142   22.8241  -31.1757 H   0  0  0  0  0  0  0  0  0  0  0  0
  -11.0372   20.8527  -32.1117 H   0  0  0  0  0  0  0  0  0  0  0  0
   -9.7671   18.7978  -32.7604 H   0  0  0  0  0  0  0  0  0  0  0  0
   -7.2849   18.7421  -32.4687 H   0  0  0  0  0  0  0  0  0  0  0  0
   -6.1620   20.6760  -31.5670 H   0  0  0  0  0  0  0  0  0  0  0  0
   -5.6425   23.2637  -32.7672 H   0  0  0  0  0  0  0  0  0  0  0  0
   -4.4630   24.1435  -31.6755 H   0  0  0  0  0  0  0  0  0  0  0  0
   -4.0063   21.8406  -33.3686 H   0  0  0  0  0  0  0  0  0  0  0  0
   -2.8429   22.8018  -32.3963 H   0  0  0  0  0  0  0  0  0  0  0  0
  1  2  1  0
  2  3  1  0
  3  4  2  0
  4  5  1  0
  5  6  2  0
  6  7  1  0
  7  8  1  0
  8  9  1  0
  9 10  1  0
 10 11  1  0
 11 12  1  0
 12 13  1  0
 13 14  1  0
 14 15  2  0
 15 16  1  0
 16 17  2  0
 17 18  1  0
 18 19  2  0
 12 20  1  0
 20 21  1  0
  6  2  1  0
 21  8  1  0
 19 14  1  0
  1 22  1  0
  1 23  1  0
  1 24  1  0
  3 25  1  0
  4 26  1  0
  7 27  1  0
  7 28  1  0
  9 29  1  0
  9 30  1  0
 10 31  1  0
 10 32  1  0
 11 33  1  0
 11 34  1  0
 13 35  1  0
 13 36  1  0
 15 37  1  0
 16 38  1  0
 17 39  1  0
 18 40  1  0
 19 41  1  0
 20 42  1  0
 20 43  1  0
 21 44  1  0
 21 45  1  0
M  CHG  1  19   1
M  END
>  <UniqueID>  (7) 
7

>  <SMILES>  (7) 
Cn1ccnc1CN1CCCN(Cc2cccc[nH+]2)CC1

>  <Energy>  (7) 
87.9438990261674

>  <Genealogy>  (7) 
Cn1ccnc1CN1CCCN(Cc2cccc[nH+]2)CC1 (protonated)
Cn1ccnc1CN1CCCN(Cc2cccc[nH+]2)CC1 (3D coordinates assigned)
Cn1ccnc1CN1CCCN(Cc2cccc[nH+]2)CC1 (nonaromatic ring conformer: 87.9438990261674 kcal/mol)

>  <smiles>  (7) 
Cn1ccnc1CN1CCCN(Cc2ccccn2)CC1

>  <score_type>  (7) 
oracle

>  <origin>  (7) 
adg

>  <m_score__min__energy>  (7) 
-4.2000000000000002

>  <m_primary>  (7) 
energy

$$$$
7:0
     RDKit          3D

 49 52  0  0  0  0  0  0  0  0999 V2000
   -0.8950   21.5530  -32.3730 O   0  0  0  0  0  0  0  0  0  0  0  0
   -2.0740   21.5720  -31.9340 C   0  0  0  0  0  0  0  0  0  0  0  0
   -3.4350   21.6800  -32.5570 C   0  0  1  0  0  0  0  0  0  0  0  0
   -3.7440   20.4800  -33.4680 C   0  0  0  0  0  0  0  0  0  0  0  0
   -4.1630   19.2540  -32.6420 C   0  0  0  0  0  0  0  0  0  0  0  0
   -5.3550   18.5140  -33.2620 C   0  0  0  0  0  0  0  0  0  0  0  0
   -6.6720   19.0040  -32.7180 C   0  0  0  0  0  0  0  0  0  0  0  0
   -7.0380   20.3540  -32.8590 C   0  0  0  0  0  0  0  0  0  0  0  0
   -8.2690   20.8050  -32.3720 C   0  0  0  0  0  0  0  0  0  0  0  0
   -9.1420   19.9140  -31.7430 C   0  0  0  0  0  0  0  0  0  0  0  0
   -8.7910   18.5680  -31.6070 C   0  0  0  0  0  0  0  0  0  0  0  0
   -7.5620   18.1120  -32.0940 C   0  0  0  0  0  0  0  0  0  0  0  0
   -4.0010   21.6020  -31.2250 C   0  0  2  0  0  0  0  0  0  0  0  0
   -4.7610   22.8500  -30.8160 C   0  0  0  0  0  0  0  0  0  0  0  0
   -4.0920   24.0360  -30.4560 C   0  0  0  0  0  0  0  0  0  0  0  0
   -4.8170   25.1780  -30.1040 C   0  0  0  0  0  0  0  0  0  0  0  0
   -6.2130   25.1520  -30.1190 C   0  0  0  0  0  0  0  0  0  0  0  0
   -6.8870   23.9850  -30.4880 C   0  0  0  0  0  0  0  0  0  0  0  0
   -6.1660   22.8400  -30.8400 C   0  0  0  0  0  0  0  0  0  0  0  0
   -2.6990   21.5140  -30.5890 N   0  0  0  0  0  0  0  0  0  0  0  0
   -2.2220   21.3960  -29.2440 C   0  0  0  0  0  0  0  0  0  0  0  0
   -1.2590   22.2900  -28.7520 C   0  0  0  0  0  0  0  0  0  0  0  0
   -0.8000   22.1750  -27.4360 C   0  0  0  0  0  0  0  0  0  0  0  0
   -1.2970   21.1660  -26.6060 C   0  0  0  0  0  0  0  0  0  0  0  0
   -2.2580   20.2730  -27.0890 C   0  0  0  0  0  0  0  0  0  0  0  0
   -2.7170   20.3840  -28.4050 C   0  0  0  0  0  0  0  0  0  0  0  0
   -3.7212   22.5018  -33.2299 H   0  0  0  0  0  0  0  0  0  0  0  0
   -4.5621   20.7493  -34.1522 H   0  0  0  0  0  0  0  0  0  0  0  0
   -2.8353   20.2269  -34.0339 H   0  0  0  0  0  0  0  0  0  0  0  0
   -3.3106   18.5616  -32.5793 H   0  0  0  0  0  0  0  0  0  0  0  0
   -4.4676   19.6075  -31.6459 H   0  0  0  0  0  0  0  0  0  0  0  0
   -5.3413   18.6692  -34.3509 H   0  0  0  0  0  0  0  0  0  0  0  0
   -5.2600   17.4476  -33.0094 H   0  0  0  0  0  0  0  0  0  0  0  0
   -6.3535   21.0583  -33.3543 H   0  0  0  0  0  0  0  0  0  0  0  0
   -8.5502   21.8625  -32.4844 H   0  0  0  0  0  0  0  0  0  0  0  0
  -10.1067   20.2722  -31.3543 H   0  0  0  0  0  0  0  0  0  0  0  0
   -9.4821   17.8667  -31.1165 H   0  0  0  0  0  0  0  0  0  0  0  0
   -7.2904   17.0513  -31.9885 H   0  0  0  0  0  0  0  0  0  0  0  0
   -4.7516   20.8236  -31.0233 H   0  0  0  0  0  0  0  0  0  0  0  0
   -2.9924   24.0637  -30.4518 H   0  0  0  0  0  0  0  0  0  0  0  0
   -4.2875   26.0978  -29.8150 H   0  0  0  0  0  0  0  0  0  0  0  0
   -6.7825   26.0508  -29.8401 H   0  0  0  0  0  0  0  0  0  0  0  0
   -7.9868   23.9671  -30.5016 H   0  0  0  0  0  0  0  0  0  0  0  0
   -6.7015   21.9263  -31.1374 H   0  0  0  0  0  0  0  0  0  0  0  0
   -0.8639   23.0836  -29.4033 H   0  0  0  0  0  0  0  0  0  0  0  0
   -0.0468   22.8795  -27.0535 H   0  0  0  0  0  0  0  0  0  0  0  0
   -0.9318   21.0746  -25.5724 H   0  0  0  0  0  0  0  0  0  0  0  0
   -2.6531   19.4829  -26.4336 H   0  0  0  0  0  0  0  0  0  0  0  0
   -3.4685   19.6762  -28.7847 H   0  0  0  0  0  0  0  0  0  0  0  0
  1  2  2  0
  2  3  1  0
  3  4  1  0
  4  5  1  0
  5  6  1  0
  6  7  1  0
  7  8  2  0
  8  9  1  0
  9 10  2  0
 10 11  1  0
 11 12  2  0
  3 13  1  0
 13 14  1  0
 14 15  2  0
 15 16  1  0
 16 17  2  0
 17 18  1  0
 18 19  2  0
 13 20  1  0
 20 21  1  0
 21 22  2  0
 22 23  1  0
 23 24  2  0
 24 25  1  0
 25 26  2  0
 20  2  1  0
 26 21  1  0
 12  7  1  0
 19 14  1  0
  3 27  1  6
  4 28  1  0
  4 29  1  0
  5 30  1  0
  5 31  1  0
  6 32  1  0
  6 33  1  0
  8 34  1  0
  9 35  1  0
 10 36  1  0
 11 37  1  0
 12 38  1  0
 13 39  1  6
 15 40  1  0
 16 41  1  0
 17 42  1  0
 18 43  1  0
 19 44  1  0
 22 45  1  0
 23 46  1  0
 24 47  1  0
 25 48  1  0
 26 49  1  0
M  END
>  <UniqueID>  (8) 
8

>  <SMILES>  (8) 
O=C1[C@@H](CCCc2ccccc2)[C@H](c2ccccc2)N1c1ccccc1

>  <Energy>  (8) 
78.95239398197329

>  <Genealogy>  (8) 
O=C1[C@@H](CCCc2ccccc2)[C@H](c2ccccc2)N1c1ccccc1 (chirality)
O=C1[C@@H](CCCc2ccccc2)[C@H](c2ccccc2)N1c1ccccc1 (3D coordinates assigned)
O=C1[C@@H](CCCc2ccccc2)[C@H](c2ccccc2)N1c1ccccc1 (nonaromatic ring conformer: 78.95239398197329 kcal/mol)

>  <smiles>  (8) 
O=C1C(CCCc2ccccc2)C(c2ccccc2)N1c1ccccc1

>  <score_type>  (8) 
oracle

>  <origin>  (8) 
adg

>  <m_score__min__energy>  (8) 
-8.9700000000000006

>  <m_primary>  (8) 
energy

$$$$
8:0
     RDKit          3D

 24 24  0  0  0  0  0  0  0  0999 V2000
   -6.6446   25.8570  -30.7334 H   0  0  0  0  0  0  0  0  0  0  0  0
   -6.1360   24.8830  -30.7840 C   0  0  0  0  0  0  0  0  0  0  0  0
   -4.9210   24.8250  -31.2300 N   0  0  0  0  0  0  0  0  0  0  0  0
   -3.8480   25.2300  -30.4670 O   0  0  0  0  0  0  0  0  0  0  0  0
   -3.2970   24.3620  -29.4900 C   0  0  0  0  0  0  0  0  0  0  0  0
   -3.5374   24.7407  -28.4856 H   0  0  0  0  0  0  0  0  0  0  0  0
   -3.7214   23.3547  -29.6133 H   0  0  0  0  0  0  0  0  0  0  0  0
   -2.2048   24.3174  -29.6133 H   0  0  0  0  0  0  0  0  0  0  0  0
   -6.8660   23.6480  -30.3340 C   0  0  0  0  0  0  0  0  0  0  0  0
   -6.1357   22.9127  -29.9652 H   0  0  0  0  0  0  0  0  0  0  0  0
   -7.5683   23.9276  -29.5349 H   0  0  0  0  0  0  0  0  0  0  0  0
   -7.6470   23.0400  -31.4680 C   0  0  0  0  0  0  0  0  0  0  0  0
   -8.4920   23.7650  -32.0600 O   0  0  0  0  0  0  0  0  0  0  0  0
   -7.4380   21.6360  -31.9200 C   0  0  0  0  0  0  0  0  0  0  0  0
   -6.1950   21.2000  -32.4220 C   0  0  0  0  0  0  0  0  0  0  0  0
   -5.3535   21.9058  -32.4832 H   0  0  0  0  0  0  0  0  0  0  0  0
   -6.0230   19.8770  -32.8430 C   0  0  0  0  0  0  0  0  0  0  0  0
   -5.0477   19.5468  -33.2301 H   0  0  0  0  0  0  0  0  0  0  0  0
   -7.0870   18.9740  -32.7730 C   0  0  0  0  0  0  0  0  0  0  0  0
   -6.8670   17.3160  -33.3030 Cl  0  0  0  0  0  0  0  0  0  0  0  0
   -8.3240   19.3930  -32.2800 C   0  0  0  0  0  0  0  0  0  0  0  0
   -9.1613   18.6819  -32.2227 H   0  0  0  0  0  0  0  0  0  0  0  0
   -8.5010   20.7140  -31.8590 C   0  0  0  0  0  0  0  0  0  0  0  0
   -9.4804   21.0368  -31.4762 H   0  0  0  0  0  0  0  0  0  0  0  0
  1  2  1  0
  2  3  2  0
  3  4  1  0
  4  5  1  0
  5  6  1  0
  5  7  1  0
  5  8  1  0
  2  9  1  0
  9 10  1  0
  9 11  1  0
  9 12  1  0
 12 13  2  0
 12 14  1  0
 14 15  2  0
 15 16  1  0
 15 17  1  0
 17 18  1  0
 17 19  2  0
 19 20  1  0
 19 21  1  0
 21 22  1  0
 21 23  2  0
 23 24  1  0
 23 14  1  0
M  END
>  <UniqueID>  (9) 
9

>  <SMILES>  (9) 
CO/N=C\CC(=O)c1ccc(Cl)cc1

>  <Energy>  (9) 
18.118212591540342

>  <Genealogy>  (9) 
CO/N=C\CC(=O)c1ccc(Cl)cc1 (cis-trans isomerization)
CO/N=C\CC(=O)c1ccc(Cl)cc1 (3D coordinates assigned)
CO/N=C\CC(=O)c1ccc(Cl)cc1 (optimized conformer: 18.118212591540342 kcal/mol)

>  <smiles>  (9) 
CON=CCC(=O)c1ccc(Cl)cc1

>  <score_type>  (9) 
oracle

>  <origin>  (9) 
adg

>  <m_score__min__energy>  (9) 
-6.9800000000000004

>  <m_primary>  (9) 
energy

$$$$
9:0
     RDKit          3D

 33 34  0  0  0  0  0  0  0  0999 V2000
   -7.2180   23.6620  -31.0300 C   0  0  0  0  0  0  0  0  0  0  0  0
   -6.4640   24.3810  -29.9130 C   0  0  0  0  0  0  0  0  0  0  0  0
   -5.6600   25.5900  -30.4250 C   0  0  0  0  0  0  0  0  0  0  0  0
   -4.2400   25.2750  -30.6790 N   0  0  0  0  0  0  0  0  0  0  0  0
   -3.9670   23.8310  -30.6590 C   0  0  0  0  0  0  0  0  0  0  0  0
   -2.7940   23.5360  -29.7770 C   0  0  0  0  0  0  0  0  0  0  0  0
   -2.5780   24.0640  -28.5120 C   0  0  0  0  0  0  0  0  0  0  0  0
   -1.3970   23.5940  -27.9040 C   0  0  0  0  0  0  0  0  0  0  0  0
   -0.9470   24.0090  -26.5510 C   0  0  0  0  0  0  0  0  0  0  0  0
   -0.1350   23.1650  -25.7750 C   0  0  0  0  0  0  0  0  0  0  0  0
    0.2780   23.5760  -24.5050 C   0  0  0  0  0  0  0  0  0  0  0  0
   -0.1030   24.7880  -24.0190 N   0  0  0  0  0  0  0  0  0  0  0  0
   -0.8890   25.6260  -24.7460 C   0  0  0  0  0  0  0  0  0  0  0  0
   -1.2550   26.8260  -24.2310 F   0  0  0  0  0  0  0  0  0  0  0  0
   -1.3220   25.2550  -26.0200 C   0  0  0  0  0  0  0  0  0  0  0  0
   -0.6950   22.6940  -28.7080 C   0  0  0  0  0  0  0  0  0  0  0  0
   -1.5390   22.4850  -30.1480 S   0  0  0  0  0  0  0  0  0  0  0  0
   -7.9479   22.9660  -30.5907 H   0  0  0  0  0  0  0  0  0  0  0  0
   -7.7444   24.4011  -31.6518 H   0  0  0  0  0  0  0  0  0  0  0  0
   -6.5047   23.1011  -31.6518 H   0  0  0  0  0  0  0  0  0  0  0  0
   -7.1913   24.7322  -29.1662 H   0  0  0  0  0  0  0  0  0  0  0  0
   -5.7501   23.6657  -29.4786 H   0  0  0  0  0  0  0  0  0  0  0  0
   -6.1142   25.9406  -31.3635 H   0  0  0  0  0  0  0  0  0  0  0  0
   -5.6901   26.3603  -29.6403 H   0  0  0  0  0  0  0  0  0  0  0  0
   -3.9290   25.6650  -31.5990 H   0  0  0  0  0  0  0  0  0  0  0  0
   -4.8511   23.2998  -30.2766 H   0  0  0  0  0  0  0  0  0  0  0  0
   -3.7389   23.4959  -31.6816 H   0  0  0  0  0  0  0  0  0  0  0  0
   -3.2616   24.7792  -28.0312 H   0  0  0  0  0  0  0  0  0  0  0  0
    0.1744   22.1844  -26.1657 H   0  0  0  0  0  0  0  0  0  0  0  0
    0.9138   22.9168  -23.8957 H   0  0  0  0  0  0  0  0  0  0  0  0
    0.2150   25.0770  -23.0670 H   0  0  0  0  0  0  0  0  0  0  0  0
   -1.9553   25.9363  -26.6071 H   0  0  0  0  0  0  0  0  0  0  0  0
    0.2531   22.2029  -28.4436 H   0  0  0  0  0  0  0  0  0  0  0  0
  1  2  1  0
  2  3  1  0
  3  4  1  0
  4  5  1  0
  5  6  1  0
  6  7  2  0
  7  8  1  0
  8  9  1  0
  9 10  2  0
 10 11  1  0
 11 12  2  0
 12 13  1  0
 13 14  1  0
 13 15  2  0
  8 16  2  0
 16 17  1  0
 17  6  1  0
 15  9  1  0
  1 18  1  0
  1 19  1  0
  1 20  1  0
  2 21  1  0
  2 22  1  0
  3 23  1  0
  3 24  1  0
  4 25  1  0
  5 26  1  0
  5 27  1  0
  7 28  1  0
 10 29  1  0
 11 30  1  0
 12 31  1  0
 15 32  1  0
 16 33  1  0
M  CHG  1  12   1
M  END
>  <UniqueID>  (10) 
10

>  <SMILES>  (10) 
CCCNCc1cc(-c2cc[nH+]c(F)c2)cs1

>  <Energy>  (10) 
59.44096024314417

>  <Genealogy>  (10) 
CCCNCc1cc(-c2cc[nH+]c(F)c2)cs1 (protonated)
CCCNCc1cc(-c2cc[nH+]c(F)c2)cs1 (3D coordinates assigned)
CCCNCc1cc(-c2cc[nH+]c(F)c2)cs1 (optimized conformer: 59.44096024314417 kcal/mol)

>  <smiles>  (10) 
CCCNCc1cc(-c2ccnc(F)c2)cs1

>  <score_type>  (10) 
oracle

>  <origin>  (10) 
adg

>  <m_score__min__energy>  (10) 
-6.8600000000000003

>  <m_primary>  (10) 
energy

$$$$
10:0
     RDKit          3D

 55 58  0  0  0  0  0  0  0  0999 V2000
   -1.2460   26.4380  -24.5450 C   0  0  0  0  0  0  0  0  0  0  0  0
   -0.9360   25.0270  -24.9370 C   0  0  0  0  0  0  0  0  0  0  0  0
   -0.1170   24.2260  -24.2280 N   0  0  0  0  0  0  0  0  0  0  0  0
   -0.0950   23.0540  -24.8890 C   0  0  0  0  0  0  0  0  0  0  0  0
   -0.9090   23.1570  -25.9970 C   0  0  0  0  0  0  0  0  0  0  0  0
   -1.4380   24.3970  -26.0230 N   0  0  0  0  0  0  0  0  0  0  0  0
   -2.3180   24.9380  -27.0590 C   0  0  0  0  0  0  0  0  0  0  0  0
   -3.7020   24.2840  -27.0220 C   0  0  0  0  0  0  0  0  0  0  0  0
   -3.8720   23.2910  -28.1440 C   0  0  0  0  0  0  0  0  0  0  0  0
   -3.4310   22.1220  -27.9810 O   0  0  0  0  0  0  0  0  0  0  0  0
   -4.4740   23.6630  -29.4040 N   0  0  0  0  0  0  0  0  0  0  0  0
   -5.4850   24.7330  -29.4630 C   0  0  0  0  0  0  0  0  0  0  0  0
   -6.2610   24.7150  -30.7870 C   0  0  0  0  0  0  0  0  0  0  0  0
   -6.5550   23.2590  -31.2050 C   0  0  0  0  0  0  0  0  0  0  0  0
   -5.2680   22.4040  -31.3880 C   0  0  0  0  0  0  0  0  0  0  0  0
   -4.0600   22.9930  -30.6450 C   0  0  0  0  0  0  0  0  0  0  0  0
   -7.5560   23.1370  -32.3570 C   0  0  0  0  0  0  0  0  0  0  0  0
   -8.5660   22.4820  -31.5150 N   0  0  0  0  0  0  0  0  0  0  0  0
   -8.9320   21.1020  -31.9270 C   0  0  0  0  0  0  0  0  0  0  0  0
   -7.7910   20.1760  -32.3230 C   0  0  0  0  0  0  0  0  0  0  0  0
   -7.0320   20.4260  -33.4800 C   0  0  0  0  0  0  0  0  0  0  0  0
   -5.9890   19.5710  -33.8420 C   0  0  0  0  0  0  0  0  0  0  0  0
   -5.7170   18.4330  -33.0770 C   0  0  0  0  0  0  0  0  0  0  0  0
   -4.4070   17.3600  -33.5310 Cl  0  0  0  0  0  0  0  0  0  0  0  0
   -6.4990   18.1460  -31.9550 C   0  0  0  0  0  0  0  0  0  0  0  0
   -7.5400   19.0020  -31.5890 C   0  0  0  0  0  0  0  0  0  0  0  0
   -7.6550   22.5900  -30.3670 C   0  0  0  0  0  0  0  0  0  0  0  0
   -1.2637   26.5184  -23.4481 H   0  0  0  0  0  0  0  0  0  0  0  0
   -0.4739   27.1090  -24.9494 H   0  0  0  0  0  0  0  0  0  0  0  0
   -2.2283   26.7235  -24.9494 H   0  0  0  0  0  0  0  0  0  0  0  0
    0.3980   24.4590  -23.3450 H   0  0  0  0  0  0  0  0  0  0  0  0
    0.4773   22.1620  -24.5943 H   0  0  0  0  0  0  0  0  0  0  0  0
   -1.0953   22.3625  -26.7346 H   0  0  0  0  0  0  0  0  0  0  0  0
   -2.4307   26.0208  -26.9017 H   0  0  0  0  0  0  0  0  0  0  0  0
   -1.8647   24.7281  -28.0390 H   0  0  0  0  0  0  0  0  0  0  0  0
   -3.8259   23.7629  -26.0612 H   0  0  0  0  0  0  0  0  0  0  0  0
   -4.4603   25.0721  -27.1396 H   0  0  0  0  0  0  0  0  0  0  0  0
   -6.1944   24.5981  -28.6332 H   0  0  0  0  0  0  0  0  0  0  0  0
   -4.9640   25.6988  -29.3864 H   0  0  0  0  0  0  0  0  0  0  0  0
   -7.2100   25.2567  -30.6607 H   0  0  0  0  0  0  0  0  0  0  0  0
   -5.6562   25.2002  -31.5673 H   0  0  0  0  0  0  0  0  0  0  0  0
   -5.4595   21.3915  -31.0031 H   0  0  0  0  0  0  0  0  0  0  0  0
   -5.0260   22.3898  -32.4610 H   0  0  0  0  0  0  0  0  0  0  0  0
   -3.3600   22.1812  -30.3981 H   0  0  0  0  0  0  0  0  0  0  0  0
   -3.5781   23.7358  -31.2977 H   0  0  0  0  0  0  0  0  0  0  0  0
   -7.8833   24.1084  -32.7560 H   0  0  0  0  0  0  0  0  0  0  0  0
   -7.2369   22.6390  -33.2845 H   0  0  0  0  0  0  0  0  0  0  0  0
   -9.4631   20.6337  -31.0852 H   0  0  0  0  0  0  0  0  0  0  0  0
   -9.5316   21.2252  -32.8410 H   0  0  0  0  0  0  0  0  0  0  0  0
   -7.2616   21.3018  -34.1047 H   0  0  0  0  0  0  0  0  0  0  0  0
   -5.3803   19.7934  -34.7308 H   0  0  0  0  0  0  0  0  0  0  0  0
   -6.2943   17.2443  -31.3591 H   0  0  0  0  0  0  0  0  0  0  0  0
   -8.1686   18.7566  -30.7203 H   0  0  0  0  0  0  0  0  0  0  0  0
   -8.0413   23.2304  -29.5603 H   0  0  0  0  0  0  0  0  0  0  0  0
   -7.4098   21.6821  -29.7964 H   0  0  0  0  0  0  0  0  0  0  0  0
  1  2  1  0
  2  3  2  0
  3  4  1  0
  4  5  2  0
  5  6  1  0
  6  7  1  0
  7  8  1  0
  8  9  1  0
  9 10  2  0
  9 11  1  0
 11 12  1  0
 12 13  1  0
 13 14  1  0
 14 15  1  0
 15 16  1  0
 14 17  1  0
 17 18  1  0
 18 19  1  0
 19 20  1  0
 20 21  2  0
 21 22  1  0
 22 23  2  0
 23 24  1  0
 23 25  1  0
 25 26  2  0
 18 27  1  0
  6  2  1  0
 16 11  1  0
 26 20  1  0
 27 14  1  0
  1 28  1  0
  1 29  1  0
  1 30  1  0
  3 31  1  0
  4 32  1  0
  5 33  1  0
  7 34  1  0
  7 35  1  0
  8 36  1  0
  8 37  1  0
 12 38  1  0
 12 39  1  0
 13 40  1  0
 13 41  1  0
 15 42  1  0
 15 43  1  0
 16 44  1  0
 16 45  1  0
 17 46  1  0
 17 47  1  0
 19 48  1  0
 19 49  1  0
 21 50  1  0
 22 51  1  0
 25 52  1  0
 26 53  1  0
 27 54  1  0
 27 55  1  0
M  CHG  1   3   1
M  END
>  <UniqueID>  (11) 
11

>  <SMILES>  (11) 
Cc1[nH+]ccn1CCC(=O)N1CCC2(CC1)CN(Cc1ccc(Cl)cc1)C2

>  <Energy>  (11) 
162.21931904435718

>  <Genealogy>  (11) 
Cc1[nH+]ccn1CCC(=O)N1CCC2(CC1)CN(Cc1ccc(Cl)cc1)C2 (protonated)
Cc1[nH+]ccn1CCC(=O)N1CCC2(CC1)CN(Cc1ccc(Cl)cc1)C2 (3D coordinates assigned)
Cc1[nH+]ccn1CCC(=O)N1CCC2(CC1)CN(Cc1ccc(Cl)cc1)C2 (nonaromatic ring conformer: 162.21931904435718 kcal/mol)

>  <smiles>  (11) 
Cc1nccn1CCC(=O)N1CCC2(CC1)CN(Cc1ccc(Cl)cc1)C2

>  <score_type>  (11) 
oracle

>  <origin>  (11) 
adg

>  <m_score__min__energy>  (11) 
-9.7599999999999998

>  <m_primary>  (11) 
energy

$$$$
11:0
     RDKit          3D

 46 47  0  0  0  0  0  0  0  0999 V2000
   -9.3490   23.4220  -32.3180 C   0  0  0  0  0  0  0  0  0  0  0  0
   -8.1240   22.6920  -31.9510 N   0  0  0  0  0  0  0  0  0  0  0  0
   -8.3980   21.8290  -30.7890 C   0  0  0  0  0  0  0  0  0  0  0  0
   -7.0230   23.6380  -31.6630 C   0  0  0  0  0  0  0  0  0  0  0  0
   -6.8710   23.8280  -30.1460 C   0  0  0  0  0  0  0  0  0  0  0  0
   -6.2150   25.1690  -29.7690 C   0  0  0  0  0  0  0  0  0  0  0  0
   -5.1840   25.6670  -30.7930 C   0  0  0  0  0  0  0  0  0  0  0  0
   -3.8940   25.1050  -30.5500 O   0  0  0  0  0  0  0  0  0  0  0  0
   -3.6310   23.9180  -29.8480 C   0  0  0  0  0  0  0  0  0  0  0  0
   -3.3780   23.9090  -28.4610 C   0  0  0  0  0  0  0  0  0  0  0  0
   -3.0970   22.7090  -27.8020 C   0  0  0  0  0  0  0  0  0  0  0  0
   -3.0600   21.5100  -28.5140 C   0  0  0  0  0  0  0  0  0  0  0  0
   -3.3120   21.5050  -29.8870 C   0  0  0  0  0  0  0  0  0  0  0  0
   -3.6090   22.7010  -30.5620 C   0  0  0  0  0  0  0  0  0  0  0  0
   -3.8910   22.6740  -32.0440 C   0  0  0  0  0  0  0  0  0  0  0  0
   -4.2940   21.2930  -32.4870 C   0  0  0  0  0  0  0  0  0  0  0  0
   -3.3660   20.4590  -33.1310 C   0  0  0  0  0  0  0  0  0  0  0  0
   -3.7440   19.1830  -33.5610 C   0  0  0  0  0  0  0  0  0  0  0  0
   -5.0500   18.7320  -33.3520 C   0  0  0  0  0  0  0  0  0  0  0  0
   -5.9810   19.5560  -32.7130 C   0  0  0  0  0  0  0  0  0  0  0  0
   -5.6070   20.8320  -32.2810 C   0  0  0  0  0  0  0  0  0  0  0  0
   -9.8761   23.7361  -31.4050 H   0  0  0  0  0  0  0  0  0  0  0  0
   -9.0832   24.3092  -32.9116 H   0  0  0  0  0  0  0  0  0  0  0  0
  -10.0028   22.7661  -32.9116 H   0  0  0  0  0  0  0  0  0  0  0  0
   -8.2186   22.3939  -29.8623 H   0  0  0  0  0  0  0  0  0  0  0  0
   -9.4460   21.4961  -30.8185 H   0  0  0  0  0  0  0  0  0  0  0  0
   -7.7339   20.9526  -30.8185 H   0  0  0  0  0  0  0  0  0  0  0  0
   -6.0842   23.2396  -32.0753 H   0  0  0  0  0  0  0  0  0  0  0  0
   -7.2535   24.6091  -32.1254 H   0  0  0  0  0  0  0  0  0  0  0  0
   -7.8692   23.7847  -29.6858 H   0  0  0  0  0  0  0  0  0  0  0  0
   -6.2137   23.0261  -29.7788 H   0  0  0  0  0  0  0  0  0  0  0  0
   -7.0061   25.9278  -29.6769 H   0  0  0  0  0  0  0  0  0  0  0  0
   -5.6744   25.0058  -28.8250 H   0  0  0  0  0  0  0  0  0  0  0  0
   -5.5148   25.3803  -31.8022 H   0  0  0  0  0  0  0  0  0  0  0  0
   -5.1074   26.7606  -30.7029 H   0  0  0  0  0  0  0  0  0  0  0  0
   -3.4019   24.8516  -27.8945 H   0  0  0  0  0  0  0  0  0  0  0  0
   -2.9045   22.7100  -26.7190 H   0  0  0  0  0  0  0  0  0  0  0  0
   -2.8322   20.5682  -27.9934 H   0  0  0  0  0  0  0  0  0  0  0  0
   -3.2778   20.5575  -30.4447 H   0  0  0  0  0  0  0  0  0  0  0  0
   -4.7066   23.3770  -32.2686 H   0  0  0  0  0  0  0  0  0  0  0  0
   -2.9763   22.9637  -32.5820 H   0  0  0  0  0  0  0  0  0  0  0  0
   -2.3372   20.8108  -33.2980 H   0  0  0  0  0  0  0  0  0  0  0  0
   -3.0125   18.5337  -34.0643 H   0  0  0  0  0  0  0  0  0  0  0  0
   -5.3456   17.7280  -33.6905 H   0  0  0  0  0  0  0  0  0  0  0  0
   -7.0090   19.2001  -32.5499 H   0  0  0  0  0  0  0  0  0  0  0  0
   -6.3420   21.4777  -31.7783 H   0  0  0  0  0  0  0  0  0  0  0  0
  1  2  1  0
  2  3  1  0
  2  4  1  0
  4  5  1  0
  5  6  1  0
  6  7  1  0
  7  8  1  0
  8  9  1  0
  9 10  2  0
 10 11  1  0
 11 12  2  0
 12 13  1  0
 13 14  2  0
 14 15  1  0
 15 16  1  0
 16 17  2  0
 17 18  1  0
 18 19  2  0
 19 20  1  0
 20 21  2  0
 14  9  1  0
 21 16  1  0
  1 22  1  0
  1 23  1  0
  1 24  1  0
  3 25  1  0
  3 26  1  0
  3 27  1  0
  4 28  1  0
  4 29  1  0
  5 30  1  0
  5 31  1  0
  6 32  1  0
  6 33  1  0
  7 34  1  0
  7 35  1  0
 10 36  1  0
 11 37  1  0
 12 38  1  0
 13 39  1  0
 15 40  1  0
 15 41  1  0
 17 42  1  0
 18 43  1  0
 19 44  1  0
 20 45  1  0
 21 46  1  0
M  END
>  <UniqueID>  (12) 
12

>  <SMILES>  (12) 
CN(C)CCCCOc1ccccc1Cc1ccccc1

>  <Energy>  (12) 
40.65942263839846

>  <Genealogy>  (12) 
CN(C)CCCCOc1ccccc1Cc1ccccc1 (3D coordinates assigned)
CN(C)CCCCOc1ccccc1Cc1ccccc1 (optimized conformer: 40.65942263839846 kcal/mol)

>  <smiles>  (12) 
CN(C)CCCCOc1ccccc1Cc1ccccc1

>  <score_type>  (12) 
oracle

>  <origin>  (12) 
adg

>  <m_score__min__energy>  (12) 
-7.1699999999999999

>  <m_primary>  (12) 
energy

$$$$
12:0
     RDKit          3D

 57 58  0  0  0  0  0  0  0  0999 V2000
   -6.4630   17.2710  -33.8610 C   0  0  0  0  0  0  0  0  0  0  0  0
   -5.7700   18.3610  -34.4590 O   0  0  0  0  0  0  0  0  0  0  0  0
   -4.9870   19.2900  -33.7560 C   0  0  0  0  0  0  0  0  0  0  0  0
   -5.5300   20.4540  -33.1850 C   0  0  0  0  0  0  0  0  0  0  0  0
   -4.7230   21.3670  -32.4780 C   0  0  0  0  0  0  0  0  0  0  0  0
   -5.3110   22.5620  -31.9160 N   0  0  0  0  0  0  0  0  0  0  0  0
   -6.5080   22.5740  -31.0590 C   0  0  2  0  0  0  0  0  0  0  0  0
   -7.7850   22.5060  -31.9070 C   0  0  0  0  0  0  0  0  0  0  0  0
   -6.5190   23.7810  -30.0820 C   0  0  0  0  0  0  0  0  0  0  0  0
   -6.2630   25.1710  -30.7010 C   0  0  0  0  0  0  0  0  0  0  0  0
   -4.8510   25.6970  -30.4480 C   0  0  0  0  0  0  0  0  0  0  0  0
   -3.8850   24.6220  -30.6250 N   0  0  0  0  0  0  0  0  0  0  0  0
   -3.0620   24.1440  -29.5580 C   0  0  0  0  0  0  0  0  0  0  0  0
   -1.8200   24.0050  -29.7210 O   0  0  0  0  0  0  0  0  0  0  0  0
   -3.6730   23.8580  -28.2220 C   0  0  0  0  0  0  0  0  0  0  0  0
   -3.8810   22.3480  -28.0440 C   0  0  0  0  0  0  0  0  0  0  0  0
   -2.5530   21.5580  -28.0250 C   0  0  0  0  0  0  0  0  0  0  0  0
   -1.5530   22.2350  -27.0810 C   0  0  0  0  0  0  0  0  0  0  0  0
   -2.7620   20.0980  -27.5960 C   0  0  0  0  0  0  0  0  0  0  0  0
   -3.3330   21.1020  -32.3520 C   0  0  0  0  0  0  0  0  0  0  0  0
   -2.4940   21.9390  -31.6590 N   0  0  0  0  0  0  0  0  0  0  0  0
   -1.1630   21.6800  -31.5340 C   0  0  0  0  0  0  0  0  0  0  0  0
   -0.6090   20.5400  -32.1070 C   0  0  0  0  0  0  0  0  0  0  0  0
   -1.4260   19.6590  -32.8090 C   0  0  0  0  0  0  0  0  0  0  0  0
   -2.7950   19.9270  -32.9360 C   0  0  0  0  0  0  0  0  0  0  0  0
   -3.6230   19.0370  -33.6290 C   0  0  0  0  0  0  0  0  0  0  0  0
   -6.4077   17.3579  -32.7658 H   0  0  0  0  0  0  0  0  0  0  0  0
   -7.5163   17.2882  -34.1775 H   0  0  0  0  0  0  0  0  0  0  0  0
   -6.0005   16.3245  -34.1775 H   0  0  0  0  0  0  0  0  0  0  0  0
   -6.6060   20.6560  -33.2923 H   0  0  0  0  0  0  0  0  0  0  0  0
   -4.9020   23.4860  -32.1840 H   0  0  0  0  0  0  0  0  0  0  0  0
   -6.4753   21.6722  -30.4299 H   0  0  0  0  0  0  0  0  0  0  0  0
   -8.6625   22.4593  -31.2453 H   0  0  0  0  0  0  0  0  0  0  0  0
   -7.8517   23.4019  -32.5418 H   0  0  0  0  0  0  0  0  0  0  0  0
   -7.7562   21.6081  -32.5418 H   0  0  0  0  0  0  0  0  0  0  0  0
   -7.5054   23.8083  -29.5959 H   0  0  0  0  0  0  0  0  0  0  0  0
   -5.6761   23.6081  -29.3967 H   0  0  0  0  0  0  0  0  0  0  0  0
   -6.4204   25.1032  -31.7876 H   0  0  0  0  0  0  0  0  0  0  0  0
   -6.9617   25.8732  -30.2228 H   0  0  0  0  0  0  0  0  0  0  0  0
   -4.6303   26.5070  -31.1588 H   0  0  0  0  0  0  0  0  0  0  0  0
   -4.7848   26.0789  -29.4185 H   0  0  0  0  0  0  0  0  0  0  0  0
   -3.0047   24.2281  -27.4306 H   0  0  0  0  0  0  0  0  0  0  0  0
   -4.6479   24.3635  -28.1587 H   0  0  0  0  0  0  0  0  0  0  0  0
   -4.4061   22.1754  -27.0930 H   0  0  0  0  0  0  0  0  0  0  0  0
   -4.4661   21.9909  -28.9043 H   0  0  0  0  0  0  0  0  0  0  0  0
   -2.1546   21.5552  -29.0503 H   0  0  0  0  0  0  0  0  0  0  0  0
   -1.8427   22.0389  -26.0381 H   0  0  0  0  0  0  0  0  0  0  0  0
   -0.5458   21.8322  -27.2637 H   0  0  0  0  0  0  0  0  0  0  0  0
   -1.5528   23.3197  -27.2637 H   0  0  0  0  0  0  0  0  0  0  0  0
   -2.7708   20.0362  -26.4978 H   0  0  0  0  0  0  0  0  0  0  0  0
   -3.7215   19.7334  -27.9915 H   0  0  0  0  0  0  0  0  0  0  0  0
   -1.9433   19.4788  -27.9915 H   0  0  0  0  0  0  0  0  0  0  0  0
   -2.8430   22.7980  -31.1880 H   0  0  0  0  0  0  0  0  0  0  0  0
   -0.5212   22.3775  -30.9758 H   0  0  0  0  0  0  0  0  0  0  0  0
    0.4672   20.3363  -32.0059 H   0  0  0  0  0  0  0  0  0  0  0  0
   -0.9974   18.7536  -33.2635 H   0  0  0  0  0  0  0  0  0  0  0  0
   -3.1930   18.1293  -34.0776 H   0  0  0  0  0  0  0  0  0  0  0  0
  1  2  1  0
  2  3  1  0
  3  4  2  0
  4  5  1  0
  5  6  1  0
  6  7  1  0
  7  8  1  0
  7  9  1  0
  9 10  1  0
 10 11  1  0
 11 12  1  0
 12 13  1  0
 13 14  2  0
 13 15  1  0
 15 16  1  0
 16 17  1  0
 17 18  1  0
 17 19  1  0
  5 20  2  0
 20 21  1  0
 21 22  2  0
 22 23  1  0
 23 24  2  0
 24 25  1  0
 25 26  2  0
 26  3  1  0
 25 20  1  0
  1 27  1  0
  1 28  1  0
  1 29  1  0
  4 30  1  0
  6 31  1  0
  7 32  1  1
  8 33  1  0
  8 34  1  0
  8 35  1  0
  9 36  1  0
  9 37  1  0
 10 38  1  0
 10 39  1  0
 11 40  1  0
 11 41  1  0
 15 42  1  0
 15 43  1  0
 16 44  1  0
 16 45  1  0
 17 46  1  0
 18 47  1  0
 18 48  1  0
 18 49  1  0
 19 50  1  0
 19 51  1  0
 19 52  1  0
 21 53  1  0
 22 54  1  0
 23 55  1  0
 24 56  1  0
 26 57  1  0
M  CHG  2  12  -1  21   1
M  END
>  <UniqueID>  (13) 
13

>  <SMILES>  (13) 
COc1cc(N[C@H](C)CCC[N-]C(=O)CCC(C)C)c2[nH+]cccc2c1

>  <Energy>  (13) 
46.04558315933697

>  <Genealogy>  (13) 
COc1cc(NC(C)CCC[N-]C(=O)CCC(C)C)c2[nH+]cccc2c1 (protonated)
COc1cc(N[C@H](C)CCC[N-]C(=O)CCC(C)C)c2[nH+]cccc2c1 (chirality)
COc1cc(N[C@H](C)CCC[N-]C(=O)CCC(C)C)c2[nH+]cccc2c1 (3D coordinates assigned)
COc1cc(N[C@H](C)CCC[N-]C(=O)CCC(C)C)c2[nH+]cccc2c1 (optimized conformer: 46.04558315933697 kcal/mol)

>  <smiles>  (13) 
COc1cc(NC(C)CCCNC(=O)CCC(C)C)c2ncccc2c1

>  <score_type>  (13) 
oracle

>  <origin>  (13) 
adg

>  <m_score__min__energy>  (13) 
-9.6500000000000004

>  <m_primary>  (13) 
energy

$$$$
13:0
     RDKit          3D

 32 34  0  0  0  0  0  0  0  0999 V2000
   -6.0940   18.5910  -34.0540 C   0  0  0  0  0  0  0  0  0  0  0  0
   -6.7120   19.5550  -33.0860 C   0  0  0  0  0  0  0  0  0  0  0  0
   -8.0000   19.3210  -32.5830 C   0  0  0  0  0  0  0  0  0  0  0  0
   -8.5850   20.2300  -31.7000 C   0  0  0  0  0  0  0  0  0  0  0  0
   -7.8980   21.3870  -31.3260 C   0  0  0  0  0  0  0  0  0  0  0  0
   -6.6170   21.6570  -31.8420 C   0  0  0  0  0  0  0  0  0  0  0  0
   -5.9050   22.8950  -31.4340 C   0  0  0  0  0  0  0  0  0  0  0  0
   -6.4650   24.1690  -31.6210 C   0  0  0  0  0  0  0  0  0  0  0  0
   -5.7420   25.2860  -31.2080 C   0  0  0  0  0  0  0  0  0  0  0  0
   -4.5230   25.1320  -30.6310 N   0  0  0  0  0  0  0  0  0  0  0  0
   -3.9880   23.8970  -30.4430 C   0  0  0  0  0  0  0  0  0  0  0  0
   -2.6640   23.7360  -29.8090 C   0  0  0  0  0  0  0  0  0  0  0  0
   -2.0090   22.4920  -29.7860 C   0  0  0  0  0  0  0  0  0  0  0  0
   -0.7580   22.3870  -29.1750 C   0  0  0  0  0  0  0  0  0  0  0  0
   -0.1690   23.5110  -28.5950 C   0  0  0  0  0  0  0  0  0  0  0  0
   -0.8460   24.7320  -28.6350 C   0  0  0  0  0  0  0  0  0  0  0  0
   -2.0640   24.8160  -29.2330 N   0  0  0  0  0  0  0  0  0  0  0  0
   -4.6820   22.7970  -30.8420 N   0  0  0  0  0  0  0  0  0  0  0  0
   -6.0300   20.7280  -32.7230 C   0  0  0  0  0  0  0  0  0  0  0  0
   -5.5815   17.7916  -33.4987 H   0  0  0  0  0  0  0  0  0  0  0  0
   -6.8797   18.1524  -34.6867 H   0  0  0  0  0  0  0  0  0  0  0  0
   -5.3674   19.1218  -34.6867 H   0  0  0  0  0  0  0  0  0  0  0  0
   -8.5510   18.4182  -32.8853 H   0  0  0  0  0  0  0  0  0  0  0  0
   -9.5899   20.0346  -31.2976 H   0  0  0  0  0  0  0  0  0  0  0  0
   -8.3623   22.0933  -30.6220 H   0  0  0  0  0  0  0  0  0  0  0  0
   -7.4559   24.2830  -32.0848 H   0  0  0  0  0  0  0  0  0  0  0  0
   -6.1594   26.2938  -31.3496 H   0  0  0  0  0  0  0  0  0  0  0  0
   -2.4780   21.6094  -30.2453 H   0  0  0  0  0  0  0  0  0  0  0  0
   -0.2370   21.4185  -29.1509 H   0  0  0  0  0  0  0  0  0  0  0  0
    0.8165   23.4364  -28.1121 H   0  0  0  0  0  0  0  0  0  0  0  0
   -0.3933   25.6264  -28.1822 H   0  0  0  0  0  0  0  0  0  0  0  0
   -5.0272   20.9231  -33.1309 H   0  0  0  0  0  0  0  0  0  0  0  0
  1  2  1  0
  2  3  2  0
  3  4  1  0
  4  5  2  0
  5  6  1  0
  6  7  1  0
  7  8  2  0
  8  9  1  0
  9 10  2  0
 10 11  1  0
 11 12  1  0
 12 13  2  0
 13 14  1  0
 14 15  2  0
 15 16  1  0
 16 17  2  0
 11 18  2  0
  6 19  2  0
 19  2  1  0
 18  7  1  0
 17 12  1  0
  1 20  1  0
  1 21  1  0
  1 22  1  0
  3 23  1  0
  4 24  1  0
  5 25  1  0
  8 26  1  0
  9 27  1  0
 13 28  1  0
 14 29  1  0
 15 30  1  0
 16 31  1  0
 19 32  1  0
M  END
>  <UniqueID>  (14) 
14

>  <SMILES>  (14) 
Cc1cccc(-c2ccnc(-c3ccccn3)n2)c1

>  <Energy>  (14) 
39.93810077800026

>  <Genealogy>  (14) 
Cc1cccc(-c2ccnc(-c3ccccn3)n2)c1 (3D coordinates assigned)
Cc1cccc(-c2ccnc(-c3ccccn3)n2)c1 (optimized conformer: 39.93810077800026 kcal/mol)

>  <smiles>  (14) 
Cc1cccc(-c2ccnc(-c3ccccn3)n2)c1

>  <score_type>  (14) 
oracle

>  <origin>  (14) 
adg

>  <m_score__min__energy>  (14) 
-7.75

>  <m_primary>  (14) 
energy

$$$$
14:0
     RDKit          3D

 20 21  0  0  0  0  0  0  0  0999 V2000
   -4.2400   22.4490  -32.1130 C   0  0  0  0  0  0  0  0  0  0  0  0
   -5.1070   23.4230  -31.3770 C   0  0  0  0  0  0  0  0  0  0  0  0
   -4.6130   24.5610  -30.8420 N   0  0  0  0  0  0  0  0  0  0  0  0
   -5.6810   25.1550  -30.2750 C   0  0  0  0  0  0  0  0  0  0  0  0
   -6.7980   24.3780  -30.4700 C   0  0  0  0  0  0  0  0  0  0  0  0
   -6.4390   23.2830  -31.1650 N   0  0  0  0  0  0  0  0  0  0  0  0
   -7.3240   22.2220  -31.5720 C   0  0  0  0  0  0  0  0  0  0  0  0
   -6.8320   21.0050  -31.9380 N   0  0  0  0  0  0  0  0  0  0  0  0
   -7.6570   19.9980  -32.3220 C   0  0  0  0  0  0  0  0  0  0  0  0
   -9.0360   20.2000  -32.3460 C   0  0  0  0  0  0  0  0  0  0  0  0
   -9.5290   21.4480  -31.9690 C   0  0  0  0  0  0  0  0  0  0  0  0
   -8.6700   22.4290  -31.5910 N   0  0  0  0  0  0  0  0  0  0  0  0
   -3.6888   21.8297  -31.3901 H   0  0  0  0  0  0  0  0  0  0  0  0
   -4.8680   21.8037  -32.7448 H   0  0  0  0  0  0  0  0  0  0  0  0
   -3.5263   22.9980  -32.7448 H   0  0  0  0  0  0  0  0  0  0  0  0
   -5.6621   26.1149  -29.7381 H   0  0  0  0  0  0  0  0  0  0  0  0
   -7.8135   24.6117  -30.1176 H   0  0  0  0  0  0  0  0  0  0  0  0
   -7.2380   19.0237  -32.6139 H   0  0  0  0  0  0  0  0  0  0  0  0
   -9.7183   19.3944  -32.6549 H   0  0  0  0  0  0  0  0  0  0  0  0
  -10.6125   21.6378  -31.9777 H   0  0  0  0  0  0  0  0  0  0  0  0
  1  2  1  0
  2  3  2  0
  3  4  1  0
  4  5  2  0
  5  6  1  0
  6  7  1  0
  7  8  2  0
  8  9  1  0
  9 10  2  0
 10 11  1  0
 11 12  2  0
  6  2  1  0
 12  7  1  0
  1 13  1  0
  1 14  1  0
  1 15  1  0
  4 16  1  0
  5 17  1  0
  9 18  1  0
 10 19  1  0
 11 20  1  0
M  END
>  <UniqueID>  (15) 
15

>  <SMILES>  (15) 
Cc1nccn1-c1ncccn1

>  <Energy>  (15) 
51.5595075645642

>  <Genealogy>  (15) 
Cc1nccn1-c1ncccn1 (3D coordinates assigned)
Cc1nccn1-c1ncccn1 (optimized conformer: 51.5595075645642 kcal/mol)

>  <smiles>  (15) 
Cc1nccn1-c1ncccn1

>  <score_type>  (15) 
oracle

>  <origin>  (15) 
adg

>  <m_score__min__energy>  (15) 
-5.2199999999999998

>  <m_primary>  (15) 
energy

$$$$
15:0
     RDKit          3D

 35 36  0  0  0  0  0  0  0  0999 V2000
   -3.1700   24.1430  -29.7480 C   0  0  0  0  0  0  0  0  0  0  0  0
   -4.0420   24.4170  -30.8390 O   0  0  0  0  0  0  0  0  0  0  0  0
   -5.1470   23.6280  -31.1880 C   0  0  0  0  0  0  0  0  0  0  0  0
   -6.4700   24.0060  -30.8910 C   0  0  0  0  0  0  0  0  0  0  0  0
   -7.5380   23.1850  -31.2610 C   0  0  0  0  0  0  0  0  0  0  0  0
   -7.3090   21.9730  -31.9330 C   0  0  0  0  0  0  0  0  0  0  0  0
   -8.4750   21.0850  -32.3330 C   0  0  2  0  0  0  0  0  0  0  0  0
   -9.1010   20.4540  -31.0760 C   0  0  0  0  0  0  0  0  0  0  0  0
   -8.0350   20.0570  -33.3090 N   0  0  0  0  0  0  0  0  0  0  0  0
   -7.7070   18.7590  -32.6890 C   0  0  0  0  0  0  0  0  0  0  0  0
   -6.5370   18.0980  -33.3610 C   0  0  0  0  0  0  0  0  0  0  0  0
   -6.0520   16.8370  -33.0830 C   0  0  0  0  0  0  0  0  0  0  0  0
   -4.9700   16.6650  -33.9170 C   0  0  0  0  0  0  0  0  0  0  0  0
   -4.8620   17.8300  -34.6510 C   0  0  0  0  0  0  0  0  0  0  0  0
   -5.8100   18.6660  -34.2960 O   0  0  0  0  0  0  0  0  0  0  0  0
   -5.9850   21.5980  -32.2280 C   0  0  0  0  0  0  0  0  0  0  0  0
   -4.9170   22.4210  -31.8580 C   0  0  0  0  0  0  0  0  0  0  0  0
   -3.7038   24.3107  -28.8009 H   0  0  0  0  0  0  0  0  0  0  0  0
   -2.8354   23.0964  -29.7999 H   0  0  0  0  0  0  0  0  0  0  0  0
   -2.2969   24.8101  -29.7999 H   0  0  0  0  0  0  0  0  0  0  0  0
   -6.6639   24.9524  -30.3650 H   0  0  0  0  0  0  0  0  0  0  0  0
   -8.5678   23.4905  -31.0239 H   0  0  0  0  0  0  0  0  0  0  0  0
   -9.2464   21.6929  -32.8285 H   0  0  0  0  0  0  0  0  0  0  0  0
   -8.6537   20.9049  -30.1779 H   0  0  0  0  0  0  0  0  0  0  0  0
  -10.1859   20.6357  -31.0760 H   0  0  0  0  0  0  0  0  0  0  0  0
   -8.9107   19.3706  -31.0760 H   0  0  0  0  0  0  0  0  0  0  0  0
   -8.7850   19.8990  -34.0230 H   0  0  0  0  0  0  0  0  0  0  0  0
   -7.1890   20.3950  -33.8250 H   0  0  0  0  0  0  0  0  0  0  0  0
   -7.4627   18.9226  -31.6290 H   0  0  0  0  0  0  0  0  0  0  0  0
   -8.5802   18.0988  -32.7968 H   0  0  0  0  0  0  0  0  0  0  0  0
   -6.4469   16.1192  -32.3489 H   0  0  0  0  0  0  0  0  0  0  0  0
   -4.3223   15.7785  -33.9850 H   0  0  0  0  0  0  0  0  0  0  0  0
   -4.0976   18.0275  -35.4169 H   0  0  0  0  0  0  0  0  0  0  0  0
   -5.7892   20.6514  -32.7530 H   0  0  0  0  0  0  0  0  0  0  0  0
   -3.8869   22.1171  -32.0956 H   0  0  0  0  0  0  0  0  0  0  0  0
  1  2  1  0
  2  3  1  0
  3  4  2  0
  4  5  1  0
  5  6  2  0
  6  7  1  0
  7  8  1  0
  7  9  1  0
  9 10  1  0
 10 11  1  0
 11 12  2  0
 12 13  1  0
 13 14  2  0
 14 15  1  0
  6 16  1  0
 16 17  2  0
 17  3  1  0
 15 11  1  0
  1 18  1  0
  1 19  1  0
  1 20  1  0
  4 21  1  0
  5 22  1  0
  7 23  1  6
  8 24  1  0
  8 25  1  0
  8 26  1  0
  9 27  1  0
  9 28  1  0
 10 29  1  0
 10 30  1  0
 12 31  1  0
 13 32  1  0
 14 33  1  0
 16 34  1  0
 17 35  1  0
M  CHG  1   9   1
M  END
>  <UniqueID>  (16) 
16

>  <SMILES>  (16) 
COc1ccc([C@H](C)[NH2+]Cc2ccco2)cc1

>  <Energy>  (16) 
60.33223103835437

>  <Genealogy>  (16) 
COc1ccc(C(C)[NH2+]Cc2ccco2)cc1 (protonated)
COc1ccc([C@H](C)[NH2+]Cc2ccco2)cc1 (chirality)
COc1ccc([C@H](C)[NH2+]Cc2ccco2)cc1 (3D coordinates assigned)
COc1ccc([C@H](C)[NH2+]Cc2ccco2)cc1 (optimized conformer: 60.33223103835437 kcal/mol)

>  <smiles>  (16) 
COc1ccc(C(C)NCc2ccco2)cc1

>  <score_type>  (16) 
oracle

>  <origin>  (16) 
adg

>  <m_score__min__energy>  (16) 
-5.9199999999999999

>  <m_primary>  (16) 
energy

$$$$
16:0
     RDKit          3D

 40 42  0  0  0  0  0  0  0  0999 V2000
   -2.0740   21.5880  -31.5170 C   0  0  0  0  0  0  0  0  0  0  0  0
   -3.2810   22.1390  -32.2240 N   0  0  0  0  0  0  0  0  0  0  0  0
   -3.4670   21.1600  -33.2890 C   0  0  0  0  0  0  0  0  0  0  0  0
   -4.2960   22.1610  -31.2410 C   0  0  0  0  0  0  0  0  0  0  0  0
   -4.9900   23.3930  -30.8880 C   0  0  0  0  0  0  0  0  0  0  0  0
   -6.2010   23.9110  -31.2920 C   0  0  0  0  0  0  0  0  0  0  0  0
   -7.1690   23.4620  -32.3190 C   0  0  0  0  0  0  0  0  0  0  0  0
   -8.2230   22.6270  -31.6560 C   0  0  0  0  0  0  0  0  0  0  0  0
   -8.0970   21.1690  -31.9700 C   0  0  0  0  0  0  0  0  0  0  0  0
   -8.9610   20.2260  -31.6250 C   0  0  0  0  0  0  0  0  0  0  0  0
   -8.7480   18.9240  -31.9710 C   0  0  0  0  0  0  0  0  0  0  0  0
   -7.1480   18.9590  -32.9020 S   0  0  0  0  0  0  0  0  0  0  0  0
   -6.9440   20.7370  -32.7180 C   0  0  0  0  0  0  0  0  0  0  0  0
   -6.4520   25.0780  -30.6110 N   0  0  0  0  0  0  0  0  0  0  0  0
   -5.4490   25.2810  -29.8220 N   0  0  0  0  0  0  0  0  0  0  0  0
   -4.5110   24.2940  -29.9350 C   0  0  0  0  0  0  0  0  0  0  0  0
   -3.2680   24.3450  -29.1960 C   0  0  0  0  0  0  0  0  0  0  0  0
   -2.7410   23.5130  -28.2390 C   0  0  0  0  0  0  0  0  0  0  0  0
   -1.4900   23.9930  -27.8240 C   0  0  0  0  0  0  0  0  0  0  0  0
   -1.3180   25.1310  -28.5800 C   0  0  0  0  0  0  0  0  0  0  0  0
   -2.3450   25.2950  -29.3430 O   0  0  0  0  0  0  0  0  0  0  0  0
   -2.2233   21.6562  -30.4293 H   0  0  0  0  0  0  0  0  0  0  0  0
   -1.9308   20.5353  -31.8022 H   0  0  0  0  0  0  0  0  0  0  0  0
   -1.1848   22.1694  -31.8022 H   0  0  0  0  0  0  0  0  0  0  0  0
   -3.6551   20.1699  -32.8482 H   0  0  0  0  0  0  0  0  0  0  0  0
   -4.3254   21.4535  -33.9110 H   0  0  0  0  0  0  0  0  0  0  0  0
   -2.5607   21.1182  -33.9110 H   0  0  0  0  0  0  0  0  0  0  0  0
   -5.0695   21.4553  -31.5783 H   0  0  0  0  0  0  0  0  0  0  0  0
   -3.7378   21.9331  -30.3209 H   0  0  0  0  0  0  0  0  0  0  0  0
   -7.6356   24.3370  -32.7951 H   0  0  0  0  0  0  0  0  0  0  0  0
   -6.6511   22.8696  -33.0877 H   0  0  0  0  0  0  0  0  0  0  0  0
   -8.1416   22.7594  -30.5670 H   0  0  0  0  0  0  0  0  0  0  0  0
   -9.1980   22.9630  -32.0386 H   0  0  0  0  0  0  0  0  0  0  0  0
   -9.8608   20.4962  -31.0528 H   0  0  0  0  0  0  0  0  0  0  0  0
   -9.3816   18.0529  -31.7480 H   0  0  0  0  0  0  0  0  0  0  0  0
   -6.1186   21.3589  -33.0946 H   0  0  0  0  0  0  0  0  0  0  0  0
   -5.4030   26.1290  -29.1790 H   0  0  0  0  0  0  0  0  0  0  0  0
   -3.2279   22.6045  -27.8547 H   0  0  0  0  0  0  0  0  0  0  0  0
   -0.8094   23.5633  -27.0742 H   0  0  0  0  0  0  0  0  0  0  0  0
   -0.4425   25.7957  -28.5396 H   0  0  0  0  0  0  0  0  0  0  0  0
  1  2  1  0
  2  3  1  0
  2  4  1  0
  4  5  1  0
  5  6  1  0
  6  7  1  0
  7  8  1  0
  8  9  1  0
  9 10  1  0
 10 11  2  0
 11 12  1  0
 12 13  1  0
  6 14  2  0
 14 15  1  0
 15 16  1  0
 16 17  1  0
 17 18  2  0
 18 19  1  0
 19 20  2  0
 20 21  1  0
 16  5  2  0
 21 17  1  0
 13  9  2  0
  1 22  1  0
  1 23  1  0
  1 24  1  0
  3 25  1  0
  3 26  1  0
  3 27  1  0
  4 28  1  0
  4 29  1  0
  7 30  1  0
  7 31  1  0
  8 32  1  0
  8 33  1  0
 10 34  1  0
 11 35  1  0
 13 36  1  0
 15 37  1  0
 18 38  1  0
 19 39  1  0
 20 40  1  0
M  END
>  <smiles>  (17) 
CN(C)Cc1c(CCc2ccsc2)n[nH]c1-c1ccco1

>  <score_type>  (17) 
oracle

>  <origin>  (17) 
adg

>  <m_score__min__energy>  (17) 
-8.4600000000000009

>  <m_primary>  (17) 
energy

$$$$
17:0
     RDKit          3D

 43 45  0  0  0  0  0  0  0  0999 V2000
   -1.6560   24.7110  -28.6140 C   0  0  0  0  0  0  0  0  0  0  0  0
   -2.7340   25.2900  -29.3420 O   0  0  0  0  0  0  0  0  0  0  0  0
   -3.8520   24.5750  -29.8000 C   0  0  0  0  0  0  0  0  0  0  0  0
   -4.1910   23.2990  -29.3060 C   0  0  0  0  0  0  0  0  0  0  0  0
   -5.3340   22.6420  -29.7710 C   0  0  0  0  0  0  0  0  0  0  0  0
   -6.1500   23.2510  -30.7380 C   0  0  0  0  0  0  0  0  0  0  0  0
   -7.5930   22.4340  -31.3350 S   0  0  0  0  0  0  0  0  0  0  0  0
   -8.1430   21.5250  -30.2670 O   0  0  0  0  0  0  0  0  0  0  0  0
   -8.6330   23.4740  -31.6600 O   0  0  0  0  0  0  0  0  0  0  0  0
   -7.1900   21.5040  -32.7640 N   0  0  0  0  0  0  0  0  0  0  0  0
   -8.1950   20.4340  -33.0010 C   0  0  0  0  0  0  0  0  0  0  0  0
   -7.8730   19.1370  -32.2440 C   0  0  0  0  0  0  0  0  0  0  0  0
   -6.4970   18.7020  -32.5070 N   0  0  0  0  0  0  0  0  0  0  0  0
   -6.0230   17.4780  -31.9110 C   0  0  0  0  0  0  0  0  0  0  0  0
   -6.4400   17.1420  -30.7700 O   0  0  0  0  0  0  0  0  0  0  0  0
   -5.0670   16.5910  -32.6000 C   0  0  0  0  0  0  0  0  0  0  0  0
   -4.8500   15.2480  -32.3460 C   0  0  0  0  0  0  0  0  0  0  0  0
   -3.8520   14.8610  -33.2160 C   0  0  0  0  0  0  0  0  0  0  0  0
   -3.5170   15.9880  -33.9400 C   0  0  0  0  0  0  0  0  0  0  0  0
   -4.2540   17.0020  -33.5480 O   0  0  0  0  0  0  0  0  0  0  0  0
   -5.5930   19.6040  -33.2260 C   0  0  0  0  0  0  0  0  0  0  0  0
   -5.7780   21.0300  -32.6930 C   0  0  0  0  0  0  0  0  0  0  0  0
   -5.7940   24.5020  -31.2560 C   0  0  0  0  0  0  0  0  0  0  0  0
   -4.6570   25.1630  -30.7850 C   0  0  0  0  0  0  0  0  0  0  0  0
   -1.8455   24.8128  -27.5352 H   0  0  0  0  0  0  0  0  0  0  0  0
   -1.5698   23.6452  -28.8722 H   0  0  0  0  0  0  0  0  0  0  0  0
   -0.7198   25.2277  -28.8722 H   0  0  0  0  0  0  0  0  0  0  0  0
   -3.5527   22.8176  -28.5505 H   0  0  0  0  0  0  0  0  0  0  0  0
   -5.5943   21.6476  -29.3792 H   0  0  0  0  0  0  0  0  0  0  0  0
   -7.2640   22.1710  -33.5690 H   0  0  0  0  0  0  0  0  0  0  0  0
   -9.1797   20.7976  -32.6722 H   0  0  0  0  0  0  0  0  0  0  0  0
   -8.1841   20.2015  -34.0761 H   0  0  0  0  0  0  0  0  0  0  0  0
   -7.9952   19.3108  -31.1647 H   0  0  0  0  0  0  0  0  0  0  0  0
   -8.5608   18.3506  -32.5883 H   0  0  0  0  0  0  0  0  0  0  0  0
   -5.3659   14.6200  -31.6048 H   0  0  0  0  0  0  0  0  0  0  0  0
   -3.4120   13.8575  -33.3133 H   0  0  0  0  0  0  0  0  0  0  0  0
   -2.7489   16.0302  -34.7263 H   0  0  0  0  0  0  0  0  0  0  0  0
   -4.5522   19.2843  -33.0692 H   0  0  0  0  0  0  0  0  0  0  0  0
   -5.8219   19.5779  -34.3016 H   0  0  0  0  0  0  0  0  0  0  0  0
   -5.4528   21.0557  -31.6425 H   0  0  0  0  0  0  0  0  0  0  0  0
   -5.1764   21.6973  -33.3277 H   0  0  0  0  0  0  0  0  0  0  0  0
   -6.4127   24.9668  -32.0378 H   0  0  0  0  0  0  0  0  0  0  0  0
   -4.3920   26.1509  -31.1897 H   0  0  0  0  0  0  0  0  0  0  0  0
  1  2  1  0
  2  3  1  0
  3  4  2  0
  4  5  1  0
  5  6  2  0
  6  7  1  0
  7  8  2  0
  7  9  2  0
  7 10  1  0
 10 11  1  0
 11 12  1  0
 12 13  1  0
 13 14  1  0
 14 15  2  0
 14 16  1  0
 16 17  2  0
 17 18  1  0
 18 19  2  0
 19 20  1  0
 13 21  1  0
 21 22  1  0
  6 23  1  0
 23 24  2  0
 24  3  1  0
 22 10  1  0
 20 16  1  0
  1 25  1  0
  1 26  1  0
  1 27  1  0
  4 28  1  0
  5 29  1  0
 10 30  1  0
 11 31  1  0
 11 32  1  0
 12 33  1  0
 12 34  1  0
 17 35  1  0
 18 36  1  0
 19 37  1  0
 21 38  1  0
 21 39  1  0
 22 40  1  0
 22 41  1  0
 23 42  1  0
 24 43  1  0
M  CHG  1  10   1
M  END
>  <UniqueID>  (18) 
17

>  <SMILES>  (18) 
COc1ccc(S(=O)(=O)[NH+]2CCN(C(=O)c3ccco3)CC2)cc1

>  <Energy>  (18) 
78.21964400949999

>  <Genealogy>  (18) 
COc1ccc(S(=O)(=O)[NH+]2CCN(C(=O)c3ccco3)CC2)cc1 (protonated)
COc1ccc(S(=O)(=O)[NH+]2CCN(C(=O)c3ccco3)CC2)cc1 (3D coordinates assigned)
COc1ccc(S(=O)(=O)[NH+]2CCN(C(=O)c3ccco3)CC2)cc1 (nonaromatic ring conformer: 78.21964400949999 kcal/mol)

>  <smiles>  (18) 
COc1ccc(S(=O)(=O)N2CCN(C(=O)c3ccco3)CC2)cc1

>  <score_type>  (18) 
oracle

>  <origin>  (18) 
adg

>  <m_score__min__energy>  (18) 
-7.6799999999999997

>  <m_primary>  (18) 
energy

$$$$
18:0
     RDKit          3D

 26 27  0  0  0  0  0  0  0  0999 V2000
   -3.7030   24.5430  -29.6130 C   0  0  0  0  0  0  0  0  0  0  0  0
   -4.4070   24.5700  -30.8510 O   0  0  0  0  0  0  0  0  0  0  0  0
   -5.4260   23.6730  -31.2020 C   0  0  0  0  0  0  0  0  0  0  0  0
   -6.7780   23.9070  -30.8900 C   0  0  0  0  0  0  0  0  0  0  0  0
   -7.7570   22.9860  -31.2670 C   0  0  0  0  0  0  0  0  0  0  0  0
   -7.4080   21.8240  -31.9680 C   0  0  0  0  0  0  0  0  0  0  0  0
   -6.0520   21.5680  -32.2590 C   0  0  0  0  0  0  0  0  0  0  0  0
   -5.0750   22.5050  -31.8880 C   0  0  0  0  0  0  0  0  0  0  0  0
   -5.6440   20.3490  -33.0460 C   0  0  0  0  0  0  0  0  0  0  0  0
   -6.7490   19.2860  -33.0660 C   0  0  0  0  0  0  0  0  0  0  0  0
   -8.0490   19.8970  -33.3790 N   0  0  0  0  0  0  0  0  0  0  0  0
   -8.4750   20.8100  -32.3090 C   0  0  0  0  0  0  0  0  0  0  0  0
   -4.4225   24.5706  -28.7814 H   0  0  0  0  0  0  0  0  0  0  0  0
   -3.1059   23.6213  -29.5508 H   0  0  0  0  0  0  0  0  0  0  0  0
   -3.0370   25.4163  -29.5508 H   0  0  0  0  0  0  0  0  0  0  0  0
   -7.0647   24.8195  -30.3467 H   0  0  0  0  0  0  0  0  0  0  0  0
   -8.8104   23.1739  -31.0118 H   0  0  0  0  0  0  0  0  0  0  0  0
   -4.0205   22.3189  -32.1396 H   0  0  0  0  0  0  0  0  0  0  0  0
   -5.4222   20.6511  -34.0802 H   0  0  0  0  0  0  0  0  0  0  0  0
   -4.7582   19.9114  -32.5624 H   0  0  0  0  0  0  0  0  0  0  0  0
   -6.5109   18.5313  -33.8301 H   0  0  0  0  0  0  0  0  0  0  0  0
   -6.8076   18.8166  -32.0729 H   0  0  0  0  0  0  0  0  0  0  0  0
   -8.7630   19.1380  -33.4770 H   0  0  0  0  0  0  0  0  0  0  0  0
   -7.9910   20.4150  -34.2870 H   0  0  0  0  0  0  0  0  0  0  0  0
   -9.3792   21.3435  -32.6372 H   0  0  0  0  0  0  0  0  0  0  0  0
   -8.6706   20.2087  -31.4089 H   0  0  0  0  0  0  0  0  0  0  0  0
  1  2  1  0
  2  3  1  0
  3  4  2  0
  4  5  1  0
  5  6  2  0
  6  7  1  0
  7  8  2  0
  7  9  1  0
  9 10  1  0
 10 11  1  0
 11 12  1  0
  8  3  1  0
 12  6  1  0
  1 13  1  0
  1 14  1  0
  1 15  1  0
  4 16  1  0
  5 17  1  0
  8 18  1  0
  9 19  1  0
  9 20  1  0
 10 21  1  0
 10 22  1  0
 11 23  1  0
 11 24  1  0
 12 25  1  0
 12 26  1  0
M  CHG  1  11   1
M  END
>  <UniqueID>  (19) 
18

>  <SMILES>  (19) 
COc1ccc2c(c1)CC[NH2+]C2

>  <Energy>  (19) 
26.331836487708877

>  <Genealogy>  (19) 
COc1ccc2c(c1)CC[NH2+]C2 (protonated)
COc1ccc2c(c1)CC[NH2+]C2 (3D coordinates assigned)
COc1ccc2c(c1)CC[NH2+]C2 (nonaromatic ring conformer: 26.331836487708877 kcal/mol)

>  <smiles>  (19) 
COc1ccc2c(c1)CCNC2

>  <score_type>  (19) 
oracle

>  <origin>  (19) 
adg

>  <m_score__min__energy>  (19) 
-5.6900000000000004

>  <m_primary>  (19) 
energy

$$$$
19:0
     RDKit          3D

 39 41  0  0  0  0  0  0  0  0999 V2000
   -5.8772   25.8363  -29.9189 H   0  0  0  0  0  0  0  0  0  0  0  0
   -5.8980   24.8620  -30.4290 C   0  0  0  0  0  0  0  0  0  0  0  0
   -4.7040   24.2530  -30.8080 C   0  0  0  0  0  0  0  0  0  0  0  0
   -3.5030   24.8950  -30.4700 O   0  0  0  0  0  0  0  0  0  0  0  0
   -2.6690   24.5290  -29.3740 C   0  0  0  0  0  0  0  0  0  0  0  0
   -3.1848   24.7554  -28.4292 H   0  0  0  0  0  0  0  0  0  0  0  0
   -2.4501   23.4521  -29.4234 H   0  0  0  0  0  0  0  0  0  0  0  0
   -1.7283   25.0970  -29.4234 H   0  0  0  0  0  0  0  0  0  0  0  0
   -4.7410   23.0270  -31.4990 C   0  0  0  0  0  0  0  0  0  0  0  0
   -3.7955   22.5355  -31.7717 H   0  0  0  0  0  0  0  0  0  0  0  0
   -5.9660   22.4120  -31.8510 C   0  0  0  0  0  0  0  0  0  0  0  0
   -6.0870   21.1950  -32.6030 C   0  0  0  0  0  0  0  0  0  0  0  0
   -5.1420   20.6040  -33.2940 N   0  0  0  0  0  0  0  0  0  0  0  0
   -4.7870   19.2120  -33.5890 C   0  0  0  0  0  0  0  0  0  0  0  0
   -3.7364   19.2108  -33.9150 H   0  0  0  0  0  0  0  0  0  0  0  0
   -5.0260   18.3590  -32.3400 C   0  0  0  0  0  0  0  0  0  0  0  0
   -4.0718   18.1443  -31.8366 H   0  0  0  0  0  0  0  0  0  0  0  0
   -5.6694   18.8801  -31.6157 H   0  0  0  0  0  0  0  0  0  0  0  0
   -5.6670   17.0720  -32.8230 C   0  0  0  0  0  0  0  0  0  0  0  0
   -4.8976   16.3312  -33.0864 H   0  0  0  0  0  0  0  0  0  0  0  0
   -6.2977   16.6076  -32.0507 H   0  0  0  0  0  0  0  0  0  0  0  0
   -6.4640   17.4710  -34.0470 C   0  0  0  0  0  0  0  0  0  0  0  0
   -6.5481   16.6241  -34.7439 H   0  0  0  0  0  0  0  0  0  0  0  0
   -7.4887   17.7740  -33.7859 H   0  0  0  0  0  0  0  0  0  0  0  0
   -5.6840   18.6100  -34.6860 C   0  0  0  0  0  0  0  0  0  0  0  0
   -5.0660   18.2280  -35.5119 H   0  0  0  0  0  0  0  0  0  0  0  0
   -6.3648   19.3698  -35.0974 H   0  0  0  0  0  0  0  0  0  0  0  0
   -7.3480   20.5930  -32.6970 C   0  0  0  0  0  0  0  0  0  0  0  0
   -7.4464   19.6228  -33.2059 H   0  0  0  0  0  0  0  0  0  0  0  0
   -8.4800   21.2000  -32.1580 C   0  0  0  0  0  0  0  0  0  0  0  0
   -9.8290   20.5670  -32.3370 C   0  0  0  0  0  0  0  0  0  0  0  0
  -10.2705   20.3598  -31.3510 H   0  0  0  0  0  0  0  0  0  0  0  0
  -10.4841   21.2517  -32.8956 H   0  0  0  0  0  0  0  0  0  0  0  0
   -9.7211   19.6255  -32.8956 H   0  0  0  0  0  0  0  0  0  0  0  0
   -8.3720   22.4120  -31.5530 N   0  0  0  0  0  0  0  0  0  0  0  0
   -9.2390   22.8740  -31.1960 H   0  0  0  0  0  0  0  0  0  0  0  0
   -7.1660   23.0200  -31.3730 C   0  0  0  0  0  0  0  0  0  0  0  0
   -7.1160   24.2450  -30.6920 C   0  0  0  0  0  0  0  0  0  0  0  0
   -8.0504   24.7228  -30.3624 H   0  0  0  0  0  0  0  0  0  0  0  0
  1  2  1  0
  2  3  2  0
  3  4  1  0
  4  5  1  0
  5  6  1  0
  5  7  1  0
  5  8  1  0
  3  9  1  0
  9 10  1  0
  9 11  2  0
 11 12  1  0
 12 13  2  0
 13 14  1  0
 14 15  1  0
 14 16  1  0
 16 17  1  0
 16 18  1  0
 16 19  1  0
 19 20  1  0
 19 21  1  0
 19 22  1  0
 22 23  1  0
 22 24  1  0
 22 25  1  0
 25 26  1  0
 25 27  1  0
 12 28  1  0
 28 29  1  0
 28 30  2  0
 30 31  1  0
 31 32  1  0
 31 33  1  0
 31 34  1  0
 30 35  1  0
 35 36  1  0
 35 37  1  0
 37 38  2  0
 38 39  1  0
 38  2  1  0
 37 11  1  0
 25 14  1  0
M  END
>  <UniqueID>  (20) 
19

>  <SMILES>  (20) 
COc1ccc2[nH]c(C)c/c(=N/C3CCCC3)c2c1

>  <Energy>  (20) 
59.00796648718976

>  <Genealogy>  (20) 
COc1ccc2[nH]c(C)c/c(=N/C3CCCC3)c2c1 (cis-trans isomerization)
COc1ccc2[nH]c(C)c/c(=N/C3CCCC3)c2c1 (3D coordinates assigned)
COc1ccc2[nH]c(C)c/c(=N/C3CCCC3)c2c1 (nonaromatic ring conformer: 59.00796648718976 kcal/mol)

>  <smiles>  (20) 
COc1ccc2[nH]c(C)cc(=NC3CCCC3)c2c1

>  <score_type>  (20) 
oracle

>  <origin>  (20) 
adg

>  <m_score__min__energy>  (20) 
-7.8499999999999996

>  <m_primary>  (20) 
energy

$$$$
20:0
     RDKit          3D

 26 27  0  0  0  0  0  0  0  0999 V2000
   -9.7380   21.5190  -31.8950 C   0  0  0  0  0  0  0  0  0  0  0  0
   -8.5750   21.0460  -31.2270 O   0  0  0  0  0  0  0  0  0  0  0  0
   -7.2970   21.2820  -31.7390 C   0  0  0  0  0  0  0  0  0  0  0  0
   -6.7080   20.3490  -32.6140 C   0  0  0  0  0  0  0  0  0  0  0  0
   -7.4320   19.0870  -32.9920 C   0  0  0  0  0  0  0  0  0  0  0  0
   -5.4080   20.5700  -33.0930 C   0  0  0  0  0  0  0  0  0  0  0  0
   -4.6970   21.7250  -32.7430 C   0  0  0  0  0  0  0  0  0  0  0  0
   -3.3740   21.9230  -33.2580 N   0  0  0  0  0  0  0  0  0  0  0  0
   -5.2930   22.6760  -31.8960 C   0  0  0  0  0  0  0  0  0  0  0  0
   -4.6210   23.8100  -31.5530 N   0  0  0  0  0  0  0  0  0  0  0  0
   -5.1630   24.7530  -30.7370 C   0  0  0  0  0  0  0  0  0  0  0  0
   -6.4470   24.5780  -30.2240 C   0  0  0  0  0  0  0  0  0  0  0  0
   -7.1680   23.4280  -30.5520 C   0  0  0  0  0  0  0  0  0  0  0  0
   -6.5990   22.4560  -31.3920 C   0  0  0  0  0  0  0  0  0  0  0  0
  -10.4891   21.8245  -31.1517 H   0  0  0  0  0  0  0  0  0  0  0  0
   -9.4739   22.3812  -32.5250 H   0  0  0  0  0  0  0  0  0  0  0  0
  -10.1506   20.7172  -32.5250 H   0  0  0  0  0  0  0  0  0  0  0  0
   -7.7384   18.5530  -32.0804 H   0  0  0  0  0  0  0  0  0  0  0  0
   -8.3228   19.3392  -33.5861 H   0  0  0  0  0  0  0  0  0  0  0  0
   -6.7647   18.4453  -33.5861 H   0  0  0  0  0  0  0  0  0  0  0  0
   -4.9400   19.8250  -33.7533 H   0  0  0  0  0  0  0  0  0  0  0  0
   -3.1070   21.6090  -34.2170 H   0  0  0  0  0  0  0  0  0  0  0  0
   -2.6420   22.3910  -32.6780 H   0  0  0  0  0  0  0  0  0  0  0  0
   -4.5875   25.6549  -30.4815 H   0  0  0  0  0  0  0  0  0  0  0  0
   -6.8892   25.3402  -29.5656 H   0  0  0  0  0  0  0  0  0  0  0  0
   -8.1825   23.2829  -30.1523 H   0  0  0  0  0  0  0  0  0  0  0  0
  1  2  1  0
  2  3  1  0
  3  4  2  0
  4  5  1  0
  4  6  1  0
  6  7  2  0
  7  8  1  0
  7  9  1  0
  9 10  2  0
 10 11  1  0
 11 12  2  0
 12 13  1  0
 13 14  2  0
 14  3  1  0
 14  9  1  0
  1 15  1  0
  1 16  1  0
  1 17  1  0
  5 18  1  0
  5 19  1  0
  5 20  1  0
  6 21  1  0
  8 22  1  0
  8 23  1  0
 11 24  1  0
 12 25  1  0
 13 26  1  0
M  END
>  <UniqueID>  (21) 
20

>  <SMILES>  (21) 
COc1c(C)cc(N)c2ncccc12

>  <Energy>  (21) 
36.12397833581392

>  <Genealogy>  (21) 
COc1c(C)cc(N)c2ncccc12 (3D coordinates assigned)
COc1c(C)cc(N)c2ncccc12 (optimized conformer: 36.12397833581392 kcal/mol)

>  <smiles>  (21) 
COc1c(C)cc(N)c2ncccc12

>  <score_type>  (21) 
oracle

>  <origin>  (21) 
adg

>  <m_score__min__energy>  (21) 
-5.6200000000000001

>  <m_primary>  (21) 
energy

$$$$
21:0
     RDKit          3D

 28 29  0  0  0  0  0  0  0  0999 V2000
   -3.8950   24.5510  -26.9900 C   0  0  0  0  0  0  0  0  0  0  0  0
   -4.2280   23.5840  -28.1200 C   0  0  0  0  0  0  0  0  0  0  0  0
   -3.5450   23.9540  -29.3160 O   0  0  0  0  0  0  0  0  0  0  0  0
   -4.1900   24.4800  -30.4410 C   0  0  0  0  0  0  0  0  0  0  0  0
   -3.9520   25.6570  -30.8270 O   0  0  0  0  0  0  0  0  0  0  0  0
   -5.1470   23.6480  -31.1780 C   0  0  0  0  0  0  0  0  0  0  0  0
   -5.4730   22.3350  -30.8960 C   0  0  0  0  0  0  0  0  0  0  0  0
   -6.4090   22.0030  -31.8600 C   0  0  0  0  0  0  0  0  0  0  0  0
   -7.0930   20.6940  -32.0140 C   0  0  0  0  0  0  0  0  0  0  0  0
   -6.3480   19.5190  -32.2400 C   0  0  0  0  0  0  0  0  0  0  0  0
   -6.9930   18.2870  -32.3860 C   0  0  0  0  0  0  0  0  0  0  0  0
   -8.3840   18.2100  -32.3050 C   0  0  0  0  0  0  0  0  0  0  0  0
   -9.1340   19.3660  -32.0790 C   0  0  0  0  0  0  0  0  0  0  0  0
   -8.4950   20.6020  -31.9340 C   0  0  0  0  0  0  0  0  0  0  0  0
   -6.6050   23.0760  -32.6560 N   0  0  0  0  0  0  0  0  0  0  0  0
   -5.8420   24.0760  -32.2480 N   0  0  0  0  0  0  0  0  0  0  0  0
   -4.0652   24.0566  -26.0222 H   0  0  0  0  0  0  0  0  0  0  0  0
   -2.8405   24.8547  -27.0661 H   0  0  0  0  0  0  0  0  0  0  0  0
   -4.5389   25.4396  -27.0661 H   0  0  0  0  0  0  0  0  0  0  0  0
   -3.9219   22.5684  -27.8285 H   0  0  0  0  0  0  0  0  0  0  0  0
   -5.3116   23.6166  -28.3063 H   0  0  0  0  0  0  0  0  0  0  0  0
   -5.0787   21.6991  -30.0897 H   0  0  0  0  0  0  0  0  0  0  0  0
   -5.2510   19.5716  -32.3020 H   0  0  0  0  0  0  0  0  0  0  0  0
   -6.4026   17.3764  -32.5651 H   0  0  0  0  0  0  0  0  0  0  0  0
   -8.8892   17.2396  -32.4191 H   0  0  0  0  0  0  0  0  0  0  0  0
  -10.2304   19.3046  -32.0148 H   0  0  0  0  0  0  0  0  0  0  0  0
   -9.0926   21.5083  -31.7562 H   0  0  0  0  0  0  0  0  0  0  0  0
   -7.2340   23.1360  -33.4860 H   0  0  0  0  0  0  0  0  0  0  0  0
  1  2  1  0
  2  3  1  0
  3  4  1  0
  4  5  2  0
  4  6  1  0
  6  7  1  0
  7  8  2  0
  8  9  1  0
  9 10  2  0
 10 11  1  0
 11 12  2  0
 12 13  1  0
 13 14  2  0
  8 15  1  0
 15 16  1  0
 16  6  2  0
 14  9  1  0
  1 17  1  0
  1 18  1  0
  1 19  1  0
  2 20  1  0
  2 21  1  0
  7 22  1  0
 10 23  1  0
 11 24  1  0
 12 25  1  0
 13 26  1  0
 14 27  1  0
 15 28  1  0
M  END
>  <UniqueID>  (22) 
21

>  <SMILES>  (22) 
CCOC(=O)c1cc(-c2ccccc2)[nH]n1

>  <Energy>  (22) 
55.30478013366638

>  <Genealogy>  (22) 
CCOC(=O)c1cc(-c2ccccc2)[nH]n1 (3D coordinates assigned)
CCOC(=O)c1cc(-c2ccccc2)[nH]n1 (optimized conformer: 55.30478013366638 kcal/mol)

>  <smiles>  (22) 
CCOC(=O)c1cc(-c2ccccc2)[nH]n1

>  <score_type>  (22) 
oracle

>  <origin>  (22) 
adg

>  <m_score__min__energy>  (22) 
-7.04

>  <m_primary>  (22) 
energy

$$$$
22:0
     RDKit          3D

 40 42  0  0  0  0  0  0  0  0999 V2000
   -3.8050   24.5940  -29.3320 C   0  0  0  0  0  0  0  0  0  0  0  0
   -4.2050   24.5930  -30.6990 O   0  0  0  0  0  0  0  0  0  0  0  0
   -5.0070   23.6040  -31.2880 C   0  0  0  0  0  0  0  0  0  0  0  0
   -4.3780   22.4830  -31.8440 C   0  0  0  0  0  0  0  0  0  0  0  0
   -5.1290   21.4730  -32.4510 C   0  0  0  0  0  0  0  0  0  0  0  0
   -6.5280   21.5630  -32.4960 C   0  0  0  0  0  0  0  0  0  0  0  0
   -7.1640   22.6840  -31.9340 C   0  0  0  0  0  0  0  0  0  0  0  0
   -6.4100   23.7010  -31.3420 C   0  0  0  0  0  0  0  0  0  0  0  0
   -8.9530   22.8270  -32.0250 S   0  0  0  0  0  0  0  0  0  0  0  0
   -9.3180   21.4830  -30.8300 C   0  0  0  0  0  0  0  0  0  0  0  0
   -8.4430   20.2100  -30.9450 C   0  0  0  0  0  0  0  0  0  0  0  0
   -8.2350   19.7130  -32.3290 N   0  0  0  0  0  0  0  0  0  0  0  0
   -7.9160   18.2680  -32.3600 C   0  0  0  0  0  0  0  0  0  0  0  0
   -6.4170   18.0210  -32.6100 C   0  0  2  0  0  0  0  0  0  0  0  0
   -6.1490   17.4720  -34.0120 C   0  0  0  0  0  0  0  0  0  0  0  0
   -5.8300   16.0300  -33.7680 C   0  0  0  0  0  0  0  0  0  0  0  0
   -5.3350   16.0330  -32.3420 C   0  0  0  0  0  0  0  0  0  0  0  0
   -5.9420   17.0990  -31.6500 O   0  0  0  0  0  0  0  0  0  0  0  0
   -7.3500   20.5180  -33.2190 C   0  0  0  0  0  0  0  0  0  0  0  0
   -4.6974   24.5918  -28.6888 H   0  0  0  0  0  0  0  0  0  0  0  0
   -3.2021   23.6974  -29.1257 H   0  0  0  0  0  0  0  0  0  0  0  0
   -3.2066   25.4936  -29.1257 H   0  0  0  0  0  0  0  0  0  0  0  0
   -3.2822   22.3968  -31.8025 H   0  0  0  0  0  0  0  0  0  0  0  0
   -4.6212   20.6042  -32.8952 H   0  0  0  0  0  0  0  0  0  0  0  0
   -6.9151   24.5807  -30.9166 H   0  0  0  0  0  0  0  0  0  0  0  0
   -9.1868   21.8901  -29.8166 H   0  0  0  0  0  0  0  0  0  0  0  0
  -10.3437   21.1570  -31.0575 H   0  0  0  0  0  0  0  0  0  0  0  0
   -7.4572   20.4334  -30.5111 H   0  0  0  0  0  0  0  0  0  0  0  0
   -8.9856   19.4154  -30.4118 H   0  0  0  0  0  0  0  0  0  0  0  0
   -8.1949   17.8206  -31.3946 H   0  0  0  0  0  0  0  0  0  0  0  0
   -8.4813   17.8097  -33.1848 H   0  0  0  0  0  0  0  0  0  0  0  0
   -5.8935   18.9847  -32.5250 H   0  0  0  0  0  0  0  0  0  0  0  0
   -7.0383   17.5752  -34.6512 H   0  0  0  0  0  0  0  0  0  0  0  0
   -5.3420   18.0067  -34.5343 H   0  0  0  0  0  0  0  0  0  0  0  0
   -6.7270   15.4023  -33.8746 H   0  0  0  0  0  0  0  0  0  0  0  0
   -5.1003   15.6189  -34.4812 H   0  0  0  0  0  0  0  0  0  0  0  0
   -5.5984   15.0810  -31.8578 H   0  0  0  0  0  0  0  0  0  0  0  0
   -4.2418   16.1540  -32.3275 H   0  0  0  0  0  0  0  0  0  0  0  0
   -6.6607   19.8315  -33.7325 H   0  0  0  0  0  0  0  0  0  0  0  0
   -8.0088   21.0593  -33.9139 H   0  0  0  0  0  0  0  0  0  0  0  0
  1  2  1  0
  2  3  1  0
  3  4  2  0
  4  5  1  0
  5  6  2  0
  6  7  1  0
  7  8  2  0
  7  9  1  0
  9 10  1  0
 10 11  1  0
 11 12  1  0
 12 13  1  0
 13 14  1  0
 14 15  1  0
 15 16  1  0
 16 17  1  0
 17 18  1  0
 12 19  1  0
  8  3  1  0
 18 14  1  0
 19  6  1  0
  1 20  1  0
  1 21  1  0
  1 22  1  0
  4 23  1  0
  5 24  1  0
  8 25  1  0
 10 26  1  0
 10 27  1  0
 11 28  1  0
 11 29  1  0
 13 30  1  0
 13 31  1  0
 14 32  1  6
 15 33  1  0
 15 34  1  0
 16 35  1  0
 16 36  1  0
 17 37  1  0
 17 38  1  0
 19 39  1  0
 19 40  1  0
M  END
>  <UniqueID>  (23) 
22

>  <SMILES>  (23) 
COc1ccc2c(c1)SCCN(C[C@@H]1CCCO1)C2

>  <Energy>  (23) 
53.55388230545554

>  <Genealogy>  (23) 
COc1ccc2c(c1)SCCN(C[C@@H]1CCCO1)C2 (chirality)
COc1ccc2c(c1)SCCN(C[C@@H]1CCCO1)C2 (3D coordinates assigned)
COc1ccc2c(c1)SCCN(C[C@@H]1CCCO1)C2 (nonaromatic ring conformer: 53.55388230545554 kcal/mol)

>  <smiles>  (23) 
COc1ccc2c(c1)SCCN(CC1CCCO1)C2

>  <score_type>  (23) 
oracle

>  <origin>  (23) 
adg

>  <m_score__min__energy>  (23) 
-5.9400000000000004

>  <m_primary>  (23) 
energy

$$$$
23:0
     RDKit          3D

 47 49  0  0  0  0  0  0  0  0999 V2000
   -4.9590   22.4900  -32.7090 C   0  0  0  0  0  0  0  0  0  0  0  0
   -5.2830   23.4600  -31.6020 C   0  0  0  0  0  0  0  0  0  0  0  0
   -4.2320   23.9670  -30.8170 C   0  0  0  0  0  0  0  0  0  0  0  0
   -4.4910   24.8170  -29.7410 C   0  0  0  0  0  0  0  0  0  0  0  0
   -5.8020   25.1600  -29.4230 C   0  0  0  0  0  0  0  0  0  0  0  0
   -6.8610   24.6600  -30.1820 C   0  0  0  0  0  0  0  0  0  0  0  0
   -6.6230   23.8160  -31.2820 C   0  0  0  0  0  0  0  0  0  0  0  0
   -7.8080   23.3150  -32.0900 C   0  0  0  0  0  0  0  0  0  0  0  0
   -8.5690   22.2460  -31.3870 N   0  0  1  0  0  0  0  0  0  0  0  0
   -9.4850   21.5100  -32.3140 C   0  0  0  0  0  0  0  0  0  0  0  0
   -9.0260   20.0810  -32.6680 C   0  0  0  0  0  0  0  0  0  0  0  0
   -7.5010   20.0170  -32.8140 C   0  0  2  0  0  0  0  0  0  0  0  0
   -7.0600   18.6760  -33.2180 N   0  0  0  0  0  0  0  0  0  0  0  0
   -7.4850   17.4110  -32.6150 C   0  0  0  0  0  0  0  0  0  0  0  0
   -6.5220   16.3270  -33.1650 C   0  0  0  0  0  0  0  0  0  0  0  0
   -5.5600   17.0440  -33.9910 N   0  0  0  0  0  0  0  0  0  0  0  0
   -4.4380   16.4480  -34.7040 C   0  0  0  0  0  0  0  0  0  0  0  0
   -5.9050   18.4110  -33.9890 C   0  0  0  0  0  0  0  0  0  0  0  0
   -5.2450   19.2990  -34.5920 O   0  0  0  0  0  0  0  0  0  0  0  0
   -6.8010   20.4450  -31.5060 C   0  0  0  0  0  0  0  0  0  0  0  0
   -7.6950   21.3300  -30.6120 C   0  0  0  0  0  0  0  0  0  0  0  0
   -4.6388   21.5315  -32.2746 H   0  0  0  0  0  0  0  0  0  0  0  0
   -5.8527   22.3307  -33.3302 H   0  0  0  0  0  0  0  0  0  0  0  0
   -4.1490   22.8998  -33.3302 H   0  0  0  0  0  0  0  0  0  0  0  0
   -3.1940   23.6904  -31.0539 H   0  0  0  0  0  0  0  0  0  0  0  0
   -3.6582   25.2164  -29.1435 H   0  0  0  0  0  0  0  0  0  0  0  0
   -6.0038   25.8266  -28.5716 H   0  0  0  0  0  0  0  0  0  0  0  0
   -7.8941   24.9291  -29.9170 H   0  0  0  0  0  0  0  0  0  0  0  0
   -8.4849   24.1601  -32.2838 H   0  0  0  0  0  0  0  0  0  0  0  0
   -7.4168   22.8862  -33.0244 H   0  0  0  0  0  0  0  0  0  0  0  0
   -9.1820   22.7190  -30.6810 H   0  0  0  0  0  0  0  0  0  0  0  0
   -9.5641   22.0863  -33.2476 H   0  0  0  0  0  0  0  0  0  0  0  0
  -10.4456   21.4080  -31.7878 H   0  0  0  0  0  0  0  0  0  0  0  0
   -9.4918   19.7778  -33.6173 H   0  0  0  0  0  0  0  0  0  0  0  0
   -9.3304   19.4029  -31.8571 H   0  0  0  0  0  0  0  0  0  0  0  0
   -7.2147   20.7235  -33.6071 H   0  0  0  0  0  0  0  0  0  0  0  0
   -7.4109   17.4667  -31.5189 H   0  0  0  0  0  0  0  0  0  0  0  0
   -8.5320   17.1804  -32.8611 H   0  0  0  0  0  0  0  0  0  0  0  0
   -6.0106   15.8120  -32.3384 H   0  0  0  0  0  0  0  0  0  0  0  0
   -7.0589   15.5573  -33.7388 H   0  0  0  0  0  0  0  0  0  0  0  0
   -3.7074   16.0599  -33.9790 H   0  0  0  0  0  0  0  0  0  0  0  0
   -4.8011   15.6239  -35.3356 H   0  0  0  0  0  0  0  0  0  0  0  0
   -3.9584   17.2102  -35.3356 H   0  0  0  0  0  0  0  0  0  0  0  0
   -5.8919   21.0089  -31.7620 H   0  0  0  0  0  0  0  0  0  0  0  0
   -6.5680   19.5309  -30.9403 H   0  0  0  0  0  0  0  0  0  0  0  0
   -7.0481   21.9333  -29.9581 H   0  0  0  0  0  0  0  0  0  0  0  0
   -8.3507   20.6591  -30.0376 H   0  0  0  0  0  0  0  0  0  0  0  0
  1  2  1  0
  2  3  2  0
  3  4  1  0
  4  5  2  0
  5  6  1  0
  6  7  2  0
  7  8  1  0
  8  9  1  0
  9 10  1  0
 10 11  1  0
 11 12  1  0
 12 13  1  0
 13 14  1  0
 14 15  1  0
 15 16  1  0
 16 17  1  0
 16 18  1  0
 18 19  2  0
 12 20  1  0
 20 21  1  0
  7  2  1  0
 21  9  1  0
 18 13  1  0
  1 22  1  0
  1 23  1  0
  1 24  1  0
  3 25  1  0
  4 26  1  0
  5 27  1  0
  6 28  1  0
  8 29  1  0
  8 30  1  0
  9 31  1  1
 10 32  1  0
 10 33  1  0
 11 34  1  0
 11 35  1  0
 12 36  1  6
 14 37  1  0
 14 38  1  0
 15 39  1  0
 15 40  1  0
 17 41  1  0
 17 42  1  0
 17 43  1  0
 20 44  1  0
 20 45  1  0
 21 46  1  0
 21 47  1  0
M  CHG  1   9   1
M  END
>  <UniqueID>  (24) 
23

>  <SMILES>  (24) 
Cc1ccccc1C[NH+]1CCC(N2CCN(C)C2=O)CC1

>  <Energy>  (24) 
69.40769605256337

>  <Genealogy>  (24) 
Cc1ccccc1C[NH+]1CCC(N2CCN(C)C2=O)CC1 (protonated)
Cc1ccccc1C[NH+]1CCC(N2CCN(C)C2=O)CC1 (3D coordinates assigned)
Cc1ccccc1C[NH+]1CCC(N2CCN(C)C2=O)CC1 (nonaromatic ring conformer: 69.40769605256337 kcal/mol)

>  <smiles>  (24) 
Cc1ccccc1CN1CCC(N2CCN(C)C2=O)CC1

>  <score_type>  (24) 
oracle

>  <origin>  (24) 
adg

>  <m_score__min__energy>  (24) 
-7.0499999999999998

>  <m_primary>  (24) 
energy

$$$$
24:0
     RDKit          3D

 70 74  0  0  0  0  0  0  0  0999 V2000
   -8.1140   18.1610  -31.9200 C   0  0  0  0  0  0  0  0  0  0  0  0
   -6.8840   17.7830  -32.6950 C   0  0  0  0  0  0  0  0  0  0  0  0
   -6.8920   16.6410  -33.5070 C   0  0  0  0  0  0  0  0  0  0  0  0
   -5.7610   16.3000  -34.2510 C   0  0  0  0  0  0  0  0  0  0  0  0
   -4.6210   17.1050  -34.2060 C   0  0  0  0  0  0  0  0  0  0  0  0
   -4.6000   18.2720  -33.4190 C   0  0  0  0  0  0  0  0  0  0  0  0
   -3.4220   19.1150  -33.3770 N   0  0  0  0  0  0  0  0  0  0  0  0
   -3.5540   20.5780  -33.3590 C   0  0  0  0  0  0  0  0  0  0  0  0
   -2.3220   21.2140  -32.7070 C   0  0  0  0  0  0  0  0  0  0  0  0
   -1.0690   20.8430  -33.4060 N   0  0  0  0  0  0  0  0  0  0  0  0
    0.1030   21.1410  -32.5530 C   0  0  0  0  0  0  0  0  0  0  0  0
    0.5280   19.9050  -31.7420 C   0  0  0  0  0  0  0  0  0  0  0  0
   -0.2590   19.7310  -30.5770 O   0  0  0  0  0  0  0  0  0  0  0  0
    0.5270   19.8520  -29.4030 C   0  0  0  0  0  0  0  0  0  0  0  0
   -0.3410   20.3730  -28.2370 C   0  0  2  0  0  0  0  0  0  0  0  0
   -0.9110   19.1750  -27.4400 C   0  0  0  0  0  0  0  0  0  0  0  0
   -1.9080   19.6570  -26.3870 C   0  0  0  0  0  0  0  0  0  0  0  0
   -2.9570   20.3860  -27.0150 O   0  0  0  0  0  0  0  0  0  0  0  0
   -2.7100   21.2880  -28.0560 C   0  0  0  0  0  0  0  0  0  0  0  0
   -3.7280   22.1590  -28.4590 C   0  0  0  0  0  0  0  0  0  0  0  0
   -3.4940   23.1100  -29.4590 C   0  0  0  0  0  0  0  0  0  0  0  0
   -4.7780   24.2200  -29.9250 S   0  0  0  0  0  0  0  0  0  0  0  0
   -4.2540   25.2650  -30.8730 O   0  0  0  0  0  0  0  0  0  0  0  0
   -5.2990   24.9120  -28.6950 O   0  0  0  0  0  0  0  0  0  0  0  0
   -6.0670   23.3210  -30.7190 C   0  0  0  0  0  0  0  0  0  0  0  0
   -5.8960   21.9550  -30.9870 C   0  0  0  0  0  0  0  0  0  0  0  0
   -6.9090   21.2330  -31.6280 C   0  0  0  0  0  0  0  0  0  0  0  0
   -8.0970   21.8710  -32.0000 C   0  0  0  0  0  0  0  0  0  0  0  0
   -9.0770   21.1700  -32.6230 F   0  0  0  0  0  0  0  0  0  0  0  0
   -8.2750   23.2310  -31.7260 C   0  0  0  0  0  0  0  0  0  0  0  0
   -9.4270   23.8490  -32.0860 F   0  0  0  0  0  0  0  0  0  0  0  0
   -7.2630   23.9560  -31.0860 C   0  0  0  0  0  0  0  0  0  0  0  0
   -2.2320   23.1810  -30.0640 C   0  0  0  0  0  0  0  0  0  0  0  0
   -1.2150   22.3050  -29.6770 C   0  0  0  0  0  0  0  0  0  0  0  0
   -1.4490   21.3210  -28.6960 C   0  0  0  0  0  0  0  0  0  0  0  0
   -1.0440   19.4480  -33.9270 C   0  0  0  0  0  0  0  0  0  0  0  0
   -2.0800   18.5300  -33.2630 C   0  0  0  0  0  0  0  0  0  0  0  0
   -5.7450   18.6030  -32.6660 C   0  0  0  0  0  0  0  0  0  0  0  0
   -7.9028   18.0961  -30.8424 H   0  0  0  0  0  0  0  0  0  0  0  0
   -8.4061   19.1904  -32.1750 H   0  0  0  0  0  0  0  0  0  0  0  0
   -8.9338   17.4733  -32.1750 H   0  0  0  0  0  0  0  0  0  0  0  0
   -7.7924   16.0112  -33.5584 H   0  0  0  0  0  0  0  0  0  0  0  0
   -5.7680   15.3940  -34.8748 H   0  0  0  0  0  0  0  0  0  0  0  0
   -3.7321   16.8250  -34.7903 H   0  0  0  0  0  0  0  0  0  0  0  0
   -3.6497   20.9466  -34.3910 H   0  0  0  0  0  0  0  0  0  0  0  0
   -4.4475   20.8500  -32.7779 H   0  0  0  0  0  0  0  0  0  0  0  0
   -2.4320   22.3082  -32.7324 H   0  0  0  0  0  0  0  0  0  0  0  0
   -2.2562   20.8441  -31.6732 H   0  0  0  0  0  0  0  0  0  0  0  0
    0.9410   21.4567  -33.1918 H   0  0  0  0  0  0  0  0  0  0  0  0
   -0.1715   21.9417  -31.8504 H   0  0  0  0  0  0  0  0  0  0  0  0
    0.4235   19.0124  -32.3763 H   0  0  0  0  0  0  0  0  0  0  0  0
    1.5711   20.0521  -31.4252 H   0  0  0  0  0  0  0  0  0  0  0  0
    0.9398   18.8674  -29.1380 H   0  0  0  0  0  0  0  0  0  0  0  0
    1.3460   20.5625  -29.5887 H   0  0  0  0  0  0  0  0  0  0  0  0
    0.3058   20.9716  -27.5787 H   0  0  0  0  0  0  0  0  0  0  0  0
   -1.4200   18.4888  -28.1329 H   0  0  0  0  0  0  0  0  0  0  0  0
   -0.0821   18.6582  -26.9342 H   0  0  0  0  0  0  0  0  0  0  0  0
   -2.3310   18.7890  -25.8601 H   0  0  0  0  0  0  0  0  0  0  0  0
   -1.3908   20.3102  -25.6688 H   0  0  0  0  0  0  0  0  0  0  0  0
   -4.7194   22.0960  -27.9866 H   0  0  0  0  0  0  0  0  0  0  0  0
   -4.9640   21.4503  -30.6928 H   0  0  0  0  0  0  0  0  0  0  0  0
   -6.7709   20.1624  -31.8396 H   0  0  0  0  0  0  0  0  0  0  0  0
   -7.4057   25.0252  -30.8705 H   0  0  0  0  0  0  0  0  0  0  0  0
   -2.0414   23.9297  -30.8470 H   0  0  0  0  0  0  0  0  0  0  0  0
   -0.2216   22.3842  -30.1427 H   0  0  0  0  0  0  0  0  0  0  0  0
   -1.2451   19.4760  -35.0081 H   0  0  0  0  0  0  0  0  0  0  0  0
   -0.0505   19.0343  -33.6992 H   0  0  0  0  0  0  0  0  0  0  0  0
   -2.0678   17.5488  -33.7601 H   0  0  0  0  0  0  0  0  0  0  0  0
   -1.8277   18.4145  -32.1986 H   0  0  0  0  0  0  0  0  0  0  0  0
   -5.7459   19.5137  -32.0491 H   0  0  0  0  0  0  0  0  0  0  0  0
  1  2  1  0
  2  3  2  0
  3  4  1  0
  4  5  2  0
  5  6  1  0
  6  7  1  0
  7  8  1  0
  8  9  1  0
  9 10  1  0
 10 11  1  0
 11 12  1  0
 12 13  1  0
 13 14  1  0
 14 15  1  0
 15 16  1  0
 16 17  1  0
 17 18  1  0
 18 19  1  0
 19 20  2  0
 20 21  1  0
 21 22  1  0
 22 23  2  0
 22 24  2  0
 22 25  1  0
 25 26  2  0
 26 27  1  0
 27 28  2  0
 28 29  1  0
 28 30  1  0
 30 31  1  0
 30 32  2  0
 21 33  2  0
 33 34  1  0
 34 35  2  0
 10 36  1  0
 36 37  1  0
  6 38  2  0
 38  2  1  0
 37  7  1  0
 35 15  1  0
 35 19  1  0
 32 25  1  0
  1 39  1  0
  1 40  1  0
  1 41  1  0
  3 42  1  0
  4 43  1  0
  5 44  1  0
  8 45  1  0
  8 46  1  0
  9 47  1  0
  9 48  1  0
 11 49  1  0
 11 50  1  0
 12 51  1  0
 12 52  1  0
 14 53  1  0
 14 54  1  0
 15 55  1  1
 16 56  1  0
 16 57  1  0
 17 58  1  0
 17 59  1  0
 20 60  1  0
 26 61  1  0
 27 62  1  0
 32 63  1  0
 33 64  1  0
 34 65  1  0
 36 66  1  0
 36 67  1  0
 37 68  1  0
 37 69  1  0
 38 70  1  0
M  END
>  <UniqueID>  (25) 
24

>  <SMILES>  (25) 
Cc1cccc(N2CCN(CCOC[C@@H]3CCOc4cc(S(=O)(=O)c5ccc(F)c(F)c5)ccc43)CC2)c1

>  <Energy>  (25) 
88.64353661196017

>  <Genealogy>  (25) 
Cc1cccc(N2CCN(CCOC[C@@H]3CCOc4cc(S(=O)(=O)c5ccc(F)c(F)c5)ccc43)CC2)c1 (chirality)
Cc1cccc(N2CCN(CCOC[C@@H]3CCOc4cc(S(=O)(=O)c5ccc(F)c(F)c5)ccc43)CC2)c1 (3D coordinates assigned)
Cc1cccc(N2CCN(CCOC[C@@H]3CCOc4cc(S(=O)(=O)c5ccc(F)c(F)c5)ccc43)CC2)c1 (nonaromatic ring conformer: 88.64353661196017 kcal/mol)

>  <smiles>  (25) 
Cc1cccc(N2CCN(CCOCC3CCOc4cc(S(=O)(=O)c5ccc(F)c(F)c5)ccc43)CC2)c1

>  <score_type>  (25) 
oracle

>  <origin>  (25) 
adg

>  <m_score__min__energy>  (25) 
-10.640000000000001

>  <m_primary>  (25) 
energy

$$$$
25:0
     RDKit          3D

 43 45  0  0  0  0  0  0  0  0999 V2000
   -0.8590   26.7520  -27.5970 C   0  0  0  0  0  0  0  0  0  0  0  0
   -1.3850   26.1440  -28.7730 O   0  0  0  0  0  0  0  0  0  0  0  0
   -1.3980   24.7610  -29.0160 C   0  0  0  0  0  0  0  0  0  0  0  0
   -0.3600   23.9160  -28.5780 C   0  0  0  0  0  0  0  0  0  0  0  0
   -0.4030   22.5470  -28.8480 C   0  0  0  0  0  0  0  0  0  0  0  0
   -1.4860   21.9960  -29.5430 C   0  0  0  0  0  0  0  0  0  0  0  0
   -1.4890   20.5310  -29.9020 C   0  0  0  0  0  0  0  0  0  0  0  0
   -1.5370   20.3240  -31.4210 C   0  0  0  0  0  0  0  0  0  0  0  0
   -2.9110   20.1050  -31.8700 N   0  0  0  0  0  0  0  0  0  0  0  0
   -3.7360   21.1740  -32.3570 C   0  0  0  0  0  0  0  0  0  0  0  0
   -3.2120   22.2460  -32.7660 O   0  0  0  0  0  0  0  0  0  0  0  0
   -5.2000   21.0420  -32.3420 C   0  0  0  0  0  0  0  0  0  0  0  0
   -6.1010   22.0650  -32.0560 C   0  0  0  0  0  0  0  0  0  0  0  0
   -7.3340   21.4600  -32.1310 C   0  0  0  0  0  0  0  0  0  0  0  0
   -8.6150   21.9690  -31.9290 C   0  0  0  0  0  0  0  0  0  0  0  0
   -9.7010   21.0850  -32.0710 C   0  0  0  0  0  0  0  0  0  0  0  0
   -9.4800   19.7290  -32.4040 C   0  0  0  0  0  0  0  0  0  0  0  0
   -8.1720   19.2460  -32.6000 C   0  0  0  0  0  0  0  0  0  0  0  0
   -7.1200   20.1460  -32.4530 C   0  0  0  0  0  0  0  0  0  0  0  0
   -5.8380   19.9080  -32.5770 O   0  0  0  0  0  0  0  0  0  0  0  0
   -2.5260   22.8340  -29.9760 C   0  0  0  0  0  0  0  0  0  0  0  0
   -2.4830   24.2190  -29.7210 C   0  0  0  0  0  0  0  0  0  0  0  0
   -3.4940   25.0880  -30.1600 O   0  0  0  0  0  0  0  0  0  0  0  0
   -4.8860   24.7930  -30.1220 C   0  0  0  0  0  0  0  0  0  0  0  0
   -1.2838   26.2610  -26.7090 H   0  0  0  0  0  0  0  0  0  0  0  0
    0.2357   26.6446  -27.5870 H   0  0  0  0  0  0  0  0  0  0  0  0
   -1.1228   27.8199  -27.5870 H   0  0  0  0  0  0  0  0  0  0  0  0
    0.4894   24.3370  -28.0200 H   0  0  0  0  0  0  0  0  0  0  0  0
    0.4190   21.8975  -28.5126 H   0  0  0  0  0  0  0  0  0  0  0  0
   -0.5748   20.0643  -29.5065 H   0  0  0  0  0  0  0  0  0  0  0  0
   -2.3859   20.0701  -29.4626 H   0  0  0  0  0  0  0  0  0  0  0  0
   -1.1321   21.2168  -31.9200 H   0  0  0  0  0  0  0  0  0  0  0  0
   -0.9364   19.4385  -31.6762 H   0  0  0  0  0  0  0  0  0  0  0  0
   -3.3600   19.1930  -31.6260 H   0  0  0  0  0  0  0  0  0  0  0  0
   -5.8775   23.1166  -31.8233 H   0  0  0  0  0  0  0  0  0  0  0  0
   -8.7723   23.0258  -31.6674 H   0  0  0  0  0  0  0  0  0  0  0  0
  -10.7275   21.4513  -31.9220 H   0  0  0  0  0  0  0  0  0  0  0  0
  -10.3359   19.0464  -32.5107 H   0  0  0  0  0  0  0  0  0  0  0  0
   -7.9876   18.1933  -32.8604 H   0  0  0  0  0  0  0  0  0  0  0  0
   -3.3815   22.4057  -30.5188 H   0  0  0  0  0  0  0  0  0  0  0  0
   -5.2175   24.7227  -29.0755 H   0  0  0  0  0  0  0  0  0  0  0  0
   -5.4443   25.5928  -30.6306 H   0  0  0  0  0  0  0  0  0  0  0  0
   -5.0719   23.8355  -30.6306 H   0  0  0  0  0  0  0  0  0  0  0  0
  1  2  1  0
  2  3  1  0
  3  4  2  0
  4  5  1  0
  5  6  2  0
  6  7  1  0
  7  8  1  0
  8  9  1  0
  9 10  1  0
 10 11  2  0
 10 12  1  0
 12 13  2  0
 13 14  1  0
 14 15  2  0
 15 16  1  0
 16 17  2  0
 17 18  1  0
 18 19  2  0
 19 20  1  0
  6 21  1  0
 21 22  2  0
 22 23  1  0
 23 24  1  0
 22  3  1  0
 20 12  1  0
 19 14  1  0
  1 25  1  0
  1 26  1  0
  1 27  1  0
  4 28  1  0
  5 29  1  0
  7 30  1  0
  7 31  1  0
  8 32  1  0
  8 33  1  0
  9 34  1  0
 13 35  1  0
 15 36  1  0
 16 37  1  0
 17 38  1  0
 18 39  1  0
 21 40  1  0
 24 41  1  0
 24 42  1  0
 24 43  1  0
M  END
>  <UniqueID>  (26) 
25

>  <SMILES>  (26) 
COc1ccc(CCNC(=O)c2cc3ccccc3o2)cc1OC

>  <Energy>  (26) 
70.09517486958191

>  <Genealogy>  (26) 
COc1ccc(CCNC(=O)c2cc3ccccc3o2)cc1OC (3D coordinates assigned)
COc1ccc(CCNC(=O)c2cc3ccccc3o2)cc1OC (optimized conformer: 70.09517486958191 kcal/mol)

>  <smiles>  (26) 
COc1ccc(CCNC(=O)c2cc3ccccc3o2)cc1OC

>  <score_type>  (26) 
oracle

>  <origin>  (26) 
adg

>  <m_score__min__energy>  (26) 
-8.3800000000000008

>  <m_primary>  (26) 
energy

$$$$
26:0
     RDKit          3D

 27 28  0  0  0  0  0  0  0  0999 V2000
   -6.2310   19.3720  -33.8180 C   0  0  0  0  0  0  0  0  0  0  0  0
   -6.4550   20.5670  -32.9320 C   0  0  0  0  0  0  0  0  0  0  0  0
   -7.7190   20.7840  -32.3640 C   0  0  0  0  0  0  0  0  0  0  0  0
   -7.9520   21.8920  -31.5530 C   0  0  0  0  0  0  0  0  0  0  0  0
   -6.9190   22.7970  -31.2930 C   0  0  0  0  0  0  0  0  0  0  0  0
   -7.1280   23.9080  -30.4670 C   0  0  0  0  0  0  0  0  0  0  0  0
   -6.0750   24.7820  -30.2160 C   0  0  0  0  0  0  0  0  0  0  0  0
   -4.8310   24.5230  -30.7960 C   0  0  0  0  0  0  0  0  0  0  0  0
   -3.8640   25.2990  -30.5800 O   0  0  0  0  0  0  0  0  0  0  0  0
   -4.6630   23.4620  -31.5790 O   0  0  0  0  0  0  0  0  0  0  0  0
   -5.6360   22.5990  -31.8580 C   0  0  0  0  0  0  0  0  0  0  0  0
   -5.4050   21.4820  -32.7010 C   0  0  0  0  0  0  0  0  0  0  0  0
   -4.1670   21.2160  -33.3220 O   0  0  0  0  0  0  0  0  0  0  0  0
   -2.8790   21.1590  -32.7060 C   0  0  0  0  0  0  0  0  0  0  0  0
   -1.8150   20.6920  -33.6970 C   0  0  0  0  0  0  0  0  0  0  0  0
   -0.7000   21.5060  -33.6100 F   0  0  0  0  0  0  0  0  0  0  0  0
   -6.0639   18.4804  -33.1958 H   0  0  0  0  0  0  0  0  0  0  0  0
   -7.1154   19.2154  -34.4530 H   0  0  0  0  0  0  0  0  0  0  0  0
   -5.3499   19.5464  -34.4530 H   0  0  0  0  0  0  0  0  0  0  0  0
   -8.5341   20.0722  -32.5610 H   0  0  0  0  0  0  0  0  0  0  0  0
   -8.9488   22.0549  -31.1172 H   0  0  0  0  0  0  0  0  0  0  0  0
   -8.1168   24.0884  -30.0201 H   0  0  0  0  0  0  0  0  0  0  0  0
   -6.2197   25.6619  -29.5719 H   0  0  0  0  0  0  0  0  0  0  0  0
   -2.6122   22.1608  -32.3382 H   0  0  0  0  0  0  0  0  0  0  0  0
   -2.9212   20.4400  -31.8746 H   0  0  0  0  0  0  0  0  0  0  0  0
   -1.5291   19.6558  -33.4635 H   0  0  0  0  0  0  0  0  0  0  0  0
   -2.2228   20.7447  -34.7173 H   0  0  0  0  0  0  0  0  0  0  0  0
  1  2  1  0
  2  3  2  0
  3  4  1  0
  4  5  2  0
  5  6  1  0
  6  7  2  0
  7  8  1  0
  8  9  2  0
  8 10  1  0
 10 11  1  0
 11 12  2  0
 12 13  1  0
 13 14  1  0
 14 15  1  0
 15 16  1  0
 12  2  1  0
 11  5  1  0
  1 17  1  0
  1 18  1  0
  1 19  1  0
  3 20  1  0
  4 21  1  0
  6 22  1  0
  7 23  1  0
 14 24  1  0
 14 25  1  0
 15 26  1  0
 15 27  1  0
M  END
>  <UniqueID>  (27) 
26

>  <SMILES>  (27) 
Cc1ccc2ccc(=O)oc2c1OCCF

>  <Energy>  (27) 
32.26710615403937

>  <Genealogy>  (27) 
Cc1ccc2ccc(=O)oc2c1OCCF (3D coordinates assigned)
Cc1ccc2ccc(=O)oc2c1OCCF (optimized conformer: 32.26710615403937 kcal/mol)

>  <smiles>  (27) 
Cc1ccc2ccc(=O)oc2c1OCCF

>  <score_type>  (27) 
oracle

>  <origin>  (27) 
adg

>  <m_score__min__energy>  (27) 
-6.4400000000000004

>  <m_primary>  (27) 
energy

$$$$
27:0
     RDKit          3D

 56 59  0  0  0  0  0  0  0  0999 V2000
   -5.4860   25.8300  -30.4300 C   0  0  0  0  0  0  0  0  0  0  0  0
   -4.0830   25.6320  -30.2860 O   0  0  0  0  0  0  0  0  0  0  0  0
   -3.4830   24.4070  -29.9540 C   0  0  0  0  0  0  0  0  0  0  0  0
   -4.1110   23.1730  -30.2120 C   0  0  0  0  0  0  0  0  0  0  0  0
   -3.4830   21.9750  -29.8660 C   0  0  0  0  0  0  0  0  0  0  0  0
   -2.2260   21.9870  -29.2480 C   0  0  0  0  0  0  0  0  0  0  0  0
   -1.5370   20.6930  -28.9080 C   0  0  0  0  0  0  0  0  0  0  0  0
   -0.7550   20.1640  -30.1140 C   0  0  0  0  0  0  0  0  0  0  0  0
   -1.6500   19.8920  -31.2380 N   0  0  0  0  0  0  0  0  0  0  0  0
   -1.5730   20.6450  -32.4530 C   0  0  0  0  0  0  0  0  0  0  0  0
   -0.7220   21.5710  -32.5710 O   0  0  0  0  0  0  0  0  0  0  0  0
   -2.5140   20.3270  -33.5830 C   0  0  0  0  0  0  0  0  0  0  0  0
   -3.5860   19.4010  -33.1690 N   0  0  0  0  0  0  0  0  0  0  0  0
   -4.9110   19.9320  -32.8860 C   0  0  0  0  0  0  0  0  0  0  0  0
   -5.0710   21.2310  -32.3560 C   0  0  0  0  0  0  0  0  0  0  0  0
   -6.3430   21.7520  -32.1050 C   0  0  0  0  0  0  0  0  0  0  0  0
   -7.4780   20.9910  -32.3830 C   0  0  0  0  0  0  0  0  0  0  0  0
   -7.3430   19.7050  -32.9050 C   0  0  0  0  0  0  0  0  0  0  0  0
   -6.0710   19.1740  -33.1520 C   0  0  0  0  0  0  0  0  0  0  0  0
   -5.9230   17.5640  -33.8080 S   0  0  0  0  0  0  0  0  0  0  0  0
   -6.1090   17.5870  -35.3000 O   0  0  0  0  0  0  0  0  0  0  0  0
   -6.9390   16.6590  -33.1680 O   0  0  0  0  0  0  0  0  0  0  0  0
   -4.3140   17.0260  -33.4030 C   0  0  0  0  0  0  0  0  0  0  0  0
   -4.0310   15.6540  -33.3770 C   0  0  0  0  0  0  0  0  0  0  0  0
   -2.7490   15.2080  -33.0560 C   0  0  0  0  0  0  0  0  0  0  0  0
   -1.7450   16.1290  -32.7630 C   0  0  0  0  0  0  0  0  0  0  0  0
   -2.0180   17.4990  -32.7930 C   0  0  0  0  0  0  0  0  0  0  0  0
   -3.3090   17.9730  -33.1160 C   0  0  0  0  0  0  0  0  0  0  0  0
   -1.5910   23.2130  -29.0010 C   0  0  0  0  0  0  0  0  0  0  0  0
   -2.2170   24.4270  -29.3490 C   0  0  0  0  0  0  0  0  0  0  0  0
   -1.6120   25.6710  -29.1100 O   0  0  0  0  0  0  0  0  0  0  0  0
   -0.9680   26.0380  -27.8940 C   0  0  0  0  0  0  0  0  0  0  0  0
   -5.9510   25.8956  -29.4353 H   0  0  0  0  0  0  0  0  0  0  0  0
   -5.6698   26.7630  -30.9830 H   0  0  0  0  0  0  0  0  0  0  0  0
   -5.9208   24.9843  -30.9830 H   0  0  0  0  0  0  0  0  0  0  0  0
   -5.1020   23.1530  -30.6889 H   0  0  0  0  0  0  0  0  0  0  0  0
   -3.9781   21.0163  -30.0799 H   0  0  0  0  0  0  0  0  0  0  0  0
   -0.8416   20.8626  -28.0727 H   0  0  0  0  0  0  0  0  0  0  0  0
   -2.2978   19.9503  -28.6259 H   0  0  0  0  0  0  0  0  0  0  0  0
   -0.0119   20.9155  -30.4191 H   0  0  0  0  0  0  0  0  0  0  0  0
   -0.2574   19.2262  -29.8262 H   0  0  0  0  0  0  0  0  0  0  0  0
   -2.3640   19.1320  -31.1660 H   0  0  0  0  0  0  0  0  0  0  0  0
   -2.9709   21.2625  -33.9380 H   0  0  0  0  0  0  0  0  0  0  0  0
   -1.9337   19.8387  -34.3798 H   0  0  0  0  0  0  0  0  0  0  0  0
   -4.1821   21.8411  -32.1377 H   0  0  0  0  0  0  0  0  0  0  0  0
   -6.4492   22.7641  -31.6874 H   0  0  0  0  0  0  0  0  0  0  0  0
   -8.4789   21.4048  -32.1907 H   0  0  0  0  0  0  0  0  0  0  0  0
   -8.2390   19.1055  -33.1236 H   0  0  0  0  0  0  0  0  0  0  0  0
   -4.8223   14.9264  -33.6104 H   0  0  0  0  0  0  0  0  0  0  0  0
   -2.5306   14.1301  -33.0341 H   0  0  0  0  0  0  0  0  0  0  0  0
   -0.7349   15.7765  -32.5074 H   0  0  0  0  0  0  0  0  0  0  0  0
   -1.2176   18.2175  -32.5622 H   0  0  0  0  0  0  0  0  0  0  0  0
   -0.5962   23.2272  -28.5318 H   0  0  0  0  0  0  0  0  0  0  0  0
   -1.5716   25.6940  -27.0411 H   0  0  0  0  0  0  0  0  0  0  0  0
    0.0272   25.5714  -27.8508 H   0  0  0  0  0  0  0  0  0  0  0  0
   -0.8622   27.1320  -27.8508 H   0  0  0  0  0  0  0  0  0  0  0  0
  1  2  1  0
  2  3  1  0
  3  4  2  0
  4  5  1  0
  5  6  2  0
  6  7  1  0
  7  8  1  0
  8  9  1  0
  9 10  1  0
 10 11  2  0
 10 12  1  0
 12 13  1  0
 13 14  1  0
 14 15  2  0
 15 16  1  0
 16 17  2  0
 17 18  1  0
 18 19  2  0
 19 20  1  0
 20 21  2  0
 20 22  2  0
 20 23  1  0
 23 24  2  0
 24 25  1  0
 25 26  2  0
 26 27  1  0
 27 28  2  0
  6 29  1  0
 29 30  2  0
 30 31  1  0
 31 32  1  0
 30  3  1  0
 28 13  1  0
 19 14  1  0
 28 23  1  0
  1 33  1  0
  1 34  1  0
  1 35  1  0
  4 36  1  0
  5 37  1  0
  7 38  1  0
  7 39  1  0
  8 40  1  0
  8 41  1  0
  9 42  1  0
 12 43  1  0
 12 44  1  0
 15 45  1  0
 16 46  1  0
 17 47  1  0
 18 48  1  0
 24 49  1  0
 25 50  1  0
 26 51  1  0
 27 52  1  0
 29 53  1  0
 32 54  1  0
 32 55  1  0
 32 56  1  0
M  END
>  <UniqueID>  (28) 
27

>  <SMILES>  (28) 
COc1ccc(CCNC(=O)CN2c3ccccc3S(=O)(=O)c3ccccc32)cc1OC

>  <Energy>  (28) 
66.62852027539617

>  <Genealogy>  (28) 
COc1ccc(CCNC(=O)CN2c3ccccc3S(=O)(=O)c3ccccc32)cc1OC (3D coordinates assigned)
COc1ccc(CCNC(=O)CN2c3ccccc3S(=O)(=O)c3ccccc32)cc1OC (nonaromatic ring conformer: 66.62852027539617 kcal/mol)

>  <smiles>  (28) 
COc1ccc(CCNC(=O)CN2c3ccccc3S(=O)(=O)c3ccccc32)cc1OC

>  <score_type>  (28) 
oracle

>  <origin>  (28) 
adg

>  <m_score__min__energy>  (28) 
-10.32

>  <m_primary>  (28) 
energy

$$$$
28:0
     RDKit          3D

 44 48  0  0  0  0  0  0  0  0999 V2000
   -3.8810   26.4130  -29.8080 H   0  0  0  0  0  0  0  0  0  0  0  0
   -4.5910   26.0050  -30.4510 N   0  0  0  0  0  0  0  0  0  0  0  0
   -4.6100   24.7720  -30.8550 C   0  0  0  0  0  0  0  0  0  0  0  0
   -5.5460   24.4140  -31.7720 N   0  0  0  0  0  0  0  0  0  0  0  0
   -5.6070   23.1690  -32.3110 C   0  0  0  0  0  0  0  0  0  0  0  0
   -6.3908   22.9274  -33.0440 H   0  0  0  0  0  0  0  0  0  0  0  0
   -4.6770   22.1920  -31.9380 C   0  0  0  0  0  0  0  0  0  0  0  0
   -4.7300   20.8330  -32.5340 C   0  0  0  0  0  0  0  0  0  0  0  0
   -3.6600   20.3580  -33.3120 C   0  0  0  0  0  0  0  0  0  0  0  0
   -2.7808   20.9953  -33.4873 H   0  0  0  0  0  0  0  0  0  0  0  0
   -3.7150   19.0780  -33.8610 C   0  0  0  0  0  0  0  0  0  0  0  0
   -2.8796   18.7039  -34.4711 H   0  0  0  0  0  0  0  0  0  0  0  0
   -4.8340   18.2700  -33.6350 C   0  0  0  0  0  0  0  0  0  0  0  0
   -4.9140   16.9790  -34.1770 C   0  0  0  0  0  0  0  0  0  0  0  0
   -4.0853   16.5913  -34.7877 H   0  0  0  0  0  0  0  0  0  0  0  0
   -6.0400   16.1800  -33.9470 C   0  0  0  0  0  0  0  0  0  0  0  0
   -6.0710   14.8960  -34.5110 O   0  0  0  0  0  0  0  0  0  0  0  0
   -7.2370   14.0840  -34.5990 C   0  0  0  0  0  0  0  0  0  0  0  0
   -7.5899   13.8382  -33.5866 H   0  0  0  0  0  0  0  0  0  0  0  0
   -8.0243   14.6302  -35.1392 H   0  0  0  0  0  0  0  0  0  0  0  0
   -6.9977   13.1561  -35.1392 H   0  0  0  0  0  0  0  0  0  0  0  0
   -7.0960   16.6850  -33.1640 C   0  0  0  0  0  0  0  0  0  0  0  0
   -7.9848   16.0638  -32.9792 H   0  0  0  0  0  0  0  0  0  0  0  0
   -7.0220   17.9710  -32.6200 C   0  0  0  0  0  0  0  0  0  0  0  0
   -7.8519   18.3556  -32.0090 H   0  0  0  0  0  0  0  0  0  0  0  0
   -5.8940   18.7730  -32.8500 C   0  0  0  0  0  0  0  0  0  0  0  0
   -5.8170   20.0300  -32.3230 N   0  0  0  0  0  0  0  0  0  0  0  0
   -6.6200   20.3940  -31.7610 H   0  0  0  0  0  0  0  0  0  0  0  0
   -3.7020   22.5280  -30.9870 C   0  0  0  0  0  0  0  0  0  0  0  0
   -2.9575   21.7767  -30.6850 H   0  0  0  0  0  0  0  0  0  0  0  0
   -3.6630   23.8100  -30.4150 C   0  0  0  0  0  0  0  0  0  0  0  0
   -2.6550   24.0780  -29.3630 C   0  0  0  0  0  0  0  0  0  0  0  0
   -2.2900   23.1400  -28.4470 N   0  0  0  0  0  0  0  0  0  0  0  0
   -1.4310   23.8100  -27.6670 C   0  0  0  0  0  0  0  0  0  0  0  0
   -0.7380   23.3330  -26.5560 C   0  0  0  0  0  0  0  0  0  0  0  0
   -0.8494   22.2920  -26.2186 H   0  0  0  0  0  0  0  0  0  0  0  0
    0.1100   24.2320  -25.8810 C   0  0  0  0  0  0  0  0  0  0  0  0
    0.6763   23.8934  -25.0009 H   0  0  0  0  0  0  0  0  0  0  0  0
    0.2380   25.5680  -26.3280 C   0  0  0  0  0  0  0  0  0  0  0  0
    0.9025   26.2627  -25.7933 H   0  0  0  0  0  0  0  0  0  0  0  0
   -0.4810   26.0130  -27.4540 C   0  0  0  0  0  0  0  0  0  0  0  0
   -0.3930   27.0490  -27.8132 H   0  0  0  0  0  0  0  0  0  0  0  0
   -1.3080   25.0940  -28.0970 C   0  0  0  0  0  0  0  0  0  0  0  0
   -2.0830   25.2980  -29.1710 N   0  0  0  0  0  0  0  0  0  0  0  0
  1  2  1  0
  2  3  2  0
  3  4  1  0
  4  5  1  0
  5  6  1  0
  5  7  2  0
  7  8  1  0
  8  9  2  0
  9 10  1  0
  9 11  1  0
 11 12  1  0
 11 13  2  0
 13 14  1  0
 14 15  1  0
 14 16  2  0
 16 17  1  0
 17 18  1  0
 18 19  1  0
 18 20  1  0
 18 21  1  0
 16 22  1  0
 22 23  1  0
 22 24  2  0
 24 25  1  0
 24 26  1  0
 26 27  2  0
 27 28  1  0
  7 29  1  0
 29 30  1  0
 29 31  2  0
 31 32  1  0
 32 33  2  0
 33 34  1  0
 34 35  2  0
 35 36  1  0
 35 37  1  0
 37 38  1  0
 37 39  2  0
 39 40  1  0
 39 41  1  0
 41 42  1  0
 41 43  2  0
 43 44  1  0
 31  3  1  0
 44 32  1  0
 27  8  1  0
 43 34  1  0
 26 13  1  0
M  CHG  3   4  -1  27   1  44  -1
M  END
>  <UniqueID>  (29) 
28

>  <SMILES>  (29) 
[H]/N=c1/[n-]cc(-c2ccc3cc(OC)ccc3[nH+]2)cc1-c1nc2ccccc2[n-]1

>  <Energy>  (29) 
101.14079820702013

>  <Genealogy>  (29) 
COc1ccc2[nH+]c(-c3c[n-]c(=N)c(-c4nc5ccccc5[n-]4)c3)ccc2c1 (protonated)
[H]/N=c1/[n-]cc(-c2ccc3cc(OC)ccc3[nH+]2)cc1-c1nc2ccccc2[n-]1 (cis-trans isomerization)
[H]/N=c1/[n-]cc(-c2ccc3cc(OC)ccc3[nH+]2)cc1-c1nc2ccccc2[n-]1 (3D coordinates assigned)
[H]/N=c1/[n-]cc(-c2ccc3cc(OC)ccc3[nH+]2)cc1-c1nc2ccccc2[n-]1 (optimized conformer: 101.14079820702013 kcal/mol)

>  <smiles>  (29) 
COc1ccc2nc(-c3c[nH]c(=N)c(-c4nc5ccccc5[nH]4)c3)ccc2c1

>  <score_type>  (29) 
oracle

>  <origin>  (29) 
adg

>  <m_score__min__energy>  (29) 
-10.699999999999999

>  <m_primary>  (29) 
energy

$$$$
29:0
     RDKit          3D

 32 34  0  0  0  0  0  0  0  0999 V2000
   -3.8710   25.2980  -30.4680 O   0  0  0  0  0  0  0  0  0  0  0  0
   -4.6690   24.3660  -30.7610 C   0  0  0  0  0  0  0  0  0  0  0  0
   -6.0110   24.6650  -30.9860 C   0  0  0  0  0  0  0  0  0  0  0  0
   -6.8910   23.6450  -31.3250 C   0  0  0  0  0  0  0  0  0  0  0  0
   -6.4110   22.3370  -31.4420 C   0  0  0  0  0  0  0  0  0  0  0  0
   -7.3260   21.2260  -31.7980 C   0  0  0  0  0  0  0  0  0  0  0  0
   -8.7010   21.4790  -31.9610 C   0  0  0  0  0  0  0  0  0  0  0  0
   -9.5770   20.4440  -32.2990 C   0  0  0  0  0  0  0  0  0  0  0  0
   -9.0930   19.1460  -32.4730 C   0  0  0  0  0  0  0  0  0  0  0  0
   -7.7310   18.8800  -32.3060 C   0  0  0  0  0  0  0  0  0  0  0  0
   -6.8480   19.9110  -31.9690 C   0  0  0  0  0  0  0  0  0  0  0  0
   -5.5370   19.6150  -31.7740 F   0  0  0  0  0  0  0  0  0  0  0  0
   -5.0890   22.0930  -31.2040 N   0  0  0  0  0  0  0  0  0  0  0  0
   -4.2350   23.0690  -30.8620 N   0  0  0  0  0  0  0  0  0  0  0  0
   -2.8190   22.7340  -30.6590 C   0  0  0  0  0  0  0  0  0  0  0  0
   -2.3330   21.8800  -31.7870 C   0  0  0  0  0  0  0  0  0  0  0  0
   -1.0190   21.5410  -32.0380 C   0  0  0  0  0  0  0  0  0  0  0  0
   -1.0470   20.7800  -33.1860 C   0  0  0  0  0  0  0  0  0  0  0  0
   -2.3720   20.7080  -33.5670 C   0  0  0  0  0  0  0  0  0  0  0  0
   -3.1150   21.3750  -32.7140 O   0  0  0  0  0  0  0  0  0  0  0  0
   -6.3709   25.7006  -30.8959 H   0  0  0  0  0  0  0  0  0  0  0  0
   -7.9547   23.8641  -31.4996 H   0  0  0  0  0  0  0  0  0  0  0  0
   -9.0888   22.4988  -31.8213 H   0  0  0  0  0  0  0  0  0  0  0  0
  -10.6494   20.6522  -32.4281 H   0  0  0  0  0  0  0  0  0  0  0  0
   -9.7834   18.3328  -32.7415 H   0  0  0  0  0  0  0  0  0  0  0  0
   -7.3522   17.8560  -32.4401 H   0  0  0  0  0  0  0  0  0  0  0  0
   -4.7320   21.1150  -31.3130 H   0  0  0  0  0  0  0  0  0  0  0  0
   -2.2266   23.6601  -30.6207 H   0  0  0  0  0  0  0  0  0  0  0  0
   -2.7083   22.1835  -29.7131 H   0  0  0  0  0  0  0  0  0  0  0  0
   -0.1350   21.8199  -31.4458 H   0  0  0  0  0  0  0  0  0  0  0  0
   -0.1869   20.3220  -33.6963 H   0  0  0  0  0  0  0  0  0  0  0  0
   -2.7484   20.1729  -34.4513 H   0  0  0  0  0  0  0  0  0  0  0  0
  1  2  2  0
  2  3  1  0
  3  4  2  0
  4  5  1  0
  5  6  1  0
  6  7  2  0
  7  8  1  0
  8  9  2  0
  9 10  1  0
 10 11  2  0
 11 12  1  0
  5 13  2  0
 13 14  1  0
 14 15  1  0
 15 16  1  0
 16 17  2  0
 17 18  1  0
 18 19  2  0
 19 20  1  0
 14  2  1  0
 20 16  1  0
 11  6  1  0
  3 21  1  0
  4 22  1  0
  7 23  1  0
  8 24  1  0
  9 25  1  0
 10 26  1  0
 13 27  1  0
 15 28  1  0
 15 29  1  0
 17 30  1  0
 18 31  1  0
 19 32  1  0
M  CHG  1  13   1
M  END
>  <UniqueID>  (30) 
29

>  <SMILES>  (30) 
O=c1ccc(-c2ccccc2F)[nH+]n1Cc1ccco1

>  <Energy>  (30) 
66.81407091554594

>  <Genealogy>  (30) 
O=c1ccc(-c2ccccc2F)[nH+]n1Cc1ccco1 (protonated)
O=c1ccc(-c2ccccc2F)[nH+]n1Cc1ccco1 (3D coordinates assigned)
O=c1ccc(-c2ccccc2F)[nH+]n1Cc1ccco1 (optimized conformer: 66.81407091554594 kcal/mol)

>  <smiles>  (30) 
O=c1ccc(-c2ccccc2F)nn1Cc1ccco1

>  <score_type>  (30) 
oracle

>  <origin>  (30) 
adg

>  <m_score__min__energy>  (30) 
-6.6200000000000001

>  <m_primary>  (30) 
energy

$$$$
30:0
     RDKit          3D

 28 28  0  0  0  0  0  0  0  0999 V2000
   -9.5810   21.3370  -31.9660 C   0  0  0  0  0  0  0  0  0  0  0  0
   -8.5210   22.4340  -31.8170 C   0  0  0  0  0  0  0  0  0  0  0  0
   -7.3310   21.9830  -31.0510 N   0  0  0  0  0  0  0  0  0  0  0  0
   -7.1090   22.7280  -29.7880 C   0  0  0  0  0  0  0  0  0  0  0  0
   -6.7170   24.1960  -30.0120 C   0  0  0  0  0  0  0  0  0  0  0  0
   -5.6280   24.3210  -31.0360 C   0  0  0  0  0  0  0  0  0  0  0  0
   -4.7960   25.3130  -30.9460 N   0  0  0  0  0  0  0  0  0  0  0  0
   -3.5100   25.1580  -30.4780 O   0  0  0  0  0  0  0  0  0  0  0  0
   -3.2730   24.5300  -29.2300 C   0  0  0  0  0  0  0  0  0  0  0  0
   -5.6540   23.4270  -32.2500 C   0  0  0  0  0  0  0  0  0  0  0  0
   -6.1050   22.0040  -31.8820 C   0  0  0  0  0  0  0  0  0  0  0  0
   -9.9046   21.0021  -30.9695 H   0  0  0  0  0  0  0  0  0  0  0  0
  -10.4454   21.7349  -32.5177 H   0  0  0  0  0  0  0  0  0  0  0  0
   -9.1537   20.4867  -32.5177 H   0  0  0  0  0  0  0  0  0  0  0  0
   -8.1956   22.7471  -32.8200 H   0  0  0  0  0  0  0  0  0  0  0  0
   -8.9791   23.2643  -31.2595 H   0  0  0  0  0  0  0  0  0  0  0  0
   -7.4860   20.9800  -30.7900 H   0  0  0  0  0  0  0  0  0  0  0  0
   -8.0370   22.7001  -29.1980 H   0  0  0  0  0  0  0  0  0  0  0  0
   -6.2719   22.2424  -29.2650 H   0  0  0  0  0  0  0  0  0  0  0  0
   -7.5998   24.7534  -30.3584 H   0  0  0  0  0  0  0  0  0  0  0  0
   -6.3463   24.6047  -29.0604 H   0  0  0  0  0  0  0  0  0  0  0  0
   -3.5342   25.2220  -28.4158 H   0  0  0  0  0  0  0  0  0  0  0  0
   -3.8907   23.6231  -29.1527 H   0  0  0  0  0  0  0  0  0  0  0  0
   -2.2101   24.2574  -29.1527 H   0  0  0  0  0  0  0  0  0  0  0  0
   -6.3533   23.8453  -32.9889 H   0  0  0  0  0  0  0  0  0  0  0  0
   -4.6370   23.3739  -32.6657 H   0  0  0  0  0  0  0  0  0  0  0  0
   -6.3009   21.4472  -32.8102 H   0  0  0  0  0  0  0  0  0  0  0  0
   -5.2986   21.5454  -31.2910 H   0  0  0  0  0  0  0  0  0  0  0  0
  1  2  1  0
  2  3  1  0
  3  4  1  0
  4  5  1  0
  5  6  1  0
  6  7  2  3
  7  8  1  0
  8  9  1  0
  6 10  1  0
 10 11  1  0
 11  3  1  0
  1 12  1  0
  1 13  1  0
  1 14  1  0
  2 15  1  0
  2 16  1  0
  3 17  1  0
  4 18  1  0
  4 19  1  0
  5 20  1  0
  5 21  1  0
  9 22  1  0
  9 23  1  0
  9 24  1  0
 10 25  1  0
 10 26  1  0
 11 27  1  0
 11 28  1  0
M  CHG  1   3   1
M  END
>  <UniqueID>  (31) 
30

>  <SMILES>  (31) 
CC[NH+]1CCC(=NOC)CC1

>  <Energy>  (31) 
23.34591448474102

>  <Genealogy>  (31) 
CC[NH+]1CCC(=NOC)CC1 (protonated)
CC[NH+]1CCC(=NOC)CC1 (3D coordinates assigned)
CC[NH+]1CCC(=NOC)CC1 (nonaromatic ring conformer: 23.34591448474102 kcal/mol)

>  <smiles>  (31) 
CCN1CCC(=NOC)CC1

>  <score_type>  (31) 
oracle

>  <origin>  (31) 
adg

>  <m_score__min__energy>  (31) 
-4.9800000000000004

>  <m_primary>  (31) 
energy

$$$$
31:0
     RDKit          3D

 41 43  0  0  0  0  0  0  0  0999 V2000
    0.0180   25.7830  -26.2330 C   0  0  0  0  0  0  0  0  0  0  0  0
   -0.8200   25.7140  -25.1200 C   0  0  0  0  0  0  0  0  0  0  0  0
   -2.1430   25.4540  -25.2800 N   0  0  0  0  0  0  0  0  0  0  0  0
   -2.6920   25.2550  -26.5090 C   0  0  0  0  0  0  0  0  0  0  0  0
   -1.8870   25.3160  -27.6640 C   0  0  0  0  0  0  0  0  0  0  0  0
   -2.4200   25.1110  -28.9890 N   0  0  0  0  0  0  0  0  0  0  0  0
   -3.4930   24.1580  -29.3120 C   0  0  0  0  0  0  0  0  0  0  0  0
   -3.1660   23.3940  -30.6190 C   0  0  0  0  0  0  0  0  0  0  0  0
   -4.4470   22.8620  -31.2660 C   0  0  0  0  0  0  0  0  0  0  0  0
   -5.3350   23.9720  -31.6790 N   0  0  0  0  0  0  0  0  0  0  0  0
   -6.6990   23.5320  -32.0450 C   0  0  0  0  0  0  0  0  0  0  0  0
   -7.3970   22.6880  -30.9600 C   0  0  0  0  0  0  0  0  0  0  0  0
   -7.8570   21.3860  -31.5370 C   0  0  0  0  0  0  0  0  0  0  0  0
   -7.0410   20.3170  -31.8860 C   0  0  0  0  0  0  0  0  0  0  0  0
   -7.7430   19.2570  -32.4710 C   0  0  0  0  0  0  0  0  0  0  0  0
   -9.1060   19.4930  -32.5960 C   0  0  0  0  0  0  0  0  0  0  0  0
   -9.4380   21.0230  -31.9810 S   0  0  0  0  0  0  0  0  0  0  0  0
   -5.2800   25.1890  -30.8320 C   0  0  0  0  0  0  0  0  0  0  0  0
   -4.8620   24.8800  -29.3850 C   0  0  0  0  0  0  0  0  0  0  0  0
   -0.5190   25.5840  -27.5060 C   0  0  0  0  0  0  0  0  0  0  0  0
    1.0908   25.9920  -26.1088 H   0  0  0  0  0  0  0  0  0  0  0  0
   -0.4087   25.8704  -24.1119 H   0  0  0  0  0  0  0  0  0  0  0  0
   -3.7680   25.0458  -26.6013 H   0  0  0  0  0  0  0  0  0  0  0  0
   -1.9880   25.6590  -29.7670 H   0  0  0  0  0  0  0  0  0  0  0  0
   -3.5615   23.4128  -28.5058 H   0  0  0  0  0  0  0  0  0  0  0  0
   -2.6629   24.0759  -31.3203 H   0  0  0  0  0  0  0  0  0  0  0  0
   -2.5103   22.5441  -30.3788 H   0  0  0  0  0  0  0  0  0  0  0  0
   -4.1816   22.2656  -32.1513 H   0  0  0  0  0  0  0  0  0  0  0  0
   -4.9801   22.2432  -30.5292 H   0  0  0  0  0  0  0  0  0  0  0  0
   -7.3114   24.4257  -32.2355 H   0  0  0  0  0  0  0  0  0  0  0  0
   -6.5993   22.8902  -32.9328 H   0  0  0  0  0  0  0  0  0  0  0  0
   -6.6900   22.4929  -30.1402 H   0  0  0  0  0  0  0  0  0  0  0  0
   -8.2686   23.2408  -30.5795 H   0  0  0  0  0  0  0  0  0  0  0  0
   -5.9537   20.3050  -31.7194 H   0  0  0  0  0  0  0  0  0  0  0  0
   -7.2608   18.3249  -32.8007 H   0  0  0  0  0  0  0  0  0  0  0  0
   -9.8429   18.7977  -33.0243 H   0  0  0  0  0  0  0  0  0  0  0  0
   -4.5523   25.8895  -31.2676 H   0  0  0  0  0  0  0  0  0  0  0  0
   -6.2906   25.6224  -30.8030 H   0  0  0  0  0  0  0  0  0  0  0  0
   -4.7941   25.8252  -28.8265 H   0  0  0  0  0  0  0  0  0  0  0  0
   -5.6197   24.2114  -28.9504 H   0  0  0  0  0  0  0  0  0  0  0  0
    0.1338   25.6376  -28.3898 H   0  0  0  0  0  0  0  0  0  0  0  0
  1  2  2  0
  2  3  1  0
  3  4  2  0
  4  5  1  0
  5  6  1  0
  6  7  1  0
  7  8  1  0
  8  9  1  0
  9 10  1  0
 10 11  1  0
 11 12  1  0
 12 13  1  0
 13 14  2  0
 14 15  1  0
 15 16  2  0
 16 17  1  0
 10 18  1  0
 18 19  1  0
  5 20  2  0
 20  1  1  0
 19  7  1  0
 17 13  1  0
  1 21  1  0
  2 22  1  0
  4 23  1  0
  6 24  1  0
  7 25  1  0
  8 26  1  0
  8 27  1  0
  9 28  1  0
  9 29  1  0
 11 30  1  0
 11 31  1  0
 12 32  1  0
 12 33  1  0
 14 34  1  0
 15 35  1  0
 16 36  1  0
 18 37  1  0
 18 38  1  0
 19 39  1  0
 19 40  1  0
 20 41  1  0
M  END
>  <UniqueID>  (32) 
31

>  <SMILES>  (32) 
c1cncc(NC2CCN(CCc3cccs3)CC2)c1

>  <Energy>  (32) 
77.6933545353306

>  <Genealogy>  (32) 
c1cncc(NC2CCN(CCc3cccs3)CC2)c1 (3D coordinates assigned)
c1cncc(NC2CCN(CCc3cccs3)CC2)c1 (nonaromatic ring conformer: 77.6933545353306 kcal/mol)

>  <smiles>  (32) 
c1cncc(NC2CCN(CCc3cccs3)CC2)c1

>  <score_type>  (32) 
oracle

>  <origin>  (32) 
adg

>  <m_score__min__energy>  (32) 
-8.2200000000000006

>  <m_primary>  (32) 
energy

$$$$
32:0
     RDKit          3D

 38 40  0  0  0  0  0  0  0  0999 V2000
   -9.0060   22.0390  -31.4700 C   0  0  0  0  0  0  0  0  0  0  0  0
   -7.6880   22.7250  -31.2670 C   0  0  0  0  0  0  0  0  0  0  0  0
   -6.9330   23.1490  -32.3700 C   0  0  0  0  0  0  0  0  0  0  0  0
   -5.7230   23.8250  -32.1800 C   0  0  0  0  0  0  0  0  0  0  0  0
   -5.2700   24.1100  -30.8810 C   0  0  0  0  0  0  0  0  0  0  0  0
   -4.0270   24.7850  -30.6540 N   0  0  0  0  0  0  0  0  0  0  0  0
   -3.0240   24.4230  -29.6950 C   0  0  0  0  0  0  0  0  0  0  0  0
   -2.2000   25.2980  -29.3210 O   0  0  0  0  0  0  0  0  0  0  0  0
   -2.8590   23.0130  -29.1970 C   0  0  0  0  0  0  0  0  0  0  0  0
   -2.0940   22.2480  -30.1280 O   0  0  0  0  0  0  0  0  0  0  0  0
   -2.6140   21.5820  -31.2510 C   0  0  0  0  0  0  0  0  0  0  0  0
   -1.7760   21.3960  -32.3560 C   0  0  0  0  0  0  0  0  0  0  0  0
   -2.2440   20.7450  -33.4980 C   0  0  0  0  0  0  0  0  0  0  0  0
   -3.5570   20.2710  -33.5480 C   0  0  0  0  0  0  0  0  0  0  0  0
   -4.4190   20.4410  -32.4500 C   0  0  0  0  0  0  0  0  0  0  0  0
   -5.7760   19.9540  -32.4810 N   0  0  0  0  0  0  0  0  0  0  0  0
   -6.6760   20.0180  -33.4820 C   0  0  0  0  0  0  0  0  0  0  0  0
   -7.8200   19.4440  -33.0770 N   0  0  0  0  0  0  0  0  0  0  0  0
   -7.6190   19.0340  -31.8350 N   0  0  0  0  0  0  0  0  0  0  0  0
   -6.3820   19.3420  -31.4740 N   0  0  0  0  0  0  0  0  0  0  0  0
   -3.9350   21.0960  -31.3030 C   0  0  0  0  0  0  0  0  0  0  0  0
   -6.0180   23.6750  -29.7810 C   0  0  0  0  0  0  0  0  0  0  0  0
   -7.2280   23.0020  -29.9690 C   0  0  0  0  0  0  0  0  0  0  0  0
   -9.4528   21.8065  -30.4921 H   0  0  0  0  0  0  0  0  0  0  0  0
   -9.6807   22.7004  -32.0334 H   0  0  0  0  0  0  0  0  0  0  0  0
   -8.8513   21.1070  -32.0334 H   0  0  0  0  0  0  0  0  0  0  0  0
   -7.2939   22.9491  -33.3897 H   0  0  0  0  0  0  0  0  0  0  0  0
   -5.1248   24.1341  -33.0498 H   0  0  0  0  0  0  0  0  0  0  0  0
   -2.3408   23.0286  -28.2268 H   0  0  0  0  0  0  0  0  0  0  0  0
   -3.8520   22.5533  -29.0849 H   0  0  0  0  0  0  0  0  0  0  0  0
   -0.7405   21.7658  -32.3242 H   0  0  0  0  0  0  0  0  0  0  0  0
   -1.5770   20.6047  -34.3614 H   0  0  0  0  0  0  0  0  0  0  0  0
   -3.9193   19.7611  -34.4528 H   0  0  0  0  0  0  0  0  0  0  0  0
   -6.5015   20.4677  -34.4706 H   0  0  0  0  0  0  0  0  0  0  0  0
   -8.7070   19.3340  -33.6170 H   0  0  0  0  0  0  0  0  0  0  0  0
   -4.5971   21.2305  -30.4350 H   0  0  0  0  0  0  0  0  0  0  0  0
   -5.6508   23.8642  -28.7615 H   0  0  0  0  0  0  0  0  0  0  0  0
   -7.8221   22.6882  -29.0980 H   0  0  0  0  0  0  0  0  0  0  0  0
  1  2  1  0
  2  3  2  0
  3  4  1  0
  4  5  2  0
  5  6  1  0
  6  7  1  0
  7  8  2  0
  7  9  1  0
  9 10  1  0
 10 11  1  0
 11 12  2  0
 12 13  1  0
 13 14  2  0
 14 15  1  0
 15 16  1  0
 16 17  1  0
 17 18  2  0
 18 19  1  0
 19 20  2  0
 15 21  2  0
  5 22  1  0
 22 23  2  0
 23  2  1  0
 21 11  1  0
 20 16  1  0
  1 24  1  0
  1 25  1  0
  1 26  1  0
  3 27  1  0
  4 28  1  0
  9 29  1  0
  9 30  1  0
 12 31  1  0
 13 32  1  0
 14 33  1  0
 17 34  1  0
 18 35  1  0
 21 36  1  0
 22 37  1  0
 23 38  1  0
M  CHG  2   6  -1  18   1
M  END
>  <UniqueID>  (33) 
32

>  <SMILES>  (33) 
Cc1ccc([N-]C(=O)COc2cccc(-n3c[nH+]nn3)c2)cc1

>  <Energy>  (33) 
85.71217081937064

>  <Genealogy>  (33) 
Cc1ccc([N-]C(=O)COc2cccc(-n3c[nH+]nn3)c2)cc1 (protonated)
Cc1ccc([N-]C(=O)COc2cccc(-n3c[nH+]nn3)c2)cc1 (3D coordinates assigned)
Cc1ccc([N-]C(=O)COc2cccc(-n3c[nH+]nn3)c2)cc1 (optimized conformer: 85.71217081937064 kcal/mol)

>  <smiles>  (33) 
Cc1ccc(NC(=O)COc2cccc(-n3cnnn3)c2)cc1

>  <score_type>  (33) 
oracle

>  <origin>  (33) 
adg

>  <m_score__min__energy>  (33) 
-9.3900000000000006

>  <m_primary>  (33) 
energy

$$$$
33:0
     RDKit          3D

 41 42  0  0  0  0  0  0  0  0999 V2000
    0.3102   27.8760  -22.5703 H   0  0  0  0  0  0  0  0  0  0  0  0
   -0.1230   27.4050  -23.4650 C   0  0  0  0  0  0  0  0  0  0  0  0
   -0.3280   28.1410  -24.5880 N   0  0  0  0  0  0  0  0  0  0  0  0
   -0.8620   27.5960  -25.7130 C   0  0  0  0  0  0  0  0  0  0  0  0
   -1.0145   28.2228  -26.6040 H   0  0  0  0  0  0  0  0  0  0  0  0
   -1.2210   26.2360  -25.7460 C   0  0  0  0  0  0  0  0  0  0  0  0
   -1.8050   25.6290  -26.9720 C   0  0  0  0  0  0  0  0  0  0  0  0
   -1.2210   25.8420  -28.2320 C   0  0  0  0  0  0  0  0  0  0  0  0
   -0.3133   26.4575  -28.3171 H   0  0  0  0  0  0  0  0  0  0  0  0
   -1.7710   25.2920  -29.3460 N   0  0  0  0  0  0  0  0  0  0  0  0
   -2.8830   24.5110  -29.3050 C   0  0  0  0  0  0  0  0  0  0  0  0
   -3.3520   24.0440  -30.4300 N   0  0  0  0  0  0  0  0  0  0  0  0
   -4.7230   23.9600  -30.8460 C   0  0  0  0  0  0  0  0  0  0  0  0
   -5.3330   24.9780  -31.2740 O   0  0  0  0  0  0  0  0  0  0  0  0
   -5.4530   22.6530  -30.7210 C   0  0  0  0  0  0  0  0  0  0  0  0
   -5.7936   22.5325  -29.6820 H   0  0  0  0  0  0  0  0  0  0  0  0
   -4.7624   21.8452  -31.0047 H   0  0  0  0  0  0  0  0  0  0  0  0
   -6.6310   22.5950  -31.6240 N   0  0  0  0  0  0  0  0  0  0  0  0
   -6.6560   23.4940  -32.1650 H   0  0  0  0  0  0  0  0  0  0  0  0
   -7.8950   22.5070  -30.8450 C   0  0  0  0  0  0  0  0  0  0  0  0
   -8.2199   23.5257  -30.5865 H   0  0  0  0  0  0  0  0  0  0  0  0
   -7.6894   21.9036  -29.9485 H   0  0  0  0  0  0  0  0  0  0  0  0
   -9.0230   21.8150  -31.6170 C   0  0  0  0  0  0  0  0  0  0  0  0
   -9.7384   21.3761  -30.9060 H   0  0  0  0  0  0  0  0  0  0  0  0
   -9.5399   22.5516  -32.2497 H   0  0  0  0  0  0  0  0  0  0  0  0
   -8.6006   21.0205  -32.2497 H   0  0  0  0  0  0  0  0  0  0  0  0
   -6.4770   21.5160  -32.6390 C   0  0  0  0  0  0  0  0  0  0  0  0
   -7.1220   20.6746  -32.3457 H   0  0  0  0  0  0  0  0  0  0  0  0
   -6.7562   21.9570  -33.6073 H   0  0  0  0  0  0  0  0  0  0  0  0
   -5.0420   20.9870  -32.7990 C   0  0  0  0  0  0  0  0  0  0  0  0
   -4.5986   20.8235  -31.8057 H   0  0  0  0  0  0  0  0  0  0  0  0
   -5.0611   20.0368  -33.3529 H   0  0  0  0  0  0  0  0  0  0  0  0
   -4.4398   21.7222  -33.3529 H   0  0  0  0  0  0  0  0  0  0  0  0
   -3.5050   24.2750  -28.0630 C   0  0  0  0  0  0  0  0  0  0  0  0
   -4.4122   23.6556  -28.0057 H   0  0  0  0  0  0  0  0  0  0  0  0
   -2.9600   24.8340  -26.9060 C   0  0  0  0  0  0  0  0  0  0  0  0
   -3.4400   24.6499  -25.9335 H   0  0  0  0  0  0  0  0  0  0  0  0
   -1.0090   25.4660  -24.5890 C   0  0  0  0  0  0  0  0  0  0  0  0
   -1.2752   24.3987  -24.5846 H   0  0  0  0  0  0  0  0  0  0  0  0
   -0.4620   26.0510  -23.4460 C   0  0  0  0  0  0  0  0  0  0  0  0
   -0.2995   25.4507  -22.5387 H   0  0  0  0  0  0  0  0  0  0  0  0
  1  2  1  0
  2  3  2  0
  3  4  1  0
  4  5  1  0
  4  6  2  0
  6  7  1  0
  7  8  2  0
  8  9  1  0
  8 10  1  0
 10 11  1  0
 11 12  2  0
 12 13  1  0
 13 14  2  0
 13 15  1  0
 15 16  1  0
 15 17  1  0
 15 18  1  0
 18 19  1  0
 18 20  1  0
 20 21  1  0
 20 22  1  0
 20 23  1  0
 23 24  1  0
 23 25  1  0
 23 26  1  0
 18 27  1  0
 27 28  1  0
 27 29  1  0
 27 30  1  0
 30 31  1  0
 30 32  1  0
 30 33  1  0
 11 34  1  0
 34 35  1  0
 34 36  2  0
 36 37  1  0
  6 38  1  0
 38 39  1  0
 38 40  2  0
 40 41  1  0
 40  2  1  0
 36  7  1  0
M  CHG  2  10  -1  18   1
M  END
>  <UniqueID>  (34) 
33

>  <SMILES>  (34) 
CC[NH+](CC)CC(=O)/N=c1\ccc(-c2cccnc2)c[n-]1

>  <Energy>  (34) 
56.98317689508535

>  <Genealogy>  (34) 
CC[NH+](CC)CC(=O)N=c1ccc(-c2cccnc2)c[n-]1 (protonated)
CC[NH+](CC)CC(=O)/N=c1\ccc(-c2cccnc2)c[n-]1 (cis-trans isomerization)
CC[NH+](CC)CC(=O)/N=c1\ccc(-c2cccnc2)c[n-]1 (3D coordinates assigned)
CC[NH+](CC)CC(=O)/N=c1\ccc(-c2cccnc2)c[n-]1 (optimized conformer: 56.98317689508535 kcal/mol)

>  <smiles>  (34) 
CCN(CC)CC(=O)N=c1ccc(-c2cccnc2)c[nH]1

>  <score_type>  (34) 
oracle

>  <origin>  (34) 
adg

>  <m_score__min__energy>  (34) 
-8.3699999999999992

>  <m_primary>  (34) 
energy

$$$$
34:0
     RDKit          3D

 51 52  0  0  0  0  0  0  0  0999 V2000
   -5.0200   19.9030  -33.5080 C   0  0  0  0  0  0  0  0  0  0  0  0
   -6.5230   19.6390  -33.6300 C   0  0  0  0  0  0  0  0  0  0  0  0
   -7.1160   18.9330  -32.4690 N   0  0  0  0  0  0  0  0  0  0  0  0
   -6.7250   17.5090  -32.3390 C   0  0  0  0  0  0  0  0  0  0  0  0
   -6.1480   17.1260  -30.9660 C   0  0  0  0  0  0  0  0  0  0  0  0
   -8.5400   19.2270  -32.1940 C   0  0  0  0  0  0  0  0  0  0  0  0
   -8.7210   20.6050  -31.5420 C   0  0  0  0  0  0  0  0  0  0  0  0
   -8.3040   21.6470  -32.4210 O   0  0  0  0  0  0  0  0  0  0  0  0
   -8.1670   22.9850  -32.0260 C   0  0  0  0  0  0  0  0  0  0  0  0
   -9.1110   23.8010  -32.2140 O   0  0  0  0  0  0  0  0  0  0  0  0
   -6.9120   23.4360  -31.3870 C   0  0  0  0  0  0  0  0  0  0  0  0
   -5.6770   22.8780  -31.7550 C   0  0  0  0  0  0  0  0  0  0  0  0
   -4.4940   23.3110  -31.1490 C   0  0  0  0  0  0  0  0  0  0  0  0
   -4.5190   24.3090  -30.1630 C   0  0  0  0  0  0  0  0  0  0  0  0
   -3.2820   24.7280  -29.5570 N   0  0  0  0  0  0  0  0  0  0  0  0
   -2.4880   23.9060  -28.6410 C   0  0  0  0  0  0  0  0  0  0  0  0
   -1.7550   24.7680  -27.6400 C   0  0  0  0  0  0  0  0  0  0  0  0
   -1.6260   24.3280  -26.3100 C   0  0  0  0  0  0  0  0  0  0  0  0
   -0.9400   25.1060  -25.3660 C   0  0  0  0  0  0  0  0  0  0  0  0
   -0.8190   24.6770  -24.0470 O   0  0  0  0  0  0  0  0  0  0  0  0
   -0.3700   26.3220  -25.7520 C   0  0  0  0  0  0  0  0  0  0  0  0
   -0.4760   26.7600  -27.0730 C   0  0  0  0  0  0  0  0  0  0  0  0
   -1.1590   25.9880  -28.0200 C   0  0  0  0  0  0  0  0  0  0  0  0
   -1.2350   26.4410  -29.3330 O   0  0  0  0  0  0  0  0  0  0  0  0
   -5.7550   24.8750  -29.8000 C   0  0  0  0  0  0  0  0  0  0  0  0
   -6.9380   24.4400  -30.4060 C   0  0  0  0  0  0  0  0  0  0  0  0
   -4.7414   19.9519  -32.4450 H   0  0  0  0  0  0  0  0  0  0  0  0
   -4.4639   19.0888  -33.9957 H   0  0  0  0  0  0  0  0  0  0  0  0
   -4.7747   20.8580  -33.9957 H   0  0  0  0  0  0  0  0  0  0  0  0
   -7.0344   20.6064  -33.7425 H   0  0  0  0  0  0  0  0  0  0  0  0
   -6.6568   18.9800  -34.5005 H   0  0  0  0  0  0  0  0  0  0  0  0
   -7.6163   16.8905  -32.5212 H   0  0  0  0  0  0  0  0  0  0  0  0
   -5.9235   17.3377  -33.0726 H   0  0  0  0  0  0  0  0  0  0  0  0
   -6.7819   17.5468  -30.1716 H   0  0  0  0  0  0  0  0  0  0  0  0
   -6.1214   16.0303  -30.8721 H   0  0  0  0  0  0  0  0  0  0  0  0
   -5.1280   17.5269  -30.8721 H   0  0  0  0  0  0  0  0  0  0  0  0
   -9.0977   19.2054  -33.1419 H   0  0  0  0  0  0  0  0  0  0  0  0
   -8.9181   18.4656  -31.4959 H   0  0  0  0  0  0  0  0  0  0  0  0
   -9.7829   20.7482  -31.2933 H   0  0  0  0  0  0  0  0  0  0  0  0
   -8.1024   20.6457  -30.6333 H   0  0  0  0  0  0  0  0  0  0  0  0
   -5.6402   22.0942  -32.5260 H   0  0  0  0  0  0  0  0  0  0  0  0
   -3.5340   22.8649  -31.4481 H   0  0  0  0  0  0  0  0  0  0  0  0
   -2.8960   25.6680  -29.8080 H   0  0  0  0  0  0  0  0  0  0  0  0
   -3.1568   23.2184  -28.1025 H   0  0  0  0  0  0  0  0  0  0  0  0
   -1.7478   23.3419  -29.2273 H   0  0  0  0  0  0  0  0  0  0  0  0
   -2.0666   23.3663  -26.0081 H   0  0  0  0  0  0  0  0  0  0  0  0
    0.0750   24.6730  -23.5700 H   0  0  0  0  0  0  0  0  0  0  0  0
    0.1642   26.9362  -25.0121 H   0  0  0  0  0  0  0  0  0  0  0  0
   -0.0208   27.7160  -27.3712 H   0  0  0  0  0  0  0  0  0  0  0  0
   -5.7910   25.6645  -29.0349 H   0  0  0  0  0  0  0  0  0  0  0  0
   -7.8980   24.8888  -30.1112 H   0  0  0  0  0  0  0  0  0  0  0  0
  1  2  1  0
  2  3  1  0
  3  4  1  0
  4  5  1  0
  3  6  1  0
  6  7  1  0
  7  8  1  0
  8  9  1  0
  9 10  2  0
  9 11  1  0
 11 12  2  0
 12 13  1  0
 13 14  2  0
 14 15  1  0
 15 16  1  0
 16 17  1  0
 17 18  2  0
 18 19  1  0
 19 20  1  0
 19 21  2  0
 21 22  1  0
 22 23  2  0
 23 24  1  0
 14 25  1  0
 25 26  2  0
 26 11  1  0
 23 17  1  0
  1 27  1  0
  1 28  1  0
  1 29  1  0
  2 30  1  0
  2 31  1  0
  4 32  1  0
  4 33  1  0
  5 34  1  0
  5 35  1  0
  5 36  1  0
  6 37  1  0
  6 38  1  0
  7 39  1  0
  7 40  1  0
 12 41  1  0
 13 42  1  0
 15 43  1  0
 16 44  1  0
 16 45  1  0
 18 46  1  0
 20 47  1  0
 21 48  1  0
 22 49  1  0
 25 50  1  0
 26 51  1  0
M  CHG  1  24  -1
M  END
>  <UniqueID>  (35) 
34

>  <SMILES>  (35) 
CCN(CC)CCOC(=O)c1ccc(NCc2cc(O)ccc2[O-])cc1

>  <Energy>  (35) 
54.55030334238011

>  <Genealogy>  (35) 
CCN(CC)CCOC(=O)c1ccc(NCc2cc(O)ccc2[O-])cc1 (protonated)
CCN(CC)CCOC(=O)c1ccc(NCc2cc(O)ccc2[O-])cc1 (3D coordinates assigned)
CCN(CC)CCOC(=O)c1ccc(NCc2cc(O)ccc2[O-])cc1 (optimized conformer: 54.55030334238011 kcal/mol)

>  <smiles>  (35) 
CCN(CC)CCOC(=O)c1ccc(NCc2cc(O)ccc2O)cc1

>  <score_type>  (35) 
oracle

>  <origin>  (35) 
adg

>  <m_score__min__energy>  (35) 
-11.039999999999999

>  <m_primary>  (35) 
energy

$$$$
35:0
     RDKit          3D

 29 31  0  0  0  0  0  0  0  0999 V2000
   -2.0826   20.0853  -26.8478 H   0  0  0  0  0  0  0  0  0  0  0  0
   -2.2510   21.0020  -27.4320 C   0  0  0  0  0  0  0  0  0  0  0  0
   -3.1170   20.9830  -28.4930 N   0  0  0  0  0  0  0  0  0  0  0  0
   -3.3520   22.1000  -29.2410 C   0  0  0  0  0  0  0  0  0  0  0  0
   -4.0505   22.0706  -30.0902 H   0  0  0  0  0  0  0  0  0  0  0  0
   -2.6880   23.2790  -28.9060 C   0  0  0  0  0  0  0  0  0  0  0  0
   -2.7650   24.5460  -29.5210 C   0  0  0  0  0  0  0  0  0  0  0  0
   -3.5280   24.7660  -30.5530 N   0  0  0  0  0  0  0  0  0  0  0  0
   -4.9610   24.8910  -30.5550 C   0  0  0  0  0  0  0  0  0  0  0  0
   -5.5000   26.0010  -30.2900 O   0  0  0  0  0  0  0  0  0  0  0  0
   -5.8030   23.7030  -30.8730 C   0  0  0  0  0  0  0  0  0  0  0  0
   -7.0780   23.5880  -30.2850 C   0  0  0  0  0  0  0  0  0  0  0  0
   -7.4337   24.3739  -29.6025 H   0  0  0  0  0  0  0  0  0  0  0  0
   -7.8960   22.4900  -30.5570 C   0  0  0  0  0  0  0  0  0  0  0  0
   -8.8887   22.4153  -30.0890 H   0  0  0  0  0  0  0  0  0  0  0  0
   -7.4570   21.4890  -31.4200 C   0  0  0  0  0  0  0  0  0  0  0  0
   -8.1040   20.6256  -31.6342 H   0  0  0  0  0  0  0  0  0  0  0  0
   -6.1980   21.5800  -32.0130 C   0  0  0  0  0  0  0  0  0  0  0  0
   -5.8572   20.7844  -32.6919 H   0  0  0  0  0  0  0  0  0  0  0  0
   -5.3570   22.6820  -31.7510 C   0  0  0  0  0  0  0  0  0  0  0  0
   -4.0880   22.7810  -32.3450 O   0  0  0  0  0  0  0  0  0  0  0  0
   -3.3250   21.6780  -32.8260 C   0  0  0  0  0  0  0  0  0  0  0  0
   -2.9295   21.1062  -31.9736 H   0  0  0  0  0  0  0  0  0  0  0  0
   -3.9669   21.0272  -33.4379 H   0  0  0  0  0  0  0  0  0  0  0  0
   -2.4896   22.0491  -33.4379 H   0  0  0  0  0  0  0  0  0  0  0  0
   -1.9840   25.5150  -28.9550 N   0  0  0  0  0  0  0  0  0  0  0  0
   -1.1920   24.7820  -27.6770 S   0  0  0  0  0  0  0  0  0  0  0  0
   -1.8280   23.2570  -27.8350 C   0  0  0  0  0  0  0  0  0  0  0  0
   -1.5960   22.1500  -27.0950 N   0  0  0  0  0  0  0  0  0  0  0  0
  1  2  1  0
  2  3  2  0
  3  4  1  0
  4  5  1  0
  4  6  2  0
  6  7  1  0
  7  8  2  0
  8  9  1  0
  9 10  2  0
  9 11  1  0
 11 12  2  0
 12 13  1  0
 12 14  1  0
 14 15  1  0
 14 16  2  0
 16 17  1  0
 16 18  1  0
 18 19  1  0
 18 20  2  0
 20 21  1  0
 21 22  1  0
 22 23  1  0
 22 24  1  0
 22 25  1  0
  7 26  1  0
 26 27  1  0
 27 28  1  0
 28 29  2  0
 29  2  1  0
 28  6  1  0
 20 11  1  0
M  CHG  1  26  -1
M  END
>  <UniqueID>  (36) 
35

>  <SMILES>  (36) 
COc1ccccc1C(=O)/N=c1\[n-]sc2ncncc12

>  <Energy>  (36) 
78.1397087387385

>  <Genealogy>  (36) 
COc1ccccc1C(=O)N=c1[n-]sc2ncncc12 (protonated)
COc1ccccc1C(=O)/N=c1\[n-]sc2ncncc12 (cis-trans isomerization)
COc1ccccc1C(=O)/N=c1\[n-]sc2ncncc12 (3D coordinates assigned)
COc1ccccc1C(=O)/N=c1\[n-]sc2ncncc12 (optimized conformer: 78.1397087387385 kcal/mol)

>  <smiles>  (36) 
COc1ccccc1C(=O)N=c1[nH]sc2ncncc12

>  <score_type>  (36) 
oracle

>  <origin>  (36) 
adg

>  <m_score__min__energy>  (36) 
-8.0500000000000007

>  <m_primary>  (36) 
energy

$$$$
36:0
     RDKit          3D

 42 44  0  0  0  0  0  0  0  0999 V2000
   -5.3840   24.9010  -29.5430 C   0  0  0  0  0  0  0  0  0  0  0  0
   -5.6000   24.2790  -30.9220 C   0  0  0  0  0  0  0  0  0  0  0  0
   -4.5010   23.3420  -31.2540 N   0  0  0  0  0  0  0  0  0  0  0  0
   -4.9340   22.3390  -32.2540 C   0  0  0  0  0  0  0  0  0  0  0  0
   -3.7320   21.8210  -33.0400 C   0  0  0  0  0  0  0  0  0  0  0  0
   -3.9530   22.6950  -30.0340 C   0  0  0  0  0  0  0  0  0  0  0  0
   -2.4220   22.7720  -30.0310 C   0  0  0  0  0  0  0  0  0  0  0  0
   -1.9240   23.5570  -28.8890 N   0  0  0  0  0  0  0  0  0  0  0  0
   -1.9980   24.9200  -28.9390 C   0  0  0  0  0  0  0  0  0  0  0  0
   -1.5860   25.6750  -27.8900 N   0  0  0  0  0  0  0  0  0  0  0  0
   -1.0880   25.1060  -26.7630 C   0  0  0  0  0  0  0  0  0  0  0  0
   -0.9920   23.7030  -26.6740 C   0  0  0  0  0  0  0  0  0  0  0  0
   -0.4760   23.1140  -25.5050 C   0  0  0  0  0  0  0  0  0  0  0  0
   -0.0620   23.9130  -24.4350 C   0  0  0  0  0  0  0  0  0  0  0  0
   -0.1560   25.3080  -24.5190 C   0  0  0  0  0  0  0  0  0  0  0  0
    0.2430   26.1010  -23.4830 N   0  0  0  0  0  0  0  0  0  0  0  0
    0.1510   27.4560  -23.5640 C   0  0  0  0  0  0  0  0  0  0  0  0
   -0.3590   28.0480  -24.7210 C   0  0  0  0  0  0  0  0  0  0  0  0
   -0.7590   27.2640  -25.7560 N   0  0  0  0  0  0  0  0  0  0  0  0
   -0.6720   25.9070  -25.6890 C   0  0  0  0  0  0  0  0  0  0  0  0
   -1.4250   22.9360  -27.7720 C   0  0  0  0  0  0  0  0  0  0  0  0
   -1.3560   21.6760  -27.7240 O   0  0  0  0  0  0  0  0  0  0  0  0
   -5.6392   24.1662  -28.7653 H   0  0  0  0  0  0  0  0  0  0  0  0
   -4.3302   25.1977  -29.4355 H   0  0  0  0  0  0  0  0  0  0  0  0
   -6.0271   25.7869  -29.4355 H   0  0  0  0  0  0  0  0  0  0  0  0
   -6.5541   23.7316  -30.9254 H   0  0  0  0  0  0  0  0  0  0  0  0
   -5.6173   25.0827  -31.6728 H   0  0  0  0  0  0  0  0  0  0  0  0
   -5.4196   21.4979  -31.7375 H   0  0  0  0  0  0  0  0  0  0  0  0
   -5.6409   22.8116  -32.9517 H   0  0  0  0  0  0  0  0  0  0  0  0
   -2.9530   21.4853  -32.3397 H   0  0  0  0  0  0  0  0  0  0  0  0
   -4.0439   20.9774  -33.6733 H   0  0  0  0  0  0  0  0  0  0  0  0
   -3.3330   22.6271  -33.6733 H   0  0  0  0  0  0  0  0  0  0  0  0
   -4.3437   23.2099  -29.1439 H   0  0  0  0  0  0  0  0  0  0  0  0
   -4.2574   21.6380  -30.0229 H   0  0  0  0  0  0  0  0  0  0  0  0
   -2.0129   21.7528  -29.9699 H   0  0  0  0  0  0  0  0  0  0  0  0
   -2.0993   23.2682  -30.9582 H   0  0  0  0  0  0  0  0  0  0  0  0
   -2.3959   25.4107  -29.8395 H   0  0  0  0  0  0  0  0  0  0  0  0
   -0.3979   22.0192  -25.4326 H   0  0  0  0  0  0  0  0  0  0  0  0
    0.3389   23.4445  -23.5241 H   0  0  0  0  0  0  0  0  0  0  0  0
    0.6270   25.6760  -22.6100 H   0  0  0  0  0  0  0  0  0  0  0  0
    0.4772   28.0828  -22.7210 H   0  0  0  0  0  0  0  0  0  0  0  0
   -0.4365   29.1428  -24.7942 H   0  0  0  0  0  0  0  0  0  0  0  0
  1  2  1  0
  2  3  1  0
  3  4  1  0
  4  5  1  0
  3  6  1  0
  6  7  1  0
  7  8  1  0
  8  9  1  0
  9 10  2  0
 10 11  1  0
 11 12  2  0
 12 13  1  0
 13 14  2  0
 14 15  1  0
 15 16  2  0
 16 17  1  0
 17 18  2  0
 18 19  1  0
 19 20  2  0
 12 21  1  0
 21 22  2  0
 21  8  1  0
 20 11  1  0
 20 15  1  0
  1 23  1  0
  1 24  1  0
  1 25  1  0
  2 26  1  0
  2 27  1  0
  4 28  1  0
  4 29  1  0
  5 30  1  0
  5 31  1  0
  5 32  1  0
  6 33  1  0
  6 34  1  0
  7 35  1  0
  7 36  1  0
  9 37  1  0
 13 38  1  0
 14 39  1  0
 16 40  1  0
 17 41  1  0
 18 42  1  0
M  CHG  1  16   1
M  END
>  <UniqueID>  (37) 
36

>  <SMILES>  (37) 
CCN(CC)CCn1cnc2c(ccc3[nH+]ccnc32)c1=O

>  <Energy>  (37) 
51.256132103122724

>  <Genealogy>  (37) 
CCN(CC)CCn1cnc2c(ccc3[nH+]ccnc32)c1=O (protonated)
CCN(CC)CCn1cnc2c(ccc3[nH+]ccnc32)c1=O (3D coordinates assigned)
CCN(CC)CCn1cnc2c(ccc3[nH+]ccnc32)c1=O (optimized conformer: 51.256132103122724 kcal/mol)

>  <smiles>  (37) 
CCN(CC)CCn1cnc2c(ccc3nccnc32)c1=O

>  <score_type>  (37) 
oracle

>  <origin>  (37) 
adg

>  <m_score__min__energy>  (37) 
-6.9100000000000001

>  <m_primary>  (37) 
energy

$$$$
37:0
     RDKit          3D

 28 30  0  0  0  0  0  0  0  0999 V2000
   -9.1170   22.2730  -31.6660 C   0  0  0  0  0  0  0  0  0  0  0  0
   -7.6970   22.7090  -31.4570 C   0  0  0  0  0  0  0  0  0  0  0  0
   -6.7740   22.6670  -32.5340 C   0  0  0  0  0  0  0  0  0  0  0  0
   -5.4290   23.0370  -32.3410 C   0  0  0  0  0  0  0  0  0  0  0  0
   -5.0430   23.4310  -31.0630 C   0  0  0  0  0  0  0  0  0  0  0  0
   -3.8230   23.8170  -30.6530 N   0  0  0  0  0  0  0  0  0  0  0  0
   -4.0080   24.0770  -29.3290 C   0  0  0  0  0  0  0  0  0  0  0  0
   -2.9080   24.5420  -28.4460 C   0  0  0  0  0  0  0  0  0  0  0  0
   -1.6320   24.8540  -28.9590 C   0  0  0  0  0  0  0  0  0  0  0  0
   -0.6130   25.2890  -28.1070 C   0  0  0  0  0  0  0  0  0  0  0  0
   -0.8500   25.4190  -26.7370 C   0  0  0  0  0  0  0  0  0  0  0  0
   -2.1080   25.1140  -26.2150 C   0  0  0  0  0  0  0  0  0  0  0  0
   -3.1310   24.6790  -27.0620 C   0  0  0  0  0  0  0  0  0  0  0  0
   -5.2870   23.8630  -28.9170 N   0  0  0  0  0  0  0  0  0  0  0  0
   -5.9220   23.4590  -30.0240 C   0  0  0  0  0  0  0  0  0  0  0  0
   -7.2590   23.1010  -30.1720 C   0  0  0  0  0  0  0  0  0  0  0  0
   -9.6022   22.1240  -30.6901 H   0  0  0  0  0  0  0  0  0  0  0  0
   -9.6587   23.0462  -32.2306 H   0  0  0  0  0  0  0  0  0  0  0  0
   -9.1314   21.3290  -32.2306 H   0  0  0  0  0  0  0  0  0  0  0  0
   -7.1123   22.3424  -33.5291 H   0  0  0  0  0  0  0  0  0  0  0  0
   -4.7082   23.0154  -33.1717 H   0  0  0  0  0  0  0  0  0  0  0  0
   -1.4373   24.7543  -30.0370 H   0  0  0  0  0  0  0  0  0  0  0  0
    0.3789   25.5297  -28.5170 H   0  0  0  0  0  0  0  0  0  0  0  0
   -0.0456   25.7616  -26.0695 H   0  0  0  0  0  0  0  0  0  0  0  0
   -2.2945   25.2161  -25.1357 H   0  0  0  0  0  0  0  0  0  0  0  0
   -4.1202   24.4412  -26.6437 H   0  0  0  0  0  0  0  0  0  0  0  0
   -5.7050   23.9820  -27.9690 H   0  0  0  0  0  0  0  0  0  0  0  0
   -7.9513   23.1225  -29.3174 H   0  0  0  0  0  0  0  0  0  0  0  0
  1  2  1  0
  2  3  2  0
  3  4  1  0
  4  5  2  0
  5  6  1  0
  6  7  2  0
  7  8  1  0
  8  9  2  0
  9 10  1  0
 10 11  2  0
 11 12  1  0
 12 13  2  0
  7 14  1  0
 14 15  1  0
 15 16  2  0
 16  2  1  0
 15  5  1  0
 13  8  1  0
  1 17  1  0
  1 18  1  0
  1 19  1  0
  3 20  1  0
  4 21  1  0
  9 22  1  0
 10 23  1  0
 11 24  1  0
 12 25  1  0
 13 26  1  0
 14 27  1  0
 16 28  1  0
M  END
>  <UniqueID>  (38) 
37

>  <SMILES>  (38) 
Cc1ccc2nc(-c3ccccc3)[nH]c2c1

>  <Energy>  (38) 
67.69703879358276

>  <Genealogy>  (38) 
Cc1ccc2nc(-c3ccccc3)[nH]c2c1 (3D coordinates assigned)
Cc1ccc2nc(-c3ccccc3)[nH]c2c1 (optimized conformer: 67.69703879358276 kcal/mol)

>  <smiles>  (38) 
Cc1ccc2nc(-c3ccccc3)[nH]c2c1

>  <score_type>  (38) 
oracle

>  <origin>  (38) 
adg

>  <m_score__min__energy>  (38) 
-6.5300000000000002

>  <m_primary>  (38) 
energy

$$$$
38:0
     RDKit          3D

 39 42  0  0  0  0  0  0  0  0999 V2000
   -1.3710   25.2780  -27.9310 C   0  0  0  0  0  0  0  0  0  0  0  0
   -1.9580   25.3420  -29.2270 O   0  0  0  0  0  0  0  0  0  0  0  0
   -2.9370   24.4530  -29.6990 C   0  0  0  0  0  0  0  0  0  0  0  0
   -4.2590   24.8980  -29.7690 C   0  0  0  0  0  0  0  0  0  0  0  0
   -5.2710   24.0520  -30.2320 C   0  0  0  0  0  0  0  0  0  0  0  0
   -4.9750   22.7370  -30.6350 C   0  0  0  0  0  0  0  0  0  0  0  0
   -6.0600   21.8510  -31.1220 C   0  0  0  0  0  0  0  0  0  0  0  0
   -7.4290   22.1290  -31.1210 C   0  0  0  0  0  0  0  0  0  0  0  0
   -7.9860   20.9940  -31.6650 C   0  0  0  0  0  0  0  0  0  0  0  0
   -9.3230   20.6820  -31.8860 C   0  0  0  0  0  0  0  0  0  0  0  0
   -9.6140   19.4610  -32.4190 N   0  0  0  0  0  0  0  0  0  0  0  0
   -8.6300   18.5610  -32.7290 C   0  0  0  0  0  0  0  0  0  0  0  0
   -7.2760   18.8930  -32.5060 C   0  0  0  0  0  0  0  0  0  0  0  0
   -6.1890   17.9420  -32.8400 C   0  0  0  0  0  0  0  0  0  0  0  0
   -5.9500   16.8220  -32.0250 C   0  0  0  0  0  0  0  0  0  0  0  0
   -4.9260   15.9230  -32.3410 C   0  0  0  0  0  0  0  0  0  0  0  0
   -4.1360   16.1310  -33.4750 C   0  0  0  0  0  0  0  0  0  0  0  0
   -4.3710   17.2370  -34.2960 C   0  0  0  0  0  0  0  0  0  0  0  0
   -5.3930   18.1380  -33.9830 C   0  0  0  0  0  0  0  0  0  0  0  0
   -7.0190   20.1210  -31.9710 N   0  0  0  0  0  0  0  0  0  0  0  0
   -5.8400   20.6190  -31.6410 N   0  0  0  0  0  0  0  0  0  0  0  0
   -3.6430   22.2910  -30.5630 C   0  0  0  0  0  0  0  0  0  0  0  0
   -2.6330   23.1400  -30.1000 C   0  0  0  0  0  0  0  0  0  0  0  0
   -2.1581   25.3638  -27.1673 H   0  0  0  0  0  0  0  0  0  0  0  0
   -0.8481   24.3175  -27.8123 H   0  0  0  0  0  0  0  0  0  0  0  0
   -0.6534   26.1032  -27.8123 H   0  0  0  0  0  0  0  0  0  0  0  0
   -4.5061   25.9235  -29.4570 H   0  0  0  0  0  0  0  0  0  0  0  0
   -6.3073   24.4175  -30.2816 H   0  0  0  0  0  0  0  0  0  0  0  0
   -7.9397   23.0377  -30.7695 H   0  0  0  0  0  0  0  0  0  0  0  0
  -10.1209   21.3977  -31.6386 H   0  0  0  0  0  0  0  0  0  0  0  0
  -10.6120   19.2050  -32.5930 H   0  0  0  0  0  0  0  0  0  0  0  0
   -8.8941   17.5802  -33.1514 H   0  0  0  0  0  0  0  0  0  0  0  0
   -6.5717   16.6515  -31.1337 H   0  0  0  0  0  0  0  0  0  0  0  0
   -4.7422   15.0511  -31.6960 H   0  0  0  0  0  0  0  0  0  0  0  0
   -3.3297   15.4244  -33.7211 H   0  0  0  0  0  0  0  0  0  0  0  0
   -3.7509   17.3989  -35.1900 H   0  0  0  0  0  0  0  0  0  0  0  0
   -5.5758   19.0053  -34.6344 H   0  0  0  0  0  0  0  0  0  0  0  0
   -3.3937   21.2656  -30.8736 H   0  0  0  0  0  0  0  0  0  0  0  0
   -1.5952   22.7788  -30.0492 H   0  0  0  0  0  0  0  0  0  0  0  0
  1  2  1  0
  2  3  1  0
  3  4  2  0
  4  5  1  0
  5  6  2  0
  6  7  1  0
  7  8  1  0
  8  9  2  0
  9 10  1  0
 10 11  2  0
 11 12  1  0
 12 13  2  0
 13 14  1  0
 14 15  2  0
 15 16  1  0
 16 17  2  0
 17 18  1  0
 18 19  2  0
 13 20  1  0
 20 21  1  0
  6 22  1  0
 22 23  2  0
 23  3  1  0
 21  7  2  0
 20  9  1  0
 19 14  1  0
  1 24  1  0
  1 25  1  0
  1 26  1  0
  4 27  1  0
  5 28  1  0
  8 29  1  0
 10 30  1  0
 11 31  1  0
 12 32  1  0
 15 33  1  0
 16 34  1  0
 17 35  1  0
 18 36  1  0
 19 37  1  0
 22 38  1  0
 23 39  1  0
M  CHG  1  11   1
M  END
>  <UniqueID>  (39) 
38

>  <SMILES>  (39) 
COc1ccc(-c2cc3c[nH+]cc(-c4ccccc4)n3n2)cc1

>  <Energy>  (39) 
85.94930338001677

>  <Genealogy>  (39) 
COc1ccc(-c2cc3c[nH+]cc(-c4ccccc4)n3n2)cc1 (protonated)
COc1ccc(-c2cc3c[nH+]cc(-c4ccccc4)n3n2)cc1 (3D coordinates assigned)
COc1ccc(-c2cc3c[nH+]cc(-c4ccccc4)n3n2)cc1 (optimized conformer: 85.94930338001677 kcal/mol)

>  <smiles>  (39) 
COc1ccc(-c2cc3cncc(-c4ccccc4)n3n2)cc1

>  <score_type>  (39) 
oracle

>  <origin>  (39) 
adg

>  <m_score__min__energy>  (39) 
-7.4100000000000001

>  <m_primary>  (39) 
energy

$$$$
39:0
     RDKit          3D

 36 37  0  0  0  0  0  0  0  0999 V2000
   -3.3000   18.9710  -26.4170 C   0  0  0  0  0  0  0  0  0  0  0  0
   -2.2440   19.5960  -27.1390 O   0  0  0  0  0  0  0  0  0  0  0  0
   -2.3190   20.8740  -27.7160 C   0  0  0  0  0  0  0  0  0  0  0  0
   -3.0090   21.1100  -28.9160 C   0  0  0  0  0  0  0  0  0  0  0  0
   -3.0950   22.4010  -29.4640 C   0  0  0  0  0  0  0  0  0  0  0  0
   -3.8280   22.6320  -30.6780 N   0  0  0  0  0  0  0  0  0  0  0  0
   -5.4420   23.2620  -30.7840 S   0  0  0  0  0  0  0  0  0  0  0  0
   -5.8970   23.6860  -29.4160 O   0  0  0  0  0  0  0  0  0  0  0  0
   -5.4410   24.4640  -31.6860 O   0  0  0  0  0  0  0  0  0  0  0  0
   -6.5400   22.0160  -31.3890 C   0  0  0  0  0  0  0  0  0  0  0  0
   -7.8440   21.9340  -30.8730 C   0  0  0  0  0  0  0  0  0  0  0  0
   -8.7390   20.9770  -31.3580 C   0  0  0  0  0  0  0  0  0  0  0  0
   -8.3400   20.0920  -32.3600 C   0  0  0  0  0  0  0  0  0  0  0  0
   -7.0450   20.1590  -32.8780 C   0  0  0  0  0  0  0  0  0  0  0  0
   -6.1400   21.1150  -32.4000 C   0  0  0  0  0  0  0  0  0  0  0  0
   -4.5220   21.1500  -33.0900 Cl  0  0  0  0  0  0  0  0  0  0  0  0
   -2.4520   23.4780  -28.8090 C   0  0  0  0  0  0  0  0  0  0  0  0
   -2.5010   24.8710  -29.3380 C   0  0  0  0  0  0  0  0  0  0  0  0
   -1.6090   25.7030  -29.0200 O   0  0  0  0  0  0  0  0  0  0  0  0
   -3.5200   25.2890  -30.1850 O   0  0  0  0  0  0  0  0  0  0  0  0
   -1.7520   23.2280  -27.6130 C   0  0  0  0  0  0  0  0  0  0  0  0
   -1.6860   21.9360  -27.0630 C   0  0  0  0  0  0  0  0  0  0  0  0
   -1.0000   21.6680  -25.8680 O   0  0  0  0  0  0  0  0  0  0  0  0
   -0.4510   22.6600  -25.0080 C   0  0  0  0  0  0  0  0  0  0  0  0
   -3.1194   19.0779  -25.3372 H   0  0  0  0  0  0  0  0  0  0  0  0
   -4.2557   19.4490  -26.6780 H   0  0  0  0  0  0  0  0  0  0  0  0
   -3.3408   17.9032  -26.6780 H   0  0  0  0  0  0  0  0  0  0  0  0
   -3.4908   20.2691  -29.4364 H   0  0  0  0  0  0  0  0  0  0  0  0
   -8.1627   22.6282  -30.0815 H   0  0  0  0  0  0  0  0  0  0  0  0
   -9.7588   20.9213  -30.9496 H   0  0  0  0  0  0  0  0  0  0  0  0
   -9.0464   19.3405  -32.7424 H   0  0  0  0  0  0  0  0  0  0  0  0
   -6.7340   19.4571  -33.6658 H   0  0  0  0  0  0  0  0  0  0  0  0
   -1.2472   24.0595  -27.0994 H   0  0  0  0  0  0  0  0  0  0  0  0
   -0.6130   22.3672  -23.9601 H   0  0  0  0  0  0  0  0  0  0  0  0
    0.6280   22.7549  -25.1995 H   0  0  0  0  0  0  0  0  0  0  0  0
   -0.9436   23.6247  -25.1995 H   0  0  0  0  0  0  0  0  0  0  0  0
  1  2  1  0
  2  3  1  0
  3  4  2  0
  4  5  1  0
  5  6  1  0
  6  7  1  0
  7  8  2  0
  7  9  2  0
  7 10  1  0
 10 11  2  0
 11 12  1  0
 12 13  2  0
 13 14  1  0
 14 15  2  0
 15 16  1  0
  5 17  2  0
 17 18  1  0
 18 19  2  0
 18 20  1  0
 17 21  1  0
 21 22  2  0
 22 23  1  0
 23 24  1  0
 22  3  1  0
 15 10  1  0
  1 25  1  0
  1 26  1  0
  1 27  1  0
  4 28  1  0
 11 29  1  0
 12 30  1  0
 13 31  1  0
 14 32  1  0
 21 33  1  0
 24 34  1  0
 24 35  1  0
 24 36  1  0
M  CHG  2   6  -1  20  -1
M  END
>  <UniqueID>  (40) 
39

>  <SMILES>  (40) 
COc1cc([N-]S(=O)(=O)c2ccccc2Cl)c(C(=O)[O-])cc1OC

>  <Energy>  (40) 
42.646185922262845

>  <Genealogy>  (40) 
COc1cc([N-]S(=O)(=O)c2ccccc2Cl)c(C(=O)[O-])cc1OC (protonated)
COc1cc([N-]S(=O)(=O)c2ccccc2Cl)c(C(=O)[O-])cc1OC (3D coordinates assigned)
COc1cc([N-]S(=O)(=O)c2ccccc2Cl)c(C(=O)[O-])cc1OC (optimized conformer: 42.646185922262845 kcal/mol)

>  <smiles>  (40) 
COc1cc(NS(=O)(=O)c2ccccc2Cl)c(C(=O)O)cc1OC

>  <score_type>  (40) 
oracle

>  <origin>  (40) 
adg

>  <m_score__min__energy>  (40) 
-10.970000000000001

>  <m_primary>  (40) 
energy

$$$$
40:0
     RDKit          3D

 57 60  0  0  0  0  0  0  0  0999 V2000
   -5.3740   24.8270  -29.3290 C   0  0  0  0  0  0  0  0  0  0  0  0
   -5.1310   23.3120  -29.4620 C   0  0  1  0  0  0  0  0  0  0  0  0
   -6.2200   22.7320  -30.2980 N   0  0  0  0  0  0  0  0  0  0  0  0
   -7.5800   22.6730  -29.7300 C   0  0  0  0  0  0  0  0  0  0  0  0
   -8.4190   21.6030  -30.4470 C   0  0  0  0  0  0  0  0  0  0  0  0
   -8.2060   21.5780  -31.9860 C   0  0  0  0  0  0  0  0  0  0  0  0
   -7.5310   20.3060  -32.4840 C   0  0  0  0  0  0  0  0  0  0  0  0
   -6.5290   20.3310  -33.4760 C   0  0  0  0  0  0  0  0  0  0  0  0
   -5.9590   19.1420  -33.9410 C   0  0  0  0  0  0  0  0  0  0  0  0
   -6.3870   17.9140  -33.4330 C   0  0  0  0  0  0  0  0  0  0  0  0
   -7.3890   17.8720  -32.4620 C   0  0  0  0  0  0  0  0  0  0  0  0
   -7.9620   19.0590  -31.9940 C   0  0  0  0  0  0  0  0  0  0  0  0
   -7.4660   22.8300  -32.4890 C   0  0  0  0  0  0  0  0  0  0  0  0
   -6.1420   23.0650  -31.7410 C   0  0  0  0  0  0  0  0  0  0  0  0
   -3.6400   22.9540  -29.8960 C   0  0  2  0  0  0  0  0  0  0  0  0
   -3.2390   23.7890  -30.9570 O   0  0  0  0  0  0  0  0  0  0  0  0
   -3.5590   21.4920  -30.4110 C   0  0  0  0  0  0  0  0  0  0  0  0
   -2.7920   21.4010  -31.6530 N   0  0  0  0  0  0  0  0  0  0  0  0
   -3.2830   21.2320  -32.8940 C   0  0  0  0  0  0  0  0  0  0  0  0
   -2.2850   21.2450  -33.7930 N   0  0  0  0  0  0  0  0  0  0  0  0
   -1.1790   21.4310  -33.0450 C   0  0  0  0  0  0  0  0  0  0  0  0
   -1.4770   21.5310  -31.7340 N   0  0  0  0  0  0  0  0  0  0  0  0
   -2.6600   23.0800  -28.7030 C   0  0  0  0  0  0  0  0  0  0  0  0
   -2.4550   21.9790  -27.8370 C   0  0  0  0  0  0  0  0  0  0  0  0
   -1.5560   22.0540  -26.7710 C   0  0  0  0  0  0  0  0  0  0  0  0
   -0.8160   23.2140  -26.5590 C   0  0  0  0  0  0  0  0  0  0  0  0
   -0.9550   24.2940  -27.4280 C   0  0  0  0  0  0  0  0  0  0  0  0
   -1.8520   24.2330  -28.5000 C   0  0  0  0  0  0  0  0  0  0  0  0
   -1.8800   25.2910  -29.3490 F   0  0  0  0  0  0  0  0  0  0  0  0
   -5.4177   25.0993  -28.2641 H   0  0  0  0  0  0  0  0  0  0  0  0
   -4.5521   25.3741  -29.8139 H   0  0  0  0  0  0  0  0  0  0  0  0
   -6.3258   25.0897  -29.8139 H   0  0  0  0  0  0  0  0  0  0  0  0
   -5.1931   22.8246  -28.4778 H   0  0  0  0  0  0  0  0  0  0  0  0
   -7.5147   22.4246  -28.6604 H   0  0  0  0  0  0  0  0  0  0  0  0
   -8.0635   23.6519  -29.8641 H   0  0  0  0  0  0  0  0  0  0  0  0
   -8.1466   20.6174  -30.0416 H   0  0  0  0  0  0  0  0  0  0  0  0
   -9.4766   21.8485  -30.2703 H   0  0  0  0  0  0  0  0  0  0  0  0
   -9.2173   21.5846  -32.4188 H   0  0  0  0  0  0  0  0  0  0  0  0
   -6.1930   21.2942  -33.8875 H   0  0  0  0  0  0  0  0  0  0  0  0
   -5.1718   19.1741  -34.7086 H   0  0  0  0  0  0  0  0  0  0  0  0
   -5.9348   16.9799  -33.7978 H   0  0  0  0  0  0  0  0  0  0  0  0
   -7.7284   16.9041  -32.0644 H   0  0  0  0  0  0  0  0  0  0  0  0
   -8.7575   19.0175  -31.2354 H   0  0  0  0  0  0  0  0  0  0  0  0
   -7.2500   22.7068  -33.5605 H   0  0  0  0  0  0  0  0  0  0  0  0
   -8.1143   23.7000  -32.3076 H   0  0  0  0  0  0  0  0  0  0  0  0
   -5.3637   22.4396  -32.2027 H   0  0  0  0  0  0  0  0  0  0  0  0
   -5.9090   24.1373  -31.8172 H   0  0  0  0  0  0  0  0  0  0  0  0
   -2.3710   23.4580  -31.3050 H   0  0  0  0  0  0  0  0  0  0  0  0
   -3.0731   20.8699  -29.6449 H   0  0  0  0  0  0  0  0  0  0  0  0
   -4.5818   21.1404  -30.6114 H   0  0  0  0  0  0  0  0  0  0  0  0
   -4.3478   21.1020  -33.1374 H   0  0  0  0  0  0  0  0  0  0  0  0
   -2.3520   21.1410  -34.8290 H   0  0  0  0  0  0  0  0  0  0  0  0
   -0.1597   21.4934  -33.4537 H   0  0  0  0  0  0  0  0  0  0  0  0
   -3.0142   21.0471  -28.0069 H   0  0  0  0  0  0  0  0  0  0  0  0
   -1.4322   21.1938  -26.0967 H   0  0  0  0  0  0  0  0  0  0  0  0
   -0.1230   23.2777  -25.7071 H   0  0  0  0  0  0  0  0  0  0  0  0
   -0.3546   25.2021  -27.2700 H   0  0  0  0  0  0  0  0  0  0  0  0
  1  2  1  0
  2  3  1  0
  3  4  1  0
  4  5  1  0
  5  6  1  0
  6  7  1  0
  7  8  2  0
  8  9  1  0
  9 10  2  0
 10 11  1  0
 11 12  2  0
  6 13  1  0
 13 14  1  0
  2 15  1  0
 15 16  1  6
 15 17  1  0
 17 18  1  0
 18 19  1  0
 19 20  2  0
 20 21  1  0
 21 22  2  0
 15 23  1  0
 23 24  2  0
 24 25  1  0
 25 26  2  0
 26 27  1  0
 27 28  2  0
 28 29  1  0
 14  3  1  0
 22 18  1  0
 28 23  1  0
 12  7  1  0
  1 30  1  0
  1 31  1  0
  1 32  1  0
  2 33  1  1
  4 34  1  0
  4 35  1  0
  5 36  1  0
  5 37  1  0
  6 38  1  0
  8 39  1  0
  9 40  1  0
 10 41  1  0
 11 42  1  0
 12 43  1  0
 13 44  1  0
 13 45  1  0
 14 46  1  0
 14 47  1  0
 16 48  1  0
 17 49  1  0
 17 50  1  0
 19 51  1  0
 20 52  1  0
 21 53  1  0
 24 54  1  0
 25 55  1  0
 26 56  1  0
 27 57  1  0
M  CHG  1  20   1
M  END
>  <UniqueID>  (41) 
40

>  <SMILES>  (41) 
C[C@@H](N1CCC(c2ccccc2)CC1)[C@](O)(Cn1c[nH+]cn1)c1ccccc1F

>  <Energy>  (41) 
118.59874010504697

>  <Genealogy>  (41) 
CC(N1CCC(c2ccccc2)CC1)C(O)(Cn1c[nH+]cn1)c1ccccc1F (protonated)
C[C@@H](N1CCC(c2ccccc2)CC1)[C@](O)(Cn1c[nH+]cn1)c1ccccc1F (chirality)
C[C@@H](N1CCC(c2ccccc2)CC1)[C@](O)(Cn1c[nH+]cn1)c1ccccc1F (3D coordinates assigned)
C[C@@H](N1CCC(c2ccccc2)CC1)[C@](O)(Cn1c[nH+]cn1)c1ccccc1F (nonaromatic ring conformer: 118.59874010504697 kcal/mol)

>  <smiles>  (41) 
CC(N1CCC(c2ccccc2)CC1)C(O)(Cn1cncn1)c1ccccc1F

>  <score_type>  (41) 
oracle

>  <origin>  (41) 
adg

>  <m_score__min__energy>  (41) 
-9.3300000000000001

>  <m_primary>  (41) 
energy

$$$$
41:0
     RDKit          3D

 49 52  0  0  0  0  0  0  0  0999 V2000
    2.1380   18.8970  -32.6520 C   0  0  0  0  0  0  0  0  0  0  0  0
    1.3270   19.7190  -33.4850 O   0  0  0  0  0  0  0  0  0  0  0  0
    0.0710   20.2230  -33.1180 C   0  0  0  0  0  0  0  0  0  0  0  0
   -0.2910   20.4470  -31.7750 C   0  0  0  0  0  0  0  0  0  0  0  0
   -1.5560   20.9510  -31.4610 C   0  0  0  0  0  0  0  0  0  0  0  0
   -2.4770   21.2320  -32.4800 C   0  0  0  0  0  0  0  0  0  0  0  0
   -3.7800   21.7520  -32.1560 N   0  0  0  0  0  0  0  0  0  0  0  0
   -3.8330   22.9930  -31.5900 C   0  0  0  0  0  0  0  0  0  0  0  0
   -5.0520   23.5750  -31.2140 C   0  0  0  0  0  0  0  0  0  0  0  0
   -5.0510   24.9290  -30.5950 C   0  0  0  0  0  0  0  0  0  0  0  0
   -6.1130   25.4440  -30.1550 O   0  0  0  0  0  0  0  0  0  0  0  0
   -3.8680   25.6520  -30.4920 O   0  0  0  0  0  0  0  0  0  0  0  0
   -6.2390   22.8510  -31.4340 C   0  0  0  0  0  0  0  0  0  0  0  0
   -7.3540   23.3430  -31.1040 O   0  0  0  0  0  0  0  0  0  0  0  0
   -6.1860   21.5760  -32.0280 C   0  0  0  0  0  0  0  0  0  0  0  0
   -7.3610   20.8380  -32.2680 C   0  0  0  0  0  0  0  0  0  0  0  0
   -7.3030   19.5820  -32.8690 C   0  0  0  0  0  0  0  0  0  0  0  0
   -8.4560   18.9110  -33.1160 F   0  0  0  0  0  0  0  0  0  0  0  0
   -6.0690   19.0350  -33.2450 C   0  0  0  0  0  0  0  0  0  0  0  0
   -6.0080   17.7450  -33.8770 N   0  0  0  0  0  0  0  0  0  0  0  0
   -5.1680   17.5380  -35.0630 C   0  0  0  0  0  0  0  0  0  0  0  0
   -4.2770   16.2970  -34.8910 C   0  0  0  0  0  0  0  0  0  0  0  0
   -4.9580   15.1500  -34.1110 C   0  0  0  0  0  0  0  0  0  0  0  0
   -6.4790   15.3110  -34.0300 C   0  0  0  0  0  0  0  0  0  0  0  0
   -6.8380   16.6450  -33.3630 C   0  0  0  0  0  0  0  0  0  0  0  0
   -4.8930   19.7620  -33.0140 C   0  0  0  0  0  0  0  0  0  0  0  0
   -4.9290   21.0320  -32.3960 C   0  0  0  0  0  0  0  0  0  0  0  0
   -2.1170   21.0180  -33.8180 C   0  0  0  0  0  0  0  0  0  0  0  0
   -0.8510   20.5150  -34.1320 C   0  0  0  0  0  0  0  0  0  0  0  0
    1.9207   19.1172  -31.5964 H   0  0  0  0  0  0  0  0  0  0  0  0
    1.9206   17.8386  -32.8580 H   0  0  0  0  0  0  0  0  0  0  0  0
    3.1993   19.1002  -32.8580 H   0  0  0  0  0  0  0  0  0  0  0  0
    0.4251   20.2242  -30.9703 H   0  0  0  0  0  0  0  0  0  0  0  0
   -1.8301   21.1279  -30.4105 H   0  0  0  0  0  0  0  0  0  0  0  0
   -2.8983   23.5490  -31.4251 H   0  0  0  0  0  0  0  0  0  0  0  0
   -8.3356   21.2576  -31.9779 H   0  0  0  0  0  0  0  0  0  0  0  0
   -5.8138   17.3992  -35.9426 H   0  0  0  0  0  0  0  0  0  0  0  0
   -4.5233   18.4192  -35.1966 H   0  0  0  0  0  0  0  0  0  0  0  0
   -4.0033   15.9243  -35.8891 H   0  0  0  0  0  0  0  0  0  0  0  0
   -3.3993   16.6086  -34.3057 H   0  0  0  0  0  0  0  0  0  0  0  0
   -4.7313   14.1988  -34.6148 H   0  0  0  0  0  0  0  0  0  0  0  0
   -4.5669   15.1696  -33.0831 H   0  0  0  0  0  0  0  0  0  0  0  0
   -6.9010   15.2878  -35.0456 H   0  0  0  0  0  0  0  0  0  0  0  0
   -6.8947   14.4877  -33.4305 H   0  0  0  0  0  0  0  0  0  0  0  0
   -7.8956   16.8715  -33.5632 H   0  0  0  0  0  0  0  0  0  0  0  0
   -6.6556   16.5507  -32.2823 H   0  0  0  0  0  0  0  0  0  0  0  0
   -3.9256   19.3365  -33.3191 H   0  0  0  0  0  0  0  0  0  0  0  0
   -2.8320   21.2463  -34.6222 H   0  0  0  0  0  0  0  0  0  0  0  0
   -0.5763   20.3470  -35.1838 H   0  0  0  0  0  0  0  0  0  0  0  0
  1  2  1  0
  2  3  1  0
  3  4  2  0
  4  5  1  0
  5  6  2  0
  6  7  1  0
  7  8  1  0
  8  9  2  0
  9 10  1  0
 10 11  2  0
 10 12  1  0
  9 13  1  0
 13 14  2  0
 13 15  1  0
 15 16  2  0
 16 17  1  0
 17 18  1  0
 17 19  2  0
 19 20  1  0
 20 21  1  0
 21 22  1  0
 22 23  1  0
 23 24  1  0
 24 25  1  0
 19 26  1  0
 26 27  2  0
  6 28  1  0
 28 29  2  0
 29  3  1  0
 27  7  1  0
 27 15  1  0
 25 20  1  0
  1 30  1  0
  1 31  1  0
  1 32  1  0
  4 33  1  0
  5 34  1  0
  8 35  1  0
 16 36  1  0
 21 37  1  0
 21 38  1  0
 22 39  1  0
 22 40  1  0
 23 41  1  0
 23 42  1  0
 24 43  1  0
 24 44  1  0
 25 45  1  0
 25 46  1  0
 26 47  1  0
 28 48  1  0
 29 49  1  0
M  CHG  1  12  -1
M  END
>  <UniqueID>  (42) 
41

>  <SMILES>  (42) 
COc1ccc(-n2cc(C(=O)[O-])c(=O)c3cc(F)c(N4CCCCC4)cc32)cc1

>  <Energy>  (42) 
75.2688799650682

>  <Genealogy>  (42) 
COc1ccc(-n2cc(C(=O)[O-])c(=O)c3cc(F)c(N4CCCCC4)cc32)cc1 (protonated)
COc1ccc(-n2cc(C(=O)[O-])c(=O)c3cc(F)c(N4CCCCC4)cc32)cc1 (3D coordinates assigned)
COc1ccc(-n2cc(C(=O)[O-])c(=O)c3cc(F)c(N4CCCCC4)cc32)cc1 (nonaromatic ring conformer: 75.2688799650682 kcal/mol)

>  <smiles>  (42) 
COc1ccc(-n2cc(C(=O)O)c(=O)c3cc(F)c(N4CCCCC4)cc32)cc1

>  <score_type>  (42) 
oracle

>  <origin>  (42) 
adg

>  <m_score__min__energy>  (42) 
-10.18

>  <m_primary>  (42) 
energy

$$$$
42:0
     RDKit          3D

 37 38  0  0  1  0  0  0  0  0999 V2000
   -3.6270   20.8390  -33.1680 C   0  0  0  0  0  0  0  0  0  0  0  0
   -4.5750   21.6610  -32.3780 C   0  0  0  0  0  0  0  0  0  0  0  0
   -4.1860   22.8830  -31.9570 N   0  0  0  0  0  0  0  0  0  0  0  0
   -5.0160   23.6640  -31.2380 C   0  0  0  0  0  0  0  0  0  0  0  0
   -4.6100   24.8690  -30.8460 N   0  0  0  0  0  0  0  0  0  0  0  0
   -5.4490   25.6490  -30.1410 C   0  0  0  0  0  0  0  0  0  0  0  0
   -6.7160   25.2940  -29.7870 C   0  0  0  0  0  0  0  0  0  0  0  0
   -7.1740   24.0210  -30.1890 C   0  0  0  0  0  0  0  0  0  0  0  0
   -6.2950   23.2670  -30.8920 C   0  0  0  0  0  0  0  0  0  0  0  0
   -6.6760   22.0230  -31.3200 C   0  0  0  0  0  0  0  0  0  0  0  0
   -7.7300   21.5010  -30.9530 N   0  0  0  0  0  0  0  0  0  0  0  0
   -8.8910   21.1630  -31.6260 C   0  0  0  0  0  0  0  0  0  0  0  0
   -8.8520   20.0490  -32.6500 C   0  0  0  0  0  0  0  0  0  0  0  0
   -8.3630   18.7480  -32.1020 C   0  0  0  0  0  0  0  0  0  0  0  0
   -6.9760   18.4950  -32.1360 N   0  0  0  0  0  0  0  0  0  0  0  0
   -6.4480   17.5320  -31.2380 C   0  0  0  0  0  0  0  0  0  0  0  0
   -6.5330   18.2660  -33.4980 C   0  0  0  0  0  0  0  0  0  0  0  0
   -5.8100   21.2730  -32.0440 N   0  0  0  0  0  0  0  0  0  0  0  0
   -2.9751   20.2737  -32.4857 H   0  0  0  0  0  0  0  0  0  0  0  0
   -4.1897   20.1381  -33.8022 H   0  0  0  0  0  0  0  0  0  0  0  0
   -3.0129   21.4953  -33.8022 H   0  0  0  0  0  0  0  0  0  0  0  0
   -5.0880   26.6402  -29.8293 H   0  0  0  0  0  0  0  0  0  0  0  0
   -7.3584   25.9747  -29.2090 H   0  0  0  0  0  0  0  0  0  0  0  0
   -8.1850   23.6622  -29.9459 H   0  0  0  0  0  0  0  0  0  0  0  0
   -9.6314   20.8748  -30.8653 H   0  0  0  0  0  0  0  0  0  0  0  0
   -9.1188   22.0590  -32.2220 H   0  0  0  0  0  0  0  0  0  0  0  0
   -9.8693   19.9009  -33.0413 H   0  0  0  0  0  0  0  0  0  0  0  0
   -8.1425   20.3558  -33.4327 H   0  0  0  0  0  0  0  0  0  0  0  0
   -8.6792   18.6967  -31.0497 H   0  0  0  0  0  0  0  0  0  0  0  0
   -8.7974   17.9883  -32.7685 H   0  0  0  0  0  0  0  0  0  0  0  0
   -6.6271   17.8587  -30.2030 H   0  0  0  0  0  0  0  0  0  0  0  0
   -6.9413   16.5635  -31.4073 H   0  0  0  0  0  0  0  0  0  0  0  0
   -5.3662   17.4271  -31.4073 H   0  0  0  0  0  0  0  0  0  0  0  0
   -5.5559   17.7609  -33.4857 H   0  0  0  0  0  0  0  0  0  0  0  0
   -7.2660   17.6339  -34.0206 H   0  0  0  0  0  0  0  0  0  0  0  0
   -6.4411   19.2296  -34.0206 H   0  0  0  0  0  0  0  0  0  0  0  0
   -6.0890   20.3070  -32.3910 H   0  0  0  0  0  0  0  0  0  0  0  0
  1  2  1  0
  2  3  2  0
  3  4  1  0
  4  5  2  0
  5  6  1  0
  6  7  2  0
  7  8  1  0
  8  9  2  0
  9 10  1  0
 10 11  2  0
 11 12  1  0
 12 13  1  0
 13 14  1  0
 14 15  1  0
 15 16  1  0
 15 17  1  0
 10 18  1  0
 18  2  1  0
  9  4  1  0
  1 19  1  0
  1 20  1  0
  1 21  1  0
  6 22  1  0
  7 23  1  0
  8 24  1  0
 12 25  1  0
 12 26  1  0
 13 27  1  0
 13 28  1  0
 14 29  1  0
 14 30  1  0
 16 31  1  0
 16 32  1  0
 16 33  1  0
 17 34  1  0
 17 35  1  0
 17 36  1  0
 18 37  1  0
M  END
>  <smiles>  (43) 
Cc1nc2ncccc2c(=NCCCN(C)C)[nH]1

>  <score_type>  (43) 
oracle

>  <origin>  (43) 
adg

>  <m_score__min__energy>  (43) 
-6.6399999999999997

>  <m_primary>  (43) 
energy

$$$$
43:0
     RDKit          3D

 53 54  0  0  0  0  0  0  0  0999 V2000
   -3.1730   20.2560  -32.1460 C   0  0  0  0  0  0  0  0  0  0  0  0
   -2.5090   20.8170  -30.8890 C   0  0  0  0  0  0  0  0  0  0  0  0
   -2.0060   22.2590  -31.0660 C   0  0  0  0  0  0  0  0  0  0  0  0
   -2.1690   23.0480  -29.8300 N   0  0  0  0  0  0  0  0  0  0  0  0
   -1.5650   22.5340  -28.5860 C   0  0  0  0  0  0  0  0  0  0  0  0
   -0.6010   23.5540  -27.9700 C   0  0  0  0  0  0  0  0  0  0  0  0
   -0.0260   24.3470  -28.9720 O   0  0  0  0  0  0  0  0  0  0  0  0
   -3.1060   24.1520  -29.8130 C   0  0  0  0  0  0  0  0  0  0  0  0
   -2.7360   25.2620  -29.3390 O   0  0  0  0  0  0  0  0  0  0  0  0
   -4.5280   24.0050  -30.3300 C   0  0  0  0  0  0  0  0  0  0  0  0
   -5.4730   25.0700  -29.7530 C   0  0  0  0  0  0  0  0  0  0  0  0
   -6.8570   24.9490  -30.4060 C   0  0  0  0  0  0  0  0  0  0  0  0
   -7.3880   23.5650  -30.4250 N   0  0  0  0  0  0  0  0  0  0  0  0
   -7.8950   23.0440  -32.0190 S   0  0  0  0  0  0  0  0  0  0  0  0
   -9.3530   23.3650  -32.1990 O   0  0  0  0  0  0  0  0  0  0  0  0
   -7.1250   23.8060  -33.0610 O   0  0  0  0  0  0  0  0  0  0  0  0
   -7.6470   21.3160  -32.2740 C   0  0  0  0  0  0  0  0  0  0  0  0
   -8.6050   20.3920  -31.8360 C   0  0  0  0  0  0  0  0  0  0  0  0
   -8.4250   19.0250  -32.0670 C   0  0  0  0  0  0  0  0  0  0  0  0
   -7.2740   18.5640  -32.7230 C   0  0  0  0  0  0  0  0  0  0  0  0
   -7.1090   17.0990  -32.9990 C   0  0  0  0  0  0  0  0  0  0  0  0
   -6.3030   19.4890  -33.1420 C   0  0  0  0  0  0  0  0  0  0  0  0
   -6.4860   20.8560  -32.9120 C   0  0  0  0  0  0  0  0  0  0  0  0
   -6.5850   22.5490  -29.7130 C   0  0  0  0  0  0  0  0  0  0  0  0
   -5.0810   22.5870  -30.0520 C   0  0  0  0  0  0  0  0  0  0  0  0
   -3.9839   19.5709  -31.8577 H   0  0  0  0  0  0  0  0  0  0  0  0
   -3.5862   21.0827  -32.7425 H   0  0  0  0  0  0  0  0  0  0  0  0
   -2.4269   19.7106  -32.7425 H   0  0  0  0  0  0  0  0  0  0  0  0
   -3.2415   20.7998  -30.0686 H   0  0  0  0  0  0  0  0  0  0  0  0
   -1.6331   20.1880  -30.6718 H   0  0  0  0  0  0  0  0  0  0  0  0
   -0.9398   22.2343  -31.3355 H   0  0  0  0  0  0  0  0  0  0  0  0
   -2.6013   22.7356  -31.8587 H   0  0  0  0  0  0  0  0  0  0  0  0
   -2.3650   22.3157  -27.8633 H   0  0  0  0  0  0  0  0  0  0  0  0
   -0.9977   21.6229  -28.8271 H   0  0  0  0  0  0  0  0  0  0  0  0
   -1.1531   24.1981  -27.2697 H   0  0  0  0  0  0  0  0  0  0  0  0
    0.1972   23.0157  -27.4378 H   0  0  0  0  0  0  0  0  0  0  0  0
   -0.7430   24.5360  -29.6330 H   0  0  0  0  0  0  0  0  0  0  0  0
   -4.4829   24.1588  -31.4183 H   0  0  0  0  0  0  0  0  0  0  0  0
   -5.5680   24.9235  -28.6669 H   0  0  0  0  0  0  0  0  0  0  0  0
   -5.0615   26.0692  -29.9587 H   0  0  0  0  0  0  0  0  0  0  0  0
   -7.5611   25.5835  -29.8477 H   0  0  0  0  0  0  0  0  0  0  0  0
   -6.7469   25.2655  -31.4537 H   0  0  0  0  0  0  0  0  0  0  0  0
   -9.5033   20.7440  -31.3077 H   0  0  0  0  0  0  0  0  0  0  0  0
   -9.1892   18.3078  -31.7329 H   0  0  0  0  0  0  0  0  0  0  0  0
   -7.0473   16.5512  -32.0471 H   0  0  0  0  0  0  0  0  0  0  0  0
   -7.9718   16.7352  -33.5762 H   0  0  0  0  0  0  0  0  0  0  0  0
   -6.1868   16.9362  -33.5762 H   0  0  0  0  0  0  0  0  0  0  0  0
   -5.3950   19.1363  -33.6531 H   0  0  0  0  0  0  0  0  0  0  0  0
   -5.7163   21.5734  -33.2328 H   0  0  0  0  0  0  0  0  0  0  0  0
   -6.6999   22.7131  -28.6314 H   0  0  0  0  0  0  0  0  0  0  0  0
   -6.9587   21.5657  -30.0346 H   0  0  0  0  0  0  0  0  0  0  0  0
   -4.5255   22.1605  -29.2037 H   0  0  0  0  0  0  0  0  0  0  0  0
   -4.9520   22.0104  -30.9799 H   0  0  0  0  0  0  0  0  0  0  0  0
  1  2  1  0
  2  3  1  0
  3  4  1  0
  4  5  1  0
  5  6  1  0
  6  7  1  0
  4  8  1  0
  8  9  2  0
  8 10  1  0
 10 11  1  0
 11 12  1  0
 12 13  1  0
 13 14  1  0
 14 15  2  0
 14 16  2  0
 14 17  1  0
 17 18  2  0
 18 19  1  0
 19 20  2  0
 20 21  1  0
 20 22  1  0
 22 23  2  0
 13 24  1  0
 24 25  1  0
 25 10  1  0
 23 17  1  0
  1 26  1  0
  1 27  1  0
  1 28  1  0
  2 29  1  0
  2 30  1  0
  3 31  1  0
  3 32  1  0
  5 33  1  0
  5 34  1  0
  6 35  1  0
  6 36  1  0
  7 37  1  0
 10 38  1  0
 11 39  1  0
 11 40  1  0
 12 41  1  0
 12 42  1  0
 18 43  1  0
 19 44  1  0
 21 45  1  0
 21 46  1  0
 21 47  1  0
 22 48  1  0
 23 49  1  0
 24 50  1  0
 24 51  1  0
 25 52  1  0
 25 53  1  0
M  END
>  <UniqueID>  (44) 
42

>  <SMILES>  (44) 
CCCN(CCO)C(=O)C1CCN(S(=O)(=O)c2ccc(C)cc2)CC1

>  <Energy>  (44) 
52.13189090029063

>  <Genealogy>  (44) 
CCCN(CCO)C(=O)C1CCN(S(=O)(=O)c2ccc(C)cc2)CC1 (3D coordinates assigned)
CCCN(CCO)C(=O)C1CCN(S(=O)(=O)c2ccc(C)cc2)CC1 (nonaromatic ring conformer: 52.13189090029063 kcal/mol)

>  <smiles>  (44) 
CCCN(CCO)C(=O)C1CCN(S(=O)(=O)c2ccc(C)cc2)CC1

>  <score_type>  (44) 
oracle

>  <origin>  (44) 
adg

>  <m_score__min__energy>  (44) 
-9.4800000000000004

>  <m_primary>  (44) 
energy

$$$$
44:0
     RDKit          3D

 46 50  0  0  0  0  0  0  0  0999 V2000
   -3.5150   24.8410  -30.4970 O   0  0  0  0  0  0  0  0  0  0  0  0
   -2.6400   24.5890  -29.6280 C   0  0  0  0  0  0  0  0  0  0  0  0
   -1.9860   25.6720  -28.9640 N   0  0  0  0  0  0  0  0  0  0  0  0
   -1.0340   25.4110  -27.8910 C   0  0  0  0  0  0  0  0  0  0  0  0
   -0.1480   24.2150  -28.2550 C   0  0  0  0  0  0  0  0  0  0  0  0
   -0.9830   23.0180  -28.6560 C   0  0  0  0  0  0  0  0  0  0  0  0
   -0.4990   21.7620  -28.4380 N   0  0  0  0  0  0  0  0  0  0  0  0
   -1.1810   20.6520  -28.8290 C   0  0  0  0  0  0  0  0  0  0  0  0
   -0.6410   19.3540  -28.5770 N   0  0  0  0  0  0  0  0  0  0  0  0
   -0.6840   18.3430  -27.5030 C   0  0  0  0  0  0  0  0  0  0  0  0
    0.2100   17.3510  -28.1860 C   0  0  0  0  0  0  0  0  0  0  0  0
    1.5390   17.1060  -27.5050 C   0  0  0  0  0  0  0  0  0  0  0  0
    2.5830   18.0520  -27.5080 C   0  0  0  0  0  0  0  0  0  0  0  0
    3.7510   17.7630  -26.8750 N   0  0  0  0  0  0  0  0  0  0  0  0
    3.9330   16.5780  -26.2370 C   0  0  0  0  0  0  0  0  0  0  0  0
    2.9040   15.6370  -26.2320 C   0  0  0  0  0  0  0  0  0  0  0  0
    1.7340   15.9220  -26.8630 N   0  0  0  0  0  0  0  0  0  0  0  0
    0.2290   18.3850  -29.2720 C   0  0  0  0  0  0  0  0  0  0  0  0
   -2.4160   20.7800  -29.4680 C   0  0  0  0  0  0  0  0  0  0  0  0
   -2.9510   22.0500  -29.7160 C   0  0  0  0  0  0  0  0  0  0  0  0
   -4.2980   22.1330  -30.3210 C   0  0  0  0  0  0  0  0  0  0  0  0
   -4.5160   21.6710  -31.6300 C   0  0  0  0  0  0  0  0  0  0  0  0
   -5.7850   21.7740  -32.2090 C   0  0  0  0  0  0  0  0  0  0  0  0
   -6.8390   22.3450  -31.4910 C   0  0  0  0  0  0  0  0  0  0  0  0
   -8.0680   22.4450  -32.0550 F   0  0  0  0  0  0  0  0  0  0  0  0
   -6.6260   22.8200  -30.1940 C   0  0  0  0  0  0  0  0  0  0  0  0
   -5.3580   22.7190  -29.6110 C   0  0  0  0  0  0  0  0  0  0  0  0
   -2.2110   23.1970  -29.3330 C   0  0  0  0  0  0  0  0  0  0  0  0
   -0.4028   26.2992  -27.7401 H   0  0  0  0  0  0  0  0  0  0  0  0
   -1.5855   25.1834  -26.9668 H   0  0  0  0  0  0  0  0  0  0  0  0
    0.5051   24.4946  -29.0948 H   0  0  0  0  0  0  0  0  0  0  0  0
    0.4501   23.9430  -27.3728 H   0  0  0  0  0  0  0  0  0  0  0  0
    0.4250   21.6430  -27.9640 H   0  0  0  0  0  0  0  0  0  0  0  0
   -0.2642   18.7115  -26.5554 H   0  0  0  0  0  0  0  0  0  0  0  0
   -1.6762   17.9894  -27.1860 H   0  0  0  0  0  0  0  0  0  0  0  0
   -0.0519   16.2948  -28.3470 H   0  0  0  0  0  0  0  0  0  0  0  0
    2.4540   19.0176  -28.0189 H   0  0  0  0  0  0  0  0  0  0  0  0
    4.8842   16.3623  -25.7284 H   0  0  0  0  0  0  0  0  0  0  0  0
    3.0378   14.6718  -25.7216 H   0  0  0  0  0  0  0  0  0  0  0  0
    1.2371   18.7807  -29.4645 H   0  0  0  0  0  0  0  0  0  0  0  0
   -0.0808   18.0630  -30.2772 H   0  0  0  0  0  0  0  0  0  0  0  0
   -2.9697   19.8812  -29.7772 H   0  0  0  0  0  0  0  0  0  0  0  0
   -3.6868   21.2273  -32.2006 H   0  0  0  0  0  0  0  0  0  0  0  0
   -5.9536   21.4049  -33.2314 H   0  0  0  0  0  0  0  0  0  0  0  0
   -7.4554   23.2734  -29.6313 H   0  0  0  0  0  0  0  0  0  0  0  0
   -5.1911   23.1001  -28.5927 H   0  0  0  0  0  0  0  0  0  0  0  0
  1  2  2  0
  2  3  1  0
  3  4  1  0
  4  5  1  0
  5  6  1  0
  6  7  2  0
  7  8  1  0
  8  9  1  0
  9 10  1  0
 10 11  1  0
 11 12  1  0
 12 13  2  0
 13 14  1  0
 14 15  2  0
 15 16  1  0
 16 17  2  0
 11 18  1  0
  8 19  2  0
 19 20  1  0
 20 21  1  0
 21 22  2  0
 22 23  1  0
 23 24  2  0
 24 25  1  0
 24 26  1  0
 26 27  2  0
 20 28  2  0
 28  2  1  0
 28  6  1  0
 18  9  1  0
 27 21  1  0
 17 12  1  0
  4 29  1  0
  4 30  1  0
  5 31  1  0
  5 32  1  0
  7 33  1  0
 10 34  1  0
 10 35  1  0
 11 36  1  0
 13 37  1  0
 15 38  1  0
 16 39  1  0
 18 40  1  0
 18 41  1  0
 19 42  1  0
 22 43  1  0
 23 44  1  0
 26 45  1  0
 27 46  1  0
M  CHG  2   3  -1   7   1
M  END
>  <UniqueID>  (45) 
43

>  <SMILES>  (45) 
O=C1[N-]CCc2[nH+]c(N3CC(c4cnccn4)C3)cc(-c3ccc(F)cc3)c21

>  <Energy>  (45) 
109.61889666085462

>  <Genealogy>  (45) 
O=C1[N-]CCc2[nH+]c(N3CC(c4cnccn4)C3)cc(-c3ccc(F)cc3)c21 (protonated)
O=C1[N-]CCc2[nH+]c(N3CC(c4cnccn4)C3)cc(-c3ccc(F)cc3)c21 (3D coordinates assigned)
O=C1[N-]CCc2[nH+]c(N3CC(c4cnccn4)C3)cc(-c3ccc(F)cc3)c21 (nonaromatic ring conformer: 109.61889666085462 kcal/mol)

>  <smiles>  (45) 
O=C1NCCc2nc(N3CC(c4cnccn4)C3)cc(-c3ccc(F)cc3)c21

>  <score_type>  (45) 
oracle

>  <origin>  (45) 
adg

>  <m_score__min__energy>  (45) 
-8.7100000000000009

>  <m_primary>  (45) 
energy

$$$$
45:0
     RDKit          3D

 42 44  0  0  0  0  0  0  0  0999 V2000
   -6.8890   15.2170  -34.2540 C   0  0  0  0  0  0  0  0  0  0  0  0
   -7.0170   16.3580  -33.4130 O   0  0  0  0  0  0  0  0  0  0  0  0
   -6.1310   17.4480  -33.4100 C   0  0  0  0  0  0  0  0  0  0  0  0
   -6.5850   18.7790  -33.4600 C   0  0  0  0  0  0  0  0  0  0  0  0
   -5.6740   19.8370  -33.4540 C   0  0  0  0  0  0  0  0  0  0  0  0
   -4.2980   19.5860  -33.3880 C   0  0  0  0  0  0  0  0  0  0  0  0
   -3.3180   20.7250  -33.4210 C   0  0  0  0  0  0  0  0  0  0  0  0
   -3.3000   21.4180  -32.0970 C   0  0  0  0  0  0  0  0  0  0  0  0
   -3.2780   20.7950  -30.9070 N   0  0  0  0  0  0  0  0  0  0  0  0
   -3.2310   21.7280  -29.9700 N   0  0  0  0  0  0  0  0  0  0  0  0
   -3.2220   22.9010  -30.6360 C   0  0  0  0  0  0  0  0  0  0  0  0
   -3.1740   24.2130  -29.9880 C   0  0  0  0  0  0  0  0  0  0  0  0
   -2.5280   24.3560  -28.9150 O   0  0  0  0  0  0  0  0  0  0  0  0
   -3.8620   25.3230  -30.5740 N   0  0  0  0  0  0  0  0  0  0  0  0
   -5.2960   25.5470  -30.4360 C   0  0  0  0  0  0  0  0  0  0  0  0
   -6.0510   24.3020  -30.7810 C   0  0  0  0  0  0  0  0  0  0  0  0
   -6.7410   23.4910  -29.8910 C   0  0  0  0  0  0  0  0  0  0  0  0
   -7.3930   22.4200  -30.5140 C   0  0  0  0  0  0  0  0  0  0  0  0
   -7.2260   22.3920  -31.8930 C   0  0  0  0  0  0  0  0  0  0  0  0
   -6.2660   23.7010  -32.3370 S   0  0  0  0  0  0  0  0  0  0  0  0
   -3.2620   22.7200  -31.9380 O   0  0  0  0  0  0  0  0  0  0  0  0
   -3.8410   18.2590  -33.3520 C   0  0  0  0  0  0  0  0  0  0  0  0
   -4.7530   17.1860  -33.3590 C   0  0  0  0  0  0  0  0  0  0  0  0
   -4.3300   15.8490  -33.3200 O   0  0  0  0  0  0  0  0  0  0  0  0
   -3.0150   15.4080  -33.6450 C   0  0  0  0  0  0  0  0  0  0  0  0
   -6.7877   14.3140  -33.6340 H   0  0  0  0  0  0  0  0  0  0  0  0
   -7.7827   15.1274  -34.8890 H   0  0  0  0  0  0  0  0  0  0  0  0
   -5.9976   15.3277  -34.8890 H   0  0  0  0  0  0  0  0  0  0  0  0
   -7.6642   18.9872  -33.5041 H   0  0  0  0  0  0  0  0  0  0  0  0
   -6.0392   20.8735  -33.5014 H   0  0  0  0  0  0  0  0  0  0  0  0
   -2.3134   20.3357  -33.6427 H   0  0  0  0  0  0  0  0  0  0  0  0
   -3.6196   21.4402  -34.2004 H   0  0  0  0  0  0  0  0  0  0  0  0
   -3.2870   19.7670  -30.7280 H   0  0  0  0  0  0  0  0  0  0  0  0
   -5.5206   25.8317  -29.3975 H   0  0  0  0  0  0  0  0  0  0  0  0
   -5.6003   26.3518  -31.1213 H   0  0  0  0  0  0  0  0  0  0  0  0
   -6.7725   23.6713  -28.8063 H   0  0  0  0  0  0  0  0  0  0  0  0
   -7.9819   21.6714  -29.9636 H   0  0  0  0  0  0  0  0  0  0  0  0
   -7.6491   21.6422  -32.5777 H   0  0  0  0  0  0  0  0  0  0  0  0
   -2.7605   18.0555  -33.3180 H   0  0  0  0  0  0  0  0  0  0  0  0
   -2.4522   15.2193  -32.7189 H   0  0  0  0  0  0  0  0  0  0  0  0
   -3.0743   14.4806  -34.2335 H   0  0  0  0  0  0  0  0  0  0  0  0
   -2.5031   16.1836  -34.2335 H   0  0  0  0  0  0  0  0  0  0  0  0
  1  2  1  0
  2  3  1  0
  3  4  2  0
  4  5  1  0
  5  6  2  0
  6  7  1  0
  7  8  1  0
  8  9  2  0
  9 10  1  0
 10 11  2  0
 11 12  1  0
 12 13  2  0
 12 14  1  0
 14 15  1  0
 15 16  1  0
 16 17  2  0
 17 18  1  0
 18 19  2  0
 19 20  1  0
 11 21  1  0
  6 22  1  0
 22 23  2  0
 23 24  1  0
 24 25  1  0
 23  3  1  0
 21  8  1  0
 20 16  1  0
  1 26  1  0
  1 27  1  0
  1 28  1  0
  4 29  1  0
  5 30  1  0
  7 31  1  0
  7 32  1  0
  9 33  1  0
 15 34  1  0
 15 35  1  0
 17 36  1  0
 18 37  1  0
 19 38  1  0
 22 39  1  0
 25 40  1  0
 25 41  1  0
 25 42  1  0
M  CHG  2   9   1  14  -1
M  END
>  <UniqueID>  (46) 
44

>  <SMILES>  (46) 
COc1ccc(Cc2[nH+]nc(C(=O)[N-]Cc3cccs3)o2)cc1OC

>  <Energy>  (46) 
97.50988847844074

>  <Genealogy>  (46) 
COc1ccc(Cc2[nH+]nc(C(=O)[N-]Cc3cccs3)o2)cc1OC (protonated)
COc1ccc(Cc2[nH+]nc(C(=O)[N-]Cc3cccs3)o2)cc1OC (3D coordinates assigned)
COc1ccc(Cc2[nH+]nc(C(=O)[N-]Cc3cccs3)o2)cc1OC (optimized conformer: 97.50988847844074 kcal/mol)

>  <smiles>  (46) 
COc1ccc(Cc2nnc(C(=O)NCc3cccs3)o2)cc1OC

>  <score_type>  (46) 
oracle

>  <origin>  (46) 
adg

>  <m_score__min__energy>  (46) 
-9.0099999999999998

>  <m_primary>  (46) 
energy

$$$$
46:0
     RDKit          3D

 71 73  0  0  0  0  0  0  0  0999 V2000
   -1.6070   25.7920  -25.2630 C   0  0  0  0  0  0  0  0  0  0  0  0
   -1.0360   25.1100  -26.5060 C   0  0  0  0  0  0  0  0  0  0  0  0
   -1.4590   25.8030  -27.8110 C   0  0  0  0  0  0  0  0  0  0  0  0
   -1.8480   24.8310  -28.9370 C   0  0  0  0  0  0  0  0  0  0  0  0
   -3.2920   24.5520  -28.9560 N   0  0  0  0  0  0  0  0  0  0  0  0
   -3.9250   24.0130  -27.7380 C   0  0  0  0  0  0  0  0  0  0  0  0
   -3.8000   22.4840  -27.6010 C   0  0  0  0  0  0  0  0  0  0  0  0
   -2.3740   22.0300  -27.2550 C   0  0  0  0  0  0  0  0  0  0  0  0
   -2.0940   20.7120  -27.8690 N   0  0  0  0  0  0  0  0  0  0  0  0
   -2.6940   19.6360  -27.0630 C   0  0  0  0  0  0  0  0  0  0  0  0
   -2.6290   20.6450  -29.2410 C   0  0  0  0  0  0  0  0  0  0  0  0
   -3.9670   24.5450  -30.2310 C   0  0  0  0  0  0  0  0  0  0  0  0
   -4.1910   25.6390  -30.8160 O   0  0  0  0  0  0  0  0  0  0  0  0
   -4.4000   23.2830  -30.8710 C   0  0  0  0  0  0  0  0  0  0  0  0
   -5.6230   22.6930  -30.5400 C   0  0  0  0  0  0  0  0  0  0  0  0
   -6.0340   21.5180  -31.1680 C   0  0  0  0  0  0  0  0  0  0  0  0
   -5.2330   20.8860  -32.1430 C   0  0  0  0  0  0  0  0  0  0  0  0
   -5.6960   19.6530  -32.7590 N   0  0  0  0  0  0  0  0  0  0  0  0
   -5.5940   19.3870  -34.1900 C   0  0  0  0  0  0  0  0  0  0  0  0
   -6.1150   17.9720  -34.3950 C   0  0  0  0  0  0  0  0  0  0  0  0
   -6.9490   17.6670  -33.1610 C   0  0  0  0  0  0  0  0  0  0  0  0
   -6.4060   18.5820  -32.0730 C   0  0  0  0  0  0  0  0  0  0  0  0
   -3.9870   21.4870  -32.4710 C   0  0  0  0  0  0  0  0  0  0  0  0
   -3.1400   20.9700  -33.5040 N   0  0  0  0  0  0  0  0  0  0  0  0
   -2.1670   19.9500  -33.2250 C   0  0  0  0  0  0  0  0  0  0  0  0
   -2.2150   19.3330  -32.1250 O   0  0  0  0  0  0  0  0  0  0  0  0
   -1.0870   19.6250  -34.1900 C   0  0  0  0  0  0  0  0  0  0  0  0
   -0.9030   18.2880  -34.6130 C   0  0  0  0  0  0  0  0  0  0  0  0
   -1.6930   17.2910  -34.1380 F   0  0  0  0  0  0  0  0  0  0  0  0
    0.1100   17.9670  -35.5240 C   0  0  0  0  0  0  0  0  0  0  0  0
    0.9490   18.9650  -36.0230 C   0  0  0  0  0  0  0  0  0  0  0  0
    0.7650   20.2920  -35.6320 C   0  0  0  0  0  0  0  0  0  0  0  0
   -0.2470   20.6270  -34.7260 C   0  0  0  0  0  0  0  0  0  0  0  0
   -0.4360   21.9360  -34.4320 F   0  0  0  0  0  0  0  0  0  0  0  0
   -3.5850   22.6670  -31.8280 C   0  0  0  0  0  0  0  0  0  0  0  0
   -1.2026   25.3089  -24.3613 H   0  0  0  0  0  0  0  0  0  0  0  0
   -1.3260   26.8555  -25.2666 H   0  0  0  0  0  0  0  0  0  0  0  0
   -2.7033   25.7024  -25.2666 H   0  0  0  0  0  0  0  0  0  0  0  0
    0.0620   25.1225  -26.4410 H   0  0  0  0  0  0  0  0  0  0  0  0
   -1.4307   24.0836  -26.5323 H   0  0  0  0  0  0  0  0  0  0  0  0
   -2.3242   26.4473  -27.5959 H   0  0  0  0  0  0  0  0  0  0  0  0
   -0.5867   26.3706  -28.1674 H   0  0  0  0  0  0  0  0  0  0  0  0
   -1.5600   25.2733  -29.9021 H   0  0  0  0  0  0  0  0  0  0  0  0
   -1.3228   23.8809  -28.7594 H   0  0  0  0  0  0  0  0  0  0  0  0
   -3.4491   24.4803  -26.8633 H   0  0  0  0  0  0  0  0  0  0  0  0
   -4.9985   24.2435  -27.8043 H   0  0  0  0  0  0  0  0  0  0  0  0
   -4.4790   22.1462  -26.8042 H   0  0  0  0  0  0  0  0  0  0  0  0
   -4.0601   22.0428  -28.5745 H   0  0  0  0  0  0  0  0  0  0  0  0
   -1.6545   22.7691  -27.6372 H   0  0  0  0  0  0  0  0  0  0  0  0
   -2.2797   21.9444  -26.1624 H   0  0  0  0  0  0  0  0  0  0  0  0
   -2.5669   19.8639  -25.9944 H   0  0  0  0  0  0  0  0  0  0  0  0
   -3.7661   19.5575  -27.2962 H   0  0  0  0  0  0  0  0  0  0  0  0
   -2.1973   18.6826  -27.2962 H   0  0  0  0  0  0  0  0  0  0  0  0
   -3.7198   20.5084  -29.2029 H   0  0  0  0  0  0  0  0  0  0  0  0
   -2.3948   21.5795  -29.7719 H   0  0  0  0  0  0  0  0  0  0  0  0
   -2.1716   19.7971  -29.7719 H   0  0  0  0  0  0  0  0  0  0  0  0
   -6.2658   23.1590  -29.7787 H   0  0  0  0  0  0  0  0  0  0  0  0
   -7.0034   21.0740  -30.8977 H   0  0  0  0  0  0  0  0  0  0  0  0
   -6.2058   20.1047  -34.7562 H   0  0  0  0  0  0  0  0  0  0  0  0
   -4.5577   19.4887  -34.5445 H   0  0  0  0  0  0  0  0  0  0  0  0
   -6.7352   17.9177  -35.3019 H   0  0  0  0  0  0  0  0  0  0  0  0
   -5.2962   17.2490  -34.5247 H   0  0  0  0  0  0  0  0  0  0  0  0
   -8.0109   17.8822  -33.3508 H   0  0  0  0  0  0  0  0  0  0  0  0
   -6.8852   16.6068  -32.8748 H   0  0  0  0  0  0  0  0  0  0  0  0
   -7.2317   18.9943  -31.4744 H   0  0  0  0  0  0  0  0  0  0  0  0
   -5.7420   18.0371  -31.3858 H   0  0  0  0  0  0  0  0  0  0  0  0
   -3.0810   21.5230  -34.3880 H   0  0  0  0  0  0  0  0  0  0  0  0
    0.2455   16.9246  -35.8479 H   0  0  0  0  0  0  0  0  0  0  0  0
    1.7554   18.7053  -36.7246 H   0  0  0  0  0  0  0  0  0  0  0  0
    1.4186   21.0781  -36.0380 H   0  0  0  0  0  0  0  0  0  0  0  0
   -2.6129   23.1159  -32.0800 H   0  0  0  0  0  0  0  0  0  0  0  0
  1  2  1  0
  2  3  1  0
  3  4  1  0
  4  5  1  0
  5  6  1  0
  6  7  1  0
  7  8  1  0
  8  9  1  0
  9 10  1  0
  9 11  1  0
  5 12  1  0
 12 13  2  0
 12 14  1  0
 14 15  2  0
 15 16  1  0
 16 17  2  0
 17 18  1  0
 18 19  1  0
 19 20  1  0
 20 21  1  0
 21 22  1  0
 17 23  1  0
 23 24  1  0
 24 25  1  0
 25 26  2  0
 25 27  1  0
 27 28  2  0
 28 29  1  0
 28 30  1  0
 30 31  2  0
 31 32  1  0
 32 33  2  0
 33 34  1  0
 23 35  2  0
 35 14  1  0
 22 18  1  0
 33 27  1  0
  1 36  1  0
  1 37  1  0
  1 38  1  0
  2 39  1  0
  2 40  1  0
  3 41  1  0
  3 42  1  0
  4 43  1  0
  4 44  1  0
  6 45  1  0
  6 46  1  0
  7 47  1  0
  7 48  1  0
  8 49  1  0
  8 50  1  0
 10 51  1  0
 10 52  1  0
 10 53  1  0
 11 54  1  0
 11 55  1  0
 11 56  1  0
 15 57  1  0
 16 58  1  0
 19 59  1  0
 19 60  1  0
 20 61  1  0
 20 62  1  0
 21 63  1  0
 21 64  1  0
 22 65  1  0
 22 66  1  0
 24 67  1  0
 30 68  1  0
 31 69  1  0
 32 70  1  0
 35 71  1  0
M  END
>  <UniqueID>  (47) 
45

>  <SMILES>  (47) 
CCCCN(CCCN(C)C)C(=O)c1ccc(N2CCCC2)c(NC(=O)c2c(F)cccc2F)c1

>  <Energy>  (47) 
84.11200106677849

>  <Genealogy>  (47) 
CCCCN(CCCN(C)C)C(=O)c1ccc(N2CCCC2)c(NC(=O)c2c(F)cccc2F)c1 (3D coordinates assigned)
CCCCN(CCCN(C)C)C(=O)c1ccc(N2CCCC2)c(NC(=O)c2c(F)cccc2F)c1 (nonaromatic ring conformer: 84.11200106677849 kcal/mol)

>  <smiles>  (47) 
CCCCN(CCCN(C)C)C(=O)c1ccc(N2CCCC2)c(NC(=O)c2c(F)cccc2F)c1

>  <score_type>  (47) 
oracle

>  <origin>  (47) 
adg

>  <m_score__min__energy>  (47) 
-9.0800000000000001

>  <m_primary>  (47) 
energy

$$$$
47:0
     RDKit          3D

 48 50  0  0  0  0  0  0  0  0999 V2000
    1.0260   19.1680  -31.6200 C   0  0  0  0  0  0  0  0  0  0  0  0
   -0.1540   19.6880  -32.3270 N   0  0  0  0  0  0  0  0  0  0  0  0
   -0.7210   20.8350  -31.6000 C   0  0  0  0  0  0  0  0  0  0  0  0
   -1.8440   21.5350  -32.3990 C   0  0  0  0  0  0  0  0  0  0  0  0
   -2.2300   20.8430  -33.6560 N   0  0  0  0  0  0  0  0  0  0  0  0
   -3.2760   19.7980  -33.4760 C   0  0  0  0  0  0  0  0  0  0  0  0
   -4.6150   20.3130  -32.9950 C   0  0  0  0  0  0  0  0  0  0  0  0
   -5.6610   19.4190  -32.7280 C   0  0  0  0  0  0  0  0  0  0  0  0
   -6.9110   19.8870  -32.3160 C   0  0  0  0  0  0  0  0  0  0  0  0
   -8.3030   18.6000  -32.0320 Br  0  0  0  0  0  0  0  0  0  0  0  0
   -7.1220   21.2650  -32.1250 C   0  0  0  0  0  0  0  0  0  0  0  0
   -8.8510   21.8980  -31.5590 Br  0  0  0  0  0  0  0  0  0  0  0  0
   -6.0570   22.1700  -32.3380 C   0  0  0  0  0  0  0  0  0  0  0  0
   -6.2270   23.6530  -32.0990 C   0  0  0  0  0  0  0  0  0  0  0  0
   -5.0360   24.2130  -31.4200 N   0  0  0  0  0  0  0  0  0  0  0  0
   -5.3410   25.5070  -30.7970 C   0  0  0  0  0  0  0  0  0  0  0  0
   -5.8030   25.2420  -29.3730 C   0  0  0  0  0  0  0  0  0  0  0  0
   -5.2800   23.8590  -29.0340 C   0  0  0  0  0  0  0  0  0  0  0  0
   -4.6030   23.3580  -30.3040 C   0  0  0  0  0  0  0  0  0  0  0  0
   -4.8150   21.6840  -32.7780 C   0  0  0  0  0  0  0  0  0  0  0  0
   -1.0760   20.4140  -34.4940 C   0  0  0  0  0  0  0  0  0  0  0  0
    0.1970   20.0960  -33.6920 C   0  0  0  0  0  0  0  0  0  0  0  0
    0.8640   19.2394  -30.5343 H   0  0  0  0  0  0  0  0  0  0  0  0
    1.1862   18.1159  -31.8984 H   0  0  0  0  0  0  0  0  0  0  0  0
    1.9105   19.7597  -31.8984 H   0  0  0  0  0  0  0  0  0  0  0  0
   -1.1345   20.4796  -30.6446 H   0  0  0  0  0  0  0  0  0  0  0  0
    0.0855   21.5656  -31.4399 H   0  0  0  0  0  0  0  0  0  0  0  0
   -2.7339   21.6002  -31.7556 H   0  0  0  0  0  0  0  0  0  0  0  0
   -1.4517   22.5199  -32.6922 H   0  0  0  0  0  0  0  0  0  0  0  0
   -2.7190   21.5790  -34.2210 H   0  0  0  0  0  0  0  0  0  0  0  0
   -3.4298   19.2982  -34.4438 H   0  0  0  0  0  0  0  0  0  0  0  0
   -2.9053   19.1224  -32.6910 H   0  0  0  0  0  0  0  0  0  0  0  0
   -5.4958   18.3377  -32.8441 H   0  0  0  0  0  0  0  0  0  0  0  0
   -6.3644   24.1611  -33.0649 H   0  0  0  0  0  0  0  0  0  0  0  0
   -7.1066   23.8096  -31.4573 H   0  0  0  0  0  0  0  0  0  0  0  0
   -4.4403   26.1384  -30.7864 H   0  0  0  0  0  0  0  0  0  0  0  0
   -6.1256   26.0299  -31.3636 H   0  0  0  0  0  0  0  0  0  0  0  0
   -5.3836   25.9917  -28.6859 H   0  0  0  0  0  0  0  0  0  0  0  0
   -6.8974   25.3013  -29.2789 H   0  0  0  0  0  0  0  0  0  0  0  0
   -4.5557   23.9136  -28.2080 H   0  0  0  0  0  0  0  0  0  0  0  0
   -6.0867   23.1858  -28.7084 H   0  0  0  0  0  0  0  0  0  0  0  0
   -3.5103   23.4161  -30.1919 H   0  0  0  0  0  0  0  0  0  0  0  0
   -4.8801   22.3109  -30.4961 H   0  0  0  0  0  0  0  0  0  0  0  0
   -3.9883   22.3879  -32.9547 H   0  0  0  0  0  0  0  0  0  0  0  0
   -1.3691   19.5110  -35.0496 H   0  0  0  0  0  0  0  0  0  0  0  0
   -0.8322   21.2586  -35.1553 H   0  0  0  0  0  0  0  0  0  0  0  0
    0.7436   19.2794  -34.1863 H   0  0  0  0  0  0  0  0  0  0  0  0
    0.8277   20.9961  -33.6471 H   0  0  0  0  0  0  0  0  0  0  0  0
  1  2  1  0
  2  3  1  0
  3  4  1  0
  4  5  1  0
  5  6  1  0
  6  7  1  0
  7  8  2  0
  8  9  1  0
  9 10  1  0
  9 11  2  0
 11 12  1  0
 11 13  1  0
 13 14  1  0
 14 15  1  0
 15 16  1  0
 16 17  1  0
 17 18  1  0
 18 19  1  0
 13 20  2  0
  5 21  1  0
 21 22  1  0
 22  2  1  0
 20  7  1  0
 19 15  1  0
  1 23  1  0
  1 24  1  0
  1 25  1  0
  3 26  1  0
  3 27  1  0
  4 28  1  0
  4 29  1  0
  5 30  1  0
  6 31  1  0
  6 32  1  0
  8 33  1  0
 14 34  1  0
 14 35  1  0
 16 36  1  0
 16 37  1  0
 17 38  1  0
 17 39  1  0
 18 40  1  0
 18 41  1  0
 19 42  1  0
 19 43  1  0
 20 44  1  0
 21 45  1  0
 21 46  1  0
 22 47  1  0
 22 48  1  0
M  CHG  1   5   1
M  END
>  <UniqueID>  (48) 
46

>  <SMILES>  (48) 
CN1CC[NH+](Cc2cc(Br)c(Br)c(CN3CCCC3)c2)CC1

>  <Energy>  (48) 
65.37225881221268

>  <Genealogy>  (48) 
CN1CC[NH+](Cc2cc(Br)c(Br)c(CN3CCCC3)c2)CC1 (protonated)
CN1CC[NH+](Cc2cc(Br)c(Br)c(CN3CCCC3)c2)CC1 (3D coordinates assigned)
CN1CC[NH+](Cc2cc(Br)c(Br)c(CN3CCCC3)c2)CC1 (nonaromatic ring conformer: 65.37225881221268 kcal/mol)

>  <smiles>  (48) 
CN1CCN(Cc2cc(Br)c(Br)c(CN3CCCC3)c2)CC1

>  <score_type>  (48) 
oracle

>  <origin>  (48) 
adg

>  <m_score__min__energy>  (48) 
-8.5500000000000007

>  <m_primary>  (48) 
energy

$$$$
48:0
     RDKit          3D

 69 73  0  0  0  0  0  0  0  0999 V2000
   -7.4760   22.6040  -30.0820 C   0  0  0  0  0  0  0  0  0  0  0  0
   -7.2120   24.0450  -30.5270 C   0  0  0  0  0  0  0  0  0  0  0  0
   -6.1350   24.7440  -29.6770 C   0  0  0  0  0  0  0  0  0  0  0  0
   -5.2710   25.7380  -30.4620 C   0  0  0  0  0  0  0  0  0  0  0  0
   -3.8780   25.3020  -30.4790 N   0  0  0  0  0  0  0  0  0  0  0  0
   -3.4370   23.9490  -30.3130 C   0  0  0  0  0  0  0  0  0  0  0  0
   -3.0990   23.5660  -29.1610 O   0  0  0  0  0  0  0  0  0  0  0  0
   -3.4310   22.9600  -31.4620 C   0  0  0  0  0  0  0  0  0  0  0  0
   -4.8460   22.8420  -32.0750 C   0  0  0  0  0  0  0  0  0  0  0  0
   -5.0320   21.4790  -32.7430 C   0  0  0  0  0  0  0  0  0  0  0  0
   -4.9600   20.3940  -31.7410 N   0  0  0  0  0  0  0  0  0  0  0  0
   -4.9570   19.0410  -32.3400 C   0  0  0  0  0  0  0  0  0  0  0  0
   -3.7250   18.7340  -33.1640 C   0  0  0  0  0  0  0  0  0  0  0  0
   -2.7220   19.6380  -33.4710 C   0  0  0  0  0  0  0  0  0  0  0  0
   -1.8150   19.0290  -34.2630 N   0  0  0  0  0  0  0  0  0  0  0  0
   -0.6020   19.6140  -34.7800 C   0  0  0  0  0  0  0  0  0  0  0  0
    0.3580   18.8190  -35.4300 C   0  0  0  0  0  0  0  0  0  0  0  0
    1.5510   19.3840  -35.8950 C   0  0  0  0  0  0  0  0  0  0  0  0
    1.7990   20.7550  -35.7300 C   0  0  0  0  0  0  0  0  0  0  0  0
    3.1020   21.3490  -36.1740 C   0  0  0  0  0  0  0  0  0  0  0  0
    0.8470   21.5520  -35.0810 C   0  0  0  0  0  0  0  0  0  0  0  0
   -0.3450   20.9880  -34.6140 C   0  0  0  0  0  0  0  0  0  0  0  0
   -2.2000   17.7780  -34.4720 N   0  0  0  0  0  0  0  0  0  0  0  0
   -3.3500   17.5570  -33.8070 C   0  0  0  0  0  0  0  0  0  0  0  0
   -4.0330   16.2510  -33.7870 C   0  0  0  0  0  0  0  0  0  0  0  0
   -3.3700   15.0870  -33.3240 C   0  0  0  0  0  0  0  0  0  0  0  0
   -4.0440   13.8540  -33.2760 C   0  0  0  0  0  0  0  0  0  0  0  0
   -5.3640   13.8140  -33.7110 C   0  0  0  0  0  0  0  0  0  0  0  0
   -5.9960   14.9190  -34.1820 C   0  0  0  0  0  0  0  0  0  0  0  0
   -5.3660   16.1580  -34.2470 C   0  0  0  0  0  0  0  0  0  0  0  0
   -7.2870   14.5890  -34.5530 O   0  0  0  0  0  0  0  0  0  0  0  0
   -7.4790   13.1930  -34.2890 C   0  0  0  0  0  0  0  0  0  0  0  0
   -6.2240   12.7360  -33.7600 O   0  0  0  0  0  0  0  0  0  0  0  0
   -3.9730   20.5960  -30.6490 C   0  0  0  0  0  0  0  0  0  0  0  0
   -2.8580   21.5830  -31.0360 C   0  0  0  0  0  0  0  0  0  0  0  0
   -7.4849   22.5554  -28.9831 H   0  0  0  0  0  0  0  0  0  0  0  0
   -8.4498   22.2725  -30.4716 H   0  0  0  0  0  0  0  0  0  0  0  0
   -6.6829   21.9488  -30.4716 H   0  0  0  0  0  0  0  0  0  0  0  0
   -6.8797   24.0338  -31.5755 H   0  0  0  0  0  0  0  0  0  0  0  0
   -8.1492   24.6073  -30.4020 H   0  0  0  0  0  0  0  0  0  0  0  0
   -6.6359   25.2884  -28.8629 H   0  0  0  0  0  0  0  0  0  0  0  0
   -5.4604   23.9576  -29.3074 H   0  0  0  0  0  0  0  0  0  0  0  0
   -5.6425   25.8033  -31.4953 H   0  0  0  0  0  0  0  0  0  0  0  0
   -5.3298   26.7226  -29.9750 H   0  0  0  0  0  0  0  0  0  0  0  0
   -2.7568   23.3424  -32.2426 H   0  0  0  0  0  0  0  0  0  0  0  0
   -5.5957   22.9595  -31.2787 H   0  0  0  0  0  0  0  0  0  0  0  0
   -4.9701   23.6285  -32.8340 H   0  0  0  0  0  0  0  0  0  0  0  0
   -6.0142   21.4498  -33.2375 H   0  0  0  0  0  0  0  0  0  0  0  0
   -4.2297   21.3336  -33.4813 H   0  0  0  0  0  0  0  0  0  0  0  0
   -5.0219   18.3029  -31.5270 H   0  0  0  0  0  0  0  0  0  0  0  0
   -5.8168   18.9947  -33.0246 H   0  0  0  0  0  0  0  0  0  0  0  0
   -2.6727   20.6813  -33.1259 H   0  0  0  0  0  0  0  0  0  0  0  0
    0.1701   17.7448  -35.5742 H   0  0  0  0  0  0  0  0  0  0  0  0
    2.2988   18.7493  -36.3929 H   0  0  0  0  0  0  0  0  0  0  0  0
    3.7001   21.6217  -35.2920 H   0  0  0  0  0  0  0  0  0  0  0  0
    3.6535   20.6133  -36.7779 H   0  0  0  0  0  0  0  0  0  0  0  0
    2.9084   22.2478  -36.7779 H   0  0  0  0  0  0  0  0  0  0  0  0
    1.0376   22.6259  -34.9380 H   0  0  0  0  0  0  0  0  0  0  0  0
   -1.0887   21.6244  -34.1122 H   0  0  0  0  0  0  0  0  0  0  0  0
   -1.6660   17.0640  -35.0160 H   0  0  0  0  0  0  0  0  0  0  0  0
   -2.3206   15.1487  -32.9999 H   0  0  0  0  0  0  0  0  0  0  0  0
   -3.5420   12.9481  -32.9054 H   0  0  0  0  0  0  0  0  0  0  0  0
   -5.8903   17.0394  -34.6449 H   0  0  0  0  0  0  0  0  0  0  0  0
   -8.2843   13.0461  -33.5542 H   0  0  0  0  0  0  0  0  0  0  0  0
   -7.7713   12.6390  -35.1932 H   0  0  0  0  0  0  0  0  0  0  0  0
   -4.4994   20.9874  -29.7660 H   0  0  0  0  0  0  0  0  0  0  0  0
   -3.5012   19.6242  -30.4417 H   0  0  0  0  0  0  0  0  0  0  0  0
   -2.1930   21.7259  -30.1715 H   0  0  0  0  0  0  0  0  0  0  0  0
   -2.3092   21.1613  -31.8910 H   0  0  0  0  0  0  0  0  0  0  0  0
  1  2  1  0
  2  3  1  0
  3  4  1  0
  4  5  1  0
  5  6  1  0
  6  7  2  0
  6  8  1  0
  8  9  1  0
  9 10  1  0
 10 11  1  0
 11 12  1  0
 12 13  1  0
 13 14  2  0
 14 15  1  0
 15 16  1  0
 16 17  2  0
 17 18  1  0
 18 19  2  0
 19 20  1  0
 19 21  1  0
 21 22  2  0
 15 23  1  0
 23 24  2  0
 24 25  1  0
 25 26  2  0
 26 27  1  0
 27 28  2  0
 28 29  1  0
 29 30  2  0
 29 31  1  0
 31 32  1  0
 32 33  1  0
 11 34  1  0
 34 35  1  0
 35  8  1  0
 24 13  1  0
 30 25  1  0
 22 16  1  0
 33 28  1  0
  1 36  1  0
  1 37  1  0
  1 38  1  0
  2 39  1  0
  2 40  1  0
  3 41  1  0
  3 42  1  0
  4 43  1  0
  4 44  1  0
  8 45  1  0
  9 46  1  0
  9 47  1  0
 10 48  1  0
 10 49  1  0
 12 50  1  0
 12 51  1  0
 14 52  1  0
 17 53  1  0
 18 54  1  0
 20 55  1  0
 20 56  1  0
 20 57  1  0
 21 58  1  0
 22 59  1  0
 23 60  1  0
 26 61  1  0
 27 62  1  0
 30 63  1  0
 32 64  1  0
 32 65  1  0
 34 66  1  0
 34 67  1  0
 35 68  1  0
 35 69  1  0
M  CHG  2   5  -1  23   1
M  END
>  <UniqueID>  (49) 
47

>  <SMILES>  (49) 
CCCC[N-]C(=O)C1CCN(Cc2cn(-c3ccc(C)cc3)[nH+]c2-c2ccc3c(c2)OCO3)CC1

>  <Energy>  (49) 
141.75310483290028

>  <Genealogy>  (49) 
CCCC[N-]C(=O)C1CCN(Cc2cn(-c3ccc(C)cc3)[nH+]c2-c2ccc3c(c2)OCO3)CC1 (protonated)
CCCC[N-]C(=O)C1CCN(Cc2cn(-c3ccc(C)cc3)[nH+]c2-c2ccc3c(c2)OCO3)CC1 (3D coordinates assigned)
CCCC[N-]C(=O)C1CCN(Cc2cn(-c3ccc(C)cc3)[nH+]c2-c2ccc3c(c2)OCO3)CC1 (nonaromatic ring conformer: 141.75310483290028 kcal/mol)

>  <smiles>  (49) 
CCCCNC(=O)C1CCN(Cc2cn(-c3ccc(C)cc3)nc2-c2ccc3c(c2)OCO3)CC1

>  <score_type>  (49) 
oracle

>  <origin>  (49) 
adg

>  <m_score__min__energy>  (49) 
-9.9100000000000001

>  <m_primary>  (49) 
energy

$$$$
