0:0
     RDKit          3D

 47 49  0  0  0  0  0  0  0  0999 V2000
   -2.9890   22.1160  -31.7700 C   0  0  0  0  0  0  0  0  0  0  0  0
   -2.4400   22.6710  -30.5800 O   0  0  0  0  0  0  0  0  0  0  0  0
   -2.1060   21.9340  -29.4320 C   0  0  0  0  0  0  0  0  0  0  0  0
   -1.9240   20.5360  -29.4810 C   0  0  0  0  0  0  0  0  0  0  0  0
   -1.5870   19.8250  -28.3300 C   0  0  0  0  0  0  0  0  0  0  0  0
   -1.4260   20.4920  -27.1180 C   0  0  0  0  0  0  0  0  0  0  0  0
   -1.6040   21.8740  -27.0500 C   0  0  0  0  0  0  0  0  0  0  0  0
   -1.9510   22.6120  -28.2000 C   0  0  0  0  0  0  0  0  0  0  0  0
   -2.1120   24.1250  -28.1410 C   0  0  1  0  0  0  0  0  0  0  0  0
   -1.7170   24.7490  -29.3420 O   0  0  0  0  0  0  0  0  0  0  0  0
   -3.5360   24.5490  -27.7050 C   0  0  0  0  0  0  0  0  0  0  0  0
   -4.5850   23.9670  -28.5450 N   0  0  0  0  0  0  0  0  0  0  0  0
   -4.7290   24.3460  -29.9220 C   0  0  0  0  0  0  0  0  0  0  0  0
   -3.9050   25.1480  -30.4410 O   0  0  0  0  0  0  0  0  0  0  0  0
   -5.8240   23.8140  -30.7510 C   0  0  0  0  0  0  0  0  0  0  0  0
   -6.9370   23.1180  -30.3160 C   0  0  0  0  0  0  0  0  0  0  0  0
   -7.6270   22.8590  -31.4800 C   0  0  0  0  0  0  0  0  0  0  0  0
   -8.9270   22.1270  -31.5990 C   0  0  0  0  0  0  0  0  0  0  0  0
   -8.8740   21.1910  -32.6760 O   0  0  0  0  0  0  0  0  0  0  0  0
   -8.0280   20.0720  -32.7350 C   0  0  0  0  0  0  0  0  0  0  0  0
   -6.8350   20.0570  -33.4850 C   0  0  0  0  0  0  0  0  0  0  0  0
   -6.0330   18.9120  -33.5100 C   0  0  0  0  0  0  0  0  0  0  0  0
   -6.4090   17.7760  -32.7890 C   0  0  0  0  0  0  0  0  0  0  0  0
   -5.6290   16.6670  -32.8150 F   0  0  0  0  0  0  0  0  0  0  0  0
   -7.5880   17.7850  -32.0390 C   0  0  0  0  0  0  0  0  0  0  0  0
   -8.3930   18.9280  -32.0130 C   0  0  0  0  0  0  0  0  0  0  0  0
   -6.9680   23.3700  -32.4930 O   0  0  0  0  0  0  0  0  0  0  0  0
   -5.8760   23.9530  -32.0920 N   0  0  0  0  0  0  0  0  0  0  0  0
   -3.7403   21.3565  -31.5077 H   0  0  0  0  0  0  0  0  0  0  0  0
   -3.4641   22.9129  -32.3610 H   0  0  0  0  0  0  0  0  0  0  0  0
   -2.1870   21.6496  -32.3610 H   0  0  0  0  0  0  0  0  0  0  0  0
   -2.0490   20.0026  -30.4349 H   0  0  0  0  0  0  0  0  0  0  0  0
   -1.4480   18.7349  -28.3792 H   0  0  0  0  0  0  0  0  0  0  0  0
   -1.1579   19.9279  -26.2125 H   0  0  0  0  0  0  0  0  0  0  0  0
   -1.4723   22.3932  -26.0892 H   0  0  0  0  0  0  0  0  0  0  0  0
   -1.4261   24.4813  -27.3583 H   0  0  0  0  0  0  0  0  0  0  0  0
   -2.0070   24.1850  -30.1050 H   0  0  0  0  0  0  0  0  0  0  0  0
   -3.6968   24.2237  -26.6666 H   0  0  0  0  0  0  0  0  0  0  0  0
   -3.6007   25.6425  -27.8055 H   0  0  0  0  0  0  0  0  0  0  0  0
   -5.2450   23.2670  -28.1430 H   0  0  0  0  0  0  0  0  0  0  0  0
   -7.2068   22.8382  -29.2870 H   0  0  0  0  0  0  0  0  0  0  0  0
   -9.1273   21.5890  -30.6607 H   0  0  0  0  0  0  0  0  0  0  0  0
   -9.7290   22.8535  -31.7966 H   0  0  0  0  0  0  0  0  0  0  0  0
   -6.5336   20.9495  -34.0529 H   0  0  0  0  0  0  0  0  0  0  0  0
   -5.1038   18.9056  -34.0987 H   0  0  0  0  0  0  0  0  0  0  0  0
   -7.8831   16.8920  -31.4685 H   0  0  0  0  0  0  0  0  0  0  0  0
   -9.3201   18.9291  -31.4211 H   0  0  0  0  0  0  0  0  0  0  0  0
  1  2  1  0
  2  3  1  0
  3  4  2  0
  4  5  1  0
  5  6  2  0
  6  7  1  0
  7  8  2  0
  8  9  1  0
  9 10  1  0
  9 11  1  0
 11 12  1  0
 12 13  1  0
 13 14  2  0
 13 15  1  0
 15 16  1  0
 16 17  2  0
 17 18  1  0
 18 19  1  0
 19 20  1  0
 20 21  2  0
 21 22  1  0
 22 23  2  0
 23 24  1  0
 23 25  1  0
 25 26  2  0
 17 27  1  0
 27 28  1  0
  8  3  1  0
 28 15  2  0
 26 20  1  0
  1 29  1  0
  1 30  1  0
  1 31  1  0
  4 32  1  0
  5 33  1  0
  6 34  1  0
  7 35  1  0
  9 36  1  1
 10 37  1  0
 11 38  1  0
 11 39  1  0
 12 40  1  0
 16 41  1  0
 18 42  1  0
 18 43  1  0
 21 44  1  0
 22 45  1  0
 25 46  1  0
 26 47  1  0
M  END
>  <UniqueID>  (1) 
1

>  <SMILES>  (1) 
COc1ccccc1[C@@H](O)CNC(=O)c1cc(COc2ccc(F)cc2)on1

>  <Energy>  (1) 
78.28928967370804

>  <Genealogy>  (1) 
COc1ccccc1[C@@H](O)CNC(=O)c1cc(COc2ccc(F)cc2)on1 (chirality)
COc1ccccc1[C@@H](O)CNC(=O)c1cc(COc2ccc(F)cc2)on1 (3D coordinates assigned)
COc1ccccc1[C@@H](O)CNC(=O)c1cc(COc2ccc(F)cc2)on1 (optimized conformer: 78.28928967370804 kcal/mol)

>  <smiles>  (1) 
COc1ccccc1C(O)CNC(=O)c1cc(COc2ccc(F)cc2)on1

>  <score_type>  (1) 
oracle

>  <origin>  (1) 
adg

>  <m_score__min__energy>  (1) 
-9.3599999999999994

>  <m_primary>  (1) 
energy

$$$$
1:0
     RDKit          3D

 31 33  0  0  0  0  0  0  0  0999 V2000
   -5.3680   26.4550  -30.4630 O   0  0  0  0  0  0  0  0  0  0  0  0
   -4.9790   25.2620  -30.5690 C   0  0  0  0  0  0  0  0  0  0  0  0
   -3.5750   24.9870  -30.4730 N   0  0  0  0  0  0  0  0  0  0  0  0
   -2.9730   23.7110  -30.1990 C   0  0  0  0  0  0  0  0  0  0  0  0
   -3.1070   22.7030  -31.1620 C   0  0  0  0  0  0  0  0  0  0  0  0
   -2.5880   21.4280  -30.9320 C   0  0  0  0  0  0  0  0  0  0  0  0
   -1.9170   21.1510  -29.7420 C   0  0  0  0  0  0  0  0  0  0  0  0
   -1.7440   22.1540  -28.7860 C   0  0  0  0  0  0  0  0  0  0  0  0
   -2.2490   23.4470  -29.0060 C   0  0  0  0  0  0  0  0  0  0  0  0
   -1.9630   24.5020  -28.0050 C   0  0  0  0  0  0  0  0  0  0  0  0
   -0.9000   25.4010  -28.1990 C   0  0  0  0  0  0  0  0  0  0  0  0
   -0.6460   26.4040  -27.2580 C   0  0  0  0  0  0  0  0  0  0  0  0
   -1.4410   26.5100  -26.1140 C   0  0  0  0  0  0  0  0  0  0  0  0
   -2.4900   25.6100  -25.9060 C   0  0  0  0  0  0  0  0  0  0  0  0
   -2.7470   24.6060  -26.8430 C   0  0  0  0  0  0  0  0  0  0  0  0
   -5.9750   24.2020  -30.8180 C   0  0  0  0  0  0  0  0  0  0  0  0
   -6.6740   23.5030  -29.8400 C   0  0  0  0  0  0  0  0  0  0  0  0
   -7.5580   22.5850  -30.3150 N   0  0  0  0  0  0  0  0  0  0  0  0
   -7.5820   22.5460  -31.6650 C   0  0  0  0  0  0  0  0  0  0  0  0
   -6.5060   23.6580  -32.3210 S   0  0  0  0  0  0  0  0  0  0  0  0
   -3.6258   22.9180  -32.1078 H   0  0  0  0  0  0  0  0  0  0  0  0
   -2.7086   20.6407  -31.6907 H   0  0  0  0  0  0  0  0  0  0  0  0
   -1.5232   20.1409  -29.5558 H   0  0  0  0  0  0  0  0  0  0  0  0
   -1.2075   21.9301  -27.8522 H   0  0  0  0  0  0  0  0  0  0  0  0
   -0.2659   25.3154  -29.0938 H   0  0  0  0  0  0  0  0  0  0  0  0
    0.1813   27.1108  -27.4189 H   0  0  0  0  0  0  0  0  0  0  0  0
   -1.2414   27.3018  -25.3770 H   0  0  0  0  0  0  0  0  0  0  0  0
   -3.1138   25.6923  -25.0037 H   0  0  0  0  0  0  0  0  0  0  0  0
   -3.5670   23.8934  -26.6705 H   0  0  0  0  0  0  0  0  0  0  0  0
   -6.5235   23.6790  -28.7647 H   0  0  0  0  0  0  0  0  0  0  0  0
   -8.2216   21.8748  -32.2570 H   0  0  0  0  0  0  0  0  0  0  0  0
  1  2  2  0
  2  3  1  0
  3  4  1  0
  4  5  2  0
  5  6  1  0
  6  7  2  0
  7  8  1  0
  8  9  2  0
  9 10  1  0
 10 11  2  0
 11 12  1  0
 12 13  2  0
 13 14  1  0
 14 15  2  0
  2 16  1  0
 16 17  2  0
 17 18  1  0
 18 19  2  0
 19 20  1  0
  9  4  1  0
 15 10  1  0
 20 16  1  0
  5 21  1  0
  6 22  1  0
  7 23  1  0
  8 24  1  0
 11 25  1  0
 12 26  1  0
 13 27  1  0
 14 28  1  0
 15 29  1  0
 17 30  1  0
 19 31  1  0
M  CHG  1   3  -1
M  END
>  <UniqueID>  (2) 
2

>  <SMILES>  (2) 
O=C([N-]c1ccccc1-c1ccccc1)c1cncs1

>  <Energy>  (2) 
75.59776135904109

>  <Genealogy>  (2) 
O=C([N-]c1ccccc1-c1ccccc1)c1cncs1 (protonated)
O=C([N-]c1ccccc1-c1ccccc1)c1cncs1 (3D coordinates assigned)
O=C([N-]c1ccccc1-c1ccccc1)c1cncs1 (optimized conformer: 75.59776135904109 kcal/mol)

>  <smiles>  (2) 
O=C(Nc1ccccc1-c1ccccc1)c1cncs1

>  <score_type>  (2) 
oracle

>  <origin>  (2) 
adg

>  <m_score__min__energy>  (2) 
-8.5800000000000001

>  <m_primary>  (2) 
energy

$$$$
2:0
     RDKit          3D

 36 38  0  0  0  0  0  0  0  0999 V2000
   -5.9855   25.7709  -29.2146 H   0  0  0  0  0  0  0  0  0  0  0  0
   -5.4100   24.8390  -29.3160 C   0  0  0  0  0  0  0  0  0  0  0  0
   -4.4620   24.5570  -28.4160 C   0  0  0  0  0  0  0  0  0  0  0  0
   -4.5439   24.9957  -27.4106 H   0  0  0  0  0  0  0  0  0  0  0  0
   -3.3070   23.6800  -28.7140 C   0  0  0  0  0  0  0  0  0  0  0  0
   -3.5280   22.2930  -28.7660 C   0  0  0  0  0  0  0  0  0  0  0  0
   -4.5384   21.8951  -28.5907 H   0  0  0  0  0  0  0  0  0  0  0  0
   -2.4770   21.4160  -29.0380 C   0  0  0  0  0  0  0  0  0  0  0  0
   -2.6596   20.3317  -29.0670 H   0  0  0  0  0  0  0  0  0  0  0  0
   -1.1960   21.9130  -29.2730 C   0  0  0  0  0  0  0  0  0  0  0  0
   -0.3665   21.2188  -29.4732 H   0  0  0  0  0  0  0  0  0  0  0  0
   -0.9630   23.2890  -29.2550 C   0  0  0  0  0  0  0  0  0  0  0  0
    0.0494   23.6733  -29.4483 H   0  0  0  0  0  0  0  0  0  0  0  0
   -2.0150   24.1910  -28.9910 C   0  0  0  0  0  0  0  0  0  0  0  0
   -1.8160   25.5800  -29.0270 O   0  0  0  0  0  0  0  0  0  0  0  0
   -0.9940   26.3050  -28.1180 C   0  0  0  0  0  0  0  0  0  0  0  0
   -1.2789   26.0538  -27.0857 H   0  0  0  0  0  0  0  0  0  0  0  0
    0.0600   26.0371  -28.2831 H   0  0  0  0  0  0  0  0  0  0  0  0
   -1.1282   27.3842  -28.2831 H   0  0  0  0  0  0  0  0  0  0  0  0
   -5.7020   23.9350  -30.4370 C   0  0  0  0  0  0  0  0  0  0  0  0
   -6.3930   22.7830  -30.3030 N   0  0  0  0  0  0  0  0  0  0  0  0
   -6.4040   22.3150  -31.5710 C   0  0  0  0  0  0  0  0  0  0  0  0
   -7.0570   21.0440  -31.9690 C   0  0  0  0  0  0  0  0  0  0  0  0
   -6.3530   20.0420  -32.6640 C   0  0  0  0  0  0  0  0  0  0  0  0
   -5.2948   20.1969  -32.9211 H   0  0  0  0  0  0  0  0  0  0  0  0
   -6.9890   18.8510  -33.0300 C   0  0  0  0  0  0  0  0  0  0  0  0
   -6.4307   18.0754  -33.5748 H   0  0  0  0  0  0  0  0  0  0  0  0
   -8.3310   18.6450  -32.7050 C   0  0  0  0  0  0  0  0  0  0  0  0
   -8.8287   17.7070  -32.9921 H   0  0  0  0  0  0  0  0  0  0  0  0
   -9.0410   19.6290  -32.0160 C   0  0  0  0  0  0  0  0  0  0  0  0
  -10.0985   19.4658  -31.7611 H   0  0  0  0  0  0  0  0  0  0  0  0
   -8.4110   20.8220  -31.6490 C   0  0  0  0  0  0  0  0  0  0  0  0
   -8.9770   21.5934  -31.1061 H   0  0  0  0  0  0  0  0  0  0  0  0
   -5.7530   23.1510  -32.4070 N   0  0  0  0  0  0  0  0  0  0  0  0
   -5.5960   23.0620  -33.4330 H   0  0  0  0  0  0  0  0  0  0  0  0
   -5.3330   24.1370  -31.6790 O   0  0  0  0  0  0  0  0  0  0  0  0
  1  2  1  0
  2  3  2  0
  3  4  1  0
  3  5  1  0
  5  6  2  0
  6  7  1  0
  6  8  1  0
  8  9  1  0
  8 10  2  0
 10 11  1  0
 10 12  1  0
 12 13  1  0
 12 14  2  0
 14 15  1  0
 15 16  1  0
 16 17  1  0
 16 18  1  0
 16 19  1  0
  2 20  1  0
 20 21  2  0
 21 22  1  0
 22 23  1  0
 23 24  2  0
 24 25  1  0
 24 26  1  0
 26 27  1  0
 26 28  2  0
 28 29  1  0
 28 30  1  0
 30 31  1  0
 30 32  2  0
 32 33  1  0
 22 34  2  0
 34 35  1  0
 34 36  1  0
 14  5  1  0
 36 20  1  0
 32 23  1  0
M  CHG  1  34   1
M  END
>  <UniqueID>  (3) 
3

>  <SMILES>  (3) 
COc1ccccc1/C=C/c1nc(-c2ccccc2)[nH+]o1

>  <Energy>  (3) 
76.71950422780985

>  <Genealogy>  (3) 
COc1ccccc1C=Cc1nc(-c2ccccc2)[nH+]o1 (protonated)
COc1ccccc1/C=C/c1nc(-c2ccccc2)[nH+]o1 (cis-trans isomerization)
COc1ccccc1/C=C/c1nc(-c2ccccc2)[nH+]o1 (3D coordinates assigned)
COc1ccccc1/C=C/c1nc(-c2ccccc2)[nH+]o1 (optimized conformer: 76.71950422780985 kcal/mol)

>  <smiles>  (3) 
COc1ccccc1C=Cc1nc(-c2ccccc2)no1

>  <score_type>  (3) 
oracle

>  <origin>  (3) 
adg

>  <m_score__min__energy>  (3) 
-8.2899999999999991

>  <m_primary>  (3) 
energy

$$$$
3:0
     RDKit          3D

 40 42  0  0  0  0  0  0  0  0999 V2000
   -5.8980   25.7450  -31.2710 O   0  0  0  0  0  0  0  0  0  0  0  0
   -5.0320   24.8490  -31.0890 C   0  0  0  0  0  0  0  0  0  0  0  0
   -3.8290   25.1890  -30.3860 N   0  0  0  0  0  0  0  0  0  0  0  0
   -3.2830   24.4920  -29.2560 C   0  0  0  0  0  0  0  0  0  0  0  0
   -4.1050   23.9930  -28.2310 C   0  0  0  0  0  0  0  0  0  0  0  0
   -3.5410   23.3390  -27.1340 C   0  0  0  0  0  0  0  0  0  0  0  0
   -2.1550   23.1860  -27.0450 C   0  0  0  0  0  0  0  0  0  0  0  0
   -1.3180   23.6780  -28.0610 C   0  0  0  0  0  0  0  0  0  0  0  0
    0.1810   23.5650  -27.9380 C   0  0  0  0  0  0  0  0  0  0  0  0
    0.7740   24.1740  -29.0290 F   0  0  0  0  0  0  0  0  0  0  0  0
    0.6250   24.1820  -26.7810 F   0  0  0  0  0  0  0  0  0  0  0  0
    0.5680   22.2380  -27.8960 F   0  0  0  0  0  0  0  0  0  0  0  0
   -1.8930   24.3570  -29.1510 C   0  0  0  0  0  0  0  0  0  0  0  0
   -5.2590   23.4950  -31.6470 C   0  0  0  0  0  0  0  0  0  0  0  0
   -6.5130   23.1540  -32.1820 C   0  0  0  0  0  0  0  0  0  0  0  0
   -6.7390   21.8710  -32.6890 C   0  0  0  0  0  0  0  0  0  0  0  0
   -5.7190   20.9100  -32.6660 C   0  0  0  0  0  0  0  0  0  0  0  0
   -5.9700   19.5590  -33.2000 C   0  0  0  0  0  0  0  0  0  0  0  0
   -5.0670   19.0490  -34.0820 N   0  0  0  0  0  0  0  0  0  0  0  0
   -5.1870   17.8040  -34.6100 C   0  0  0  0  0  0  0  0  0  0  0  0
   -6.2580   16.9950  -34.2440 C   0  0  0  0  0  0  0  0  0  0  0  0
   -7.2130   17.4850  -33.3540 C   0  0  0  0  0  0  0  0  0  0  0  0
   -7.1080   18.7890  -32.8370 C   0  0  0  0  0  0  0  0  0  0  0  0
   -8.1800   19.3070  -31.8970 C   0  0  0  0  0  0  0  0  0  0  0  0
   -8.8590   18.2610  -31.2960 F   0  0  0  0  0  0  0  0  0  0  0  0
   -7.6250   20.0770  -30.8880 F   0  0  0  0  0  0  0  0  0  0  0  0
   -9.0760   20.0880  -32.6010 F   0  0  0  0  0  0  0  0  0  0  0  0
   -4.4530   21.2620  -32.1760 C   0  0  0  0  0  0  0  0  0  0  0  0
   -4.2250   22.5430  -31.6690 C   0  0  0  0  0  0  0  0  0  0  0  0
   -5.1961   24.1181  -28.2933 H   0  0  0  0  0  0  0  0  0  0  0  0
   -4.1891   22.9434  -26.3381 H   0  0  0  0  0  0  0  0  0  0  0  0
   -1.7162   22.6772  -26.1741 H   0  0  0  0  0  0  0  0  0  0  0  0
   -1.2441   24.7862  -29.9286 H   0  0  0  0  0  0  0  0  0  0  0  0
   -7.3208   23.9004  -32.2019 H   0  0  0  0  0  0  0  0  0  0  0  0
   -7.7230   21.6142  -33.1084 H   0  0  0  0  0  0  0  0  0  0  0  0
   -4.4382   17.4353  -35.3265 H   0  0  0  0  0  0  0  0  0  0  0  0
   -6.3506   15.9781  -34.6530 H   0  0  0  0  0  0  0  0  0  0  0  0
   -8.0563   16.8459  -33.0534 H   0  0  0  0  0  0  0  0  0  0  0  0
   -3.6359   20.5257  -32.1911 H   0  0  0  0  0  0  0  0  0  0  0  0
   -3.2294   22.8089  -31.2842 H   0  0  0  0  0  0  0  0  0  0  0  0
  1  2  2  0
  2  3  1  0
  3  4  1  0
  4  5  2  0
  5  6  1  0
  6  7  2  0
  7  8  1  0
  8  9  1  0
  9 10  1  0
  9 11  1  0
  9 12  1  0
  8 13  2  0
  2 14  1  0
 14 15  2  0
 15 16  1  0
 16 17  2  0
 17 18  1  0
 18 19  2  0
 19 20  1  0
 20 21  2  0
 21 22  1  0
 22 23  2  0
 23 24  1  0
 24 25  1  0
 24 26  1  0
 24 27  1  0
 17 28  1  0
 28 29  2  0
 13  4  1  0
 29 14  1  0
 23 18  1  0
  5 30  1  0
  6 31  1  0
  7 32  1  0
 13 33  1  0
 15 34  1  0
 16 35  1  0
 20 36  1  0
 21 37  1  0
 22 38  1  0
 28 39  1  0
 29 40  1  0
M  CHG  1   3  -1
M  END
>  <UniqueID>  (4) 
4

>  <SMILES>  (4) 
O=C([N-]c1cccc(C(F)(F)F)c1)c1ccc(-c2ncccc2C(F)(F)F)cc1

>  <Energy>  (4) 
60.06586237644069

>  <Genealogy>  (4) 
O=C([N-]c1cccc(C(F)(F)F)c1)c1ccc(-c2ncccc2C(F)(F)F)cc1 (protonated)
O=C([N-]c1cccc(C(F)(F)F)c1)c1ccc(-c2ncccc2C(F)(F)F)cc1 (3D coordinates assigned)
O=C([N-]c1cccc(C(F)(F)F)c1)c1ccc(-c2ncccc2C(F)(F)F)cc1 (optimized conformer: 60.06586237644069 kcal/mol)

>  <smiles>  (4) 
O=C(Nc1cccc(C(F)(F)F)c1)c1ccc(-c2ncccc2C(F)(F)F)cc1

>  <score_type>  (4) 
oracle

>  <origin>  (4) 
adg

>  <m_score__min__energy>  (4) 
-9.7699999999999996

>  <m_primary>  (4) 
energy

$$$$
4:0
     RDKit          3D

 40 42  0  0  0  0  0  0  0  0999 V2000
   -1.9580   24.9700  -28.2110 C   0  0  0  0  0  0  0  0  0  0  0  0
   -2.7600   25.2710  -29.3480 O   0  0  0  0  0  0  0  0  0  0  0  0
   -3.8640   24.5110  -29.7620 C   0  0  0  0  0  0  0  0  0  0  0  0
   -3.6340   23.2350  -30.2880 C   0  0  0  0  0  0  0  0  0  0  0  0
   -4.7000   22.4380  -30.7130 C   0  0  0  0  0  0  0  0  0  0  0  0
   -6.0220   22.9040  -30.6200 C   0  0  0  0  0  0  0  0  0  0  0  0
   -7.1350   22.0400  -31.0800 C   0  0  0  0  0  0  0  0  0  0  0  0
   -6.9910   20.8840  -31.7650 N   0  0  0  0  0  0  0  0  0  0  0  0
   -8.2470   20.4500  -31.9610 C   0  0  0  0  0  0  0  0  0  0  0  0
   -8.6130   19.1680  -32.6610 C   0  0  0  0  0  0  0  0  0  0  0  0
   -7.4540   18.2900  -32.9300 N   0  0  0  0  0  0  0  0  0  0  0  0
   -6.7800   17.8510  -31.6900 C   0  0  0  0  0  0  0  0  0  0  0  0
   -5.7690   16.7430  -32.0020 C   0  0  0  0  0  0  0  0  0  0  0  0
   -4.8680   17.1670  -33.1280 C   0  0  0  0  0  0  0  0  0  0  0  0
   -3.6840   16.8670  -33.1140 O   0  0  0  0  0  0  0  0  0  0  0  0
   -5.4590   17.8620  -34.3210 C   0  0  0  0  0  0  0  0  0  0  0  0
   -6.4880   18.9010  -33.8690 C   0  0  0  0  0  0  0  0  0  0  0  0
   -9.1200   21.3520  -31.3900 C   0  0  0  0  0  0  0  0  0  0  0  0
   -8.4040   22.3160  -30.8600 O   0  0  0  0  0  0  0  0  0  0  0  0
   -6.2530   24.1870  -30.0910 C   0  0  0  0  0  0  0  0  0  0  0  0
   -5.1860   24.9830  -29.6660 C   0  0  0  0  0  0  0  0  0  0  0  0
   -2.5269   25.1835  -27.2941 H   0  0  0  0  0  0  0  0  0  0  0  0
   -1.6793   23.9061  -28.2302 H   0  0  0  0  0  0  0  0  0  0  0  0
   -1.0481   25.5878  -28.2302 H   0  0  0  0  0  0  0  0  0  0  0  0
   -2.6045   22.8558  -30.3677 H   0  0  0  0  0  0  0  0  0  0  0  0
   -4.5024   21.4370  -31.1240 H   0  0  0  0  0  0  0  0  0  0  0  0
   -6.1140   20.4140  -32.0790 H   0  0  0  0  0  0  0  0  0  0  0  0
   -9.3268   18.6184  -32.0298 H   0  0  0  0  0  0  0  0  0  0  0  0
   -9.0428   19.4433  -33.6354 H   0  0  0  0  0  0  0  0  0  0  0  0
   -6.2547   18.7061  -31.2396 H   0  0  0  0  0  0  0  0  0  0  0  0
   -7.5340   17.4625  -30.9895 H   0  0  0  0  0  0  0  0  0  0  0  0
   -5.1623   16.5417  -31.1068 H   0  0  0  0  0  0  0  0  0  0  0  0
   -6.3121   15.8336  -32.2988 H   0  0  0  0  0  0  0  0  0  0  0  0
   -4.6579   18.3642  -34.8831 H   0  0  0  0  0  0  0  0  0  0  0  0
   -5.9561   17.1181  -34.9609 H   0  0  0  0  0  0  0  0  0  0  0  0
   -5.9694   19.7313  -33.3673 H   0  0  0  0  0  0  0  0  0  0  0  0
   -7.0312   19.2741  -34.7497 H   0  0  0  0  0  0  0  0  0  0  0  0
  -10.2174   21.2772  -31.3804 H   0  0  0  0  0  0  0  0  0  0  0  0
   -7.2823   24.5668  -30.0113 H   0  0  0  0  0  0  0  0  0  0  0  0
   -5.3807   25.9842  -29.2541 H   0  0  0  0  0  0  0  0  0  0  0  0
  1  2  1  0
  2  3  1  0
  3  4  2  0
  4  5  1  0
  5  6  2  0
  6  7  1  0
  7  8  2  0
  8  9  1  0
  9 10  1  0
 10 11  1  0
 11 12  1  0
 12 13  1  0
 13 14  1  0
 14 15  2  0
 14 16  1  0
 16 17  1  0
  9 18  2  0
 18 19  1  0
  6 20  1  0
 20 21  2  0
 21  3  1  0
 19  7  1  0
 17 11  1  0
  1 22  1  0
  1 23  1  0
  1 24  1  0
  4 25  1  0
  5 26  1  0
  8 27  1  0
 10 28  1  0
 10 29  1  0
 12 30  1  0
 12 31  1  0
 13 32  1  0
 13 33  1  0
 16 34  1  0
 16 35  1  0
 17 36  1  0
 17 37  1  0
 18 38  1  0
 20 39  1  0
 21 40  1  0
M  CHG  1   8   1
M  END
>  <UniqueID>  (5) 
5

>  <SMILES>  (5) 
COc1ccc(-c2[nH+]c(CN3CCC(=O)CC3)co2)cc1

>  <Energy>  (5) 
72.72225635935355

>  <Genealogy>  (5) 
COc1ccc(-c2[nH+]c(CN3CCC(=O)CC3)co2)cc1 (protonated)
COc1ccc(-c2[nH+]c(CN3CCC(=O)CC3)co2)cc1 (3D coordinates assigned)
COc1ccc(-c2[nH+]c(CN3CCC(=O)CC3)co2)cc1 (nonaromatic ring conformer: 72.72225635935355 kcal/mol)

>  <smiles>  (5) 
COc1ccc(-c2nc(CN3CCC(=O)CC3)co2)cc1

>  <score_type>  (5) 
oracle

>  <origin>  (5) 
adg

>  <m_score__min__energy>  (5) 
-7.2599999999999998

>  <m_primary>  (5) 
energy

$$$$
5:0
     RDKit          3D

 38 41  0  0  0  0  0  0  0  0999 V2000
   -1.1660   25.4110  -29.3250 O   0  0  0  0  0  0  0  0  0  0  0  0
   -2.3880   24.5480  -29.1900 S   0  0  0  0  0  0  0  0  0  0  0  0
   -3.0470   24.8340  -27.8700 O   0  0  0  0  0  0  0  0  0  0  0  0
   -3.4980   24.9260  -30.4690 N   0  0  0  0  0  0  0  0  0  0  0  0
   -4.7500   24.2640  -30.6980 C   0  0  0  0  0  0  0  0  0  0  0  0
   -5.9300   24.9180  -30.3290 C   0  0  0  0  0  0  0  0  0  0  0  0
   -7.1710   24.3170  -30.5490 C   0  0  0  0  0  0  0  0  0  0  0  0
   -7.2440   23.0550  -31.1420 C   0  0  0  0  0  0  0  0  0  0  0  0
   -6.0700   22.3810  -31.5170 C   0  0  0  0  0  0  0  0  0  0  0  0
   -6.1370   21.0500  -32.1570 C   0  0  0  0  0  0  0  0  0  0  0  0
   -5.4490   20.7210  -33.2830 N   0  0  0  0  0  0  0  0  0  0  0  0
   -5.8150   19.4430  -33.4740 C   0  0  0  0  0  0  0  0  0  0  0  0
   -5.4170   18.5800  -34.4920 C   0  0  0  0  0  0  0  0  0  0  0  0
   -5.9400   17.2720  -34.4810 C   0  0  0  0  0  0  0  0  0  0  0  0
   -6.8360   16.8680  -33.4640 C   0  0  0  0  0  0  0  0  0  0  0  0
   -7.2170   17.7700  -32.4500 C   0  0  0  0  0  0  0  0  0  0  0  0
   -6.6780   19.0520  -32.4980 C   0  0  0  0  0  0  0  0  0  0  0  0
   -6.8730   20.0540  -31.6850 O   0  0  0  0  0  0  0  0  0  0  0  0
   -4.8250   22.9880  -31.2860 C   0  0  0  0  0  0  0  0  0  0  0  0
   -1.9050   22.8570  -29.2920 C   0  0  0  0  0  0  0  0  0  0  0  0
   -2.0700   22.0020  -28.1930 C   0  0  0  0  0  0  0  0  0  0  0  0
   -1.7080   20.6530  -28.2920 C   0  0  0  0  0  0  0  0  0  0  0  0
   -1.1770   20.1580  -29.4850 C   0  0  0  0  0  0  0  0  0  0  0  0
   -1.0060   21.0080  -30.5820 C   0  0  0  0  0  0  0  0  0  0  0  0
   -1.3670   22.3550  -30.4860 C   0  0  0  0  0  0  0  0  0  0  0  0
   -5.8800   25.9128  -29.8622 H   0  0  0  0  0  0  0  0  0  0  0  0
   -8.0934   24.8390  -30.2544 H   0  0  0  0  0  0  0  0  0  0  0  0
   -8.2241   22.5870  -31.3161 H   0  0  0  0  0  0  0  0  0  0  0  0
   -4.7192   18.9080  -35.2766 H   0  0  0  0  0  0  0  0  0  0  0  0
   -5.6498   16.5606  -35.2682 H   0  0  0  0  0  0  0  0  0  0  0  0
   -7.2379   15.8440  -33.4643 H   0  0  0  0  0  0  0  0  0  0  0  0
   -7.9131   17.4721  -31.6521 H   0  0  0  0  0  0  0  0  0  0  0  0
   -3.9009   22.4616  -31.5670 H   0  0  0  0  0  0  0  0  0  0  0  0
   -2.4845   22.3916  -27.2515 H   0  0  0  0  0  0  0  0  0  0  0  0
   -1.8419   19.9830  -27.4299 H   0  0  0  0  0  0  0  0  0  0  0  0
   -0.8929   19.0981  -29.5618 H   0  0  0  0  0  0  0  0  0  0  0  0
   -0.5873   20.6166  -31.5208 H   0  0  0  0  0  0  0  0  0  0  0  0
   -1.2288   23.0229  -31.3490 H   0  0  0  0  0  0  0  0  0  0  0  0
  1  2  2  0
  2  3  2  0
  2  4  1  0
  4  5  1  0
  5  6  2  0
  6  7  1  0
  7  8  2  0
  8  9  1  0
  9 10  1  0
 10 11  2  0
 11 12  1  0
 12 13  2  0
 13 14  1  0
 14 15  2  0
 15 16  1  0
 16 17  2  0
 17 18  1  0
  9 19  2  0
  2 20  1  0
 20 21  2  0
 21 22  1  0
 22 23  2  0
 23 24  1  0
 24 25  2  0
 19  5  1  0
 25 20  1  0
 18 10  1  0
 17 12  1  0
  6 26  1  0
  7 27  1  0
  8 28  1  0
 13 29  1  0
 14 30  1  0
 15 31  1  0
 16 32  1  0
 19 33  1  0
 21 34  1  0
 22 35  1  0
 23 36  1  0
 24 37  1  0
 25 38  1  0
M  CHG  1   4  -1
M  END
>  <UniqueID>  (6) 
6

>  <SMILES>  (6) 
O=S(=O)([N-]c1cccc(-c2nc3ccccc3o2)c1)c1ccccc1

>  <Energy>  (6) 
83.03474966386197

>  <Genealogy>  (6) 
O=S(=O)([N-]c1cccc(-c2nc3ccccc3o2)c1)c1ccccc1 (protonated)
O=S(=O)([N-]c1cccc(-c2nc3ccccc3o2)c1)c1ccccc1 (3D coordinates assigned)
O=S(=O)([N-]c1cccc(-c2nc3ccccc3o2)c1)c1ccccc1 (optimized conformer: 83.03474966386197 kcal/mol)

>  <smiles>  (6) 
O=S(=O)(Nc1cccc(-c2nc3ccccc3o2)c1)c1ccccc1

>  <score_type>  (6) 
oracle

>  <origin>  (6) 
adg

>  <m_score__min__energy>  (6) 
-10.550000000000001

>  <m_primary>  (6) 
energy

$$$$
6:0
     RDKit          3D

 75 78  0  0  0  0  0  0  0  0999 V2000
   -1.7920   25.6650  -28.9920 O   0  0  0  0  0  0  0  0  0  0  0  0
   -2.7740   24.9000  -28.7960 C   0  0  0  0  0  0  0  0  0  0  0  0
   -3.1540   24.5130  -27.3980 C   0  0  0  0  0  0  0  0  0  0  0  0
   -2.0360   24.8010  -26.4260 C   0  0  0  0  0  0  0  0  0  0  0  0
   -1.0100   23.8620  -26.2180 C   0  0  0  0  0  0  0  0  0  0  0  0
    0.0140   24.1250  -25.2990 C   0  0  0  0  0  0  0  0  0  0  0  0
    0.9930   23.2080  -25.0960 F   0  0  0  0  0  0  0  0  0  0  0  0
    0.0140   25.3210  -24.5750 C   0  0  0  0  0  0  0  0  0  0  0  0
   -1.0040   26.2600  -24.7730 C   0  0  0  0  0  0  0  0  0  0  0  0
   -1.0090   27.4140  -24.0620 F   0  0  0  0  0  0  0  0  0  0  0  0
   -2.0280   25.9990  -25.6870 C   0  0  0  0  0  0  0  0  0  0  0  0
   -3.5250   24.3850  -29.8990 N   0  0  0  0  0  0  0  0  0  0  0  0
   -3.8740   22.9760  -30.0620 C   0  0  2  0  0  0  0  0  0  0  0  0
   -2.6020   22.1560  -30.3410 C   0  0  0  0  0  0  0  0  0  0  0  0
   -2.1550   21.3930  -29.1180 C   0  0  0  0  0  0  0  0  0  0  0  0
   -0.7940   21.3530  -28.7710 C   0  0  0  0  0  0  0  0  0  0  0  0
   -0.3850   20.6910  -27.6080 C   0  0  0  0  0  0  0  0  0  0  0  0
   -1.3280   20.0740  -26.7810 C   0  0  0  0  0  0  0  0  0  0  0  0
   -2.6860   20.1160  -27.1170 C   0  0  0  0  0  0  0  0  0  0  0  0
   -3.0990   20.7730  -28.2810 C   0  0  0  0  0  0  0  0  0  0  0  0
   -4.8500   22.8380  -31.1970 C   0  0  0  0  0  0  0  0  0  0  0  0
   -4.6400   23.4420  -32.2810 O   0  0  0  0  0  0  0  0  0  0  0  0
   -6.0260   22.0360  -31.0270 N   0  0  0  0  0  0  0  0  0  0  0  0
   -6.4260   20.9320  -31.9010 C   0  0  1  0  0  0  0  0  0  0  0  0
   -7.9250   21.0550  -32.2920 C   0  0  0  0  0  0  0  0  0  0  0  0
   -8.7410   19.7480  -32.1620 C   0  0  0  0  0  0  0  0  0  0  0  0
   -8.0770   18.7260  -31.2310 C   0  0  0  0  0  0  0  0  0  0  0  0
   -7.1210   17.8530  -32.0000 C   0  0  0  0  0  0  0  0  0  0  0  0
   -6.1220   17.1260  -31.3280 C   0  0  0  0  0  0  0  0  0  0  0  0
   -5.2540   16.2940  -32.0430 C   0  0  0  0  0  0  0  0  0  0  0  0
   -5.3850   16.1730  -33.4320 C   0  0  0  0  0  0  0  0  0  0  0  0
   -6.3850   16.8820  -34.1040 C   0  0  0  0  0  0  0  0  0  0  0  0
   -7.2510   17.7200  -33.3930 C   0  0  0  0  0  0  0  0  0  0  0  0
   -5.4680   20.9000  -33.1090 C   0  0  0  0  0  0  0  0  0  0  0  0
   -4.6070   19.6290  -33.1700 C   0  0  0  0  0  0  0  0  0  0  0  0
   -3.1480   19.9650  -33.0140 C   0  0  0  0  0  0  0  0  0  0  0  0
   -2.6520   21.1890  -33.4920 C   0  0  0  0  0  0  0  0  0  0  0  0
   -1.3000   21.5130  -33.3350 C   0  0  0  0  0  0  0  0  0  0  0  0
   -0.4360   20.6190  -32.7000 C   0  0  0  0  0  0  0  0  0  0  0  0
   -0.9210   19.4000  -32.2170 C   0  0  0  0  0  0  0  0  0  0  0  0
   -2.2730   19.0720  -32.3690 C   0  0  0  0  0  0  0  0  0  0  0  0
   -4.0454   25.0835  -27.0981 H   0  0  0  0  0  0  0  0  0  0  0  0
   -3.3593   23.4325  -27.3806 H   0  0  0  0  0  0  0  0  0  0  0  0
   -1.0116   22.9163  -26.7798 H   0  0  0  0  0  0  0  0  0  0  0  0
    0.8151   25.5239  -23.8490 H   0  0  0  0  0  0  0  0  0  0  0  0
   -2.8333   26.7346  -25.8300 H   0  0  0  0  0  0  0  0  0  0  0  0
   -4.3391   22.5961  -29.1404 H   0  0  0  0  0  0  0  0  0  0  0  0
   -2.8080   21.4420  -31.1520 H   0  0  0  0  0  0  0  0  0  0  0  0
   -1.7990   22.8518  -30.6257 H   0  0  0  0  0  0  0  0  0  0  0  0
   -0.0487   21.8430  -29.4148 H   0  0  0  0  0  0  0  0  0  0  0  0
    0.6822   20.6560  -27.3437 H   0  0  0  0  0  0  0  0  0  0  0  0
   -1.0030   19.5558  -25.8668 H   0  0  0  0  0  0  0  0  0  0  0  0
   -3.4288   19.6323  -26.4656 H   0  0  0  0  0  0  0  0  0  0  0  0
   -4.1670   20.8046  -28.5424 H   0  0  0  0  0  0  0  0  0  0  0  0
   -6.3427   19.9664  -31.3807 H   0  0  0  0  0  0  0  0  0  0  0  0
   -8.3868   21.8123  -31.6415 H   0  0  0  0  0  0  0  0  0  0  0  0
   -7.9446   21.3263  -33.3579 H   0  0  0  0  0  0  0  0  0  0  0  0
   -9.7365   19.9928  -31.7631 H   0  0  0  0  0  0  0  0  0  0  0  0
   -8.8039   19.2946  -33.1622 H   0  0  0  0  0  0  0  0  0  0  0  0
   -7.5255   19.2595  -30.4428 H   0  0  0  0  0  0  0  0  0  0  0  0
   -8.8575   18.0916  -30.7857 H   0  0  0  0  0  0  0  0  0  0  0  0
   -6.0228   17.2120  -30.2359 H   0  0  0  0  0  0  0  0  0  0  0  0
   -4.4683   15.7346  -31.5140 H   0  0  0  0  0  0  0  0  0  0  0  0
   -4.7011   15.5201  -33.9942 H   0  0  0  0  0  0  0  0  0  0  0  0
   -6.4913   16.7809  -35.1942 H   0  0  0  0  0  0  0  0  0  0  0  0
   -8.0360   18.2764  -33.9260 H   0  0  0  0  0  0  0  0  0  0  0  0
   -6.0660   20.9608  -34.0302 H   0  0  0  0  0  0  0  0  0  0  0  0
   -4.7816   21.7530  -33.0024 H   0  0  0  0  0  0  0  0  0  0  0  0
   -4.9093   18.9491  -32.3598 H   0  0  0  0  0  0  0  0  0  0  0  0
   -4.7560   19.1483  -34.1481 H   0  0  0  0  0  0  0  0  0  0  0  0
   -3.3298   21.8963  -33.9922 H   0  0  0  0  0  0  0  0  0  0  0  0
   -0.9175   22.4729  -33.7122 H   0  0  0  0  0  0  0  0  0  0  0  0
    0.6273   20.8739  -32.5796 H   0  0  0  0  0  0  0  0  0  0  0  0
   -0.2386   18.6973  -31.7165 H   0  0  0  0  0  0  0  0  0  0  0  0
   -2.6522   18.1141  -31.9834 H   0  0  0  0  0  0  0  0  0  0  0  0
  1  2  2  0
  2  3  1  0
  3  4  1  0
  4  5  2  0
  5  6  1  0
  6  7  1  0
  6  8  2  0
  8  9  1  0
  9 10  1  0
  9 11  2  0
  2 12  1  0
 12 13  1  0
 13 14  1  0
 14 15  1  0
 15 16  2  0
 16 17  1  0
 17 18  2  0
 18 19  1  0
 19 20  2  0
 13 21  1  0
 21 22  2  0
 21 23  1  0
 23 24  1  0
 24 25  1  0
 25 26  1  0
 26 27  1  0
 27 28  1  0
 28 29  2  0
 29 30  1  0
 30 31  2  0
 31 32  1  0
 32 33  2  0
 24 34  1  0
 34 35  1  0
 35 36  1  0
 36 37  2  0
 37 38  1  0
 38 39  2  0
 39 40  1  0
 40 41  2  0
 11  4  1  0
 20 15  1  0
 33 28  1  0
 41 36  1  0
  3 42  1  0
  3 43  1  0
  5 44  1  0
  8 45  1  0
 11 46  1  0
 13 47  1  1
 14 48  1  0
 14 49  1  0
 16 50  1  0
 17 51  1  0
 18 52  1  0
 19 53  1  0
 20 54  1  0
 24 55  1  1
 25 56  1  0
 25 57  1  0
 26 58  1  0
 26 59  1  0
 27 60  1  0
 27 61  1  0
 29 62  1  0
 30 63  1  0
 31 64  1  0
 32 65  1  0
 33 66  1  0
 34 67  1  0
 34 68  1  0
 35 69  1  0
 35 70  1  0
 37 71  1  0
 38 72  1  0
 39 73  1  0
 40 74  1  0
 41 75  1  0
M  CHG  2  12  -1  23  -1
M  END
>  <UniqueID>  (7) 
7

>  <SMILES>  (7) 
O=C(Cc1cc(F)cc(F)c1)[N-][C@H](Cc1ccccc1)C(=O)[N-][C@@H](CCCc1ccccc1)CCc1ccccc1

>  <Energy>  (7) 
65.57912760266719

>  <Genealogy>  (7) 
O=C(Cc1cc(F)cc(F)c1)[N-]C(Cc1ccccc1)C(=O)[N-]C(CCCc1ccccc1)CCc1ccccc1 (protonated)
O=C(Cc1cc(F)cc(F)c1)[N-][C@H](Cc1ccccc1)C(=O)[N-][C@@H](CCCc1ccccc1)CCc1ccccc1 (chirality)
O=C(Cc1cc(F)cc(F)c1)[N-][C@H](Cc1ccccc1)C(=O)[N-][C@@H](CCCc1ccccc1)CCc1ccccc1 (3D coordinates assigned)
O=C(Cc1cc(F)cc(F)c1)[N-][C@H](Cc1ccccc1)C(=O)[N-][C@@H](CCCc1ccccc1)CCc1ccccc1 (optimized conformer: 65.57912760266719 kcal/mol)

>  <smiles>  (7) 
O=C(Cc1cc(F)cc(F)c1)NC(Cc1ccccc1)C(=O)NC(CCCc1ccccc1)CCc1ccccc1

>  <score_type>  (7) 
oracle

>  <origin>  (7) 
adg

>  <m_score__min__energy>  (7) 
-13.220000000000001

>  <m_primary>  (7) 
energy

$$$$
7:0
     RDKit          3D

 49 52  0  0  0  0  0  0  0  0999 V2000
   -6.6990   25.6660  -29.3500 C   0  0  0  0  0  0  0  0  0  0  0  0
   -6.1020   25.3840  -30.7240 C   0  0  0  0  0  0  0  0  0  0  0  0
   -6.1650   23.9120  -31.0440 C   0  0  0  0  0  0  0  0  0  0  0  0
   -7.4050   23.3190  -31.3370 C   0  0  0  0  0  0  0  0  0  0  0  0
   -7.4910   21.9460  -31.6360 C   0  0  0  0  0  0  0  0  0  0  0  0
   -8.7100   21.2950  -31.8870 O   0  0  0  0  0  0  0  0  0  0  0  0
   -8.8910   20.1170  -32.6770 C   0  0  0  0  0  0  0  0  0  0  0  0
   -8.7960   18.8530  -31.8150 C   0  0  0  0  0  0  0  0  0  0  0  0
   -7.5970   18.0850  -32.1280 N   0  0  0  0  0  0  0  0  0  0  0  0
   -6.6540   17.7800  -31.2520 N   0  0  0  0  0  0  0  0  0  0  0  0
   -5.7750   17.0500  -31.9650 C   0  0  0  0  0  0  0  0  0  0  0  0
   -6.1800   16.9170  -33.2450 N   0  0  0  0  0  0  0  0  0  0  0  0
   -7.3260   17.5750  -33.3160 N   0  0  0  0  0  0  0  0  0  0  0  0
   -6.3190   21.1890  -31.6970 C   0  0  0  0  0  0  0  0  0  0  0  0
   -5.0800   21.7730  -31.4300 C   0  0  0  0  0  0  0  0  0  0  0  0
   -4.9930   23.1330  -31.0860 C   0  0  0  0  0  0  0  0  0  0  0  0
   -3.7510   23.7370  -30.8320 O   0  0  0  0  0  0  0  0  0  0  0  0
   -3.2220   23.9960  -29.5600 C   0  0  0  0  0  0  0  0  0  0  0  0
   -4.0440   24.1710  -28.4330 C   0  0  0  0  0  0  0  0  0  0  0  0
   -3.4820   24.4450  -27.1840 C   0  0  0  0  0  0  0  0  0  0  0  0
   -2.0880   24.5600  -27.0410 C   0  0  0  0  0  0  0  0  0  0  0  0
   -1.4920   24.8500  -25.7210 C   0  0  0  0  0  0  0  0  0  0  0  0
   -0.8940   23.9290  -24.9340 N   0  0  0  0  0  0  0  0  0  0  0  0
   -0.4990   24.5970  -23.8630 N   0  0  0  0  0  0  0  0  0  0  0  0
   -0.8540   25.8630  -23.9950 N   0  0  0  0  0  0  0  0  0  0  0  0
   -0.5290   26.9110  -23.0390 C   0  0  0  0  0  0  0  0  0  0  0  0
   -1.4660   26.0710  -25.1480 N   0  0  0  0  0  0  0  0  0  0  0  0
   -1.2710   24.4040  -28.1740 C   0  0  0  0  0  0  0  0  0  0  0  0
   -1.8370   24.1310  -29.4220 C   0  0  0  0  0  0  0  0  0  0  0  0
   -5.9974   25.3346  -28.5703 H   0  0  0  0  0  0  0  0  0  0  0  0
   -6.8816   26.7456  -29.2441 H   0  0  0  0  0  0  0  0  0  0  0  0
   -7.6488   25.1214  -29.2441 H   0  0  0  0  0  0  0  0  0  0  0  0
   -6.6674   25.9427  -31.4843 H   0  0  0  0  0  0  0  0  0  0  0  0
   -5.0481   25.6992  -30.7217 H   0  0  0  0  0  0  0  0  0  0  0  0
   -8.3172   23.9336  -31.3327 H   0  0  0  0  0  0  0  0  0  0  0  0
   -9.8818   20.1530  -33.1535 H   0  0  0  0  0  0  0  0  0  0  0  0
   -8.0968   20.0813  -33.4372 H   0  0  0  0  0  0  0  0  0  0  0  0
   -8.7679   19.1442  -30.7546 H   0  0  0  0  0  0  0  0  0  0  0  0
   -9.6743   18.2245  -32.0239 H   0  0  0  0  0  0  0  0  0  0  0  0
   -4.8487   16.6189  -31.5573 H   0  0  0  0  0  0  0  0  0  0  0  0
   -6.3730   20.1218  -31.9581 H   0  0  0  0  0  0  0  0  0  0  0  0
   -4.1653   21.1649  -31.4892 H   0  0  0  0  0  0  0  0  0  0  0  0
   -5.1363   24.0917  -28.5354 H   0  0  0  0  0  0  0  0  0  0  0  0
   -4.1339   24.5716  -26.3070 H   0  0  0  0  0  0  0  0  0  0  0  0
   -0.6489   26.5243  -22.0162 H   0  0  0  0  0  0  0  0  0  0  0  0
    0.5116   27.2344  -23.1891 H   0  0  0  0  0  0  0  0  0  0  0  0
   -1.2041   27.7664  -23.1891 H   0  0  0  0  0  0  0  0  0  0  0  0
   -0.1792   24.4974  -28.0776 H   0  0  0  0  0  0  0  0  0  0  0  0
   -1.1878   24.0214  -30.3032 H   0  0  0  0  0  0  0  0  0  0  0  0
  1  2  1  0
  2  3  1  0
  3  4  2  0
  4  5  1  0
  5  6  1  0
  6  7  1  0
  7  8  1  0
  8  9  1  0
  9 10  1  0
 10 11  2  0
 11 12  1  0
 12 13  2  0
  5 14  2  0
 14 15  1  0
 15 16  2  0
 16 17  1  0
 17 18  1  0
 18 19  2  0
 19 20  1  0
 20 21  2  0
 21 22  1  0
 22 23  1  0
 23 24  2  0
 24 25  1  0
 25 26  1  0
 25 27  1  0
 21 28  1  0
 28 29  2  0
 16  3  1  0
 29 18  1  0
 13  9  1  0
 27 22  2  0
  1 30  1  0
  1 31  1  0
  1 32  1  0
  2 33  1  0
  2 34  1  0
  4 35  1  0
  7 36  1  0
  7 37  1  0
  8 38  1  0
  8 39  1  0
 11 40  1  0
 14 41  1  0
 15 42  1  0
 19 43  1  0
 20 44  1  0
 26 45  1  0
 26 46  1  0
 26 47  1  0
 28 48  1  0
 29 49  1  0
M  END
>  <UniqueID>  (8) 
8

>  <SMILES>  (8) 
CCc1cc(OCCn2ncnn2)ccc1Oc1ccc(-c2nnn(C)n2)cc1

>  <Energy>  (8) 
129.4331851789621

>  <Genealogy>  (8) 
CCc1cc(OCCn2ncnn2)ccc1Oc1ccc(-c2nnn(C)n2)cc1 (3D coordinates assigned)
CCc1cc(OCCn2ncnn2)ccc1Oc1ccc(-c2nnn(C)n2)cc1 (optimized conformer: 129.4331851789621 kcal/mol)

>  <smiles>  (8) 
CCc1cc(OCCn2ncnn2)ccc1Oc1ccc(-c2nnn(C)n2)cc1

>  <score_type>  (8) 
oracle

>  <origin>  (8) 
adg

>  <m_score__min__energy>  (8) 
-9.1500000000000004

>  <m_primary>  (8) 
energy

$$$$
8:0
     RDKit          3D

 40 44  0  0  0  0  0  0  0  0999 V2000
   -6.0627   22.1777  -33.6812 H   0  0  0  0  0  0  0  0  0  0  0  0
   -6.2500   21.7770  -32.6740 C   0  0  0  0  0  0  0  0  0  0  0  0
   -5.9200   22.5200  -31.6180 C   0  0  0  0  0  0  0  0  0  0  0  0
   -6.5220   23.5860  -30.8260 C   0  0  0  0  0  0  0  0  0  0  0  0
   -7.6060   24.2250  -30.8390 O   0  0  0  0  0  0  0  0  0  0  0  0
   -5.3330   23.5760  -29.9830 C   0  0  0  0  0  0  0  0  0  0  0  0
   -4.7210   24.1530  -28.8860 C   0  0  0  0  0  0  0  0  0  0  0  0
   -5.1929   24.9666  -28.3156 H   0  0  0  0  0  0  0  0  0  0  0  0
   -3.4420   23.6300  -28.5390 C   0  0  0  0  0  0  0  0  0  0  0  0
   -2.7000   24.1850  -27.3800 C   0  0  0  0  0  0  0  0  0  0  0  0
   -1.5180   23.5710  -26.9330 C   0  0  0  0  0  0  0  0  0  0  0  0
   -1.1389   22.6707  -27.4388 H   0  0  0  0  0  0  0  0  0  0  0  0
   -0.8250   24.1070  -25.8440 C   0  0  0  0  0  0  0  0  0  0  0  0
    0.6550   23.3260  -25.3040 Cl  0  0  0  0  0  0  0  0  0  0  0  0
   -1.3170   25.2540  -25.2080 C   0  0  0  0  0  0  0  0  0  0  0  0
   -0.4880   25.9710  -23.8340 Cl  0  0  0  0  0  0  0  0  0  0  0  0
   -2.4950   25.8390  -25.6770 C   0  0  0  0  0  0  0  0  0  0  0  0
   -2.8922   26.7385  -25.1838 H   0  0  0  0  0  0  0  0  0  0  0  0
   -3.1550   25.3040  -26.7400 N   0  0  0  0  0  0  0  0  0  0  0  0
   -4.0440   25.7590  -27.0450 H   0  0  0  0  0  0  0  0  0  0  0  0
   -2.8650   22.5670  -29.3150 C   0  0  0  0  0  0  0  0  0  0  0  0
   -1.8762   22.1743  -29.0356 H   0  0  0  0  0  0  0  0  0  0  0  0
   -3.5380   22.0130  -30.4300 C   0  0  0  0  0  0  0  0  0  0  0  0
   -3.1068   21.1980  -31.0299 H   0  0  0  0  0  0  0  0  0  0  0  0
   -4.7730   22.5640  -30.7150 C   0  0  0  0  0  0  0  0  0  0  0  0
   -6.8540   20.4440  -32.5460 C   0  0  0  0  0  0  0  0  0  0  0  0
   -7.8490   20.0900  -31.6400 C   0  0  0  0  0  0  0  0  0  0  0  0
   -8.3288   20.7826  -30.9328 H   0  0  0  0  0  0  0  0  0  0  0  0
   -8.1430   18.7760  -31.7510 N   0  0  0  0  0  0  0  0  0  0  0  0
   -8.8470   18.2440  -31.1920 H   0  0  0  0  0  0  0  0  0  0  0  0
   -7.3240   18.2890  -32.6990 C   0  0  0  0  0  0  0  0  0  0  0  0
   -7.2220   16.9650  -33.1260 C   0  0  0  0  0  0  0  0  0  0  0  0
   -7.8831   16.1852  -32.7200 H   0  0  0  0  0  0  0  0  0  0  0  0
   -6.2470   16.6590  -34.0920 C   0  0  0  0  0  0  0  0  0  0  0  0
   -6.1491   15.6275  -34.4614 H   0  0  0  0  0  0  0  0  0  0  0  0
   -5.3930   17.6660  -34.5910 C   0  0  0  0  0  0  0  0  0  0  0  0
   -4.6281   17.4118  -35.3396 H   0  0  0  0  0  0  0  0  0  0  0  0
   -5.5130   18.9920  -34.1380 C   0  0  0  0  0  0  0  0  0  0  0  0
   -4.8419   19.7814  -34.5074 H   0  0  0  0  0  0  0  0  0  0  0  0
   -6.5130   19.2740  -33.2030 C   0  0  0  0  0  0  0  0  0  0  0  0
  1  2  1  0
  2  3  2  0
  3  4  1  0
  4  5  2  0
  4  6  1  0
  6  7  2  0
  7  8  1  0
  7  9  1  0
  9 10  1  0
 10 11  2  0
 11 12  1  0
 11 13  1  0
 13 14  1  0
 13 15  2  0
 15 16  1  0
 15 17  1  0
 17 18  1  0
 17 19  2  0
 19 20  1  0
  9 21  2  0
 21 22  1  0
 21 23  1  0
 23 24  1  0
 23 25  2  0
  2 26  1  0
 26 27  2  0
 27 28  1  0
 27 29  1  0
 29 30  1  0
 29 31  1  0
 31 32  2  0
 32 33  1  0
 32 34  1  0
 34 35  1  0
 34 36  2  0
 36 37  1  0
 36 38  1  0
 38 39  1  0
 38 40  2  0
 25  3  1  0
 40 26  1  0
 25  6  1  0
 40 31  1  0
 19 10  1  0
M  CHG  1  19   1
M  END
>  <UniqueID>  (9) 
9

>  <SMILES>  (9) 
O=C1/C(=C\c2c[nH]c3ccccc23)c2ccc(-c3cc(Cl)c(Cl)c[nH+]3)cc21

>  <Energy>  (9) 
99.88753291589485

>  <Genealogy>  (9) 
O=C1C(=Cc2c[nH]c3ccccc23)c2ccc(-c3cc(Cl)c(Cl)c[nH+]3)cc21 (protonated)
O=C1/C(=C\c2c[nH]c3ccccc23)c2ccc(-c3cc(Cl)c(Cl)c[nH+]3)cc21 (cis-trans isomerization)
O=C1/C(=C\c2c[nH]c3ccccc23)c2ccc(-c3cc(Cl)c(Cl)c[nH+]3)cc21 (3D coordinates assigned)
O=C1/C(=C\c2c[nH]c3ccccc23)c2ccc(-c3cc(Cl)c(Cl)c[nH+]3)cc21 (nonaromatic ring conformer: 99.88753291589485 kcal/mol)

>  <smiles>  (9) 
O=C1C(=Cc2c[nH]c3ccccc23)c2ccc(-c3cc(Cl)c(Cl)cn3)cc21

>  <score_type>  (9) 
oracle

>  <origin>  (9) 
adg

>  <m_score__min__energy>  (9) 
-9.5

>  <m_primary>  (9) 
energy

$$$$
9:0
     RDKit          3D

 32 34  0  0  0  0  0  0  0  0999 V2000
   -1.7390   22.7820  -28.3600 C   0  0  0  0  0  0  0  0  0  0  0  0
   -1.6260   24.1700  -28.9110 C   0  0  0  0  0  0  0  0  0  0  0  0
   -0.4910   24.7140  -28.9680 O   0  0  0  0  0  0  0  0  0  0  0  0
   -2.7740   24.9160  -29.3390 N   0  0  0  0  0  0  0  0  0  0  0  0
   -3.8590   24.4340  -30.1430 C   0  0  0  0  0  0  0  0  0  0  0  0
   -5.1750   24.8810  -29.9460 C   0  0  0  0  0  0  0  0  0  0  0  0
   -6.2130   24.3760  -30.7310 C   0  0  0  0  0  0  0  0  0  0  0  0
   -5.9490   23.4100  -31.7110 C   0  0  0  0  0  0  0  0  0  0  0  0
   -4.6480   22.9010  -31.8700 C   0  0  0  0  0  0  0  0  0  0  0  0
   -3.6080   23.4330  -31.0880 C   0  0  0  0  0  0  0  0  0  0  0  0
   -4.3280   21.8540  -32.8740 C   0  0  0  0  0  0  0  0  0  0  0  0
   -3.3040   22.0040  -33.5890 O   0  0  0  0  0  0  0  0  0  0  0  0
   -5.0740   20.6290  -33.0100 N   0  0  0  0  0  0  0  0  0  0  0  0
   -6.3100   20.2260  -32.3950 C   0  0  0  0  0  0  0  0  0  0  0  0
   -6.4640   18.8770  -32.0460 C   0  0  0  0  0  0  0  0  0  0  0  0
   -7.6470   18.4260  -31.4520 C   0  0  0  0  0  0  0  0  0  0  0  0
   -8.6930   19.3190  -31.2150 C   0  0  0  0  0  0  0  0  0  0  0  0
   -8.5670   20.6590  -31.5870 C   0  0  0  0  0  0  0  0  0  0  0  0
   -7.3890   21.1120  -32.1980 C   0  0  0  0  0  0  0  0  0  0  0  0
   -7.2460   22.7790  -32.6940 S   0  0  0  0  0  0  0  0  0  0  0  0
   -8.6770   23.6300  -32.4630 O   0  0  0  0  0  0  0  0  0  0  0  0
   -1.7357   22.8225  -27.2608 H   0  0  0  0  0  0  0  0  0  0  0  0
   -2.6773   22.3249  -28.7073 H   0  0  0  0  0  0  0  0  0  0  0  0
   -0.8870   22.1791  -28.7073 H   0  0  0  0  0  0  0  0  0  0  0  0
   -5.3890   25.6315  -29.1707 H   0  0  0  0  0  0  0  0  0  0  0  0
   -7.2409   24.7374  -30.5798 H   0  0  0  0  0  0  0  0  0  0  0  0
   -2.5827   23.0572  -31.2208 H   0  0  0  0  0  0  0  0  0  0  0  0
   -5.6469   18.1668  -32.2411 H   0  0  0  0  0  0  0  0  0  0  0  0
   -7.7531   17.3676  -31.1716 H   0  0  0  0  0  0  0  0  0  0  0  0
   -9.6178   18.9668  -30.7346 H   0  0  0  0  0  0  0  0  0  0  0  0
   -9.3934   21.3606  -31.4004 H   0  0  0  0  0  0  0  0  0  0  0  0
   -8.7330   24.2360  -33.2450 H   0  0  0  0  0  0  0  0  0  0  0  0
  1  2  1  0
  2  3  2  0
  2  4  1  0
  4  5  1  0
  5  6  2  0
  6  7  1  0
  7  8  2  0
  8  9  1  0
  9 10  2  0
  9 11  1  0
 11 12  2  0
 11 13  1  0
 13 14  1  0
 14 15  2  0
 15 16  1  0
 16 17  2  0
 17 18  1  0
 18 19  2  0
 19 20  1  0
 20 21  1  1
 10  5  1  0
 19 14  1  0
 20  8  1  0
  1 22  1  0
  1 23  1  0
  1 24  1  0
  6 25  1  0
  7 26  1  0
 10 27  1  0
 15 28  1  0
 16 29  1  0
 17 30  1  0
 18 31  1  0
 21 32  1  0
M  CHG  3   4  -1  13  -1  20   1
M  END
>  <UniqueID>  (10) 
10

>  <SMILES>  (10) 
CC(=O)[N-]c1ccc2c(c1)C(=O)[N-]c1ccccc1[S@@+]2O

>  <Energy>  (10) 
58.61224338919519

>  <Genealogy>  (10) 
CC(=O)[N-]c1ccc2c(c1)C(=O)[N-]c1ccccc1[S+]2O (protonated)
CC(=O)[N-]c1ccc2c(c1)C(=O)[N-]c1ccccc1[S@@+]2O (chirality)
CC(=O)[N-]c1ccc2c(c1)C(=O)[N-]c1ccccc1[S@@+]2O (3D coordinates assigned)
CC(=O)[N-]c1ccc2c(c1)C(=O)[N-]c1ccccc1[S@@+]2O (nonaromatic ring conformer: 58.61224338919519 kcal/mol)

>  <smiles>  (10) 
CC(=O)Nc1ccc2c(c1)C(=O)Nc1ccccc1[S+]2[O-]

>  <score_type>  (10) 
oracle

>  <origin>  (10) 
adg

>  <m_score__min__energy>  (10) 
-8.9800000000000004

>  <m_primary>  (10) 
energy

$$$$
10:0
     RDKit          3D

 38 41  0  0  0  0  0  0  0  0999 V2000
   -6.7580   15.6970  -34.1980 C   0  0  0  0  0  0  0  0  0  0  0  0
   -6.5440   17.0090  -34.6990 O   0  0  0  0  0  0  0  0  0  0  0  0
   -5.9410   18.0000  -33.9470 C   0  0  0  0  0  0  0  0  0  0  0  0
   -4.5640   18.0340  -33.7940 C   0  0  0  0  0  0  0  0  0  0  0  0
   -3.9240   19.0080  -33.0500 C   0  0  0  0  0  0  0  0  0  0  0  0
   -4.7250   19.9600  -32.4560 C   0  0  0  0  0  0  0  0  0  0  0  0
   -4.1020   21.0050  -31.6630 C   0  0  0  0  0  0  0  0  0  0  0  0
   -4.4450   22.3290  -31.5090 C   0  0  0  0  0  0  0  0  0  0  0  0
   -3.7020   23.0950  -30.7130 C   0  0  0  0  0  0  0  0  0  0  0  0
   -3.8420   24.4580  -30.3940 C   0  0  0  0  0  0  0  0  0  0  0  0
   -4.7710   25.1540  -30.8760 O   0  0  0  0  0  0  0  0  0  0  0  0
   -2.9840   25.0500  -29.5670 N   0  0  0  0  0  0  0  0  0  0  0  0
   -1.9420   24.4510  -28.9700 C   0  0  0  0  0  0  0  0  0  0  0  0
   -1.0000   25.1100  -28.0590 C   0  0  0  0  0  0  0  0  0  0  0  0
   -1.6290   25.7210  -26.8290 C   0  0  0  0  0  0  0  0  0  0  0  0
   -1.3450   24.4300  -26.0940 C   0  0  0  0  0  0  0  0  0  0  0  0
   -0.2790   24.1320  -27.1290 C   0  0  0  0  0  0  0  0  0  0  0  0
   -1.7730   23.1340  -29.2540 N   0  0  0  0  0  0  0  0  0  0  0  0
   -2.6150   22.4890  -30.0860 C   0  0  0  0  0  0  0  0  0  0  0  0
   -2.6650   20.7760  -30.6560 S   0  0  0  0  0  0  0  0  0  0  0  0
   -6.0970   19.9830  -32.5670 C   0  0  0  0  0  0  0  0  0  0  0  0
   -6.6810   18.9770  -33.3290 C   0  0  0  0  0  0  0  0  0  0  0  0
   -6.7544   15.7193  -33.0982 H   0  0  0  0  0  0  0  0  0  0  0  0
   -7.7291   15.3225  -34.5539 H   0  0  0  0  0  0  0  0  0  0  0  0
   -5.9562   15.0333  -34.5539 H   0  0  0  0  0  0  0  0  0  0  0  0
   -3.9576   17.2572  -34.2827 H   0  0  0  0  0  0  0  0  0  0  0  0
   -2.8299   19.0226  -32.9376 H   0  0  0  0  0  0  0  0  0  0  0  0
   -5.3169   22.7465  -32.0339 H   0  0  0  0  0  0  0  0  0  0  0  0
   -3.1180   26.0630  -29.3520 H   0  0  0  0  0  0  0  0  0  0  0  0
   -0.4642   25.7339  -28.7896 H   0  0  0  0  0  0  0  0  0  0  0  0
   -1.0955   26.5975  -26.4325 H   0  0  0  0  0  0  0  0  0  0  0  0
   -2.6415   26.1498  -26.8589 H   0  0  0  0  0  0  0  0  0  0  0  0
   -0.9632   24.5620  -25.0709 H   0  0  0  0  0  0  0  0  0  0  0  0
   -2.1456   23.7090  -25.8724 H   0  0  0  0  0  0  0  0  0  0  0  0
    0.7376   24.4380  -26.8412 H   0  0  0  0  0  0  0  0  0  0  0  0
   -0.0476   23.1026  -27.4403 H   0  0  0  0  0  0  0  0  0  0  0  0
   -6.7021   20.7597  -32.0766 H   0  0  0  0  0  0  0  0  0  0  0  0
   -7.7753   18.9637  -33.4405 H   0  0  0  0  0  0  0  0  0  0  0  0
  1  2  1  0
  2  3  1  0
  3  4  2  0
  4  5  1  0
  5  6  2  0
  6  7  1  0
  7  8  2  0
  8  9  1  0
  9 10  1  0
 10 11  2  0
 10 12  1  0
 12 13  1  0
 13 14  1  0
 14 15  1  0
 15 16  1  0
 16 17  1  0
 13 18  2  0
 18 19  1  0
 19 20  1  0
  6 21  1  0
 21 22  2  0
 22  3  1  0
 20  7  1  0
 19  9  2  0
 17 14  1  0
  1 23  1  0
  1 24  1  0
  1 25  1  0
  4 26  1  0
  5 27  1  0
  8 28  1  0
 12 29  1  0
 14 30  1  0
 15 31  1  0
 15 32  1  0
 16 33  1  0
 16 34  1  0
 17 35  1  0
 17 36  1  0
 21 37  1  0
 22 38  1  0
M  END
>  <smiles>  (11) 
COc1ccc(-c2cc3c(=O)[nH]c(C4CCC4)nc3s2)cc1

>  <score_type>  (11) 
oracle

>  <origin>  (11) 
adg

>  <m_score__min__energy>  (11) 
-7.5

>  <m_primary>  (11) 
energy

$$$$
11:0
     RDKit          3D

 58 61  0  0  0  0  0  0  0  0999 V2000
   -2.6580   18.9300  -26.1380 C   0  0  0  0  0  0  0  0  0  0  0  0
   -1.9950   19.0990  -27.3870 O   0  0  0  0  0  0  0  0  0  0  0  0
   -0.6320   18.8490  -27.6070 C   0  0  0  0  0  0  0  0  0  0  0  0
   -0.1070   17.5430  -27.5860 C   0  0  0  0  0  0  0  0  0  0  0  0
    1.2610   17.3440  -27.7750 C   0  0  0  0  0  0  0  0  0  0  0  0
    2.0820   18.4040  -27.9820 N   0  0  0  0  0  0  0  0  0  0  0  0
    1.6090   19.6780  -28.0140 C   0  0  0  0  0  0  0  0  0  0  0  0
    0.2390   19.9340  -27.8380 C   0  0  0  0  0  0  0  0  0  0  0  0
   -0.2530   21.2890  -27.8860 N   0  0  0  0  0  0  0  0  0  0  0  0
   -0.2850   22.1200  -26.6780 C   0  0  0  0  0  0  0  0  0  0  0  0
   -1.5200   23.0260  -26.7150 C   0  0  0  0  0  0  0  0  0  0  0  0
   -1.5650   23.8960  -27.9230 N   0  0  0  0  0  0  0  0  0  0  0  0
   -2.9550   24.2320  -28.3040 C   0  0  0  0  0  0  0  0  0  0  0  0
   -3.1450   24.1910  -29.8260 C   0  0  0  0  0  0  0  0  0  0  0  0
   -4.5630   24.2810  -30.1630 N   0  0  0  0  0  0  0  0  0  0  0  0
   -5.5870   24.9260  -29.3480 C   0  0  0  0  0  0  0  0  0  0  0  0
   -6.9270   24.6940  -30.0940 C   0  0  0  0  0  0  0  0  0  0  0  0
   -6.5940   23.8830  -31.2600 N   0  0  0  0  0  0  0  0  0  0  0  0
   -7.5440   23.4140  -32.2660 C   0  0  0  0  0  0  0  0  0  0  0  0
   -7.7370   21.9280  -32.1420 C   0  0  0  0  0  0  0  0  0  0  0  0
   -6.7550   21.0490  -32.6260 C   0  0  0  0  0  0  0  0  0  0  0  0
   -6.9430   19.6660  -32.5400 C   0  0  0  0  0  0  0  0  0  0  0  0
   -8.1150   19.1530  -31.9770 C   0  0  0  0  0  0  0  0  0  0  0  0
   -9.1010   20.0210  -31.5000 C   0  0  0  0  0  0  0  0  0  0  0  0
   -8.9150   21.4050  -31.5850 C   0  0  0  0  0  0  0  0  0  0  0  0
   -5.2000   23.6690  -31.2650 C   0  0  0  0  0  0  0  0  0  0  0  0
   -4.5930   23.0030  -32.1450 O   0  0  0  0  0  0  0  0  0  0  0  0
   -0.7980   23.3720  -29.0830 C   0  0  0  0  0  0  0  0  0  0  0  0
   -0.7780   21.8390  -29.1410 C   0  0  0  0  0  0  0  0  0  0  0  0
   -1.9473   19.1112  -25.3182 H   0  0  0  0  0  0  0  0  0  0  0  0
   -3.4912   19.6445  -26.0655 H   0  0  0  0  0  0  0  0  0  0  0  0
   -3.0475   17.9038  -26.0655 H   0  0  0  0  0  0  0  0  0  0  0  0
   -0.7726   16.6829  -27.4213 H   0  0  0  0  0  0  0  0  0  0  0  0
    1.6749   16.3250  -27.7561 H   0  0  0  0  0  0  0  0  0  0  0  0
    2.3040   20.5145  -28.1789 H   0  0  0  0  0  0  0  0  0  0  0  0
   -0.3308   21.4736  -25.7892 H   0  0  0  0  0  0  0  0  0  0  0  0
    0.6232   22.7391  -26.6342 H   0  0  0  0  0  0  0  0  0  0  0  0
   -2.4198   22.3933  -26.7045 H   0  0  0  0  0  0  0  0  0  0  0  0
   -1.4723   23.6849  -25.8355 H   0  0  0  0  0  0  0  0  0  0  0  0
   -3.6387   23.5068  -27.8385 H   0  0  0  0  0  0  0  0  0  0  0  0
   -3.1717   25.2527  -27.9559 H   0  0  0  0  0  0  0  0  0  0  0  0
   -2.6095   25.0371  -30.2813 H   0  0  0  0  0  0  0  0  0  0  0  0
   -2.7457   23.2410  -30.2107 H   0  0  0  0  0  0  0  0  0  0  0  0
   -5.6222   24.4720  -28.3467 H   0  0  0  0  0  0  0  0  0  0  0  0
   -5.3800   25.9975  -29.2101 H   0  0  0  0  0  0  0  0  0  0  0  0
   -7.6391   24.1611  -29.4468 H   0  0  0  0  0  0  0  0  0  0  0  0
   -7.4013   25.6438  -30.3820 H   0  0  0  0  0  0  0  0  0  0  0  0
   -8.5096   23.9198  -32.1182 H   0  0  0  0  0  0  0  0  0  0  0  0
   -7.1504   23.6434  -33.2672 H   0  0  0  0  0  0  0  0  0  0  0  0
   -5.8341   21.4498  -33.0746 H   0  0  0  0  0  0  0  0  0  0  0  0
   -6.1682   18.9815  -32.9156 H   0  0  0  0  0  0  0  0  0  0  0  0
   -8.2614   18.0649  -31.9093 H   0  0  0  0  0  0  0  0  0  0  0  0
  -10.0232   19.6161  -31.0578 H   0  0  0  0  0  0  0  0  0  0  0  0
   -9.6949   22.0863  -31.2139 H   0  0  0  0  0  0  0  0  0  0  0  0
   -1.2563   23.7524  -30.0078 H   0  0  0  0  0  0  0  0  0  0  0  0
    0.2422   23.7121  -28.9722 H   0  0  0  0  0  0  0  0  0  0  0  0
   -1.8015   21.4684  -29.2996 H   0  0  0  0  0  0  0  0  0  0  0  0
   -0.1294   21.5206  -29.9704 H   0  0  0  0  0  0  0  0  0  0  0  0
  1  2  1  0
  2  3  1  0
  3  4  2  0
  4  5  1  0
  5  6  2  0
  6  7  1  0
  7  8  2  0
  8  9  1  0
  9 10  1  0
 10 11  1  0
 11 12  1  0
 12 13  1  0
 13 14  1  0
 14 15  1  0
 15 16  1  0
 16 17  1  0
 17 18  1  0
 18 19  1  0
 19 20  1  0
 20 21  2  0
 21 22  1  0
 22 23  2  0
 23 24  1  0
 24 25  2  0
 18 26  1  0
 26 27  2  0
 12 28  1  0
 28 29  1  0
  8  3  1  0
 29  9  1  0
 26 15  1  0
 25 20  1  0
  1 30  1  0
  1 31  1  0
  1 32  1  0
  4 33  1  0
  5 34  1  0
  7 35  1  0
 10 36  1  0
 10 37  1  0
 11 38  1  0
 11 39  1  0
 13 40  1  0
 13 41  1  0
 14 42  1  0
 14 43  1  0
 16 44  1  0
 16 45  1  0
 17 46  1  0
 17 47  1  0
 19 48  1  0
 19 49  1  0
 21 50  1  0
 22 51  1  0
 23 52  1  0
 24 53  1  0
 25 54  1  0
 28 55  1  0
 28 56  1  0
 29 57  1  0
 29 58  1  0
M  END
>  <UniqueID>  (12) 
11

>  <SMILES>  (12) 
COc1ccncc1N1CCN(CCN2CCN(Cc3ccccc3)C2=O)CC1

>  <Energy>  (12) 
80.03231271442955

>  <Genealogy>  (12) 
COc1ccncc1N1CCN(CCN2CCN(Cc3ccccc3)C2=O)CC1 (3D coordinates assigned)
COc1ccncc1N1CCN(CCN2CCN(Cc3ccccc3)C2=O)CC1 (nonaromatic ring conformer: 80.03231271442955 kcal/mol)

>  <smiles>  (12) 
COc1ccncc1N1CCN(CCN2CCN(Cc3ccccc3)C2=O)CC1

>  <score_type>  (12) 
oracle

>  <origin>  (12) 
adg

>  <m_score__min__energy>  (12) 
-8.6300000000000008

>  <m_primary>  (12) 
energy

$$$$
12:0
     RDKit          3D

 49 52  0  0  0  0  0  0  0  0999 V2000
   -3.9920   24.6930  -26.8750 C   0  0  0  0  0  0  0  0  0  0  0  0
   -3.5320   24.5320  -28.2130 O   0  0  0  0  0  0  0  0  0  0  0  0
   -3.4940   23.3150  -28.9130 C   0  0  0  0  0  0  0  0  0  0  0  0
   -3.0820   22.1330  -28.2720 C   0  0  0  0  0  0  0  0  0  0  0  0
   -3.0480   20.9270  -28.9610 C   0  0  0  0  0  0  0  0  0  0  0  0
   -3.4230   20.8740  -30.2980 C   0  0  0  0  0  0  0  0  0  0  0  0
   -3.8410   22.0320  -30.9760 C   0  0  0  0  0  0  0  0  0  0  0  0
   -4.2030   21.9040  -32.4580 C   0  0  2  0  0  0  0  0  0  0  0  0
   -5.6130   21.2730  -32.7310 C   0  0  2  0  0  0  0  0  0  0  0  0
   -6.6540   21.7260  -31.7310 C   0  0  0  0  0  0  0  0  0  0  0  0
   -6.8250   22.9190  -31.5320 O   0  0  0  0  0  0  0  0  0  0  0  0
   -7.5000   20.7260  -30.9960 C   0  0  0  0  0  0  0  0  0  0  0  0
   -7.9640   19.5940  -31.9410 C   0  0  0  0  0  0  0  0  0  0  0  0
   -8.8150   18.5920  -31.1320 C   0  0  0  0  0  0  0  0  0  0  0  0
   -8.8410   20.1590  -33.0840 C   0  0  0  0  0  0  0  0  0  0  0  0
   -6.7300   18.8530  -32.5260 C   0  0  0  0  0  0  0  0  0  0  0  0
   -5.5750   19.7480  -32.9140 C   0  0  0  0  0  0  0  0  0  0  0  0
   -4.5230   19.1740  -33.4310 N   0  0  0  0  0  0  0  0  0  0  0  0
   -3.3380   19.9290  -33.6670 C   0  0  0  0  0  0  0  0  0  0  0  0
   -2.2080   19.4600  -34.2130 N   0  0  0  0  0  0  0  0  0  0  0  0
   -1.3520   20.4970  -34.0540 C   0  0  0  0  0  0  0  0  0  0  0  0
   -1.9330   21.5430  -33.4190 N   0  0  0  0  0  0  0  0  0  0  0  0
   -3.1770   21.1620  -33.1860 N   0  0  0  0  0  0  0  0  0  0  0  0
   -3.8780   23.2690  -30.2820 C   0  0  0  0  0  0  0  0  0  0  0  0
   -4.3020   24.4060  -30.9910 O   0  0  0  0  0  0  0  0  0  0  0  0
   -5.3600   25.2920  -30.6450 C   0  0  0  0  0  0  0  0  0  0  0  0
   -3.1907   24.4125  -26.1755 H   0  0  0  0  0  0  0  0  0  0  0  0
   -4.2736   25.7431  -26.7079 H   0  0  0  0  0  0  0  0  0  0  0  0
   -4.8670   24.0477  -26.7079 H   0  0  0  0  0  0  0  0  0  0  0  0
   -2.7834   22.1636  -27.2137 H   0  0  0  0  0  0  0  0  0  0  0  0
   -2.7230   20.0108  -28.4463 H   0  0  0  0  0  0  0  0  0  0  0  0
   -3.3923   19.9132  -30.8327 H   0  0  0  0  0  0  0  0  0  0  0  0
   -4.2532   22.9387  -32.8280 H   0  0  0  0  0  0  0  0  0  0  0  0
   -5.9337   21.6691  -33.7058 H   0  0  0  0  0  0  0  0  0  0  0  0
   -6.9114   20.2909  -30.1749 H   0  0  0  0  0  0  0  0  0  0  0  0
   -8.3887   21.2405  -30.6016 H   0  0  0  0  0  0  0  0  0  0  0  0
   -8.6653   18.7683  -30.0566 H   0  0  0  0  0  0  0  0  0  0  0  0
   -9.8776   18.7282  -31.3815 H   0  0  0  0  0  0  0  0  0  0  0  0
   -8.5085   17.5654  -31.3815 H   0  0  0  0  0  0  0  0  0  0  0  0
   -9.6927   20.7077  -32.6557 H   0  0  0  0  0  0  0  0  0  0  0  0
   -8.2404   20.8405  -33.7044 H   0  0  0  0  0  0  0  0  0  0  0  0
   -9.2132   19.3304  -33.7044 H   0  0  0  0  0  0  0  0  0  0  0  0
   -6.3702   18.1391  -31.7704 H   0  0  0  0  0  0  0  0  0  0  0  0
   -7.0713   18.3702  -33.4536 H   0  0  0  0  0  0  0  0  0  0  0  0
   -2.0230   18.5200  -34.6250 H   0  0  0  0  0  0  0  0  0  0  0  0
   -0.3078   20.4908  -34.3998 H   0  0  0  0  0  0  0  0  0  0  0  0
   -5.4393   25.3584  -29.5499 H   0  0  0  0  0  0  0  0  0  0  0  0
   -5.1527   26.2899  -31.0588 H   0  0  0  0  0  0  0  0  0  0  0  0
   -6.3060   24.9127  -31.0588 H   0  0  0  0  0  0  0  0  0  0  0  0
  1  2  1  0
  2  3  1  0
  3  4  2  0
  4  5  1  0
  5  6  2  0
  6  7  1  0
  7  8  1  0
  8  9  1  0
  9 10  1  0
 10 11  2  0
 10 12  1  0
 12 13  1  0
 13 14  1  0
 13 15  1  0
 13 16  1  0
 16 17  1  0
 17 18  2  0
 18 19  1  0
 19 20  2  0
 20 21  1  0
 21 22  2  0
 22 23  1  0
  7 24  2  0
 24 25  1  0
 25 26  1  0
 24  3  1  0
 23  8  1  0
 17  9  1  0
 23 19  1  0
  1 27  1  0
  1 28  1  0
  1 29  1  0
  4 30  1  0
  5 31  1  0
  6 32  1  0
  8 33  1  6
  9 34  1  6
 12 35  1  0
 12 36  1  0
 14 37  1  0
 14 38  1  0
 14 39  1  0
 15 40  1  0
 15 41  1  0
 15 42  1  0
 16 43  1  0
 16 44  1  0
 20 45  1  0
 21 46  1  0
 26 47  1  0
 26 48  1  0
 26 49  1  0
M  CHG  1  20   1
M  END
>  <UniqueID>  (13) 
12

>  <SMILES>  (13) 
COc1cccc([C@@H]2[C@@H]3C(=O)CC(C)(C)CC3=Nc3[nH+]cnn32)c1OC

>  <Energy>  (13) 
96.0995017102584

>  <Genealogy>  (13) 
COc1cccc(C2C3C(=O)CC(C)(C)CC3=Nc3[nH+]cnn32)c1OC (protonated)
COc1cccc([C@@H]2[C@@H]3C(=O)CC(C)(C)CC3=Nc3[nH+]cnn32)c1OC (chirality)
COc1cccc([C@@H]2[C@@H]3C(=O)CC(C)(C)CC3=Nc3[nH+]cnn32)c1OC (3D coordinates assigned)
COc1cccc([C@@H]2[C@@H]3C(=O)CC(C)(C)CC3=Nc3[nH+]cnn32)c1OC (nonaromatic ring conformer: 96.0995017102584 kcal/mol)

>  <smiles>  (13) 
COc1cccc(C2C3C(=O)CC(C)(C)CC3=Nc3ncnn32)c1OC

>  <score_type>  (13) 
oracle

>  <origin>  (13) 
adg

>  <m_score__min__energy>  (13) 
-8.1600000000000001

>  <m_primary>  (13) 
energy

$$$$
13:0
     RDKit          3D

 45 48  0  0  0  0  0  0  0  0999 V2000
   -6.1630   18.3300  -33.8150 C   0  0  0  0  0  0  0  0  0  0  0  0
   -6.8060   19.4450  -33.0540 C   0  0  0  0  0  0  0  0  0  0  0  0
   -7.9830   19.2200  -32.3280 C   0  0  0  0  0  0  0  0  0  0  0  0
   -8.5500   20.2710  -31.6040 C   0  0  0  0  0  0  0  0  0  0  0  0
   -7.9430   21.5270  -31.6090 C   0  0  0  0  0  0  0  0  0  0  0  0
   -6.7700   21.7210  -32.3510 C   0  0  0  0  0  0  0  0  0  0  0  0
   -6.0620   23.0420  -32.3300 C   0  0  0  0  0  0  0  0  0  0  0  0
   -4.7760   22.8990  -31.6580 N   0  0  0  0  0  0  0  0  0  0  0  0
   -4.5200   23.2130  -30.3740 C   0  0  0  0  0  0  0  0  0  0  0  0
   -3.2220   22.8410  -30.0960 C   0  0  0  0  0  0  0  0  0  0  0  0
   -2.5050   22.9940  -28.8120 C   0  0  0  0  0  0  0  0  0  0  0  0
   -2.0900   21.8720  -28.0540 C   0  0  0  0  0  0  0  0  0  0  0  0
   -2.3380   20.4560  -28.5060 C   0  0  0  0  0  0  0  0  0  0  0  0
   -3.4930   20.4000  -29.2620 F   0  0  0  0  0  0  0  0  0  0  0  0
   -2.4900   19.6280  -27.4080 F   0  0  0  0  0  0  0  0  0  0  0  0
   -1.2710   19.9920  -29.2560 F   0  0  0  0  0  0  0  0  0  0  0  0
   -1.4540   22.0550  -26.8980 O   0  0  0  0  0  0  0  0  0  0  0  0
   -1.1660   23.2530  -26.4050 C   0  0  0  0  0  0  0  0  0  0  0  0
   -0.4920   23.3520  -25.1830 C   0  0  0  0  0  0  0  0  0  0  0  0
   -0.1790   24.6070  -24.6540 C   0  0  0  0  0  0  0  0  0  0  0  0
   -0.5360   25.7690  -25.3440 C   0  0  0  0  0  0  0  0  0  0  0  0
   -0.1050   27.4820  -24.6140 Br  0  0  0  0  0  0  0  0  0  0  0  0
   -1.2110   25.6810  -26.5660 C   0  0  0  0  0  0  0  0  0  0  0  0
   -1.5310   24.4200  -27.1060 C   0  0  0  0  0  0  0  0  0  0  0  0
   -2.2120   24.2800  -28.3260 C   0  0  0  0  0  0  0  0  0  0  0  0
   -2.5700   25.3010  -28.9780 O   0  0  0  0  0  0  0  0  0  0  0  0
   -2.7470   22.2910  -31.2750 C   0  0  0  0  0  0  0  0  0  0  0  0
   -1.3770   21.7480  -31.5180 C   0  0  0  0  0  0  0  0  0  0  0  0
   -3.7130   22.3350  -32.2130 N   0  0  0  0  0  0  0  0  0  0  0  0
   -6.2280   20.6770  -33.0380 N   0  0  0  0  0  0  0  0  0  0  0  0
   -5.7416   17.5993  -33.1089 H   0  0  0  0  0  0  0  0  0  0  0  0
   -6.9152   17.8365  -34.4480 H   0  0  0  0  0  0  0  0  0  0  0  0
   -5.3591   18.7339  -34.4480 H   0  0  0  0  0  0  0  0  0  0  0  0
   -8.4552   18.2265  -32.3283 H   0  0  0  0  0  0  0  0  0  0  0  0
   -9.4744   20.1086  -31.0303 H   0  0  0  0  0  0  0  0  0  0  0  0
   -8.3810   22.3575  -31.0358 H   0  0  0  0  0  0  0  0  0  0  0  0
   -5.8991   23.3861  -33.3620 H   0  0  0  0  0  0  0  0  0  0  0  0
   -6.6765   23.7764  -31.7887 H   0  0  0  0  0  0  0  0  0  0  0  0
   -5.2228   23.6835  -29.6707 H   0  0  0  0  0  0  0  0  0  0  0  0
   -0.2079   22.4400  -24.6375 H   0  0  0  0  0  0  0  0  0  0  0  0
    0.3497   24.6806  -23.6922 H   0  0  0  0  0  0  0  0  0  0  0  0
   -1.4922   26.5973  -27.1057 H   0  0  0  0  0  0  0  0  0  0  0  0
   -0.8838   21.5525  -30.5544 H   0  0  0  0  0  0  0  0  0  0  0  0
   -1.4500   20.8108  -32.0893 H   0  0  0  0  0  0  0  0  0  0  0  0
   -0.7882   22.4807  -32.0893 H   0  0  0  0  0  0  0  0  0  0  0  0
  1  2  1  0
  2  3  2  0
  3  4  1  0
  4  5  2  0
  5  6  1  0
  6  7  1  0
  7  8  1  0
  8  9  1  0
  9 10  2  0
 10 11  1  0
 11 12  2  0
 12 13  1  0
 13 14  1  0
 13 15  1  0
 13 16  1  0
 12 17  1  0
 17 18  1  0
 18 19  2  0
 19 20  1  0
 20 21  2  0
 21 22  1  0
 21 23  1  0
 23 24  2  0
 24 25  1  0
 25 26  2  0
 10 27  1  0
 27 28  1  0
 27 29  2  0
  6 30  2  0
 30  2  1  0
 29  8  1  0
 25 11  1  0
 24 18  1  0
  1 31  1  0
  1 32  1  0
  1 33  1  0
  3 34  1  0
  4 35  1  0
  5 36  1  0
  7 37  1  0
  7 38  1  0
  9 39  1  0
 19 40  1  0
 20 41  1  0
 23 42  1  0
 28 43  1  0
 28 44  1  0
 28 45  1  0
M  END
>  <UniqueID>  (14) 
13

>  <SMILES>  (14) 
Cc1cccc(Cn2cc(-c3c(C(F)(F)F)oc4ccc(Br)cc4c3=O)c(C)n2)n1

>  <Energy>  (14) 
88.34250647153708

>  <Genealogy>  (14) 
Cc1cccc(Cn2cc(-c3c(C(F)(F)F)oc4ccc(Br)cc4c3=O)c(C)n2)n1 (3D coordinates assigned)
Cc1cccc(Cn2cc(-c3c(C(F)(F)F)oc4ccc(Br)cc4c3=O)c(C)n2)n1 (optimized conformer: 88.34250647153708 kcal/mol)

>  <smiles>  (14) 
Cc1cccc(Cn2cc(-c3c(C(F)(F)F)oc4ccc(Br)cc4c3=O)c(C)n2)n1

>  <score_type>  (14) 
oracle

>  <origin>  (14) 
adg

>  <m_score__min__energy>  (14) 
-8.6999999999999993

>  <m_primary>  (14) 
energy

$$$$
14:0
     RDKit          3D

 42 44  0  0  0  0  0  0  0  0999 V2000
   -2.3240   22.5530  -29.9610 C   0  0  0  0  0  0  0  0  0  0  0  0
   -3.1310   23.8000  -29.7520 C   0  0  0  0  0  0  0  0  0  0  0  0
   -2.5240   24.9030  -29.6850 O   0  0  0  0  0  0  0  0  0  0  0  0
   -4.5740   23.7560  -29.6470 N   0  0  0  0  0  0  0  0  0  0  0  0
   -5.2870   22.4730  -29.6940 C   0  0  0  0  0  0  0  0  0  0  0  0
   -6.8110   22.6680  -29.7910 C   0  0  0  0  0  0  0  0  0  0  0  0
   -7.1910   23.7930  -30.6750 N   0  0  0  0  0  0  0  0  0  0  0  0
   -7.3720   23.4350  -32.0990 C   0  0  0  0  0  0  0  0  0  0  0  0
   -7.1780   21.9640  -32.3680 C   0  0  0  0  0  0  0  0  0  0  0  0
   -8.2100   21.0480  -32.1200 C   0  0  0  0  0  0  0  0  0  0  0  0
   -7.9940   19.6750  -32.3120 C   0  0  0  0  0  0  0  0  0  0  0  0
   -9.1150   18.7100  -32.0190 C   0  0  0  0  0  0  0  0  0  0  0  0
   -6.7250   19.2320  -32.7550 C   0  0  0  0  0  0  0  0  0  0  0  0
   -6.4210   17.8680  -32.9490 C   0  0  0  0  0  0  0  0  0  0  0  0
   -5.1470   17.4820  -33.3760 C   0  0  0  0  0  0  0  0  0  0  0  0
   -4.1630   18.4440  -33.6170 C   0  0  0  0  0  0  0  0  0  0  0  0
   -4.4490   19.7980  -33.4340 C   0  0  0  0  0  0  0  0  0  0  0  0
   -5.7190   20.1970  -33.0060 C   0  0  0  0  0  0  0  0  0  0  0  0
   -5.9750   21.5150  -32.8100 N   0  0  0  0  0  0  0  0  0  0  0  0
   -6.4830   25.0780  -30.4460 C   0  0  0  0  0  0  0  0  0  0  0  0
   -5.3520   24.9770  -29.4160 C   0  0  0  0  0  0  0  0  0  0  0  0
   -2.0482   22.1269  -28.9851 H   0  0  0  0  0  0  0  0  0  0  0  0
   -2.9200   21.8209  -30.5256 H   0  0  0  0  0  0  0  0  0  0  0  0
   -1.4120   22.7968  -30.5256 H   0  0  0  0  0  0  0  0  0  0  0  0
   -4.9440   21.9072  -30.5728 H   0  0  0  0  0  0  0  0  0  0  0  0
   -5.0710   21.9280  -28.7633 H   0  0  0  0  0  0  0  0  0  0  0  0
   -7.2590   21.7442  -30.1858 H   0  0  0  0  0  0  0  0  0  0  0  0
   -7.1796   22.9016  -28.7813 H   0  0  0  0  0  0  0  0  0  0  0  0
   -8.3911   23.7153  -32.4037 H   0  0  0  0  0  0  0  0  0  0  0  0
   -6.6067   23.9774  -32.6736 H   0  0  0  0  0  0  0  0  0  0  0  0
   -9.1908   21.4064  -31.7743 H   0  0  0  0  0  0  0  0  0  0  0  0
   -9.2349   18.6068  -30.9304 H   0  0  0  0  0  0  0  0  0  0  0  0
  -10.0499   19.0903  -32.4564 H   0  0  0  0  0  0  0  0  0  0  0  0
   -8.8780   17.7289  -32.4564 H   0  0  0  0  0  0  0  0  0  0  0  0
   -7.1905   17.1042  -32.7633 H   0  0  0  0  0  0  0  0  0  0  0  0
   -4.9183   16.4161  -33.5229 H   0  0  0  0  0  0  0  0  0  0  0  0
   -3.1619   18.1342  -33.9513 H   0  0  0  0  0  0  0  0  0  0  0  0
   -3.6730   20.5533  -33.6271 H   0  0  0  0  0  0  0  0  0  0  0  0
   -6.0548   25.4149  -31.4016 H   0  0  0  0  0  0  0  0  0  0  0  0
   -7.2220   25.7884  -30.0470 H   0  0  0  0  0  0  0  0  0  0  0  0
   -4.6931   25.8527  -29.5108 H   0  0  0  0  0  0  0  0  0  0  0  0
   -5.7847   24.9448  -28.4052 H   0  0  0  0  0  0  0  0  0  0  0  0
  1  2  1  0
  2  3  2  0
  2  4  1  0
  4  5  1  0
  5  6  1  0
  6  7  1  0
  7  8  1  0
  8  9  1  0
  9 10  2  0
 10 11  1  0
 11 12  1  0
 11 13  2  0
 13 14  1  0
 14 15  2  0
 15 16  1  0
 16 17  2  0
 17 18  1  0
 18 19  2  0
  7 20  1  0
 20 21  1  0
 21  4  1  0
 19  9  1  0
 18 13  1  0
  1 22  1  0
  1 23  1  0
  1 24  1  0
  5 25  1  0
  5 26  1  0
  6 27  1  0
  6 28  1  0
  8 29  1  0
  8 30  1  0
 10 31  1  0
 12 32  1  0
 12 33  1  0
 12 34  1  0
 14 35  1  0
 15 36  1  0
 16 37  1  0
 17 38  1  0
 20 39  1  0
 20 40  1  0
 21 41  1  0
 21 42  1  0
M  END
>  <UniqueID>  (15) 
14

>  <SMILES>  (15) 
CC(=O)N1CCN(Cc2cc(C)c3ccccc3n2)CC1

>  <Energy>  (15) 
54.470215239680336

>  <Genealogy>  (15) 
CC(=O)N1CCN(Cc2cc(C)c3ccccc3n2)CC1 (3D coordinates assigned)
CC(=O)N1CCN(Cc2cc(C)c3ccccc3n2)CC1 (nonaromatic ring conformer: 54.470215239680336 kcal/mol)

>  <smiles>  (15) 
CC(=O)N1CCN(Cc2cc(C)c3ccccc3n2)CC1

>  <score_type>  (15) 
oracle

>  <origin>  (15) 
adg

>  <m_score__min__energy>  (15) 
-8.3300000000000001

>  <m_primary>  (15) 
energy

$$$$
15:0
     RDKit          3D

 57 59  0  0  0  0  0  0  0  0999 V2000
   -6.8460   25.3700  -29.3960 C   0  0  0  0  0  0  0  0  0  0  0  0
   -5.8290   25.9180  -30.2250 O   0  0  0  0  0  0  0  0  0  0  0  0
   -4.8210   25.1360  -30.7990 C   0  0  0  0  0  0  0  0  0  0  0  0
   -3.6200   25.2710  -30.4410 O   0  0  0  0  0  0  0  0  0  0  0  0
   -5.1450   24.1770  -31.8060 N   0  0  0  0  0  0  0  0  0  0  0  0
   -5.6670   22.8440  -31.5130 C   0  0  2  0  0  0  0  0  0  0  0  0
   -7.1180   22.7450  -32.0250 C   0  0  0  0  0  0  0  0  0  0  0  0
   -7.5700   21.3140  -32.1780 C   0  0  0  0  0  0  0  0  0  0  0  0
   -8.7020   20.8480  -31.4850 C   0  0  0  0  0  0  0  0  0  0  0  0
   -9.0950   19.5100  -31.5990 C   0  0  0  0  0  0  0  0  0  0  0  0
   -8.3640   18.6290  -32.4030 C   0  0  0  0  0  0  0  0  0  0  0  0
   -7.2370   19.0860  -33.0940 C   0  0  0  0  0  0  0  0  0  0  0  0
   -6.8400   20.4230  -32.9820 C   0  0  0  0  0  0  0  0  0  0  0  0
   -5.5810   22.5960  -29.9870 C   0  0  0  0  0  0  0  0  0  0  0  0
   -4.1840   22.6860  -29.4780 N   0  0  0  0  0  0  0  0  0  0  0  0
   -4.1690   23.1130  -28.0550 C   0  0  0  0  0  0  0  0  0  0  0  0
   -3.0150   24.0420  -27.7550 C   0  0  0  0  0  0  0  0  0  0  0  0
   -3.0790   24.9120  -26.6520 C   0  0  0  0  0  0  0  0  0  0  0  0
   -2.0070   25.7590  -26.3590 C   0  0  0  0  0  0  0  0  0  0  0  0
   -0.8660   25.7480  -27.1650 C   0  0  0  0  0  0  0  0  0  0  0  0
   -0.7960   24.8920  -28.2670 C   0  0  0  0  0  0  0  0  0  0  0  0
   -1.8660   24.0420  -28.5640 C   0  0  0  0  0  0  0  0  0  0  0  0
   -3.4960   21.3730  -29.6200 C   0  0  0  0  0  0  0  0  0  0  0  0
   -3.0580   21.1210  -31.0430 C   0  0  0  0  0  0  0  0  0  0  0  0
   -1.9380   21.7800  -31.5770 C   0  0  0  0  0  0  0  0  0  0  0  0
   -1.5490   21.5500  -32.9000 C   0  0  0  0  0  0  0  0  0  0  0  0
   -2.2760   20.6620  -33.6990 C   0  0  0  0  0  0  0  0  0  0  0  0
   -3.3920   20.0060  -33.1780 C   0  0  0  0  0  0  0  0  0  0  0  0
   -3.7830   20.2300  -31.8540 C   0  0  0  0  0  0  0  0  0  0  0  0
   -6.5760   25.5155  -28.3396 H   0  0  0  0  0  0  0  0  0  0  0  0
   -7.8004   25.8759  -29.6035 H   0  0  0  0  0  0  0  0  0  0  0  0
   -6.9484   24.2946  -29.6035 H   0  0  0  0  0  0  0  0  0  0  0  0
   -5.0731   22.0707  -32.0222 H   0  0  0  0  0  0  0  0  0  0  0  0
   -7.7819   23.2520  -31.3093 H   0  0  0  0  0  0  0  0  0  0  0  0
   -7.1606   23.2212  -33.0157 H   0  0  0  0  0  0  0  0  0  0  0  0
   -9.2798   21.5374  -30.8518 H   0  0  0  0  0  0  0  0  0  0  0  0
   -9.9808   19.1500  -31.0552 H   0  0  0  0  0  0  0  0  0  0  0  0
   -8.6752   17.5777  -32.4917 H   0  0  0  0  0  0  0  0  0  0  0  0
   -6.6621   18.3934  -33.7263 H   0  0  0  0  0  0  0  0  0  0  0  0
   -5.9523   20.7780  -33.5260 H   0  0  0  0  0  0  0  0  0  0  0  0
   -6.1948   23.3490  -29.4710 H   0  0  0  0  0  0  0  0  0  0  0  0
   -5.9461   21.5772  -29.7903 H   0  0  0  0  0  0  0  0  0  0  0  0
   -3.6620   23.3990  -30.0390 H   0  0  0  0  0  0  0  0  0  0  0  0
   -5.1117   23.6335  -27.8304 H   0  0  0  0  0  0  0  0  0  0  0  0
   -4.0527   22.2142  -27.4316 H   0  0  0  0  0  0  0  0  0  0  0  0
   -3.9771   24.9258  -26.0170 H   0  0  0  0  0  0  0  0  0  0  0  0
   -2.0615   26.4350  -25.4930 H   0  0  0  0  0  0  0  0  0  0  0  0
   -0.0220   26.4138  -26.9318 H   0  0  0  0  0  0  0  0  0  0  0  0
    0.1022   24.8867  -28.9020 H   0  0  0  0  0  0  0  0  0  0  0  0
   -1.8080   23.3711  -29.4338 H   0  0  0  0  0  0  0  0  0  0  0  0
   -2.6104   21.3626  -28.9676 H   0  0  0  0  0  0  0  0  0  0  0  0
   -4.2057   20.5823  -29.3354 H   0  0  0  0  0  0  0  0  0  0  0  0
   -1.3647   22.4800  -30.9514 H   0  0  0  0  0  0  0  0  0  0  0  0
   -0.6706   22.0678  -33.3127 H   0  0  0  0  0  0  0  0  0  0  0  0
   -1.9678   20.4804  -34.7392 H   0  0  0  0  0  0  0  0  0  0  0  0
   -3.9652   19.3115  -33.8097 H   0  0  0  0  0  0  0  0  0  0  0  0
   -4.6606   19.7074  -31.4457 H   0  0  0  0  0  0  0  0  0  0  0  0
  1  2  1  0
  2  3  1  0
  3  4  2  0
  3  5  1  0
  5  6  1  0
  6  7  1  0
  7  8  1  0
  8  9  2  0
  9 10  1  0
 10 11  2  0
 11 12  1  0
 12 13  2  0
  6 14  1  0
 14 15  1  0
 15 16  1  0
 16 17  1  0
 17 18  2  0
 18 19  1  0
 19 20  2  0
 20 21  1  0
 21 22  2  0
 15 23  1  0
 23 24  1  0
 24 25  2  0
 25 26  1  0
 26 27  2  0
 27 28  1  0
 28 29  2  0
 13  8  1  0
 22 17  1  0
 29 24  1  0
  1 30  1  0
  1 31  1  0
  1 32  1  0
  6 33  1  6
  7 34  1  0
  7 35  1  0
  9 36  1  0
 10 37  1  0
 11 38  1  0
 12 39  1  0
 13 40  1  0
 14 41  1  0
 14 42  1  0
 15 43  1  0
 16 44  1  0
 16 45  1  0
 18 46  1  0
 19 47  1  0
 20 48  1  0
 21 49  1  0
 22 50  1  0
 23 51  1  0
 23 52  1  0
 25 53  1  0
 26 54  1  0
 27 55  1  0
 28 56  1  0
 29 57  1  0
M  CHG  2   5  -1  15   1
M  END
>  <UniqueID>  (16) 
15

>  <SMILES>  (16) 
COC(=O)[N-][C@H](Cc1ccccc1)C[NH+](Cc1ccccc1)Cc1ccccc1

>  <Energy>  (16) 
55.46357580481951

>  <Genealogy>  (16) 
COC(=O)[N-]C(Cc1ccccc1)C[NH+](Cc1ccccc1)Cc1ccccc1 (protonated)
COC(=O)[N-][C@H](Cc1ccccc1)C[NH+](Cc1ccccc1)Cc1ccccc1 (chirality)
COC(=O)[N-][C@H](Cc1ccccc1)C[NH+](Cc1ccccc1)Cc1ccccc1 (3D coordinates assigned)
COC(=O)[N-][C@H](Cc1ccccc1)C[NH+](Cc1ccccc1)Cc1ccccc1 (optimized conformer: 55.46357580481951 kcal/mol)

>  <smiles>  (16) 
COC(=O)NC(Cc1ccccc1)CN(Cc1ccccc1)Cc1ccccc1

>  <score_type>  (16) 
oracle

>  <origin>  (16) 
adg

>  <m_score__min__energy>  (16) 
-9.0099999999999998

>  <m_primary>  (16) 
energy

$$$$
16:0
     RDKit          3D

 48 50  0  0  0  0  0  0  0  0999 V2000
   -8.6070   23.2916  -31.9657 H   0  0  0  0  0  0  0  0  0  0  0  0
   -7.7590   22.6420  -31.7030 C   0  0  0  0  0  0  0  0  0  0  0  0
   -7.8980   21.3220  -31.9080 C   0  0  0  0  0  0  0  0  0  0  0  0
   -7.0850   20.4590  -32.7530 C   0  0  0  0  0  0  0  0  0  0  0  0
   -6.0590   20.8070  -33.3970 O   0  0  0  0  0  0  0  0  0  0  0  0
   -7.5910   19.1030  -32.6780 C   0  0  0  0  0  0  0  0  0  0  0  0
   -7.1530   18.0970  -33.4500 C   0  0  0  0  0  0  0  0  0  0  0  0
   -7.8645   17.6300  -34.1469 H   0  0  0  0  0  0  0  0  0  0  0  0
   -5.7690   17.5810  -33.4170 C   0  0  0  0  0  0  0  0  0  0  0  0
   -5.4780   16.3140  -32.8940 C   0  0  0  0  0  0  0  0  0  0  0  0
   -6.2915   15.6775  -32.5158 H   0  0  0  0  0  0  0  0  0  0  0  0
   -4.1590   15.8560  -32.8510 C   0  0  0  0  0  0  0  0  0  0  0  0
   -3.9412   14.8541  -32.4526 H   0  0  0  0  0  0  0  0  0  0  0  0
   -3.1070   16.6680  -33.3140 C   0  0  0  0  0  0  0  0  0  0  0  0
   -1.7700   16.2410  -33.2900 O   0  0  0  0  0  0  0  0  0  0  0  0
   -0.7530   16.8200  -32.4790 C   0  0  0  0  0  0  0  0  0  0  0  0
   -1.0045   16.6768  -31.4177 H   0  0  0  0  0  0  0  0  0  0  0  0
    0.2099   16.3347  -32.6964 H   0  0  0  0  0  0  0  0  0  0  0  0
   -0.6788   17.8958  -32.6964 H   0  0  0  0  0  0  0  0  0  0  0  0
   -3.3900   17.9500  -33.8120 C   0  0  0  0  0  0  0  0  0  0  0  0
   -2.3190   18.7420  -34.2570 O   0  0  0  0  0  0  0  0  0  0  0  0
   -2.1120   20.1010  -33.8880 C   0  0  0  0  0  0  0  0  0  0  0  0
   -2.0992   20.1853  -32.7913 H   0  0  0  0  0  0  0  0  0  0  0  0
   -1.1505   20.4488  -34.2938 H   0  0  0  0  0  0  0  0  0  0  0  0
   -2.9263   20.7192  -34.2938 H   0  0  0  0  0  0  0  0  0  0  0  0
   -4.7230   18.4040  -33.8510 C   0  0  0  0  0  0  0  0  0  0  0  0
   -4.9440   19.4143  -34.2259 H   0  0  0  0  0  0  0  0  0  0  0  0
   -8.7410   19.0500  -31.7120 C   0  0  0  0  0  0  0  0  0  0  0  0
   -8.5037   18.3832  -30.8700 H   0  0  0  0  0  0  0  0  0  0  0  0
   -9.6522   18.6587  -32.1880 H   0  0  0  0  0  0  0  0  0  0  0  0
   -8.9370   20.4970  -31.2130 C   0  0  0  0  0  0  0  0  0  0  0  0
   -8.7974   20.5469  -30.1230 H   0  0  0  0  0  0  0  0  0  0  0  0
   -9.9514   20.8626  -31.4308 H   0  0  0  0  0  0  0  0  0  0  0  0
   -6.5510   23.2830  -31.1510 C   0  0  0  0  0  0  0  0  0  0  0  0
   -5.3430   22.5780  -31.0400 C   0  0  0  0  0  0  0  0  0  0  0  0
   -5.3000   21.5180  -31.3306 H   0  0  0  0  0  0  0  0  0  0  0  0
   -4.1930   23.2150  -30.5620 C   0  0  0  0  0  0  0  0  0  0  0  0
   -3.2545   22.6500  -30.4624 H   0  0  0  0  0  0  0  0  0  0  0  0
   -4.2330   24.5770  -30.2080 C   0  0  0  0  0  0  0  0  0  0  0  0
   -3.1100   25.2620  -29.7210 O   0  0  0  0  0  0  0  0  0  0  0  0
   -2.1010   24.6730  -28.9070 C   0  0  0  0  0  0  0  0  0  0  0  0
   -2.3532   24.8202  -27.8465 H   0  0  0  0  0  0  0  0  0  0  0  0
   -2.0380   23.5962  -29.1229 H   0  0  0  0  0  0  0  0  0  0  0  0
   -1.1324   25.1476  -29.1229 H   0  0  0  0  0  0  0  0  0  0  0  0
   -5.4330   25.2840  -30.3500 C   0  0  0  0  0  0  0  0  0  0  0  0
   -5.4724   26.3502  -30.0824 H   0  0  0  0  0  0  0  0  0  0  0  0
   -6.5820   24.6470  -30.8290 C   0  0  0  0  0  0  0  0  0  0  0  0
   -7.5137   25.2184  -30.9536 H   0  0  0  0  0  0  0  0  0  0  0  0
  1  2  1  0
  2  3  2  3
  3  4  1  0
  4  5  2  0
  4  6  1  0
  6  7  2  0
  7  8  1  0
  7  9  1  0
  9 10  2  0
 10 11  1  0
 10 12  1  0
 12 13  1  0
 12 14  2  0
 14 15  1  0
 15 16  1  0
 16 17  1  0
 16 18  1  0
 16 19  1  0
 14 20  1  0
 20 21  1  0
 21 22  1  0
 22 23  1  0
 22 24  1  0
 22 25  1  0
 20 26  2  0
 26 27  1  0
  6 28  1  0
 28 29  1  0
 28 30  1  0
 28 31  1  0
 31 32  1  0
 31 33  1  0
  2 34  1  0
 34 35  2  0
 35 36  1  0
 35 37  1  0
 37 38  1  0
 37 39  2  0
 39 40  1  0
 40 41  1  0
 41 42  1  0
 41 43  1  0
 41 44  1  0
 39 45  1  0
 45 46  1  0
 45 47  2  0
 47 48  1  0
 31  3  1  0
 47 34  1  0
 26  9  1  0
M  END
>  <UniqueID>  (17) 
16

>  <SMILES>  (17) 
COc1ccc(C=C2CC/C(=C\c3ccc(OC)c(OC)c3)C2=O)cc1

>  <Energy>  (17) 
71.14298354561451

>  <Genealogy>  (17) 
COc1ccc(C=C2CC/C(=C\c3ccc(OC)c(OC)c3)C2=O)cc1 (cis-trans isomerization)
COc1ccc(C=C2CC/C(=C\c3ccc(OC)c(OC)c3)C2=O)cc1 (3D coordinates assigned)
COc1ccc(C=C2CC/C(=C\c3ccc(OC)c(OC)c3)C2=O)cc1 (nonaromatic ring conformer: 71.14298354561451 kcal/mol)

>  <smiles>  (17) 
COc1ccc(C=C2CCC(=Cc3ccc(OC)c(OC)c3)C2=O)cc1

>  <score_type>  (17) 
oracle

>  <origin>  (17) 
adg

>  <m_score__min__energy>  (17) 
-9.2200000000000006

>  <m_primary>  (17) 
energy

$$$$
17:0
     RDKit          3D

 54 57  0  0  0  0  0  0  0  0999 V2000
   -0.1060   21.1130  -35.7190 C   0  0  0  0  0  0  0  0  0  0  0  0
   -0.2050   20.9420  -34.3090 O   0  0  0  0  0  0  0  0  0  0  0  0
   -1.4050   20.6050  -33.6670 C   0  0  0  0  0  0  0  0  0  0  0  0
   -2.1460   21.5720  -33.0670 N   0  0  0  0  0  0  0  0  0  0  0  0
   -3.3120   21.2900  -32.4320 C   0  0  0  0  0  0  0  0  0  0  0  0
   -4.0730   22.3880  -31.8010 C   0  0  0  0  0  0  0  0  0  0  0  0
   -3.8350   22.9150  -30.5350 C   0  0  0  0  0  0  0  0  0  0  0  0
   -4.7090   23.9540  -30.1920 C   0  0  0  0  0  0  0  0  0  0  0  0
   -5.6390   24.2510  -31.1810 C   0  0  0  0  0  0  0  0  0  0  0  0
   -5.3690   23.2200  -32.4810 S   0  0  0  0  0  0  0  0  0  0  0  0
   -3.7610   20.0050  -32.3890 N   0  0  0  0  0  0  0  0  0  0  0  0
   -3.0650   18.9900  -32.9770 C   0  0  0  0  0  0  0  0  0  0  0  0
   -3.6330   17.5870  -32.9280 C   0  0  0  0  0  0  0  0  0  0  0  0
   -4.7510   17.4460  -33.8870 N   0  0  0  0  0  0  0  0  0  0  0  0
   -5.9300   16.8020  -33.2680 C   0  0  0  0  0  0  0  0  0  0  0  0
   -6.6120   17.7340  -32.2550 C   0  0  0  0  0  0  0  0  0  0  0  0
   -6.7210   19.0910  -32.7920 N   0  0  0  0  0  0  0  0  0  0  0  0
   -7.4350   20.0790  -32.0400 C   0  0  0  0  0  0  0  0  0  0  0  0
   -6.7470   20.8990  -31.1970 N   0  0  0  0  0  0  0  0  0  0  0  0
   -7.3690   21.8490  -30.4500 C   0  0  0  0  0  0  0  0  0  0  0  0
   -8.7530   22.0090  -30.5350 C   0  0  0  0  0  0  0  0  0  0  0  0
   -9.4870   21.1830  -31.3880 C   0  0  0  0  0  0  0  0  0  0  0  0
   -8.8370   20.1940  -32.1440 C   0  0  0  0  0  0  0  0  0  0  0  0
   -9.6280   19.2940  -33.0510 C   0  0  0  0  0  0  0  0  0  0  0  0
   -6.4260   19.3400  -34.2020 C   0  0  0  0  0  0  0  0  0  0  0  0
   -5.0720   18.7190  -34.5910 C   0  0  0  0  0  0  0  0  0  0  0  0
   -1.8490   19.2710  -33.6440 C   0  0  0  0  0  0  0  0  0  0  0  0
   -1.0320   18.1740  -34.2850 C   0  0  0  0  0  0  0  0  0  0  0  0
    0.4341   22.0459  -35.9382 H   0  0  0  0  0  0  0  0  0  0  0  0
    0.4395   20.2626  -36.1541 H   0  0  0  0  0  0  0  0  0  0  0  0
   -1.1151   21.1626  -36.1541 H   0  0  0  0  0  0  0  0  0  0  0  0
   -3.0386   22.5511  -29.8692 H   0  0  0  0  0  0  0  0  0  0  0  0
   -4.6636   24.4853  -29.2299 H   0  0  0  0  0  0  0  0  0  0  0  0
   -6.4171   25.0264  -31.1232 H   0  0  0  0  0  0  0  0  0  0  0  0
   -4.6580   19.7900  -31.8980 H   0  0  0  0  0  0  0  0  0  0  0  0
   -2.8421   16.8672  -33.1858 H   0  0  0  0  0  0  0  0  0  0  0  0
   -4.0086   17.3908  -31.9129 H   0  0  0  0  0  0  0  0  0  0  0  0
   -6.6511   16.5423  -34.0570 H   0  0  0  0  0  0  0  0  0  0  0  0
   -5.5918   15.9009  -32.7355 H   0  0  0  0  0  0  0  0  0  0  0  0
   -7.6193   17.3514  -32.0336 H   0  0  0  0  0  0  0  0  0  0  0  0
   -6.0050   17.7643  -31.3381 H   0  0  0  0  0  0  0  0  0  0  0  0
   -6.7815   22.4920  -29.7782 H   0  0  0  0  0  0  0  0  0  0  0  0
   -9.2606   22.7789  -29.9353 H   0  0  0  0  0  0  0  0  0  0  0  0
  -10.5770   21.3071  -31.4682 H   0  0  0  0  0  0  0  0  0  0  0  0
  -10.2342   18.6043  -32.4454 H   0  0  0  0  0  0  0  0  0  0  0  0
  -10.2890   19.9024  -33.6858 H   0  0  0  0  0  0  0  0  0  0  0  0
   -8.9398   18.7166  -33.6858 H   0  0  0  0  0  0  0  0  0  0  0  0
   -7.2189   18.8950  -34.8211 H   0  0  0  0  0  0  0  0  0  0  0  0
   -6.3781   20.4264  -34.3675 H   0  0  0  0  0  0  0  0  0  0  0  0
   -5.0835   18.5199  -35.6728 H   0  0  0  0  0  0  0  0  0  0  0  0
   -4.2990   19.4436  -34.2951 H   0  0  0  0  0  0  0  0  0  0  0  0
   -0.5708   17.5548  -33.5015 H   0  0  0  0  0  0  0  0  0  0  0  0
   -1.6854   17.5477  -34.9101 H   0  0  0  0  0  0  0  0  0  0  0  0
   -0.2448   18.6207  -34.9101 H   0  0  0  0  0  0  0  0  0  0  0  0
  1  2  1  0
  2  3  1  0
  3  4  2  0
  4  5  1  0
  5  6  1  0
  6  7  2  0
  7  8  1  0
  8  9  2  0
  9 10  1  0
  5 11  2  0
 11 12  1  0
 12 13  1  0
 13 14  1  0
 14 15  1  0
 15 16  1  0
 16 17  1  0
 17 18  1  0
 18 19  2  0
 19 20  1  0
 20 21  2  0
 21 22  1  0
 22 23  2  0
 23 24  1  0
 17 25  1  0
 25 26  1  0
 12 27  2  0
 27 28  1  0
 27  3  1  0
 10  6  1  0
 26 14  1  0
 23 18  1  0
  1 29  1  0
  1 30  1  0
  1 31  1  0
  7 32  1  0
  8 33  1  0
  9 34  1  0
 11 35  1  0
 13 36  1  0
 13 37  1  0
 15 38  1  0
 15 39  1  0
 16 40  1  0
 16 41  1  0
 20 42  1  0
 21 43  1  0
 22 44  1  0
 24 45  1  0
 24 46  1  0
 24 47  1  0
 25 48  1  0
 25 49  1  0
 26 50  1  0
 26 51  1  0
 28 52  1  0
 28 53  1  0
 28 54  1  0
M  CHG  1  11   1
M  END
>  <UniqueID>  (18) 
17

>  <SMILES>  (18) 
COc1nc(-c2cccs2)[nH+]c(CN2CCN(c3ncccc3C)CC2)c1C

>  <Energy>  (18) 
95.43793607977133

>  <Genealogy>  (18) 
COc1nc(-c2cccs2)[nH+]c(CN2CCN(c3ncccc3C)CC2)c1C (protonated)
COc1nc(-c2cccs2)[nH+]c(CN2CCN(c3ncccc3C)CC2)c1C (3D coordinates assigned)
COc1nc(-c2cccs2)[nH+]c(CN2CCN(c3ncccc3C)CC2)c1C (nonaromatic ring conformer: 95.43793607977133 kcal/mol)

>  <smiles>  (18) 
COc1nc(-c2cccs2)nc(CN2CCN(c3ncccc3C)CC2)c1C

>  <score_type>  (18) 
oracle

>  <origin>  (18) 
adg

>  <m_score__min__energy>  (18) 
-7.9299999999999997

>  <m_primary>  (18) 
energy

$$$$
18:0
     RDKit          3D

 37 39  0  0  0  0  0  0  0  0999 V2000
   -9.3200   21.1620  -31.9740 C   0  0  0  0  0  0  0  0  0  0  0  0
   -8.5170   20.0640  -31.2840 C   0  0  0  0  0  0  0  0  0  0  0  0
   -7.7330   19.2460  -32.2900 C   0  0  0  0  0  0  0  0  0  0  0  0
   -7.9980   17.8630  -32.3540 C   0  0  0  0  0  0  0  0  0  0  0  0
   -7.2280   17.0220  -33.1590 C   0  0  0  0  0  0  0  0  0  0  0  0
   -6.1660   17.5400  -33.8930 C   0  0  0  0  0  0  0  0  0  0  0  0
   -5.8810   18.9040  -33.8410 C   0  0  0  0  0  0  0  0  0  0  0  0
   -6.6670   19.7790  -33.0740 C   0  0  0  0  0  0  0  0  0  0  0  0
   -6.3100   21.1760  -33.0840 N   0  0  0  0  0  0  0  0  0  0  0  0
   -5.1030   21.7290  -32.5380 C   0  0  0  0  0  0  0  0  0  0  0  0
   -3.9050   21.0280  -32.7510 C   0  0  0  0  0  0  0  0  0  0  0  0
   -2.7180   21.4440  -32.1470 C   0  0  0  0  0  0  0  0  0  0  0  0
   -2.7140   22.5610  -31.3130 C   0  0  0  0  0  0  0  0  0  0  0  0
   -3.8870   23.2900  -31.1100 C   0  0  0  0  0  0  0  0  0  0  0  0
   -5.0800   22.9250  -31.7700 C   0  0  0  0  0  0  0  0  0  0  0  0
   -6.2160   23.8840  -31.6940 C   0  0  0  0  0  0  0  0  0  0  0  0
   -7.2240   23.7580  -32.4370 O   0  0  0  0  0  0  0  0  0  0  0  0
   -6.1040   25.1270  -30.8530 C   0  0  0  0  0  0  0  0  0  0  0  0
   -5.0790   24.9450  -29.7330 C   0  0  0  0  0  0  0  0  0  0  0  0
   -3.8710   24.3920  -30.2500 O   0  0  0  0  0  0  0  0  0  0  0  0
   -9.7900   21.8046  -31.2150 H   0  0  0  0  0  0  0  0  0  0  0  0
   -8.6496   21.7668  -32.6023 H   0  0  0  0  0  0  0  0  0  0  0  0
  -10.0995   20.7064  -32.6023 H   0  0  0  0  0  0  0  0  0  0  0  0
   -7.8165   20.5249  -30.5720 H   0  0  0  0  0  0  0  0  0  0  0  0
   -9.2171   19.3960  -30.7609 H   0  0  0  0  0  0  0  0  0  0  0  0
   -8.8229   17.4408  -31.7614 H   0  0  0  0  0  0  0  0  0  0  0  0
   -7.4613   15.9484  -33.2130 H   0  0  0  0  0  0  0  0  0  0  0  0
   -5.5506   16.8732  -34.5149 H   0  0  0  0  0  0  0  0  0  0  0  0
   -5.0271   19.3007  -34.4097 H   0  0  0  0  0  0  0  0  0  0  0  0
   -6.9760   21.8410  -33.5390 H   0  0  0  0  0  0  0  0  0  0  0  0
   -3.9023   20.1409  -33.4014 H   0  0  0  0  0  0  0  0  0  0  0  0
   -1.7851   20.8904  -32.3290 H   0  0  0  0  0  0  0  0  0  0  0  0
   -1.7837   22.8689  -30.8133 H   0  0  0  0  0  0  0  0  0  0  0  0
   -5.7921   25.9661  -31.4923 H   0  0  0  0  0  0  0  0  0  0  0  0
   -7.0849   25.3302  -30.3985 H   0  0  0  0  0  0  0  0  0  0  0  0
   -4.8639   25.9223  -29.2762 H   0  0  0  0  0  0  0  0  0  0  0  0
   -5.4920   24.2583  -28.9794 H   0  0  0  0  0  0  0  0  0  0  0  0
  1  2  1  0
  2  3  1  0
  3  4  2  0
  4  5  1  0
  5  6  2  0
  6  7  1  0
  7  8  2  0
  8  9  1  0
  9 10  1  0
 10 11  2  0
 11 12  1  0
 12 13  2  0
 13 14  1  0
 14 15  2  0
 15 16  1  0
 16 17  2  0
 16 18  1  0
 18 19  1  0
 19 20  1  0
  8  3  1  0
 15 10  1  0
 20 14  1  0
  1 21  1  0
  1 22  1  0
  1 23  1  0
  2 24  1  0
  2 25  1  0
  4 26  1  0
  5 27  1  0
  6 28  1  0
  7 29  1  0
  9 30  1  0
 11 31  1  0
 12 32  1  0
 13 33  1  0
 18 34  1  0
 18 35  1  0
 19 36  1  0
 19 37  1  0
M  END
>  <UniqueID>  (19) 
18

>  <SMILES>  (19) 
CCc1ccccc1Nc1cccc2c1C(=O)CCO2

>  <Energy>  (19) 
51.93593434543466

>  <Genealogy>  (19) 
CCc1ccccc1Nc1cccc2c1C(=O)CCO2 (3D coordinates assigned)
CCc1ccccc1Nc1cccc2c1C(=O)CCO2 (nonaromatic ring conformer: 51.93593434543466 kcal/mol)

>  <smiles>  (19) 
CCc1ccccc1Nc1cccc2c1C(=O)CCO2

>  <score_type>  (19) 
oracle

>  <origin>  (19) 
adg

>  <m_score__min__energy>  (19) 
-8.0600000000000005

>  <m_primary>  (19) 
energy

$$$$
19:0
     RDKit          3D

 22 23  0  0  0  0  0  0  0  0999 V2000
   -4.3460   22.6990  -28.3220 C   0  0  0  0  0  0  0  0  0  0  0  0
   -4.3910   23.6340  -29.4400 N   0  0  0  0  0  0  0  0  0  0  0  0
   -5.3910   23.8670  -30.3130 C   0  0  0  0  0  0  0  0  0  0  0  0
   -6.9510   22.9810  -30.3650 S   0  0  0  0  0  0  0  0  0  0  0  0
   -6.3650   21.7920  -31.5820 C   0  0  0  0  0  0  0  0  0  0  0  0
   -4.9900   21.7150  -31.8460 C   0  0  0  0  0  0  0  0  0  0  0  0
   -4.5030   20.8110  -32.7930 C   0  0  0  0  0  0  0  0  0  0  0  0
   -5.3840   19.9690  -33.4730 C   0  0  0  0  0  0  0  0  0  0  0  0
   -6.7540   20.0220  -33.2000 C   0  0  0  0  0  0  0  0  0  0  0  0
   -7.2510   20.9260  -32.2520 C   0  0  0  0  0  0  0  0  0  0  0  0
   -9.1270   20.8880  -31.8600 Br  0  0  0  0  0  0  0  0  0  0  0  0
   -5.0770   24.8610  -31.1690 N   0  0  0  0  0  0  0  0  0  0  0  0
   -3.8690   25.2950  -30.8370 N   0  0  0  0  0  0  0  0  0  0  0  0
   -3.4740   24.5520  -29.7890 C   0  0  0  0  0  0  0  0  0  0  0  0
   -2.3700   24.7070  -29.2030 O   0  0  0  0  0  0  0  0  0  0  0  0
   -4.3729   23.2581  -27.3751 H   0  0  0  0  0  0  0  0  0  0  0  0
   -5.2127   22.0236  -28.3738 H   0  0  0  0  0  0  0  0  0  0  0  0
   -3.4185   22.1099  -28.3738 H   0  0  0  0  0  0  0  0  0  0  0  0
   -4.2913   22.3698  -31.3046 H   0  0  0  0  0  0  0  0  0  0  0  0
   -3.4243   20.7628  -33.0029 H   0  0  0  0  0  0  0  0  0  0  0  0
   -5.0002   19.2632  -34.2243 H   0  0  0  0  0  0  0  0  0  0  0  0
   -7.4447   19.3511  -33.7317 H   0  0  0  0  0  0  0  0  0  0  0  0
  1  2  1  0
  2  3  1  0
  3  4  1  0
  4  5  1  0
  5  6  2  0
  6  7  1  0
  7  8  2  0
  8  9  1  0
  9 10  2  0
 10 11  1  0
  3 12  2  0
 12 13  1  0
 13 14  1  0
 14 15  2  0
 14  2  1  0
 10  5  1  0
  1 16  1  0
  1 17  1  0
  1 18  1  0
  6 19  1  0
  7 20  1  0
  8 21  1  0
  9 22  1  0
M  CHG  1  13  -1
M  END
>  <UniqueID>  (20) 
19

>  <SMILES>  (20) 
Cn1c(Sc2ccccc2Br)n[n-]c1=O

>  <Energy>  (20) 
55.687669299249954

>  <Genealogy>  (20) 
Cn1c(Sc2ccccc2Br)n[n-]c1=O (protonated)
Cn1c(Sc2ccccc2Br)n[n-]c1=O (3D coordinates assigned)
Cn1c(Sc2ccccc2Br)n[n-]c1=O (optimized conformer: 55.687669299249954 kcal/mol)

>  <smiles>  (20) 
Cn1c(Sc2ccccc2Br)n[nH]c1=O

>  <score_type>  (20) 
oracle

>  <origin>  (20) 
adg

>  <m_score__min__energy>  (20) 
-8.5099999999999998

>  <m_primary>  (20) 
energy

$$$$
20:0
     RDKit          3D

 48 50  0  0  0  0  0  0  0  0999 V2000
    0.2510   21.0490  -28.5040 C   0  0  0  0  0  0  0  0  0  0  0  0
   -0.8400   20.2230  -27.8830 C   0  0  0  0  0  0  0  0  0  0  0  0
   -0.5420   18.9730  -27.3170 C   0  0  0  0  0  0  0  0  0  0  0  0
   -1.5500   18.2040  -26.7260 C   0  0  0  0  0  0  0  0  0  0  0  0
   -2.8620   18.6810  -26.6860 C   0  0  0  0  0  0  0  0  0  0  0  0
   -3.1710   19.9260  -27.2380 C   0  0  0  0  0  0  0  0  0  0  0  0
   -2.1680   20.7000  -27.8410 C   0  0  0  0  0  0  0  0  0  0  0  0
   -2.5060   21.9720  -28.4110 N   0  0  0  0  0  0  0  0  0  0  0  0
   -2.1690   22.2250  -29.8170 C   0  0  0  0  0  0  0  0  0  0  0  0
   -2.9140   23.4540  -30.3590 C   0  0  0  0  0  0  0  0  0  0  0  0
   -4.1790   23.6540  -29.6280 N   0  0  0  0  0  0  0  0  0  0  0  0
   -4.9820   24.6610  -30.2980 C   0  0  0  0  0  0  0  0  0  0  0  0
   -4.4220   25.6410  -30.8610 O   0  0  0  0  0  0  0  0  0  0  0  0
   -6.4330   24.4730  -30.5170 C   0  0  0  0  0  0  0  0  0  0  0  0
   -7.0220   23.3230  -30.8770 C   0  0  0  0  0  0  0  0  0  0  0  0
   -6.3240   22.1860  -31.5090 C   0  0  0  0  0  0  0  0  0  0  0  0
   -5.0840   22.2710  -31.7190 O   0  0  0  0  0  0  0  0  0  0  0  0
   -7.0450   20.9390  -31.8710 C   0  0  0  0  0  0  0  0  0  0  0  0
   -8.3980   20.7760  -31.5150 C   0  0  0  0  0  0  0  0  0  0  0  0
   -9.0730   19.5900  -31.8140 C   0  0  0  0  0  0  0  0  0  0  0  0
   -8.4080   18.5500  -32.4690 C   0  0  0  0  0  0  0  0  0  0  0  0
   -7.0650   18.6960  -32.8270 C   0  0  0  0  0  0  0  0  0  0  0  0
   -6.2230   17.3750  -33.6180 Cl  0  0  0  0  0  0  0  0  0  0  0  0
   -6.3850   19.8820  -32.5280 C   0  0  0  0  0  0  0  0  0  0  0  0
   -3.8960   24.0450  -28.2300 C   0  0  0  0  0  0  0  0  0  0  0  0
   -2.9460   23.0510  -27.5210 C   0  0  0  0  0  0  0  0  0  0  0  0
    0.8589   21.5092  -27.7111 H   0  0  0  0  0  0  0  0  0  0  0  0
    0.8885   20.4051  -29.1277 H   0  0  0  0  0  0  0  0  0  0  0  0
   -0.1958   21.8373  -29.1277 H   0  0  0  0  0  0  0  0  0  0  0  0
    0.4911   18.5959  -27.3385 H   0  0  0  0  0  0  0  0  0  0  0  0
   -1.3090   17.2223  -26.2922 H   0  0  0  0  0  0  0  0  0  0  0  0
   -3.6528   18.0754  -26.2192 H   0  0  0  0  0  0  0  0  0  0  0  0
   -4.2043   20.3012  -27.1999 H   0  0  0  0  0  0  0  0  0  0  0  0
   -1.0858   22.3976  -29.9000 H   0  0  0  0  0  0  0  0  0  0  0  0
   -2.4708   21.3482  -30.4087 H   0  0  0  0  0  0  0  0  0  0  0  0
   -2.2803   24.3447  -30.2366 H   0  0  0  0  0  0  0  0  0  0  0  0
   -3.1395   23.2929  -31.4235 H   0  0  0  0  0  0  0  0  0  0  0  0
   -4.6970   22.7440  -29.6220 H   0  0  0  0  0  0  0  0  0  0  0  0
   -7.0826   25.3489  -30.3726 H   0  0  0  0  0  0  0  0  0  0  0  0
   -8.1007   23.2198  -30.6881 H   0  0  0  0  0  0  0  0  0  0  0  0
   -8.9276   21.5893  -30.9972 H   0  0  0  0  0  0  0  0  0  0  0  0
  -10.1303   19.4745  -31.5332 H   0  0  0  0  0  0  0  0  0  0  0  0
   -8.9414   17.6168  -32.7027 H   0  0  0  0  0  0  0  0  0  0  0  0
   -5.3268   19.9897  -32.8082 H   0  0  0  0  0  0  0  0  0  0  0  0
   -3.4296   25.0412  -28.2292 H   0  0  0  0  0  0  0  0  0  0  0  0
   -4.8499   24.0464  -27.6822 H   0  0  0  0  0  0  0  0  0  0  0  0
   -2.0612   23.5994  -27.1654 H   0  0  0  0  0  0  0  0  0  0  0  0
   -3.4978   22.5949  -26.6859 H   0  0  0  0  0  0  0  0  0  0  0  0
  1  2  1  0
  2  3  2  0
  3  4  1  0
  4  5  2  0
  5  6  1  0
  6  7  2  0
  7  8  1  0
  8  9  1  0
  9 10  1  0
 10 11  1  0
 11 12  1  0
 12 13  2  0
 12 14  1  0
 14 15  2  3
 15 16  1  0
 16 17  2  0
 16 18  1  0
 18 19  2  0
 19 20  1  0
 20 21  2  0
 21 22  1  0
 22 23  1  0
 22 24  2  0
 11 25  1  0
 25 26  1  0
  7  2  1  0
 26  8  1  0
 24 18  1  0
  1 27  1  0
  1 28  1  0
  1 29  1  0
  3 30  1  0
  4 31  1  0
  5 32  1  0
  6 33  1  0
  9 34  1  0
  9 35  1  0
 10 36  1  0
 10 37  1  0
 11 38  1  0
 14 39  1  0
 15 40  1  0
 19 41  1  0
 20 42  1  0
 21 43  1  0
 24 44  1  0
 25 45  1  0
 25 46  1  0
 26 47  1  0
 26 48  1  0
M  CHG  1  11   1
M  END
>  <UniqueID>  (21) 
20

>  <SMILES>  (21) 
Cc1ccccc1N1CC[NH+](C(=O)C=CC(=O)c2cccc(Cl)c2)CC1

>  <Energy>  (21) 
69.19379201030402

>  <Genealogy>  (21) 
Cc1ccccc1N1CC[NH+](C(=O)C=CC(=O)c2cccc(Cl)c2)CC1 (protonated)
Cc1ccccc1N1CC[NH+](C(=O)C=CC(=O)c2cccc(Cl)c2)CC1 (3D coordinates assigned)
Cc1ccccc1N1CC[NH+](C(=O)C=CC(=O)c2cccc(Cl)c2)CC1 (nonaromatic ring conformer: 69.19379201030402 kcal/mol)

>  <smiles>  (21) 
Cc1ccccc1N1CCN(C(=O)C=CC(=O)c2cccc(Cl)c2)CC1

>  <score_type>  (21) 
oracle

>  <origin>  (21) 
adg

>  <m_score__min__energy>  (21) 
-8.7599999999999998

>  <m_primary>  (21) 
energy

$$$$
21:0
     RDKit          3D

 32 35  0  0  0  0  0  0  0  0999 V2000
   -4.9810   23.3340  -33.7290 H   0  0  0  0  0  0  0  0  0  0  0  0
   -4.6930   22.6740  -32.9740 N   0  0  0  0  0  0  0  0  0  0  0  0
   -4.8470   22.9400  -31.7150 C   0  0  0  0  0  0  0  0  0  0  0  0
   -3.8870   23.5130  -30.9670 N   0  0  0  0  0  0  0  0  0  0  0  0
   -4.4980   23.6140  -29.7640 C   0  0  0  0  0  0  0  0  0  0  0  0
   -3.8520   24.1900  -28.5650 C   0  0  0  0  0  0  0  0  0  0  0  0
   -2.4620   24.3880  -28.5350 C   0  0  0  0  0  0  0  0  0  0  0  0
   -1.8455   24.1165  -29.4046 H   0  0  0  0  0  0  0  0  0  0  0  0
   -1.8680   24.9310  -27.3960 C   0  0  0  0  0  0  0  0  0  0  0  0
   -0.7801   25.0907  -27.3647 H   0  0  0  0  0  0  0  0  0  0  0  0
   -2.6560   25.2710  -26.2970 C   0  0  0  0  0  0  0  0  0  0  0  0
   -2.1961   25.6993  -25.3942 H   0  0  0  0  0  0  0  0  0  0  0  0
   -4.0340   25.0620  -26.3550 C   0  0  0  0  0  0  0  0  0  0  0  0
   -4.6647   25.3263  -25.4934 H   0  0  0  0  0  0  0  0  0  0  0  0
   -4.6020   24.5320  -27.4740 N   0  0  0  0  0  0  0  0  0  0  0  0
   -5.6370   24.3910  -27.4800 H   0  0  0  0  0  0  0  0  0  0  0  0
   -5.7580   23.1280  -29.7780 N   0  0  0  0  0  0  0  0  0  0  0  0
   -5.9760   22.7170  -31.0130 N   0  0  0  0  0  0  0  0  0  0  0  0
   -7.1710   22.0410  -31.4370 C   0  0  0  0  0  0  0  0  0  0  0  0
   -8.3330   22.7430  -31.5170 N   0  0  0  0  0  0  0  0  0  0  0  0
   -9.4830   22.1730  -31.9590 C   0  0  0  0  0  0  0  0  0  0  0  0
  -10.4073   22.7675  -32.0061 H   0  0  0  0  0  0  0  0  0  0  0  0
   -9.4950   20.8710  -32.3430 N   0  0  0  0  0  0  0  0  0  0  0  0
   -8.3690   20.1170  -32.2830 C   0  0  0  0  0  0  0  0  0  0  0  0
   -8.4110   18.8110  -32.6620 N   0  0  0  0  0  0  0  0  0  0  0  0
   -7.3130   18.0130  -32.5990 C   0  0  0  0  0  0  0  0  0  0  0  0
   -7.3777   16.9638  -32.9229 H   0  0  0  0  0  0  0  0  0  0  0  0
   -6.1030   18.5220  -32.1240 C   0  0  0  0  0  0  0  0  0  0  0  0
   -5.2155   17.8749  -32.0637 H   0  0  0  0  0  0  0  0  0  0  0  0
   -6.0270   19.8580  -31.7260 C   0  0  0  0  0  0  0  0  0  0  0  0
   -5.0802   20.2652  -31.3417 H   0  0  0  0  0  0  0  0  0  0  0  0
   -7.1620   20.6820  -31.8170 C   0  0  0  0  0  0  0  0  0  0  0  0
  1  2  1  0
  2  3  2  0
  3  4  1  0
  4  5  2  0
  5  6  1  0
  6  7  2  0
  7  8  1  0
  7  9  1  0
  9 10  1  0
  9 11  2  0
 11 12  1  0
 11 13  1  0
 13 14  1  0
 13 15  2  0
 15 16  1  0
  5 17  1  0
 17 18  1  0
 18 19  1  0
 19 20  2  0
 20 21  1  0
 21 22  1  0
 21 23  2  0
 23 24  1  0
 24 25  2  0
 25 26  1  0
 26 27  1  0
 26 28  2  0
 28 29  1  0
 28 30  1  0
 30 31  1  0
 30 32  2  0
 18  3  1  0
 32 19  1  0
 15  6  1  0
 32 24  1  0
M  CHG  2  15   1  17  -1
M  END
>  <UniqueID>  (22) 
21

>  <SMILES>  (22) 
[H]/N=c1/nc(-c2cccc[nH+]2)[n-]n1-c1ncnc2ncccc12

>  <Energy>  (22) 
83.38840526505821

>  <Genealogy>  (22) 
N=c1nc(-c2cccc[nH+]2)[n-]n1-c1ncnc2ncccc12 (protonated)
[H]/N=c1/nc(-c2cccc[nH+]2)[n-]n1-c1ncnc2ncccc12 (cis-trans isomerization)
[H]/N=c1/nc(-c2cccc[nH+]2)[n-]n1-c1ncnc2ncccc12 (3D coordinates assigned)
[H]/N=c1/nc(-c2cccc[nH+]2)[n-]n1-c1ncnc2ncccc12 (optimized conformer: 83.38840526505821 kcal/mol)

>  <smiles>  (22) 
N=c1nc(-c2ccccn2)[nH]n1-c1ncnc2ncccc12

>  <score_type>  (22) 
oracle

>  <origin>  (22) 
adg

>  <m_score__min__energy>  (22) 
-7.4699999999999998

>  <m_primary>  (22) 
energy

$$$$
22:0
     RDKit          3D

 37 40  0  0  0  0  0  0  0  0999 V2000
   -4.6260   20.8950  -31.8090 O   0  0  0  0  0  0  0  0  0  0  0  0
   -5.6930   21.5180  -31.5510 C   0  0  0  0  0  0  0  0  0  0  0  0
   -6.9410   20.9440  -31.8510 C   0  0  0  0  0  0  0  0  0  0  0  0
   -7.0580   19.6720  -32.4430 C   0  0  0  0  0  0  0  0  0  0  0  0
   -8.3210   19.1420  -32.7240 C   0  0  0  0  0  0  0  0  0  0  0  0
   -9.4740   19.8720  -32.4190 C   0  0  0  0  0  0  0  0  0  0  0  0
   -9.3690   21.1350  -31.8310 C   0  0  0  0  0  0  0  0  0  0  0  0
   -8.1110   21.6770  -31.5450 C   0  0  0  0  0  0  0  0  0  0  0  0
   -8.0270   22.8790  -30.9850 O   0  0  0  0  0  0  0  0  0  0  0  0
   -6.8670   23.4540  -30.6870 C   0  0  0  0  0  0  0  0  0  0  0  0
   -6.8560   24.7220  -30.1000 C   0  0  0  0  0  0  0  0  0  0  0  0
   -5.6450   25.3400  -29.7800 C   0  0  0  0  0  0  0  0  0  0  0  0
   -4.4230   24.6920  -30.0410 C   0  0  0  0  0  0  0  0  0  0  0  0
   -3.1790   25.2680  -29.7320 O   0  0  0  0  0  0  0  0  0  0  0  0
   -2.3430   24.8910  -28.6370 C   0  0  0  0  0  0  0  0  0  0  0  0
   -2.1770   23.3950  -28.5810 C   0  0  0  0  0  0  0  0  0  0  0  0
   -2.8990   22.6290  -27.6510 C   0  0  0  0  0  0  0  0  0  0  0  0
   -2.7310   21.2410  -27.5990 C   0  0  0  0  0  0  0  0  0  0  0  0
   -1.8360   20.6110  -28.4670 C   0  0  0  0  0  0  0  0  0  0  0  0
   -1.1040   21.3670  -29.3870 C   0  0  0  0  0  0  0  0  0  0  0  0
   -1.2690   22.7550  -29.4420 C   0  0  0  0  0  0  0  0  0  0  0  0
   -4.4330   23.4230  -30.6320 C   0  0  0  0  0  0  0  0  0  0  0  0
   -5.6470   22.7930  -30.9590 C   0  0  0  0  0  0  0  0  0  0  0  0
   -6.1540   19.0939  -32.6850 H   0  0  0  0  0  0  0  0  0  0  0  0
   -8.4079   18.1477  -33.1864 H   0  0  0  0  0  0  0  0  0  0  0  0
  -10.4654   19.4511  -32.6424 H   0  0  0  0  0  0  0  0  0  0  0  0
  -10.2786   21.7055  -31.5920 H   0  0  0  0  0  0  0  0  0  0  0  0
   -7.8054   25.2358  -29.8890 H   0  0  0  0  0  0  0  0  0  0  0  0
   -5.6462   26.3397  -29.3210 H   0  0  0  0  0  0  0  0  0  0  0  0
   -1.3552   25.3591  -28.7596 H   0  0  0  0  0  0  0  0  0  0  0  0
   -2.8134   25.2288  -27.7018 H   0  0  0  0  0  0  0  0  0  0  0  0
   -3.5992   23.1223  -26.9609 H   0  0  0  0  0  0  0  0  0  0  0  0
   -3.3044   20.6451  -26.8737 H   0  0  0  0  0  0  0  0  0  0  0  0
   -1.7072   19.5193  -28.4265 H   0  0  0  0  0  0  0  0  0  0  0  0
   -0.3976   20.8701  -30.0683 H   0  0  0  0  0  0  0  0  0  0  0  0
   -0.6858   23.3479  -30.1620 H   0  0  0  0  0  0  0  0  0  0  0  0
   -3.4813   22.9133  -30.8428 H   0  0  0  0  0  0  0  0  0  0  0  0
  1  2  2  0
  2  3  1  0
  3  4  2  0
  4  5  1  0
  5  6  2  0
  6  7  1  0
  7  8  2  0
  8  9  1  0
  9 10  1  0
 10 11  2  0
 11 12  1  0
 12 13  2  0
 13 14  1  0
 14 15  1  0
 15 16  1  0
 16 17  2  0
 17 18  1  0
 18 19  2  0
 19 20  1  0
 20 21  2  0
 13 22  1  0
 22 23  2  0
 23  2  1  0
  8  3  1  0
 23 10  1  0
 21 16  1  0
  4 24  1  0
  5 25  1  0
  6 26  1  0
  7 27  1  0
 11 28  1  0
 12 29  1  0
 15 30  1  0
 15 31  1  0
 17 32  1  0
 18 33  1  0
 19 34  1  0
 20 35  1  0
 21 36  1  0
 22 37  1  0
M  END
>  <UniqueID>  (23) 
22

>  <SMILES>  (23) 
O=c1c2ccccc2oc2ccc(OCc3ccccc3)cc12

>  <Energy>  (23) 
50.45980599698947

>  <Genealogy>  (23) 
O=c1c2ccccc2oc2ccc(OCc3ccccc3)cc12 (3D coordinates assigned)
O=c1c2ccccc2oc2ccc(OCc3ccccc3)cc12 (optimized conformer: 50.45980599698947 kcal/mol)

>  <smiles>  (23) 
O=c1c2ccccc2oc2ccc(OCc3ccccc3)cc12

>  <score_type>  (23) 
oracle

>  <origin>  (23) 
adg

>  <m_score__min__energy>  (23) 
-9.0399999999999991

>  <m_primary>  (23) 
energy

$$$$
23:0
     RDKit          3D

 36 37  0  0  0  0  0  0  0  0999 V2000
    1.8350   24.5470  -27.4440 C   0  0  0  0  0  0  0  0  0  0  0  0
    0.5670   25.2640  -26.9900 C   0  0  0  0  0  0  0  0  0  0  0  0
   -0.6530   24.4710  -27.3670 C   0  0  0  0  0  0  0  0  0  0  0  0
   -1.1160   23.2830  -26.8080 C   0  0  0  0  0  0  0  0  0  0  0  0
   -0.5000   22.4590  -25.7570 C   0  0  0  0  0  0  0  0  0  0  0  0
   -0.4720   22.8390  -24.5590 O   0  0  0  0  0  0  0  0  0  0  0  0
   -2.3470   23.0250  -27.3850 C   0  0  0  0  0  0  0  0  0  0  0  0
   -2.6600   24.0010  -28.2660 N   0  0  0  0  0  0  0  0  0  0  0  0
   -3.9420   24.1790  -28.9600 C   0  0  2  0  0  0  0  0  0  0  0  0
   -4.8260   22.9260  -28.7970 C   0  0  0  0  0  0  0  0  0  0  0  0
   -5.7430   22.7480  -29.9810 C   0  0  0  0  0  0  0  0  0  0  0  0
   -5.4810   21.7510  -30.9350 C   0  0  0  0  0  0  0  0  0  0  0  0
   -6.2920   21.6300  -32.0680 C   0  0  0  0  0  0  0  0  0  0  0  0
   -7.3620   22.5080  -32.2620 C   0  0  0  0  0  0  0  0  0  0  0  0
   -7.6250   23.5070  -31.3210 C   0  0  0  0  0  0  0  0  0  0  0  0
   -6.8190   23.6300  -30.1850 C   0  0  0  0  0  0  0  0  0  0  0  0
   -3.7110   24.5040  -30.4110 C   0  0  0  0  0  0  0  0  0  0  0  0
   -3.9310   25.6700  -30.8350 O   0  0  0  0  0  0  0  0  0  0  0  0
   -3.2030   23.5470  -31.2810 O   0  0  0  0  0  0  0  0  0  0  0  0
   -1.6390   24.8830  -28.2400 C   0  0  0  0  0  0  0  0  0  0  0  0
   -1.6190   26.0690  -28.9650 O   0  0  0  0  0  0  0  0  0  0  0  0
    2.4083   24.2228  -26.5630 H   0  0  0  0  0  0  0  0  0  0  0  0
    1.5633   23.6688  -28.0482 H   0  0  0  0  0  0  0  0  0  0  0  0
    2.4475   25.2325  -28.0482 H   0  0  0  0  0  0  0  0  0  0  0  0
    0.5937   25.3887  -25.8974 H   0  0  0  0  0  0  0  0  0  0  0  0
    0.5185   26.2457  -27.4840 H   0  0  0  0  0  0  0  0  0  0  0  0
   -0.0543   21.4897  -26.0249 H   0  0  0  0  0  0  0  0  0  0  0  0
   -2.9785   22.1530  -27.1596 H   0  0  0  0  0  0  0  0  0  0  0  0
   -4.4766   25.0257  -28.5047 H   0  0  0  0  0  0  0  0  0  0  0  0
   -4.1799   22.0403  -28.7071 H   0  0  0  0  0  0  0  0  0  0  0  0
   -5.4424   23.0495  -27.8944 H   0  0  0  0  0  0  0  0  0  0  0  0
   -4.6350   21.0629  -30.7905 H   0  0  0  0  0  0  0  0  0  0  0  0
   -6.0873   20.8422  -32.8079 H   0  0  0  0  0  0  0  0  0  0  0  0
   -7.9969   22.4126  -33.1552 H   0  0  0  0  0  0  0  0  0  0  0  0
   -8.4673   24.1977  -31.4741 H   0  0  0  0  0  0  0  0  0  0  0  0
   -7.0274   24.4197  -29.4482 H   0  0  0  0  0  0  0  0  0  0  0  0
  1  2  1  0
  2  3  1  0
  3  4  1  0
  4  5  1  0
  5  6  2  0
  4  7  2  0
  7  8  1  0
  8  9  1  0
  9 10  1  0
 10 11  1  0
 11 12  2  0
 12 13  1  0
 13 14  2  0
 14 15  1  0
 15 16  2  0
  9 17  1  0
 17 18  2  0
 17 19  1  0
  8 20  1  0
 20 21  1  0
 20  3  2  0
 16 11  1  0
  1 22  1  0
  1 23  1  0
  1 24  1  0
  2 25  1  0
  2 26  1  0
  5 27  1  0
  7 28  1  0
  9 29  1  1
 10 30  1  0
 10 31  1  0
 12 32  1  0
 13 33  1  0
 14 34  1  0
 15 35  1  0
 16 36  1  0
M  CHG  2  19  -1  21  -1
M  END
>  <UniqueID>  (24) 
23

>  <SMILES>  (24) 
CCc1c(C=O)cn([C@H](Cc2ccccc2)C(=O)[O-])c1[O-]

>  <Energy>  (24) 
55.899852663382205

>  <Genealogy>  (24) 
CCc1c(C=O)cn(C(Cc2ccccc2)C(=O)[O-])c1[O-] (protonated)
CCc1c(C=O)cn([C@H](Cc2ccccc2)C(=O)[O-])c1[O-] (chirality)
CCc1c(C=O)cn([C@H](Cc2ccccc2)C(=O)[O-])c1[O-] (3D coordinates assigned)
CCc1c(C=O)cn([C@H](Cc2ccccc2)C(=O)[O-])c1[O-] (optimized conformer: 55.899852663382205 kcal/mol)

>  <smiles>  (24) 
CCc1c(C=O)cn(C(Cc2ccccc2)C(=O)O)c1O

>  <score_type>  (24) 
oracle

>  <origin>  (24) 
adg

>  <m_score__min__energy>  (24) 
-11.19

>  <m_primary>  (24) 
energy

$$$$
24:0
     RDKit          3D

 39 41  0  0  0  0  0  0  0  0999 V2000
   -8.9170   18.6800  -31.2270 C   0  0  0  0  0  0  0  0  0  0  0  0
   -7.9840   18.9610  -32.4190 C   0  0  2  0  0  0  0  0  0  0  0  0
   -6.7040   18.0930  -32.3840 C   0  0  0  0  0  0  0  0  0  0  0  0
   -5.5740   18.5580  -33.3050 C   0  0  0  0  0  0  0  0  0  0  0  0
   -4.7250   19.6660  -32.6930 C   0  0  0  0  0  0  0  0  0  0  0  0
   -5.3740   21.0580  -32.8100 C   0  0  0  0  0  0  0  0  0  0  0  0
   -6.6600   21.2100  -32.0860 N   0  0  1  0  0  0  0  0  0  0  0  0
   -6.9470   22.5770  -31.6830 C   0  0  0  0  0  0  0  0  0  0  0  0
   -8.1010   23.0660  -31.8310 O   0  0  0  0  0  0  0  0  0  0  0  0
   -5.8970   23.4270  -31.0850 C   0  0  0  0  0  0  0  0  0  0  0  0
   -5.2760   23.2150  -29.8700 C   0  0  0  0  0  0  0  0  0  0  0  0
   -4.3880   24.2650  -29.7760 C   0  0  0  0  0  0  0  0  0  0  0  0
   -3.4610   24.5320  -28.6690 C   0  0  0  0  0  0  0  0  0  0  0  0
   -3.7840   24.4980  -27.3190 C   0  0  0  0  0  0  0  0  0  0  0  0
   -2.6980   24.7940  -26.4860 C   0  0  0  0  0  0  0  0  0  0  0  0
   -1.5230   25.0610  -27.1750 C   0  0  0  0  0  0  0  0  0  0  0  0
   -1.8330   24.9280  -28.8230 S   0  0  0  0  0  0  0  0  0  0  0  0
   -4.4950   25.0120  -30.8500 O   0  0  0  0  0  0  0  0  0  0  0  0
   -5.3940   24.5370  -31.6630 N   0  0  0  0  0  0  0  0  0  0  0  0
   -7.8210   20.4940  -32.6860 C   0  0  0  0  0  0  0  0  0  0  0  0
   -8.3704   18.8446  -30.2867 H   0  0  0  0  0  0  0  0  0  0  0  0
   -9.7826   19.3573  -31.2713 H   0  0  0  0  0  0  0  0  0  0  0  0
   -9.2646   17.6373  -31.2713 H   0  0  0  0  0  0  0  0  0  0  0  0
   -8.4652   18.6119  -33.3445 H   0  0  0  0  0  0  0  0  0  0  0  0
   -6.3226   18.0911  -31.3522 H   0  0  0  0  0  0  0  0  0  0  0  0
   -7.0012   17.0975  -32.7454 H   0  0  0  0  0  0  0  0  0  0  0  0
   -4.9237   17.6982  -33.5236 H   0  0  0  0  0  0  0  0  0  0  0  0
   -6.0379   18.9639  -34.2160 H   0  0  0  0  0  0  0  0  0  0  0  0
   -4.5698   19.4404  -31.6276 H   0  0  0  0  0  0  0  0  0  0  0  0
   -3.7765   19.6981  -33.2492 H   0  0  0  0  0  0  0  0  0  0  0  0
   -4.6668   21.7995  -32.4100 H   0  0  0  0  0  0  0  0  0  0  0  0
   -5.6009   21.2042  -33.8764 H   0  0  0  0  0  0  0  0  0  0  0  0
   -6.5090   20.7070  -31.1780 H   0  0  0  0  0  0  0  0  0  0  0  0
   -5.4487   22.4022  -29.1492 H   0  0  0  0  0  0  0  0  0  0  0  0
   -4.7903   24.2626  -26.9423 H   0  0  0  0  0  0  0  0  0  0  0  0
   -2.7694   24.8131  -25.3885 H   0  0  0  0  0  0  0  0  0  0  0  0
   -0.5542   25.3161  -26.7208 H   0  0  0  0  0  0  0  0  0  0  0  0
   -8.7315   20.9854  -32.3124 H   0  0  0  0  0  0  0  0  0  0  0  0
   -7.6398   20.5564  -33.7692 H   0  0  0  0  0  0  0  0  0  0  0  0
  1  2  1  0
  2  3  1  0
  3  4  1  0
  4  5  1  0
  5  6  1  0
  6  7  1  0
  7  8  1  0
  8  9  2  0
  8 10  1  0
 10 11  1  0
 11 12  2  0
 12 13  1  0
 13 14  2  0
 14 15  1  0
 15 16  2  0
 16 17  1  0
 12 18  1  0
 18 19  1  0
  7 20  1  0
 20  2  1  0
 19 10  2  0
 17 13  1  0
  1 21  1  0
  1 22  1  0
  1 23  1  0
  2 24  1  6
  3 25  1  0
  3 26  1  0
  4 27  1  0
  4 28  1  0
  5 29  1  0
  5 30  1  0
  6 31  1  0
  6 32  1  0
  7 33  1  1
 11 34  1  0
 14 35  1  0
 15 36  1  0
 16 37  1  0
 20 38  1  0
 20 39  1  0
M  CHG  1   7   1
M  END
>  <UniqueID>  (25) 
24

>  <SMILES>  (25) 
C[C@@H]1CCCC[N@@H+](C(=O)c2cc(-c3cccs3)on2)C1

>  <Energy>  (25) 
114.03196729042132

>  <Genealogy>  (25) 
CC1CCCC[NH+](C(=O)c2cc(-c3cccs3)on2)C1 (protonated)
C[C@@H]1CCCC[N@@H+](C(=O)c2cc(-c3cccs3)on2)C1 (chirality)
C[C@@H]1CCCC[N@@H+](C(=O)c2cc(-c3cccs3)on2)C1 (3D coordinates assigned)
C[C@@H]1CCCC[N@@H+](C(=O)c2cc(-c3cccs3)on2)C1 (nonaromatic ring conformer: 114.03196729042132 kcal/mol)

>  <smiles>  (25) 
CC1CCCCN(C(=O)c2cc(-c3cccs3)on2)C1

>  <score_type>  (25) 
oracle

>  <origin>  (25) 
adg

>  <m_score__min__energy>  (25) 
-6.6100000000000003

>  <m_primary>  (25) 
energy

$$$$
25:0
     RDKit          3D

 57 61  0  0  0  0  0  0  0  0999 V2000
   -5.8186   13.7373  -33.3947 H   0  0  0  0  0  0  0  0  0  0  0  0
   -5.4170   14.7530  -33.5250 C   0  0  0  0  0  0  0  0  0  0  0  0
   -4.1870   15.0640  -33.0400 N   0  0  0  0  0  0  0  0  0  0  0  0
   -3.6590   16.3110  -33.1760 C   0  0  0  0  0  0  0  0  0  0  0  0
   -2.6574   16.5278  -32.7762 H   0  0  0  0  0  0  0  0  0  0  0  0
   -4.3840   17.3190  -33.8220 C   0  0  0  0  0  0  0  0  0  0  0  0
   -3.8090   18.5910  -33.9560 O   0  0  0  0  0  0  0  0  0  0  0  0
   -4.3440   19.7740  -33.4280 C   0  0  0  0  0  0  0  0  0  0  0  0
   -3.5330   20.8800  -33.1300 C   0  0  0  0  0  0  0  0  0  0  0  0
   -2.1550   20.7950  -33.3870 O   0  0  0  0  0  0  0  0  0  0  0  0
   -1.1320   20.9550  -32.4090 C   0  0  0  0  0  0  0  0  0  0  0  0
   -1.5722   20.8861  -31.4033 H   0  0  0  0  0  0  0  0  0  0  0  0
   -0.3781   20.1639  -32.5342 H   0  0  0  0  0  0  0  0  0  0  0  0
   -0.6556   21.9386  -32.5342 H   0  0  0  0  0  0  0  0  0  0  0  0
   -4.1180   22.0470  -32.5990 C   0  0  0  0  0  0  0  0  0  0  0  0
   -3.4706   22.8831  -32.2961 H   0  0  0  0  0  0  0  0  0  0  0  0
   -5.5180   22.1670  -32.4470 C   0  0  0  0  0  0  0  0  0  0  0  0
   -6.1820   23.3640  -31.9850 C   0  0  0  0  0  0  0  0  0  0  0  0
   -5.6340   24.5480  -31.8920 N   0  0  0  0  0  0  0  0  0  0  0  0
   -4.9910   25.1920  -30.7870 C   0  0  0  0  0  0  0  0  0  0  0  0
   -5.6140   26.0770  -30.1450 O   0  0  0  0  0  0  0  0  0  0  0  0
   -3.6280   24.9130  -30.4460 N   0  0  0  0  0  0  0  0  0  0  0  0
   -3.2190   23.9530  -29.4280 C   0  0  0  0  0  0  0  0  0  0  0  0
   -3.7679   23.0111  -29.5747 H   0  0  0  0  0  0  0  0  0  0  0  0
   -2.1373   23.7735  -29.5163 H   0  0  0  0  0  0  0  0  0  0  0  0
   -3.5230   24.5040  -28.0330 C   0  0  0  0  0  0  0  0  0  0  0  0
   -3.5939   25.6000  -28.0937 H   0  0  0  0  0  0  0  0  0  0  0  0
   -4.4695   24.0573  -27.6946 H   0  0  0  0  0  0  0  0  0  0  0  0
   -2.4750   24.1480  -27.0440 N   0  0  0  0  0  0  0  0  0  0  0  0
   -1.3710   23.3940  -27.6720 C   0  0  0  0  0  0  0  0  0  0  0  0
   -1.7966   22.6494  -28.3608 H   0  0  0  0  0  0  0  0  0  0  0  0
   -0.7916   22.9112  -26.8712 H   0  0  0  0  0  0  0  0  0  0  0  0
   -0.4410   24.2900  -28.4410 C   0  0  0  0  0  0  0  0  0  0  0  0
    0.2760   23.8160  -29.3600 O   0  0  0  0  0  0  0  0  0  0  0  0
   -0.2920   25.6600  -28.0640 N   0  0  0  0  0  0  0  0  0  0  0  0
   -1.2170   26.3210  -27.1500 C   0  0  0  0  0  0  0  0  0  0  0  0
   -1.9562   26.8878  -27.7350 H   0  0  0  0  0  0  0  0  0  0  0  0
   -0.6415   26.9939  -26.4973 H   0  0  0  0  0  0  0  0  0  0  0  0
   -1.9520   25.2980  -26.2690 C   0  0  0  0  0  0  0  0  0  0  0  0
   -2.7953   25.8015  -25.7737 H   0  0  0  0  0  0  0  0  0  0  0  0
   -1.2278   24.9059  -25.5398 H   0  0  0  0  0  0  0  0  0  0  0  0
   -7.5040   23.2890  -31.6580 N   0  0  0  0  0  0  0  0  0  0  0  0
   -8.1900   22.1690  -31.8500 N   0  0  0  0  0  0  0  0  0  0  0  0
   -9.4920   21.9660  -31.6050 C   0  0  0  0  0  0  0  0  0  0  0  0
  -10.1875   22.7003  -31.1726 H   0  0  0  0  0  0  0  0  0  0  0  0
   -9.8130   20.6740  -31.9890 C   0  0  0  0  0  0  0  0  0  0  0  0
  -10.8022   20.1984  -31.9153 H   0  0  0  0  0  0  0  0  0  0  0  0
   -8.6520   20.0900  -32.4850 C   0  0  0  0  0  0  0  0  0  0  0  0
   -8.5383   19.0686  -32.8772 H   0  0  0  0  0  0  0  0  0  0  0  0
   -7.6680   21.0610  -32.3830 C   0  0  0  0  0  0  0  0  0  0  0  0
   -6.3090   21.0080  -32.7020 C   0  0  0  0  0  0  0  0  0  0  0  0
   -5.7210   19.8430  -33.2190 C   0  0  0  0  0  0  0  0  0  0  0  0
   -6.3527   18.9758  -33.4617 H   0  0  0  0  0  0  0  0  0  0  0  0
   -5.6520   17.0080  -34.3430 C   0  0  0  0  0  0  0  0  0  0  0  0
   -6.2339   17.7775  -34.8716 H   0  0  0  0  0  0  0  0  0  0  0  0
   -6.1720   15.7220  -34.1890 C   0  0  0  0  0  0  0  0  0  0  0  0
   -7.1671   15.4741  -34.5869 H   0  0  0  0  0  0  0  0  0  0  0  0
  1  2  1  0
  2  3  2  0
  3  4  1  0
  4  5  1  0
  4  6  2  0
  6  7  1  0
  7  8  1  0
  8  9  2  0
  9 10  1  0
 10 11  1  0
 11 12  1  0
 11 13  1  0
 11 14  1  0
  9 15  1  0
 15 16  1  0
 15 17  2  0
 17 18  1  0
 18 19  2  0
 19 20  1  0
 20 21  2  0
 20 22  1  0
 22 23  1  0
 23 24  1  0
 23 25  1  0
 23 26  1  0
 26 27  1  0
 26 28  1  0
 26 29  1  0
 29 30  1  0
 30 31  1  0
 30 32  1  0
 30 33  1  0
 33 34  2  0
 33 35  1  0
 35 36  1  0
 36 37  1  0
 36 38  1  0
 36 39  1  0
 39 40  1  0
 39 41  1  0
 18 42  1  0
 42 43  1  0
 43 44  1  0
 44 45  1  0
 44 46  2  0
 46 47  1  0
 46 48  1  0
 48 49  1  0
 48 50  2  0
 50 51  1  0
 51 52  2  0
 52 53  1  0
  6 54  1  0
 54 55  1  0
 54 56  2  0
 56 57  1  0
 56  2  1  0
 52  8  1  0
 51 17  1  0
 39 29  1  0
 50 43  1  0
M  CHG  3  22  -1  35  -1  42  -1
M  END
>  <UniqueID>  (26) 
25

>  <SMILES>  (26) 
COc1cc2/c(=N\C(=O)[N-]CCN3CC[N-]C(=O)C3)[n-]n3cccc3c2cc1Oc1cccnc1

>  <Energy>  (26) 
128.3714821204008

>  <Genealogy>  (26) 
COc1cc2c(=NC(=O)[N-]CCN3CC[N-]C(=O)C3)[n-]n3cccc3c2cc1Oc1cccnc1 (protonated)
COc1cc2/c(=N\C(=O)[N-]CCN3CC[N-]C(=O)C3)[n-]n3cccc3c2cc1Oc1cccnc1 (cis-trans isomerization)
COc1cc2/c(=N\C(=O)[N-]CCN3CC[N-]C(=O)C3)[n-]n3cccc3c2cc1Oc1cccnc1 (3D coordinates assigned)
COc1cc2/c(=N\C(=O)[N-]CCN3CC[N-]C(=O)C3)[n-]n3cccc3c2cc1Oc1cccnc1 (nonaromatic ring conformer: 128.3714821204008 kcal/mol)

>  <smiles>  (26) 
COc1cc2c(=NC(=O)NCCN3CCNC(=O)C3)[nH]n3cccc3c2cc1Oc1cccnc1

>  <score_type>  (26) 
oracle

>  <origin>  (26) 
adg

>  <m_score__min__energy>  (26) 
-11.92

>  <m_primary>  (26) 
energy

$$$$
26:0
     RDKit          3D

 49 51  0  0  0  0  0  0  0  0999 V2000
   -5.6990   19.3220  -33.8210 C   0  0  0  0  0  0  0  0  0  0  0  0
   -5.1430   20.6240  -32.6780 S   0  0  0  0  0  0  0  0  0  0  0  0
   -6.8170   21.1540  -32.2770 C   0  0  0  0  0  0  0  0  0  0  0  0
   -7.8830   20.3320  -32.6680 C   0  0  0  0  0  0  0  0  0  0  0  0
   -9.1970   20.6710  -32.3380 C   0  0  0  0  0  0  0  0  0  0  0  0
   -9.4570   21.8330  -31.6130 C   0  0  0  0  0  0  0  0  0  0  0  0
   -8.4040   22.6630  -31.2180 C   0  0  0  0  0  0  0  0  0  0  0  0
   -7.0760   22.3410  -31.5510 C   0  0  0  0  0  0  0  0  0  0  0  0
   -5.9880   23.2460  -31.1220 C   0  0  0  0  0  0  0  0  0  0  0  0
   -5.1740   23.6960  -31.9740 O   0  0  0  0  0  0  0  0  0  0  0  0
   -5.8580   23.6170  -29.7430 N   0  0  0  0  0  0  0  0  0  0  0  0
   -4.7810   24.5030  -29.2910 C   0  0  0  0  0  0  0  0  0  0  0  0
   -3.4770   23.7220  -28.9480 C   0  0  0  0  0  0  0  0  0  0  0  0
   -2.6200   24.6060  -28.0020 C   0  0  0  0  0  0  0  0  0  0  0  0
   -3.0630   24.8320  -26.6760 C   0  0  0  0  0  0  0  0  0  0  0  0
   -2.3500   25.6600  -25.8050 C   0  0  0  0  0  0  0  0  0  0  0  0
   -1.1870   26.2930  -26.2360 C   0  0  0  0  0  0  0  0  0  0  0  0
   -0.7350   26.1030  -27.5400 C   0  0  0  0  0  0  0  0  0  0  0  0
   -1.4430   25.2770  -28.4190 C   0  0  0  0  0  0  0  0  0  0  0  0
   -2.7780   23.3080  -30.2920 C   0  0  0  0  0  0  0  0  0  0  0  0
   -1.8910   22.0390  -30.2190 C   0  0  0  0  0  0  0  0  0  0  0  0
   -1.4710   21.6210  -28.7990 C   0  0  0  0  0  0  0  0  0  0  0  0
   -0.8820   20.3700  -28.8680 F   0  0  0  0  0  0  0  0  0  0  0  0
   -0.5140   22.4990  -28.3240 F   0  0  0  0  0  0  0  0  0  0  0  0
   -2.6600   21.5590  -27.8130 C   0  0  0  0  0  0  0  0  0  0  0  0
   -3.8770   22.4000  -28.2370 C   0  0  0  0  0  0  0  0  0  0  0  0
   -6.0669   18.4605  -33.2444 H   0  0  0  0  0  0  0  0  0  0  0  0
   -6.5091   19.7119  -34.4548 H   0  0  0  0  0  0  0  0  0  0  0  0
   -4.8571   19.0065  -34.4548 H   0  0  0  0  0  0  0  0  0  0  0  0
   -7.6831   19.4132  -33.2389 H   0  0  0  0  0  0  0  0  0  0  0  0
  -10.0274   20.0207  -32.6504 H   0  0  0  0  0  0  0  0  0  0  0  0
  -10.4923   22.0971  -31.3514 H   0  0  0  0  0  0  0  0  0  0  0  0
   -8.6157   23.5758  -30.6418 H   0  0  0  0  0  0  0  0  0  0  0  0
   -6.5090   23.1870  -29.0500 H   0  0  0  0  0  0  0  0  0  0  0  0
   -4.5601   25.2269  -30.0892 H   0  0  0  0  0  0  0  0  0  0  0  0
   -5.1222   25.0068  -28.3746 H   0  0  0  0  0  0  0  0  0  0  0  0
   -3.9857   24.3466  -26.3251 H   0  0  0  0  0  0  0  0  0  0  0  0
   -2.7084   25.8122  -24.7762 H   0  0  0  0  0  0  0  0  0  0  0  0
   -0.6259   26.9422  -25.5477 H   0  0  0  0  0  0  0  0  0  0  0  0
    0.1829   26.6049  -27.8799 H   0  0  0  0  0  0  0  0  0  0  0  0
   -1.0810   25.1461  -29.4495 H   0  0  0  0  0  0  0  0  0  0  0  0
   -3.5631   23.1301  -31.0416 H   0  0  0  0  0  0  0  0  0  0  0  0
   -2.1005   24.1360  -30.5478 H   0  0  0  0  0  0  0  0  0  0  0  0
   -2.4501   21.2054  -30.6690 H   0  0  0  0  0  0  0  0  0  0  0  0
   -0.9620   22.2815  -30.7559 H   0  0  0  0  0  0  0  0  0  0  0  0
   -2.9798   20.5103  -27.7240 H   0  0  0  0  0  0  0  0  0  0  0  0
   -2.3027   21.9785  -26.8610 H   0  0  0  0  0  0  0  0  0  0  0  0
   -4.4938   21.8035  -28.9253 H   0  0  0  0  0  0  0  0  0  0  0  0
   -4.4282   22.6688  -27.3238 H   0  0  0  0  0  0  0  0  0  0  0  0
  1  2  1  0
  2  3  1  0
  3  4  2  0
  4  5  1  0
  5  6  2  0
  6  7  1  0
  7  8  2  0
  8  9  1  0
  9 10  2  0
  9 11  1  0
 11 12  1  0
 12 13  1  0
 13 14  1  0
 14 15  2  0
 15 16  1  0
 16 17  2  0
 17 18  1  0
 18 19  2  0
 13 20  1  0
 20 21  1  0
 21 22  1  0
 22 23  1  0
 22 24  1  0
 22 25  1  0
 25 26  1  0
  8  3  1  0
 26 13  1  0
 19 14  1  0
  1 27  1  0
  1 28  1  0
  1 29  1  0
  4 30  1  0
  5 31  1  0
  6 32  1  0
  7 33  1  0
 11 34  1  0
 12 35  1  0
 12 36  1  0
 15 37  1  0
 16 38  1  0
 17 39  1  0
 18 40  1  0
 19 41  1  0
 20 42  1  0
 20 43  1  0
 21 44  1  0
 21 45  1  0
 25 46  1  0
 25 47  1  0
 26 48  1  0
 26 49  1  0
M  END
>  <UniqueID>  (27) 
26

>  <SMILES>  (27) 
CSc1ccccc1C(=O)NCC1(c2ccccc2)CCC(F)(F)CC1

>  <Energy>  (27) 
63.266557094509

>  <Genealogy>  (27) 
CSc1ccccc1C(=O)NCC1(c2ccccc2)CCC(F)(F)CC1 (3D coordinates assigned)
CSc1ccccc1C(=O)NCC1(c2ccccc2)CCC(F)(F)CC1 (nonaromatic ring conformer: 63.266557094509 kcal/mol)

>  <smiles>  (27) 
CSc1ccccc1C(=O)NCC1(c2ccccc2)CCC(F)(F)CC1

>  <score_type>  (27) 
oracle

>  <origin>  (27) 
adg

>  <m_score__min__energy>  (27) 
-8.6099999999999994

>  <m_primary>  (27) 
energy

$$$$
27:0
     RDKit          3D

 38 40  0  0  0  0  0  0  0  0999 V2000
   -2.6620   22.3080  -31.7250 C   0  0  0  0  0  0  0  0  0  0  0  0
   -4.0380   22.8620  -31.5610 C   0  0  0  0  0  0  0  0  0  0  0  0
   -5.1530   22.2610  -32.0190 N   0  0  0  0  0  0  0  0  0  0  0  0
   -6.1930   22.9990  -31.6520 N   0  0  0  0  0  0  0  0  0  0  0  0
   -7.5720   22.6610  -32.0090 C   0  0  0  0  0  0  0  0  0  0  0  0
   -7.7450   21.1660  -32.1030 C   0  0  0  0  0  0  0  0  0  0  0  0
   -6.9920   20.4220  -33.0280 C   0  0  0  0  0  0  0  0  0  0  0  0
   -7.1410   19.0340  -33.1070 C   0  0  0  0  0  0  0  0  0  0  0  0
   -8.0450   18.3770  -32.2690 C   0  0  0  0  0  0  0  0  0  0  0  0
   -8.8050   19.1080  -31.3530 C   0  0  0  0  0  0  0  0  0  0  0  0
   -8.6620   20.4970  -31.2680 C   0  0  0  0  0  0  0  0  0  0  0  0
   -9.4240   21.1870  -30.3840 F   0  0  0  0  0  0  0  0  0  0  0  0
   -5.7650   24.0810  -30.9580 C   0  0  0  0  0  0  0  0  0  0  0  0
   -6.6470   25.1750  -30.4330 C   0  0  0  0  0  0  0  0  0  0  0  0
   -4.3860   23.9920  -30.8520 C   0  0  0  0  0  0  0  0  0  0  0  0
   -3.4720   24.8950  -30.2180 N   0  0  0  0  0  0  0  0  0  0  0  0
   -2.4400   24.5090  -29.3050 C   0  0  0  0  0  0  0  0  0  0  0  0
   -1.4940   25.2970  -29.0390 O   0  0  0  0  0  0  0  0  0  0  0  0
   -2.5170   23.2040  -28.6390 C   0  0  0  0  0  0  0  0  0  0  0  0
   -3.6140   22.6970  -27.9670 C   0  0  0  0  0  0  0  0  0  0  0  0
   -3.2280   21.4550  -27.5100 C   0  0  0  0  0  0  0  0  0  0  0  0
   -1.9250   21.2870  -27.9310 C   0  0  0  0  0  0  0  0  0  0  0  0
   -0.8420   19.7540  -27.6010 Br  0  0  0  0  0  0  0  0  0  0  0  0
   -1.5270   22.3430  -28.6010 O   0  0  0  0  0  0  0  0  0  0  0  0
   -2.2182   22.1293  -30.7345 H   0  0  0  0  0  0  0  0  0  0  0  0
   -2.7122   21.3600  -32.2807 H   0  0  0  0  0  0  0  0  0  0  0  0
   -2.0413   23.0263  -32.2807 H   0  0  0  0  0  0  0  0  0  0  0  0
   -8.2517   23.0558  -31.2395 H   0  0  0  0  0  0  0  0  0  0  0  0
   -7.8044   23.1070  -32.9873 H   0  0  0  0  0  0  0  0  0  0  0  0
   -6.2817   20.9346  -33.6933 H   0  0  0  0  0  0  0  0  0  0  0  0
   -6.5451   18.4583  -33.8305 H   0  0  0  0  0  0  0  0  0  0  0  0
   -8.1583   17.2846  -32.3304 H   0  0  0  0  0  0  0  0  0  0  0  0
   -9.5187   18.5895  -30.6959 H   0  0  0  0  0  0  0  0  0  0  0  0
   -6.6348   25.1598  -29.3332 H   0  0  0  0  0  0  0  0  0  0  0  0
   -6.2773   26.1474  -30.7904 H   0  0  0  0  0  0  0  0  0  0  0  0
   -7.6757   25.0200  -30.7904 H   0  0  0  0  0  0  0  0  0  0  0  0
   -4.5907   23.1832  -27.8264 H   0  0  0  0  0  0  0  0  0  0  0  0
   -3.8342   20.7442  -26.9292 H   0  0  0  0  0  0  0  0  0  0  0  0
  1  2  1  0
  2  3  2  0
  3  4  1  0
  4  5  1  0
  5  6  1  0
  6  7  2  0
  7  8  1  0
  8  9  2  0
  9 10  1  0
 10 11  2  0
 11 12  1  0
  4 13  1  0
 13 14  1  0
 13 15  2  0
 15 16  1  0
 16 17  1  0
 17 18  2  0
 17 19  1  0
 19 20  2  0
 20 21  1  0
 21 22  2  0
 22 23  1  0
 22 24  1  0
 15  2  1  0
 24 19  1  0
 11  6  1  0
  1 25  1  0
  1 26  1  0
  1 27  1  0
  5 28  1  0
  5 29  1  0
  7 30  1  0
  8 31  1  0
  9 32  1  0
 10 33  1  0
 14 34  1  0
 14 35  1  0
 14 36  1  0
 20 37  1  0
 21 38  1  0
M  CHG  1  16  -1
M  END
>  <UniqueID>  (28) 
27

>  <SMILES>  (28) 
Cc1nn(Cc2ccccc2F)c(C)c1[N-]C(=O)c1ccc(Br)o1

>  <Energy>  (28) 
98.82963428129813

>  <Genealogy>  (28) 
Cc1nn(Cc2ccccc2F)c(C)c1[N-]C(=O)c1ccc(Br)o1 (protonated)
Cc1nn(Cc2ccccc2F)c(C)c1[N-]C(=O)c1ccc(Br)o1 (3D coordinates assigned)
Cc1nn(Cc2ccccc2F)c(C)c1[N-]C(=O)c1ccc(Br)o1 (optimized conformer: 98.82963428129813 kcal/mol)

>  <smiles>  (28) 
Cc1nn(Cc2ccccc2F)c(C)c1NC(=O)c1ccc(Br)o1

>  <score_type>  (28) 
oracle

>  <origin>  (28) 
adg

>  <m_score__min__energy>  (28) 
-9.8000000000000007

>  <m_primary>  (28) 
energy

$$$$
28:0
     RDKit          3D

 34 36  0  0  0  0  0  0  0  0999 V2000
   -5.8530   16.3860  -32.9180 Cl  0  0  0  0  0  0  0  0  0  0  0  0
   -6.7810   17.8580  -32.6690 C   0  0  0  0  0  0  0  0  0  0  0  0
   -8.0400   17.7730  -32.0630 C   0  0  0  0  0  0  0  0  0  0  0  0
   -8.8000   18.9270  -31.8540 C   0  0  0  0  0  0  0  0  0  0  0  0
   -8.3070   20.1730  -32.2540 C   0  0  0  0  0  0  0  0  0  0  0  0
   -9.2870   21.6510  -31.9950 S   0  0  0  0  0  0  0  0  0  0  0  0
   -7.8780   22.5930  -31.4110 C   0  0  0  0  0  0  0  0  0  0  0  0
   -7.2770   23.5430  -32.2420 C   0  0  0  0  0  0  0  0  0  0  0  0
   -6.1720   24.2720  -31.7910 C   0  0  0  0  0  0  0  0  0  0  0  0
   -5.6500   24.0470  -30.5030 C   0  0  0  0  0  0  0  0  0  0  0  0
   -4.5280   24.7960  -30.0070 N   0  0  0  0  0  0  0  0  0  0  0  0
   -3.2500   24.2240  -29.6940 C   0  0  0  0  0  0  0  0  0  0  0  0
   -3.0440   22.9550  -29.6130 N   0  0  0  0  0  0  0  0  0  0  0  0
   -1.6590   22.7110  -29.2260 C   0  0  0  0  0  0  0  0  0  0  0  0
   -1.0400   24.1070  -29.0430 C   0  0  0  0  0  0  0  0  0  0  0  0
   -2.1260   25.0120  -29.3640 N   0  0  0  0  0  0  0  0  0  0  0  0
   -6.2780   23.1120  -29.6660 C   0  0  0  0  0  0  0  0  0  0  0  0
   -7.3820   22.3840  -30.1200 C   0  0  0  0  0  0  0  0  0  0  0  0
   -7.0460   20.2640  -32.8560 C   0  0  0  0  0  0  0  0  0  0  0  0
   -6.2810   19.1120  -33.0680 C   0  0  0  0  0  0  0  0  0  0  0  0
   -4.7060   19.2640  -33.8340 Cl  0  0  0  0  0  0  0  0  0  0  0  0
   -8.4326   16.7942  -31.7501 H   0  0  0  0  0  0  0  0  0  0  0  0
   -9.7873   18.8551  -31.3742 H   0  0  0  0  0  0  0  0  0  0  0  0
   -7.6741   23.7175  -33.2529 H   0  0  0  0  0  0  0  0  0  0  0  0
   -5.7085   25.0247  -32.4457 H   0  0  0  0  0  0  0  0  0  0  0  0
   -4.6700   25.8050  -29.7750 H   0  0  0  0  0  0  0  0  0  0  0  0
   -1.6157   22.1433  -28.2848 H   0  0  0  0  0  0  0  0  0  0  0  0
   -1.1199   22.1176  -29.9792 H   0  0  0  0  0  0  0  0  0  0  0  0
   -0.7018   24.2528  -28.0065 H   0  0  0  0  0  0  0  0  0  0  0  0
   -0.1537   24.2653  -29.6749 H   0  0  0  0  0  0  0  0  0  0  0  0
   -2.0870   26.0550  -29.3430 H   0  0  0  0  0  0  0  0  0  0  0  0
   -5.8992   22.9507  -28.6459 H   0  0  0  0  0  0  0  0  0  0  0  0
   -7.8614   21.6455  -29.4606 H   0  0  0  0  0  0  0  0  0  0  0  0
   -6.6553   21.2452  -33.1635 H   0  0  0  0  0  0  0  0  0  0  0  0
  1  2  1  0
  2  3  2  0
  3  4  1  0
  4  5  2  0
  5  6  1  0
  6  7  1  0
  7  8  2  0
  8  9  1  0
  9 10  2  0
 10 11  1  0
 11 12  1  0
 12 13  2  0
 13 14  1  0
 14 15  1  0
 15 16  1  0
 10 17  1  0
 17 18  2  0
  5 19  1  0
 19 20  2  0
 20 21  1  0
 20  2  1  0
 18  7  1  0
 16 12  1  0
  3 22  1  0
  4 23  1  0
  8 24  1  0
  9 25  1  0
 11 26  1  0
 14 27  1  0
 14 28  1  0
 15 29  1  0
 15 30  1  0
 16 31  1  0
 17 32  1  0
 18 33  1  0
 19 34  1  0
M  END
>  <UniqueID>  (29) 
28

>  <SMILES>  (29) 
Clc1ccc(Sc2ccc(NC3=NCCN3)cc2)cc1Cl

>  <Energy>  (29) 
46.8688049674096

>  <Genealogy>  (29) 
Clc1ccc(Sc2ccc(NC3=NCCN3)cc2)cc1Cl (3D coordinates assigned)
Clc1ccc(Sc2ccc(NC3=NCCN3)cc2)cc1Cl (nonaromatic ring conformer: 46.8688049674096 kcal/mol)

>  <smiles>  (29) 
Clc1ccc(Sc2ccc(NC3=NCCN3)cc2)cc1Cl

>  <score_type>  (29) 
oracle

>  <origin>  (29) 
adg

>  <m_score__min__energy>  (29) 
-9.5099999999999998

>  <m_primary>  (29) 
energy

$$$$
29:0
     RDKit          3D

 35 37  0  0  0  0  0  0  0  0999 V2000
   -6.0970   25.5610  -29.5740 O   0  0  0  0  0  0  0  0  0  0  0  0
   -5.0480   24.5180  -29.8400 S   0  0  0  0  0  0  0  0  0  0  0  0
   -3.8840   25.2030  -30.5030 O   0  0  0  0  0  0  0  0  0  0  0  0
   -5.7340   23.3330  -30.9620 C   0  0  0  0  0  0  0  0  0  0  0  0
   -7.1260   23.1810  -31.0580 C   0  0  0  0  0  0  0  0  0  0  0  0
   -7.6730   22.2220  -31.9160 C   0  0  0  0  0  0  0  0  0  0  0  0
   -6.8350   21.4220  -32.6980 C   0  0  0  0  0  0  0  0  0  0  0  0
   -5.4490   21.5910  -32.6300 C   0  0  0  0  0  0  0  0  0  0  0  0
   -4.8990   22.5500  -31.7740 C   0  0  0  0  0  0  0  0  0  0  0  0
   -4.5390   23.8330  -28.3030 N   0  0  2  0  0  0  0  0  0  0  0  0
   -3.4020   24.5480  -27.6890 C   0  0  0  0  0  0  0  0  0  0  0  0
   -2.0930   24.3830  -28.4740 C   0  0  0  0  0  0  0  0  0  0  0  0
   -1.8990   22.9890  -29.0060 C   0  0  0  0  0  0  0  0  0  0  0  0
   -0.6710   22.6500  -29.5970 C   0  0  0  0  0  0  0  0  0  0  0  0
   -0.4810   21.3840  -30.1560 C   0  0  0  0  0  0  0  0  0  0  0  0
   -1.5150   20.4450  -30.1300 C   0  0  0  0  0  0  0  0  0  0  0  0
   -2.7420   20.7740  -29.5520 C   0  0  0  0  0  0  0  0  0  0  0  0
   -2.9530   22.0500  -29.0080 C   0  0  0  0  0  0  0  0  0  0  0  0
   -4.2860   22.3810  -28.3820 C   0  0  0  0  0  0  0  0  0  0  0  0
   -7.7894   23.8190  -30.4557 H   0  0  0  0  0  0  0  0  0  0  0  0
   -8.7642   22.0970  -31.9757 H   0  0  0  0  0  0  0  0  0  0  0  0
   -7.2653   20.6610  -33.3656 H   0  0  0  0  0  0  0  0  0  0  0  0
   -4.7893   20.9678  -33.2516 H   0  0  0  0  0  0  0  0  0  0  0  0
   -3.8087   22.6912  -31.7369 H   0  0  0  0  0  0  0  0  0  0  0  0
   -5.3530   23.9620  -27.6560 H   0  0  0  0  0  0  0  0  0  0  0  0
   -3.6477   25.6190  -27.6389 H   0  0  0  0  0  0  0  0  0  0  0  0
   -3.2427   24.1152  -26.6903 H   0  0  0  0  0  0  0  0  0  0  0  0
   -2.1018   25.0838  -29.3218 H   0  0  0  0  0  0  0  0  0  0  0  0
   -1.2647   24.5889  -27.7801 H   0  0  0  0  0  0  0  0  0  0  0  0
    0.1463   23.3859  -29.6199 H   0  0  0  0  0  0  0  0  0  0  0  0
    0.4838   21.1262  -30.6171 H   0  0  0  0  0  0  0  0  0  0  0  0
   -1.3621   19.4463  -30.5651 H   0  0  0  0  0  0  0  0  0  0  0  0
   -3.5495   20.0276  -29.5227 H   0  0  0  0  0  0  0  0  0  0  0  0
   -5.0814   21.9185  -28.9849 H   0  0  0  0  0  0  0  0  0  0  0  0
   -4.2732   21.9918  -27.3532 H   0  0  0  0  0  0  0  0  0  0  0  0
  1  2  2  0
  2  3  2  0
  2  4  1  0
  4  5  2  0
  5  6  1  0
  6  7  2  0
  7  8  1  0
  8  9  2  0
  2 10  1  0
 10 11  1  0
 11 12  1  0
 12 13  1  0
 13 14  2  0
 14 15  1  0
 15 16  2  0
 16 17  1  0
 17 18  2  0
 18 19  1  0
  9  4  1  0
 19 10  1  0
 18 13  1  0
  5 20  1  0
  6 21  1  0
  7 22  1  0
  8 23  1  0
  9 24  1  0
 10 25  1  1
 11 26  1  0
 11 27  1  0
 12 28  1  0
 12 29  1  0
 14 30  1  0
 15 31  1  0
 16 32  1  0
 17 33  1  0
 19 34  1  0
 19 35  1  0
M  CHG  1  10   1
M  END
>  <UniqueID>  (30) 
29

>  <SMILES>  (30) 
O=S(=O)(c1ccccc1)[N@@H+]1CCc2ccccc2C1

>  <Energy>  (30) 
40.17651488609081

>  <Genealogy>  (30) 
O=S(=O)(c1ccccc1)[NH+]1CCc2ccccc2C1 (protonated)
O=S(=O)(c1ccccc1)[N@@H+]1CCc2ccccc2C1 (chirality)
O=S(=O)(c1ccccc1)[N@@H+]1CCc2ccccc2C1 (3D coordinates assigned)
O=S(=O)(c1ccccc1)[N@@H+]1CCc2ccccc2C1 (nonaromatic ring conformer: 40.17651488609081 kcal/mol)

>  <smiles>  (30) 
O=S(=O)(c1ccccc1)N1CCc2ccccc2C1

>  <score_type>  (30) 
oracle

>  <origin>  (30) 
adg

>  <m_score__min__energy>  (30) 
-7.2699999999999996

>  <m_primary>  (30) 
energy

$$$$
30:0
     RDKit          3D

 40 42  0  0  0  0  0  0  0  0999 V2000
   -4.1230   19.6630  -33.8260 C   0  0  0  0  0  0  0  0  0  0  0  0
   -4.9320   20.3540  -32.7920 N   0  0  2  0  0  0  0  0  0  0  0  0
   -4.2430   20.2470  -31.4740 C   0  0  0  0  0  0  0  0  0  0  0  0
   -3.8090   21.5940  -30.9220 C   0  0  0  0  0  0  0  0  0  0  0  0
   -4.7840   22.5700  -30.6470 C   0  0  0  0  0  0  0  0  0  0  0  0
   -4.4180   23.8100  -30.1170 C   0  0  0  0  0  0  0  0  0  0  0  0
   -3.0760   24.0910  -29.8580 C   0  0  0  0  0  0  0  0  0  0  0  0
   -2.7230   25.2950  -29.3440 F   0  0  0  0  0  0  0  0  0  0  0  0
   -2.0970   23.1320  -30.1280 C   0  0  0  0  0  0  0  0  0  0  0  0
   -2.4520   21.8860  -30.6580 C   0  0  0  0  0  0  0  0  0  0  0  0
   -1.1670   20.7280  -30.9890 Cl  0  0  0  0  0  0  0  0  0  0  0  0
   -6.3250   19.7870  -32.7780 C   0  0  1  0  0  0  0  0  0  0  0  0
   -6.5330   18.6260  -31.7590 C   0  0  0  0  0  0  0  0  0  0  0  0
   -8.0110   18.1730  -31.5820 C   0  0  0  0  0  0  0  0  0  0  0  0
   -9.0280   18.9740  -32.4110 C   0  0  0  0  0  0  0  0  0  0  0  0
   -8.7140   20.4390  -32.3300 C   0  0  0  0  0  0  0  0  0  0  0  0
   -9.7050   21.3960  -32.0780 C   0  0  0  0  0  0  0  0  0  0  0  0
   -9.3530   22.7410  -31.9580 C   0  0  0  0  0  0  0  0  0  0  0  0
   -8.0130   23.1100  -32.0900 C   0  0  0  0  0  0  0  0  0  0  0  0
   -7.0680   22.1690  -32.3470 N   0  0  0  0  0  0  0  0  0  0  0  0
   -7.3810   20.8490  -32.4880 C   0  0  0  0  0  0  0  0  0  0  0  0
   -3.3735   19.0228  -33.3378 H   0  0  0  0  0  0  0  0  0  0  0  0
   -4.7812   19.0440  -34.4534 H   0  0  0  0  0  0  0  0  0  0  0  0
   -3.6145   20.4099  -34.4534 H   0  0  0  0  0  0  0  0  0  0  0  0
   -4.9860   21.3700  -33.0380 H   0  0  0  0  0  0  0  0  0  0  0  0
   -4.9314   19.7786  -30.7552 H   0  0  0  0  0  0  0  0  0  0  0  0
   -3.3352   19.6442  -31.6244 H   0  0  0  0  0  0  0  0  0  0  0  0
   -5.8434   22.3552  -30.8509 H   0  0  0  0  0  0  0  0  0  0  0  0
   -5.1886   24.5654  -29.9037 H   0  0  0  0  0  0  0  0  0  0  0  0
   -1.0401   23.3574  -29.9228 H   0  0  0  0  0  0  0  0  0  0  0  0
   -6.4475   19.3868  -33.7953 H   0  0  0  0  0  0  0  0  0  0  0  0
   -5.9480   17.7600  -32.1022 H   0  0  0  0  0  0  0  0  0  0  0  0
   -6.2063   19.0089  -30.7809 H   0  0  0  0  0  0  0  0  0  0  0  0
   -8.0838   17.1159  -31.8773 H   0  0  0  0  0  0  0  0  0  0  0  0
   -8.2656   18.3436  -30.5256 H   0  0  0  0  0  0  0  0  0  0  0  0
   -8.9798   18.6484  -33.4606 H   0  0  0  0  0  0  0  0  0  0  0  0
  -10.0380   18.7981  -32.0124 H   0  0  0  0  0  0  0  0  0  0  0  0
  -10.7562   21.0888  -31.9751 H   0  0  0  0  0  0  0  0  0  0  0  0
  -10.1227   23.5019  -31.7616 H   0  0  0  0  0  0  0  0  0  0  0  0
   -7.7219   24.1656  -31.9856 H   0  0  0  0  0  0  0  0  0  0  0  0
  1  2  1  0
  2  3  1  0
  3  4  1  0
  4  5  2  0
  5  6  1  0
  6  7  2  0
  7  8  1  0
  7  9  1  0
  9 10  2  0
 10 11  1  0
  2 12  1  0
 12 13  1  0
 13 14  1  0
 14 15  1  0
 15 16  1  0
 16 17  2  0
 17 18  1  0
 18 19  2  0
 19 20  1  0
 20 21  2  0
 10  4  1  0
 21 12  1  0
 21 16  1  0
  1 22  1  0
  1 23  1  0
  1 24  1  0
  2 25  1  6
  3 26  1  0
  3 27  1  0
  5 28  1  0
  6 29  1  0
  9 30  1  0
 12 31  1  6
 13 32  1  0
 13 33  1  0
 14 34  1  0
 14 35  1  0
 15 36  1  0
 15 37  1  0
 17 38  1  0
 18 39  1  0
 19 40  1  0
M  CHG  1   2   1
M  END
>  <UniqueID>  (31) 
30

>  <SMILES>  (31) 
C[N@H+](Cc1ccc(F)cc1Cl)[C@H]1CCCc2cccnc21

>  <Energy>  (31) 
60.05933137617647

>  <Genealogy>  (31) 
C[NH+](Cc1ccc(F)cc1Cl)C1CCCc2cccnc21 (protonated)
C[N@H+](Cc1ccc(F)cc1Cl)[C@H]1CCCc2cccnc21 (chirality)
C[N@H+](Cc1ccc(F)cc1Cl)[C@H]1CCCc2cccnc21 (3D coordinates assigned)
C[N@H+](Cc1ccc(F)cc1Cl)[C@H]1CCCc2cccnc21 (nonaromatic ring conformer: 60.05933137617647 kcal/mol)

>  <smiles>  (31) 
CN(Cc1ccc(F)cc1Cl)C1CCCc2cccnc21

>  <score_type>  (31) 
oracle

>  <origin>  (31) 
adg

>  <m_score__min__energy>  (31) 
-7.0199999999999996

>  <m_primary>  (31) 
energy

$$$$
31:0
     RDKit          3D

 25 27  0  0  0  0  0  0  0  0999 V2000
   -9.1900   22.2200  -31.5920 C   0  0  0  0  0  0  0  0  0  0  0  0
   -7.7480   22.0750  -31.8190 N   0  0  0  0  0  0  0  0  0  0  0  0
   -7.1480   20.8500  -32.3200 C   0  0  0  0  0  0  0  0  0  0  0  0
   -7.8080   19.6770  -32.1910 C   0  0  0  0  0  0  0  0  0  0  0  0
   -7.2500   18.3270  -32.5420 C   0  0  0  0  0  0  0  0  0  0  0  0
   -6.0780   18.3770  -33.9310 S   0  0  0  0  0  0  0  0  0  0  0  0
   -5.0380   19.6180  -33.1130 C   0  0  0  0  0  0  0  0  0  0  0  0
   -5.7960   20.9500  -33.0470 C   0  0  2  0  0  0  0  0  0  0  0  0
   -4.9270   22.0340  -32.4380 C   0  0  0  0  0  0  0  0  0  0  0  0
   -3.6830   22.0670  -32.6460 O   0  0  0  0  0  0  0  0  0  0  0  0
   -5.5540   23.0840  -31.7070 N   0  0  0  0  0  0  0  0  0  0  0  0
   -4.9840   24.1670  -31.2180 N   0  0  0  0  0  0  0  0  0  0  0  0
   -5.9940   24.8630  -30.6460 C   0  0  0  0  0  0  0  0  0  0  0  0
   -7.1950   24.2430  -30.7630 N   0  0  0  0  0  0  0  0  0  0  0  0
   -6.8560   23.1310  -31.4430 C   0  0  0  0  0  0  0  0  0  0  0  0
   -9.3907   22.2402  -30.5107 H   0  0  0  0  0  0  0  0  0  0  0  0
   -9.5404   23.1579  -32.0476 H   0  0  0  0  0  0  0  0  0  0  0  0
   -9.7201   21.3706  -32.0476 H   0  0  0  0  0  0  0  0  0  0  0  0
   -8.8347   19.7141  -31.7980 H   0  0  0  0  0  0  0  0  0  0  0  0
   -6.7306   17.9232  -31.6604 H   0  0  0  0  0  0  0  0  0  0  0  0
   -8.0950   17.6933  -32.8493 H   0  0  0  0  0  0  0  0  0  0  0  0
   -4.7969   19.2814  -32.0939 H   0  0  0  0  0  0  0  0  0  0  0  0
   -4.1065   19.7517  -33.6825 H   0  0  0  0  0  0  0  0  0  0  0  0
   -6.0312   21.2235  -34.0862 H   0  0  0  0  0  0  0  0  0  0  0  0
   -5.8557   25.8296  -30.1396 H   0  0  0  0  0  0  0  0  0  0  0  0
  1  2  1  0
  2  3  1  0
  3  4  2  0
  4  5  1  0
  5  6  1  0
  6  7  1  0
  7  8  1  0
  8  9  1  0
  9 10  2  0
  9 11  1  0
 11 12  1  0
 12 13  2  0
 13 14  1  0
 14 15  2  0
 15  2  1  0
  8  3  1  0
 15 11  1  0
  1 16  1  0
  1 17  1  0
  1 18  1  0
  4 19  1  0
  5 20  1  0
  5 21  1  0
  7 22  1  0
  7 23  1  0
  8 24  1  6
 13 25  1  0
M  END
>  <UniqueID>  (32) 
31

>  <SMILES>  (32) 
CN1C2=CCSC[C@@H]2C(=O)n2ncnc21

>  <Energy>  (32) 
66.48329359567164

>  <Genealogy>  (32) 
CN1C2=CCSC[C@@H]2C(=O)n2ncnc21 (chirality)
CN1C2=CCSC[C@@H]2C(=O)n2ncnc21 (3D coordinates assigned)
CN1C2=CCSC[C@@H]2C(=O)n2ncnc21 (nonaromatic ring conformer: 66.48329359567164 kcal/mol)

>  <smiles>  (32) 
CN1C2=CCSCC2C(=O)n2ncnc21

>  <score_type>  (32) 
oracle

>  <origin>  (32) 
adg

>  <m_score__min__energy>  (32) 
-6.7999999999999998

>  <m_primary>  (32) 
energy

$$$$
32:0
     RDKit          3D

 25 25  0  0  0  0  0  0  0  0999 V2000
   -4.4380   21.6430  -32.7950 C   0  0  0  0  0  0  0  0  0  0  0  0
   -5.1910   20.8810  -31.8610 O   0  0  0  0  0  0  0  0  0  0  0  0
   -6.5480   20.5350  -31.9620 C   0  0  0  0  0  0  0  0  0  0  0  0
   -7.0200   19.0390  -32.5560 S   0  0  0  0  0  0  0  0  0  0  0  0
   -8.6710   19.2870  -32.4410 C   0  0  0  0  0  0  0  0  0  0  0  0
   -8.8840   20.5590  -31.9340 C   0  0  0  0  0  0  0  0  0  0  0  0
   -7.7030   21.2800  -31.6440 C   0  0  0  0  0  0  0  0  0  0  0  0
   -7.6960   22.7070  -31.1260 C   0  0  0  0  0  0  0  0  0  0  0  0
   -7.0890   22.9000  -29.7280 C   0  0  0  0  0  0  0  0  0  0  0  0
   -5.6610   23.2150  -29.8240 N   0  0  0  0  0  0  0  0  0  0  0  0
   -5.4490   24.7110  -30.6790 S   0  0  0  0  0  0  0  0  0  0  0  0
   -3.8320   25.2880  -30.4800 N   0  0  0  0  0  0  0  0  0  0  0  0
   -5.7290   24.5040  -32.1420 O   0  0  0  0  0  0  0  0  0  0  0  0
   -6.4090   25.7300  -30.1350 O   0  0  0  0  0  0  0  0  0  0  0  0
   -3.7647   22.3244  -32.2542 H   0  0  0  0  0  0  0  0  0  0  0  0
   -3.8444   20.9659  -33.4268 H   0  0  0  0  0  0  0  0  0  0  0  0
   -5.1221   22.2285  -33.4268 H   0  0  0  0  0  0  0  0  0  0  0  0
   -9.4525   18.5648  -32.7198 H   0  0  0  0  0  0  0  0  0  0  0  0
   -9.8896   20.9737  -31.7706 H   0  0  0  0  0  0  0  0  0  0  0  0
   -7.1199   23.3215  -31.8334 H   0  0  0  0  0  0  0  0  0  0  0  0
   -8.7521   23.0024  -31.0401 H   0  0  0  0  0  0  0  0  0  0  0  0
   -7.6079   23.7260  -29.2196 H   0  0  0  0  0  0  0  0  0  0  0  0
   -7.2085   21.9669  -29.1579 H   0  0  0  0  0  0  0  0  0  0  0  0
   -5.2000   22.4690  -30.3970 H   0  0  0  0  0  0  0  0  0  0  0  0
   -3.6840   26.0340  -31.1960 H   0  0  0  0  0  0  0  0  0  0  0  0
  1  2  1  0
  2  3  1  0
  3  4  1  0
  4  5  1  0
  5  6  2  0
  6  7  1  0
  7  8  1  0
  8  9  1  0
  9 10  1  0
 10 11  1  0
 11 12  1  0
 11 13  2  0
 11 14  2  0
  7  3  2  0
  1 15  1  0
  1 16  1  0
  1 17  1  0
  5 18  1  0
  6 19  1  0
  8 20  1  0
  8 21  1  0
  9 22  1  0
  9 23  1  0
 10 24  1  0
 12 25  1  0
M  CHG  1  12  -1
M  END
>  <UniqueID>  (33) 
32

>  <SMILES>  (33) 
COc1sccc1CCNS([NH-])(=O)=O

>  <Energy>  (33) 
47.10139216078274

>  <Genealogy>  (33) 
COc1sccc1CCNS([NH-])(=O)=O (protonated)
COc1sccc1CCNS([NH-])(=O)=O (3D coordinates assigned)
COc1sccc1CCNS([NH-])(=O)=O (optimized conformer: 47.10139216078274 kcal/mol)

>  <smiles>  (33) 
COc1sccc1CCNS(N)(=O)=O

>  <score_type>  (33) 
oracle

>  <origin>  (33) 
adg

>  <m_score__min__energy>  (33) 
-8.0700000000000003

>  <m_primary>  (33) 
energy

$$$$
33:0
     RDKit          3D

 34 35  0  0  0  0  0  0  0  0999 V2000
   -4.5930   24.3410  -28.3350 C   0  0  0  0  0  0  0  0  0  0  0  0
   -5.1330   24.9460  -29.9180 S   0  0  0  0  0  0  0  0  0  0  0  0
   -5.7660   26.2980  -29.7500 O   0  0  0  0  0  0  0  0  0  0  0  0
   -3.9500   25.0780  -30.8360 O   0  0  0  0  0  0  0  0  0  0  0  0
   -6.3000   23.8210  -30.6040 C   0  0  0  0  0  0  0  0  0  0  0  0
   -6.6180   23.8790  -31.9660 C   0  0  0  0  0  0  0  0  0  0  0  0
   -7.5280   22.9720  -32.5160 C   0  0  0  0  0  0  0  0  0  0  0  0
   -8.1200   21.9820  -31.7140 C   0  0  0  0  0  0  0  0  0  0  0  0
   -9.0960   20.9930  -32.3150 C   0  0  0  0  0  0  0  0  0  0  0  0
   -8.4510   19.7770  -32.8620 N   0  0  0  0  0  0  0  0  0  0  0  0
   -7.0860   20.0170  -33.3780 C   0  0  0  0  0  0  0  0  0  0  0  0
   -6.4290   18.7160  -33.8390 C   0  0  0  0  0  0  0  0  0  0  0  0
   -6.0190   17.6260  -32.4240 S   0  0  0  0  0  0  0  0  0  0  0  0
   -7.3340   18.1780  -31.2740 C   0  0  0  0  0  0  0  0  0  0  0  0
   -8.6140   18.5650  -32.0230 C   0  0  0  0  0  0  0  0  0  0  0  0
   -7.8090   21.9390  -30.3440 C   0  0  0  0  0  0  0  0  0  0  0  0
   -6.8980   22.8470  -29.7950 C   0  0  0  0  0  0  0  0  0  0  0  0
   -5.0963   24.9049  -27.5358 H   0  0  0  0  0  0  0  0  0  0  0  0
   -4.8444   23.2739  -28.2451 H   0  0  0  0  0  0  0  0  0  0  0  0
   -3.5043   24.4700  -28.2451 H   0  0  0  0  0  0  0  0  0  0  0  0
   -6.1498   24.6414  -32.6059 H   0  0  0  0  0  0  0  0  0  0  0  0
   -7.7825   23.0337  -33.5844 H   0  0  0  0  0  0  0  0  0  0  0  0
   -9.8064   20.6873  -31.5328 H   0  0  0  0  0  0  0  0  0  0  0  0
   -9.5906   21.5005  -33.1563 H   0  0  0  0  0  0  0  0  0  0  0  0
   -7.1418   20.7113  -34.2293 H   0  0  0  0  0  0  0  0  0  0  0  0
   -6.4784   20.4438  -32.5664 H   0  0  0  0  0  0  0  0  0  0  0  0
   -7.1210   18.1851  -34.5093 H   0  0  0  0  0  0  0  0  0  0  0  0
   -5.4935   18.9696  -34.3591 H   0  0  0  0  0  0  0  0  0  0  0  0
   -7.5631   17.3601  -30.5750 H   0  0  0  0  0  0  0  0  0  0  0  0
   -6.9694   19.0652  -30.7355 H   0  0  0  0  0  0  0  0  0  0  0  0
   -8.9075   17.7266  -32.6717 H   0  0  0  0  0  0  0  0  0  0  0  0
   -9.3820   18.7886  -31.2679 H   0  0  0  0  0  0  0  0  0  0  0  0
   -8.2855   21.1859  -29.6991 H   0  0  0  0  0  0  0  0  0  0  0  0
   -6.6505   22.7959  -28.7244 H   0  0  0  0  0  0  0  0  0  0  0  0
  1  2  1  0
  2  3  2  0
  2  4  2  0
  2  5  1  0
  5  6  2  0
  6  7  1  0
  7  8  2  0
  8  9  1  0
  9 10  1  0
 10 11  1  0
 11 12  1  0
 12 13  1  0
 13 14  1  0
 14 15  1  0
  8 16  1  0
 16 17  2  0
 17  5  1  0
 15 10  1  0
  1 18  1  0
  1 19  1  0
  1 20  1  0
  6 21  1  0
  7 22  1  0
  9 23  1  0
  9 24  1  0
 11 25  1  0
 11 26  1  0
 12 27  1  0
 12 28  1  0
 14 29  1  0
 14 30  1  0
 15 31  1  0
 15 32  1  0
 16 33  1  0
 17 34  1  0
M  END
>  <UniqueID>  (34) 
33

>  <SMILES>  (34) 
CS(=O)(=O)c1ccc(CN2CCSCC2)cc1

>  <Energy>  (34) 
38.40907683201422

>  <Genealogy>  (34) 
CS(=O)(=O)c1ccc(CN2CCSCC2)cc1 (3D coordinates assigned)
CS(=O)(=O)c1ccc(CN2CCSCC2)cc1 (nonaromatic ring conformer: 38.40907683201422 kcal/mol)

>  <smiles>  (34) 
CS(=O)(=O)c1ccc(CN2CCSCC2)cc1

>  <score_type>  (34) 
oracle

>  <origin>  (34) 
adg

>  <m_score__min__energy>  (34) 
-8.1699999999999999

>  <m_primary>  (34) 
energy

$$$$
34:0
     RDKit          3D

 51 53  0  0  0  0  0  0  0  0999 V2000
   -5.3689   26.5545  -31.3969 H   0  0  0  0  0  0  0  0  0  0  0  0
   -5.1340   25.6080  -30.8880 C   0  0  0  0  0  0  0  0  0  0  0  0
   -3.8770   25.3810  -30.4380 N   0  0  0  0  0  0  0  0  0  0  0  0
   -3.5470   24.2350  -29.7930 C   0  0  0  0  0  0  0  0  0  0  0  0
   -2.2340   24.0460  -29.3480 C   0  0  0  0  0  0  0  0  0  0  0  0
   -1.4784   24.8268  -29.5193 H   0  0  0  0  0  0  0  0  0  0  0  0
   -1.8820   22.8700  -28.6880 C   0  0  0  0  0  0  0  0  0  0  0  0
   -0.8474   22.7235  -28.3443 H   0  0  0  0  0  0  0  0  0  0  0  0
   -2.8380   21.8760  -28.4610 C   0  0  0  0  0  0  0  0  0  0  0  0
   -2.3500   20.2720  -27.5550 Br  0  0  0  0  0  0  0  0  0  0  0  0
   -4.1530   22.0530  -28.9010 C   0  0  0  0  0  0  0  0  0  0  0  0
   -4.9014   21.2674  -28.7201 H   0  0  0  0  0  0  0  0  0  0  0  0
   -4.5240   23.2330  -29.5750 C   0  0  0  0  0  0  0  0  0  0  0  0
   -5.8360   23.4340  -30.0650 C   0  0  0  0  0  0  0  0  0  0  0  0
   -6.7390   22.5060  -29.8850 N   0  0  0  0  0  0  0  0  0  0  0  0
   -7.3960   21.7000  -30.8720 C   0  0  0  0  0  0  0  0  0  0  0  0
   -8.7560   21.9040  -31.1120 C   0  0  0  0  0  0  0  0  0  0  0  0
   -9.2826   22.7317  -30.6145 H   0  0  0  0  0  0  0  0  0  0  0  0
   -9.4490   21.0610  -31.9810 C   0  0  0  0  0  0  0  0  0  0  0  0
  -10.5171   21.2361  -32.1773 H   0  0  0  0  0  0  0  0  0  0  0  0
   -8.7940   19.9960  -32.6030 C   0  0  0  0  0  0  0  0  0  0  0  0
   -9.3505   19.3348  -33.2836 H   0  0  0  0  0  0  0  0  0  0  0  0
   -7.4270   19.7630  -32.3650 C   0  0  0  0  0  0  0  0  0  0  0  0
   -6.7340   18.6750  -33.0240 N   0  0  0  0  0  0  0  0  0  0  0  0
   -6.9180   17.2970  -32.5480 C   0  0  0  0  0  0  0  0  0  0  0  0
   -6.9194   17.2861  -31.4481 H   0  0  0  0  0  0  0  0  0  0  0  0
   -7.8764   16.9055  -32.9198 H   0  0  0  0  0  0  0  0  0  0  0  0
   -6.0959   16.6678  -32.9198 H   0  0  0  0  0  0  0  0  0  0  0  0
   -5.7920   18.9370  -34.1280 C   0  0  0  0  0  0  0  0  0  0  0  0
   -6.0726   18.3162  -34.9916 H   0  0  0  0  0  0  0  0  0  0  0  0
   -5.8453   20.0066  -34.3793 H   0  0  0  0  0  0  0  0  0  0  0  0
   -4.3460   18.6090  -33.7270 C   0  0  0  0  0  0  0  0  0  0  0  0
   -4.3446   18.1906  -32.7097 H   0  0  0  0  0  0  0  0  0  0  0  0
   -3.9454   17.8854  -34.4522 H   0  0  0  0  0  0  0  0  0  0  0  0
   -3.4430   19.8680  -33.7530 C   0  0  0  0  0  0  0  0  0  0  0  0
   -2.3960   19.5386  -33.8259 H   0  0  0  0  0  0  0  0  0  0  0  0
   -3.7662   20.4673  -34.6170 H   0  0  0  0  0  0  0  0  0  0  0  0
   -3.5720   20.7410  -32.5620 N   0  0  0  0  0  0  0  0  0  0  0  0
   -4.2210   20.2510  -31.9000 H   0  0  0  0  0  0  0  0  0  0  0  0
   -2.2940   20.9250  -31.8490 C   0  0  0  0  0  0  0  0  0  0  0  0
   -2.4725   20.8993  -30.7639 H   0  0  0  0  0  0  0  0  0  0  0  0
   -1.6002   20.1175  -32.1257 H   0  0  0  0  0  0  0  0  0  0  0  0
   -1.8562   21.8954  -32.1257 H   0  0  0  0  0  0  0  0  0  0  0  0
   -4.1920   22.0380  -32.8840 C   0  0  0  0  0  0  0  0  0  0  0  0
   -4.4441   22.5653  -31.9521 H   0  0  0  0  0  0  0  0  0  0  0  0
   -3.4871   22.6459  -33.4702 H   0  0  0  0  0  0  0  0  0  0  0  0
   -5.1078   21.8712  -33.4702 H   0  0  0  0  0  0  0  0  0  0  0  0
   -6.7410   20.6150  -31.4770 C   0  0  0  0  0  0  0  0  0  0  0  0
   -5.6800   20.4282  -31.2550 H   0  0  0  0  0  0  0  0  0  0  0  0
   -6.1340   24.6500  -30.7110 C   0  0  0  0  0  0  0  0  0  0  0  0
   -7.1535   24.8444  -31.0755 H   0  0  0  0  0  0  0  0  0  0  0  0
  1  2  1  0
  2  3  1  0
  3  4  1  0
  4  5  2  0
  5  6  1  0
  5  7  1  0
  7  8  1  0
  7  9  2  0
  9 10  1  0
  9 11  1  0
 11 12  1  0
 11 13  2  0
 13 14  1  0
 14 15  2  0
 15 16  1  0
 16 17  2  0
 17 18  1  0
 17 19  1  0
 19 20  1  0
 19 21  2  0
 21 22  1  0
 21 23  1  0
 23 24  1  0
 24 25  1  0
 25 26  1  0
 25 27  1  0
 25 28  1  0
 24 29  1  0
 29 30  1  0
 29 31  1  0
 29 32  1  0
 32 33  1  0
 32 34  1  0
 32 35  1  0
 35 36  1  0
 35 37  1  0
 35 38  1  0
 38 39  1  0
 38 40  1  0
 40 41  1  0
 40 42  1  0
 40 43  1  0
 38 44  1  0
 44 45  1  0
 44 46  1  0
 44 47  1  0
 23 48  2  0
 48 49  1  0
 14 50  1  0
 50 51  1  0
 50  2  2  0
 13  4  1  0
 48 16  1  0
M  CHG  2   3  -1  38   1
M  END
>  <UniqueID>  (35) 
34

>  <SMILES>  (35) 
CN(CCC[NH+](C)C)c1cccc(/N=c2\cc[n-]c3ccc(Br)cc23)c1

>  <Energy>  (35) 
67.61261081653772

>  <Genealogy>  (35) 
CN(CCC[NH+](C)C)c1cccc(N=c2cc[n-]c3ccc(Br)cc23)c1 (protonated)
CN(CCC[NH+](C)C)c1cccc(/N=c2\cc[n-]c3ccc(Br)cc23)c1 (cis-trans isomerization)
CN(CCC[NH+](C)C)c1cccc(/N=c2\cc[n-]c3ccc(Br)cc23)c1 (3D coordinates assigned)
CN(CCC[NH+](C)C)c1cccc(/N=c2\cc[n-]c3ccc(Br)cc23)c1 (optimized conformer: 67.61261081653772 kcal/mol)

>  <smiles>  (35) 
CN(C)CCCN(C)c1cccc(N=c2cc[nH]c3ccc(Br)cc23)c1

>  <score_type>  (35) 
oracle

>  <origin>  (35) 
adg

>  <m_score__min__energy>  (35) 
-10.15

>  <m_primary>  (35) 
energy

$$$$
35:0
     RDKit          3D

 29 32  0  0  0  0  0  0  0  0999 V2000
   -5.2720   17.5670  -34.3930 C   0  0  0  0  0  0  0  0  0  0  0  0
   -4.6670   18.8000  -34.1560 C   0  0  0  0  0  0  0  0  0  0  0  0
   -5.2850   19.7440  -33.3320 C   0  0  0  0  0  0  0  0  0  0  0  0
   -6.5360   19.4680  -32.7360 C   0  0  0  0  0  0  0  0  0  0  0  0
   -7.1970   20.4030  -31.8940 C   0  0  0  0  0  0  0  0  0  0  0  0
   -6.6810   21.7720  -31.6670 C   0  0  0  0  0  0  0  0  0  0  0  0
   -7.4280   22.9120  -32.0660 C   0  0  0  0  0  0  0  0  0  0  0  0
   -6.9260   24.1680  -31.8730 N   0  0  0  0  0  0  0  0  0  0  0  0
   -5.7040   24.2750  -31.3030 C   0  0  0  0  0  0  0  0  0  0  0  0
   -5.0300   25.4010  -31.0290 N   0  0  0  0  0  0  0  0  0  0  0  0
   -3.8750   25.0330  -30.4790 N   0  0  0  0  0  0  0  0  0  0  0  0
   -3.8690   23.6750  -30.4300 C   0  0  0  0  0  0  0  0  0  0  0  0
   -5.0130   23.2000  -30.9450 N   0  0  0  0  0  0  0  0  0  0  0  0
   -5.4480   21.9570  -31.1070 N   0  0  0  0  0  0  0  0  0  0  0  0
   -8.4060   20.0380  -31.2780 C   0  0  0  0  0  0  0  0  0  0  0  0
   -8.9730   18.7830  -31.5020 C   0  0  0  0  0  0  0  0  0  0  0  0
   -8.3450   17.8690  -32.3450 C   0  0  0  0  0  0  0  0  0  0  0  0
   -7.1300   18.1950  -32.9620 C   0  0  0  0  0  0  0  0  0  0  0  0
   -6.4950   17.2610  -33.7950 C   0  0  0  0  0  0  0  0  0  0  0  0
   -4.7846   16.8339  -35.0525 H   0  0  0  0  0  0  0  0  0  0  0  0
   -3.6971   19.0313  -34.6205 H   0  0  0  0  0  0  0  0  0  0  0  0
   -4.7935   20.7103  -33.1457 H   0  0  0  0  0  0  0  0  0  0  0  0
   -8.4157   22.7832  -32.5328 H   0  0  0  0  0  0  0  0  0  0  0  0
   -5.3310   26.3860  -31.2030 H   0  0  0  0  0  0  0  0  0  0  0  0
   -3.0506   23.0590  -30.0291 H   0  0  0  0  0  0  0  0  0  0  0  0
   -8.9120   20.7510  -30.6105 H   0  0  0  0  0  0  0  0  0  0  0  0
   -9.9199   18.5142  -31.0109 H   0  0  0  0  0  0  0  0  0  0  0  0
   -8.8052   16.8866  -32.5272 H   0  0  0  0  0  0  0  0  0  0  0  0
   -6.9638   16.2827  -33.9774 H   0  0  0  0  0  0  0  0  0  0  0  0
  1  2  2  0
  2  3  1  0
  3  4  2  0
  4  5  1  0
  5  6  1  0
  6  7  1  0
  7  8  2  0
  8  9  1  0
  9 10  2  0
 10 11  1  0
 11 12  2  0
 12 13  1  0
 13 14  1  0
  5 15  2  0
 15 16  1  0
 16 17  2  0
 17 18  1  0
 18 19  2  0
 19  1  1  0
 18  4  1  0
 14  6  2  0
 13  9  1  0
  1 20  1  0
  2 21  1  0
  3 22  1  0
  7 23  1  0
 10 24  1  0
 12 25  1  0
 15 26  1  0
 16 27  1  0
 17 28  1  0
 19 29  1  0
M  CHG  1  10   1
M  END
>  <UniqueID>  (36) 
35

>  <SMILES>  (36) 
c1ccc2c(-c3cnc4[nH+]ncn4n3)cccc2c1

>  <Energy>  (36) 
91.65681705179735

>  <Genealogy>  (36) 
c1ccc2c(-c3cnc4[nH+]ncn4n3)cccc2c1 (protonated)
c1ccc2c(-c3cnc4[nH+]ncn4n3)cccc2c1 (3D coordinates assigned)
c1ccc2c(-c3cnc4[nH+]ncn4n3)cccc2c1 (optimized conformer: 91.65681705179735 kcal/mol)

>  <smiles>  (36) 
c1ccc2c(-c3cnc4nncn4n3)cccc2c1

>  <score_type>  (36) 
oracle

>  <origin>  (36) 
adg

>  <m_score__min__energy>  (36) 
-7.5199999999999996

>  <m_primary>  (36) 
energy

$$$$
36:0
     RDKit          3D

 29 31  0  0  0  0  0  0  0  0999 V2000
   -5.7290   24.7750  -30.8320 Cl  0  0  0  0  0  0  0  0  0  0  0  0
   -6.4270   23.2680  -31.3930 C   0  0  0  0  0  0  0  0  0  0  0  0
   -7.7920   23.0190  -31.2150 C   0  0  0  0  0  0  0  0  0  0  0  0
   -8.3500   21.8170  -31.6610 C   0  0  0  0  0  0  0  0  0  0  0  0
   -7.5460   20.8540  -32.2920 C   0  0  0  0  0  0  0  0  0  0  0  0
   -8.1440   19.5480  -32.7360 C   0  0  0  0  0  0  0  0  0  0  0  0
   -7.2360   18.4460  -32.4160 N   0  0  0  0  0  0  0  0  0  0  0  0
   -7.1160   17.8170  -31.2200 C   0  0  0  0  0  0  0  0  0  0  0  0
   -6.1230   16.8950  -31.2190 N   0  0  0  0  0  0  0  0  0  0  0  0
   -5.6010   16.9640  -32.4550 C   0  0  0  0  0  0  0  0  0  0  0  0
   -4.5340   16.2390  -32.9820 C   0  0  0  0  0  0  0  0  0  0  0  0
   -4.1590   16.5080  -34.3110 C   0  0  0  0  0  0  0  0  0  0  0  0
   -4.8490   17.4820  -35.0690 C   0  0  0  0  0  0  0  0  0  0  0  0
   -5.9210   18.1980  -34.5040 C   0  0  0  0  0  0  0  0  0  0  0  0
   -6.2700   17.9060  -33.1840 C   0  0  0  0  0  0  0  0  0  0  0  0
   -6.1740   21.1070  -32.4610 C   0  0  0  0  0  0  0  0  0  0  0  0
   -5.6190   22.3100  -32.0150 C   0  0  0  0  0  0  0  0  0  0  0  0
   -8.4275   23.7702  -30.7233 H   0  0  0  0  0  0  0  0  0  0  0  0
   -9.4235   21.6249  -31.5170 H   0  0  0  0  0  0  0  0  0  0  0  0
   -9.1023   19.3919  -32.2190 H   0  0  0  0  0  0  0  0  0  0  0  0
   -8.3065   19.5771  -33.8235 H   0  0  0  0  0  0  0  0  0  0  0  0
   -7.7530   18.0313  -30.3492 H   0  0  0  0  0  0  0  0  0  0  0  0
   -5.8220   16.2840  -30.4270 H   0  0  0  0  0  0  0  0  0  0  0  0
   -4.0047   15.4846  -32.3813 H   0  0  0  0  0  0  0  0  0  0  0  0
   -3.3222   15.9561  -34.7641 H   0  0  0  0  0  0  0  0  0  0  0  0
   -4.5459   17.6815  -36.1074 H   0  0  0  0  0  0  0  0  0  0  0  0
   -6.4644   18.9603  -35.0817 H   0  0  0  0  0  0  0  0  0  0  0  0
   -5.5341   20.3553  -32.9463 H   0  0  0  0  0  0  0  0  0  0  0  0
   -4.5451   22.5038  -32.1533 H   0  0  0  0  0  0  0  0  0  0  0  0
  1  2  1  0
  2  3  2  0
  3  4  1  0
  4  5  2  0
  5  6  1  0
  6  7  1  0
  7  8  1  0
  8  9  2  0
  9 10  1  0
 10 11  2  0
 11 12  1  0
 12 13  2  0
 13 14  1  0
 14 15  2  0
  5 16  1  0
 16 17  2  0
 17  2  1  0
 15  7  1  0
 15 10  1  0
  3 18  1  0
  4 19  1  0
  6 20  1  0
  6 21  1  0
  8 22  1  0
  9 23  1  0
 11 24  1  0
 12 25  1  0
 13 26  1  0
 14 27  1  0
 16 28  1  0
 17 29  1  0
M  CHG  1   9   1
M  END
>  <UniqueID>  (37) 
36

>  <SMILES>  (37) 
Clc1ccc(Cn2c[nH+]c3ccccc32)cc1

>  <Energy>  (37) 
68.57849864666547

>  <Genealogy>  (37) 
Clc1ccc(Cn2c[nH+]c3ccccc32)cc1 (protonated)
Clc1ccc(Cn2c[nH+]c3ccccc32)cc1 (3D coordinates assigned)
Clc1ccc(Cn2c[nH+]c3ccccc32)cc1 (optimized conformer: 68.57849864666547 kcal/mol)

>  <smiles>  (37) 
Clc1ccc(Cn2cnc3ccccc32)cc1

>  <score_type>  (37) 
oracle

>  <origin>  (37) 
adg

>  <m_score__min__energy>  (37) 
-6.79

>  <m_primary>  (37) 
energy

$$$$
37:0
     RDKit          3D

 29 31  0  0  0  0  0  0  0  0999 V2000
   -4.3450   23.3660  -30.7240 C   0  0  0  0  0  0  0  0  0  0  0  0
   -4.3210   22.6200  -31.9060 C   0  0  0  0  0  0  0  0  0  0  0  0
   -5.4580   21.9180  -32.3160 C   0  0  0  0  0  0  0  0  0  0  0  0
   -6.6270   21.9430  -31.5340 C   0  0  0  0  0  0  0  0  0  0  0  0
   -7.8440   21.2190  -31.9590 C   0  0  0  0  0  0  0  0  0  0  0  0
   -9.0900   21.6980  -31.7380 N   0  0  0  0  0  0  0  0  0  0  0  0
   -9.8740   20.7800  -32.3440 C   0  0  0  0  0  0  0  0  0  0  0  0
   -9.1490   19.7960  -32.9010 N   0  0  0  0  0  0  0  0  0  0  0  0
   -7.8780   20.0600  -32.6590 N   0  0  0  0  0  0  0  0  0  0  0  0
   -6.7980   19.1710  -32.9930 C   0  0  0  0  0  0  0  0  0  0  0  0
   -6.1130   19.3280  -34.2080 C   0  0  0  0  0  0  0  0  0  0  0  0
   -5.0700   18.4590  -34.5480 C   0  0  0  0  0  0  0  0  0  0  0  0
   -4.7130   17.4220  -33.6810 C   0  0  0  0  0  0  0  0  0  0  0  0
   -5.4010   17.2490  -32.4770 C   0  0  0  0  0  0  0  0  0  0  0  0
   -6.4440   18.1150  -32.1360 C   0  0  0  0  0  0  0  0  0  0  0  0
   -6.6490   22.7120  -30.3590 C   0  0  0  0  0  0  0  0  0  0  0  0
   -5.5090   23.4140  -29.9540 C   0  0  0  0  0  0  0  0  0  0  0  0
   -3.4480   23.9146  -30.4008 H   0  0  0  0  0  0  0  0  0  0  0  0
   -3.4054   22.5854  -32.5147 H   0  0  0  0  0  0  0  0  0  0  0  0
   -5.4386   21.3437  -33.2540 H   0  0  0  0  0  0  0  0  0  0  0  0
  -10.9723   20.8320  -32.3773 H   0  0  0  0  0  0  0  0  0  0  0  0
   -9.5140   18.9520  -33.3970 H   0  0  0  0  0  0  0  0  0  0  0  0
   -6.3973   20.1378  -34.8961 H   0  0  0  0  0  0  0  0  0  0  0  0
   -4.5310   18.5919  -35.4976 H   0  0  0  0  0  0  0  0  0  0  0  0
   -3.8902   16.7420  -33.9467 H   0  0  0  0  0  0  0  0  0  0  0  0
   -5.1216   16.4307  -31.7971 H   0  0  0  0  0  0  0  0  0  0  0  0
   -6.9902   17.9692  -31.1924 H   0  0  0  0  0  0  0  0  0  0  0  0
   -7.5667   22.7624  -29.7546 H   0  0  0  0  0  0  0  0  0  0  0  0
   -5.5294   24.0053  -29.0267 H   0  0  0  0  0  0  0  0  0  0  0  0
  1  2  2  0
  2  3  1  0
  3  4  2  0
  4  5  1  0
  5  6  2  0
  6  7  1  0
  7  8  2  0
  8  9  1  0
  9 10  1  0
 10 11  2  0
 11 12  1  0
 12 13  2  0
 13 14  1  0
 14 15  2  0
  4 16  1  0
 16 17  2  0
 17  1  1  0
  9  5  1  0
 15 10  1  0
  1 18  1  0
  2 19  1  0
  3 20  1  0
  7 21  1  0
  8 22  1  0
 11 23  1  0
 12 24  1  0
 13 25  1  0
 14 26  1  0
 15 27  1  0
 16 28  1  0
 17 29  1  0
M  CHG  1   8   1
M  END
>  <UniqueID>  (38) 
37

>  <SMILES>  (38) 
c1ccc(-c2nc[nH+]n2-c2ccccc2)cc1

>  <Energy>  (38) 
74.60883399972668

>  <Genealogy>  (38) 
c1ccc(-c2nc[nH+]n2-c2ccccc2)cc1 (protonated)
c1ccc(-c2nc[nH+]n2-c2ccccc2)cc1 (3D coordinates assigned)
c1ccc(-c2nc[nH+]n2-c2ccccc2)cc1 (optimized conformer: 74.60883399972668 kcal/mol)

>  <smiles>  (38) 
c1ccc(-c2ncnn2-c2ccccc2)cc1

>  <score_type>  (38) 
oracle

>  <origin>  (38) 
adg

>  <m_score__min__energy>  (38) 
-6.3799999999999999

>  <m_primary>  (38) 
energy

$$$$
38:0
     RDKit          3D

 30 32  0  0  0  0  0  0  0  0999 V2000
   -1.4870   20.9140  -33.5860 C   0  0  0  0  0  0  0  0  0  0  0  0
   -2.4420   19.7710  -33.9140 C   0  0  0  0  0  0  0  0  0  0  0  0
   -3.7600   20.0210  -33.3350 N   0  0  0  0  0  0  0  0  0  0  0  0
   -4.9280   19.2830  -33.7330 C   0  0  0  0  0  0  0  0  0  0  0  0
   -4.8620   18.4950  -34.7170 O   0  0  0  0  0  0  0  0  0  0  0  0
   -6.2120   19.4430  -33.0070 C   0  0  0  0  0  0  0  0  0  0  0  0
   -7.1950   18.4270  -33.0450 C   0  0  0  0  0  0  0  0  0  0  0  0
   -8.4190   18.5780  -32.3660 C   0  0  0  0  0  0  0  0  0  0  0  0
   -8.6900   19.7450  -31.6400 C   0  0  0  0  0  0  0  0  0  0  0  0
   -7.7190   20.7400  -31.6150 C   0  0  0  0  0  0  0  0  0  0  0  0
   -7.7710   22.2220  -30.8300 S   0  0  0  0  0  0  0  0  0  0  0  0
   -6.2220   22.6440  -31.3710 C   0  0  0  0  0  0  0  0  0  0  0  0
   -5.5360   23.9030  -31.0590 C   0  0  0  0  0  0  0  0  0  0  0  0
   -6.1220   25.0630  -30.5980 C   0  0  0  0  0  0  0  0  0  0  0  0
   -5.0670   25.9390  -30.4630 C   0  0  0  0  0  0  0  0  0  0  0  0
   -3.9240   25.3260  -30.8250 N   0  0  0  0  0  0  0  0  0  0  0  0
   -4.2090   24.0850  -31.1890 N   0  0  0  0  0  0  0  0  0  0  0  0
   -5.6680   21.6740  -32.1380 N   0  0  0  0  0  0  0  0  0  0  0  0
   -6.5060   20.6120  -32.2780 C   0  0  0  0  0  0  0  0  0  0  0  0
   -1.4004   21.0176  -32.4943 H   0  0  0  0  0  0  0  0  0  0  0  0
   -0.4967   20.6985  -34.0136 H   0  0  0  0  0  0  0  0  0  0  0  0
   -1.8751   21.8502  -34.0136 H   0  0  0  0  0  0  0  0  0  0  0  0
   -2.5378   19.6819  -35.0062 H   0  0  0  0  0  0  0  0  0  0  0  0
   -2.0391   18.8392  -33.4905 H   0  0  0  0  0  0  0  0  0  0  0  0
   -3.8600   20.8250  -32.6780 H   0  0  0  0  0  0  0  0  0  0  0  0
   -7.0004   17.5055  -33.6133 H   0  0  0  0  0  0  0  0  0  0  0  0
   -9.1682   17.7736  -32.4059 H   0  0  0  0  0  0  0  0  0  0  0  0
   -9.6431   19.8706  -31.1053 H   0  0  0  0  0  0  0  0  0  0  0  0
   -7.1858   25.2466  -30.3868 H   0  0  0  0  0  0  0  0  0  0  0  0
   -5.1463   26.9789  -30.1134 H   0  0  0  0  0  0  0  0  0  0  0  0
  1  2  1  0
  2  3  1  0
  3  4  1  0
  4  5  2  0
  4  6  1  0
  6  7  2  0
  7  8  1  0
  8  9  2  0
  9 10  1  0
 10 11  1  0
 11 12  1  0
 12 13  1  0
 13 14  1  0
 14 15  2  0
 15 16  1  0
 16 17  1  0
 12 18  2  0
 18 19  1  0
 19  6  1  0
 19 10  2  0
 17 13  2  0
  1 20  1  0
  1 21  1  0
  1 22  1  0
  2 23  1  0
  2 24  1  0
  3 25  1  0
  7 26  1  0
  8 27  1  0
  9 28  1  0
 14 29  1  0
 15 30  1  0
M  CHG  1  16  -1
M  END
>  <UniqueID>  (39) 
38

>  <SMILES>  (39) 
CCNC(=O)c1cccc2sc(-c3cc[n-]n3)nc12

>  <Energy>  (39) 
93.21066818130544

>  <Genealogy>  (39) 
CCNC(=O)c1cccc2sc(-c3cc[n-]n3)nc12 (protonated)
CCNC(=O)c1cccc2sc(-c3cc[n-]n3)nc12 (3D coordinates assigned)
CCNC(=O)c1cccc2sc(-c3cc[n-]n3)nc12 (optimized conformer: 93.21066818130544 kcal/mol)

>  <smiles>  (39) 
CCNC(=O)c1cccc2sc(-c3cc[nH]n3)nc12

>  <score_type>  (39) 
oracle

>  <origin>  (39) 
adg

>  <m_score__min__energy>  (39) 
-9.9000000000000004

>  <m_primary>  (39) 
energy

$$$$
39:0
     RDKit          3D

 59 62  0  0  0  0  0  0  0  0999 V2000
   -8.7800   18.5520  -31.2090 C   0  0  0  0  0  0  0  0  0  0  0  0
   -7.4450   18.6950  -31.9420 C   0  0  0  0  0  0  0  0  0  0  0  0
   -7.6320   19.7070  -32.9610 N   0  0  0  0  0  0  0  0  0  0  0  0
   -6.5880   19.8470  -33.8690 C   0  0  0  0  0  0  0  0  0  0  0  0
   -5.3500   19.0750  -33.3660 C   0  0  0  0  0  0  0  0  0  0  0  0
   -4.5870   19.9580  -32.5130 N   0  0  0  0  0  0  0  0  0  0  0  0
   -3.3000   20.4890  -32.8160 C   0  0  0  0  0  0  0  0  0  0  0  0
   -2.6910   20.2000  -33.8510 O   0  0  0  0  0  0  0  0  0  0  0  0
   -2.7840   21.4120  -31.7790 C   0  0  0  0  0  0  0  0  0  0  0  0
   -3.6980   22.4180  -31.4450 C   0  0  0  0  0  0  0  0  0  0  0  0
   -3.4140   23.3250  -30.4620 C   0  0  0  0  0  0  0  0  0  0  0  0
   -2.1850   23.2020  -29.8190 C   0  0  0  0  0  0  0  0  0  0  0  0
   -1.9280   24.1940  -28.7720 C   0  0  0  0  0  0  0  0  0  0  0  0
   -2.3430   24.1570  -27.4960 N   0  0  0  0  0  0  0  0  0  0  0  0
   -1.9110   25.2380  -26.8350 C   0  0  0  0  0  0  0  0  0  0  0  0
   -2.0310   25.6880  -25.5340 C   0  0  0  0  0  0  0  0  0  0  0  0
   -1.4210   26.8830  -25.1580 C   0  0  0  0  0  0  0  0  0  0  0  0
   -0.6920   27.6350  -26.0750 C   0  0  0  0  0  0  0  0  0  0  0  0
   -0.0280   28.9090  -25.7000 C   0  0  0  0  0  0  0  0  0  0  0  0
    0.4090   29.5170  -26.8760 F   0  0  0  0  0  0  0  0  0  0  0  0
   -0.9960   29.7490  -25.1720 F   0  0  0  0  0  0  0  0  0  0  0  0
    0.9920   28.6860  -24.8190 F   0  0  0  0  0  0  0  0  0  0  0  0
   -0.6120   27.1320  -27.3590 C   0  0  0  0  0  0  0  0  0  0  0  0
   -1.1960   25.9620  -27.7650 C   0  0  0  0  0  0  0  0  0  0  0  0
   -1.2210   25.3120  -28.9230 N   0  0  0  0  0  0  0  0  0  0  0  0
   -1.2990   22.2090  -30.1580 C   0  0  0  0  0  0  0  0  0  0  0  0
   -1.5780   21.2800  -31.1550 C   0  0  0  0  0  0  0  0  0  0  0  0
   -8.4420   20.7800  -32.5690 C   0  0  0  0  0  0  0  0  0  0  0  0
   -7.8020   21.8720  -31.7980 C   0  0  0  0  0  0  0  0  0  0  0  0
   -7.8400   21.9300  -30.4150 C   0  0  0  0  0  0  0  0  0  0  0  0
   -7.2310   22.9820  -29.7300 C   0  0  0  0  0  0  0  0  0  0  0  0
   -6.5910   23.9660  -30.4160 C   0  0  0  0  0  0  0  0  0  0  0  0
   -6.5400   23.9190  -31.8240 C   0  0  0  0  0  0  0  0  0  0  0  0
   -7.1520   22.8660  -32.5050 C   0  0  0  0  0  0  0  0  0  0  0  0
   -8.6059   18.5707  -30.1230 H   0  0  0  0  0  0  0  0  0  0  0  0
   -9.4427   19.3843  -31.4884 H   0  0  0  0  0  0  0  0  0  0  0  0
   -9.2514   17.5982  -31.4884 H   0  0  0  0  0  0  0  0  0  0  0  0
   -6.6587   19.0068  -31.2388 H   0  0  0  0  0  0  0  0  0  0  0  0
   -7.1361   17.7384  -32.3886 H   0  0  0  0  0  0  0  0  0  0  0  0
   -6.8969   19.4453  -34.8453 H   0  0  0  0  0  0  0  0  0  0  0  0
   -6.3350   20.9128  -33.9697 H   0  0  0  0  0  0  0  0  0  0  0  0
   -5.6686   18.1895  -32.7964 H   0  0  0  0  0  0  0  0  0  0  0  0
   -4.7367   18.7421  -34.2163 H   0  0  0  0  0  0  0  0  0  0  0  0
   -5.0550   20.2180  -31.5910 H   0  0  0  0  0  0  0  0  0  0  0  0
   -4.6571   22.4798  -31.9802 H   0  0  0  0  0  0  0  0  0  0  0  0
   -4.1262   24.1182  -30.1906 H   0  0  0  0  0  0  0  0  0  0  0  0
   -2.6054   25.1055  -24.7986 H   0  0  0  0  0  0  0  0  0  0  0  0
   -1.5169   27.2374  -24.1211 H   0  0  0  0  0  0  0  0  0  0  0  0
   -0.0426   27.7084  -28.1030 H   0  0  0  0  0  0  0  0  0  0  0  0
   -0.7850   25.5850  -29.8270 H   0  0  0  0  0  0  0  0  0  0  0  0
   -0.3390   22.1463  -29.6246 H   0  0  0  0  0  0  0  0  0  0  0  0
   -0.8673   20.4849  -31.4247 H   0  0  0  0  0  0  0  0  0  0  0  0
   -8.8650   21.2247  -33.4819 H   0  0  0  0  0  0  0  0  0  0  0  0
   -9.1759   20.3403  -31.8775 H   0  0  0  0  0  0  0  0  0  0  0  0
   -8.3554   21.1388  -29.8508 H   0  0  0  0  0  0  0  0  0  0  0  0
   -7.2688   23.0154  -28.6312 H   0  0  0  0  0  0  0  0  0  0  0  0
   -6.1145   24.7962  -29.8741 H   0  0  0  0  0  0  0  0  0  0  0  0
   -6.0195   24.7098  -32.3840 H   0  0  0  0  0  0  0  0  0  0  0  0
   -7.1172   22.8270  -33.6038 H   0  0  0  0  0  0  0  0  0  0  0  0
  1  2  1  0
  2  3  1  0
  3  4  1  0
  4  5  1  0
  5  6  1  0
  6  7  1  0
  7  8  2  0
  7  9  1  0
  9 10  2  0
 10 11  1  0
 11 12  2  0
 12 13  1  0
 13 14  2  0
 14 15  1  0
 15 16  2  0
 16 17  1  0
 17 18  2  0
 18 19  1  0
 19 20  1  0
 19 21  1  0
 19 22  1  0
 18 23  1  0
 23 24  2  0
 24 25  1  0
 12 26  1  0
 26 27  2  0
  3 28  1  0
 28 29  1  0
 29 30  2  0
 30 31  1  0
 31 32  2  0
 32 33  1  0
 33 34  2  0
 27  9  1  0
 34 29  1  0
 25 13  1  0
 24 15  1  0
  1 35  1  0
  1 36  1  0
  1 37  1  0
  2 38  1  0
  2 39  1  0
  4 40  1  0
  4 41  1  0
  5 42  1  0
  5 43  1  0
  6 44  1  0
 10 45  1  0
 11 46  1  0
 16 47  1  0
 17 48  1  0
 23 49  1  0
 25 50  1  0
 26 51  1  0
 27 52  1  0
 28 53  1  0
 28 54  1  0
 30 55  1  0
 31 56  1  0
 32 57  1  0
 33 58  1  0
 34 59  1  0
M  END
>  <smiles>  (40) 
CCN(CCNC(=O)c1ccc(-c2nc3ccc(C(F)(F)F)cc3[nH]2)cc1)Cc1ccccc1

>  <score_type>  (40) 
oracle

>  <origin>  (40) 
adg

>  <m_score__min__energy>  (40) 
-9.3499999999999996

>  <m_primary>  (40) 
energy

$$$$
40:0
     RDKit          3D

 37 38  0  0  1  0  0  0  0  0999 V2000
   -1.1270   26.1810  -27.9520 C   0  0  0  0  0  0  0  0  0  0  0  0
   -1.9820   25.6740  -28.9560 O   0  0  0  0  0  0  0  0  0  0  0  0
   -2.4490   24.3740  -29.0200 C   0  0  0  0  0  0  0  0  0  0  0  0
   -1.8360   23.3370  -28.3440 C   0  0  0  0  0  0  0  0  0  0  0  0
   -2.3300   22.0270  -28.4240 C   0  0  0  0  0  0  0  0  0  0  0  0
   -3.4460   21.7540  -29.1860 C   0  0  0  0  0  0  0  0  0  0  0  0
   -4.0450   22.8000  -29.8530 C   0  0  0  0  0  0  0  0  0  0  0  0
   -3.5500   24.1100  -29.7730 C   0  0  0  0  0  0  0  0  0  0  0  0
   -4.2780   25.0740  -30.5240 N   0  0  0  0  0  0  0  0  0  0  0  0
   -5.5420   24.8770  -30.6500 C   0  0  0  0  0  0  0  0  0  0  0  0
   -6.3930   25.1730  -29.5510 N   0  0  0  0  0  0  0  0  0  0  0  0
   -5.9970   24.3840  -31.8970 N   0  0  0  0  0  0  0  0  0  0  0  0
   -6.4490   23.1990  -32.0080 C   0  0  0  0  0  0  0  0  0  0  0  0
   -7.6050   22.9290  -31.3290 N   0  0  0  0  0  0  0  0  0  0  0  0
   -8.2010   21.7280  -31.3560 C   0  0  0  0  0  0  0  0  0  0  0  0
   -9.4510   21.5710  -30.5740 C   0  0  0  0  0  0  0  0  0  0  0  0
   -7.6320   20.7130  -32.0960 C   0  0  0  0  0  0  0  0  0  0  0  0
   -6.4630   20.9770  -32.7860 C   0  0  0  0  0  0  0  0  0  0  0  0
   -5.8750   19.8660  -33.5740 C   0  0  0  0  0  0  0  0  0  0  0  0
   -5.8930   22.2110  -32.7290 N   0  0  0  0  0  0  0  0  0  0  0  0
   -1.5390   25.9367  -26.9618 H   0  0  0  0  0  0  0  0  0  0  0  0
   -0.1300   25.7280  -28.0563 H   0  0  0  0  0  0  0  0  0  0  0  0
   -1.0462   27.2731  -28.0563 H   0  0  0  0  0  0  0  0  0  0  0  0
   -0.9450   23.5423  -27.7324 H   0  0  0  0  0  0  0  0  0  0  0  0
   -1.8262   21.2159  -27.8778 H   0  0  0  0  0  0  0  0  0  0  0  0
   -3.8460   20.7319  -29.2592 H   0  0  0  0  0  0  0  0  0  0  0  0
   -4.9369   22.6023  -30.4658 H   0  0  0  0  0  0  0  0  0  0  0  0
   -6.0810   24.9030  -28.5920 H   0  0  0  0  0  0  0  0  0  0  0  0
   -7.3160   25.6420  -29.6320 H   0  0  0  0  0  0  0  0  0  0  0  0
   -9.2174   21.6003  -29.4995 H   0  0  0  0  0  0  0  0  0  0  0  0
  -10.1434   22.3892  -30.8212 H   0  0  0  0  0  0  0  0  0  0  0  0
   -9.9195   20.6070  -30.8212 H   0  0  0  0  0  0  0  0  0  0  0  0
   -8.0970   19.7169  -32.1365 H   0  0  0  0  0  0  0  0  0  0  0  0
   -5.4720   19.1046  -32.8900 H   0  0  0  0  0  0  0  0  0  0  0  0
   -6.6523   19.4147  -34.2081 H   0  0  0  0  0  0  0  0  0  0  0  0
   -5.0647   20.2550  -34.2081 H   0  0  0  0  0  0  0  0  0  0  0  0
   -5.0110   22.4040  -33.2510 H   0  0  0  0  0  0  0  0  0  0  0  0
  1  2  1  0
  2  3  1  0
  3  4  2  0
  4  5  1  0
  5  6  2  0
  6  7  1  0
  7  8  2  0
  8  9  1  0
  9 10  2  0
 10 11  1  0
 10 12  1  0
 12 13  2  0
 13 14  1  0
 14 15  2  0
 15 16  1  0
 15 17  1  0
 17 18  2  0
 18 19  1  0
 18 20  1  0
  8  3  1  0
 20 13  1  0
  1 21  1  0
  1 22  1  0
  1 23  1  0
  4 24  1  0
  5 25  1  0
  6 26  1  0
  7 27  1  0
 11 28  1  0
 11 29  1  0
 16 30  1  0
 16 31  1  0
 16 32  1  0
 17 33  1  0
 19 34  1  0
 19 35  1  0
 19 36  1  0
 20 37  1  0
M  END
>  <smiles>  (41) 
COc1ccccc1N=C(N)N=c1nc(C)cc(C)[nH]1

>  <score_type>  (41) 
oracle

>  <origin>  (41) 
adg

>  <m_score__min__energy>  (41) 
-8.0099999999999998

>  <m_primary>  (41) 
energy

$$$$
41:0
     RDKit          3D

 42 44  0  0  0  0  0  0  0  0999 V2000
   -6.0950   24.6530  -29.7210 C   0  0  0  0  0  0  0  0  0  0  0  0
   -5.2610   25.6830  -30.4750 C   0  0  0  0  0  0  0  0  0  0  0  0
   -3.8870   25.2990  -30.5020 O   0  0  0  0  0  0  0  0  0  0  0  0
   -3.3860   24.0210  -30.2000 C   0  0  0  0  0  0  0  0  0  0  0  0
   -3.5300   22.9230  -31.0700 C   0  0  0  0  0  0  0  0  0  0  0  0
   -3.0140   21.6720  -30.7200 C   0  0  0  0  0  0  0  0  0  0  0  0
   -2.3400   21.5030  -29.5100 C   0  0  0  0  0  0  0  0  0  0  0  0
   -2.1690   22.5880  -28.6410 C   0  0  0  0  0  0  0  0  0  0  0  0
   -2.7110   23.8450  -28.9830 C   0  0  0  0  0  0  0  0  0  0  0  0
   -2.5510   24.9360  -28.1180 O   0  0  0  0  0  0  0  0  0  0  0  0
   -2.0560   24.7750  -26.7880 C   0  0  2  0  0  0  0  0  0  0  0  0
   -1.6390   26.1400  -26.1930 C   0  0  0  0  0  0  0  0  0  0  0  0
   -0.5310   26.0190  -25.2150 N   0  0  0  0  0  0  0  0  0  0  0  0
   -0.4720   27.2120  -24.3570 C   0  0  0  0  0  0  0  0  0  0  0  0
   -0.6490   24.7980  -24.3990 C   0  0  0  0  0  0  0  0  0  0  0  0
   -0.4460   23.5380  -25.2690 C   0  0  0  0  0  0  0  0  0  0  0  0
   -0.9080   23.7320  -26.7480 C   0  0  2  0  0  0  0  0  0  0  0  0
    0.2990   24.1870  -27.6140 C   0  0  0  0  0  0  0  0  0  0  0  0
   -1.4640   22.3970  -27.3170 C   0  0  0  0  0  0  0  0  0  0  0  0
   -5.9728   24.8039  -28.6383 H   0  0  0  0  0  0  0  0  0  0  0  0
   -7.1549   24.7712  -29.9904 H   0  0  0  0  0  0  0  0  0  0  0  0
   -5.7589   23.6408  -29.9904 H   0  0  0  0  0  0  0  0  0  0  0  0
   -5.6335   25.7635  -31.5069 H   0  0  0  0  0  0  0  0  0  0  0  0
   -5.3469   26.6517  -29.9609 H   0  0  0  0  0  0  0  0  0  0  0  0
   -4.0514   23.0505  -32.0302 H   0  0  0  0  0  0  0  0  0  0  0  0
   -3.1398   20.8174  -31.4011 H   0  0  0  0  0  0  0  0  0  0  0  0
   -1.9417   20.5145  -29.2377 H   0  0  0  0  0  0  0  0  0  0  0  0
   -2.8638   24.3812  -26.1536 H   0  0  0  0  0  0  0  0  0  0  0  0
   -1.3154   26.7981  -27.0129 H   0  0  0  0  0  0  0  0  0  0  0  0
   -2.5095   26.5529  -25.6622 H   0  0  0  0  0  0  0  0  0  0  0  0
   -0.4872   26.9051  -23.3008 H   0  0  0  0  0  0  0  0  0  0  0  0
    0.4547   27.7672  -24.5642 H   0  0  0  0  0  0  0  0  0  0  0  0
   -1.3394   27.8560  -24.5642 H   0  0  0  0  0  0  0  0  0  0  0  0
    0.1149   24.8173  -23.6077 H   0  0  0  0  0  0  0  0  0  0  0  0
   -1.6557   24.7640  -23.9570 H   0  0  0  0  0  0  0  0  0  0  0  0
    0.6234   23.2805  -25.2675 H   0  0  0  0  0  0  0  0  0  0  0  0
   -1.0638   22.7378  -24.8354 H   0  0  0  0  0  0  0  0  0  0  0  0
    1.1248   24.4983  -26.9573 H   0  0  0  0  0  0  0  0  0  0  0  0
    0.6302   23.3520  -28.2489 H   0  0  0  0  0  0  0  0  0  0  0  0
   -0.0034   25.0328  -28.2489 H   0  0  0  0  0  0  0  0  0  0  0  0
   -0.6273   21.6972  -27.4593 H   0  0  0  0  0  0  0  0  0  0  0  0
   -2.1980   22.0040  -26.5981 H   0  0  0  0  0  0  0  0  0  0  0  0
  1  2  1  0
  2  3  1  0
  3  4  1  0
  4  5  2  0
  5  6  1  0
  6  7  2  0
  7  8  1  0
  8  9  2  0
  9 10  1  0
 10 11  1  0
 11 12  1  0
 12 13  1  0
 13 14  1  0
 13 15  1  0
 15 16  1  0
 16 17  1  0
 17 18  1  6
 17 19  1  0
  9  4  1  0
 17 11  1  0
 19  8  1  0
  1 20  1  0
  1 21  1  0
  1 22  1  0
  2 23  1  0
  2 24  1  0
  5 25  1  0
  6 26  1  0
  7 27  1  0
 11 28  1  1
 12 29  1  0
 12 30  1  0
 14 31  1  0
 14 32  1  0
 14 33  1  0
 15 34  1  0
 15 35  1  0
 16 36  1  0
 16 37  1  0
 18 38  1  0
 18 39  1  0
 18 40  1  0
 19 41  1  0
 19 42  1  0
M  END
>  <UniqueID>  (42) 
39

>  <SMILES>  (42) 
CCOc1cccc2c1O[C@@H]1CN(C)CC[C@@]1(C)C2

>  <Energy>  (42) 
50.3190853214628

>  <Genealogy>  (42) 
CCOc1cccc2c1O[C@@H]1CN(C)CC[C@@]1(C)C2 (chirality)
CCOc1cccc2c1O[C@@H]1CN(C)CC[C@@]1(C)C2 (3D coordinates assigned)
CCOc1cccc2c1O[C@@H]1CN(C)CC[C@@]1(C)C2 (nonaromatic ring conformer: 50.3190853214628 kcal/mol)

>  <smiles>  (42) 
CCOc1cccc2c1OC1CN(C)CCC1(C)C2

>  <score_type>  (42) 
oracle

>  <origin>  (42) 
adg

>  <m_score__min__energy>  (42) 
-7.0899999999999999

>  <m_primary>  (42) 
energy

$$$$
42:0
     RDKit          3D

 34 35  0  0  0  0  0  0  0  0999 V2000
   -6.3636   25.8163  -29.0729 H   0  0  0  0  0  0  0  0  0  0  0  0
   -5.9760   25.0560  -29.7670 C   0  0  0  0  0  0  0  0  0  0  0  0
   -4.5990   24.8910  -29.9230 C   0  0  0  0  0  0  0  0  0  0  0  0
   -3.9025   25.5290  -29.3592 H   0  0  0  0  0  0  0  0  0  0  0  0
   -4.1030   23.9170  -30.7940 C   0  0  0  0  0  0  0  0  0  0  0  0
   -3.0167   23.7869  -30.9078 H   0  0  0  0  0  0  0  0  0  0  0  0
   -4.9870   23.1010  -31.5270 C   0  0  0  0  0  0  0  0  0  0  0  0
   -4.5280   22.0850  -32.3800 O   0  0  0  0  0  0  0  0  0  0  0  0
   -3.2070   21.5550  -32.3650 C   0  0  0  0  0  0  0  0  0  0  0  0
   -2.8769   21.4225  -31.3241 H   0  0  0  0  0  0  0  0  0  0  0  0
   -3.1961   20.5829  -32.8797 H   0  0  0  0  0  0  0  0  0  0  0  0
   -2.5272   22.2500  -32.8797 H   0  0  0  0  0  0  0  0  0  0  0  0
   -6.3770   23.2980  -31.3910 C   0  0  0  0  0  0  0  0  0  0  0  0
   -7.3130   22.4790  -32.1070 N   0  0  0  0  0  0  0  0  0  0  0  0
   -7.5650   21.2150  -31.9050 C   0  0  0  0  0  0  0  0  0  0  0  0
   -6.4820   20.2880  -32.1170 N   0  0  0  0  0  0  0  0  0  0  0  0
   -5.6360   20.6450  -32.6170 H   0  0  0  0  0  0  0  0  0  0  0  0
   -6.4090   18.9190  -31.6030 C   0  0  0  0  0  0  0  0  0  0  0  0
   -6.6805   18.9224  -30.5370 H   0  0  0  0  0  0  0  0  0  0  0  0
   -5.3819   18.5515  -31.7441 H   0  0  0  0  0  0  0  0  0  0  0  0
   -7.3610   17.9860  -32.3560 C   0  0  0  0  0  0  0  0  0  0  0  0
   -7.0868   16.9452  -32.1291 H   0  0  0  0  0  0  0  0  0  0  0  0
   -7.2638   18.2068  -33.4292 H   0  0  0  0  0  0  0  0  0  0  0  0
   -8.8320   18.2030  -31.9680 C   0  0  0  0  0  0  0  0  0  0  0  0
   -8.9086   18.1578  -30.8716 H   0  0  0  0  0  0  0  0  0  0  0  0
   -9.4086   17.4133  -32.4719 H   0  0  0  0  0  0  0  0  0  0  0  0
   -9.4230   19.5430  -32.4360 C   0  0  0  0  0  0  0  0  0  0  0  0
  -10.5201   19.4751  -32.3933 H   0  0  0  0  0  0  0  0  0  0  0  0
   -9.0593   19.7210  -33.4587 H   0  0  0  0  0  0  0  0  0  0  0  0
   -8.9750   20.7330  -31.5800 C   0  0  0  0  0  0  0  0  0  0  0  0
   -9.0060   20.4331  -30.5221 H   0  0  0  0  0  0  0  0  0  0  0  0
   -9.6610   21.5654  -31.7959 H   0  0  0  0  0  0  0  0  0  0  0  0
   -6.8620   24.2560  -30.4920 C   0  0  0  0  0  0  0  0  0  0  0  0
   -7.9466   24.3791  -30.3561 H   0  0  0  0  0  0  0  0  0  0  0  0
  1  2  1  0
  2  3  2  0
  3  4  1  0
  3  5  1  0
  5  6  1  0
  5  7  2  0
  7  8  1  0
  8  9  1  0
  9 10  1  0
  9 11  1  0
  9 12  1  0
  7 13  1  0
 13 14  1  0
 14 15  2  0
 15 16  1  0
 16 17  1  0
 16 18  1  0
 18 19  1  0
 18 20  1  0
 18 21  1  0
 21 22  1  0
 21 23  1  0
 21 24  1  0
 24 25  1  0
 24 26  1  0
 24 27  1  0
 27 28  1  0
 27 29  1  0
 27 30  1  0
 30 31  1  0
 30 32  1  0
 13 33  2  0
 33 34  1  0
 33  2  1  0
 30 15  1  0
M  END
>  <UniqueID>  (43) 
40

>  <SMILES>  (43) 
COc1ccccc1/N=C1\CCCCCN1

>  <Energy>  (43) 
43.67450408909664

>  <Genealogy>  (43) 
COc1ccccc1/N=C1\CCCCCN1 (cis-trans isomerization)
COc1ccccc1/N=C1\CCCCCN1 (3D coordinates assigned)
COc1ccccc1/N=C1\CCCCCN1 (nonaromatic ring conformer: 43.67450408909664 kcal/mol)

>  <smiles>  (43) 
COc1ccccc1N=C1CCCCCN1

>  <score_type>  (43) 
oracle

>  <origin>  (43) 
adg

>  <m_score__min__energy>  (43) 
-5.2300000000000004

>  <m_primary>  (43) 
energy

$$$$
43:0
     RDKit          3D

 54 56  0  0  0  0  0  0  0  0999 V2000
   -5.8935   15.2705  -33.1159 H   0  0  0  0  0  0  0  0  0  0  0  0
   -5.8370   16.2880  -33.5300 C   0  0  0  0  0  0  0  0  0  0  0  0
   -5.0730   16.5320  -34.6280 N   0  0  0  0  0  0  0  0  0  0  0  0
   -4.9840   17.7770  -35.1720 C   0  0  0  0  0  0  0  0  0  0  0  0
   -4.3595   17.9447  -36.0619 H   0  0  0  0  0  0  0  0  0  0  0  0
   -5.6850   18.8410  -34.6010 C   0  0  0  0  0  0  0  0  0  0  0  0
   -5.6280   19.8448  -35.0472 H   0  0  0  0  0  0  0  0  0  0  0  0
   -6.4620   18.6210  -33.4550 C   0  0  0  0  0  0  0  0  0  0  0  0
   -7.2220   19.7240  -32.8320 C   0  0  0  0  0  0  0  0  0  0  0  0
   -6.6360   20.6940  -32.1870 N   0  0  0  0  0  0  0  0  0  0  0  0
   -6.4840   22.0860  -32.6210 C   0  0  0  0  0  0  0  0  0  0  0  0
   -7.3314   22.6765  -32.2425 H   0  0  0  0  0  0  0  0  0  0  0  0
   -6.4601   22.1122  -33.7204 H   0  0  0  0  0  0  0  0  0  0  0  0
   -5.1760   22.6830  -32.0860 C   0  0  0  0  0  0  0  0  0  0  0  0
   -4.4661   22.7743  -32.9213 H   0  0  0  0  0  0  0  0  0  0  0  0
   -4.8058   22.0076  -31.3007 H   0  0  0  0  0  0  0  0  0  0  0  0
   -5.3590   24.0670  -31.4480 C   0  0  0  0  0  0  0  0  0  0  0  0
   -6.3934   24.1676  -31.0876 H   0  0  0  0  0  0  0  0  0  0  0  0
   -5.1479   24.8412  -32.2004 H   0  0  0  0  0  0  0  0  0  0  0  0
   -4.4250   24.2300  -30.3090 N   0  0  0  0  0  0  0  0  0  0  0  0
   -5.1060   24.0570  -29.0040 C   0  0  0  0  0  0  0  0  0  0  0  0
   -5.7392   23.1589  -29.0537 H   0  0  0  0  0  0  0  0  0  0  0  0
   -5.7002   24.9635  -28.8163 H   0  0  0  0  0  0  0  0  0  0  0  0
   -4.1140   23.8980  -27.8310 C   0  0  0  0  0  0  0  0  0  0  0  0
   -4.0641   22.8376  -27.5427 H   0  0  0  0  0  0  0  0  0  0  0  0
   -4.4665   24.5093  -26.9872 H   0  0  0  0  0  0  0  0  0  0  0  0
   -2.7720   24.3560  -28.2140 N   0  0  0  0  0  0  0  0  0  0  0  0
   -2.0190   25.2400  -27.3600 C   0  0  0  0  0  0  0  0  0  0  0  0
   -0.9030   25.9310  -27.8590 C   0  0  0  0  0  0  0  0  0  0  0  0
   -0.6064   25.8017  -28.9103 H   0  0  0  0  0  0  0  0  0  0  0  0
   -0.1660   26.7820  -27.0300 C   0  0  0  0  0  0  0  0  0  0  0  0
    0.7039   27.3208  -27.4338 H   0  0  0  0  0  0  0  0  0  0  0  0
   -0.5310   26.9530  -25.6820 C   0  0  0  0  0  0  0  0  0  0  0  0
    0.1740   27.7970  -24.8120 O   0  0  0  0  0  0  0  0  0  0  0  0
    0.4970   27.4720  -23.4630 C   0  0  0  0  0  0  0  0  0  0  0  0
   -0.1121   28.0849  -22.7823 H   0  0  0  0  0  0  0  0  0  0  0  0
    0.2892   26.4070  -23.2826 H   0  0  0  0  0  0  0  0  0  0  0  0
    1.5633   27.6732  -23.2826 H   0  0  0  0  0  0  0  0  0  0  0  0
   -1.6370   26.2550  -25.1830 C   0  0  0  0  0  0  0  0  0  0  0  0
   -1.9287   26.3775  -24.1295 H   0  0  0  0  0  0  0  0  0  0  0  0
   -2.3740   25.4040  -26.0110 C   0  0  0  0  0  0  0  0  0  0  0  0
   -3.2381   24.8588  -25.6034 H   0  0  0  0  0  0  0  0  0  0  0  0
   -2.1700   23.8320  -29.4480 C   0  0  0  0  0  0  0  0  0  0  0  0
   -1.5045   22.9930  -29.1967 H   0  0  0  0  0  0  0  0  0  0  0  0
   -1.6017   24.6390  -29.9336 H   0  0  0  0  0  0  0  0  0  0  0  0
   -3.2530   23.3420  -30.4160 C   0  0  0  0  0  0  0  0  0  0  0  0
   -3.5437   22.3136  -30.1553 H   0  0  0  0  0  0  0  0  0  0  0  0
   -2.8670   23.3561  -31.4459 H   0  0  0  0  0  0  0  0  0  0  0  0
   -8.6540   19.6780  -32.8860 N   0  0  0  0  0  0  0  0  0  0  0  0
   -9.1310   18.8870  -33.3720 H   0  0  0  0  0  0  0  0  0  0  0  0
   -9.4480   20.7050  -32.3510 C   0  0  0  0  0  0  0  0  0  0  0  0
  -10.1010   21.5520  -31.9090 N   0  0  0  0  0  0  0  0  0  0  0  0
   -6.5500   17.3260  -32.9270 C   0  0  0  0  0  0  0  0  0  0  0  0
   -7.1760   17.1287  -32.0443 H   0  0  0  0  0  0  0  0  0  0  0  0
  1  2  1  0
  2  3  2  0
  3  4  1  0
  4  5  1  0
  4  6  2  0
  6  7  1  0
  6  8  1  0
  8  9  1  0
  9 10  2  0
 10 11  1  0
 11 12  1  0
 11 13  1  0
 11 14  1  0
 14 15  1  0
 14 16  1  0
 14 17  1  0
 17 18  1  0
 17 19  1  0
 17 20  1  0
 20 21  1  0
 21 22  1  0
 21 23  1  0
 21 24  1  0
 24 25  1  0
 24 26  1  0
 24 27  1  0
 27 28  1  0
 28 29  2  0
 29 30  1  0
 29 31  1  0
 31 32  1  0
 31 33  2  0
 33 34  1  0
 34 35  1  0
 35 36  1  0
 35 37  1  0
 35 38  1  0
 33 39  1  0
 39 40  1  0
 39 41  2  0
 41 42  1  0
 27 43  1  0
 43 44  1  0
 43 45  1  0
 43 46  1  0
 46 47  1  0
 46 48  1  0
  9 49  1  0
 49 50  1  0
 49 51  1  0
 51 52  3  0
  8 53  2  0
 53 54  1  0
 53  2  1  0
 46 20  1  0
 41 28  1  0
M  END
>  <UniqueID>  (44) 
41

>  <SMILES>  (44) 
COc1ccc(N2CCN(CCC/N=C(/NC#N)c3ccncc3)CC2)cc1

>  <Energy>  (44) 
70.97582858507516

>  <Genealogy>  (44) 
COc1ccc(N2CCN(CCC/N=C(/NC#N)c3ccncc3)CC2)cc1 (cis-trans isomerization)
COc1ccc(N2CCN(CCC/N=C(/NC#N)c3ccncc3)CC2)cc1 (3D coordinates assigned)
COc1ccc(N2CCN(CCC/N=C(/NC#N)c3ccncc3)CC2)cc1 (nonaromatic ring conformer: 70.97582858507516 kcal/mol)

>  <smiles>  (44) 
COc1ccc(N2CCN(CCCN=C(NC#N)c3ccncc3)CC2)cc1

>  <score_type>  (44) 
oracle

>  <origin>  (44) 
adg

>  <m_score__min__energy>  (44) 
-8.0099999999999998

>  <m_primary>  (44) 
energy

$$$$
44:0
     RDKit          3D

 46 49  0  0  0  0  0  0  0  0999 V2000
    1.0540   27.7480  -23.2470 C   0  0  0  0  0  0  0  0  0  0  0  0
   -0.1950   26.8680  -23.1530 C   0  0  0  0  0  0  0  0  0  0  0  0
    0.0230   25.5270  -23.7200 N   0  0  0  0  0  0  0  0  0  0  0  0
   -0.4460   25.4440  -25.0830 C   0  0  0  0  0  0  0  0  0  0  0  0
    0.3840   25.8700  -26.1560 C   0  0  0  0  0  0  0  0  0  0  0  0
   -0.0590   25.7780  -27.4900 C   0  0  0  0  0  0  0  0  0  0  0  0
   -1.3300   25.2570  -27.7140 C   0  0  0  0  0  0  0  0  0  0  0  0
   -1.9520   25.0770  -28.8900 N   0  0  0  0  0  0  0  0  0  0  0  0
   -3.1440   24.5440  -28.5030 C   0  0  0  0  0  0  0  0  0  0  0  0
   -4.2100   24.1600  -29.4500 C   0  0  0  0  0  0  0  0  0  0  0  0
   -5.4390   24.8400  -29.4590 C   0  0  0  0  0  0  0  0  0  0  0  0
   -6.4460   24.4710  -30.3570 C   0  0  0  0  0  0  0  0  0  0  0  0
   -6.2430   23.4030  -31.2480 C   0  0  0  0  0  0  0  0  0  0  0  0
   -7.2500   23.0060  -32.1920 N   0  0  0  0  0  0  0  0  0  0  0  0
   -8.2830   22.0360  -31.9700 C   0  0  0  0  0  0  0  0  0  0  0  0
   -9.4410   22.4440  -31.6920 O   0  0  0  0  0  0  0  0  0  0  0  0
   -8.0390   20.5810  -32.1220 C   0  0  0  0  0  0  0  0  0  0  0  0
   -8.9350   19.6500  -31.5630 C   0  0  0  0  0  0  0  0  0  0  0  0
   -8.7070   18.2780  -31.7010 C   0  0  0  0  0  0  0  0  0  0  0  0
   -7.5820   17.8200  -32.3890 C   0  0  0  0  0  0  0  0  0  0  0  0
   -6.6790   18.7340  -32.9380 C   0  0  0  0  0  0  0  0  0  0  0  0
   -6.9000   20.1090  -32.8050 C   0  0  0  0  0  0  0  0  0  0  0  0
   -6.0160   20.9740  -33.3630 F   0  0  0  0  0  0  0  0  0  0  0  0
   -5.0100   22.7420  -31.2560 C   0  0  0  0  0  0  0  0  0  0  0  0
   -4.0030   23.1110  -30.3600 C   0  0  0  0  0  0  0  0  0  0  0  0
   -3.2510   24.4060  -27.1910 O   0  0  0  0  0  0  0  0  0  0  0  0
   -2.1280   24.8470  -26.6930 C   0  0  0  0  0  0  0  0  0  0  0  0
   -1.7320   24.9190  -25.3620 C   0  0  0  0  0  0  0  0  0  0  0  0
    1.4052   27.9955  -22.2344 H   0  0  0  0  0  0  0  0  0  0  0  0
    1.8444   27.2062  -23.7871 H   0  0  0  0  0  0  0  0  0  0  0  0
    0.8098   28.6747  -23.7871 H   0  0  0  0  0  0  0  0  0  0  0  0
   -0.4752   26.7633  -22.0945 H   0  0  0  0  0  0  0  0  0  0  0  0
   -0.9934   27.3534  -23.7336 H   0  0  0  0  0  0  0  0  0  0  0  0
   -0.4450   24.8050  -23.1230 H   0  0  0  0  0  0  0  0  0  0  0  0
    1.0480   25.3190  -23.7040 H   0  0  0  0  0  0  0  0  0  0  0  0
    1.3836   26.2761  -25.9419 H   0  0  0  0  0  0  0  0  0  0  0  0
    0.5771   26.1063  -28.3252 H   0  0  0  0  0  0  0  0  0  0  0  0
   -5.6107   25.6679  -28.7554 H   0  0  0  0  0  0  0  0  0  0  0  0
   -7.4000   25.0185  -30.3659 H   0  0  0  0  0  0  0  0  0  0  0  0
   -9.8200   20.0046  -31.0143 H   0  0  0  0  0  0  0  0  0  0  0  0
   -9.4156   17.5575  -31.2665 H   0  0  0  0  0  0  0  0  0  0  0  0
   -7.4065   16.7397  -32.4989 H   0  0  0  0  0  0  0  0  0  0  0  0
   -5.7912   18.3712  -33.4767 H   0  0  0  0  0  0  0  0  0  0  0  0
   -4.8320   21.9264  -31.9723 H   0  0  0  0  0  0  0  0  0  0  0  0
   -3.0419   22.5761  -30.3677 H   0  0  0  0  0  0  0  0  0  0  0  0
   -2.3951   24.5796  -24.5526 H   0  0  0  0  0  0  0  0  0  0  0  0
  1  2  1  0
  2  3  1  0
  3  4  1  0
  4  5  2  0
  5  6  1  0
  6  7  2  0
  7  8  1  0
  8  9  2  0
  9 10  1  0
 10 11  2  0
 11 12  1  0
 12 13  2  0
 13 14  1  0
 14 15  1  0
 15 16  2  0
 15 17  1  0
 17 18  2  0
 18 19  1  0
 19 20  2  0
 20 21  1  0
 21 22  2  0
 22 23  1  0
 13 24  1  0
 24 25  2  0
  9 26  1  0
 26 27  1  0
 27 28  2  0
 28  4  1  0
 27  7  1  0
 25 10  1  0
 22 17  1  0
  1 29  1  0
  1 30  1  0
  1 31  1  0
  2 32  1  0
  2 33  1  0
  3 34  1  0
  3 35  1  0
  5 36  1  0
  6 37  1  0
 11 38  1  0
 12 39  1  0
 18 40  1  0
 19 41  1  0
 20 42  1  0
 21 43  1  0
 24 44  1  0
 25 45  1  0
 28 46  1  0
M  CHG  2   3   1  14  -1
M  END
>  <UniqueID>  (45) 
42

>  <SMILES>  (45) 
CC[NH2+]c1ccc2nc(-c3ccc([N-]C(=O)c4ccccc4F)cc3)oc2c1

>  <Energy>  (45) 
94.58907419778642

>  <Genealogy>  (45) 
CC[NH2+]c1ccc2nc(-c3ccc([N-]C(=O)c4ccccc4F)cc3)oc2c1 (protonated)
CC[NH2+]c1ccc2nc(-c3ccc([N-]C(=O)c4ccccc4F)cc3)oc2c1 (3D coordinates assigned)
CC[NH2+]c1ccc2nc(-c3ccc([N-]C(=O)c4ccccc4F)cc3)oc2c1 (optimized conformer: 94.58907419778642 kcal/mol)

>  <smiles>  (45) 
CCNc1ccc2nc(-c3ccc(NC(=O)c4ccccc4F)cc3)oc2c1

>  <score_type>  (45) 
oracle

>  <origin>  (45) 
adg

>  <m_score__min__energy>  (45) 
-9.4100000000000001

>  <m_primary>  (45) 
energy

$$$$
45:0
     RDKit          3D

 48 51  0  0  0  0  0  0  0  0999 V2000
   -9.4430   21.7610  -31.9240 C   0  0  0  0  0  0  0  0  0  0  0  0
   -8.4500   22.7200  -32.2750 O   0  0  0  0  0  0  0  0  0  0  0  0
   -7.2690   22.9440  -31.5510 C   0  0  0  0  0  0  0  0  0  0  0  0
   -7.0590   24.1180  -30.8110 C   0  0  0  0  0  0  0  0  0  0  0  0
   -5.8700   24.3110  -30.1060 C   0  0  0  0  0  0  0  0  0  0  0  0
   -4.8330   23.3540  -30.1430 C   0  0  0  0  0  0  0  0  0  0  0  0
   -3.5330   23.5560  -29.3170 C   0  0  1  0  0  0  0  0  0  0  0  0
   -3.0090   24.9280  -29.5460 N   0  0  0  0  0  0  0  0  0  0  0  0
   -1.7070   25.1760  -28.8930 C   0  0  0  0  0  0  0  0  0  0  0  0
   -1.5490   24.4280  -27.5580 C   0  0  0  0  0  0  0  0  0  0  0  0
   -2.9070   24.0950  -26.9310 C   0  0  0  0  0  0  0  0  0  0  0  0
   -3.8360   23.3750  -27.8540 N   0  0  2  0  0  0  0  0  0  0  0  0
   -4.0120   21.9530  -27.4700 C   0  0  0  0  0  0  0  0  0  0  0  0
   -2.8110   21.1170  -27.8200 C   0  0  0  0  0  0  0  0  0  0  0  0
   -2.4640   20.0070  -27.0330 C   0  0  0  0  0  0  0  0  0  0  0  0
   -1.3940   19.1890  -27.4040 C   0  0  0  0  0  0  0  0  0  0  0  0
   -0.6750   19.4650  -28.5690 C   0  0  0  0  0  0  0  0  0  0  0  0
   -1.0240   20.5590  -29.3660 C   0  0  0  0  0  0  0  0  0  0  0  0
   -2.0970   21.3880  -28.9970 C   0  0  0  0  0  0  0  0  0  0  0  0
   -2.4740   22.5610  -29.8090 C   0  0  0  0  0  0  0  0  0  0  0  0
   -1.9460   22.7340  -30.9430 O   0  0  0  0  0  0  0  0  0  0  0  0
   -5.0810   22.1540  -30.8560 C   0  0  0  0  0  0  0  0  0  0  0  0
   -6.2800   21.9540  -31.5660 C   0  0  0  0  0  0  0  0  0  0  0  0
   -6.5280   20.7800  -32.2930 O   0  0  0  0  0  0  0  0  0  0  0  0
   -5.6140   20.1850  -33.2100 C   0  0  0  0  0  0  0  0  0  0  0  0
   -9.5148   21.6917  -30.8285 H   0  0  0  0  0  0  0  0  0  0  0  0
  -10.4145   22.0714  -32.3362 H   0  0  0  0  0  0  0  0  0  0  0  0
   -9.1666   20.7793  -32.3362 H   0  0  0  0  0  0  0  0  0  0  0  0
   -7.8389   24.8933  -30.7864 H   0  0  0  0  0  0  0  0  0  0  0  0
   -5.7385   25.2263  -29.5102 H   0  0  0  0  0  0  0  0  0  0  0  0
   -3.6670   25.6270  -29.1320 H   0  0  0  0  0  0  0  0  0  0  0  0
   -0.9064   24.8505  -29.5735 H   0  0  0  0  0  0  0  0  0  0  0  0
   -1.6495   26.2525  -28.6745 H   0  0  0  0  0  0  0  0  0  0  0  0
   -0.9996   23.4919  -27.7367 H   0  0  0  0  0  0  0  0  0  0  0  0
   -1.0006   25.0801  -26.8623 H   0  0  0  0  0  0  0  0  0  0  0  0
   -2.7356   23.4620  -26.0479 H   0  0  0  0  0  0  0  0  0  0  0  0
   -3.3859   25.0519  -26.6759 H   0  0  0  0  0  0  0  0  0  0  0  0
   -4.7740   23.8110  -27.6790 H   0  0  0  0  0  0  0  0  0  0  0  0
   -4.1781   21.8973  -26.3840 H   0  0  0  0  0  0  0  0  0  0  0  0
   -4.8734   21.5567  -28.0276 H   0  0  0  0  0  0  0  0  0  0  0  0
   -3.0366   19.7808  -26.1214 H   0  0  0  0  0  0  0  0  0  0  0  0
   -1.1178   18.3274  -26.7784 H   0  0  0  0  0  0  0  0  0  0  0  0
    0.1675   18.8203  -28.8599 H   0  0  0  0  0  0  0  0  0  0  0  0
   -0.4572   20.7716  -30.2845 H   0  0  0  0  0  0  0  0  0  0  0  0
   -4.3189   21.3608  -30.8544 H   0  0  0  0  0  0  0  0  0  0  0  0
   -4.8195   19.6678  -32.6522 H   0  0  0  0  0  0  0  0  0  0  0  0
   -6.1485   19.4612  -33.8429 H   0  0  0  0  0  0  0  0  0  0  0  0
   -5.1685   20.9667  -33.8429 H   0  0  0  0  0  0  0  0  0  0  0  0
  1  2  1  0
  2  3  1  0
  3  4  2  0
  4  5  1  0
  5  6  2  0
  7  6  1  6
  7  8  1  0
  8  9  1  0
  9 10  1  0
 10 11  1  0
 11 12  1  0
 12 13  1  0
 13 14  1  0
 14 15  2  0
 15 16  1  0
 16 17  2  0
 17 18  1  0
 18 19  2  0
 19 20  1  0
 20 21  2  0
  6 22  1  0
 22 23  2  0
 23 24  1  0
 24 25  1  0
 23  3  1  0
 12  7  1  0
 19 14  1  0
 20  7  1  0
  1 26  1  0
  1 27  1  0
  1 28  1  0
  4 29  1  0
  5 30  1  0
  8 31  1  0
  9 32  1  0
  9 33  1  0
 10 34  1  0
 10 35  1  0
 11 36  1  0
 11 37  1  0
 12 38  1  6
 13 39  1  0
 13 40  1  0
 15 41  1  0
 16 42  1  0
 17 43  1  0
 18 44  1  0
 22 45  1  0
 25 46  1  0
 25 47  1  0
 25 48  1  0
M  CHG  1  12   1
M  END
>  <UniqueID>  (46) 
43

>  <SMILES>  (46) 
COc1ccc([C@@]23NCCC[N@@H+]2Cc2ccccc2C3=O)cc1OC

>  <Energy>  (46) 
77.36802699173796

>  <Genealogy>  (46) 
COc1ccc(C23NCCC[NH+]2Cc2ccccc2C3=O)cc1OC (protonated)
COc1ccc([C@@]23NCCC[N@@H+]2Cc2ccccc2C3=O)cc1OC (chirality)
COc1ccc([C@@]23NCCC[N@@H+]2Cc2ccccc2C3=O)cc1OC (3D coordinates assigned)
COc1ccc([C@@]23NCCC[N@@H+]2Cc2ccccc2C3=O)cc1OC (nonaromatic ring conformer: 77.36802699173796 kcal/mol)

>  <smiles>  (46) 
COc1ccc(C23NCCCN2Cc2ccccc2C3=O)cc1OC

>  <score_type>  (46) 
oracle

>  <origin>  (46) 
adg

>  <m_score__min__energy>  (46) 
-6.5199999999999996

>  <m_primary>  (46) 
energy

$$$$
46:0
     RDKit          3D

 31 33  0  0  0  0  0  0  0  0999 V2000
   -5.4880   26.3830  -30.4360 O   0  0  0  0  0  0  0  0  0  0  0  0
   -4.8840   25.2880  -30.5960 C   0  0  0  0  0  0  0  0  0  0  0  0
   -3.4990   25.2600  -30.4790 O   0  0  0  0  0  0  0  0  0  0  0  0
   -5.6370   24.0520  -30.9040 C   0  0  0  0  0  0  0  0  0  0  0  0
   -6.4680   23.4680  -29.9330 C   0  0  0  0  0  0  0  0  0  0  0  0
   -7.1800   22.3000  -30.2200 C   0  0  0  0  0  0  0  0  0  0  0  0
   -7.0650   21.6890  -31.4780 C   0  0  0  0  0  0  0  0  0  0  0  0
   -7.8010   20.4920  -31.7840 N   0  0  0  0  0  0  0  0  0  0  0  0
   -9.0760   20.3100  -31.4740 N   0  0  0  0  0  0  0  0  0  0  0  0
   -9.4780   19.0840  -31.7730 N   0  0  0  0  0  0  0  0  0  0  0  0
   -8.4140   18.4480  -32.3030 C   0  0  0  0  0  0  0  0  0  0  0  0
   -7.3520   19.3330  -32.3180 C   0  0  0  0  0  0  0  0  0  0  0  0
   -6.0160   19.0770  -32.8970 C   0  0  0  0  0  0  0  0  0  0  0  0
   -5.8790   18.4010  -34.1230 C   0  0  0  0  0  0  0  0  0  0  0  0
   -4.6090   18.1560  -34.6560 C   0  0  0  0  0  0  0  0  0  0  0  0
   -3.4680   18.5710  -33.9650 C   0  0  0  0  0  0  0  0  0  0  0  0
   -3.5930   19.2250  -32.7380 C   0  0  0  0  0  0  0  0  0  0  0  0
   -4.8600   19.4740  -32.2020 C   0  0  0  0  0  0  0  0  0  0  0  0
   -6.2490   22.2780  -32.4530 C   0  0  0  0  0  0  0  0  0  0  0  0
   -5.5360   23.4470  -32.1700 C   0  0  0  0  0  0  0  0  0  0  0  0
   -6.5588   23.9332  -28.9403 H   0  0  0  0  0  0  0  0  0  0  0  0
   -7.8346   21.8570  -29.4550 H   0  0  0  0  0  0  0  0  0  0  0  0
   -9.6870   21.0250  -31.0200 H   0  0  0  0  0  0  0  0  0  0  0  0
   -8.3943   17.4079  -32.6606 H   0  0  0  0  0  0  0  0  0  0  0  0
   -6.7747   18.0635  -34.6651 H   0  0  0  0  0  0  0  0  0  0  0  0
   -4.5087   17.6361  -35.6202 H   0  0  0  0  0  0  0  0  0  0  0  0
   -2.4703   18.3823  -34.3881 H   0  0  0  0  0  0  0  0  0  0  0  0
   -2.6932   19.5449  -32.1921 H   0  0  0  0  0  0  0  0  0  0  0  0
   -4.9530   19.9832  -31.2314 H   0  0  0  0  0  0  0  0  0  0  0  0
   -6.1687   21.8172  -33.4486 H   0  0  0  0  0  0  0  0  0  0  0  0
   -4.8928   23.8959  -32.9412 H   0  0  0  0  0  0  0  0  0  0  0  0
  1  2  2  0
  2  3  1  0
  2  4  1  0
  4  5  2  0
  5  6  1  0
  6  7  2  0
  7  8  1  0
  8  9  1  0
  9 10  2  0
 10 11  1  0
 11 12  2  0
 12 13  1  0
 13 14  2  0
 14 15  1  0
 15 16  2  0
 16 17  1  0
 17 18  2  0
  7 19  1  0
 19 20  2  0
 20  4  1  0
 12  8  1  0
 18 13  1  0
  5 21  1  0
  6 22  1  0
  9 23  1  0
 11 24  1  0
 14 25  1  0
 15 26  1  0
 16 27  1  0
 17 28  1  0
 18 29  1  0
 19 30  1  0
 20 31  1  0
M  CHG  2   3  -1   9   1
M  END
>  <UniqueID>  (47) 
44

>  <SMILES>  (47) 
O=C([O-])c1ccc(-n2[nH+]ncc2-c2ccccc2)cc1

>  <Energy>  (47) 
78.66315050297814

>  <Genealogy>  (47) 
O=C([O-])c1ccc(-n2[nH+]ncc2-c2ccccc2)cc1 (protonated)
O=C([O-])c1ccc(-n2[nH+]ncc2-c2ccccc2)cc1 (3D coordinates assigned)
O=C([O-])c1ccc(-n2[nH+]ncc2-c2ccccc2)cc1 (optimized conformer: 78.66315050297814 kcal/mol)

>  <smiles>  (47) 
O=C(O)c1ccc(-n2nncc2-c2ccccc2)cc1

>  <score_type>  (47) 
oracle

>  <origin>  (47) 
adg

>  <m_score__min__energy>  (47) 
-10.130000000000001

>  <m_primary>  (47) 
energy

$$$$
47:0
     RDKit          3D

 27 28  0  0  0  0  0  0  0  0999 V2000
   -5.2800   17.9380  -34.3090 O   0  0  0  0  0  0  0  0  0  0  0  0
   -5.5620   19.0520  -33.7910 C   0  0  0  0  0  0  0  0  0  0  0  0
   -6.8550   19.3720  -33.5280 N   0  0  0  0  0  0  0  0  0  0  0  0
   -7.1850   20.5700  -32.9690 C   0  0  0  0  0  0  0  0  0  0  0  0
   -8.4000   20.8340  -32.7580 O   0  0  0  0  0  0  0  0  0  0  0  0
   -6.2030   21.4780  -32.6460 N   0  0  0  0  0  0  0  0  0  0  0  0
   -6.5220   22.7940  -32.0550 C   0  0  1  0  0  0  0  0  0  0  0  0
   -7.4360   22.6510  -30.8480 C   0  0  0  0  0  0  0  0  0  0  0  0
   -7.0250   23.8080  -29.9930 C   0  0  0  0  0  0  0  0  0  0  0  0
   -5.5680   24.0200  -30.3860 C   0  0  2  0  0  0  0  0  0  0  0  0
   -5.1810   25.5040  -30.3730 C   0  0  0  0  0  0  0  0  0  0  0  0
   -3.8690   25.6710  -30.8360 O   0  0  0  0  0  0  0  0  0  0  0  0
   -5.3460   23.4720  -31.6690 O   0  0  0  0  0  0  0  0  0  0  0  0
   -4.8960   21.1800  -32.9190 C   0  0  0  0  0  0  0  0  0  0  0  0
   -4.5510   19.9590  -33.4910 C   0  0  0  0  0  0  0  0  0  0  0  0
   -3.2510   19.6670  -33.7530 F   0  0  0  0  0  0  0  0  0  0  0  0
   -7.6120   18.6890  -33.7620 H   0  0  0  0  0  0  0  0  0  0  0  0
   -7.0416   23.3787  -32.8285 H   0  0  0  0  0  0  0  0  0  0  0  0
   -8.4940   22.7276  -31.1390 H   0  0  0  0  0  0  0  0  0  0  0  0
   -7.3466   21.6781  -30.3425 H   0  0  0  0  0  0  0  0  0  0  0  0
   -7.6291   24.6997  -30.2165 H   0  0  0  0  0  0  0  0  0  0  0  0
   -7.1628   23.6242  -28.9173 H   0  0  0  0  0  0  0  0  0  0  0  0
   -4.9359   23.5105  -29.6438 H   0  0  0  0  0  0  0  0  0  0  0  0
   -5.8690   26.0636  -31.0238 H   0  0  0  0  0  0  0  0  0  0  0  0
   -5.2459   25.8805  -29.3415 H   0  0  0  0  0  0  0  0  0  0  0  0
   -3.6540   24.8670  -31.3790 H   0  0  0  0  0  0  0  0  0  0  0  0
   -4.1099   21.9127  -32.6841 H   0  0  0  0  0  0  0  0  0  0  0  0
  1  2  2  0
  2  3  1  0
  3  4  1  0
  4  5  2  0
  4  6  1  0
  6  7  1  0
  7  8  1  0
  8  9  1  0
  9 10  1  0
 10 11  1  0
 11 12  1  0
 10 13  1  0
  6 14  1  0
 14 15  2  0
 15 16  1  0
 15  2  1  0
 13  7  1  0
  3 17  1  0
  7 18  1  6
  8 19  1  0
  8 20  1  0
  9 21  1  0
  9 22  1  0
 10 23  1  1
 11 24  1  0
 11 25  1  0
 12 26  1  0
 14 27  1  0
M  END
>  <UniqueID>  (48) 
45

>  <SMILES>  (48) 
O=c1[nH]c(=O)n([C@H]2CC[C@H](CO)O2)cc1F

>  <Energy>  (48) 
28.713945951199555

>  <Genealogy>  (48) 
O=c1[nH]c(=O)n([C@H]2CC[C@H](CO)O2)cc1F (chirality)
O=c1[nH]c(=O)n([C@H]2CC[C@H](CO)O2)cc1F (3D coordinates assigned)
O=c1[nH]c(=O)n([C@H]2CC[C@H](CO)O2)cc1F (nonaromatic ring conformer: 28.713945951199555 kcal/mol)

>  <smiles>  (48) 
O=c1[nH]c(=O)n(C2CCC(CO)O2)cc1F

>  <score_type>  (48) 
oracle

>  <origin>  (48) 
adg

>  <m_score__min__energy>  (48) 
-6.4800000000000004

>  <m_primary>  (48) 
energy

$$$$
48:0
     RDKit          3D

 66 70  0  0  0  0  0  0  0  0999 V2000
    2.7830   22.2180  -35.3110 C   0  0  0  0  0  0  0  0  0  0  0  0
    1.5480   22.4100  -34.6310 O   0  0  0  0  0  0  0  0  0  0  0  0
    0.6910   21.3720  -34.2340 C   0  0  0  0  0  0  0  0  0  0  0  0
   -0.5030   21.1890  -34.9380 C   0  0  0  0  0  0  0  0  0  0  0  0
   -1.3930   20.1720  -34.5800 C   0  0  0  0  0  0  0  0  0  0  0  0
   -1.1050   19.3250  -33.4940 C   0  0  0  0  0  0  0  0  0  0  0  0
   -2.0500   18.2140  -33.1100 C   0  0  0  0  0  0  0  0  0  0  0  0
   -3.3960   18.4490  -33.6380 N   0  0  0  0  0  0  0  0  0  0  0  0
   -4.0010   17.7520  -34.6240 C   0  0  0  0  0  0  0  0  0  0  0  0
   -5.2640   18.1700  -34.8690 N   0  0  0  0  0  0  0  0  0  0  0  0
   -5.4540   19.1720  -33.9880 C   0  0  0  0  0  0  0  0  0  0  0  0
   -4.3130   19.3500  -33.2390 C   0  0  0  0  0  0  0  0  0  0  0  0
   -4.1520   20.2950  -32.1660 N   0  0  0  0  0  0  0  0  0  0  0  0
   -3.1710   21.3760  -32.3550 C   0  0  0  0  0  0  0  0  0  0  0  0
   -2.4830   21.7690  -31.0690 C   0  0  0  0  0  0  0  0  0  0  0  0
   -1.5670   20.9020  -30.4470 C   0  0  0  0  0  0  0  0  0  0  0  0
   -0.9170   21.2850  -29.2690 C   0  0  0  0  0  0  0  0  0  0  0  0
   -1.1680   22.5390  -28.7080 C   0  0  0  0  0  0  0  0  0  0  0  0
   -2.0680   23.4120  -29.3220 C   0  0  0  0  0  0  0  0  0  0  0  0
   -2.7200   23.0350  -30.5010 C   0  0  0  0  0  0  0  0  0  0  0  0
   -5.2670   20.4600  -31.2180 C   0  0  0  0  0  0  0  0  0  0  0  0
   -6.3550   19.4000  -31.4380 C   0  0  0  0  0  0  0  0  0  0  0  0
   -7.2650   19.8090  -32.5150 N   0  0  0  0  0  0  0  0  0  0  0  0
   -8.6910   19.7170  -32.3210 C   0  0  0  0  0  0  0  0  0  0  0  0
   -9.3810   18.9510  -33.0480 O   0  0  0  0  0  0  0  0  0  0  0  0
   -9.3090   20.4700  -31.3130 O   0  0  0  0  0  0  0  0  0  0  0  0
   -9.4900   21.8830  -31.3850 C   0  0  0  0  0  0  0  0  0  0  0  0
   -8.1760   22.5900  -31.1930 C   0  0  0  0  0  0  0  0  0  0  0  0
   -7.5010   23.1540  -32.2880 C   0  0  0  0  0  0  0  0  0  0  0  0
   -6.2690   23.7910  -32.1040 C   0  0  0  0  0  0  0  0  0  0  0  0
   -5.7030   23.8660  -30.8280 C   0  0  0  0  0  0  0  0  0  0  0  0
   -6.3660   23.3010  -29.7360 C   0  0  0  0  0  0  0  0  0  0  0  0
   -7.5970   22.6620  -29.9160 C   0  0  0  0  0  0  0  0  0  0  0  0
   -6.7170   19.9630  -33.8660 C   0  0  0  0  0  0  0  0  0  0  0  0
    0.1100   19.4870  -32.8090 C   0  0  0  0  0  0  0  0  0  0  0  0
    0.9950   20.5090  -33.1630 C   0  0  0  0  0  0  0  0  0  0  0  0
    3.5910   22.0924  -34.5752 H   0  0  0  0  0  0  0  0  0  0  0  0
    2.7184   21.3191  -35.9417 H   0  0  0  0  0  0  0  0  0  0  0  0
    2.9944   23.0941  -35.9417 H   0  0  0  0  0  0  0  0  0  0  0  0
   -0.7446   21.8518  -35.7820 H   0  0  0  0  0  0  0  0  0  0  0  0
   -2.3233   20.0333  -35.1503 H   0  0  0  0  0  0  0  0  0  0  0  0
   -1.6683   17.2645  -33.5134 H   0  0  0  0  0  0  0  0  0  0  0  0
   -2.1111   18.1762  -32.0123 H   0  0  0  0  0  0  0  0  0  0  0  0
   -3.5169   16.9296  -35.1711 H   0  0  0  0  0  0  0  0  0  0  0  0
   -2.4091   21.0384  -33.0730 H   0  0  0  0  0  0  0  0  0  0  0  0
   -3.7149   22.2580  -32.7243 H   0  0  0  0  0  0  0  0  0  0  0  0
   -1.3603   19.9164  -30.8896 H   0  0  0  0  0  0  0  0  0  0  0  0
   -0.2077   20.5980  -28.7843 H   0  0  0  0  0  0  0  0  0  0  0  0
   -0.6562   22.8391  -27.7817 H   0  0  0  0  0  0  0  0  0  0  0  0
   -2.2650   24.3988  -28.8776 H   0  0  0  0  0  0  0  0  0  0  0  0
   -3.4206   23.7306  -30.9861 H   0  0  0  0  0  0  0  0  0  0  0  0
   -4.8805   20.3677  -30.1923 H   0  0  0  0  0  0  0  0  0  0  0  0
   -5.7140   21.4518  -31.3807 H   0  0  0  0  0  0  0  0  0  0  0  0
   -5.8802   18.4455  -31.7090 H   0  0  0  0  0  0  0  0  0  0  0  0
   -6.9332   19.2873  -30.5090 H   0  0  0  0  0  0  0  0  0  0  0  0
   -9.9026   22.1459  -32.3702 H   0  0  0  0  0  0  0  0  0  0  0  0
  -10.1829   22.1952  -30.5898 H   0  0  0  0  0  0  0  0  0  0  0  0
   -7.9425   23.0947  -33.2937 H   0  0  0  0  0  0  0  0  0  0  0  0
   -5.7452   24.2333  -32.9643 H   0  0  0  0  0  0  0  0  0  0  0  0
   -4.7358   24.3698  -30.6839 H   0  0  0  0  0  0  0  0  0  0  0  0
   -5.9190   23.3588  -28.7326 H   0  0  0  0  0  0  0  0  0  0  0  0
   -8.1133   22.2143  -29.0541 H   0  0  0  0  0  0  0  0  0  0  0  0
   -7.4493   19.5992  -34.6018 H   0  0  0  0  0  0  0  0  0  0  0  0
   -6.5024   21.0253  -34.0543 H   0  0  0  0  0  0  0  0  0  0  0  0
    0.3675   18.8035  -31.9865 H   0  0  0  0  0  0  0  0  0  0  0  0
    1.9327   20.6400  -32.6031 H   0  0  0  0  0  0  0  0  0  0  0  0
  1  2  1  0
  2  3  1  0
  3  4  2  0
  4  5  1  0
  5  6  2  0
  6  7  1  0
  7  8  1  0
  8  9  1  0
  9 10  2  0
 10 11  1  0
 11 12  2  0
 12 13  1  0
 13 14  1  0
 14 15  1  0
 15 16  2  0
 16 17  1  0
 17 18  2  0
 18 19  1  0
 19 20  2  0
 13 21  1  0
 21 22  1  0
 22 23  1  0
 23 24  1  0
 24 25  2  0
 24 26  1  0
 26 27  1  0
 27 28  1  0
 28 29  2  0
 29 30  1  0
 30 31  2  0
 31 32  1  0
 32 33  2  0
 23 34  1  0
  6 35  1  0
 35 36  2  0
 36  3  1  0
 12  8  1  0
 20 15  1  0
 33 28  1  0
 34 11  1  0
  1 37  1  0
  1 38  1  0
  1 39  1  0
  4 40  1  0
  5 41  1  0
  7 42  1  0
  7 43  1  0
  9 44  1  0
 14 45  1  0
 14 46  1  0
 16 47  1  0
 17 48  1  0
 18 49  1  0
 19 50  1  0
 20 51  1  0
 21 52  1  0
 21 53  1  0
 22 54  1  0
 22 55  1  0
 27 56  1  0
 27 57  1  0
 29 58  1  0
 30 59  1  0
 31 60  1  0
 32 61  1  0
 33 62  1  0
 34 63  1  0
 34 64  1  0
 35 65  1  0
 36 66  1  0
M  END
>  <UniqueID>  (49) 
46

>  <SMILES>  (49) 
COc1ccc(Cn2cnc3c2N(Cc2ccccc2)CCN(C(=O)OCc2ccccc2)C3)cc1

>  <Energy>  (49) 
102.35662950092991

>  <Genealogy>  (49) 
COc1ccc(Cn2cnc3c2N(Cc2ccccc2)CCN(C(=O)OCc2ccccc2)C3)cc1 (3D coordinates assigned)
COc1ccc(Cn2cnc3c2N(Cc2ccccc2)CCN(C(=O)OCc2ccccc2)C3)cc1 (nonaromatic ring conformer: 102.35662950092991 kcal/mol)

>  <smiles>  (49) 
COc1ccc(Cn2cnc3c2N(Cc2ccccc2)CCN(C(=O)OCc2ccccc2)C3)cc1

>  <score_type>  (49) 
oracle

>  <origin>  (49) 
adg

>  <m_score__min__energy>  (49) 
-8.1099999999999994

>  <m_primary>  (49) 
energy

$$$$
