0:0
     RDKit          3D

 66 68  0  0  0  0  0  0  0  0999 V2000
   -1.1970   23.1000  -29.6940 C   0  0  0  0  0  0  0  0  0  0  0  0
   -1.6170   21.9040  -30.4570 C   0  0  0  0  0  0  0  0  0  0  0  0
   -2.7490   21.1720  -29.9520 N   0  0  0  0  0  0  0  0  0  0  0  0
   -2.9340   21.2690  -28.5530 C   0  0  0  0  0  0  0  0  0  0  0  0
   -2.4600   20.1040  -27.7360 C   0  0  0  0  0  0  0  0  0  0  0  0
   -3.9200   21.3170  -30.7730 C   0  0  0  0  0  0  0  0  0  0  0  0
   -3.6950   22.2670  -31.9260 C   0  0  0  0  0  0  0  0  0  0  0  0
   -4.5180   21.9050  -33.0800 N   0  0  0  0  0  0  0  0  0  0  0  0
   -5.2250   20.6840  -33.0800 C   0  0  0  0  0  0  0  0  0  0  0  0
   -4.4470   19.5690  -33.4570 C   0  0  0  0  0  0  0  0  0  0  0  0
   -3.1100   19.7640  -33.8290 C   0  0  0  0  0  0  0  0  0  0  0  0
   -2.2910   18.7240  -34.2110 C   0  0  0  0  0  0  0  0  0  0  0  0
   -2.8200   17.4670  -34.2210 C   0  0  0  0  0  0  0  0  0  0  0  0
   -4.1410   17.2570  -33.8560 C   0  0  0  0  0  0  0  0  0  0  0  0
   -4.9610   18.2970  -33.4740 C   0  0  0  0  0  0  0  0  0  0  0  0
   -6.2310   18.1120  -33.1230 N   0  0  0  0  0  0  0  0  0  0  0  0
   -6.8550   16.8130  -33.0990 C   0  0  0  0  0  0  0  0  0  0  0  0
   -7.0050   19.1680  -32.7560 C   0  0  0  0  0  0  0  0  0  0  0  0
   -8.3110   18.8950  -32.3870 C   0  0  0  0  0  0  0  0  0  0  0  0
   -9.0940   19.9560  -32.0000 C   0  0  0  0  0  0  0  0  0  0  0  0
   -8.6060   21.2280  -31.9800 C   0  0  0  0  0  0  0  0  0  0  0  0
   -7.2870   21.5510  -32.3470 C   0  0  0  0  0  0  0  0  0  0  0  0
   -6.9130   22.9020  -32.4130 N   0  0  0  0  0  0  0  0  0  0  0  0
   -7.3480   23.7810  -31.2960 C   0  0  0  0  0  0  0  0  0  0  0  0
   -6.4230   23.4580  -30.1630 C   0  0  0  0  0  0  0  0  0  0  0  0
   -5.7800   24.6730  -29.5130 C   0  0  0  0  0  0  0  0  0  0  0  0
   -5.3620   25.5780  -30.6840 C   0  0  0  0  0  0  0  0  0  0  0  0
   -4.4640   24.1970  -28.9010 C   0  0  0  0  0  0  0  0  0  0  0  0
   -6.5200   20.4750  -32.7280 C   0  0  0  0  0  0  0  0  0  0  0  0
   -1.2701   22.8918  -28.6164 H   0  0  0  0  0  0  0  0  0  0  0  0
   -0.1569   23.3511  -29.9492 H   0  0  0  0  0  0  0  0  0  0  0  0
   -1.8517   23.9463  -29.9492 H   0  0  0  0  0  0  0  0  0  0  0  0
   -1.8618   22.2308  -31.4784 H   0  0  0  0  0  0  0  0  0  0  0  0
   -0.7697   21.2063  -30.3845 H   0  0  0  0  0  0  0  0  0  0  0  0
   -2.3956   22.1630  -28.2053 H   0  0  0  0  0  0  0  0  0  0  0  0
   -4.0232   21.3070  -28.4039 H   0  0  0  0  0  0  0  0  0  0  0  0
   -2.5570   20.3425  -26.6666 H   0  0  0  0  0  0  0  0  0  0  0  0
   -3.0696   19.2191  -27.9711 H   0  0  0  0  0  0  0  0  0  0  0  0
   -1.4057   19.8960  -27.9711 H   0  0  0  0  0  0  0  0  0  0  0  0
   -4.1949   20.3308  -31.1752 H   0  0  0  0  0  0  0  0  0  0  0  0
   -4.7228   21.7317  -30.1457 H   0  0  0  0  0  0  0  0  0  0  0  0
   -3.9548   23.2869  -31.6061 H   0  0  0  0  0  0  0  0  0  0  0  0
   -2.6371   22.2102  -32.2219 H   0  0  0  0  0  0  0  0  0  0  0  0
   -4.5700   22.5190  -33.9450 H   0  0  0  0  0  0  0  0  0  0  0  0
   -2.6995   20.7845  -33.8155 H   0  0  0  0  0  0  0  0  0  0  0  0
   -1.2443   18.9018  -34.4986 H   0  0  0  0  0  0  0  0  0  0  0  0
   -2.1941   16.6136  -34.5208 H   0  0  0  0  0  0  0  0  0  0  0  0
   -4.5451   16.2340  -33.8717 H   0  0  0  0  0  0  0  0  0  0  0  0
   -7.0063   16.4981  -32.0559 H   0  0  0  0  0  0  0  0  0  0  0  0
   -7.8271   16.8636  -33.6114 H   0  0  0  0  0  0  0  0  0  0  0  0
   -6.2079   16.0859  -33.6114 H   0  0  0  0  0  0  0  0  0  0  0  0
   -8.7066   17.8687  -32.4029 H   0  0  0  0  0  0  0  0  0  0  0  0
  -10.1366   19.7745  -31.7001 H   0  0  0  0  0  0  0  0  0  0  0  0
   -9.2752   22.0409  -31.6618 H   0  0  0  0  0  0  0  0  0  0  0  0
   -6.4040   23.4190  -33.1290 H   0  0  0  0  0  0  0  0  0  0  0  0
   -7.2564   24.8399  -31.5796 H   0  0  0  0  0  0  0  0  0  0  0  0
   -8.4019   23.6159  -31.0278 H   0  0  0  0  0  0  0  0  0  0  0  0
   -6.9956   22.9188  -29.3940 H   0  0  0  0  0  0  0  0  0  0  0  0
   -5.6043   22.8577  -30.5866 H   0  0  0  0  0  0  0  0  0  0  0  0
   -6.4408   25.1587  -28.7799 H   0  0  0  0  0  0  0  0  0  0  0  0
   -4.9312   26.5107  -30.2909 H   0  0  0  0  0  0  0  0  0  0  0  0
   -4.6125   25.0587  -31.2993 H   0  0  0  0  0  0  0  0  0  0  0  0
   -6.2433   25.8119  -31.2993 H   0  0  0  0  0  0  0  0  0  0  0  0
   -4.5389   24.2241  -27.8039 H   0  0  0  0  0  0  0  0  0  0  0  0
   -4.2582   23.1675  -29.2292 H   0  0  0  0  0  0  0  0  0  0  0  0
   -3.6472   24.8567  -29.2292 H   0  0  0  0  0  0  0  0  0  0  0  0
  1  2  1  0
  2  3  1  0
  3  4  1  0
  4  5  1  0
  3  6  1  0
  6  7  1  0
  7  8  1  0
  8  9  1  0
  9 10  2  0
 10 11  1  0
 11 12  2  0
 12 13  1  0
 13 14  2  0
 14 15  1  0
 15 16  2  0
 16 17  1  0
 16 18  1  0
 18 19  2  0
 19 20  1  0
 20 21  2  0
 21 22  1  0
 22 23  1  0
 23 24  1  0
 24 25  1  0
 25 26  1  0
 26 27  1  0
 26 28  1  0
 22 29  2  0
 29  9  1  0
 15 10  1  0
 29 18  1  0
  1 30  1  0
  1 31  1  0
  1 32  1  0
  2 33  1  0
  2 34  1  0
  4 35  1  0
  4 36  1  0
  5 37  1  0
  5 38  1  0
  5 39  1  0
  6 40  1  0
  6 41  1  0
  7 42  1  0
  7 43  1  0
  8 44  1  0
 11 45  1  0
 12 46  1  0
 13 47  1  0
 14 48  1  0
 17 49  1  0
 17 50  1  0
 17 51  1  0
 19 52  1  0
 20 53  1  0
 21 54  1  0
 23 55  1  0
 24 56  1  0
 24 57  1  0
 25 58  1  0
 25 59  1  0
 26 60  1  0
 27 61  1  0
 27 62  1  0
 27 63  1  0
 28 64  1  0
 28 65  1  0
 28 66  1  0
M  CHG  1  16   1
M  END
>  <smiles>  (1) 
CCN(CC)CCNc1c2ccccc2[n+](C)c2cccc(NCCC(C)C)c12

>  <score_type>  (1) 
oracle

>  <origin>  (1) 
adg

>  <m_score__min__energy>  (1) 
-9.25

>  <m_primary>  (1) 
energy

$$$$
1:0
     RDKit          3D

 60 62  0  0  0  0  0  0  0  0999 V2000
   -0.4190   21.2720  -31.8880 C   0  0  0  0  0  0  0  0  0  0  0  0
   -1.2860   20.9070  -32.9830 N   0  0  0  0  0  0  0  0  0  0  0  0
   -2.5490   21.6010  -32.9430 C   0  0  0  0  0  0  0  0  0  0  0  0
   -3.6720   20.7320  -32.4280 C   0  0  0  0  0  0  0  0  0  0  0  0
   -3.7610   19.5420  -33.2590 N   0  0  0  0  0  0  0  0  0  0  0  0
   -4.8970   18.7230  -33.1930 C   0  0  0  0  0  0  0  0  0  0  0  0
   -6.1350   19.2020  -32.7920 C   0  0  0  0  0  0  0  0  0  0  0  0
   -7.2240   18.3570  -32.7490 C   0  0  0  0  0  0  0  0  0  0  0  0
   -8.4330   18.8500  -32.3500 O   0  0  0  0  0  0  0  0  0  0  0  0
   -8.9460   20.1310  -32.6230 C   0  0  0  0  0  0  0  0  0  0  0  0
   -8.9250   20.8530  -31.2480 C   0  0  0  0  0  0  0  0  0  0  0  0
   -7.6340   21.4640  -31.1720 N   0  0  0  0  0  0  0  0  0  0  0  0
   -7.1920   22.2280  -32.2800 C   0  0  0  0  0  0  0  0  0  0  0  0
   -6.8050   23.6190  -31.8850 C   0  0  0  0  0  0  0  0  0  0  0  0
   -6.1940   23.6360  -30.6010 N   0  0  0  0  0  0  0  0  0  0  0  0
   -4.8850   23.0670  -30.6210 C   0  0  0  0  0  0  0  0  0  0  0  0
   -3.9120   24.1050  -30.0890 C   0  0  0  0  0  0  0  0  0  0  0  0
   -4.1040   25.3210  -30.7150 O   0  0  0  0  0  0  0  0  0  0  0  0
   -5.3490   25.8740  -30.4760 C   0  0  0  0  0  0  0  0  0  0  0  0
   -6.3220   24.8680  -29.8860 C   0  0  0  0  0  0  0  0  0  0  0  0
   -7.1480   17.0230  -33.0930 C   0  0  0  0  0  0  0  0  0  0  0  0
   -5.8980   16.5620  -33.4920 C   0  0  0  0  0  0  0  0  0  0  0  0
   -5.7630   15.1140  -33.8780 C   0  0  0  0  0  0  0  0  0  0  0  0
   -4.9010   14.9970  -34.9370 F   0  0  0  0  0  0  0  0  0  0  0  0
   -7.0190   14.6950  -34.2590 F   0  0  0  0  0  0  0  0  0  0  0  0
   -5.3750   14.3580  -32.7920 F   0  0  0  0  0  0  0  0  0  0  0  0
   -4.7880   17.3920  -33.5440 C   0  0  0  0  0  0  0  0  0  0  0  0
   -2.6140   19.2820  -34.1240 C   0  0  0  0  0  0  0  0  0  0  0  0
   -1.4020   19.5000  -33.2080 C   0  0  0  0  0  0  0  0  0  0  0  0
   -0.9238   21.0595  -30.9341 H   0  0  0  0  0  0  0  0  0  0  0  0
    0.5122   20.6895  -31.9478 H   0  0  0  0  0  0  0  0  0  0  0  0
   -0.1848   22.3451  -31.9478 H   0  0  0  0  0  0  0  0  0  0  0  0
   -2.4497   22.4760  -32.2838 H   0  0  0  0  0  0  0  0  0  0  0  0
   -2.8005   21.8958  -33.9725 H   0  0  0  0  0  0  0  0  0  0  0  0
   -3.4675   20.4417  -31.3869 H   0  0  0  0  0  0  0  0  0  0  0  0
   -4.6214   21.2863  -32.4652 H   0  0  0  0  0  0  0  0  0  0  0  0
   -6.2487   20.2585  -32.5075 H   0  0  0  0  0  0  0  0  0  0  0  0
   -8.3109   20.6584  -33.3500 H   0  0  0  0  0  0  0  0  0  0  0  0
   -9.9531   20.0955  -33.0641 H   0  0  0  0  0  0  0  0  0  0  0  0
   -9.7170   21.6148  -31.1989 H   0  0  0  0  0  0  0  0  0  0  0  0
   -9.1041   20.1591  -30.4135 H   0  0  0  0  0  0  0  0  0  0  0  0
   -7.4560   21.9290  -30.2510 H   0  0  0  0  0  0  0  0  0  0  0  0
   -6.3194   21.7307  -32.7286 H   0  0  0  0  0  0  0  0  0  0  0  0
   -8.0232   22.2979  -32.9971 H   0  0  0  0  0  0  0  0  0  0  0  0
   -6.0962   24.0185  -32.6253 H   0  0  0  0  0  0  0  0  0  0  0  0
   -7.7143   24.2369  -31.8471 H   0  0  0  0  0  0  0  0  0  0  0  0
   -4.8584   22.1701  -29.9847 H   0  0  0  0  0  0  0  0  0  0  0  0
   -4.6107   22.7771  -31.6460 H   0  0  0  0  0  0  0  0  0  0  0  0
   -4.0700   24.2269  -29.0073 H   0  0  0  0  0  0  0  0  0  0  0  0
   -2.8859   23.7627  -30.2889 H   0  0  0  0  0  0  0  0  0  0  0  0
   -5.2351   26.7112  -29.7717 H   0  0  0  0  0  0  0  0  0  0  0  0
   -5.7577   26.2129  -31.4394 H   0  0  0  0  0  0  0  0  0  0  0  0
   -6.0884   24.7058  -28.8234 H   0  0  0  0  0  0  0  0  0  0  0  0
   -7.3513   25.2465  -29.9708 H   0  0  0  0  0  0  0  0  0  0  0  0
   -8.0261   16.3617  -33.0539 H   0  0  0  0  0  0  0  0  0  0  0  0
   -3.8168   16.9883  -33.8662 H   0  0  0  0  0  0  0  0  0  0  0  0
   -2.6366   18.2499  -34.5038 H   0  0  0  0  0  0  0  0  0  0  0  0
   -2.5967   19.9319  -35.0113 H   0  0  0  0  0  0  0  0  0  0  0  0
   -1.5539   18.9773  -32.2521 H   0  0  0  0  0  0  0  0  0  0  0  0
   -0.4870   19.1034  -33.6722 H   0  0  0  0  0  0  0  0  0  0  0  0
  1  2  1  0
  2  3  1  0
  3  4  1  0
  4  5  1  0
  5  6  1  0
  6  7  2  0
  7  8  1  0
  8  9  1  0
  9 10  1  0
 10 11  1  0
 11 12  1  0
 12 13  1  0
 13 14  1  0
 14 15  1  0
 15 16  1  0
 16 17  1  0
 17 18  1  0
 18 19  1  0
 19 20  1  0
  8 21  2  0
 21 22  1  0
 22 23  1  0
 23 24  1  0
 23 25  1  0
 23 26  1  0
 22 27  2  0
  5 28  1  0
 28 29  1  0
 29  2  1  0
 27  6  1  0
 20 15  1  0
  1 30  1  0
  1 31  1  0
  1 32  1  0
  3 33  1  0
  3 34  1  0
  4 35  1  0
  4 36  1  0
  7 37  1  0
 10 38  1  0
 10 39  1  0
 11 40  1  0
 11 41  1  0
 12 42  1  0
 13 43  1  0
 13 44  1  0
 14 45  1  0
 14 46  1  0
 16 47  1  0
 16 48  1  0
 17 49  1  0
 17 50  1  0
 19 51  1  0
 19 52  1  0
 20 53  1  0
 20 54  1  0
 21 55  1  0
 27 56  1  0
 28 57  1  0
 28 58  1  0
 29 59  1  0
 29 60  1  0
M  END
>  <smiles>  (2) 
CN1CCN(c2cc(OCCNCCN3CCOCC3)cc(C(F)(F)F)c2)CC1

>  <score_type>  (2) 
oracle

>  <origin>  (2) 
adg

>  <m_score__min__energy>  (2) 
-8

>  <m_primary>  (2) 
energy

$$$$
2:0
     RDKit          3D

 57 59  0  0  0  0  0  0  0  0999 V2000
   -3.4530   22.3150  -27.9580 C   0  0  0  0  0  0  0  0  0  0  0  0
   -4.2510   23.5270  -28.4020 C   0  0  0  0  0  0  0  0  0  0  0  0
   -4.8900   23.3260  -29.6930 N   0  0  0  0  0  0  0  0  0  0  0  0
   -6.2510   22.9410  -29.4170 C   0  0  0  0  0  0  0  0  0  0  0  0
   -4.9180   24.5450  -30.4780 C   0  0  0  0  0  0  0  0  0  0  0  0
   -6.0590   25.4560  -30.1020 C   0  0  0  0  0  0  0  0  0  0  0  0
   -4.1440   22.3070  -30.3810 C   0  0  0  0  0  0  0  0  0  0  0  0
   -3.8780   22.6600  -31.8520 C   0  0  0  0  0  0  0  0  0  0  0  0
   -4.9070   22.1510  -32.7080 N   0  0  0  0  0  0  0  0  0  0  0  0
   -5.2680   20.8040  -32.8580 C   0  0  0  0  0  0  0  0  0  0  0  0
   -4.2790   19.9090  -33.2470 C   0  0  0  0  0  0  0  0  0  0  0  0
   -2.9840   20.3890  -33.4570 C   0  0  0  0  0  0  0  0  0  0  0  0
   -1.9610   19.5530  -33.8470 C   0  0  0  0  0  0  0  0  0  0  0  0
   -2.2600   18.2250  -34.0240 C   0  0  0  0  0  0  0  0  0  0  0  0
   -3.5590   17.7450  -33.8120 C   0  0  0  0  0  0  0  0  0  0  0  0
   -4.5870   18.5760  -33.4210 C   0  0  0  0  0  0  0  0  0  0  0  0
   -5.8230   18.0700  -33.2310 N   0  0  0  0  0  0  0  0  0  0  0  0
   -6.1500   16.6750  -33.3920 C   0  0  0  0  0  0  0  0  0  0  0  0
   -6.8000   18.9340  -32.8500 C   0  0  0  0  0  0  0  0  0  0  0  0
   -8.1020   18.5180  -32.6290 C   0  0  0  0  0  0  0  0  0  0  0  0
   -9.1080   19.3930  -32.2360 C   0  0  0  0  0  0  0  0  0  0  0  0
   -8.8330   20.7140  -32.0540 C   0  0  0  0  0  0  0  0  0  0  0  0
   -7.5500   21.1720  -32.2650 C   0  0  0  0  0  0  0  0  0  0  0  0
   -7.2760   22.4920  -32.0800 O   0  0  0  0  0  0  0  0  0  0  0  0
   -8.3340   23.4220  -31.9690 C   0  0  0  0  0  0  0  0  0  0  0  0
   -6.5340   20.2930  -32.6620 C   0  0  0  0  0  0  0  0  0  0  0  0
   -3.4271   22.2756  -26.8590 H   0  0  0  0  0  0  0  0  0  0  0  0
   -3.9269   21.4015  -28.3466 H   0  0  0  0  0  0  0  0  0  0  0  0
   -2.4266   22.3893  -28.3466 H   0  0  0  0  0  0  0  0  0  0  0  0
   -5.0281   23.7330  -27.6512 H   0  0  0  0  0  0  0  0  0  0  0  0
   -3.5528   24.3713  -28.5006 H   0  0  0  0  0  0  0  0  0  0  0  0
   -6.4062   22.8971  -28.3289 H   0  0  0  0  0  0  0  0  0  0  0  0
   -6.9373   23.6802  -29.8557 H   0  0  0  0  0  0  0  0  0  0  0  0
   -6.4484   21.9518  -29.8557 H   0  0  0  0  0  0  0  0  0  0  0  0
   -3.9719   25.0844  -30.3233 H   0  0  0  0  0  0  0  0  0  0  0  0
   -5.0566   24.2578  -31.5308 H   0  0  0  0  0  0  0  0  0  0  0  0
   -6.1344   25.5162  -29.0062 H   0  0  0  0  0  0  0  0  0  0  0  0
   -5.8772   26.4601  -30.5127 H   0  0  0  0  0  0  0  0  0  0  0  0
   -6.9979   25.0564  -30.5127 H   0  0  0  0  0  0  0  0  0  0  0  0
   -3.1787   22.1724  -29.8711 H   0  0  0  0  0  0  0  0  0  0  0  0
   -4.7447   21.3856  -30.3633 H   0  0  0  0  0  0  0  0  0  0  0  0
   -3.8361   23.7544  -31.9551 H   0  0  0  0  0  0  0  0  0  0  0  0
   -2.9233   22.2019  -32.1498 H   0  0  0  0  0  0  0  0  0  0  0  0
   -5.4550   22.8550  -33.2870 H   0  0  0  0  0  0  0  0  0  0  0  0
   -2.7765   21.4589  -33.3075 H   0  0  0  0  0  0  0  0  0  0  0  0
   -0.9426   19.9353  -34.0105 H   0  0  0  0  0  0  0  0  0  0  0  0
   -1.4686   17.5279  -34.3367 H   0  0  0  0  0  0  0  0  0  0  0  0
   -3.7644   16.6748  -33.9618 H   0  0  0  0  0  0  0  0  0  0  0  0
   -6.2596   16.2075  -32.4023 H   0  0  0  0  0  0  0  0  0  0  0  0
   -7.0944   16.5816  -33.9482 H   0  0  0  0  0  0  0  0  0  0  0  0
   -5.3455   16.1716  -33.9482 H   0  0  0  0  0  0  0  0  0  0  0  0
   -8.3495   17.4555  -32.7697 H   0  0  0  0  0  0  0  0  0  0  0  0
  -10.1287   19.0173  -32.0716 H   0  0  0  0  0  0  0  0  0  0  0  0
   -9.6266   21.4088  -31.7417 H   0  0  0  0  0  0  0  0  0  0  0  0
   -8.5474   23.6095  -30.9063 H   0  0  0  0  0  0  0  0  0  0  0  0
   -8.0462   24.3648  -32.4571 H   0  0  0  0  0  0  0  0  0  0  0  0
   -9.2321   23.0156  -32.4571 H   0  0  0  0  0  0  0  0  0  0  0  0
  1  2  1  0
  2  3  1  0
  3  4  1  0
  3  5  1  0
  5  6  1  0
  3  7  1  0
  7  8  1  0
  8  9  1  0
  9 10  1  0
 10 11  2  0
 11 12  1  0
 12 13  2  0
 13 14  1  0
 14 15  2  0
 15 16  1  0
 16 17  2  0
 17 18  1  0
 17 19  1  0
 19 20  2  0
 20 21  1  0
 21 22  2  0
 22 23  1  0
 23 24  1  0
 24 25  1  0
 23 26  2  0
 26 10  1  0
 16 11  1  0
 26 19  1  0
  1 27  1  0
  1 28  1  0
  1 29  1  0
  2 30  1  0
  2 31  1  0
  4 32  1  0
  4 33  1  0
  4 34  1  0
  5 35  1  0
  5 36  1  0
  6 37  1  0
  6 38  1  0
  6 39  1  0
  7 40  1  0
  7 41  1  0
  8 42  1  0
  8 43  1  0
  9 44  1  0
 12 45  1  0
 13 46  1  0
 14 47  1  0
 15 48  1  0
 18 49  1  0
 18 50  1  0
 18 51  1  0
 20 52  1  0
 21 53  1  0
 22 54  1  0
 25 55  1  0
 25 56  1  0
 25 57  1  0
M  CHG  2   3   1  17   1
M  END
>  <smiles>  (3) 
CC[N+](C)(CC)CCNc1c2ccccc2[n+](C)c2cccc(OC)c12

>  <score_type>  (3) 
oracle

>  <origin>  (3) 
adg

>  <m_score__min__energy>  (3) 
-6.6500000000000004

>  <m_primary>  (3) 
energy

$$$$
3:0
     RDKit          2D

 75 79  0  0  0  0  0  0  0  0999 V2000
    8.2500   -3.8971    0.0000 C   0  0  0  0  0  0  0  0  0  0  0  0
    6.7500   -3.8971    0.0000 C   0  0  0  0  0  0  0  0  0  0  0  0
    5.2500   -3.8971    0.0000 N   0  0  0  0  0  0  0  0  0  0  0  0
    4.5000   -5.1962    0.0000 C   0  0  0  0  0  0  0  0  0  0  0  0
    3.7500   -6.4952    0.0000 C   0  0  0  0  0  0  0  0  0  0  0  0
    4.5000   -2.5981    0.0000 C   0  0  0  0  0  0  0  0  0  0  0  0
    3.7500   -1.2990    0.0000 C   0  0  0  0  0  0  0  0  0  0  0  0
    3.0000    0.0000    0.0000 N   0  0  0  0  0  0  0  0  0  0  0  0
    1.5000    0.0000    0.0000 C   0  0  0  0  0  0  0  0  0  0  0  0
    0.7500   -1.2990    0.0000 C   0  0  0  0  0  0  0  0  0  0  0  0
   -0.7500   -1.2990    0.0000 C   0  0  0  0  0  0  0  0  0  0  0  0
   -1.5000    0.0000    0.0000 N   0  0  0  0  0  0  0  0  0  0  0  0
   -3.0000    0.0000    0.0000 C   0  0  0  0  0  0  0  0  0  0  0  0
   -0.7500    1.2990    0.0000 C   0  0  0  0  0  0  0  0  0  0  0  0
   -1.5000    2.5981    0.0000 C   0  0  0  0  0  0  0  0  0  0  0  0
   -0.7500    3.8971    0.0000 C   0  0  0  0  0  0  0  0  0  0  0  0
    0.7500    3.8971    0.0000 C   0  0  0  0  0  0  0  0  0  0  0  0
    1.5000    2.5981    0.0000 C   0  0  0  0  0  0  0  0  0  0  0  0
    0.7500    1.2990    0.0000 C   0  0  0  0  0  0  0  0  0  0  0  0
   -1.6852   -2.4718    0.0000 C   0  0  0  0  0  0  0  0  0  0  0  0
   -2.7926   -3.4890    0.0000 C   0  0  0  0  0  0  0  0  0  0  0  0
   -2.5691   -4.9722    0.0000 C   0  0  0  0  0  0  0  0  0  0  0  0
   -1.1727   -5.5202    0.0000 C   0  0  0  0  0  0  0  0  0  0  0  0
   -0.0000   -4.5850    0.0000 N   0  0  0  0  0  0  0  0  0  0  0  0
   -1.3515   -3.9342    0.0000 C   0  0  0  0  0  0  0  0  0  0  0  0
   -2.5242   -4.8694    0.0000 C   0  0  0  0  0  0  0  0  0  0  0  0
   -3.6969   -5.8046    0.0000 N   0  0  0  0  0  0  0  0  0  0  0  0
   -5.0933   -5.2566    0.0000 C   0  0  0  0  0  0  0  0  0  0  0  0
   -6.2660   -6.1919    0.0000 C   0  0  0  0  0  0  0  0  0  0  0  0
   -6.0424   -7.6751    0.0000 C   0  0  0  0  0  0  0  0  0  0  0  0
   -4.6461   -8.2231    0.0000 C   0  0  0  0  0  0  0  0  0  0  0  0
   -3.4734   -7.2879    0.0000 C   0  0  0  0  0  0  0  0  0  0  0  0
    1.3515   -3.9342    0.0000 C   0  0  0  0  0  0  0  0  0  0  0  0
    1.6852   -2.4718    0.0000 C   0  0  0  0  0  0  0  0  0  0  0  0
    9.7500   -3.8971    0.0000 H   0  0  0  0  0  0  0  0  0  0  0  0
    8.2500   -2.3971    0.0000 H   0  0  0  0  0  0  0  0  0  0  0  0
    8.2500   -5.3971    0.0000 H   0  0  0  0  0  0  0  0  0  0  0  0
    6.7500   -2.3971    0.0000 H   0  0  0  0  0  0  0  0  0  0  0  0
    6.7500   -5.3971    0.0000 H   0  0  0  0  0  0  0  0  0  0  0  0
    3.3021   -4.2934    0.0000 H   0  0  0  0  0  0  0  0  0  0  0  0
    5.7990   -5.9462    0.0000 H   0  0  0  0  0  0  0  0  0  0  0  0
    3.0000   -7.7942    0.0000 H   0  0  0  0  0  0  0  0  0  0  0  0
    5.0490   -7.2452    0.0000 H   0  0  0  0  0  0  0  0  0  0  0  0
    2.3692   -5.9091    0.0000 H   0  0  0  0  0  0  0  0  0  0  0  0
    5.7990   -1.8481    0.0000 H   0  0  0  0  0  0  0  0  0  0  0  0
    3.4210   -3.6401    0.0000 H   0  0  0  0  0  0  0  0  0  0  0  0
    2.3692   -1.8851    0.0000 H   0  0  0  0  0  0  0  0  0  0  0  0
    5.0490   -0.5490    0.0000 H   0  0  0  0  0  0  0  0  0  0  0  0
    3.7500    1.2990    0.0000 H   0  0  0  0  0  0  0  0  0  0  0  0
   -4.5000    0.0000    0.0000 H   0  0  0  0  0  0  0  0  0  0  0  0
   -3.0000    1.5000    0.0000 H   0  0  0  0  0  0  0  0  0  0  0  0
   -3.0000   -1.5000    0.0000 H   0  0  0  0  0  0  0  0  0  0  0  0
   -3.0000    2.5981    0.0000 H   0  0  0  0  0  0  0  0  0  0  0  0
   -1.5000    5.1962    0.0000 H   0  0  0  0  0  0  0  0  0  0  0  0
    1.5000    5.1962    0.0000 H   0  0  0  0  0  0  0  0  0  0  0  0
    3.0000    2.5981    0.0000 H   0  0  0  0  0  0  0  0  0  0  0  0
   -4.1889   -2.9410    0.0000 H   0  0  0  0  0  0  0  0  0  0  0  0
   -3.4807   -6.1634    0.0000 H   0  0  0  0  0  0  0  0  0  0  0  0
   -0.9492   -7.0035    0.0000 H   0  0  0  0  0  0  0  0  0  0  0  0
   -3.5954   -3.8194    0.0000 H   0  0  0  0  0  0  0  0  0  0  0  0
   -1.7389   -6.1474    0.0000 H   0  0  0  0  0  0  0  0  0  0  0  0
   -6.2179   -4.2641    0.0000 H   0  0  0  0  0  0  0  0  0  0  0  0
   -4.4730   -3.8909    0.0000 H   0  0  0  0  0  0  0  0  0  0  0  0
   -7.6879   -6.6696    0.0000 H   0  0  0  0  0  0  0  0  0  0  0  0
   -6.9834   -4.8745    0.0000 H   0  0  0  0  0  0  0  0  0  0  0  0
   -6.3397   -9.1454    0.0000 H   0  0  0  0  0  0  0  0  0  0  0  0
   -7.5420   -7.6377    0.0000 H   0  0  0  0  0  0  0  0  0  0  0  0
   -3.5215   -9.2157    0.0000 H   0  0  0  0  0  0  0  0  0  0  0  0
   -5.4283   -9.5031    0.0000 H   0  0  0  0  0  0  0  0  0  0  0  0
   -2.0039   -6.9870    0.0000 H   0  0  0  0  0  0  0  0  0  0  0  0
   -2.7560   -8.6052    0.0000 H   0  0  0  0  0  0  0  0  0  0  0  0
    1.5045   -5.4264    0.0000 H   0  0  0  0  0  0  0  0  0  0  0  0
    2.8403   -4.1170    0.0000 H   0  0  0  0  0  0  0  0  0  0  0  0
    3.0367   -3.1226    0.0000 H   0  0  0  0  0  0  0  0  0  0  0  0
    2.4705   -1.1938    0.0000 H   0  0  0  0  0  0  0  0  0  0  0  0
  1  2  1  0
  2  3  1  0
  3  4  1  0
  4  5  1  0
  3  6  1  0
  6  7  1  0
  7  8  1  0
  8  9  1  0
  9 10  2  0
 10 11  1  0
 11 12  2  0
 12 13  1  0
 12 14  1  0
 14 15  2  0
 15 16  1  0
 16 17  2  0
 17 18  1  0
 18 19  2  0
 11 20  1  0
 20 21  2  0
 21 22  1  0
 22 23  2  0
 23 24  1  0
 24 25  2  0
 25 26  1  0
 26 27  1  0
 27 28  1  0
 28 29  1  0
 29 30  1  0
 30 31  1  0
 31 32  1  0
 24 33  1  0
 33 34  1  0
 19  9  1  0
 25 20  1  0
 32 27  1  0
 34 10  1  0
 19 14  1  0
  1 35  1  0
  1 36  1  0
  1 37  1  0
  2 38  1  0
  2 39  1  0
  4 40  1  0
  4 41  1  0
  5 42  1  0
  5 43  1  0
  5 44  1  0
  6 45  1  0
  6 46  1  0
  7 47  1  0
  7 48  1  0
  8 49  1  0
 13 50  1  0
 13 51  1  0
 13 52  1  0
 15 53  1  0
 16 54  1  0
 17 55  1  0
 18 56  1  0
 21 57  1  0
 22 58  1  0
 23 59  1  0
 26 60  1  0
 26 61  1  0
 28 62  1  0
 28 63  1  0
 29 64  1  0
 29 65  1  0
 30 66  1  0
 30 67  1  0
 31 68  1  0
 31 69  1  0
 32 70  1  0
 32 71  1  0
 33 72  1  0
 33 73  1  0
 34 74  1  0
 34 75  1  0
M  CHG  2  12   1  24   1
M  END
>  <smiles>  (4) 
CCN(CC)CCNc1c2c([n+](C)c3ccccc13)-c1ccc[n+](c1CN1CCCCC1)CC2

>  <m_score__min__energy>  (4) 
nan

>  <m_primary>  (4) 
energy

$$$$
4:0
     RDKit          3D

 29 29  0  0  0  0  0  0  0  0999 V2000
   -8.3560   18.1970  -31.7010 C   0  0  0  0  0  0  0  0  0  0  0  0
   -8.5560   19.5050  -31.6100 C   0  0  0  0  0  0  0  0  0  0  0  0
   -8.3000   20.4750  -32.7010 C   0  0  0  0  0  0  0  0  0  0  0  0
   -6.9630   21.1040  -32.6380 C   0  0  0  0  0  0  0  0  0  0  0  0
   -5.8660   20.4030  -33.0950 C   0  0  0  0  0  0  0  0  0  0  0  0
   -6.0460   19.1510  -33.5960 F   0  0  0  0  0  0  0  0  0  0  0  0
   -4.5910   20.9060  -33.0710 C   0  0  0  0  0  0  0  0  0  0  0  0
   -4.3750   22.1780  -32.5670 C   0  0  0  0  0  0  0  0  0  0  0  0
   -5.4480   22.9210  -32.0950 C   0  0  0  0  0  0  0  0  0  0  0  0
   -5.2840   24.1750  -31.5890 O   0  0  0  0  0  0  0  0  0  0  0  0
   -5.1110   24.5140  -30.2480 C   0  0  0  0  0  0  0  0  0  0  0  0
   -6.1220   25.5140  -29.7710 C   0  0  0  0  0  0  0  0  0  0  0  0
   -6.7370   22.3730  -32.1350 C   0  0  0  0  0  0  0  0  0  0  0  0
   -7.9190   23.1330  -31.6390 C   0  0  0  0  0  0  0  0  0  0  0  0
   -8.5725   17.5464  -30.8409 H   0  0  0  0  0  0  0  0  0  0  0  0
   -7.9736   17.7628  -32.6366 H   0  0  0  0  0  0  0  0  0  0  0  0
   -8.9392   19.8980  -30.6567 H   0  0  0  0  0  0  0  0  0  0  0  0
   -8.3905   19.9479  -33.6622 H   0  0  0  0  0  0  0  0  0  0  0  0
   -9.0395   21.2821  -32.5926 H   0  0  0  0  0  0  0  0  0  0  0  0
   -3.7492   20.3064  -33.4476 H   0  0  0  0  0  0  0  0  0  0  0  0
   -3.3583   22.5971  -32.5410 H   0  0  0  0  0  0  0  0  0  0  0  0
   -5.2029   23.6023  -29.6394 H   0  0  0  0  0  0  0  0  0  0  0  0
   -4.1159   24.9714  -30.1456 H   0  0  0  0  0  0  0  0  0  0  0  0
   -6.1347   25.5265  -28.6711 H   0  0  0  0  0  0  0  0  0  0  0  0
   -5.8548   26.5130  -30.1460 H   0  0  0  0  0  0  0  0  0  0  0  0
   -7.1180   25.2359  -30.1460 H   0  0  0  0  0  0  0  0  0  0  0  0
   -7.9195   23.1333  -30.5390 H   0  0  0  0  0  0  0  0  0  0  0  0
   -7.8693   24.1688  -32.0059 H   0  0  0  0  0  0  0  0  0  0  0  0
   -8.8407   22.6579  -32.0059 H   0  0  0  0  0  0  0  0  0  0  0  0
  1  2  2  0
  2  3  1  0
  3  4  1  0
  4  5  2  0
  5  6  1  0
  5  7  1  0
  7  8  2  0
  8  9  1  0
  9 10  1  0
 10 11  1  0
 11 12  1  0
  9 13  2  0
 13 14  1  0
 13  4  1  0
  1 15  1  0
  1 16  1  0
  2 17  1  0
  3 18  1  0
  3 19  1  0
  7 20  1  0
  8 21  1  0
 11 22  1  0
 11 23  1  0
 12 24  1  0
 12 25  1  0
 12 26  1  0
 14 27  1  0
 14 28  1  0
 14 29  1  0
M  END
>  <smiles>  (5) 
C=CCc1c(F)ccc(OCC)c1C

>  <score_type>  (5) 
oracle

>  <origin>  (5) 
adg

>  <m_score__min__energy>  (5) 
-5.75

>  <m_primary>  (5) 
energy

$$$$
5:0
     RDKit          3D

 39 41  0  0  0  0  0  0  0  0999 V2000
   -2.7350   23.0140  -28.3490 C   0  0  0  0  0  0  0  0  0  0  0  0
   -4.2830   23.2270  -28.1400 C   0  0  0  0  0  0  0  0  0  0  0  0
   -4.3720   24.5570  -28.5400 N   0  0  0  0  0  0  0  0  0  0  0  0
   -5.2770   24.6830  -29.9380 S   0  0  0  0  0  0  0  0  0  0  0  0
   -3.9650   25.1970  -30.8450 O   0  0  0  0  0  0  0  0  0  0  0  0
   -6.1350   25.9540  -29.9250 O   0  0  0  0  0  0  0  0  0  0  0  0
   -6.0330   23.5420  -30.8290 C   0  0  0  0  0  0  0  0  0  0  0  0
   -7.3450   23.5980  -31.0590 C   0  0  0  0  0  0  0  0  0  0  0  0
   -8.0230   22.5530  -31.6310 C   0  0  0  0  0  0  0  0  0  0  0  0
   -7.3450   21.4210  -31.9560 C   0  0  0  0  0  0  0  0  0  0  0  0
   -6.0310   21.2910  -31.7850 C   0  0  0  0  0  0  0  0  0  0  0  0
   -5.3300   22.4140  -31.2030 C   0  0  0  0  0  0  0  0  0  0  0  0
   -4.0330   22.0390  -31.2400 N   0  0  0  0  0  0  0  0  0  0  0  0
   -3.9000   20.8920  -31.7010 C   0  0  0  0  0  0  0  0  0  0  0  0
   -2.6180   20.0950  -31.6140 C   0  0  0  0  0  0  0  0  0  0  0  0
   -5.0140   20.3880  -32.0930 N   0  0  0  0  0  0  0  0  0  0  0  0
   -5.4830   19.2610  -32.8820 C   0  0  0  0  0  0  0  0  0  0  0  0
   -5.2990   19.1690  -34.1570 C   0  0  0  0  0  0  0  0  0  0  0  0
   -5.7140   18.1230  -34.9460 C   0  0  0  0  0  0  0  0  0  0  0  0
   -6.4150   17.1190  -34.2310 C   0  0  0  0  0  0  0  0  0  0  0  0
   -6.6230   17.2140  -32.8390 C   0  0  0  0  0  0  0  0  0  0  0  0
   -6.1310   18.3690  -32.1660 C   0  0  0  0  0  0  0  0  0  0  0  0
   -2.2388   22.9457  -27.3697 H   0  0  0  0  0  0  0  0  0  0  0  0
   -2.5655   22.0841  -28.9116 H   0  0  0  0  0  0  0  0  0  0  0  0
   -2.3206   23.8636  -28.9116 H   0  0  0  0  0  0  0  0  0  0  0  0
   -4.8816   22.5622  -28.7801 H   0  0  0  0  0  0  0  0  0  0  0  0
   -4.6599   23.0090  -27.1298 H   0  0  0  0  0  0  0  0  0  0  0  0
   -3.5280   25.1840  -28.5840 H   0  0  0  0  0  0  0  0  0  0  0  0
   -7.8984   24.5075  -30.7822 H   0  0  0  0  0  0  0  0  0  0  0  0
   -9.1031   22.6298  -31.8247 H   0  0  0  0  0  0  0  0  0  0  0  0
   -7.9065   20.5749  -32.3789 H   0  0  0  0  0  0  0  0  0  0  0  0
   -2.3578   19.9332  -30.5575 H   0  0  0  0  0  0  0  0  0  0  0  0
   -2.7560   19.1232  -32.1106 H   0  0  0  0  0  0  0  0  0  0  0  0
   -1.8076   20.6487  -32.1106 H   0  0  0  0  0  0  0  0  0  0  0  0
   -4.7669   19.9949  -34.6517 H   0  0  0  0  0  0  0  0  0  0  0  0
   -5.5210   18.0698  -36.0276 H   0  0  0  0  0  0  0  0  0  0  0  0
   -6.8056   16.2459  -34.7743 H   0  0  0  0  0  0  0  0  0  0  0  0
   -7.1495   16.4197  -32.2896 H   0  0  0  0  0  0  0  0  0  0  0  0
   -6.2876   18.5095  -31.0863 H   0  0  0  0  0  0  0  0  0  0  0  0
  1  2  1  0
  2  3  1  0
  3  4  1  0
  4  5  2  0
  4  6  2  0
  4  7  1  0
  7  8  2  0
  8  9  1  0
  9 10  2  0
 10 11  1  0
 11 12  2  0
 12 13  1  0
 13 14  2  0
 14 15  1  0
 14 16  1  0
 16 17  1  0
 17 18  2  0
 18 19  1  0
 19 20  2  0
 20 21  1  0
 21 22  2  0
 12  7  1  0
 22 17  1  0
 16 11  1  0
  1 23  1  0
  1 24  1  0
  1 25  1  0
  2 26  1  0
  2 27  1  0
  3 28  1  0
  8 29  1  0
  9 30  1  0
 10 31  1  0
 15 32  1  0
 15 33  1  0
 15 34  1  0
 18 35  1  0
 19 36  1  0
 20 37  1  0
 21 38  1  0
 22 39  1  0
M  END
>  <smiles>  (6) 
CCNS(=O)(=O)c1cccc2c1nc(C)n2-c1ccccc1

>  <score_type>  (6) 
oracle

>  <origin>  (6) 
adg

>  <m_score__min__energy>  (6) 
-9.1300000000000008

>  <m_primary>  (6) 
energy

$$$$
6:0
     RDKit          3D

 75 77  0  0  0  0  0  0  0  0999 V2000
   -3.2060   18.0500  -34.1610 C   0  0  0  0  0  0  0  0  0  0  0  0
   -2.0370   18.2600  -33.2690 C   0  0  0  0  0  0  0  0  0  0  0  0
   -1.8010   19.5820  -32.8030 N   0  0  0  0  0  0  0  0  0  0  0  0
   -0.6920   19.7470  -31.8930 C   0  0  0  0  0  0  0  0  0  0  0  0
   -0.1510   21.1550  -31.8500 C   0  0  0  0  0  0  0  0  0  0  0  0
   -2.0730   20.6480  -33.6430 C   0  0  0  0  0  0  0  0  0  0  0  0
   -3.4670   21.3660  -33.4330 C   0  0  0  0  0  0  0  0  0  0  0  0
   -3.9890   20.9290  -32.1690 N   0  0  0  0  0  0  0  0  0  0  0  0
   -5.3100   20.9860  -31.5930 C   0  0  0  0  0  0  0  0  0  0  0  0
   -6.1860   20.0160  -31.9430 C   0  0  0  0  0  0  0  0  0  0  0  0
   -5.8180   18.6480  -32.0860 C   0  0  0  0  0  0  0  0  0  0  0  0
   -6.8230   17.7050  -32.4190 C   0  0  0  0  0  0  0  0  0  0  0  0
   -8.0020   18.3100  -32.5520 C   0  0  0  0  0  0  0  0  0  0  0  0
   -8.5360   19.5120  -32.4350 C   0  0  0  0  0  0  0  0  0  0  0  0
   -7.5020   20.4550  -32.0620 C   0  0  0  0  0  0  0  0  0  0  0  0
   -7.9670   21.6510  -31.8340 N   0  0  0  0  0  0  0  0  0  0  0  0
   -9.3530   22.0440  -31.8140 C   0  0  0  0  0  0  0  0  0  0  0  0
   -7.0520   22.5980  -31.4350 C   0  0  0  0  0  0  0  0  0  0  0  0
   -7.5440   23.7840  -31.1640 C   0  0  0  0  0  0  0  0  0  0  0  0
   -6.4700   24.6500  -30.7780 C   0  0  0  0  0  0  0  0  0  0  0  0
   -5.2260   24.4510  -30.6610 C   0  0  0  0  0  0  0  0  0  0  0  0
   -4.5840   22.8380  -30.9600 C   0  0  0  0  0  0  0  0  0  0  0  0
   -3.3960   23.3030  -30.6300 N   0  0  0  0  0  0  0  0  0  0  0  0
   -3.1560   22.8830  -29.0980 C   0  0  0  0  0  0  0  0  0  0  0  0
   -2.2900   21.6120  -29.2530 C   0  0  0  0  0  0  0  0  0  0  0  0
   -2.7360   20.5140  -28.3750 C   0  0  0  0  0  0  0  0  0  0  0  0
   -1.6270   20.0340  -27.5400 N   0  0  0  0  0  0  0  0  0  0  0  0
   -1.1800   21.1690  -26.7110 C   0  0  0  0  0  0  0  0  0  0  0  0
   -0.5390   19.7380  -28.4580 C   0  0  0  0  0  0  0  0  0  0  0  0
   -1.9990   18.9460  -26.7100 C   0  0  0  0  0  0  0  0  0  0  0  0
   -3.4850   18.9250  -26.3530 C   0  0  0  0  0  0  0  0  0  0  0  0
   -5.7350   22.3880  -31.2790 C   0  0  0  0  0  0  0  0  0  0  0  0
   -4.1076   17.8880  -33.5519 H   0  0  0  0  0  0  0  0  0  0  0  0
   -3.3469   18.9372  -34.7958 H   0  0  0  0  0  0  0  0  0  0  0  0
   -3.0293   17.1692  -34.7958 H   0  0  0  0  0  0  0  0  0  0  0  0
   -2.1756   17.6184  -32.3863 H   0  0  0  0  0  0  0  0  0  0  0  0
   -1.1615   18.0192  -33.8899 H   0  0  0  0  0  0  0  0  0  0  0  0
   -1.0276   19.4723  -30.8821 H   0  0  0  0  0  0  0  0  0  0  0  0
    0.1209   19.0997  -32.2539 H   0  0  0  0  0  0  0  0  0  0  0  0
   -0.0301   21.4695  -30.8029 H   0  0  0  0  0  0  0  0  0  0  0  0
    0.8241   21.1888  -32.3579 H   0  0  0  0  0  0  0  0  0  0  0  0
   -0.8526   21.8331  -32.3579 H   0  0  0  0  0  0  0  0  0  0  0  0
   -1.2832   21.3997  -33.4975 H   0  0  0  0  0  0  0  0  0  0  0  0
   -2.1117   20.2214  -34.6562 H   0  0  0  0  0  0  0  0  0  0  0  0
   -3.3305   22.4575  -33.4263 H   0  0  0  0  0  0  0  0  0  0  0  0
   -4.1609   21.1129  -34.2481 H   0  0  0  0  0  0  0  0  0  0  0  0
   -3.2120   20.6470  -31.5540 H   0  0  0  0  0  0  0  0  0  0  0  0
   -4.7752   18.3293  -31.9411 H   0  0  0  0  0  0  0  0  0  0  0  0
   -6.6530   16.6260  -32.5491 H   0  0  0  0  0  0  0  0  0  0  0  0
   -8.7697   17.5819  -32.8529 H   0  0  0  0  0  0  0  0  0  0  0  0
   -9.5962   19.7577  -32.5952 H   0  0  0  0  0  0  0  0  0  0  0  0
   -9.6919   22.1401  -30.7719 H   0  0  0  0  0  0  0  0  0  0  0  0
   -9.4676   23.0101  -32.3274 H   0  0  0  0  0  0  0  0  0  0  0  0
   -9.9577   21.2819  -32.3274 H   0  0  0  0  0  0  0  0  0  0  0  0
   -8.6055   24.0665  -31.2234 H   0  0  0  0  0  0  0  0  0  0  0  0
   -6.7848   25.6767  -30.5395 H   0  0  0  0  0  0  0  0  0  0  0  0
   -4.5543   25.2743  -30.3764 H   0  0  0  0  0  0  0  0  0  0  0  0
   -2.6030   23.8060  -30.8930 H   0  0  0  0  0  0  0  0  0  0  0  0
   -2.6194   23.6689  -28.5462 H   0  0  0  0  0  0  0  0  0  0  0  0
   -4.0834   22.7245  -28.5281 H   0  0  0  0  0  0  0  0  0  0  0  0
   -2.3453   21.2727  -30.2979 H   0  0  0  0  0  0  0  0  0  0  0  0
   -1.2604   21.8721  -28.9661 H   0  0  0  0  0  0  0  0  0  0  0  0
   -3.5461   20.8773  -27.7255 H   0  0  0  0  0  0  0  0  0  0  0  0
   -3.0927   19.6830  -29.0012 H   0  0  0  0  0  0  0  0  0  0  0  0
   -1.2825   20.9088  -25.6471 H   0  0  0  0  0  0  0  0  0  0  0  0
   -0.1264   21.3932  -26.9338 H   0  0  0  0  0  0  0  0  0  0  0  0
   -1.7977   22.0515  -26.9338 H   0  0  0  0  0  0  0  0  0  0  0  0
    0.3672   19.4915  -27.8853 H   0  0  0  0  0  0  0  0  0  0  0  0
   -0.8163   18.8827  -29.0916 H   0  0  0  0  0  0  0  0  0  0  0  0
   -0.3448   20.6159  -29.0916 H   0  0  0  0  0  0  0  0  0  0  0  0
   -1.7545   18.0102  -27.2339 H   0  0  0  0  0  0  0  0  0  0  0  0
   -1.4436   19.0568  -25.7670 H   0  0  0  0  0  0  0  0  0  0  0  0
   -3.5993   18.9234  -25.2590 H   0  0  0  0  0  0  0  0  0  0  0  0
   -3.9753   19.8163  -26.7716 H   0  0  0  0  0  0  0  0  0  0  0  0
   -3.9499   18.0202  -26.7716 H   0  0  0  0  0  0  0  0  0  0  0  0
  1  2  1  0
  2  3  1  0
  3  4  1  0
  4  5  1  0
  3  6  1  0
  6  7  1  0
  7  8  1  0
  8  9  1  0
  9 10  2  0
 10 11  1  0
 11 12  2  0
 12 13  1  0
 13 14  2  0
 14 15  1  0
 15 16  2  0
 16 17  1  0
 16 18  1  0
 18 19  2  0
 19 20  1  0
 20 21  2  0
 21 22  1  0
 22 23  1  0
 23 24  1  0
 24 25  1  0
 25 26  1  0
 26 27  1  0
 27 28  1  0
 27 29  1  0
 27 30  1  0
 30 31  1  0
 22 32  2  0
 32  9  1  0
 15 10  1  0
 32 18  1  0
  1 33  1  0
  1 34  1  0
  1 35  1  0
  2 36  1  0
  2 37  1  0
  4 38  1  0
  4 39  1  0
  5 40  1  0
  5 41  1  0
  5 42  1  0
  6 43  1  0
  6 44  1  0
  7 45  1  0
  7 46  1  0
  8 47  1  0
 11 48  1  0
 12 49  1  0
 13 50  1  0
 14 51  1  0
 17 52  1  0
 17 53  1  0
 17 54  1  0
 19 55  1  0
 20 56  1  0
 21 57  1  0
 23 58  1  0
 24 59  1  0
 24 60  1  0
 25 61  1  0
 25 62  1  0
 26 63  1  0
 26 64  1  0
 28 65  1  0
 28 66  1  0
 28 67  1  0
 29 68  1  0
 29 69  1  0
 29 70  1  0
 30 71  1  0
 30 72  1  0
 31 73  1  0
 31 74  1  0
 31 75  1  0
M  CHG  2  16   1  27   1
M  END
>  <smiles>  (7) 
CCN(CC)CCNc1c2ccccc2[n+](C)c2cccc(NCCC[N+](C)(C)CC)c12

>  <score_type>  (7) 
oracle

>  <origin>  (7) 
adg

>  <m_score__min__energy>  (7) 
-6.79

>  <m_primary>  (7) 
energy

$$$$
7:0
     RDKit          3D

 76 79  0  0  0  0  0  0  0  0999 V2000
   -0.4890   20.6450  -34.6660 C   0  0  0  0  0  0  0  0  0  0  0  0
   -1.1660   19.6460  -33.7890 C   0  0  0  0  0  0  0  0  0  0  0  0
   -1.6640   20.2110  -32.5350 N   0  0  0  0  0  0  0  0  0  0  0  0
   -0.5910   20.2560  -31.5560 C   0  0  0  0  0  0  0  0  0  0  0  0
   -2.2520   21.5090  -32.7570 C   0  0  0  0  0  0  0  0  0  0  0  0
   -3.6090   21.7270  -32.1960 C   0  0  0  0  0  0  0  0  0  0  0  0
   -4.6540   21.5460  -33.2320 N   0  0  0  0  0  0  0  0  0  0  0  0
   -5.8070   20.8000  -32.9030 C   0  0  0  0  0  0  0  0  0  0  0  0
   -5.6840   19.4160  -33.1290 C   0  0  0  0  0  0  0  0  0  0  0  0
   -4.5100   18.9110  -33.6740 C   0  0  0  0  0  0  0  0  0  0  0  0
   -4.3000   17.5760  -33.9340 C   0  0  0  0  0  0  0  0  0  0  0  0
   -5.3170   16.7060  -33.6300 C   0  0  0  0  0  0  0  0  0  0  0  0
   -6.5030   17.1930  -33.0830 C   0  0  0  0  0  0  0  0  0  0  0  0
   -6.6880   18.5320  -32.8330 C   0  0  0  0  0  0  0  0  0  0  0  0
   -7.8320   18.9960  -32.3090 N   0  0  0  0  0  0  0  0  0  0  0  0
   -8.9370   18.1540  -31.9620 C   0  0  0  0  0  0  0  0  0  0  0  0
   -7.9640   20.3190  -32.0880 C   0  0  0  0  0  0  0  0  0  0  0  0
   -9.1470   20.7580  -31.5410 C   0  0  0  0  0  0  0  0  0  0  0  0
   -9.3540   22.0880  -31.2820 C   0  0  0  0  0  0  0  0  0  0  0  0
   -8.3390   22.9830  -31.5860 C   0  0  0  0  0  0  0  0  0  0  0  0
   -7.1260   22.5970  -32.1380 C   0  0  0  0  0  0  0  0  0  0  0  0
   -6.2240   23.6140  -32.4990 N   0  0  0  0  0  0  0  0  0  0  0  0
   -5.7370   24.5420  -31.4570 C   0  0  0  0  0  0  0  0  0  0  0  0
   -5.5090   23.8600  -30.1400 C   0  0  0  0  0  0  0  0  0  0  0  0
   -4.2060   24.3700  -29.6110 C   0  0  0  0  0  0  0  0  0  0  0  0
   -3.7090   23.7960  -28.4200 N   0  0  0  0  0  0  0  0  0  0  0  0
   -4.2030   24.4650  -27.2180 C   0  0  0  0  0  0  0  0  0  0  0  0
   -3.1180   25.0310  -26.3680 C   0  0  0  0  0  0  0  0  0  0  0  0
   -2.2920   23.7150  -28.3610 C   0  0  0  0  0  0  0  0  0  0  0  0
   -1.8670   22.3250  -28.7990 C   0  0  0  0  0  0  0  0  0  0  0  0
   -3.1380   21.5310  -28.9090 C   0  0  0  0  0  0  0  0  0  0  0  0
   -4.2060   22.4130  -28.3310 C   0  0  0  0  0  0  0  0  0  0  0  0
   -6.9680   21.2510  -32.3750 C   0  0  0  0  0  0  0  0  0  0  0  0
    0.0194   21.3953  -34.0426 H   0  0  0  0  0  0  0  0  0  0  0  0
    0.2499   20.1343  -35.3010 H   0  0  0  0  0  0  0  0  0  0  0  0
   -1.2371   21.1420  -35.3010 H   0  0  0  0  0  0  0  0  0  0  0  0
   -2.0167   19.2190  -34.3403 H   0  0  0  0  0  0  0  0  0  0  0  0
   -0.4153   18.8865  -33.5253 H   0  0  0  0  0  0  0  0  0  0  0  0
   -1.0183   20.2381  -30.5426 H   0  0  0  0  0  0  0  0  0  0  0  0
    0.0664   19.3846  -31.6922 H   0  0  0  0  0  0  0  0  0  0  0  0
   -0.0089   21.1793  -31.6922 H   0  0  0  0  0  0  0  0  0  0  0  0
   -1.5821   22.2597  -32.3123 H   0  0  0  0  0  0  0  0  0  0  0  0
   -2.3715   21.5914  -33.8474 H   0  0  0  0  0  0  0  0  0  0  0  0
   -3.7811   21.0060  -31.3832 H   0  0  0  0  0  0  0  0  0  0  0  0
   -3.6679   22.7587  -31.8190 H   0  0  0  0  0  0  0  0  0  0  0  0
   -4.4990   21.9450  -34.2090 H   0  0  0  0  0  0  0  0  0  0  0  0
   -3.7021   19.6188  -33.9113 H   0  0  0  0  0  0  0  0  0  0  0  0
   -3.3541   17.2202  -34.3684 H   0  0  0  0  0  0  0  0  0  0  0  0
   -5.1967   15.6288  -33.8173 H   0  0  0  0  0  0  0  0  0  0  0  0
   -7.3124   16.4871  -32.8451 H   0  0  0  0  0  0  0  0  0  0  0  0
   -9.0201   18.0907  -30.8670 H   0  0  0  0  0  0  0  0  0  0  0  0
   -9.8643   18.5766  -32.3762 H   0  0  0  0  0  0  0  0  0  0  0  0
   -8.7756   17.1478  -32.3762 H   0  0  0  0  0  0  0  0  0  0  0  0
   -9.9389   20.0310  -31.3079 H   0  0  0  0  0  0  0  0  0  0  0  0
  -10.3010   22.4366  -30.8442 H   0  0  0  0  0  0  0  0  0  0  0  0
   -8.5037   24.0508  -31.3794 H   0  0  0  0  0  0  0  0  0  0  0  0
   -5.8460   23.8550  -33.4220 H   0  0  0  0  0  0  0  0  0  0  0  0
   -4.7878   24.9840  -31.7942 H   0  0  0  0  0  0  0  0  0  0  0  0
   -6.5101   25.3098  -31.3060 H   0  0  0  0  0  0  0  0  0  0  0  0
   -6.3230   24.1033  -29.4413 H   0  0  0  0  0  0  0  0  0  0  0  0
   -5.4865   22.7667  -30.2595 H   0  0  0  0  0  0  0  0  0  0  0  0
   -3.4492   24.2100  -30.3931 H   0  0  0  0  0  0  0  0  0  0  0  0
   -4.4046   25.4201  -29.3506 H   0  0  0  0  0  0  0  0  0  0  0  0
   -4.8697   25.2846  -27.5241 H   0  0  0  0  0  0  0  0  0  0  0  0
   -4.7255   23.7071  -26.6159 H   0  0  0  0  0  0  0  0  0  0  0  0
   -3.3755   24.8966  -25.3070 H   0  0  0  0  0  0  0  0  0  0  0  0
   -2.1733   24.5108  -26.5847 H   0  0  0  0  0  0  0  0  0  0  0  0
   -3.0041   26.1034  -26.5847 H   0  0  0  0  0  0  0  0  0  0  0  0
   -1.8497   24.4662  -29.0319 H   0  0  0  0  0  0  0  0  0  0  0  0
   -1.9473   23.9069  -27.3342 H   0  0  0  0  0  0  0  0  0  0  0  0
   -1.3557   22.3684  -29.7720 H   0  0  0  0  0  0  0  0  0  0  0  0
   -1.1631   21.8706  -28.0863 H   0  0  0  0  0  0  0  0  0  0  0  0
   -3.3576   21.2989  -29.9616 H   0  0  0  0  0  0  0  0  0  0  0  0
   -3.0685   20.5694  -28.3793 H   0  0  0  0  0  0  0  0  0  0  0  0
   -5.1372   22.3073  -28.9069 H   0  0  0  0  0  0  0  0  0  0  0  0
   -4.4239   22.1380  -27.2885 H   0  0  0  0  0  0  0  0  0  0  0  0
  1  2  1  0
  2  3  1  0
  3  4  1  0
  3  5  1  0
  5  6  1  0
  6  7  1  0
  7  8  1  0
  8  9  2  0
  9 10  1  0
 10 11  2  0
 11 12  1  0
 12 13  2  0
 13 14  1  0
 14 15  2  0
 15 16  1  0
 15 17  1  0
 17 18  2  0
 18 19  1  0
 19 20  2  0
 20 21  1  0
 21 22  1  0
 22 23  1  0
 23 24  1  0
 24 25  1  0
 25 26  1  0
 26 27  1  0
 27 28  1  0
 26 29  1  0
 29 30  1  0
 30 31  1  0
 31 32  1  0
 21 33  2  0
 33  8  1  0
 14  9  1  0
 33 17  1  0
 32 26  1  0
  1 34  1  0
  1 35  1  0
  1 36  1  0
  2 37  1  0
  2 38  1  0
  4 39  1  0
  4 40  1  0
  4 41  1  0
  5 42  1  0
  5 43  1  0
  6 44  1  0
  6 45  1  0
  7 46  1  0
 10 47  1  0
 11 48  1  0
 12 49  1  0
 13 50  1  0
 16 51  1  0
 16 52  1  0
 16 53  1  0
 18 54  1  0
 19 55  1  0
 20 56  1  0
 22 57  1  0
 23 58  1  0
 23 59  1  0
 24 60  1  0
 24 61  1  0
 25 62  1  0
 25 63  1  0
 27 64  1  0
 27 65  1  0
 28 66  1  0
 28 67  1  0
 28 68  1  0
 29 69  1  0
 29 70  1  0
 30 71  1  0
 30 72  1  0
 31 73  1  0
 31 74  1  0
 32 75  1  0
 32 76  1  0
M  CHG  2  15   1  26   1
M  END
>  <smiles>  (8) 
CCN(C)CCNc1c2ccccc2[n+](C)c2cccc(NCCC[N+]3(CC)CCCC3)c12

>  <score_type>  (8) 
oracle

>  <origin>  (8) 
adg

>  <m_score__min__energy>  (8) 
-9.3200000000000003

>  <m_primary>  (8) 
energy

$$$$
9:0
     RDKit          3D

 44 46  0  0  0  0  0  0  0  0999 V2000
   -6.3360   25.2050  -29.7540 C   0  0  0  0  0  0  0  0  0  0  0  0
   -5.3770   25.6580  -30.8660 C   0  0  0  0  0  0  0  0  0  0  0  0
   -4.0770   25.2470  -30.4560 N   0  0  0  0  0  0  0  0  0  0  0  0
   -3.9840   24.4860  -29.2600 C   0  0  0  0  0  0  0  0  0  0  0  0
   -2.5890   23.9920  -28.9210 C   0  0  0  0  0  0  0  0  0  0  0  0
   -1.9040   23.5480  -30.0200 O   0  0  0  0  0  0  0  0  0  0  0  0
   -1.6050   22.1980  -29.9130 C   0  0  0  0  0  0  0  0  0  0  0  0
   -0.7170   21.6550  -30.9940 C   0  0  0  0  0  0  0  0  0  0  0  0
   -1.4300   21.6500  -32.3060 C   0  0  0  0  0  0  0  0  0  0  0  0
   -2.7800   21.1610  -32.2790 N   0  0  0  0  0  0  0  0  0  0  0  0
   -3.0630   19.8550  -32.4270 C   0  0  0  0  0  0  0  0  0  0  0  0
   -4.2650   19.3160  -32.4310 N   0  0  0  0  0  0  0  0  0  0  0  0
   -5.4020   20.0920  -32.2750 C   0  0  0  0  0  0  0  0  0  0  0  0
   -5.0710   21.4410  -32.1230 C   0  0  0  0  0  0  0  0  0  0  0  0
   -6.7320   22.2790  -31.9320 S   0  0  0  0  0  0  0  0  0  0  0  0
   -7.6810   20.6560  -32.0860 C   0  0  0  0  0  0  0  0  0  0  0  0
   -8.9790   20.4760  -32.0410 C   0  0  0  0  0  0  0  0  0  0  0  0
   -9.4940   19.1790  -32.1750 C   0  0  0  0  0  0  0  0  0  0  0  0
   -8.5550   18.1950  -32.3470 C   0  0  0  0  0  0  0  0  0  0  0  0
   -7.2000   18.4050  -32.3920 C   0  0  0  0  0  0  0  0  0  0  0  0
   -6.6690   19.7180  -32.2560 C   0  0  0  0  0  0  0  0  0  0  0  0
   -3.8460   21.9790  -32.1200 C   0  0  0  0  0  0  0  0  0  0  0  0
   -3.7200   23.2230  -31.9690 O   0  0  0  0  0  0  0  0  0  0  0  0
   -5.8862   25.4174  -28.7729 H   0  0  0  0  0  0  0  0  0  0  0  0
   -7.2877   25.7487  -29.8466 H   0  0  0  0  0  0  0  0  0  0  0  0
   -6.5205   24.1245  -29.8466 H   0  0  0  0  0  0  0  0  0  0  0  0
   -5.6455   25.1806  -31.8199 H   0  0  0  0  0  0  0  0  0  0  0  0
   -5.4251   26.7460  -31.0204 H   0  0  0  0  0  0  0  0  0  0  0  0
   -3.4830   24.9390  -31.2280 H   0  0  0  0  0  0  0  0  0  0  0  0
   -4.3353   25.1138  -28.4279 H   0  0  0  0  0  0  0  0  0  0  0  0
   -4.5983   23.5874  -29.4187 H   0  0  0  0  0  0  0  0  0  0  0  0
   -2.0243   24.8183  -28.4646 H   0  0  0  0  0  0  0  0  0  0  0  0
   -2.6961   23.1423  -28.2307 H   0  0  0  0  0  0  0  0  0  0  0  0
   -1.1044   22.0354  -28.9471 H   0  0  0  0  0  0  0  0  0  0  0  0
   -2.5622   21.6640  -30.0058 H   0  0  0  0  0  0  0  0  0  0  0  0
    0.1820   22.2839  -31.0734 H   0  0  0  0  0  0  0  0  0  0  0  0
   -0.4373   20.6224  -30.7382 H   0  0  0  0  0  0  0  0  0  0  0  0
   -1.4523   22.6833  -32.6825 H   0  0  0  0  0  0  0  0  0  0  0  0
   -0.8714   20.9533  -32.9483 H   0  0  0  0  0  0  0  0  0  0  0  0
   -2.2104   19.1722  -32.5570 H   0  0  0  0  0  0  0  0  0  0  0  0
   -9.6554   21.3319  -31.8999 H   0  0  0  0  0  0  0  0  0  0  0  0
  -10.5728   18.9664  -32.1444 H   0  0  0  0  0  0  0  0  0  0  0  0
   -8.9144   17.1612  -32.4570 H   0  0  0  0  0  0  0  0  0  0  0  0
   -6.5195   17.5525  -32.5342 H   0  0  0  0  0  0  0  0  0  0  0  0
  1  2  1  0
  2  3  1  0
  3  4  1  0
  4  5  1  0
  5  6  1  0
  6  7  1  0
  7  8  1  0
  8  9  1  0
  9 10  1  0
 10 11  1  0
 11 12  2  0
 12 13  1  0
 13 14  2  0
 14 15  1  0
 15 16  1  0
 16 17  2  0
 17 18  1  0
 18 19  2  0
 19 20  1  0
 20 21  2  0
 14 22  1  0
 22 23  2  0
 22 10  1  0
 21 13  1  0
 21 16  1  0
  1 24  1  0
  1 25  1  0
  1 26  1  0
  2 27  1  0
  2 28  1  0
  3 29  1  0
  4 30  1  0
  4 31  1  0
  5 32  1  0
  5 33  1  0
  7 34  1  0
  7 35  1  0
  8 36  1  0
  8 37  1  0
  9 38  1  0
  9 39  1  0
 11 40  1  0
 17 41  1  0
 18 42  1  0
 19 43  1  0
 20 44  1  0
M  END
>  <smiles>  (9) 
CCNCCOCCCn1cnc2c(sc3ccccc32)c1=O

>  <score_type>  (9) 
oracle

>  <origin>  (9) 
adg

>  <m_score__min__energy>  (9) 
-9.0600000000000005

>  <m_primary>  (9) 
energy

$$$$
10:0
     RDKit          3D

 27 28  0  0  0  0  0  0  0  0999 V2000
   -9.1050   18.9190  -32.3690 C   0  0  0  0  0  0  0  0  0  0  0  0
   -8.8310   20.3220  -32.1240 N   0  0  0  0  0  0  0  0  0  0  0  0
   -9.6950   21.2340  -31.7250 N   0  0  0  0  0  0  0  0  0  0  0  0
   -9.0630   22.4390  -31.6050 C   0  0  0  0  0  0  0  0  0  0  0  0
   -7.7450   22.2330  -31.9530 C   0  0  0  0  0  0  0  0  0  0  0  0
   -6.3890   23.5790  -31.9680 Br  0  0  0  0  0  0  0  0  0  0  0  0
   -7.6240   20.8950  -32.2740 C   0  0  0  0  0  0  0  0  0  0  0  0
   -6.3350   20.2630  -32.7080 C   0  0  0  0  0  0  0  0  0  0  0  0
   -6.4600   19.5020  -33.8870 N   0  0  0  0  0  0  0  0  0  0  0  0
   -5.4740   18.5340  -34.1750 C   0  0  0  0  0  0  0  0  0  0  0  0
   -6.1190   17.2030  -34.5930 C   0  0  0  0  0  0  0  0  0  0  0  0
   -6.4000   17.0100  -33.1100 C   0  0  0  0  0  0  0  0  0  0  0  0
   -5.1000   17.7930  -32.8810 C   0  0  0  0  0  0  0  0  0  0  0  0
   -9.2078   18.3924  -31.4088 H   0  0  0  0  0  0  0  0  0  0  0  0
  -10.0390   18.8224  -32.9420 H   0  0  0  0  0  0  0  0  0  0  0  0
   -8.2760   18.4781  -32.9420 H   0  0  0  0  0  0  0  0  0  0  0  0
   -9.5179   23.3901  -31.2913 H   0  0  0  0  0  0  0  0  0  0  0  0
   -5.5964   21.0593  -32.8824 H   0  0  0  0  0  0  0  0  0  0  0  0
   -6.0212   19.5769  -31.9075 H   0  0  0  0  0  0  0  0  0  0  0  0
   -7.2030   19.6900  -34.5450 H   0  0  0  0  0  0  0  0  0  0  0  0
   -4.7572   19.0765  -34.8089 H   0  0  0  0  0  0  0  0  0  0  0  0
   -7.0120   17.2969  -35.2283 H   0  0  0  0  0  0  0  0  0  0  0  0
   -5.5939   16.4524  -35.2020 H   0  0  0  0  0  0  0  0  0  0  0  0
   -7.3116   17.5026  -32.7407 H   0  0  0  0  0  0  0  0  0  0  0  0
   -6.5849   16.0217  -32.6639 H   0  0  0  0  0  0  0  0  0  0  0  0
   -5.0820   18.4151  -31.9740 H   0  0  0  0  0  0  0  0  0  0  0  0
   -4.1256   17.3054  -32.7300 H   0  0  0  0  0  0  0  0  0  0  0  0
  1  2  1  0
  2  3  1  0
  3  4  2  0
  4  5  1  0
  5  6  1  0
  5  7  2  0
  7  8  1  0
  8  9  1  0
  9 10  1  0
 10 11  1  0
 11 12  1  0
 12 13  1  0
  7  2  1  0
 13 10  1  0
  1 14  1  0
  1 15  1  0
  1 16  1  0
  4 17  1  0
  8 18  1  0
  8 19  1  0
  9 20  1  0
 10 21  1  0
 11 22  1  0
 11 23  1  0
 12 24  1  0
 12 25  1  0
 13 26  1  0
 13 27  1  0
M  END
>  <smiles>  (10) 
Cn1ncc(Br)c1CNC1CCC1

>  <score_type>  (10) 
oracle

>  <origin>  (10) 
adg

>  <m_score__min__energy>  (10) 
-5.9500000000000002

>  <m_primary>  (10) 
energy

$$$$
11:0
     RDKit          3D

 48 51  0  0  0  0  0  0  0  0999 V2000
   -6.0570   17.3490  -33.2860 Br  0  0  0  0  0  0  0  0  0  0  0  0
   -6.0190   19.2350  -32.9300 C   0  0  0  0  0  0  0  0  0  0  0  0
   -4.9020   19.9530  -33.0140 N   0  0  0  0  0  0  0  0  0  0  0  0
   -4.7850   21.2730  -32.7840 C   0  0  0  0  0  0  0  0  0  0  0  0
   -3.4410   21.8760  -32.8930 C   0  0  0  0  0  0  0  0  0  0  0  0
   -2.5590   21.4760  -31.7460 C   0  0  0  0  0  0  0  0  0  0  0  0
   -3.0550   21.1110  -30.5160 C   0  0  0  0  0  0  0  0  0  0  0  0
   -2.1730   20.7530  -29.5140 C   0  0  0  0  0  0  0  0  0  0  0  0
   -0.7930   20.7590  -29.7420 C   0  0  0  0  0  0  0  0  0  0  0  0
   -0.3010   21.1280  -30.9860 C   0  0  0  0  0  0  0  0  0  0  0  0
   -1.2030   21.4890  -31.9930 C   0  0  0  0  0  0  0  0  0  0  0  0
   -5.9030   21.9700  -32.4300 C   0  0  0  0  0  0  0  0  0  0  0  0
   -5.9920   23.3470  -32.1850 N   0  0  0  0  0  0  0  0  0  0  0  0
   -5.9930   24.0150  -30.9260 C   0  0  0  0  0  0  0  0  0  0  0  0
   -5.2640   25.3220  -30.8420 C   0  0  0  0  0  0  0  0  0  0  0  0
   -3.9340   25.1160  -30.5290 O   0  0  0  0  0  0  0  0  0  0  0  0
   -3.4450   24.4880  -29.4390 C   0  0  0  0  0  0  0  0  0  0  0  0
   -2.0580   24.5500  -29.2540 C   0  0  0  0  0  0  0  0  0  0  0  0
   -1.4200   23.9540  -28.1930 C   0  0  0  0  0  0  0  0  0  0  0  0
   -2.1320   23.2570  -27.2460 C   0  0  0  0  0  0  0  0  0  0  0  0
   -3.4940   23.1790  -27.4020 C   0  0  0  0  0  0  0  0  0  0  0  0
   -4.1350   23.7870  -28.4840 C   0  0  0  0  0  0  0  0  0  0  0  0
   -7.0980   21.2450  -32.3310 C   0  0  0  0  0  0  0  0  0  0  0  0
   -8.2890   21.8750  -31.9690 C   0  0  0  0  0  0  0  0  0  0  0  0
   -9.4370   21.1810  -31.8700 N   0  0  0  0  0  0  0  0  0  0  0  0
   -9.4900   19.8500  -32.1150 C   0  0  0  0  0  0  0  0  0  0  0  0
   -8.3340   19.1590  -32.4810 C   0  0  0  0  0  0  0  0  0  0  0  0
   -7.1760   19.8990  -32.5740 C   0  0  0  0  0  0  0  0  0  0  0  0
   -2.9762   21.5437  -33.8330 H   0  0  0  0  0  0  0  0  0  0  0  0
   -3.5532   22.9701  -32.8743 H   0  0  0  0  0  0  0  0  0  0  0  0
   -4.1395   21.1041  -30.3323 H   0  0  0  0  0  0  0  0  0  0  0  0
   -2.5603   20.4603  -28.5269 H   0  0  0  0  0  0  0  0  0  0  0  0
   -0.0998   20.4721  -28.9376 H   0  0  0  0  0  0  0  0  0  0  0  0
    0.7821   21.1366  -31.1776 H   0  0  0  0  0  0  0  0  0  0  0  0
   -0.8289   21.7840  -32.9845 H   0  0  0  0  0  0  0  0  0  0  0  0
   -6.0630   23.9700  -33.0490 H   0  0  0  0  0  0  0  0  0  0  0  0
   -7.0417   24.2031  -30.6523 H   0  0  0  0  0  0  0  0  0  0  0  0
   -5.4468   23.3423  -30.2484 H   0  0  0  0  0  0  0  0  0  0  0  0
   -5.3320   25.8372  -31.8115 H   0  0  0  0  0  0  0  0  0  0  0  0
   -5.7239   25.9353  -30.0531 H   0  0  0  0  0  0  0  0  0  0  0  0
   -1.4532   25.0998  -29.9902 H   0  0  0  0  0  0  0  0  0  0  0  0
   -0.3269   24.0356  -28.1004 H   0  0  0  0  0  0  0  0  0  0  0  0
   -1.6283   22.7785  -26.3931 H   0  0  0  0  0  0  0  0  0  0  0  0
   -4.0914   22.6275  -26.6611 H   0  0  0  0  0  0  0  0  0  0  0  0
   -5.2280   23.7006  -28.5726 H   0  0  0  0  0  0  0  0  0  0  0  0
   -8.2892   22.9552  -31.7615 H   0  0  0  0  0  0  0  0  0  0  0  0
  -10.4457   19.3128  -32.0254 H   0  0  0  0  0  0  0  0  0  0  0  0
   -8.3470   18.0781  -32.6849 H   0  0  0  0  0  0  0  0  0  0  0  0
  1  2  1  0
  2  3  2  0
  3  4  1  0
  4  5  1  0
  5  6  1  0
  6  7  2  0
  7  8  1  0
  8  9  2  0
  9 10  1  0
 10 11  2  0
  4 12  2  0
 12 13  1  0
 13 14  1  0
 14 15  1  0
 15 16  1  0
 16 17  1  0
 17 18  2  0
 18 19  1  0
 19 20  2  0
 20 21  1  0
 21 22  2  0
 12 23  1  0
 23 24  2  0
 24 25  1  0
 25 26  2  0
 26 27  1  0
 27 28  2  0
 28  2  1  0
 11  6  1  0
 22 17  1  0
 28 23  1  0
  5 29  1  0
  5 30  1  0
  7 31  1  0
  8 32  1  0
  9 33  1  0
 10 34  1  0
 11 35  1  0
 13 36  1  0
 14 37  1  0
 14 38  1  0
 15 39  1  0
 15 40  1  0
 18 41  1  0
 19 42  1  0
 20 43  1  0
 21 44  1  0
 22 45  1  0
 24 46  1  0
 26 47  1  0
 27 48  1  0
M  END
>  <smiles>  (11) 
Brc1nc(Cc2ccccc2)c(NCCOc2ccccc2)c2cnccc12

>  <score_type>  (11) 
oracle

>  <origin>  (11) 
adg

>  <m_score__min__energy>  (11) 
-9.8699999999999992

>  <m_primary>  (11) 
energy

$$$$
12:0
     RDKit          3D

 60 62  0  0  0  0  0  0  0  0999 V2000
   -3.5070   22.1660  -27.9990 C   0  0  0  0  0  0  0  0  0  0  0  0
   -4.2390   23.4650  -28.2690 C   0  0  0  0  0  0  0  0  0  0  0  0
   -4.8470   23.5550  -29.5460 N   0  0  0  0  0  0  0  0  0  0  0  0
   -5.9280   24.5580  -29.5440 C   0  0  0  0  0  0  0  0  0  0  0  0
   -5.6780   25.6810  -30.4950 C   0  0  0  0  0  0  0  0  0  0  0  0
   -4.0440   23.8200  -30.6680 C   0  0  0  0  0  0  0  0  0  0  0  0
   -3.6440   22.7240  -31.5750 C   0  0  0  0  0  0  0  0  0  0  0  0
   -4.5170   22.4480  -32.6550 N   0  0  0  0  0  0  0  0  0  0  0  0
   -5.2670   21.2180  -32.6010 C   0  0  0  0  0  0  0  0  0  0  0  0
   -6.5850   21.2190  -32.2110 C   0  0  0  0  0  0  0  0  0  0  0  0
   -7.1320   22.4320  -31.8620 C   0  0  0  0  0  0  0  0  0  0  0  0
   -8.4400   22.4310  -31.4450 C   0  0  0  0  0  0  0  0  0  0  0  0
   -9.1860   21.2830  -31.3730 C   0  0  0  0  0  0  0  0  0  0  0  0
   -8.5910   20.0930  -31.7350 C   0  0  0  0  0  0  0  0  0  0  0  0
   -7.2630   20.0240  -32.1710 C   0  0  0  0  0  0  0  0  0  0  0  0
   -6.7140   18.8350  -32.4930 N   0  0  0  0  0  0  0  0  0  0  0  0
   -7.5850   17.7030  -32.5280 C   0  0  0  0  0  0  0  0  0  0  0  0
   -5.4310   18.8090  -32.8700 C   0  0  0  0  0  0  0  0  0  0  0  0
   -4.8330   17.6410  -33.1710 C   0  0  0  0  0  0  0  0  0  0  0  0
   -5.3130   16.3200  -33.0860 N   0  0  0  0  0  0  0  0  0  0  0  0
   -5.0080   15.3560  -32.0400 C   0  0  0  0  0  0  0  0  0  0  0  0
   -6.0440   15.7960  -34.2380 C   0  0  0  0  0  0  0  0  0  0  0  0
   -6.3980   14.3670  -34.2440 C   0  0  0  0  0  0  0  0  0  0  0  0
   -3.4650   17.6980  -33.5460 C   0  0  0  0  0  0  0  0  0  0  0  0
   -2.7580   18.8610  -33.6070 C   0  0  0  0  0  0  0  0  0  0  0  0
   -3.3720   20.0390  -33.2940 C   0  0  0  0  0  0  0  0  0  0  0  0
   -4.7010   20.0030  -32.9270 C   0  0  0  0  0  0  0  0  0  0  0  0
   -3.4206   22.0127  -26.9132 H   0  0  0  0  0  0  0  0  0  0  0  0
   -4.0670   21.3302  -28.4439 H   0  0  0  0  0  0  0  0  0  0  0  0
   -2.5020   22.2121  -28.4439 H   0  0  0  0  0  0  0  0  0  0  0  0
   -5.0251   23.5784  -27.5079 H   0  0  0  0  0  0  0  0  0  0  0  0
   -3.4791   24.2595  -28.2333 H   0  0  0  0  0  0  0  0  0  0  0  0
   -6.8683   24.0616  -29.8259 H   0  0  0  0  0  0  0  0  0  0  0  0
   -5.9797   24.9866  -28.5323 H   0  0  0  0  0  0  0  0  0  0  0  0
   -5.4730   26.6018  -29.9293 H   0  0  0  0  0  0  0  0  0  0  0  0
   -4.8117   25.4392  -31.1283 H   0  0  0  0  0  0  0  0  0  0  0  0
   -6.5651   25.8295  -31.1283 H   0  0  0  0  0  0  0  0  0  0  0  0
   -4.5887   24.5538  -31.2802 H   0  0  0  0  0  0  0  0  0  0  0  0
   -3.0892   24.1356  -30.2222 H   0  0  0  0  0  0  0  0  0  0  0  0
   -2.6612   22.9811  -31.9969 H   0  0  0  0  0  0  0  0  0  0  0  0
   -3.6512   21.8154  -30.9550 H   0  0  0  0  0  0  0  0  0  0  0  0
   -4.7110   23.0290  -33.4930 H   0  0  0  0  0  0  0  0  0  0  0  0
   -6.5470   23.3620  -31.9147 H   0  0  0  0  0  0  0  0  0  0  0  0
   -8.9061   23.3853  -31.1584 H   0  0  0  0  0  0  0  0  0  0  0  0
  -10.2324   21.3106  -31.0351 H   0  0  0  0  0  0  0  0  0  0  0  0
   -9.1805   19.1660  -31.6792 H   0  0  0  0  0  0  0  0  0  0  0  0
   -7.8240   17.3924  -31.5002 H   0  0  0  0  0  0  0  0  0  0  0  0
   -8.5126   17.9703  -33.0554 H   0  0  0  0  0  0  0  0  0  0  0  0
   -7.0890   16.8749  -33.0554 H   0  0  0  0  0  0  0  0  0  0  0  0
   -5.1561   15.8240  -31.0556 H   0  0  0  0  0  0  0  0  0  0  0  0
   -5.6750   14.4866  -32.1368 H   0  0  0  0  0  0  0  0  0  0  0  0
   -3.9624   15.0285  -32.1368 H   0  0  0  0  0  0  0  0  0  0  0  0
   -6.9821   16.3651  -34.3157 H   0  0  0  0  0  0  0  0  0  0  0  0
   -5.3444   15.9078  -35.0795 H   0  0  0  0  0  0  0  0  0  0  0  0
   -6.4872   14.0070  -33.2084 H   0  0  0  0  0  0  0  0  0  0  0  0
   -7.3575   14.2291  -34.7640 H   0  0  0  0  0  0  0  0  0  0  0  0
   -5.6139   13.7972  -34.7640 H   0  0  0  0  0  0  0  0  0  0  0  0
   -2.9515   16.7587  -33.7993 H   0  0  0  0  0  0  0  0  0  0  0  0
   -1.6996   18.8506  -33.9065 H   0  0  0  0  0  0  0  0  0  0  0  0
   -2.8221   20.9909  -33.3333 H   0  0  0  0  0  0  0  0  0  0  0  0
  1  2  1  0
  2  3  1  0
  3  4  1  0
  4  5  1  0
  3  6  1  0
  6  7  1  0
  7  8  1  0
  8  9  1  0
  9 10  2  0
 10 11  1  0
 11 12  2  0
 12 13  1  0
 13 14  2  0
 14 15  1  0
 15 16  2  0
 16 17  1  0
 16 18  1  0
 18 19  2  0
 19 20  1  0
 20 21  1  0
 20 22  1  0
 22 23  1  0
 19 24  1  0
 24 25  2  0
 25 26  1  0
 26 27  2  0
 27  9  1  0
 15 10  1  0
 27 18  1  0
  1 28  1  0
  1 29  1  0
  1 30  1  0
  2 31  1  0
  2 32  1  0
  4 33  1  0
  4 34  1  0
  5 35  1  0
  5 36  1  0
  5 37  1  0
  6 38  1  0
  6 39  1  0
  7 40  1  0
  7 41  1  0
  8 42  1  0
 11 43  1  0
 12 44  1  0
 13 45  1  0
 14 46  1  0
 17 47  1  0
 17 48  1  0
 17 49  1  0
 21 50  1  0
 21 51  1  0
 21 52  1  0
 22 53  1  0
 22 54  1  0
 23 55  1  0
 23 56  1  0
 23 57  1  0
 24 58  1  0
 25 59  1  0
 26 60  1  0
M  CHG  1  16   1
M  END
>  <smiles>  (12) 
CCN(CC)CCNc1c2ccccc2[n+](C)c2c(N(C)CC)cccc12

>  <score_type>  (12) 
oracle

>  <origin>  (12) 
adg

>  <m_score__min__energy>  (12) 
-8.5700000000000003

>  <m_primary>  (12) 
energy

$$$$
13:0
     RDKit          3D

 54 56  0  0  0  0  0  0  0  0999 V2000
   -1.5540   25.7270  -25.7630 C   0  0  0  0  0  0  0  0  0  0  0  0
   -2.9360   25.3170  -26.1760 C   0  0  0  0  0  0  0  0  0  0  0  0
   -2.9990   24.1180  -26.9490 N   0  0  0  0  0  0  0  0  0  0  0  0
   -1.8580   23.2320  -26.7950 C   0  0  0  0  0  0  0  0  0  0  0  0
   -2.2560   21.9350  -27.4680 C   0  0  0  0  0  0  0  0  0  0  0  0
   -3.1920   22.1810  -28.4400 O   0  0  0  0  0  0  0  0  0  0  0  0
   -2.7540   22.3380  -29.7260 C   0  0  0  0  0  0  0  0  0  0  0  0
   -2.3360   23.8060  -29.8870 C   0  0  0  0  0  0  0  0  0  0  0  0
   -3.4430   24.6290  -30.1950 N   0  0  0  0  0  0  0  0  0  0  0  0
   -4.6770   24.3570  -29.5390 C   0  0  0  0  0  0  0  0  0  0  0  0
   -5.8480   25.0330  -30.1830 C   0  0  0  0  0  0  0  0  0  0  0  0
   -6.1330   24.6590  -31.5840 C   0  0  0  0  0  0  0  0  0  0  0  0
   -6.1610   23.2690  -31.9190 N   0  0  0  0  0  0  0  0  0  0  0  0
   -5.0520   22.4560  -32.2420 C   0  0  0  0  0  0  0  0  0  0  0  0
   -3.9170   22.9370  -32.2870 O   0  0  0  0  0  0  0  0  0  0  0  0
   -5.2660   21.0260  -32.5230 C   0  0  0  0  0  0  0  0  0  0  0  0
   -4.1880   20.1890  -32.8390 C   0  0  0  0  0  0  0  0  0  0  0  0
   -4.3980   18.8300  -33.0970 C   0  0  0  0  0  0  0  0  0  0  0  0
   -5.6630   18.2830  -33.0480 C   0  0  0  0  0  0  0  0  0  0  0  0
   -6.7300   19.0980  -32.7380 C   0  0  0  0  0  0  0  0  0  0  0  0
   -7.9790   18.5170  -32.6920 C   0  0  0  0  0  0  0  0  0  0  0  0
   -9.0490   19.3330  -32.3760 C   0  0  0  0  0  0  0  0  0  0  0  0
   -8.8940   20.6690  -32.1140 C   0  0  0  0  0  0  0  0  0  0  0  0
   -7.6190   21.2030  -32.1730 C   0  0  0  0  0  0  0  0  0  0  0  0
   -6.5120   20.4420  -32.4840 C   0  0  0  0  0  0  0  0  0  0  0  0
   -7.4520   22.6210  -31.8890 C   0  0  0  0  0  0  0  0  0  0  0  0
   -8.4920   23.3080  -31.6040 O   0  0  0  0  0  0  0  0  0  0  0  0
   -1.4899   25.7460  -24.6650 H   0  0  0  0  0  0  0  0  0  0  0  0
   -0.8237   25.0068  -26.1605 H   0  0  0  0  0  0  0  0  0  0  0  0
   -1.3346   26.7289  -26.1605 H   0  0  0  0  0  0  0  0  0  0  0  0
   -3.5355   25.1691  -25.2656 H   0  0  0  0  0  0  0  0  0  0  0  0
   -3.3180   26.1219  -26.8212 H   0  0  0  0  0  0  0  0  0  0  0  0
   -3.1640   24.2990  -27.9670 H   0  0  0  0  0  0  0  0  0  0  0  0
   -0.9702   23.6610  -27.2826 H   0  0  0  0  0  0  0  0  0  0  0  0
   -1.6012   23.0792  -25.7364 H   0  0  0  0  0  0  0  0  0  0  0  0
   -1.3681   21.4740  -27.9252 H   0  0  0  0  0  0  0  0  0  0  0  0
   -2.6840   21.2542  -26.7174 H   0  0  0  0  0  0  0  0  0  0  0  0
   -1.8941   21.6784  -29.9144 H   0  0  0  0  0  0  0  0  0  0  0  0
   -3.5462   22.0767  -30.4430 H   0  0  0  0  0  0  0  0  0  0  0  0
   -1.8827   24.1537  -28.9470 H   0  0  0  0  0  0  0  0  0  0  0  0
   -1.6163   23.8709  -30.7164 H   0  0  0  0  0  0  0  0  0  0  0  0
   -3.5590   24.8350  -31.2170 H   0  0  0  0  0  0  0  0  0  0  0  0
   -4.8488   23.2706  -29.5535 H   0  0  0  0  0  0  0  0  0  0  0  0
   -4.5961   24.7484  -28.5142 H   0  0  0  0  0  0  0  0  0  0  0  0
   -6.7409   24.7974  -29.5853 H   0  0  0  0  0  0  0  0  0  0  0  0
   -5.5890   26.1017  -30.2125 H   0  0  0  0  0  0  0  0  0  0  0  0
   -7.1183   25.0761  -31.8392 H   0  0  0  0  0  0  0  0  0  0  0  0
   -5.2807   25.0597  -32.1524 H   0  0  0  0  0  0  0  0  0  0  0  0
   -3.1699   20.6029  -32.8846 H   0  0  0  0  0  0  0  0  0  0  0  0
   -3.5399   18.1872  -33.3430 H   0  0  0  0  0  0  0  0  0  0  0  0
   -5.8178   17.2134  -33.2531 H   0  0  0  0  0  0  0  0  0  0  0  0
   -8.1189   17.4457  -32.8987 H   0  0  0  0  0  0  0  0  0  0  0  0
  -10.0575   18.8958  -32.3335 H   0  0  0  0  0  0  0  0  0  0  0  0
   -9.7597   21.2998  -31.8636 H   0  0  0  0  0  0  0  0  0  0  0  0
  1  2  1  0
  2  3  1  0
  3  4  1  0
  4  5  1  0
  5  6  1  0
  6  7  1  0
  7  8  1  0
  8  9  1  0
  9 10  1  0
 10 11  1  0
 11 12  1  0
 12 13  1  0
 13 14  1  0
 14 15  2  0
 14 16  1  0
 16 17  1  0
 17 18  2  0
 18 19  1  0
 19 20  2  0
 20 21  1  0
 21 22  2  0
 22 23  1  0
 23 24  2  0
 24 25  1  0
 24 26  1  0
 26 27  2  0
 26 13  1  0
 25 16  2  0
 25 20  1  0
  1 28  1  0
  1 29  1  0
  1 30  1  0
  2 31  1  0
  2 32  1  0
  3 33  1  0
  4 34  1  0
  4 35  1  0
  5 36  1  0
  5 37  1  0
  7 38  1  0
  7 39  1  0
  8 40  1  0
  8 41  1  0
  9 42  1  0
 10 43  1  0
 10 44  1  0
 11 45  1  0
 11 46  1  0
 12 47  1  0
 12 48  1  0
 17 49  1  0
 18 50  1  0
 19 51  1  0
 21 52  1  0
 22 53  1  0
 23 54  1  0
M  END
>  <smiles>  (13) 
CCNCCOCCNCCCN1C(=O)c2cccc3cccc(c23)C1=O

>  <score_type>  (13) 
oracle

>  <origin>  (13) 
adg

>  <m_score__min__energy>  (13) 
-9.9700000000000006

>  <m_primary>  (13) 
energy

$$$$
