0:0
     RDKit          3D

 70 74  0  0  0  0  0  0  0  0999 V2000
    2.2480   14.6880  -26.8090 C   0  0  0  0  0  0  0  0  0  0  0  0
    2.7010   15.4870  -27.8980 O   0  0  0  0  0  0  0  0  0  0  0  0
    1.9000   16.4070  -28.5930 C   0  0  0  0  0  0  0  0  0  0  0  0
    1.3270   16.0060  -29.8040 C   0  0  0  0  0  0  0  0  0  0  0  0
    0.5220   16.8850  -30.5340 C   0  0  0  0  0  0  0  0  0  0  0  0
    0.2780   18.1880  -30.0640 C   0  0  0  0  0  0  0  0  0  0  0  0
   -0.5680   19.1220  -30.8450 C   0  0  0  0  0  0  0  0  0  0  0  0
   -1.0610   20.3000  -30.2570 C   0  0  0  0  0  0  0  0  0  0  0  0
   -1.8660   21.1760  -30.9900 C   0  0  0  0  0  0  0  0  0  0  0  0
   -2.2270   20.8750  -32.3130 C   0  0  0  0  0  0  0  0  0  0  0  0
   -3.1000   21.8160  -33.1160 C   0  0  0  0  0  0  0  0  0  0  0  0
   -4.5680   21.6370  -32.9400 N   0  0  1  0  0  0  0  0  0  0  0  0
   -5.0560   20.2270  -33.0800 C   0  0  2  0  0  0  0  0  0  0  0  0
   -6.3940   20.1290  -33.8250 C   0  0  0  0  0  0  0  0  0  0  0  0
   -7.2880   19.2420  -32.9680 C   0  0  0  0  0  0  0  0  0  0  0  0
   -6.4540   18.5980  -31.9440 N   0  0  0  0  0  0  0  0  0  0  0  0
   -6.1570   17.1690  -32.2170 C   0  0  0  0  0  0  0  0  0  0  0  0
   -5.0130   16.9360  -33.1870 C   0  0  0  0  0  0  0  0  0  0  0  0
   -3.8010   16.3850  -32.7320 C   0  0  0  0  0  0  0  0  0  0  0  0
   -2.7370   16.1880  -33.6160 C   0  0  0  0  0  0  0  0  0  0  0  0
   -2.8750   16.5250  -34.9640 C   0  0  0  0  0  0  0  0  0  0  0  0
   -4.0850   17.0430  -35.4330 C   0  0  0  0  0  0  0  0  0  0  0  0
   -5.1530   17.2390  -34.5520 C   0  0  0  0  0  0  0  0  0  0  0  0
   -5.2680   19.4450  -31.7700 C   0  0  0  0  0  0  0  0  0  0  0  0
   -5.1920   22.5310  -31.5580 S   0  0  0  0  0  0  0  0  0  0  0  0
   -4.7630   23.9710  -31.5970 O   0  0  0  0  0  0  0  0  0  0  0  0
   -4.7060   21.9340  -30.2680 O   0  0  0  0  0  0  0  0  0  0  0  0
   -6.9520   22.4510  -31.5700 C   0  0  0  0  0  0  0  0  0  0  0  0
   -7.6080   21.4540  -30.8340 C   0  0  0  0  0  0  0  0  0  0  0  0
   -9.0040   21.3700  -30.8500 C   0  0  0  0  0  0  0  0  0  0  0  0
   -9.7510   22.2810  -31.6030 C   0  0  0  0  0  0  0  0  0  0  0  0
   -9.1030   23.2750  -32.3410 C   0  0  0  0  0  0  0  0  0  0  0  0
   -7.7070   23.3600  -32.3280 C   0  0  0  0  0  0  0  0  0  0  0  0
   -1.6960   19.7200  -32.9150 C   0  0  0  0  0  0  0  0  0  0  0  0
   -0.8820   18.8500  -32.1870 C   0  0  0  0  0  0  0  0  0  0  0  0
    0.8550   18.5910  -28.8470 C   0  0  0  0  0  0  0  0  0  0  0  0
    1.6560   17.7080  -28.1150 C   0  0  0  0  0  0  0  0  0  0  0  0
    2.5224   15.1720  -25.8601 H   0  0  0  0  0  0  0  0  0  0  0  0
    1.1546   14.5805  -26.8630 H   0  0  0  0  0  0  0  0  0  0  0  0
    2.7172   13.6946  -26.8630 H   0  0  0  0  0  0  0  0  0  0  0  0
    1.5113   14.9907  -30.1851 H   0  0  0  0  0  0  0  0  0  0  0  0
    0.0757   16.5551  -31.4837 H   0  0  0  0  0  0  0  0  0  0  0  0
   -0.8111   20.5340  -29.2116 H   0  0  0  0  0  0  0  0  0  0  0  0
   -2.2197   22.1089  -30.5268 H   0  0  0  0  0  0  0  0  0  0  0  0
   -2.8468   22.8457  -32.8234 H   0  0  0  0  0  0  0  0  0  0  0  0
   -2.8933   21.5914  -34.1728 H   0  0  0  0  0  0  0  0  0  0  0  0
   -4.9740   22.1520  -33.7580 H   0  0  0  0  0  0  0  0  0  0  0  0
   -4.2223   19.7768  -33.6388 H   0  0  0  0  0  0  0  0  0  0  0  0
   -6.8421   21.1271  -33.9387 H   0  0  0  0  0  0  0  0  0  0  0  0
   -6.2632   19.7132  -34.8349 H   0  0  0  0  0  0  0  0  0  0  0  0
   -8.0647   19.8530  -32.4848 H   0  0  0  0  0  0  0  0  0  0  0  0
   -7.7766   18.4800  -33.5930 H   0  0  0  0  0  0  0  0  0  0  0  0
   -5.9028   16.6831  -31.2635 H   0  0  0  0  0  0  0  0  0  0  0  0
   -7.0569   16.7480  -32.6891 H   0  0  0  0  0  0  0  0  0  0  0  0
   -3.6903   16.1075  -31.6734 H   0  0  0  0  0  0  0  0  0  0  0  0
   -1.7892   15.7668  -33.2495 H   0  0  0  0  0  0  0  0  0  0  0  0
   -2.0319   16.3828  -35.6561 H   0  0  0  0  0  0  0  0  0  0  0  0
   -4.1976   17.2971  -36.4973 H   0  0  0  0  0  0  0  0  0  0  0  0
   -6.1082   17.6326  -34.9296 H   0  0  0  0  0  0  0  0  0  0  0  0
   -5.4266   20.1455  -30.9368 H   0  0  0  0  0  0  0  0  0  0  0  0
   -4.3852   18.8301  -31.5407 H   0  0  0  0  0  0  0  0  0  0  0  0
   -7.0225   20.7353  -30.2418 H   0  0  0  0  0  0  0  0  0  0  0  0
   -9.5144   20.5870  -30.2700 H   0  0  0  0  0  0  0  0  0  0  0  0
  -10.8490   22.2152  -31.6145 H   0  0  0  0  0  0  0  0  0  0  0  0
   -9.6915   23.9915  -32.9329 H   0  0  0  0  0  0  0  0  0  0  0  0
   -7.1994   24.1410  -32.9131 H   0  0  0  0  0  0  0  0  0  0  0  0
   -1.9240   19.5002  -33.9684 H   0  0  0  0  0  0  0  0  0  0  0  0
   -0.4835   17.9446  -32.6680 H   0  0  0  0  0  0  0  0  0  0  0  0
    0.6754   19.6078  -28.4677 H   0  0  0  0  0  0  0  0  0  0  0  0
    2.0973   18.0322  -27.1610 H   0  0  0  0  0  0  0  0  0  0  0  0
  1  2  1  0
  2  3  1  0
  3  4  2  0
  4  5  1  0
  5  6  2  0
  6  7  1  0
  7  8  2  0
  8  9  1  0
  9 10  2  0
 10 11  1  0
 11 12  1  0
 12 13  1  0
 13 14  1  0
 14 15  1  0
 15 16  1  0
 16 17  1  0
 17 18  1  0
 18 19  2  0
 19 20  1  0
 20 21  2  0
 21 22  1  0
 22 23  2  0
 16 24  1  0
 12 25  1  0
 25 26  2  0
 25 27  2  0
 25 28  1  0
 28 29  2  0
 29 30  1  0
 30 31  2  0
 31 32  1  0
 32 33  2  0
 10 34  1  0
 34 35  2  0
  6 36  1  0
 36 37  2  0
 37  3  1  0
 35  7  1  0
 24 13  1  0
 33 28  1  0
 23 18  1  0
  1 38  1  0
  1 39  1  0
  1 40  1  0
  4 41  1  0
  5 42  1  0
  8 43  1  0
  9 44  1  0
 11 45  1  0
 11 46  1  0
 12 47  1  6
 13 48  1  6
 14 49  1  0
 14 50  1  0
 15 51  1  0
 15 52  1  0
 17 53  1  0
 17 54  1  0
 19 55  1  0
 20 56  1  0
 21 57  1  0
 22 58  1  0
 23 59  1  0
 24 60  1  0
 24 61  1  0
 29 62  1  0
 30 63  1  0
 31 64  1  0
 32 65  1  0
 33 66  1  0
 34 67  1  0
 35 68  1  0
 36 69  1  0
 37 70  1  0
M  CHG  1  12   1
M  END
>  <UniqueID>  (1) 
1

>  <SMILES>  (1) 
COc1ccc(-c2ccc(C[N@@H+]([C@@H]3CCN(Cc4ccccc4)C3)S(=O)(=O)c3ccccc3)cc2)cc1

>  <Energy>  (1) 
98.0368454744614

>  <Genealogy>  (1) 
COc1ccc(-c2ccc(C[NH+](C3CCN(Cc4ccccc4)C3)S(=O)(=O)c3ccccc3)cc2)cc1 (protonated)
COc1ccc(-c2ccc(C[N@@H+]([C@@H]3CCN(Cc4ccccc4)C3)S(=O)(=O)c3ccccc3)cc2)cc1 (chirality)
COc1ccc(-c2ccc(C[N@@H+]([C@@H]3CCN(Cc4ccccc4)C3)S(=O)(=O)c3ccccc3)cc2)cc1 (3D coordinates assigned)
COc1ccc(-c2ccc(C[N@@H+]([C@@H]3CCN(Cc4ccccc4)C3)S(=O)(=O)c3ccccc3)cc2)cc1 (nonaromatic ring conformer: 98.0368454744614 kcal/mol)

>  <smiles>  (1) 
COc1ccc(-c2ccc(CN(C3CCN(Cc4ccccc4)C3)S(=O)(=O)c3ccccc3)cc2)cc1

>  <score_type>  (1) 
oracle

>  <origin>  (1) 
adg

>  <m_score__min__energy>  (1) 
-9.9299999999999997

>  <m_primary>  (1) 
energy

$$$$
1:0
     RDKit          3D

 53 57  0  0  0  0  0  0  0  0999 V2000
   -3.9770   20.4970  -33.9170 O   0  0  0  0  0  0  0  0  0  0  0  0
   -4.5780   20.0230  -32.9150 C   0  0  0  0  0  0  0  0  0  0  0  0
   -5.1420   20.9580  -31.9170 C   0  0  0  0  0  0  0  0  0  0  0  0
   -4.2550   21.6620  -31.0910 C   0  0  0  0  0  0  0  0  0  0  0  0
   -4.7420   22.5980  -30.1640 C   0  0  0  0  0  0  0  0  0  0  0  0
   -3.8300   23.3740  -29.2850 C   0  0  0  0  0  0  0  0  0  0  0  0
   -2.5210   23.6620  -29.7150 C   0  0  0  0  0  0  0  0  0  0  0  0
   -1.6470   24.3850  -28.8970 C   0  0  0  0  0  0  0  0  0  0  0  0
   -2.0650   24.8220  -27.6380 C   0  0  0  0  0  0  0  0  0  0  0  0
   -0.9670   25.7270  -26.6120 Cl  0  0  0  0  0  0  0  0  0  0  0  0
   -3.3580   24.5320  -27.1940 C   0  0  0  0  0  0  0  0  0  0  0  0
   -4.2360   23.8100  -28.0080 C   0  0  0  0  0  0  0  0  0  0  0  0
   -6.0850   22.7890  -30.0590 N   0  0  0  0  0  0  0  0  0  0  0  0
   -6.9820   22.1130  -30.8220 C   0  0  0  0  0  0  0  0  0  0  0  0
   -8.3510   22.3520  -30.6540 C   0  0  0  0  0  0  0  0  0  0  0  0
   -9.2840   21.6450  -31.4150 C   0  0  0  0  0  0  0  0  0  0  0  0
   -8.8560   20.6910  -32.3390 C   0  0  0  0  0  0  0  0  0  0  0  0
   -7.4920   20.4440  -32.5170 C   0  0  0  0  0  0  0  0  0  0  0  0
   -6.5340   21.1650  -31.7740 C   0  0  0  0  0  0  0  0  0  0  0  0
   -4.7220   18.5940  -32.7790 N   0  0  0  0  0  0  0  0  0  0  0  0
   -3.7480   17.7180  -33.4470 C   0  0  0  0  0  0  0  0  0  0  0  0
   -3.9370   16.2520  -33.0490 C   0  0  0  0  0  0  0  0  0  0  0  0
   -5.3520   15.8880  -33.1460 N   0  0  0  0  0  0  0  0  0  0  0  0
   -5.7130   14.5630  -33.5570 C   0  0  0  0  0  0  0  0  0  0  0  0
   -6.6470   14.3880  -34.5890 C   0  0  0  0  0  0  0  0  0  0  0  0
   -7.0060   13.1020  -35.0030 C   0  0  0  0  0  0  0  0  0  0  0  0
   -8.1710   12.8910  -36.2980 Cl  0  0  0  0  0  0  0  0  0  0  0  0
   -6.4360   11.9840  -34.3850 C   0  0  0  0  0  0  0  0  0  0  0  0
   -5.5110   12.1520  -33.3510 C   0  0  0  0  0  0  0  0  0  0  0  0
   -5.1470   13.4370  -32.9320 C   0  0  0  0  0  0  0  0  0  0  0  0
   -4.0140   13.6110  -31.5980 Cl  0  0  0  0  0  0  0  0  0  0  0  0
   -6.3950   16.7840  -32.6280 C   0  0  0  0  0  0  0  0  0  0  0  0
   -5.7900   18.0160  -31.9470 C   0  0  0  0  0  0  0  0  0  0  0  0
   -3.1729   21.4806  -31.1691 H   0  0  0  0  0  0  0  0  0  0  0  0
   -2.1827   23.3155  -30.7027 H   0  0  0  0  0  0  0  0  0  0  0  0
   -0.6283   24.6100  -29.2458 H   0  0  0  0  0  0  0  0  0  0  0  0
   -3.6860   24.8729  -26.2009 H   0  0  0  0  0  0  0  0  0  0  0  0
   -5.2503   23.5808  -27.6492 H   0  0  0  0  0  0  0  0  0  0  0  0
   -8.6923   23.0980  -29.9212 H   0  0  0  0  0  0  0  0  0  0  0  0
  -10.3588   21.8405  -31.2859 H   0  0  0  0  0  0  0  0  0  0  0  0
   -9.5955   20.1308  -32.9300 H   0  0  0  0  0  0  0  0  0  0  0  0
   -7.1637   19.6832  -33.2405 H   0  0  0  0  0  0  0  0  0  0  0  0
   -3.8736   17.8106  -34.5359 H   0  0  0  0  0  0  0  0  0  0  0  0
   -2.7392   18.0293  -33.1381 H   0  0  0  0  0  0  0  0  0  0  0  0
   -3.3487   15.6122  -33.7232 H   0  0  0  0  0  0  0  0  0  0  0  0
   -3.5970   16.1113  -32.0124 H   0  0  0  0  0  0  0  0  0  0  0  0
   -7.0985   15.2659  -35.0742 H   0  0  0  0  0  0  0  0  0  0  0  0
   -6.7160   10.9721  -34.7131 H   0  0  0  0  0  0  0  0  0  0  0  0
   -5.0672   11.2709  -32.8645 H   0  0  0  0  0  0  0  0  0  0  0  0
   -7.0304   17.1133  -33.4633 H   0  0  0  0  0  0  0  0  0  0  0  0
   -6.9846   16.2318  -31.8814 H   0  0  0  0  0  0  0  0  0  0  0  0
   -6.5776   18.7687  -31.7950 H   0  0  0  0  0  0  0  0  0  0  0  0
   -5.3623   17.7132  -30.9798 H   0  0  0  0  0  0  0  0  0  0  0  0
  1  2  2  0
  2  3  1  0
  3  4  2  0
  4  5  1  0
  5  6  1  0
  6  7  2  0
  7  8  1  0
  8  9  2  0
  9 10  1  0
  9 11  1  0
 11 12  2  0
  5 13  2  0
 13 14  1  0
 14 15  2  0
 15 16  1  0
 16 17  2  0
 17 18  1  0
 18 19  2  0
  2 20  1  0
 20 21  1  0
 21 22  1  0
 22 23  1  0
 23 24  1  0
 24 25  2  0
 25 26  1  0
 26 27  1  0
 26 28  2  0
 28 29  1  0
 29 30  2  0
 30 31  1  0
 23 32  1  0
 32 33  1  0
 19  3  1  0
 33 20  1  0
 12  6  1  0
 19 14  1  0
 30 24  1  0
  4 34  1  0
  7 35  1  0
  8 36  1  0
 11 37  1  0
 12 38  1  0
 15 39  1  0
 16 40  1  0
 17 41  1  0
 18 42  1  0
 21 43  1  0
 21 44  1  0
 22 45  1  0
 22 46  1  0
 25 47  1  0
 28 48  1  0
 29 49  1  0
 32 50  1  0
 32 51  1  0
 33 52  1  0
 33 53  1  0
M  END
>  <UniqueID>  (2) 
2

>  <SMILES>  (2) 
O=C(c1cc(-c2ccc(Cl)cc2)nc2ccccc12)N1CCN(c2cc(Cl)ccc2Cl)CC1

>  <Energy>  (2) 
78.80969413543308

>  <Genealogy>  (2) 
O=C(c1cc(-c2ccc(Cl)cc2)nc2ccccc12)N1CCN(c2cc(Cl)ccc2Cl)CC1 (3D coordinates assigned)
O=C(c1cc(-c2ccc(Cl)cc2)nc2ccccc12)N1CCN(c2cc(Cl)ccc2Cl)CC1 (nonaromatic ring conformer: 78.80969413543308 kcal/mol)

>  <smiles>  (2) 
O=C(c1cc(-c2ccc(Cl)cc2)nc2ccccc12)N1CCN(c2cc(Cl)ccc2Cl)CC1

>  <score_type>  (2) 
oracle

>  <origin>  (2) 
adg

>  <m_score__min__energy>  (2) 
-10.73

>  <m_primary>  (2) 
energy

$$$$
2:0
     RDKit          3D

 58 61  0  0  0  0  0  0  0  0999 V2000
   -5.6560   18.6990  -34.2210 C   0  0  0  0  0  0  0  0  0  0  0  0
   -5.8120   19.7900  -33.3190 O   0  0  0  0  0  0  0  0  0  0  0  0
   -7.0340   20.1900  -32.7560 C   0  0  0  0  0  0  0  0  0  0  0  0
   -8.1680   19.3530  -32.7770 C   0  0  0  0  0  0  0  0  0  0  0  0
   -9.3750   19.7820  -32.2170 C   0  0  0  0  0  0  0  0  0  0  0  0
   -9.4680   21.0480  -31.6370 C   0  0  0  0  0  0  0  0  0  0  0  0
   -8.3530   21.8890  -31.6150 C   0  0  0  0  0  0  0  0  0  0  0  0
   -7.1320   21.4680  -32.1660 C   0  0  0  0  0  0  0  0  0  0  0  0
   -5.9950   22.3500  -32.1210 N   0  0  0  0  0  0  0  0  0  0  0  0
   -4.6670   21.8290  -31.7770 C   0  0  0  0  0  0  0  0  0  0  0  0
   -3.7490   22.9710  -31.3220 C   0  0  0  0  0  0  0  0  0  0  0  0
   -4.4650   23.9270  -30.4420 N   0  0  0  0  0  0  0  0  0  0  0  0
   -4.9070   23.3470  -29.1500 C   0  0  0  0  0  0  0  0  0  0  0  0
   -3.8120   23.4130  -28.0690 C   0  0  0  0  0  0  0  0  0  0  0  0
   -2.6510   22.4330  -28.3170 C   0  0  0  0  0  0  0  0  0  0  0  0
   -1.2700   23.0960  -28.4820 C   0  0  0  0  0  0  0  0  0  0  0  0
   -1.0490   24.1810  -27.5180 N   0  0  0  0  0  0  0  0  0  0  0  0
   -1.1970   25.5030  -27.7520 C   0  0  0  0  0  0  0  0  0  0  0  0
   -1.5880   26.0460  -28.9710 O   0  0  0  0  0  0  0  0  0  0  0  0
   -0.8830   26.2310  -26.6230 C   0  0  0  0  0  0  0  0  0  0  0  0
   -0.5040   25.3240  -25.6670 C   0  0  0  0  0  0  0  0  0  0  0  0
   -0.5990   24.0750  -26.2470 C   0  0  0  0  0  0  0  0  0  0  0  0
   -0.2710   22.8750  -25.6270 O   0  0  0  0  0  0  0  0  0  0  0  0
   -0.0450   25.7000  -24.2940 C   0  0  0  0  0  0  0  0  0  0  0  0
   -0.1790   27.1910  -24.0470 C   0  0  0  0  0  0  0  0  0  0  0  0
   -0.5510   28.0840  -24.9930 C   0  0  0  0  0  0  0  0  0  0  0  0
   -0.8820   27.7110  -26.4250 C   0  0  0  0  0  0  0  0  0  0  0  0
   -5.5930   24.5960  -31.1460 C   0  0  0  0  0  0  0  0  0  0  0  0
   -6.1640   23.7900  -32.3350 C   0  0  0  0  0  0  0  0  0  0  0  0
   -5.5229   17.7679  -33.6507 H   0  0  0  0  0  0  0  0  0  0  0  0
   -6.5514   18.6161  -34.8545 H   0  0  0  0  0  0  0  0  0  0  0  0
   -4.7732   18.8704  -34.8545 H   0  0  0  0  0  0  0  0  0  0  0  0
   -8.1028   18.3559  -33.2370 H   0  0  0  0  0  0  0  0  0  0  0  0
  -10.2535   19.1202  -32.2336 H   0  0  0  0  0  0  0  0  0  0  0  0
  -10.4189   21.3834  -31.1974 H   0  0  0  0  0  0  0  0  0  0  0  0
   -8.4320   22.8886  -31.1627 H   0  0  0  0  0  0  0  0  0  0  0  0
   -4.7645   21.0955  -30.9631 H   0  0  0  0  0  0  0  0  0  0  0  0
   -4.2292   21.3500  -32.6652 H   0  0  0  0  0  0  0  0  0  0  0  0
   -2.8972   22.5466  -30.7703 H   0  0  0  0  0  0  0  0  0  0  0  0
   -3.4060   23.5144  -32.2148 H   0  0  0  0  0  0  0  0  0  0  0  0
   -5.7867   23.9043  -28.7956 H   0  0  0  0  0  0  0  0  0  0  0  0
   -5.1429   22.2866  -29.3227 H   0  0  0  0  0  0  0  0  0  0  0  0
   -3.4067   24.4353  -28.0447 H   0  0  0  0  0  0  0  0  0  0  0  0
   -4.2793   23.1293  -27.1145 H   0  0  0  0  0  0  0  0  0  0  0  0
   -2.5987   21.7413  -27.4633 H   0  0  0  0  0  0  0  0  0  0  0  0
   -2.8688   21.9297  -29.2706 H   0  0  0  0  0  0  0  0  0  0  0  0
   -0.4922   22.3317  -28.3375 H   0  0  0  0  0  0  0  0  0  0  0  0
   -1.2264   23.5313  -29.4913 H   0  0  0  0  0  0  0  0  0  0  0  0
   -0.6538   25.1598  -23.5540 H   0  0  0  0  0  0  0  0  0  0  0  0
    1.0176   25.4309  -24.2016 H   0  0  0  0  0  0  0  0  0  0  0  0
    0.0396   27.5690  -23.0374 H   0  0  0  0  0  0  0  0  0  0  0  0
   -0.6173   29.1439  -24.7061 H   0  0  0  0  0  0  0  0  0  0  0  0
   -1.8781   28.1050  -26.6751 H   0  0  0  0  0  0  0  0  0  0  0  0
   -0.1115   28.1445  -27.0796 H   0  0  0  0  0  0  0  0  0  0  0  0
   -6.4031   24.7615  -30.4205 H   0  0  0  0  0  0  0  0  0  0  0  0
   -5.1952   25.5337  -31.5613 H   0  0  0  0  0  0  0  0  0  0  0  0
   -7.2355   24.0149  -32.4409 H   0  0  0  0  0  0  0  0  0  0  0  0
   -5.6191   24.0758  -33.2468 H   0  0  0  0  0  0  0  0  0  0  0  0
  1  2  1  0
  2  3  1  0
  3  4  2  0
  4  5  1  0
  5  6  2  0
  6  7  1  0
  7  8  2  0
  8  9  1  0
  9 10  1  0
 10 11  1  0
 11 12  1  0
 12 13  1  0
 13 14  1  0
 14 15  1  0
 15 16  1  0
 16 17  1  0
 17 18  1  0
 18 19  1  0
 18 20  2  0
 20 21  1  0
 21 22  2  0
 22 23  1  0
 21 24  1  0
 24 25  1  0
 25 26  2  0
 26 27  1  0
 12 28  1  0
 28 29  1  0
  8  3  1  0
 29  9  1  0
 22 17  1  0
 27 20  1  0
  1 30  1  0
  1 31  1  0
  1 32  1  0
  4 33  1  0
  5 34  1  0
  6 35  1  0
  7 36  1  0
 10 37  1  0
 10 38  1  0
 11 39  1  0
 11 40  1  0
 13 41  1  0
 13 42  1  0
 14 43  1  0
 14 44  1  0
 15 45  1  0
 15 46  1  0
 16 47  1  0
 16 48  1  0
 24 49  1  0
 24 50  1  0
 25 51  1  0
 26 52  1  0
 27 53  1  0
 27 54  1  0
 28 55  1  0
 28 56  1  0
 29 57  1  0
 29 58  1  0
M  CHG  2  19  -1  23  -1
M  END
>  <UniqueID>  (3) 
3

>  <SMILES>  (3) 
COc1ccccc1N1CCN(CCCCn2c([O-])c3c(c2[O-])CC=CC3)CC1

>  <Energy>  (3) 
98.24207465481412

>  <Genealogy>  (3) 
COc1ccccc1N1CCN(CCCCn2c([O-])c3c(c2[O-])CC=CC3)CC1 (protonated)
COc1ccccc1N1CCN(CCCCn2c([O-])c3c(c2[O-])CC=CC3)CC1 (3D coordinates assigned)
COc1ccccc1N1CCN(CCCCn2c([O-])c3c(c2[O-])CC=CC3)CC1 (nonaromatic ring conformer: 98.24207465481412 kcal/mol)

>  <smiles>  (3) 
COc1ccccc1N1CCN(CCCCn2c(O)c3c(c2O)CC=CC3)CC1

>  <score_type>  (3) 
oracle

>  <origin>  (3) 
adg

>  <m_score__min__energy>  (3) 
-11.699999999999999

>  <m_primary>  (3) 
energy

$$$$
3:0
     RDKit          3D

 42 44  0  0  0  0  0  0  0  0999 V2000
   -0.8810   21.5450  -26.7530 C   0  0  0  0  0  0  0  0  0  0  0  0
   -1.8470   22.2520  -27.6580 C   0  0  0  0  0  0  0  0  0  0  0  0
   -1.4090   23.3100  -28.4700 C   0  0  0  0  0  0  0  0  0  0  0  0
   -2.3010   23.9450  -29.3410 C   0  0  0  0  0  0  0  0  0  0  0  0
   -3.6340   23.5170  -29.4200 C   0  0  0  0  0  0  0  0  0  0  0  0
   -4.7720   24.3280  -30.4940 S   0  0  0  0  0  0  0  0  0  0  0  0
   -6.0910   24.5150  -29.7970 O   0  0  0  0  0  0  0  0  0  0  0  0
   -4.2200   25.6810  -30.8490 O   0  0  0  0  0  0  0  0  0  0  0  0
   -4.9970   23.3860  -31.9490 N   0  0  0  0  0  0  0  0  0  0  0  0
   -3.9790   22.3160  -32.0140 C   0  0  0  0  0  0  0  0  0  0  0  0
   -4.3700   21.2180  -33.0060 C   0  0  0  0  0  0  0  0  0  0  0  0
   -5.6700   20.6400  -32.6390 N   0  0  0  0  0  0  0  0  0  0  0  0
   -6.0210   19.3040  -33.0620 C   0  0  0  0  0  0  0  0  0  0  0  0
   -6.9390   18.5330  -32.3200 C   0  0  0  0  0  0  0  0  0  0  0  0
   -7.2750   17.2400  -32.7320 C   0  0  0  0  0  0  0  0  0  0  0  0
   -6.7000   16.7000  -33.8850 C   0  0  0  0  0  0  0  0  0  0  0  0
   -5.7890   17.4510  -34.6280 C   0  0  0  0  0  0  0  0  0  0  0  0
   -5.4480   18.7450  -34.2210 C   0  0  0  0  0  0  0  0  0  0  0  0
   -6.5750   21.4200  -31.7860 C   0  0  0  0  0  0  0  0  0  0  0  0
   -6.4020   22.9190  -32.0660 C   0  0  0  0  0  0  0  0  0  0  0  0
   -4.0690   22.4540  -28.6180 C   0  0  0  0  0  0  0  0  0  0  0  0
   -3.1780   21.8190  -27.7480 C   0  0  0  0  0  0  0  0  0  0  0  0
   -1.1497   21.7416  -25.7046 H   0  0  0  0  0  0  0  0  0  0  0  0
   -0.9231   20.4628  -26.9455 H   0  0  0  0  0  0  0  0  0  0  0  0
    0.1378   21.9123  -26.9455 H   0  0  0  0  0  0  0  0  0  0  0  0
   -0.3611   23.6409  -28.4213 H   0  0  0  0  0  0  0  0  0  0  0  0
   -1.9557   24.7822  -29.9654 H   0  0  0  0  0  0  0  0  0  0  0  0
   -3.0207   22.7551  -32.3285 H   0  0  0  0  0  0  0  0  0  0  0  0
   -3.8972   21.8612  -31.0158 H   0  0  0  0  0  0  0  0  0  0  0  0
   -4.4361   21.6482  -34.0162 H   0  0  0  0  0  0  0  0  0  0  0  0
   -3.6067   20.4263  -32.9833 H   0  0  0  0  0  0  0  0  0  0  0  0
   -7.3941   18.9518  -31.4104 H   0  0  0  0  0  0  0  0  0  0  0  0
   -7.9934   16.6468  -32.1472 H   0  0  0  0  0  0  0  0  0  0  0  0
   -6.9657   15.6823  -34.2071 H   0  0  0  0  0  0  0  0  0  0  0  0
   -5.3378   17.0246  -35.5360 H   0  0  0  0  0  0  0  0  0  0  0  0
   -4.7270   19.3305  -34.8104 H   0  0  0  0  0  0  0  0  0  0  0  0
   -7.6146   21.1282  -31.9960 H   0  0  0  0  0  0  0  0  0  0  0  0
   -6.3363   21.2208  -30.7308 H   0  0  0  0  0  0  0  0  0  0  0  0
   -6.7533   23.1250  -33.0879 H   0  0  0  0  0  0  0  0  0  0  0  0
   -6.9865   23.4592  -31.3067 H   0  0  0  0  0  0  0  0  0  0  0  0
   -5.1150   22.1179  -28.6730 H   0  0  0  0  0  0  0  0  0  0  0  0
   -3.5223   20.9758  -27.1311 H   0  0  0  0  0  0  0  0  0  0  0  0
  1  2  1  0
  2  3  2  0
  3  4  1  0
  4  5  2  0
  5  6  1  0
  6  7  2  0
  6  8  2  0
  6  9  1  0
  9 10  1  0
 10 11  1  0
 11 12  1  0
 12 13  1  0
 13 14  2  0
 14 15  1  0
 15 16  2  0
 16 17  1  0
 17 18  2  0
 12 19  1  0
 19 20  1  0
  5 21  1  0
 21 22  2  0
 22  2  1  0
 20  9  1  0
 18 13  1  0
  1 23  1  0
  1 24  1  0
  1 25  1  0
  3 26  1  0
  4 27  1  0
 10 28  1  0
 10 29  1  0
 11 30  1  0
 11 31  1  0
 14 32  1  0
 15 33  1  0
 16 34  1  0
 17 35  1  0
 18 36  1  0
 19 37  1  0
 19 38  1  0
 20 39  1  0
 20 40  1  0
 21 41  1  0
 22 42  1  0
M  END
>  <UniqueID>  (4) 
4

>  <SMILES>  (4) 
Cc1ccc(S(=O)(=O)N2CCN(c3ccccc3)CC2)cc1

>  <Energy>  (4) 
50.9499288001446

>  <Genealogy>  (4) 
Cc1ccc(S(=O)(=O)N2CCN(c3ccccc3)CC2)cc1 (3D coordinates assigned)
Cc1ccc(S(=O)(=O)N2CCN(c3ccccc3)CC2)cc1 (nonaromatic ring conformer: 50.9499288001446 kcal/mol)

>  <smiles>  (4) 
Cc1ccc(S(=O)(=O)N2CCN(c3ccccc3)CC2)cc1

>  <score_type>  (4) 
oracle

>  <origin>  (4) 
adg

>  <m_score__min__energy>  (4) 
-8.6799999999999997

>  <m_primary>  (4) 
energy

$$$$
4:0
     RDKit          3D

 61 64  0  0  0  0  0  0  0  0999 V2000
   -0.2210   20.0440  -31.3310 C   0  0  0  0  0  0  0  0  0  0  0  0
   -1.7230   20.0860  -31.0590 C   0  0  0  0  0  0  0  0  0  0  0  0
   -2.3350   21.3240  -31.5710 N   0  0  0  0  0  0  0  0  0  0  0  0
   -2.5260   21.5500  -33.0150 C   0  0  0  0  0  0  0  0  0  0  0  0
   -2.6920   20.2310  -33.7930 C   0  0  0  0  0  0  0  0  0  0  0  0
   -3.7860   19.4020  -33.2370 N   0  0  0  0  0  0  0  0  0  0  0  0
   -5.1280   19.8210  -33.7270 C   0  0  0  0  0  0  0  0  0  0  0  0
   -5.8230   18.7480  -34.5830 C   0  0  0  0  0  0  0  0  0  0  0  0
   -5.9430   17.4550  -33.8680 N   0  0  0  0  0  0  0  0  0  0  0  0
   -7.2070   17.3730  -33.0990 C   0  0  0  0  0  0  0  0  0  0  0  0
   -7.0950   18.0920  -31.7460 C   0  0  0  0  0  0  0  0  0  0  0  0
   -7.8600   19.3920  -31.7470 C   0  0  0  0  0  0  0  0  0  0  0  0
   -9.1480   19.4630  -32.3040 C   0  0  0  0  0  0  0  0  0  0  0  0
   -9.8410   20.6770  -32.3270 C   0  0  0  0  0  0  0  0  0  0  0  0
   -9.2530   21.8290  -31.7980 C   0  0  0  0  0  0  0  0  0  0  0  0
   -7.9710   21.7680  -31.2440 C   0  0  0  0  0  0  0  0  0  0  0  0
   -7.2750   20.5560  -31.2200 C   0  0  0  0  0  0  0  0  0  0  0  0
   -4.7620   17.1390  -33.0220 C   0  0  0  0  0  0  0  0  0  0  0  0
   -3.5250   17.9550  -33.4150 C   0  0  0  0  0  0  0  0  0  0  0  0
   -2.6320   22.3900  -30.6480 C   0  0  0  0  0  0  0  0  0  0  0  0
   -1.7690   22.6420  -29.5690 C   0  0  0  0  0  0  0  0  0  0  0  0
   -2.0400   23.6740  -28.6660 C   0  0  0  0  0  0  0  0  0  0  0  0
   -3.1780   24.4670  -28.8250 C   0  0  0  0  0  0  0  0  0  0  0  0
   -4.0560   24.2270  -29.8900 C   0  0  0  0  0  0  0  0  0  0  0  0
   -5.2120   25.0010  -30.0610 C   0  0  0  0  0  0  0  0  0  0  0  0
   -6.0770   24.7300  -31.1230 C   0  0  0  0  0  0  0  0  0  0  0  0
   -5.7810   23.6860  -32.0010 C   0  0  0  0  0  0  0  0  0  0  0  0
   -4.6550   22.9450  -31.8250 N   0  0  0  0  0  0  0  0  0  0  0  0
   -3.7850   23.1840  -30.8060 C   0  0  0  0  0  0  0  0  0  0  0  0
    0.3243   20.0288  -30.3758 H   0  0  0  0  0  0  0  0  0  0  0  0
    0.0222   19.1387  -31.9066 H   0  0  0  0  0  0  0  0  0  0  0  0
    0.0724   20.9343  -31.9066 H   0  0  0  0  0  0  0  0  0  0  0  0
   -2.1984   19.2239  -31.5498 H   0  0  0  0  0  0  0  0  0  0  0  0
   -1.8753   20.0531  -29.9701 H   0  0  0  0  0  0  0  0  0  0  0  0
   -3.4272   22.1636  -33.1615 H   0  0  0  0  0  0  0  0  0  0  0  0
   -1.6292   22.0582  -33.3990 H   0  0  0  0  0  0  0  0  0  0  0  0
   -2.9192   20.4630  -34.8440 H   0  0  0  0  0  0  0  0  0  0  0  0
   -1.7540   19.6626  -33.7091 H   0  0  0  0  0  0  0  0  0  0  0  0
   -5.7647   20.0409  -32.8574 H   0  0  0  0  0  0  0  0  0  0  0  0
   -4.9815   20.7044  -34.3659 H   0  0  0  0  0  0  0  0  0  0  0  0
   -6.8305   19.1023  -34.8465 H   0  0  0  0  0  0  0  0  0  0  0  0
   -5.2102   18.5824  -35.4814 H   0  0  0  0  0  0  0  0  0  0  0  0
   -8.0122   17.8396  -33.6854 H   0  0  0  0  0  0  0  0  0  0  0  0
   -7.4241   16.3118  -32.9071 H   0  0  0  0  0  0  0  0  0  0  0  0
   -7.5007   17.4389  -30.9593 H   0  0  0  0  0  0  0  0  0  0  0  0
   -6.0341   18.3155  -31.5602 H   0  0  0  0  0  0  0  0  0  0  0  0
   -9.6133   18.5591  -32.7240 H   0  0  0  0  0  0  0  0  0  0  0  0
  -10.8502   20.7254  -32.7620 H   0  0  0  0  0  0  0  0  0  0  0  0
   -9.7989   22.7838  -31.8175 H   0  0  0  0  0  0  0  0  0  0  0  0
   -7.5093   22.6749  -30.8264 H   0  0  0  0  0  0  0  0  0  0  0  0
   -6.2649   20.5132  -30.7867 H   0  0  0  0  0  0  0  0  0  0  0  0
   -5.0105   17.3576  -31.9730 H   0  0  0  0  0  0  0  0  0  0  0  0
   -4.5214   16.0754  -33.1666 H   0  0  0  0  0  0  0  0  0  0  0  0
   -2.6776   17.6582  -32.7795 H   0  0  0  0  0  0  0  0  0  0  0  0
   -3.2894   17.7612  -34.4719 H   0  0  0  0  0  0  0  0  0  0  0  0
   -0.8711   22.0212  -29.4332 H   0  0  0  0  0  0  0  0  0  0  0  0
   -1.3540   23.8620  -27.8269 H   0  0  0  0  0  0  0  0  0  0  0  0
   -3.3853   25.2803  -28.1140 H   0  0  0  0  0  0  0  0  0  0  0  0
   -5.4370   25.8191  -29.3609 H   0  0  0  0  0  0  0  0  0  0  0  0
   -6.9847   25.3345  -31.2667 H   0  0  0  0  0  0  0  0  0  0  0  0
   -6.4602   23.4625  -32.8369 H   0  0  0  0  0  0  0  0  0  0  0  0
  1  2  1  0
  2  3  1  0
  3  4  1  0
  4  5  1  0
  5  6  1  0
  6  7  1  0
  7  8  1  0
  8  9  1  0
  9 10  1  0
 10 11  1  0
 11 12  1  0
 12 13  2  0
 13 14  1  0
 14 15  2  0
 15 16  1  0
 16 17  2  0
  9 18  1  0
 18 19  1  0
  3 20  1  0
 20 21  2  0
 21 22  1  0
 22 23  2  0
 23 24  1  0
 24 25  2  0
 25 26  1  0
 26 27  2  0
 27 28  1  0
 28 29  2  0
 19  6  1  0
 29 20  1  0
 17 12  1  0
 29 24  1  0
  1 30  1  0
  1 31  1  0
  1 32  1  0
  2 33  1  0
  2 34  1  0
  4 35  1  0
  4 36  1  0
  5 37  1  0
  5 38  1  0
  7 39  1  0
  7 40  1  0
  8 41  1  0
  8 42  1  0
 10 43  1  0
 10 44  1  0
 11 45  1  0
 11 46  1  0
 13 47  1  0
 14 48  1  0
 15 49  1  0
 16 50  1  0
 17 51  1  0
 18 52  1  0
 18 53  1  0
 19 54  1  0
 19 55  1  0
 21 56  1  0
 22 57  1  0
 23 58  1  0
 25 59  1  0
 26 60  1  0
 27 61  1  0
M  END
>  <UniqueID>  (5) 
5

>  <SMILES>  (5) 
CCN(CCN1CCN(CCc2ccccc2)CC1)c1cccc2cccnc12

>  <Energy>  (5) 
82.42858247159722

>  <Genealogy>  (5) 
CCN(CCN1CCN(CCc2ccccc2)CC1)c1cccc2cccnc12 (3D coordinates assigned)
CCN(CCN1CCN(CCc2ccccc2)CC1)c1cccc2cccnc12 (nonaromatic ring conformer: 82.42858247159722 kcal/mol)

>  <smiles>  (5) 
CCN(CCN1CCN(CCc2ccccc2)CC1)c1cccc2cccnc12

>  <score_type>  (5) 
oracle

>  <origin>  (5) 
adg

>  <m_score__min__energy>  (5) 
-9.2100000000000009

>  <m_primary>  (5) 
energy

$$$$
5:0
     RDKit          3D

 55 57  0  0  0  0  0  0  0  0999 V2000
   -1.3230   22.3180  -30.1090 C   0  0  0  0  0  0  0  0  0  0  0  0
   -2.6400   22.1190  -29.3680 C   0  0  0  0  0  0  0  0  0  0  0  0
   -3.2500   23.3760  -29.0800 O   0  0  0  0  0  0  0  0  0  0  0  0
   -3.9800   24.1150  -30.0200 C   0  0  0  0  0  0  0  0  0  0  0  0
   -3.5030   25.1900  -30.4800 O   0  0  0  0  0  0  0  0  0  0  0  0
   -5.3180   23.6480  -30.4690 C   0  0  0  0  0  0  0  0  0  0  0  0
   -5.4800   22.3350  -30.9430 C   0  0  0  0  0  0  0  0  0  0  0  0
   -6.7380   21.8940  -31.3640 C   0  0  0  0  0  0  0  0  0  0  0  0
   -6.9340   20.5900  -31.8420 C   0  0  0  0  0  0  0  0  0  0  0  0
   -8.2140   20.1720  -32.2610 C   0  0  0  0  0  0  0  0  0  0  0  0
   -8.4530   18.8410  -32.7570 N   0  0  0  0  0  0  0  0  0  0  0  0
   -7.6170   17.6910  -32.4050 C   0  0  0  0  0  0  0  0  0  0  0  0
   -6.8240   17.1910  -33.6220 C   0  0  0  0  0  0  0  0  0  0  0  0
   -5.6630   18.0600  -33.9260 N   0  0  0  0  0  0  0  0  0  0  0  0
   -4.9210   17.6850  -35.1610 C   0  0  0  0  0  0  0  0  0  0  0  0
   -3.9370   16.5170  -34.9940 C   0  0  0  0  0  0  0  0  0  0  0  0
   -4.7830   18.1980  -32.7440 C   0  0  0  0  0  0  0  0  0  0  0  0
   -3.7170   19.2360  -32.9800 C   0  0  0  0  0  0  0  0  0  0  0  0
   -2.3610   18.8640  -32.9720 C   0  0  0  0  0  0  0  0  0  0  0  0
   -1.3670   19.8260  -33.1760 C   0  0  0  0  0  0  0  0  0  0  0  0
   -1.7180   21.1620  -33.3880 C   0  0  0  0  0  0  0  0  0  0  0  0
   -3.0640   21.5390  -33.3950 C   0  0  0  0  0  0  0  0  0  0  0  0
   -4.0620   20.5810  -33.1910 C   0  0  0  0  0  0  0  0  0  0  0  0
   -9.2850   21.0800  -32.1930 C   0  0  0  0  0  0  0  0  0  0  0  0
   -9.0890   22.3800  -31.7160 C   0  0  0  0  0  0  0  0  0  0  0  0
   -7.8200   22.7910  -31.3020 C   0  0  0  0  0  0  0  0  0  0  0  0
   -7.6390   24.0280  -30.8490 O   0  0  0  0  0  0  0  0  0  0  0  0
   -6.4580   24.4820  -30.4390 C   0  0  0  0  0  0  0  0  0  0  0  0
   -6.3800   25.6690  -30.0250 O   0  0  0  0  0  0  0  0  0  0  0  0
   -0.5076   22.4412  -29.3810 H   0  0  0  0  0  0  0  0  0  0  0  0
   -1.1213   21.4401  -30.7404 H   0  0  0  0  0  0  0  0  0  0  0  0
   -1.3896   23.2163  -30.7404 H   0  0  0  0  0  0  0  0  0  0  0  0
   -3.3200   21.5223  -29.9937 H   0  0  0  0  0  0  0  0  0  0  0  0
   -2.4381   21.5979  -28.4205 H   0  0  0  0  0  0  0  0  0  0  0  0
   -4.6169   21.6542  -30.9828 H   0  0  0  0  0  0  0  0  0  0  0  0
   -6.0862   19.8908  -31.8902 H   0  0  0  0  0  0  0  0  0  0  0  0
   -9.2600   18.6980  -33.4070 H   0  0  0  0  0  0  0  0  0  0  0  0
   -6.9123   17.9877  -31.6142 H   0  0  0  0  0  0  0  0  0  0  0  0
   -8.2703   16.8779  -32.0554 H   0  0  0  0  0  0  0  0  0  0  0  0
   -6.4609   16.1735  -33.4151 H   0  0  0  0  0  0  0  0  0  0  0  0
   -7.4954   17.2057  -34.4932 H   0  0  0  0  0  0  0  0  0  0  0  0
   -5.6562   17.4053  -35.9299 H   0  0  0  0  0  0  0  0  0  0  0  0
   -4.3160   18.5616  -35.4360 H   0  0  0  0  0  0  0  0  0  0  0  0
   -3.7748   16.3245  -33.9232 H   0  0  0  0  0  0  0  0  0  0  0  0
   -4.3527   15.6165  -35.4696 H   0  0  0  0  0  0  0  0  0  0  0  0
   -2.9790   16.7738  -35.4696 H   0  0  0  0  0  0  0  0  0  0  0  0
   -5.3902   18.4973  -31.8770 H   0  0  0  0  0  0  0  0  0  0  0  0
   -4.2937   17.2306  -32.5578 H   0  0  0  0  0  0  0  0  0  0  0  0
   -2.0814   17.8133  -32.8048 H   0  0  0  0  0  0  0  0  0  0  0  0
   -0.3074   19.5308  -33.1696 H   0  0  0  0  0  0  0  0  0  0  0  0
   -0.9347   21.9172  -33.5494 H   0  0  0  0  0  0  0  0  0  0  0  0
   -3.3386   22.5911  -33.5613 H   0  0  0  0  0  0  0  0  0  0  0  0
   -5.1201   20.8816  -33.1958 H   0  0  0  0  0  0  0  0  0  0  0  0
  -10.2874   20.7648  -32.5183 H   0  0  0  0  0  0  0  0  0  0  0  0
   -9.9360   23.0802  -31.6668 H   0  0  0  0  0  0  0  0  0  0  0  0
  1  2  1  0
  2  3  1  0
  3  4  1  0
  4  5  2  0
  4  6  1  0
  6  7  2  0
  7  8  1  0
  8  9  2  0
  9 10  1  0
 10 11  1  0
 11 12  1  0
 12 13  1  0
 13 14  1  0
 14 15  1  0
 15 16  1  0
 14 17  1  0
 17 18  1  0
 18 19  2  0
 19 20  1  0
 20 21  2  0
 21 22  1  0
 22 23  2  0
 10 24  2  0
 24 25  1  0
 25 26  2  0
 26 27  1  0
 27 28  1  0
 28 29  2  0
 28  6  1  0
 26  8  1  0
 23 18  1  0
  1 30  1  0
  1 31  1  0
  1 32  1  0
  2 33  1  0
  2 34  1  0
  7 35  1  0
  9 36  1  0
 11 37  1  0
 12 38  1  0
 12 39  1  0
 13 40  1  0
 13 41  1  0
 15 42  1  0
 15 43  1  0
 16 44  1  0
 16 45  1  0
 16 46  1  0
 17 47  1  0
 17 48  1  0
 19 49  1  0
 20 50  1  0
 21 51  1  0
 22 52  1  0
 23 53  1  0
 24 54  1  0
 25 55  1  0
M  END
>  <UniqueID>  (6) 
6

>  <SMILES>  (6) 
CCOC(=O)c1cc2cc(NCCN(CC)Cc3ccccc3)ccc2oc1=O

>  <Energy>  (6) 
61.31266434120961

>  <Genealogy>  (6) 
CCOC(=O)c1cc2cc(NCCN(CC)Cc3ccccc3)ccc2oc1=O (3D coordinates assigned)
CCOC(=O)c1cc2cc(NCCN(CC)Cc3ccccc3)ccc2oc1=O (optimized conformer: 61.31266434120961 kcal/mol)

>  <smiles>  (6) 
CCOC(=O)c1cc2cc(NCCN(CC)Cc3ccccc3)ccc2oc1=O

>  <score_type>  (6) 
oracle

>  <origin>  (6) 
adg

>  <m_score__min__energy>  (6) 
-8.8300000000000001

>  <m_primary>  (6) 
energy

$$$$
6:0
     RDKit          3D

 45 45  0  0  0  0  0  0  0  0999 V2000
   -2.5580   18.7220  -33.8070 C   0  0  0  0  0  0  0  0  0  0  0  0
   -1.6190   19.9170  -33.9600 C   0  0  0  0  0  0  0  0  0  0  0  0
   -2.3640   21.1820  -33.8770 N   0  0  0  0  0  0  0  0  0  0  0  0
   -2.9070   21.3580  -32.5540 C   0  0  0  0  0  0  0  0  0  0  0  0
   -1.8930   21.5520  -31.2740 S   0  0  0  0  0  0  0  0  0  0  0  0
   -4.3320   21.3430  -32.3390 N   0  0  0  0  0  0  0  0  0  0  0  0
   -4.9150   22.0370  -31.1810 C   0  0  0  0  0  0  0  0  0  0  0  0
   -5.3490   23.4640  -31.5740 C   0  0  0  0  0  0  0  0  0  0  0  0
   -4.6170   24.5440  -30.8690 N   0  0  0  0  0  0  0  0  0  0  0  0
   -5.4540   25.6660  -30.3900 C   0  0  0  0  0  0  0  0  0  0  0  0
   -6.7670   25.1650  -29.7910 C   0  0  0  0  0  0  0  0  0  0  0  0
   -3.5710   24.0750  -29.9280 C   0  0  0  0  0  0  0  0  0  0  0  0
   -3.9800   24.1150  -28.4540 C   0  0  0  0  0  0  0  0  0  0  0  0
   -5.2190   20.8100  -33.3800 C   0  0  0  0  0  0  0  0  0  0  0  0
   -6.4000   20.1390  -32.7540 C   0  0  0  0  0  0  0  0  0  0  0  0
   -7.6010   20.7530  -32.4240 C   0  0  0  0  0  0  0  0  0  0  0  0
   -8.5040   19.8910  -31.7920 C   0  0  0  0  0  0  0  0  0  0  0  0
   -8.0130   18.6030  -31.6130 C   0  0  0  0  0  0  0  0  0  0  0  0
   -6.4540   18.5380  -32.2420 S   0  0  0  0  0  0  0  0  0  0  0  0
   -2.7192   18.5168  -32.7384 H   0  0  0  0  0  0  0  0  0  0  0  0
   -3.5217   18.9492  -34.2862 H   0  0  0  0  0  0  0  0  0  0  0  0
   -2.1093   17.8394  -34.2862 H   0  0  0  0  0  0  0  0  0  0  0  0
   -0.8662   19.8888  -33.1584 H   0  0  0  0  0  0  0  0  0  0  0  0
   -1.1327   19.8588  -34.9450 H   0  0  0  0  0  0  0  0  0  0  0  0
   -3.1370   21.1640  -34.5810 H   0  0  0  0  0  0  0  0  0  0  0  0
   -1.7310   21.9860  -34.0970 H   0  0  0  0  0  0  0  0  0  0  0  0
   -5.7920   21.4760  -30.8257 H   0  0  0  0  0  0  0  0  0  0  0  0
   -4.1593   22.0999  -30.3842 H   0  0  0  0  0  0  0  0  0  0  0  0
   -5.1866   23.5874  -32.6549 H   0  0  0  0  0  0  0  0  0  0  0  0
   -6.4059   23.5611  -31.2848 H   0  0  0  0  0  0  0  0  0  0  0  0
   -4.8993   26.2235  -29.6209 H   0  0  0  0  0  0  0  0  0  0  0  0
   -5.6892   26.3135  -31.2476 H   0  0  0  0  0  0  0  0  0  0  0  0
   -6.7022   25.1897  -28.6932 H   0  0  0  0  0  0  0  0  0  0  0  0
   -7.5923   25.8114  -30.1243 H   0  0  0  0  0  0  0  0  0  0  0  0
   -6.9519   24.1331  -30.1243 H   0  0  0  0  0  0  0  0  0  0  0  0
   -3.3172   23.0363  -30.1862 H   0  0  0  0  0  0  0  0  0  0  0  0
   -2.7209   24.7647  -30.0358 H   0  0  0  0  0  0  0  0  0  0  0  0
   -3.0838   24.0273  -27.8223 H   0  0  0  0  0  0  0  0  0  0  0  0
   -4.4877   25.0671  -28.2401 H   0  0  0  0  0  0  0  0  0  0  0  0
   -4.6625   23.2793  -28.2401 H   0  0  0  0  0  0  0  0  0  0  0  0
   -5.5659   21.6348  -34.0199 H   0  0  0  0  0  0  0  0  0  0  0  0
   -4.6655   20.0757  -33.9837 H   0  0  0  0  0  0  0  0  0  0  0  0
   -7.8202   21.8095  -32.6377 H   0  0  0  0  0  0  0  0  0  0  0  0
   -9.5076   20.2031  -31.4675 H   0  0  0  0  0  0  0  0  0  0  0  0
   -8.5519   17.7685  -31.1406 H   0  0  0  0  0  0  0  0  0  0  0  0
  1  2  1  0
  2  3  1  0
  3  4  1  0
  4  5  2  0
  4  6  1  0
  6  7  1  0
  7  8  1  0
  8  9  1  0
  9 10  1  0
 10 11  1  0
  9 12  1  0
 12 13  1  0
  6 14  1  0
 14 15  1  0
 15 16  2  0
 16 17  1  0
 17 18  2  0
 18 19  1  0
 19 15  1  0
  1 20  1  0
  1 21  1  0
  1 22  1  0
  2 23  1  0
  2 24  1  0
  3 25  1  0
  3 26  1  0
  7 27  1  0
  7 28  1  0
  8 29  1  0
  8 30  1  0
 10 31  1  0
 10 32  1  0
 11 33  1  0
 11 34  1  0
 11 35  1  0
 12 36  1  0
 12 37  1  0
 13 38  1  0
 13 39  1  0
 13 40  1  0
 14 41  1  0
 14 42  1  0
 16 43  1  0
 17 44  1  0
 18 45  1  0
M  CHG  1   3   1
M  END
>  <UniqueID>  (7) 
7

>  <SMILES>  (7) 
CC[NH2+]C(=S)N(CCN(CC)CC)Cc1cccs1

>  <Energy>  (7) 
70.04488678725254

>  <Genealogy>  (7) 
CC[NH2+]C(=S)N(CCN(CC)CC)Cc1cccs1 (protonated)
CC[NH2+]C(=S)N(CCN(CC)CC)Cc1cccs1 (3D coordinates assigned)
CC[NH2+]C(=S)N(CCN(CC)CC)Cc1cccs1 (optimized conformer: 70.04488678725254 kcal/mol)

>  <smiles>  (7) 
CCNC(=S)N(CCN(CC)CC)Cc1cccs1

>  <score_type>  (7) 
oracle

>  <origin>  (7) 
adg

>  <m_score__min__energy>  (7) 
-6.2400000000000002

>  <m_primary>  (7) 
energy

$$$$
7:0
     RDKit          3D

 46 49  0  0  0  0  0  0  0  0999 V2000
   -5.9981   24.0172  -33.2754 H   0  0  0  0  0  0  0  0  0  0  0  0
   -6.0090   23.4150  -32.3550 C   0  0  0  0  0  0  0  0  0  0  0  0
   -5.9780   24.0390  -31.2120 N   0  0  0  0  0  0  0  0  0  0  0  0
   -5.0150   23.8710  -30.1570 C   0  0  0  0  0  0  0  0  0  0  0  0
   -5.2340   22.9750  -29.0970 C   0  0  0  0  0  0  0  0  0  0  0  0
   -6.1559   22.3757  -29.0663 H   0  0  0  0  0  0  0  0  0  0  0  0
   -4.2840   22.8440  -28.0830 C   0  0  0  0  0  0  0  0  0  0  0  0
   -4.4499   22.1264  -27.2659 H   0  0  0  0  0  0  0  0  0  0  0  0
   -3.1230   23.6210  -28.1020 C   0  0  0  0  0  0  0  0  0  0  0  0
   -2.3732   23.5074  -27.3052 H   0  0  0  0  0  0  0  0  0  0  0  0
   -2.9110   24.5490  -29.1390 C   0  0  0  0  0  0  0  0  0  0  0  0
   -1.7680   25.3620  -29.1990 O   0  0  0  0  0  0  0  0  0  0  0  0
   -0.8560   25.5460  -28.1210 C   0  0  0  0  0  0  0  0  0  0  0  0
   -1.3908   25.4381  -27.1658 H   0  0  0  0  0  0  0  0  0  0  0  0
   -0.0587   24.7906  -28.1822 H   0  0  0  0  0  0  0  0  0  0  0  0
   -0.4140   26.5514  -28.1822 H   0  0  0  0  0  0  0  0  0  0  0  0
   -3.8680   24.6740  -30.1520 C   0  0  0  0  0  0  0  0  0  0  0  0
   -3.7175   25.4118  -30.9539 H   0  0  0  0  0  0  0  0  0  0  0  0
   -6.0580   21.9440  -32.4850 C   0  0  0  0  0  0  0  0  0  0  0  0
   -4.9850   21.1000  -32.7720 C   0  0  0  0  0  0  0  0  0  0  0  0
   -3.5880   21.5650  -33.0950 C   0  0  0  0  0  0  0  0  0  0  0  0
   -3.2570   21.0737  -34.0218 H   0  0  0  0  0  0  0  0  0  0  0  0
   -3.6149   22.6589  -33.2079 H   0  0  0  0  0  0  0  0  0  0  0  0
   -2.6070   21.2380  -31.9950 C   0  0  0  0  0  0  0  0  0  0  0  0
   -3.0830   21.0870  -30.6800 C   0  0  0  0  0  0  0  0  0  0  0  0
   -4.1527   21.2299  -30.4672 H   0  0  0  0  0  0  0  0  0  0  0  0
   -2.2080   20.7570  -29.6420 C   0  0  0  0  0  0  0  0  0  0  0  0
   -2.5888   20.6499  -28.6156 H   0  0  0  0  0  0  0  0  0  0  0  0
   -0.8510   20.5630  -29.9060 C   0  0  0  0  0  0  0  0  0  0  0  0
    0.3430   20.1080  -28.4850 Br  0  0  0  0  0  0  0  0  0  0  0  0
   -0.3660   20.6940  -31.2100 C   0  0  0  0  0  0  0  0  0  0  0  0
    0.7033   20.5365  -31.4147 H   0  0  0  0  0  0  0  0  0  0  0  0
   -1.2350   21.0250  -32.2580 C   0  0  0  0  0  0  0  0  0  0  0  0
   -0.5000   21.1400  -34.0280 Br  0  0  0  0  0  0  0  0  0  0  0  0
   -5.4070   19.8130  -32.8550 N   0  0  0  0  0  0  0  0  0  0  0  0
   -4.8380   18.9690  -33.0850 H   0  0  0  0  0  0  0  0  0  0  0  0
   -6.7220   19.8360  -32.5830 C   0  0  0  0  0  0  0  0  0  0  0  0
   -7.5890   18.7450  -32.5290 C   0  0  0  0  0  0  0  0  0  0  0  0
   -7.2303   17.7251  -32.7320 H   0  0  0  0  0  0  0  0  0  0  0  0
   -8.9360   18.9890  -32.2070 C   0  0  0  0  0  0  0  0  0  0  0  0
   -9.6476   18.1514  -32.1620 H   0  0  0  0  0  0  0  0  0  0  0  0
   -9.3810   20.3030  -31.9410 C   0  0  0  0  0  0  0  0  0  0  0  0
  -10.4357   20.4813  -31.6845 H   0  0  0  0  0  0  0  0  0  0  0  0
   -8.4840   21.3850  -32.0020 C   0  0  0  0  0  0  0  0  0  0  0  0
   -8.8174   22.4112  -31.7880 H   0  0  0  0  0  0  0  0  0  0  0  0
   -7.1560   21.1150  -32.3430 C   0  0  0  0  0  0  0  0  0  0  0  0
  1  2  1  0
  2  3  2  0
  3  4  1  0
  4  5  2  0
  5  6  1  0
  5  7  1  0
  7  8  1  0
  7  9  2  0
  9 10  1  0
  9 11  1  0
 11 12  1  0
 12 13  1  0
 13 14  1  0
 13 15  1  0
 13 16  1  0
 11 17  2  0
 17 18  1  0
  2 19  1  0
 19 20  2  0
 20 21  1  0
 21 22  1  0
 21 23  1  0
 21 24  1  0
 24 25  2  0
 25 26  1  0
 25 27  1  0
 27 28  1  0
 27 29  2  0
 29 30  1  0
 29 31  1  0
 31 32  1  0
 31 33  2  0
 33 34  1  0
 20 35  1  0
 35 36  1  0
 35 37  1  0
 37 38  2  0
 38 39  1  0
 38 40  1  0
 40 41  1  0
 40 42  2  0
 42 43  1  0
 42 44  1  0
 44 45  1  0
 44 46  2  0
 17  4  1  0
 46 19  1  0
 33 24  1  0
 46 37  1  0
M  END
>  <UniqueID>  (8) 
8

>  <SMILES>  (8) 
COc1cccc(/N=C\c2c(Cc3ccc(Br)cc3Br)[nH]c3ccccc23)c1

>  <Energy>  (8) 
93.96039066807474

>  <Genealogy>  (8) 
COc1cccc(/N=C\c2c(Cc3ccc(Br)cc3Br)[nH]c3ccccc23)c1 (cis-trans isomerization)
COc1cccc(/N=C\c2c(Cc3ccc(Br)cc3Br)[nH]c3ccccc23)c1 (3D coordinates assigned)
COc1cccc(/N=C\c2c(Cc3ccc(Br)cc3Br)[nH]c3ccccc23)c1 (optimized conformer: 93.96039066807474 kcal/mol)

>  <smiles>  (8) 
COc1cccc(N=Cc2c(Cc3ccc(Br)cc3Br)[nH]c3ccccc23)c1

>  <score_type>  (8) 
oracle

>  <origin>  (8) 
adg

>  <m_score__min__energy>  (8) 
-10.199999999999999

>  <m_primary>  (8) 
energy

$$$$
8:0
     RDKit          3D

 56 60  0  0  0  0  0  0  0  0999 V2000
    1.2490   25.4340  -36.4120 C   0  0  0  0  0  0  0  0  0  0  0  0
    1.7820   24.1580  -36.7520 O   0  0  0  0  0  0  0  0  0  0  0  0
    1.5270   22.9770  -36.0390 C   0  0  0  0  0  0  0  0  0  0  0  0
    2.5180   22.3210  -35.2850 C   0  0  0  0  0  0  0  0  0  0  0  0
    2.2120   21.1490  -34.5870 C   0  0  0  0  0  0  0  0  0  0  0  0
    0.9080   20.6290  -34.6060 C   0  0  0  0  0  0  0  0  0  0  0  0
    0.5890   19.3390  -33.8850 C   0  0  0  0  0  0  0  0  0  0  0  0
   -0.1180   19.4920  -32.5850 N   0  0  0  0  0  0  0  0  0  0  0  0
   -1.3120   18.6230  -32.4170 C   0  0  0  0  0  0  0  0  0  0  0  0
   -2.6340   19.2710  -32.8490 C   0  0  0  0  0  0  0  0  0  0  0  0
   -2.7400   20.6190  -32.2970 N   0  0  0  0  0  0  0  0  0  0  0  0
   -4.0110   21.1410  -31.8610 C   0  0  0  0  0  0  0  0  0  0  0  0
   -5.1090   20.6270  -32.3550 N   0  0  0  0  0  0  0  0  0  0  0  0
   -6.4650   20.9830  -32.0330 C   0  0  0  0  0  0  0  0  0  0  0  0
   -7.3970   19.9590  -31.8240 C   0  0  0  0  0  0  0  0  0  0  0  0
   -8.7160   20.2640  -31.4740 C   0  0  0  0  0  0  0  0  0  0  0  0
   -9.1160   21.5960  -31.3450 C   0  0  0  0  0  0  0  0  0  0  0  0
   -8.2040   22.6270  -31.5860 C   0  0  0  0  0  0  0  0  0  0  0  0
   -6.8870   22.3260  -31.9530 C   0  0  0  0  0  0  0  0  0  0  0  0
   -5.7570   23.6560  -32.3460 S   0  0  0  0  0  0  0  0  0  0  0  0
   -4.8200   23.3190  -30.8610 C   0  0  0  0  0  0  0  0  0  0  0  0
   -4.8670   24.2230  -29.7940 C   0  0  0  0  0  0  0  0  0  0  0  0
   -4.1120   23.9860  -28.6430 C   0  0  0  0  0  0  0  0  0  0  0  0
   -3.3100   22.8460  -28.5540 C   0  0  0  0  0  0  0  0  0  0  0  0
   -3.2730   21.9310  -29.6110 C   0  0  0  0  0  0  0  0  0  0  0  0
   -4.0400   22.1500  -30.7680 C   0  0  0  0  0  0  0  0  0  0  0  0
   -1.6290   21.5260  -32.5780 C   0  0  0  0  0  0  0  0  0  0  0  0
   -0.3050   20.8950  -32.1360 C   0  0  0  0  0  0  0  0  0  0  0  0
   -0.0680   21.2630  -35.3910 C   0  0  0  0  0  0  0  0  0  0  0  0
    0.2390   22.4340  -36.0900 C   0  0  0  0  0  0  0  0  0  0  0  0
    1.2072   25.5341  -35.3174 H   0  0  0  0  0  0  0  0  0  0  0  0
    1.8928   26.2230  -36.8280 H   0  0  0  0  0  0  0  0  0  0  0  0
    0.2353   25.5306  -36.8280 H   0  0  0  0  0  0  0  0  0  0  0  0
    3.5375   22.7322  -35.2448 H   0  0  0  0  0  0  0  0  0  0  0  0
    2.9984   20.6306  -34.0189 H   0  0  0  0  0  0  0  0  0  0  0  0
   -0.0441   18.7287  -34.5458 H   0  0  0  0  0  0  0  0  0  0  0  0
    1.5586   18.8758  -33.6498 H   0  0  0  0  0  0  0  0  0  0  0  0
    0.5770   19.0990  -31.9040 H   0  0  0  0  0  0  0  0  0  0  0  0
   -1.1626   17.7134  -33.0172 H   0  0  0  0  0  0  0  0  0  0  0  0
   -1.4009   18.4168  -31.3402 H   0  0  0  0  0  0  0  0  0  0  0  0
   -2.6706   19.3243  -33.9471 H   0  0  0  0  0  0  0  0  0  0  0  0
   -3.4706   18.6632  -32.4740 H   0  0  0  0  0  0  0  0  0  0  0  0
   -7.0898   18.9087  -31.9358 H   0  0  0  0  0  0  0  0  0  0  0  0
   -9.4395   19.4539  -31.3000 H   0  0  0  0  0  0  0  0  0  0  0  0
  -10.1497   21.8336  -31.0535 H   0  0  0  0  0  0  0  0  0  0  0  0
   -8.5211   23.6757  -31.4873 H   0  0  0  0  0  0  0  0  0  0  0  0
   -5.4989   25.1208  -29.8617 H   0  0  0  0  0  0  0  0  0  0  0  0
   -4.1491   24.6982  -27.8055 H   0  0  0  0  0  0  0  0  0  0  0  0
   -2.7068   22.6677  -27.6516 H   0  0  0  0  0  0  0  0  0  0  0  0
   -2.6398   21.0346  -29.5363 H   0  0  0  0  0  0  0  0  0  0  0  0
   -1.5912   21.7303  -33.6582 H   0  0  0  0  0  0  0  0  0  0  0  0
   -1.7823   22.4634  -32.0232 H   0  0  0  0  0  0  0  0  0  0  0  0
    0.5183   21.5000  -32.5437 H   0  0  0  0  0  0  0  0  0  0  0  0
   -0.3165   20.8754  -31.0362 H   0  0  0  0  0  0  0  0  0  0  0  0
   -1.0797   20.8361  -35.4564 H   0  0  0  0  0  0  0  0  0  0  0  0
   -0.5396   22.9330  -36.6857 H   0  0  0  0  0  0  0  0  0  0  0  0
  1  2  1  0
  2  3  1  0
  3  4  2  0
  4  5  1  0
  5  6  2  0
  6  7  1  0
  7  8  1  0
  8  9  1  0
  9 10  1  0
 10 11  1  0
 11 12  1  0
 12 13  2  0
 13 14  1  0
 14 15  2  0
 15 16  1  0
 16 17  2  0
 17 18  1  0
 18 19  2  0
 19 20  1  0
 20 21  1  0
 21 22  2  0
 22 23  1  0
 23 24  2  0
 24 25  1  0
 25 26  2  0
 11 27  1  0
 27 28  1  0
  6 29  1  0
 29 30  2  0
 30  3  1  0
 28  8  1  0
 26 12  1  0
 19 14  1  0
 26 21  1  0
  1 31  1  0
  1 32  1  0
  1 33  1  0
  4 34  1  0
  5 35  1  0
  7 36  1  0
  7 37  1  0
  8 38  1  0
  9 39  1  0
  9 40  1  0
 10 41  1  0
 10 42  1  0
 15 43  1  0
 16 44  1  0
 17 45  1  0
 18 46  1  0
 22 47  1  0
 23 48  1  0
 24 49  1  0
 25 50  1  0
 27 51  1  0
 27 52  1  0
 28 53  1  0
 28 54  1  0
 29 55  1  0
 30 56  1  0
M  CHG  1   8   1
M  END
>  <UniqueID>  (9) 
9

>  <SMILES>  (9) 
COc1ccc(C[NH+]2CCN(C3=Nc4ccccc4Sc4ccccc43)CC2)cc1

>  <Energy>  (9) 
87.14286395884913

>  <Genealogy>  (9) 
COc1ccc(C[NH+]2CCN(C3=Nc4ccccc4Sc4ccccc43)CC2)cc1 (protonated)
COc1ccc(C[NH+]2CCN(C3=Nc4ccccc4Sc4ccccc43)CC2)cc1 (3D coordinates assigned)
COc1ccc(C[NH+]2CCN(C3=Nc4ccccc4Sc4ccccc43)CC2)cc1 (nonaromatic ring conformer: 87.14286395884913 kcal/mol)

>  <smiles>  (9) 
COc1ccc(CN2CCN(C3=Nc4ccccc4Sc4ccccc43)CC2)cc1

>  <score_type>  (9) 
oracle

>  <origin>  (9) 
adg

>  <m_score__min__energy>  (9) 
-8.9000000000000004

>  <m_primary>  (9) 
energy

$$$$
9:0
     RDKit          3D

 49 52  0  0  0  0  0  0  0  0999 V2000
   -3.8810   24.3390  -27.2010 C   0  0  0  0  0  0  0  0  0  0  0  0
   -4.2040   23.2850  -28.2610 C   0  0  0  0  0  0  0  0  0  0  0  0
   -5.3320   23.7070  -29.2120 C   0  0  0  0  0  0  0  0  0  0  0  0
   -4.7330   24.2480  -30.8120 S   0  0  0  0  0  0  0  0  0  0  0  0
   -4.2300   25.6610  -30.7290 O   0  0  0  0  0  0  0  0  0  0  0  0
   -3.6010   23.3660  -31.2600 O   0  0  0  0  0  0  0  0  0  0  0  0
   -6.0190   24.1470  -31.9730 N   0  0  0  0  0  0  0  0  0  0  0  0
   -6.9700   23.0760  -32.0740 C   0  0  0  0  0  0  0  0  0  0  0  0
   -8.3240   23.3640  -31.8730 C   0  0  0  0  0  0  0  0  0  0  0  0
   -9.2810   22.3490  -31.9400 C   0  0  0  0  0  0  0  0  0  0  0  0
   -8.8960   21.0320  -32.1990 C   0  0  0  0  0  0  0  0  0  0  0  0
   -9.8480   20.0680  -32.2610 F   0  0  0  0  0  0  0  0  0  0  0  0
   -7.5390   20.7200  -32.4110 C   0  0  0  0  0  0  0  0  0  0  0  0
   -7.1100   19.3180  -32.6380 C   0  0  0  0  0  0  0  0  0  0  0  0
   -7.7900   18.3720  -32.1570 O   0  0  0  0  0  0  0  0  0  0  0  0
   -5.8700   18.9950  -33.3670 C   0  0  0  0  0  0  0  0  0  0  0  0
   -5.7810   18.2940  -34.5690 C   0  0  0  0  0  0  0  0  0  0  0  0
   -4.4860   18.1240  -34.9230 N   0  0  0  0  0  0  0  0  0  0  0  0
   -3.7670   18.7260  -33.9620 C   0  0  0  0  0  0  0  0  0  0  0  0
   -2.4160   18.8110  -33.9120 N   0  0  0  0  0  0  0  0  0  0  0  0
   -1.8280   19.4840  -32.8790 C   0  0  0  0  0  0  0  0  0  0  0  0
   -2.6140   20.1140  -31.8730 C   0  0  0  0  0  0  0  0  0  0  0  0
   -1.9720   20.8720  -30.7630 C   0  0  0  0  0  0  0  0  0  0  0  0
   -2.2510   20.5640  -29.4200 C   0  0  0  0  0  0  0  0  0  0  0  0
   -1.6280   21.2690  -28.3890 C   0  0  0  0  0  0  0  0  0  0  0  0
   -0.7350   22.2930  -28.7040 C   0  0  0  0  0  0  0  0  0  0  0  0
   -0.4820   22.5980  -30.0020 N   0  0  0  0  0  0  0  0  0  0  0  0
   -1.0710   21.9220  -31.0260 C   0  0  0  0  0  0  0  0  0  0  0  0
   -4.0230   20.0040  -31.9490 C   0  0  0  0  0  0  0  0  0  0  0  0
   -4.5660   19.2780  -33.0040 C   0  0  0  0  0  0  0  0  0  0  0  0
   -6.5830   21.7520  -32.3480 C   0  0  0  0  0  0  0  0  0  0  0  0
   -4.0142   23.9044  -26.1993 H   0  0  0  0  0  0  0  0  0  0  0  0
   -2.8395   24.6722  -27.3206 H   0  0  0  0  0  0  0  0  0  0  0  0
   -4.5570   25.1985  -27.3206 H   0  0  0  0  0  0  0  0  0  0  0  0
   -3.2975   23.0984  -28.8555 H   0  0  0  0  0  0  0  0  0  0  0  0
   -4.5447   22.3833  -27.7310 H   0  0  0  0  0  0  0  0  0  0  0  0
   -6.0042   22.8491  -29.3611 H   0  0  0  0  0  0  0  0  0  0  0  0
   -5.8508   24.5595  -28.7494 H   0  0  0  0  0  0  0  0  0  0  0  0
   -8.6371   24.3969  -31.6607 H   0  0  0  0  0  0  0  0  0  0  0  0
  -10.3438   22.5884  -31.7879 H   0  0  0  0  0  0  0  0  0  0  0  0
   -6.6425   17.9302  -35.1482 H   0  0  0  0  0  0  0  0  0  0  0  0
   -4.1230   17.6300  -35.7690 H   0  0  0  0  0  0  0  0  0  0  0  0
   -0.7308   19.5400  -32.8236 H   0  0  0  0  0  0  0  0  0  0  0  0
   -2.9649   19.7622  -29.1802 H   0  0  0  0  0  0  0  0  0  0  0  0
   -1.8392   21.0195  -27.3387 H   0  0  0  0  0  0  0  0  0  0  0  0
   -0.2356   22.8536  -27.9001 H   0  0  0  0  0  0  0  0  0  0  0  0
   -0.8418   22.1976  -32.0659 H   0  0  0  0  0  0  0  0  0  0  0  0
   -4.6695   20.4785  -31.1961 H   0  0  0  0  0  0  0  0  0  0  0  0
   -5.5209   21.5198  -32.5151 H   0  0  0  0  0  0  0  0  0  0  0  0
  1  2  1  0
  2  3  1  0
  3  4  1  0
  4  5  2  0
  4  6  2  0
  4  7  1  0
  7  8  1  0
  8  9  2  0
  9 10  1  0
 10 11  2  0
 11 12  1  0
 11 13  1  0
 13 14  1  0
 14 15  2  0
 14 16  1  0
 16 17  2  0
 17 18  1  0
 18 19  1  0
 19 20  2  0
 20 21  1  0
 21 22  2  0
 22 23  1  0
 23 24  2  0
 24 25  1  0
 25 26  2  0
 26 27  1  0
 27 28  2  0
 22 29  1  0
 29 30  2  0
 13 31  2  0
 31  8  1  0
 30 16  1  0
 30 19  1  0
 28 23  1  0
  1 32  1  0
  1 33  1  0
  1 34  1  0
  2 35  1  0
  2 36  1  0
  3 37  1  0
  3 38  1  0
  9 39  1  0
 10 40  1  0
 17 41  1  0
 18 42  1  0
 21 43  1  0
 24 44  1  0
 25 45  1  0
 26 46  1  0
 28 47  1  0
 29 48  1  0
 31 49  1  0
M  CHG  1   7  -1
M  END
>  <UniqueID>  (10) 
10

>  <SMILES>  (10) 
CCCS(=O)(=O)[N-]c1ccc(F)c(C(=O)c2c[nH]c3ncc(-c4cccnc4)cc23)c1

>  <Energy>  (10) 
92.2717026363978

>  <Genealogy>  (10) 
CCCS(=O)(=O)[N-]c1ccc(F)c(C(=O)c2c[nH]c3ncc(-c4cccnc4)cc23)c1 (protonated)
CCCS(=O)(=O)[N-]c1ccc(F)c(C(=O)c2c[nH]c3ncc(-c4cccnc4)cc23)c1 (3D coordinates assigned)
CCCS(=O)(=O)[N-]c1ccc(F)c(C(=O)c2c[nH]c3ncc(-c4cccnc4)cc23)c1 (optimized conformer: 92.2717026363978 kcal/mol)

>  <smiles>  (10) 
CCCS(=O)(=O)Nc1ccc(F)c(C(=O)c2c[nH]c3ncc(-c4cccnc4)cc23)c1

>  <score_type>  (10) 
oracle

>  <origin>  (10) 
adg

>  <m_score__min__energy>  (10) 
-11.5

>  <m_primary>  (10) 
energy

$$$$
10:0
     RDKit          3D

 50 53  0  0  0  0  0  0  0  0999 V2000
   -5.7380   16.3460  -34.1340 C   0  0  0  0  0  0  0  0  0  0  0  0
   -4.6490   17.1470  -34.4700 C   0  0  0  0  0  0  0  0  0  0  0  0
   -4.6570   18.5120  -34.1690 C   0  0  0  0  0  0  0  0  0  0  0  0
   -5.7670   19.1050  -33.5180 C   0  0  0  0  0  0  0  0  0  0  0  0
   -5.8210   20.4940  -33.1840 C   0  0  0  0  0  0  0  0  0  0  0  0
   -4.6910   21.3630  -33.4840 N   0  0  0  0  0  0  0  0  0  0  0  0
   -3.4760   20.9750  -32.7420 C   0  0  0  0  0  0  0  0  0  0  0  0
   -2.9620   22.0980  -31.8270 C   0  0  0  0  0  0  0  0  0  0  0  0
   -4.1140   22.9230  -31.2370 C   0  0  0  0  0  0  0  0  0  0  0  0
   -3.6310   24.2460  -30.7750 N   0  0  0  0  0  0  0  0  0  0  0  0
   -2.6220   24.1510  -29.6860 C   0  0  0  0  0  0  0  0  0  0  0  0
   -3.1560   24.5510  -28.2950 C   0  0  0  0  0  0  0  0  0  0  0  0
   -4.6130   24.1240  -28.1180 C   0  0  0  0  0  0  0  0  0  0  0  0
   -5.5190   24.7350  -29.2010 C   0  0  0  0  0  0  0  0  0  0  0  0
   -4.7400   25.1690  -30.4580 C   0  0  0  0  0  0  0  0  0  0  0  0
   -7.0000   20.9970  -32.5480 C   0  0  0  0  0  0  0  0  0  0  0  0
   -7.1790   22.3580  -32.1960 C   0  0  0  0  0  0  0  0  0  0  0  0
   -8.3520   22.7900  -31.5710 C   0  0  0  0  0  0  0  0  0  0  0  0
   -9.3710   21.8860  -31.2840 C   0  0  0  0  0  0  0  0  0  0  0  0
   -9.2260   20.5440  -31.6250 C   0  0  0  0  0  0  0  0  0  0  0  0
   -8.0580   20.0970  -32.2530 C   0  0  0  0  0  0  0  0  0  0  0  0
   -7.9550   18.7870  -32.5770 N   0  0  0  0  0  0  0  0  0  0  0  0
   -6.8660   18.2730  -33.1910 C   0  0  0  0  0  0  0  0  0  0  0  0
   -6.8440   16.9060  -33.4970 C   0  0  0  0  0  0  0  0  0  0  0  0
   -5.7251   15.2720  -34.3713 H   0  0  0  0  0  0  0  0  0  0  0  0
   -3.7783   16.7031  -34.9748 H   0  0  0  0  0  0  0  0  0  0  0  0
   -3.7910   19.1334  -34.4408 H   0  0  0  0  0  0  0  0  0  0  0  0
   -4.4870   21.4280  -34.5030 H   0  0  0  0  0  0  0  0  0  0  0  0
   -4.9390   22.3480  -33.2390 H   0  0  0  0  0  0  0  0  0  0  0  0
   -3.7058   20.0941  -32.1245 H   0  0  0  0  0  0  0  0  0  0  0  0
   -2.6890   20.7576  -33.4792 H   0  0  0  0  0  0  0  0  0  0  0  0
   -2.3857   21.6510  -31.0036 H   0  0  0  0  0  0  0  0  0  0  0  0
   -2.3332   22.7699  -32.4296 H   0  0  0  0  0  0  0  0  0  0  0  0
   -4.8846   23.0696  -32.0082 H   0  0  0  0  0  0  0  0  0  0  0  0
   -4.5320   22.3800  -30.3765 H   0  0  0  0  0  0  0  0  0  0  0  0
   -2.2672   23.1111  -29.6337 H   0  0  0  0  0  0  0  0  0  0  0  0
   -1.8201   24.8619  -29.9341 H   0  0  0  0  0  0  0  0  0  0  0  0
   -2.5431   24.0644  -27.5219 H   0  0  0  0  0  0  0  0  0  0  0  0
   -3.1003   25.6457  -28.2023 H   0  0  0  0  0  0  0  0  0  0  0  0
   -4.6734   23.0274  -28.1794 H   0  0  0  0  0  0  0  0  0  0  0  0
   -4.9595   24.4828  -27.1376 H   0  0  0  0  0  0  0  0  0  0  0  0
   -6.2698   23.9865  -29.4941 H   0  0  0  0  0  0  0  0  0  0  0  0
   -5.9846   25.6352  -28.7734 H   0  0  0  0  0  0  0  0  0  0  0  0
   -5.4328   25.1964  -31.3120 H   0  0  0  0  0  0  0  0  0  0  0  0
   -4.3072   26.1609  -30.2607 H   0  0  0  0  0  0  0  0  0  0  0  0
   -6.3835   23.0846  -32.4178 H   0  0  0  0  0  0  0  0  0  0  0  0
   -8.4708   23.8505  -31.3043 H   0  0  0  0  0  0  0  0  0  0  0  0
  -10.2900   22.2317  -30.7882 H   0  0  0  0  0  0  0  0  0  0  0  0
  -10.0334   19.8317  -31.3997 H   0  0  0  0  0  0  0  0  0  0  0  0
   -7.7033   16.2719  -33.2334 H   0  0  0  0  0  0  0  0  0  0  0  0
  1  2  2  0
  2  3  1  0
  3  4  2  0
  4  5  1  0
  5  6  1  0
  6  7  1  0
  7  8  1  0
  8  9  1  0
  9 10  1  0
 10 11  1  0
 11 12  1  0
 12 13  1  0
 13 14  1  0
 14 15  1  0
  5 16  2  0
 16 17  1  0
 17 18  2  0
 18 19  1  0
 19 20  2  0
 20 21  1  0
 21 22  2  0
 22 23  1  0
 23 24  2  0
 24  1  1  0
 23  4  1  0
 15 10  1  0
 21 16  1  0
  1 25  1  0
  2 26  1  0
  3 27  1  0
  6 28  1  0
  6 29  1  0
  7 30  1  0
  7 31  1  0
  8 32  1  0
  8 33  1  0
  9 34  1  0
  9 35  1  0
 11 36  1  0
 11 37  1  0
 12 38  1  0
 12 39  1  0
 13 40  1  0
 13 41  1  0
 14 42  1  0
 14 43  1  0
 15 44  1  0
 15 45  1  0
 17 46  1  0
 18 47  1  0
 19 48  1  0
 20 49  1  0
 24 50  1  0
M  CHG  1   6   1
M  END
>  <UniqueID>  (11) 
11

>  <SMILES>  (11) 
c1ccc2c([NH2+]CCCN3CCCCC3)c3ccccc3nc2c1

>  <Energy>  (11) 
72.8792705903473

>  <Genealogy>  (11) 
c1ccc2c([NH2+]CCCN3CCCCC3)c3ccccc3nc2c1 (protonated)
c1ccc2c([NH2+]CCCN3CCCCC3)c3ccccc3nc2c1 (3D coordinates assigned)
c1ccc2c([NH2+]CCCN3CCCCC3)c3ccccc3nc2c1 (nonaromatic ring conformer: 72.8792705903473 kcal/mol)

>  <smiles>  (11) 
c1ccc2c(NCCCN3CCCCC3)c3ccccc3nc2c1

>  <score_type>  (11) 
oracle

>  <origin>  (11) 
adg

>  <m_score__min__energy>  (11) 
-9.0299999999999994

>  <m_primary>  (11) 
energy

$$$$
11:0
     RDKit          3D

 38 40  0  0  0  0  0  0  0  0999 V2000
   -8.7680   18.2700  -31.5930 C   0  0  0  0  0  0  0  0  0  0  0  0
   -8.7450   19.5670  -31.2740 C   0  0  0  0  0  0  0  0  0  0  0  0
   -9.2240   20.6260  -32.2220 C   0  0  0  0  0  0  0  0  0  0  0  0
   -8.0310   22.0040  -32.2890 S   0  0  0  0  0  0  0  0  0  0  0  0
   -6.6280   20.9770  -32.7600 C   0  0  0  0  0  0  0  0  0  0  0  0
   -6.8580   19.8080  -33.4210 N   0  0  0  0  0  0  0  0  0  0  0  0
   -5.8300   19.0250  -33.8530 C   0  0  0  0  0  0  0  0  0  0  0  0
   -6.0710   17.8280  -34.5460 C   0  0  0  0  0  0  0  0  0  0  0  0
   -4.9960   17.0480  -34.9860 C   0  0  0  0  0  0  0  0  0  0  0  0
   -3.6820   17.4570  -34.7390 C   0  0  0  0  0  0  0  0  0  0  0  0
   -3.4340   18.6480  -34.0500 C   0  0  0  0  0  0  0  0  0  0  0  0
   -4.5040   19.4340  -33.6070 C   0  0  0  0  0  0  0  0  0  0  0  0
   -4.2770   20.5890  -32.9340 N   0  0  0  0  0  0  0  0  0  0  0  0
   -5.3000   21.3690  -32.4900 C   0  0  0  0  0  0  0  0  0  0  0  0
   -5.0030   22.5750  -31.7690 N   0  0  0  0  0  0  0  0  0  0  0  0
   -5.7210   23.8040  -32.1140 C   0  0  0  0  0  0  0  0  0  0  0  0
   -5.6820   24.7700  -30.9240 C   0  0  0  0  0  0  0  0  0  0  0  0
   -4.3520   24.9760  -30.4830 O   0  0  0  0  0  0  0  0  0  0  0  0
   -3.8090   23.7600  -29.9980 C   0  0  0  0  0  0  0  0  0  0  0  0
   -3.6960   22.7320  -31.1260 C   0  0  0  0  0  0  0  0  0  0  0  0
   -8.4087   17.5201  -30.8729 H   0  0  0  0  0  0  0  0  0  0  0  0
   -9.1462   17.9519  -32.5757 H   0  0  0  0  0  0  0  0  0  0  0  0
   -8.3635   19.8672  -30.2869 H   0  0  0  0  0  0  0  0  0  0  0  0
   -9.3327   20.1912  -33.2266 H   0  0  0  0  0  0  0  0  0  0  0  0
  -10.1931   21.0091  -31.8697 H   0  0  0  0  0  0  0  0  0  0  0  0
   -7.8460   19.5200  -33.6120 H   0  0  0  0  0  0  0  0  0  0  0  0
   -7.1036   17.5038  -34.7428 H   0  0  0  0  0  0  0  0  0  0  0  0
   -5.1853   16.1098  -35.5281 H   0  0  0  0  0  0  0  0  0  0  0  0
   -2.8409   16.8399  -35.0878 H   0  0  0  0  0  0  0  0  0  0  0  0
   -2.3992   18.9669  -33.8563 H   0  0  0  0  0  0  0  0  0  0  0  0
   -5.2428   24.2758  -32.9851 H   0  0  0  0  0  0  0  0  0  0  0  0
   -6.7665   23.5622  -32.3558 H   0  0  0  0  0  0  0  0  0  0  0  0
   -6.1137   25.7347  -31.2291 H   0  0  0  0  0  0  0  0  0  0  0  0
   -6.2623   24.3332  -30.0979 H   0  0  0  0  0  0  0  0  0  0  0  0
   -2.8089   23.9513  -29.5819 H   0  0  0  0  0  0  0  0  0  0  0  0
   -4.4752   23.3600  -29.2195 H   0  0  0  0  0  0  0  0  0  0  0  0
   -2.9609   23.0787  -31.8672 H   0  0  0  0  0  0  0  0  0  0  0  0
   -3.3692   21.7660  -30.7136 H   0  0  0  0  0  0  0  0  0  0  0  0
  1  2  2  0
  2  3  1  0
  3  4  1  0
  4  5  1  0
  5  6  2  0
  6  7  1  0
  7  8  2  0
  8  9  1  0
  9 10  2  0
 10 11  1  0
 11 12  2  0
 12 13  1  0
 13 14  2  0
 14 15  1  0
 15 16  1  0
 16 17  1  0
 17 18  1  0
 18 19  1  0
 19 20  1  0
 14  5  1  0
 20 15  1  0
 12  7  1  0
  1 21  1  0
  1 22  1  0
  2 23  1  0
  3 24  1  0
  3 25  1  0
  6 26  1  0
  8 27  1  0
  9 28  1  0
 10 29  1  0
 11 30  1  0
 16 31  1  0
 16 32  1  0
 17 33  1  0
 17 34  1  0
 19 35  1  0
 19 36  1  0
 20 37  1  0
 20 38  1  0
M  CHG  1   6   1
M  END
>  <UniqueID>  (12) 
12

>  <SMILES>  (12) 
C=CCSc1[nH+]c2ccccc2nc1N1CCOCC1

>  <Energy>  (12) 
40.8131011360774

>  <Genealogy>  (12) 
C=CCSc1[nH+]c2ccccc2nc1N1CCOCC1 (protonated)
C=CCSc1[nH+]c2ccccc2nc1N1CCOCC1 (3D coordinates assigned)
C=CCSc1[nH+]c2ccccc2nc1N1CCOCC1 (nonaromatic ring conformer: 40.8131011360774 kcal/mol)

>  <smiles>  (12) 
C=CCSc1nc2ccccc2nc1N1CCOCC1

>  <score_type>  (12) 
oracle

>  <origin>  (12) 
adg

>  <m_score__min__energy>  (12) 
-7.3600000000000003

>  <m_primary>  (12) 
energy

$$$$
12:0
     RDKit          3D

 41 43  0  0  0  0  0  0  0  0999 V2000
    1.3050   27.5600  -26.2470 C   0  0  0  0  0  0  0  0  0  0  0  0
    0.1450   26.7640  -26.6480 C   0  0  0  0  0  0  0  0  0  0  0  0
   -0.8100   26.1080  -26.9770 C   0  0  0  0  0  0  0  0  0  0  0  0
   -1.9480   25.3270  -27.3710 C   0  0  0  0  0  0  0  0  0  0  0  0
   -2.9720   24.9120  -26.5300 C   0  0  0  0  0  0  0  0  0  0  0  0
   -3.9490   24.1580  -27.1900 C   0  0  0  0  0  0  0  0  0  0  0  0
   -3.6870   23.9900  -28.5450 C   0  0  0  0  0  0  0  0  0  0  0  0
   -4.5220   23.2030  -29.5090 C   0  0  0  0  0  0  0  0  0  0  0  0
   -4.3440   23.6850  -30.8970 N   0  0  0  0  0  0  0  0  0  0  0  0
   -5.6010   24.2540  -31.4470 C   0  0  0  0  0  0  0  0  0  0  0  0
   -6.4020   23.2830  -32.3460 C   0  0  0  0  0  0  0  0  0  0  0  0
   -6.0790   21.8810  -32.0540 N   0  0  0  0  0  0  0  0  0  0  0  0
   -7.1070   20.8740  -32.1200 C   0  0  0  0  0  0  0  0  0  0  0  0
   -8.4620   21.2350  -32.0060 C   0  0  0  0  0  0  0  0  0  0  0  0
   -9.4600   20.2580  -32.0680 C   0  0  0  0  0  0  0  0  0  0  0  0
   -9.1170   18.9150  -32.2440 C   0  0  0  0  0  0  0  0  0  0  0  0
   -7.7750   18.5470  -32.3610 C   0  0  0  0  0  0  0  0  0  0  0  0
   -6.7730   19.5210  -32.3010 C   0  0  0  0  0  0  0  0  0  0  0  0
   -4.6730   21.4660  -31.9830 C   0  0  0  0  0  0  0  0  0  0  0  0
   -3.7510   22.6790  -31.8050 C   0  0  0  0  0  0  0  0  0  0  0  0
   -2.2410   24.7650  -28.9270 S   0  0  0  0  0  0  0  0  0  0  0  0
    1.3613   27.5987  -25.1491 H   0  0  0  0  0  0  0  0  0  0  0  0
    2.2211   27.0994  -26.6452 H   0  0  0  0  0  0  0  0  0  0  0  0
    1.2048   28.5805  -26.6452 H   0  0  0  0  0  0  0  0  0  0  0  0
   -3.0112   25.1509  -25.4570 H   0  0  0  0  0  0  0  0  0  0  0  0
   -4.8342   23.7407  -26.6877 H   0  0  0  0  0  0  0  0  0  0  0  0
   -4.2266   22.1447  -29.4571 H   0  0  0  0  0  0  0  0  0  0  0  0
   -5.5794   23.3274  -29.2325 H   0  0  0  0  0  0  0  0  0  0  0  0
   -6.2423   24.5505  -30.6039 H   0  0  0  0  0  0  0  0  0  0  0  0
   -5.3095   25.1028  -32.0831 H   0  0  0  0  0  0  0  0  0  0  0  0
   -7.4767   23.4441  -32.1757 H   0  0  0  0  0  0  0  0  0  0  0  0
   -6.1340   23.4856  -33.3935 H   0  0  0  0  0  0  0  0  0  0  0  0
   -8.7374   22.2909  -31.8674 H   0  0  0  0  0  0  0  0  0  0  0  0
  -10.5175   20.5472  -31.9780 H   0  0  0  0  0  0  0  0  0  0  0  0
   -9.9039   18.1478  -32.2904 H   0  0  0  0  0  0  0  0  0  0  0  0
   -7.5056   17.4897  -32.5005 H   0  0  0  0  0  0  0  0  0  0  0  0
   -5.7175   19.2263  -32.3960 H   0  0  0  0  0  0  0  0  0  0  0  0
   -4.5413   20.7855  -31.1289 H   0  0  0  0  0  0  0  0  0  0  0  0
   -4.4088   20.9595  -32.9230 H   0  0  0  0  0  0  0  0  0  0  0  0
   -2.7924   22.3402  -31.3852 H   0  0  0  0  0  0  0  0  0  0  0  0
   -3.6050   23.1476  -32.7894 H   0  0  0  0  0  0  0  0  0  0  0  0
  1  2  1  0
  2  3  3  0
  3  4  1  0
  4  5  2  0
  5  6  1  0
  6  7  2  0
  7  8  1  0
  8  9  1  0
  9 10  1  0
 10 11  1  0
 11 12  1  0
 12 13  1  0
 13 14  2  0
 14 15  1  0
 15 16  2  0
 16 17  1  0
 17 18  2  0
 12 19  1  0
 19 20  1  0
  7 21  1  0
 21  4  1  0
 20  9  1  0
 18 13  1  0
  1 22  1  0
  1 23  1  0
  1 24  1  0
  5 25  1  0
  6 26  1  0
  8 27  1  0
  8 28  1  0
 10 29  1  0
 10 30  1  0
 11 31  1  0
 11 32  1  0
 14 33  1  0
 15 34  1  0
 16 35  1  0
 17 36  1  0
 18 37  1  0
 19 38  1  0
 19 39  1  0
 20 40  1  0
 20 41  1  0
M  END
>  <UniqueID>  (13) 
13

>  <SMILES>  (13) 
CC#Cc1ccc(CN2CCN(c3ccccc3)CC2)s1

>  <Energy>  (13) 
74.98635375685657

>  <Genealogy>  (13) 
CC#Cc1ccc(CN2CCN(c3ccccc3)CC2)s1 (3D coordinates assigned)
CC#Cc1ccc(CN2CCN(c3ccccc3)CC2)s1 (nonaromatic ring conformer: 74.98635375685657 kcal/mol)

>  <smiles>  (13) 
CC#Cc1ccc(CN2CCN(c3ccccc3)CC2)s1

>  <score_type>  (13) 
oracle

>  <origin>  (13) 
adg

>  <m_score__min__energy>  (13) 
-7.7699999999999996

>  <m_primary>  (13) 
energy

$$$$
13:0
     RDKit          3D

 56 59  0  0  0  0  0  0  0  0999 V2000
    0.8540   22.4210  -35.7790 C   0  0  0  0  0  0  0  0  0  0  0  0
    0.2360   21.1750  -35.4660 O   0  0  0  0  0  0  0  0  0  0  0  0
   -0.4720   20.9170  -34.2820 C   0  0  0  0  0  0  0  0  0  0  0  0
    0.1570   21.1800  -33.0590 C   0  0  0  0  0  0  0  0  0  0  0  0
   -0.5130   20.9570  -31.8520 C   0  0  0  0  0  0  0  0  0  0  0  0
   -1.8230   20.4660  -31.8480 C   0  0  0  0  0  0  0  0  0  0  0  0
   -2.4550   20.2750  -30.6120 O   0  0  0  0  0  0  0  0  0  0  0  0
   -3.8310   20.5430  -30.3520 C   0  0  0  0  0  0  0  0  0  0  0  0
   -4.1420   22.0100  -30.6650 C   0  0  0  0  0  0  0  0  0  0  0  0
   -4.5330   22.7800  -29.4500 N   0  0  0  0  0  0  0  0  0  0  0  0
   -3.3700   23.3610  -28.7300 C   0  0  0  0  0  0  0  0  0  0  0  0
   -2.6080   24.3960  -29.5790 C   0  0  0  0  0  0  0  0  0  0  0  0
   -3.5220   25.2960  -30.2790 N   0  0  0  0  0  0  0  0  0  0  0  0
   -4.9030   24.9950  -30.4790 C   0  0  0  0  0  0  0  0  0  0  0  0
   -5.6050   25.7530  -31.2020 O   0  0  0  0  0  0  0  0  0  0  0  0
   -5.5310   23.8520  -29.7150 C   0  0  1  0  0  0  0  0  0  0  0  0
   -6.8350   23.3370  -30.3740 C   0  0  0  0  0  0  0  0  0  0  0  0
   -6.6020   22.8740  -31.7910 C   0  0  0  0  0  0  0  0  0  0  0  0
   -6.1840   23.7050  -32.6420 O   0  0  0  0  0  0  0  0  0  0  0  0
   -6.8520   21.5140  -32.1950 N   0  0  0  0  0  0  0  0  0  0  0  0
   -8.1700   20.8980  -31.9460 C   0  0  0  0  0  0  0  0  0  0  0  0
   -8.0380   19.4050  -31.6250 C   0  0  0  0  0  0  0  0  0  0  0  0
   -7.1550   18.7570  -32.6330 C   0  0  0  0  0  0  0  0  0  0  0  0
   -7.1310   17.1340  -33.0680 S   0  0  0  0  0  0  0  0  0  0  0  0
   -5.8320   17.2660  -34.1340 C   0  0  0  0  0  0  0  0  0  0  0  0
   -5.3940   18.5870  -34.1410 C   0  0  0  0  0  0  0  0  0  0  0  0
   -6.1330   19.4160  -33.2880 C   0  0  0  0  0  0  0  0  0  0  0  0
   -5.8670   20.8780  -33.0920 C   0  0  0  0  0  0  0  0  0  0  0  0
   -2.4550   20.1850  -33.0750 C   0  0  0  0  0  0  0  0  0  0  0  0
   -1.7850   20.4090  -34.2830 C   0  0  0  0  0  0  0  0  0  0  0  0
    1.1141   22.9454  -34.8477 H   0  0  0  0  0  0  0  0  0  0  0  0
    1.7670   22.2404  -36.3654 H   0  0  0  0  0  0  0  0  0  0  0  0
    0.1577   23.0386  -36.3654 H   0  0  0  0  0  0  0  0  0  0  0  0
    1.1872   21.5654  -33.0476 H   0  0  0  0  0  0  0  0  0  0  0  0
   -0.0064   21.1692  -30.8989 H   0  0  0  0  0  0  0  0  0  0  0  0
   -4.4552   19.8944  -30.9842 H   0  0  0  0  0  0  0  0  0  0  0  0
   -4.0457   20.3444  -29.2916 H   0  0  0  0  0  0  0  0  0  0  0  0
   -3.2472   22.4747  -31.1049 H   0  0  0  0  0  0  0  0  0  0  0  0
   -4.9918   22.0310  -31.3631 H   0  0  0  0  0  0  0  0  0  0  0  0
   -3.7314   23.8527  -27.8148 H   0  0  0  0  0  0  0  0  0  0  0  0
   -2.6748   22.5400  -28.5003 H   0  0  0  0  0  0  0  0  0  0  0  0
   -1.9580   24.9897  -28.9194 H   0  0  0  0  0  0  0  0  0  0  0  0
   -2.0154   23.8545  -30.3311 H   0  0  0  0  0  0  0  0  0  0  0  0
   -5.8489   24.2378  -28.7352 H   0  0  0  0  0  0  0  0  0  0  0  0
   -7.2236   22.4942  -29.7834 H   0  0  0  0  0  0  0  0  0  0  0  0
   -7.5559   24.1674  -30.3999 H   0  0  0  0  0  0  0  0  0  0  0  0
   -8.6475   21.4061  -31.0952 H   0  0  0  0  0  0  0  0  0  0  0  0
   -8.7790   21.0039  -32.8559 H   0  0  0  0  0  0  0  0  0  0  0  0
   -7.6017   19.2826  -30.6227 H   0  0  0  0  0  0  0  0  0  0  0  0
   -9.0321   18.9348  -31.6521 H   0  0  0  0  0  0  0  0  0  0  0  0
   -5.4019   16.4445  -34.7258 H   0  0  0  0  0  0  0  0  0  0  0  0
   -4.5531   18.9435  -34.7540 H   0  0  0  0  0  0  0  0  0  0  0  0
   -4.8637   20.9994  -32.6577 H   0  0  0  0  0  0  0  0  0  0  0  0
   -5.9430   21.3673  -34.0742 H   0  0  0  0  0  0  0  0  0  0  0  0
   -3.4806   19.7874  -33.0837 H   0  0  0  0  0  0  0  0  0  0  0  0
   -2.2861   20.1873  -35.2368 H   0  0  0  0  0  0  0  0  0  0  0  0
  1  2  1  0
  2  3  1  0
  3  4  2  0
  4  5  1  0
  5  6  2  0
  6  7  1  0
  7  8  1  0
  8  9  1  0
  9 10  1  0
 10 11  1  0
 11 12  1  0
 12 13  1  0
 13 14  1  0
 14 15  2  0
 14 16  1  0
 16 17  1  0
 17 18  1  0
 18 19  2  0
 18 20  1  0
 20 21  1  0
 21 22  1  0
 22 23  1  0
 23 24  1  0
 24 25  1  0
 25 26  2  0
 26 27  1  0
 27 28  1  0
  6 29  1  0
 29 30  2  0
 30  3  1  0
 16 10  1  0
 28 20  1  0
 27 23  2  0
  1 31  1  0
  1 32  1  0
  1 33  1  0
  4 34  1  0
  5 35  1  0
  8 36  1  0
  8 37  1  0
  9 38  1  0
  9 39  1  0
 11 40  1  0
 11 41  1  0
 12 42  1  0
 12 43  1  0
 16 44  1  1
 17 45  1  0
 17 46  1  0
 21 47  1  0
 21 48  1  0
 22 49  1  0
 22 50  1  0
 25 51  1  0
 26 52  1  0
 28 53  1  0
 28 54  1  0
 29 55  1  0
 30 56  1  0
M  CHG  1  13  -1
M  END
>  <UniqueID>  (14) 
14

>  <SMILES>  (14) 
COc1ccc(OCCN2CC[N-]C(=O)[C@H]2CC(=O)N2CCc3sccc3C2)cc1

>  <Energy>  (14) 
92.41224539212794

>  <Genealogy>  (14) 
COc1ccc(OCCN2CC[N-]C(=O)C2CC(=O)N2CCc3sccc3C2)cc1 (protonated)
COc1ccc(OCCN2CC[N-]C(=O)[C@H]2CC(=O)N2CCc3sccc3C2)cc1 (chirality)
COc1ccc(OCCN2CC[N-]C(=O)[C@H]2CC(=O)N2CCc3sccc3C2)cc1 (3D coordinates assigned)
COc1ccc(OCCN2CC[N-]C(=O)[C@H]2CC(=O)N2CCc3sccc3C2)cc1 (nonaromatic ring conformer: 92.41224539212794 kcal/mol)

>  <smiles>  (14) 
COc1ccc(OCCN2CCNC(=O)C2CC(=O)N2CCc3sccc3C2)cc1

>  <score_type>  (14) 
oracle

>  <origin>  (14) 
adg

>  <m_score__min__energy>  (14) 
-10.82

>  <m_primary>  (14) 
energy

$$$$
14:0
     RDKit          3D

 46 49  0  0  0  0  0  0  0  0999 V2000
   -3.8270   22.3120  -33.6080 O   0  0  0  0  0  0  0  0  0  0  0  0
   -4.3140   21.2660  -33.0920 C   0  0  0  0  0  0  0  0  0  0  0  0
   -5.7520   21.2880  -32.6780 C   0  0  0  0  0  0  0  0  0  0  0  0
   -6.3560   22.5180  -32.3460 C   0  0  0  0  0  0  0  0  0  0  0  0
   -7.6860   22.5700  -31.9170 C   0  0  0  0  0  0  0  0  0  0  0  0
   -8.4360   21.3980  -31.8130 C   0  0  0  0  0  0  0  0  0  0  0  0
   -9.7260   21.4600  -31.3950 F   0  0  0  0  0  0  0  0  0  0  0  0
   -7.8550   20.1680  -32.1350 C   0  0  0  0  0  0  0  0  0  0  0  0
   -8.8640   18.5520  -31.9740 Br  0  0  0  0  0  0  0  0  0  0  0  0
   -6.5230   20.1110  -32.5660 C   0  0  0  0  0  0  0  0  0  0  0  0
   -3.4440   20.1230  -32.8210 N   0  0  1  0  0  0  0  0  0  0  0  0
   -2.5410   19.8320  -33.9700 C   0  0  0  0  0  0  0  0  0  0  0  0
   -1.2110   20.5850  -33.8730 C   0  0  0  0  0  0  0  0  0  0  0  0
   -0.4260   20.1780  -32.6170 C   0  0  0  0  0  0  0  0  0  0  0  0
   -1.3200   19.5980  -31.5090 C   0  0  0  0  0  0  0  0  0  0  0  0
   -2.7420   20.2060  -31.4880 C   0  0  1  0  0  0  0  0  0  0  0  0
   -2.7340   21.6010  -30.8680 C   0  0  0  0  0  0  0  0  0  0  0  0
   -3.8630   22.2000  -30.6310 N   0  0  0  0  0  0  0  0  0  0  0  0
   -3.9650   23.7230  -29.8320 S   0  0  0  0  0  0  0  0  0  0  0  0
   -4.2390   24.8110  -30.8320 O   0  0  0  0  0  0  0  0  0  0  0  0
   -5.0570   23.6710  -28.8000 O   0  0  0  0  0  0  0  0  0  0  0  0
   -2.4270   23.9840  -29.0550 C   0  0  0  0  0  0  0  0  0  0  0  0
   -2.2800   24.9680  -28.0700 C   0  0  0  0  0  0  0  0  0  0  0  0
   -1.0410   25.1560  -27.4530 C   0  0  0  0  0  0  0  0  0  0  0  0
    0.0520   24.3660  -27.8240 C   0  0  0  0  0  0  0  0  0  0  0  0
   -0.0940   23.3900  -28.8160 C   0  0  0  0  0  0  0  0  0  0  0  0
   -1.3380   23.1870  -29.4340 C   0  0  0  0  0  0  0  0  0  0  0  0
   -1.4750   22.1630  -30.4360 N   0  0  0  0  0  0  0  0  0  0  0  0
   -5.7740   23.4480  -32.4254 H   0  0  0  0  0  0  0  0  0  0  0  0
   -8.1422   23.5376  -31.6608 H   0  0  0  0  0  0  0  0  0  0  0  0
   -6.0737   19.1395  -32.8196 H   0  0  0  0  0  0  0  0  0  0  0  0
   -4.0690   19.2860  -32.7890 H   0  0  0  0  0  0  0  0  0  0  0  0
   -2.3345   18.7518  -33.9922 H   0  0  0  0  0  0  0  0  0  0  0  0
   -3.0483   20.1645  -34.8877 H   0  0  0  0  0  0  0  0  0  0  0  0
   -0.6054   20.3576  -34.7627 H   0  0  0  0  0  0  0  0  0  0  0  0
   -1.4269   21.6619  -33.8121 H   0  0  0  0  0  0  0  0  0  0  0  0
    0.3181   19.4188  -32.8999 H   0  0  0  0  0  0  0  0  0  0  0  0
    0.0455   21.0872  -32.2158 H   0  0  0  0  0  0  0  0  0  0  0  0
   -1.4069   18.5123  -31.6632 H   0  0  0  0  0  0  0  0  0  0  0  0
   -0.8467   19.8439  -30.5469 H   0  0  0  0  0  0  0  0  0  0  0  0
   -3.3599   19.5797  -30.8277 H   0  0  0  0  0  0  0  0  0  0  0  0
   -3.1389   25.5921  -27.7824 H   0  0  0  0  0  0  0  0  0  0  0  0
   -0.9249   25.9253  -26.6754 H   0  0  0  0  0  0  0  0  0  0  0  0
    1.0268   24.5120  -27.3357 H   0  0  0  0  0  0  0  0  0  0  0  0
    0.7707   22.7785  -29.1132 H   0  0  0  0  0  0  0  0  0  0  0  0
   -0.5990   21.6950  -30.7620 H   0  0  0  0  0  0  0  0  0  0  0  0
  1  2  2  0
  2  3  1  0
  3  4  2  0
  4  5  1  0
  5  6  2  0
  6  7  1  0
  6  8  1  0
  8  9  1  0
  8 10  2  0
  2 11  1  0
 11 12  1  0
 12 13  1  0
 13 14  1  0
 14 15  1  0
 15 16  1  0
 16 17  1  0
 17 18  2  0
 18 19  1  0
 19 20  2  0
 19 21  2  0
 19 22  1  0
 22 23  2  0
 23 24  1  0
 24 25  2  0
 25 26  1  0
 26 27  2  0
 27 28  1  0
 10  3  1  0
 16 11  1  0
 28 17  1  0
 27 22  1  0
  4 29  1  0
  5 30  1  0
 10 31  1  0
 11 32  1  1
 12 33  1  0
 12 34  1  0
 13 35  1  0
 13 36  1  0
 14 37  1  0
 14 38  1  0
 15 39  1  0
 15 40  1  0
 16 41  1  1
 23 42  1  0
 24 43  1  0
 25 44  1  0
 26 45  1  0
 28 46  1  0
M  CHG  1  11   1
M  END
>  <UniqueID>  (15) 
15

>  <SMILES>  (15) 
O=C(c1ccc(F)c(Br)c1)[N@H+]1CCCC[C@H]1C1=NS(=O)(=O)c2ccccc2N1

>  <Energy>  (15) 
72.26998387242809

>  <Genealogy>  (15) 
O=C(c1ccc(F)c(Br)c1)[NH+]1CCCCC1C1=NS(=O)(=O)c2ccccc2N1 (protonated)
O=C(c1ccc(F)c(Br)c1)[N@H+]1CCCC[C@H]1C1=NS(=O)(=O)c2ccccc2N1 (chirality)
O=C(c1ccc(F)c(Br)c1)[N@H+]1CCCC[C@H]1C1=NS(=O)(=O)c2ccccc2N1 (3D coordinates assigned)
O=C(c1ccc(F)c(Br)c1)[N@H+]1CCCC[C@H]1C1=NS(=O)(=O)c2ccccc2N1 (nonaromatic ring conformer: 72.26998387242809 kcal/mol)

>  <smiles>  (15) 
O=C(c1ccc(F)c(Br)c1)N1CCCCC1C1=NS(=O)(=O)c2ccccc2N1

>  <score_type>  (15) 
oracle

>  <origin>  (15) 
adg

>  <m_score__min__energy>  (15) 
-8.8100000000000005

>  <m_primary>  (15) 
energy

$$$$
15:0
     RDKit          3D

 49 50  0  0  0  0  0  0  0  0999 V2000
   -2.6750   24.9150  -26.7570 C   0  0  0  0  0  0  0  0  0  0  0  0
   -1.6820   25.3080  -27.8470 C   0  0  0  0  0  0  0  0  0  0  0  0
   -2.3080   25.2980  -29.1300 O   0  0  0  0  0  0  0  0  0  0  0  0
   -2.9080   24.1830  -29.7390 C   0  0  0  0  0  0  0  0  0  0  0  0
   -2.0790   23.1600  -30.2100 C   0  0  0  0  0  0  0  0  0  0  0  0
   -2.6180   22.0340  -30.8370 C   0  0  0  0  0  0  0  0  0  0  0  0
   -4.0090   21.9060  -30.9980 C   0  0  0  0  0  0  0  0  0  0  0  0
   -4.5830   20.7160  -31.6720 C   0  0  0  0  0  0  0  0  0  0  0  0
   -4.1760   19.5630  -31.3660 O   0  0  0  0  0  0  0  0  0  0  0  0
   -5.6360   20.8740  -32.6330 N   0  0  0  0  0  0  0  0  0  0  0  0
   -6.9420   21.4230  -32.3940 C   0  0  0  0  0  0  0  0  0  0  0  0
   -7.1410   22.8160  -32.3450 C   0  0  0  0  0  0  0  0  0  0  0  0
   -8.4130   23.3430  -32.1270 C   0  0  0  0  0  0  0  0  0  0  0  0
   -9.5000   22.4920  -31.9400 C   0  0  0  0  0  0  0  0  0  0  0  0
   -9.3170   21.1080  -31.9570 C   0  0  0  0  0  0  0  0  0  0  0  0
   -8.0390   20.5550  -32.1740 C   0  0  0  0  0  0  0  0  0  0  0  0
   -7.8590   19.0750  -32.1730 C   0  0  0  0  0  0  0  0  0  0  0  0
   -8.8470   18.3400  -31.8930 O   0  0  0  0  0  0  0  0  0  0  0  0
   -6.5750   18.4680  -32.4770 N   0  0  0  0  0  0  0  0  0  0  0  0
   -6.2080   17.4940  -31.4200 C   0  0  0  0  0  0  0  0  0  0  0  0
   -5.3810   16.3200  -31.9590 C   0  0  0  0  0  0  0  0  0  0  0  0
   -6.5570   17.9230  -33.8620 C   0  0  0  0  0  0  0  0  0  0  0  0
   -5.4310   18.4570  -34.7590 C   0  0  0  0  0  0  0  0  0  0  0  0
   -4.8450   22.9280  -30.5130 C   0  0  0  0  0  0  0  0  0  0  0  0
   -4.3030   24.0550  -29.8900 C   0  0  0  0  0  0  0  0  0  0  0  0
   -2.2248   25.0932  -25.7693 H   0  0  0  0  0  0  0  0  0  0  0  0
   -3.5885   25.5194  -26.8580 H   0  0  0  0  0  0  0  0  0  0  0  0
   -2.9275   23.8491  -26.8580 H   0  0  0  0  0  0  0  0  0  0  0  0
   -1.3002   26.3186  -27.6398 H   0  0  0  0  0  0  0  0  0  0  0  0
   -0.8568   24.5806  -27.8514 H   0  0  0  0  0  0  0  0  0  0  0  0
   -0.9892   23.2430  -30.0853 H   0  0  0  0  0  0  0  0  0  0  0  0
   -1.9499   21.2424  -31.2072 H   0  0  0  0  0  0  0  0  0  0  0  0
   -6.2855   23.4942  -32.4799 H   0  0  0  0  0  0  0  0  0  0  0  0
   -8.5587   24.4330  -32.1026 H   0  0  0  0  0  0  0  0  0  0  0  0
  -10.5041   22.9112  -31.7787 H   0  0  0  0  0  0  0  0  0  0  0  0
  -10.1787   20.4427  -31.7995 H   0  0  0  0  0  0  0  0  0  0  0  0
   -5.8490   19.2210  -32.4390 H   0  0  0  0  0  0  0  0  0  0  0  0
   -5.6197   18.0149  -30.6502 H   0  0  0  0  0  0  0  0  0  0  0  0
   -7.1414   17.0821  -31.0088 H   0  0  0  0  0  0  0  0  0  0  0  0
   -4.9734   15.7414  -31.1169 H   0  0  0  0  0  0  0  0  0  0  0  0
   -6.0225   15.6711  -32.5733 H   0  0  0  0  0  0  0  0  0  0  0  0
   -4.5540   16.7056  -32.5733 H   0  0  0  0  0  0  0  0  0  0  0  0
   -6.4508   16.8301  -33.7965 H   0  0  0  0  0  0  0  0  0  0  0  0
   -7.4991   18.2452  -34.3296 H   0  0  0  0  0  0  0  0  0  0  0  0
   -4.6147   18.8441  -34.1315 H   0  0  0  0  0  0  0  0  0  0  0  0
   -5.0510   17.6432  -35.3941 H   0  0  0  0  0  0  0  0  0  0  0  0
   -5.8207   19.2662  -35.3941 H   0  0  0  0  0  0  0  0  0  0  0  0
   -5.9356   22.8391  -30.6253 H   0  0  0  0  0  0  0  0  0  0  0  0
   -4.9688   24.8465  -29.5155 H   0  0  0  0  0  0  0  0  0  0  0  0
  1  2  1  0
  2  3  1  0
  3  4  1  0
  4  5  2  0
  5  6  1  0
  6  7  2  0
  7  8  1  0
  8  9  2  0
  8 10  1  0
 10 11  1  0
 11 12  2  0
 12 13  1  0
 13 14  2  0
 14 15  1  0
 15 16  2  0
 16 17  1  0
 17 18  2  0
 17 19  1  0
 19 20  1  0
 20 21  1  0
 19 22  1  0
 22 23  1  0
  7 24  1  0
 24 25  2  0
 25  4  1  0
 16 11  1  0
  1 26  1  0
  1 27  1  0
  1 28  1  0
  2 29  1  0
  2 30  1  0
  5 31  1  0
  6 32  1  0
 12 33  1  0
 13 34  1  0
 14 35  1  0
 15 36  1  0
 19 37  1  0
 20 38  1  0
 20 39  1  0
 21 40  1  0
 21 41  1  0
 21 42  1  0
 22 43  1  0
 22 44  1  0
 23 45  1  0
 23 46  1  0
 23 47  1  0
 24 48  1  0
 25 49  1  0
M  CHG  2  10  -1  19   1
M  END
>  <UniqueID>  (16) 
16

>  <SMILES>  (16) 
CCOc1ccc(C(=O)[N-]c2ccccc2C(=O)[NH+](CC)CC)cc1

>  <Energy>  (16) 
59.03572968566332

>  <Genealogy>  (16) 
CCOc1ccc(C(=O)[N-]c2ccccc2C(=O)[NH+](CC)CC)cc1 (protonated)
CCOc1ccc(C(=O)[N-]c2ccccc2C(=O)[NH+](CC)CC)cc1 (3D coordinates assigned)
CCOc1ccc(C(=O)[N-]c2ccccc2C(=O)[NH+](CC)CC)cc1 (optimized conformer: 59.03572968566332 kcal/mol)

>  <smiles>  (16) 
CCOc1ccc(C(=O)Nc2ccccc2C(=O)N(CC)CC)cc1

>  <score_type>  (16) 
oracle

>  <origin>  (16) 
adg

>  <m_score__min__energy>  (16) 
-8.5500000000000007

>  <m_primary>  (16) 
energy

$$$$
16:0
     RDKit          3D

 40 41  0  0  0  0  0  0  0  0999 V2000
   -3.8560   24.1980  -27.2240 C   0  0  0  0  0  0  0  0  0  0  0  0
   -3.4140   24.1490  -28.3450 C   0  0  0  0  0  0  0  0  0  0  0  0
   -2.8730   24.0850  -29.7070 C   0  0  0  0  0  0  0  0  0  0  0  0
   -3.8470   24.5320  -30.6460 O   0  0  0  0  0  0  0  0  0  0  0  0
   -4.9740   23.7700  -30.9690 C   0  0  0  0  0  0  0  0  0  0  0  0
   -6.2390   24.1170  -30.4650 C   0  0  0  0  0  0  0  0  0  0  0  0
   -6.4780   25.6750  -29.3790 Br  0  0  0  0  0  0  0  0  0  0  0  0
   -7.3570   23.3420  -30.7880 C   0  0  0  0  0  0  0  0  0  0  0  0
   -7.2250   22.2150  -31.6110 C   0  0  0  0  0  0  0  0  0  0  0  0
   -8.4390   21.4040  -31.9870 C   0  0  0  0  0  0  0  0  0  0  0  0
   -8.3940   20.0830  -31.3390 N   0  0  0  0  0  0  0  0  0  0  0  0
   -8.5010   18.9860  -32.3150 C   0  0  0  0  0  0  0  0  0  0  0  0
   -7.1460   18.5260  -32.7980 C   0  0  0  0  0  0  0  0  0  0  0  0
   -6.5180   17.4130  -32.2200 C   0  0  0  0  0  0  0  0  0  0  0  0
   -5.2550   17.0160  -32.6640 C   0  0  0  0  0  0  0  0  0  0  0  0
   -4.6290   17.7390  -33.6820 C   0  0  0  0  0  0  0  0  0  0  0  0
   -5.2480   18.8180  -34.2300 N   0  0  0  0  0  0  0  0  0  0  0  0
   -6.4780   19.2240  -33.8150 C   0  0  0  0  0  0  0  0  0  0  0  0
   -5.9680   21.8890  -32.1390 C   0  0  0  0  0  0  0  0  0  0  0  0
   -4.8360   22.6640  -31.8210 C   0  0  0  0  0  0  0  0  0  0  0  0
   -3.5610   22.3670  -32.3280 O   0  0  0  0  0  0  0  0  0  0  0  0
   -3.2480   21.2110  -33.0990 C   0  0  0  0  0  0  0  0  0  0  0  0
   -4.2592   24.2427  -26.2015 H   0  0  0  0  0  0  0  0  0  0  0  0
   -1.9822   24.7268  -29.7744 H   0  0  0  0  0  0  0  0  0  0  0  0
   -2.6045   23.0435  -29.9374 H   0  0  0  0  0  0  0  0  0  0  0  0
   -8.3461   23.6183  -30.3939 H   0  0  0  0  0  0  0  0  0  0  0  0
   -9.3453   21.9363  -31.6625 H   0  0  0  0  0  0  0  0  0  0  0  0
   -8.4522   21.2661  -33.0782 H   0  0  0  0  0  0  0  0  0  0  0  0
   -7.4790   19.9830  -30.8390 H   0  0  0  0  0  0  0  0  0  0  0  0
   -9.1630   20.0060  -30.6310 H   0  0  0  0  0  0  0  0  0  0  0  0
   -9.0162   18.1375  -31.8409 H   0  0  0  0  0  0  0  0  0  0  0  0
   -9.0640   19.3573  -33.1840 H   0  0  0  0  0  0  0  0  0  0  0  0
   -7.0202   16.8531  -31.4173 H   0  0  0  0  0  0  0  0  0  0  0  0
   -4.7581   16.1426  -32.2165 H   0  0  0  0  0  0  0  0  0  0  0  0
   -3.6345   17.4350  -34.0405 H   0  0  0  0  0  0  0  0  0  0  0  0
   -6.9505   20.1026  -34.2784 H   0  0  0  0  0  0  0  0  0  0  0  0
   -5.8651   21.0211  -32.8069 H   0  0  0  0  0  0  0  0  0  0  0  0
   -3.0207   20.3715  -32.4255 H   0  0  0  0  0  0  0  0  0  0  0  0
   -4.1077   20.9496  -33.7335 H   0  0  0  0  0  0  0  0  0  0  0  0
   -2.3739   21.4191  -33.7335 H   0  0  0  0  0  0  0  0  0  0  0  0
  1  2  3  0
  2  3  1  0
  3  4  1  0
  4  5  1  0
  5  6  2  0
  6  7  1  0
  6  8  1  0
  8  9  2  0
  9 10  1  0
 10 11  1  0
 11 12  1  0
 12 13  1  0
 13 14  2  0
 14 15  1  0
 15 16  2  0
 16 17  1  0
 17 18  2  0
  9 19  1  0
 19 20  2  0
 20 21  1  0
 21 22  1  0
 20  5  1  0
 18 13  1  0
  1 23  1  0
  3 24  1  0
  3 25  1  0
  8 26  1  0
 10 27  1  0
 10 28  1  0
 11 29  1  0
 11 30  1  0
 12 31  1  0
 12 32  1  0
 14 33  1  0
 15 34  1  0
 16 35  1  0
 18 36  1  0
 19 37  1  0
 22 38  1  0
 22 39  1  0
 22 40  1  0
M  CHG  1  11   1
M  END
>  <UniqueID>  (17) 
17

>  <SMILES>  (17) 
C#CCOc1c(Br)cc(C[NH2+]Cc2cccnc2)cc1OC

>  <Energy>  (17) 
43.493861072283956

>  <Genealogy>  (17) 
C#CCOc1c(Br)cc(C[NH2+]Cc2cccnc2)cc1OC (protonated)
C#CCOc1c(Br)cc(C[NH2+]Cc2cccnc2)cc1OC (3D coordinates assigned)
C#CCOc1c(Br)cc(C[NH2+]Cc2cccnc2)cc1OC (optimized conformer: 43.493861072283956 kcal/mol)

>  <smiles>  (17) 
C#CCOc1c(Br)cc(CNCc2cccnc2)cc1OC

>  <score_type>  (17) 
oracle

>  <origin>  (17) 
adg

>  <m_score__min__energy>  (17) 
-7.1399999999999997

>  <m_primary>  (17) 
energy

$$$$
17:0
     RDKit          3D

 44 46  0  0  0  0  0  0  0  0999 V2000
   -1.6791   19.4212  -35.0513 H   0  0  0  0  0  0  0  0  0  0  0  0
   -2.1370   19.8710  -34.1580 C   0  0  0  0  0  0  0  0  0  0  0  0
   -1.5710   21.2220  -33.3300 S   0  0  0  0  0  0  0  0  0  0  0  0
   -2.8120   21.1760  -32.1890 C   0  0  0  0  0  0  0  0  0  0  0  0
   -2.9850   21.9960  -31.1930 N   0  0  0  0  0  0  0  0  0  0  0  0
   -3.9060   23.0970  -31.1070 C   0  0  0  0  0  0  0  0  0  0  0  0
   -3.4930   24.2590  -30.8500 O   0  0  0  0  0  0  0  0  0  0  0  0
   -5.3560   22.8520  -31.3260 C   0  0  0  0  0  0  0  0  0  0  0  0
   -6.3160   23.8780  -31.1640 C   0  0  0  0  0  0  0  0  0  0  0  0
   -5.9280   25.1670  -30.7820 O   0  0  0  0  0  0  0  0  0  0  0  0
   -6.1260   25.6780  -29.4700 C   0  0  0  0  0  0  0  0  0  0  0  0
   -5.8313   24.9175  -28.7319 H   0  0  0  0  0  0  0  0  0  0  0  0
   -5.5125   26.5804  -29.3315 H   0  0  0  0  0  0  0  0  0  0  0  0
   -7.1874   25.9314  -29.3315 H   0  0  0  0  0  0  0  0  0  0  0  0
   -7.6320   23.6010  -31.3760 N   0  0  0  0  0  0  0  0  0  0  0  0
   -8.0500   22.3630  -31.7400 C   0  0  0  0  0  0  0  0  0  0  0  0
   -9.4090   22.1070  -31.9470 C   0  0  0  0  0  0  0  0  0  0  0  0
  -10.1474   22.9119  -31.8169 H   0  0  0  0  0  0  0  0  0  0  0  0
   -9.8280   20.8250  -32.3200 C   0  0  0  0  0  0  0  0  0  0  0  0
  -10.8974   20.6214  -32.4783 H   0  0  0  0  0  0  0  0  0  0  0  0
   -8.8900   19.8020  -32.4920 C   0  0  0  0  0  0  0  0  0  0  0  0
   -9.2231   18.7971  -32.7909 H   0  0  0  0  0  0  0  0  0  0  0  0
   -7.5290   20.0530  -32.2850 C   0  0  0  0  0  0  0  0  0  0  0  0
   -6.7938   19.2461  -32.4205 H   0  0  0  0  0  0  0  0  0  0  0  0
   -7.1020   21.3360  -31.9040 C   0  0  0  0  0  0  0  0  0  0  0  0
   -5.7830   21.6040  -31.6920 N   0  0  0  0  0  0  0  0  0  0  0  0
   -5.0870   20.8350  -31.8250 H   0  0  0  0  0  0  0  0  0  0  0  0
   -3.6550   20.1490  -32.4200 N   0  0  0  0  0  0  0  0  0  0  0  0
   -3.2880   19.4220  -33.5130 C   0  0  0  0  0  0  0  0  0  0  0  0
   -4.0490   18.2120  -33.9880 C   0  0  0  0  0  0  0  0  0  0  0  0
   -3.6023   17.8690  -34.9329 H   0  0  0  0  0  0  0  0  0  0  0  0
   -3.9795   17.4545  -33.1934 H   0  0  0  0  0  0  0  0  0  0  0  0
   -5.5430   18.4800  -34.2260 C   0  0  0  0  0  0  0  0  0  0  0  0
   -5.7829   19.4991  -33.8885 H   0  0  0  0  0  0  0  0  0  0  0  0
   -5.7499   18.3684  -35.3006 H   0  0  0  0  0  0  0  0  0  0  0  0
   -6.3850   17.5150  -33.4840 N   0  0  0  0  0  0  0  0  0  0  0  0
   -6.5200   16.2480  -34.2210 C   0  0  0  0  0  0  0  0  0  0  0  0
   -6.6086   15.4161  -33.5069 H   0  0  0  0  0  0  0  0  0  0  0  0
   -7.4192   16.2857  -34.8535 H   0  0  0  0  0  0  0  0  0  0  0  0
   -5.6330   16.0954  -34.8535 H   0  0  0  0  0  0  0  0  0  0  0  0
   -5.8110   17.2500  -32.1540 C   0  0  0  0  0  0  0  0  0  0  0  0
   -6.5185   17.5766  -31.3776 H   0  0  0  0  0  0  0  0  0  0  0  0
   -5.6193   16.1723  -32.0455 H   0  0  0  0  0  0  0  0  0  0  0  0
   -4.8664   17.8032  -32.0455 H   0  0  0  0  0  0  0  0  0  0  0  0
  1  2  1  0
  2  3  1  0
  3  4  1  0
  4  5  2  0
  5  6  1  0
  6  7  2  0
  6  8  1  0
  8  9  2  0
  9 10  1  0
 10 11  1  0
 11 12  1  0
 11 13  1  0
 11 14  1  0
  9 15  1  0
 15 16  2  0
 16 17  1  0
 17 18  1  0
 17 19  2  0
 19 20  1  0
 19 21  1  0
 21 22  1  0
 21 23  2  0
 23 24  1  0
 23 25  1  0
 25 26  2  0
 26 27  1  0
  4 28  1  0
 28 29  1  0
 29 30  1  0
 30 31  1  0
 30 32  1  0
 30 33  1  0
 33 34  1  0
 33 35  1  0
 33 36  1  0
 36 37  1  0
 37 38  1  0
 37 39  1  0
 37 40  1  0
 36 41  1  0
 41 42  1  0
 41 43  1  0
 41 44  1  0
 29  2  2  0
 26  8  1  0
 25 16  1  0
M  CHG  2  26   1  28  -1
M  END
>  <UniqueID>  (18) 
18

>  <SMILES>  (18) 
COc1nc2ccccc2[nH+]c1C(=O)/N=c1/[n-]c(CCN(C)C)cs1

>  <Energy>  (18) 
82.3095553951954

>  <Genealogy>  (18) 
COc1nc2ccccc2[nH+]c1C(=O)N=c1[n-]c(CCN(C)C)cs1 (protonated)
COc1nc2ccccc2[nH+]c1C(=O)/N=c1/[n-]c(CCN(C)C)cs1 (cis-trans isomerization)
COc1nc2ccccc2[nH+]c1C(=O)/N=c1/[n-]c(CCN(C)C)cs1 (3D coordinates assigned)
COc1nc2ccccc2[nH+]c1C(=O)/N=c1/[n-]c(CCN(C)C)cs1 (optimized conformer: 82.3095553951954 kcal/mol)

>  <smiles>  (18) 
COc1nc2ccccc2nc1C(=O)N=c1[nH]c(CCN(C)C)cs1

>  <score_type>  (18) 
oracle

>  <origin>  (18) 
adg

>  <m_score__min__energy>  (18) 
-9

>  <m_primary>  (18) 
energy

$$$$
18:0
     RDKit          3D

 54 55  0  0  0  0  0  0  0  0999 V2000
   -4.9100   17.4960  -35.3530 C   0  0  0  0  0  0  0  0  0  0  0  0
   -6.1060   17.9860  -34.5280 C   0  0  0  0  0  0  0  0  0  0  0  0
   -6.6010   16.9600  -33.5760 N   0  0  0  0  0  0  0  0  0  0  0  0
   -5.5570   15.9490  -33.2730 C   0  0  0  0  0  0  0  0  0  0  0  0
   -5.8810   14.5850  -33.8890 C   0  0  0  0  0  0  0  0  0  0  0  0
   -7.0330   17.6150  -32.3520 C   0  0  0  0  0  0  0  0  0  0  0  0
   -6.4230   17.4210  -31.3060 O   0  0  0  0  0  0  0  0  0  0  0  0
   -8.1760   18.6070  -32.3870 C   0  0  0  0  0  0  0  0  0  0  0  0
   -7.7860   20.0160  -31.9130 C   0  0  0  0  0  0  0  0  0  0  0  0
   -6.8780   20.7370  -32.9200 C   0  0  0  0  0  0  0  0  0  0  0  0
   -6.0430   21.7290  -32.2310 N   0  0  0  0  0  0  0  0  0  0  0  0
   -4.6900   21.7080  -32.1460 C   0  0  0  0  0  0  0  0  0  0  0  0
   -3.8210   20.6330  -32.6610 C   0  0  0  0  0  0  0  0  0  0  0  0
   -2.7460   20.9470  -33.5060 C   0  0  0  0  0  0  0  0  0  0  0  0
   -1.9250   19.9310  -34.0060 C   0  0  0  0  0  0  0  0  0  0  0  0
   -2.1660   18.5990  -33.6550 C   0  0  0  0  0  0  0  0  0  0  0  0
   -3.2230   18.2830  -32.7970 C   0  0  0  0  0  0  0  0  0  0  0  0
   -4.0450   19.2960  -32.2940 C   0  0  0  0  0  0  0  0  0  0  0  0
   -4.2260   22.8680  -31.5620 C   0  0  0  0  0  0  0  0  0  0  0  0
   -5.3370   23.6310  -31.2580 C   0  0  0  0  0  0  0  0  0  0  0  0
   -5.2780   24.9470  -30.5820 C   0  0  0  0  0  0  0  0  0  0  0  0
   -6.3680   25.4420  -29.6840 C   0  0  0  0  0  0  0  0  0  0  0  0
   -4.2620   25.6740  -30.7510 O   0  0  0  0  0  0  0  0  0  0  0  0
   -6.4460   22.9190  -31.7170 C   0  0  0  0  0  0  0  0  0  0  0  0
   -7.8730   23.3960  -31.6990 C   0  0  0  0  0  0  0  0  0  0  0  0
   -4.1077   17.1673  -34.6761 H   0  0  0  0  0  0  0  0  0  0  0  0
   -5.2227   16.6535  -35.9874 H   0  0  0  0  0  0  0  0  0  0  0  0
   -4.5417   18.3157  -35.9874 H   0  0  0  0  0  0  0  0  0  0  0  0
   -5.8005   18.8765  -33.9590 H   0  0  0  0  0  0  0  0  0  0  0  0
   -6.9234   18.2130  -35.2282 H   0  0  0  0  0  0  0  0  0  0  0  0
   -7.4230   16.4770  -34.0090 H   0  0  0  0  0  0  0  0  0  0  0  0
   -4.5954   16.3005  -33.6751 H   0  0  0  0  0  0  0  0  0  0  0  0
   -5.5114   15.8256  -32.1809 H   0  0  0  0  0  0  0  0  0  0  0  0
   -6.0550   13.8525  -33.0870 H   0  0  0  0  0  0  0  0  0  0  0  0
   -6.7842   14.6689  -34.5112 H   0  0  0  0  0  0  0  0  0  0  0  0
   -5.0365   14.2538  -34.5112 H   0  0  0  0  0  0  0  0  0  0  0  0
   -8.5428   18.6778  -33.4216 H   0  0  0  0  0  0  0  0  0  0  0  0
   -8.9450   18.2359  -31.6935 H   0  0  0  0  0  0  0  0  0  0  0  0
   -8.7020   20.6091  -31.7742 H   0  0  0  0  0  0  0  0  0  0  0  0
   -7.2289   19.9126  -30.9702 H   0  0  0  0  0  0  0  0  0  0  0  0
   -6.2306   20.0001  -33.4178 H   0  0  0  0  0  0  0  0  0  0  0  0
   -7.5045   21.2504  -33.6643 H   0  0  0  0  0  0  0  0  0  0  0  0
   -2.5483   21.9949  -33.7760 H   0  0  0  0  0  0  0  0  0  0  0  0
   -1.0889   20.1800  -34.6760 H   0  0  0  0  0  0  0  0  0  0  0  0
   -1.5238   17.8001  -34.0541 H   0  0  0  0  0  0  0  0  0  0  0  0
   -3.4085   17.2355  -32.5170 H   0  0  0  0  0  0  0  0  0  0  0  0
   -4.8688   19.0453  -31.6095 H   0  0  0  0  0  0  0  0  0  0  0  0
   -3.1753   23.1341  -31.3746 H   0  0  0  0  0  0  0  0  0  0  0  0
   -6.0684   25.3060  -28.6344 H   0  0  0  0  0  0  0  0  0  0  0  0
   -6.5470   26.5097  -29.8788 H   0  0  0  0  0  0  0  0  0  0  0  0
   -7.2898   24.8742  -29.8788 H   0  0  0  0  0  0  0  0  0  0  0  0
   -8.2090   23.5083  -30.6576 H   0  0  0  0  0  0  0  0  0  0  0  0
   -7.9419   24.3660  -32.2131 H   0  0  0  0  0  0  0  0  0  0  0  0
   -8.5113   22.6624  -32.2131 H   0  0  0  0  0  0  0  0  0  0  0  0
  1  2  1  0
  2  3  1  0
  3  4  1  0
  4  5  1  0
  3  6  1  0
  6  7  2  0
  6  8  1  0
  8  9  1  0
  9 10  1  0
 10 11  1  0
 11 12  1  0
 12 13  1  0
 13 14  2  0
 14 15  1  0
 15 16  2  0
 16 17  1  0
 17 18  2  0
 12 19  2  0
 19 20  1  0
 20 21  1  0
 21 22  1  0
 21 23  2  0
 20 24  2  0
 24 25  1  0
 24 11  1  0
 18 13  1  0
  1 26  1  0
  1 27  1  0
  1 28  1  0
  2 29  1  0
  2 30  1  0
  3 31  1  0
  4 32  1  0
  4 33  1  0
  5 34  1  0
  5 35  1  0
  5 36  1  0
  8 37  1  0
  8 38  1  0
  9 39  1  0
  9 40  1  0
 10 41  1  0
 10 42  1  0
 14 43  1  0
 15 44  1  0
 16 45  1  0
 17 46  1  0
 18 47  1  0
 19 48  1  0
 22 49  1  0
 22 50  1  0
 22 51  1  0
 25 52  1  0
 25 53  1  0
 25 54  1  0
M  CHG  1   3   1
M  END
>  <UniqueID>  (19) 
19

>  <SMILES>  (19) 
CC[NH+](CC)C(=O)CCCn1c(-c2ccccc2)cc(C(C)=O)c1C

>  <Energy>  (19) 
80.50110691561353

>  <Genealogy>  (19) 
CC[NH+](CC)C(=O)CCCn1c(-c2ccccc2)cc(C(C)=O)c1C (protonated)
CC[NH+](CC)C(=O)CCCn1c(-c2ccccc2)cc(C(C)=O)c1C (3D coordinates assigned)
CC[NH+](CC)C(=O)CCCn1c(-c2ccccc2)cc(C(C)=O)c1C (optimized conformer: 80.50110691561353 kcal/mol)

>  <smiles>  (19) 
CCN(CC)C(=O)CCCn1c(-c2ccccc2)cc(C(C)=O)c1C

>  <score_type>  (19) 
oracle

>  <origin>  (19) 
adg

>  <m_score__min__energy>  (19) 
-7.9400000000000004

>  <m_primary>  (19) 
energy

$$$$
19:0
     RDKit          3D

 46 48  0  0  0  0  0  0  0  0999 V2000
   -9.0900   22.2820  -31.6350 Br  0  0  0  0  0  0  0  0  0  0  0  0
   -7.5540   23.4610  -31.5860 C   0  0  0  0  0  0  0  0  0  0  0  0
   -6.7720   23.2440  -30.2910 C   0  0  0  0  0  0  0  0  0  0  0  0
   -6.2260   24.5550  -29.6970 C   0  0  0  0  0  0  0  0  0  0  0  0
   -5.4190   25.4160  -30.6800 C   0  0  0  0  0  0  0  0  0  0  0  0
   -4.0770   24.9390  -30.8010 O   0  0  0  0  0  0  0  0  0  0  0  0
   -3.6640   23.6240  -30.5420 C   0  0  0  0  0  0  0  0  0  0  0  0
   -2.9740   23.2410  -29.3660 C   0  0  0  0  0  0  0  0  0  0  0  0
   -2.5310   21.9100  -29.1950 C   0  0  0  0  0  0  0  0  0  0  0  0
   -2.7760   20.9410  -30.1850 C   0  0  0  0  0  0  0  0  0  0  0  0
   -3.4850   21.3400  -31.3200 C   0  0  0  0  0  0  0  0  0  0  0  0
   -3.9190   22.6260  -31.4790 C   0  0  0  0  0  0  0  0  0  0  0  0
   -4.5160   22.6670  -32.7210 C   0  0  0  0  0  0  0  0  0  0  0  0
   -4.4260   21.4360  -33.2790 N   0  0  0  0  0  0  0  0  0  0  0  0
   -3.8000   20.6330  -32.4240 N   0  0  0  0  0  0  0  0  0  0  0  0
   -3.4550   19.2460  -32.7310 C   0  0  0  0  0  0  0  0  0  0  0  0
   -4.7060   18.3660  -32.8420 C   0  0  0  0  0  0  0  0  0  0  0  0
   -5.8940   19.0390  -32.2680 N   0  0  0  0  0  0  0  0  0  0  0  0
   -6.6440   18.1960  -31.3140 C   0  0  0  0  0  0  0  0  0  0  0  0
   -8.1010   18.1630  -31.7520 C   0  0  0  0  0  0  0  0  0  0  0  0
   -8.2330   19.3090  -32.7210 C   0  0  0  0  0  0  0  0  0  0  0  0
   -6.8480   19.4350  -33.3140 C   0  0  0  0  0  0  0  0  0  0  0  0
   -6.9022   23.2466  -32.4458 H   0  0  0  0  0  0  0  0  0  0  0  0
   -7.8976   24.5050  -31.6306 H   0  0  0  0  0  0  0  0  0  0  0  0
   -7.4384   22.7743  -29.5526 H   0  0  0  0  0  0  0  0  0  0  0  0
   -5.9097   22.6035  -30.5282 H   0  0  0  0  0  0  0  0  0  0  0  0
   -7.0787   25.1508  -29.3394 H   0  0  0  0  0  0  0  0  0  0  0  0
   -5.5325   24.2675  -28.8930 H   0  0  0  0  0  0  0  0  0  0  0  0
   -5.9025   25.3824  -31.6675 H   0  0  0  0  0  0  0  0  0  0  0  0
   -5.3899   26.4472  -30.2983 H   0  0  0  0  0  0  0  0  0  0  0  0
   -2.7814   23.9855  -28.5795 H   0  0  0  0  0  0  0  0  0  0  0  0
   -1.9897   21.6291  -28.2795 H   0  0  0  0  0  0  0  0  0  0  0  0
   -2.4218   19.9061  -30.0692 H   0  0  0  0  0  0  0  0  0  0  0  0
   -4.9855   23.5492  -33.1806 H   0  0  0  0  0  0  0  0  0  0  0  0
   -2.9113   19.2163  -33.6868 H   0  0  0  0  0  0  0  0  0  0  0  0
   -2.8312   18.8568  -31.9128 H   0  0  0  0  0  0  0  0  0  0  0  0
   -4.8966   18.1474  -33.9031 H   0  0  0  0  0  0  0  0  0  0  0  0
   -4.5276   17.4387  -32.2778 H   0  0  0  0  0  0  0  0  0  0  0  0
   -6.2319   17.1761  -31.3145 H   0  0  0  0  0  0  0  0  0  0  0  0
   -6.5622   18.6079  -30.2973 H   0  0  0  0  0  0  0  0  0  0  0  0
   -8.3366   17.2084  -32.2452 H   0  0  0  0  0  0  0  0  0  0  0  0
   -8.7939   18.2533  -30.9025 H   0  0  0  0  0  0  0  0  0  0  0  0
   -8.9747   19.0806  -33.5006 H   0  0  0  0  0  0  0  0  0  0  0  0
   -8.5783   20.2366  -32.2412 H   0  0  0  0  0  0  0  0  0  0  0  0
   -6.7489   18.7720  -34.1861 H   0  0  0  0  0  0  0  0  0  0  0  0
   -6.6571   20.4651  -33.6492 H   0  0  0  0  0  0  0  0  0  0  0  0
  1  2  1  0
  2  3  1  0
  3  4  1  0
  4  5  1  0
  5  6  1  0
  6  7  1  0
  7  8  2  0
  8  9  1  0
  9 10  2  0
 10 11  1  0
 11 12  2  0
 12 13  1  0
 13 14  2  0
 14 15  1  0
 15 16  1  0
 16 17  1  0
 17 18  1  0
 18 19  1  0
 19 20  1  0
 20 21  1  0
 21 22  1  0
 12  7  1  0
 22 18  1  0
 15 11  1  0
  2 23  1  0
  2 24  1  0
  3 25  1  0
  3 26  1  0
  4 27  1  0
  4 28  1  0
  5 29  1  0
  5 30  1  0
  8 31  1  0
  9 32  1  0
 10 33  1  0
 13 34  1  0
 16 35  1  0
 16 36  1  0
 17 37  1  0
 17 38  1  0
 19 39  1  0
 19 40  1  0
 20 41  1  0
 20 42  1  0
 21 43  1  0
 21 44  1  0
 22 45  1  0
 22 46  1  0
M  END
>  <UniqueID>  (20) 
20

>  <SMILES>  (20) 
BrCCCCOc1cccc2c1cnn2CCN1CCCC1

>  <Energy>  (20) 
81.25645893346375

>  <Genealogy>  (20) 
BrCCCCOc1cccc2c1cnn2CCN1CCCC1 (3D coordinates assigned)
BrCCCCOc1cccc2c1cnn2CCN1CCCC1 (nonaromatic ring conformer: 81.25645893346375 kcal/mol)

>  <smiles>  (20) 
BrCCCCOc1cccc2c1cnn2CCN1CCCC1

>  <score_type>  (20) 
oracle

>  <origin>  (20) 
adg

>  <m_score__min__energy>  (20) 
-8.1699999999999999

>  <m_primary>  (20) 
energy

$$$$
20:0
     RDKit          3D

 43 46  0  0  0  0  0  0  0  0999 V2000
   -2.5820   23.1530  -29.8940 C   0  0  0  0  0  0  0  0  0  0  0  0
   -3.9480   23.6020  -30.3470 C   0  0  0  0  0  0  0  0  0  0  0  0
   -4.5550   24.6820  -29.6830 C   0  0  0  0  0  0  0  0  0  0  0  0
   -5.8020   25.1580  -30.0930 C   0  0  0  0  0  0  0  0  0  0  0  0
   -6.4610   24.5600  -31.1670 C   0  0  0  0  0  0  0  0  0  0  0  0
   -5.8830   23.4730  -31.8250 C   0  0  0  0  0  0  0  0  0  0  0  0
   -4.6380   22.9660  -31.4130 C   0  0  0  0  0  0  0  0  0  0  0  0
   -4.0870   21.7950  -32.1290 C   0  0  0  0  0  0  0  0  0  0  0  0
   -4.8810   20.6760  -32.4050 C   0  0  0  0  0  0  0  0  0  0  0  0
   -4.3330   19.5830  -33.0930 C   0  0  0  0  0  0  0  0  0  0  0  0
   -5.1540   18.3750  -33.3640 C   0  0  0  0  0  0  0  0  0  0  0  0
   -4.6310   17.3120  -34.1250 C   0  0  0  0  0  0  0  0  0  0  0  0
   -5.4060   16.1750  -34.3790 C   0  0  0  0  0  0  0  0  0  0  0  0
   -6.7070   16.0880  -33.8790 C   0  0  0  0  0  0  0  0  0  0  0  0
   -7.2360   17.1360  -33.1230 C   0  0  0  0  0  0  0  0  0  0  0  0
   -6.4660   18.2740  -32.8650 C   0  0  0  0  0  0  0  0  0  0  0  0
   -2.9960   19.6480  -33.5140 C   0  0  0  0  0  0  0  0  0  0  0  0
   -2.2330   20.8010  -33.2580 C   0  0  0  0  0  0  0  0  0  0  0  0
   -0.8180   20.9150  -33.6940 C   0  0  0  0  0  0  0  0  0  0  0  0
    0.1490   20.0310  -33.1860 C   0  0  0  0  0  0  0  0  0  0  0  0
    1.4810   20.1390  -33.5870 C   0  0  0  0  0  0  0  0  0  0  0  0
    1.8460   21.1380  -34.4880 C   0  0  0  0  0  0  0  0  0  0  0  0
    0.9090   22.0000  -34.9630 N   0  0  0  0  0  0  0  0  0  0  0  0
   -0.3970   21.9150  -34.5920 C   0  0  0  0  0  0  0  0  0  0  0  0
   -2.8020   21.8310  -32.5720 N   0  0  0  0  0  0  0  0  0  0  0  0
   -2.5458   23.1411  -28.7947 H   0  0  0  0  0  0  0  0  0  0  0  0
   -2.3822   22.1419  -30.2784 H   0  0  0  0  0  0  0  0  0  0  0  0
   -1.8213   23.8484  -30.2784 H   0  0  0  0  0  0  0  0  0  0  0  0
   -4.0431   25.1564  -28.8328 H   0  0  0  0  0  0  0  0  0  0  0  0
   -6.2655   26.0062  -29.5680 H   0  0  0  0  0  0  0  0  0  0  0  0
   -7.4374   24.9454  -31.4959 H   0  0  0  0  0  0  0  0  0  0  0  0
   -6.4065   23.0088  -32.6738 H   0  0  0  0  0  0  0  0  0  0  0  0
   -5.9326   20.6535  -32.0831 H   0  0  0  0  0  0  0  0  0  0  0  0
   -3.6072   17.3758  -34.5222 H   0  0  0  0  0  0  0  0  0  0  0  0
   -4.9898   15.3484  -34.9735 H   0  0  0  0  0  0  0  0  0  0  0  0
   -7.3151   15.1938  -34.0807 H   0  0  0  0  0  0  0  0  0  0  0  0
   -8.2608   17.0661  -32.7296 H   0  0  0  0  0  0  0  0  0  0  0  0
   -6.8884   19.0958  -32.2681 H   0  0  0  0  0  0  0  0  0  0  0  0
   -2.5446   18.7966  -34.0445 H   0  0  0  0  0  0  0  0  0  0  0  0
   -0.1455   19.2504  -32.4691 H   0  0  0  0  0  0  0  0  0  0  0  0
    2.2365   19.4419  -33.1956 H   0  0  0  0  0  0  0  0  0  0  0  0
    2.8925   21.2286  -34.8145 H   0  0  0  0  0  0  0  0  0  0  0  0
   -1.1281   22.6310  -34.9955 H   0  0  0  0  0  0  0  0  0  0  0  0
  1  2  1  0
  2  3  2  0
  3  4  1  0
  4  5  2  0
  5  6  1  0
  6  7  2  0
  7  8  1  0
  8  9  2  0
  9 10  1  0
 10 11  1  0
 11 12  2  0
 12 13  1  0
 13 14  2  0
 14 15  1  0
 15 16  2  0
 10 17  2  0
 17 18  1  0
 18 19  1  0
 19 20  2  0
 20 21  1  0
 21 22  2  0
 22 23  1  0
 23 24  2  0
 18 25  2  0
  7  2  1  0
 25  8  1  0
 16 11  1  0
 24 19  1  0
  1 26  1  0
  1 27  1  0
  1 28  1  0
  3 29  1  0
  4 30  1  0
  5 31  1  0
  6 32  1  0
  9 33  1  0
 12 34  1  0
 13 35  1  0
 14 36  1  0
 15 37  1  0
 16 38  1  0
 17 39  1  0
 20 40  1  0
 21 41  1  0
 22 42  1  0
 24 43  1  0
M  END
>  <UniqueID>  (21) 
21

>  <SMILES>  (21) 
Cc1ccccc1-c1cc(-c2ccccc2)cc(-c2cccnc2)n1

>  <Energy>  (21) 
64.71087778311181

>  <Genealogy>  (21) 
Cc1ccccc1-c1cc(-c2ccccc2)cc(-c2cccnc2)n1 (3D coordinates assigned)
Cc1ccccc1-c1cc(-c2ccccc2)cc(-c2cccnc2)n1 (optimized conformer: 64.71087778311181 kcal/mol)

>  <smiles>  (21) 
Cc1ccccc1-c1cc(-c2ccccc2)cc(-c2cccnc2)n1

>  <score_type>  (21) 
oracle

>  <origin>  (21) 
adg

>  <m_score__min__energy>  (21) 
-8.4600000000000009

>  <m_primary>  (21) 
energy

$$$$
21:0
     RDKit          3D

 35 36  0  0  1  0  0  0  0  0999 V2000
   -9.1210   18.1740  -31.7550 C   0  0  0  0  0  0  0  0  0  0  0  0
   -9.1290   19.3650  -32.6880 C   0  0  0  0  0  0  0  0  0  0  0  0
   -8.2490   20.4400  -32.2120 N   0  0  0  0  0  0  0  0  0  0  0  0
   -6.9160   20.4040  -32.6370 C   0  0  0  0  0  0  0  0  0  0  0  0
   -6.6200   19.4100  -33.3980 O   0  0  0  0  0  0  0  0  0  0  0  0
   -5.8470   21.3140  -32.3390 C   0  0  0  0  0  0  0  0  0  0  0  0
   -4.5810   20.8750  -32.6070 N   0  0  0  0  0  0  0  0  0  0  0  0
   -3.4930   21.6320  -32.3920 C   0  0  0  0  0  0  0  0  0  0  0  0
   -2.1410   21.1010  -32.7040 C   0  0  0  0  0  0  0  0  0  0  0  0
   -3.6090   22.8760  -31.8950 N   0  0  0  0  0  0  0  0  0  0  0  0
   -4.8180   23.3880  -31.6020 C   0  0  0  0  0  0  0  0  0  0  0  0
   -4.9390   24.5790  -31.1240 N   0  0  0  0  0  0  0  0  0  0  0  0
   -4.8700   24.7160  -29.6950 C   0  0  0  0  0  0  0  0  0  0  0  0
   -3.5090   24.5480  -29.1460 C   0  0  0  0  0  0  0  0  0  0  0  0
   -3.1540   23.5210  -28.2940 C   0  0  0  0  0  0  0  0  0  0  0  0
   -1.8080   23.7140  -28.0080 C   0  0  0  0  0  0  0  0  0  0  0  0
   -1.4090   24.8320  -28.6880 C   0  0  0  0  0  0  0  0  0  0  0  0
   -2.4320   25.2830  -29.3360 O   0  0  0  0  0  0  0  0  0  0  0  0
   -5.9450   22.5820  -31.8340 C   0  0  0  0  0  0  0  0  0  0  0  0
   -7.6170   23.3630  -31.4490 Br  0  0  0  0  0  0  0  0  0  0  0  0
   -9.1234   18.5249  -30.7125 H   0  0  0  0  0  0  0  0  0  0  0  0
  -10.0150   17.5596  -31.9371 H   0  0  0  0  0  0  0  0  0  0  0  0
   -8.2188   17.5716  -31.9371 H   0  0  0  0  0  0  0  0  0  0  0  0
   -8.7879   19.0402  -33.6821 H   0  0  0  0  0  0  0  0  0  0  0  0
  -10.1554   19.7583  -32.7297 H   0  0  0  0  0  0  0  0  0  0  0  0
   -8.5810   21.1750  -31.5870 H   0  0  0  0  0  0  0  0  0  0  0  0
   -4.3980   19.9190  -32.9970 H   0  0  0  0  0  0  0  0  0  0  0  0
   -1.6046   20.8903  -31.7670 H   0  0  0  0  0  0  0  0  0  0  0  0
   -2.2370   20.1738  -33.2880 H   0  0  0  0  0  0  0  0  0  0  0  0
   -1.5803   21.8457  -33.2880 H   0  0  0  0  0  0  0  0  0  0  0  0
   -5.2318   25.7190  -29.4247 H   0  0  0  0  0  0  0  0  0  0  0  0
   -5.4902   23.9154  -29.2656 H   0  0  0  0  0  0  0  0  0  0  0  0
   -3.8030   22.7159  -27.9190 H   0  0  0  0  0  0  0  0  0  0  0  0
   -1.1814   23.0862  -27.3575 H   0  0  0  0  0  0  0  0  0  0  0  0
   -0.3993   25.2684  -28.6839 H   0  0  0  0  0  0  0  0  0  0  0  0
  1  2  1  0
  2  3  1  0
  3  4  1  0
  4  5  2  0
  4  6  1  0
  6  7  1  0
  7  8  1  0
  8  9  1  0
  8 10  2  0
 10 11  1  0
 11 12  2  0
 12 13  1  0
 13 14  1  0
 14 15  2  0
 15 16  1  0
 16 17  2  0
 17 18  1  0
 11 19  1  0
 19 20  1  0
 19  6  2  0
 18 14  1  0
  1 21  1  0
  1 22  1  0
  1 23  1  0
  2 24  1  0
  2 25  1  0
  3 26  1  0
  7 27  1  0
  9 28  1  0
  9 29  1  0
  9 30  1  0
 13 31  1  0
 13 32  1  0
 15 33  1  0
 16 34  1  0
 17 35  1  0
M  END
>  <smiles>  (22) 
CCNC(=O)c1[nH]c(C)nc(=NCc2ccco2)c1Br

>  <score_type>  (22) 
oracle

>  <origin>  (22) 
adg

>  <m_score__min__energy>  (22) 
-7.7699999999999996

>  <m_primary>  (22) 
energy

$$$$
22:0
     RDKit          3D

 49 52  0  0  0  0  0  0  0  0999 V2000
   -8.8700   18.7710  -31.5840 C   0  0  0  0  0  0  0  0  0  0  0  0
   -7.6910   19.1480  -32.4220 C   0  0  0  0  0  0  0  0  0  0  0  0
   -6.8420   18.2910  -33.0860 C   0  0  0  0  0  0  0  0  0  0  0  0
   -5.8500   19.0240  -33.6310 N   0  0  0  0  0  0  0  0  0  0  0  0
   -4.7000   18.4950  -34.3620 C   0  0  0  0  0  0  0  0  0  0  0  0
   -3.5140   18.3290  -33.4410 C   0  0  0  0  0  0  0  0  0  0  0  0
   -3.3440   17.2400  -32.9090 O   0  0  0  0  0  0  0  0  0  0  0  0
   -2.5790   19.4100  -33.1700 N   0  0  1  0  0  0  0  0  0  0  0  0
   -3.0120   20.6820  -33.8150 C   0  0  0  0  0  0  0  0  0  0  0  0
   -2.7290   21.9160  -32.9560 C   0  0  0  0  0  0  0  0  0  0  0  0
   -3.4590   21.7720  -31.6170 C   0  0  2  0  0  0  0  0  0  0  0  0
   -3.2180   22.9440  -30.7550 N   0  0  0  0  0  0  0  0  0  0  0  0
   -3.9690   24.0750  -30.6970 C   0  0  0  0  0  0  0  0  0  0  0  0
   -5.0110   24.2500  -31.3830 O   0  0  0  0  0  0  0  0  0  0  0  0
   -3.5020   25.0150  -29.8380 N   0  0  0  0  0  0  0  0  0  0  0  0
   -2.3970   24.4310  -29.3400 C   0  0  0  0  0  0  0  0  0  0  0  0
   -1.5150   24.9620  -28.4030 C   0  0  0  0  0  0  0  0  0  0  0  0
   -0.4110   24.1780  -28.0220 C   0  0  0  0  0  0  0  0  0  0  0  0
   -0.2200   22.8960  -28.5810 C   0  0  0  0  0  0  0  0  0  0  0  0
   -1.1280   22.3860  -29.5260 C   0  0  0  0  0  0  0  0  0  0  0  0
   -2.2160   23.1890  -29.8860 C   0  0  0  0  0  0  0  0  0  0  0  0
   -3.1260   20.4450  -30.8980 C   0  0  0  0  0  0  0  0  0  0  0  0
   -2.2370   19.4910  -31.7240 C   0  0  0  0  0  0  0  0  0  0  0  0
   -6.0020   20.3010  -33.3110 N   0  0  0  0  0  0  0  0  0  0  0  0
   -7.1280   20.4020  -32.5790 C   0  0  0  0  0  0  0  0  0  0  0  0
   -7.6160   21.6780  -31.9770 C   0  0  0  0  0  0  0  0  0  0  0  0
   -8.6054   18.8556  -30.5197 H   0  0  0  0  0  0  0  0  0  0  0  0
   -9.7096   19.4455  -31.8078 H   0  0  0  0  0  0  0  0  0  0  0  0
   -9.1625   17.7345  -31.8078 H   0  0  0  0  0  0  0  0  0  0  0  0
   -6.9535   17.1991  -33.1591 H   0  0  0  0  0  0  0  0  0  0  0  0
   -4.9635   17.5173  -34.7916 H   0  0  0  0  0  0  0  0  0  0  0  0
   -4.4320   19.2023  -35.1607 H   0  0  0  0  0  0  0  0  0  0  0  0
   -1.6790   19.1450  -33.6430 H   0  0  0  0  0  0  0  0  0  0  0  0
   -4.0942   20.6279  -34.0046 H   0  0  0  0  0  0  0  0  0  0  0  0
   -2.4362   20.7908  -34.7459 H   0  0  0  0  0  0  0  0  0  0  0  0
   -3.0871   22.8168  -33.4759 H   0  0  0  0  0  0  0  0  0  0  0  0
   -1.6468   22.0055  -32.7806 H   0  0  0  0  0  0  0  0  0  0  0  0
   -4.5359   21.7340  -31.8381 H   0  0  0  0  0  0  0  0  0  0  0  0
   -1.6762   25.9622  -27.9745 H   0  0  0  0  0  0  0  0  0  0  0  0
    0.3072   24.5659  -27.2846 H   0  0  0  0  0  0  0  0  0  0  0  0
    0.6462   22.2909  -28.2749 H   0  0  0  0  0  0  0  0  0  0  0  0
   -0.9876   21.3884  -29.9678 H   0  0  0  0  0  0  0  0  0  0  0  0
   -4.0700   19.9283  -30.6703 H   0  0  0  0  0  0  0  0  0  0  0  0
   -2.5582   20.7065  -29.9929 H   0  0  0  0  0  0  0  0  0  0  0  0
   -2.3272   18.4823  -31.2946 H   0  0  0  0  0  0  0  0  0  0  0  0
   -1.2162   19.8973  -31.6709 H   0  0  0  0  0  0  0  0  0  0  0  0
   -7.5865   21.6008  -30.8801 H   0  0  0  0  0  0  0  0  0  0  0  0
   -6.9717   22.5075  -32.3037 H   0  0  0  0  0  0  0  0  0  0  0  0
   -8.6494   21.8659  -32.3037 H   0  0  0  0  0  0  0  0  0  0  0  0
  1  2  1  0
  2  3  2  0
  3  4  1  0
  4  5  1  0
  5  6  1  0
  6  7  2  0
  6  8  1  0
  8  9  1  0
  9 10  1  0
 10 11  1  0
 11 12  1  0
 12 13  1  0
 13 14  2  0
 13 15  1  0
 15 16  1  0
 16 17  2  0
 17 18  1  0
 18 19  2  0
 19 20  1  0
 20 21  2  0
 11 22  1  0
 22 23  1  0
  4 24  1  0
 24 25  2  0
 25 26  1  0
 25  2  1  0
 23  8  1  0
 21 12  1  0
 21 16  1  0
  1 27  1  0
  1 28  1  0
  1 29  1  0
  3 30  1  0
  5 31  1  0
  5 32  1  0
  8 33  1  6
  9 34  1  0
  9 35  1  0
 10 36  1  0
 10 37  1  0
 11 38  1  6
 17 39  1  0
 18 40  1  0
 19 41  1  0
 20 42  1  0
 22 43  1  0
 22 44  1  0
 23 45  1  0
 23 46  1  0
 26 47  1  0
 26 48  1  0
 26 49  1  0
M  CHG  2   8   1  15  -1
M  END
>  <UniqueID>  (23) 
22

>  <SMILES>  (23) 
Cc1cn(CC(=O)[NH+]2CCC(n3c(=O)[n-]c4ccccc43)CC2)nc1C

>  <Energy>  (23) 
130.05032870616643

>  <Genealogy>  (23) 
Cc1cn(CC(=O)[NH+]2CCC(n3c(=O)[n-]c4ccccc43)CC2)nc1C (protonated)
Cc1cn(CC(=O)[NH+]2CCC(n3c(=O)[n-]c4ccccc43)CC2)nc1C (3D coordinates assigned)
Cc1cn(CC(=O)[NH+]2CCC(n3c(=O)[n-]c4ccccc43)CC2)nc1C (nonaromatic ring conformer: 130.05032870616643 kcal/mol)

>  <smiles>  (23) 
Cc1cn(CC(=O)N2CCC(n3c(=O)[nH]c4ccccc43)CC2)nc1C

>  <score_type>  (23) 
oracle

>  <origin>  (23) 
adg

>  <m_score__min__energy>  (23) 
-9.8699999999999992

>  <m_primary>  (23) 
energy

$$$$
23:0
     RDKit          3D

 37 39  0  0  0  0  0  0  0  0999 V2000
   -3.8330   25.0330  -30.8390 N   0  0  0  0  0  0  0  0  0  0  0  0
   -5.3450   24.5120  -30.1860 S   0  0  0  0  0  0  0  0  0  0  0  0
   -6.3100   25.6650  -30.1780 O   0  0  0  0  0  0  0  0  0  0  0  0
   -5.1250   24.0360  -28.7780 O   0  0  0  0  0  0  0  0  0  0  0  0
   -6.0020   23.2060  -31.1670 C   0  0  0  0  0  0  0  0  0  0  0  0
   -5.1520   22.4060  -31.9430 C   0  0  0  0  0  0  0  0  0  0  0  0
   -5.6750   21.3640  -32.7130 C   0  0  0  0  0  0  0  0  0  0  0  0
   -7.0580   21.1100  -32.7200 C   0  0  0  0  0  0  0  0  0  0  0  0
   -7.5950   20.0150  -33.4900 N   0  0  0  0  0  0  0  0  0  0  0  0
   -7.6000   18.7880  -32.6840 C   0  0  0  0  0  0  0  0  0  0  0  0
   -6.5230   17.8570  -33.1430 C   0  0  0  0  0  0  0  0  0  0  0  0
   -5.9810   17.8740  -34.3750 N   0  0  0  0  0  0  0  0  0  0  0  0
   -5.0520   16.9310  -34.3820 N   0  0  0  0  0  0  0  0  0  0  0  0
   -5.0590   16.3770  -33.1520 C   0  0  0  0  0  0  0  0  0  0  0  0
   -4.1720   15.2780  -32.7150 C   0  0  0  0  0  0  0  0  0  0  0  0
   -4.6600   14.3090  -31.8180 C   0  0  0  0  0  0  0  0  0  0  0  0
   -3.8400   13.2610  -31.3920 C   0  0  0  0  0  0  0  0  0  0  0  0
   -2.5260   13.1670  -31.8560 C   0  0  0  0  0  0  0  0  0  0  0  0
   -2.0290   14.1210  -32.7460 C   0  0  0  0  0  0  0  0  0  0  0  0
   -2.8430   15.1740  -33.1780 C   0  0  0  0  0  0  0  0  0  0  0  0
   -2.3290   16.0820  -34.0440 F   0  0  0  0  0  0  0  0  0  0  0  0
   -5.9600   16.9470  -32.3860 O   0  0  0  0  0  0  0  0  0  0  0  0
   -7.9030   21.9040  -31.9260 C   0  0  0  0  0  0  0  0  0  0  0  0
   -7.3780   22.9460  -31.1560 C   0  0  0  0  0  0  0  0  0  0  0  0
   -3.8740   26.0750  -30.9140 H   0  0  0  0  0  0  0  0  0  0  0  0
   -4.0691   22.5993  -31.9458 H   0  0  0  0  0  0  0  0  0  0  0  0
   -5.0011   20.7388  -33.3171 H   0  0  0  0  0  0  0  0  0  0  0  0
   -7.0140   19.8710  -34.3510 H   0  0  0  0  0  0  0  0  0  0  0  0
   -8.5710   20.2430  -33.7940 H   0  0  0  0  0  0  0  0  0  0  0  0
   -7.4294   19.0471  -31.6287 H   0  0  0  0  0  0  0  0  0  0  0  0
   -8.5742   18.2902  -32.7988 H   0  0  0  0  0  0  0  0  0  0  0  0
   -5.6943   14.3774  -31.4498 H   0  0  0  0  0  0  0  0  0  0  0  0
   -4.2298   12.5090  -30.6902 H   0  0  0  0  0  0  0  0  0  0  0  0
   -1.8823   12.3408  -31.5200 H   0  0  0  0  0  0  0  0  0  0  0  0
   -0.9935   14.0446  -33.1090 H   0  0  0  0  0  0  0  0  0  0  0  0
   -8.9846   21.7043  -31.9103 H   0  0  0  0  0  0  0  0  0  0  0  0
   -8.0478   23.5636  -30.5396 H   0  0  0  0  0  0  0  0  0  0  0  0
  1  2  1  0
  2  3  2  0
  2  4  2  0
  2  5  1  0
  5  6  2  0
  6  7  1  0
  7  8  2  0
  8  9  1  0
  9 10  1  0
 10 11  1  0
 11 12  2  0
 12 13  1  0
 13 14  2  0
 14 15  1  0
 15 16  2  0
 16 17  1  0
 17 18  2  0
 18 19  1  0
 19 20  2  0
 20 21  1  0
 14 22  1  0
  8 23  1  0
 23 24  2  0
 24  5  1  0
 22 11  1  0
 20 15  1  0
  1 25  1  0
  6 26  1  0
  7 27  1  0
  9 28  1  0
  9 29  1  0
 10 30  1  0
 10 31  1  0
 16 32  1  0
 17 33  1  0
 18 34  1  0
 19 35  1  0
 23 36  1  0
 24 37  1  0
M  CHG  2   1  -1   9   1
M  END
>  <UniqueID>  (24) 
23

>  <SMILES>  (24) 
[NH-]S(=O)(=O)c1ccc([NH2+]Cc2nnc(-c3ccccc3F)o2)cc1

>  <Energy>  (24) 
74.40919414262557

>  <Genealogy>  (24) 
[NH-]S(=O)(=O)c1ccc([NH2+]Cc2nnc(-c3ccccc3F)o2)cc1 (protonated)
[NH-]S(=O)(=O)c1ccc([NH2+]Cc2nnc(-c3ccccc3F)o2)cc1 (3D coordinates assigned)
[NH-]S(=O)(=O)c1ccc([NH2+]Cc2nnc(-c3ccccc3F)o2)cc1 (optimized conformer: 74.40919414262557 kcal/mol)

>  <smiles>  (24) 
NS(=O)(=O)c1ccc(NCc2nnc(-c3ccccc3F)o2)cc1

>  <score_type>  (24) 
oracle

>  <origin>  (24) 
adg

>  <m_score__min__energy>  (24) 
-9.9800000000000004

>  <m_primary>  (24) 
energy

$$$$
24:0
     RDKit          3D

 29 30  0  0  0  0  0  0  0  0999 V2000
   -8.4310   22.2610  -31.5840 C   0  0  0  0  0  0  0  0  0  0  0  0
   -7.1380   22.9770  -31.3180 C   0  0  0  0  0  0  0  0  0  0  0  0
   -7.1270   24.1620  -30.5660 C   0  0  0  0  0  0  0  0  0  0  0  0
   -5.9200   24.8140  -30.2950 C   0  0  0  0  0  0  0  0  0  0  0  0
   -4.7120   24.2970  -30.7740 C   0  0  0  0  0  0  0  0  0  0  0  0
   -3.4920   24.9850  -30.4660 N   0  0  0  0  0  0  0  0  0  0  0  0
   -2.5910   24.6730  -29.3920 C   0  0  0  0  0  0  0  0  0  0  0  0
   -1.8240   25.5770  -28.9690 O   0  0  0  0  0  0  0  0  0  0  0  0
   -2.5020   23.3130  -28.8110 C   0  0  0  0  0  0  0  0  0  0  0  0
   -3.5830   22.7790  -28.0950 C   0  0  0  0  0  0  0  0  0  0  0  0
   -3.4860   21.4970  -27.5470 C   0  0  0  0  0  0  0  0  0  0  0  0
   -2.3430   20.7680  -27.6960 N   0  0  0  0  0  0  0  0  0  0  0  0
   -2.2510   19.5030  -27.1540 O   0  0  0  0  0  0  0  0  0  0  0  0
   -1.2740   21.2720  -28.3720 C   0  0  0  0  0  0  0  0  0  0  0  0
   -1.3310   22.5490  -28.9360 C   0  0  0  0  0  0  0  0  0  0  0  0
   -4.7170   23.0890  -31.4940 C   0  0  0  0  0  0  0  0  0  0  0  0
   -5.9230   22.4350  -31.7670 C   0  0  0  0  0  0  0  0  0  0  0  0
   -5.9020   21.2680  -32.4600 F   0  0  0  0  0  0  0  0  0  0  0  0
   -8.9074   21.9972  -30.6283 H   0  0  0  0  0  0  0  0  0  0  0  0
   -9.1014   22.9164  -32.1593 H   0  0  0  0  0  0  0  0  0  0  0  0
   -8.2313   21.3450  -32.1593 H   0  0  0  0  0  0  0  0  0  0  0  0
   -8.0719   24.5796  -30.1882 H   0  0  0  0  0  0  0  0  0  0  0  0
   -5.9206   25.7398  -29.7010 H   0  0  0  0  0  0  0  0  0  0  0  0
   -4.5037   23.3668  -27.9652 H   0  0  0  0  0  0  0  0  0  0  0  0
   -4.3363   21.0735  -26.9924 H   0  0  0  0  0  0  0  0  0  0  0  0
   -2.8560   19.2070  -26.3960 H   0  0  0  0  0  0  0  0  0  0  0  0
   -0.3593   20.6697  -28.4748 H   0  0  0  0  0  0  0  0  0  0  0  0
   -0.4622   22.9539  -29.4756 H   0  0  0  0  0  0  0  0  0  0  0  0
   -3.7682   22.6564  -31.8441 H   0  0  0  0  0  0  0  0  0  0  0  0
  1  2  1  0
  2  3  2  0
  3  4  1  0
  4  5  2  0
  5  6  1  0
  6  7  1  0
  7  8  2  0
  7  9  1  0
  9 10  2  0
 10 11  1  0
 11 12  2  0
 12 13  1  0
 12 14  1  0
 14 15  2  0
  5 16  1  0
 16 17  2  0
 17 18  1  0
 17  2  1  0
 15  9  1  0
  1 19  1  0
  1 20  1  0
  1 21  1  0
  3 22  1  0
  4 23  1  0
 10 24  1  0
 11 25  1  0
 13 26  1  0
 14 27  1  0
 15 28  1  0
 16 29  1  0
M  CHG  2   6  -1  12   1
M  END
>  <UniqueID>  (25) 
24

>  <SMILES>  (25) 
Cc1ccc([N-]C(=O)c2cc[n+](O)cc2)cc1F

>  <Energy>  (25) 
36.08169609179292

>  <Genealogy>  (25) 
Cc1ccc([N-]C(=O)c2cc[n+](O)cc2)cc1F (protonated)
Cc1ccc([N-]C(=O)c2cc[n+](O)cc2)cc1F (3D coordinates assigned)
Cc1ccc([N-]C(=O)c2cc[n+](O)cc2)cc1F (optimized conformer: 36.08169609179292 kcal/mol)

>  <smiles>  (25) 
Cc1ccc(NC(=O)c2cc[n+]([O-])cc2)cc1F

>  <score_type>  (25) 
oracle

>  <origin>  (25) 
adg

>  <m_score__min__energy>  (25) 
-8.0299999999999994

>  <m_primary>  (25) 
energy

$$$$
25:0
     RDKit          3D

 32 34  0  0  0  0  0  0  0  0999 V2000
   -4.3190   23.3530  -29.8000 C   0  0  0  0  0  0  0  0  0  0  0  0
   -4.1340   23.3490  -31.2110 O   0  0  0  0  0  0  0  0  0  0  0  0
   -3.7290   22.2300  -31.9580 C   0  0  0  0  0  0  0  0  0  0  0  0
   -2.3690   21.9180  -32.1550 C   0  0  0  0  0  0  0  0  0  0  0  0
   -2.0010   20.8080  -32.9210 C   0  0  0  0  0  0  0  0  0  0  0  0
   -2.9820   20.0020  -33.5010 C   0  0  0  0  0  0  0  0  0  0  0  0
   -4.3330   20.2980  -33.3120 C   0  0  0  0  0  0  0  0  0  0  0  0
   -4.7140   21.3990  -32.5310 C   0  0  0  0  0  0  0  0  0  0  0  0
   -6.1550   21.6970  -32.3560 C   0  0  0  0  0  0  0  0  0  0  0  0
   -6.5480   23.0040  -32.3120 N   0  0  0  0  0  0  0  0  0  0  0  0
   -7.8440   23.3620  -32.1240 C   0  0  0  0  0  0  0  0  0  0  0  0
   -8.8300   22.3900  -31.9720 C   0  0  0  0  0  0  0  0  0  0  0  0
   -8.4790   21.0380  -32.0290 C   0  0  0  0  0  0  0  0  0  0  0  0
   -9.4620   20.0450  -31.8930 C   0  0  0  0  0  0  0  0  0  0  0  0
   -9.1150   18.6960  -31.9710 C   0  0  0  0  0  0  0  0  0  0  0  0
   -7.7870   18.3260  -32.1900 C   0  0  0  0  0  0  0  0  0  0  0  0
   -6.7960   19.3020  -32.3250 C   0  0  0  0  0  0  0  0  0  0  0  0
   -7.1250   20.6710  -32.2320 C   0  0  0  0  0  0  0  0  0  0  0  0
   -3.3386   23.3318  -29.3016 H   0  0  0  0  0  0  0  0  0  0  0  0
   -4.8613   24.2631  -29.5039 H   0  0  0  0  0  0  0  0  0  0  0  0
   -4.9001   22.4672  -29.5039 H   0  0  0  0  0  0  0  0  0  0  0  0
   -1.5919   22.5520  -31.7031 H   0  0  0  0  0  0  0  0  0  0  0  0
   -0.9371   20.5695  -33.0668 H   0  0  0  0  0  0  0  0  0  0  0  0
   -2.6900   19.1323  -34.1079 H   0  0  0  0  0  0  0  0  0  0  0  0
   -5.1025   19.6648  -33.7778 H   0  0  0  0  0  0  0  0  0  0  0  0
   -5.8350   23.7630  -32.4100 H   0  0  0  0  0  0  0  0  0  0  0  0
   -8.1173   24.4270  -32.0915 H   0  0  0  0  0  0  0  0  0  0  0  0
   -9.8773   22.6841  -31.8083 H   0  0  0  0  0  0  0  0  0  0  0  0
  -10.5104   20.3318  -31.7242 H   0  0  0  0  0  0  0  0  0  0  0  0
   -9.8892   17.9226  -31.8597 H   0  0  0  0  0  0  0  0  0  0  0  0
   -7.5193   17.2612  -32.2566 H   0  0  0  0  0  0  0  0  0  0  0  0
   -5.7533   19.0013  -32.5048 H   0  0  0  0  0  0  0  0  0  0  0  0
  1  2  1  0
  2  3  1  0
  3  4  2  0
  4  5  1  0
  5  6  2  0
  6  7  1  0
  7  8  2  0
  8  9  1  0
  9 10  2  0
 10 11  1  0
 11 12  2  0
 12 13  1  0
 13 14  2  0
 14 15  1  0
 15 16  2  0
 16 17  1  0
 17 18  2  0
  8  3  1  0
 18  9  1  0
 18 13  1  0
  1 19  1  0
  1 20  1  0
  1 21  1  0
  4 22  1  0
  5 23  1  0
  6 24  1  0
  7 25  1  0
 10 26  1  0
 11 27  1  0
 12 28  1  0
 14 29  1  0
 15 30  1  0
 16 31  1  0
 17 32  1  0
M  CHG  1  10   1
M  END
>  <UniqueID>  (26) 
25

>  <SMILES>  (26) 
COc1ccccc1-c1[nH+]ccc2ccccc12

>  <Energy>  (26) 
46.04035231319856

>  <Genealogy>  (26) 
COc1ccccc1-c1[nH+]ccc2ccccc12 (protonated)
COc1ccccc1-c1[nH+]ccc2ccccc12 (3D coordinates assigned)
COc1ccccc1-c1[nH+]ccc2ccccc12 (optimized conformer: 46.04035231319856 kcal/mol)

>  <smiles>  (26) 
COc1ccccc1-c1nccc2ccccc12

>  <score_type>  (26) 
oracle

>  <origin>  (26) 
adg

>  <m_score__min__energy>  (26) 
-6.3499999999999996

>  <m_primary>  (26) 
energy

$$$$
26:0
     RDKit          3D

 44 47  0  0  0  0  0  0  0  0999 V2000
   -4.6570   15.8540  -34.2400 C   0  0  0  0  0  0  0  0  0  0  0  0
   -3.6610   16.7600  -34.7020 O   0  0  0  0  0  0  0  0  0  0  0  0
   -3.3840   18.0010  -34.1090 C   0  0  0  0  0  0  0  0  0  0  0  0
   -2.0710   18.4670  -33.9100 C   0  0  0  0  0  0  0  0  0  0  0  0
   -1.8480   19.7130  -33.3160 C   0  0  0  0  0  0  0  0  0  0  0  0
   -2.9290   20.5080  -32.9080 C   0  0  0  0  0  0  0  0  0  0  0  0
   -2.6820   21.8710  -32.3240 C   0  0  0  0  0  0  0  0  0  0  0  0
   -1.5140   21.8240  -31.4510 N   0  0  0  0  0  0  0  0  0  0  0  0
   -1.6510   21.5360  -30.0530 C   0  0  0  0  0  0  0  0  0  0  0  0
   -0.9310   20.4680  -29.4960 C   0  0  0  0  0  0  0  0  0  0  0  0
   -1.0790   20.1410  -28.1470 C   0  0  0  0  0  0  0  0  0  0  0  0
   -1.9560   20.8710  -27.3430 C   0  0  0  0  0  0  0  0  0  0  0  0
   -2.6880   21.9300  -27.8880 C   0  0  0  0  0  0  0  0  0  0  0  0
   -2.5360   22.2780  -29.2400 C   0  0  0  0  0  0  0  0  0  0  0  0
   -3.3810   23.3490  -29.7990 C   0  0  0  0  0  0  0  0  0  0  0  0
   -3.1120   24.7110  -29.8540 C   0  0  0  0  0  0  0  0  0  0  0  0
   -1.9680   25.3140  -29.3450 O   0  0  0  0  0  0  0  0  0  0  0  0
   -4.1120   25.4100  -30.4420 N   0  0  0  0  0  0  0  0  0  0  0  0
   -5.0280   24.4710  -30.7510 C   0  0  0  0  0  0  0  0  0  0  0  0
   -6.2530   24.6820  -31.3820 C   0  0  0  0  0  0  0  0  0  0  0  0
   -7.0760   23.5650  -31.6140 C   0  0  0  0  0  0  0  0  0  0  0  0
   -6.6620   22.2750  -31.2210 C   0  0  0  0  0  0  0  0  0  0  0  0
   -5.4190   22.0880  -30.5890 C   0  0  0  0  0  0  0  0  0  0  0  0
   -4.6270   23.2140  -30.3680 C   0  0  0  0  0  0  0  0  0  0  0  0
   -4.2390   20.0510  -33.1230 C   0  0  0  0  0  0  0  0  0  0  0  0
   -4.4610   18.8020  -33.7090 C   0  0  0  0  0  0  0  0  0  0  0  0
   -4.6646   15.8471  -33.1400 H   0  0  0  0  0  0  0  0  0  0  0  0
   -5.6424   16.1718  -34.6115 H   0  0  0  0  0  0  0  0  0  0  0  0
   -4.4337   14.8430  -34.6115 H   0  0  0  0  0  0  0  0  0  0  0  0
   -1.2169   17.8486  -34.2230 H   0  0  0  0  0  0  0  0  0  0  0  0
   -0.8188   20.0718  -33.1678 H   0  0  0  0  0  0  0  0  0  0  0  0
   -2.5033   22.5907  -33.1365 H   0  0  0  0  0  0  0  0  0  0  0  0
   -3.5612   22.1843  -31.7420 H   0  0  0  0  0  0  0  0  0  0  0  0
   -0.6510   22.3060  -31.7850 H   0  0  0  0  0  0  0  0  0  0  0  0
   -0.2449   19.8841  -30.1271 H   0  0  0  0  0  0  0  0  0  0  0  0
   -0.5041   19.3075  -27.7173 H   0  0  0  0  0  0  0  0  0  0  0  0
   -2.0712   20.6128  -26.2799 H   0  0  0  0  0  0  0  0  0  0  0  0
   -3.3875   22.4943  -27.2538 H   0  0  0  0  0  0  0  0  0  0  0  0
   -6.5664   25.6907  -31.6890 H   0  0  0  0  0  0  0  0  0  0  0  0
   -8.0507   23.6986  -32.1061 H   0  0  0  0  0  0  0  0  0  0  0  0
   -7.3149   21.4101  -31.4098 H   0  0  0  0  0  0  0  0  0  0  0  0
   -5.0833   21.0872  -30.2797 H   0  0  0  0  0  0  0  0  0  0  0  0
   -5.0935   20.6783  -32.8292 H   0  0  0  0  0  0  0  0  0  0  0  0
   -5.4907   18.4448  -33.8574 H   0  0  0  0  0  0  0  0  0  0  0  0
  1  2  1  0
  2  3  1  0
  3  4  2  0
  4  5  1  0
  5  6  2  0
  6  7  1  0
  7  8  1  0
  8  9  1  0
  9 10  2  0
 10 11  1  0
 11 12  2  0
 12 13  1  0
 13 14  2  0
 14 15  1  0
 15 16  2  0
 16 17  1  0
 16 18  1  0
 18 19  1  0
 19 20  2  0
 20 21  1  0
 21 22  2  0
 22 23  1  0
 23 24  2  0
  6 25  1  0
 25 26  2  0
 26  3  1  0
 14  9  1  0
 24 15  1  0
 24 19  1  0
  1 27  1  0
  1 28  1  0
  1 29  1  0
  4 30  1  0
  5 31  1  0
  7 32  1  0
  7 33  1  0
  8 34  1  0
 10 35  1  0
 11 36  1  0
 12 37  1  0
 13 38  1  0
 20 39  1  0
 21 40  1  0
 22 41  1  0
 23 42  1  0
 25 43  1  0
 26 44  1  0
M  CHG  2  17  -1  18  -1
M  END
>  <UniqueID>  (27) 
26

>  <SMILES>  (27) 
COc1ccc(CNc2ccccc2-c2c([O-])[n-]c3ccccc23)cc1

>  <Energy>  (27) 
84.823451204813

>  <Genealogy>  (27) 
COc1ccc(CNc2ccccc2-c2c([O-])[n-]c3ccccc23)cc1 (protonated)
COc1ccc(CNc2ccccc2-c2c([O-])[n-]c3ccccc23)cc1 (3D coordinates assigned)
COc1ccc(CNc2ccccc2-c2c([O-])[n-]c3ccccc23)cc1 (optimized conformer: 84.823451204813 kcal/mol)

>  <smiles>  (27) 
COc1ccc(CNc2ccccc2-c2c(O)[nH]c3ccccc23)cc1

>  <score_type>  (27) 
oracle

>  <origin>  (27) 
adg

>  <m_score__min__energy>  (27) 
-12.25

>  <m_primary>  (27) 
energy

$$$$
27:0
     RDKit          3D

 47 50  0  0  0  0  0  0  0  0999 V2000
   -8.0380   19.5540  -32.1510 C   0  0  0  0  0  0  0  0  0  0  0  0
   -8.0130   20.9390  -32.4800 O   0  0  0  0  0  0  0  0  0  0  0  0
   -7.2230   21.8950  -31.8230 C   0  0  0  0  0  0  0  0  0  0  0  0
   -7.6080   22.3090  -30.5440 C   0  0  0  0  0  0  0  0  0  0  0  0
   -6.8560   23.2610  -29.8480 C   0  0  0  0  0  0  0  0  0  0  0  0
   -5.7140   23.8290  -30.4350 C   0  0  0  0  0  0  0  0  0  0  0  0
   -4.8800   24.8320  -29.6770 C   0  0  0  0  0  0  0  0  0  0  0  0
   -3.5200   24.9290  -30.2250 N   0  0  0  0  0  0  0  0  0  0  0  0
   -2.7500   23.6770  -30.0950 C   0  0  0  0  0  0  0  0  0  0  0  0
   -2.0180   23.5750  -28.7520 C   0  0  0  0  0  0  0  0  0  0  0  0
   -1.3430   24.7220  -28.2600 C   0  0  0  0  0  0  0  0  0  0  0  0
   -1.3440   25.9360  -28.9660 O   0  0  0  0  0  0  0  0  0  0  0  0
   -0.6450   24.6760  -27.0420 C   0  0  0  0  0  0  0  0  0  0  0  0
    0.0260   25.8300  -26.5820 C   0  0  0  0  0  0  0  0  0  0  0  0
    0.7300   25.8180  -25.3810 C   0  0  0  0  0  0  0  0  0  0  0  0
    0.7790   24.6590  -24.6190 C   0  0  0  0  0  0  0  0  0  0  0  0
    0.1230   23.5060  -25.0500 C   0  0  0  0  0  0  0  0  0  0  0  0
   -0.6080   23.4850  -26.2690 C   0  0  0  0  0  0  0  0  0  0  0  0
   -1.2960   22.3270  -26.7370 C   0  0  0  0  0  0  0  0  0  0  0  0
   -1.3090   21.1140  -25.9970 C   0  0  0  0  0  0  0  0  0  0  0  0
   -1.9830   19.9900  -26.4600 C   0  0  0  0  0  0  0  0  0  0  0  0
   -2.6620   20.0330  -27.6640 C   0  0  0  0  0  0  0  0  0  0  0  0
   -2.6730   21.2020  -28.4180 C   0  0  0  0  0  0  0  0  0  0  0  0
   -2.0000   22.3720  -27.9820 C   0  0  0  0  0  0  0  0  0  0  0  0
   -5.3110   23.3940  -31.7070 C   0  0  0  0  0  0  0  0  0  0  0  0
   -6.0630   22.4420  -32.4020 C   0  0  0  0  0  0  0  0  0  0  0  0
   -8.0401   19.4369  -31.0573 H   0  0  0  0  0  0  0  0  0  0  0  0
   -8.9446   19.0937  -32.5708 H   0  0  0  0  0  0  0  0  0  0  0  0
   -7.1486   19.0613  -32.5708 H   0  0  0  0  0  0  0  0  0  0  0  0
   -8.5101   21.8822  -30.0813 H   0  0  0  0  0  0  0  0  0  0  0  0
   -7.1607   23.5661  -28.8360 H   0  0  0  0  0  0  0  0  0  0  0  0
   -5.3621   25.8186  -29.7416 H   0  0  0  0  0  0  0  0  0  0  0  0
   -4.8066   24.4983  -28.6314 H   0  0  0  0  0  0  0  0  0  0  0  0
   -3.0240   25.7020  -29.7230 H   0  0  0  0  0  0  0  0  0  0  0  0
   -3.4417   22.8264  -30.1853 H   0  0  0  0  0  0  0  0  0  0  0  0
   -1.9909   23.6672  -30.8911 H   0  0  0  0  0  0  0  0  0  0  0  0
   -1.6380   26.0580  -29.9230 H   0  0  0  0  0  0  0  0  0  0  0  0
   -0.0080   26.7518  -27.1812 H   0  0  0  0  0  0  0  0  0  0  0  0
    1.2467   26.7259  -25.0364 H   0  0  0  0  0  0  0  0  0  0  0  0
    1.3374   24.6497  -23.6713 H   0  0  0  0  0  0  0  0  0  0  0  0
    0.1723   22.5954  -24.4348 H   0  0  0  0  0  0  0  0  0  0  0  0
   -0.7742   21.0634  -25.0371 H   0  0  0  0  0  0  0  0  0  0  0  0
   -1.9763   19.0636  -25.8670 H   0  0  0  0  0  0  0  0  0  0  0  0
   -3.1944   19.1411  -28.0261 H   0  0  0  0  0  0  0  0  0  0  0  0
   -3.2161   21.2194  -29.3744 H   0  0  0  0  0  0  0  0  0  0  0  0
   -4.3969   23.8050  -32.1604 H   0  0  0  0  0  0  0  0  0  0  0  0
   -5.7467   22.1195  -33.4050 H   0  0  0  0  0  0  0  0  0  0  0  0
  1  2  1  0
  2  3  1  0
  3  4  2  0
  4  5  1  0
  5  6  2  0
  6  7  1  0
  7  8  1  0
  8  9  1  0
  9 10  1  0
 10 11  2  0
 11 12  1  0
 11 13  1  0
 13 14  2  0
 14 15  1  0
 15 16  2  0
 16 17  1  0
 17 18  2  0
 18 19  1  0
 19 20  2  0
 20 21  1  0
 21 22  2  0
 22 23  1  0
 23 24  2  0
  6 25  1  0
 25 26  2  0
 26  3  1  0
 24 10  1  0
 18 13  1  0
 24 19  1  0
  1 27  1  0
  1 28  1  0
  1 29  1  0
  4 30  1  0
  5 31  1  0
  7 32  1  0
  7 33  1  0
  8 34  1  0
  9 35  1  0
  9 36  1  0
 12 37  1  0
 14 38  1  0
 15 39  1  0
 16 40  1  0
 17 41  1  0
 20 42  1  0
 21 43  1  0
 22 44  1  0
 23 45  1  0
 25 46  1  0
 26 47  1  0
M  END
>  <UniqueID>  (28) 
27

>  <SMILES>  (28) 
COc1ccc(CNCc2c(O)c3ccccc3c3ccccc23)cc1

>  <Energy>  (28) 
72.90705872284477

>  <Genealogy>  (28) 
COc1ccc(CNCc2c(O)c3ccccc3c3ccccc23)cc1 (3D coordinates assigned)
COc1ccc(CNCc2c(O)c3ccccc3c3ccccc23)cc1 (optimized conformer: 72.90705872284477 kcal/mol)

>  <smiles>  (28) 
COc1ccc(CNCc2c(O)c3ccccc3c3ccccc23)cc1

>  <score_type>  (28) 
oracle

>  <origin>  (28) 
adg

>  <m_score__min__energy>  (28) 
-9.7300000000000004

>  <m_primary>  (28) 
energy

$$$$
28:0
     RDKit          3D

 47 48  0  0  1  0  0  0  0  0999 V2000
   -3.2570   23.8760  -29.5420 C   0  0  0  0  0  0  0  0  0  0  0  0
   -3.9390   23.4460  -30.8010 C   0  0  0  0  0  0  0  0  0  0  0  0
   -4.9870   24.2990  -31.2260 N   0  0  0  0  0  0  0  0  0  0  0  0
   -4.9840   25.5450  -30.3950 C   0  0  0  0  0  0  0  0  0  0  0  0
   -6.2960   25.6620  -29.6790 C   0  0  0  0  0  0  0  0  0  0  0  0
   -6.3090   23.7820  -31.1670 C   0  0  0  0  0  0  0  0  0  0  0  0
   -6.4780   22.4850  -30.4830 C   0  0  0  0  0  0  0  0  0  0  0  0
   -7.9910   22.2830  -30.2820 C   0  0  0  0  0  0  0  0  0  0  0  0
   -8.5990   22.4050  -31.6670 C   0  0  0  0  0  0  0  0  0  0  0  0
   -8.9220   20.7420  -32.3150 S   0  0  0  0  0  0  0  0  0  0  0  0
   -7.3660   20.0710  -32.8830 C   0  0  0  0  0  0  0  0  0  0  0  0
   -6.2490   20.8190  -32.7680 N   0  0  0  0  0  0  0  0  0  0  0  0
   -5.0380   20.3380  -33.1790 C   0  0  0  0  0  0  0  0  0  0  0  0
   -3.9180   21.1020  -33.0420 N   0  0  0  0  0  0  0  0  0  0  0  0
   -2.7500   20.5780  -33.4430 C   0  0  0  0  0  0  0  0  0  0  0  0
   -2.5850   19.3370  -33.9770 C   0  0  0  0  0  0  0  0  0  0  0  0
   -3.7290   18.5260  -34.1300 C   0  0  0  0  0  0  0  0  0  0  0  0
   -4.9030   19.0750  -33.7250 C   0  0  0  0  0  0  0  0  0  0  0  0
   -6.0540   18.3450  -33.8340 C   0  0  0  0  0  0  0  0  0  0  0  0
   -6.0770   17.2650  -34.4710 N   0  0  0  0  0  0  0  0  0  0  0  0
   -6.4270   15.9570  -34.0890 C   0  0  0  0  0  0  0  0  0  0  0  0
   -7.2460   18.8420  -33.4160 N   0  0  0  0  0  0  0  0  0  0  0  0
   -3.8285   23.5157  -28.6739 H   0  0  0  0  0  0  0  0  0  0  0  0
   -2.2413   23.4546  -29.5129 H   0  0  0  0  0  0  0  0  0  0  0  0
   -3.1994   24.9741  -29.5129 H   0  0  0  0  0  0  0  0  0  0  0  0
   -3.1858   23.4031  -31.6015 H   0  0  0  0  0  0  0  0  0  0  0  0
   -4.3992   22.4698  -30.5880 H   0  0  0  0  0  0  0  0  0  0  0  0
   -4.1668   25.4955  -29.6603 H   0  0  0  0  0  0  0  0  0  0  0  0
   -4.8367   26.4216  -31.0430 H   0  0  0  0  0  0  0  0  0  0  0  0
   -6.1235   25.6466  -28.5927 H   0  0  0  0  0  0  0  0  0  0  0  0
   -6.7838   26.6072  -29.9595 H   0  0  0  0  0  0  0  0  0  0  0  0
   -6.9433   24.8180  -29.9595 H   0  0  0  0  0  0  0  0  0  0  0  0
   -6.9337   24.5203  -30.6429 H   0  0  0  0  0  0  0  0  0  0  0  0
   -6.5978   23.6000  -32.2127 H   0  0  0  0  0  0  0  0  0  0  0  0
   -6.0664   21.6739  -31.1017 H   0  0  0  0  0  0  0  0  0  0  0  0
   -5.9466   22.4740  -29.5199 H   0  0  0  0  0  0  0  0  0  0  0  0
   -8.1940   21.2883  -29.8584 H   0  0  0  0  0  0  0  0  0  0  0  0
   -8.4136   23.0192  -29.5824 H   0  0  0  0  0  0  0  0  0  0  0  0
   -9.5422   22.9680  -31.6080 H   0  0  0  0  0  0  0  0  0  0  0  0
   -7.9040   22.9364  -32.3338 H   0  0  0  0  0  0  0  0  0  0  0  0
   -1.8516   21.2028  -33.3310 H   0  0  0  0  0  0  0  0  0  0  0  0
   -1.5905   18.9776  -34.2799 H   0  0  0  0  0  0  0  0  0  0  0  0
   -3.6734   17.5114  -34.5514 H   0  0  0  0  0  0  0  0  0  0  0  0
   -6.4454   15.8881  -32.9913 H   0  0  0  0  0  0  0  0  0  0  0  0
   -7.4222   15.7122  -34.4885 H   0  0  0  0  0  0  0  0  0  0  0  0
   -5.6870   15.2479  -34.4885 H   0  0  0  0  0  0  0  0  0  0  0  0
   -8.1270   18.2860  -33.4910 H   0  0  0  0  0  0  0  0  0  0  0  0
  1  2  1  0
  2  3  1  0
  3  4  1  0
  4  5  1  0
  3  6  1  0
  6  7  1  0
  7  8  1  0
  8  9  1  0
  9 10  1  0
 10 11  1  0
 11 12  2  0
 12 13  1  0
 13 14  2  0
 14 15  1  0
 15 16  2  0
 16 17  1  0
 17 18  2  0
 18 19  1  0
 19 20  2  0
 20 21  1  0
 19 22  1  0
 22 11  1  0
 18 13  1  0
  1 23  1  0
  1 24  1  0
  1 25  1  0
  2 26  1  0
  2 27  1  0
  4 28  1  0
  4 29  1  0
  5 30  1  0
  5 31  1  0
  5 32  1  0
  6 33  1  0
  6 34  1  0
  7 35  1  0
  7 36  1  0
  8 37  1  0
  8 38  1  0
  9 39  1  0
  9 40  1  0
 15 41  1  0
 16 42  1  0
 17 43  1  0
 21 44  1  0
 21 45  1  0
 21 46  1  0
 22 47  1  0
M  END
>  <smiles>  (29) 
CCN(CC)CCCCSc1nc2ncccc2c(=NC)[nH]1

>  <score_type>  (29) 
oracle

>  <origin>  (29) 
adg

>  <m_score__min__energy>  (29) 
-7.46

>  <m_primary>  (29) 
energy

$$$$
29:0
     RDKit          3D

 40 42  0  0  0  0  0  0  0  0999 V2000
   -8.6550   18.5460  -32.2630 C   0  0  0  0  0  0  0  0  0  0  0  0
   -8.4010   20.0270  -32.1500 C   0  0  0  0  0  0  0  0  0  0  0  0
   -9.3930   20.8220  -31.5410 C   0  0  0  0  0  0  0  0  0  0  0  0
   -9.2380   22.2100  -31.4520 C   0  0  0  0  0  0  0  0  0  0  0  0
   -8.1050   22.8210  -31.9810 C   0  0  0  0  0  0  0  0  0  0  0  0
   -7.1250   22.0540  -32.6150 C   0  0  0  0  0  0  0  0  0  0  0  0
   -7.2590   20.6600  -32.7160 C   0  0  0  0  0  0  0  0  0  0  0  0
   -6.1910   19.9120  -33.4150 C   0  0  0  0  0  0  0  0  0  0  0  0
   -6.3570   19.2830  -34.5940 N   0  0  0  0  0  0  0  0  0  0  0  0
   -5.3090   18.5460  -34.8140 O   0  0  0  0  0  0  0  0  0  0  0  0
   -4.4510   18.6530  -33.8270 C   0  0  0  0  0  0  0  0  0  0  0  0
   -3.1520   17.9160  -33.7770 C   0  0  0  0  0  0  0  0  0  0  0  0
   -4.9580   19.5440  -32.8910 C   0  0  0  0  0  0  0  0  0  0  0  0
   -4.3460   20.0080  -31.5870 C   0  0  0  0  0  0  0  0  0  0  0  0
   -3.9500   21.4240  -31.6050 N   0  0  0  0  0  0  0  0  0  0  0  0
   -3.9130   22.0450  -30.2660 C   0  0  0  0  0  0  0  0  0  0  0  0
   -4.7250   23.3130  -30.2030 C   0  0  0  0  0  0  0  0  0  0  0  0
   -6.0350   23.3780  -29.7020 C   0  0  0  0  0  0  0  0  0  0  0  0
   -6.5820   24.6570  -29.7510 C   0  0  0  0  0  0  0  0  0  0  0  0
   -5.4420   25.6980  -30.4270 S   0  0  0  0  0  0  0  0  0  0  0  0
   -4.2490   24.5380  -30.6650 C   0  0  0  0  0  0  0  0  0  0  0  0
   -8.7300   18.1090  -31.2563 H   0  0  0  0  0  0  0  0  0  0  0  0
   -9.5955   18.3758  -32.8076 H   0  0  0  0  0  0  0  0  0  0  0  0
   -7.8250   18.0721  -32.8076 H   0  0  0  0  0  0  0  0  0  0  0  0
  -10.2970   20.3472  -31.1321 H   0  0  0  0  0  0  0  0  0  0  0  0
  -10.0128   22.8189  -30.9632 H   0  0  0  0  0  0  0  0  0  0  0  0
   -7.9810   23.9109  -31.8996 H   0  0  0  0  0  0  0  0  0  0  0  0
   -6.2384   22.5475  -33.0399 H   0  0  0  0  0  0  0  0  0  0  0  0
   -7.1920   19.3250  -35.2110 H   0  0  0  0  0  0  0  0  0  0  0  0
   -2.8634   17.7523  -32.7282 H   0  0  0  0  0  0  0  0  0  0  0  0
   -3.2614   16.9454  -34.2830 H   0  0  0  0  0  0  0  0  0  0  0  0
   -2.3750   18.5078  -34.2830 H   0  0  0  0  0  0  0  0  0  0  0  0
   -5.0824   19.8610  -30.7832 H   0  0  0  0  0  0  0  0  0  0  0  0
   -3.4337   19.4153  -31.4246 H   0  0  0  0  0  0  0  0  0  0  0  0
   -4.5640   21.9560  -32.2610 H   0  0  0  0  0  0  0  0  0  0  0  0
   -4.3151   21.3302  -29.5330 H   0  0  0  0  0  0  0  0  0  0  0  0
   -2.8672   22.3027  -30.0425 H   0  0  0  0  0  0  0  0  0  0  0  0
   -6.5758   22.5042  -29.3094 H   0  0  0  0  0  0  0  0  0  0  0  0
   -7.5877   24.9402  -29.4069 H   0  0  0  0  0  0  0  0  0  0  0  0
   -3.2592   24.7162  -31.1105 H   0  0  0  0  0  0  0  0  0  0  0  0
  1  2  1  0
  2  3  2  0
  3  4  1  0
  4  5  2  0
  5  6  1  0
  6  7  2  0
  7  8  1  0
  8  9  2  0
  9 10  1  0
 10 11  1  0
 11 12  1  0
 11 13  2  0
 13 14  1  0
 14 15  1  0
 15 16  1  0
 16 17  1  0
 17 18  1  0
 18 19  2  0
 19 20  1  0
 20 21  1  0
  7  2  1  0
 13  8  1  0
 21 17  2  0
  1 22  1  0
  1 23  1  0
  1 24  1  0
  3 25  1  0
  4 26  1  0
  5 27  1  0
  6 28  1  0
  9 29  1  0
 12 30  1  0
 12 31  1  0
 12 32  1  0
 14 33  1  0
 14 34  1  0
 15 35  1  0
 16 36  1  0
 16 37  1  0
 18 38  1  0
 19 39  1  0
 21 40  1  0
M  CHG  1   9   1
M  END
>  <UniqueID>  (30) 
28

>  <SMILES>  (30) 
Cc1ccccc1-c1[nH+]oc(C)c1CNCc1ccsc1

>  <Energy>  (30) 
105.38881210651272

>  <Genealogy>  (30) 
Cc1ccccc1-c1[nH+]oc(C)c1CNCc1ccsc1 (protonated)
Cc1ccccc1-c1[nH+]oc(C)c1CNCc1ccsc1 (3D coordinates assigned)
Cc1ccccc1-c1[nH+]oc(C)c1CNCc1ccsc1 (optimized conformer: 105.38881210651272 kcal/mol)

>  <smiles>  (30) 
Cc1ccccc1-c1noc(C)c1CNCc1ccsc1

>  <score_type>  (30) 
oracle

>  <origin>  (30) 
adg

>  <m_score__min__energy>  (30) 
-7.46

>  <m_primary>  (30) 
energy

$$$$
30:0
     RDKit          3D

 41 44  0  0  0  0  0  0  0  0999 V2000
   -2.6120   21.3270  -30.1940 C   0  0  0  0  0  0  0  0  0  0  0  0
   -3.8440   21.6920  -29.3730 C   0  0  0  0  0  0  0  0  0  0  0  0
   -4.4320   22.9990  -29.8470 C   0  0  0  0  0  0  0  0  0  0  0  0
   -5.3320   23.1490  -30.8910 C   0  0  0  0  0  0  0  0  0  0  0  0
   -6.0580   22.1060  -31.6310 C   0  0  0  0  0  0  0  0  0  0  0  0
   -5.4860   20.9490  -32.0170 N   0  0  0  0  0  0  0  0  0  0  0  0
   -6.4980   20.3340  -32.6700 C   0  0  0  0  0  0  0  0  0  0  0  0
   -6.3800   19.0050  -33.2890 C   0  0  0  0  0  0  0  0  0  0  0  0
   -5.7450   18.7820  -34.5220 C   0  0  0  0  0  0  0  0  0  0  0  0
   -5.7500   17.4520  -34.9160 C   0  0  0  0  0  0  0  0  0  0  0  0
   -6.5410   16.5590  -33.7320 S   0  0  0  0  0  0  0  0  0  0  0  0
   -6.8870   17.8460  -32.7080 C   0  0  0  0  0  0  0  0  0  0  0  0
   -7.6230   21.0770  -32.7030 N   0  0  0  0  0  0  0  0  0  0  0  0
   -7.3370   22.1890  -32.0530 N   0  0  0  0  0  0  0  0  0  0  0  0
   -8.2680   23.3060  -31.9260 C   0  0  0  0  0  0  0  0  0  0  0  0
   -5.3160   24.4940  -31.1970 C   0  0  0  0  0  0  0  0  0  0  0  0
   -4.4610   25.1270  -30.3700 N   0  0  0  0  0  0  0  0  0  0  0  0
   -3.9370   24.2260  -29.5540 N   0  0  0  0  0  0  0  0  0  0  0  0
   -2.9350   24.5520  -28.5800 C   0  0  0  0  0  0  0  0  0  0  0  0
   -3.2660   24.5720  -27.2160 C   0  0  0  0  0  0  0  0  0  0  0  0
   -2.2930   24.8750  -26.2590 C   0  0  0  0  0  0  0  0  0  0  0  0
   -0.9800   25.1470  -26.6560 C   0  0  0  0  0  0  0  0  0  0  0  0
    0.2410   25.5250  -25.4550 Cl  0  0  0  0  0  0  0  0  0  0  0  0
   -0.6380   25.1060  -28.0120 C   0  0  0  0  0  0  0  0  0  0  0  0
   -1.6100   24.8040  -28.9710 C   0  0  0  0  0  0  0  0  0  0  0  0
   -1.7804   21.0806  -29.5175 H   0  0  0  0  0  0  0  0  0  0  0  0
   -2.8386   20.4574  -30.8284 H   0  0  0  0  0  0  0  0  0  0  0  0
   -2.3283   22.1797  -30.8284 H   0  0  0  0  0  0  0  0  0  0  0  0
   -4.5972   20.8974  -29.4791 H   0  0  0  0  0  0  0  0  0  0  0  0
   -3.5481   21.7985  -28.3189 H   0  0  0  0  0  0  0  0  0  0  0  0
   -5.2875   19.5853  -35.1181 H   0  0  0  0  0  0  0  0  0  0  0  0
   -5.3124   17.0514  -35.8423 H   0  0  0  0  0  0  0  0  0  0  0  0
   -7.4201   17.7835  -31.7479 H   0  0  0  0  0  0  0  0  0  0  0  0
   -8.4441   23.5173  -30.8609 H   0  0  0  0  0  0  0  0  0  0  0  0
   -7.8408   24.1963  -32.4107 H   0  0  0  0  0  0  0  0  0  0  0  0
   -9.2207   23.0462  -32.4107 H   0  0  0  0  0  0  0  0  0  0  0  0
   -5.9076   24.9738  -31.9906 H   0  0  0  0  0  0  0  0  0  0  0  0
   -4.2953   24.3483  -26.8988 H   0  0  0  0  0  0  0  0  0  0  0  0
   -2.5606   24.8995  -25.1923 H   0  0  0  0  0  0  0  0  0  0  0  0
    0.3966   25.3115  -28.3241 H   0  0  0  0  0  0  0  0  0  0  0  0
   -1.3357   24.7637  -30.0355 H   0  0  0  0  0  0  0  0  0  0  0  0
  1  2  1  0
  2  3  1  0
  3  4  2  0
  4  5  1  0
  5  6  2  0
  6  7  1  0
  7  8  1  0
  8  9  1  0
  9 10  2  0
 10 11  1  0
 11 12  1  0
  7 13  2  0
 13 14  1  0
 14 15  1  0
  4 16  1  0
 16 17  2  0
 17 18  1  0
 18 19  1  0
 19 20  2  0
 20 21  1  0
 21 22  2  0
 22 23  1  0
 22 24  1  0
 24 25  2  0
 18  3  1  0
 25 19  1  0
 14  5  1  0
 12  8  2  0
  1 26  1  0
  1 27  1  0
  1 28  1  0
  2 29  1  0
  2 30  1  0
  9 31  1  0
 10 32  1  0
 12 33  1  0
 15 34  1  0
 15 35  1  0
 15 36  1  0
 16 37  1  0
 20 38  1  0
 21 39  1  0
 24 40  1  0
 25 41  1  0
M  END
>  <UniqueID>  (31) 
29

>  <SMILES>  (31) 
CCc1c(-c2nc(-c3ccsc3)nn2C)cnn1-c1ccc(Cl)cc1

>  <Energy>  (31) 
140.91794454073337

>  <Genealogy>  (31) 
CCc1c(-c2nc(-c3ccsc3)nn2C)cnn1-c1ccc(Cl)cc1 (3D coordinates assigned)
CCc1c(-c2nc(-c3ccsc3)nn2C)cnn1-c1ccc(Cl)cc1 (optimized conformer: 140.91794454073337 kcal/mol)

>  <smiles>  (31) 
CCc1c(-c2nc(-c3ccsc3)nn2C)cnn1-c1ccc(Cl)cc1

>  <score_type>  (31) 
oracle

>  <origin>  (31) 
adg

>  <m_score__min__energy>  (31) 
-8.2599999999999998

>  <m_primary>  (31) 
energy

$$$$
31:0
     RDKit          3D

 49 52  0  0  0  0  0  0  0  0999 V2000
   -0.4110   14.9060  -37.5700 C   0  0  0  0  0  0  0  0  0  0  0  0
   -1.2390   14.5490  -36.4110 N   0  0  0  0  0  0  0  0  0  0  0  0
   -1.2270   13.1610  -35.9320 C   0  0  0  0  0  0  0  0  0  0  0  0
   -2.0550   15.5510  -35.7500 C   0  0  0  0  0  0  0  0  0  0  0  0
   -3.4450   15.3720  -35.6060 C   0  0  0  0  0  0  0  0  0  0  0  0
   -4.2310   16.3370  -34.9700 C   0  0  0  0  0  0  0  0  0  0  0  0
   -3.6520   17.5130  -34.4620 C   0  0  0  0  0  0  0  0  0  0  0  0
   -4.4790   18.5450  -33.7830 C   0  0  0  0  0  0  0  0  0  0  0  0
   -5.8670   18.7050  -33.8930 C   0  0  0  0  0  0  0  0  0  0  0  0
   -6.3490   19.7780  -33.1330 C   0  0  0  0  0  0  0  0  0  0  0  0
   -7.6480   20.1750  -33.0840 N   0  0  0  0  0  0  0  0  0  0  0  0
   -8.0040   21.2580  -32.3350 C   0  0  0  0  0  0  0  0  0  0  0  0
   -7.0370   21.9750  -31.6040 C   0  0  0  0  0  0  0  0  0  0  0  0
   -5.6880   21.5720  -31.6350 C   0  0  0  0  0  0  0  0  0  0  0  0
   -4.6620   22.3170  -30.8690 C   0  0  0  0  0  0  0  0  0  0  0  0
   -4.7350   23.7160  -30.7660 C   0  0  0  0  0  0  0  0  0  0  0  0
   -3.7720   24.4230  -30.0390 C   0  0  0  0  0  0  0  0  0  0  0  0
   -2.7320   23.7390  -29.3950 C   0  0  0  0  0  0  0  0  0  0  0  0
   -1.5100   24.6310  -28.4950 S   0  0  0  0  0  0  0  0  0  0  0  0
   -1.9010   24.5830  -26.7620 C   0  0  0  0  0  0  0  0  0  0  0  0
   -0.1590   24.0140  -28.7230 O   0  0  0  0  0  0  0  0  0  0  0  0
   -1.4740   26.0590  -28.9640 O   0  0  0  0  0  0  0  0  0  0  0  0
   -2.6580   22.3440  -29.4920 C   0  0  0  0  0  0  0  0  0  0  0  0
   -3.6190   21.6360  -30.2180 C   0  0  0  0  0  0  0  0  0  0  0  0
   -5.3730   20.4570  -32.4230 C   0  0  0  0  0  0  0  0  0  0  0  0
   -3.8830   19.7470  -32.7440 S   0  0  0  0  0  0  0  0  0  0  0  0
   -2.2660   17.6930  -34.5990 C   0  0  0  0  0  0  0  0  0  0  0  0
   -1.4790   16.7290  -35.2350 C   0  0  0  0  0  0  0  0  0  0  0  0
    0.5474   15.3192  -37.2226 H   0  0  0  0  0  0  0  0  0  0  0  0
   -0.2245   14.0083  -38.1778 H   0  0  0  0  0  0  0  0  0  0  0  0
   -0.9357   15.6579  -38.1778 H   0  0  0  0  0  0  0  0  0  0  0  0
   -1.2269   13.1527  -34.8320 H   0  0  0  0  0  0  0  0  0  0  0  0
   -2.1207   12.6375  -36.3026 H   0  0  0  0  0  0  0  0  0  0  0  0
   -0.3244   12.6530  -36.3026 H   0  0  0  0  0  0  0  0  0  0  0  0
   -3.9182   14.4603  -35.9995 H   0  0  0  0  0  0  0  0  0  0  0  0
   -5.3139   16.1746  -34.8659 H   0  0  0  0  0  0  0  0  0  0  0  0
   -6.5083   18.0579  -34.5095 H   0  0  0  0  0  0  0  0  0  0  0  0
   -8.3790   19.6600  -33.6250 H   0  0  0  0  0  0  0  0  0  0  0  0
   -9.0569   21.5745  -32.3016 H   0  0  0  0  0  0  0  0  0  0  0  0
   -7.3356   22.8503  -31.0085 H   0  0  0  0  0  0  0  0  0  0  0  0
   -5.5544   24.2586  -31.2601 H   0  0  0  0  0  0  0  0  0  0  0  0
   -3.8310   25.5194  -29.9724 H   0  0  0  0  0  0  0  0  0  0  0  0
   -0.9779   24.6963  -26.1746 H   0  0  0  0  0  0  0  0  0  0  0  0
   -2.5930   25.4029  -26.5194 H   0  0  0  0  0  0  0  0  0  0  0  0
   -2.3741   23.6200  -26.5194 H   0  0  0  0  0  0  0  0  0  0  0  0
   -1.8395   21.8032  -28.9943 H   0  0  0  0  0  0  0  0  0  0  0  0
   -3.5590   20.5394  -30.2805 H   0  0  0  0  0  0  0  0  0  0  0  0
   -1.7942   18.6035  -34.2010 H   0  0  0  0  0  0  0  0  0  0  0  0
   -0.3958   16.8922  -35.3348 H   0  0  0  0  0  0  0  0  0  0  0  0
  1  2  1  0
  2  3  1  0
  2  4  1  0
  4  5  2  0
  5  6  1  0
  6  7  2  0
  7  8  1  0
  8  9  2  0
  9 10  1  0
 10 11  2  0
 11 12  1  0
 12 13  2  0
 13 14  1  0
 14 15  1  0
 15 16  2  0
 16 17  1  0
 17 18  2  0
 18 19  1  0
 19 20  1  0
 19 21  2  0
 19 22  2  0
 18 23  1  0
 23 24  2  0
 14 25  2  0
 25 26  1  0
  7 27  1  0
 27 28  2  0
 28  4  1  0
 26  8  1  0
 25 10  1  0
 24 15  1  0
  1 29  1  0
  1 30  1  0
  1 31  1  0
  3 32  1  0
  3 33  1  0
  3 34  1  0
  5 35  1  0
  6 36  1  0
  9 37  1  0
 11 38  1  0
 12 39  1  0
 13 40  1  0
 16 41  1  0
 17 42  1  0
 20 43  1  0
 20 44  1  0
 20 45  1  0
 23 46  1  0
 24 47  1  0
 27 48  1  0
 28 49  1  0
M  CHG  1  11   1
M  END
>  <UniqueID>  (32) 
30

>  <SMILES>  (32) 
CN(C)c1ccc(-c2cc3[nH+]ccc(-c4ccc(S(C)(=O)=O)cc4)c3s2)cc1

>  <Energy>  (32) 
91.87203235830074

>  <Genealogy>  (32) 
CN(C)c1ccc(-c2cc3[nH+]ccc(-c4ccc(S(C)(=O)=O)cc4)c3s2)cc1 (protonated)
CN(C)c1ccc(-c2cc3[nH+]ccc(-c4ccc(S(C)(=O)=O)cc4)c3s2)cc1 (3D coordinates assigned)
CN(C)c1ccc(-c2cc3[nH+]ccc(-c4ccc(S(C)(=O)=O)cc4)c3s2)cc1 (optimized conformer: 91.87203235830074 kcal/mol)

>  <smiles>  (32) 
CN(C)c1ccc(-c2cc3nccc(-c4ccc(S(C)(=O)=O)cc4)c3s2)cc1

>  <score_type>  (32) 
oracle

>  <origin>  (32) 
adg

>  <m_score__min__energy>  (32) 
-8.6899999999999995

>  <m_primary>  (32) 
energy

$$$$
32:0
     RDKit          3D

 49 51  0  0  1  0  0  0  0  0999 V2000
   -9.7270   21.4840  -31.7450 C   0  0  0  0  0  0  0  0  0  0  0  0
   -8.3700   21.9810  -31.3260 C   0  0  0  0  0  0  0  0  0  0  0  0
   -8.0220   23.3270  -31.9510 C   0  0  0  0  0  0  0  0  0  0  0  0
   -7.1930   24.1580  -30.9980 C   0  0  0  0  0  0  0  0  0  0  0  0
   -5.9290   24.4550  -31.6160 N   0  0  0  0  0  0  0  0  0  0  0  0
   -4.9890   23.5760  -31.5360 C   0  0  0  0  0  0  0  0  0  0  0  0
   -4.9630   22.6410  -32.5280 N   0  0  0  0  0  0  0  0  0  0  0  0
   -4.0220   21.6690  -32.5490 C   0  0  0  0  0  0  0  0  0  0  0  0
   -3.9680   20.7680  -33.4730 N   0  0  0  0  0  0  0  0  0  0  0  0
   -4.8490   19.6350  -33.4810 C   0  0  0  0  0  0  0  0  0  0  0  0
   -4.6500   18.5450  -34.2780 C   0  0  0  0  0  0  0  0  0  0  0  0
   -5.5570   17.5070  -34.2110 C   0  0  0  0  0  0  0  0  0  0  0  0
   -6.6580   17.5450  -33.3610 C   0  0  0  0  0  0  0  0  0  0  0  0
   -6.8620   18.6400  -32.5570 C   0  0  0  0  0  0  0  0  0  0  0  0
   -8.0370   18.6590  -31.6630 C   0  0  0  0  0  0  0  0  0  0  0  0
   -5.9450   19.6810  -32.6290 C   0  0  0  0  0  0  0  0  0  0  0  0
   -3.0710   21.6260  -31.5430 C   0  0  0  0  0  0  0  0  0  0  0  0
   -2.0260   20.8250  -31.2630 N   0  0  0  0  0  0  0  0  0  0  0  0
   -1.4340   21.2590  -30.1350 C   0  0  0  0  0  0  0  0  0  0  0  0
   -2.1070   22.3560  -29.6810 N   0  0  0  0  0  0  0  0  0  0  0  0
   -1.7420   23.0650  -28.5040 C   0  0  0  0  0  0  0  0  0  0  0  0
   -2.3420   24.4080  -28.3920 C   0  0  0  0  0  0  0  0  0  0  0  0
   -3.0540   24.7130  -27.1960 N   0  0  0  0  0  0  0  0  0  0  0  0
   -2.2470   25.2900  -29.3100 O   0  0  0  0  0  0  0  0  0  0  0  0
   -3.1220   22.5990  -30.5380 C   0  0  0  0  0  0  0  0  0  0  0  0
   -4.0750   23.5590  -30.5440 N   0  0  0  0  0  0  0  0  0  0  0  0
  -10.3289   21.2636  -30.8510 H   0  0  0  0  0  0  0  0  0  0  0  0
  -10.2310   22.2559  -32.3451 H   0  0  0  0  0  0  0  0  0  0  0  0
   -9.6132   20.5692  -32.3451 H   0  0  0  0  0  0  0  0  0  0  0  0
   -8.3556   22.0863  -30.2311 H   0  0  0  0  0  0  0  0  0  0  0  0
   -7.6249   21.2495  -31.6721 H   0  0  0  0  0  0  0  0  0  0  0  0
   -7.4502   23.1592  -32.8756 H   0  0  0  0  0  0  0  0  0  0  0  0
   -8.9545   23.8666  -32.1729 H   0  0  0  0  0  0  0  0  0  0  0  0
   -7.7216   25.0953  -30.7700 H   0  0  0  0  0  0  0  0  0  0  0  0
   -7.0289   23.6005  -30.0640 H   0  0  0  0  0  0  0  0  0  0  0  0
   -5.6730   22.6500  -33.3030 H   0  0  0  0  0  0  0  0  0  0  0  0
   -3.7867   18.4951  -34.9579 H   0  0  0  0  0  0  0  0  0  0  0  0
   -5.4051   16.6235  -34.8484 H   0  0  0  0  0  0  0  0  0  0  0  0
   -7.3628   16.7009  -33.3329 H   0  0  0  0  0  0  0  0  0  0  0  0
   -7.7009   18.6536  -30.6156 H   0  0  0  0  0  0  0  0  0  0  0  0
   -8.6282   19.5668  -31.8537 H   0  0  0  0  0  0  0  0  0  0  0  0
   -8.6572   17.7708  -31.8537 H   0  0  0  0  0  0  0  0  0  0  0  0
   -6.0910   20.5668  -31.9933 H   0  0  0  0  0  0  0  0  0  0  0  0
   -0.5532   20.8046  -29.6578 H   0  0  0  0  0  0  0  0  0  0  0  0
   -2.0590   22.4726  -27.6330 H   0  0  0  0  0  0  0  0  0  0  0  0
   -0.6526   23.2102  -28.5496 H   0  0  0  0  0  0  0  0  0  0  0  0
   -3.8910   25.3520  -27.1990 H   0  0  0  0  0  0  0  0  0  0  0  0
   -2.7500   24.3000  -26.2810 H   0  0  0  0  0  0  0  0  0  0  0  0
   -4.1150   24.2850  -29.7950 H   0  0  0  0  0  0  0  0  0  0  0  0
  1  2  1  0
  2  3  1  0
  3  4  1  0
  4  5  1  0
  5  6  2  0
  6  7  1  0
  7  8  1  0
  8  9  2  0
  9 10  1  0
 10 11  2  0
 11 12  1  0
 12 13  2  0
 13 14  1  0
 14 15  1  0
 14 16  2  0
  8 17  1  0
 17 18  1  0
 18 19  2  0
 19 20  1  0
 20 21  1  0
 21 22  1  0
 22 23  1  0
 22 24  2  0
 20 25  1  0
 25 26  1  0
 26  6  1  0
 16 10  1  0
 25 17  2  0
  1 27  1  0
  1 28  1  0
  1 29  1  0
  2 30  1  0
  2 31  1  0
  3 32  1  0
  3 33  1  0
  4 34  1  0
  4 35  1  0
  7 36  1  0
 11 37  1  0
 12 38  1  0
 13 39  1  0
 15 40  1  0
 15 41  1  0
 15 42  1  0
 16 43  1  0
 19 44  1  0
 21 45  1  0
 21 46  1  0
 23 47  1  0
 23 48  1  0
 26 49  1  0
M  END
>  <smiles>  (33) 
CCCCN=c1[nH]c(=Nc2cccc(C)c2)c2ncn(CC(N)=O)c2[nH]1

>  <score_type>  (33) 
oracle

>  <origin>  (33) 
adg

>  <m_score__min__energy>  (33) 
-8.8300000000000001

>  <m_primary>  (33) 
energy

$$$$
33:0
     RDKit          3D

 32 32  0  0  0  0  0  0  0  0999 V2000
   -3.9261   22.8914  -30.9269 H   0  0  0  0  0  0  0  0  0  0  0  0
   -3.8720   23.8840  -30.4560 C   0  0  0  0  0  0  0  0  0  0  0  0
   -4.6620   24.8320  -30.8510 N   0  0  0  0  0  0  0  0  0  0  0  0
   -6.1120   24.6750  -30.8790 C   0  0  0  0  0  0  0  0  0  0  0  0
   -6.5831   25.6624  -30.9933 H   0  0  0  0  0  0  0  0  0  0  0  0
   -6.4430   24.2102  -29.9386 H   0  0  0  0  0  0  0  0  0  0  0  0
   -6.5190   23.7810  -32.0510 C   0  0  0  0  0  0  0  0  0  0  0  0
   -5.6574   23.6576  -32.7236 H   0  0  0  0  0  0  0  0  0  0  0  0
   -7.3583   24.2593  -32.5772 H   0  0  0  0  0  0  0  0  0  0  0  0
   -6.9600   22.4480  -31.5830 N   0  0  0  0  0  0  0  0  0  0  0  0
   -8.3940   22.3010  -31.2220 C   0  0  0  0  0  0  0  0  0  0  0  0
   -8.9120   23.2319  -31.4958 H   0  0  0  0  0  0  0  0  0  0  0  0
   -8.4193   22.0884  -30.1430 H   0  0  0  0  0  0  0  0  0  0  0  0
   -9.1190   21.1330  -31.9070 C   0  0  0  0  0  0  0  0  0  0  0  0
   -9.5360   20.4612  -31.1423 H   0  0  0  0  0  0  0  0  0  0  0  0
   -9.9332   21.5243  -32.5346 H   0  0  0  0  0  0  0  0  0  0  0  0
   -8.4070   20.5770  -32.5346 H   0  0  0  0  0  0  0  0  0  0  0  0
   -6.3910   21.3170  -32.3490 C   0  0  0  0  0  0  0  0  0  0  0  0
   -6.5154   20.3985  -31.7566 H   0  0  0  0  0  0  0  0  0  0  0  0
   -6.9295   21.2739  -33.3072 H   0  0  0  0  0  0  0  0  0  0  0  0
   -4.9060   21.4830  -32.6770 C   0  0  0  0  0  0  0  0  0  0  0  0
   -4.3291   21.5475  -31.7426 H   0  0  0  0  0  0  0  0  0  0  0  0
   -4.5608   20.6179  -33.2621 H   0  0  0  0  0  0  0  0  0  0  0  0
   -4.7603   22.4030  -33.2621 H   0  0  0  0  0  0  0  0  0  0  0  0
   -2.9080   24.1330  -29.3840 C   0  0  0  0  0  0  0  0  0  0  0  0
   -2.3510   25.3000  -29.1460 O   0  0  0  0  0  0  0  0  0  0  0  0
   -1.5410   25.1700  -28.1200 C   0  0  0  0  0  0  0  0  0  0  0  0
   -0.5000   26.5960  -27.3950 Br  0  0  0  0  0  0  0  0  0  0  0  0
   -1.5680   23.8650  -27.6690 C   0  0  0  0  0  0  0  0  0  0  0  0
   -0.5850   23.1240  -26.2100 Br  0  0  0  0  0  0  0  0  0  0  0  0
   -2.4500   23.1910  -28.4840 C   0  0  0  0  0  0  0  0  0  0  0  0
   -2.7300   22.1286  -28.4297 H   0  0  0  0  0  0  0  0  0  0  0  0
  1  2  1  0
  2  3  2  0
  3  4  1  0
  4  5  1  0
  4  6  1  0
  4  7  1  0
  7  8  1  0
  7  9  1  0
  7 10  1  0
 10 11  1  0
 11 12  1  0
 11 13  1  0
 11 14  1  0
 14 15  1  0
 14 16  1  0
 14 17  1  0
 10 18  1  0
 18 19  1  0
 18 20  1  0
 18 21  1  0
 21 22  1  0
 21 23  1  0
 21 24  1  0
  2 25  1  0
 25 26  1  0
 26 27  1  0
 27 28  1  0
 27 29  2  0
 29 30  1  0
 29 31  1  0
 31 32  1  0
 31 25  2  0
M  END
>  <UniqueID>  (34) 
31

>  <SMILES>  (34) 
CCN(CC)CC/N=C/c1cc(Br)c(Br)o1

>  <Energy>  (34) 
56.41125859750196

>  <Genealogy>  (34) 
CCN(CC)CC/N=C/c1cc(Br)c(Br)o1 (cis-trans isomerization)
CCN(CC)CC/N=C/c1cc(Br)c(Br)o1 (3D coordinates assigned)
CCN(CC)CC/N=C/c1cc(Br)c(Br)o1 (optimized conformer: 56.41125859750196 kcal/mol)

>  <smiles>  (34) 
CCN(CC)CCN=Cc1cc(Br)c(Br)o1

>  <score_type>  (34) 
oracle

>  <origin>  (34) 
adg

>  <m_score__min__energy>  (34) 
-6.4500000000000002

>  <m_primary>  (34) 
energy

$$$$
34:0
     RDKit          3D

 39 41  0  0  0  0  0  0  0  0999 V2000
   -4.3180   16.3600  -34.5690 C   0  0  0  0  0  0  0  0  0  0  0  0
   -5.2400   17.3830  -33.9870 C   0  0  0  0  0  0  0  0  0  0  0  0
   -6.8670   17.0890  -33.6290 S   0  0  0  0  0  0  0  0  0  0  0  0
   -7.1590   18.6340  -33.0560 C   0  0  0  0  0  0  0  0  0  0  0  0
   -8.3330   19.1100  -32.5890 N   0  0  0  0  0  0  0  0  0  0  0  0
   -8.4020   20.3990  -32.1620 C   0  0  0  0  0  0  0  0  0  0  0  0
   -7.2940   21.2140  -32.1950 N   0  0  0  0  0  0  0  0  0  0  0  0
   -7.4290   22.6100  -31.7500 C   0  0  0  0  0  0  0  0  0  0  0  0
   -7.4480   22.6810  -30.2170 C   0  0  0  0  0  0  0  0  0  0  0  0
   -6.5470   23.7410  -29.7110 N   0  0  0  0  0  0  0  0  0  0  0  0
   -6.5190   24.9150  -30.6170 C   0  0  0  0  0  0  0  0  0  0  0  0
   -5.1990   25.6920  -30.4850 C   0  0  0  0  0  0  0  0  0  0  0  0
   -4.0520   24.9230  -30.8220 O   0  0  0  0  0  0  0  0  0  0  0  0
   -4.2050   23.5320  -30.5730 C   0  0  0  0  0  0  0  0  0  0  0  0
   -5.1900   23.2100  -29.4340 C   0  0  0  0  0  0  0  0  0  0  0  0
   -6.0990   20.7390  -32.6870 C   0  0  0  0  0  0  0  0  0  0  0  0
   -5.0870   21.4910  -32.7440 O   0  0  0  0  0  0  0  0  0  0  0  0
   -6.0200   19.4090  -33.1260 C   0  0  0  0  0  0  0  0  0  0  0  0
   -4.9130   18.7100  -33.6550 C   0  0  0  0  0  0  0  0  0  0  0  0
   -3.5470   19.3110  -33.8470 C   0  0  0  0  0  0  0  0  0  0  0  0
   -3.8216   15.8092  -33.7564 H   0  0  0  0  0  0  0  0  0  0  0  0
   -4.8942   15.6578  -35.1894 H   0  0  0  0  0  0  0  0  0  0  0  0
   -3.5599   16.8604  -35.1894 H   0  0  0  0  0  0  0  0  0  0  0  0
   -9.3563   20.7955  -31.7852 H   0  0  0  0  0  0  0  0  0  0  0  0
   -6.5789   23.1958  -32.1299 H   0  0  0  0  0  0  0  0  0  0  0  0
   -8.3728   23.0198  -32.1389 H   0  0  0  0  0  0  0  0  0  0  0  0
   -8.4738   22.8940  -29.8819 H   0  0  0  0  0  0  0  0  0  0  0  0
   -7.0995   21.7150  -29.8228 H   0  0  0  0  0  0  0  0  0  0  0  0
   -6.6286   24.5688  -31.6553 H   0  0  0  0  0  0  0  0  0  0  0  0
   -7.3457   25.5861  -30.3408 H   0  0  0  0  0  0  0  0  0  0  0  0
   -5.2409   26.5654  -31.1524 H   0  0  0  0  0  0  0  0  0  0  0  0
   -5.0969   25.9790  -29.4280 H   0  0  0  0  0  0  0  0  0  0  0  0
   -4.5702   23.0529  -31.4934 H   0  0  0  0  0  0  0  0  0  0  0  0
   -3.2206   23.1515  -30.2629 H   0  0  0  0  0  0  0  0  0  0  0  0
   -5.2525   22.1182  -29.3156 H   0  0  0  0  0  0  0  0  0  0  0  0
   -4.8176   23.6872  -28.5155 H   0  0  0  0  0  0  0  0  0  0  0  0
   -3.0930   19.5107  -32.8652 H   0  0  0  0  0  0  0  0  0  0  0  0
   -2.9130   18.6087  -34.4081 H   0  0  0  0  0  0  0  0  0  0  0  0
   -3.6364   20.2529  -34.4081 H   0  0  0  0  0  0  0  0  0  0  0  0
  1  2  1  0
  2  3  1  0
  3  4  1  0
  4  5  1  0
  5  6  2  0
  6  7  1  0
  7  8  1  0
  8  9  1  0
  9 10  1  0
 10 11  1  0
 11 12  1  0
 12 13  1  0
 13 14  1  0
 14 15  1  0
  7 16  1  0
 16 17  2  0
 16 18  1  0
 18 19  1  0
 19 20  1  0
 19  2  2  0
 18  4  2  0
 15 10  1  0
  1 21  1  0
  1 22  1  0
  1 23  1  0
  6 24  1  0
  8 25  1  0
  8 26  1  0
  9 27  1  0
  9 28  1  0
 11 29  1  0
 11 30  1  0
 12 31  1  0
 12 32  1  0
 14 33  1  0
 14 34  1  0
 15 35  1  0
 15 36  1  0
 20 37  1  0
 20 38  1  0
 20 39  1  0
M  END
>  <UniqueID>  (35) 
32

>  <SMILES>  (35) 
Cc1sc2ncn(CCN3CCOCC3)c(=O)c2c1C

>  <Energy>  (35) 
87.94454209244614

>  <Genealogy>  (35) 
Cc1sc2ncn(CCN3CCOCC3)c(=O)c2c1C (3D coordinates assigned)
Cc1sc2ncn(CCN3CCOCC3)c(=O)c2c1C (nonaromatic ring conformer: 87.94454209244614 kcal/mol)

>  <smiles>  (35) 
Cc1sc2ncn(CCN3CCOCC3)c(=O)c2c1C

>  <score_type>  (35) 
oracle

>  <origin>  (35) 
adg

>  <m_score__min__energy>  (35) 
-7.8499999999999996

>  <m_primary>  (35) 
energy

$$$$
35:0
     RDKit          3D

 54 57  0  0  0  0  0  0  0  0999 V2000
    0.1830   23.1810  -26.5860 C   0  0  0  0  0  0  0  0  0  0  0  0
   -1.1420   23.8040  -26.9220 C   0  0  0  0  0  0  0  0  0  0  0  0
   -1.7480   24.4930  -25.9990 N   0  0  0  0  0  0  0  0  0  0  0  0
   -3.0560   25.0360  -26.1830 C   0  0  0  0  0  0  0  0  0  0  0  0
   -3.6390   25.6100  -25.2280 O   0  0  0  0  0  0  0  0  0  0  0  0
   -3.6950   24.9200  -27.4540 N   0  0  0  0  0  0  0  0  0  0  0  0
   -2.9070   24.5220  -28.6180 C   0  0  2  0  0  0  0  0  0  0  0  0
   -3.8310   23.9790  -29.6870 C   0  0  0  0  0  0  0  0  0  0  0  0
   -5.0020   24.5210  -30.0570 C   0  0  0  0  0  0  0  0  0  0  0  0
   -6.1770   23.7740  -30.5530 C   0  0  0  0  0  0  0  0  0  0  0  0
   -6.8590   22.8520  -29.7390 C   0  0  0  0  0  0  0  0  0  0  0  0
   -7.9440   22.1310  -30.2500 C   0  0  0  0  0  0  0  0  0  0  0  0
   -8.3350   22.3030  -31.5800 C   0  0  0  0  0  0  0  0  0  0  0  0
   -7.6360   23.1870  -32.4060 C   0  0  0  0  0  0  0  0  0  0  0  0
   -6.5540   23.9110  -31.8980 C   0  0  0  0  0  0  0  0  0  0  0  0
   -1.8560   23.4500  -28.2230 C   0  0  1  0  0  0  0  0  0  0  0  0
   -0.8900   23.2590  -29.3630 C   0  0  0  0  0  0  0  0  0  0  0  0
    0.2580   23.7860  -29.3150 O   0  0  0  0  0  0  0  0  0  0  0  0
   -1.3030   22.5590  -30.5020 O   0  0  0  0  0  0  0  0  0  0  0  0
   -0.7300   21.3150  -30.9000 C   0  0  0  0  0  0  0  0  0  0  0  0
   -0.9040   21.1090  -32.4050 C   0  0  0  0  0  0  0  0  0  0  0  0
   -2.2540   20.6430  -32.7020 N   0  0  0  0  0  0  0  0  0  0  0  0
   -2.6040   19.5470  -33.5540 C   0  0  0  0  0  0  0  0  0  0  0  0
   -1.7510   18.8790  -34.1980 O   0  0  0  0  0  0  0  0  0  0  0  0
   -4.0470   19.2770  -33.5880 C   0  0  0  0  0  0  0  0  0  0  0  0
   -4.7090   18.2950  -34.3260 C   0  0  0  0  0  0  0  0  0  0  0  0
   -6.1070   18.2000  -34.2200 C   0  0  0  0  0  0  0  0  0  0  0  0
   -6.8200   19.0800  -33.3840 C   0  0  0  0  0  0  0  0  0  0  0  0
   -6.1410   20.0640  -32.6470 C   0  0  0  0  0  0  0  0  0  0  0  0
   -4.7540   20.1440  -32.7650 C   0  0  0  0  0  0  0  0  0  0  0  0
   -3.6870   21.2640  -31.9680 S   0  0  0  0  0  0  0  0  0  0  0  0
   -3.9410   22.6890  -32.3700 O   0  0  0  0  0  0  0  0  0  0  0  0
   -3.6720   21.0810  -30.4780 O   0  0  0  0  0  0  0  0  0  0  0  0
    0.2965   23.1276  -25.4932 H   0  0  0  0  0  0  0  0  0  0  0  0
    0.2292   22.1668  -27.0094 H   0  0  0  0  0  0  0  0  0  0  0  0
    0.9935   23.7924  -27.0094 H   0  0  0  0  0  0  0  0  0  0  0  0
   -4.6510   25.3260  -27.5800 H   0  0  0  0  0  0  0  0  0  0  0  0
   -2.3723   25.4006  -29.0082 H   0  0  0  0  0  0  0  0  0  0  0  0
   -3.5158   23.0613  -30.2052 H   0  0  0  0  0  0  0  0  0  0  0  0
   -5.0951   25.6147  -29.9849 H   0  0  0  0  0  0  0  0  0  0  0  0
   -6.5388   22.6972  -28.6981 H   0  0  0  0  0  0  0  0  0  0  0  0
   -8.4897   21.4279  -29.6036 H   0  0  0  0  0  0  0  0  0  0  0  0
   -9.1938   21.7421  -31.9773 H   0  0  0  0  0  0  0  0  0  0  0  0
   -7.9374   23.3131  -33.4563 H   0  0  0  0  0  0  0  0  0  0  0  0
   -5.9946   24.5922  -32.5561 H   0  0  0  0  0  0  0  0  0  0  0  0
   -2.3731   22.4978  -28.0334 H   0  0  0  0  0  0  0  0  0  0  0  0
    0.3424   21.3144  -30.6551 H   0  0  0  0  0  0  0  0  0  0  0  0
   -1.2386   20.4991  -30.3656 H   0  0  0  0  0  0  0  0  0  0  0  0
   -0.7274   22.0626  -32.9241 H   0  0  0  0  0  0  0  0  0  0  0  0
   -0.1822   20.3528  -32.7473 H   0  0  0  0  0  0  0  0  0  0  0  0
   -4.1478   17.6091  -34.9776 H   0  0  0  0  0  0  0  0  0  0  0  0
   -6.6477   17.4331  -34.7940 H   0  0  0  0  0  0  0  0  0  0  0  0
   -7.9142   18.9965  -33.3076 H   0  0  0  0  0  0  0  0  0  0  0  0
   -6.6908   20.7557  -31.9917 H   0  0  0  0  0  0  0  0  0  0  0  0
  1  2  1  0
  2  3  2  0
  3  4  1  0
  4  5  2  0
  4  6  1  0
  6  7  1  0
  7  8  1  0
  8  9  2  3
  9 10  1  0
 10 11  2  0
 11 12  1  0
 12 13  2  0
 13 14  1  0
 14 15  2  0
  7 16  1  0
 16 17  1  0
 17 18  2  0
 17 19  1  0
 19 20  1  0
 20 21  1  0
 21 22  1  0
 22 23  1  0
 23 24  2  0
 23 25  1  0
 25 26  2  0
 26 27  1  0
 27 28  2  0
 28 29  1  0
 29 30  2  0
 30 31  1  0
 31 32  2  0
 31 33  2  0
 16  2  1  0
 31 22  1  0
 15 10  1  0
 30 25  1  0
  1 34  1  0
  1 35  1  0
  1 36  1  0
  6 37  1  0
  7 38  1  6
  8 39  1  0
  9 40  1  0
 11 41  1  0
 12 42  1  0
 13 43  1  0
 14 44  1  0
 15 45  1  0
 16 46  1  1
 20 47  1  0
 20 48  1  0
 21 49  1  0
 21 50  1  0
 26 51  1  0
 27 52  1  0
 28 53  1  0
 29 54  1  0
M  END
>  <UniqueID>  (36) 
33

>  <SMILES>  (36) 
CC1=NC(=O)N[C@H](C=Cc2ccccc2)[C@H]1C(=O)OCCN1C(=O)c2ccccc2S1(=O)=O

>  <Energy>  (36) 
78.28900481705146

>  <Genealogy>  (36) 
CC1=NC(=O)N[C@H](C=Cc2ccccc2)[C@H]1C(=O)OCCN1C(=O)c2ccccc2S1(=O)=O (chirality)
CC1=NC(=O)N[C@H](C=Cc2ccccc2)[C@H]1C(=O)OCCN1C(=O)c2ccccc2S1(=O)=O (3D coordinates assigned)
CC1=NC(=O)N[C@H](C=Cc2ccccc2)[C@H]1C(=O)OCCN1C(=O)c2ccccc2S1(=O)=O (nonaromatic ring conformer: 78.28900481705146 kcal/mol)

>  <smiles>  (36) 
CC1=NC(=O)NC(C=Cc2ccccc2)C1C(=O)OCCN1C(=O)c2ccccc2S1(=O)=O

>  <score_type>  (36) 
oracle

>  <origin>  (36) 
adg

>  <m_score__min__energy>  (36) 
-10.94

>  <m_primary>  (36) 
energy

$$$$
36:0
     RDKit          3D

 46 48  0  0  0  0  0  0  0  0999 V2000
   -2.8910   21.9310  -27.8400 C   0  0  0  0  0  0  0  0  0  0  0  0
   -4.2090   22.6660  -28.0820 C   0  0  0  0  0  0  0  0  0  0  0  0
   -4.0190   24.1810  -28.2630 C   0  0  0  0  0  0  0  0  0  0  0  0
   -3.3520   24.5340  -29.5990 C   0  0  0  0  0  0  0  0  0  0  0  0
   -4.3140   25.2120  -30.4800 N   0  0  0  0  0  0  0  0  0  0  0  0
   -5.5350   24.4110  -30.6640 C   0  0  0  0  0  0  0  0  0  0  0  0
   -5.5970   23.8000  -32.0690 C   0  0  0  0  0  0  0  0  0  0  0  0
   -5.9370   22.3320  -32.0160 C   0  0  0  0  0  0  0  0  0  0  0  0
   -5.0770   21.2360  -32.1780 C   0  0  0  0  0  0  0  0  0  0  0  0
   -3.6050   21.2700  -32.2690 C   0  0  0  0  0  0  0  0  0  0  0  0
   -2.9710   20.8960  -33.4650 C   0  0  0  0  0  0  0  0  0  0  0  0
   -1.5750   20.8890  -33.5510 C   0  0  0  0  0  0  0  0  0  0  0  0
   -0.8040   21.2420  -32.4410 C   0  0  0  0  0  0  0  0  0  0  0  0
   -1.4260   21.6000  -31.2420 C   0  0  0  0  0  0  0  0  0  0  0  0
   -2.8220   21.6050  -31.1510 C   0  0  0  0  0  0  0  0  0  0  0  0
   -5.7870   20.0850  -32.2590 N   0  0  0  0  0  0  0  0  0  0  0  0
   -7.0800   20.4360  -32.1490 C   0  0  0  0  0  0  0  0  0  0  0  0
   -8.1890   19.5910  -32.1950 C   0  0  0  0  0  0  0  0  0  0  0  0
   -9.4640   20.1740  -32.0910 C   0  0  0  0  0  0  0  0  0  0  0  0
   -9.6020   21.5730  -31.9500 C   0  0  0  0  0  0  0  0  0  0  0  0
   -8.4650   22.4000  -31.9100 C   0  0  0  0  0  0  0  0  0  0  0  0
   -7.2120   21.7930  -32.0050 C   0  0  0  0  0  0  0  0  0  0  0  0
   -2.7182   21.8346  -26.7579 H   0  0  0  0  0  0  0  0  0  0  0  0
   -2.9405   20.9303  -28.2939 H   0  0  0  0  0  0  0  0  0  0  0  0
   -2.0657   22.4991  -28.2939 H   0  0  0  0  0  0  0  0  0  0  0  0
   -4.6772   22.2590  -28.9904 H   0  0  0  0  0  0  0  0  0  0  0  0
   -4.8418   22.5141  -27.1952 H   0  0  0  0  0  0  0  0  0  0  0  0
   -5.0046   24.6676  -28.2213 H   0  0  0  0  0  0  0  0  0  0  0  0
   -3.3594   24.5339  -27.4565 H   0  0  0  0  0  0  0  0  0  0  0  0
   -2.4963   25.1999  -29.4138 H   0  0  0  0  0  0  0  0  0  0  0  0
   -3.0080   23.6092  -30.0853 H   0  0  0  0  0  0  0  0  0  0  0  0
   -4.5990   26.1040  -30.0100 H   0  0  0  0  0  0  0  0  0  0  0  0
   -5.5467   23.6005  -29.9204 H   0  0  0  0  0  0  0  0  0  0  0  0
   -6.4050   25.0716  -30.5351 H   0  0  0  0  0  0  0  0  0  0  0  0
   -6.3668   24.3248  -32.6538 H   0  0  0  0  0  0  0  0  0  0  0  0
   -4.6081   23.9096  -32.5381 H   0  0  0  0  0  0  0  0  0  0  0  0
   -3.5749   20.6073  -34.3379 H   0  0  0  0  0  0  0  0  0  0  0  0
   -1.0839   20.6053  -34.4935 H   0  0  0  0  0  0  0  0  0  0  0  0
    0.2938   21.2382  -32.5108 H   0  0  0  0  0  0  0  0  0  0  0  0
   -0.8174   21.8781  -30.3689 H   0  0  0  0  0  0  0  0  0  0  0  0
   -3.3085   21.8720  -30.2012 H   0  0  0  0  0  0  0  0  0  0  0  0
   -5.4110   19.1190  -32.3830 H   0  0  0  0  0  0  0  0  0  0  0  0
   -8.0697   18.5034  -32.3090 H   0  0  0  0  0  0  0  0  0  0  0  0
  -10.3601   19.5367  -32.1196 H   0  0  0  0  0  0  0  0  0  0  0  0
  -10.6048   22.0182  -31.8710 H   0  0  0  0  0  0  0  0  0  0  0  0
   -8.5604   23.4910  -31.8071 H   0  0  0  0  0  0  0  0  0  0  0  0
  1  2  1  0
  2  3  1  0
  3  4  1  0
  4  5  1  0
  5  6  1  0
  6  7  1  0
  7  8  1  0
  8  9  2  0
  9 10  1  0
 10 11  2  0
 11 12  1  0
 12 13  2  0
 13 14  1  0
 14 15  2  0
  9 16  1  0
 16 17  1  0
 17 18  2  0
 18 19  1  0
 19 20  2  0
 20 21  1  0
 21 22  2  0
 22  8  1  0
 15 10  1  0
 22 17  1  0
  1 23  1  0
  1 24  1  0
  1 25  1  0
  2 26  1  0
  2 27  1  0
  3 28  1  0
  3 29  1  0
  4 30  1  0
  4 31  1  0
  5 32  1  0
  6 33  1  0
  6 34  1  0
  7 35  1  0
  7 36  1  0
 11 37  1  0
 12 38  1  0
 13 39  1  0
 14 40  1  0
 15 41  1  0
 16 42  1  0
 18 43  1  0
 19 44  1  0
 20 45  1  0
 21 46  1  0
M  END
>  <UniqueID>  (37) 
34

>  <SMILES>  (37) 
CCCCNCCc1c(-c2ccccc2)[nH]c2ccccc12

>  <Energy>  (37) 
73.47375064131748

>  <Genealogy>  (37) 
CCCCNCCc1c(-c2ccccc2)[nH]c2ccccc12 (3D coordinates assigned)
CCCCNCCc1c(-c2ccccc2)[nH]c2ccccc12 (optimized conformer: 73.47375064131748 kcal/mol)

>  <smiles>  (37) 
CCCCNCCc1c(-c2ccccc2)[nH]c2ccccc12

>  <score_type>  (37) 
oracle

>  <origin>  (37) 
adg

>  <m_score__min__energy>  (37) 
-8.1400000000000006

>  <m_primary>  (37) 
energy

$$$$
37:0
     RDKit          3D

 41 42  0  0  0  0  0  0  0  0999 V2000
   -3.8600   25.6660  -30.7850 O   0  0  0  0  0  0  0  0  0  0  0  0
   -3.7000   24.7840  -29.7080 C   0  0  0  0  0  0  0  0  0  0  0  0
   -3.8610   23.3410  -30.1930 C   0  0  0  0  0  0  0  0  0  0  0  0
   -4.6430   23.2930  -31.4460 N   0  0  0  0  0  0  0  0  0  0  0  0
   -4.6700   21.9330  -32.0460 C   0  0  0  0  0  0  0  0  0  0  0  0
   -5.9970   21.2030  -31.7820 C   0  0  0  0  0  0  0  0  0  0  0  0
   -7.1630   21.9400  -32.3450 N   0  0  0  0  0  0  0  0  0  0  0  0
   -8.4160   21.5950  -31.6230 C   0  0  0  0  0  0  0  0  0  0  0  0
   -9.0210   20.2450  -32.0500 C   0  0  0  0  0  0  0  0  0  0  0  0
   -8.3140   19.7010  -33.1670 O   0  0  0  0  0  0  0  0  0  0  0  0
   -7.2420   18.7960  -33.1060 C   0  0  0  0  0  0  0  0  0  0  0  0
   -6.2660   18.6970  -34.1180 C   0  0  0  0  0  0  0  0  0  0  0  0
   -5.2290   17.7670  -34.0050 C   0  0  0  0  0  0  0  0  0  0  0  0
   -5.1460   16.9380  -32.8840 C   0  0  0  0  0  0  0  0  0  0  0  0
   -6.0970   17.0460  -31.8660 C   0  0  0  0  0  0  0  0  0  0  0  0
   -7.1370   17.9740  -31.9760 C   0  0  0  0  0  0  0  0  0  0  0  0
   -6.9550   23.4160  -32.3530 C   0  0  0  0  0  0  0  0  0  0  0  0
   -5.9920   23.8690  -31.2470 C   0  0  0  0  0  0  0  0  0  0  0  0
   -3.5240   25.1860  -31.5850 H   0  0  0  0  0  0  0  0  0  0  0  0
   -2.6973   24.9142  -29.2749 H   0  0  0  0  0  0  0  0  0  0  0  0
   -4.4631   24.9988  -28.9454 H   0  0  0  0  0  0  0  0  0  0  0  0
   -2.8660   22.9075  -30.3720 H   0  0  0  0  0  0  0  0  0  0  0  0
   -4.3954   22.7672  -29.4215 H   0  0  0  0  0  0  0  0  0  0  0  0
   -4.5265   22.0233  -33.1329 H   0  0  0  0  0  0  0  0  0  0  0  0
   -3.8651   21.3449  -31.5810 H   0  0  0  0  0  0  0  0  0  0  0  0
   -5.9512   20.2056  -32.2436 H   0  0  0  0  0  0  0  0  0  0  0  0
   -6.1343   21.1325  -30.6929 H   0  0  0  0  0  0  0  0  0  0  0  0
   -7.2760   21.6480  -33.3440 H   0  0  0  0  0  0  0  0  0  0  0  0
   -8.1965   21.5527  -30.5460 H   0  0  0  0  0  0  0  0  0  0  0  0
   -9.1547   22.3721  -31.8689 H   0  0  0  0  0  0  0  0  0  0  0  0
   -8.9606   19.5404  -31.2074 H   0  0  0  0  0  0  0  0  0  0  0  0
  -10.0695   20.4056  -32.3414 H   0  0  0  0  0  0  0  0  0  0  0  0
   -6.3207   19.3534  -34.9990 H   0  0  0  0  0  0  0  0  0  0  0  0
   -4.4751   17.6876  -34.8021 H   0  0  0  0  0  0  0  0  0  0  0  0
   -4.3332   16.2012  -32.8027 H   0  0  0  0  0  0  0  0  0  0  0  0
   -6.0274   16.4008  -30.9778 H   0  0  0  0  0  0  0  0  0  0  0  0
   -7.8791   18.0596  -31.1686 H   0  0  0  0  0  0  0  0  0  0  0  0
   -6.5392   23.7104  -33.3279 H   0  0  0  0  0  0  0  0  0  0  0  0
   -7.9280   23.8963  -32.1728 H   0  0  0  0  0  0  0  0  0  0  0  0
   -5.9196   24.9665  -31.2610 H   0  0  0  0  0  0  0  0  0  0  0  0
   -6.3819   23.5195  -30.2796 H   0  0  0  0  0  0  0  0  0  0  0  0
  1  2  1  0
  2  3  1  0
  3  4  1  0
  4  5  1  0
  5  6  1  0
  6  7  1  0
  7  8  1  0
  8  9  1  0
  9 10  1  0
 10 11  1  0
 11 12  2  0
 12 13  1  0
 13 14  2  0
 14 15  1  0
 15 16  2  0
  7 17  1  0
 17 18  1  0
 18  4  1  0
 16 11  1  0
  1 19  1  0
  2 20  1  0
  2 21  1  0
  3 22  1  0
  3 23  1  0
  5 24  1  0
  5 25  1  0
  6 26  1  0
  6 27  1  0
  7 28  1  0
  8 29  1  0
  8 30  1  0
  9 31  1  0
  9 32  1  0
 12 33  1  0
 13 34  1  0
 14 35  1  0
 15 36  1  0
 16 37  1  0
 17 38  1  0
 17 39  1  0
 18 40  1  0
 18 41  1  0
M  CHG  1   7   1
M  END
>  <UniqueID>  (38) 
35

>  <SMILES>  (38) 
OCCN1CC[NH+](CCOc2ccccc2)CC1

>  <Energy>  (38) 
54.48988962772559

>  <Genealogy>  (38) 
OCCN1CC[NH+](CCOc2ccccc2)CC1 (protonated)
OCCN1CC[NH+](CCOc2ccccc2)CC1 (3D coordinates assigned)
OCCN1CC[NH+](CCOc2ccccc2)CC1 (nonaromatic ring conformer: 54.48988962772559 kcal/mol)

>  <smiles>  (38) 
OCCN1CCN(CCOc2ccccc2)CC1

>  <score_type>  (38) 
oracle

>  <origin>  (38) 
adg

>  <m_score__min__energy>  (38) 
-6.2000000000000002

>  <m_primary>  (38) 
energy

$$$$
38:0
     RDKit          3D

 37 38  0  0  0  0  0  0  0  0999 V2000
   -2.2140   25.2530  -26.8460 C   0  0  0  0  0  0  0  0  0  0  0  0
   -1.5080   25.6780  -28.1280 C   0  0  0  0  0  0  0  0  0  0  0  0
   -2.2670   25.2880  -29.2710 O   0  0  0  0  0  0  0  0  0  0  0  0
   -2.5520   23.9560  -29.5880 C   0  0  0  0  0  0  0  0  0  0  0  0
   -1.7220   23.2510  -30.2250 O   0  0  0  0  0  0  0  0  0  0  0  0
   -3.8770   23.3760  -29.2000 C   0  0  0  0  0  0  0  0  0  0  0  0
   -4.9830   23.7650  -30.1950 C   0  0  1  0  0  0  0  0  0  0  0  0
   -4.5940   24.9500  -30.8660 O   0  0  0  0  0  0  0  0  0  0  0  0
   -5.3990   26.0400  -30.4630 C   0  0  0  0  0  0  0  0  0  0  0  0
   -6.4860   25.5360  -29.5270 C   0  0  0  0  0  0  0  0  0  0  0  0
   -5.2320   22.6470  -31.1900 C   0  0  0  0  0  0  0  0  0  0  0  0
   -4.2120   22.1430  -32.0030 C   0  0  0  0  0  0  0  0  0  0  0  0
   -4.8390   20.9400  -33.0080 S   0  0  0  0  0  0  0  0  0  0  0  0
   -6.4050   21.0480  -32.4240 C   0  0  0  0  0  0  0  0  0  0  0  0
   -7.5170   20.3110  -32.8240 C   0  0  0  0  0  0  0  0  0  0  0  0
   -8.7440   20.5680  -32.1980 C   0  0  0  0  0  0  0  0  0  0  0  0
   -8.8360   21.5490  -31.1950 C   0  0  0  0  0  0  0  0  0  0  0  0
   -7.7020   22.2820  -30.8080 C   0  0  0  0  0  0  0  0  0  0  0  0
   -6.4750   22.0230  -31.4360 C   0  0  0  0  0  0  0  0  0  0  0  0
   -1.6364   25.6007  -25.9768 H   0  0  0  0  0  0  0  0  0  0  0  0
   -3.2208   25.6953  -26.8179 H   0  0  0  0  0  0  0  0  0  0  0  0
   -2.2944   24.1563  -26.8179 H   0  0  0  0  0  0  0  0  0  0  0  0
   -1.3880   26.7714  -28.1294 H   0  0  0  0  0  0  0  0  0  0  0  0
   -0.5243   25.1877  -28.1709 H   0  0  0  0  0  0  0  0  0  0  0  0
   -3.7917   22.2796  -29.1729 H   0  0  0  0  0  0  0  0  0  0  0  0
   -4.1494   23.7755  -28.2120 H   0  0  0  0  0  0  0  0  0  0  0  0
   -5.9220   23.9383  -29.6489 H   0  0  0  0  0  0  0  0  0  0  0  0
   -4.7784   26.7830  -29.9407 H   0  0  0  0  0  0  0  0  0  0  0  0
   -5.8581   26.5083  -31.3462 H   0  0  0  0  0  0  0  0  0  0  0  0
   -6.1689   25.6830  -28.4840 H   0  0  0  0  0  0  0  0  0  0  0  0
   -7.4156   26.0950  -29.7099 H   0  0  0  0  0  0  0  0  0  0  0  0
   -6.6600   24.4654  -29.7099 H   0  0  0  0  0  0  0  0  0  0  0  0
   -3.1644   22.4781  -31.9898 H   0  0  0  0  0  0  0  0  0  0  0  0
   -7.4342   19.5469  -33.6110 H   0  0  0  0  0  0  0  0  0  0  0  0
   -9.6388   20.0000  -32.4925 H   0  0  0  0  0  0  0  0  0  0  0  0
   -9.8036   21.7440  -30.7095 H   0  0  0  0  0  0  0  0  0  0  0  0
   -7.7753   23.0489  -30.0229 H   0  0  0  0  0  0  0  0  0  0  0  0
  1  2  1  0
  2  3  1  0
  3  4  1  0
  4  5  2  0
  4  6  1  0
  6  7  1  0
  7  8  1  0
  8  9  1  0
  9 10  1  0
  7 11  1  0
 11 12  2  0
 12 13  1  0
 13 14  1  0
 14 15  2  0
 15 16  1  0
 16 17  2  0
 17 18  1  0
 18 19  2  0
 19 11  1  0
 19 14  1  0
  1 20  1  0
  1 21  1  0
  1 22  1  0
  2 23  1  0
  2 24  1  0
  6 25  1  0
  6 26  1  0
  7 27  1  1
  9 28  1  0
  9 29  1  0
 10 30  1  0
 10 31  1  0
 10 32  1  0
 12 33  1  0
 15 34  1  0
 16 35  1  0
 17 36  1  0
 18 37  1  0
M  END
>  <UniqueID>  (39) 
36

>  <SMILES>  (39) 
CCOC(=O)C[C@@H](OCC)c1csc2ccccc12

>  <Energy>  (39) 
58.21897966930423

>  <Genealogy>  (39) 
CCOC(=O)C[C@@H](OCC)c1csc2ccccc12 (chirality)
CCOC(=O)C[C@@H](OCC)c1csc2ccccc12 (3D coordinates assigned)
CCOC(=O)C[C@@H](OCC)c1csc2ccccc12 (optimized conformer: 58.21897966930423 kcal/mol)

>  <smiles>  (39) 
CCOC(=O)CC(OCC)c1csc2ccccc12

>  <score_type>  (39) 
oracle

>  <origin>  (39) 
adg

>  <m_score__min__energy>  (39) 
-7.7999999999999998

>  <m_primary>  (39) 
energy

$$$$
39:0
     RDKit          3D

 41 42  0  0  0  0  0  0  0  0999 V2000
   -6.1270   25.0918  -32.1806 H   0  0  0  0  0  0  0  0  0  0  0  0
   -6.1450   24.5490  -31.2240 C   0  0  0  0  0  0  0  0  0  0  0  0
   -4.9730   24.6880  -30.3390 C   0  0  0  0  0  0  0  0  0  0  0  0
   -3.9490   25.2750  -30.7790 O   0  0  0  0  0  0  0  0  0  0  0  0
   -5.0140   24.2330  -28.9800 N   0  0  0  0  0  0  0  0  0  0  0  0
   -5.9370   23.9620  -28.5710 H   0  0  0  0  0  0  0  0  0  0  0  0
   -3.8040   24.1800  -28.1620 C   0  0  0  0  0  0  0  0  0  0  0  0
   -4.0835   24.2909  -27.1039 H   0  0  0  0  0  0  0  0  0  0  0  0
   -3.1379   24.9954  -28.4804 H   0  0  0  0  0  0  0  0  0  0  0  0
   -3.0560   22.8510  -28.3430 C   0  0  0  0  0  0  0  0  0  0  0  0
   -3.7703   22.0818  -28.6718 H   0  0  0  0  0  0  0  0  0  0  0  0
   -2.6006   22.5799  -27.3791 H   0  0  0  0  0  0  0  0  0  0  0  0
   -1.9780   22.9630  -29.3460 N   0  0  0  0  0  0  0  0  0  0  0  0
   -2.0490   22.2820  -30.6340 C   0  0  0  0  0  0  0  0  0  0  0  0
   -0.9020   21.6730  -31.1970 C   0  0  0  0  0  0  0  0  0  0  0  0
    0.0577   21.7278  -30.6623 H   0  0  0  0  0  0  0  0  0  0  0  0
   -0.9700   21.0030  -32.4220 C   0  0  0  0  0  0  0  0  0  0  0  0
   -0.0691   20.5276  -32.8371 H   0  0  0  0  0  0  0  0  0  0  0  0
   -2.1740   20.9350  -33.1190 C   0  0  0  0  0  0  0  0  0  0  0  0
   -2.2250   20.4044  -34.0812 H   0  0  0  0  0  0  0  0  0  0  0  0
   -3.3140   21.5410  -32.5940 C   0  0  0  0  0  0  0  0  0  0  0  0
   -4.2637   21.4916  -33.1469 H   0  0  0  0  0  0  0  0  0  0  0  0
   -3.2570   22.2110  -31.3690 C   0  0  0  0  0  0  0  0  0  0  0  0
   -4.1634   22.6900  -30.9702 H   0  0  0  0  0  0  0  0  0  0  0  0
   -0.8390   23.8420  -29.0390 C   0  0  0  0  0  0  0  0  0  0  0  0
   -0.7265   23.9289  -27.9482 H   0  0  0  0  0  0  0  0  0  0  0  0
    0.0793   23.4162  -29.4696 H   0  0  0  0  0  0  0  0  0  0  0  0
   -1.0182   24.8382  -29.4696 H   0  0  0  0  0  0  0  0  0  0  0  0
   -7.2320   23.8100  -30.9500 C   0  0  0  0  0  0  0  0  0  0  0  0
   -7.9256   24.1975  -30.1892 H   0  0  0  0  0  0  0  0  0  0  0  0
   -7.5760   22.5180  -31.5850 C   0  0  0  0  0  0  0  0  0  0  0  0
   -6.5830   21.8200  -32.2920 C   0  0  0  0  0  0  0  0  0  0  0  0
   -5.5836   22.2635  -32.4121 H   0  0  0  0  0  0  0  0  0  0  0  0
   -6.8570   20.5650  -32.8440 C   0  0  0  0  0  0  0  0  0  0  0  0
   -6.0782   20.0308  -33.4079 H   0  0  0  0  0  0  0  0  0  0  0  0
   -8.1190   19.9890  -32.6800 C   0  0  0  0  0  0  0  0  0  0  0  0
   -8.3336   19.0018  -33.1151 H   0  0  0  0  0  0  0  0  0  0  0  0
   -9.1080   20.6660  -31.9640 C   0  0  0  0  0  0  0  0  0  0  0  0
  -10.1014   20.2112  -31.8364 H   0  0  0  0  0  0  0  0  0  0  0  0
   -8.8390   21.9200  -31.4090 C   0  0  0  0  0  0  0  0  0  0  0  0
   -9.6168   22.4421  -30.8324 H   0  0  0  0  0  0  0  0  0  0  0  0
  1  2  1  0
  2  3  1  0
  3  4  2  0
  3  5  1  0
  5  6  1  0
  5  7  1  0
  7  8  1  0
  7  9  1  0
  7 10  1  0
 10 11  1  0
 10 12  1  0
 10 13  1  0
 13 14  1  0
 14 15  2  0
 15 16  1  0
 15 17  1  0
 17 18  1  0
 17 19  2  0
 19 20  1  0
 19 21  1  0
 21 22  1  0
 21 23  2  0
 23 24  1  0
 13 25  1  0
 25 26  1  0
 25 27  1  0
 25 28  1  0
  2 29  2  0
 29 30  1  0
 29 31  1  0
 31 32  2  0
 32 33  1  0
 32 34  1  0
 34 35  1  0
 34 36  2  0
 36 37  1  0
 36 38  1  0
 38 39  1  0
 38 40  2  0
 40 41  1  0
 23 14  1  0
 40 31  1  0
M  END
>  <UniqueID>  (40) 
37

>  <SMILES>  (40) 
CN(CCNC(=O)/C=C\c1ccccc1)c1ccccc1

>  <Energy>  (40) 
44.007192252824055

>  <Genealogy>  (40) 
CN(CCNC(=O)/C=C\c1ccccc1)c1ccccc1 (cis-trans isomerization)
CN(CCNC(=O)/C=C\c1ccccc1)c1ccccc1 (3D coordinates assigned)
CN(CCNC(=O)/C=C\c1ccccc1)c1ccccc1 (optimized conformer: 44.007192252824055 kcal/mol)

>  <smiles>  (40) 
CN(CCNC(=O)C=Cc1ccccc1)c1ccccc1

>  <score_type>  (40) 
oracle

>  <origin>  (40) 
adg

>  <m_score__min__energy>  (40) 
-7.9400000000000004

>  <m_primary>  (40) 
energy

$$$$
40:0
     RDKit          3D

 52 56  0  0  0  0  0  0  0  0999 V2000
   -5.2790   25.6630  -30.4630 C   0  0  0  0  0  0  0  0  0  0  0  0
   -3.9470   25.1640  -30.5140 O   0  0  0  0  0  0  0  0  0  0  0  0
   -3.5810   23.8450  -30.2040 C   0  0  0  0  0  0  0  0  0  0  0  0
   -3.8860   23.3530  -28.9300 C   0  0  0  0  0  0  0  0  0  0  0  0
   -3.5520   22.0430  -28.5770 C   0  0  0  0  0  0  0  0  0  0  0  0
   -2.9020   21.2140  -29.4930 C   0  0  0  0  0  0  0  0  0  0  0  0
   -2.5710   21.6950  -30.7700 C   0  0  0  0  0  0  0  0  0  0  0  0
   -1.9100   20.7880  -31.7730 C   0  0  0  0  0  0  0  0  0  0  0  0
   -2.8030   19.6700  -32.0900 N   0  0  0  0  0  0  0  0  0  0  0  0
   -3.5920   19.9700  -33.2910 C   0  0  0  0  0  0  0  0  0  0  0  0
   -5.0350   20.2100  -32.9150 C   0  0  0  0  0  0  0  0  0  0  0  0
   -5.4380   21.5310  -32.6600 C   0  0  0  0  0  0  0  0  0  0  0  0
   -6.7740   21.8230  -32.3740 C   0  0  0  0  0  0  0  0  0  0  0  0
   -7.1980   23.1390  -32.1290 C   0  0  0  0  0  0  0  0  0  0  0  0
   -8.5450   23.3990  -31.8540 C   0  0  0  0  0  0  0  0  0  0  0  0
   -9.4710   22.3520  -31.8250 C   0  0  0  0  0  0  0  0  0  0  0  0
   -9.0560   21.0390  -32.0680 C   0  0  0  0  0  0  0  0  0  0  0  0
   -7.7100   20.7700  -32.3420 C   0  0  0  0  0  0  0  0  0  0  0  0
   -7.3010   19.4960  -32.5680 N   0  0  0  0  0  0  0  0  0  0  0  0
   -6.0040   19.1750  -32.8310 C   0  0  0  0  0  0  0  0  0  0  0  0
   -5.6910   17.7440  -33.0280 C   0  0  0  0  0  0  0  0  0  0  0  0
   -4.4880   17.2020  -32.7070 N   0  0  0  0  0  0  0  0  0  0  0  0
   -4.4020   15.8990  -33.0780 C   0  0  0  0  0  0  0  0  0  0  0  0
   -3.2890   15.0800  -32.8640 C   0  0  0  0  0  0  0  0  0  0  0  0
   -3.3380   13.7470  -33.3080 C   0  0  0  0  0  0  0  0  0  0  0  0
   -4.4870   13.2510  -33.9570 C   0  0  0  0  0  0  0  0  0  0  0  0
   -5.5970   14.0850  -34.1700 C   0  0  0  0  0  0  0  0  0  0  0  0
   -5.5240   15.4000  -33.7180 C   0  0  0  0  0  0  0  0  0  0  0  0
   -6.6740   16.6170  -33.8360 S   0  0  0  0  0  0  0  0  0  0  0  0
   -2.9240   23.0070  -31.1270 C   0  0  0  0  0  0  0  0  0  0  0  0
   -5.5873   25.7785  -29.4134 H   0  0  0  0  0  0  0  0  0  0  0  0
   -5.3245   26.6391  -30.9681 H   0  0  0  0  0  0  0  0  0  0  0  0
   -5.9546   24.9570  -30.9681 H   0  0  0  0  0  0  0  0  0  0  0  0
   -4.3925   24.0025  -28.2009 H   0  0  0  0  0  0  0  0  0  0  0  0
   -3.8018   21.6640  -27.5750 H   0  0  0  0  0  0  0  0  0  0  0  0
   -2.6483   20.1808  -29.2135 H   0  0  0  0  0  0  0  0  0  0  0  0
   -1.6926   21.3541  -32.6907 H   0  0  0  0  0  0  0  0  0  0  0  0
   -0.9728   20.3976  -31.3497 H   0  0  0  0  0  0  0  0  0  0  0  0
   -2.2130   18.8290  -32.2860 H   0  0  0  0  0  0  0  0  0  0  0  0
   -3.1877   20.8702  -33.7769 H   0  0  0  0  0  0  0  0  0  0  0  0
   -3.5364   19.1159  -33.9820 H   0  0  0  0  0  0  0  0  0  0  0  0
   -4.6957   22.3424  -32.6857 H   0  0  0  0  0  0  0  0  0  0  0  0
   -6.4718   23.9648  -32.1533 H   0  0  0  0  0  0  0  0  0  0  0  0
   -8.8763   24.4299  -31.6601 H   0  0  0  0  0  0  0  0  0  0  0  0
  -10.5293   22.5617  -31.6104 H   0  0  0  0  0  0  0  0  0  0  0  0
   -9.7872   20.2176  -32.0438 H   0  0  0  0  0  0  0  0  0  0  0  0
   -3.7210   17.7260  -32.2290 H   0  0  0  0  0  0  0  0  0  0  0  0
   -2.3935   15.4707  -32.3586 H   0  0  0  0  0  0  0  0  0  0  0  0
   -2.4734   13.0861  -33.1478 H   0  0  0  0  0  0  0  0  0  0  0  0
   -4.5144   12.2056  -34.2983 H   0  0  0  0  0  0  0  0  0  0  0  0
   -6.4974   13.7103  -34.6789 H   0  0  0  0  0  0  0  0  0  0  0  0
   -2.6861   23.3825  -32.1332 H   0  0  0  0  0  0  0  0  0  0  0  0
  1  2  1  0
  2  3  1  0
  3  4  2  0
  4  5  1  0
  5  6  2  0
  6  7  1  0
  7  8  1  0
  8  9  1  0
  9 10  1  0
 10 11  1  0
 11 12  2  0
 12 13  1  0
 13 14  2  0
 14 15  1  0
 15 16  2  0
 16 17  1  0
 17 18  2  0
 18 19  1  0
 19 20  2  0
 20 21  1  0
 21 22  2  0
 22 23  1  0
 23 24  2  0
 24 25  1  0
 25 26  2  0
 26 27  1  0
 27 28  2  0
 28 29  1  0
  7 30  2  0
 30  3  1  0
 20 11  1  0
 29 21  1  0
 18 13  1  0
 28 23  1  0
  1 31  1  0
  1 32  1  0
  1 33  1  0
  4 34  1  0
  5 35  1  0
  6 36  1  0
  8 37  1  0
  8 38  1  0
  9 39  1  0
 10 40  1  0
 10 41  1  0
 12 42  1  0
 14 43  1  0
 15 44  1  0
 16 45  1  0
 17 46  1  0
 22 47  1  0
 24 48  1  0
 25 49  1  0
 26 50  1  0
 27 51  1  0
 30 52  1  0
M  CHG  1  22   1
M  END
>  <UniqueID>  (41) 
38

>  <SMILES>  (41) 
COc1cccc(CNCc2cc3ccccc3nc2-c2[nH+]c3ccccc3s2)c1

>  <Energy>  (41) 
99.05417102461503

>  <Genealogy>  (41) 
COc1cccc(CNCc2cc3ccccc3nc2-c2[nH+]c3ccccc3s2)c1 (protonated)
COc1cccc(CNCc2cc3ccccc3nc2-c2[nH+]c3ccccc3s2)c1 (3D coordinates assigned)
COc1cccc(CNCc2cc3ccccc3nc2-c2[nH+]c3ccccc3s2)c1 (optimized conformer: 99.05417102461503 kcal/mol)

>  <smiles>  (41) 
COc1cccc(CNCc2cc3ccccc3nc2-c2nc3ccccc3s2)c1

>  <score_type>  (41) 
oracle

>  <origin>  (41) 
adg

>  <m_score__min__energy>  (41) 
-9.5299999999999994

>  <m_primary>  (41) 
energy

$$$$
41:0
     RDKit          3D

 60 64  0  0  0  0  0  0  0  0999 V2000
    0.7390   16.8160  -29.9540 C   0  0  0  0  0  0  0  0  0  0  0  0
    0.9210   17.2360  -28.6070 O   0  0  0  0  0  0  0  0  0  0  0  0
    0.2810   18.3440  -28.0310 C   0  0  0  0  0  0  0  0  0  0  0  0
    0.8490   19.6100  -28.2170 C   0  0  0  0  0  0  0  0  0  0  0  0
    0.2480   20.7460  -27.6670 C   0  0  0  0  0  0  0  0  0  0  0  0
   -0.9300   20.6280  -26.9130 C   0  0  0  0  0  0  0  0  0  0  0  0
   -1.6120   21.8600  -26.3870 C   0  0  0  0  0  0  0  0  0  0  0  0
   -2.1590   22.6350  -27.5060 N   0  0  0  0  0  0  0  0  0  0  0  0
   -1.9490   24.0840  -27.6050 C   0  0  0  0  0  0  0  0  0  0  0  0
   -1.3210   24.4880  -28.9580 C   0  0  0  0  0  0  0  0  0  0  0  0
   -1.4320   23.4180  -30.0660 C   0  0  0  0  0  0  0  0  0  0  0  0
   -2.7170   22.5730  -29.9710 C   0  0  1  0  0  0  0  0  0  0  0  0
   -4.2150   23.6040  -30.3210 S   0  0  0  0  0  0  0  0  0  0  0  0
   -4.6980   22.6710  -31.8400 C   0  0  2  0  0  0  0  0  0  0  0  0
   -6.1070   22.1420  -31.7170 C   0  0  0  0  0  0  0  0  0  0  0  0
   -7.2020   23.0200  -31.6280 C   0  0  0  0  0  0  0  0  0  0  0  0
   -8.5010   22.5200  -31.5210 C   0  0  0  0  0  0  0  0  0  0  0  0
   -8.7230   21.1420  -31.5070 C   0  0  0  0  0  0  0  0  0  0  0  0
   -7.6500   20.2490  -31.6030 C   0  0  0  0  0  0  0  0  0  0  0  0
   -7.9270   18.8750  -31.5940 O   0  0  0  0  0  0  0  0  0  0  0  0
   -7.0310   17.8690  -32.0570 C   0  0  0  0  0  0  0  0  0  0  0  0
   -6.3390   20.7550  -31.7070 C   0  0  0  0  0  0  0  0  0  0  0  0
   -3.7060   21.5800  -31.9490 C   0  0  0  0  0  0  0  0  0  0  0  0
   -2.7260   21.5300  -31.0280 C   0  0  0  0  0  0  0  0  0  0  0  0
   -1.9500   20.4260  -31.3180 C   0  0  0  0  0  0  0  0  0  0  0  0
   -0.8480   19.9920  -30.5890 O   0  0  0  0  0  0  0  0  0  0  0  0
   -2.4320   19.8090  -32.4220 N   0  0  0  0  0  0  0  0  0  0  0  0
   -1.9520   18.5590  -33.0010 C   0  0  0  0  0  0  0  0  0  0  0  0
   -3.5230   20.5120  -32.8020 C   0  0  0  0  0  0  0  0  0  0  0  0
   -4.3370   20.1870  -33.8800 O   0  0  0  0  0  0  0  0  0  0  0  0
   -2.8140   21.9700  -28.5960 C   0  0  0  0  0  0  0  0  0  0  0  0
   -3.4680   20.9090  -28.3970 O   0  0  0  0  0  0  0  0  0  0  0  0
   -1.5070   19.3620  -26.7320 C   0  0  0  0  0  0  0  0  0  0  0  0
   -0.9050   18.2260  -27.2810 C   0  0  0  0  0  0  0  0  0  0  0  0
    0.3017   15.8068  -29.9675 H   0  0  0  0  0  0  0  0  0  0  0  0
    0.0632   17.5154  -30.4680 H   0  0  0  0  0  0  0  0  0  0  0  0
    1.7114   16.8011  -30.4680 H   0  0  0  0  0  0  0  0  0  0  0  0
    1.7758   19.7117  -28.8007 H   0  0  0  0  0  0  0  0  0  0  0  0
    0.7000   21.7362  -27.8257 H   0  0  0  0  0  0  0  0  0  0  0  0
   -2.4287   21.5661  -25.7113 H   0  0  0  0  0  0  0  0  0  0  0  0
   -0.8835   22.4749  -25.8382 H   0  0  0  0  0  0  0  0  0  0  0  0
   -2.9192   24.5913  -27.4984 H   0  0  0  0  0  0  0  0  0  0  0  0
   -1.2539   24.3815  -26.8060 H   0  0  0  0  0  0  0  0  0  0  0  0
   -1.8246   25.4001  -29.3108 H   0  0  0  0  0  0  0  0  0  0  0  0
   -0.2465   24.6316  -28.7713 H   0  0  0  0  0  0  0  0  0  0  0  0
   -1.4183   23.9240  -31.0426 H   0  0  0  0  0  0  0  0  0  0  0  0
   -0.5811   22.7319  -29.9426 H   0  0  0  0  0  0  0  0  0  0  0  0
   -4.6973   23.3032  -32.7402 H   0  0  0  0  0  0  0  0  0  0  0  0
   -7.0339   24.1070  -31.6428 H   0  0  0  0  0  0  0  0  0  0  0  0
   -9.3516   23.2136  -31.4475 H   0  0  0  0  0  0  0  0  0  0  0  0
   -9.7491   20.7552  -31.4199 H   0  0  0  0  0  0  0  0  0  0  0  0
   -6.5762   17.3583  -31.1954 H   0  0  0  0  0  0  0  0  0  0  0  0
   -7.5832   17.1386  -32.6666 H   0  0  0  0  0  0  0  0  0  0  0  0
   -6.2418   18.3333  -32.6666 H   0  0  0  0  0  0  0  0  0  0  0  0
   -5.4901   20.0594  -31.7810 H   0  0  0  0  0  0  0  0  0  0  0  0
   -1.6838   17.8606  -32.1946 H   0  0  0  0  0  0  0  0  0  0  0  0
   -2.7436   18.1150  -33.6225 H   0  0  0  0  0  0  0  0  0  0  0  0
   -1.0667   18.7589  -33.6225 H   0  0  0  0  0  0  0  0  0  0  0  0
   -2.4382   19.2627  -26.1549 H   0  0  0  0  0  0  0  0  0  0  0  0
   -1.3594   17.2362  -27.1266 H   0  0  0  0  0  0  0  0  0  0  0  0
  1  2  1  0
  2  3  1  0
  3  4  2  0
  4  5  1  0
  5  6  2  0
  6  7  1  0
  7  8  1  0
  8  9  1  0
  9 10  1  0
 10 11  1  0
 11 12  1  0
 12 13  1  6
 13 14  1  0
 14 15  1  0
 15 16  2  0
 16 17  1  0
 17 18  2  0
 18 19  1  0
 19 20  1  0
 20 21  1  0
 19 22  2  0
 14 23  1  0
 23 24  1  0
 24 25  2  0
 25 26  1  0
 25 27  1  0
 27 28  1  0
 27 29  1  0
 29 30  1  0
 12 31  1  0
 31 32  2  0
  6 33  1  0
 33 34  2  0
 34  3  1  0
 31  8  1  0
 24 12  1  0
 22 15  1  0
 29 23  2  0
  1 35  1  0
  1 36  1  0
  1 37  1  0
  4 38  1  0
  5 39  1  0
  7 40  1  0
  7 41  1  0
  9 42  1  0
  9 43  1  0
 10 44  1  0
 10 45  1  0
 11 46  1  0
 11 47  1  0
 14 48  1  6
 16 49  1  0
 17 50  1  0
 18 51  1  0
 21 52  1  0
 21 53  1  0
 21 54  1  0
 22 55  1  0
 28 56  1  0
 28 57  1  0
 28 58  1  0
 33 59  1  0
 34 60  1  0
M  CHG  2  26  -1  30  -1
M  END
>  <UniqueID>  (42) 
39

>  <SMILES>  (42) 
COc1ccc(CN2CCC[C@]3(S[C@H](c4cccc(OC)c4)c4c3c([O-])n(C)c4[O-])C2=O)cc1

>  <Energy>  (42) 
99.76623654189015

>  <Genealogy>  (42) 
COc1ccc(CN2CCCC3(SC(c4cccc(OC)c4)c4c3c([O-])n(C)c4[O-])C2=O)cc1 (protonated)
COc1ccc(CN2CCC[C@]3(S[C@H](c4cccc(OC)c4)c4c3c([O-])n(C)c4[O-])C2=O)cc1 (chirality)
COc1ccc(CN2CCC[C@]3(S[C@H](c4cccc(OC)c4)c4c3c([O-])n(C)c4[O-])C2=O)cc1 (3D coordinates assigned)
COc1ccc(CN2CCC[C@]3(S[C@H](c4cccc(OC)c4)c4c3c([O-])n(C)c4[O-])C2=O)cc1 (nonaromatic ring conformer: 99.76623654189015 kcal/mol)

>  <smiles>  (42) 
COc1ccc(CN2CCCC3(SC(c4cccc(OC)c4)c4c3c(O)n(C)c4O)C2=O)cc1

>  <score_type>  (42) 
oracle

>  <origin>  (42) 
adg

>  <m_score__min__energy>  (42) 
-11.199999999999999

>  <m_primary>  (42) 
energy

$$$$
42:0
     RDKit          3D

 42 44  0  0  0  0  0  0  0  0999 V2000
   -1.0410   30.0030  -25.2060 C   0  0  0  0  0  0  0  0  0  0  0  0
   -0.4930   29.3080  -26.4460 C   0  0  0  0  0  0  0  0  0  0  0  0
   -0.0280   27.9980  -26.1250 O   0  0  0  0  0  0  0  0  0  0  0  0
   -0.8460   27.0000  -25.5790 C   0  0  0  0  0  0  0  0  0  0  0  0
   -0.9700   26.8970  -24.3270 O   0  0  0  0  0  0  0  0  0  0  0  0
   -1.5590   26.0620  -26.4750 C   0  0  0  0  0  0  0  0  0  0  0  0
   -1.0660   25.7840  -27.7620 C   0  0  0  0  0  0  0  0  0  0  0  0
   -1.7420   24.8960  -28.6030 C   0  0  0  0  0  0  0  0  0  0  0  0
   -2.9160   24.2570  -28.1690 C   0  0  0  0  0  0  0  0  0  0  0  0
   -3.6420   23.3570  -29.0250 N   0  0  0  0  0  0  0  0  0  0  0  0
   -4.4140   23.7810  -30.1590 C   0  0  0  0  0  0  0  0  0  0  0  0
   -4.2140   24.9160  -30.6720 O   0  0  0  0  0  0  0  0  0  0  0  0
   -5.4160   22.8890  -30.7690 C   0  0  0  0  0  0  0  0  0  0  0  0
   -6.7770   22.8380  -30.4670 C   0  0  0  0  0  0  0  0  0  0  0  0
   -7.4740   21.9020  -31.2410 C   0  0  0  0  0  0  0  0  0  0  0  0
   -6.6610   21.1940  -32.1170 C   0  0  0  0  0  0  0  0  0  0  0  0
   -5.0880   21.7680  -31.9880 S   0  0  0  0  0  0  0  0  0  0  0  0
   -7.1640   20.2000  -33.1180 C   0  0  0  0  0  0  0  0  0  0  0  0
   -8.5620   19.6910  -32.7260 C   0  0  0  0  0  0  0  0  0  0  0  0
   -9.4870   20.8540  -32.3190 C   0  0  0  0  0  0  0  0  0  0  0  0
   -8.9390   21.6020  -31.0900 C   0  0  0  0  0  0  0  0  0  0  0  0
   -3.4190   24.5510  -26.8940 C   0  0  0  0  0  0  0  0  0  0  0  0
   -2.7450   25.4390  -26.0510 C   0  0  0  0  0  0  0  0  0  0  0  0
   -0.6502   29.5074  -24.3051 H   0  0  0  0  0  0  0  0  0  0  0  0
   -0.7289   31.0578  -25.2088 H   0  0  0  0  0  0  0  0  0  0  0  0
   -2.1395   29.9456  -25.2088 H   0  0  0  0  0  0  0  0  0  0  0  0
   -1.2901   29.2336  -27.2004 H   0  0  0  0  0  0  0  0  0  0  0  0
    0.3495   29.8964  -26.8383 H   0  0  0  0  0  0  0  0  0  0  0  0
   -0.1417   26.2689  -28.1093 H   0  0  0  0  0  0  0  0  0  0  0  0
   -1.3524   24.6957  -29.6120 H   0  0  0  0  0  0  0  0  0  0  0  0
   -3.5130   22.3320  -28.8700 H   0  0  0  0  0  0  0  0  0  0  0  0
   -7.2531   23.4674  -29.7007 H   0  0  0  0  0  0  0  0  0  0  0  0
   -7.2187   20.6795  -34.1065 H   0  0  0  0  0  0  0  0  0  0  0  0
   -6.4720   19.3454  -33.1453 H   0  0  0  0  0  0  0  0  0  0  0  0
   -9.0051   19.1640  -33.5839 H   0  0  0  0  0  0  0  0  0  0  0  0
   -8.4564   19.0137  -31.8657 H   0  0  0  0  0  0  0  0  0  0  0  0
   -9.5682   21.5583  -33.1601 H   0  0  0  0  0  0  0  0  0  0  0  0
  -10.4728   20.4393  -32.0615 H   0  0  0  0  0  0  0  0  0  0  0  0
   -9.4880   22.5479  -30.9721 H   0  0  0  0  0  0  0  0  0  0  0  0
   -9.0726   20.9613  -30.2059 H   0  0  0  0  0  0  0  0  0  0  0  0
   -4.3524   24.0786  -26.5540 H   0  0  0  0  0  0  0  0  0  0  0  0
   -3.1457   25.6516  -25.0489 H   0  0  0  0  0  0  0  0  0  0  0  0
  1  2  1  0
  2  3  1  0
  3  4  1  0
  4  5  2  0
  4  6  1  0
  6  7  2  0
  7  8  1  0
  8  9  2  0
  9 10  1  0
 10 11  1  0
 11 12  2  0
 11 13  1  0
 13 14  2  0
 14 15  1  0
 15 16  2  0
 16 17  1  0
 16 18  1  0
 18 19  1  0
 19 20  1  0
 20 21  1  0
  9 22  1  0
 22 23  2  0
 23  6  1  0
 17 13  1  0
 21 15  1  0
  1 24  1  0
  1 25  1  0
  1 26  1  0
  2 27  1  0
  2 28  1  0
  7 29  1  0
  8 30  1  0
 10 31  1  0
 14 32  1  0
 18 33  1  0
 18 34  1  0
 19 35  1  0
 19 36  1  0
 20 37  1  0
 20 38  1  0
 21 39  1  0
 21 40  1  0
 22 41  1  0
 23 42  1  0
M  END
>  <UniqueID>  (43) 
40

>  <SMILES>  (43) 
CCOC(=O)c1ccc(NC(=O)c2cc3c(s2)CCCC3)cc1

>  <Energy>  (43) 
67.49327543971599

>  <Genealogy>  (43) 
CCOC(=O)c1ccc(NC(=O)c2cc3c(s2)CCCC3)cc1 (3D coordinates assigned)
CCOC(=O)c1ccc(NC(=O)c2cc3c(s2)CCCC3)cc1 (nonaromatic ring conformer: 67.49327543971599 kcal/mol)

>  <smiles>  (43) 
CCOC(=O)c1ccc(NC(=O)c2cc3c(s2)CCCC3)cc1

>  <score_type>  (43) 
oracle

>  <origin>  (43) 
adg

>  <m_score__min__energy>  (43) 
-8.4499999999999993

>  <m_primary>  (43) 
energy

$$$$
43:0
     RDKit          3D

 45 46  0  0  0  0  0  0  0  0999 V2000
   -8.8766   19.0049  -33.3261 H   0  0  0  0  0  0  0  0  0  0  0  0
   -8.5360   19.8850  -32.7610 C   0  0  0  0  0  0  0  0  0  0  0  0
   -9.4390   20.5980  -31.9670 C   0  0  0  0  0  0  0  0  0  0  0  0
  -10.4913   20.2818  -31.9142 H   0  0  0  0  0  0  0  0  0  0  0  0
   -9.0080   21.7130  -31.2390 C   0  0  0  0  0  0  0  0  0  0  0  0
   -9.7216   22.2741  -30.6178 H   0  0  0  0  0  0  0  0  0  0  0  0
   -7.6670   22.1140  -31.3020 C   0  0  0  0  0  0  0  0  0  0  0  0
   -7.1900   23.2070  -30.5700 C   0  0  0  0  0  0  0  0  0  0  0  0
   -7.8759   23.7829  -29.9313 H   0  0  0  0  0  0  0  0  0  0  0  0
   -5.8340   23.5690  -30.6510 C   0  0  0  0  0  0  0  0  0  0  0  0
   -5.3110   24.7060  -29.8490 C   0  0  0  0  0  0  0  0  0  0  0  0
   -4.2000   24.5510  -29.1900 N   0  0  0  0  0  0  0  0  0  0  0  0
   -2.9700   24.8860  -29.7160 O   0  0  0  0  0  0  0  0  0  0  0  0
   -1.7790   24.6720  -28.9670 C   0  0  0  0  0  0  0  0  0  0  0  0
   -1.9718   24.8759  -27.9034 H   0  0  0  0  0  0  0  0  0  0  0  0
   -0.9888   25.3461  -29.3292 H   0  0  0  0  0  0  0  0  0  0  0  0
   -1.3300   23.2130  -29.1370 C   0  0  0  0  0  0  0  0  0  0  0  0
   -0.7805   22.9053  -28.2351 H   0  0  0  0  0  0  0  0  0  0  0  0
   -0.6953   23.1602  -30.0339 H   0  0  0  0  0  0  0  0  0  0  0  0
   -2.4780   22.2840  -29.3380 N   0  0  0  0  0  0  0  0  0  0  0  0
   -3.2190   22.7820  -29.8910 H   0  0  0  0  0  0  0  0  0  0  0  0
   -3.0520   21.8940  -28.0210 C   0  0  0  0  0  0  0  0  0  0  0  0
   -4.1471   21.9847  -28.0711 H   0  0  0  0  0  0  0  0  0  0  0  0
   -2.6292   22.5631  -27.2570 H   0  0  0  0  0  0  0  0  0  0  0  0
   -2.6920   20.4500  -27.6350 C   0  0  0  0  0  0  0  0  0  0  0  0
   -2.6691   20.3583  -26.5391 H   0  0  0  0  0  0  0  0  0  0  0  0
   -3.4461   19.7620  -28.0449 H   0  0  0  0  0  0  0  0  0  0  0  0
   -1.7032   20.1966  -28.0449 H   0  0  0  0  0  0  0  0  0  0  0  0
   -2.0450   21.0780  -30.0930 C   0  0  0  0  0  0  0  0  0  0  0  0
   -1.4195   20.4542  -29.4376 H   0  0  0  0  0  0  0  0  0  0  0  0
   -2.9468   20.5366  -30.4151 H   0  0  0  0  0  0  0  0  0  0  0  0
   -1.2380   21.4440  -31.3470 C   0  0  0  0  0  0  0  0  0  0  0  0
   -0.2739   21.8812  -31.0479 H   0  0  0  0  0  0  0  0  0  0  0  0
   -1.0600   20.5385  -31.9457 H   0  0  0  0  0  0  0  0  0  0  0  0
   -1.8019   22.1744  -31.9457 H   0  0  0  0  0  0  0  0  0  0  0  0
   -6.1160   25.9740  -29.7100 C   0  0  0  0  0  0  0  0  0  0  0  0
   -6.2605   26.2015  -28.6435 H   0  0  0  0  0  0  0  0  0  0  0  0
   -5.5791   26.8040  -30.1925 H   0  0  0  0  0  0  0  0  0  0  0  0
   -7.0955   25.8412  -30.1925 H   0  0  0  0  0  0  0  0  0  0  0  0
   -5.0020   22.8130  -31.5010 C   0  0  0  0  0  0  0  0  0  0  0  0
   -3.7860   23.1140  -31.6380 O   0  0  0  0  0  0  0  0  0  0  0  0
   -5.4910   21.7780  -32.1810 O   0  0  0  0  0  0  0  0  0  0  0  0
   -6.7620   21.4010  -32.1110 C   0  0  0  0  0  0  0  0  0  0  0  0
   -7.2010   20.2900  -32.8370 C   0  0  0  0  0  0  0  0  0  0  0  0
   -6.4938   19.7334  -33.4695 H   0  0  0  0  0  0  0  0  0  0  0  0
  1  2  1  0
  2  3  2  0
  3  4  1  0
  3  5  1  0
  5  6  1  0
  5  7  2  0
  7  8  1  0
  8  9  1  0
  8 10  2  0
 10 11  1  0
 11 12  2  0
 12 13  1  0
 13 14  1  0
 14 15  1  0
 14 16  1  0
 14 17  1  0
 17 18  1  0
 17 19  1  0
 17 20  1  0
 20 21  1  0
 20 22  1  0
 22 23  1  0
 22 24  1  0
 22 25  1  0
 25 26  1  0
 25 27  1  0
 25 28  1  0
 20 29  1  0
 29 30  1  0
 29 31  1  0
 29 32  1  0
 32 33  1  0
 32 34  1  0
 32 35  1  0
 11 36  1  0
 36 37  1  0
 36 38  1  0
 36 39  1  0
 10 40  1  0
 40 41  2  0
 40 42  1  0
 42 43  1  0
 43 44  2  0
 44 45  1  0
 44  2  1  0
 43  7  1  0
M  CHG  1  20   1
M  END
>  <UniqueID>  (44) 
41

>  <SMILES>  (44) 
CC[NH+](CC)CCO/N=C(\C)c1cc2ccccc2oc1=O

>  <Energy>  (44) 
59.888117782999835

>  <Genealogy>  (44) 
CC[NH+](CC)CCON=C(C)c1cc2ccccc2oc1=O (protonated)
CC[NH+](CC)CCO/N=C(\C)c1cc2ccccc2oc1=O (cis-trans isomerization)
CC[NH+](CC)CCO/N=C(\C)c1cc2ccccc2oc1=O (3D coordinates assigned)
CC[NH+](CC)CCO/N=C(\C)c1cc2ccccc2oc1=O (optimized conformer: 59.888117782999835 kcal/mol)

>  <smiles>  (44) 
CCN(CC)CCON=C(C)c1cc2ccccc2oc1=O

>  <score_type>  (44) 
oracle

>  <origin>  (44) 
adg

>  <m_score__min__energy>  (44) 
-6.9900000000000002

>  <m_primary>  (44) 
energy

$$$$
44:0
     RDKit          3D

 47 49  0  0  0  0  0  0  0  0999 V2000
   -1.0550   25.8920  -27.7370 C   0  0  0  0  0  0  0  0  0  0  0  0
   -1.7300   25.6050  -28.9400 O   0  0  0  0  0  0  0  0  0  0  0  0
   -2.5530   24.4730  -28.7560 C   0  0  0  0  0  0  0  0  0  0  0  0
   -3.7960   24.6430  -29.5640 C   0  0  0  0  0  0  0  0  0  0  0  0
   -5.0220   24.0760  -29.2890 C   0  0  0  0  0  0  0  0  0  0  0  0
   -5.8040   24.4610  -30.3570 C   0  0  0  0  0  0  0  0  0  0  0  0
   -7.2360   24.0700  -30.5860 C   0  0  0  0  0  0  0  0  0  0  0  0
   -7.5060   22.6940  -30.1350 N   0  0  0  0  0  0  0  0  0  0  0  0
   -8.4540   21.9990  -31.0220 C   0  0  0  0  0  0  0  0  0  0  0  0
   -7.7980   20.8020  -31.6580 C   0  0  0  0  0  0  0  0  0  0  0  0
   -6.6450   20.9570  -32.4350 C   0  0  0  0  0  0  0  0  0  0  0  0
   -6.0530   19.8520  -33.0560 C   0  0  0  0  0  0  0  0  0  0  0  0
   -6.6100   18.5580  -32.9290 C   0  0  0  0  0  0  0  0  0  0  0  0
   -5.9960   17.4010  -33.5770 N   0  0  0  0  0  0  0  0  0  0  0  0
   -4.6730   17.5500  -34.2200 C   0  0  0  0  0  0  0  0  0  0  0  0
   -4.1860   16.2800  -34.9240 C   0  0  0  0  0  0  0  0  0  0  0  0
   -4.5280   15.1320  -34.1870 O   0  0  0  0  0  0  0  0  0  0  0  0
   -5.9250   14.9720  -34.2400 C   0  0  0  0  0  0  0  0  0  0  0  0
   -6.6350   16.0740  -33.4490 C   0  0  0  0  0  0  0  0  0  0  0  0
   -7.7820   18.4240  -32.1470 C   0  0  0  0  0  0  0  0  0  0  0  0
   -8.3690   19.5320  -31.5280 C   0  0  0  0  0  0  0  0  0  0  0  0
   -5.0750   25.1910  -31.2220 N   0  0  0  0  0  0  0  0  0  0  0  0
   -3.8470   25.3000  -30.7400 N   0  0  0  0  0  0  0  0  0  0  0  0
   -1.6942   25.6202  -26.8841 H   0  0  0  0  0  0  0  0  0  0  0  0
   -0.1205   25.3134  -27.6939 H   0  0  0  0  0  0  0  0  0  0  0  0
   -0.8233   26.9665  -27.6939 H   0  0  0  0  0  0  0  0  0  0  0  0
   -2.0184   23.5701  -29.0863 H   0  0  0  0  0  0  0  0  0  0  0  0
   -2.8114   24.3689  -27.6919 H   0  0  0  0  0  0  0  0  0  0  0  0
   -5.3085   23.4618  -28.4226 H   0  0  0  0  0  0  0  0  0  0  0  0
   -7.8870   24.7610  -30.0304 H   0  0  0  0  0  0  0  0  0  0  0  0
   -7.4359   24.1212  -31.6665 H   0  0  0  0  0  0  0  0  0  0  0  0
   -7.9200   22.7440  -29.1730 H   0  0  0  0  0  0  0  0  0  0  0  0
   -6.6080   22.1570  -30.0780 H   0  0  0  0  0  0  0  0  0  0  0  0
   -9.3227   21.6667  -30.4347 H   0  0  0  0  0  0  0  0  0  0  0  0
   -8.7752   22.6920  -31.8136 H   0  0  0  0  0  0  0  0  0  0  0  0
   -6.2004   21.9555  -32.5586 H   0  0  0  0  0  0  0  0  0  0  0  0
   -5.1395   19.9917  -33.6527 H   0  0  0  0  0  0  0  0  0  0  0  0
   -4.7373   18.3572  -34.9645 H   0  0  0  0  0  0  0  0  0  0  0  0
   -3.9500   17.7732  -33.4216 H   0  0  0  0  0  0  0  0  0  0  0  0
   -4.6504   16.2200  -35.9193 H   0  0  0  0  0  0  0  0  0  0  0  0
   -3.0905   16.3264  -35.0118 H   0  0  0  0  0  0  0  0  0  0  0  0
   -6.2522   15.0149  -35.2893 H   0  0  0  0  0  0  0  0  0  0  0  0
   -6.1831   13.9998  -33.7947 H   0  0  0  0  0  0  0  0  0  0  0  0
   -7.6705   16.1504  -33.8121 H   0  0  0  0  0  0  0  0  0  0  0  0
   -6.5833   15.7926  -32.3869 H   0  0  0  0  0  0  0  0  0  0  0  0
   -8.2391   17.4310  -32.0240 H   0  0  0  0  0  0  0  0  0  0  0  0
   -9.2863   19.4038  -30.9346 H   0  0  0  0  0  0  0  0  0  0  0  0
  1  2  1  0
  2  3  1  0
  3  4  1  0
  4  5  2  0
  5  6  1  0
  6  7  1  0
  7  8  1  0
  8  9  1  0
  9 10  1  0
 10 11  2  0
 11 12  1  0
 12 13  2  0
 13 14  1  0
 14 15  1  0
 15 16  1  0
 16 17  1  0
 17 18  1  0
 18 19  1  0
 13 20  1  0
 20 21  2  0
  6 22  2  0
 22 23  1  0
 23  4  1  0
 21 10  1  0
 19 14  1  0
  1 24  1  0
  1 25  1  0
  1 26  1  0
  3 27  1  0
  3 28  1  0
  5 29  1  0
  7 30  1  0
  7 31  1  0
  8 32  1  0
  8 33  1  0
  9 34  1  0
  9 35  1  0
 11 36  1  0
 12 37  1  0
 15 38  1  0
 15 39  1  0
 16 40  1  0
 16 41  1  0
 18 42  1  0
 18 43  1  0
 19 44  1  0
 19 45  1  0
 20 46  1  0
 21 47  1  0
M  CHG  2   8   1  23  -1
M  END
>  <UniqueID>  (45) 
42

>  <SMILES>  (45) 
COCc1cc(C[NH2+]Cc2ccc(N3CCOCC3)cc2)n[n-]1

>  <Energy>  (45) 
82.6961395555839

>  <Genealogy>  (45) 
COCc1cc(C[NH2+]Cc2ccc(N3CCOCC3)cc2)n[n-]1 (protonated)
COCc1cc(C[NH2+]Cc2ccc(N3CCOCC3)cc2)n[n-]1 (3D coordinates assigned)
COCc1cc(C[NH2+]Cc2ccc(N3CCOCC3)cc2)n[n-]1 (nonaromatic ring conformer: 82.6961395555839 kcal/mol)

>  <smiles>  (45) 
COCc1cc(CNCc2ccc(N3CCOCC3)cc2)n[nH]1

>  <score_type>  (45) 
oracle

>  <origin>  (45) 
adg

>  <m_score__min__energy>  (45) 
-9.7100000000000009

>  <m_primary>  (45) 
energy

$$$$
45:0
     RDKit          3D

 38 39  0  0  0  0  0  0  0  0999 V2000
   -8.2040   21.2630  -31.9510 C   0  0  0  0  0  0  0  0  0  0  0  0
   -8.0870   22.6100  -31.5030 O   0  0  0  0  0  0  0  0  0  0  0  0
   -6.8780   23.2170  -31.1260 C   0  0  0  0  0  0  0  0  0  0  0  0
   -5.6780   22.5570  -31.4180 C   0  0  0  0  0  0  0  0  0  0  0  0
   -4.4480   23.1240  -31.0580 C   0  0  0  0  0  0  0  0  0  0  0  0
   -4.3990   24.3600  -30.4020 C   0  0  0  0  0  0  0  0  0  0  0  0
   -3.1170   24.9080  -30.0520 N   0  0  0  0  0  0  0  0  0  0  0  0
   -2.3820   24.7860  -28.4820 S   0  0  0  0  0  0  0  0  0  0  0  0
   -1.3870   25.9060  -28.3300 O   0  0  0  0  0  0  0  0  0  0  0  0
   -3.4450   24.9270  -27.4250 O   0  0  0  0  0  0  0  0  0  0  0  0
   -1.6180   23.2040  -28.3160 C   0  0  0  0  0  0  0  0  0  0  0  0
   -2.4370   22.0790  -28.1470 C   0  0  0  0  0  0  0  0  0  0  0  0
   -1.8880   20.8010  -28.0200 C   0  0  0  0  0  0  0  0  0  0  0  0
   -2.7580   19.7180  -27.8330 O   0  0  0  0  0  0  0  0  0  0  0  0
   -2.9070   19.0030  -26.6100 C   0  0  0  0  0  0  0  0  0  0  0  0
   -0.4910   20.6470  -28.0730 C   0  0  0  0  0  0  0  0  0  0  0  0
    0.3360   21.7610  -28.2310 C   0  0  0  0  0  0  0  0  0  0  0  0
   -0.2150   23.0530  -28.3440 C   0  0  0  0  0  0  0  0  0  0  0  0
    0.5990   24.1900  -28.4820 O   0  0  0  0  0  0  0  0  0  0  0  0
    1.3930   24.7520  -27.4380 C   0  0  0  0  0  0  0  0  0  0  0  0
   -5.6040   25.0270  -30.1070 C   0  0  0  0  0  0  0  0  0  0  0  0
   -6.8330   24.4610  -30.4630 C   0  0  0  0  0  0  0  0  0  0  0  0
   -8.2623   20.5913  -31.0819 H   0  0  0  0  0  0  0  0  0  0  0  0
   -9.1148   21.1565  -32.5586 H   0  0  0  0  0  0  0  0  0  0  0  0
   -7.3252   21.0010  -32.5586 H   0  0  0  0  0  0  0  0  0  0  0  0
   -5.7010   21.5858  -31.9340 H   0  0  0  0  0  0  0  0  0  0  0  0
   -3.5133   22.5936  -31.2927 H   0  0  0  0  0  0  0  0  0  0  0  0
   -3.5293   22.2047  -28.1139 H   0  0  0  0  0  0  0  0  0  0  0  0
   -2.7637   19.6906  -25.7635 H   0  0  0  0  0  0  0  0  0  0  0  0
   -3.9154   18.5663  -26.5611 H   0  0  0  0  0  0  0  0  0  0  0  0
   -2.1569   18.1999  -26.5611 H   0  0  0  0  0  0  0  0  0  0  0  0
   -0.0476   19.6438  -27.9896 H   0  0  0  0  0  0  0  0  0  0  0  0
    1.4274   21.6288  -28.2676 H   0  0  0  0  0  0  0  0  0  0  0  0
    0.9777   24.4580  -26.4627 H   0  0  0  0  0  0  0  0  0  0  0  0
    2.4256   24.3825  -27.5232 H   0  0  0  0  0  0  0  0  0  0  0  0
    1.3878   25.8487  -27.5232 H   0  0  0  0  0  0  0  0  0  0  0  0
   -5.5786   25.9994  -29.5933 H   0  0  0  0  0  0  0  0  0  0  0  0
   -7.7683   24.9886  -30.2247 H   0  0  0  0  0  0  0  0  0  0  0  0
  1  2  1  0
  2  3  1  0
  3  4  2  0
  4  5  1  0
  5  6  2  0
  6  7  1  0
  7  8  1  0
  8  9  2  0
  8 10  2  0
  8 11  1  0
 11 12  2  0
 12 13  1  0
 13 14  1  0
 14 15  1  0
 13 16  2  0
 16 17  1  0
 17 18  2  0
 18 19  1  0
 19 20  1  0
  6 21  1  0
 21 22  2  0
 22  3  1  0
 18 11  1  0
  1 23  1  0
  1 24  1  0
  1 25  1  0
  4 26  1  0
  5 27  1  0
 12 28  1  0
 15 29  1  0
 15 30  1  0
 15 31  1  0
 16 32  1  0
 17 33  1  0
 20 34  1  0
 20 35  1  0
 20 36  1  0
 21 37  1  0
 22 38  1  0
M  CHG  1   7  -1
M  END
>  <UniqueID>  (46) 
43

>  <SMILES>  (46) 
COc1ccc([N-]S(=O)(=O)c2cc(OC)ccc2OC)cc1

>  <Energy>  (46) 
40.590986433611796

>  <Genealogy>  (46) 
COc1ccc([N-]S(=O)(=O)c2cc(OC)ccc2OC)cc1 (protonated)
COc1ccc([N-]S(=O)(=O)c2cc(OC)ccc2OC)cc1 (3D coordinates assigned)
COc1ccc([N-]S(=O)(=O)c2cc(OC)ccc2OC)cc1 (optimized conformer: 40.590986433611796 kcal/mol)

>  <smiles>  (46) 
COc1ccc(NS(=O)(=O)c2cc(OC)ccc2OC)cc1

>  <score_type>  (46) 
oracle

>  <origin>  (46) 
adg

>  <m_score__min__energy>  (46) 
-7.9699999999999998

>  <m_primary>  (46) 
energy

$$$$
46:0
     RDKit          3D

 24 25  0  0  0  0  0  0  0  0999 V2000
   -6.1460   25.4030  -29.7140 C   0  0  0  0  0  0  0  0  0  0  0  0
   -4.7980   24.8950  -30.8250 S   0  0  0  0  0  0  0  0  0  0  0  0
   -5.6450   23.4040  -31.3670 C   0  0  0  0  0  0  0  0  0  0  0  0
   -7.0020   23.3690  -31.2930 N   0  0  0  0  0  0  0  0  0  0  0  0
   -7.7190   22.2810  -31.6760 C   0  0  0  0  0  0  0  0  0  0  0  0
   -9.1160   22.2900  -31.5790 C   0  0  0  0  0  0  0  0  0  0  0  0
   -9.8510   21.1670  -31.9720 C   0  0  0  0  0  0  0  0  0  0  0  0
   -9.1940   20.0330  -32.4630 C   0  0  0  0  0  0  0  0  0  0  0  0
   -7.7990   20.0160  -32.5630 C   0  0  0  0  0  0  0  0  0  0  0  0
   -7.0540   21.1390  -32.1710 C   0  0  0  0  0  0  0  0  0  0  0  0
   -5.6580   21.1530  -32.2610 C   0  0  0  0  0  0  0  0  0  0  0  0
   -4.9360   22.2900  -31.8640 C   0  0  0  0  0  0  0  0  0  0  0  0
   -3.4360   22.3020  -31.9720 C   0  0  0  0  0  0  0  0  0  0  0  0
   -5.8250   25.2820  -28.6688 H   0  0  0  0  0  0  0  0  0  0  0  0
   -6.3973   26.4575  -29.9007 H   0  0  0  0  0  0  0  0  0  0  0  0
   -7.0308   24.7766  -29.9007 H   0  0  0  0  0  0  0  0  0  0  0  0
   -9.6350   23.1801  -31.1938 H   0  0  0  0  0  0  0  0  0  0  0  0
  -10.9483   21.1750  -31.8950 H   0  0  0  0  0  0  0  0  0  0  0  0
   -9.7765   19.1523  -32.7712 H   0  0  0  0  0  0  0  0  0  0  0  0
   -7.2859   19.1227  -32.9488 H   0  0  0  0  0  0  0  0  0  0  0  0
   -5.1243   20.2706  -32.6439 H   0  0  0  0  0  0  0  0  0  0  0  0
   -2.9958   22.3055  -30.9639 H   0  0  0  0  0  0  0  0  0  0  0  0
   -3.1003   21.4065  -32.5155 H   0  0  0  0  0  0  0  0  0  0  0  0
   -3.1147   23.2027  -32.5155 H   0  0  0  0  0  0  0  0  0  0  0  0
  1  2  1  0
  2  3  1  0
  3  4  2  0
  4  5  1  0
  5  6  2  0
  6  7  1  0
  7  8  2  0
  8  9  1  0
  9 10  2  0
 10 11  1  0
 11 12  2  0
 12 13  1  0
 12  3  1  0
 10  5  1  0
  1 14  1  0
  1 15  1  0
  1 16  1  0
  6 17  1  0
  7 18  1  0
  8 19  1  0
  9 20  1  0
 11 21  1  0
 13 22  1  0
 13 23  1  0
 13 24  1  0
M  END
>  <UniqueID>  (47) 
44

>  <SMILES>  (47) 
CSc1nc2ccccc2cc1C

>  <Energy>  (47) 
23.603561589687104

>  <Genealogy>  (47) 
CSc1nc2ccccc2cc1C (3D coordinates assigned)
CSc1nc2ccccc2cc1C (optimized conformer: 23.603561589687104 kcal/mol)

>  <smiles>  (47) 
CSc1nc2ccccc2cc1C

>  <score_type>  (47) 
oracle

>  <origin>  (47) 
adg

>  <m_score__min__energy>  (47) 
-6.2699999999999996

>  <m_primary>  (47) 
energy

$$$$
47:0
     RDKit          3D

 29 30  0  0  0  0  0  0  0  0999 V2000
   -8.5430   21.4850  -31.4210 C   0  0  0  0  0  0  0  0  0  0  0  0
   -7.1640   21.3100  -32.0010 C   0  0  0  0  0  0  0  0  0  0  0  0
   -6.9470   20.3000  -32.9480 C   0  0  0  0  0  0  0  0  0  0  0  0
   -5.7120   20.1030  -33.4700 N   0  0  0  0  0  0  0  0  0  0  0  0
   -4.6650   20.8730  -33.0920 C   0  0  0  0  0  0  0  0  0  0  0  0
   -4.8390   21.8660  -32.1810 N   0  0  0  0  0  0  0  0  0  0  0  0
   -6.0650   22.1310  -31.6350 C   0  0  0  0  0  0  0  0  0  0  0  0
   -6.2050   23.2450  -30.5970 C   0  0  0  0  0  0  0  0  0  0  0  0
   -6.1840   24.6650  -31.2270 C   0  0  0  0  0  0  0  0  0  0  0  0
   -5.1940   25.6010  -30.5210 C   0  0  0  0  0  0  0  0  0  0  0  0
   -3.8500   25.0100  -30.4680 N   0  0  0  0  0  0  0  0  0  0  0  0
   -3.7930   23.6810  -29.8220 C   0  0  0  0  0  0  0  0  0  0  0  0
   -5.1660   23.0780  -29.4670 C   0  0  0  0  0  0  0  0  0  0  0  0
   -8.4825   21.4773  -30.3227 H   0  0  0  0  0  0  0  0  0  0  0  0
   -8.9637   22.4437  -31.7584 H   0  0  0  0  0  0  0  0  0  0  0  0
   -9.1899   20.6617  -31.7584 H   0  0  0  0  0  0  0  0  0  0  0  0
   -7.7843   19.6632  -33.2696 H   0  0  0  0  0  0  0  0  0  0  0  0
   -3.6693   20.6942  -33.5240 H   0  0  0  0  0  0  0  0  0  0  0  0
   -4.0020   22.4260  -31.9120 H   0  0  0  0  0  0  0  0  0  0  0  0
   -7.2028   23.1459  -30.1448 H   0  0  0  0  0  0  0  0  0  0  0  0
   -5.8958   24.5783  -32.2850 H   0  0  0  0  0  0  0  0  0  0  0  0
   -7.1902   25.0960  -31.1186 H   0  0  0  0  0  0  0  0  0  0  0  0
   -5.1461   26.5529  -31.0702 H   0  0  0  0  0  0  0  0  0  0  0  0
   -5.5434   25.7649  -29.4909 H   0  0  0  0  0  0  0  0  0  0  0  0
   -3.4850   24.9330  -31.4470 H   0  0  0  0  0  0  0  0  0  0  0  0
   -3.2816   22.9888  -30.5070 H   0  0  0  0  0  0  0  0  0  0  0  0
   -3.2597   23.8209  -28.8701 H   0  0  0  0  0  0  0  0  0  0  0  0
   -5.0364   22.0045  -29.2650 H   0  0  0  0  0  0  0  0  0  0  0  0
   -5.5459   23.6169  -28.5865 H   0  0  0  0  0  0  0  0  0  0  0  0
  1  2  1  0
  2  3  2  0
  3  4  1  0
  4  5  2  0
  5  6  1  0
  6  7  2  0
  7  8  1  0
  8  9  1  0
  9 10  1  0
 10 11  1  0
 11 12  1  0
 12 13  1  0
  7  2  1  0
 13  8  1  0
  1 14  1  0
  1 15  1  0
  1 16  1  0
  3 17  1  0
  5 18  1  0
  6 19  1  0
  8 20  1  0
  9 21  1  0
  9 22  1  0
 10 23  1  0
 10 24  1  0
 11 25  1  0
 12 26  1  0
 12 27  1  0
 13 28  1  0
 13 29  1  0
M  CHG  1   6   1
M  END
>  <UniqueID>  (48) 
45

>  <SMILES>  (48) 
Cc1cnc[nH+]c1C1CCNCC1

>  <Energy>  (48) 
38.87610129125692

>  <Genealogy>  (48) 
Cc1cnc[nH+]c1C1CCNCC1 (protonated)
Cc1cnc[nH+]c1C1CCNCC1 (3D coordinates assigned)
Cc1cnc[nH+]c1C1CCNCC1 (nonaromatic ring conformer: 38.87610129125692 kcal/mol)

>  <smiles>  (48) 
Cc1cncnc1C1CCNCC1

>  <score_type>  (48) 
oracle

>  <origin>  (48) 
adg

>  <m_score__min__energy>  (48) 
-5.9699999999999998

>  <m_primary>  (48) 
energy

$$$$
