0:0
     RDKit          3D

 30 30  0  0  0  0  0  0  0  0999 V2000
   -2.5010   23.4040  -29.7320 C   0  0  0  0  0  0  0  0  0  0  0  0
   -3.7170   24.2700  -29.4280 C   0  0  0  0  0  0  0  0  0  0  0  0
   -3.8720   25.2980  -30.4660 N   0  0  0  0  0  0  0  0  0  0  0  0
   -5.2840   25.6750  -30.6530 C   0  0  0  0  0  0  0  0  0  0  0  0
   -6.2000   24.7160  -29.8880 C   0  0  0  0  0  0  0  0  0  0  0  0
   -6.4160   23.4380  -30.6430 C   0  0  0  0  0  0  0  0  0  0  0  0
   -7.5150   22.8310  -30.5230 O   0  0  0  0  0  0  0  0  0  0  0  0
   -5.4160   22.9700  -31.5640 N   0  0  0  0  0  0  0  0  0  0  0  0
   -5.5120   21.7380  -32.2960 C   0  0  0  0  0  0  0  0  0  0  0  0
   -6.7580   21.2080  -32.6800 C   0  0  0  0  0  0  0  0  0  0  0  0
   -6.8240   19.9950  -33.3760 C   0  0  0  0  0  0  0  0  0  0  0  0
   -5.6510   19.2970  -33.6820 C   0  0  0  0  0  0  0  0  0  0  0  0
   -5.7450   17.6410  -34.6300 Br  0  0  0  0  0  0  0  0  0  0  0  0
   -4.4130   19.8070  -33.2840 C   0  0  0  0  0  0  0  0  0  0  0  0
   -4.3430   21.0170  -32.5870 C   0  0  0  0  0  0  0  0  0  0  0  0
   -2.0398   23.0755  -28.7889 H   0  0  0  0  0  0  0  0  0  0  0  0
   -2.8136   22.5240  -30.3133 H   0  0  0  0  0  0  0  0  0  0  0  0
   -1.7716   23.9872  -30.3133 H   0  0  0  0  0  0  0  0  0  0  0  0
   -4.6173   23.6384  -29.4031 H   0  0  0  0  0  0  0  0  0  0  0  0
   -3.5781   24.7590  -28.4525 H   0  0  0  0  0  0  0  0  0  0  0  0
   -3.5140   24.8980  -31.3650 H   0  0  0  0  0  0  0  0  0  0  0  0
   -5.4381   26.6982  -30.2797 H   0  0  0  0  0  0  0  0  0  0  0  0
   -5.5279   25.6219  -31.7243 H   0  0  0  0  0  0  0  0  0  0  0  0
   -5.7408   24.4830  -28.9159 H   0  0  0  0  0  0  0  0  0  0  0  0
   -7.1759   25.2057  -29.7544 H   0  0  0  0  0  0  0  0  0  0  0  0
   -4.6340   23.6210  -31.8040 H   0  0  0  0  0  0  0  0  0  0  0  0
   -7.6833   21.7488  -32.4324 H   0  0  0  0  0  0  0  0  0  0  0  0
   -7.7998   19.5902  -33.6827 H   0  0  0  0  0  0  0  0  0  0  0  0
   -3.4909   19.2553  -33.5195 H   0  0  0  0  0  0  0  0  0  0  0  0
   -3.3661   21.4064  -32.2647 H   0  0  0  0  0  0  0  0  0  0  0  0
  1  2  1  0
  2  3  1  0
  3  4  1  0
  4  5  1  0
  5  6  1  0
  6  7  2  0
  6  8  1  0
  8  9  1  0
  9 10  2  0
 10 11  1  0
 11 12  2  0
 12 13  1  0
 12 14  1  0
 14 15  2  0
 15  9  1  0
  1 16  1  0
  1 17  1  0
  1 18  1  0
  2 19  1  0
  2 20  1  0
  3 21  1  0
  4 22  1  0
  4 23  1  0
  5 24  1  0
  5 25  1  0
  8 26  1  0
 10 27  1  0
 11 28  1  0
 14 29  1  0
 15 30  1  0
M  END
>  <UniqueID>  (1) 
1

>  <SMILES>  (1) 
CCNCCC(=O)Nc1ccc(Br)cc1

>  <Energy>  (1) 
24.28965932877157

>  <Genealogy>  (1) 
CCNCCC(=O)Nc1ccc(Br)cc1 (3D coordinates assigned)
CCNCCC(=O)Nc1ccc(Br)cc1 (optimized conformer: 24.28965932877157 kcal/mol)

>  <smiles>  (1) 
CCNCCC(=O)Nc1ccc(Br)cc1

>  <score_type>  (1) 
oracle

>  <origin>  (1) 
adg

>  <m_score__min__energy>  (1) 
-6.8600000000000003

>  <m_primary>  (1) 
energy

$$$$
1:0
     RDKit          3D

 38 40  0  0  0  0  0  0  0  0999 V2000
   -3.6770   24.5610  -26.7270 C   0  0  0  0  0  0  0  0  0  0  0  0
   -3.3220   24.5330  -28.2080 C   0  0  0  0  0  0  0  0  0  0  0  0
   -4.5190   24.2480  -29.0150 N   0  0  0  0  0  0  0  0  0  0  0  0
   -5.4960   25.1760  -29.0810 N   0  0  0  0  0  0  0  0  0  0  0  0
   -6.6460   24.9710  -29.7880 C   0  0  0  0  0  0  0  0  0  0  0  0
   -6.7950   23.7610  -30.4430 C   0  0  0  0  0  0  0  0  0  0  0  0
   -7.8250   23.2560  -31.2040 C   0  0  0  0  0  0  0  0  0  0  0  0
   -7.4850   22.0090  -31.6070 N   0  0  0  0  0  0  0  0  0  0  0  0
   -8.3330   21.0940  -32.3670 C   0  0  0  0  0  0  0  0  0  0  0  0
   -7.6230   19.7830  -32.5600 C   0  0  0  0  0  0  0  0  0  0  0  0
   -7.8870   18.7030  -31.7040 C   0  0  0  0  0  0  0  0  0  0  0  0
   -7.2530   17.4740  -31.9050 C   0  0  0  0  0  0  0  0  0  0  0  0
   -6.3650   17.3090  -32.9710 C   0  0  0  0  0  0  0  0  0  0  0  0
   -6.1170   18.3700  -33.8550 C   0  0  0  0  0  0  0  0  0  0  0  0
   -5.1430   18.2020  -34.9840 C   0  0  0  0  0  0  0  0  0  0  0  0
   -6.7410   19.6080  -33.6400 C   0  0  0  0  0  0  0  0  0  0  0  0
   -6.2640   21.7190  -31.0960 C   0  0  0  0  0  0  0  0  0  0  0  0
   -5.8240   22.8090  -30.3750 C   0  0  0  0  0  0  0  0  0  0  0  0
   -4.6630   23.0320  -29.6480 C   0  0  0  0  0  0  0  0  0  0  0  0
   -3.7740   22.1400  -29.5730 O   0  0  0  0  0  0  0  0  0  0  0  0
   -2.7572   24.4885  -26.1280 H   0  0  0  0  0  0  0  0  0  0  0  0
   -4.1945   25.5027  -26.4917 H   0  0  0  0  0  0  0  0  0  0  0  0
   -4.3357   23.7120  -26.4917 H   0  0  0  0  0  0  0  0  0  0  0  0
   -2.9110   25.5103  -28.5011 H   0  0  0  0  0  0  0  0  0  0  0  0
   -2.5766   23.7430  -28.3823 H   0  0  0  0  0  0  0  0  0  0  0  0
   -5.3870   26.0870  -28.5780 H   0  0  0  0  0  0  0  0  0  0  0  0
   -7.4286   25.7425  -29.8354 H   0  0  0  0  0  0  0  0  0  0  0  0
   -8.7639   23.7767  -31.4437 H   0  0  0  0  0  0  0  0  0  0  0  0
   -9.2708   20.9240  -31.8178 H   0  0  0  0  0  0  0  0  0  0  0  0
   -8.5539   21.5355  -33.3500 H   0  0  0  0  0  0  0  0  0  0  0  0
   -8.5957   18.8242  -30.8715 H   0  0  0  0  0  0  0  0  0  0  0  0
   -7.4535   16.6348  -31.2226 H   0  0  0  0  0  0  0  0  0  0  0  0
   -5.8584   16.3437  -33.1178 H   0  0  0  0  0  0  0  0  0  0  0  0
   -4.1360   18.0283  -34.5768 H   0  0  0  0  0  0  0  0  0  0  0  0
   -5.4421   17.3422  -35.6014 H   0  0  0  0  0  0  0  0  0  0  0  0
   -5.1368   19.1123  -35.6014 H   0  0  0  0  0  0  0  0  0  0  0  0
   -6.5385   20.4474  -34.3214 H   0  0  0  0  0  0  0  0  0  0  0  0
   -5.7168   20.7746  -31.2330 H   0  0  0  0  0  0  0  0  0  0  0  0
  1  2  1  0
  2  3  1  0
  3  4  1  0
  4  5  2  0
  5  6  1  0
  6  7  2  0
  7  8  1  0
  8  9  1  0
  9 10  1  0
 10 11  2  0
 11 12  1  0
 12 13  2  0
 13 14  1  0
 14 15  1  0
 14 16  2  0
  8 17  1  0
 17 18  2  0
 18 19  1  0
 19 20  2  0
 19  3  1  0
 18  6  1  0
 16 10  1  0
  1 21  1  0
  1 22  1  0
  1 23  1  0
  2 24  1  0
  2 25  1  0
  4 26  1  0
  5 27  1  0
  7 28  1  0
  9 29  1  0
  9 30  1  0
 11 31  1  0
 12 32  1  0
 13 33  1  0
 15 34  1  0
 15 35  1  0
 15 36  1  0
 16 37  1  0
 17 38  1  0
M  CHG  1   4   1
M  END
>  <UniqueID>  (2) 
2

>  <SMILES>  (2) 
CCn1[nH+]cc2cn(Cc3cccc(C)c3)cc2c1=O

>  <Energy>  (2) 
71.22040634465593

>  <Genealogy>  (2) 
CCn1[nH+]cc2cn(Cc3cccc(C)c3)cc2c1=O (protonated)
CCn1[nH+]cc2cn(Cc3cccc(C)c3)cc2c1=O (3D coordinates assigned)
CCn1[nH+]cc2cn(Cc3cccc(C)c3)cc2c1=O (optimized conformer: 71.22040634465593 kcal/mol)

>  <smiles>  (2) 
CCn1ncc2cn(Cc3cccc(C)c3)cc2c1=O

>  <score_type>  (2) 
oracle

>  <origin>  (2) 
adg

>  <m_score__min__energy>  (2) 
-7.0800000000000001

>  <m_primary>  (2) 
energy

$$$$
2:0
     RDKit          3D

 33 33  0  0  0  0  0  0  0  0999 V2000
   -6.7030   25.3110  -29.7330 C   0  0  0  0  0  0  0  0  0  0  0  0
   -6.4330   24.1020  -30.5910 C   0  0  0  0  0  0  0  0  0  0  0  0
   -7.5130   23.4230  -31.1730 C   0  0  0  0  0  0  0  0  0  0  0  0
   -7.3010   22.3010  -31.9740 C   0  0  0  0  0  0  0  0  0  0  0  0
   -6.0020   21.8350  -32.2200 C   0  0  0  0  0  0  0  0  0  0  0  0
   -5.7990   20.6310  -33.0660 C   0  0  0  0  0  0  0  0  0  0  0  0
   -4.6440   20.3780  -33.5070 O   0  0  0  0  0  0  0  0  0  0  0  0
   -6.9500   19.7330  -33.4580 C   0  0  0  0  0  0  0  0  0  0  0  0
   -7.5500   18.9580  -32.2640 C   0  0  0  0  0  0  0  0  0  0  0  0
   -7.1140   17.4880  -32.3160 C   0  0  0  0  0  0  0  0  0  0  0  0
   -9.0840   19.0500  -32.2490 C   0  0  0  0  0  0  0  0  0  0  0  0
   -4.9160   22.5100  -31.6380 C   0  0  0  0  0  0  0  0  0  0  0  0
   -5.1140   23.6530  -30.8430 C   0  0  0  0  0  0  0  0  0  0  0  0
   -3.9140   24.3290  -30.2270 C   0  0  0  0  0  0  0  0  0  0  0  0
   -3.8830   25.6720  -30.6210 O   0  0  0  0  0  0  0  0  0  0  0  0
   -6.6400   25.0289  -28.6717 H   0  0  0  0  0  0  0  0  0  0  0  0
   -5.9565   26.0891  -29.9505 H   0  0  0  0  0  0  0  0  0  0  0  0
   -7.7096   25.6976  -29.9505 H   0  0  0  0  0  0  0  0  0  0  0  0
   -8.5386   23.7791  -30.9959 H   0  0  0  0  0  0  0  0  0  0  0  0
   -8.1609   21.7770  -32.4167 H   0  0  0  0  0  0  0  0  0  0  0  0
   -7.7408   20.3531  -33.9054 H   0  0  0  0  0  0  0  0  0  0  0  0
   -6.5579   18.9892  -34.1672 H   0  0  0  0  0  0  0  0  0  0  0  0
   -7.1722   19.4182  -31.3391 H   0  0  0  0  0  0  0  0  0  0  0  0
   -6.9998   17.1030  -31.2919 H   0  0  0  0  0  0  0  0  0  0  0  0
   -7.8759   16.8981  -32.8467 H   0  0  0  0  0  0  0  0  0  0  0  0
   -6.1537   17.4089  -32.8467 H   0  0  0  0  0  0  0  0  0  0  0  0
   -9.4399   19.0713  -31.2084 H   0  0  0  0  0  0  0  0  0  0  0  0
   -9.4013   19.9688  -32.7639 H   0  0  0  0  0  0  0  0  0  0  0  0
   -9.5088   18.1757  -32.7639 H   0  0  0  0  0  0  0  0  0  0  0  0
   -3.8945   22.1385  -31.8069 H   0  0  0  0  0  0  0  0  0  0  0  0
   -3.9821   24.2697  -29.1307 H   0  0  0  0  0  0  0  0  0  0  0  0
   -2.9958   23.8260  -30.5645 H   0  0  0  0  0  0  0  0  0  0  0  0
   -4.0720   25.6780  -31.5960 H   0  0  0  0  0  0  0  0  0  0  0  0
  1  2  1  0
  2  3  2  0
  3  4  1  0
  4  5  2  0
  5  6  1  0
  6  7  2  0
  6  8  1  0
  8  9  1  0
  9 10  1  0
  9 11  1  0
  5 12  1  0
 12 13  2  0
 13 14  1  0
 14 15  1  0
 13  2  1  0
  1 16  1  0
  1 17  1  0
  1 18  1  0
  3 19  1  0
  4 20  1  0
  8 21  1  0
  8 22  1  0
  9 23  1  0
 10 24  1  0
 10 25  1  0
 10 26  1  0
 11 27  1  0
 11 28  1  0
 11 29  1  0
 12 30  1  0
 14 31  1  0
 14 32  1  0
 15 33  1  0
M  END
>  <UniqueID>  (3) 
3

>  <SMILES>  (3) 
Cc1ccc(C(=O)CC(C)C)cc1CO

>  <Energy>  (3) 
27.931731106896127

>  <Genealogy>  (3) 
Cc1ccc(C(=O)CC(C)C)cc1CO (3D coordinates assigned)
Cc1ccc(C(=O)CC(C)C)cc1CO (optimized conformer: 27.931731106896127 kcal/mol)

>  <smiles>  (3) 
Cc1ccc(C(=O)CC(C)C)cc1CO

>  <score_type>  (3) 
oracle

>  <origin>  (3) 
adg

>  <m_score__min__energy>  (3) 
-7.6600000000000001

>  <m_primary>  (3) 
energy

$$$$
3:0
     RDKit          3D

 38 41  0  0  0  0  0  0  0  0999 V2000
   -9.3990   18.4910  -32.1960 C   0  0  0  0  0  0  0  0  0  0  0  0
   -9.4560   19.8340  -32.6410 O   0  0  0  0  0  0  0  0  0  0  0  0
   -8.5440   20.7710  -32.1780 C   0  0  0  0  0  0  0  0  0  0  0  0
   -7.2090   20.4190  -32.1370 C   0  0  0  0  0  0  0  0  0  0  0  0
   -6.2570   21.2990  -31.6910 C   0  0  0  0  0  0  0  0  0  0  0  0
   -6.6260   22.5610  -31.2730 C   0  0  0  0  0  0  0  0  0  0  0  0
   -5.5910   23.4310  -30.8200 N   0  0  0  0  0  0  0  0  0  0  0  0
   -4.7900   23.3120  -29.7480 C   0  0  0  0  0  0  0  0  0  0  0  0
   -3.9580   24.4180  -29.7510 C   0  0  0  0  0  0  0  0  0  0  0  0
   -2.9160   24.7160  -28.7710 C   0  0  0  0  0  0  0  0  0  0  0  0
   -2.8760   24.2140  -27.5220 N   0  0  0  0  0  0  0  0  0  0  0  0
   -1.7810   24.6890  -26.8740 C   0  0  0  0  0  0  0  0  0  0  0  0
   -1.2840   24.4840  -25.5860 C   0  0  0  0  0  0  0  0  0  0  0  0
   -0.1150   25.1300  -25.2210 C   0  0  0  0  0  0  0  0  0  0  0  0
    0.5380   25.9570  -26.1160 C   0  0  0  0  0  0  0  0  0  0  0  0
    1.7850   26.6380  -25.7060 C   0  0  0  0  0  0  0  0  0  0  0  0
    0.0450   26.1610  -27.3920 C   0  0  0  0  0  0  0  0  0  0  0  0
   -1.1190   25.5260  -27.7730 C   0  0  0  0  0  0  0  0  0  0  0  0
   -1.8380   25.5180  -28.9180 N   0  0  0  0  0  0  0  0  0  0  0  0
   -4.2930   25.1700  -30.8400 N   0  0  0  0  0  0  0  0  0  0  0  0
   -5.2890   24.5520  -31.4770 N   0  0  0  0  0  0  0  0  0  0  0  0
   -7.9620   22.9580  -31.2970 C   0  0  0  0  0  0  0  0  0  0  0  0
   -8.8990   22.0360  -31.7570 C   0  0  0  0  0  0  0  0  0  0  0  0
   -9.3981   18.4689  -31.0962 H   0  0  0  0  0  0  0  0  0  0  0  0
  -10.2747   17.9423  -32.5730 H   0  0  0  0  0  0  0  0  0  0  0  0
   -8.4800   18.0185  -32.5730 H   0  0  0  0  0  0  0  0  0  0  0  0
   -6.9044   19.4152  -32.4679 H   0  0  0  0  0  0  0  0  0  0  0  0
   -5.1990   20.9989  -31.6664 H   0  0  0  0  0  0  0  0  0  0  0  0
   -4.7945   22.4949  -29.0116 H   0  0  0  0  0  0  0  0  0  0  0  0
   -1.8083   23.8252  -24.8781 H   0  0  0  0  0  0  0  0  0  0  0  0
    0.2971   24.9842  -24.2116 H   0  0  0  0  0  0  0  0  0  0  0  0
    1.8418   26.6690  -24.6079 H   0  0  0  0  0  0  0  0  0  0  0  0
    2.6508   26.0875  -26.1026 H   0  0  0  0  0  0  0  0  0  0  0  0
    1.7899   27.6640  -26.1026 H   0  0  0  0  0  0  0  0  0  0  0  0
    0.5745   26.8215  -28.0944 H   0  0  0  0  0  0  0  0  0  0  0  0
   -1.6050   26.0450  -29.7840 H   0  0  0  0  0  0  0  0  0  0  0  0
   -8.2649   23.9620  -30.9650 H   0  0  0  0  0  0  0  0  0  0  0  0
   -9.9595   22.3266  -31.7857 H   0  0  0  0  0  0  0  0  0  0  0  0
  1  2  1  0
  2  3  1  0
  3  4  2  0
  4  5  1  0
  5  6  2  0
  6  7  1  0
  7  8  1  0
  8  9  2  0
  9 10  1  0
 10 11  2  0
 11 12  1  0
 12 13  2  0
 13 14  1  0
 14 15  2  0
 15 16  1  0
 15 17  1  0
 17 18  2  0
 18 19  1  0
  9 20  1  0
 20 21  2  0
  6 22  1  0
 22 23  2  0
 23  3  1  0
 21  7  1  0
 19 10  1  0
 18 12  1  0
  1 24  1  0
  1 25  1  0
  1 26  1  0
  4 27  1  0
  5 28  1  0
  8 29  1  0
 13 30  1  0
 14 31  1  0
 16 32  1  0
 16 33  1  0
 16 34  1  0
 17 35  1  0
 19 36  1  0
 22 37  1  0
 23 38  1  0
M  END
>  <smiles>  (4) 
COc1ccc(-n2cc(-c3nc4ccc(C)cc4[nH]3)nn2)cc1

>  <score_type>  (4) 
oracle

>  <origin>  (4) 
adg

>  <m_score__min__energy>  (4) 
-8.5999999999999996

>  <m_primary>  (4) 
energy

$$$$
4:0
     RDKit          3D

 44 46  0  0  0  0  0  0  0  0999 V2000
   -0.2300   25.1110  -27.6860 C   0  0  0  0  0  0  0  0  0  0  0  0
   -1.0550   26.0470  -28.5630 C   0  0  0  0  0  0  0  0  0  0  0  0
   -2.0280   25.2910  -29.3450 N   0  0  0  0  0  0  0  0  0  0  0  0
   -3.0780   24.4650  -28.8230 C   0  0  0  0  0  0  0  0  0  0  0  0
   -3.1500   24.3070  -27.5760 O   0  0  0  0  0  0  0  0  0  0  0  0
   -4.1500   23.8620  -29.7080 C   0  0  0  0  0  0  0  0  0  0  0  0
   -4.5870   24.8730  -30.7940 C   0  0  0  0  0  0  0  0  0  0  0  0
   -6.0620   24.7270  -31.2230 C   0  0  0  0  0  0  0  0  0  0  0  0
   -6.5470   23.3470  -31.0660 N   0  0  0  0  0  0  0  0  0  0  0  0
   -7.4670   22.8030  -32.0320 C   0  0  0  0  0  0  0  0  0  0  0  0
   -8.1790   23.5780  -32.7270 O   0  0  0  0  0  0  0  0  0  0  0  0
   -7.6270   21.3430  -32.2090 C   0  0  0  0  0  0  0  0  0  0  0  0
   -8.9290   20.8160  -32.2510 C   0  0  0  0  0  0  0  0  0  0  0  0
   -9.1340   19.4380  -32.3340 C   0  0  0  0  0  0  0  0  0  0  0  0
   -8.0450   18.5700  -32.3790 C   0  0  0  0  0  0  0  0  0  0  0  0
   -6.7440   19.0780  -32.3600 C   0  0  0  0  0  0  0  0  0  0  0  0
   -6.5150   20.4640  -32.2960 C   0  0  0  0  0  0  0  0  0  0  0  0
   -5.1620   20.9520  -32.3560 N   0  0  0  0  0  0  0  0  0  0  0  0
   -4.3150   20.9290  -31.3390 N   0  0  0  0  0  0  0  0  0  0  0  0
   -3.1860   21.5140  -31.7770 C   0  0  0  0  0  0  0  0  0  0  0  0
   -3.3910   21.8960  -33.0850 C   0  0  0  0  0  0  0  0  0  0  0  0
   -4.6420   21.5380  -33.4250 N   0  0  0  0  0  0  0  0  0  0  0  0
   -6.3320   22.6310  -29.7950 C   0  0  0  0  0  0  0  0  0  0  0  0
   -5.3500   23.3750  -28.8820 C   0  0  0  0  0  0  0  0  0  0  0  0
   -0.4260   25.3334  -26.6267 H   0  0  0  0  0  0  0  0  0  0  0  0
   -0.5083   24.0684  -27.8994 H   0  0  0  0  0  0  0  0  0  0  0  0
    0.8393   25.2561  -27.8994 H   0  0  0  0  0  0  0  0  0  0  0  0
   -1.5860   26.7675  -27.9236 H   0  0  0  0  0  0  0  0  0  0  0  0
   -0.3797   26.5760  -29.2515 H   0  0  0  0  0  0  0  0  0  0  0  0
   -3.7231   22.9818  -30.2109 H   0  0  0  0  0  0  0  0  0  0  0  0
   -4.4391   25.8897  -30.4011 H   0  0  0  0  0  0  0  0  0  0  0  0
   -3.9729   24.6724  -31.6843 H   0  0  0  0  0  0  0  0  0  0  0  0
   -6.6799   25.3934  -30.6032 H   0  0  0  0  0  0  0  0  0  0  0  0
   -6.1345   24.9938  -32.2877 H   0  0  0  0  0  0  0  0  0  0  0  0
   -9.7937   21.4951  -32.2182 H   0  0  0  0  0  0  0  0  0  0  0  0
  -10.1576   19.0363  -32.3640 H   0  0  0  0  0  0  0  0  0  0  0  0
   -8.2100   17.4836  -32.4295 H   0  0  0  0  0  0  0  0  0  0  0  0
   -5.8893   18.3864  -32.3955 H   0  0  0  0  0  0  0  0  0  0  0  0
   -2.2641   21.6612  -31.1953 H   0  0  0  0  0  0  0  0  0  0  0  0
   -2.6622   22.4028  -33.7346 H   0  0  0  0  0  0  0  0  0  0  0  0
   -7.2961   22.5312  -29.2749 H   0  0  0  0  0  0  0  0  0  0  0  0
   -5.9039   21.6445  -30.0262 H   0  0  0  0  0  0  0  0  0  0  0  0
   -5.8560   24.2389  -28.4262 H   0  0  0  0  0  0  0  0  0  0  0  0
   -4.9988   22.6959  -28.0911 H   0  0  0  0  0  0  0  0  0  0  0  0
  1  2  1  0
  2  3  1  0
  3  4  1  0
  4  5  2  0
  4  6  1  0
  6  7  1  0
  7  8  1  0
  8  9  1  0
  9 10  1  0
 10 11  2  0
 10 12  1  0
 12 13  2  0
 13 14  1  0
 14 15  2  0
 15 16  1  0
 16 17  2  0
 17 18  1  0
 18 19  1  0
 19 20  2  0
 20 21  1  0
 21 22  2  0
  9 23  1  0
 23 24  1  0
 24  6  1  0
 17 12  1  0
 22 18  1  0
  1 25  1  0
  1 26  1  0
  1 27  1  0
  2 28  1  0
  2 29  1  0
  6 30  1  0
  7 31  1  0
  7 32  1  0
  8 33  1  0
  8 34  1  0
 13 35  1  0
 14 36  1  0
 15 37  1  0
 16 38  1  0
 20 39  1  0
 21 40  1  0
 23 41  1  0
 23 42  1  0
 24 43  1  0
 24 44  1  0
M  CHG  1   3  -1
M  END
>  <UniqueID>  (5) 
4

>  <SMILES>  (5) 
CC[N-]C(=O)C1CCN(C(=O)c2ccccc2-n2nccn2)CC1

>  <Energy>  (5) 
83.87811224554702

>  <Genealogy>  (5) 
CC[N-]C(=O)C1CCN(C(=O)c2ccccc2-n2nccn2)CC1 (protonated)
CC[N-]C(=O)C1CCN(C(=O)c2ccccc2-n2nccn2)CC1 (3D coordinates assigned)
CC[N-]C(=O)C1CCN(C(=O)c2ccccc2-n2nccn2)CC1 (nonaromatic ring conformer: 83.87811224554702 kcal/mol)

>  <smiles>  (5) 
CCNC(=O)C1CCN(C(=O)c2ccccc2-n2nccn2)CC1

>  <score_type>  (5) 
oracle

>  <origin>  (5) 
adg

>  <m_score__min__energy>  (5) 
-10.06

>  <m_primary>  (5) 
energy

$$$$
5:0
     RDKit          3D

 42 45  0  0  0  0  0  0  0  0999 V2000
   -9.8720   21.1750  -31.9680 C   0  0  0  0  0  0  0  0  0  0  0  0
   -8.3780   21.2170  -32.0960 C   0  0  0  0  0  0  0  0  0  0  0  0
   -7.7150   20.2870  -32.9100 C   0  0  0  0  0  0  0  0  0  0  0  0
   -6.3160   20.3040  -33.0110 C   0  0  0  0  0  0  0  0  0  0  0  0
   -5.6090   19.2940  -33.8650 C   0  0  0  0  0  0  0  0  0  0  0  0
   -5.5790   21.2270  -32.2560 C   0  0  0  0  0  0  0  0  0  0  0  0
   -6.2280   22.1470  -31.4160 C   0  0  0  0  0  0  0  0  0  0  0  0
   -5.4670   23.0940  -30.6440 N   0  0  0  0  0  0  0  0  0  0  0  0
   -5.9200   24.1870  -29.9630 C   0  0  0  0  0  0  0  0  0  0  0  0
   -4.9450   24.7960  -29.2310 N   0  0  0  0  0  0  0  0  0  0  0  0
   -3.8560   24.0550  -29.4850 C   0  0  0  0  0  0  0  0  0  0  0  0
   -2.6070   23.9670  -28.8750 C   0  0  0  0  0  0  0  0  0  0  0  0
   -2.1060   24.9230  -27.8640 C   0  0  0  0  0  0  0  0  0  0  0  0
   -2.6700   24.9440  -26.5770 C   0  0  0  0  0  0  0  0  0  0  0  0
   -2.1960   25.8380  -25.6120 C   0  0  0  0  0  0  0  0  0  0  0  0
   -1.1520   26.7140  -25.9220 C   0  0  0  0  0  0  0  0  0  0  0  0
   -0.6930   27.5800  -24.9850 F   0  0  0  0  0  0  0  0  0  0  0  0
   -0.5780   26.6940  -27.1950 C   0  0  0  0  0  0  0  0  0  0  0  0
   -1.0490   25.8000  -28.1630 C   0  0  0  0  0  0  0  0  0  0  0  0
   -1.9390   22.8060  -29.3350 C   0  0  0  0  0  0  0  0  0  0  0  0
   -0.5780   22.3450  -28.9230 C   0  0  0  0  0  0  0  0  0  0  0  0
   -2.9490   21.9130  -30.3960 S   0  0  0  0  0  0  0  0  0  0  0  0
   -4.1630   23.0640  -30.3210 C   0  0  0  0  0  0  0  0  0  0  0  0
   -7.6320   22.1350  -31.3450 C   0  0  0  0  0  0  0  0  0  0  0  0
  -10.1487   21.1672  -30.9034 H   0  0  0  0  0  0  0  0  0  0  0  0
  -10.3067   22.0613  -32.4534 H   0  0  0  0  0  0  0  0  0  0  0  0
  -10.2562   20.2657  -32.4534 H   0  0  0  0  0  0  0  0  0  0  0  0
   -8.2951   19.5404  -33.4722 H   0  0  0  0  0  0  0  0  0  0  0  0
   -5.0975   18.5633  -33.2213 H   0  0  0  0  0  0  0  0  0  0  0  0
   -6.3413   18.7739  -34.5001 H   0  0  0  0  0  0  0  0  0  0  0  0
   -4.8697   19.8040  -34.5001 H   0  0  0  0  0  0  0  0  0  0  0  0
   -4.4810   21.2309  -32.3220 H   0  0  0  0  0  0  0  0  0  0  0  0
   -6.9615   24.5388  -30.0011 H   0  0  0  0  0  0  0  0  0  0  0  0
   -5.0480   25.5910  -28.5620 H   0  0  0  0  0  0  0  0  0  0  0  0
   -3.4889   24.2533  -26.3274 H   0  0  0  0  0  0  0  0  0  0  0  0
   -2.6452   25.8519  -24.6080 H   0  0  0  0  0  0  0  0  0  0  0  0
    0.2455   27.3820  -27.4371 H   0  0  0  0  0  0  0  0  0  0  0  0
   -0.5900   25.7835  -29.1625 H   0  0  0  0  0  0  0  0  0  0  0  0
   -0.5149   22.3236  -27.8250 H   0  0  0  0  0  0  0  0  0  0  0  0
   -0.3969   21.3354  -29.3204 H   0  0  0  0  0  0  0  0  0  0  0  0
    0.1793   23.0367  -29.3204 H   0  0  0  0  0  0  0  0  0  0  0  0
   -8.1502   22.8537  -30.6932 H   0  0  0  0  0  0  0  0  0  0  0  0
  1  2  1  0
  2  3  2  0
  3  4  1  0
  4  5  1  0
  4  6  2  0
  6  7  1  0
  7  8  1  0
  8  9  1  0
  9 10  2  0
 10 11  1  0
 11 12  1  0
 12 13  1  0
 13 14  2  0
 14 15  1  0
 15 16  2  0
 16 17  1  0
 16 18  1  0
 18 19  2  0
 12 20  2  0
 20 21  1  0
 20 22  1  0
 22 23  1  0
  7 24  2  0
 24  2  1  0
 23  8  1  0
 23 11  2  0
 19 13  1  0
  1 25  1  0
  1 26  1  0
  1 27  1  0
  3 28  1  0
  5 29  1  0
  5 30  1  0
  5 31  1  0
  6 32  1  0
  9 33  1  0
 10 34  1  0
 14 35  1  0
 15 36  1  0
 18 37  1  0
 19 38  1  0
 21 39  1  0
 21 40  1  0
 21 41  1  0
 24 42  1  0
M  CHG  1  10   1
M  END
>  <UniqueID>  (6) 
5

>  <SMILES>  (6) 
Cc1cc(C)cc(-n2c[nH+]c3c(-c4ccc(F)cc4)c(C)sc32)c1

>  <Energy>  (6) 
133.8817061073388

>  <Genealogy>  (6) 
Cc1cc(C)cc(-n2c[nH+]c3c(-c4ccc(F)cc4)c(C)sc32)c1 (protonated)
Cc1cc(C)cc(-n2c[nH+]c3c(-c4ccc(F)cc4)c(C)sc32)c1 (3D coordinates assigned)
Cc1cc(C)cc(-n2c[nH+]c3c(-c4ccc(F)cc4)c(C)sc32)c1 (optimized conformer: 133.8817061073388 kcal/mol)

>  <smiles>  (6) 
Cc1cc(C)cc(-n2cnc3c(-c4ccc(F)cc4)c(C)sc32)c1

>  <score_type>  (6) 
oracle

>  <origin>  (6) 
adg

>  <m_score__min__energy>  (6) 
-7.8200000000000003

>  <m_primary>  (6) 
energy

$$$$
6:0
     RDKit          3D

 36 38  0  0  0  0  0  0  0  0999 V2000
   -5.8380   12.3351  -33.9669 H   0  0  0  0  0  0  0  0  0  0  0  0
   -5.8490   13.4260  -33.8260 C   0  0  0  0  0  0  0  0  0  0  0  0
   -6.8670   14.1920  -34.3930 C   0  0  0  0  0  0  0  0  0  0  0  0
   -7.6585   13.7040  -34.9808 H   0  0  0  0  0  0  0  0  0  0  0  0
   -6.8840   15.5800  -34.2160 C   0  0  0  0  0  0  0  0  0  0  0  0
   -7.6894   16.1786  -34.6666 H   0  0  0  0  0  0  0  0  0  0  0  0
   -5.8770   16.2150  -33.4650 C   0  0  0  0  0  0  0  0  0  0  0  0
   -5.8920   17.6880  -33.2740 C   0  0  0  0  0  0  0  0  0  0  0  0
   -7.1040   18.3700  -33.0780 C   0  0  0  0  0  0  0  0  0  0  0  0
   -8.0499   17.8087  -33.0647 H   0  0  0  0  0  0  0  0  0  0  0  0
   -7.1180   19.7540  -32.9000 C   0  0  0  0  0  0  0  0  0  0  0  0
   -8.0749   20.2727  -32.7408 H   0  0  0  0  0  0  0  0  0  0  0  0
   -5.9220   20.4920  -32.9220 C   0  0  0  0  0  0  0  0  0  0  0  0
   -5.9390   21.9160  -32.7100 N   0  0  0  0  0  0  0  0  0  0  0  0
   -5.4260   22.5290  -33.3810 H   0  0  0  0  0  0  0  0  0  0  0  0
   -6.7370   22.5520  -31.6980 C   0  0  0  0  0  0  0  0  0  0  0  0
   -7.7610   21.9710  -31.2500 O   0  0  0  0  0  0  0  0  0  0  0  0
   -6.4440   23.8800  -31.2410 N   0  0  0  0  0  0  0  0  0  0  0  0
   -5.3280   24.2750  -30.7000 C   0  0  0  0  0  0  0  0  0  0  0  0
   -4.5090   25.2110  -31.2180 N   0  0  0  0  0  0  0  0  0  0  0  0
   -3.4900   25.2900  -30.4100 O   0  0  0  0  0  0  0  0  0  0  0  0
   -3.6170   24.4510  -29.4060 C   0  0  0  0  0  0  0  0  0  0  0  0
   -2.6120   24.2740  -28.3190 C   0  0  0  0  0  0  0  0  0  0  0  0
   -3.1095   24.3616  -27.3418 H   0  0  0  0  0  0  0  0  0  0  0  0
   -2.1483   23.2804  -28.4066 H   0  0  0  0  0  0  0  0  0  0  0  0
   -1.8367   25.0494  -28.4066 H   0  0  0  0  0  0  0  0  0  0  0  0
   -4.7970   23.7500  -29.5450 C   0  0  0  0  0  0  0  0  0  0  0  0
   -5.2105   22.9659  -28.8938 H   0  0  0  0  0  0  0  0  0  0  0  0
   -4.7030   19.8100  -33.1030 C   0  0  0  0  0  0  0  0  0  0  0  0
   -3.1670   20.6670  -33.1420 Cl  0  0  0  0  0  0  0  0  0  0  0  0
   -4.6940   18.4220  -33.2830 C   0  0  0  0  0  0  0  0  0  0  0  0
   -3.7377   17.8996  -33.4333 H   0  0  0  0  0  0  0  0  0  0  0  0
   -4.8550   15.4300  -32.8980 C   0  0  0  0  0  0  0  0  0  0  0  0
   -4.0604   15.9107  -32.3085 H   0  0  0  0  0  0  0  0  0  0  0  0
   -4.8430   14.0440  -33.0790 C   0  0  0  0  0  0  0  0  0  0  0  0
   -4.0402   13.4389  -32.6326 H   0  0  0  0  0  0  0  0  0  0  0  0
  1  2  1  0
  2  3  2  0
  3  4  1  0
  3  5  1  0
  5  6  1  0
  5  7  2  0
  7  8  1  0
  8  9  2  0
  9 10  1  0
  9 11  1  0
 11 12  1  0
 11 13  2  0
 13 14  1  0
 14 15  1  0
 14 16  1  0
 16 17  2  0
 16 18  1  0
 18 19  2  0
 19 20  1  0
 20 21  1  0
 21 22  1  0
 22 23  1  0
 23 24  1  0
 23 25  1  0
 23 26  1  0
 22 27  2  0
 27 28  1  0
 13 29  1  0
 29 30  1  0
 29 31  2  0
 31 32  1  0
  7 33  1  0
 33 34  1  0
 33 35  2  0
 35 36  1  0
 35  2  1  0
 31  8  1  0
 27 19  1  0
M  CHG  1  20  -1
M  END
>  <UniqueID>  (7) 
6

>  <SMILES>  (7) 
Cc1c/c(=N/C(=O)Nc2ccc(-c3ccccc3)cc2Cl)[n-]o1

>  <Energy>  (7) 
81.63854356247187

>  <Genealogy>  (7) 
Cc1cc(=NC(=O)Nc2ccc(-c3ccccc3)cc2Cl)[n-]o1 (protonated)
Cc1c/c(=N/C(=O)Nc2ccc(-c3ccccc3)cc2Cl)[n-]o1 (cis-trans isomerization)
Cc1c/c(=N/C(=O)Nc2ccc(-c3ccccc3)cc2Cl)[n-]o1 (3D coordinates assigned)
Cc1c/c(=N/C(=O)Nc2ccc(-c3ccccc3)cc2Cl)[n-]o1 (optimized conformer: 81.63854356247187 kcal/mol)

>  <smiles>  (7) 
Cc1cc(=NC(=O)Nc2ccc(-c3ccccc3)cc2Cl)[nH]o1

>  <score_type>  (7) 
oracle

>  <origin>  (7) 
adg

>  <m_score__min__energy>  (7) 
-10.41

>  <m_primary>  (7) 
energy

$$$$
7:0
     RDKit          3D

 52 55  0  0  0  0  0  0  0  0999 V2000
   -2.0600   21.0880  -33.2040 C   0  0  0  0  0  0  0  0  0  0  0  0
   -3.4910   20.6010  -33.3750 C   0  0  0  0  0  0  0  0  0  0  0  0
   -4.1900   20.1480  -31.7530 S   0  0  0  0  0  0  0  0  0  0  0  0
   -3.5070   21.6000  -30.9240 C   0  0  0  0  0  0  0  0  0  0  0  0
   -2.3980   21.4220  -30.1560 N   0  0  0  0  0  0  0  0  0  0  0  0
   -1.7930   22.4620  -29.5280 C   0  0  0  0  0  0  0  0  0  0  0  0
   -0.6600   22.2470  -28.7330 C   0  0  0  0  0  0  0  0  0  0  0  0
   -0.0380   23.3210  -28.0670 C   0  0  0  0  0  0  0  0  0  0  0  0
    1.0870   23.1380  -27.2490 O   0  0  0  0  0  0  0  0  0  0  0  0
    2.2980   23.8790  -27.3630 C   0  0  0  0  0  0  0  0  0  0  0  0
   -0.5520   24.6180  -28.2120 C   0  0  0  0  0  0  0  0  0  0  0  0
    0.0930   25.6670  -27.5360 O   0  0  0  0  0  0  0  0  0  0  0  0
   -0.3620   26.2420  -26.3160 C   0  0  0  0  0  0  0  0  0  0  0  0
   -1.6880   24.8330  -29.0150 C   0  0  0  0  0  0  0  0  0  0  0  0
   -2.3150   23.7580  -29.6710 C   0  0  0  0  0  0  0  0  0  0  0  0
   -3.4700   23.9310  -30.4540 C   0  0  0  0  0  0  0  0  0  0  0  0
   -3.9650   25.0860  -30.5790 O   0  0  0  0  0  0  0  0  0  0  0  0
   -4.0670   22.8500  -31.0610 N   0  0  0  0  0  0  0  0  0  0  0  0
   -5.3120   23.0350  -31.8390 C   0  0  0  0  0  0  0  0  0  0  0  0
   -6.5580   23.0370  -30.9420 C   0  0  0  0  0  0  0  0  0  0  0  0
   -8.0990   22.7120  -31.8750 S   0  0  0  0  0  0  0  0  0  0  0  0
   -7.6490   21.0560  -32.3900 C   0  0  0  0  0  0  0  0  0  0  0  0
   -6.8570   20.8020  -33.4570 N   0  0  0  0  0  0  0  0  0  0  0  0
   -6.6770   19.4690  -33.6220 C   0  0  0  0  0  0  0  0  0  0  0  0
   -5.9170   18.8970  -34.6430 C   0  0  0  0  0  0  0  0  0  0  0  0
   -5.8250   17.4960  -34.7130 C   0  0  0  0  0  0  0  0  0  0  0  0
   -6.4830   16.6900  -33.7610 C   0  0  0  0  0  0  0  0  0  0  0  0
   -7.2380   17.2780  -32.7330 C   0  0  0  0  0  0  0  0  0  0  0  0
   -7.3150   18.6670  -32.6900 C   0  0  0  0  0  0  0  0  0  0  0  0
   -8.1370   19.6410  -31.5960 S   0  0  0  0  0  0  0  0  0  0  0  0
   -1.8255   21.1678  -32.1323 H   0  0  0  0  0  0  0  0  0  0  0  0
   -1.3705   20.3739  -33.6780 H   0  0  0  0  0  0  0  0  0  0  0  0
   -1.9493   22.0744  -33.6780 H   0  0  0  0  0  0  0  0  0  0  0  0
   -4.0978   21.4017  -33.8229 H   0  0  0  0  0  0  0  0  0  0  0  0
   -3.4973   19.7184  -34.0315 H   0  0  0  0  0  0  0  0  0  0  0  0
   -2.0050   20.4580  -30.0580 H   0  0  0  0  0  0  0  0  0  0  0  0
   -0.2525   21.2307  -28.6279 H   0  0  0  0  0  0  0  0  0  0  0  0
    2.6806   24.1131  -26.3586 H   0  0  0  0  0  0  0  0  0  0  0  0
    3.0431   23.2820  -27.9092 H   0  0  0  0  0  0  0  0  0  0  0  0
    2.1056   24.8142  -27.9092 H   0  0  0  0  0  0  0  0  0  0  0  0
    0.0724   25.6931  -25.4675 H   0  0  0  0  0  0  0  0  0  0  0  0
   -0.0507   27.2960  -26.2688 H   0  0  0  0  0  0  0  0  0  0  0  0
   -1.4593   26.1813  -26.2688 H   0  0  0  0  0  0  0  0  0  0  0  0
   -2.0891   25.8507  -29.1306 H   0  0  0  0  0  0  0  0  0  0  0  0
   -5.2575   23.9953  -32.3727 H   0  0  0  0  0  0  0  0  0  0  0  0
   -5.4012   22.1930  -32.5412 H   0  0  0  0  0  0  0  0  0  0  0  0
   -6.4404   22.2582  -30.1742 H   0  0  0  0  0  0  0  0  0  0  0  0
   -6.6446   24.0383  -30.4950 H   0  0  0  0  0  0  0  0  0  0  0  0
   -5.3998   19.5302  -35.3789 H   0  0  0  0  0  0  0  0  0  0  0  0
   -5.2366   17.0258  -35.5147 H   0  0  0  0  0  0  0  0  0  0  0  0
   -6.4045   15.5946  -33.8240 H   0  0  0  0  0  0  0  0  0  0  0  0
   -7.7533   16.6589  -31.9839 H   0  0  0  0  0  0  0  0  0  0  0  0
  1  2  1  0
  2  3  1  0
  3  4  1  0
  4  5  2  0
  5  6  1  0
  6  7  2  0
  7  8  1  0
  8  9  1  0
  9 10  1  0
  8 11  2  0
 11 12  1  0
 12 13  1  0
 11 14  1  0
 14 15  2  0
 15 16  1  0
 16 17  2  0
 16 18  1  0
 18 19  1  0
 19 20  1  0
 20 21  1  0
 21 22  1  0
 22 23  2  0
 23 24  1  0
 24 25  2  0
 25 26  1  0
 26 27  2  0
 27 28  1  0
 28 29  2  0
 29 30  1  0
 18  4  1  0
 30 22  1  0
 15  6  1  0
 29 24  1  0
  1 31  1  0
  1 32  1  0
  1 33  1  0
  2 34  1  0
  2 35  1  0
  5 36  1  0
  7 37  1  0
 10 38  1  0
 10 39  1  0
 10 40  1  0
 13 41  1  0
 13 42  1  0
 13 43  1  0
 14 44  1  0
 19 45  1  0
 19 46  1  0
 20 47  1  0
 20 48  1  0
 25 49  1  0
 26 50  1  0
 27 51  1  0
 28 52  1  0
M  CHG  1   5   1
M  END
>  <UniqueID>  (8) 
7

>  <SMILES>  (8) 
CCSc1[nH+]c2cc(OC)c(OC)cc2c(=O)n1CCSc1nc2ccccc2s1

>  <Energy>  (8) 
82.48181355473011

>  <Genealogy>  (8) 
CCSc1[nH+]c2cc(OC)c(OC)cc2c(=O)n1CCSc1nc2ccccc2s1 (protonated)
CCSc1[nH+]c2cc(OC)c(OC)cc2c(=O)n1CCSc1nc2ccccc2s1 (3D coordinates assigned)
CCSc1[nH+]c2cc(OC)c(OC)cc2c(=O)n1CCSc1nc2ccccc2s1 (optimized conformer: 82.48181355473011 kcal/mol)

>  <smiles>  (8) 
CCSc1nc2cc(OC)c(OC)cc2c(=O)n1CCSc1nc2ccccc2s1

>  <score_type>  (8) 
oracle

>  <origin>  (8) 
adg

>  <m_score__min__energy>  (8) 
-8.5

>  <m_primary>  (8) 
energy

$$$$
8:0
     RDKit          3D

 75 81  0  0  0  0  0  0  0  0999 V2000
   -6.3350   16.9320  -34.9650 O   0  0  0  0  0  0  0  0  0  0  0  0
   -5.4160   17.4800  -34.0430 C   0  0  2  0  0  0  0  0  0  0  0  0
   -4.0680   17.7220  -34.7780 C   0  0  0  0  0  0  0  0  0  0  0  0
   -2.9560   16.9960  -34.1180 N   0  0  0  0  0  0  0  0  0  0  0  0
   -1.8850   16.5540  -35.0510 C   0  0  0  0  0  0  0  0  0  0  0  0
   -0.5270   17.2050  -34.7530 C   0  0  0  0  0  0  0  0  0  0  0  0
   -0.1230   16.9340  -33.3580 N   0  0  0  0  0  0  0  0  0  0  0  0
    1.1320   17.6100  -32.9620 C   0  0  0  0  0  0  0  0  0  0  0  0
    0.9470   18.6870  -31.8640 C   0  0  0  0  0  0  0  0  0  0  0  0
    0.3750   19.9340  -32.4010 N   0  0  0  0  0  0  0  0  0  0  0  0
    0.7590   20.4120  -33.7110 C   0  0  0  0  0  0  0  0  0  0  0  0
    2.1100   20.5010  -34.0910 C   0  0  0  0  0  0  0  0  0  0  0  0
    2.4660   21.1040  -35.3010 C   0  0  0  0  0  0  0  0  0  0  0  0
    1.4800   21.6360  -36.1370 C   0  0  0  0  0  0  0  0  0  0  0  0
    0.1340   21.5430  -35.7770 C   0  0  0  0  0  0  0  0  0  0  0  0
   -0.2280   20.9160  -34.5810 C   0  0  0  0  0  0  0  0  0  0  0  0
   -1.9600   20.6320  -34.2110 S   0  0  0  0  0  0  0  0  0  0  0  0
   -1.7850   21.1210  -32.4960 C   0  0  0  0  0  0  0  0  0  0  0  0
   -2.7590   21.9310  -31.9020 C   0  0  0  0  0  0  0  0  0  0  0  0
   -2.7010   22.2000  -30.5320 C   0  0  0  0  0  0  0  0  0  0  0  0
   -3.6530   22.9720  -29.9530 F   0  0  0  0  0  0  0  0  0  0  0  0
   -1.6680   21.6660  -29.7570 C   0  0  0  0  0  0  0  0  0  0  0  0
   -0.6780   20.8800  -30.3530 C   0  0  0  0  0  0  0  0  0  0  0  0
   -0.7190   20.6060  -31.7320 C   0  0  0  0  0  0  0  0  0  0  0  0
   -1.2130   17.0250  -32.3570 C   0  0  0  0  0  0  0  0  0  0  0  0
   -2.4630   17.7110  -32.9210 C   0  0  0  0  0  0  0  0  0  0  0  0
   -5.2440   16.4580  -32.8810 C   0  0  0  0  0  0  0  0  0  0  0  0
   -5.1760   15.0870  -33.3810 N   0  0  0  0  0  0  0  0  0  0  0  0
   -4.1100   14.2680  -33.3490 C   0  0  0  0  0  0  0  0  0  0  0  0
   -4.4110   13.0950  -33.9300 N   0  0  0  0  0  0  0  0  0  0  0  0
   -5.6940   13.2430  -34.3160 C   0  0  0  0  0  0  0  0  0  0  0  0
   -6.1720   14.4590  -33.9860 N   0  0  0  0  0  0  0  0  0  0  0  0
   -5.9610   18.8320  -33.5560 C   0  0  0  0  0  0  0  0  0  0  0  0
   -5.1070   19.9500  -33.4520 C   0  0  0  0  0  0  0  0  0  0  0  0
   -5.5610   21.1300  -32.9540 N   0  0  0  0  0  0  0  0  0  0  0  0
   -6.8400   21.2840  -32.5240 C   0  0  0  0  0  0  0  0  0  0  0  0
   -7.2660   22.5150  -32.0140 C   0  0  0  0  0  0  0  0  0  0  0  0
   -8.5800   22.6650  -31.5580 C   0  0  0  0  0  0  0  0  0  0  0  0
   -9.4690   21.5870  -31.6090 C   0  0  0  0  0  0  0  0  0  0  0  0
   -9.0500   20.3520  -32.1130 C   0  0  0  0  0  0  0  0  0  0  0  0
   -7.7330   20.1940  -32.5750 C   0  0  0  0  0  0  0  0  0  0  0  0
   -7.2830   18.9700  -33.0800 C   0  0  0  0  0  0  0  0  0  0  0  0
   -6.9870   16.3740  -34.4650 H   0  0  0  0  0  0  0  0  0  0  0  0
   -4.1583   17.3712  -35.8167 H   0  0  0  0  0  0  0  0  0  0  0  0
   -3.8452   18.7988  -34.7486 H   0  0  0  0  0  0  0  0  0  0  0  0
   -1.7765   15.4624  -34.9690 H   0  0  0  0  0  0  0  0  0  0  0  0
   -2.1828   16.8607  -36.0645 H   0  0  0  0  0  0  0  0  0  0  0  0
    0.2303   16.7935  -35.4365 H   0  0  0  0  0  0  0  0  0  0  0  0
   -0.6127   18.2923  -34.8957 H   0  0  0  0  0  0  0  0  0  0  0  0
    1.8313   16.8488  -32.5858 H   0  0  0  0  0  0  0  0  0  0  0  0
    1.5108   18.1277  -33.8556 H   0  0  0  0  0  0  0  0  0  0  0  0
    0.2726   18.2920  -31.0899 H   0  0  0  0  0  0  0  0  0  0  0  0
    1.9384   18.9207  -31.4486 H   0  0  0  0  0  0  0  0  0  0  0  0
    2.8912   20.0938  -33.4323 H   0  0  0  0  0  0  0  0  0  0  0  0
    3.5243   21.1600  -35.5959 H   0  0  0  0  0  0  0  0  0  0  0  0
    1.7645   22.1281  -37.0788 H   0  0  0  0  0  0  0  0  0  0  0  0
   -0.6415   21.9631  -36.4344 H   0  0  0  0  0  0  0  0  0  0  0  0
   -3.5694   22.3555  -32.5127 H   0  0  0  0  0  0  0  0  0  0  0  0
   -1.6340   21.8647  -28.6756 H   0  0  0  0  0  0  0  0  0  0  0  0
    0.1390   20.4728  -29.7393 H   0  0  0  0  0  0  0  0  0  0  0  0
   -1.4824   16.0087  -32.0335 H   0  0  0  0  0  0  0  0  0  0  0  0
   -0.8474   17.6302  -31.5144 H   0  0  0  0  0  0  0  0  0  0  0  0
   -3.2504   17.7150  -32.1529 H   0  0  0  0  0  0  0  0  0  0  0  0
   -2.2031   18.7411  -33.2062 H   0  0  0  0  0  0  0  0  0  0  0  0
   -4.3153   16.6871  -32.3378 H   0  0  0  0  0  0  0  0  0  0  0  0
   -6.1164   16.5406  -32.2161 H   0  0  0  0  0  0  0  0  0  0  0  0
   -3.1335   14.5218  -32.9108 H   0  0  0  0  0  0  0  0  0  0  0  0
   -3.7940   12.2630  -34.0580 H   0  0  0  0  0  0  0  0  0  0  0  0
   -6.2775   12.4685  -34.8352 H   0  0  0  0  0  0  0  0  0  0  0  0
   -4.0599   19.8655  -33.7783 H   0  0  0  0  0  0  0  0  0  0  0  0
   -6.5683   23.3644  -31.9716 H   0  0  0  0  0  0  0  0  0  0  0  0
   -8.9147   23.6336  -31.1583 H   0  0  0  0  0  0  0  0  0  0  0  0
  -10.5018   21.7110  -31.2513 H   0  0  0  0  0  0  0  0  0  0  0  0
   -9.7510   19.5050  -32.1477 H   0  0  0  0  0  0  0  0  0  0  0  0
   -7.9649   18.1073  -33.1066 H   0  0  0  0  0  0  0  0  0  0  0  0
  2  1  1  6
  2  3  1  0
  3  4  1  0
  4  5  1  0
  5  6  1  0
  6  7  1  0
  7  8  1  0
  8  9  1  0
  9 10  1  0
 10 11  1  0
 11 12  2  0
 12 13  1  0
 13 14  2  0
 14 15  1  0
 15 16  2  0
 16 17  1  0
 17 18  1  0
 18 19  2  0
 19 20  1  0
 20 21  1  0
 20 22  2  0
 22 23  1  0
 23 24  2  0
  7 25  1  0
 25 26  1  0
  2 27  1  0
 27 28  1  0
 28 29  1  0
 29 30  2  0
 30 31  1  0
 31 32  2  0
  2 33  1  0
 33 34  2  0
 34 35  1  0
 35 36  2  0
 36 37  1  0
 37 38  2  0
 38 39  1  0
 39 40  2  0
 40 41  1  0
 41 42  2  0
 26  4  1  0
 32 28  1  0
 42 33  1  0
 24 10  1  0
 41 36  1  0
 16 11  1  0
 24 18  1  0
  1 43  1  0
  3 44  1  0
  3 45  1  0
  5 46  1  0
  5 47  1  0
  6 48  1  0
  6 49  1  0
  8 50  1  0
  8 51  1  0
  9 52  1  0
  9 53  1  0
 12 54  1  0
 13 55  1  0
 14 56  1  0
 15 57  1  0
 19 58  1  0
 22 59  1  0
 23 60  1  0
 25 61  1  0
 25 62  1  0
 26 63  1  0
 26 64  1  0
 27 65  1  0
 27 66  1  0
 29 67  1  0
 30 68  1  0
 31 69  1  0
 34 70  1  0
 37 71  1  0
 38 72  1  0
 39 73  1  0
 40 74  1  0
 42 75  1  0
M  CHG  1  30   1
M  END
>  <UniqueID>  (9) 
8

>  <SMILES>  (9) 
O[C@](CN1CCN(CCN2c3ccccc3Sc3cc(F)ccc32)CC1)(Cn1c[nH+]cn1)c1cnc2ccccc2c1

>  <Energy>  (9) 
160.0497531190125

>  <Genealogy>  (9) 
OC(CN1CCN(CCN2c3ccccc3Sc3cc(F)ccc32)CC1)(Cn1c[nH+]cn1)c1cnc2ccccc2c1 (protonated)
O[C@](CN1CCN(CCN2c3ccccc3Sc3cc(F)ccc32)CC1)(Cn1c[nH+]cn1)c1cnc2ccccc2c1 (chirality)
O[C@](CN1CCN(CCN2c3ccccc3Sc3cc(F)ccc32)CC1)(Cn1c[nH+]cn1)c1cnc2ccccc2c1 (3D coordinates assigned)
O[C@](CN1CCN(CCN2c3ccccc3Sc3cc(F)ccc32)CC1)(Cn1c[nH+]cn1)c1cnc2ccccc2c1 (nonaromatic ring conformer: 160.0497531190125 kcal/mol)

>  <smiles>  (9) 
OC(CN1CCN(CCN2c3ccccc3Sc3cc(F)ccc32)CC1)(Cn1cncn1)c1cnc2ccccc2c1

>  <score_type>  (9) 
oracle

>  <origin>  (9) 
adg

>  <m_score__min__energy>  (9) 
-11.23

>  <m_primary>  (9) 
energy

$$$$
9:0
     RDKit          3D

 49 51  0  0  0  0  0  0  0  0999 V2000
   -0.0200   26.6860  -25.5790 C   0  0  0  0  0  0  0  0  0  0  0  0
   -1.1200   25.9750  -26.3100 C   0  0  0  0  0  0  0  0  0  0  0  0
   -2.3180   25.6590  -25.6520 C   0  0  0  0  0  0  0  0  0  0  0  0
   -3.3280   24.9630  -26.3220 C   0  0  0  0  0  0  0  0  0  0  0  0
   -3.1540   24.5720  -27.6590 C   0  0  0  0  0  0  0  0  0  0  0  0
   -4.2360   23.7870  -28.3590 C   0  0  0  0  0  0  0  0  0  0  0  0
   -5.2930   24.6910  -28.8460 N   0  0  0  0  0  0  0  0  0  0  0  0
   -5.5230   24.5570  -30.3020 C   0  0  0  0  0  0  0  0  0  0  0  0
   -7.0270   24.3180  -30.6190 C   0  0  0  0  0  0  0  0  0  0  0  0
   -7.2180   23.4820  -31.8920 C   0  0  0  0  0  0  0  0  0  0  0  0
   -6.5700   22.1510  -31.7910 N   0  0  0  0  0  0  0  0  0  0  0  0
   -7.5080   21.0200  -31.5970 C   0  0  0  0  0  0  0  0  0  0  0  0
   -7.1330   19.7720  -32.3720 C   0  0  0  0  0  0  0  0  0  0  0  0
   -7.5940   18.5090  -31.9570 C   0  0  0  0  0  0  0  0  0  0  0  0
   -7.2630   17.3610  -32.6810 C   0  0  0  0  0  0  0  0  0  0  0  0
   -6.4530   17.4580  -33.8150 C   0  0  0  0  0  0  0  0  0  0  0  0
   -5.9630   18.7010  -34.2190 C   0  0  0  0  0  0  0  0  0  0  0  0
   -6.2930   19.8530  -33.4980 C   0  0  0  0  0  0  0  0  0  0  0  0
   -5.3790   22.0910  -30.9120 C   0  0  0  0  0  0  0  0  0  0  0  0
   -4.6330   23.4290  -30.8920 C   0  0  0  0  0  0  0  0  0  0  0  0
   -1.9390   24.8580  -28.3070 C   0  0  0  0  0  0  0  0  0  0  0  0
   -1.7260   24.4540  -29.5860 F   0  0  0  0  0  0  0  0  0  0  0  0
   -0.9300   25.5540  -27.6350 C   0  0  0  0  0  0  0  0  0  0  0  0
   -0.1756   26.5854  -24.4947 H   0  0  0  0  0  0  0  0  0  0  0  0
    0.9487   26.2427  -25.8531 H   0  0  0  0  0  0  0  0  0  0  0  0
   -0.0264   27.7513  -25.8531 H   0  0  0  0  0  0  0  0  0  0  0  0
   -2.4631   25.9603  -24.6041 H   0  0  0  0  0  0  0  0  0  0  0  0
   -4.2646   24.7202  -25.7987 H   0  0  0  0  0  0  0  0  0  0  0  0
   -3.7985   23.2480  -29.2123 H   0  0  0  0  0  0  0  0  0  0  0  0
   -4.6766   23.0735  -27.6471 H   0  0  0  0  0  0  0  0  0  0  0  0
   -6.1770   24.4490  -28.3380 H   0  0  0  0  0  0  0  0  0  0  0  0
   -5.0440   25.6820  -28.6150 H   0  0  0  0  0  0  0  0  0  0  0  0
   -5.2367   25.5044  -30.7822 H   0  0  0  0  0  0  0  0  0  0  0  0
   -7.4889   23.7881  -29.7729 H   0  0  0  0  0  0  0  0  0  0  0  0
   -7.5012   25.2974  -30.7801 H   0  0  0  0  0  0  0  0  0  0  0  0
   -8.2951   23.3395  -32.0639 H   0  0  0  0  0  0  0  0  0  0  0  0
   -6.7478   24.0241  -32.7257 H   0  0  0  0  0  0  0  0  0  0  0  0
   -7.5314   20.7690  -30.5263 H   0  0  0  0  0  0  0  0  0  0  0  0
   -8.4874   21.3486  -31.9748 H   0  0  0  0  0  0  0  0  0  0  0  0
   -8.2195   18.4250  -31.0561 H   0  0  0  0  0  0  0  0  0  0  0  0
   -7.6406   16.3797  -32.3578 H   0  0  0  0  0  0  0  0  0  0  0  0
   -6.2012   16.5545  -34.3898 H   0  0  0  0  0  0  0  0  0  0  0  0
   -5.3163   18.7746  -35.1058 H   0  0  0  0  0  0  0  0  0  0  0  0
   -5.8935   20.8283  -33.8130 H   0  0  0  0  0  0  0  0  0  0  0  0
   -5.7007   21.8449  -29.8893 H   0  0  0  0  0  0  0  0  0  0  0  0
   -4.6983   21.3201  -31.3024 H   0  0  0  0  0  0  0  0  0  0  0  0
   -3.7277   23.3263  -30.2757 H   0  0  0  0  0  0  0  0  0  0  0  0
   -4.3689   23.6971  -31.9256 H   0  0  0  0  0  0  0  0  0  0  0  0
    0.0182   25.7729  -28.1478 H   0  0  0  0  0  0  0  0  0  0  0  0
  1  2  1  0
  2  3  2  0
  3  4  1  0
  4  5  2  0
  5  6  1  0
  6  7  1  0
  7  8  1  0
  8  9  1  0
  9 10  1  0
 10 11  1  0
 11 12  1  0
 12 13  1  0
 13 14  2  0
 14 15  1  0
 15 16  2  0
 16 17  1  0
 17 18  2  0
 11 19  1  0
 19 20  1  0
  5 21  1  0
 21 22  1  0
 21 23  2  0
 23  2  1  0
 20  8  1  0
 18 13  1  0
  1 24  1  0
  1 25  1  0
  1 26  1  0
  3 27  1  0
  4 28  1  0
  6 29  1  0
  6 30  1  0
  7 31  1  0
  7 32  1  0
  8 33  1  0
  9 34  1  0
  9 35  1  0
 10 36  1  0
 10 37  1  0
 12 38  1  0
 12 39  1  0
 14 40  1  0
 15 41  1  0
 16 42  1  0
 17 43  1  0
 18 44  1  0
 19 45  1  0
 19 46  1  0
 20 47  1  0
 20 48  1  0
 23 49  1  0
M  CHG  1   7   1
M  END
>  <UniqueID>  (10) 
9

>  <SMILES>  (10) 
Cc1ccc(C[NH2+]C2CCN(Cc3ccccc3)CC2)c(F)c1

>  <Energy>  (10) 
60.49107143122097

>  <Genealogy>  (10) 
Cc1ccc(C[NH2+]C2CCN(Cc3ccccc3)CC2)c(F)c1 (protonated)
Cc1ccc(C[NH2+]C2CCN(Cc3ccccc3)CC2)c(F)c1 (3D coordinates assigned)
Cc1ccc(C[NH2+]C2CCN(Cc3ccccc3)CC2)c(F)c1 (nonaromatic ring conformer: 60.49107143122097 kcal/mol)

>  <smiles>  (10) 
Cc1ccc(CNC2CCN(Cc3ccccc3)CC2)c(F)c1

>  <score_type>  (10) 
oracle

>  <origin>  (10) 
adg

>  <m_score__min__energy>  (10) 
-8.6600000000000001

>  <m_primary>  (10) 
energy

$$$$
10:0
     RDKit          3D

 31 31  0  0  0  0  0  0  0  0999 V2000
   -5.0300   23.1970  -31.4900 C   0  0  0  0  0  0  0  0  0  0  0  0
   -4.5220   22.0530  -32.3620 C   0  0  0  0  0  0  0  0  0  0  0  0
   -5.6190   21.0650  -32.6320 C   0  0  0  0  0  0  0  0  0  0  0  0
   -6.9440   21.3580  -32.3000 C   0  0  0  0  0  0  0  0  0  0  0  0
   -7.9340   20.4170  -32.5970 C   0  0  0  0  0  0  0  0  0  0  0  0
   -9.3750   20.7130  -32.2810 C   0  0  0  0  0  0  0  0  0  0  0  0
   -9.4840   21.9180  -31.3530 C   0  0  0  0  0  0  0  0  0  0  0  0
   -7.5960   19.2550  -33.2270 N   0  0  0  0  0  0  0  0  0  0  0  0
   -6.2960   18.9840  -33.5590 C   0  0  0  0  0  0  0  0  0  0  0  0
   -5.9290   17.7540  -34.2290 N   0  0  0  0  0  0  0  0  0  0  0  0
   -4.9460   17.8020  -35.3170 C   0  0  0  0  0  0  0  0  0  0  0  0
   -6.5210   16.4700  -33.8360 C   0  0  0  0  0  0  0  0  0  0  0  0
   -5.3300   19.8960  -33.2580 N   0  0  0  0  0  0  0  0  0  0  0  0
   -4.9115   22.9302  -30.4295 H   0  0  0  0  0  0  0  0  0  0  0  0
   -4.4515   24.1074  -31.7059 H   0  0  0  0  0  0  0  0  0  0  0  0
   -6.0932   23.3784  -31.7059 H   0  0  0  0  0  0  0  0  0  0  0  0
   -4.1597   22.4605  -33.3174 H   0  0  0  0  0  0  0  0  0  0  0  0
   -3.7059   21.5397  -31.8323 H   0  0  0  0  0  0  0  0  0  0  0  0
   -7.2031   22.3104  -31.8144 H   0  0  0  0  0  0  0  0  0  0  0  0
   -9.9137   20.9268  -33.2160 H   0  0  0  0  0  0  0  0  0  0  0  0
   -9.8152   19.8383  -31.7799 H   0  0  0  0  0  0  0  0  0  0  0  0
   -9.4533   21.5792  -30.3069 H   0  0  0  0  0  0  0  0  0  0  0  0
   -8.6441   22.6030  -31.5413 H   0  0  0  0  0  0  0  0  0  0  0  0
  -10.4331   22.4411  -31.5413 H   0  0  0  0  0  0  0  0  0  0  0  0
   -8.3560   18.5780  -33.4570 H   0  0  0  0  0  0  0  0  0  0  0  0
   -3.9321   17.8515  -34.8932 H   0  0  0  0  0  0  0  0  0  0  0  0
   -5.0406   16.8982  -35.9368 H   0  0  0  0  0  0  0  0  0  0  0  0
   -5.1282   18.6923  -35.9368 H   0  0  0  0  0  0  0  0  0  0  0  0
   -6.5526   16.4014  -32.7386 H   0  0  0  0  0  0  0  0  0  0  0  0
   -7.5427   16.3991  -34.2374 H   0  0  0  0  0  0  0  0  0  0  0  0
   -5.9114   15.6470  -34.2374 H   0  0  0  0  0  0  0  0  0  0  0  0
  1  2  1  0
  2  3  1  0
  3  4  2  0
  4  5  1  0
  5  6  1  0
  6  7  1  0
  5  8  2  0
  8  9  1  0
  9 10  1  0
 10 11  1  0
 10 12  1  0
  9 13  2  0
 13  3  1  0
  1 14  1  0
  1 15  1  0
  1 16  1  0
  2 17  1  0
  2 18  1  0
  4 19  1  0
  6 20  1  0
  6 21  1  0
  7 22  1  0
  7 23  1  0
  7 24  1  0
  8 25  1  0
 11 26  1  0
 11 27  1  0
 11 28  1  0
 12 29  1  0
 12 30  1  0
 12 31  1  0
M  CHG  1   8   1
M  END
>  <UniqueID>  (11) 
10

>  <SMILES>  (11) 
CCc1cc(CC)[nH+]c(N(C)C)n1

>  <Energy>  (11) 
19.957893508514143

>  <Genealogy>  (11) 
CCc1cc(CC)[nH+]c(N(C)C)n1 (protonated)
CCc1cc(CC)[nH+]c(N(C)C)n1 (3D coordinates assigned)
CCc1cc(CC)[nH+]c(N(C)C)n1 (optimized conformer: 19.957893508514143 kcal/mol)

>  <smiles>  (11) 
CCc1cc(CC)nc(N(C)C)n1

>  <score_type>  (11) 
oracle

>  <origin>  (11) 
adg

>  <m_score__min__energy>  (11) 
-4.5099999999999998

>  <m_primary>  (11) 
energy

$$$$
11:0
     RDKit          3D

 72 76  0  0  0  0  0  0  0  0999 V2000
   -3.5050   15.9700  -35.3850 C   0  0  0  0  0  0  0  0  0  0  0  0
   -2.8090   15.4220  -34.1450 C   0  0  0  0  0  0  0  0  0  0  0  0
   -3.8030   15.1900  -33.0690 N   0  0  0  0  0  0  0  0  0  0  0  0
   -3.4870   13.9620  -32.3050 C   0  0  0  0  0  0  0  0  0  0  0  0
   -4.6080   13.6490  -31.3160 C   0  0  0  0  0  0  0  0  0  0  0  0
   -5.1840   15.1580  -33.6030 C   0  0  0  0  0  0  0  0  0  0  0  0
   -5.9730   16.3620  -33.0730 C   0  0  0  0  0  0  0  0  0  0  0  0
   -5.0760   17.4650  -32.6980 N   0  0  0  0  0  0  0  0  0  0  0  0
   -5.0090   18.5090  -33.7410 C   0  0  0  0  0  0  0  0  0  0  0  0
   -4.7850   19.8830  -33.1540 C   0  0  0  0  0  0  0  0  0  0  0  0
   -3.5250   20.5280  -33.0770 C   0  0  0  0  0  0  0  0  0  0  0  0
   -2.2740   20.0690  -33.7010 C   0  0  0  0  0  0  0  0  0  0  0  0
   -1.9650   18.7030  -33.7850 C   0  0  0  0  0  0  0  0  0  0  0  0
   -0.7730   18.2850  -34.3830 C   0  0  0  0  0  0  0  0  0  0  0  0
    0.1320   19.2230  -34.8950 C   0  0  0  0  0  0  0  0  0  0  0  0
    1.3130   18.7540  -35.4890 O   0  0  0  0  0  0  0  0  0  0  0  0
    1.4080   18.2850  -36.8300 C   0  0  0  0  0  0  0  0  0  0  0  0
   -0.1680   20.5950  -34.7930 C   0  0  0  0  0  0  0  0  0  0  0  0
   -1.3620   21.0110  -34.1950 C   0  0  0  0  0  0  0  0  0  0  0  0
   -3.6690   22.0570  -32.3230 S   0  0  0  0  0  0  0  0  0  0  0  0
   -5.3140   21.8710  -32.0920 C   0  0  0  0  0  0  0  0  0  0  0  0
   -5.7760   20.7050  -32.5970 C   0  0  0  0  0  0  0  0  0  0  0  0
   -7.1470   20.7340  -32.4060 C   0  0  0  0  0  0  0  0  0  0  0  0
   -8.1730   19.8600  -32.7670 C   0  0  0  0  0  0  0  0  0  0  0  0
   -9.4870   20.2050  -32.4150 C   0  0  0  0  0  0  0  0  0  0  0  0
   -9.7570   21.4120  -31.7360 C   0  0  0  0  0  0  0  0  0  0  0  0
   -8.7170   22.2960  -31.4050 C   0  0  0  0  0  0  0  0  0  0  0  0
   -7.4100   21.9380  -31.7560 C   0  0  0  0  0  0  0  0  0  0  0  0
   -6.2730   22.6590  -31.5700 N   0  0  0  0  0  0  0  0  0  0  0  0
   -6.0910   23.9430  -30.8920 C   0  0  0  0  0  0  0  0  0  0  0  0
   -4.9380   23.8580  -29.9290 C   0  0  0  0  0  0  0  0  0  0  0  0
   -3.7790   24.6250  -30.1410 C   0  0  0  0  0  0  0  0  0  0  0  0
   -2.6910   24.5130  -29.2680 C   0  0  0  0  0  0  0  0  0  0  0  0
   -2.7500   23.6330  -28.1850 C   0  0  0  0  0  0  0  0  0  0  0  0
   -3.8950   22.8590  -27.9730 C   0  0  0  0  0  0  0  0  0  0  0  0
   -4.9840   22.9660  -28.8450 C   0  0  0  0  0  0  0  0  0  0  0  0
   -4.3355   16.6239  -35.0805 H   0  0  0  0  0  0  0  0  0  0  0  0
   -2.7853   16.5465  -35.9848 H   0  0  0  0  0  0  0  0  0  0  0  0
   -3.8966   15.1352  -35.9848 H   0  0  0  0  0  0  0  0  0  0  0  0
   -2.3135   14.4722  -34.3947 H   0  0  0  0  0  0  0  0  0  0  0  0
   -2.0623   16.1509  -33.7971 H   0  0  0  0  0  0  0  0  0  0  0  0
   -3.3735   13.1196  -33.0031 H   0  0  0  0  0  0  0  0  0  0  0  0
   -2.5517   14.1185  -31.7475 H   0  0  0  0  0  0  0  0  0  0  0  0
   -4.2303   13.7545  -30.2883 H   0  0  0  0  0  0  0  0  0  0  0  0
   -5.4421   14.3486  -31.4737 H   0  0  0  0  0  0  0  0  0  0  0  0
   -4.9590   12.6185  -31.4737 H   0  0  0  0  0  0  0  0  0  0  0  0
   -5.1518   15.1973  -34.7018 H   0  0  0  0  0  0  0  0  0  0  0  0
   -5.6773   14.2293  -33.2801 H   0  0  0  0  0  0  0  0  0  0  0  0
   -6.6626   16.7112  -33.8556 H   0  0  0  0  0  0  0  0  0  0  0  0
   -6.5285   16.0463  -32.1776 H   0  0  0  0  0  0  0  0  0  0  0  0
   -5.4000   17.8770  -31.7940 H   0  0  0  0  0  0  0  0  0  0  0  0
   -4.1130   17.0790  -32.5570 H   0  0  0  0  0  0  0  0  0  0  0  0
   -4.1793   18.2753  -34.4244 H   0  0  0  0  0  0  0  0  0  0  0  0
   -5.9719   18.5199  -34.2727 H   0  0  0  0  0  0  0  0  0  0  0  0
   -2.6642   17.9576  -33.3783 H   0  0  0  0  0  0  0  0  0  0  0  0
   -0.5440   17.2113  -34.4520 H   0  0  0  0  0  0  0  0  0  0  0  0
    1.6264   17.2069  -36.8268 H   0  0  0  0  0  0  0  0  0  0  0  0
    0.4552   18.4646  -37.3496 H   0  0  0  0  0  0  0  0  0  0  0  0
    2.2158   18.8212  -37.3496 H   0  0  0  0  0  0  0  0  0  0  0  0
    0.5385   21.3416  -35.1847 H   0  0  0  0  0  0  0  0  0  0  0  0
   -1.5865   22.0846  -34.1120 H   0  0  0  0  0  0  0  0  0  0  0  0
   -7.9584   18.9285  -33.3112 H   0  0  0  0  0  0  0  0  0  0  0  0
  -10.3149   19.5275  -32.6711 H   0  0  0  0  0  0  0  0  0  0  0  0
  -10.7926   21.6632  -31.4631 H   0  0  0  0  0  0  0  0  0  0  0  0
   -8.9237   23.2429  -30.8847 H   0  0  0  0  0  0  0  0  0  0  0  0
   -5.8846   24.7234  -31.6392 H   0  0  0  0  0  0  0  0  0  0  0  0
   -7.0076   24.1910  -30.3366 H   0  0  0  0  0  0  0  0  0  0  0  0
   -3.7272   25.3154  -30.9958 H   0  0  0  0  0  0  0  0  0  0  0  0
   -1.7882   25.1188  -29.4349 H   0  0  0  0  0  0  0  0  0  0  0  0
   -1.8949   23.5488  -27.4982 H   0  0  0  0  0  0  0  0  0  0  0  0
   -3.9397   22.1656  -27.1202 H   0  0  0  0  0  0  0  0  0  0  0  0
   -5.8798   22.3490  -28.6809 H   0  0  0  0  0  0  0  0  0  0  0  0
  1  2  1  0
  2  3  1  0
  3  4  1  0
  4  5  1  0
  3  6  1  0
  6  7  1  0
  7  8  1  0
  8  9  1  0
  9 10  1  0
 10 11  2  0
 11 12  1  0
 12 13  2  0
 13 14  1  0
 14 15  2  0
 15 16  1  0
 16 17  1  0
 15 18  1  0
 18 19  2  0
 11 20  1  0
 20 21  1  0
 21 22  2  0
 22 23  1  0
 23 24  2  0
 24 25  1  0
 25 26  2  0
 26 27  1  0
 27 28  2  0
 28 29  1  0
 29 30  1  0
 30 31  1  0
 31 32  2  0
 32 33  1  0
 33 34  2  0
 34 35  1  0
 35 36  2  0
 22 10  1  0
 28 23  1  0
 36 31  1  0
 19 12  1  0
 29 21  1  0
  1 37  1  0
  1 38  1  0
  1 39  1  0
  2 40  1  0
  2 41  1  0
  4 42  1  0
  4 43  1  0
  5 44  1  0
  5 45  1  0
  5 46  1  0
  6 47  1  0
  6 48  1  0
  7 49  1  0
  7 50  1  0
  8 51  1  0
  8 52  1  0
  9 53  1  0
  9 54  1  0
 13 55  1  0
 14 56  1  0
 17 57  1  0
 17 58  1  0
 17 59  1  0
 18 60  1  0
 19 61  1  0
 24 62  1  0
 25 63  1  0
 26 64  1  0
 27 65  1  0
 30 66  1  0
 30 67  1  0
 32 68  1  0
 33 69  1  0
 34 70  1  0
 35 71  1  0
 36 72  1  0
M  CHG  1   8   1
M  END
>  <UniqueID>  (12) 
11

>  <SMILES>  (12) 
CCN(CC)CC[NH2+]Cc1c(-c2ccc(OC)cc2)sc2c1c1ccccc1n2Cc1ccccc1

>  <Energy>  (12) 
160.54875788652097

>  <Genealogy>  (12) 
CCN(CC)CC[NH2+]Cc1c(-c2ccc(OC)cc2)sc2c1c1ccccc1n2Cc1ccccc1 (protonated)
CCN(CC)CC[NH2+]Cc1c(-c2ccc(OC)cc2)sc2c1c1ccccc1n2Cc1ccccc1 (3D coordinates assigned)
CCN(CC)CC[NH2+]Cc1c(-c2ccc(OC)cc2)sc2c1c1ccccc1n2Cc1ccccc1 (optimized conformer: 160.54875788652097 kcal/mol)

>  <smiles>  (12) 
CCN(CC)CCNCc1c(-c2ccc(OC)cc2)sc2c1c1ccccc1n2Cc1ccccc1

>  <score_type>  (12) 
oracle

>  <origin>  (12) 
adg

>  <m_score__min__energy>  (12) 
-8.5600000000000005

>  <m_primary>  (12) 
energy

$$$$
12:0
     RDKit          3D

 33 36  0  0  0  0  0  0  0  0999 V2000
   -9.4240   11.6770  -35.2330 N   0  0  0  0  0  0  0  0  0  0  0  0
   -8.4840   12.2240  -34.8370 C   0  0  0  0  0  0  0  0  0  0  0  0
   -7.3160   12.9050  -34.3440 C   0  0  0  0  0  0  0  0  0  0  0  0
   -6.2990   12.1820  -33.7110 C   0  0  0  0  0  0  0  0  0  0  0  0
   -5.1660   12.8430  -33.2330 C   0  0  0  0  0  0  0  0  0  0  0  0
   -5.0420   14.2280  -33.3840 C   0  0  0  0  0  0  0  0  0  0  0  0
   -6.0570   14.9680  -34.0200 C   0  0  0  0  0  0  0  0  0  0  0  0
   -5.9530   16.4350  -34.1940 C   0  0  0  0  0  0  0  0  0  0  0  0
   -5.6720   17.3260  -33.2210 N   0  0  0  0  0  0  0  0  0  0  0  0
   -5.6920   18.5060  -33.8770 C   0  0  0  0  0  0  0  0  0  0  0  0
   -5.4410   19.8320  -33.2600 C   0  0  0  0  0  0  0  0  0  0  0  0
   -6.5250   20.6600  -32.9180 C   0  0  0  0  0  0  0  0  0  0  0  0
   -6.3110   21.9120  -32.3360 C   0  0  0  0  0  0  0  0  0  0  0  0
   -5.0070   22.3660  -32.0830 C   0  0  0  0  0  0  0  0  0  0  0  0
   -4.7800   23.6910  -31.4680 C   0  0  0  0  0  0  0  0  0  0  0  0
   -3.6370   24.0650  -30.8630 N   0  0  0  0  0  0  0  0  0  0  0  0
   -3.8600   25.3050  -30.4600 N   0  0  0  0  0  0  0  0  0  0  0  0
   -5.0830   25.6750  -30.8030 N   0  0  0  0  0  0  0  0  0  0  0  0
   -5.6870   24.6840  -31.4380 N   0  0  0  0  0  0  0  0  0  0  0  0
   -3.9210   21.5420  -32.4230 C   0  0  0  0  0  0  0  0  0  0  0  0
   -4.1350   20.2890  -33.0050 C   0  0  0  0  0  0  0  0  0  0  0  0
   -5.9720   18.3330  -35.1850 N   0  0  0  0  0  0  0  0  0  0  0  0
   -6.1250   17.0510  -35.3400 O   0  0  0  0  0  0  0  0  0  0  0  0
   -7.1950   14.2930  -34.4980 C   0  0  0  0  0  0  0  0  0  0  0  0
   -6.3922   11.0927  -33.5900 H   0  0  0  0  0  0  0  0  0  0  0  0
   -4.3678   12.2724  -32.7357 H   0  0  0  0  0  0  0  0  0  0  0  0
   -4.1467   14.7418  -33.0038 H   0  0  0  0  0  0  0  0  0  0  0  0
   -5.4860   17.1450  -32.2120 H   0  0  0  0  0  0  0  0  0  0  0  0
   -7.5526   20.3182  -33.1108 H   0  0  0  0  0  0  0  0  0  0  0  0
   -7.1705   22.5465  -32.0741 H   0  0  0  0  0  0  0  0  0  0  0  0
   -2.8940   21.8855  -32.2297 H   0  0  0  0  0  0  0  0  0  0  0  0
   -3.2748   19.6549  -33.2658 H   0  0  0  0  0  0  0  0  0  0  0  0
   -7.9960   14.8587  -34.9964 H   0  0  0  0  0  0  0  0  0  0  0  0
  1  2  3  0
  2  3  1  0
  3  4  2  0
  4  5  1  0
  5  6  2  0
  6  7  1  0
  7  8  1  0
  8  9  2  0
  9 10  1  0
 10 11  1  0
 11 12  2  0
 12 13  1  0
 13 14  2  0
 14 15  1  0
 15 16  1  0
 16 17  2  0
 17 18  1  0
 18 19  1  0
 14 20  1  0
 20 21  2  0
 10 22  2  0
 22 23  1  0
  7 24  2  0
 24  3  1  0
 23  8  1  0
 21 11  1  0
 19 15  2  0
  4 25  1  0
  5 26  1  0
  6 27  1  0
  9 28  1  0
 12 29  1  0
 13 30  1  0
 20 31  1  0
 21 32  1  0
 24 33  1  0
M  CHG  2   9   1  18  -1
M  END
>  <UniqueID>  (13) 
12

>  <SMILES>  (13) 
N#Cc1cccc(-c2[nH+]c(-c3ccc(-c4nn[n-]n4)cc3)no2)c1

>  <Energy>  (13) 
113.10672012626483

>  <Genealogy>  (13) 
N#Cc1cccc(-c2[nH+]c(-c3ccc(-c4nn[n-]n4)cc3)no2)c1 (protonated)
N#Cc1cccc(-c2[nH+]c(-c3ccc(-c4nn[n-]n4)cc3)no2)c1 (3D coordinates assigned)
N#Cc1cccc(-c2[nH+]c(-c3ccc(-c4nn[n-]n4)cc3)no2)c1 (optimized conformer: 113.10672012626483 kcal/mol)

>  <smiles>  (13) 
N#Cc1cccc(-c2nc(-c3ccc(-c4nn[nH]n4)cc3)no2)c1

>  <score_type>  (13) 
oracle

>  <origin>  (13) 
adg

>  <m_score__min__energy>  (13) 
-8.5199999999999996

>  <m_primary>  (13) 
energy

$$$$
13:0
     RDKit          3D

 21 21  0  0  0  0  0  0  0  0999 V2000
   -7.7980   19.1610  -32.1380 C   0  0  0  0  0  0  0  0  0  0  0  0
   -7.5060   20.3350  -32.8870 O   0  0  0  0  0  0  0  0  0  0  0  0
   -6.9140   21.4930  -32.3550 C   0  0  0  0  0  0  0  0  0  0  0  0
   -5.5200   21.6870  -32.3620 C   0  0  0  0  0  0  0  0  0  0  0  0
   -4.9620   22.8480  -31.8250 C   0  0  0  0  0  0  0  0  0  0  0  0
   -5.7810   23.8430  -31.2680 C   0  0  0  0  0  0  0  0  0  0  0  0
   -5.2070   25.0420  -30.7130 N   0  0  0  0  0  0  0  0  0  0  0  0
   -5.9210   25.8680  -30.1060 O   0  0  0  0  0  0  0  0  0  0  0  0
   -3.8610   25.2990  -30.8430 O   0  0  0  0  0  0  0  0  0  0  0  0
   -7.1730   23.6520  -31.2600 C   0  0  0  0  0  0  0  0  0  0  0  0
   -7.7420   22.4860  -31.7980 C   0  0  0  0  0  0  0  0  0  0  0  0
   -9.2340   22.2990  -31.7810 C   0  0  0  0  0  0  0  0  0  0  0  0
   -7.7415   19.3883  -31.0632 H   0  0  0  0  0  0  0  0  0  0  0  0
   -8.8107   18.8104  -32.3859 H   0  0  0  0  0  0  0  0  0  0  0  0
   -7.0675   18.3768  -32.3859 H   0  0  0  0  0  0  0  0  0  0  0  0
   -4.8646   20.9167  -32.7945 H   0  0  0  0  0  0  0  0  0  0  0  0
   -3.8706   22.9847  -31.8383 H   0  0  0  0  0  0  0  0  0  0  0  0
   -7.8250   24.4250  -30.8272 H   0  0  0  0  0  0  0  0  0  0  0  0
   -9.5862   22.2549  -30.7398 H   0  0  0  0  0  0  0  0  0  0  0  0
   -9.7153   23.1438  -32.2954 H   0  0  0  0  0  0  0  0  0  0  0  0
   -9.4919   21.3615  -32.2954 H   0  0  0  0  0  0  0  0  0  0  0  0
  1  2  1  0
  2  3  1  0
  3  4  2  0
  4  5  1  0
  5  6  2  0
  6  7  1  0
  7  8  2  0
  7  9  1  0
  6 10  1  0
 10 11  2  0
 11 12  1  0
 11  3  1  0
  1 13  1  0
  1 14  1  0
  1 15  1  0
  4 16  1  0
  5 17  1  0
 10 18  1  0
 12 19  1  0
 12 20  1  0
 12 21  1  0
M  CHG  2   7   1   9  -1
M  END
>  <UniqueID>  (14) 
13

>  <SMILES>  (14) 
COc1ccc([N+](=O)[O-])cc1C

>  <Energy>  (14) 
19.82174874713459

>  <Genealogy>  (14) 
COc1ccc([N+](=O)[O-])cc1C (3D coordinates assigned)
COc1ccc([N+](=O)[O-])cc1C (optimized conformer: 19.82174874713459 kcal/mol)

>  <smiles>  (14) 
COc1ccc([N+](=O)[O-])cc1C

>  <score_type>  (14) 
oracle

>  <origin>  (14) 
adg

>  <m_score__min__energy>  (14) 
-5.8300000000000001

>  <m_primary>  (14) 
energy

$$$$
14:0
     RDKit          3D

 47 49  0  0  0  0  0  0  0  0999 V2000
   -2.6410   24.9220  -26.9030 C   0  0  0  0  0  0  0  0  0  0  0  0
   -2.2650   25.0250  -28.2730 O   0  0  0  0  0  0  0  0  0  0  0  0
   -2.2820   23.9580  -29.1870 C   0  0  0  0  0  0  0  0  0  0  0  0
   -1.5040   22.8030  -28.9980 C   0  0  0  0  0  0  0  0  0  0  0  0
   -1.5440   21.7570  -29.9300 C   0  0  0  0  0  0  0  0  0  0  0  0
   -0.7700   20.6090  -29.7280 C   0  0  0  0  0  0  0  0  0  0  0  0
   -0.8100   19.5910  -30.6210 N   0  0  0  0  0  0  0  0  0  0  0  0
   -1.5850   19.6450  -31.7350 C   0  0  0  0  0  0  0  0  0  0  0  0
   -2.3830   20.7760  -32.0120 C   0  0  0  0  0  0  0  0  0  0  0  0
   -3.2530   20.8470  -33.2640 C   0  0  0  0  0  0  0  0  0  0  0  0
   -4.7240   20.5910  -33.0380 C   0  0  0  0  0  0  0  0  0  0  0  0
   -5.5570   21.6200  -32.5760 C   0  0  0  0  0  0  0  0  0  0  0  0
   -6.9100   21.3750  -32.3340 C   0  0  0  0  0  0  0  0  0  0  0  0
   -7.4440   20.0990  -32.5450 C   0  0  0  0  0  0  0  0  0  0  0  0
   -9.1880   19.8120  -32.2200 S   0  0  0  0  0  0  0  0  0  0  0  0
   -9.4720   21.4960  -31.5920 C   0  0  0  0  0  0  0  0  0  0  0  0
   -6.6210   19.0520  -32.9910 C   0  0  0  0  0  0  0  0  0  0  0  0
   -7.1850   17.7800  -33.1800 O   0  0  0  0  0  0  0  0  0  0  0  0
   -6.4760   16.6460  -33.6650 C   0  0  0  0  0  0  0  0  0  0  0  0
   -5.2570   19.3070  -33.2350 C   0  0  0  0  0  0  0  0  0  0  0  0
   -2.3650   21.8500  -31.0780 C   0  0  0  0  0  0  0  0  0  0  0  0
   -3.1450   23.0140  -31.2540 C   0  0  0  0  0  0  0  0  0  0  0  0
   -3.1040   24.0630  -30.3150 C   0  0  0  0  0  0  0  0  0  0  0  0
   -3.8700   25.2300  -30.4690 O   0  0  0  0  0  0  0  0  0  0  0  0
   -5.2890   25.2890  -30.3700 C   0  0  0  0  0  0  0  0  0  0  0  0
   -1.7757   25.1590  -26.2665 H   0  0  0  0  0  0  0  0  0  0  0  0
   -3.4561   25.6300  -26.6923 H   0  0  0  0  0  0  0  0  0  0  0  0
   -2.9815   23.8975  -26.6923 H   0  0  0  0  0  0  0  0  0  0  0  0
   -0.8584   22.7192  -28.1113 H   0  0  0  0  0  0  0  0  0  0  0  0
   -0.1258   20.5327  -28.8396 H   0  0  0  0  0  0  0  0  0  0  0  0
   -0.2280   18.7410  -30.4480 H   0  0  0  0  0  0  0  0  0  0  0  0
   -1.5910   18.7942  -32.4322 H   0  0  0  0  0  0  0  0  0  0  0  0
   -3.1448   21.8522  -33.6974 H   0  0  0  0  0  0  0  0  0  0  0  0
   -2.9009   20.0433  -33.9274 H   0  0  0  0  0  0  0  0  0  0  0  0
   -5.1428   22.6243  -32.4035 H   0  0  0  0  0  0  0  0  0  0  0  0
   -7.5586   22.1881  -31.9761 H   0  0  0  0  0  0  0  0  0  0  0  0
   -9.4697   21.4824  -30.4921 H   0  0  0  0  0  0  0  0  0  0  0  0
   -8.6734   22.1612  -31.9521 H   0  0  0  0  0  0  0  0  0  0  0  0
  -10.4446   21.8625  -31.9521 H   0  0  0  0  0  0  0  0  0  0  0  0
   -6.1058   16.0539  -32.8150 H   0  0  0  0  0  0  0  0  0  0  0  0
   -7.1485   16.0275  -34.2775 H   0  0  0  0  0  0  0  0  0  0  0  0
   -5.6254   16.9798  -34.2775 H   0  0  0  0  0  0  0  0  0  0  0  0
   -4.6039   18.4931  -33.5829 H   0  0  0  0  0  0  0  0  0  0  0  0
   -3.7942   23.1027  -32.1375 H   0  0  0  0  0  0  0  0  0  0  0  0
   -5.5824   25.3012  -29.3099 H   0  0  0  0  0  0  0  0  0  0  0  0
   -5.6532   26.2031  -30.8618 H   0  0  0  0  0  0  0  0  0  0  0  0
   -5.7278   24.4083  -30.8618 H   0  0  0  0  0  0  0  0  0  0  0  0
  1  2  1  0
  2  3  1  0
  3  4  2  0
  4  5  1  0
  5  6  2  0
  6  7  1  0
  7  8  2  0
  8  9  1  0
  9 10  1  0
 10 11  1  0
 11 12  2  0
 12 13  1  0
 13 14  2  0
 14 15  1  0
 15 16  1  0
 14 17  1  0
 17 18  1  0
 18 19  1  0
 17 20  2  0
  9 21  2  0
 21 22  1  0
 22 23  2  0
 23 24  1  0
 24 25  1  0
 23  3  1  0
 21  5  1  0
 20 11  1  0
  1 26  1  0
  1 27  1  0
  1 28  1  0
  4 29  1  0
  6 30  1  0
  7 31  1  0
  8 32  1  0
 10 33  1  0
 10 34  1  0
 12 35  1  0
 13 36  1  0
 16 37  1  0
 16 38  1  0
 16 39  1  0
 19 40  1  0
 19 41  1  0
 19 42  1  0
 20 43  1  0
 22 44  1  0
 25 45  1  0
 25 46  1  0
 25 47  1  0
M  CHG  1   7   1
M  END
>  <UniqueID>  (15) 
14

>  <SMILES>  (15) 
COc1cc2c[nH+]cc(Cc3ccc(SC)c(OC)c3)c2cc1OC

>  <Energy>  (15) 
51.49267655873313

>  <Genealogy>  (15) 
COc1cc2c[nH+]cc(Cc3ccc(SC)c(OC)c3)c2cc1OC (protonated)
COc1cc2c[nH+]cc(Cc3ccc(SC)c(OC)c3)c2cc1OC (3D coordinates assigned)
COc1cc2c[nH+]cc(Cc3ccc(SC)c(OC)c3)c2cc1OC (optimized conformer: 51.49267655873313 kcal/mol)

>  <smiles>  (15) 
COc1cc2cncc(Cc3ccc(SC)c(OC)c3)c2cc1OC

>  <score_type>  (15) 
oracle

>  <origin>  (15) 
adg

>  <m_score__min__energy>  (15) 
-7.6399999999999997

>  <m_primary>  (15) 
energy

$$$$
15:0
     RDKit          3D

 50 52  0  0  1  0  0  0  0  0999 V2000
   -5.0350   15.2830  -33.2370 C   0  0  0  0  0  0  0  0  0  0  0  0
   -5.9850   16.0960  -33.9880 N   0  0  0  0  0  0  0  0  0  0  0  0
   -6.3520   17.2530  -33.5100 C   0  0  0  0  0  0  0  0  0  0  0  0
   -7.6000   17.4970  -33.0880 N   0  0  0  0  0  0  0  0  0  0  0  0
   -7.9940   18.6910  -32.5910 C   0  0  0  0  0  0  0  0  0  0  0  0
   -9.3890   18.9380  -32.1270 C   0  0  0  0  0  0  0  0  0  0  0  0
   -7.0690   19.7090  -32.5140 C   0  0  0  0  0  0  0  0  0  0  0  0
   -7.3640   20.9640  -32.0240 C   0  0  0  0  0  0  0  0  0  0  0  0
   -6.4360   21.9730  -31.9510 C   0  0  0  0  0  0  0  0  0  0  0  0
   -6.6660   23.2360  -31.4760 O   0  0  0  0  0  0  0  0  0  0  0  0
   -6.3990   23.7350  -30.2070 C   0  0  0  0  0  0  0  0  0  0  0  0
   -5.7970   25.1260  -30.2340 C   0  0  0  0  0  0  0  0  0  0  0  0
   -4.2950   25.1000  -30.4790 C   0  0  0  0  0  0  0  0  0  0  0  0
   -3.7020   24.4230  -29.3450 N   0  0  0  0  0  0  0  0  0  0  0  0
   -2.3300   24.5840  -29.0330 C   0  0  0  0  0  0  0  0  0  0  0  0
   -1.3930   23.4430  -29.2930 C   0  0  0  0  0  0  0  0  0  0  0  0
   -1.8230   25.6580  -28.5350 N   0  0  0  0  0  0  0  0  0  0  0  0
   -4.5980   23.5770  -28.5560 C   0  0  0  0  0  0  0  0  0  0  0  0
   -5.3880   22.7770  -29.5690 C   0  0  0  0  0  0  0  0  0  0  0  0
   -5.1580   21.6770  -32.3980 C   0  0  0  0  0  0  0  0  0  0  0  0
   -4.1670   22.6470  -32.3550 O   0  0  0  0  0  0  0  0  0  0  0  0
   -2.8780   22.2770  -31.9580 C   0  0  0  0  0  0  0  0  0  0  0  0
   -4.8220   20.4350  -32.8950 C   0  0  0  0  0  0  0  0  0  0  0  0
   -5.7850   19.4430  -32.9530 C   0  0  0  0  0  0  0  0  0  0  0  0
   -5.4390   18.2380  -33.4410 N   0  0  0  0  0  0  0  0  0  0  0  0
   -5.2019   15.4258  -32.1592 H   0  0  0  0  0  0  0  0  0  0  0  0
   -5.1773   14.2226  -33.4927 H   0  0  0  0  0  0  0  0  0  0  0  0
   -4.0094   15.5874  -33.4927 H   0  0  0  0  0  0  0  0  0  0  0  0
   -9.4143   18.9425  -31.0273 H   0  0  0  0  0  0  0  0  0  0  0  0
   -9.7345   19.9113  -32.5057 H   0  0  0  0  0  0  0  0  0  0  0  0
  -10.0476   18.1425  -32.5057 H   0  0  0  0  0  0  0  0  0  0  0  0
   -8.3880   21.1653  -31.6764 H   0  0  0  0  0  0  0  0  0  0  0  0
   -7.3422   23.8079  -29.6457 H   0  0  0  0  0  0  0  0  0  0  0  0
   -6.2767   25.7037  -31.0379 H   0  0  0  0  0  0  0  0  0  0  0  0
   -5.9699   25.5870  -29.2503 H   0  0  0  0  0  0  0  0  0  0  0  0
   -4.0713   24.5531  -31.4069 H   0  0  0  0  0  0  0  0  0  0  0  0
   -3.8933   26.1183  -30.5873 H   0  0  0  0  0  0  0  0  0  0  0  0
   -1.0497   23.0249  -28.3352 H   0  0  0  0  0  0  0  0  0  0  0  0
   -1.9150   22.6634  -29.8673 H   0  0  0  0  0  0  0  0  0  0  0  0
   -0.5268   23.8034  -29.8673 H   0  0  0  0  0  0  0  0  0  0  0  0
   -2.3210   26.1970  -27.8040 H   0  0  0  0  0  0  0  0  0  0  0  0
   -4.0194   22.9072  -27.9028 H   0  0  0  0  0  0  0  0  0  0  0  0
   -5.2532   24.1716  -27.9024 H   0  0  0  0  0  0  0  0  0  0  0  0
   -4.7144   22.3715  -30.3383 H   0  0  0  0  0  0  0  0  0  0  0  0
   -5.8994   21.9304  -29.0877 H   0  0  0  0  0  0  0  0  0  0  0  0
   -2.8230   22.2612  -30.8595 H   0  0  0  0  0  0  0  0  0  0  0  0
   -2.6464   21.2761  -32.3511 H   0  0  0  0  0  0  0  0  0  0  0  0
   -2.1508   23.0027  -32.3511 H   0  0  0  0  0  0  0  0  0  0  0  0
   -3.7976   20.2348  -33.2422 H   0  0  0  0  0  0  0  0  0  0  0  0
   -4.4620   18.0680  -33.7640 H   0  0  0  0  0  0  0  0  0  0  0  0
  1  2  1  0
  2  3  2  0
  3  4  1  0
  4  5  2  0
  5  6  1  0
  5  7  1  0
  7  8  2  0
  8  9  1  0
  9 10  1  0
 10 11  1  0
 11 12  1  0
 12 13  1  0
 13 14  1  0
 14 15  1  0
 15 16  1  0
 15 17  2  3
 14 18  1  0
 18 19  1  0
  9 20  2  0
 20 21  1  0
 21 22  1  0
 20 23  1  0
 23 24  2  0
 24 25  1  0
 25  3  1  0
 24  7  1  0
 19 11  1  0
  1 26  1  0
  1 27  1  0
  1 28  1  0
  6 29  1  0
  6 30  1  0
  6 31  1  0
  8 32  1  0
 11 33  1  0
 12 34  1  0
 12 35  1  0
 13 36  1  0
 13 37  1  0
 16 38  1  0
 16 39  1  0
 16 40  1  0
 17 41  1  0
 18 42  1  0
 18 43  1  0
 19 44  1  0
 19 45  1  0
 22 46  1  0
 22 47  1  0
 22 48  1  0
 23 49  1  0
 25 50  1  0
M  END
>  <smiles>  (16) 
CN=c1nc(C)c2cc(OC3CCN(C(C)=N)CC3)c(OC)cc2[nH]1

>  <score_type>  (16) 
oracle

>  <origin>  (16) 
adg

>  <m_score__min__energy>  (16) 
-8.0800000000000001

>  <m_primary>  (16) 
energy

$$$$
16:0
     RDKit          3D

 43 46  0  0  1  0  0  0  0  0999 V2000
    0.1820   18.6880  -29.8470 C   0  0  0  0  0  0  0  0  0  0  0  0
    0.3430   18.7910  -31.3510 C   0  0  0  0  0  0  0  0  0  0  0  0
   -0.8870   19.1980  -31.9970 N   0  0  0  0  0  0  0  0  0  0  0  0
   -1.6180   18.5520  -32.9310 C   0  0  0  0  0  0  0  0  0  0  0  0
   -2.6740   19.3030  -33.2380 N   0  0  0  0  0  0  0  0  0  0  0  0
   -2.6600   20.4460  -32.5210 C   0  0  0  0  0  0  0  0  0  0  0  0
   -2.0550   22.4600  -30.8340 C   0  0  0  0  0  0  0  0  0  0  0  0
   -1.6860   23.3730  -30.0000 N   0  0  0  0  0  0  0  0  0  0  0  0
   -5.8330   21.6450  -32.5940 C   0  0  0  0  0  0  0  0  0  0  0  0
   -6.4140   22.7790  -32.0690 C   0  0  0  0  0  0  0  0  0  0  0  0
   -7.6710   22.6670  -31.5170 C   0  0  0  0  0  0  0  0  0  0  0  0
   -8.3780   21.4850  -31.4630 C   0  0  0  0  0  0  0  0  0  0  0  0
   -7.7930   20.3540  -31.9910 C   0  0  0  0  0  0  0  0  0  0  0  0
   -8.7060   18.8610  -31.9130 Cl  0  0  0  0  0  0  0  0  0  0  0  0
   -6.5370   20.4390  -32.5480 C   0  0  0  0  0  0  0  0  0  0  0  0
   -3.1650   22.5500  -31.5890 N   0  0  0  0  0  0  0  0  0  0  0  0
   -3.5020   21.5580  -32.4500 C   0  0  0  0  0  0  0  0  0  0  0  0
   -4.5570   21.6050  -33.1890 N   0  0  0  0  0  0  0  0  0  0  0  0
   -2.6070   23.7300  -28.9370 C   0  0  0  0  0  0  0  0  0  0  0  0
   -3.8100   24.4210  -29.4650 C   0  0  0  0  0  0  0  0  0  0  0  0
   -5.1040   24.2550  -28.9570 C   0  0  0  0  0  0  0  0  0  0  0  0
   -5.9160   25.0670  -29.7230 C   0  0  0  0  0  0  0  0  0  0  0  0
   -5.0980   25.6830  -30.6490 C   0  0  0  0  0  0  0  0  0  0  0  0
   -3.8630   25.2800  -30.4710 O   0  0  0  0  0  0  0  0  0  0  0  0
   -1.2440   21.3720  -30.9140 N   0  0  0  0  0  0  0  0  0  0  0  0
   -1.5160   20.3570  -31.7410 C   0  0  0  0  0  0  0  0  0  0  0  0
    1.0097   19.2175  -29.3525 H   0  0  0  0  0  0  0  0  0  0  0  0
   -0.7743   19.1424  -29.5486 H   0  0  0  0  0  0  0  0  0  0  0  0
    0.1938   17.6293  -29.5486 H   0  0  0  0  0  0  0  0  0  0  0  0
    1.1249   19.5314  -31.5755 H   0  0  0  0  0  0  0  0  0  0  0  0
    0.6177   17.7972  -31.7342 H   0  0  0  0  0  0  0  0  0  0  0  0
   -1.3808   17.5697  -33.3655 H   0  0  0  0  0  0  0  0  0  0  0  0
   -5.8892   23.7455  -32.0901 H   0  0  0  0  0  0  0  0  0  0  0  0
   -8.1362   23.5706  -31.0961 H   0  0  0  0  0  0  0  0  0  0  0  0
   -9.3803   21.4454  -31.0115 H   0  0  0  0  0  0  0  0  0  0  0  0
   -6.0753   19.5333  -32.9681 H   0  0  0  0  0  0  0  0  0  0  0  0
   -3.7710   23.3780  -31.5200 H   0  0  0  0  0  0  0  0  0  0  0  0
   -2.9217   22.8144  -28.4149 H   0  0  0  0  0  0  0  0  0  0  0  0
   -2.0900   24.4162  -28.2500 H   0  0  0  0  0  0  0  0  0  0  0  0
   -5.4105   23.6104  -28.1200 H   0  0  0  0  0  0  0  0  0  0  0  0
   -7.0030   25.1978  -29.6164 H   0  0  0  0  0  0  0  0  0  0  0  0
   -5.4300   26.3990  -31.4153 H   0  0  0  0  0  0  0  0  0  0  0  0
   -0.3880   21.3080  -30.3290 H   0  0  0  0  0  0  0  0  0  0  0  0
  1  2  1  0
  2  3  1  0
  3  4  1  0
  4  5  2  0
  5  6  1  0
  6  7  1  0
  7  8  2  0
  8  9  1  0
  9 10  2  0
 10 11  1  0
 11 12  2  0
 12 13  1  0
 13 14  1  0
 13 15  2  0
  7 16  1  0
 16 17  1  0
 17 18  2  0
 18 19  1  0
 19 20  1  0
 20 21  2  0
 21 22  1  0
 22 23  2  0
 23 24  1  0
 17 25  1  0
 25 26  1  0
 26  3  1  0
 26  6  2  0
 15  9  1  0
 24 20  1  0
  1 27  1  0
  1 28  1  0
  1 29  1  0
  2 30  1  0
  2 31  1  0
  4 32  1  0
 10 33  1  0
 11 34  1  0
 12 35  1  0
 15 36  1  0
 16 37  1  0
 19 38  1  0
 19 39  1  0
 21 40  1  0
 22 41  1  0
 23 42  1  0
 25 43  1  0
M  END
>  <smiles>  (17) 
CCn1cnc2c(=Nc3cccc(Cl)c3)[nH]c(=NCc3ccco3)[nH]c21

>  <score_type>  (17) 
oracle

>  <origin>  (17) 
adg

>  <m_score__min__energy>  (17) 
-8.2899999999999991

>  <m_primary>  (17) 
energy

$$$$
17:0
     RDKit          3D

 48 49  0  0  0  0  0  0  0  0999 V2000
    1.9920   22.7510  -35.6150 C   0  0  0  0  0  0  0  0  0  0  0  0
    0.7740   22.4310  -34.9650 O   0  0  0  0  0  0  0  0  0  0  0  0
    0.7540   21.5220  -33.9310 N   0  0  0  0  0  0  0  0  0  0  0  0
   -0.3370   20.9330  -33.5450 C   0  0  0  0  0  0  0  0  0  0  0  0
   -1.1300   21.5440  -32.4230 C   0  0  0  0  0  0  0  0  0  0  0  0
   -2.1790   20.5670  -31.8880 C   0  0  0  0  0  0  0  0  0  0  0  0
   -2.9630   20.0010  -32.9930 N   0  0  0  0  0  0  0  0  0  0  0  0
   -4.3910   19.8850  -32.8790 C   0  0  0  0  0  0  0  0  0  0  0  0
   -4.9750   18.6110  -32.9250 C   0  0  0  0  0  0  0  0  0  0  0  0
   -6.3560   18.4590  -32.7990 C   0  0  0  0  0  0  0  0  0  0  0  0
   -7.1710   19.5800  -32.6210 C   0  0  0  0  0  0  0  0  0  0  0  0
   -8.9060   19.3840  -32.4590 Cl  0  0  0  0  0  0  0  0  0  0  0  0
   -6.6010   20.8550  -32.5670 C   0  0  0  0  0  0  0  0  0  0  0  0
   -5.2110   21.0250  -32.6920 C   0  0  0  0  0  0  0  0  0  0  0  0
   -4.6270   22.4150  -32.6140 C   0  0  0  0  0  0  0  0  0  0  0  0
   -5.6810   23.3890  -32.3210 N   0  0  0  0  0  0  0  0  0  0  0  0
   -5.2440   24.3990  -30.9710 S   0  0  0  0  0  0  0  0  0  0  0  0
   -3.7440   24.4280  -30.8730 O   0  0  0  0  0  0  0  0  0  0  0  0
   -5.7390   25.8070  -31.1650 O   0  0  0  0  0  0  0  0  0  0  0  0
   -5.9100   23.7340  -29.4410 C   0  0  0  0  0  0  0  0  0  0  0  0
   -7.0550   22.7640  -29.7410 C   0  0  0  0  0  0  0  0  0  0  0  0
   -4.8160   23.0400  -28.6260 C   0  0  0  0  0  0  0  0  0  0  0  0
   -2.3130   19.5660  -34.2400 C   0  0  0  0  0  0  0  0  0  0  0  0
   -0.7820   19.6200  -34.1440 C   0  0  0  0  0  0  0  0  0  0  0  0
    2.7672   22.9547  -34.8616 H   0  0  0  0  0  0  0  0  0  0  0  0
    2.3053   21.9047  -36.2440 H   0  0  0  0  0  0  0  0  0  0  0  0
    1.8489   23.6420  -36.2440 H   0  0  0  0  0  0  0  0  0  0  0  0
   -0.4448   21.8166  -31.6068 H   0  0  0  0  0  0  0  0  0  0  0  0
   -1.6488   22.4339  -32.8087 H   0  0  0  0  0  0  0  0  0  0  0  0
   -1.6737   19.7527  -31.3480 H   0  0  0  0  0  0  0  0  0  0  0  0
   -2.8564   21.1071  -31.2103 H   0  0  0  0  0  0  0  0  0  0  0  0
   -4.3389   17.7240  -33.0616 H   0  0  0  0  0  0  0  0  0  0  0  0
   -6.8040   17.4552  -32.8398 H   0  0  0  0  0  0  0  0  0  0  0  0
   -7.2465   21.7344  -32.4253 H   0  0  0  0  0  0  0  0  0  0  0  0
   -3.8701   22.4472  -31.8164 H   0  0  0  0  0  0  0  0  0  0  0  0
   -4.1643   22.6654  -33.5800 H   0  0  0  0  0  0  0  0  0  0  0  0
   -5.8050   24.0090  -33.1540 H   0  0  0  0  0  0  0  0  0  0  0  0
   -6.3025   24.5684  -28.8413 H   0  0  0  0  0  0  0  0  0  0  0  0
   -7.4845   22.4002  -28.7959 H   0  0  0  0  0  0  0  0  0  0  0  0
   -7.8323   23.2826  -30.3214 H   0  0  0  0  0  0  0  0  0  0  0  0
   -6.6712   21.9120  -30.3214 H   0  0  0  0  0  0  0  0  0  0  0  0
   -5.0202   23.1696  -27.5529 H   0  0  0  0  0  0  0  0  0  0  0  0
   -4.8019   21.9674  -28.8697 H   0  0  0  0  0  0  0  0  0  0  0  0
   -3.8396   23.4843  -28.8697 H   0  0  0  0  0  0  0  0  0  0  0  0
   -2.6183   18.5317  -34.4567 H   0  0  0  0  0  0  0  0  0  0  0  0
   -2.6259   20.2515  -35.0414 H   0  0  0  0  0  0  0  0  0  0  0  0
   -0.4295   18.7941  -33.5087 H   0  0  0  0  0  0  0  0  0  0  0  0
   -0.3581   19.5276  -35.1548 H   0  0  0  0  0  0  0  0  0  0  0  0
  1  2  1  0
  2  3  1  0
  3  4  2  3
  4  5  1  0
  5  6  1  0
  6  7  1  0
  7  8  1  0
  8  9  2  0
  9 10  1  0
 10 11  2  0
 11 12  1  0
 11 13  1  0
 13 14  2  0
 14 15  1  0
 15 16  1  0
 16 17  1  0
 17 18  2  0
 17 19  2  0
 17 20  1  0
 20 21  1  0
 20 22  1  0
  7 23  1  0
 23 24  1  0
 24  4  1  0
 14  8  1  0
  1 25  1  0
  1 26  1  0
  1 27  1  0
  5 28  1  0
  5 29  1  0
  6 30  1  0
  6 31  1  0
  9 32  1  0
 10 33  1  0
 13 34  1  0
 15 35  1  0
 15 36  1  0
 16 37  1  0
 20 38  1  0
 21 39  1  0
 21 40  1  0
 21 41  1  0
 22 42  1  0
 22 43  1  0
 22 44  1  0
 23 45  1  0
 23 46  1  0
 24 47  1  0
 24 48  1  0
M  END
>  <UniqueID>  (18) 
15

>  <SMILES>  (18) 
CON=C1CCN(c2ccc(Cl)cc2CNS(=O)(=O)C(C)C)CC1

>  <Energy>  (18) 
36.54328619634354

>  <Genealogy>  (18) 
CON=C1CCN(c2ccc(Cl)cc2CNS(=O)(=O)C(C)C)CC1 (3D coordinates assigned)
CON=C1CCN(c2ccc(Cl)cc2CNS(=O)(=O)C(C)C)CC1 (nonaromatic ring conformer: 36.54328619634354 kcal/mol)

>  <smiles>  (18) 
CON=C1CCN(c2ccc(Cl)cc2CNS(=O)(=O)C(C)C)CC1

>  <score_type>  (18) 
oracle

>  <origin>  (18) 
adg

>  <m_score__min__energy>  (18) 
-8.9900000000000002

>  <m_primary>  (18) 
energy

$$$$
18:0
     RDKit          3D

 45 48  0  0  0  0  0  0  0  0999 V2000
   -6.8960   23.0560  -33.6070 H   0  0  0  0  0  0  0  0  0  0  0  0
   -6.8690   22.5370  -32.7070 N   0  0  0  0  0  0  0  0  0  0  0  0
   -6.2490   22.9320  -31.6400 C   0  0  0  0  0  0  0  0  0  0  0  0
   -6.6700   24.0710  -31.0240 N   0  0  0  0  0  0  0  0  0  0  0  0
   -5.9900   24.6140  -29.9720 C   0  0  0  0  0  0  0  0  0  0  0  0
   -6.4800   25.8800  -29.3460 C   0  0  0  0  0  0  0  0  0  0  0  0
   -6.4434   25.7855  -28.2507 H   0  0  0  0  0  0  0  0  0  0  0  0
   -5.8410   26.7172  -29.6633 H   0  0  0  0  0  0  0  0  0  0  0  0
   -7.5162   26.0688  -29.6633 H   0  0  0  0  0  0  0  0  0  0  0  0
   -4.7980   24.0240  -29.5320 C   0  0  0  0  0  0  0  0  0  0  0  0
   -4.2051   24.4696  -28.7197 H   0  0  0  0  0  0  0  0  0  0  0  0
   -4.3930   22.8490  -30.1650 C   0  0  0  0  0  0  0  0  0  0  0  0
   -3.3030   22.1100  -29.8640 N   0  0  0  0  0  0  0  0  0  0  0  0
   -2.3300   22.3230  -28.7900 C   0  0  0  0  0  0  0  0  0  0  0  0
   -1.4535   22.8502  -29.1947 H   0  0  0  0  0  0  0  0  0  0  0  0
   -2.8003   22.9233  -27.9972 H   0  0  0  0  0  0  0  0  0  0  0  0
   -1.8900   21.0020  -28.2070 C   0  0  0  0  0  0  0  0  0  0  0  0
   -2.7500   20.3040  -27.3410 C   0  0  0  0  0  0  0  0  0  0  0  0
   -3.7394   20.7202  -27.1003 H   0  0  0  0  0  0  0  0  0  0  0  0
   -2.3550   19.0840  -26.7840 C   0  0  0  0  0  0  0  0  0  0  0  0
   -3.1890   18.4210  -25.9460 F   0  0  0  0  0  0  0  0  0  0  0  0
   -1.1020   18.5480  -27.0890 C   0  0  0  0  0  0  0  0  0  0  0  0
   -0.7906   17.5906  -26.6459 H   0  0  0  0  0  0  0  0  0  0  0  0
   -0.2440   19.2280  -27.9570 C   0  0  0  0  0  0  0  0  0  0  0  0
    0.7404   18.8015  -28.2001 H   0  0  0  0  0  0  0  0  0  0  0  0
   -0.6320   20.4490  -28.5180 C   0  0  0  0  0  0  0  0  0  0  0  0
    0.2170   21.0800  -29.3680 F   0  0  0  0  0  0  0  0  0  0  0  0
   -3.3670   21.0350  -30.6780 C   0  0  0  0  0  0  0  0  0  0  0  0
   -2.6410   20.2091  -30.7066 H   0  0  0  0  0  0  0  0  0  0  0  0
   -4.4970   21.1430  -31.4710 C   0  0  0  0  0  0  0  0  0  0  0  0
   -5.0320   20.0250  -32.2690 C   0  0  0  0  0  0  0  0  0  0  0  0
   -4.4220   19.6730  -33.4810 C   0  0  0  0  0  0  0  0  0  0  0  0
   -3.5652   20.2545  -33.8521 H   0  0  0  0  0  0  0  0  0  0  0  0
   -4.8980   18.5860  -34.2200 C   0  0  0  0  0  0  0  0  0  0  0  0
   -4.4280   18.3294  -35.1809 H   0  0  0  0  0  0  0  0  0  0  0  0
   -5.9720   17.8210  -33.7420 C   0  0  0  0  0  0  0  0  0  0  0  0
   -6.5090   16.6800  -34.5540 C   0  0  0  0  0  0  0  0  0  0  0  0
   -6.8794   15.8931  -33.8805 H   0  0  0  0  0  0  0  0  0  0  0  0
   -7.3334   17.0375  -35.1885 H   0  0  0  0  0  0  0  0  0  0  0  0
   -5.7081   16.2726  -35.1885 H   0  0  0  0  0  0  0  0  0  0  0  0
   -6.5790   18.1700  -32.5260 C   0  0  0  0  0  0  0  0  0  0  0  0
   -7.4335   17.5861  -32.1533 H   0  0  0  0  0  0  0  0  0  0  0  0
   -6.1030   19.2560  -31.7860 C   0  0  0  0  0  0  0  0  0  0  0  0
   -6.5689   19.5091  -30.8222 H   0  0  0  0  0  0  0  0  0  0  0  0
   -5.1290   22.3050  -31.1570 N   0  0  0  0  0  0  0  0  0  0  0  0
  1  2  1  0
  2  3  2  0
  3  4  1  0
  4  5  2  0
  5  6  1  0
  6  7  1  0
  6  8  1  0
  6  9  1  0
  5 10  1  0
 10 11  1  0
 10 12  2  0
 12 13  1  0
 13 14  1  0
 14 15  1  0
 14 16  1  0
 14 17  1  0
 17 18  2  0
 18 19  1  0
 18 20  1  0
 20 21  1  0
 20 22  2  0
 22 23  1  0
 22 24  1  0
 24 25  1  0
 24 26  2  0
 26 27  1  0
 13 28  1  0
 28 29  1  0
 28 30  2  0
 30 31  1  0
 31 32  2  0
 32 33  1  0
 32 34  1  0
 34 35  1  0
 34 36  2  0
 36 37  1  0
 37 38  1  0
 37 39  1  0
 37 40  1  0
 36 41  1  0
 41 42  1  0
 41 43  2  0
 43 44  1  0
 30 45  1  0
 45  3  1  0
 45 12  1  0
 26 17  1  0
 43 31  1  0
M  END
>  <UniqueID>  (19) 
16

>  <SMILES>  (19) 
[H]/N=c1/nc(C)cc2n(Cc3cc(F)ccc3F)cc(-c3ccc(C)cc3)n12

>  <Energy>  (19) 
96.12036433288884

>  <Genealogy>  (19) 
[H]/N=c1/nc(C)cc2n(Cc3cc(F)ccc3F)cc(-c3ccc(C)cc3)n12 (cis-trans isomerization)
[H]/N=c1/nc(C)cc2n(Cc3cc(F)ccc3F)cc(-c3ccc(C)cc3)n12 (3D coordinates assigned)
[H]/N=c1/nc(C)cc2n(Cc3cc(F)ccc3F)cc(-c3ccc(C)cc3)n12 (optimized conformer: 96.12036433288884 kcal/mol)

>  <smiles>  (19) 
Cc1ccc(-c2cn(Cc3cc(F)ccc3F)c3cc(C)nc(=N)n23)cc1

>  <score_type>  (19) 
oracle

>  <origin>  (19) 
adg

>  <m_score__min__energy>  (19) 
-7.8099999999999996

>  <m_primary>  (19) 
energy

$$$$
19:0
     RDKit          3D

 43 44  0  0  0  0  0  0  0  0999 V2000
   -3.3540   23.3420  -27.4650 C   0  0  0  0  0  0  0  0  0  0  0  0
   -4.1480   24.3750  -28.2610 C   0  0  0  0  0  0  0  0  0  0  0  0
   -4.0370   24.1470  -29.7850 C   0  0  2  0  0  0  0  0  0  0  0  0
   -3.5850   25.3070  -30.4390 O   0  0  0  0  0  0  0  0  0  0  0  0
   -5.3480   23.6770  -30.3900 C   0  0  0  0  0  0  0  0  0  0  0  0
   -5.7400   24.1240  -31.6620 C   0  0  0  0  0  0  0  0  0  0  0  0
   -6.9310   23.6700  -32.2370 C   0  0  0  0  0  0  0  0  0  0  0  0
   -7.7440   22.7530  -31.5630 C   0  0  0  0  0  0  0  0  0  0  0  0
   -8.9040   22.2950  -32.2130 O   0  0  0  0  0  0  0  0  0  0  0  0
   -9.7100   21.1840  -31.8070 C   0  0  0  0  0  0  0  0  0  0  0  0
   -9.4930   19.9690  -32.7200 C   0  0  0  0  0  0  0  0  0  0  0  0
   -8.0740   19.4680  -32.6790 C   0  0  0  0  0  0  0  0  0  0  0  0
   -7.0840   20.0780  -33.4660 C   0  0  0  0  0  0  0  0  0  0  0  0
   -5.7890   19.5490  -33.5080 C   0  0  0  0  0  0  0  0  0  0  0  0
   -5.4650   18.4070  -32.7520 C   0  0  0  0  0  0  0  0  0  0  0  0
   -4.1900   17.8230  -32.7800 O   0  0  0  0  0  0  0  0  0  0  0  0
   -3.4840   17.4920  -33.9710 C   0  0  0  0  0  0  0  0  0  0  0  0
   -6.4460   17.8200  -31.9460 C   0  0  0  0  0  0  0  0  0  0  0  0
   -7.7420   18.3400  -31.9110 C   0  0  0  0  0  0  0  0  0  0  0  0
   -7.3690   22.3260  -30.2750 C   0  0  0  0  0  0  0  0  0  0  0  0
   -6.1770   22.7740  -29.7010 C   0  0  0  0  0  0  0  0  0  0  0  0
   -3.4928   23.5226  -26.3888 H   0  0  0  0  0  0  0  0  0  0  0  0
   -3.7107   22.3322  -27.7163 H   0  0  0  0  0  0  0  0  0  0  0  0
   -2.2865   23.4269  -27.7163 H   0  0  0  0  0  0  0  0  0  0  0  0
   -5.2066   24.3101  -27.9691 H   0  0  0  0  0  0  0  0  0  0  0  0
   -3.7314   25.3680  -28.0364 H   0  0  0  0  0  0  0  0  0  0  0  0
   -3.2965   23.3472  -29.9333 H   0  0  0  0  0  0  0  0  0  0  0  0
   -3.4890   26.0280  -29.7630 H   0  0  0  0  0  0  0  0  0  0  0  0
   -5.1057   24.8363  -32.2100 H   0  0  0  0  0  0  0  0  0  0  0  0
   -7.2315   24.0377  -33.2292 H   0  0  0  0  0  0  0  0  0  0  0  0
   -9.4452   20.9081  -30.7756 H   0  0  0  0  0  0  0  0  0  0  0  0
  -10.7669   21.4815  -31.8733 H   0  0  0  0  0  0  0  0  0  0  0  0
  -10.1633   19.1592  -32.3960 H   0  0  0  0  0  0  0  0  0  0  0  0
   -9.7092   20.2816  -33.7523 H   0  0  0  0  0  0  0  0  0  0  0  0
   -7.3275   20.9762  -34.0525 H   0  0  0  0  0  0  0  0  0  0  0  0
   -5.0216   20.0275  -34.1342 H   0  0  0  0  0  0  0  0  0  0  0  0
   -2.5165   17.0384  -33.7097 H   0  0  0  0  0  0  0  0  0  0  0  0
   -4.0762   16.7777  -34.5618 H   0  0  0  0  0  0  0  0  0  0  0  0
   -3.3137   18.4041  -34.5618 H   0  0  0  0  0  0  0  0  0  0  0  0
   -6.1946   16.9410  -31.3342 H   0  0  0  0  0  0  0  0  0  0  0  0
   -8.5061   17.8638  -31.2790 H   0  0  0  0  0  0  0  0  0  0  0  0
   -8.0186   21.6354  -29.7173 H   0  0  0  0  0  0  0  0  0  0  0  0
   -5.8845   22.4177  -28.7023 H   0  0  0  0  0  0  0  0  0  0  0  0
  1  2  1  0
  2  3  1  0
  3  4  1  0
  3  5  1  0
  5  6  2  0
  6  7  1  0
  7  8  2  0
  8  9  1  0
  9 10  1  0
 10 11  1  0
 11 12  1  0
 12 13  2  0
 13 14  1  0
 14 15  2  0
 15 16  1  0
 16 17  1  0
 15 18  1  0
 18 19  2  0
  8 20  1  0
 20 21  2  0
 21  5  1  0
 19 12  1  0
  1 22  1  0
  1 23  1  0
  1 24  1  0
  2 25  1  0
  2 26  1  0
  3 27  1  1
  4 28  1  0
  6 29  1  0
  7 30  1  0
 10 31  1  0
 10 32  1  0
 11 33  1  0
 11 34  1  0
 13 35  1  0
 14 36  1  0
 17 37  1  0
 17 38  1  0
 17 39  1  0
 18 40  1  0
 19 41  1  0
 20 42  1  0
 21 43  1  0
M  END
>  <UniqueID>  (20) 
17

>  <SMILES>  (20) 
CC[C@H](O)c1ccc(OCCc2ccc(OC)cc2)cc1

>  <Energy>  (20) 
35.23141638851243

>  <Genealogy>  (20) 
CC[C@H](O)c1ccc(OCCc2ccc(OC)cc2)cc1 (chirality)
CC[C@H](O)c1ccc(OCCc2ccc(OC)cc2)cc1 (3D coordinates assigned)
CC[C@H](O)c1ccc(OCCc2ccc(OC)cc2)cc1 (optimized conformer: 35.23141638851243 kcal/mol)

>  <smiles>  (20) 
CCC(O)c1ccc(OCCc2ccc(OC)cc2)cc1

>  <score_type>  (20) 
oracle

>  <origin>  (20) 
adg

>  <m_score__min__energy>  (20) 
-8.4399999999999995

>  <m_primary>  (20) 
energy

$$$$
20:0
     RDKit          3D

 41 41  0  0  0  0  0  0  0  0999 V2000
   -5.7300   17.6910  -34.8330 C   0  0  0  0  0  0  0  0  0  0  0  0
   -6.1310   18.9790  -34.2590 N   0  0  0  0  0  0  0  0  0  0  0  0
   -6.5480   18.8500  -32.8500 C   0  0  2  0  0  0  0  0  0  0  0  0
   -7.0390   17.4320  -32.5170 C   0  0  0  0  0  0  0  0  0  0  0  0
   -7.6350   19.8520  -32.5620 C   0  0  0  0  0  0  0  0  0  0  0  0
   -8.4600   20.1440  -33.4700 O   0  0  0  0  0  0  0  0  0  0  0  0
   -7.7220   20.4890  -31.2770 N   0  0  0  0  0  0  0  0  0  0  0  0
   -8.7790   21.4410  -30.9440 C   0  0  0  0  0  0  0  0  0  0  0  0
   -8.5530   22.7690  -31.6710 C   0  0  0  0  0  0  0  0  0  0  0  0
   -7.2290   23.3680  -31.2780 C   0  0  0  0  0  0  0  0  0  0  0  0
   -7.1860   24.5080  -30.4640 C   0  0  0  0  0  0  0  0  0  0  0  0
   -5.9610   25.0850  -30.1240 C   0  0  0  0  0  0  0  0  0  0  0  0
   -4.7570   24.5360  -30.6030 C   0  0  0  0  0  0  0  0  0  0  0  0
   -3.5060   25.0880  -30.2820 O   0  0  0  0  0  0  0  0  0  0  0  0
   -2.5920   24.5230  -29.3480 C   0  0  0  0  0  0  0  0  0  0  0  0
   -4.7930   23.4030  -31.4310 C   0  0  0  0  0  0  0  0  0  0  0  0
   -3.5760   22.8810  -31.9000 O   0  0  0  0  0  0  0  0  0  0  0  0
   -3.4500   21.6860  -32.6640 C   0  0  0  0  0  0  0  0  0  0  0  0
   -6.0330   22.8260  -31.7690 C   0  0  0  0  0  0  0  0  0  0  0  0
   -5.5090   16.9812  -34.0223 H   0  0  0  0  0  0  0  0  0  0  0  0
   -6.5476   17.2957  -35.4537 H   0  0  0  0  0  0  0  0  0  0  0  0
   -4.8325   17.8297  -35.4537 H   0  0  0  0  0  0  0  0  0  0  0  0
   -6.9140   19.3660  -34.8360 H   0  0  0  0  0  0  0  0  0  0  0  0
   -5.6704   19.0465  -32.2166 H   0  0  0  0  0  0  0  0  0  0  0  0
   -7.0826   17.3061  -31.4251 H   0  0  0  0  0  0  0  0  0  0  0  0
   -8.0416   17.2815  -32.9438 H   0  0  0  0  0  0  0  0  0  0  0  0
   -6.3442   16.6937  -32.9438 H   0  0  0  0  0  0  0  0  0  0  0  0
   -6.9790   20.3080  -30.5650 H   0  0  0  0  0  0  0  0  0  0  0  0
   -9.7507   21.0235  -31.2465 H   0  0  0  0  0  0  0  0  0  0  0  0
   -8.7655   21.6225  -29.8592 H   0  0  0  0  0  0  0  0  0  0  0  0
   -8.5625   22.5932  -32.7568 H   0  0  0  0  0  0  0  0  0  0  0  0
   -9.3557   23.4676  -31.3923 H   0  0  0  0  0  0  0  0  0  0  0  0
   -8.1217   24.9502  -30.0913 H   0  0  0  0  0  0  0  0  0  0  0  0
   -5.9368   25.9746  -29.4774 H   0  0  0  0  0  0  0  0  0  0  0  0
   -2.9353   24.7352  -28.3247 H   0  0  0  0  0  0  0  0  0  0  0  0
   -2.5395   23.4347  -29.4988 H   0  0  0  0  0  0  0  0  0  0  0  0
   -1.5950   24.9626  -29.4988 H   0  0  0  0  0  0  0  0  0  0  0  0
   -3.3592   20.8249  -31.9856 H   0  0  0  0  0  0  0  0  0  0  0  0
   -4.3399   21.5608  -33.2983 H   0  0  0  0  0  0  0  0  0  0  0  0
   -2.5535   21.7491  -33.2983 H   0  0  0  0  0  0  0  0  0  0  0  0
   -6.0630   21.9426  -32.4238 H   0  0  0  0  0  0  0  0  0  0  0  0
  1  2  1  0
  2  3  1  0
  3  4  1  0
  3  5  1  0
  5  6  2  0
  5  7  1  0
  7  8  1  0
  8  9  1  0
  9 10  1  0
 10 11  2  0
 11 12  1  0
 12 13  2  0
 13 14  1  0
 14 15  1  0
 13 16  1  0
 16 17  1  0
 17 18  1  0
 16 19  2  0
 19 10  1  0
  1 20  1  0
  1 21  1  0
  1 22  1  0
  2 23  1  0
  3 24  1  1
  4 25  1  0
  4 26  1  0
  4 27  1  0
  7 28  1  0
  8 29  1  0
  8 30  1  0
  9 31  1  0
  9 32  1  0
 11 33  1  0
 12 34  1  0
 15 35  1  0
 15 36  1  0
 15 37  1  0
 18 38  1  0
 18 39  1  0
 18 40  1  0
 19 41  1  0
M  END
>  <UniqueID>  (21) 
18

>  <SMILES>  (21) 
CN[C@H](C)C(=O)NCCc1ccc(OC)c(OC)c1

>  <Energy>  (21) 
29.864169721768093

>  <Genealogy>  (21) 
CN[C@H](C)C(=O)NCCc1ccc(OC)c(OC)c1 (chirality)
CN[C@H](C)C(=O)NCCc1ccc(OC)c(OC)c1 (3D coordinates assigned)
CN[C@H](C)C(=O)NCCc1ccc(OC)c(OC)c1 (optimized conformer: 29.864169721768093 kcal/mol)

>  <smiles>  (21) 
CNC(C)C(=O)NCCc1ccc(OC)c(OC)c1

>  <score_type>  (21) 
oracle

>  <origin>  (21) 
adg

>  <m_score__min__energy>  (21) 
-7.3300000000000001

>  <m_primary>  (21) 
energy

$$$$
21:0
     RDKit          3D

 63 65  0  0  0  0  0  0  0  0999 V2000
   -2.4570   21.5660  -33.0730 C   0  0  0  0  0  0  0  0  0  0  0  0
   -1.9030   20.3760  -32.4120 N   0  0  0  0  0  0  0  0  0  0  0  0
   -0.8860   20.7260  -31.4100 C   0  0  0  0  0  0  0  0  0  0  0  0
   -1.5030   19.2940  -33.3420 C   0  0  0  0  0  0  0  0  0  0  0  0
   -2.6470   18.6330  -34.1610 C   0  0  0  0  0  0  0  0  0  0  0  0
   -4.0080   19.0930  -33.8090 N   0  0  0  0  0  0  0  0  0  0  0  0
   -5.0080   18.0380  -33.7660 C   0  0  0  0  0  0  0  0  0  0  0  0
   -4.7470   16.7970  -34.3880 C   0  0  0  0  0  0  0  0  0  0  0  0
   -5.6680   15.7520  -34.3200 C   0  0  0  0  0  0  0  0  0  0  0  0
   -6.8790   15.9300  -33.6590 C   0  0  0  0  0  0  0  0  0  0  0  0
   -7.1920   17.1650  -33.0930 C   0  0  0  0  0  0  0  0  0  0  0  0
   -6.2850   18.2380  -33.1640 C   0  0  0  0  0  0  0  0  0  0  0  0
   -6.7350   19.5580  -32.6600 C   0  0  0  0  0  0  0  0  0  0  0  0
   -8.0710   19.9600  -32.8000 C   0  0  0  0  0  0  0  0  0  0  0  0
   -8.4720   21.1750  -32.3480 N   0  0  0  0  0  0  0  0  0  0  0  0
   -7.6060   22.0450  -31.7630 C   0  0  0  0  0  0  0  0  0  0  0  0
   -6.2490   21.7100  -31.6230 C   0  0  0  0  0  0  0  0  0  0  0  0
   -5.2920   22.6540  -30.9930 C   0  0  0  0  0  0  0  0  0  0  0  0
   -5.5190   24.0400  -31.0430 C   0  0  0  0  0  0  0  0  0  0  0  0
   -4.6230   24.9290  -30.4420 C   0  0  0  0  0  0  0  0  0  0  0  0
   -3.4810   24.4460  -29.7750 C   0  0  0  0  0  0  0  0  0  0  0  0
   -2.5480   25.2920  -29.1520 O   0  0  0  0  0  0  0  0  0  0  0  0
   -1.9310   25.0570  -27.8860 C   0  0  0  0  0  0  0  0  0  0  0  0
   -0.5220   25.6630  -27.8460 C   0  0  0  0  0  0  0  0  0  0  0  0
    0.4980   24.6420  -28.1710 N   0  0  0  0  0  0  0  0  0  0  0  0
   -0.1330   23.3650  -28.5540 C   0  0  0  0  0  0  0  0  0  0  0  0
    1.3820   24.4210  -27.0150 C   0  0  0  0  0  0  0  0  0  0  0  0
   -3.2530   23.0670  -29.7310 C   0  0  0  0  0  0  0  0  0  0  0  0
   -4.1480   22.1770  -30.3310 C   0  0  0  0  0  0  0  0  0  0  0  0
   -5.8200   20.4570  -32.0910 C   0  0  0  0  0  0  0  0  0  0  0  0
   -2.7921   22.2858  -32.3116 H   0  0  0  0  0  0  0  0  0  0  0  0
   -1.6826   22.0305  -33.7011 H   0  0  0  0  0  0  0  0  0  0  0  0
   -3.3110   21.2724  -33.7011 H   0  0  0  0  0  0  0  0  0  0  0  0
   -1.3008   20.5833  -30.4012 H   0  0  0  0  0  0  0  0  0  0  0  0
   -0.0058   20.0791  -31.5395 H   0  0  0  0  0  0  0  0  0  0  0  0
   -0.5904   21.7776  -31.5395 H   0  0  0  0  0  0  0  0  0  0  0  0
   -0.7800   19.7156  -34.0558 H   0  0  0  0  0  0  0  0  0  0  0  0
   -1.0978   18.4940  -32.7049 H   0  0  0  0  0  0  0  0  0  0  0  0
   -2.4764   18.8520  -35.2254 H   0  0  0  0  0  0  0  0  0  0  0  0
   -2.6135   17.5585  -33.9280 H   0  0  0  0  0  0  0  0  0  0  0  0
   -3.9410   19.6070  -32.9090 H   0  0  0  0  0  0  0  0  0  0  0  0
   -4.3130   19.7880  -34.5290 H   0  0  0  0  0  0  0  0  0  0  0  0
   -3.8032   16.6526  -34.9342 H   0  0  0  0  0  0  0  0  0  0  0  0
   -5.4363   14.7849  -34.7901 H   0  0  0  0  0  0  0  0  0  0  0  0
   -7.5909   15.0949  -33.5828 H   0  0  0  0  0  0  0  0  0  0  0  0
   -8.1583   17.3019  -32.5856 H   0  0  0  0  0  0  0  0  0  0  0  0
   -8.7977   19.2871  -33.2786 H   0  0  0  0  0  0  0  0  0  0  0  0
   -7.9701   23.0165  -31.3974 H   0  0  0  0  0  0  0  0  0  0  0  0
   -6.4092   24.4286  -31.5594 H   0  0  0  0  0  0  0  0  0  0  0  0
   -4.8112   26.0117  -30.4905 H   0  0  0  0  0  0  0  0  0  0  0  0
   -2.5434   25.5156  -27.0956 H   0  0  0  0  0  0  0  0  0  0  0  0
   -1.8526   23.9712  -27.7280 H   0  0  0  0  0  0  0  0  0  0  0  0
   -0.4601   26.4808  -28.5791 H   0  0  0  0  0  0  0  0  0  0  0  0
   -0.3301   26.0429  -26.8317 H   0  0  0  0  0  0  0  0  0  0  0  0
   -0.4092   22.8061  -27.6477 H   0  0  0  0  0  0  0  0  0  0  0  0
   -1.0354   23.5661  -29.1500 H   0  0  0  0  0  0  0  0  0  0  0  0
    0.5750   22.7704  -29.1500 H   0  0  0  0  0  0  0  0  0  0  0  0
    0.8120   24.5635  -26.0850 H   0  0  0  0  0  0  0  0  0  0  0  0
    1.7795   23.3958  -27.0480 H   0  0  0  0  0  0  0  0  0  0  0  0
    2.2151   25.1385  -27.0480 H   0  0  0  0  0  0  0  0  0  0  0  0
   -2.3602   22.6789  -29.2190 H   0  0  0  0  0  0  0  0  0  0  0  0
   -3.9555   21.0950  -30.2847 H   0  0  0  0  0  0  0  0  0  0  0  0
   -4.7589   20.1784  -32.0109 H   0  0  0  0  0  0  0  0  0  0  0  0
  1  2  1  0
  2  3  1  0
  2  4  1  0
  4  5  1  0
  5  6  1  0
  6  7  1  0
  7  8  2  0
  8  9  1  0
  9 10  2  0
 10 11  1  0
 11 12  2  0
 12 13  1  0
 13 14  2  0
 14 15  1  0
 15 16  2  0
 16 17  1  0
 17 18  1  0
 18 19  2  0
 19 20  1  0
 20 21  2  0
 21 22  1  0
 22 23  1  0
 23 24  1  0
 24 25  1  0
 25 26  1  0
 25 27  1  0
 21 28  1  0
 28 29  2  0
 17 30  2  0
 12  7  1  0
 30 13  1  0
 29 18  1  0
  1 31  1  0
  1 32  1  0
  1 33  1  0
  3 34  1  0
  3 35  1  0
  3 36  1  0
  4 37  1  0
  4 38  1  0
  5 39  1  0
  5 40  1  0
  6 41  1  0
  6 42  1  0
  8 43  1  0
  9 44  1  0
 10 45  1  0
 11 46  1  0
 14 47  1  0
 16 48  1  0
 19 49  1  0
 20 50  1  0
 23 51  1  0
 23 52  1  0
 24 53  1  0
 24 54  1  0
 26 55  1  0
 26 56  1  0
 26 57  1  0
 27 58  1  0
 27 59  1  0
 27 60  1  0
 28 61  1  0
 29 62  1  0
 30 63  1  0
M  CHG  1   6   1
M  END
>  <UniqueID>  (22) 
19

>  <SMILES>  (22) 
CN(C)CC[NH2+]c1ccccc1-c1cncc(-c2ccc(OCCN(C)C)cc2)c1

>  <Energy>  (22) 
87.49895874885073

>  <Genealogy>  (22) 
CN(C)CC[NH2+]c1ccccc1-c1cncc(-c2ccc(OCCN(C)C)cc2)c1 (protonated)
CN(C)CC[NH2+]c1ccccc1-c1cncc(-c2ccc(OCCN(C)C)cc2)c1 (3D coordinates assigned)
CN(C)CC[NH2+]c1ccccc1-c1cncc(-c2ccc(OCCN(C)C)cc2)c1 (optimized conformer: 87.49895874885073 kcal/mol)

>  <smiles>  (22) 
CN(C)CCNc1ccccc1-c1cncc(-c2ccc(OCCN(C)C)cc2)c1

>  <score_type>  (22) 
oracle

>  <origin>  (22) 
adg

>  <m_score__min__energy>  (22) 
-7.8499999999999996

>  <m_primary>  (22) 
energy

$$$$
22:0
     RDKit          3D

 43 45  0  0  0  0  0  0  0  0999 V2000
   -3.1060   21.4300  -28.3080 C   0  0  0  0  0  0  0  0  0  0  0  0
   -2.5260   22.5310  -28.9770 O   0  0  0  0  0  0  0  0  0  0  0  0
   -2.8580   23.7350  -28.3140 C   0  0  0  0  0  0  0  0  0  0  0  0
   -2.5760   24.9130  -29.1940 C   0  0  0  0  0  0  0  0  0  0  0  0
   -1.5390   25.6020  -28.9970 O   0  0  0  0  0  0  0  0  0  0  0  0
   -3.5090   25.2670  -30.2220 N   0  0  0  0  0  0  0  0  0  0  0  0
   -4.7320   24.5840  -30.5320 C   0  0  0  0  0  0  0  0  0  0  0  0
   -5.9450   25.2020  -30.2100 C   0  0  0  0  0  0  0  0  0  0  0  0
   -7.1550   24.5590  -30.4680 C   0  0  0  0  0  0  0  0  0  0  0  0
   -7.1660   23.2850  -31.0390 C   0  0  0  0  0  0  0  0  0  0  0  0
   -5.9590   22.6350  -31.3590 C   0  0  0  0  0  0  0  0  0  0  0  0
   -5.9480   21.2640  -31.9350 C   0  0  0  0  0  0  0  0  0  0  0  0
   -7.0830   20.6970  -32.5270 C   0  0  0  0  0  0  0  0  0  0  0  0
   -7.0110   19.4090  -33.0500 C   0  0  0  0  0  0  0  0  0  0  0  0
   -5.8050   18.6970  -32.9840 C   0  0  0  0  0  0  0  0  0  0  0  0
   -5.7030   17.3580  -33.5210 N   0  0  0  0  0  0  0  0  0  0  0  0
   -4.4390   16.6820  -33.7700 C   0  0  0  0  0  0  0  0  0  0  0  0
   -4.7950   15.3820  -34.4790 C   0  0  0  0  0  0  0  0  0  0  0  0
   -6.2800   15.1590  -34.2150 C   0  0  0  0  0  0  0  0  0  0  0  0
   -6.8470   16.5270  -33.8660 C   0  0  0  0  0  0  0  0  0  0  0  0
   -4.7240   19.3010  -32.4050 N   0  0  0  0  0  0  0  0  0  0  0  0
   -4.8000   20.5350  -31.9040 N   0  0  0  0  0  0  0  0  0  0  0  0
   -4.7430   23.2900  -31.0860 C   0  0  0  0  0  0  0  0  0  0  0  0
   -3.0276   21.5787  -27.2209 H   0  0  0  0  0  0  0  0  0  0  0  0
   -4.1656   21.3456  -28.5911 H   0  0  0  0  0  0  0  0  0  0  0  0
   -2.5763   20.5084  -28.5911 H   0  0  0  0  0  0  0  0  0  0  0  0
   -3.9273   23.7234  -28.0563 H   0  0  0  0  0  0  0  0  0  0  0  0
   -2.2490   23.8185  -27.4018 H   0  0  0  0  0  0  0  0  0  0  0  0
   -5.9442   26.2014  -29.7504 H   0  0  0  0  0  0  0  0  0  0  0  0
   -8.1041   25.0571  -30.2208 H   0  0  0  0  0  0  0  0  0  0  0  0
   -8.1251   22.7854  -31.2404 H   0  0  0  0  0  0  0  0  0  0  0  0
   -8.0238   21.2646  -32.5784 H   0  0  0  0  0  0  0  0  0  0  0  0
   -7.8974   18.9513  -33.5135 H   0  0  0  0  0  0  0  0  0  0  0  0
   -3.7927   17.3019  -34.4087 H   0  0  0  0  0  0  0  0  0  0  0  0
   -3.8892   16.4956  -32.8357 H   0  0  0  0  0  0  0  0  0  0  0  0
   -4.6069   15.4707  -35.5592 H   0  0  0  0  0  0  0  0  0  0  0  0
   -4.1876   14.5412  -34.1127 H   0  0  0  0  0  0  0  0  0  0  0  0
   -6.7729   14.7573  -35.1126 H   0  0  0  0  0  0  0  0  0  0  0  0
   -6.4434   14.4334  -33.4046 H   0  0  0  0  0  0  0  0  0  0  0  0
   -7.3813   16.9510  -34.7290 H   0  0  0  0  0  0  0  0  0  0  0  0
   -7.5661   16.4658  -33.0359 H   0  0  0  0  0  0  0  0  0  0  0  0
   -3.8100   18.8030  -32.3370 H   0  0  0  0  0  0  0  0  0  0  0  0
   -3.7913   22.7851  -31.3080 H   0  0  0  0  0  0  0  0  0  0  0  0
  1  2  1  0
  2  3  1  0
  3  4  1  0
  4  5  2  0
  4  6  1  0
  6  7  1  0
  7  8  2  0
  8  9  1  0
  9 10  2  0
 10 11  1  0
 11 12  1  0
 12 13  2  0
 13 14  1  0
 14 15  2  0
 15 16  1  0
 16 17  1  0
 17 18  1  0
 18 19  1  0
 19 20  1  0
 15 21  1  0
 21 22  2  0
 11 23  2  0
 23  7  1  0
 22 12  1  0
 20 16  1  0
  1 24  1  0
  1 25  1  0
  1 26  1  0
  3 27  1  0
  3 28  1  0
  8 29  1  0
  9 30  1  0
 10 31  1  0
 13 32  1  0
 14 33  1  0
 17 34  1  0
 17 35  1  0
 18 36  1  0
 18 37  1  0
 19 38  1  0
 19 39  1  0
 20 40  1  0
 20 41  1  0
 21 42  1  0
 23 43  1  0
M  CHG  2   6  -1  21   1
M  END
>  <UniqueID>  (23) 
20

>  <SMILES>  (23) 
COCC(=O)[N-]c1cccc(-c2ccc(N3CCCC3)[nH+]n2)c1

>  <Energy>  (23) 
53.251500254063814

>  <Genealogy>  (23) 
COCC(=O)[N-]c1cccc(-c2ccc(N3CCCC3)[nH+]n2)c1 (protonated)
COCC(=O)[N-]c1cccc(-c2ccc(N3CCCC3)[nH+]n2)c1 (3D coordinates assigned)
COCC(=O)[N-]c1cccc(-c2ccc(N3CCCC3)[nH+]n2)c1 (nonaromatic ring conformer: 53.251500254063814 kcal/mol)

>  <smiles>  (23) 
COCC(=O)Nc1cccc(-c2ccc(N3CCCC3)nn2)c1

>  <score_type>  (23) 
oracle

>  <origin>  (23) 
adg

>  <m_score__min__energy>  (23) 
-8.8399999999999999

>  <m_primary>  (23) 
energy

$$$$
23:0
     RDKit          3D

 36 38  0  0  1  0  0  0  0  0999 V2000
   -1.9220   25.2810  -27.9940 C   0  0  0  0  0  0  0  0  0  0  0  0
   -2.4750   25.2890  -29.2880 O   0  0  0  0  0  0  0  0  0  0  0  0
   -2.7680   24.1160  -29.9370 C   0  0  0  0  0  0  0  0  0  0  0  0
   -1.8270   23.1120  -30.0160 C   0  0  0  0  0  0  0  0  0  0  0  0
   -2.1060   21.9280  -30.6650 C   0  0  0  0  0  0  0  0  0  0  0  0
   -3.3460   21.6980  -31.2660 C   0  0  0  0  0  0  0  0  0  0  0  0
   -3.5230   20.4980  -31.8820 O   0  0  0  0  0  0  0  0  0  0  0  0
   -4.6300   19.9730  -32.4660 C   0  0  0  0  0  0  0  0  0  0  0  0
   -5.8180   20.0040  -31.7300 C   0  0  0  0  0  0  0  0  0  0  0  0
   -6.9960   19.4950  -32.2330 C   0  0  0  0  0  0  0  0  0  0  0  0
   -8.1110   19.5060  -31.5850 N   0  0  0  0  0  0  0  0  0  0  0  0
   -9.2750   19.9630  -32.2670 C   0  0  0  0  0  0  0  0  0  0  0  0
   -9.8550   19.2930  -33.1610 O   0  0  0  0  0  0  0  0  0  0  0  0
   -9.7980   21.3000  -31.8730 C   0  0  0  0  0  0  0  0  0  0  0  0
   -8.8940   22.5120  -31.9700 C   0  0  0  0  0  0  0  0  0  0  0  0
   -9.1260   21.8620  -30.6470 C   0  0  0  0  0  0  0  0  0  0  0  0
   -7.0080   18.9570  -33.4580 N   0  0  0  0  0  0  0  0  0  0  0  0
   -5.8630   18.9290  -34.1660 C   0  0  0  0  0  0  0  0  0  0  0  0
   -4.7140   19.4220  -33.6810 N   0  0  0  0  0  0  0  0  0  0  0  0
   -4.2570   22.7130  -31.1710 C   0  0  0  0  0  0  0  0  0  0  0  0
   -4.0000   23.9150  -30.5220 C   0  0  0  0  0  0  0  0  0  0  0  0
   -5.3130   25.2910  -30.4250 Br  0  0  0  0  0  0  0  0  0  0  0  0
   -2.7315   25.2927  -27.2493 H   0  0  0  0  0  0  0  0  0  0  0  0
   -1.3141   24.3740  -27.8606 H   0  0  0  0  0  0  0  0  0  0  0  0
   -1.2881   26.1701  -27.8606 H   0  0  0  0  0  0  0  0  0  0  0  0
   -0.8391   23.2575  -29.5546 H   0  0  0  0  0  0  0  0  0  0  0  0
   -1.3339   21.1459  -30.7107 H   0  0  0  0  0  0  0  0  0  0  0  0
   -5.8126   20.4463  -30.7228 H   0  0  0  0  0  0  0  0  0  0  0  0
  -10.8194   21.0986  -32.2283 H   0  0  0  0  0  0  0  0  0  0  0  0
   -7.9124   22.4278  -32.4592 H   0  0  0  0  0  0  0  0  0  0  0  0
   -9.0032   23.5333  -32.3638 H   0  0  0  0  0  0  0  0  0  0  0  0
   -8.3134   21.3014  -30.1618 H   0  0  0  0  0  0  0  0  0  0  0  0
   -9.4758   22.2109  -29.6642 H   0  0  0  0  0  0  0  0  0  0  0  0
   -7.8540   18.5500  -33.9180 H   0  0  0  0  0  0  0  0  0  0  0  0
   -5.8703   18.4880  -35.1737 H   0  0  0  0  0  0  0  0  0  0  0  0
   -5.2454   22.5709  -31.6325 H   0  0  0  0  0  0  0  0  0  0  0  0
  1  2  1  0
  2  3  1  0
  3  4  2  0
  4  5  1  0
  5  6  2  0
  6  7  1  0
  7  8  1  0
  8  9  2  0
  9 10  1  0
 10 11  2  0
 11 12  1  0
 12 13  2  0
 12 14  1  0
 14 15  1  0
 15 16  1  0
 10 17  1  0
 17 18  1  0
 18 19  2  0
  6 20  1  0
 20 21  2  0
 21 22  1  0
 21  3  1  0
 19  8  1  0
 16 14  1  0
  1 23  1  0
  1 24  1  0
  1 25  1  0
  4 26  1  0
  5 27  1  0
  9 28  1  0
 14 29  1  0
 15 30  1  0
 15 31  1  0
 16 32  1  0
 16 33  1  0
 17 34  1  0
 18 35  1  0
 20 36  1  0
M  END
>  <smiles>  (24) 
COc1ccc(Oc2cc(=NC(=O)C3CC3)[nH]cn2)cc1Br

>  <score_type>  (24) 
oracle

>  <origin>  (24) 
adg

>  <m_score__min__energy>  (24) 
-7.8499999999999996

>  <m_primary>  (24) 
energy

$$$$
24:0
     RDKit          3D

 42 45  0  0  0  0  0  0  0  0999 V2000
   -3.6150   23.3800  -28.5460 C   0  0  0  0  0  0  0  0  0  0  0  0
   -3.6890   24.5510  -29.3020 C   0  0  0  0  0  0  0  0  0  0  0  0
   -3.9900   24.4880  -30.6250 N   0  0  0  0  0  0  0  0  0  0  0  0
   -4.2030   23.3010  -31.2550 C   0  0  0  0  0  0  0  0  0  0  0  0
   -4.0920   22.0910  -30.5470 C   0  0  0  0  0  0  0  0  0  0  0  0
   -4.3410   20.7580  -31.2100 C   0  0  0  0  0  0  0  0  0  0  0  0
   -4.2320   20.8380  -33.0380 S   0  0  0  0  0  0  0  0  0  0  0  0
   -5.8850   20.1410  -33.4860 C   0  0  0  0  0  0  0  0  0  0  0  0
   -7.0190   20.8000  -32.6770 C   0  0  0  0  0  0  0  0  0  0  0  0
   -6.9750   22.2130  -32.5810 C   0  0  0  0  0  0  0  0  0  0  0  0
   -7.9710   22.9350  -31.9280 C   0  0  0  0  0  0  0  0  0  0  0  0
   -9.0610   22.2750  -31.3770 C   0  0  0  0  0  0  0  0  0  0  0  0
   -9.1630   20.8930  -31.4910 C   0  0  0  0  0  0  0  0  0  0  0  0
   -8.1640   20.1410  -32.1410 C   0  0  0  0  0  0  0  0  0  0  0  0
   -8.3700   18.6580  -32.2320 C   0  0  0  0  0  0  0  0  0  0  0  0
   -7.1550   17.9240  -31.6820 C   0  0  0  0  0  0  0  0  0  0  0  0
   -6.2080   17.6220  -32.8010 C   0  0  0  0  0  0  0  0  0  0  0  0
   -5.8480   16.2780  -33.0190 C   0  0  0  0  0  0  0  0  0  0  0  0
   -5.0520   15.9180  -34.1040 C   0  0  0  0  0  0  0  0  0  0  0  0
   -4.6130   16.8900  -34.9940 C   0  0  0  0  0  0  0  0  0  0  0  0
   -4.9510   18.2270  -34.7890 C   0  0  0  0  0  0  0  0  0  0  0  0
   -5.7410   18.6290  -33.6890 C   0  0  0  0  0  0  0  0  0  0  0  0
   -3.8330   22.1500  -29.1690 C   0  0  0  0  0  0  0  0  0  0  0  0
   -3.3873   23.4259  -27.4708 H   0  0  0  0  0  0  0  0  0  0  0  0
   -3.5035   25.5252  -28.8262 H   0  0  0  0  0  0  0  0  0  0  0  0
   -4.4634   23.2877  -32.3237 H   0  0  0  0  0  0  0  0  0  0  0  0
   -3.5924   20.0394  -30.8450 H   0  0  0  0  0  0  0  0  0  0  0  0
   -5.3651   20.4486  -30.9540 H   0  0  0  0  0  0  0  0  0  0  0  0
   -6.2773   20.4244  -34.4738 H   0  0  0  0  0  0  0  0  0  0  0  0
   -6.1315   22.7542  -33.0344 H   0  0  0  0  0  0  0  0  0  0  0  0
   -7.8939   24.0294  -31.8487 H   0  0  0  0  0  0  0  0  0  0  0  0
   -9.8421   22.8440  -30.8515 H   0  0  0  0  0  0  0  0  0  0  0  0
  -10.0377   20.3783  -31.0669 H   0  0  0  0  0  0  0  0  0  0  0  0
   -9.2589   18.3781  -31.6477 H   0  0  0  0  0  0  0  0  0  0  0  0
   -8.5109   18.3791  -33.2867 H   0  0  0  0  0  0  0  0  0  0  0  0
   -6.6514   18.5558  -30.9355 H   0  0  0  0  0  0  0  0  0  0  0  0
   -7.4764   16.9844  -31.2090 H   0  0  0  0  0  0  0  0  0  0  0  0
   -6.2001   15.5022  -32.3232 H   0  0  0  0  0  0  0  0  0  0  0  0
   -4.7714   14.8653  -34.2558 H   0  0  0  0  0  0  0  0  0  0  0  0
   -3.9986   16.6048  -35.8607 H   0  0  0  0  0  0  0  0  0  0  0  0
   -4.5943   18.9865  -35.5003 H   0  0  0  0  0  0  0  0  0  0  0  0
   -3.8016   21.2232  -28.5774 H   0  0  0  0  0  0  0  0  0  0  0  0
  1  2  2  0
  2  3  1  0
  3  4  2  0
  4  5  1  0
  5  6  1  0
  6  7  1  0
  7  8  1  0
  8  9  1  0
  9 10  2  0
 10 11  1  0
 11 12  2  0
 12 13  1  0
 13 14  2  0
 14 15  1  0
 15 16  1  0
 16 17  1  0
 17 18  2  0
 18 19  1  0
 19 20  2  0
 20 21  1  0
 21 22  2  0
  5 23  2  0
 23  1  1  0
 22  8  1  0
 14  9  1  0
 22 17  1  0
  1 24  1  0
  2 25  1  0
  4 26  1  0
  6 27  1  0
  6 28  1  0
  8 29  1  0
 10 30  1  0
 11 31  1  0
 12 32  1  0
 13 33  1  0
 15 34  1  0
 15 35  1  0
 16 36  1  0
 16 37  1  0
 18 38  1  0
 19 39  1  0
 20 40  1  0
 21 41  1  0
 23 42  1  0
M  END
>  <UniqueID>  (25) 
21

>  <SMILES>  (25) 
c1cncc(CSC2c3ccccc3CCc3ccccc32)c1

>  <Energy>  (25) 
65.29389612366793

>  <Genealogy>  (25) 
c1cncc(CSC2c3ccccc3CCc3ccccc32)c1 (3D coordinates assigned)
c1cncc(CSC2c3ccccc3CCc3ccccc32)c1 (nonaromatic ring conformer: 65.29389612366793 kcal/mol)

>  <smiles>  (25) 
c1cncc(CSC2c3ccccc3CCc3ccccc32)c1

>  <score_type>  (25) 
oracle

>  <origin>  (25) 
adg

>  <m_score__min__energy>  (25) 
-8.5700000000000003

>  <m_primary>  (25) 
energy

$$$$
25:0
     RDKit          3D

 51 53  0  0  0  0  0  0  0  0999 V2000
   -3.8690   25.0690  -30.6290 O   0  0  0  0  0  0  0  0  0  0  0  0
   -4.5250   24.5820  -29.6690 C   0  0  0  0  0  0  0  0  0  0  0  0
   -3.8030   24.1490  -28.4240 C   0  0  0  0  0  0  0  0  0  0  0  0
   -4.0120   22.6570  -28.1110 C   0  0  0  0  0  0  0  0  0  0  0  0
   -3.3920   21.6890  -29.1370 C   0  0  0  0  0  0  0  0  0  0  0  0
   -2.0600   22.1920  -29.7110 C   0  0  0  0  0  0  0  0  0  0  0  0
   -2.0210   21.9880  -31.1750 N   0  0  0  0  0  0  0  0  0  0  0  0
   -1.0900   20.9020  -31.5440 C   0  0  0  0  0  0  0  0  0  0  0  0
   -0.9490   20.8120  -33.0760 C   0  0  0  0  0  0  0  0  0  0  0  0
   -2.0340   21.5210  -33.7700 N   0  0  0  0  0  0  0  0  0  0  0  0
   -3.3320   21.2140  -33.1630 C   0  0  0  0  0  0  0  0  0  0  0  0
   -3.3730   21.6900  -31.6970 C   0  0  0  0  0  0  0  0  0  0  0  0
   -5.9510   24.4440  -29.7620 N   0  0  0  0  0  0  0  0  0  0  0  0
   -6.6710   24.5430  -31.0290 C   0  0  0  0  0  0  0  0  0  0  0  0
   -7.1460   23.1880  -31.4440 C   0  0  0  0  0  0  0  0  0  0  0  0
   -8.4480   22.7410  -31.4330 C   0  0  0  0  0  0  0  0  0  0  0  0
   -8.4350   21.4920  -31.8240 O   0  0  0  0  0  0  0  0  0  0  0  0
   -7.1810   21.1690  -32.0620 C   0  0  0  0  0  0  0  0  0  0  0  0
   -6.7520   19.8270  -32.5010 C   0  0  0  0  0  0  0  0  0  0  0  0
   -6.8920   18.7150  -31.6510 C   0  0  0  0  0  0  0  0  0  0  0  0
   -6.5100   17.4420  -32.0850 C   0  0  0  0  0  0  0  0  0  0  0  0
   -5.9810   17.2670  -33.3660 C   0  0  0  0  0  0  0  0  0  0  0  0
   -5.4770   15.5250  -33.9620 Br  0  0  0  0  0  0  0  0  0  0  0  0
   -5.8290   18.3680  -34.2150 C   0  0  0  0  0  0  0  0  0  0  0  0
   -6.2150   19.6420  -33.7860 C   0  0  0  0  0  0  0  0  0  0  0  0
   -6.3300   22.1930  -31.8410 N   0  0  0  0  0  0  0  0  0  0  0  0
   -2.7270   24.3341  -28.5577 H   0  0  0  0  0  0  0  0  0  0  0  0
   -4.2112   24.7277  -27.5823 H   0  0  0  0  0  0  0  0  0  0  0  0
   -3.5640   22.4474  -27.1285 H   0  0  0  0  0  0  0  0  0  0  0  0
   -5.0979   22.4838  -28.1385 H   0  0  0  0  0  0  0  0  0  0  0  0
   -3.2176   20.7211  -28.6442 H   0  0  0  0  0  0  0  0  0  0  0  0
   -4.0988   21.6029  -29.9754 H   0  0  0  0  0  0  0  0  0  0  0  0
   -1.9523   23.2644  -29.4913 H   0  0  0  0  0  0  0  0  0  0  0  0
   -1.2363   21.6276  -29.2496 H   0  0  0  0  0  0  0  0  0  0  0  0
   -0.1038   21.1039  -31.1006 H   0  0  0  0  0  0  0  0  0  0  0  0
   -1.4867   19.9483  -31.1657 H   0  0  0  0  0  0  0  0  0  0  0  0
    0.0125   21.2574  -33.3712 H   0  0  0  0  0  0  0  0  0  0  0  0
   -0.9991   19.7507  -33.3607 H   0  0  0  0  0  0  0  0  0  0  0  0
   -2.0520   21.1960  -34.7650 H   0  0  0  0  0  0  0  0  0  0  0  0
   -4.1255   21.7225  -33.7303 H   0  0  0  0  0  0  0  0  0  0  0  0
   -3.4851   20.1249  -33.1861 H   0  0  0  0  0  0  0  0  0  0  0  0
   -3.9864   22.6011  -31.6361 H   0  0  0  0  0  0  0  0  0  0  0  0
   -3.8025   20.8809  -31.0880 H   0  0  0  0  0  0  0  0  0  0  0  0
   -6.4810   24.0960  -28.9300 H   0  0  0  0  0  0  0  0  0  0  0  0
   -7.5354   25.2124  -30.9073 H   0  0  0  0  0  0  0  0  0  0  0  0
   -5.9983   24.9460  -31.8004 H   0  0  0  0  0  0  0  0  0  0  0  0
   -9.3353   23.3255  -31.1482 H   0  0  0  0  0  0  0  0  0  0  0  0
   -7.3041   18.8476  -30.6398 H   0  0  0  0  0  0  0  0  0  0  0  0
   -6.6263   16.5764  -31.4163 H   0  0  0  0  0  0  0  0  0  0  0  0
   -5.4055   18.2318  -35.2210 H   0  0  0  0  0  0  0  0  0  0  0  0
   -6.0974   20.5043  -34.4587 H   0  0  0  0  0  0  0  0  0  0  0  0
  1  2  2  0
  2  3  1  0
  3  4  1  0
  4  5  1  0
  5  6  1  0
  6  7  1  0
  7  8  1  0
  8  9  1  0
  9 10  1  0
 10 11  1  0
 11 12  1  0
  2 13  1  0
 13 14  1  0
 14 15  1  0
 15 16  2  0
 16 17  1  0
 17 18  1  0
 18 19  1  0
 19 20  2  0
 20 21  1  0
 21 22  2  0
 22 23  1  0
 22 24  1  0
 24 25  2  0
 18 26  2  0
 12  7  1  0
 26 15  1  0
 25 19  1  0
  3 27  1  0
  3 28  1  0
  4 29  1  0
  4 30  1  0
  5 31  1  0
  5 32  1  0
  6 33  1  0
  6 34  1  0
  8 35  1  0
  8 36  1  0
  9 37  1  0
  9 38  1  0
 10 39  1  0
 11 40  1  0
 11 41  1  0
 12 42  1  0
 12 43  1  0
 13 44  1  0
 14 45  1  0
 14 46  1  0
 16 47  1  0
 20 48  1  0
 21 49  1  0
 24 50  1  0
 25 51  1  0
M  END
>  <UniqueID>  (26) 
22

>  <SMILES>  (26) 
O=C(CCCCN1CCNCC1)NCc1coc(-c2ccc(Br)cc2)n1

>  <Energy>  (26) 
73.06558996347658

>  <Genealogy>  (26) 
O=C(CCCCN1CCNCC1)NCc1coc(-c2ccc(Br)cc2)n1 (3D coordinates assigned)
O=C(CCCCN1CCNCC1)NCc1coc(-c2ccc(Br)cc2)n1 (nonaromatic ring conformer: 73.06558996347658 kcal/mol)

>  <smiles>  (26) 
O=C(CCCCN1CCNCC1)NCc1coc(-c2ccc(Br)cc2)n1

>  <score_type>  (26) 
oracle

>  <origin>  (26) 
adg

>  <m_score__min__energy>  (26) 
-9

>  <m_primary>  (26) 
energy

$$$$
26:0
     RDKit          3D

 40 42  0  0  0  0  0  0  0  0999 V2000
   -0.4010   27.1420  -23.8990 C   0  0  0  0  0  0  0  0  0  0  0  0
   -0.8530   25.6840  -24.0410 C   0  0  0  0  0  0  0  0  0  0  0  0
    0.2730   24.7440  -24.2860 N   0  0  0  0  0  0  0  0  0  0  0  0
    1.3150   25.3720  -25.1470 C   0  0  0  0  0  0  0  0  0  0  0  0
    1.2050   25.0030  -26.6440 C   0  0  0  0  0  0  0  0  0  0  0  0
   -0.1680   24.6250  -26.9980 N   0  0  0  0  0  0  0  0  0  0  0  0
   -0.8540   25.2820  -28.0860 C   0  0  0  0  0  0  0  0  0  0  0  0
   -0.4980   26.4390  -28.4370 O   0  0  0  0  0  0  0  0  0  0  0  0
   -1.9710   24.6400  -28.8110 C   0  0  0  0  0  0  0  0  0  0  0  0
   -2.1090   23.2670  -29.0160 C   0  0  0  0  0  0  0  0  0  0  0  0
   -3.2850   23.1480  -29.7160 C   0  0  0  0  0  0  0  0  0  0  0  0
   -3.9570   22.0370  -30.2130 C   0  0  0  0  0  0  0  0  0  0  0  0
   -5.1300   22.2420  -30.8810 N   0  0  0  0  0  0  0  0  0  0  0  0
   -5.6530   23.4960  -31.0720 C   0  0  0  0  0  0  0  0  0  0  0  0
   -6.9420   23.6590  -31.8120 C   0  0  0  0  0  0  0  0  0  0  0  0
   -4.9760   24.6290  -30.5710 C   0  0  0  0  0  0  0  0  0  0  0  0
   -3.7830   24.4060  -29.8920 C   0  0  0  0  0  0  0  0  0  0  0  0
   -2.9900   25.2920  -29.3440 O   0  0  0  0  0  0  0  0  0  0  0  0
   -0.8250   23.5770  -26.2050 C   0  0  0  0  0  0  0  0  0  0  0  0
   -0.1550   23.4320  -24.8290 C   0  0  0  0  0  0  0  0  0  0  0  0
   -0.3213   27.3990  -22.8324 H   0  0  0  0  0  0  0  0  0  0  0  0
    0.5792   27.2706  -24.3814 H   0  0  0  0  0  0  0  0  0  0  0  0
   -1.1365   27.8025  -24.3814 H   0  0  0  0  0  0  0  0  0  0  0  0
   -1.3636   25.3842  -23.1140 H   0  0  0  0  0  0  0  0  0  0  0  0
   -1.5194   25.6314  -24.9146 H   0  0  0  0  0  0  0  0  0  0  0  0
    0.7210   24.5560  -23.3550 H   0  0  0  0  0  0  0  0  0  0  0  0
    1.2276   26.4645  -25.0534 H   0  0  0  0  0  0  0  0  0  0  0  0
    2.2861   24.9913  -24.7976 H   0  0  0  0  0  0  0  0  0  0  0  0
    1.5061   25.8700  -27.2503 H   0  0  0  0  0  0  0  0  0  0  0  0
    1.8642   24.1446  -26.8404 H   0  0  0  0  0  0  0  0  0  0  0  0
   -1.4313   22.4636  -28.6914 H   0  0  0  0  0  0  0  0  0  0  0  0
   -3.5555   21.0226  -30.0722 H   0  0  0  0  0  0  0  0  0  0  0  0
   -7.7673   23.7634  -31.0923 H   0  0  0  0  0  0  0  0  0  0  0  0
   -6.8908   24.5578  -32.4441 H   0  0  0  0  0  0  0  0  0  0  0  0
   -7.1162   22.7757  -32.4441 H   0  0  0  0  0  0  0  0  0  0  0  0
   -5.3749   25.6444  -30.7116 H   0  0  0  0  0  0  0  0  0  0  0  0
   -1.8835   23.8414  -26.0645 H   0  0  0  0  0  0  0  0  0  0  0  0
   -0.7368   22.6212  -26.7423 H   0  0  0  0  0  0  0  0  0  0  0  0
   -0.8706   22.9735  -24.1307 H   0  0  0  0  0  0  0  0  0  0  0  0
    0.7389   22.8021  -24.9477 H   0  0  0  0  0  0  0  0  0  0  0  0
  1  2  1  0
  2  3  1  0
  3  4  1  0
  4  5  1  0
  5  6  1  0
  6  7  1  0
  7  8  2  0
  7  9  1  0
  9 10  2  0
 10 11  1  0
 11 12  2  0
 12 13  1  0
 13 14  2  0
 14 15  1  0
 14 16  1  0
 16 17  2  0
 17 18  1  0
  6 19  1  0
 19 20  1  0
 20  3  1  0
 18  9  1  0
 17 11  1  0
  1 21  1  0
  1 22  1  0
  1 23  1  0
  2 24  1  0
  2 25  1  0
  3 26  1  0
  4 27  1  0
  4 28  1  0
  5 29  1  0
  5 30  1  0
 10 31  1  0
 12 32  1  0
 15 33  1  0
 15 34  1  0
 15 35  1  0
 16 36  1  0
 19 37  1  0
 19 38  1  0
 20 39  1  0
 20 40  1  0
M  CHG  1   3   1
M  END
>  <UniqueID>  (27) 
23

>  <SMILES>  (27) 
CC[NH+]1CCN(C(=O)c2cc3cnc(C)cc3o2)CC1

>  <Energy>  (27) 
84.73448863580518

>  <Genealogy>  (27) 
CC[NH+]1CCN(C(=O)c2cc3cnc(C)cc3o2)CC1 (protonated)
CC[NH+]1CCN(C(=O)c2cc3cnc(C)cc3o2)CC1 (3D coordinates assigned)
CC[NH+]1CCN(C(=O)c2cc3cnc(C)cc3o2)CC1 (nonaromatic ring conformer: 84.73448863580518 kcal/mol)

>  <smiles>  (27) 
CCN1CCN(C(=O)c2cc3cnc(C)cc3o2)CC1

>  <score_type>  (27) 
oracle

>  <origin>  (27) 
adg

>  <m_score__min__energy>  (27) 
-7.0700000000000003

>  <m_primary>  (27) 
energy

$$$$
27:0
     RDKit          3D

 55 57  0  0  0  0  0  0  0  0999 V2000
   -4.4880   20.3430  -32.7930 H   0  0  0  0  0  0  0  0  0  0  0  0
   -5.0200   20.9450  -32.1830 O   0  0  0  0  0  0  0  0  0  0  0  0
   -4.4830   21.9710  -31.3980 C   0  0  0  0  0  0  0  0  0  0  0  0
   -5.2900   23.0640  -30.9950 C   0  0  0  0  0  0  0  0  0  0  0  0
   -6.6880   23.0840  -31.2180 C   0  0  0  0  0  0  0  0  0  0  0  0
   -7.1736   22.2203  -31.6958 H   0  0  0  0  0  0  0  0  0  0  0  0
   -7.4580   24.1840  -30.8400 C   0  0  0  0  0  0  0  0  0  0  0  0
   -8.5418   24.1847  -31.0278 H   0  0  0  0  0  0  0  0  0  0  0  0
   -6.8610   25.2790  -30.2270 C   0  0  0  0  0  0  0  0  0  0  0  0
   -7.4703   26.1492  -29.9415 H   0  0  0  0  0  0  0  0  0  0  0  0
   -5.4910   25.2750  -29.9740 C   0  0  0  0  0  0  0  0  0  0  0  0
   -5.0257   26.1424  -29.4830 H   0  0  0  0  0  0  0  0  0  0  0  0
   -4.6940   24.1700  -30.3410 C   0  0  0  0  0  0  0  0  0  0  0  0
   -3.3200   24.1700  -30.0630 C   0  0  0  0  0  0  0  0  0  0  0  0
   -2.7630   25.2980  -29.4640 O   0  0  0  0  0  0  0  0  0  0  0  0
   -2.5150   23.0500  -30.3830 C   0  0  0  0  0  0  0  0  0  0  0  0
   -1.1260   23.0260  -30.0750 C   0  0  0  0  0  0  0  0  0  0  0  0
   -0.4740   24.1060  -29.3920 N   0  0  0  0  0  0  0  0  0  0  0  0
   -0.4490   24.2480  -28.0970 C   0  0  0  0  0  0  0  0  0  0  0  0
    0.3247   24.8925  -27.6544 H   0  0  0  0  0  0  0  0  0  0  0  0
   -1.4310   23.5700  -27.1790 C   0  0  0  0  0  0  0  0  0  0  0  0
   -0.8858   22.9007  -26.4973 H   0  0  0  0  0  0  0  0  0  0  0  0
   -2.1454   22.9950  -27.7865 H   0  0  0  0  0  0  0  0  0  0  0  0
   -2.1760   24.5680  -26.3860 N   0  0  0  0  0  0  0  0  0  0  0  0
   -1.6130   25.9160  -26.5760 C   0  0  0  0  0  0  0  0  0  0  0  0
   -1.4213   26.3749  -25.5949 H   0  0  0  0  0  0  0  0  0  0  0  0
   -0.6699   25.8437  -27.1375 H   0  0  0  0  0  0  0  0  0  0  0  0
   -2.3274   26.5359  -27.1375 H   0  0  0  0  0  0  0  0  0  0  0  0
   -3.5960   24.5640  -26.7670 C   0  0  0  0  0  0  0  0  0  0  0  0
   -4.2189   24.5622  -25.8604 H   0  0  0  0  0  0  0  0  0  0  0  0
   -3.8183   25.4615  -27.3629 H   0  0  0  0  0  0  0  0  0  0  0  0
   -3.8132   23.6652  -27.3629 H   0  0  0  0  0  0  0  0  0  0  0  0
   -0.3450   21.9350  -30.4450 C   0  0  0  0  0  0  0  0  0  0  0  0
    0.7356   21.9456  -30.2398 H   0  0  0  0  0  0  0  0  0  0  0  0
   -0.9120   20.8370  -31.0680 C   0  0  0  0  0  0  0  0  0  0  0  0
   -0.2781   19.9784  -31.3345 H   0  0  0  0  0  0  0  0  0  0  0  0
   -2.2780   20.8020  -31.3640 C   0  0  0  0  0  0  0  0  0  0  0  0
   -2.8100   19.6010  -31.9500 N   0  0  0  0  0  0  0  0  0  0  0  0
   -3.7320   19.2410  -31.6160 H   0  0  0  0  0  0  0  0  0  0  0  0
   -2.0840   18.8180  -32.9530 C   0  0  0  0  0  0  0  0  0  0  0  0
   -1.4940   19.5005  -33.5823 H   0  0  0  0  0  0  0  0  0  0  0  0
   -1.4280   18.1064  -32.4303 H   0  0  0  0  0  0  0  0  0  0  0  0
   -3.0470   18.0250  -33.8430 C   0  0  0  0  0  0  0  0  0  0  0  0
   -2.9166   18.3396  -34.8890 H   0  0  0  0  0  0  0  0  0  0  0  0
   -2.8263   16.9522  -33.7415 H   0  0  0  0  0  0  0  0  0  0  0  0
   -4.4470   18.2690  -33.4310 N   0  0  0  0  0  0  0  0  0  0  0  0
   -5.2930   18.5690  -34.5950 C   0  0  0  0  0  0  0  0  0  0  0  0
   -6.2781   18.9183  -34.2520 H   0  0  0  0  0  0  0  0  0  0  0  0
   -4.8168   19.3531  -35.2020 H   0  0  0  0  0  0  0  0  0  0  0  0
   -5.4172   17.6601  -35.2020 H   0  0  0  0  0  0  0  0  0  0  0  0
   -4.9920   17.1130  -32.6980 C   0  0  0  0  0  0  0  0  0  0  0  0
   -4.9076   17.2920  -31.6160 H   0  0  0  0  0  0  0  0  0  0  0  0
   -6.0500   16.9750  -32.9654 H   0  0  0  0  0  0  0  0  0  0  0  0
   -4.4253   16.2089  -32.9654 H   0  0  0  0  0  0  0  0  0  0  0  0
   -3.1060   21.9230  -31.0400 C   0  0  0  0  0  0  0  0  0  0  0  0
  1  2  1  0
  2  3  1  0
  3  4  2  0
  4  5  1  0
  5  6  1  0
  5  7  2  0
  7  8  1  0
  7  9  1  0
  9 10  1  0
  9 11  2  0
 11 12  1  0
 11 13  1  0
 13 14  2  0
 14 15  1  0
 14 16  1  0
 16 17  2  0
 17 18  1  0
 18 19  2  0
 19 20  1  0
 19 21  1  0
 21 22  1  0
 21 23  1  0
 21 24  1  0
 24 25  1  0
 25 26  1  0
 25 27  1  0
 25 28  1  0
 24 29  1  0
 29 30  1  0
 29 31  1  0
 29 32  1  0
 17 33  1  0
 33 34  1  0
 33 35  2  0
 35 36  1  0
 35 37  1  0
 37 38  1  0
 38 39  1  0
 38 40  1  0
 40 41  1  0
 40 42  1  0
 40 43  1  0
 43 44  1  0
 43 45  1  0
 43 46  1  0
 46 47  1  0
 47 48  1  0
 47 49  1  0
 47 50  1  0
 46 51  1  0
 51 52  1  0
 51 53  1  0
 51 54  1  0
 37 55  2  0
 55  3  1  0
 13  4  1  0
 55 16  1  0
M  CHG  1  15  -1
M  END
>  <UniqueID>  (28) 
24

>  <SMILES>  (28) 
CN(C)C/C=N\c1ccc(NCCN(C)C)c2c(O)c3ccccc3c([O-])c12

>  <Energy>  (28) 
84.45765338793014

>  <Genealogy>  (28) 
CN(C)CC=Nc1ccc(NCCN(C)C)c2c(O)c3ccccc3c([O-])c12 (protonated)
CN(C)C/C=N\c1ccc(NCCN(C)C)c2c(O)c3ccccc3c([O-])c12 (cis-trans isomerization)
CN(C)C/C=N\c1ccc(NCCN(C)C)c2c(O)c3ccccc3c([O-])c12 (3D coordinates assigned)
CN(C)C/C=N\c1ccc(NCCN(C)C)c2c(O)c3ccccc3c([O-])c12 (optimized conformer: 84.45765338793014 kcal/mol)

>  <smiles>  (28) 
CN(C)CC=Nc1ccc(NCCN(C)C)c2c(O)c3ccccc3c(O)c12

>  <score_type>  (28) 
oracle

>  <origin>  (28) 
adg

>  <m_score__min__energy>  (28) 
-9.9800000000000004

>  <m_primary>  (28) 
energy

$$$$
28:0
     RDKit          3D

 59 63  0  0  0  0  0  0  0  0999 V2000
   -7.8800   24.5640  -29.5694 H   0  0  0  0  0  0  0  0  0  0  0  0
   -7.0110   24.1690  -30.1160 C   0  0  0  0  0  0  0  0  0  0  0  0
   -5.8020   24.7750  -29.9960 N   0  0  0  0  0  0  0  0  0  0  0  0
   -4.7100   24.3140  -30.6630 C   0  0  0  0  0  0  0  0  0  0  0  0
   -3.5700   24.9180  -30.5040 N   0  0  0  0  0  0  0  0  0  0  0  0
   -2.5420   24.5430  -29.5780 C   0  0  0  0  0  0  0  0  0  0  0  0
   -1.9820   25.4110  -28.7170 N   0  0  0  0  0  0  0  0  0  0  0  0
   -1.0280   24.7570  -28.0720 N   0  0  0  0  0  0  0  0  0  0  0  0
   -0.1820   25.3570  -27.0410 C   0  0  0  0  0  0  0  0  0  0  0  0
    0.5888   24.6280  -26.7503 H   0  0  0  0  0  0  0  0  0  0  0  0
    0.2606   26.2704  -27.4650 H   0  0  0  0  0  0  0  0  0  0  0  0
   -0.9770   25.7660  -25.7790 C   0  0  1  0  0  0  0  0  0  0  0  0
   -1.9727   25.3180  -25.9125 H   0  0  0  0  0  0  0  0  0  0  0  0
   -0.3730   25.1810  -24.4820 C   0  0  0  0  0  0  0  0  0  0  0  0
    0.7238   25.2525  -24.5259 H   0  0  0  0  0  0  0  0  0  0  0  0
   -0.6736   24.1272  -24.3859 H   0  0  0  0  0  0  0  0  0  0  0  0
   -0.8450   25.9030  -23.3630 O   0  0  0  0  0  0  0  0  0  0  0  0
   -0.2260   27.1800  -23.3070 C   0  0  0  0  0  0  0  0  0  0  0  0
    0.8146   27.0471  -22.9762 H   0  0  0  0  0  0  0  0  0  0  0  0
   -0.8145   27.7916  -22.6073 H   0  0  0  0  0  0  0  0  0  0  0  0
   -0.2160   27.9270  -24.6610 C   0  0  0  0  0  0  0  0  0  0  0  0
    0.7990   27.8888  -25.0833 H   0  0  0  0  0  0  0  0  0  0  0  0
   -0.5266   28.9674  -24.4846 H   0  0  0  0  0  0  0  0  0  0  0  0
   -1.1940   27.2940  -25.6560 C   0  0  0  0  0  0  0  0  0  0  0  0
   -1.0465   27.7556  -26.6435 H   0  0  0  0  0  0  0  0  0  0  0  0
   -2.2164   27.4667  -25.2888 H   0  0  0  0  0  0  0  0  0  0  0  0
   -0.9440   23.4920  -28.5340 C   0  0  0  0  0  0  0  0  0  0  0  0
   -0.2311   22.7284  -28.1893 H   0  0  0  0  0  0  0  0  0  0  0  0
   -1.9010   23.3170  -29.5100 C   0  0  0  0  0  0  0  0  0  0  0  0
   -2.1082   22.4117  -30.0996 H   0  0  0  0  0  0  0  0  0  0  0  0
   -4.8180   23.2040  -31.4450 N   0  0  0  0  0  0  0  0  0  0  0  0
   -6.0030   22.5550  -31.5800 C   0  0  0  0  0  0  0  0  0  0  0  0
   -7.1530   23.0440  -30.9330 C   0  0  0  0  0  0  0  0  0  0  0  0
   -8.4730   22.2900  -31.0020 C   0  0  0  0  0  0  0  0  0  0  0  0
   -9.2944   23.0170  -30.9190 H   0  0  0  0  0  0  0  0  0  0  0  0
   -8.4751   21.5635  -30.1761 H   0  0  0  0  0  0  0  0  0  0  0  0
   -8.6570   21.4900  -32.3140 C   0  0  0  0  0  0  0  0  0  0  0  0
   -8.9764   22.1747  -33.1135 H   0  0  0  0  0  0  0  0  0  0  0  0
   -9.4188   20.7131  -32.1526 H   0  0  0  0  0  0  0  0  0  0  0  0
   -7.3720   20.8320  -32.7130 C   0  0  0  0  0  0  0  0  0  0  0  0
   -6.1400   21.3540  -32.4150 C   0  0  0  0  0  0  0  0  0  0  0  0
   -5.2250   20.5120  -33.0340 C   0  0  0  0  0  0  0  0  0  0  0  0
   -3.7210   20.5710  -32.9550 C   0  0  0  0  0  0  0  0  0  0  0  0
   -3.3746   21.4866  -33.4567 H   0  0  0  0  0  0  0  0  0  0  0  0
   -3.3193   19.6723  -33.4458 H   0  0  0  0  0  0  0  0  0  0  0  0
   -3.2220   20.5820  -31.5040 C   0  0  0  0  0  0  0  0  0  0  0  0
   -3.5955   19.6805  -30.9962 H   0  0  0  0  0  0  0  0  0  0  0  0
   -3.5980   21.5003  -31.0294 H   0  0  0  0  0  0  0  0  0  0  0  0
   -1.6970   20.6020  -31.4070 C   0  0  0  0  0  0  0  0  0  0  0  0
   -1.3969   20.6059  -30.3487 H   0  0  0  0  0  0  0  0  0  0  0  0
   -1.2864   19.7092  -31.9012 H   0  0  0  0  0  0  0  0  0  0  0  0
   -1.3100   21.5053  -31.9012 H   0  0  0  0  0  0  0  0  0  0  0  0
   -5.9280   19.5430  -33.6760 N   0  0  0  0  0  0  0  0  0  0  0  0
   -5.3840   18.4670  -34.4990 C   0  0  0  0  0  0  0  0  0  0  0  0
   -4.9836   17.6749  -33.8492 H   0  0  0  0  0  0  0  0  0  0  0  0
   -6.1808   18.0524  -35.1340 H   0  0  0  0  0  0  0  0  0  0  0  0
   -4.5777   18.8629  -35.1340 H   0  0  0  0  0  0  0  0  0  0  0  0
   -7.2260   19.7520  -33.4980 N   0  0  0  0  0  0  0  0  0  0  0  0
   -7.9930   19.1740  -33.9100 H   0  0  0  0  0  0  0  0  0  0  0  0
  1  2  1  0
  2  3  1  0
  3  4  1  0
  4  5  2  0
  5  6  1  0
  6  7  2  0
  7  8  1  0
  8  9  1  0
  9 10  1  0
  9 11  1  0
  9 12  1  0
 12 13  1  6
 12 14  1  0
 14 15  1  0
 14 16  1  0
 14 17  1  0
 17 18  1  0
 18 19  1  0
 18 20  1  0
 18 21  1  0
 21 22  1  0
 21 23  1  0
 21 24  1  0
 24 25  1  0
 24 26  1  0
  8 27  1  0
 27 28  1  0
 27 29  2  0
 29 30  1  0
  4 31  1  0
 31 32  2  0
 32 33  1  0
 33 34  1  0
 34 35  1  0
 34 36  1  0
 34 37  1  0
 37 38  1  0
 37 39  1  0
 37 40  1  0
 40 41  1  0
 41 42  2  0
 42 43  1  0
 43 44  1  0
 43 45  1  0
 43 46  1  0
 46 47  1  0
 46 48  1  0
 46 49  1  0
 49 50  1  0
 49 51  1  0
 49 52  1  0
 42 53  1  0
 53 54  1  0
 54 55  1  0
 54 56  1  0
 54 57  1  0
 53 58  1  0
 58 59  1  0
 33  2  2  0
 58 40  2  0
 29  6  1  0
 41 32  1  0
 24 12  1  0
M  CHG  2   3  -1  58   1
M  END
>  <UniqueID>  (29) 
25

>  <SMILES>  (29) 
CCCc1c2c([nH+]n1C)CCc1c[n-]/c(=N/c3ccn(C[C@@H]4CCCOC4)n3)nc1-2

>  <Energy>  (29) 
131.58104333394508

>  <Genealogy>  (29) 
CCCc1c2c([nH+]n1C)CCc1c[n-]c(=Nc3ccn(CC4CCCOC4)n3)nc1-2 (protonated)
CCCc1c2c([nH+]n1C)CCc1c[n-]c(=Nc3ccn(C[C@@H]4CCCOC4)n3)nc1-2 (chirality)
CCCc1c2c([nH+]n1C)CCc1c[n-]/c(=N/c3ccn(C[C@@H]4CCCOC4)n3)nc1-2 (cis-trans isomerization)
CCCc1c2c([nH+]n1C)CCc1c[n-]/c(=N/c3ccn(C[C@@H]4CCCOC4)n3)nc1-2 (3D coordinates assigned)
CCCc1c2c([nH+]n1C)CCc1c[n-]/c(=N/c3ccn(C[C@@H]4CCCOC4)n3)nc1-2 (nonaromatic ring conformer: 131.58104333394508 kcal/mol)

>  <smiles>  (29) 
CCCc1c2c(nn1C)CCc1c[nH]c(=Nc3ccn(CC4CCCOC4)n3)nc1-2

>  <score_type>  (29) 
oracle

>  <origin>  (29) 
adg

>  <m_score__min__energy>  (29) 
-10.699999999999999

>  <m_primary>  (29) 
energy

$$$$
29:0
     RDKit          3D

 56 59  0  0  0  0  0  0  0  0999 V2000
    1.2330   18.9390  -27.8730 C   0  0  0  0  0  0  0  0  0  0  0  0
    1.1990   20.4340  -28.1830 C   0  0  0  0  0  0  0  0  0  0  0  0
   -0.0940   20.8360  -28.7660 N   0  0  0  0  0  0  0  0  0  0  0  0
   -1.1330   21.4320  -27.9050 C   0  0  0  0  0  0  0  0  0  0  0  0
   -1.6180   22.7610  -28.4590 C   0  0  0  0  0  0  0  0  0  0  0  0
   -0.8890   23.9070  -28.1070 C   0  0  0  0  0  0  0  0  0  0  0  0
   -1.2950   25.1590  -28.5670 C   0  0  0  0  0  0  0  0  0  0  0  0
   -0.6440   26.1880  -28.2480 O   0  0  0  0  0  0  0  0  0  0  0  0
   -2.3660   25.2750  -29.3390 O   0  0  0  0  0  0  0  0  0  0  0  0
   -3.0980   24.2320  -29.7140 C   0  0  0  0  0  0  0  0  0  0  0  0
   -4.2110   24.4510  -30.5310 C   0  0  0  0  0  0  0  0  0  0  0  0
   -5.0060   23.3850  -30.9580 C   0  0  0  0  0  0  0  0  0  0  0  0
   -6.1060   23.6670  -31.7850 O   0  0  0  0  0  0  0  0  0  0  0  0
   -7.4580   23.2970  -31.5130 C   0  0  0  0  0  0  0  0  0  0  0  0
   -7.7120   21.8640  -31.9010 C   0  0  0  0  0  0  0  0  0  0  0  0
   -8.8820   21.2080  -31.4850 C   0  0  0  0  0  0  0  0  0  0  0  0
   -9.1140   19.8800  -31.8550 C   0  0  0  0  0  0  0  0  0  0  0  0
   -8.1860   19.2010  -32.6490 C   0  0  0  0  0  0  0  0  0  0  0  0
   -7.0240   19.8500  -33.0790 C   0  0  0  0  0  0  0  0  0  0  0  0
   -5.7590   18.9230  -34.1680 Br  0  0  0  0  0  0  0  0  0  0  0  0
   -6.7900   21.1800  -32.7110 C   0  0  0  0  0  0  0  0  0  0  0  0
   -4.6790   22.0810  -30.5490 C   0  0  0  0  0  0  0  0  0  0  0  0
   -3.5690   21.8490  -29.7320 C   0  0  0  0  0  0  0  0  0  0  0  0
   -2.7580   22.9200  -29.2950 C   0  0  0  0  0  0  0  0  0  0  0  0
   -0.4090   20.4800  -30.1330 C   0  0  0  0  0  0  0  0  0  0  0  0
   -0.5130   21.4730  -31.1250 C   0  0  0  0  0  0  0  0  0  0  0  0
   -0.8140   21.1300  -32.4460 C   0  0  0  0  0  0  0  0  0  0  0  0
   -1.0140   19.7950  -32.8070 C   0  0  0  0  0  0  0  0  0  0  0  0
   -1.3150   19.5030  -34.1470 O   0  0  0  0  0  0  0  0  0  0  0  0
   -1.5880   18.1980  -34.6430 C   0  0  0  0  0  0  0  0  0  0  0  0
   -0.9070   18.7960  -31.8230 C   0  0  0  0  0  0  0  0  0  0  0  0
   -0.6060   19.1370  -30.5020 C   0  0  0  0  0  0  0  0  0  0  0  0
    1.2364   18.7905  -26.7831 H   0  0  0  0  0  0  0  0  0  0  0  0
    0.3456   18.4544  -28.3063 H   0  0  0  0  0  0  0  0  0  0  0  0
    2.1415   18.4952  -28.3063 H   0  0  0  0  0  0  0  0  0  0  0  0
    1.3611   20.9959  -27.2514 H   0  0  0  0  0  0  0  0  0  0  0  0
    1.9904   20.6526  -28.9151 H   0  0  0  0  0  0  0  0  0  0  0  0
   -1.9849   20.7391  -27.8404 H   0  0  0  0  0  0  0  0  0  0  0  0
   -0.6978   21.6100  -26.9106 H   0  0  0  0  0  0  0  0  0  0  0  0
    0.0023   23.8177  -27.4685 H   0  0  0  0  0  0  0  0  0  0  0  0
   -4.4638   25.4756  -30.8414 H   0  0  0  0  0  0  0  0  0  0  0  0
   -7.6554   23.4193  -30.4378 H   0  0  0  0  0  0  0  0  0  0  0  0
   -8.1245   23.9439  -32.1023 H   0  0  0  0  0  0  0  0  0  0  0  0
   -9.6185   21.7410  -30.8658 H   0  0  0  0  0  0  0  0  0  0  0  0
  -10.0287   19.3686  -31.5205 H   0  0  0  0  0  0  0  0  0  0  0  0
   -8.3695   18.1551  -32.9361 H   0  0  0  0  0  0  0  0  0  0  0  0
   -5.8802   21.6920  -33.0575 H   0  0  0  0  0  0  0  0  0  0  0  0
   -5.3023   21.2352  -30.8748 H   0  0  0  0  0  0  0  0  0  0  0  0
   -3.3242   20.8212  -29.4259 H   0  0  0  0  0  0  0  0  0  0  0  0
   -0.3560   22.5285  -30.8582 H   0  0  0  0  0  0  0  0  0  0  0  0
   -0.8942   21.9185  -33.2088 H   0  0  0  0  0  0  0  0  0  0  0  0
   -1.7324   17.5077  -33.7988 H   0  0  0  0  0  0  0  0  0  0  0  0
   -2.5005   18.2225  -35.2569 H   0  0  0  0  0  0  0  0  0  0  0  0
   -0.7422   17.8547  -35.2569 H   0  0  0  0  0  0  0  0  0  0  0  0
   -1.0610   17.7413  -32.0947 H   0  0  0  0  0  0  0  0  0  0  0  0
   -0.5221   18.3463  -29.7419 H   0  0  0  0  0  0  0  0  0  0  0  0
  1  2  1  0
  2  3  1  0
  3  4  1  0
  4  5  1  0
  5  6  2  0
  6  7  1  0
  7  8  2  0
  7  9  1  0
  9 10  1  0
 10 11  2  0
 11 12  1  0
 12 13  1  0
 13 14  1  0
 14 15  1  0
 15 16  2  0
 16 17  1  0
 17 18  2  0
 18 19  1  0
 19 20  1  0
 19 21  2  0
 12 22  2  0
 22 23  1  0
 23 24  2  0
  3 25  1  0
 25 26  2  0
 26 27  1  0
 27 28  2  0
 28 29  1  0
 29 30  1  0
 28 31  1  0
 31 32  2  0
 24  5  1  0
 32 25  1  0
 24 10  1  0
 21 15  1  0
  1 33  1  0
  1 34  1  0
  1 35  1  0
  2 36  1  0
  2 37  1  0
  4 38  1  0
  4 39  1  0
  6 40  1  0
 11 41  1  0
 14 42  1  0
 14 43  1  0
 16 44  1  0
 17 45  1  0
 18 46  1  0
 21 47  1  0
 22 48  1  0
 23 49  1  0
 26 50  1  0
 27 51  1  0
 30 52  1  0
 30 53  1  0
 30 54  1  0
 31 55  1  0
 32 56  1  0
M  END
>  <UniqueID>  (30) 
26

>  <SMILES>  (30) 
CCN(Cc1cc(=O)oc2cc(OCc3cccc(Br)c3)ccc12)c1ccc(OC)cc1

>  <Energy>  (30) 
69.44977915504792

>  <Genealogy>  (30) 
CCN(Cc1cc(=O)oc2cc(OCc3cccc(Br)c3)ccc12)c1ccc(OC)cc1 (3D coordinates assigned)
CCN(Cc1cc(=O)oc2cc(OCc3cccc(Br)c3)ccc12)c1ccc(OC)cc1 (optimized conformer: 69.44977915504792 kcal/mol)

>  <smiles>  (30) 
CCN(Cc1cc(=O)oc2cc(OCc3cccc(Br)c3)ccc12)c1ccc(OC)cc1

>  <score_type>  (30) 
oracle

>  <origin>  (30) 
adg

>  <m_score__min__energy>  (30) 
-9.8800000000000008

>  <m_primary>  (30) 
energy

$$$$
30:0
     RDKit          3D

 56 59  0  0  0  0  0  0  0  0999 V2000
   -2.2030   24.4910  -28.9220 C   0  0  0  0  0  0  0  0  0  0  0  0
   -3.1440   25.1630  -29.7510 O   0  0  0  0  0  0  0  0  0  0  0  0
   -4.4150   24.6620  -30.0780 C   0  0  0  0  0  0  0  0  0  0  0  0
   -4.5870   23.5190  -30.8760 C   0  0  0  0  0  0  0  0  0  0  0  0
   -5.8880   23.0760  -31.1600 C   0  0  0  0  0  0  0  0  0  0  0  0
   -6.1270   21.9080  -31.9700 N   0  0  0  0  0  0  0  0  0  0  0  0
   -7.4450   21.3080  -32.1030 C   0  0  0  0  0  0  0  0  0  0  0  0
   -7.2530   20.0410  -32.9420 C   0  0  2  0  0  0  0  0  0  0  0  0
   -7.3910   18.7560  -32.1050 C   0  0  0  0  0  0  0  0  0  0  0  0
   -7.1780   17.4970  -32.9690 C   0  0  0  0  0  0  0  0  0  0  0  0
   -6.2380   17.7390  -34.1690 C   0  0  0  0  0  0  0  0  0  0  0  0
   -5.1360   18.7790  -33.8460 C   0  0  2  0  0  0  0  0  0  0  0  0
   -4.2630   18.3530  -32.7280 N   0  0  0  0  0  0  0  0  0  0  0  0
   -2.9120   17.9530  -33.1520 C   0  0  0  0  0  0  0  0  0  0  0  0
   -2.0640   19.1800  -33.3800 C   0  0  0  0  0  0  0  0  0  0  0  0
   -1.3290   19.3170  -34.5690 C   0  0  0  0  0  0  0  0  0  0  0  0
   -0.5590   20.4600  -34.7950 C   0  0  0  0  0  0  0  0  0  0  0  0
   -0.5210   21.4770  -33.8410 C   0  0  0  0  0  0  0  0  0  0  0  0
   -1.2540   21.3580  -32.6580 C   0  0  0  0  0  0  0  0  0  0  0  0
   -2.0360   20.2110  -32.4160 C   0  0  0  0  0  0  0  0  0  0  0  0
   -2.7950   20.0630  -31.2430 O   0  0  0  0  0  0  0  0  0  0  0  0
   -2.5700   20.7860  -30.0380 C   0  0  0  0  0  0  0  0  0  0  0  0
   -5.8390   20.1570  -33.5610 C   0  0  2  0  0  0  0  0  0  0  0  0
   -5.0920   21.1660  -32.6700 C   0  0  0  0  0  0  0  0  0  0  0  0
   -6.9440   23.7660  -30.6510 N   0  0  0  0  0  0  0  0  0  0  0  0
   -6.7660   24.8700  -29.8820 C   0  0  0  0  0  0  0  0  0  0  0  0
   -5.5120   25.3100  -29.6010 N   0  0  0  0  0  0  0  0  0  0  0  0
   -2.4522   24.6690  -27.8655 H   0  0  0  0  0  0  0  0  0  0  0  0
   -2.2366   23.4113  -29.1298 H   0  0  0  0  0  0  0  0  0  0  0  0
   -1.1927   24.8731  -29.1298 H   0  0  0  0  0  0  0  0  0  0  0  0
   -3.7146   22.9789  -31.2726 H   0  0  0  0  0  0  0  0  0  0  0  0
   -7.8496   21.0522  -31.1126 H   0  0  0  0  0  0  0  0  0  0  0  0
   -8.1554   22.0005  -32.5782 H   0  0  0  0  0  0  0  0  0  0  0  0
   -8.0329   19.9655  -33.7140 H   0  0  0  0  0  0  0  0  0  0  0  0
   -6.6401   18.7699  -31.3013 H   0  0  0  0  0  0  0  0  0  0  0  0
   -8.4083   18.7219  -31.6878 H   0  0  0  0  0  0  0  0  0  0  0  0
   -6.7436   16.7081  -32.3373 H   0  0  0  0  0  0  0  0  0  0  0  0
   -8.1588   17.2067  -33.3736 H   0  0  0  0  0  0  0  0  0  0  0  0
   -5.7585   16.7872  -34.4415 H   0  0  0  0  0  0  0  0  0  0  0  0
   -6.8429   18.1333  -34.9988 H   0  0  0  0  0  0  0  0  0  0  0  0
   -4.4612   18.8773  -34.7092 H   0  0  0  0  0  0  0  0  0  0  0  0
   -4.1100   19.2010  -32.1330 H   0  0  0  0  0  0  0  0  0  0  0  0
   -2.4525   17.3317  -32.3691 H   0  0  0  0  0  0  0  0  0  0  0  0
   -2.9799   17.3792  -34.0880 H   0  0  0  0  0  0  0  0  0  0  0  0
   -1.3600   18.5197  -35.3263 H   0  0  0  0  0  0  0  0  0  0  0  0
    0.0181   20.5584  -35.7263 H   0  0  0  0  0  0  0  0  0  0  0  0
    0.0880   22.3752  -34.0209 H   0  0  0  0  0  0  0  0  0  0  0  0
   -1.2206   22.1645  -31.9107 H   0  0  0  0  0  0  0  0  0  0  0  0
   -2.7730   20.1338  -29.1758 H   0  0  0  0  0  0  0  0  0  0  0  0
   -1.5240   21.1246  -30.0034 H   0  0  0  0  0  0  0  0  0  0  0  0
   -3.2391   21.6584  -30.0034 H   0  0  0  0  0  0  0  0  0  0  0  0
   -5.8631   20.5392  -34.5922 H   0  0  0  0  0  0  0  0  0  0  0  0
   -4.4447   20.6399  -31.9529 H   0  0  0  0  0  0  0  0  0  0  0  0
   -4.4435   21.8296  -33.2608 H   0  0  0  0  0  0  0  0  0  0  0  0
   -7.6388   25.4095  -29.4856 H   0  0  0  0  0  0  0  0  0  0  0  0
   -5.3920   26.1610  -29.0070 H   0  0  0  0  0  0  0  0  0  0  0  0
  1  2  1  0
  2  3  1  0
  3  4  2  0
  4  5  1  0
  5  6  1  0
  6  7  1  0
  7  8  1  0
  8  9  1  0
  9 10  1  0
 10 11  1  0
 11 12  1  0
 12 13  1  0
 13 14  1  0
 14 15  1  0
 15 16  2  0
 16 17  1  0
 17 18  2  0
 18 19  1  0
 19 20  2  0
 20 21  1  0
 21 22  1  0
 12 23  1  0
 23 24  1  0
  5 25  2  0
 25 26  1  0
 26 27  2  0
 27  3  1  0
 24  6  1  0
 23  8  1  0
 20 15  1  0
  1 28  1  0
  1 29  1  0
  1 30  1  0
  4 31  1  0
  7 32  1  0
  7 33  1  0
  8 34  1  6
  9 35  1  0
  9 36  1  0
 10 37  1  0
 10 38  1  0
 11 39  1  0
 11 40  1  0
 12 41  1  6
 13 42  1  0
 14 43  1  0
 14 44  1  0
 16 45  1  0
 17 46  1  0
 18 47  1  0
 19 48  1  0
 22 49  1  0
 22 50  1  0
 22 51  1  0
 23 52  1  6
 24 53  1  0
 24 54  1  0
 26 55  1  0
 27 56  1  0
M  CHG  1  27   1
M  END
>  <UniqueID>  (31) 
27

>  <SMILES>  (31) 
COc1cc(N2CC3[C@@H](CCC[C@@H]3NCc3ccccc3OC)C2)nc[nH+]1

>  <Energy>  (31) 
68.91826230022728

>  <Genealogy>  (31) 
COc1cc(N2CC3CCCC(NCc4ccccc4OC)C3C2)nc[nH+]1 (protonated)
COc1cc(N2CC3[C@@H](CCC[C@@H]3NCc3ccccc3OC)C2)nc[nH+]1 (chirality)
COc1cc(N2CC3[C@@H](CCC[C@@H]3NCc3ccccc3OC)C2)nc[nH+]1 (3D coordinates assigned)
COc1cc(N2CC3[C@@H](CCC[C@@H]3NCc3ccccc3OC)C2)nc[nH+]1 (nonaromatic ring conformer: 68.91826230022728 kcal/mol)

>  <smiles>  (31) 
COc1cc(N2CC3CCCC(NCc4ccccc4OC)C3C2)ncn1

>  <score_type>  (31) 
oracle

>  <origin>  (31) 
adg

>  <m_score__min__energy>  (31) 
-8.0600000000000005

>  <m_primary>  (31) 
energy

$$$$
31:0
     RDKit          3D

 63 66  0  0  0  0  0  0  0  0999 V2000
   -3.2820   25.2600  -26.3720 C   0  0  0  0  0  0  0  0  0  0  0  0
   -4.3510   24.2620  -26.8130 C   0  0  0  0  0  0  0  0  0  0  0  0
   -4.6410   24.3860  -28.2520 N   0  0  0  0  0  0  0  0  0  0  0  0
   -5.7390   25.2820  -28.6550 C   0  0  0  0  0  0  0  0  0  0  0  0
   -6.4170   24.7840  -29.9320 C   0  0  0  0  0  0  0  0  0  0  0  0
   -3.8520   23.6720  -29.2450 C   0  0  0  0  0  0  0  0  0  0  0  0
   -4.1950   23.7180  -30.6130 C   0  0  0  0  0  0  0  0  0  0  0  0
   -3.4340   23.0390  -31.5690 C   0  0  0  0  0  0  0  0  0  0  0  0
   -2.3240   22.2750  -31.1850 C   0  0  0  0  0  0  0  0  0  0  0  0
   -1.5480   21.6020  -32.1900 N   0  0  0  0  0  0  0  0  0  0  0  0
   -2.1180   20.7340  -33.1860 C   0  0  0  0  0  0  0  0  0  0  0  0
   -3.3630   20.7420  -33.3890 O   0  0  0  0  0  0  0  0  0  0  0  0
   -1.2510   19.8680  -34.0190 C   0  0  0  0  0  0  0  0  0  0  0  0
   -0.3340   20.4430  -34.9190 C   0  0  0  0  0  0  0  0  0  0  0  0
    0.4940   19.6340  -35.7040 C   0  0  0  0  0  0  0  0  0  0  0  0
    0.4080   18.2350  -35.6120 C   0  0  0  0  0  0  0  0  0  0  0  0
    1.2200   17.3810  -36.3780 C   0  0  0  0  0  0  0  0  0  0  0  0
    2.0750   17.8710  -37.1690 O   0  0  0  0  0  0  0  0  0  0  0  0
    1.0870   16.0210  -36.2640 N   0  0  0  0  0  0  0  0  0  0  0  0
    1.9400   15.1690  -37.0540 C   0  0  0  0  0  0  0  0  0  0  0  0
    1.4590   14.6310  -38.2570 C   0  0  0  0  0  0  0  0  0  0  0  0
    2.2740   13.8010  -39.0310 C   0  0  0  0  0  0  0  0  0  0  0  0
    3.5710   13.4780  -38.5980 C   0  0  0  0  0  0  0  0  0  0  0  0
    4.4270   12.6390  -39.3290 O   0  0  0  0  0  0  0  0  0  0  0  0
    5.0110   11.4460  -38.8230 C   0  0  0  0  0  0  0  0  0  0  0  0
    4.0410   14.0040  -37.3900 C   0  0  0  0  0  0  0  0  0  0  0  0
    3.2360   14.8580  -36.6110 C   0  0  0  0  0  0  0  0  0  0  0  0
    3.6880   15.4130  -35.4010 O   0  0  0  0  0  0  0  0  0  0  0  0
    3.2510   15.0050  -34.1080 C   0  0  0  0  0  0  0  0  0  0  0  0
    0.1630   15.4870  -35.3950 C   0  0  0  0  0  0  0  0  0  0  0  0
   -0.0470   13.8640  -35.2360 S   0  0  0  0  0  0  0  0  0  0  0  0
   -0.6200   16.3060  -34.6480 N   0  0  0  0  0  0  0  0  0  0  0  0
   -0.5200   17.6550  -34.7290 C   0  0  0  0  0  0  0  0  0  0  0  0
   -1.3400   18.4660  -33.9350 C   0  0  0  0  0  0  0  0  0  0  0  0
   -1.9600   22.2340  -29.8310 C   0  0  0  0  0  0  0  0  0  0  0  0
   -2.7150   22.9220  -28.8730 C   0  0  0  0  0  0  0  0  0  0  0  0
   -3.2443   25.2952  -25.2732 H   0  0  0  0  0  0  0  0  0  0  0  0
   -2.3031   24.9452  -26.7626 H   0  0  0  0  0  0  0  0  0  0  0  0
   -3.5289   26.2582  -26.7626 H   0  0  0  0  0  0  0  0  0  0  0  0
   -3.9953   23.2418  -26.6062 H   0  0  0  0  0  0  0  0  0  0  0  0
   -5.2744   24.4742  -26.2542 H   0  0  0  0  0  0  0  0  0  0  0  0
   -6.4834   25.3240  -27.8462 H   0  0  0  0  0  0  0  0  0  0  0  0
   -5.3209   26.2809  -28.8487 H   0  0  0  0  0  0  0  0  0  0  0  0
   -7.2776   24.1519  -29.6677 H   0  0  0  0  0  0  0  0  0  0  0  0
   -6.7623   25.6448  -30.5235 H   0  0  0  0  0  0  0  0  0  0  0  0
   -5.6989   24.1971  -30.5235 H   0  0  0  0  0  0  0  0  0  0  0  0
   -5.0744   24.2968  -30.9319 H   0  0  0  0  0  0  0  0  0  0  0  0
   -3.7090   23.1051  -32.6320 H   0  0  0  0  0  0  0  0  0  0  0  0
   -0.5430   21.8720  -32.2930 H   0  0  0  0  0  0  0  0  0  0  0  0
   -0.2681   21.5376  -35.0056 H   0  0  0  0  0  0  0  0  0  0  0  0
    1.2148   20.0947  -36.3955 H   0  0  0  0  0  0  0  0  0  0  0  0
    0.4373   14.8633  -38.5919 H   0  0  0  0  0  0  0  0  0  0  0  0
    1.8986   13.3987  -39.9835 H   0  0  0  0  0  0  0  0  0  0  0  0
    4.9993   11.4698  -37.7233 H   0  0  0  0  0  0  0  0  0  0  0  0
    4.4361   10.5776  -39.1770 H   0  0  0  0  0  0  0  0  0  0  0  0
    6.0495   11.3673  -39.1770 H   0  0  0  0  0  0  0  0  0  0  0  0
    5.0530   13.7472  -37.0437 H   0  0  0  0  0  0  0  0  0  0  0  0
    3.8266   15.5424  -33.3399 H   0  0  0  0  0  0  0  0  0  0  0  0
    2.1816   15.2353  -33.9928 H   0  0  0  0  0  0  0  0  0  0  0  0
    3.4074   13.9223  -33.9928 H   0  0  0  0  0  0  0  0  0  0  0  0
   -2.0582   18.0045  -33.2413 H   0  0  0  0  0  0  0  0  0  0  0  0
   -1.0761   21.6579  -29.5198 H   0  0  0  0  0  0  0  0  0  0  0  0
   -2.4178   22.8775  -27.8148 H   0  0  0  0  0  0  0  0  0  0  0  0
  1  2  1  0
  2  3  1  0
  3  4  1  0
  4  5  1  0
  3  6  1  0
  6  7  2  0
  7  8  1  0
  8  9  2  0
  9 10  1  0
 10 11  1  0
 11 12  2  0
 11 13  1  0
 13 14  2  0
 14 15  1  0
 15 16  2  0
 16 17  1  0
 17 18  2  0
 17 19  1  0
 19 20  1  0
 20 21  2  0
 21 22  1  0
 22 23  2  0
 23 24  1  0
 24 25  1  0
 23 26  1  0
 26 27  2  0
 27 28  1  0
 28 29  1  0
 19 30  1  0
 30 31  2  0
 30 32  1  0
 32 33  1  0
 33 34  2  0
  9 35  1  0
 35 36  2  0
 36  6  1  0
 34 13  1  0
 33 16  1  0
 27 20  1  0
  1 37  1  0
  1 38  1  0
  1 39  1  0
  2 40  1  0
  2 41  1  0
  4 42  1  0
  4 43  1  0
  5 44  1  0
  5 45  1  0
  5 46  1  0
  7 47  1  0
  8 48  1  0
 10 49  1  0
 14 50  1  0
 15 51  1  0
 21 52  1  0
 22 53  1  0
 25 54  1  0
 25 55  1  0
 25 56  1  0
 26 57  1  0
 29 58  1  0
 29 59  1  0
 29 60  1  0
 34 61  1  0
 35 62  1  0
 36 63  1  0
M  CHG  1  32  -1
M  END
>  <UniqueID>  (32) 
28

>  <SMILES>  (32) 
CCN(CC)c1ccc(NC(=O)c2ccc3c(=O)n(-c4ccc(OC)cc4OC)c(=S)[n-]c3c2)cc1

>  <Energy>  (32) 
86.86649393805295

>  <Genealogy>  (32) 
CCN(CC)c1ccc(NC(=O)c2ccc3c(=O)n(-c4ccc(OC)cc4OC)c(=S)[n-]c3c2)cc1 (protonated)
CCN(CC)c1ccc(NC(=O)c2ccc3c(=O)n(-c4ccc(OC)cc4OC)c(=S)[n-]c3c2)cc1 (3D coordinates assigned)
CCN(CC)c1ccc(NC(=O)c2ccc3c(=O)n(-c4ccc(OC)cc4OC)c(=S)[n-]c3c2)cc1 (optimized conformer: 86.86649393805295 kcal/mol)

>  <smiles>  (32) 
CCN(CC)c1ccc(NC(=O)c2ccc3c(=O)n(-c4ccc(OC)cc4OC)c(=S)[nH]c3c2)cc1

>  <score_type>  (32) 
oracle

>  <origin>  (32) 
adg

>  <m_score__min__energy>  (32) 
-7.96

>  <m_primary>  (32) 
energy

$$$$
32:0
     RDKit          3D

 61 64  0  0  0  0  0  0  0  0999 V2000
   -2.6540   19.0780  -26.0350 C   0  0  0  0  0  0  0  0  0  0  0  0
   -1.5200   19.8260  -26.4640 O   0  0  0  0  0  0  0  0  0  0  0  0
   -0.9470   19.7380  -27.7390 C   0  0  0  0  0  0  0  0  0  0  0  0
   -0.8430   20.8500  -28.5980 C   0  0  0  0  0  0  0  0  0  0  0  0
   -0.2520   20.7120  -29.8590 C   0  0  0  0  0  0  0  0  0  0  0  0
    0.2380   19.4680  -30.2800 C   0  0  0  0  0  0  0  0  0  0  0  0
    0.9270   19.3310  -31.6120 C   0  0  0  0  0  0  0  0  0  0  0  0
    0.5020   20.4590  -32.5650 C   0  0  0  0  0  0  0  0  0  0  0  0
   -0.8700   20.2270  -33.0680 N   0  0  0  0  0  0  0  0  0  0  0  0
   -1.7910   21.2740  -32.5900 C   0  0  0  0  0  0  0  0  0  0  0  0
   -3.1190   21.1780  -33.3440 C   0  0  0  0  0  0  0  0  0  0  0  0
   -3.6520   19.8130  -33.3390 N   0  0  0  0  0  0  0  0  0  0  0  0
   -5.0330   19.6010  -33.7920 C   0  0  0  0  0  0  0  0  0  0  0  0
   -5.8870   19.0300  -32.6540 C   0  0  0  0  0  0  0  0  0  0  0  0
   -7.0670   19.9380  -32.3660 C   0  0  0  0  0  0  0  0  0  0  0  0
   -8.3580   19.4190  -32.5580 C   0  0  0  0  0  0  0  0  0  0  0  0
   -9.4840   20.2110  -32.3530 C   0  0  0  0  0  0  0  0  0  0  0  0
   -9.3460   21.5420  -31.9700 C   0  0  0  0  0  0  0  0  0  0  0  0
   -8.0750   22.0960  -31.7840 C   0  0  0  0  0  0  0  0  0  0  0  0
   -7.9500   23.4420  -31.4090 C   0  0  0  0  0  0  0  0  0  0  0  0
   -6.6910   24.0090  -31.2200 C   0  0  0  0  0  0  0  0  0  0  0  0
   -5.5300   23.2380  -31.4020 C   0  0  0  0  0  0  0  0  0  0  0  0
   -4.2410   23.7650  -31.2210 O   0  0  0  0  0  0  0  0  0  0  0  0
   -3.2880   23.2570  -30.2940 C   0  0  0  0  0  0  0  0  0  0  0  0
   -5.6470   21.8930  -31.7760 C   0  0  0  0  0  0  0  0  0  0  0  0
   -6.9150   21.2990  -31.9760 C   0  0  0  0  0  0  0  0  0  0  0  0
   -2.7790   18.6870  -33.1210 C   0  0  0  0  0  0  0  0  0  0  0  0
   -3.2040   17.5090  -33.2680 O   0  0  0  0  0  0  0  0  0  0  0  0
   -1.3700   18.9000  -32.6490 C   0  0  0  0  0  0  0  0  0  0  0  0
    0.1370   18.3650  -29.4250 C   0  0  0  0  0  0  0  0  0  0  0  0
   -0.4540   18.5000  -28.1660 C   0  0  0  0  0  0  0  0  0  0  0  0
   -2.6852   19.0574  -24.9356 H   0  0  0  0  0  0  0  0  0  0  0  0
   -3.5708   19.5492  -26.4191 H   0  0  0  0  0  0  0  0  0  0  0  0
   -2.5817   18.0498  -26.4191 H   0  0  0  0  0  0  0  0  0  0  0  0
   -1.2274   21.8293  -28.2766 H   0  0  0  0  0  0  0  0  0  0  0  0
   -0.1715   21.5848  -30.5236 H   0  0  0  0  0  0  0  0  0  0  0  0
    2.0156   19.3773  -31.4613 H   0  0  0  0  0  0  0  0  0  0  0  0
    0.6428   18.3666  -32.0583 H   0  0  0  0  0  0  0  0  0  0  0  0
    0.5323   21.4177  -32.0265 H   0  0  0  0  0  0  0  0  0  0  0  0
    1.1940   20.4805  -33.4198 H   0  0  0  0  0  0  0  0  0  0  0  0
   -1.9714   21.1383  -31.5134 H   0  0  0  0  0  0  0  0  0  0  0  0
   -1.3421   22.2623  -32.7682 H   0  0  0  0  0  0  0  0  0  0  0  0
   -3.8492   21.8468  -32.8650 H   0  0  0  0  0  0  0  0  0  0  0  0
   -2.9399   21.4705  -34.3892 H   0  0  0  0  0  0  0  0  0  0  0  0
   -5.4589   20.5613  -34.1181 H   0  0  0  0  0  0  0  0  0  0  0  0
   -5.0285   18.8862  -34.6280 H   0  0  0  0  0  0  0  0  0  0  0  0
   -6.2579   18.0359  -32.9440 H   0  0  0  0  0  0  0  0  0  0  0  0
   -5.2673   18.9552  -31.7483 H   0  0  0  0  0  0  0  0  0  0  0  0
   -8.4808   18.3727  -32.8746 H   0  0  0  0  0  0  0  0  0  0  0  0
  -10.4875   19.7831  -32.4943 H   0  0  0  0  0  0  0  0  0  0  0  0
  -10.2412   22.1616  -31.8127 H   0  0  0  0  0  0  0  0  0  0  0  0
   -8.8521   24.0543  -31.2631 H   0  0  0  0  0  0  0  0  0  0  0  0
   -6.6054   25.0657  -30.9268 H   0  0  0  0  0  0  0  0  0  0  0  0
   -3.6386   23.4439  -29.2682 H   0  0  0  0  0  0  0  0  0  0  0  0
   -3.1669   22.1747  -30.4486 H   0  0  0  0  0  0  0  0  0  0  0  0
   -2.3219   23.7598  -30.4486 H   0  0  0  0  0  0  0  0  0  0  0  0
   -4.7383   21.2892  -31.9164 H   0  0  0  0  0  0  0  0  0  0  0  0
   -1.3439   18.8351  -31.5512 H   0  0  0  0  0  0  0  0  0  0  0  0
   -0.7285   18.1252  -33.0941 H   0  0  0  0  0  0  0  0  0  0  0  0
    0.5248   17.3868  -29.7455 H   0  0  0  0  0  0  0  0  0  0  0  0
   -0.5324   17.6248  -27.5043 H   0  0  0  0  0  0  0  0  0  0  0  0
  1  2  1  0
  2  3  1  0
  3  4  2  0
  4  5  1  0
  5  6  2  0
  6  7  1  0
  7  8  1  0
  8  9  1  0
  9 10  1  0
 10 11  1  0
 11 12  1  0
 12 13  1  0
 13 14  1  0
 14 15  1  0
 15 16  2  0
 16 17  1  0
 17 18  2  0
 18 19  1  0
 19 20  2  0
 20 21  1  0
 21 22  2  0
 22 23  1  0
 23 24  1  0
 22 25  1  0
 25 26  2  0
 12 27  1  0
 27 28  2  0
 27 29  1  0
  6 30  1  0
 30 31  2  0
 31  3  1  0
 29  9  1  0
 26 15  1  0
 26 19  1  0
  1 32  1  0
  1 33  1  0
  1 34  1  0
  4 35  1  0
  5 36  1  0
  7 37  1  0
  7 38  1  0
  8 39  1  0
  8 40  1  0
 10 41  1  0
 10 42  1  0
 11 43  1  0
 11 44  1  0
 13 45  1  0
 13 46  1  0
 14 47  1  0
 14 48  1  0
 16 49  1  0
 17 50  1  0
 18 51  1  0
 20 52  1  0
 21 53  1  0
 24 54  1  0
 24 55  1  0
 24 56  1  0
 25 57  1  0
 29 58  1  0
 29 59  1  0
 30 60  1  0
 31 61  1  0
M  END
>  <UniqueID>  (33) 
29

>  <SMILES>  (33) 
COc1ccc(CCN2CCN(CCc3cccc4ccc(OC)cc34)C(=O)C2)cc1

>  <Energy>  (33) 
65.40510673597055

>  <Genealogy>  (33) 
COc1ccc(CCN2CCN(CCc3cccc4ccc(OC)cc34)C(=O)C2)cc1 (3D coordinates assigned)
COc1ccc(CCN2CCN(CCc3cccc4ccc(OC)cc34)C(=O)C2)cc1 (nonaromatic ring conformer: 65.40510673597055 kcal/mol)

>  <smiles>  (33) 
COc1ccc(CCN2CCN(CCc3cccc4ccc(OC)cc34)C(=O)C2)cc1

>  <score_type>  (33) 
oracle

>  <origin>  (33) 
adg

>  <m_score__min__energy>  (33) 
-9.2799999999999994

>  <m_primary>  (33) 
energy

$$$$
33:0
     RDKit          3D

 49 52  0  0  0  0  0  0  0  0999 V2000
   -3.3530   17.0530  -35.3140 C   0  0  0  0  0  0  0  0  0  0  0  0
   -3.3190   17.7360  -34.0210 N   0  0  0  0  0  0  0  0  0  0  0  0
   -2.0190   18.0190  -33.4160 C   0  0  0  0  0  0  0  0  0  0  0  0
   -4.4870   18.4400  -33.5620 C   0  0  0  0  0  0  0  0  0  0  0  0
   -4.4140   19.8360  -33.3560 C   0  0  0  0  0  0  0  0  0  0  0  0
   -5.5670   20.5040  -32.9640 C   0  0  0  0  0  0  0  0  0  0  0  0
   -5.6950   21.8120  -32.6810 N   0  0  0  0  0  0  0  0  0  0  0  0
   -7.0030   21.9240  -32.3260 C   0  0  0  0  0  0  0  0  0  0  0  0
   -7.5780   23.2160  -31.8140 C   0  0  0  0  0  0  0  0  0  0  0  0
   -7.2670   23.4290  -30.3270 C   0  0  0  0  0  0  0  0  0  0  0  0
   -5.8080   23.7100  -30.1000 C   0  0  0  0  0  0  0  0  0  0  0  0
   -5.1800   24.8070  -30.7090 C   0  0  0  0  0  0  0  0  0  0  0  0
   -3.8490   25.0040  -30.5180 N   0  0  0  0  0  0  0  0  0  0  0  0
   -3.1130   24.1540  -29.7550 C   0  0  0  0  0  0  0  0  0  0  0  0
   -3.7330   23.0560  -29.1560 C   0  0  0  0  0  0  0  0  0  0  0  0
   -5.0640   22.8570  -29.3440 N   0  0  0  0  0  0  0  0  0  0  0  0
   -7.6770   20.7420  -32.3820 N   0  0  0  0  0  0  0  0  0  0  0  0
   -9.0470   20.4520  -31.9570 C   0  0  0  0  0  0  0  0  0  0  0  0
   -6.7490   19.8550  -32.7770 C   0  0  0  0  0  0  0  0  0  0  0  0
   -6.8680   18.4760  -32.9500 C   0  0  0  0  0  0  0  0  0  0  0  0
   -5.7210   17.7500  -33.3450 C   0  0  0  0  0  0  0  0  0  0  0  0
   -5.8220   16.2790  -33.4930 C   0  0  0  0  0  0  0  0  0  0  0  0
   -4.8930   15.4250  -32.8760 C   0  0  0  0  0  0  0  0  0  0  0  0
   -5.0040   14.0420  -33.0290 C   0  0  0  0  0  0  0  0  0  0  0  0
   -6.0500   13.5200  -33.7920 C   0  0  0  0  0  0  0  0  0  0  0  0
   -6.9500   14.3560  -34.3750 N   0  0  0  0  0  0  0  0  0  0  0  0
   -6.8630   15.7070  -34.2430 C   0  0  0  0  0  0  0  0  0  0  0  0
   -3.4071   15.9662  -35.1533 H   0  0  0  0  0  0  0  0  0  0  0  0
   -4.2358   17.3843  -35.8806 H   0  0  0  0  0  0  0  0  0  0  0  0
   -2.4417   17.2949  -35.8806 H   0  0  0  0  0  0  0  0  0  0  0  0
   -2.1123   17.9987  -32.3202 H   0  0  0  0  0  0  0  0  0  0  0  0
   -1.2921   17.2581  -33.7363 H   0  0  0  0  0  0  0  0  0  0  0  0
   -1.6742   19.0132  -33.7363 H   0  0  0  0  0  0  0  0  0  0  0  0
   -3.4689   20.3795  -33.5022 H   0  0  0  0  0  0  0  0  0  0  0  0
   -7.1496   24.0494  -32.3902 H   0  0  0  0  0  0  0  0  0  0  0  0
   -8.6709   23.1741  -31.9319 H   0  0  0  0  0  0  0  0  0  0  0  0
   -7.8561   24.2815  -29.9580 H   0  0  0  0  0  0  0  0  0  0  0  0
   -7.5273   22.5071  -29.7863 H   0  0  0  0  0  0  0  0  0  0  0  0
   -5.7596   25.5011  -31.3352 H   0  0  0  0  0  0  0  0  0  0  0  0
   -2.0368   24.3298  -29.6104 H   0  0  0  0  0  0  0  0  0  0  0  0
   -3.1494   22.3583  -28.5375 H   0  0  0  0  0  0  0  0  0  0  0  0
   -9.0956   20.4417  -30.8581 H   0  0  0  0  0  0  0  0  0  0  0  0
   -9.7236   21.2268  -32.3467 H   0  0  0  0  0  0  0  0  0  0  0  0
   -9.3516   19.4695  -32.3467 H   0  0  0  0  0  0  0  0  0  0  0  0
   -7.8288   17.9669  -32.7835 H   0  0  0  0  0  0  0  0  0  0  0  0
   -4.0767   15.8468  -32.2713 H   0  0  0  0  0  0  0  0  0  0  0  0
   -4.2745   13.3702  -32.5531 H   0  0  0  0  0  0  0  0  0  0  0  0
   -6.1462   12.4319  -33.9216 H   0  0  0  0  0  0  0  0  0  0  0  0
   -7.6105   16.3540  -34.7253 H   0  0  0  0  0  0  0  0  0  0  0  0
  1  2  1  0
  2  3  1  0
  2  4  1  0
  4  5  2  0
  5  6  1  0
  6  7  1  0
  7  8  2  0
  8  9  1  0
  9 10  1  0
 10 11  1  0
 11 12  2  0
 12 13  1  0
 13 14  2  0
 14 15  1  0
 15 16  2  0
  8 17  1  0
 17 18  1  0
 17 19  1  0
 19 20  1  0
 20 21  2  0
 21 22  1  0
 22 23  2  0
 23 24  1  0
 24 25  2  0
 25 26  1  0
 26 27  2  0
 21  4  1  0
 27 22  1  0
 19  6  2  0
 16 11  1  0
  1 28  1  0
  1 29  1  0
  1 30  1  0
  3 31  1  0
  3 32  1  0
  3 33  1  0
  5 34  1  0
  9 35  1  0
  9 36  1  0
 10 37  1  0
 10 38  1  0
 12 39  1  0
 14 40  1  0
 15 41  1  0
 18 42  1  0
 18 43  1  0
 18 44  1  0
 20 45  1  0
 23 46  1  0
 24 47  1  0
 25 48  1  0
 27 49  1  0
M  END
>  <UniqueID>  (34) 
30

>  <SMILES>  (34) 
CN(C)c1cc2nc(CCc3cnccn3)n(C)c2cc1-c1cccnc1

>  <Energy>  (34) 
97.87717204084844

>  <Genealogy>  (34) 
CN(C)c1cc2nc(CCc3cnccn3)n(C)c2cc1-c1cccnc1 (3D coordinates assigned)
CN(C)c1cc2nc(CCc3cnccn3)n(C)c2cc1-c1cccnc1 (optimized conformer: 97.87717204084844 kcal/mol)

>  <smiles>  (34) 
CN(C)c1cc2nc(CCc3cnccn3)n(C)c2cc1-c1cccnc1

>  <score_type>  (34) 
oracle

>  <origin>  (34) 
adg

>  <m_score__min__energy>  (34) 
-8.3200000000000003

>  <m_primary>  (34) 
energy

$$$$
34:0
     RDKit          3D

 30 31  0  0  0  0  0  0  0  0999 V2000
   -5.3650   16.3110  -32.0030 C   0  0  0  0  0  0  0  0  0  0  0  0
   -5.7980   17.1600  -33.1440 N   0  0  0  0  0  0  0  0  0  0  0  0
   -6.4820   16.2780  -34.1220 C   0  0  0  0  0  0  0  0  0  0  0  0
   -4.5770   17.7310  -33.7630 C   0  0  0  0  0  0  0  0  0  0  0  0
   -6.7080   18.2560  -32.7480 C   0  0  0  0  0  0  0  0  0  0  0  0
   -8.0380   17.9630  -32.3510 C   0  0  0  0  0  0  0  0  0  0  0  0
   -8.9280   18.9680  -31.9700 C   0  0  0  0  0  0  0  0  0  0  0  0
   -8.5270   20.3050  -31.9710 C   0  0  0  0  0  0  0  0  0  0  0  0
   -9.4180   21.3200  -31.5890 C   0  0  0  0  0  0  0  0  0  0  0  0
   -9.0050   22.6550  -31.5930 C   0  0  0  0  0  0  0  0  0  0  0  0
   -7.7030   22.9850  -31.9770 C   0  0  0  0  0  0  0  0  0  0  0  0
   -6.8080   21.9820  -32.3590 C   0  0  0  0  0  0  0  0  0  0  0  0
   -7.2110   20.6360  -32.3600 C   0  0  0  0  0  0  0  0  0  0  0  0
   -6.3170   19.6230  -32.7420 C   0  0  0  0  0  0  0  0  0  0  0  0
   -5.6198   16.8107  -31.0568 H   0  0  0  0  0  0  0  0  0  0  0  0
   -5.8775   15.3390  -32.0540 H   0  0  0  0  0  0  0  0  0  0  0  0
   -4.2773   16.1551  -32.0540 H   0  0  0  0  0  0  0  0  0  0  0  0
   -7.0698   15.5200  -33.5836 H   0  0  0  0  0  0  0  0  0  0  0  0
   -7.1513   16.8805  -34.7537 H   0  0  0  0  0  0  0  0  0  0  0  0
   -5.7318   15.7797  -34.7537 H   0  0  0  0  0  0  0  0  0  0  0  0
   -3.8831   18.0555  -32.9736 H   0  0  0  0  0  0  0  0  0  0  0  0
   -4.0907   16.9669  -34.3873 H   0  0  0  0  0  0  0  0  0  0  0  0
   -4.8517   18.5941  -34.3873 H   0  0  0  0  0  0  0  0  0  0  0  0
   -8.3765   16.9164  -32.3433 H   0  0  0  0  0  0  0  0  0  0  0  0
   -9.9522   18.7049  -31.6669 H   0  0  0  0  0  0  0  0  0  0  0  0
  -10.4439   21.0640  -31.2857 H   0  0  0  0  0  0  0  0  0  0  0  0
   -9.7065   23.4475  -31.2932 H   0  0  0  0  0  0  0  0  0  0  0  0
   -7.3815   24.0370  -31.9787 H   0  0  0  0  0  0  0  0  0  0  0  0
   -5.7838   22.2474  -32.6601 H   0  0  0  0  0  0  0  0  0  0  0  0
   -5.2937   19.8923  -33.0426 H   0  0  0  0  0  0  0  0  0  0  0  0
  1  2  1  0
  2  3  1  0
  2  4  1  0
  2  5  1  0
  5  6  2  0
  6  7  1  0
  7  8  2  0
  8  9  1  0
  9 10  2  0
 10 11  1  0
 11 12  2  0
 12 13  1  0
 13 14  2  0
 14  5  1  0
 13  8  1  0
  1 15  1  0
  1 16  1  0
  1 17  1  0
  3 18  1  0
  3 19  1  0
  3 20  1  0
  4 21  1  0
  4 22  1  0
  4 23  1  0
  6 24  1  0
  7 25  1  0
  9 26  1  0
 10 27  1  0
 11 28  1  0
 12 29  1  0
 14 30  1  0
M  CHG  1   2   1
M  END
>  <UniqueID>  (35) 
31

>  <SMILES>  (35) 
C[N+](C)(C)c1ccc2ccccc2c1

>  <Energy>  (35) 
46.332116741241435

>  <Genealogy>  (35) 
C[N+](C)(C)c1ccc2ccccc2c1 (3D coordinates assigned)
C[N+](C)(C)c1ccc2ccccc2c1 (optimized conformer: 46.332116741241435 kcal/mol)

>  <smiles>  (35) 
C[N+](C)(C)c1ccc2ccccc2c1

>  <score_type>  (35) 
oracle

>  <origin>  (35) 
adg

>  <m_score__min__energy>  (35) 
-5.75

>  <m_primary>  (35) 
energy

$$$$
35:0
     RDKit          3D

 34 36  0  0  0  0  0  0  0  0999 V2000
   -7.5650   23.7680  -33.0160 O   0  0  0  0  0  0  0  0  0  0  0  0
   -7.7450   22.4630  -31.9740 S   0  0  0  0  0  0  0  0  0  0  0  0
   -7.5010   22.9350  -30.2710 C   0  0  0  0  0  0  0  0  0  0  0  0
   -6.1270   23.5130  -30.0780 C   0  0  0  0  0  0  0  0  0  0  0  0
   -5.1230   22.7630  -29.4420 C   0  0  0  0  0  0  0  0  0  0  0  0
   -3.8280   23.2760  -29.3230 C   0  0  0  0  0  0  0  0  0  0  0  0
   -3.5260   24.5390  -29.8390 C   0  0  0  0  0  0  0  0  0  0  0  0
   -4.5170   25.2900  -30.4760 C   0  0  0  0  0  0  0  0  0  0  0  0
   -5.8130   24.7800  -30.5990 C   0  0  0  0  0  0  0  0  0  0  0  0
   -6.7210   21.1190  -32.4640 C   0  0  0  0  0  0  0  0  0  0  0  0
   -5.3560   21.3460  -32.6760 C   0  0  0  0  0  0  0  0  0  0  0  0
   -4.4930   20.2940  -33.0310 C   0  0  0  0  0  0  0  0  0  0  0  0
   -3.0420   20.5470  -33.2140 C   0  0  0  0  0  0  0  0  0  0  0  0
   -2.2170   20.0400  -34.2200 C   0  0  0  0  0  0  0  0  0  0  0  0
   -0.9150   20.4270  -34.1480 N   0  0  0  0  0  0  0  0  0  0  0  0
   -0.6750   21.2390  -33.0970 C   0  0  0  0  0  0  0  0  0  0  0  0
   -2.0780   21.5080  -32.2160 S   0  0  0  0  0  0  0  0  0  0  0  0
   -5.0330   19.0030  -33.1890 C   0  0  0  0  0  0  0  0  0  0  0  0
   -6.3980   18.7770  -32.9940 C   0  0  0  0  0  0  0  0  0  0  0  0
   -7.2470   19.8250  -32.6310 C   0  0  0  0  0  0  0  0  0  0  0  0
   -9.1060   19.4450  -32.3570 Br  0  0  0  0  0  0  0  0  0  0  0  0
   -6.8470   23.4910  -33.6380 H   0  0  0  0  0  0  0  0  0  0  0  0
   -8.2531   23.6878  -29.9924 H   0  0  0  0  0  0  0  0  0  0  0  0
   -7.6048   22.0431  -29.6356 H   0  0  0  0  0  0  0  0  0  0  0  0
   -5.3572   21.7678  -29.0360 H   0  0  0  0  0  0  0  0  0  0  0  0
   -3.0464   22.6852  -28.8230 H   0  0  0  0  0  0  0  0  0  0  0  0
   -2.5071   24.9423  -29.7436 H   0  0  0  0  0  0  0  0  0  0  0  0
   -4.2773   26.2841  -30.8814 H   0  0  0  0  0  0  0  0  0  0  0  0
   -6.5894   25.3724  -31.1052 H   0  0  0  0  0  0  0  0  0  0  0  0
   -4.9522   22.3630  -32.5631 H   0  0  0  0  0  0  0  0  0  0  0  0
   -2.5925   19.3762  -35.0127 H   0  0  0  0  0  0  0  0  0  0  0  0
    0.3080   21.6670  -32.8509 H   0  0  0  0  0  0  0  0  0  0  0  0
   -4.3754   18.1665  -33.4679 H   0  0  0  0  0  0  0  0  0  0  0  0
   -6.8076   17.7649  -33.1275 H   0  0  0  0  0  0  0  0  0  0  0  0
  2  1  1  6
  2  3  1  0
  3  4  1  0
  4  5  2  0
  5  6  1  0
  6  7  2  0
  7  8  1  0
  8  9  2  0
  2 10  1  0
 10 11  2  0
 11 12  1  0
 12 13  1  0
 13 14  2  0
 14 15  1  0
 15 16  2  0
 16 17  1  0
 12 18  2  0
 18 19  1  0
 19 20  2  0
 20 21  1  0
  9  4  1  0
 20 10  1  0
 17 13  1  0
  1 22  1  0
  3 23  1  0
  3 24  1  0
  5 25  1  0
  6 26  1  0
  7 27  1  0
  8 28  1  0
  9 29  1  0
 11 30  1  0
 14 31  1  0
 16 32  1  0
 18 33  1  0
 19 34  1  0
M  CHG  1   2   1
M  END
>  <UniqueID>  (36) 
32

>  <SMILES>  (36) 
O[S@+](Cc1ccccc1)c1cc(-c2cncs2)ccc1Br

>  <Energy>  (36) 
62.13159156448109

>  <Genealogy>  (36) 
O[S+](Cc1ccccc1)c1cc(-c2cncs2)ccc1Br (protonated)
O[S@+](Cc1ccccc1)c1cc(-c2cncs2)ccc1Br (chirality)
O[S@+](Cc1ccccc1)c1cc(-c2cncs2)ccc1Br (3D coordinates assigned)
O[S@+](Cc1ccccc1)c1cc(-c2cncs2)ccc1Br (optimized conformer: 62.13159156448109 kcal/mol)

>  <smiles>  (36) 
[O-][S+](Cc1ccccc1)c1cc(-c2cncs2)ccc1Br

>  <score_type>  (36) 
oracle

>  <origin>  (36) 
adg

>  <m_score__min__energy>  (36) 
-7.8099999999999996

>  <m_primary>  (36) 
energy

$$$$
36:0
     RDKit          3D

 46 48  0  0  0  0  0  0  0  0999 V2000
   -8.0190   18.0880  -32.0410 C   0  0  0  0  0  0  0  0  0  0  0  0
   -7.3400   19.1920  -32.6320 O   0  0  0  0  0  0  0  0  0  0  0  0
   -7.6200   20.5420  -32.3620 C   0  0  0  0  0  0  0  0  0  0  0  0
   -8.9210   20.9720  -32.0340 C   0  0  0  0  0  0  0  0  0  0  0  0
   -9.1860   22.3250  -31.8150 C   0  0  0  0  0  0  0  0  0  0  0  0
   -8.1620   23.2650  -31.9230 C   0  0  0  0  0  0  0  0  0  0  0  0
   -6.8660   22.8540  -32.2390 C   0  0  0  0  0  0  0  0  0  0  0  0
   -6.5780   21.4940  -32.4460 C   0  0  0  0  0  0  0  0  0  0  0  0
   -5.1890   21.0910  -32.7630 C   0  0  0  0  0  0  0  0  0  0  0  0
   -4.8400   19.9020  -33.3130 N   0  0  0  0  0  0  0  0  0  0  0  0
   -3.4960   19.7760  -33.4910 C   0  0  0  0  0  0  0  0  0  0  0  0
   -2.8850   18.5550  -34.1080 C   0  0  0  0  0  0  0  0  0  0  0  0
   -2.7530   20.8780  -33.0610 C   0  0  0  0  0  0  0  0  0  0  0  0
   -1.2730   21.0600  -33.1790 C   0  0  0  0  0  0  0  0  0  0  0  0
   -0.8670   20.8450  -34.5740 N   0  0  0  0  0  0  0  0  0  0  0  0
    0.5930   20.7520  -34.7000 C   0  0  0  0  0  0  0  0  0  0  0  0
    1.1460   22.0130  -35.3150 C   0  0  0  0  0  0  0  0  0  0  0  0
    0.2850   23.0380  -35.5720 N   0  0  0  0  0  0  0  0  0  0  0  0
    0.7010   24.2210  -36.0910 C   0  0  0  0  0  0  0  0  0  0  0  0
    2.0500   24.4220  -36.3760 C   0  0  0  0  0  0  0  0  0  0  0  0
    2.9620   23.3980  -36.1240 C   0  0  0  0  0  0  0  0  0  0  0  0
    2.5260   22.1770  -35.5870 C   0  0  0  0  0  0  0  0  0  0  0  0
    3.5230   21.0800  -35.3250 C   0  0  0  0  0  0  0  0  0  0  0  0
   -3.8230   22.0320  -32.4640 S   0  0  0  0  0  0  0  0  0  0  0  0
   -7.9684   18.1703  -30.9453 H   0  0  0  0  0  0  0  0  0  0  0  0
   -9.0715   18.0911  -32.3607 H   0  0  0  0  0  0  0  0  0  0  0  0
   -7.5415   17.1500  -32.3607 H   0  0  0  0  0  0  0  0  0  0  0  0
   -9.7341   20.2360  -31.9498 H   0  0  0  0  0  0  0  0  0  0  0  0
  -10.2046   22.6501  -31.5567 H   0  0  0  0  0  0  0  0  0  0  0  0
   -8.3756   24.3315  -31.7590 H   0  0  0  0  0  0  0  0  0  0  0  0
   -6.0632   23.6009  -32.3268 H   0  0  0  0  0  0  0  0  0  0  0  0
   -5.5220   19.1460  -33.5490 H   0  0  0  0  0  0  0  0  0  0  0  0
   -2.5444   17.8743  -33.3139 H   0  0  0  0  0  0  0  0  0  0  0  0
   -3.6342   18.0452  -34.7315 H   0  0  0  0  0  0  0  0  0  0  0  0
   -2.0278   18.8491  -34.7315 H   0  0  0  0  0  0  0  0  0  0  0  0
   -1.0026   22.0807  -32.8708 H   0  0  0  0  0  0  0  0  0  0  0  0
   -0.7598   20.3351  -32.5300 H   0  0  0  0  0  0  0  0  0  0  0  0
   -1.1860   21.6720  -35.1300 H   0  0  0  0  0  0  0  0  0  0  0  0
    1.0351   20.6104  -33.7028 H   0  0  0  0  0  0  0  0  0  0  0  0
    0.8429   19.8985  -35.3473 H   0  0  0  0  0  0  0  0  0  0  0  0
   -0.0273   25.0217  -36.2868 H   0  0  0  0  0  0  0  0  0  0  0  0
    2.3922   25.3794  -36.7958 H   0  0  0  0  0  0  0  0  0  0  0  0
    4.0286   23.5479  -36.3472 H   0  0  0  0  0  0  0  0  0  0  0  0
    3.6444   20.9464  -34.2399 H   0  0  0  0  0  0  0  0  0  0  0  0
    3.1619   20.1419  -35.7718 H   0  0  0  0  0  0  0  0  0  0  0  0
    4.4912   21.3501  -35.7718 H   0  0  0  0  0  0  0  0  0  0  0  0
  1  2  1  0
  2  3  1  0
  3  4  2  0
  4  5  1  0
  5  6  2  0
  6  7  1  0
  7  8  2  0
  8  9  1  0
  9 10  2  0
 10 11  1  0
 11 12  1  0
 11 13  2  0
 13 14  1  0
 14 15  1  0
 15 16  1  0
 16 17  1  0
 17 18  2  0
 18 19  1  0
 19 20  2  0
 20 21  1  0
 21 22  2  0
 22 23  1  0
 13 24  1  0
  8  3  1  0
 24  9  1  0
 22 17  1  0
  1 25  1  0
  1 26  1  0
  1 27  1  0
  4 28  1  0
  5 29  1  0
  6 30  1  0
  7 31  1  0
 10 32  1  0
 12 33  1  0
 12 34  1  0
 12 35  1  0
 14 36  1  0
 14 37  1  0
 15 38  1  0
 16 39  1  0
 16 40  1  0
 19 41  1  0
 20 42  1  0
 21 43  1  0
 23 44  1  0
 23 45  1  0
 23 46  1  0
M  CHG  1  10   1
M  END
>  <UniqueID>  (37) 
33

>  <SMILES>  (37) 
COc1ccccc1-c1[nH+]c(C)c(CNCc2ncccc2C)s1

>  <Energy>  (37) 
77.49580018819483

>  <Genealogy>  (37) 
COc1ccccc1-c1[nH+]c(C)c(CNCc2ncccc2C)s1 (protonated)
COc1ccccc1-c1[nH+]c(C)c(CNCc2ncccc2C)s1 (3D coordinates assigned)
COc1ccccc1-c1[nH+]c(C)c(CNCc2ncccc2C)s1 (optimized conformer: 77.49580018819483 kcal/mol)

>  <smiles>  (37) 
COc1ccccc1-c1nc(C)c(CNCc2ncccc2C)s1

>  <score_type>  (37) 
oracle

>  <origin>  (37) 
adg

>  <m_score__min__energy>  (37) 
-7.8700000000000001

>  <m_primary>  (37) 
energy

$$$$
37:0
     RDKit          3D

 72 72  0  0  0  0  0  0  0  0999 V2000
   -3.6670   18.1490  -34.2640 C   0  0  0  0  0  0  0  0  0  0  0  0
   -4.5980   17.2030  -35.0160 C   0  0  0  0  0  0  0  0  0  0  0  0
   -6.0610   17.4150  -34.6090 C   0  0  0  0  0  0  0  0  0  0  0  0
   -6.4070   16.5380  -33.4680 N   0  0  0  0  0  0  0  0  0  0  0  0
   -5.7400   15.2170  -33.5760 C   0  0  0  0  0  0  0  0  0  0  0  0
   -4.6930   15.0510  -32.4650 C   0  0  0  0  0  0  0  0  0  0  0  0
   -4.5770   13.5990  -32.0140 C   0  0  0  0  0  0  0  0  0  0  0  0
   -6.1570   17.1920  -32.1580 C   0  0  0  0  0  0  0  0  0  0  0  0
   -6.8560   18.5230  -32.1290 C   0  0  0  0  0  0  0  0  0  0  0  0
   -6.1420   19.7020  -32.3960 C   0  0  0  0  0  0  0  0  0  0  0  0
   -6.7610   20.9480  -32.2570 C   0  0  0  0  0  0  0  0  0  0  0  0
   -8.1110   21.0310  -31.8770 C   0  0  0  0  0  0  0  0  0  0  0  0
   -8.7430   22.3710  -31.5970 C   0  0  0  0  0  0  0  0  0  0  0  0
   -7.7050   23.4110  -31.5820 N   0  0  0  0  0  0  0  0  0  0  0  0
   -6.9360   23.3930  -30.3300 C   0  0  0  0  0  0  0  0  0  0  0  0
   -6.4600   24.8130  -29.9570 C   0  0  0  0  0  0  0  0  0  0  0  0
   -5.4720   25.4090  -30.9830 C   0  0  0  0  0  0  0  0  0  0  0  0
   -4.0990   25.3300  -30.4610 N   0  0  0  0  0  0  0  0  0  0  0  0
   -4.0120   24.4820  -29.2630 C   0  0  0  0  0  0  0  0  0  0  0  0
   -2.6660   23.7370  -29.1680 C   0  0  0  0  0  0  0  0  0  0  0  0
   -2.7610   22.2300  -29.4840 C   0  0  0  0  0  0  0  0  0  0  0  0
   -3.8150   21.9160  -30.5590 C   0  0  0  0  0  0  0  0  0  0  0  0
   -3.6220   22.7720  -31.7360 N   0  0  0  0  0  0  0  0  0  0  0  0
   -3.7970   22.0470  -33.0050 C   0  0  0  0  0  0  0  0  0  0  0  0
   -2.5850   21.1750  -33.3510 C   0  0  0  0  0  0  0  0  0  0  0  0
   -8.8290   19.8520  -31.6260 C   0  0  0  0  0  0  0  0  0  0  0  0
   -8.2050   18.6090  -31.7460 C   0  0  0  0  0  0  0  0  0  0  0  0
   -3.8018   18.0120  -33.1809 H   0  0  0  0  0  0  0  0  0  0  0  0
   -2.6238   17.9286  -34.5344 H   0  0  0  0  0  0  0  0  0  0  0  0
   -3.9041   19.1886  -34.5344 H   0  0  0  0  0  0  0  0  0  0  0  0
   -4.4972   17.3856  -36.0960 H   0  0  0  0  0  0  0  0  0  0  0  0
   -4.3160   16.1695  -34.7662 H   0  0  0  0  0  0  0  0  0  0  0  0
   -6.2084   18.4654  -34.3175 H   0  0  0  0  0  0  0  0  0  0  0  0
   -6.7101   17.1669  -35.4617 H   0  0  0  0  0  0  0  0  0  0  0  0
   -6.4945   14.4219  -33.4841 H   0  0  0  0  0  0  0  0  0  0  0  0
   -5.2368   15.1512  -34.5519 H   0  0  0  0  0  0  0  0  0  0  0  0
   -3.7158   15.3865  -32.8426 H   0  0  0  0  0  0  0  0  0  0  0  0
   -5.0094   15.6547  -31.6016 H   0  0  0  0  0  0  0  0  0  0  0  0
   -4.5735   13.5556  -30.9149 H   0  0  0  0  0  0  0  0  0  0  0  0
   -5.4322   13.0254  -32.4009 H   0  0  0  0  0  0  0  0  0  0  0  0
   -3.6416   13.1685  -32.4009 H   0  0  0  0  0  0  0  0  0  0  0  0
   -6.5443   16.5553  -31.3489 H   0  0  0  0  0  0  0  0  0  0  0  0
   -5.0758   17.3390  -32.0185 H   0  0  0  0  0  0  0  0  0  0  0  0
   -5.0911   19.6452  -32.7159 H   0  0  0  0  0  0  0  0  0  0  0  0
   -6.1881   21.8678  -32.4461 H   0  0  0  0  0  0  0  0  0  0  0  0
   -9.4794   22.5998  -32.3815 H   0  0  0  0  0  0  0  0  0  0  0  0
   -9.2451   22.3413  -30.6187 H   0  0  0  0  0  0  0  0  0  0  0  0
   -8.1720   24.3440  -31.6790 H   0  0  0  0  0  0  0  0  0  0  0  0
   -7.0570   23.2540  -32.3900 H   0  0  0  0  0  0  0  0  0  0  0  0
   -7.5720   23.0023  -29.5220 H   0  0  0  0  0  0  0  0  0  0  0  0
   -6.0536   22.7509  -30.4681 H   0  0  0  0  0  0  0  0  0  0  0  0
   -7.3388   25.4716  -29.8937 H   0  0  0  0  0  0  0  0  0  0  0  0
   -5.9305   24.7397  -28.9956 H   0  0  0  0  0  0  0  0  0  0  0  0
   -5.5376   24.8428  -31.9238 H   0  0  0  0  0  0  0  0  0  0  0  0
   -5.7302   26.4628  -31.1642 H   0  0  0  0  0  0  0  0  0  0  0  0
   -3.5040   24.8890  -31.2050 H   0  0  0  0  0  0  0  0  0  0  0  0
   -4.1286   25.1162  -28.3718 H   0  0  0  0  0  0  0  0  0  0  0  0
   -4.8097   23.7273  -29.3272 H   0  0  0  0  0  0  0  0  0  0  0  0
   -1.9650   24.1965  -29.8803 H   0  0  0  0  0  0  0  0  0  0  0  0
   -2.3266   23.8234  -28.1253 H   0  0  0  0  0  0  0  0  0  0  0  0
   -1.7801   21.8823  -29.8403 H   0  0  0  0  0  0  0  0  0  0  0  0
   -3.0635   21.7146  -28.5605 H   0  0  0  0  0  0  0  0  0  0  0  0
   -3.7224   20.8618  -30.8593 H   0  0  0  0  0  0  0  0  0  0  0  0
   -4.8150   22.1059  -30.1420 H   0  0  0  0  0  0  0  0  0  0  0  0
   -4.3050   23.5670  -31.6900 H   0  0  0  0  0  0  0  0  0  0  0  0
   -4.6846   21.4023  -32.9241 H   0  0  0  0  0  0  0  0  0  0  0  0
   -3.9128   22.7933  -33.8047 H   0  0  0  0  0  0  0  0  0  0  0  0
   -2.1050   20.8297  -32.4235 H   0  0  0  0  0  0  0  0  0  0  0  0
   -2.9146   20.3057  -33.9389 H   0  0  0  0  0  0  0  0  0  0  0  0
   -1.8655   21.7638  -33.9389 H   0  0  0  0  0  0  0  0  0  0  0  0
   -9.8879   19.9073  -31.3335 H   0  0  0  0  0  0  0  0  0  0  0  0
   -8.7736   17.6903  -31.5392 H   0  0  0  0  0  0  0  0  0  0  0  0
  1  2  1  0
  2  3  1  0
  3  4  1  0
  4  5  1  0
  5  6  1  0
  6  7  1  0
  4  8  1  0
  8  9  1  0
  9 10  2  0
 10 11  1  0
 11 12  2  0
 12 13  1  0
 13 14  1  0
 14 15  1  0
 15 16  1  0
 16 17  1  0
 17 18  1  0
 18 19  1  0
 19 20  1  0
 20 21  1  0
 21 22  1  0
 22 23  1  0
 23 24  1  0
 24 25  1  0
 12 26  1  0
 26 27  2  0
 27  9  1  0
  1 28  1  0
  1 29  1  0
  1 30  1  0
  2 31  1  0
  2 32  1  0
  3 33  1  0
  3 34  1  0
  5 35  1  0
  5 36  1  0
  6 37  1  0
  6 38  1  0
  7 39  1  0
  7 40  1  0
  7 41  1  0
  8 42  1  0
  8 43  1  0
 10 44  1  0
 11 45  1  0
 13 46  1  0
 13 47  1  0
 14 48  1  0
 14 49  1  0
 15 50  1  0
 15 51  1  0
 16 52  1  0
 16 53  1  0
 17 54  1  0
 17 55  1  0
 18 56  1  0
 19 57  1  0
 19 58  1  0
 20 59  1  0
 20 60  1  0
 21 61  1  0
 21 62  1  0
 22 63  1  0
 22 64  1  0
 23 65  1  0
 24 66  1  0
 24 67  1  0
 25 68  1  0
 25 69  1  0
 25 70  1  0
 26 71  1  0
 27 72  1  0
M  CHG  1  14   1
M  END
>  <UniqueID>  (38) 
34

>  <SMILES>  (38) 
CCCN(CCC)Cc1ccc(C[NH2+]CCCNCCCCNCC)cc1

>  <Energy>  (38) 
49.28908444349337

>  <Genealogy>  (38) 
CCCN(CCC)Cc1ccc(C[NH2+]CCCNCCCCNCC)cc1 (protonated)
CCCN(CCC)Cc1ccc(C[NH2+]CCCNCCCCNCC)cc1 (3D coordinates assigned)
CCCN(CCC)Cc1ccc(C[NH2+]CCCNCCCCNCC)cc1 (optimized conformer: 49.28908444349337 kcal/mol)

>  <smiles>  (38) 
CCCN(CCC)Cc1ccc(CNCCCNCCCCNCC)cc1

>  <score_type>  (38) 
oracle

>  <origin>  (38) 
adg

>  <m_score__min__energy>  (38) 
-7.1399999999999997

>  <m_primary>  (38) 
energy

$$$$
38:0
     RDKit          3D

 59 59  0  0  0  0  0  0  0  0999 V2000
   -2.5542   23.1492  -31.1356 H   0  0  0  0  0  0  0  0  0  0  0  0
   -2.4850   23.4210  -30.0720 C   0  0  0  0  0  0  0  0  0  0  0  0
   -1.5731   23.9866  -29.8302 H   0  0  0  0  0  0  0  0  0  0  0  0
   -3.6510   24.3240  -29.7390 C   0  0  0  0  0  0  0  0  0  0  0  0
   -3.8650   25.2890  -30.4570 O   0  0  0  0  0  0  0  0  0  0  0  0
   -4.5710   24.0790  -28.5700 C   0  0  0  0  0  0  0  0  0  0  0  0
   -5.5149   23.6559  -28.9441 H   0  0  0  0  0  0  0  0  0  0  0  0
   -4.7379   25.0408  -28.0630 H   0  0  0  0  0  0  0  0  0  0  0  0
   -3.9660   23.1120  -27.5560 C   0  0  0  0  0  0  0  0  0  0  0  0
   -4.7261   22.8580  -26.8026 H   0  0  0  0  0  0  0  0  0  0  0  0
   -3.1009   23.5972  -27.0804 H   0  0  0  0  0  0  0  0  0  0  0  0
   -3.4930   21.8330  -28.2390 C   0  0  0  0  0  0  0  0  0  0  0  0
   -4.3465   21.3552  -28.7422 H   0  0  0  0  0  0  0  0  0  0  0  0
   -3.0737   21.1590  -27.4775 H   0  0  0  0  0  0  0  0  0  0  0  0
   -2.4260   22.1380  -29.2570 C   0  0  0  0  0  0  0  0  0  0  0  0
   -1.5020   21.2480  -29.4400 N   0  0  0  0  0  0  0  0  0  0  0  0
   -1.4280   20.2880  -30.5270 C   0  0  0  0  0  0  0  0  0  0  0  0
   -2.3396   19.6724  -30.5293 H   0  0  0  0  0  0  0  0  0  0  0  0
   -0.5423   19.6522  -30.3812 H   0  0  0  0  0  0  0  0  0  0  0  0
   -1.3040   21.0110  -31.8720 C   0  0  0  0  0  0  0  0  0  0  0  0
   -0.3486   20.7298  -32.3390 H   0  0  0  0  0  0  0  0  0  0  0  0
   -1.3516   22.0931  -31.6804 H   0  0  0  0  0  0  0  0  0  0  0  0
   -2.4510   20.6490  -32.8320 C   0  0  0  0  0  0  0  0  0  0  0  0
   -2.7369   19.6011  -32.6584 H   0  0  0  0  0  0  0  0  0  0  0  0
   -2.0868   20.8086  -33.8576 H   0  0  0  0  0  0  0  0  0  0  0  0
   -3.6940   21.5360  -32.6390 C   0  0  0  0  0  0  0  0  0  0  0  0
   -3.5623   22.4482  -33.2395 H   0  0  0  0  0  0  0  0  0  0  0  0
   -3.7700   21.7396  -31.5607 H   0  0  0  0  0  0  0  0  0  0  0  0
   -5.0250   20.8700  -33.0570 C   0  0  0  0  0  0  0  0  0  0  0  0
   -4.9315   20.5383  -34.1016 H   0  0  0  0  0  0  0  0  0  0  0  0
   -5.8131   21.6247  -32.9180 H   0  0  0  0  0  0  0  0  0  0  0  0
   -5.4210   19.6530  -32.1970 C   0  0  0  0  0  0  0  0  0  0  0  0
   -5.6970   20.0190  -31.1971 H   0  0  0  0  0  0  0  0  0  0  0  0
   -4.5477   18.9842  -32.1962 H   0  0  0  0  0  0  0  0  0  0  0  0
   -6.5960   18.8180  -32.7390 C   0  0  0  0  0  0  0  0  0  0  0  0
   -6.1807   17.9248  -33.2286 H   0  0  0  0  0  0  0  0  0  0  0  0
   -7.1487   19.4789  -33.4229 H   0  0  0  0  0  0  0  0  0  0  0  0
   -7.6170   18.3500  -31.6800 C   0  0  0  0  0  0  0  0  0  0  0  0
   -7.3045   18.7515  -30.7048 H   0  0  0  0  0  0  0  0  0  0  0  0
   -7.6188   17.2508  -31.7216 H   0  0  0  0  0  0  0  0  0  0  0  0
   -9.0690   18.7900  -31.9330 C   0  0  0  0  0  0  0  0  0  0  0  0
   -9.6391   18.6781  -30.9989 H   0  0  0  0  0  0  0  0  0  0  0  0
   -9.4753   18.1550  -32.7341 H   0  0  0  0  0  0  0  0  0  0  0  0
   -9.1700   20.2520  -32.4000 C   0  0  0  0  0  0  0  0  0  0  0  0
  -10.1318   20.3906  -32.9155 H   0  0  0  0  0  0  0  0  0  0  0  0
   -8.3175   20.4460  -33.0675 H   0  0  0  0  0  0  0  0  0  0  0  0
   -9.0860   21.2570  -31.2370 C   0  0  0  0  0  0  0  0  0  0  0  0
   -8.4567   20.8154  -30.4502 H   0  0  0  0  0  0  0  0  0  0  0  0
  -10.1223   21.4424  -30.9179 H   0  0  0  0  0  0  0  0  0  0  0  0
   -8.4970   22.6350  -31.6020 C   0  0  0  0  0  0  0  0  0  0  0  0
   -9.1657   23.4132  -31.2054 H   0  0  0  0  0  0  0  0  0  0  0  0
   -8.4149   22.6660  -32.6985 H   0  0  0  0  0  0  0  0  0  0  0  0
   -7.0810   22.8800  -31.0410 C   0  0  0  0  0  0  0  0  0  0  0  0
   -6.5587   21.9146  -30.9688 H   0  0  0  0  0  0  0  0  0  0  0  0
   -7.1908   23.3565  -30.0556 H   0  0  0  0  0  0  0  0  0  0  0  0
   -6.2550   23.8190  -31.9200 C   0  0  0  0  0  0  0  0  0  0  0  0
   -5.6630   24.4920  -31.2824 H   0  0  0  0  0  0  0  0  0  0  0  0
   -5.5794   23.2271  -32.5551 H   0  0  0  0  0  0  0  0  0  0  0  0
   -6.9282   24.4136  -32.5551 H   0  0  0  0  0  0  0  0  0  0  0  0
  1  2  1  0
  2  3  1  0
  2  4  1  0
  4  5  2  0
  4  6  1  0
  6  7  1  0
  6  8  1  0
  6  9  1  0
  9 10  1  0
  9 11  1  0
  9 12  1  0
 12 13  1  0
 12 14  1  0
 12 15  1  0
 15 16  2  0
 16 17  1  0
 17 18  1  0
 17 19  1  0
 17 20  1  0
 20 21  1  0
 20 22  1  0
 20 23  1  0
 23 24  1  0
 23 25  1  0
 23 26  1  0
 26 27  1  0
 26 28  1  0
 26 29  1  0
 29 30  1  0
 29 31  1  0
 29 32  1  0
 32 33  1  0
 32 34  1  0
 32 35  1  0
 35 36  1  0
 35 37  1  0
 35 38  1  0
 38 39  1  0
 38 40  1  0
 38 41  1  0
 41 42  1  0
 41 43  1  0
 41 44  1  0
 44 45  1  0
 44 46  1  0
 44 47  1  0
 47 48  1  0
 47 49  1  0
 47 50  1  0
 50 51  1  0
 50 52  1  0
 50 53  1  0
 53 54  1  0
 53 55  1  0
 53 56  1  0
 56 57  1  0
 56 58  1  0
 56 59  1  0
 15  2  1  0
M  END
>  <UniqueID>  (39) 
35

>  <SMILES>  (39) 
CCCCCCCCCCCCCC/N=C1/CCCC(=O)C1

>  <Energy>  (39) 
37.178844523830165

>  <Genealogy>  (39) 
CCCCCCCCCCCCCC/N=C1/CCCC(=O)C1 (cis-trans isomerization)
CCCCCCCCCCCCCC/N=C1/CCCC(=O)C1 (3D coordinates assigned)
CCCCCCCCCCCCCC/N=C1/CCCC(=O)C1 (nonaromatic ring conformer: 37.178844523830165 kcal/mol)

>  <smiles>  (39) 
CCCCCCCCCCCCCCN=C1CCCC(=O)C1

>  <score_type>  (39) 
oracle

>  <origin>  (39) 
adg

>  <m_score__min__energy>  (39) 
-7.5099999999999998

>  <m_primary>  (39) 
energy

$$$$
39:0
     RDKit          3D

 57 58  0  0  0  0  0  0  0  0999 V2000
   -0.4990   23.2400  -28.9950 C   0  0  0  0  0  0  0  0  0  0  0  0
   -0.8070   24.7150  -28.7450 C   0  0  0  0  0  0  0  0  0  0  0  0
   -2.2900   24.9490  -28.4060 C   0  0  2  0  0  0  0  0  0  0  0  0
   -2.4960   24.9750  -26.8890 C   0  0  0  0  0  0  0  0  0  0  0  0
   -3.1180   23.8880  -28.9890 N   0  0  0  0  0  0  0  0  0  0  0  0
   -3.9330   24.0810  -30.1580 C   0  0  0  0  0  0  0  0  0  0  0  0
   -3.8870   25.1870  -30.7670 O   0  0  0  0  0  0  0  0  0  0  0  0
   -4.7960   22.9370  -30.6990 C   0  0  0  0  0  0  0  0  0  0  0  0
   -3.9100   21.6820  -31.0360 C   0  0  0  0  0  0  0  0  0  0  0  0
   -3.1470   21.7180  -32.4000 C   0  0  0  0  0  0  0  0  0  0  0  0
   -1.6420   21.4890  -32.1950 C   0  0  0  0  0  0  0  0  0  0  0  0
   -3.6840   20.6610  -33.3800 C   0  0  0  0  0  0  0  0  0  0  0  0
   -5.5460   23.4330  -31.9740 C   0  0  0  0  0  0  0  0  0  0  0  0
   -6.7150   22.5150  -32.3620 C   0  0  0  0  0  0  0  0  0  0  0  0
   -7.6220   22.2900  -31.2280 N   0  0  0  0  0  0  0  0  0  0  0  0
   -8.8950   21.6430  -31.4360 C   0  0  0  0  0  0  0  0  0  0  0  0
   -9.8710   21.9230  -30.6870 O   0  0  0  0  0  0  0  0  0  0  0  0
   -9.0930   20.6360  -32.5340 C   0  0  0  0  0  0  0  0  0  0  0  0
   -8.0470   19.6180  -32.5000 N   0  0  0  0  0  0  0  0  0  0  0  0
   -7.9790   18.5860  -31.6380 C   0  0  0  0  0  0  0  0  0  0  0  0
   -6.8630   17.8400  -31.9460 C   0  0  0  0  0  0  0  0  0  0  0  0
   -6.2970   18.4850  -33.0300 C   0  0  0  0  0  0  0  0  0  0  0  0
   -7.0380   19.5620  -33.3530 N   0  0  0  0  0  0  0  0  0  0  0  0
   -7.2830   22.8370  -29.9090 C   0  0  0  0  0  0  0  0  0  0  0  0
   -5.8190   22.5230  -29.5740 C   0  0  0  0  0  0  0  0  0  0  0  0
   -0.3904   22.7198  -28.0319 H   0  0  0  0  0  0  0  0  0  0  0  0
   -1.3216   22.7854  -29.5666 H   0  0  0  0  0  0  0  0  0  0  0  0
    0.4368   23.1526  -29.5666 H   0  0  0  0  0  0  0  0  0  0  0  0
   -0.1913   25.0681  -27.9046 H   0  0  0  0  0  0  0  0  0  0  0  0
   -0.5796   25.2690  -29.6677 H   0  0  0  0  0  0  0  0  0  0  0  0
   -2.5891   25.9199  -28.8279 H   0  0  0  0  0  0  0  0  0  0  0  0
   -1.5259   24.8526  -26.3851 H   0  0  0  0  0  0  0  0  0  0  0  0
   -2.9426   25.9366  -26.5960 H   0  0  0  0  0  0  0  0  0  0  0  0
   -3.1675   24.1545  -26.5960 H   0  0  0  0  0  0  0  0  0  0  0  0
   -3.0320   22.9310  -28.5840 H   0  0  0  0  0  0  0  0  0  0  0  0
   -3.1621   21.5755  -30.2365 H   0  0  0  0  0  0  0  0  0  0  0  0
   -4.6132   20.8399  -31.1158 H   0  0  0  0  0  0  0  0  0  0  0  0
   -3.3128   22.7173  -32.8289 H   0  0  0  0  0  0  0  0  0  0  0  0
   -1.4196   21.4552  -31.1183 H   0  0  0  0  0  0  0  0  0  0  0  0
   -1.3494   20.5360  -32.6600 H   0  0  0  0  0  0  0  0  0  0  0  0
   -1.0792   22.3119  -32.6600 H   0  0  0  0  0  0  0  0  0  0  0  0
   -4.1113   19.8200  -32.8142 H   0  0  0  0  0  0  0  0  0  0  0  0
   -4.4631   21.1104  -34.0133 H   0  0  0  0  0  0  0  0  0  0  0  0
   -2.8616   20.2968  -34.0133 H   0  0  0  0  0  0  0  0  0  0  0  0
   -5.9386   24.4425  -31.7823 H   0  0  0  0  0  0  0  0  0  0  0  0
   -4.8277   23.4305  -32.8071 H   0  0  0  0  0  0  0  0  0  0  0  0
   -7.2786   22.9816  -33.1834 H   0  0  0  0  0  0  0  0  0  0  0  0
   -6.3028   21.5435  -32.6724 H   0  0  0  0  0  0  0  0  0  0  0  0
  -10.0721   20.1512  -32.4062 H   0  0  0  0  0  0  0  0  0  0  0  0
   -9.0464   21.1566  -33.5019 H   0  0  0  0  0  0  0  0  0  0  0  0
   -8.6920   18.3750  -30.8274 H   0  0  0  0  0  0  0  0  0  0  0  0
   -6.5019   16.9318  -31.4412 H   0  0  0  0  0  0  0  0  0  0  0  0
   -5.3810   18.1669  -33.5494 H   0  0  0  0  0  0  0  0  0  0  0  0
   -7.4295   23.9272  -29.9176 H   0  0  0  0  0  0  0  0  0  0  0  0
   -7.9343   22.3803  -29.1493 H   0  0  0  0  0  0  0  0  0  0  0  0
   -5.5533   23.0600  -28.6515 H   0  0  0  0  0  0  0  0  0  0  0  0
   -5.7464   21.4306  -29.4670 H   0  0  0  0  0  0  0  0  0  0  0  0
  1  2  1  0
  2  3  1  0
  3  4  1  0
  3  5  1  0
  5  6  1  0
  6  7  2  0
  6  8  1  0
  8  9  1  0
  9 10  1  0
 10 11  1  0
 10 12  1  0
  8 13  1  0
 13 14  1  0
 14 15  1  0
 15 16  1  0
 16 17  2  0
 16 18  1  0
 18 19  1  0
 19 20  1  0
 20 21  2  0
 21 22  1  0
 22 23  2  0
 15 24  1  0
 24 25  1  0
 25  8  1  0
 23 19  1  0
  1 26  1  0
  1 27  1  0
  1 28  1  0
  2 29  1  0
  2 30  1  0
  3 31  1  6
  4 32  1  0
  4 33  1  0
  4 34  1  0
  5 35  1  0
  9 36  1  0
  9 37  1  0
 10 38  1  0
 11 39  1  0
 11 40  1  0
 11 41  1  0
 12 42  1  0
 12 43  1  0
 12 44  1  0
 13 45  1  0
 13 46  1  0
 14 47  1  0
 14 48  1  0
 18 49  1  0
 18 50  1  0
 20 51  1  0
 21 52  1  0
 22 53  1  0
 24 54  1  0
 24 55  1  0
 25 56  1  0
 25 57  1  0
M  END
>  <UniqueID>  (40) 
36

>  <SMILES>  (40) 
CC[C@H](C)NC(=O)C1(CC(C)C)CCN(C(=O)Cn2cccn2)CC1

>  <Energy>  (40) 
81.57182238573796

>  <Genealogy>  (40) 
CC[C@H](C)NC(=O)C1(CC(C)C)CCN(C(=O)Cn2cccn2)CC1 (chirality)
CC[C@H](C)NC(=O)C1(CC(C)C)CCN(C(=O)Cn2cccn2)CC1 (3D coordinates assigned)
CC[C@H](C)NC(=O)C1(CC(C)C)CCN(C(=O)Cn2cccn2)CC1 (nonaromatic ring conformer: 81.57182238573796 kcal/mol)

>  <smiles>  (40) 
CCC(C)NC(=O)C1(CC(C)C)CCN(C(=O)Cn2cccn2)CC1

>  <score_type>  (40) 
oracle

>  <origin>  (40) 
adg

>  <m_score__min__energy>  (40) 
-8.2400000000000002

>  <m_primary>  (40) 
energy

$$$$
40:0
     RDKit          3D

 48 51  0  0  0  0  0  0  0  0999 V2000
   -6.5330   17.3580  -33.7110 C   0  0  0  0  0  0  0  0  0  0  0  0
   -6.0670   18.6910  -33.3250 C   0  0  0  0  0  0  0  0  0  0  0  0
   -6.7850   19.6570  -32.6510 C   0  0  0  0  0  0  0  0  0  0  0  0
   -5.9970   20.7730  -32.4780 C   0  0  0  0  0  0  0  0  0  0  0  0
   -4.8160   20.4720  -33.0450 N   0  0  0  0  0  0  0  0  0  0  0  0
   -4.8640   19.2280  -33.5490 N   0  0  0  0  0  0  0  0  0  0  0  0
   -3.7050   18.6330  -34.2330 C   0  0  0  0  0  0  0  0  0  0  0  0
   -2.6330   18.3300  -33.2490 C   0  0  0  0  0  0  0  0  0  0  0  0
   -1.4520   19.1400  -33.3400 N   0  0  0  0  0  0  0  0  0  0  0  0
   -0.9750   19.4930  -32.0200 C   0  0  0  0  0  0  0  0  0  0  0  0
   -2.0050   20.2990  -31.3080 C   0  0  0  0  0  0  0  0  0  0  0  0
   -2.5000   21.3560  -32.0580 O   0  0  0  0  0  0  0  0  0  0  0  0
   -1.7460   21.5930  -33.2010 C   0  0  0  0  0  0  0  0  0  0  0  0
   -1.6210   20.3690  -34.0840 C   0  0  0  0  0  0  0  0  0  0  0  0
   -6.3170   22.0390  -31.8280 C   0  0  0  0  0  0  0  0  0  0  0  0
   -5.2450   22.8230  -31.7390 N   0  0  0  0  0  0  0  0  0  0  0  0
   -5.2960   24.0430  -31.1760 C   0  0  0  0  0  0  0  0  0  0  0  0
   -4.2410   24.7940  -31.0980 N   0  0  0  0  0  0  0  0  0  0  0  0
   -6.4980   24.4640  -30.6880 N   0  0  0  0  0  0  0  0  0  0  0  0
   -7.6070   23.6920  -30.7620 C   0  0  0  0  0  0  0  0  0  0  0  0
   -7.5350   22.4450  -31.3420 C   0  0  0  0  0  0  0  0  0  0  0  0
   -8.8750   21.8060  -31.2970 C   0  0  0  0  0  0  0  0  0  0  0  0
   -8.9560   20.8340  -32.4670 C   0  0  0  0  0  0  0  0  0  0  0  0
   -8.1970   19.5380  -32.1750 C   0  0  0  0  0  0  0  0  0  0  0  0
   -6.7400   16.7660  -32.8073 H   0  0  0  0  0  0  0  0  0  0  0  0
   -7.4524   17.4496  -34.3079 H   0  0  0  0  0  0  0  0  0  0  0  0
   -5.7568   16.8568  -34.3079 H   0  0  0  0  0  0  0  0  0  0  0  0
   -4.0147   17.7029  -34.7319 H   0  0  0  0  0  0  0  0  0  0  0  0
   -3.3204   19.3459  -34.9772 H   0  0  0  0  0  0  0  0  0  0  0  0
   -3.0540   18.4599  -32.2411 H   0  0  0  0  0  0  0  0  0  0  0  0
   -2.3074   17.3028  -33.4701 H   0  0  0  0  0  0  0  0  0  0  0  0
   -0.7705   18.5756  -31.4486 H   0  0  0  0  0  0  0  0  0  0  0  0
   -0.0529   20.0854  -32.1144 H   0  0  0  0  0  0  0  0  0  0  0  0
   -2.8432   19.6372  -31.0443 H   0  0  0  0  0  0  0  0  0  0  0  0
   -1.5190   20.7325  -30.4215 H   0  0  0  0  0  0  0  0  0  0  0  0
   -2.2264   22.3961  -33.7790 H   0  0  0  0  0  0  0  0  0  0  0  0
   -0.7328   21.8739  -32.8778 H   0  0  0  0  0  0  0  0  0  0  0  0
   -2.5321   20.2847  -34.6946 H   0  0  0  0  0  0  0  0  0  0  0  0
   -0.7194   20.5030  -34.6998 H   0  0  0  0  0  0  0  0  0  0  0  0
   -4.3330   22.4750  -32.1220 H   0  0  0  0  0  0  0  0  0  0  0  0
   -4.2560   25.6620  -31.6780 H   0  0  0  0  0  0  0  0  0  0  0  0
   -8.5628   24.0593  -30.3602 H   0  0  0  0  0  0  0  0  0  0  0  0
   -9.0012   21.2637  -30.3483 H   0  0  0  0  0  0  0  0  0  0  0  0
   -9.6691   22.5640  -31.3663 H   0  0  0  0  0  0  0  0  0  0  0  0
  -10.0121   20.5938  -32.6593 H   0  0  0  0  0  0  0  0  0  0  0  0
   -8.4963   21.3122  -33.3445 H   0  0  0  0  0  0  0  0  0  0  0  0
   -8.2019   19.3487  -31.0914 H   0  0  0  0  0  0  0  0  0  0  0  0
   -8.6872   18.7050  -32.7002 H   0  0  0  0  0  0  0  0  0  0  0  0
  1  2  1  0
  2  3  2  0
  3  4  1  0
  4  5  2  0
  5  6  1  0
  6  7  1  0
  7  8  1  0
  8  9  1  0
  9 10  1  0
 10 11  1  0
 11 12  1  0
 12 13  1  0
 13 14  1  0
  4 15  1  0
 15 16  1  0
 16 17  1  0
 17 18  2  3
 17 19  1  0
 19 20  2  0
 20 21  1  0
 21 22  1  0
 22 23  1  0
 23 24  1  0
  6  2  1  0
 14  9  1  0
 21 15  2  0
 24  3  1  0
  1 25  1  0
  1 26  1  0
  1 27  1  0
  7 28  1  0
  7 29  1  0
  8 30  1  0
  8 31  1  0
 10 32  1  0
 10 33  1  0
 11 34  1  0
 11 35  1  0
 13 36  1  0
 13 37  1  0
 14 38  1  0
 14 39  1  0
 16 40  1  0
 18 41  1  0
 20 42  1  0
 22 43  1  0
 22 44  1  0
 23 45  1  0
 23 46  1  0
 24 47  1  0
 24 48  1  0
M  END
>  <smiles>  (41) 
Cc1c2c(nn1CCN1CCOCC1)-c1[nH]c(=N)ncc1CCC2

>  <score_type>  (41) 
oracle

>  <origin>  (41) 
adg

>  <m_score__min__energy>  (41) 
-8.3499999999999996

>  <m_primary>  (41) 
energy

$$$$
41:0
     RDKit          3D

 45 47  0  0  0  0  0  0  0  0999 V2000
   -7.0090   19.2020  -33.0690 C   0  0  0  0  0  0  0  0  0  0  0  0
   -6.2760   20.4490  -32.6710 C   0  0  0  0  0  0  0  0  0  0  0  0
   -4.9240   20.4870  -32.8080 N   0  0  0  0  0  0  0  0  0  0  0  0
   -4.2060   21.5820  -32.4490 C   0  0  0  0  0  0  0  0  0  0  0  0
   -2.7130   21.5660  -32.5460 C   0  0  0  0  0  0  0  0  0  0  0  0
   -2.1210   21.2570  -31.1990 C   0  0  0  0  0  0  0  0  0  0  0  0
   -0.7540   20.9520  -31.0770 C   0  0  0  0  0  0  0  0  0  0  0  0
   -0.2220   20.5940  -29.8330 C   0  0  0  0  0  0  0  0  0  0  0  0
   -1.0490   20.5320  -28.7090 C   0  0  0  0  0  0  0  0  0  0  0  0
   -2.4100   20.8270  -28.8240 C   0  0  0  0  0  0  0  0  0  0  0  0
   -2.9460   21.1880  -30.0630 C   0  0  0  0  0  0  0  0  0  0  0  0
   -4.8370   22.6560  -31.9120 N   0  0  0  0  0  0  0  0  0  0  0  0
   -6.1850   22.6750  -31.7440 C   0  0  0  0  0  0  0  0  0  0  0  0
   -6.9300   24.1430  -31.0200 S   0  0  0  0  0  0  0  0  0  0  0  0
   -5.3680   25.0710  -30.7910 C   0  0  0  0  0  0  0  0  0  0  0  0
   -4.5410   24.5670  -29.5990 C   0  0  0  0  0  0  0  0  0  0  0  0
   -3.1670   24.9360  -29.7250 O   0  0  0  0  0  0  0  0  0  0  0  0
   -2.1370   24.5550  -28.8490 C   0  0  0  0  0  0  0  0  0  0  0  0
   -2.3920   24.5900  -27.4720 C   0  0  0  0  0  0  0  0  0  0  0  0
   -1.3990   24.2340  -26.5550 C   0  0  0  0  0  0  0  0  0  0  0  0
   -0.1410   23.8330  -27.0090 C   0  0  0  0  0  0  0  0  0  0  0  0
    0.1250   23.7870  -28.3800 C   0  0  0  0  0  0  0  0  0  0  0  0
   -0.8660   24.1440  -29.2990 C   0  0  0  0  0  0  0  0  0  0  0  0
   -6.9500   21.5640  -32.1360 C   0  0  0  0  0  0  0  0  0  0  0  0
   -8.3860   21.5600  -31.9740 C   0  0  0  0  0  0  0  0  0  0  0  0
   -9.5360   21.5550  -31.8410 N   0  0  0  0  0  0  0  0  0  0  0  0
   -7.3276   18.6600  -32.1663 H   0  0  0  0  0  0  0  0  0  0  0  0
   -7.8927   19.4710  -33.6662 H   0  0  0  0  0  0  0  0  0  0  0  0
   -6.3442   18.5607  -33.6662 H   0  0  0  0  0  0  0  0  0  0  0  0
   -2.4017   20.7963  -33.2675 H   0  0  0  0  0  0  0  0  0  0  0  0
   -2.3592   22.5519  -32.8820 H   0  0  0  0  0  0  0  0  0  0  0  0
   -0.1011   20.9948  -31.9613 H   0  0  0  0  0  0  0  0  0  0  0  0
    0.8491   20.3611  -29.7403 H   0  0  0  0  0  0  0  0  0  0  0  0
   -0.6284   20.2507  -27.7323 H   0  0  0  0  0  0  0  0  0  0  0  0
   -3.0602   20.7750  -27.9382 H   0  0  0  0  0  0  0  0  0  0  0  0
   -4.0179   21.4191  -30.1497 H   0  0  0  0  0  0  0  0  0  0  0  0
   -4.7635   24.9710  -31.7046 H   0  0  0  0  0  0  0  0  0  0  0  0
   -5.6340   26.1188  -30.5879 H   0  0  0  0  0  0  0  0  0  0  0  0
   -4.9451   25.0026  -28.6733 H   0  0  0  0  0  0  0  0  0  0  0  0
   -4.6037   23.4691  -29.5735 H   0  0  0  0  0  0  0  0  0  0  0  0
   -3.3829   24.9005  -27.1090 H   0  0  0  0  0  0  0  0  0  0  0  0
   -1.6086   24.2697  -25.4757 H   0  0  0  0  0  0  0  0  0  0  0  0
    0.6407   23.5533  -26.2874 H   0  0  0  0  0  0  0  0  0  0  0  0
    1.1159   23.4693  -28.7367 H   0  0  0  0  0  0  0  0  0  0  0  0
   -0.6531   24.1040  -30.3775 H   0  0  0  0  0  0  0  0  0  0  0  0
  1  2  1  0
  2  3  2  0
  3  4  1  0
  4  5  1  0
  5  6  1  0
  6  7  2  0
  7  8  1  0
  8  9  2  0
  9 10  1  0
 10 11  2  0
  4 12  2  0
 12 13  1  0
 13 14  1  0
 14 15  1  0
 15 16  1  0
 16 17  1  0
 17 18  1  0
 18 19  2  0
 19 20  1  0
 20 21  2  0
 21 22  1  0
 22 23  2  0
 13 24  2  0
 24 25  1  0
 25 26  3  0
 24  2  1  0
 11  6  1  0
 23 18  1  0
  1 27  1  0
  1 28  1  0
  1 29  1  0
  5 30  1  0
  5 31  1  0
  7 32  1  0
  8 33  1  0
  9 34  1  0
 10 35  1  0
 11 36  1  0
 15 37  1  0
 15 38  1  0
 16 39  1  0
 16 40  1  0
 19 41  1  0
 20 42  1  0
 21 43  1  0
 22 44  1  0
 23 45  1  0
M  END
>  <UniqueID>  (42) 
37

>  <SMILES>  (42) 
Cc1nc(Cc2ccccc2)nc(SCCOc2ccccc2)c1C#N

>  <Energy>  (42) 
37.014827987210545

>  <Genealogy>  (42) 
Cc1nc(Cc2ccccc2)nc(SCCOc2ccccc2)c1C#N (3D coordinates assigned)
Cc1nc(Cc2ccccc2)nc(SCCOc2ccccc2)c1C#N (optimized conformer: 37.014827987210545 kcal/mol)

>  <smiles>  (42) 
Cc1nc(Cc2ccccc2)nc(SCCOc2ccccc2)c1C#N

>  <score_type>  (42) 
oracle

>  <origin>  (42) 
adg

>  <m_score__min__energy>  (42) 
-8.6699999999999999

>  <m_primary>  (42) 
energy

$$$$
42:0
     RDKit          3D

 39 39  0  0  0  0  0  0  0  0999 V2000
   -5.7520   17.8800  -34.5560 C   0  0  0  0  0  0  0  0  0  0  0  0
   -6.1310   19.3210  -34.2000 C   0  0  0  0  0  0  0  0  0  0  0  0
   -6.1060   19.6180  -32.7490 N   0  0  0  0  0  0  0  0  0  0  0  0
   -7.1040   18.8770  -31.9390 C   0  0  0  0  0  0  0  0  0  0  0  0
   -8.5520   18.9890  -32.4450 C   0  0  0  0  0  0  0  0  0  0  0  0
   -4.7600   19.7490  -32.1500 C   0  0  0  0  0  0  0  0  0  0  0  0
   -4.1790   21.1490  -32.4160 C   0  0  0  0  0  0  0  0  0  0  0  0
   -5.2270   22.1400  -32.7190 N   0  0  0  0  0  0  0  0  0  0  0  0
   -5.4220   23.0710  -31.6260 C   0  0  0  0  0  0  0  0  0  0  0  0
   -4.3020   23.5250  -30.9020 C   0  0  0  0  0  0  0  0  0  0  0  0
   -4.4500   24.4400  -29.8570 C   0  0  0  0  0  0  0  0  0  0  0  0
   -5.7160   24.9180  -29.5210 C   0  0  0  0  0  0  0  0  0  0  0  0
   -6.8390   24.4800  -30.2250 C   0  0  0  0  0  0  0  0  0  0  0  0
   -6.7080   23.5570  -31.2710 C   0  0  0  0  0  0  0  0  0  0  0  0
   -8.2030   23.0420  -32.1310 S   0  0  0  0  0  0  0  0  0  0  0  0
   -8.6940   21.8670  -30.8310 C   0  0  0  0  0  0  0  0  0  0  0  0
   -5.6000   17.3020  -33.6325 H   0  0  0  0  0  0  0  0  0  0  0  0
   -6.5605   17.4232  -35.1456 H   0  0  0  0  0  0  0  0  0  0  0  0
   -4.8233   17.8801  -35.1456 H   0  0  0  0  0  0  0  0  0  0  0  0
   -5.4235   19.9972  -34.7021 H   0  0  0  0  0  0  0  0  0  0  0  0
   -7.1696   19.4645  -34.5327 H   0  0  0  0  0  0  0  0  0  0  0  0
   -6.8227   17.8136  -31.9374 H   0  0  0  0  0  0  0  0  0  0  0  0
   -7.0889   19.3297  -30.9366 H   0  0  0  0  0  0  0  0  0  0  0  0
   -9.2374   19.0420  -31.5863 H   0  0  0  0  0  0  0  0  0  0  0  0
   -8.6579   19.8980  -33.0553 H   0  0  0  0  0  0  0  0  0  0  0  0
   -8.7964   18.1071  -33.0553 H   0  0  0  0  0  0  0  0  0  0  0  0
   -4.8310   19.5880  -31.0642 H   0  0  0  0  0  0  0  0  0  0  0  0
   -4.0964   18.9989  -32.6050 H   0  0  0  0  0  0  0  0  0  0  0  0
   -3.6275   21.4788  -31.5232 H   0  0  0  0  0  0  0  0  0  0  0  0
   -3.5181   21.0787  -33.2925 H   0  0  0  0  0  0  0  0  0  0  0  0
   -5.0100   22.6260  -33.6170 H   0  0  0  0  0  0  0  0  0  0  0  0
   -6.1260   21.6280  -32.8770 H   0  0  0  0  0  0  0  0  0  0  0  0
   -3.2995   23.1547  -31.1626 H   0  0  0  0  0  0  0  0  0  0  0  0
   -3.5669   24.7838  -29.2986 H   0  0  0  0  0  0  0  0  0  0  0  0
   -5.8300   25.6412  -28.7001 H   0  0  0  0  0  0  0  0  0  0  0  0
   -7.8348   24.8625  -29.9564 H   0  0  0  0  0  0  0  0  0  0  0  0
   -8.5073   22.3138  -29.8433 H   0  0  0  0  0  0  0  0  0  0  0  0
   -9.7645   21.6348  -30.9319 H   0  0  0  0  0  0  0  0  0  0  0  0
   -8.1071   20.9422  -30.9319 H   0  0  0  0  0  0  0  0  0  0  0  0
  1  2  1  0
  2  3  1  0
  3  4  1  0
  4  5  1  0
  3  6  1  0
  6  7  1  0
  7  8  1  0
  8  9  1  0
  9 10  2  0
 10 11  1  0
 11 12  2  0
 12 13  1  0
 13 14  2  0
 14 15  1  0
 15 16  1  0
 14  9  1  0
  1 17  1  0
  1 18  1  0
  1 19  1  0
  2 20  1  0
  2 21  1  0
  4 22  1  0
  4 23  1  0
  5 24  1  0
  5 25  1  0
  5 26  1  0
  6 27  1  0
  6 28  1  0
  7 29  1  0
  7 30  1  0
  8 31  1  0
  8 32  1  0
 10 33  1  0
 11 34  1  0
 12 35  1  0
 13 36  1  0
 16 37  1  0
 16 38  1  0
 16 39  1  0
M  CHG  1   8   1
M  END
>  <UniqueID>  (43) 
38

>  <SMILES>  (43) 
CCN(CC)CC[NH2+]c1ccccc1SC

>  <Energy>  (43) 
40.45076115867663

>  <Genealogy>  (43) 
CCN(CC)CC[NH2+]c1ccccc1SC (protonated)
CCN(CC)CC[NH2+]c1ccccc1SC (3D coordinates assigned)
CCN(CC)CC[NH2+]c1ccccc1SC (optimized conformer: 40.45076115867663 kcal/mol)

>  <smiles>  (43) 
CCN(CC)CCNc1ccccc1SC

>  <score_type>  (43) 
oracle

>  <origin>  (43) 
adg

>  <m_score__min__energy>  (43) 
-6

>  <m_primary>  (43) 
energy

$$$$
43:0
     RDKit          3D

 51 53  0  0  0  0  0  0  0  0999 V2000
   -0.7410   27.0210  -24.1680 C   0  0  0  0  0  0  0  0  0  0  0  0
   -0.5600   26.6700  -25.5360 O   0  0  0  0  0  0  0  0  0  0  0  0
   -0.8640   25.4130  -26.0800 C   0  0  0  0  0  0  0  0  0  0  0  0
   -0.4250   24.2160  -25.5010 C   0  0  0  0  0  0  0  0  0  0  0  0
   -0.7650   22.9860  -26.0660 C   0  0  0  0  0  0  0  0  0  0  0  0
   -1.5900   22.9090  -27.2180 C   0  0  0  0  0  0  0  0  0  0  0  0
   -1.9660   24.1300  -27.8390 C   0  0  0  0  0  0  0  0  0  0  0  0
   -1.6190   25.3620  -27.2500 C   0  0  0  0  0  0  0  0  0  0  0  0
   -2.6540   24.1040  -29.0560 C   0  0  0  0  0  0  0  0  0  0  0  0
   -3.0020   25.2980  -29.6880 O   0  0  0  0  0  0  0  0  0  0  0  0
   -2.9420   22.8800  -29.6680 C   0  0  0  0  0  0  0  0  0  0  0  0
   -3.6280   22.8480  -30.9840 C   0  0  0  0  0  0  0  0  0  0  0  0
   -4.3980   23.7920  -31.3100 O   0  0  0  0  0  0  0  0  0  0  0  0
   -3.4100   21.7590  -31.8910 N   0  0  0  0  0  0  0  0  0  0  0  0
   -4.2280   21.5880  -33.0920 C   0  0  0  0  0  0  0  0  0  0  0  0
   -5.1060   20.3330  -32.9990 C   0  0  0  0  0  0  0  0  0  0  0  0
   -6.5270   20.6810  -32.6350 C   0  0  0  0  0  0  0  0  0  0  0  0
   -7.5460   19.7180  -32.7250 C   0  0  0  0  0  0  0  0  0  0  0  0
   -8.8540   20.0380  -32.3500 C   0  0  0  0  0  0  0  0  0  0  0  0
   -9.1530   21.3190  -31.8790 C   0  0  0  0  0  0  0  0  0  0  0  0
   -8.1440   22.2820  -31.7840 C   0  0  0  0  0  0  0  0  0  0  0  0
   -6.8360   21.9670  -32.1580 C   0  0  0  0  0  0  0  0  0  0  0  0
   -2.5660   21.6870  -29.0240 C   0  0  0  0  0  0  0  0  0  0  0  0
   -2.7670   20.5940  -29.6230 O   0  0  0  0  0  0  0  0  0  0  0  0
   -1.9980   21.6990  -27.7660 N   0  0  0  0  0  0  0  0  0  0  0  0
   -1.8220   20.4160  -27.0170 C   0  0  0  0  0  0  0  0  0  0  0  0
   -3.1160   19.5830  -26.9150 C   0  0  0  0  0  0  0  0  0  0  0  0
   -0.6690   19.5990  -27.6050 C   0  0  0  0  0  0  0  0  0  0  0  0
   -0.3309   26.2258  -23.5281 H   0  0  0  0  0  0  0  0  0  0  0  0
   -0.2177   27.9658  -23.9595 H   0  0  0  0  0  0  0  0  0  0  0  0
   -1.8142   27.1425  -23.9595 H   0  0  0  0  0  0  0  0  0  0  0  0
    0.1938   24.2454  -24.5920 H   0  0  0  0  0  0  0  0  0  0  0  0
   -0.3865   22.0593  -25.6100 H   0  0  0  0  0  0  0  0  0  0  0  0
   -1.9496   26.2992  -27.7216 H   0  0  0  0  0  0  0  0  0  0  0  0
   -2.6390   21.0840  -31.6870 H   0  0  0  0  0  0  0  0  0  0  0  0
   -4.8753   22.4692  -33.2123 H   0  0  0  0  0  0  0  0  0  0  0  0
   -3.5554   21.4761  -33.9552 H   0  0  0  0  0  0  0  0  0  0  0  0
   -5.1013   19.8201  -33.9721 H   0  0  0  0  0  0  0  0  0  0  0  0
   -4.6968   19.6820  -32.2124 H   0  0  0  0  0  0  0  0  0  0  0  0
   -7.3134   18.7075  -33.0923 H   0  0  0  0  0  0  0  0  0  0  0  0
   -9.6484   19.2809  -32.4257 H   0  0  0  0  0  0  0  0  0  0  0  0
  -10.1823   21.5698  -31.5829 H   0  0  0  0  0  0  0  0  0  0  0  0
   -8.3810   23.2903  -31.4137 H   0  0  0  0  0  0  0  0  0  0  0  0
   -6.0450   22.7273  -32.0792 H   0  0  0  0  0  0  0  0  0  0  0  0
   -1.5652   20.6892  -25.9829 H   0  0  0  0  0  0  0  0  0  0  0  0
   -3.3660   19.4221  -25.8559 H   0  0  0  0  0  0  0  0  0  0  0  0
   -3.9386   20.1216  -27.4082 H   0  0  0  0  0  0  0  0  0  0  0  0
   -2.9663   18.6112  -27.4082 H   0  0  0  0  0  0  0  0  0  0  0  0
   -0.0677   19.1729  -26.7884 H   0  0  0  0  0  0  0  0  0  0  0  0
   -1.0746   18.7856  -28.2246 H   0  0  0  0  0  0  0  0  0  0  0  0
   -0.0361   20.2513  -28.2246 H   0  0  0  0  0  0  0  0  0  0  0  0
  1  2  1  0
  2  3  1  0
  3  4  2  0
  4  5  1  0
  5  6  2  0
  6  7  1  0
  7  8  2  0
  7  9  1  0
  9 10  1  0
  9 11  2  0
 11 12  1  0
 12 13  2  0
 12 14  1  0
 14 15  1  0
 15 16  1  0
 16 17  1  0
 17 18  2  0
 18 19  1  0
 19 20  2  0
 20 21  1  0
 21 22  2  0
 11 23  1  0
 23 24  2  0
 23 25  1  0
 25 26  1  0
 26 27  1  0
 26 28  1  0
  8  3  1  0
 22 17  1  0
 25  6  1  0
  1 29  1  0
  1 30  1  0
  1 31  1  0
  4 32  1  0
  5 33  1  0
  8 34  1  0
 14 35  1  0
 15 36  1  0
 15 37  1  0
 16 38  1  0
 16 39  1  0
 18 40  1  0
 19 41  1  0
 20 42  1  0
 21 43  1  0
 22 44  1  0
 26 45  1  0
 27 46  1  0
 27 47  1  0
 27 48  1  0
 28 49  1  0
 28 50  1  0
 28 51  1  0
M  CHG  1  10  -1
M  END
>  <UniqueID>  (44) 
39

>  <SMILES>  (44) 
COc1ccc2c(c1)c([O-])c(C(=O)NCCc1ccccc1)c(=O)n2C(C)C

>  <Energy>  (44) 
69.21404491323365

>  <Genealogy>  (44) 
COc1ccc2c(c1)c([O-])c(C(=O)NCCc1ccccc1)c(=O)n2C(C)C (protonated)
COc1ccc2c(c1)c([O-])c(C(=O)NCCc1ccccc1)c(=O)n2C(C)C (3D coordinates assigned)
COc1ccc2c(c1)c([O-])c(C(=O)NCCc1ccccc1)c(=O)n2C(C)C (optimized conformer: 69.21404491323365 kcal/mol)

>  <smiles>  (44) 
COc1ccc2c(c1)c(O)c(C(=O)NCCc1ccccc1)c(=O)n2C(C)C

>  <score_type>  (44) 
oracle

>  <origin>  (44) 
adg

>  <m_score__min__energy>  (44) 
-11.69

>  <m_primary>  (44) 
energy

$$$$
44:0
     RDKit          3D

 50 52  0  0  1  0  0  0  0  0999 V2000
   -5.4940   19.8790  -32.3860 C   0  0  0  0  0  0  0  0  0  0  0  0
   -6.4850   19.6650  -33.5260 C   0  0  0  0  0  0  0  0  0  0  0  0
   -7.6720   19.1210  -33.0030 N   0  0  0  0  0  0  0  0  0  0  0  0
   -7.5420   18.2060  -31.9480 C   0  0  0  0  0  0  0  0  0  0  0  0
   -8.8470   19.9270  -33.0780 C   0  0  0  0  0  0  0  0  0  0  0  0
   -9.4140   20.1990  -31.7000 C   0  0  0  0  0  0  0  0  0  0  0  0
   -9.3910   21.5900  -31.4520 O   0  0  0  0  0  0  0  0  0  0  0  0
   -8.2130   22.2420  -31.2120 C   0  0  0  0  0  0  0  0  0  0  0  0
   -7.6020   22.8250  -32.3420 C   0  0  0  0  0  0  0  0  0  0  0  0
   -6.4230   23.5190  -32.2560 C   0  0  0  0  0  0  0  0  0  0  0  0
   -5.7890   23.6660  -31.0270 C   0  0  0  0  0  0  0  0  0  0  0  0
   -4.5670   24.3810  -31.0100 N   0  0  0  0  0  0  0  0  0  0  0  0
   -3.5400   24.1170  -30.3160 C   0  0  0  0  0  0  0  0  0  0  0  0
   -3.2470   24.8650  -29.2390 N   0  0  0  0  0  0  0  0  0  0  0  0
   -2.1540   24.5240  -28.5450 C   0  0  0  0  0  0  0  0  0  0  0  0
   -1.7870   25.2470  -27.4250 O   0  0  0  0  0  0  0  0  0  0  0  0
   -2.5130   25.3010  -26.2370 C   0  0  0  0  0  0  0  0  0  0  0  0
   -1.3630   23.4850  -28.8850 N   0  0  0  0  0  0  0  0  0  0  0  0
   -1.6440   22.7280  -29.9610 C   0  0  0  0  0  0  0  0  0  0  0  0
   -0.8780   21.6560  -30.3650 C   0  0  0  0  0  0  0  0  0  0  0  0
   -1.2260   20.9090  -31.4970 C   0  0  0  0  0  0  0  0  0  0  0  0
   -2.3510   21.2250  -32.2500 C   0  0  0  0  0  0  0  0  0  0  0  0
   -3.0940   22.2890  -31.8330 C   0  0  0  0  0  0  0  0  0  0  0  0
   -2.7590   23.0460  -30.6990 C   0  0  0  0  0  0  0  0  0  0  0  0
   -6.3580   23.1090  -29.9070 C   0  0  0  0  0  0  0  0  0  0  0  0
   -7.5680   22.4060  -30.0310 C   0  0  0  0  0  0  0  0  0  0  0  0
   -6.0133   19.7669  -31.4228 H   0  0  0  0  0  0  0  0  0  0  0  0
   -4.6875   19.1343  -32.4566 H   0  0  0  0  0  0  0  0  0  0  0  0
   -5.0666   20.8901  -32.4566 H   0  0  0  0  0  0  0  0  0  0  0  0
   -6.7028   20.6278  -34.0113 H   0  0  0  0  0  0  0  0  0  0  0  0
   -6.0554   18.9763  -34.2684 H   0  0  0  0  0  0  0  0  0  0  0  0
   -7.6177   18.7391  -30.9888 H   0  0  0  0  0  0  0  0  0  0  0  0
   -8.3424   17.4543  -32.0139 H   0  0  0  0  0  0  0  0  0  0  0  0
   -6.5639   17.7070  -32.0139 H   0  0  0  0  0  0  0  0  0  0  0  0
   -8.5953   20.8843  -33.5577 H   0  0  0  0  0  0  0  0  0  0  0  0
   -9.6035   19.3858  -33.6652 H   0  0  0  0  0  0  0  0  0  0  0  0
  -10.4505   19.8340  -31.6505 H   0  0  0  0  0  0  0  0  0  0  0  0
   -8.8081   19.6796  -30.9430 H   0  0  0  0  0  0  0  0  0  0  0  0
   -8.0872   22.7193  -33.3235 H   0  0  0  0  0  0  0  0  0  0  0  0
   -5.9779   23.9601  -33.1601 H   0  0  0  0  0  0  0  0  0  0  0  0
   -3.8660   25.6470  -29.0160 H   0  0  0  0  0  0  0  0  0  0  0  0
   -1.8222   25.2496  -25.3825 H   0  0  0  0  0  0  0  0  0  0  0  0
   -3.0783   26.2437  -26.1953 H   0  0  0  0  0  0  0  0  0  0  0  0
   -3.2116   24.4523  -26.1953 H   0  0  0  0  0  0  0  0  0  0  0  0
    0.0193   21.3834  -29.7901 H   0  0  0  0  0  0  0  0  0  0  0  0
   -0.5979   20.0568  -31.7958 H   0  0  0  0  0  0  0  0  0  0  0  0
   -2.6288   20.6432  -33.1413 H   0  0  0  0  0  0  0  0  0  0  0  0
   -3.9907   22.5652  -32.4071 H   0  0  0  0  0  0  0  0  0  0  0  0
   -5.8721   23.2123  -28.9256 H   0  0  0  0  0  0  0  0  0  0  0  0
   -8.0136   21.9674  -29.1260 H   0  0  0  0  0  0  0  0  0  0  0  0
  1  2  1  0
  2  3  1  0
  3  4  1  0
  3  5  1  0
  5  6  1  0
  6  7  1  0
  7  8  1  0
  8  9  2  0
  9 10  1  0
 10 11  2  0
 11 12  1  0
 12 13  2  0
 13 14  1  0
 14 15  1  0
 15 16  1  0
 16 17  1  0
 15 18  2  0
 18 19  1  0
 19 20  2  0
 20 21  1  0
 21 22  2  0
 22 23  1  0
 23 24  2  0
 11 25  1  0
 25 26  2  0
 26  8  1  0
 24 13  1  0
 24 19  1  0
  1 27  1  0
  1 28  1  0
  1 29  1  0
  2 30  1  0
  2 31  1  0
  4 32  1  0
  4 33  1  0
  4 34  1  0
  5 35  1  0
  5 36  1  0
  6 37  1  0
  6 38  1  0
  9 39  1  0
 10 40  1  0
 14 41  1  0
 17 42  1  0
 17 43  1  0
 17 44  1  0
 20 45  1  0
 21 46  1  0
 22 47  1  0
 23 48  1  0
 25 49  1  0
 26 50  1  0
M  END
>  <smiles>  (45) 
CCN(C)CCOc1ccc(N=c2[nH]c(OC)nc3ccccc23)cc1

>  <score_type>  (45) 
oracle

>  <origin>  (45) 
adg

>  <m_score__min__energy>  (45) 
-8.1999999999999993

>  <m_primary>  (45) 
energy

$$$$
