0:0
     RDKit          3D

 65 67  0  0  0  0  0  0  0  0999 V2000
   -6.1470   25.6330  -29.6960 C   0  0  0  0  0  0  0  0  0  0  0  0
   -5.1220   25.6370  -30.8290 C   0  0  0  0  0  0  0  0  0  0  0  0
   -3.9290   24.9950  -30.4140 O   0  0  0  0  0  0  0  0  0  0  0  0
   -4.1500   24.2570  -29.2270 C   0  0  0  0  0  0  0  0  0  0  0  0
   -3.2580   23.0130  -29.2290 C   0  0  0  0  0  0  0  0  0  0  0  0
   -2.2600   23.0890  -30.3080 N   0  0  0  0  0  0  0  0  0  0  0  0
   -2.8130   22.6440  -31.5940 C   0  0  0  0  0  0  0  0  0  0  0  0
   -3.4370   21.2560  -31.4470 C   0  0  0  0  0  0  0  0  0  0  0  0
   -3.9800   20.7950  -32.7240 N   0  0  0  0  0  0  0  0  0  0  0  0
   -5.3200   20.2830  -32.7990 C   0  0  0  0  0  0  0  0  0  0  0  0
   -6.3890   21.1080  -32.4200 C   0  0  0  0  0  0  0  0  0  0  0  0
   -6.1950   22.4900  -32.2110 C   0  0  0  0  0  0  0  0  0  0  0  0
   -7.2670   23.3180  -31.8890 C   0  0  0  0  0  0  0  0  0  0  0  0
   -8.5490   22.7850  -31.7830 C   0  0  0  0  0  0  0  0  0  0  0  0
   -8.7600   21.4190  -31.9680 C   0  0  0  0  0  0  0  0  0  0  0  0
   -7.6790   20.5450  -32.2550 C   0  0  0  0  0  0  0  0  0  0  0  0
   -7.8560   19.1800  -32.3700 N   0  0  0  0  0  0  0  0  0  0  0  0
   -9.1000   18.5520  -31.8720 C   0  0  0  0  0  0  0  0  0  0  0  0
   -6.8640   18.3990  -32.9390 C   0  0  0  0  0  0  0  0  0  0  0  0
   -7.1060   17.0540  -33.3080 C   0  0  0  0  0  0  0  0  0  0  0  0
   -6.0980   16.2620  -33.8430 C   0  0  0  0  0  0  0  0  0  0  0  0
   -4.8420   16.7960  -34.0870 C   0  0  0  0  0  0  0  0  0  0  0  0
   -4.5730   18.1470  -33.8110 C   0  0  0  0  0  0  0  0  0  0  0  0
   -3.3530   18.7270  -34.2020 O   0  0  0  0  0  0  0  0  0  0  0  0
   -2.0740   18.1040  -34.1050 C   0  0  0  0  0  0  0  0  0  0  0  0
   -0.9710   19.1320  -34.3710 C   0  0  0  0  0  0  0  0  0  0  0  0
   -1.1510   20.3550  -33.5580 N   0  0  0  0  0  0  0  0  0  0  0  0
   -0.5370   20.2020  -32.2260 C   0  0  0  0  0  0  0  0  0  0  0  0
   -0.5470   21.5050  -34.2460 C   0  0  0  0  0  0  0  0  0  0  0  0
   -5.5700   18.9450  -33.1810 C   0  0  0  0  0  0  0  0  0  0  0  0
   -5.6239   25.6350  -28.7283 H   0  0  0  0  0  0  0  0  0  0  0  0
   -6.7810   26.5287  -29.7720 H   0  0  0  0  0  0  0  0  0  0  0  0
   -6.7740   24.7324  -29.7720 H   0  0  0  0  0  0  0  0  0  0  0  0
   -5.5380   25.1042  -31.6968 H   0  0  0  0  0  0  0  0  0  0  0  0
   -4.8927   26.6779  -31.1009 H   0  0  0  0  0  0  0  0  0  0  0  0
   -3.9063   24.8821  -28.3553 H   0  0  0  0  0  0  0  0  0  0  0  0
   -5.2057   23.9524  -29.1746 H   0  0  0  0  0  0  0  0  0  0  0  0
   -2.7390   22.9395  -28.2619 H   0  0  0  0  0  0  0  0  0  0  0  0
   -3.8884   22.1266  -29.3928 H   0  0  0  0  0  0  0  0  0  0  0  0
   -1.9770   24.0930  -30.4130 H   0  0  0  0  0  0  0  0  0  0  0  0
   -3.5837   23.3560  -31.9242 H   0  0  0  0  0  0  0  0  0  0  0  0
   -2.0029   22.5971  -32.3367 H   0  0  0  0  0  0  0  0  0  0  0  0
   -2.6671   20.5484  -31.1056 H   0  0  0  0  0  0  0  0  0  0  0  0
   -4.2557   21.3123  -30.7145 H   0  0  0  0  0  0  0  0  0  0  0  0
   -3.3440   20.6640  -33.5430 H   0  0  0  0  0  0  0  0  0  0  0  0
   -5.1858   22.9178  -32.3035 H   0  0  0  0  0  0  0  0  0  0  0  0
   -7.1014   24.3920  -31.7185 H   0  0  0  0  0  0  0  0  0  0  0  0
   -9.3989   23.4442  -31.5524 H   0  0  0  0  0  0  0  0  0  0  0  0
   -9.7793   21.0128  -31.8904 H   0  0  0  0  0  0  0  0  0  0  0  0
   -9.0967   18.5537  -30.7720 H   0  0  0  0  0  0  0  0  0  0  0  0
   -9.9688   19.1195  -32.2369 H   0  0  0  0  0  0  0  0  0  0  0  0
   -9.1593   17.5160  -32.2369 H   0  0  0  0  0  0  0  0  0  0  0  0
   -8.1106   16.6282  -33.1685 H   0  0  0  0  0  0  0  0  0  0  0  0
   -6.2974   15.2053  -34.0744 H   0  0  0  0  0  0  0  0  0  0  0  0
   -4.0487   16.1559  -34.5005 H   0  0  0  0  0  0  0  0  0  0  0  0
   -1.9475   17.6866  -33.0952 H   0  0  0  0  0  0  0  0  0  0  0  0
   -2.0061   17.2992  -34.8518 H   0  0  0  0  0  0  0  0  0  0  0  0
    0.0021   18.6815  -34.1256 H   0  0  0  0  0  0  0  0  0  0  0  0
   -1.0187   19.4173  -35.4323 H   0  0  0  0  0  0  0  0  0  0  0  0
   -1.2933   20.3905  -31.4498 H   0  0  0  0  0  0  0  0  0  0  0  0
   -0.1470   19.1792  -32.1173 H   0  0  0  0  0  0  0  0  0  0  0  0
    0.2873   20.9222  -32.1173 H   0  0  0  0  0  0  0  0  0  0  0  0
   -0.1706   22.2216  -33.5011 H   0  0  0  0  0  0  0  0  0  0  0  0
    0.2860   21.1594  -34.8759 H   0  0  0  0  0  0  0  0  0  0  0  0
   -1.3043   21.9946  -34.8759 H   0  0  0  0  0  0  0  0  0  0  0  0
  1  2  1  0
  2  3  1  0
  3  4  1  0
  4  5  1  0
  5  6  1  0
  6  7  1  0
  7  8  1  0
  8  9  1  0
  9 10  1  0
 10 11  2  0
 11 12  1  0
 12 13  2  0
 13 14  1  0
 14 15  2  0
 15 16  1  0
 16 17  2  0
 17 18  1  0
 17 19  1  0
 19 20  2  0
 20 21  1  0
 21 22  2  0
 22 23  1  0
 23 24  1  0
 24 25  1  0
 25 26  1  0
 26 27  1  0
 27 28  1  0
 27 29  1  0
 23 30  2  0
 30 10  1  0
 16 11  1  0
 30 19  1  0
  1 31  1  0
  1 32  1  0
  1 33  1  0
  2 34  1  0
  2 35  1  0
  4 36  1  0
  4 37  1  0
  5 38  1  0
  5 39  1  0
  6 40  1  0
  7 41  1  0
  7 42  1  0
  8 43  1  0
  8 44  1  0
  9 45  1  0
 12 46  1  0
 13 47  1  0
 14 48  1  0
 15 49  1  0
 18 50  1  0
 18 51  1  0
 18 52  1  0
 20 53  1  0
 21 54  1  0
 22 55  1  0
 25 56  1  0
 25 57  1  0
 26 58  1  0
 26 59  1  0
 28 60  1  0
 28 61  1  0
 28 62  1  0
 29 63  1  0
 29 64  1  0
 29 65  1  0
M  CHG  1  17   1
M  END
>  <UniqueID>  (1) 
1

>  <SMILES>  (1) 
CCOCCNCCNc1c2ccccc2[n+](C)c2cccc(OCCN(C)C)c12

>  <Energy>  (1) 
84.381862338331

>  <Genealogy>  (1) 
CCOCCNCCNc1c2ccccc2[n+](C)c2cccc(OCCN(C)C)c12 (3D coordinates assigned)
CCOCCNCCNc1c2ccccc2[n+](C)c2cccc(OCCN(C)C)c12 (optimized conformer: 84.381862338331 kcal/mol)

>  <smiles>  (1) 
CCOCCNCCNc1c2ccccc2[n+](C)c2cccc(OCCN(C)C)c12

>  <score_type>  (1) 
oracle

>  <origin>  (1) 
adg

>  <m_score__min__energy>  (1) 
-8.5700000000000003

>  <m_primary>  (1) 
energy

$$$$
1:0
     RDKit          3D

 41 44  0  0  0  0  0  0  0  0999 V2000
   -6.0790   24.4280  -29.7330 C   0  0  0  0  0  0  0  0  0  0  0  0
   -5.1340   25.3700  -30.4700 C   0  0  0  0  0  0  0  0  0  0  0  0
   -3.9050   24.7200  -30.7410 O   0  0  0  0  0  0  0  0  0  0  0  0
   -4.0850   23.3280  -30.9250 C   0  0  0  0  0  0  0  0  0  0  0  0
   -4.7090   23.0370  -32.2980 C   0  0  0  0  0  0  0  0  0  0  0  0
   -4.5680   21.6130  -32.6510 N   0  0  0  0  0  0  0  0  0  0  0  0
   -5.6490   20.7620  -32.6980 C   0  0  0  0  0  0  0  0  0  0  0  0
   -5.5120   19.4400  -33.1180 C   0  0  0  0  0  0  0  0  0  0  0  0
   -4.2600   18.9110  -33.4480 C   0  0  0  0  0  0  0  0  0  0  0  0
   -4.0820   17.5760  -33.8590 C   0  0  0  0  0  0  0  0  0  0  0  0
   -2.8060   17.0970  -34.1640 C   0  0  0  0  0  0  0  0  0  0  0  0
   -1.6990   17.9370  -34.0640 C   0  0  0  0  0  0  0  0  0  0  0  0
   -1.8570   19.2630  -33.6590 C   0  0  0  0  0  0  0  0  0  0  0  0
   -3.1360   19.7670  -33.3480 C   0  0  0  0  0  0  0  0  0  0  0  0
   -3.3140   21.1160  -32.9460 C   0  0  0  0  0  0  0  0  0  0  0  0
   -2.3010   21.8670  -32.8630 O   0  0  0  0  0  0  0  0  0  0  0  0
   -6.8400   18.8200  -33.1260 C   0  0  0  0  0  0  0  0  0  0  0  0
   -7.1320   17.6420  -33.4570 O   0  0  0  0  0  0  0  0  0  0  0  0
   -7.7790   19.8250  -32.6700 C   0  0  0  0  0  0  0  0  0  0  0  0
   -9.1540   19.6990  -32.4730 C   0  0  0  0  0  0  0  0  0  0  0  0
   -9.8570   20.7980  -31.9660 C   0  0  0  0  0  0  0  0  0  0  0  0
   -9.1780   21.9870  -31.6500 C   0  0  0  0  0  0  0  0  0  0  0  0
   -7.7900   22.0940  -31.8490 C   0  0  0  0  0  0  0  0  0  0  0  0
   -7.0930   20.9990  -32.3910 C   0  0  0  0  0  0  0  0  0  0  0  0
   -5.9512   24.5554  -28.6479 H   0  0  0  0  0  0  0  0  0  0  0  0
   -7.1180   24.6605  -30.0096 H   0  0  0  0  0  0  0  0  0  0  0  0
   -5.8498   23.3883  -30.0096 H   0  0  0  0  0  0  0  0  0  0  0  0
   -5.5973   25.6802  -31.4182 H   0  0  0  0  0  0  0  0  0  0  0  0
   -4.9419   26.2503  -29.8389 H   0  0  0  0  0  0  0  0  0  0  0  0
   -3.1085   22.8259  -30.8587 H   0  0  0  0  0  0  0  0  0  0  0  0
   -4.7615   22.9529  -30.1429 H   0  0  0  0  0  0  0  0  0  0  0  0
   -5.7776   23.2965  -32.2698 H   0  0  0  0  0  0  0  0  0  0  0  0
   -4.1860   23.6393  -33.0554 H   0  0  0  0  0  0  0  0  0  0  0  0
   -4.9517   16.9075  -33.9402 H   0  0  0  0  0  0  0  0  0  0  0  0
   -2.6746   16.0529  -34.4843 H   0  0  0  0  0  0  0  0  0  0  0  0
   -0.6966   17.5535  -34.3052 H   0  0  0  0  0  0  0  0  0  0  0  0
   -0.9776   19.9192  -33.5820 H   0  0  0  0  0  0  0  0  0  0  0  0
   -9.6733   18.7588  -32.7103 H   0  0  0  0  0  0  0  0  0  0  0  0
  -10.9444   20.7307  -31.8144 H   0  0  0  0  0  0  0  0  0  0  0  0
   -9.7375   22.8422  -31.2431 H   0  0  0  0  0  0  0  0  0  0  0  0
   -7.2576   23.0196  -31.5849 H   0  0  0  0  0  0  0  0  0  0  0  0
  1  2  1  0
  2  3  1  0
  3  4  1  0
  4  5  1  0
  5  6  1  0
  6  7  1  0
  7  8  2  0
  8  9  1  0
  9 10  2  0
 10 11  1  0
 11 12  2  0
 12 13  1  0
 13 14  2  0
 14 15  1  0
 15 16  2  0
  8 17  1  0
 17 18  2  0
 17 19  1  0
 19 20  2  0
 20 21  1  0
 21 22  2  0
 22 23  1  0
 23 24  2  0
 15  6  1  0
 24 19  1  0
 24  7  1  0
 14  9  1  0
  1 25  1  0
  1 26  1  0
  1 27  1  0
  2 28  1  0
  2 29  1  0
  4 30  1  0
  4 31  1  0
  5 32  1  0
  5 33  1  0
 10 34  1  0
 11 35  1  0
 12 36  1  0
 13 37  1  0
 20 38  1  0
 21 39  1  0
 22 40  1  0
 23 41  1  0
M  END
>  <UniqueID>  (2) 
2

>  <SMILES>  (2) 
CCOCCn1c2c(c3ccccc3c1=O)C(=O)c1ccccc1-2

>  <Energy>  (2) 
92.6923075427841

>  <Genealogy>  (2) 
CCOCCn1c2c(c3ccccc3c1=O)C(=O)c1ccccc1-2 (3D coordinates assigned)
CCOCCn1c2c(c3ccccc3c1=O)C(=O)c1ccccc1-2 (nonaromatic ring conformer: 92.6923075427841 kcal/mol)

>  <smiles>  (2) 
CCOCCn1c2c(c3ccccc3c1=O)C(=O)c1ccccc1-2

>  <score_type>  (2) 
oracle

>  <origin>  (2) 
adg

>  <m_score__min__energy>  (2) 
-9.0500000000000007

>  <m_primary>  (2) 
energy

$$$$
2:0
     RDKit          3D

 27 28  0  0  0  0  0  0  0  0999 V2000
   -3.9030   23.8480  -27.1260 C   0  0  0  0  0  0  0  0  0  0  0  0
   -3.8650   22.4540  -27.7410 C   0  0  0  0  0  0  0  0  0  0  0  0
   -3.6360   22.5400  -29.1820 N   0  0  0  0  0  0  0  0  0  0  0  0
   -4.1160   23.6490  -29.9540 C   0  0  0  0  0  0  0  0  0  0  0  0
   -5.2580   23.7200  -30.7380 C   0  0  0  0  0  0  0  0  0  0  0  0
   -6.1870   22.6330  -31.1170 C   0  0  0  0  0  0  0  0  0  0  0  0
   -7.4860   22.5960  -30.5830 C   0  0  0  0  0  0  0  0  0  0  0  0
   -8.3690   21.5730  -30.9440 C   0  0  0  0  0  0  0  0  0  0  0  0
   -7.9650   20.5840  -31.8480 C   0  0  0  0  0  0  0  0  0  0  0  0
   -9.0740   19.3010  -32.2980 Cl  0  0  0  0  0  0  0  0  0  0  0  0
   -6.6800   20.6240  -32.3960 C   0  0  0  0  0  0  0  0  0  0  0  0
   -5.7970   21.6470  -32.0390 C   0  0  0  0  0  0  0  0  0  0  0  0
   -5.3050   25.0280  -31.2000 C   0  0  0  0  0  0  0  0  0  0  0  0
   -4.2700   25.7030  -30.7430 O   0  0  0  0  0  0  0  0  0  0  0  0
   -3.5450   24.8990  -30.0020 C   0  0  0  0  0  0  0  0  0  0  0  0
   -2.3810   25.2830  -29.3490 O   0  0  0  0  0  0  0  0  0  0  0  0
   -3.9007   23.7650  -26.0291 H   0  0  0  0  0  0  0  0  0  0  0  0
   -3.0200   24.4170  -27.4525 H   0  0  0  0  0  0  0  0  0  0  0  0
   -4.8157   24.3681  -27.4525 H   0  0  0  0  0  0  0  0  0  0  0  0
   -3.0517   21.8756  -27.2784 H   0  0  0  0  0  0  0  0  0  0  0  0
   -4.8303   21.9580  -27.5616 H   0  0  0  0  0  0  0  0  0  0  0  0
   -2.8130   22.0200  -29.5620 H   0  0  0  0  0  0  0  0  0  0  0  0
   -7.8102   23.3753  -29.8776 H   0  0  0  0  0  0  0  0  0  0  0  0
   -9.3823   21.5458  -30.5168 H   0  0  0  0  0  0  0  0  0  0  0  0
   -6.3630   19.8491  -33.1095 H   0  0  0  0  0  0  0  0  0  0  0  0
   -4.7909   21.6804  -32.4824 H   0  0  0  0  0  0  0  0  0  0  0  0
   -6.0900   25.4400  -31.8512 H   0  0  0  0  0  0  0  0  0  0  0  0
  1  2  1  0
  2  3  1  0
  3  4  1  0
  4  5  1  0
  5  6  1  0
  6  7  2  0
  7  8  1  0
  8  9  2  0
  9 10  1  0
  9 11  1  0
 11 12  2  0
  5 13  2  0
 13 14  1  0
 14 15  1  0
 15 16  1  0
 15  4  2  0
 12  6  1  0
  1 17  1  0
  1 18  1  0
  1 19  1  0
  2 20  1  0
  2 21  1  0
  3 22  1  0
  7 23  1  0
  8 24  1  0
 11 25  1  0
 12 26  1  0
 13 27  1  0
M  CHG  1  16  -1
M  END
>  <UniqueID>  (3) 
3

>  <SMILES>  (3) 
CCNc1c(-c2ccc(Cl)cc2)coc1[O-]

>  <Energy>  (3) 
59.414660459539036

>  <Genealogy>  (3) 
CCNc1c(-c2ccc(Cl)cc2)coc1[O-] (protonated)
CCNc1c(-c2ccc(Cl)cc2)coc1[O-] (3D coordinates assigned)
CCNc1c(-c2ccc(Cl)cc2)coc1[O-] (optimized conformer: 59.414660459539036 kcal/mol)

>  <smiles>  (3) 
CCNc1c(-c2ccc(Cl)cc2)coc1O

>  <score_type>  (3) 
oracle

>  <origin>  (3) 
adg

>  <m_score__min__energy>  (3) 
-9.1999999999999993

>  <m_primary>  (3) 
energy

$$$$
3:0
     RDKit          3D

 60 62  0  0  0  0  0  0  0  0999 V2000
   -2.4170   20.0380  -27.1320 C   0  0  0  0  0  0  0  0  0  0  0  0
   -3.0770   20.5210  -28.4260 C   0  0  0  0  0  0  0  0  0  0  0  0
   -3.0090   21.9820  -28.5820 N   0  0  0  0  0  0  0  0  0  0  0  0
   -4.0410   22.6780  -27.8010 C   0  0  0  0  0  0  0  0  0  0  0  0
   -3.8450   24.1960  -27.8850 C   0  0  0  0  0  0  0  0  0  0  0  0
   -2.9490   24.6350  -29.0520 C   0  0  0  0  0  0  0  0  0  0  0  0
   -3.5020   24.2620  -30.3020 O   0  0  0  0  0  0  0  0  0  0  0  0
   -4.7670   24.8570  -30.5410 C   0  0  0  0  0  0  0  0  0  0  0  0
   -5.7810   23.7800  -30.9240 C   0  0  0  0  0  0  0  0  0  0  0  0
   -5.2000   22.4370  -30.8350 N   0  0  0  0  0  0  0  0  0  0  0  0
   -5.6140   21.3680  -31.7030 C   0  0  0  0  0  0  0  0  0  0  0  0
   -6.9860   21.1110  -31.8730 C   0  0  0  0  0  0  0  0  0  0  0  0
   -7.9580   22.0140  -31.3920 C   0  0  0  0  0  0  0  0  0  0  0  0
   -9.3160   21.7690  -31.5830 C   0  0  0  0  0  0  0  0  0  0  0  0
   -9.7280   20.6350  -32.2730 C   0  0  0  0  0  0  0  0  0  0  0  0
   -8.7840   19.7350  -32.7670 C   0  0  0  0  0  0  0  0  0  0  0  0
   -7.3970   19.9420  -32.5620 C   0  0  0  0  0  0  0  0  0  0  0  0
   -6.4530   19.0490  -33.0270 N   0  0  0  0  0  0  0  0  0  0  0  0
   -6.8680   17.6950  -33.4540 C   0  0  0  0  0  0  0  0  0  0  0  0
   -5.1220   19.4200  -33.0870 C   0  0  0  0  0  0  0  0  0  0  0  0
   -4.1890   18.6650  -33.8360 C   0  0  0  0  0  0  0  0  0  0  0  0
   -2.8430   19.0020  -33.8570 C   0  0  0  0  0  0  0  0  0  0  0  0
   -2.3860   20.1060  -33.1560 C   0  0  0  0  0  0  0  0  0  0  0  0
   -3.2750   20.9170  -32.4290 C   0  0  0  0  0  0  0  0  0  0  0  0
   -2.8070   22.0620  -31.7560 O   0  0  0  0  0  0  0  0  0  0  0  0
   -1.4860   22.2740  -31.2580 C   0  0  0  0  0  0  0  0  0  0  0  0
   -0.9030   20.9880  -30.6810 C   0  0  0  0  0  0  0  0  0  0  0  0
   -4.6630   20.5830  -32.3990 C   0  0  0  0  0  0  0  0  0  0  0  0
   -2.9664   20.4400  -26.2680 H   0  0  0  0  0  0  0  0  0  0  0  0
   -2.4356   18.9386  -27.0991 H   0  0  0  0  0  0  0  0  0  0  0  0
   -1.3748   20.3882  -27.0991 H   0  0  0  0  0  0  0  0  0  0  0  0
   -2.5661   20.0510  -29.2793 H   0  0  0  0  0  0  0  0  0  0  0  0
   -4.1393   20.2385  -28.3849 H   0  0  0  0  0  0  0  0  0  0  0  0
   -3.1230   22.2280  -29.5950 H   0  0  0  0  0  0  0  0  0  0  0  0
   -5.0330   22.4185  -28.1993 H   0  0  0  0  0  0  0  0  0  0  0  0
   -3.9615   22.3666  -26.7490 H   0  0  0  0  0  0  0  0  0  0  0  0
   -4.8311   24.6680  -28.0067 H   0  0  0  0  0  0  0  0  0  0  0  0
   -3.3438   24.5090  -26.9572 H   0  0  0  0  0  0  0  0  0  0  0  0
   -2.8359   25.7288  -29.0236 H   0  0  0  0  0  0  0  0  0  0  0  0
   -1.9742   24.1368  -28.9442 H   0  0  0  0  0  0  0  0  0  0  0  0
   -5.1068   25.3711  -29.6299 H   0  0  0  0  0  0  0  0  0  0  0  0
   -4.6781   25.5815  -31.3639 H   0  0  0  0  0  0  0  0  0  0  0  0
   -6.6426   23.8423  -30.2430 H   0  0  0  0  0  0  0  0  0  0  0  0
   -6.0906   23.9531  -31.9652 H   0  0  0  0  0  0  0  0  0  0  0  0
   -4.3920   22.2770  -30.1930 H   0  0  0  0  0  0  0  0  0  0  0  0
   -7.6394   22.9224  -30.8598 H   0  0  0  0  0  0  0  0  0  0  0  0
  -10.0626   22.4734  -31.1875 H   0  0  0  0  0  0  0  0  0  0  0  0
  -10.8004   20.4470  -32.4297 H   0  0  0  0  0  0  0  0  0  0  0  0
   -9.1217   18.8494  -33.3252 H   0  0  0  0  0  0  0  0  0  0  0  0
   -7.0586   17.0731  -32.5669 H   0  0  0  0  0  0  0  0  0  0  0  0
   -7.7857   17.7657  -34.0563 H   0  0  0  0  0  0  0  0  0  0  0  0
   -6.0683   17.2393  -34.0563 H   0  0  0  0  0  0  0  0  0  0  0  0
   -4.5369   17.7950  -34.4122 H   0  0  0  0  0  0  0  0  0  0  0  0
   -2.1348   18.3889  -34.4337 H   0  0  0  0  0  0  0  0  0  0  0  0
   -1.3138   20.3512  -33.1683 H   0  0  0  0  0  0  0  0  0  0  0  0
   -0.8437   22.6222  -32.0804 H   0  0  0  0  0  0  0  0  0  0  0  0
   -1.5314   23.0268  -30.4572 H   0  0  0  0  0  0  0  0  0  0  0  0
   -0.9248   21.0362  -29.5823 H   0  0  0  0  0  0  0  0  0  0  0  0
   -1.4999   20.1294  -31.0223 H   0  0  0  0  0  0  0  0  0  0  0  0
    0.1361   20.8710  -31.0223 H   0  0  0  0  0  0  0  0  0  0  0  0
  1  2  1  0
  2  3  1  0
  3  4  1  0
  4  5  1  0
  5  6  1  0
  6  7  1  0
  7  8  1  0
  8  9  1  0
  9 10  1  0
 10 11  1  0
 11 12  2  0
 12 13  1  0
 13 14  2  0
 14 15  1  0
 15 16  2  0
 16 17  1  0
 17 18  2  0
 18 19  1  0
 18 20  1  0
 20 21  2  0
 21 22  1  0
 22 23  2  0
 23 24  1  0
 24 25  1  0
 25 26  1  0
 26 27  1  0
 24 28  2  0
 28 11  1  0
 17 12  1  0
 28 20  1  0
  1 29  1  0
  1 30  1  0
  1 31  1  0
  2 32  1  0
  2 33  1  0
  3 34  1  0
  4 35  1  0
  4 36  1  0
  5 37  1  0
  5 38  1  0
  6 39  1  0
  6 40  1  0
  8 41  1  0
  8 42  1  0
  9 43  1  0
  9 44  1  0
 10 45  1  0
 13 46  1  0
 14 47  1  0
 15 48  1  0
 16 49  1  0
 19 50  1  0
 19 51  1  0
 19 52  1  0
 21 53  1  0
 22 54  1  0
 23 55  1  0
 26 56  1  0
 26 57  1  0
 27 58  1  0
 27 59  1  0
 27 60  1  0
M  CHG  1  18   1
M  END
>  <UniqueID>  (4) 
4

>  <SMILES>  (4) 
CCNCCCOCCNc1c2ccccc2[n+](C)c2cccc(OCC)c12

>  <Energy>  (4) 
82.5723747702425

>  <Genealogy>  (4) 
CCNCCCOCCNc1c2ccccc2[n+](C)c2cccc(OCC)c12 (3D coordinates assigned)
CCNCCCOCCNc1c2ccccc2[n+](C)c2cccc(OCC)c12 (optimized conformer: 82.5723747702425 kcal/mol)

>  <smiles>  (4) 
CCNCCCOCCNc1c2ccccc2[n+](C)c2cccc(OCC)c12

>  <score_type>  (4) 
oracle

>  <origin>  (4) 
adg

>  <m_score__min__energy>  (4) 
-8.5999999999999996

>  <m_primary>  (4) 
energy

$$$$
4:0
     RDKit          3D

 60 63  0  0  0  0  0  0  0  0999 V2000
   -2.1470   18.9100  -26.6970 C   0  0  0  0  0  0  0  0  0  0  0  0
   -3.1100   19.9350  -27.2880 C   0  0  0  0  0  0  0  0  0  0  0  0
   -2.5280   20.6780  -28.4320 N   0  0  0  0  0  0  0  0  0  0  0  0
   -1.1760   20.1370  -28.7290 C   0  0  0  0  0  0  0  0  0  0  0  0
   -0.1510   21.2560  -28.5280 C   0  0  0  0  0  0  0  0  0  0  0  0
   -0.9870   22.4720  -28.8020 C   0  0  2  0  0  0  0  0  0  0  0  0
   -0.4940   23.8220  -28.2880 C   0  0  0  0  0  0  0  0  0  0  0  0
   -1.5220   24.8990  -28.6940 C   0  0  0  0  0  0  0  0  0  0  0  0
   -2.9750   24.5440  -28.2820 C   0  0  0  0  0  0  0  0  0  0  0  0
   -3.4080   23.0860  -28.6210 C   0  0  1  0  0  0  0  0  0  0  0  0
   -3.7880   22.9160  -30.0890 C   0  0  0  0  0  0  0  0  0  0  0  0
   -3.8480   23.8980  -30.8180 O   0  0  0  0  0  0  0  0  0  0  0  0
   -4.1120   21.6070  -30.6280 N   0  0  0  0  0  0  0  0  0  0  0  0
   -5.4940   21.5880  -31.1810 C   0  0  0  0  0  0  0  0  0  0  0  0
   -5.5150   21.7800  -32.7070 C   0  0  0  0  0  0  0  0  0  0  0  0
   -4.7160   20.7500  -33.4220 N   0  0  0  0  0  0  0  0  0  0  0  0
   -5.5630   19.6880  -34.0020 C   0  0  0  0  0  0  0  0  0  0  0  0
   -6.6810   19.3340  -33.0570 C   0  0  0  0  0  0  0  0  0  0  0  0
   -7.9050   20.0220  -33.1050 C   0  0  0  0  0  0  0  0  0  0  0  0
   -8.9380   19.6810  -32.2270 C   0  0  0  0  0  0  0  0  0  0  0  0
   -8.7570   18.6530  -31.2970 C   0  0  0  0  0  0  0  0  0  0  0  0
   -7.5430   17.9640  -31.2450 C   0  0  0  0  0  0  0  0  0  0  0  0
   -6.5070   18.3010  -32.1210 C   0  0  0  0  0  0  0  0  0  0  0  0
   -3.6340   20.1640  -32.5980 C   0  0  0  0  0  0  0  0  0  0  0  0
   -3.0760   21.1910  -31.6050 C   0  0  0  0  0  0  0  0  0  0  0  0
   -2.3040   22.1110  -28.1410 C   0  0  1  0  0  0  0  0  0  0  0  0
   -2.1906   18.9565  -25.5988 H   0  0  0  0  0  0  0  0  0  0  0  0
   -2.4326   17.9023  -27.0330 H   0  0  0  0  0  0  0  0  0  0  0  0
   -1.1234   19.1322  -27.0330 H   0  0  0  0  0  0  0  0  0  0  0  0
   -4.0134   19.4105  -27.6327 H   0  0  0  0  0  0  0  0  0  0  0  0
   -3.3388   20.6672  -26.4997 H   0  0  0  0  0  0  0  0  0  0  0  0
   -0.9525   19.3022  -28.0484 H   0  0  0  0  0  0  0  0  0  0  0  0
   -1.1357   19.7703  -29.7653 H   0  0  0  0  0  0  0  0  0  0  0  0
    0.2434   21.2613  -27.5012 H   0  0  0  0  0  0  0  0  0  0  0  0
    0.7415   21.1696  -29.1651 H   0  0  0  0  0  0  0  0  0  0  0  0
   -1.0005   22.6578  -29.8861 H   0  0  0  0  0  0  0  0  0  0  0  0
   -0.4003   23.7913  -27.1924 H   0  0  0  0  0  0  0  0  0  0  0  0
    0.4905   24.0556  -28.7195 H   0  0  0  0  0  0  0  0  0  0  0  0
   -1.2437   25.8474  -28.2113 H   0  0  0  0  0  0  0  0  0  0  0  0
   -1.5023   24.9722  -29.7914 H   0  0  0  0  0  0  0  0  0  0  0  0
   -3.0676   24.6854  -27.1951 H   0  0  0  0  0  0  0  0  0  0  0  0
   -3.6340   25.2074  -28.8613 H   0  0  0  0  0  0  0  0  0  0  0  0
   -4.3335   22.8428  -28.0785 H   0  0  0  0  0  0  0  0  0  0  0  0
   -4.0950   20.9080  -29.8480 H   0  0  0  0  0  0  0  0  0  0  0  0
   -5.9582   20.6203  -30.9398 H   0  0  0  0  0  0  0  0  0  0  0  0
   -6.0487   22.4235  -30.7291 H   0  0  0  0  0  0  0  0  0  0  0  0
   -6.5568   21.7227  -33.0553 H   0  0  0  0  0  0  0  0  0  0  0  0
   -5.0683   22.7610  -32.9264 H   0  0  0  0  0  0  0  0  0  0  0  0
   -5.9897   20.0428  -34.9517 H   0  0  0  0  0  0  0  0  0  0  0  0
   -4.9459   18.7941  -34.1757 H   0  0  0  0  0  0  0  0  0  0  0  0
   -8.0509   20.8313  -33.8356 H   0  0  0  0  0  0  0  0  0  0  0  0
   -9.8947   20.2224  -32.2679 H   0  0  0  0  0  0  0  0  0  0  0  0
   -9.5706   18.3867  -30.6062 H   0  0  0  0  0  0  0  0  0  0  0  0
   -7.4019   17.1548  -30.5134 H   0  0  0  0  0  0  0  0  0  0  0  0
   -5.5527   17.7557  -32.0772 H   0  0  0  0  0  0  0  0  0  0  0  0
   -4.0335   19.3048  -32.0393 H   0  0  0  0  0  0  0  0  0  0  0  0
   -2.8197   19.8469  -33.2661 H   0  0  0  0  0  0  0  0  0  0  0  0
   -2.2299   20.7435  -31.0628 H   0  0  0  0  0  0  0  0  0  0  0  0
   -2.7493   22.0784  -32.1669 H   0  0  0  0  0  0  0  0  0  0  0  0
   -2.3086   22.2287  -27.0473 H   0  0  0  0  0  0  0  0  0  0  0  0
  1  2  1  0
  2  3  1  0
  3  4  1  0
  4  5  1  0
  5  6  1  0
  6  7  1  0
  7  8  1  0
  8  9  1  0
  9 10  1  0
 10 11  1  0
 11 12  2  0
 11 13  1  0
 13 14  1  0
 14 15  1  0
 15 16  1  0
 16 17  1  0
 17 18  1  0
 18 19  2  0
 19 20  1  0
 20 21  2  0
 21 22  1  0
 22 23  2  0
 16 24  1  0
 24 25  1  0
 10 26  1  0
 26  3  1  0
 26  6  1  0
 25 13  1  0
 23 18  1  0
  1 27  1  0
  1 28  1  0
  1 29  1  0
  2 30  1  0
  2 31  1  0
  4 32  1  0
  4 33  1  0
  5 34  1  0
  5 35  1  0
  6 36  1  6
  7 37  1  0
  7 38  1  0
  8 39  1  0
  8 40  1  0
  9 41  1  0
  9 42  1  0
 10 43  1  1
 13 44  1  0
 14 45  1  0
 14 46  1  0
 15 47  1  0
 15 48  1  0
 17 49  1  0
 17 50  1  0
 19 51  1  0
 20 52  1  0
 21 53  1  0
 22 54  1  0
 23 55  1  0
 24 56  1  0
 24 57  1  0
 25 58  1  0
 25 59  1  0
 26 60  1  1
M  CHG  1  13   1
M  END
>  <UniqueID>  (5) 
5

>  <SMILES>  (5) 
CCN1CC[C@@H]2CCC[C@@H](C(=O)[NH+]3CCN(Cc4ccccc4)CC3)C21

>  <Energy>  (5) 
80.89725251971096

>  <Genealogy>  (5) 
CCN1CCC2CCCC(C(=O)[NH+]3CCN(Cc4ccccc4)CC3)C21 (protonated)
CCN1CC[C@@H]2CCC[C@@H](C(=O)[NH+]3CCN(Cc4ccccc4)CC3)C21 (chirality)
CCN1CC[C@@H]2CCC[C@@H](C(=O)[NH+]3CCN(Cc4ccccc4)CC3)C21 (3D coordinates assigned)
CCN1CC[C@@H]2CCC[C@@H](C(=O)[NH+]3CCN(Cc4ccccc4)CC3)C21 (nonaromatic ring conformer: 80.89725251971096 kcal/mol)

>  <smiles>  (5) 
CCN1CCC2CCCC(C(=O)N3CCN(Cc4ccccc4)CC3)C21

>  <score_type>  (5) 
oracle

>  <origin>  (5) 
adg

>  <m_score__min__energy>  (5) 
-8.6199999999999992

>  <m_primary>  (5) 
energy

$$$$
5:0
     RDKit          3D

 28 29  0  0  0  0  0  0  0  0999 V2000
   -8.7350   18.9480  -31.5980 C   0  0  0  0  0  0  0  0  0  0  0  0
   -7.7620   19.3150  -32.7140 C   0  0  0  0  0  0  0  0  0  0  0  0
   -7.4750   20.7140  -32.6960 O   0  0  0  0  0  0  0  0  0  0  0  0
   -6.2170   21.3000  -32.4580 C   0  0  0  0  0  0  0  0  0  0  0  0
   -5.0290   20.7170  -32.9430 C   0  0  0  0  0  0  0  0  0  0  0  0
   -3.7850   21.3050  -32.6890 C   0  0  0  0  0  0  0  0  0  0  0  0
   -2.5340   20.6920  -33.2480 C   0  0  0  0  0  0  0  0  0  0  0  0
   -3.7190   22.5020  -31.9690 C   0  0  0  0  0  0  0  0  0  0  0  0
   -4.8860   23.1000  -31.4710 C   0  0  0  0  0  0  0  0  0  0  0  0
   -6.1430   22.4980  -31.7090 C   0  0  0  0  0  0  0  0  0  0  0  0
   -7.3610   23.1650  -31.1620 C   0  0  0  0  0  0  0  0  0  0  0  0
   -8.5090   22.6770  -31.3390 O   0  0  0  0  0  0  0  0  0  0  0  0
   -7.2360   24.4180  -30.3960 C   0  0  0  0  0  0  0  0  0  0  0  0
   -6.0460   24.9780  -30.1780 C   0  0  0  0  0  0  0  0  0  0  0  0
   -4.8130   24.3620  -30.6950 C   0  0  0  0  0  0  0  0  0  0  0  0
   -3.7060   24.9180  -30.4710 O   0  0  0  0  0  0  0  0  0  0  0  0
   -8.2590   19.1276  -30.6227 H   0  0  0  0  0  0  0  0  0  0  0  0
   -9.6408   19.5663  -31.6832 H   0  0  0  0  0  0  0  0  0  0  0  0
   -9.0069   17.8855  -31.6832 H   0  0  0  0  0  0  0  0  0  0  0  0
   -6.8265   18.7530  -32.5763 H   0  0  0  0  0  0  0  0  0  0  0  0
   -8.2218   19.0615  -33.6806 H   0  0  0  0  0  0  0  0  0  0  0  0
   -5.0805   19.7875  -33.5289 H   0  0  0  0  0  0  0  0  0  0  0  0
   -1.8816   20.3723  -32.4220 H   0  0  0  0  0  0  0  0  0  0  0  0
   -2.7970   19.8207  -33.8658 H   0  0  0  0  0  0  0  0  0  0  0  0
   -2.0066   21.4338  -33.8658 H   0  0  0  0  0  0  0  0  0  0  0  0
   -2.7436   22.9787  -31.7917 H   0  0  0  0  0  0  0  0  0  0  0  0
   -8.1409   24.8997  -29.9970 H   0  0  0  0  0  0  0  0  0  0  0  0
   -5.9845   25.9140  -29.6034 H   0  0  0  0  0  0  0  0  0  0  0  0
  1  2  1  0
  2  3  1  0
  3  4  1  0
  4  5  2  0
  5  6  1  0
  6  7  1  0
  6  8  2  0
  8  9  1  0
  9 10  2  0
 10 11  1  0
 11 12  2  0
 11 13  1  0
 13 14  2  0
 14 15  1  0
 15 16  2  0
 10  4  1  0
 15  9  1  0
  1 17  1  0
  1 18  1  0
  1 19  1  0
  2 20  1  0
  2 21  1  0
  5 22  1  0
  7 23  1  0
  7 24  1  0
  7 25  1  0
  8 26  1  0
 13 27  1  0
 14 28  1  0
M  END
>  <UniqueID>  (6) 
6

>  <SMILES>  (6) 
CCOc1cc(C)cc2c1C(=O)C=CC2=O

>  <Energy>  (6) 
27.937113809079868

>  <Genealogy>  (6) 
CCOc1cc(C)cc2c1C(=O)C=CC2=O (3D coordinates assigned)
CCOc1cc(C)cc2c1C(=O)C=CC2=O (nonaromatic ring conformer: 27.937113809079868 kcal/mol)

>  <smiles>  (6) 
CCOc1cc(C)cc2c1C(=O)C=CC2=O

>  <score_type>  (6) 
oracle

>  <origin>  (6) 
adg

>  <m_score__min__energy>  (6) 
-6.9100000000000001

>  <m_primary>  (6) 
energy

$$$$
6:0
     RDKit          3D

 56 60  0  0  0  0  0  0  0  0999 V2000
   -1.9730   24.5510  -28.7030 C   0  0  0  0  0  0  0  0  0  0  0  0
   -2.8350   24.9190  -29.7380 O   0  0  0  0  0  0  0  0  0  0  0  0
   -3.6990   24.0440  -30.3850 C   0  0  0  0  0  0  0  0  0  0  0  0
   -3.3170   22.7700  -30.7710 C   0  0  0  0  0  0  0  0  0  0  0  0
   -4.2080   21.9100  -31.4220 C   0  0  0  0  0  0  0  0  0  0  0  0
   -5.4890   22.3780  -31.6670 C   0  0  0  0  0  0  0  0  0  0  0  0
   -5.9000   23.6440  -31.2940 C   0  0  0  0  0  0  0  0  0  0  0  0
   -4.9840   24.4710  -30.6490 C   0  0  0  0  0  0  0  0  0  0  0  0
   -5.3550   25.7680  -30.2490 O   0  0  0  0  0  0  0  0  0  0  0  0
   -6.3840   25.9920  -29.3300 C   0  0  0  0  0  0  0  0  0  0  0  0
   -6.2410   21.3230  -32.3500 C   0  0  0  0  0  0  0  0  0  0  0  0
   -7.4500   21.0020  -32.8890 N   0  0  0  0  0  0  0  0  0  0  0  0
   -7.3760   19.7740  -33.3620 N   0  0  0  0  0  0  0  0  0  0  0  0
   -6.1270   19.2690  -33.1420 C   0  0  0  0  0  0  0  0  0  0  0  0
   -5.7360   17.9490  -33.5440 C   0  0  0  0  0  0  0  0  0  0  0  0
   -6.6000   16.9040  -33.4530 C   0  0  0  0  0  0  0  0  0  0  0  0
   -6.2280   15.6190  -33.8410 C   0  0  0  0  0  0  0  0  0  0  0  0
   -4.9440   15.3870  -34.3350 C   0  0  0  0  0  0  0  0  0  0  0  0
   -4.6200   13.9970  -34.7280 C   0  0  0  0  0  0  0  0  0  0  0  0
   -3.7280   13.3790  -33.7990 N   0  0  0  0  0  0  0  0  0  0  0  0
   -4.0500   12.0120  -33.5190 C   0  0  0  0  0  0  0  0  0  0  0  0
   -5.1760   11.8080  -32.5590 C   0  0  0  0  0  0  0  0  0  0  0  0
   -4.8070   12.5360  -31.2690 C   0  0  0  0  0  0  0  0  0  0  0  0
   -4.6290   14.0130  -31.5880 C   0  0  0  0  0  0  0  0  0  0  0  0
   -3.4970   14.0990  -32.5870 C   0  0  0  0  0  0  0  0  0  0  0  0
   -4.0560   16.4380  -34.4340 C   0  0  0  0  0  0  0  0  0  0  0  0
   -4.4600   17.7080  -34.0370 C   0  0  0  0  0  0  0  0  0  0  0  0
   -5.3930   20.2340  -32.5020 C   0  0  0  0  0  0  0  0  0  0  0  0
   -4.0700   20.5190  -31.9380 C   0  0  0  0  0  0  0  0  0  0  0  0
   -2.4536   24.7562  -27.7351 H   0  0  0  0  0  0  0  0  0  0  0  0
   -1.7458   23.4774  -28.7793 H   0  0  0  0  0  0  0  0  0  0  0  0
   -1.0405   25.1295  -28.7793 H   0  0  0  0  0  0  0  0  0  0  0  0
   -2.2929   22.4275  -30.5616 H   0  0  0  0  0  0  0  0  0  0  0  0
   -6.9237   23.9891  -31.5012 H   0  0  0  0  0  0  0  0  0  0  0  0
   -5.9876   25.9057  -28.3075 H   0  0  0  0  0  0  0  0  0  0  0  0
   -6.7960   27.0009  -29.4796 H   0  0  0  0  0  0  0  0  0  0  0  0
   -7.1781   25.2457  -29.4796 H   0  0  0  0  0  0  0  0  0  0  0  0
   -8.3090   21.5900  -32.9440 H   0  0  0  0  0  0  0  0  0  0  0  0
   -7.6146   17.0766  -33.0647 H   0  0  0  0  0  0  0  0  0  0  0  0
   -6.9450   14.7889  -33.7581 H   0  0  0  0  0  0  0  0  0  0  0  0
   -5.5509   13.4126  -34.7709 H   0  0  0  0  0  0  0  0  0  0  0  0
   -4.1261   14.0250  -35.7105 H   0  0  0  0  0  0  0  0  0  0  0  0
   -4.3190   11.5245  -34.4677 H   0  0  0  0  0  0  0  0  0  0  0  0
   -3.1587   11.5801  -33.0405 H   0  0  0  0  0  0  0  0  0  0  0  0
   -6.1055   12.2247  -32.9743 H   0  0  0  0  0  0  0  0  0  0  0  0
   -5.3386   10.7366  -32.3699 H   0  0  0  0  0  0  0  0  0  0  0  0
   -5.6100   12.4097  -30.5279 H   0  0  0  0  0  0  0  0  0  0  0  0
   -3.8758   12.1231  -30.8539 H   0  0  0  0  0  0  0  0  0  0  0  0
   -5.5526   14.4225  -32.0230 H   0  0  0  0  0  0  0  0  0  0  0  0
   -4.4060   14.5935  -30.6807 H   0  0  0  0  0  0  0  0  0  0  0  0
   -3.3400   15.1580  -32.8397 H   0  0  0  0  0  0  0  0  0  0  0  0
   -2.6191   13.6394  -32.1094 H   0  0  0  0  0  0  0  0  0  0  0  0
   -3.0401   16.2734  -34.8225 H   0  0  0  0  0  0  0  0  0  0  0  0
   -3.7499   18.5444  -34.1155 H   0  0  0  0  0  0  0  0  0  0  0  0
   -3.8298   19.8191  -31.1241 H   0  0  0  0  0  0  0  0  0  0  0  0
   -3.2576   20.4114  -32.6718 H   0  0  0  0  0  0  0  0  0  0  0  0
  1  2  1  0
  2  3  1  0
  3  4  2  0
  4  5  1  0
  5  6  2  0
  6  7  1  0
  7  8  2  0
  8  9  1  0
  9 10  1  0
  6 11  1  0
 11 12  1  0
 12 13  1  0
 13 14  2  0
 14 15  1  0
 15 16  2  0
 16 17  1  0
 17 18  2  0
 18 19  1  0
 19 20  1  0
 20 21  1  0
 21 22  1  0
 22 23  1  0
 23 24  1  0
 24 25  1  0
 18 26  1  0
 26 27  2  0
 14 28  1  0
 28 29  1  0
  8  3  1  0
 28 11  2  0
 29  5  1  0
 27 15  1  0
 25 20  1  0
  1 30  1  0
  1 31  1  0
  1 32  1  0
  4 33  1  0
  7 34  1  0
 10 35  1  0
 10 36  1  0
 10 37  1  0
 12 38  1  0
 16 39  1  0
 17 40  1  0
 19 41  1  0
 19 42  1  0
 21 43  1  0
 21 44  1  0
 22 45  1  0
 22 46  1  0
 23 47  1  0
 23 48  1  0
 24 49  1  0
 24 50  1  0
 25 51  1  0
 25 52  1  0
 26 53  1  0
 27 54  1  0
 29 55  1  0
 29 56  1  0
M  END
>  <smiles>  (7) 
COc1cc2c(cc1OC)-c1[nH]nc(-c3ccc(CN4CCCCC4)cc3)c1C2

>  <score_type>  (7) 
oracle

>  <origin>  (7) 
adg

>  <m_score__min__energy>  (7) 
-9.5999999999999996

>  <m_primary>  (7) 
energy

$$$$
7:0
     RDKit          3D

 46 48  0  0  0  0  0  0  0  0999 V2000
   -4.2220   22.8790  -28.1820 C   0  0  0  0  0  0  0  0  0  0  0  0
   -3.0560   23.0760  -29.1630 C   0  0  0  0  0  0  0  0  0  0  0  0
   -2.8420   21.9510  -30.1030 N   0  0  0  0  0  0  0  0  0  0  0  0
   -2.4600   20.7070  -29.4140 C   0  0  0  0  0  0  0  0  0  0  0  0
   -1.9160   22.2550  -31.2170 C   0  0  0  0  0  0  0  0  0  0  0  0
   -1.8720   21.1140  -32.2480 C   0  0  0  0  0  0  0  0  0  0  0  0
   -2.9190   21.2720  -33.2610 N   0  0  0  0  0  0  0  0  0  0  0  0
   -4.2940   20.8960  -33.0410 C   0  0  0  0  0  0  0  0  0  0  0  0
   -4.7490   19.6110  -33.4150 C   0  0  0  0  0  0  0  0  0  0  0  0
   -3.8740   18.6780  -34.0140 C   0  0  0  0  0  0  0  0  0  0  0  0
   -4.3260   17.4200  -34.4020 C   0  0  0  0  0  0  0  0  0  0  0  0
   -5.6560   17.0650  -34.2040 C   0  0  0  0  0  0  0  0  0  0  0  0
   -6.5420   17.9650  -33.6140 C   0  0  0  0  0  0  0  0  0  0  0  0
   -6.1100   19.2480  -33.2110 C   0  0  0  0  0  0  0  0  0  0  0  0
   -7.0060   20.1690  -32.6150 C   0  0  0  0  0  0  0  0  0  0  0  0
   -8.8650   19.6910  -32.3430 Br  0  0  0  0  0  0  0  0  0  0  0  0
   -6.5370   21.4390  -32.2090 C   0  0  0  0  0  0  0  0  0  0  0  0
   -7.3790   22.3810  -31.5810 C   0  0  0  0  0  0  0  0  0  0  0  0
   -6.8790   23.6150  -31.1700 C   0  0  0  0  0  0  0  0  0  0  0  0
   -5.5360   23.9150  -31.3800 C   0  0  0  0  0  0  0  0  0  0  0  0
   -5.0310   25.1510  -30.9650 O   0  0  0  0  0  0  0  0  0  0  0  0
   -5.7430   26.0140  -30.0850 C   0  0  0  0  0  0  0  0  0  0  0  0
   -4.7330   23.0040  -31.9890 N   0  0  0  0  0  0  0  0  0  0  0  0
   -5.1840   21.7930  -32.4180 C   0  0  0  0  0  0  0  0  0  0  0  0
   -3.8473   22.9423  -27.1497 H   0  0  0  0  0  0  0  0  0  0  0  0
   -4.9763   23.6624  -28.3470 H   0  0  0  0  0  0  0  0  0  0  0  0
   -4.6771   21.8912  -28.3470 H   0  0  0  0  0  0  0  0  0  0  0  0
   -3.2541   23.9829  -29.7532 H   0  0  0  0  0  0  0  0  0  0  0  0
   -2.1442   23.1484  -28.5519 H   0  0  0  0  0  0  0  0  0  0  0  0
   -2.5073   20.8611  -28.3259 H   0  0  0  0  0  0  0  0  0  0  0  0
   -3.1522   19.9016  -29.7007 H   0  0  0  0  0  0  0  0  0  0  0  0
   -1.4351   20.4289  -29.7007 H   0  0  0  0  0  0  0  0  0  0  0  0
   -2.2509   23.1753  -31.7179 H   0  0  0  0  0  0  0  0  0  0  0  0
   -0.9060   22.3787  -30.7992 H   0  0  0  0  0  0  0  0  0  0  0  0
   -0.8901   21.1166  -32.7439 H   0  0  0  0  0  0  0  0  0  0  0  0
   -2.0389   20.1629  -31.7211 H   0  0  0  0  0  0  0  0  0  0  0  0
   -2.6330   21.5720  -34.2210 H   0  0  0  0  0  0  0  0  0  0  0  0
   -2.8204   18.9494  -34.1762 H   0  0  0  0  0  0  0  0  0  0  0  0
   -3.6301   16.7055  -34.8660 H   0  0  0  0  0  0  0  0  0  0  0  0
   -6.0100   16.0707  -34.5140 H   0  0  0  0  0  0  0  0  0  0  0  0
   -7.5911   17.6723  -33.4603 H   0  0  0  0  0  0  0  0  0  0  0  0
   -8.4391   22.1392  -31.4144 H   0  0  0  0  0  0  0  0  0  0  0  0
   -7.5406   24.3466  -30.6832 H   0  0  0  0  0  0  0  0  0  0  0  0
   -5.5184   25.7417  -29.0432 H   0  0  0  0  0  0  0  0  0  0  0  0
   -5.4376   27.0552  -30.2659 H   0  0  0  0  0  0  0  0  0  0  0  0
   -6.8232   25.9120  -30.2659 H   0  0  0  0  0  0  0  0  0  0  0  0
  1  2  1  0
  2  3  1  0
  3  4  1  0
  3  5  1  0
  5  6  1  0
  6  7  1  0
  7  8  1  0
  8  9  2  0
  9 10  1  0
 10 11  2  0
 11 12  1  0
 12 13  2  0
 13 14  1  0
 14 15  2  0
 15 16  1  0
 15 17  1  0
 17 18  2  0
 18 19  1  0
 19 20  2  0
 20 21  1  0
 21 22  1  0
 20 23  1  0
 23 24  2  0
 24  8  1  0
 14  9  1  0
 24 17  1  0
  1 25  1  0
  1 26  1  0
  1 27  1  0
  2 28  1  0
  2 29  1  0
  4 30  1  0
  4 31  1  0
  4 32  1  0
  5 33  1  0
  5 34  1  0
  6 35  1  0
  6 36  1  0
  7 37  1  0
 10 38  1  0
 11 39  1  0
 12 40  1  0
 13 41  1  0
 18 42  1  0
 19 43  1  0
 22 44  1  0
 22 45  1  0
 22 46  1  0
M  END
>  <UniqueID>  (8) 
7

>  <SMILES>  (8) 
CCN(C)CCNc1c2ccccc2c(Br)c2ccc(OC)nc12

>  <Energy>  (8) 
64.28769162986369

>  <Genealogy>  (8) 
CCN(C)CCNc1c2ccccc2c(Br)c2ccc(OC)nc12 (3D coordinates assigned)
CCN(C)CCNc1c2ccccc2c(Br)c2ccc(OC)nc12 (optimized conformer: 64.28769162986369 kcal/mol)

>  <smiles>  (8) 
CCN(C)CCNc1c2ccccc2c(Br)c2ccc(OC)nc12

>  <score_type>  (8) 
oracle

>  <origin>  (8) 
adg

>  <m_score__min__energy>  (8) 
-9.1099999999999994

>  <m_primary>  (8) 
energy

$$$$
8:0
     RDKit          3D

 31 32  0  0  0  0  0  0  0  0999 V2000
   -6.8620   18.0040  -33.1020 C   0  0  0  0  0  0  0  0  0  0  0  0
   -7.5420   19.1790  -32.5740 N   0  0  0  0  0  0  0  0  0  0  0  0
   -8.7430   19.1860  -31.9650 C   0  0  0  0  0  0  0  0  0  0  0  0
   -9.0720   20.4920  -31.6700 C   0  0  0  0  0  0  0  0  0  0  0  0
   -8.0090   21.2320  -32.1560 C   0  0  0  0  0  0  0  0  0  0  0  0
   -7.8560   22.7230  -32.0600 C   0  0  0  0  0  0  0  0  0  0  0  0
   -6.6200   23.1920  -32.7140 N   0  0  0  0  0  0  0  0  0  0  0  0
   -5.7350   23.9530  -31.8050 C   0  0  0  0  0  0  0  0  0  0  0  0
   -6.5210   24.5740  -30.6560 C   0  0  0  0  0  0  0  0  0  0  0  0
   -5.5090   24.7630  -29.5370 C   0  0  0  0  0  0  0  0  0  0  0  0
   -4.4160   23.7220  -29.7600 C   0  0  0  0  0  0  0  0  0  0  0  0
   -4.6810   23.0800  -31.1210 C   0  0  0  0  0  0  0  0  0  0  0  0
   -7.0890   20.4140  -32.7050 N   0  0  0  0  0  0  0  0  0  0  0  0
   -6.5025   17.3829  -32.2683 H   0  0  0  0  0  0  0  0  0  0  0  0
   -7.5623   17.4210  -33.7182 H   0  0  0  0  0  0  0  0  0  0  0  0
   -6.0076   18.3208  -33.7182 H   0  0  0  0  0  0  0  0  0  0  0  0
   -9.3567   18.3010  -31.7411 H   0  0  0  0  0  0  0  0  0  0  0  0
   -9.9754   20.8619  -31.1629 H   0  0  0  0  0  0  0  0  0  0  0  0
   -8.7191   23.2011  -32.5462 H   0  0  0  0  0  0  0  0  0  0  0  0
   -7.8016   22.9924  -30.9949 H   0  0  0  0  0  0  0  0  0  0  0  0
   -6.8880   23.7900  -33.5310 H   0  0  0  0  0  0  0  0  0  0  0  0
   -6.1000   22.3630  -33.0880 H   0  0  0  0  0  0  0  0  0  0  0  0
   -5.2637   24.7046  -32.4554 H   0  0  0  0  0  0  0  0  0  0  0  0
   -6.9467   25.5421  -30.9587 H   0  0  0  0  0  0  0  0  0  0  0  0
   -7.3644   23.9400  -30.3449 H   0  0  0  0  0  0  0  0  0  0  0  0
   -5.0826   25.7762  -29.5776 H   0  0  0  0  0  0  0  0  0  0  0  0
   -5.9797   24.6401  -28.5504 H   0  0  0  0  0  0  0  0  0  0  0  0
   -3.4278   24.2052  -29.7563 H   0  0  0  0  0  0  0  0  0  0  0  0
   -4.4253   22.9660  -28.9610 H   0  0  0  0  0  0  0  0  0  0  0  0
   -3.7578   23.0576  -31.7186 H   0  0  0  0  0  0  0  0  0  0  0  0
   -5.0276   22.0415  -31.0144 H   0  0  0  0  0  0  0  0  0  0  0  0
  1  2  1  0
  2  3  1  0
  3  4  2  0
  4  5  1  0
  5  6  1  0
  6  7  1  0
  7  8  1  0
  8  9  1  0
  9 10  1  0
 10 11  1  0
 11 12  1  0
  5 13  2  0
 13  2  1  0
 12  8  1  0
  1 14  1  0
  1 15  1  0
  1 16  1  0
  3 17  1  0
  4 18  1  0
  6 19  1  0
  6 20  1  0
  7 21  1  0
  7 22  1  0
  8 23  1  0
  9 24  1  0
  9 25  1  0
 10 26  1  0
 10 27  1  0
 11 28  1  0
 11 29  1  0
 12 30  1  0
 12 31  1  0
M  CHG  1   7   1
M  END
>  <UniqueID>  (9) 
8

>  <SMILES>  (9) 
Cn1ccc(C[NH2+]C2CCCC2)n1

>  <Energy>  (9) 
58.13929223250324

>  <Genealogy>  (9) 
Cn1ccc(C[NH2+]C2CCCC2)n1 (protonated)
Cn1ccc(C[NH2+]C2CCCC2)n1 (3D coordinates assigned)
Cn1ccc(C[NH2+]C2CCCC2)n1 (nonaromatic ring conformer: 58.13929223250324 kcal/mol)

>  <smiles>  (9) 
Cn1ccc(CNC2CCCC2)n1

>  <score_type>  (9) 
oracle

>  <origin>  (9) 
adg

>  <m_score__min__energy>  (9) 
-4.9500000000000002

>  <m_primary>  (9) 
energy

$$$$
9:0
     RDKit          3D

 41 43  0  0  0  0  0  0  0  0999 V2000
    0.6240   27.5430  -22.9580 C   0  0  0  0  0  0  0  0  0  0  0  0
   -0.1050   26.7550  -24.0040 C   0  0  0  0  0  0  0  0  0  0  0  0
   -0.8860   27.4130  -24.9630 C   0  0  0  0  0  0  0  0  0  0  0  0
   -1.5440   26.6690  -25.9380 C   0  0  0  0  0  0  0  0  0  0  0  0
   -1.4140   25.2770  -25.9680 C   0  0  0  0  0  0  0  0  0  0  0  0
   -2.1210   24.5230  -26.9630 N   0  0  0  0  0  0  0  0  0  0  0  0
   -1.3840   23.9910  -28.1170 C   0  0  0  0  0  0  0  0  0  0  0  0
   -2.2840   23.1240  -29.0030 C   0  0  0  0  0  0  0  0  0  0  0  0
   -3.5580   23.8150  -29.2560 N   0  0  0  0  0  0  0  0  0  0  0  0
   -4.1100   23.8780  -30.5850 C   0  0  0  0  0  0  0  0  0  0  0  0
   -4.6030   24.9630  -31.0000 O   0  0  0  0  0  0  0  0  0  0  0  0
   -4.1290   22.7040  -31.4750 C   0  0  0  0  0  0  0  0  0  0  0  0
   -5.2430   22.0030  -31.8990 C   0  0  0  0  0  0  0  0  0  0  0  0
   -4.7690   21.0160  -32.7340 C   0  0  0  0  0  0  0  0  0  0  0  0
   -3.3980   21.1770  -32.7750 C   0  0  0  0  0  0  0  0  0  0  0  0
   -3.0480   22.1920  -32.0180 O   0  0  0  0  0  0  0  0  0  0  0  0
   -4.2580   24.5100  -28.1660 C   0  0  0  0  0  0  0  0  0  0  0  0
   -3.5620   24.2910  -26.8200 C   0  0  0  0  0  0  0  0  0  0  0  0
   -0.5880   24.6460  -25.0150 C   0  0  0  0  0  0  0  0  0  0  0  0
   -0.4020   23.1540  -25.0250 C   0  0  0  0  0  0  0  0  0  0  0  0
    0.0360   25.3990  -24.0600 N   0  0  0  0  0  0  0  0  0  0  0  0
    0.3108   27.2045  -21.9593 H   0  0  0  0  0  0  0  0  0  0  0  0
    1.7074   27.3915  -23.0735 H   0  0  0  0  0  0  0  0  0  0  0  0
    0.3888   28.6113  -23.0735 H   0  0  0  0  0  0  0  0  0  0  0  0
   -0.9785   28.5090  -24.9456 H   0  0  0  0  0  0  0  0  0  0  0  0
   -2.1683   27.1776  -26.6874 H   0  0  0  0  0  0  0  0  0  0  0  0
   -0.9972   24.8309  -28.7128 H   0  0  0  0  0  0  0  0  0  0  0  0
   -0.5599   23.3656  -27.7433 H   0  0  0  0  0  0  0  0  0  0  0  0
   -1.7771   22.9327  -29.9603 H   0  0  0  0  0  0  0  0  0  0  0  0
   -2.4855   22.1718  -28.4904 H   0  0  0  0  0  0  0  0  0  0  0  0
   -6.2912   22.1943  -31.6257 H   0  0  0  0  0  0  0  0  0  0  0  0
   -5.3619   20.2541  -33.2613 H   0  0  0  0  0  0  0  0  0  0  0  0
   -2.7039   20.5501  -33.3540 H   0  0  0  0  0  0  0  0  0  0  0  0
   -4.2798   25.5876  -28.3855 H   0  0  0  0  0  0  0  0  0  0  0  0
   -5.2775   24.1028  -28.0967 H   0  0  0  0  0  0  0  0  0  0  0  0
   -3.9729   24.9915  -26.0780 H   0  0  0  0  0  0  0  0  0  0  0  0
   -3.7323   23.2566  -26.4868 H   0  0  0  0  0  0  0  0  0  0  0  0
   -0.3558   22.7833  -23.9904 H   0  0  0  0  0  0  0  0  0  0  0  0
   -1.2483   22.6825  -25.5460 H   0  0  0  0  0  0  0  0  0  0  0  0
    0.5342   22.9047  -25.5460 H   0  0  0  0  0  0  0  0  0  0  0  0
    0.6380   24.9240  -23.3480 H   0  0  0  0  0  0  0  0  0  0  0  0
  1  2  1  0
  2  3  2  0
  3  4  1  0
  4  5  2  0
  5  6  1  0
  6  7  1  0
  7  8  1  0
  8  9  1  0
  9 10  1  0
 10 11  2  0
 10 12  1  0
 12 13  2  0
 13 14  1  0
 14 15  2  0
 15 16  1  0
  9 17  1  0
 17 18  1  0
  5 19  1  0
 19 20  1  0
 19 21  2  0
 21  2  1  0
 18  6  1  0
 16 12  1  0
  1 22  1  0
  1 23  1  0
  1 24  1  0
  3 25  1  0
  4 26  1  0
  7 27  1  0
  7 28  1  0
  8 29  1  0
  8 30  1  0
 13 31  1  0
 14 32  1  0
 15 33  1  0
 17 34  1  0
 17 35  1  0
 18 36  1  0
 18 37  1  0
 20 38  1  0
 20 39  1  0
 20 40  1  0
 21 41  1  0
M  CHG  1  21   1
M  END
>  <UniqueID>  (10) 
9

>  <SMILES>  (10) 
Cc1ccc(N2CCN(C(=O)c3ccco3)CC2)c(C)[nH+]1

>  <Energy>  (10) 
74.63025075518617

>  <Genealogy>  (10) 
Cc1ccc(N2CCN(C(=O)c3ccco3)CC2)c(C)[nH+]1 (protonated)
Cc1ccc(N2CCN(C(=O)c3ccco3)CC2)c(C)[nH+]1 (3D coordinates assigned)
Cc1ccc(N2CCN(C(=O)c3ccco3)CC2)c(C)[nH+]1 (nonaromatic ring conformer: 74.63025075518617 kcal/mol)

>  <smiles>  (10) 
Cc1ccc(N2CCN(C(=O)c3ccco3)CC2)c(C)n1

>  <score_type>  (10) 
oracle

>  <origin>  (10) 
adg

>  <m_score__min__energy>  (10) 
-7.5199999999999996

>  <m_primary>  (10) 
energy

$$$$
10:0
     RDKit          3D

 76 79  0  0  0  0  0  0  0  0999 V2000
    0.9820   21.4460  -34.4090 C   0  0  0  0  0  0  0  0  0  0  0  0
    0.8440   20.5580  -33.1740 C   0  0  0  0  0  0  0  0  0  0  0  0
   -0.1810   21.1350  -32.1870 C   0  0  0  0  0  0  0  0  0  0  0  0
   -1.4680   20.4070  -32.2780 N   0  0  0  0  0  0  0  0  0  0  0  0
   -1.2980   18.9600  -31.9780 C   0  0  0  0  0  0  0  0  0  0  0  0
   -1.5940   18.1330  -33.2340 C   0  0  0  0  0  0  0  0  0  0  0  0
   -2.9180   17.3840  -33.1080 C   0  0  0  0  0  0  0  0  0  0  0  0
   -2.0860   20.6270  -33.6080 C   0  0  0  0  0  0  0  0  0  0  0  0
   -3.6180   20.6700  -33.5180 C   0  0  0  0  0  0  0  0  0  0  0  0
   -4.0660   20.5480  -32.1310 N   0  0  0  0  0  0  0  0  0  0  0  0
   -5.3430   21.0810  -31.7520 C   0  0  0  0  0  0  0  0  0  0  0  0
   -6.4990   20.3190  -31.9850 C   0  0  0  0  0  0  0  0  0  0  0  0
   -6.4080   18.9520  -32.3230 C   0  0  0  0  0  0  0  0  0  0  0  0
   -7.5580   18.1820  -32.4880 C   0  0  0  0  0  0  0  0  0  0  0  0
   -8.8100   18.7590  -32.3070 C   0  0  0  0  0  0  0  0  0  0  0  0
   -8.9220   20.1160  -32.0010 C   0  0  0  0  0  0  0  0  0  0  0  0
   -7.7700   20.9350  -31.8820 C   0  0  0  0  0  0  0  0  0  0  0  0
   -7.8620   22.2970  -31.6840 N   0  0  0  0  0  0  0  0  0  0  0  0
   -9.1430   22.9920  -31.9410 C   0  0  0  0  0  0  0  0  0  0  0  0
   -6.7520   23.0100  -31.2680 C   0  0  0  0  0  0  0  0  0  0  0  0
   -6.8660   24.3530  -30.8400 C   0  0  0  0  0  0  0  0  0  0  0  0
   -5.7530   25.0760  -30.4360 C   0  0  0  0  0  0  0  0  0  0  0  0
   -4.5090   24.4700  -30.3700 C   0  0  0  0  0  0  0  0  0  0  0  0
   -4.3440   23.1220  -30.7280 C   0  0  0  0  0  0  0  0  0  0  0  0
   -3.1110   22.4520  -30.3810 N   0  0  0  0  0  0  0  0  0  0  0  0
   -2.5430   22.4150  -29.0310 C   0  0  0  0  0  0  0  0  0  0  0  0
   -3.0310   21.1770  -28.2810 C   0  0  0  0  0  0  0  0  0  0  0  0
   -1.9240   20.1540  -28.1180 C   0  0  0  0  0  0  0  0  0  0  0  0
   -0.7910   20.2740  -28.9420 C   0  0  0  0  0  0  0  0  0  0  0  0
    0.2540   19.3630  -28.8200 C   0  0  0  0  0  0  0  0  0  0  0  0
    0.1730   18.3420  -27.8810 C   0  0  0  0  0  0  0  0  0  0  0  0
   -0.9670   18.2310  -27.0840 C   0  0  0  0  0  0  0  0  0  0  0  0
   -2.0050   19.1160  -27.2120 N   0  0  0  0  0  0  0  0  0  0  0  0
   -3.1830   18.9420  -26.3490 C   0  0  0  0  0  0  0  0  0  0  0  0
   -5.4620   22.3950  -31.2460 C   0  0  0  0  0  0  0  0  0  0  0  0
    1.1439   22.4878  -34.0953 H   0  0  0  0  0  0  0  0  0  0  0  0
    1.8382   21.1069  -35.0106 H   0  0  0  0  0  0  0  0  0  0  0  0
    0.0633   21.3828  -35.0106 H   0  0  0  0  0  0  0  0  0  0  0  0
    0.5157   19.5560  -33.4874 H   0  0  0  0  0  0  0  0  0  0  0  0
    1.8210   20.5064  -32.6711 H   0  0  0  0  0  0  0  0  0  0  0  0
    0.2130   21.0441  -31.1640 H   0  0  0  0  0  0  0  0  0  0  0  0
   -0.3556   22.1916  -32.4382 H   0  0  0  0  0  0  0  0  0  0  0  0
   -0.2639   18.7732  -31.6527 H   0  0  0  0  0  0  0  0  0  0  0  0
   -1.9954   18.6697  -31.1784 H   0  0  0  0  0  0  0  0  0  0  0  0
   -1.6449   18.8065  -34.1022 H   0  0  0  0  0  0  0  0  0  0  0  0
   -0.7888   17.3942  -33.3600 H   0  0  0  0  0  0  0  0  0  0  0  0
   -3.1615   17.2462  -32.0442 H   0  0  0  0  0  0  0  0  0  0  0  0
   -3.7155   17.9647  -33.5945 H   0  0  0  0  0  0  0  0  0  0  0  0
   -2.8311   16.4013  -33.5945 H   0  0  0  0  0  0  0  0  0  0  0  0
   -1.7252   21.5828  -34.0158 H   0  0  0  0  0  0  0  0  0  0  0  0
   -1.8027   19.7894  -34.2623 H   0  0  0  0  0  0  0  0  0  0  0  0
   -3.9756   21.6258  -33.9286 H   0  0  0  0  0  0  0  0  0  0  0  0
   -4.0263   19.8260  -34.0933 H   0  0  0  0  0  0  0  0  0  0  0  0
   -3.5990   19.8690  -31.4860 H   0  0  0  0  0  0  0  0  0  0  0  0
   -5.4192   18.4893  -32.4577 H   0  0  0  0  0  0  0  0  0  0  0  0
   -7.4752   17.1196  -32.7609 H   0  0  0  0  0  0  0  0  0  0  0  0
   -9.7162   18.1432  -32.4054 H   0  0  0  0  0  0  0  0  0  0  0  0
   -9.9183   20.5570  -31.8499 H   0  0  0  0  0  0  0  0  0  0  0  0
   -9.6187   23.2501  -30.9833 H   0  0  0  0  0  0  0  0  0  0  0  0
   -8.9529   23.9107  -32.5153 H   0  0  0  0  0  0  0  0  0  0  0  0
   -9.8095   22.3318  -32.5153 H   0  0  0  0  0  0  0  0  0  0  0  0
   -7.8555   24.8333  -30.8272 H   0  0  0  0  0  0  0  0  0  0  0  0
   -5.8590   26.1372  -30.1664 H   0  0  0  0  0  0  0  0  0  0  0  0
   -3.6389   25.0523  -30.0327 H   0  0  0  0  0  0  0  0  0  0  0  0
   -2.6440   21.8650  -31.1090 H   0  0  0  0  0  0  0  0  0  0  0  0
   -1.4455   22.3875  -29.1003 H   0  0  0  0  0  0  0  0  0  0  0  0
   -2.8651   23.3133  -28.4839 H   0  0  0  0  0  0  0  0  0  0  0  0
   -3.3875   21.4796  -27.2853 H   0  0  0  0  0  0  0  0  0  0  0  0
   -3.8425   20.7175  -28.8644 H   0  0  0  0  0  0  0  0  0  0  0  0
   -0.7307   21.0862  -29.6814 H   0  0  0  0  0  0  0  0  0  0  0  0
    1.1410   19.4509  -29.4647 H   0  0  0  0  0  0  0  0  0  0  0  0
    1.0010   17.6269  -27.7668 H   0  0  0  0  0  0  0  0  0  0  0  0
   -1.0332   17.4213  -26.3423 H   0  0  0  0  0  0  0  0  0  0  0  0
   -2.8746   18.9875  -25.2941 H   0  0  0  0  0  0  0  0  0  0  0  0
   -3.9090   19.7427  -26.5537 H   0  0  0  0  0  0  0  0  0  0  0  0
   -3.6465   17.9656  -26.5537 H   0  0  0  0  0  0  0  0  0  0  0  0
  1  2  1  0
  2  3  1  0
  3  4  1  0
  4  5  1  0
  5  6  1  0
  6  7  1  0
  4  8  1  0
  8  9  1  0
  9 10  1  0
 10 11  1  0
 11 12  2  0
 12 13  1  0
 13 14  2  0
 14 15  1  0
 15 16  2  0
 16 17  1  0
 17 18  2  0
 18 19  1  0
 18 20  1  0
 20 21  2  0
 21 22  1  0
 22 23  2  0
 23 24  1  0
 24 25  1  0
 25 26  1  0
 26 27  1  0
 27 28  1  0
 28 29  2  0
 29 30  1  0
 30 31  2  0
 31 32  1  0
 32 33  2  0
 33 34  1  0
 24 35  2  0
 35 11  1  0
 17 12  1  0
 35 20  1  0
 33 28  1  0
  1 36  1  0
  1 37  1  0
  1 38  1  0
  2 39  1  0
  2 40  1  0
  3 41  1  0
  3 42  1  0
  5 43  1  0
  5 44  1  0
  6 45  1  0
  6 46  1  0
  7 47  1  0
  7 48  1  0
  7 49  1  0
  8 50  1  0
  8 51  1  0
  9 52  1  0
  9 53  1  0
 10 54  1  0
 13 55  1  0
 14 56  1  0
 15 57  1  0
 16 58  1  0
 19 59  1  0
 19 60  1  0
 19 61  1  0
 21 62  1  0
 22 63  1  0
 23 64  1  0
 25 65  1  0
 26 66  1  0
 26 67  1  0
 27 68  1  0
 27 69  1  0
 29 70  1  0
 30 71  1  0
 31 72  1  0
 32 73  1  0
 34 74  1  0
 34 75  1  0
 34 76  1  0
M  CHG  2  18   1  33   1
M  END
>  <UniqueID>  (11) 
10

>  <SMILES>  (11) 
CCCN(CCC)CCNc1c2ccccc2[n+](C)c2cccc(NCCc3cccc[n+]3C)c12

>  <Energy>  (11) 
106.18427622792848

>  <Genealogy>  (11) 
CCCN(CCC)CCNc1c2ccccc2[n+](C)c2cccc(NCCc3cccc[n+]3C)c12 (3D coordinates assigned)
CCCN(CCC)CCNc1c2ccccc2[n+](C)c2cccc(NCCc3cccc[n+]3C)c12 (optimized conformer: 106.18427622792848 kcal/mol)

>  <smiles>  (11) 
CCCN(CCC)CCNc1c2ccccc2[n+](C)c2cccc(NCCc3cccc[n+]3C)c12

>  <score_type>  (11) 
oracle

>  <origin>  (11) 
adg

>  <m_score__min__energy>  (11) 
-8.7200000000000006

>  <m_primary>  (11) 
energy

$$$$
11:0
     RDKit          3D

 39 41  0  0  0  0  0  0  0  0999 V2000
   -6.1550   25.5270  -29.5940 C   0  0  0  0  0  0  0  0  0  0  0  0
   -6.1110   25.1110  -30.8580 C   0  0  0  0  0  0  0  0  0  0  0  0
   -5.5960   23.8150  -31.2120 N   0  0  0  0  0  0  0  0  0  0  0  0
   -4.3060   23.5530  -31.3600 N   0  0  0  0  0  0  0  0  0  0  0  0
   -4.1770   22.2680  -31.7450 C   0  0  0  0  0  0  0  0  0  0  0  0
   -2.8660   21.6350  -32.0140 C   0  0  0  0  0  0  0  0  0  0  0  0
   -2.5160   21.2050  -33.3070 C   0  0  0  0  0  0  0  0  0  0  0  0
   -1.2750   20.6060  -33.5400 C   0  0  0  0  0  0  0  0  0  0  0  0
   -0.3770   20.4180  -32.4850 C   0  0  0  0  0  0  0  0  0  0  0  0
    1.1800   19.6640  -32.7790 Cl  0  0  0  0  0  0  0  0  0  0  0  0
   -0.7260   20.8230  -31.1930 C   0  0  0  0  0  0  0  0  0  0  0  0
   -1.9660   21.4230  -30.9570 C   0  0  0  0  0  0  0  0  0  0  0  0
   -5.4400   21.6930  -31.8500 C   0  0  0  0  0  0  0  0  0  0  0  0
   -5.7830   20.3720  -32.4110 C   0  0  0  0  0  0  0  0  0  0  0  0
   -5.4940   20.0790  -33.7540 C   0  0  0  0  0  0  0  0  0  0  0  0
   -5.8030   18.8230  -34.2820 C   0  0  0  0  0  0  0  0  0  0  0  0
   -6.4020   17.8500  -33.4740 C   0  0  0  0  0  0  0  0  0  0  0  0
   -6.7890   16.2730  -34.1380 Cl  0  0  0  0  0  0  0  0  0  0  0  0
   -6.6880   18.1350  -32.1340 C   0  0  0  0  0  0  0  0  0  0  0  0
   -6.3780   19.3900  -31.6030 C   0  0  0  0  0  0  0  0  0  0  0  0
   -6.3200   22.7070  -31.4940 C   0  0  0  0  0  0  0  0  0  0  0  0
   -7.8220   22.6590  -31.6140 C   0  0  0  0  0  0  0  0  0  0  0  0
   -8.4270   21.8590  -30.4660 C   0  0  0  0  0  0  0  0  0  0  0  0
   -6.5548   26.5239  -29.3567 H   0  0  0  0  0  0  0  0  0  0  0  0
   -5.7915   24.8738  -28.7870 H   0  0  0  0  0  0  0  0  0  0  0  0
   -6.4784   25.7762  -31.6533 H   0  0  0  0  0  0  0  0  0  0  0  0
   -3.2228   21.3410  -34.1389 H   0  0  0  0  0  0  0  0  0  0  0  0
   -1.0042   20.2817  -34.5556 H   0  0  0  0  0  0  0  0  0  0  0  0
   -0.0233   20.6691  -30.3608 H   0  0  0  0  0  0  0  0  0  0  0  0
   -2.2387   21.7311  -29.9369 H   0  0  0  0  0  0  0  0  0  0  0  0
   -5.0228   20.8411  -34.3922 H   0  0  0  0  0  0  0  0  0  0  0  0
   -5.5751   18.5985  -35.3345 H   0  0  0  0  0  0  0  0  0  0  0  0
   -7.1574   17.3702  -31.4979 H   0  0  0  0  0  0  0  0  0  0  0  0
   -6.6009   19.6092  -30.5484 H   0  0  0  0  0  0  0  0  0  0  0  0
   -8.2196   23.6843  -31.5890 H   0  0  0  0  0  0  0  0  0  0  0  0
   -8.0863   22.1713  -32.5639 H   0  0  0  0  0  0  0  0  0  0  0  0
   -8.1014   22.2895  -29.5075 H   0  0  0  0  0  0  0  0  0  0  0  0
   -9.5244   21.8969  -30.5311 H   0  0  0  0  0  0  0  0  0  0  0  0
   -8.0917   20.8134  -30.5311 H   0  0  0  0  0  0  0  0  0  0  0  0
  1  2  2  0
  2  3  1  0
  3  4  1  0
  4  5  2  0
  5  6  1  0
  6  7  2  0
  7  8  1  0
  8  9  2  0
  9 10  1  0
  9 11  1  0
 11 12  2  0
  5 13  1  0
 13 14  1  0
 14 15  2  0
 15 16  1  0
 16 17  2  0
 17 18  1  0
 17 19  1  0
 19 20  2  0
 13 21  2  0
 21 22  1  0
 22 23  1  0
 21  3  1  0
 12  6  1  0
 20 14  1  0
  1 24  1  0
  1 25  1  0
  2 26  1  0
  7 27  1  0
  8 28  1  0
 11 29  1  0
 12 30  1  0
 15 31  1  0
 16 32  1  0
 19 33  1  0
 20 34  1  0
 22 35  1  0
 22 36  1  0
 23 37  1  0
 23 38  1  0
 23 39  1  0
M  END
>  <UniqueID>  (12) 
11

>  <SMILES>  (12) 
C=Cn1nc(-c2ccc(Cl)cc2)c(-c2ccc(Cl)cc2)c1CC

>  <Energy>  (12) 
75.95636502815516

>  <Genealogy>  (12) 
C=Cn1nc(-c2ccc(Cl)cc2)c(-c2ccc(Cl)cc2)c1CC (3D coordinates assigned)
C=Cn1nc(-c2ccc(Cl)cc2)c(-c2ccc(Cl)cc2)c1CC (optimized conformer: 75.95636502815516 kcal/mol)

>  <smiles>  (12) 
C=Cn1nc(-c2ccc(Cl)cc2)c(-c2ccc(Cl)cc2)c1CC

>  <score_type>  (12) 
oracle

>  <origin>  (12) 
adg

>  <m_score__min__energy>  (12) 
-8.6400000000000006

>  <m_primary>  (12) 
energy

$$$$
12:0
     RDKit          3D

 63 65  0  0  0  0  0  0  0  0999 V2000
   -3.4360   18.6450  -26.2400 C   0  0  0  0  0  0  0  0  0  0  0  0
   -2.0080   19.2010  -26.3490 C   0  0  0  0  0  0  0  0  0  0  0  0
   -1.4710   19.2730  -27.7310 N   0  0  0  0  0  0  0  0  0  0  0  0
   -0.1480   18.6590  -27.9380 C   0  0  0  0  0  0  0  0  0  0  0  0
   -1.6590   20.5650  -28.4300 C   0  0  0  0  0  0  0  0  0  0  0  0
   -3.1120   21.0480  -28.4550 C   0  0  0  0  0  0  0  0  0  0  0  0
   -3.2140   22.2180  -29.2460 O   0  0  0  0  0  0  0  0  0  0  0  0
   -2.0620   23.0340  -29.1340 C   0  0  0  0  0  0  0  0  0  0  0  0
   -2.4250   24.5270  -29.0960 C   0  0  0  0  0  0  0  0  0  0  0  0
   -3.8000   24.6810  -29.3950 O   0  0  0  0  0  0  0  0  0  0  0  0
   -3.9660   25.1270  -30.6840 N   0  0  0  0  0  0  0  0  0  0  0  0
   -5.3820   25.1830  -31.0880 C   0  0  0  0  0  0  0  0  0  0  0  0
   -6.0570   23.8010  -31.1800 C   0  0  0  0  0  0  0  0  0  0  0  0
   -5.2100   22.7010  -30.6660 N   0  0  0  0  0  0  0  0  0  0  0  0
   -5.4110   21.4870  -31.4530 C   0  0  0  0  0  0  0  0  0  0  0  0
   -6.7210   20.9640  -31.6780 C   0  0  0  0  0  0  0  0  0  0  0  0
   -7.8770   21.5080  -31.0590 C   0  0  0  0  0  0  0  0  0  0  0  0
   -9.1550   21.0810  -31.4070 C   0  0  0  0  0  0  0  0  0  0  0  0
   -9.3200   20.1020  -32.3730 C   0  0  0  0  0  0  0  0  0  0  0  0
   -8.2100   19.5010  -32.9520 C   0  0  0  0  0  0  0  0  0  0  0  0
   -6.8930   19.8750  -32.5820 C   0  0  0  0  0  0  0  0  0  0  0  0
   -5.7990   19.2230  -33.1070 N   0  0  0  0  0  0  0  0  0  0  0  0
   -5.9660   17.9020  -33.7530 C   0  0  0  0  0  0  0  0  0  0  0  0
   -4.5450   19.7890  -33.0160 C   0  0  0  0  0  0  0  0  0  0  0  0
   -3.4610   19.2950  -33.7910 C   0  0  0  0  0  0  0  0  0  0  0  0
   -2.1870   19.8480  -33.6930 C   0  0  0  0  0  0  0  0  0  0  0  0
   -0.8770   19.2210  -34.6780 Cl  0  0  0  0  0  0  0  0  0  0  0  0
   -1.9600   20.9130  -32.8340 C   0  0  0  0  0  0  0  0  0  0  0  0
   -3.0080   21.4440  -32.0850 C   0  0  0  0  0  0  0  0  0  0  0  0
   -4.3220   20.9130  -32.1710 C   0  0  0  0  0  0  0  0  0  0  0  0
   -3.7082   18.5390  -25.1795 H   0  0  0  0  0  0  0  0  0  0  0  0
   -4.1370   19.3359  -26.7312 H   0  0  0  0  0  0  0  0  0  0  0  0
   -3.4852   17.6620  -26.7312 H   0  0  0  0  0  0  0  0  0  0  0  0
   -2.0033   20.2168  -25.9269 H   0  0  0  0  0  0  0  0  0  0  0  0
   -1.3606   18.5001  -25.8017 H   0  0  0  0  0  0  0  0  0  0  0  0
    0.3135   18.4448  -26.9627 H   0  0  0  0  0  0  0  0  0  0  0  0
   -0.2629   17.7222  -28.5029 H   0  0  0  0  0  0  0  0  0  0  0  0
    0.4933   19.3515  -28.5029 H   0  0  0  0  0  0  0  0  0  0  0  0
   -1.0491   21.3263  -27.9217 H   0  0  0  0  0  0  0  0  0  0  0  0
   -1.3543   20.4110  -29.4757 H   0  0  0  0  0  0  0  0  0  0  0  0
   -3.7512   20.2613  -28.8822 H   0  0  0  0  0  0  0  0  0  0  0  0
   -3.4380   21.2733  -27.4289 H   0  0  0  0  0  0  0  0  0  0  0  0
   -1.5288   22.7730  -28.2079 H   0  0  0  0  0  0  0  0  0  0  0  0
   -1.4292   22.8571  -30.0162 H   0  0  0  0  0  0  0  0  0  0  0  0
   -2.2195   24.9299  -28.0933 H   0  0  0  0  0  0  0  0  0  0  0  0
   -1.8229   25.0720  -29.8379 H   0  0  0  0  0  0  0  0  0  0  0  0
   -3.4990   26.0530  -30.8480 H   0  0  0  0  0  0  0  0  0  0  0  0
   -5.9295   25.7881  -30.3504 H   0  0  0  0  0  0  0  0  0  0  0  0
   -5.4106   25.6215  -32.0964 H   0  0  0  0  0  0  0  0  0  0  0  0
   -6.9881   23.8274  -30.5950 H   0  0  0  0  0  0  0  0  0  0  0  0
   -6.2428   23.5991  -32.2452 H   0  0  0  0  0  0  0  0  0  0  0  0
   -4.2050   22.9840  -30.6870 H   0  0  0  0  0  0  0  0  0  0  0  0
   -5.3620   22.5460  -29.6490 H   0  0  0  0  0  0  0  0  0  0  0  0
   -7.7600   22.2836  -30.2878 H   0  0  0  0  0  0  0  0  0  0  0  0
  -10.0347   21.5212  -30.9147 H   0  0  0  0  0  0  0  0  0  0  0  0
  -10.3317   19.8002  -32.6819 H   0  0  0  0  0  0  0  0  0  0  0  0
   -8.3551   18.7196  -33.7125 H   0  0  0  0  0  0  0  0  0  0  0  0
   -6.0642   17.1256  -32.9800 H   0  0  0  0  0  0  0  0  0  0  0  0
   -6.8700   17.9119  -34.3796 H   0  0  0  0  0  0  0  0  0  0  0  0
   -5.0879   17.6866  -34.3796 H   0  0  0  0  0  0  0  0  0  0  0  0
   -3.6322   18.4575  -34.4833 H   0  0  0  0  0  0  0  0  0  0  0  0
   -0.9501   21.3395  -32.7438 H   0  0  0  0  0  0  0  0  0  0  0  0
   -2.8133   22.2926  -31.4128 H   0  0  0  0  0  0  0  0  0  0  0  0
  1  2  1  0
  2  3  1  0
  3  4  1  0
  3  5  1  0
  5  6  1  0
  6  7  1  0
  7  8  1  0
  8  9  1  0
  9 10  1  0
 10 11  1  0
 11 12  1  0
 12 13  1  0
 13 14  1  0
 14 15  1  0
 15 16  2  0
 16 17  1  0
 17 18  2  0
 18 19  1  0
 19 20  2  0
 20 21  1  0
 21 22  2  0
 22 23  1  0
 22 24  1  0
 24 25  2  0
 25 26  1  0
 26 27  1  0
 26 28  2  0
 28 29  1  0
 29 30  2  0
 30 15  1  0
 21 16  1  0
 30 24  1  0
  1 31  1  0
  1 32  1  0
  1 33  1  0
  2 34  1  0
  2 35  1  0
  4 36  1  0
  4 37  1  0
  4 38  1  0
  5 39  1  0
  5 40  1  0
  6 41  1  0
  6 42  1  0
  8 43  1  0
  8 44  1  0
  9 45  1  0
  9 46  1  0
 11 47  1  0
 12 48  1  0
 12 49  1  0
 13 50  1  0
 13 51  1  0
 14 52  1  0
 14 53  1  0
 17 54  1  0
 18 55  1  0
 19 56  1  0
 20 57  1  0
 23 58  1  0
 23 59  1  0
 23 60  1  0
 25 61  1  0
 28 62  1  0
 29 63  1  0
M  CHG  2  14   1  22   1
M  END
>  <UniqueID>  (13) 
12

>  <SMILES>  (13) 
CCN(C)CCOCCONCC[NH2+]c1c2ccccc2[n+](C)c2cc(Cl)ccc12

>  <Energy>  (13) 
101.46189445868424

>  <Genealogy>  (13) 
CCN(C)CCOCCONCC[NH2+]c1c2ccccc2[n+](C)c2cc(Cl)ccc12 (protonated)
CCN(C)CCOCCONCC[NH2+]c1c2ccccc2[n+](C)c2cc(Cl)ccc12 (3D coordinates assigned)
CCN(C)CCOCCONCC[NH2+]c1c2ccccc2[n+](C)c2cc(Cl)ccc12 (optimized conformer: 101.46189445868424 kcal/mol)

>  <smiles>  (13) 
CCN(C)CCOCCONCCNc1c2ccccc2[n+](C)c2cc(Cl)ccc12

>  <score_type>  (13) 
oracle

>  <origin>  (13) 
adg

>  <m_score__min__energy>  (13) 
-9.6400000000000006

>  <m_primary>  (13) 
energy

$$$$
13:0
     RDKit          3D

 30 30  0  0  0  0  0  0  0  0999 V2000
   -3.1950   22.9090  -30.4880 C   0  0  0  0  0  0  0  0  0  0  0  0
   -3.5290   24.2490  -29.8440 C   0  0  0  0  0  0  0  0  0  0  0  0
   -4.0590   25.1750  -30.8550 N   0  0  0  0  0  0  0  0  0  0  0  0
   -5.4630   25.5200  -30.5970 C   0  0  0  0  0  0  0  0  0  0  0  0
   -6.3200   24.3250  -30.5570 C   0  0  0  0  0  0  0  0  0  0  0  0
   -7.0410   23.3600  -30.5250 C   0  0  0  0  0  0  0  0  0  0  0  0
   -7.9300   22.1830  -30.5110 C   0  0  0  0  0  0  0  0  0  0  0  0
   -8.1810   21.6380  -31.8640 N   0  0  0  0  0  0  0  0  0  0  0  0
   -7.0970   20.7700  -32.3540 C   0  0  0  0  0  0  0  0  0  0  0  0
   -7.6500   19.3610  -32.4620 C   0  0  0  0  0  0  0  0  0  0  0  0
   -9.1360   19.5560  -32.6480 C   0  0  0  0  0  0  0  0  0  0  0  0
   -9.4420   20.8780  -31.9630 C   0  0  0  0  0  0  0  0  0  0  0  0
   -3.0086   22.1613  -29.7030 H   0  0  0  0  0  0  0  0  0  0  0  0
   -4.0391   22.5820  -31.1129 H   0  0  0  0  0  0  0  0  0  0  0  0
   -2.2962   23.0164  -31.1129 H   0  0  0  0  0  0  0  0  0  0  0  0
   -4.2834   24.0973  -29.0580 H   0  0  0  0  0  0  0  0  0  0  0  0
   -2.6149   24.6770  -29.4066 H   0  0  0  0  0  0  0  0  0  0  0  0
   -3.4840   26.0520  -30.8460 H   0  0  0  0  0  0  0  0  0  0  0  0
   -5.5302   26.0391  -29.6295 H   0  0  0  0  0  0  0  0  0  0  0  0
   -5.8131   26.1649  -31.4165 H   0  0  0  0  0  0  0  0  0  0  0  0
   -7.4645   21.3982  -29.8967 H   0  0  0  0  0  0  0  0  0  0  0  0
   -8.8979   22.5037  -30.0982 H   0  0  0  0  0  0  0  0  0  0  0  0
   -6.7568   21.1160  -33.3412 H   0  0  0  0  0  0  0  0  0  0  0  0
   -6.2398   20.7966  -31.6651 H   0  0  0  0  0  0  0  0  0  0  0  0
   -7.2148   18.8368  -33.3256 H   0  0  0  0  0  0  0  0  0  0  0  0
   -7.4140   18.7483  -31.5794 H   0  0  0  0  0  0  0  0  0  0  0  0
   -9.3896   19.6056  -33.7172 H   0  0  0  0  0  0  0  0  0  0  0  0
   -9.7202   18.7246  -32.2266 H   0  0  0  0  0  0  0  0  0  0  0  0
  -10.1751   21.4453  -32.5552 H   0  0  0  0  0  0  0  0  0  0  0  0
   -9.8645   20.7033  -30.9625 H   0  0  0  0  0  0  0  0  0  0  0  0
  1  2  1  0
  2  3  1  0
  3  4  1  0
  4  5  1  0
  5  6  3  0
  6  7  1  0
  7  8  1  0
  8  9  1  0
  9 10  1  0
 10 11  1  0
 11 12  1  0
 12  8  1  0
  1 13  1  0
  1 14  1  0
  1 15  1  0
  2 16  1  0
  2 17  1  0
  3 18  1  0
  4 19  1  0
  4 20  1  0
  7 21  1  0
  7 22  1  0
  9 23  1  0
  9 24  1  0
 10 25  1  0
 10 26  1  0
 11 27  1  0
 11 28  1  0
 12 29  1  0
 12 30  1  0
M  END
>  <UniqueID>  (14) 
13

>  <SMILES>  (14) 
CCNCC#CCN1CCCC1

>  <Energy>  (14) 
22.137884007520924

>  <Genealogy>  (14) 
CCNCC#CCN1CCCC1 (3D coordinates assigned)
CCNCC#CCN1CCCC1 (nonaromatic ring conformer: 22.137884007520924 kcal/mol)

>  <smiles>  (14) 
CCNCC#CCN1CCCC1

>  <score_type>  (14) 
oracle

>  <origin>  (14) 
adg

>  <m_score__min__energy>  (14) 
-5.5499999999999998

>  <m_primary>  (14) 
energy

$$$$
14:0
     RDKit          3D

 40 40  0  0  0  0  0  0  0  0999 V2000
   -2.9660   25.2470  -26.2920 C   0  0  0  0  0  0  0  0  0  0  0  0
   -3.7200   24.2150  -27.1320 C   0  0  0  0  0  0  0  0  0  0  0  0
   -2.8820   23.6930  -28.3050 C   0  0  0  0  0  0  0  0  0  0  0  0
   -2.6580   24.7530  -29.3390 C   0  0  0  0  0  0  0  0  0  0  0  0
   -1.6190   25.4650  -29.2940 O   0  0  0  0  0  0  0  0  0  0  0  0
   -3.6420   24.9710  -30.3560 N   0  0  0  0  0  0  0  0  0  0  0  0
   -5.0500   24.6200  -30.2020 C   0  0  0  0  0  0  0  0  0  0  0  0
   -5.7280   24.5260  -31.5700 C   0  0  0  0  0  0  0  0  0  0  0  0
   -6.4270   23.2030  -31.7250 C   0  0  0  0  0  0  0  0  0  0  0  0
   -7.7710   23.0630  -31.3430 C   0  0  0  0  0  0  0  0  0  0  0  0
   -8.4300   21.8430  -31.5140 C   0  0  0  0  0  0  0  0  0  0  0  0
   -7.7570   20.7520  -32.0810 C   0  0  0  0  0  0  0  0  0  0  0  0
   -8.5880   19.2090  -32.2630 S   0  0  0  0  0  0  0  0  0  0  0  0
   -9.8370   19.3860  -33.0810 O   0  0  0  0  0  0  0  0  0  0  0  0
   -8.9800   18.7010  -30.9040 O   0  0  0  0  0  0  0  0  0  0  0  0
   -7.5480   18.0430  -33.0270 N   0  0  0  0  0  0  0  0  0  0  0  0
   -6.6130   17.4530  -32.0660 C   0  0  0  0  0  0  0  0  0  0  0  0
   -5.4940   16.7240  -32.8000 C   0  0  0  0  0  0  0  0  0  0  0  0
   -6.4190   20.8900  -32.4730 C   0  0  0  0  0  0  0  0  0  0  0  0
   -5.7590   22.1110  -32.3010 C   0  0  0  0  0  0  0  0  0  0  0  0
   -3.1213   25.0345  -25.2239 H   0  0  0  0  0  0  0  0  0  0  0  0
   -1.8920   25.1945  -26.5240 H   0  0  0  0  0  0  0  0  0  0  0  0
   -3.3424   26.2542  -26.5240 H   0  0  0  0  0  0  0  0  0  0  0  0
   -3.9934   23.3664  -26.4877 H   0  0  0  0  0  0  0  0  0  0  0  0
   -4.6110   24.7074  -27.5487 H   0  0  0  0  0  0  0  0  0  0  0  0
   -1.9071   23.3545  -27.9242 H   0  0  0  0  0  0  0  0  0  0  0  0
   -3.4299   22.8637  -28.7763 H   0  0  0  0  0  0  0  0  0  0  0  0
   -5.1278   23.6489  -29.6912 H   0  0  0  0  0  0  0  0  0  0  0  0
   -5.5497   25.3999  -29.6086 H   0  0  0  0  0  0  0  0  0  0  0  0
   -6.4647   25.3373  -31.6648 H   0  0  0  0  0  0  0  0  0  0  0  0
   -4.9605   24.6153  -32.3529 H   0  0  0  0  0  0  0  0  0  0  0  0
   -8.3078   23.9184  -30.9068 H   0  0  0  0  0  0  0  0  0  0  0  0
   -9.4799   21.7384  -31.2028 H   0  0  0  0  0  0  0  0  0  0  0  0
   -6.1803   18.2502  -31.4437 H   0  0  0  0  0  0  0  0  0  0  0  0
   -7.1546   16.7346  -31.4330 H   0  0  0  0  0  0  0  0  0  0  0  0
   -4.8062   16.2759  -32.0677 H   0  0  0  0  0  0  0  0  0  0  0  0
   -5.9243   15.9324  -33.4310 H   0  0  0  0  0  0  0  0  0  0  0  0
   -4.9438   17.4375  -33.4310 H   0  0  0  0  0  0  0  0  0  0  0  0
   -5.8864   20.0361  -32.9170 H   0  0  0  0  0  0  0  0  0  0  0  0
   -4.7111   22.2161  -32.6187 H   0  0  0  0  0  0  0  0  0  0  0  0
  1  2  1  0
  2  3  1  0
  3  4  1  0
  4  5  2  0
  4  6  1  0
  6  7  1  0
  7  8  1  0
  8  9  1  0
  9 10  2  0
 10 11  1  0
 11 12  2  0
 12 13  1  0
 13 14  2  0
 13 15  2  0
 13 16  1  0
 16 17  1  0
 17 18  1  0
 12 19  1  0
 19 20  2  0
 20  9  1  0
  1 21  1  0
  1 22  1  0
  1 23  1  0
  2 24  1  0
  2 25  1  0
  3 26  1  0
  3 27  1  0
  7 28  1  0
  7 29  1  0
  8 30  1  0
  8 31  1  0
 10 32  1  0
 11 33  1  0
 17 34  1  0
 17 35  1  0
 18 36  1  0
 18 37  1  0
 18 38  1  0
 19 39  1  0
 20 40  1  0
M  CHG  2   6  -1  16  -1
M  END
>  <UniqueID>  (15) 
14

>  <SMILES>  (15) 
CCCC(=O)[N-]CCc1ccc(S(=O)(=O)[N-]CC)cc1

>  <Energy>  (15) 
23.733607710709713

>  <Genealogy>  (15) 
CCCC(=O)[N-]CCc1ccc(S(=O)(=O)[N-]CC)cc1 (protonated)
CCCC(=O)[N-]CCc1ccc(S(=O)(=O)[N-]CC)cc1 (3D coordinates assigned)
CCCC(=O)[N-]CCc1ccc(S(=O)(=O)[N-]CC)cc1 (optimized conformer: 23.733607710709713 kcal/mol)

>  <smiles>  (15) 
CCCC(=O)NCCc1ccc(S(=O)(=O)NCC)cc1

>  <score_type>  (15) 
oracle

>  <origin>  (15) 
adg

>  <m_score__min__energy>  (15) 
-9.2200000000000006

>  <m_primary>  (15) 
energy

$$$$
15:0
     RDKit          3D

 64 66  0  0  0  0  0  0  0  0999 V2000
    0.8692   20.1676  -30.6857 H   0  0  0  0  0  0  0  0  0  0  0  0
    0.0050   20.5150  -31.2710 C   0  0  0  0  0  0  0  0  0  0  0  0
   -1.1350   20.6490  -30.6550 N   0  0  0  0  0  0  0  0  0  0  0  0
   -1.8820   21.8070  -30.4920 O   0  0  0  0  0  0  0  0  0  0  0  0
   -1.5940   22.8280  -29.5390 C   0  0  0  0  0  0  0  0  0  0  0  0
   -1.5851   23.8056  -30.0431 H   0  0  0  0  0  0  0  0  0  0  0  0
   -0.6103   22.6344  -29.0865 H   0  0  0  0  0  0  0  0  0  0  0  0
   -2.6610   22.8320  -28.4430 C   0  0  0  0  0  0  0  0  0  0  0  0
   -3.6494   22.7059  -28.9091 H   0  0  0  0  0  0  0  0  0  0  0  0
   -2.5934   23.7899  -27.9064 H   0  0  0  0  0  0  0  0  0  0  0  0
   -2.4440   21.6980  -27.4220 C   0  0  0  0  0  0  0  0  0  0  0  0
   -3.1431   21.8368  -26.5842 H   0  0  0  0  0  0  0  0  0  0  0  0
   -1.3988   21.7442  -27.0823 H   0  0  0  0  0  0  0  0  0  0  0  0
   -2.6700   20.3660  -28.0140 N   0  0  0  0  0  0  0  0  0  0  0  0
   -2.2440   20.3340  -28.9690 H   0  0  0  0  0  0  0  0  0  0  0  0
   -2.1030   19.2830  -27.1960 C   0  0  0  0  0  0  0  0  0  0  0  0
   -1.1696   19.6313  -26.7298 H   0  0  0  0  0  0  0  0  0  0  0  0
   -1.9016   18.4155  -27.8417 H   0  0  0  0  0  0  0  0  0  0  0  0
   -3.0870   18.8710  -26.1050 C   0  0  0  0  0  0  0  0  0  0  0  0
   -2.6395   19.0584  -25.1178 H   0  0  0  0  0  0  0  0  0  0  0  0
   -4.0123   19.4573  -26.2054 H   0  0  0  0  0  0  0  0  0  0  0  0
   -3.3186   17.8003  -26.2054 H   0  0  0  0  0  0  0  0  0  0  0  0
    0.2150   20.8060  -32.7360 C   0  0  0  0  0  0  0  0  0  0  0  0
   -0.3284   21.7256  -32.9988 H   0  0  0  0  0  0  0  0  0  0  0  0
    1.2944   20.9238  -32.9122 H   0  0  0  0  0  0  0  0  0  0  0  0
   -0.2930   19.6580  -33.6180 C   0  0  0  0  0  0  0  0  0  0  0  0
   -0.6139   20.0619  -34.5896 H   0  0  0  0  0  0  0  0  0  0  0  0
    0.5200   18.9310  -33.7612 H   0  0  0  0  0  0  0  0  0  0  0  0
   -1.4290   18.9830  -32.9750 N   0  0  0  0  0  0  0  0  0  0  0  0
   -1.5110   19.2970  -31.9810 H   0  0  0  0  0  0  0  0  0  0  0  0
   -2.7000   19.2160  -33.6840 C   0  0  0  0  0  0  0  0  0  0  0  0
   -2.5305   19.0670  -34.7606 H   0  0  0  0  0  0  0  0  0  0  0  0
   -3.4336   18.5057  -33.2750 H   0  0  0  0  0  0  0  0  0  0  0  0
   -3.2730   20.6340  -33.4710 C   0  0  0  0  0  0  0  0  0  0  0  0
   -2.4745   21.3701  -33.6460 H   0  0  0  0  0  0  0  0  0  0  0  0
   -4.1045   20.7750  -34.1772 H   0  0  0  0  0  0  0  0  0  0  0  0
   -3.7950   20.8150  -32.1130 N   0  0  0  0  0  0  0  0  0  0  0  0
   -3.1460   20.7780  -31.2990 H   0  0  0  0  0  0  0  0  0  0  0  0
   -5.1730   21.1470  -31.8640 C   0  0  0  0  0  0  0  0  0  0  0  0
   -6.1740   20.1810  -32.0700 C   0  0  0  0  0  0  0  0  0  0  0  0
   -5.8440   18.8840  -32.5210 C   0  0  0  0  0  0  0  0  0  0  0  0
   -4.7988   18.6425  -32.7644 H   0  0  0  0  0  0  0  0  0  0  0  0
   -6.8260   17.9080  -32.6610 C   0  0  0  0  0  0  0  0  0  0  0  0
   -6.5559   16.9054  -33.0240 H   0  0  0  0  0  0  0  0  0  0  0  0
   -8.1470   18.1980  -32.3430 C   0  0  0  0  0  0  0  0  0  0  0  0
   -8.9169   17.4176  -32.4337 H   0  0  0  0  0  0  0  0  0  0  0  0
   -8.5000   19.4760  -31.9090 C   0  0  0  0  0  0  0  0  0  0  0  0
   -9.5472   19.6879  -31.6475 H   0  0  0  0  0  0  0  0  0  0  0  0
   -7.5310   20.5080  -31.7990 C   0  0  0  0  0  0  0  0  0  0  0  0
   -7.8750   21.7930  -31.4220 N   0  0  0  0  0  0  0  0  0  0  0  0
   -9.2990   22.2050  -31.4020 C   0  0  0  0  0  0  0  0  0  0  0  0
   -9.6377   22.3030  -30.3601 H   0  0  0  0  0  0  0  0  0  0  0  0
   -9.4083   23.1716  -31.9156 H   0  0  0  0  0  0  0  0  0  0  0  0
   -9.9075   21.4461  -31.9156 H   0  0  0  0  0  0  0  0  0  0  0  0
   -6.8900   22.7090  -31.0990 C   0  0  0  0  0  0  0  0  0  0  0  0
   -7.1980   23.9520  -30.4850 C   0  0  0  0  0  0  0  0  0  0  0  0
   -8.2353   24.1669  -30.1886 H   0  0  0  0  0  0  0  0  0  0  0  0
   -6.2070   24.9040  -30.2520 C   0  0  0  0  0  0  0  0  0  0  0  0
   -6.4674   25.8613  -29.7768 H   0  0  0  0  0  0  0  0  0  0  0  0
   -4.8910   24.6480  -30.6180 C   0  0  0  0  0  0  0  0  0  0  0  0
   -4.1189   25.4166  -30.4661 H   0  0  0  0  0  0  0  0  0  0  0  0
   -4.5490   23.4190  -31.1770 C   0  0  0  0  0  0  0  0  0  0  0  0
   -3.5056   23.2246  -31.4661 H   0  0  0  0  0  0  0  0  0  0  0  0
   -5.5270   22.4190  -31.3770 C   0  0  0  0  0  0  0  0  0  0  0  0
  1  2  1  0
  2  3  2  0
  3  4  1  0
  4  5  1  0
  5  6  1  0
  5  7  1  0
  5  8  1  0
  8  9  1  0
  8 10  1  0
  8 11  1  0
 11 12  1  0
 11 13  1  0
 11 14  1  0
 14 15  1  0
 14 16  1  0
 16 17  1  0
 16 18  1  0
 16 19  1  0
 19 20  1  0
 19 21  1  0
 19 22  1  0
  2 23  1  0
 23 24  1  0
 23 25  1  0
 23 26  1  0
 26 27  1  0
 26 28  1  0
 26 29  1  0
 29 30  1  0
 29 31  1  0
 31 32  1  0
 31 33  1  0
 31 34  1  0
 34 35  1  0
 34 36  1  0
 34 37  1  0
 37 38  1  0
 37 39  1  0
 39 40  2  0
 40 41  1  0
 41 42  1  0
 41 43  2  0
 43 44  1  0
 43 45  1  0
 45 46  1  0
 45 47  2  0
 47 48  1  0
 47 49  1  0
 49 50  2  0
 50 51  1  0
 51 52  1  0
 51 53  1  0
 51 54  1  0
 50 55  1  0
 55 56  2  0
 56 57  1  0
 56 58  1  0
 58 59  1  0
 58 60  2  0
 60 61  1  0
 60 62  1  0
 62 63  1  0
 62 64  2  0
 64 39  1  0
 49 40  1  0
 64 55  1  0
M  CHG  1  50   1
M  END
>  <UniqueID>  (16) 
15

>  <SMILES>  (16) 
CCNCCCO/N=C\CCNCCNc1c2ccccc2[n+](C)c2ccccc12

>  <Energy>  (16) 
93.0811571292401

>  <Genealogy>  (16) 
CCNCCCO/N=C\CCNCCNc1c2ccccc2[n+](C)c2ccccc12 (cis-trans isomerization)
CCNCCCO/N=C\CCNCCNc1c2ccccc2[n+](C)c2ccccc12 (3D coordinates assigned)
CCNCCCO/N=C\CCNCCNc1c2ccccc2[n+](C)c2ccccc12 (optimized conformer: 93.0811571292401 kcal/mol)

>  <smiles>  (16) 
CCNCCCON=CCCNCCNc1c2ccccc2[n+](C)c2ccccc12

>  <score_type>  (16) 
oracle

>  <origin>  (16) 
adg

>  <m_score__min__energy>  (16) 
-9.1999999999999993

>  <m_primary>  (16) 
energy

$$$$
16:0
     RDKit          3D

 48 49  0  0  0  0  0  0  0  0999 V2000
   -9.5610   21.4410  -31.9880 C   0  0  0  0  0  0  0  0  0  0  0  0
   -8.3710   21.1930  -31.0680 C   0  0  0  0  0  0  0  0  0  0  0  0
   -7.3840   20.4300  -31.7370 O   0  0  0  0  0  0  0  0  0  0  0  0
   -7.7050   19.0510  -31.7310 C   0  0  0  0  0  0  0  0  0  0  0  0
   -6.9920   18.3340  -32.8790 C   0  0  0  0  0  0  0  0  0  0  0  0
   -6.2570   19.2610  -33.6590 O   0  0  0  0  0  0  0  0  0  0  0  0
   -5.4350   18.6010  -34.6050 C   0  0  0  0  0  0  0  0  0  0  0  0
   -4.0890   18.2450  -33.9800 C   0  0  0  0  0  0  0  0  0  0  0  0
   -3.8620   19.0880  -32.8710 O   0  0  0  0  0  0  0  0  0  0  0  0
   -3.0750   20.1920  -33.2650 C   0  0  0  0  0  0  0  0  0  0  0  0
   -3.9740   21.4200  -33.4650 C   0  0  0  0  0  0  0  0  0  0  0  0
   -5.2010   21.3750  -32.6490 N   0  0  0  0  0  0  0  0  0  0  0  0
   -5.2630   22.4620  -31.7020 C   0  0  0  0  0  0  0  0  0  0  0  0
   -6.1510   23.5310  -31.7150 C   0  0  0  0  0  0  0  0  0  0  0  0
   -7.2270   23.7930  -32.7200 C   0  0  0  0  0  0  0  0  0  0  0  0
   -5.9670   24.2930  -30.6100 N   0  0  0  0  0  0  0  0  0  0  0  0
   -4.9580   23.6740  -29.9620 C   0  0  0  0  0  0  0  0  0  0  0  0
   -4.4100   24.0780  -28.7460 C   0  0  0  0  0  0  0  0  0  0  0  0
   -3.3760   23.2980  -28.2030 C   0  0  0  0  0  0  0  0  0  0  0  0
   -2.9260   22.1470  -28.8770 C   0  0  0  0  0  0  0  0  0  0  0  0
   -3.5130   21.7870  -30.0980 C   0  0  0  0  0  0  0  0  0  0  0  0
   -4.5110   22.5690  -30.5890 N   0  0  0  0  0  0  0  0  0  0  0  0
  -10.4599   21.6283  -31.3823 H   0  0  0  0  0  0  0  0  0  0  0  0
   -9.3576   22.3161  -32.6228 H   0  0  0  0  0  0  0  0  0  0  0  0
   -9.7241   20.5575  -32.6228 H   0  0  0  0  0  0  0  0  0  0  0  0
   -7.9396   22.1582  -30.7644 H   0  0  0  0  0  0  0  0  0  0  0  0
   -8.7130   20.6380  -30.1820 H   0  0  0  0  0  0  0  0  0  0  0  0
   -7.3882   18.6090  -30.7748 H   0  0  0  0  0  0  0  0  0  0  0  0
   -8.7916   18.9364  -31.8580 H   0  0  0  0  0  0  0  0  0  0  0  0
   -6.3038   17.5823  -32.4652 H   0  0  0  0  0  0  0  0  0  0  0  0
   -7.7437   17.8469  -33.5175 H   0  0  0  0  0  0  0  0  0  0  0  0
   -5.9346   17.6800  -34.9398 H   0  0  0  0  0  0  0  0  0  0  0  0
   -5.2661   19.2706  -35.4612 H   0  0  0  0  0  0  0  0  0  0  0  0
   -4.1013   17.1958  -33.6498 H   0  0  0  0  0  0  0  0  0  0  0  0
   -3.2871   18.3800  -34.7207 H   0  0  0  0  0  0  0  0  0  0  0  0
   -2.3296   20.4071  -32.4852 H   0  0  0  0  0  0  0  0  0  0  0  0
   -2.5625   19.9568  -34.2094 H   0  0  0  0  0  0  0  0  0  0  0  0
   -3.4039   22.3200  -33.1913 H   0  0  0  0  0  0  0  0  0  0  0  0
   -4.2816   21.4339  -34.5210 H   0  0  0  0  0  0  0  0  0  0  0  0
   -5.2140   20.4740  -32.1180 H   0  0  0  0  0  0  0  0  0  0  0  0
   -6.0450   21.3740  -33.2640 H   0  0  0  0  0  0  0  0  0  0  0  0
   -8.1680   24.0221  -32.1984 H   0  0  0  0  0  0  0  0  0  0  0  0
   -6.9398   24.6474  -33.3504 H   0  0  0  0  0  0  0  0  0  0  0  0
   -7.3647   22.9021  -33.3504 H   0  0  0  0  0  0  0  0  0  0  0  0
   -4.7751   24.9776  -28.2289 H   0  0  0  0  0  0  0  0  0  0  0  0
   -2.9158   23.5878  -27.2468 H   0  0  0  0  0  0  0  0  0  0  0  0
   -2.1192   21.5342  -28.4485 H   0  0  0  0  0  0  0  0  0  0  0  0
   -3.1748   20.8946  -30.6450 H   0  0  0  0  0  0  0  0  0  0  0  0
  1  2  1  0
  2  3  1  0
  3  4  1  0
  4  5  1  0
  5  6  1  0
  6  7  1  0
  7  8  1  0
  8  9  1  0
  9 10  1  0
 10 11  1  0
 11 12  1  0
 12 13  1  0
 13 14  2  0
 14 15  1  0
 14 16  1  0
 16 17  2  0
 17 18  1  0
 18 19  2  0
 19 20  1  0
 20 21  2  0
 21 22  1  0
 22 13  1  0
 22 17  1  0
  1 23  1  0
  1 24  1  0
  1 25  1  0
  2 26  1  0
  2 27  1  0
  4 28  1  0
  4 29  1  0
  5 30  1  0
  5 31  1  0
  7 32  1  0
  7 33  1  0
  8 34  1  0
  8 35  1  0
 10 36  1  0
 10 37  1  0
 11 38  1  0
 11 39  1  0
 12 40  1  0
 12 41  1  0
 15 42  1  0
 15 43  1  0
 15 44  1  0
 18 45  1  0
 19 46  1  0
 20 47  1  0
 21 48  1  0
M  CHG  1  12   1
M  END
>  <UniqueID>  (17) 
16

>  <SMILES>  (17) 
CCOCCOCCOCC[NH2+]c1c(C)nc2ccccn12

>  <Energy>  (17) 
79.65631540889233

>  <Genealogy>  (17) 
CCOCCOCCOCC[NH2+]c1c(C)nc2ccccn12 (protonated)
CCOCCOCCOCC[NH2+]c1c(C)nc2ccccn12 (3D coordinates assigned)
CCOCCOCCOCC[NH2+]c1c(C)nc2ccccn12 (optimized conformer: 79.65631540889233 kcal/mol)

>  <smiles>  (17) 
CCOCCOCCOCCNc1c(C)nc2ccccn12

>  <score_type>  (17) 
oracle

>  <origin>  (17) 
adg

>  <m_score__min__energy>  (17) 
-7.0999999999999996

>  <m_primary>  (17) 
energy

$$$$
17:0
     RDKit          3D

 61 63  0  0  0  0  0  0  0  0999 V2000
   -3.8550   18.6700  -26.3370 C   0  0  0  0  0  0  0  0  0  0  0  0
   -2.3230   18.6260  -26.3770 C   0  0  0  0  0  0  0  0  0  0  0  0
   -1.7560   19.4890  -27.4490 N   0  0  2  0  0  0  0  0  0  0  0  0
   -0.4600   18.9460  -27.9040 C   0  0  0  0  0  0  0  0  0  0  0  0
   -1.5780   20.8880  -26.9730 C   0  0  0  0  0  0  0  0  0  0  0  0
   -1.6160   21.9150  -28.1200 C   0  0  0  0  0  0  0  0  0  0  0  0
   -2.0990   21.3210  -29.3100 O   0  0  0  0  0  0  0  0  0  0  0  0
   -3.3970   21.7870  -29.6180 C   0  0  0  0  0  0  0  0  0  0  0  0
   -3.8910   21.1110  -30.8970 C   0  0  0  0  0  0  0  0  0  0  0  0
   -3.5180   21.9140  -32.1460 C   0  0  0  0  0  0  0  0  0  0  0  0
   -4.4120   21.5840  -33.2530 N   0  0  0  0  0  0  0  0  0  0  0  0
   -5.5810   20.7830  -33.0340 C   0  0  0  0  0  0  0  0  0  0  0  0
   -6.7510   21.3990  -32.5570 C   0  0  0  0  0  0  0  0  0  0  0  0
   -6.7940   22.7960  -32.3460 C   0  0  0  0  0  0  0  0  0  0  0  0
   -7.9660   23.4150  -31.9200 C   0  0  0  0  0  0  0  0  0  0  0  0
   -9.1160   22.6590  -31.7160 C   0  0  0  0  0  0  0  0  0  0  0  0
   -9.0940   21.2780  -31.9120 C   0  0  0  0  0  0  0  0  0  0  0  0
   -7.9020   20.6140  -32.3020 C   0  0  0  0  0  0  0  0  0  0  0  0
   -7.8510   19.2420  -32.4530 N   0  0  0  0  0  0  0  0  0  0  0  0
   -8.9420   18.4000  -31.9060 C   0  0  0  0  0  0  0  0  0  0  0  0
   -6.7760   18.6540  -33.0970 C   0  0  0  0  0  0  0  0  0  0  0  0
   -6.8280   17.3040  -33.5210 C   0  0  0  0  0  0  0  0  0  0  0  0
   -5.7310   16.6930  -34.1150 C   0  0  0  0  0  0  0  0  0  0  0  0
   -4.5590   17.4050  -34.3220 C   0  0  0  0  0  0  0  0  0  0  0  0
   -4.4720   18.7630  -33.9730 C   0  0  0  0  0  0  0  0  0  0  0  0
   -3.2890   19.4830  -34.2260 O   0  0  0  0  0  0  0  0  0  0  0  0
   -1.9830   19.0850  -33.8290 C   0  0  0  0  0  0  0  0  0  0  0  0
   -5.5940   19.4070  -33.3670 C   0  0  0  0  0  0  0  0  0  0  0  0
   -4.1943   18.6797  -25.2907 H   0  0  0  0  0  0  0  0  0  0  0  0
   -4.2091   19.5787  -26.8458 H   0  0  0  0  0  0  0  0  0  0  0  0
   -4.2607   17.7831  -26.8458 H   0  0  0  0  0  0  0  0  0  0  0  0
   -1.9348   18.9682  -25.4063 H   0  0  0  0  0  0  0  0  0  0  0  0
   -2.0237   17.5890  -26.5893 H   0  0  0  0  0  0  0  0  0  0  0  0
   -2.3940   19.4880  -28.2810 H   0  0  0  0  0  0  0  0  0  0  0  0
    0.1564   18.6877  -27.0303 H   0  0  0  0  0  0  0  0  0  0  0  0
   -0.6327   18.0446  -28.5103 H   0  0  0  0  0  0  0  0  0  0  0  0
    0.0615   19.7013  -28.5103 H   0  0  0  0  0  0  0  0  0  0  0  0
   -2.3844   21.1235  -26.2629 H   0  0  0  0  0  0  0  0  0  0  0  0
   -0.5872   20.9546  -26.4998 H   0  0  0  0  0  0  0  0  0  0  0  0
   -2.2781   22.7468  -27.8376 H   0  0  0  0  0  0  0  0  0  0  0  0
   -0.5947   22.2824  -28.2985 H   0  0  0  0  0  0  0  0  0  0  0  0
   -4.0791   21.5466  -28.7892 H   0  0  0  0  0  0  0  0  0  0  0  0
   -3.3698   22.8766  -29.7662 H   0  0  0  0  0  0  0  0  0  0  0  0
   -3.4385   20.1109  -30.9686 H   0  0  0  0  0  0  0  0  0  0  0  0
   -4.9880   21.0465  -30.8474 H   0  0  0  0  0  0  0  0  0  0  0  0
   -3.5991   22.9881  -31.9232 H   0  0  0  0  0  0  0  0  0  0  0  0
   -2.4867   21.6631  -32.4350 H   0  0  0  0  0  0  0  0  0  0  0  0
   -4.2250   21.9360  -34.2190 H   0  0  0  0  0  0  0  0  0  0  0  0
   -5.8917   23.4006  -32.5203 H   0  0  0  0  0  0  0  0  0  0  0  0
   -7.9828   24.5008  -31.7449 H   0  0  0  0  0  0  0  0  0  0  0  0
  -10.0466   23.1523  -31.3988 H   0  0  0  0  0  0  0  0  0  0  0  0
  -10.0146   20.6949  -31.7620 H   0  0  0  0  0  0  0  0  0  0  0  0
   -8.9089   18.4255  -30.8068 H   0  0  0  0  0  0  0  0  0  0  0  0
   -9.9120   18.7859  -32.2527 H   0  0  0  0  0  0  0  0  0  0  0  0
   -8.8145   17.3639  -32.2527 H   0  0  0  0  0  0  0  0  0  0  0  0
   -7.7543   16.7284  -33.3773 H   0  0  0  0  0  0  0  0  0  0  0  0
   -5.7922   15.6387  -34.4229 H   0  0  0  0  0  0  0  0  0  0  0  0
   -3.6874   16.9005  -34.7646 H   0  0  0  0  0  0  0  0  0  0  0  0
   -1.9232   19.0668  -32.7308 H   0  0  0  0  0  0  0  0  0  0  0  0
   -1.7695   18.0810  -34.2245 H   0  0  0  0  0  0  0  0  0  0  0  0
   -1.2459   19.7993  -34.2245 H   0  0  0  0  0  0  0  0  0  0  0  0
  1  2  1  0
  2  3  1  0
  3  4  1  0
  3  5  1  0
  5  6  1  0
  6  7  1  0
  7  8  1  0
  8  9  1  0
  9 10  1  0
 10 11  1  0
 11 12  1  0
 12 13  2  0
 13 14  1  0
 14 15  2  0
 15 16  1  0
 16 17  2  0
 17 18  1  0
 18 19  2  0
 19 20  1  0
 19 21  1  0
 21 22  2  0
 22 23  1  0
 23 24  2  0
 24 25  1  0
 25 26  1  0
 26 27  1  0
 25 28  2  0
 28 12  1  0
 18 13  1  0
 28 21  1  0
  1 29  1  0
  1 30  1  0
  1 31  1  0
  2 32  1  0
  2 33  1  0
  3 34  1  6
  4 35  1  0
  4 36  1  0
  4 37  1  0
  5 38  1  0
  5 39  1  0
  6 40  1  0
  6 41  1  0
  8 42  1  0
  8 43  1  0
  9 44  1  0
  9 45  1  0
 10 46  1  0
 10 47  1  0
 11 48  1  0
 14 49  1  0
 15 50  1  0
 16 51  1  0
 17 52  1  0
 20 53  1  0
 20 54  1  0
 20 55  1  0
 22 56  1  0
 23 57  1  0
 24 58  1  0
 27 59  1  0
 27 60  1  0
 27 61  1  0
M  CHG  2   3   1  19   1
M  END
>  <UniqueID>  (18) 
17

>  <SMILES>  (18) 
CC[N@H+](C)CCOCCCNc1c2ccccc2[n+](C)c2cccc(OC)c12

>  <Energy>  (18) 
89.23598397744159

>  <Genealogy>  (18) 
CC[NH+](C)CCOCCCNc1c2ccccc2[n+](C)c2cccc(OC)c12 (protonated)
CC[N@H+](C)CCOCCCNc1c2ccccc2[n+](C)c2cccc(OC)c12 (chirality)
CC[N@H+](C)CCOCCCNc1c2ccccc2[n+](C)c2cccc(OC)c12 (3D coordinates assigned)
CC[N@H+](C)CCOCCCNc1c2ccccc2[n+](C)c2cccc(OC)c12 (optimized conformer: 89.23598397744159 kcal/mol)

>  <smiles>  (18) 
CCN(C)CCOCCCNc1c2ccccc2[n+](C)c2cccc(OC)c12

>  <score_type>  (18) 
oracle

>  <origin>  (18) 
adg

>  <m_score__min__energy>  (18) 
-7.6799999999999997

>  <m_primary>  (18) 
energy

$$$$
18:0
     RDKit          3D

 38 39  0  0  0  0  0  0  0  0999 V2000
   -5.9330   25.6560  -30.0680 C   0  0  0  0  0  0  0  0  0  0  0  0
   -4.8700   24.5690  -29.9520 C   0  0  0  0  0  0  0  0  0  0  0  0
   -4.6630   23.9260  -31.2110 O   0  0  0  0  0  0  0  0  0  0  0  0
   -5.4710   22.9160  -31.7660 C   0  0  0  0  0  0  0  0  0  0  0  0
   -6.8670   22.8930  -31.5950 C   0  0  0  0  0  0  0  0  0  0  0  0
   -7.6490   21.8640  -32.1470 C   0  0  0  0  0  0  0  0  0  0  0  0
   -9.1450   21.9110  -31.9620 C   0  0  0  0  0  0  0  0  0  0  0  0
   -7.0240   20.8440  -32.9070 C   0  0  0  0  0  0  0  0  0  0  0  0
   -7.7750   19.7410  -33.4730 N   0  0  0  0  0  0  0  0  0  0  0  0
   -7.9510   18.6490  -32.4990 C   0  0  0  0  0  0  0  0  0  0  0  0
   -6.8870   17.5980  -32.6340 C   0  0  0  0  0  0  0  0  0  0  0  0
   -6.1250   17.0740  -31.5990 C   0  0  0  0  0  0  0  0  0  0  0  0
   -5.2540   16.0600  -32.0180 C   0  0  0  0  0  0  0  0  0  0  0  0
   -5.3340   15.7820  -33.3760 C   0  0  0  0  0  0  0  0  0  0  0  0
   -6.4890   16.7970  -34.0580 S   0  0  0  0  0  0  0  0  0  0  0  0
   -5.6300   20.8860  -33.0880 C   0  0  0  0  0  0  0  0  0  0  0  0
   -4.8550   21.9060  -32.5220 C   0  0  0  0  0  0  0  0  0  0  0  0
   -3.3630   21.9090  -32.7130 C   0  0  0  0  0  0  0  0  0  0  0  0
   -6.2438   25.9738  -29.0618 H   0  0  0  0  0  0  0  0  0  0  0  0
   -5.5189   26.5171  -30.6129 H   0  0  0  0  0  0  0  0  0  0  0  0
   -6.8032   25.2612  -30.6129 H   0  0  0  0  0  0  0  0  0  0  0  0
   -3.9249   25.0228  -29.6190 H   0  0  0  0  0  0  0  0  0  0  0  0
   -5.2113   23.8181  -29.2242 H   0  0  0  0  0  0  0  0  0  0  0  0
   -7.3547   23.6937  -31.0197 H   0  0  0  0  0  0  0  0  0  0  0  0
   -9.3816   21.9184  -30.8878 H   0  0  0  0  0  0  0  0  0  0  0  0
   -9.5441   22.8221  -32.4317 H   0  0  0  0  0  0  0  0  0  0  0  0
   -9.6005   21.0267  -32.4317 H   0  0  0  0  0  0  0  0  0  0  0  0
   -8.7140   20.0680  -33.7940 H   0  0  0  0  0  0  0  0  0  0  0  0
   -7.2910   19.3770  -34.3280 H   0  0  0  0  0  0  0  0  0  0  0  0
   -7.9086   19.0689  -31.4832 H   0  0  0  0  0  0  0  0  0  0  0  0
   -8.9241   18.1742  -32.6929 H   0  0  0  0  0  0  0  0  0  0  0  0
   -6.1976   17.4193  -30.5571 H   0  0  0  0  0  0  0  0  0  0  0  0
   -4.5709   15.5335  -31.3353 H   0  0  0  0  0  0  0  0  0  0  0  0
   -4.7427   15.0266  -33.9142 H   0  0  0  0  0  0  0  0  0  0  0  0
   -5.1393   20.1033  -33.6851 H   0  0  0  0  0  0  0  0  0  0  0  0
   -2.8676   21.9100  -31.7309 H   0  0  0  0  0  0  0  0  0  0  0  0
   -3.0633   21.0115  -33.2739 H   0  0  0  0  0  0  0  0  0  0  0  0
   -3.0670   22.8077  -33.2739 H   0  0  0  0  0  0  0  0  0  0  0  0
  1  2  1  0
  2  3  1  0
  3  4  1  0
  4  5  2  0
  5  6  1  0
  6  7  1  0
  6  8  2  0
  8  9  1  0
  9 10  1  0
 10 11  1  0
 11 12  2  0
 12 13  1  0
 13 14  2  0
 14 15  1  0
  8 16  1  0
 16 17  2  0
 17 18  1  0
 17  4  1  0
 15 11  1  0
  1 19  1  0
  1 20  1  0
  1 21  1  0
  2 22  1  0
  2 23  1  0
  5 24  1  0
  7 25  1  0
  7 26  1  0
  7 27  1  0
  9 28  1  0
  9 29  1  0
 10 30  1  0
 10 31  1  0
 12 32  1  0
 13 33  1  0
 14 34  1  0
 16 35  1  0
 18 36  1  0
 18 37  1  0
 18 38  1  0
M  CHG  1   9   1
M  END
>  <UniqueID>  (19) 
18

>  <SMILES>  (19) 
CCOc1cc(C)c([NH2+]Cc2cccs2)cc1C

>  <Energy>  (19) 
62.00756746592114

>  <Genealogy>  (19) 
CCOc1cc(C)c([NH2+]Cc2cccs2)cc1C (protonated)
CCOc1cc(C)c([NH2+]Cc2cccs2)cc1C (3D coordinates assigned)
CCOc1cc(C)c([NH2+]Cc2cccs2)cc1C (optimized conformer: 62.00756746592114 kcal/mol)

>  <smiles>  (19) 
CCOc1cc(C)c(NCc2cccs2)cc1C

>  <score_type>  (19) 
oracle

>  <origin>  (19) 
adg

>  <m_score__min__energy>  (19) 
-7.0300000000000002

>  <m_primary>  (19) 
energy

$$$$
19:0
     RDKit          3D

 57 59  0  0  0  0  0  0  0  0999 V2000
   -0.9080   20.6420  -28.4800 C   0  0  0  0  0  0  0  0  0  0  0  0
   -2.1960   21.0180  -27.8770 N   0  0  0  0  0  0  0  0  0  0  0  0
   -2.7310   19.8770  -27.1150 C   0  0  0  0  0  0  0  0  0  0  0  0
   -3.1420   21.4490  -28.9300 C   0  0  0  0  0  0  0  0  0  0  0  0
   -3.5290   22.9260  -28.7520 C   0  0  0  0  0  0  0  0  0  0  0  0
   -2.7220   23.8590  -29.6610 C   0  0  0  0  0  0  0  0  0  0  0  0
   -3.5780   24.9380  -30.1800 N   0  0  0  0  0  0  0  0  0  0  0  0
   -4.9850   24.7570  -29.7960 C   0  0  0  0  0  0  0  0  0  0  0  0
   -5.9180   25.0140  -30.9850 C   0  0  0  0  0  0  0  0  0  0  0  0
   -6.8600   23.8350  -31.2890 C   0  0  0  0  0  0  0  0  0  0  0  0
   -6.4490   23.1130  -32.4960 N   0  0  0  0  0  0  0  0  0  0  0  0
   -6.1200   21.7120  -32.4640 C   0  0  0  0  0  0  0  0  0  0  0  0
   -4.7760   21.3000  -32.4860 C   0  0  0  0  0  0  0  0  0  0  0  0
   -3.7280   22.2360  -32.3710 C   0  0  0  0  0  0  0  0  0  0  0  0
   -2.4000   21.8210  -32.3540 C   0  0  0  0  0  0  0  0  0  0  0  0
   -2.0920   20.4680  -32.4500 C   0  0  0  0  0  0  0  0  0  0  0  0
   -3.1110   19.5230  -32.5770 C   0  0  0  0  0  0  0  0  0  0  0  0
   -4.4720   19.9180  -32.6220 C   0  0  0  0  0  0  0  0  0  0  0  0
   -5.4900   18.9970  -32.7780 N   0  0  0  0  0  0  0  0  0  0  0  0
   -5.1820   17.6210  -33.2270 C   0  0  0  0  0  0  0  0  0  0  0  0
   -6.7960   19.3670  -32.5210 C   0  0  0  0  0  0  0  0  0  0  0  0
   -7.8260   18.4040  -32.3670 C   0  0  0  0  0  0  0  0  0  0  0  0
   -9.1410   18.7910  -32.1120 C   0  0  0  0  0  0  0  0  0  0  0  0
   -9.4600   20.1370  -31.9820 C   0  0  0  0  0  0  0  0  0  0  0  0
   -8.4670   21.1050  -32.0980 C   0  0  0  0  0  0  0  0  0  0  0  0
   -7.1330   20.7400  -32.3760 C   0  0  0  0  0  0  0  0  0  0  0  0
   -0.1789   20.4291  -27.6843 H   0  0  0  0  0  0  0  0  0  0  0  0
   -1.0427   19.7457  -29.1033 H   0  0  0  0  0  0  0  0  0  0  0  0
   -0.5393   21.4700  -29.1033 H   0  0  0  0  0  0  0  0  0  0  0  0
   -2.6364   20.0788  -26.0378 H   0  0  0  0  0  0  0  0  0  0  0  0
   -3.7913   19.7313  -27.3690 H   0  0  0  0  0  0  0  0  0  0  0  0
   -2.1649   18.9687  -27.3690 H   0  0  0  0  0  0  0  0  0  0  0  0
   -2.6690   21.3172  -29.9143 H   0  0  0  0  0  0  0  0  0  0  0  0
   -4.0527   20.8366  -28.8549 H   0  0  0  0  0  0  0  0  0  0  0  0
   -4.5972   23.0414  -28.9877 H   0  0  0  0  0  0  0  0  0  0  0  0
   -3.3116   23.2047  -27.7104 H   0  0  0  0  0  0  0  0  0  0  0  0
   -1.8940   24.2985  -29.0855 H   0  0  0  0  0  0  0  0  0  0  0  0
   -2.3278   23.2782  -30.5079 H   0  0  0  0  0  0  0  0  0  0  0  0
   -3.5310   24.9180  -31.2260 H   0  0  0  0  0  0  0  0  0  0  0  0
   -5.1309   23.7262  -29.4409 H   0  0  0  0  0  0  0  0  0  0  0  0
   -5.2259   25.4773  -29.0003 H   0  0  0  0  0  0  0  0  0  0  0  0
   -6.5298   25.9008  -30.7628 H   0  0  0  0  0  0  0  0  0  0  0  0
   -5.2825   25.1587  -31.8711 H   0  0  0  0  0  0  0  0  0  0  0  0
   -6.8488   23.1402  -30.4363 H   0  0  0  0  0  0  0  0  0  0  0  0
   -7.8705   24.2364  -31.4557 H   0  0  0  0  0  0  0  0  0  0  0  0
   -6.4310   23.6190  -33.4090 H   0  0  0  0  0  0  0  0  0  0  0  0
   -3.9631   23.3078  -32.2937 H   0  0  0  0  0  0  0  0  0  0  0  0
   -1.5932   22.5634  -32.2646 H   0  0  0  0  0  0  0  0  0  0  0  0
   -1.0418   20.1418  -32.4257 H   0  0  0  0  0  0  0  0  0  0  0  0
   -2.8544   18.4554  -32.6432 H   0  0  0  0  0  0  0  0  0  0  0  0
   -5.0370   16.9730  -32.3501 H   0  0  0  0  0  0  0  0  0  0  0  0
   -6.0165   17.2374  -33.8324 H   0  0  0  0  0  0  0  0  0  0  0  0
   -4.2636   17.6298  -33.8324 H   0  0  0  0  0  0  0  0  0  0  0  0
   -7.5833   17.3343  -32.4501 H   0  0  0  0  0  0  0  0  0  0  0  0
   -9.9279   18.0287  -32.0135 H   0  0  0  0  0  0  0  0  0  0  0  0
  -10.4998   20.4382  -31.7869 H   0  0  0  0  0  0  0  0  0  0  0  0
   -8.7252   22.1668  -31.9715 H   0  0  0  0  0  0  0  0  0  0  0  0
  1  2  1  0
  2  3  1  0
  2  4  1  0
  4  5  1  0
  5  6  1  0
  6  7  1  0
  7  8  1  0
  8  9  1  0
  9 10  1  0
 10 11  1  0
 11 12  1  0
 12 13  2  0
 13 14  1  0
 14 15  2  0
 15 16  1  0
 16 17  2  0
 17 18  1  0
 18 19  2  0
 19 20  1  0
 19 21  1  0
 21 22  2  0
 22 23  1  0
 23 24  2  0
 24 25  1  0
 25 26  2  0
 26 12  1  0
 18 13  1  0
 26 21  1  0
  1 27  1  0
  1 28  1  0
  1 29  1  0
  3 30  1  0
  3 31  1  0
  3 32  1  0
  4 33  1  0
  4 34  1  0
  5 35  1  0
  5 36  1  0
  6 37  1  0
  6 38  1  0
  7 39  1  0
  8 40  1  0
  8 41  1  0
  9 42  1  0
  9 43  1  0
 10 44  1  0
 10 45  1  0
 11 46  1  0
 14 47  1  0
 15 48  1  0
 16 49  1  0
 17 50  1  0
 20 51  1  0
 20 52  1  0
 20 53  1  0
 22 54  1  0
 23 55  1  0
 24 56  1  0
 25 57  1  0
M  CHG  1  19   1
M  END
>  <UniqueID>  (20) 
19

>  <SMILES>  (20) 
CN(C)CCCNCCCNc1c2ccccc2[n+](C)c2ccccc12

>  <Energy>  (20) 
77.77154227544167

>  <Genealogy>  (20) 
CN(C)CCCNCCCNc1c2ccccc2[n+](C)c2ccccc12 (3D coordinates assigned)
CN(C)CCCNCCCNc1c2ccccc2[n+](C)c2ccccc12 (optimized conformer: 77.77154227544167 kcal/mol)

>  <smiles>  (20) 
CN(C)CCCNCCCNc1c2ccccc2[n+](C)c2ccccc12

>  <score_type>  (20) 
oracle

>  <origin>  (20) 
adg

>  <m_score__min__energy>  (20) 
-8.6199999999999992

>  <m_primary>  (20) 
energy

$$$$
20:0
     RDKit          3D

 53 55  0  0  0  0  0  0  0  0999 V2000
   -6.7500   25.6430  -29.6580 C   0  0  0  0  0  0  0  0  0  0  0  0
   -5.7380   25.0890  -29.3080 C   0  0  0  0  0  0  0  0  0  0  0  0
   -4.5070   24.4170  -28.8810 C   0  0  0  0  0  0  0  0  0  0  0  0
   -3.4320   24.6860  -29.8500 N   0  0  0  0  0  0  0  0  0  0  0  0
   -2.2480   23.8390  -29.6380 C   0  0  0  0  0  0  0  0  0  0  0  0
   -2.3650   22.5140  -30.4040 C   0  0  0  0  0  0  0  0  0  0  0  0
   -3.5270   22.5560  -31.4040 C   0  0  0  0  0  0  0  0  0  0  0  0
   -3.3580   21.4830  -32.4900 C   0  0  0  0  0  0  0  0  0  0  0  0
   -4.4670   21.4780  -33.4680 N   0  0  0  0  0  0  0  0  0  0  0  0
   -5.5950   20.6650  -33.0210 C   0  0  0  0  0  0  0  0  0  0  0  0
   -6.7270   21.2910  -32.4260 C   0  0  0  0  0  0  0  0  0  0  0  0
   -7.8870   20.5220  -32.1440 C   0  0  0  0  0  0  0  0  0  0  0  0
   -7.8600   19.1490  -32.2720 N   0  0  0  0  0  0  0  0  0  0  0  0
   -8.9830   18.3340  -31.7520 C   0  0  0  0  0  0  0  0  0  0  0  0
   -6.7960   18.5220  -32.8910 C   0  0  0  0  0  0  0  0  0  0  0  0
   -6.8450   17.1380  -33.2090 C   0  0  0  0  0  0  0  0  0  0  0  0
   -5.7600   16.4890  -33.7880 C   0  0  0  0  0  0  0  0  0  0  0  0
   -4.6040   17.1930  -34.0740 C   0  0  0  0  0  0  0  0  0  0  0  0
   -4.5330   18.5580  -33.8120 C   0  0  0  0  0  0  0  0  0  0  0  0
   -5.6300   19.2590  -33.2450 C   0  0  0  0  0  0  0  0  0  0  0  0
   -9.1610   21.2170  -31.6700 C   0  0  0  0  0  0  0  0  0  0  0  0
   -9.1830   22.7100  -31.9630 C   0  0  0  0  0  0  0  0  0  0  0  0
   -7.9250   23.3370  -31.3970 C   0  0  0  0  0  0  0  0  0  0  0  0
   -6.6930   22.7930  -32.1210 C   0  0  0  0  0  0  0  0  0  0  0  0
   -7.6733   26.1485  -29.9773 H   0  0  0  0  0  0  0  0  0  0  0  0
   -4.2095   24.7936  -27.8912 H   0  0  0  0  0  0  0  0  0  0  0  0
   -4.6845   23.3328  -28.8262 H   0  0  0  0  0  0  0  0  0  0  0  0
   -3.1250   25.6790  -29.7150 H   0  0  0  0  0  0  0  0  0  0  0  0
   -1.3550   24.3775  -29.9881 H   0  0  0  0  0  0  0  0  0  0  0  0
   -2.1707   23.6133  -28.5642 H   0  0  0  0  0  0  0  0  0  0  0  0
   -1.4277   22.3303  -30.9497 H   0  0  0  0  0  0  0  0  0  0  0  0
   -2.5552   21.7075  -29.6806 H   0  0  0  0  0  0  0  0  0  0  0  0
   -4.4704   22.3786  -30.8668 H   0  0  0  0  0  0  0  0  0  0  0  0
   -3.5382   23.5443  -31.8867 H   0  0  0  0  0  0  0  0  0  0  0  0
   -2.4167   21.6716  -33.0270 H   0  0  0  0  0  0  0  0  0  0  0  0
   -3.3531   20.5033  -31.9898 H   0  0  0  0  0  0  0  0  0  0  0  0
   -4.0960   21.1130  -34.3710 H   0  0  0  0  0  0  0  0  0  0  0  0
   -4.7390   22.4490  -33.7270 H   0  0  0  0  0  0  0  0  0  0  0  0
   -8.9663   18.3461  -30.6522 H   0  0  0  0  0  0  0  0  0  0  0  0
   -9.9357   18.7523  -32.1089 H   0  0  0  0  0  0  0  0  0  0  0  0
   -8.8806   17.2986  -32.1089 H   0  0  0  0  0  0  0  0  0  0  0  0
   -7.7605   16.5679  -32.9926 H   0  0  0  0  0  0  0  0  0  0  0  0
   -5.8209   15.4152  -34.0187 H   0  0  0  0  0  0  0  0  0  0  0  0
   -3.7385   16.6724  -34.5097 H   0  0  0  0  0  0  0  0  0  0  0  0
   -3.6084   19.1049  -34.0489 H   0  0  0  0  0  0  0  0  0  0  0  0
  -10.0202   20.7506  -32.1741 H   0  0  0  0  0  0  0  0  0  0  0  0
   -9.2052   21.1011  -30.5770 H   0  0  0  0  0  0  0  0  0  0  0  0
   -9.2204   22.8729  -33.0502 H   0  0  0  0  0  0  0  0  0  0  0  0
  -10.0697   23.1686  -31.5011 H   0  0  0  0  0  0  0  0  0  0  0  0
   -7.9717   24.4281  -31.5287 H   0  0  0  0  0  0  0  0  0  0  0  0
   -7.8509   23.0910  -30.3274 H   0  0  0  0  0  0  0  0  0  0  0  0
   -6.5928   23.3320  -33.0747 H   0  0  0  0  0  0  0  0  0  0  0  0
   -5.8442   22.9474  -31.4386 H   0  0  0  0  0  0  0  0  0  0  0  0
  1  2  3  0
  2  3  1  0
  3  4  1  0
  4  5  1  0
  5  6  1  0
  6  7  1  0
  7  8  1  0
  8  9  1  0
  9 10  1  0
 10 11  2  0
 11 12  1  0
 12 13  2  0
 13 14  1  0
 13 15  1  0
 15 16  2  0
 16 17  1  0
 17 18  2  0
 18 19  1  0
 19 20  2  0
 12 21  1  0
 21 22  1  0
 22 23  1  0
 23 24  1  0
 20 10  1  0
 24 11  1  0
 20 15  1  0
  1 25  1  0
  3 26  1  0
  3 27  1  0
  4 28  1  0
  5 29  1  0
  5 30  1  0
  6 31  1  0
  6 32  1  0
  7 33  1  0
  7 34  1  0
  8 35  1  0
  8 36  1  0
  9 37  1  0
  9 38  1  0
 14 39  1  0
 14 40  1  0
 14 41  1  0
 16 42  1  0
 17 43  1  0
 18 44  1  0
 19 45  1  0
 21 46  1  0
 21 47  1  0
 22 48  1  0
 22 49  1  0
 23 50  1  0
 23 51  1  0
 24 52  1  0
 24 53  1  0
M  CHG  2   9   1  13   1
M  END
>  <UniqueID>  (21) 
20

>  <SMILES>  (21) 
C#CCNCCCC[NH2+]c1c2c([n+](C)c3ccccc13)CCCC2

>  <Energy>  (21) 
71.47401218094255

>  <Genealogy>  (21) 
C#CCNCCCC[NH2+]c1c2c([n+](C)c3ccccc13)CCCC2 (protonated)
C#CCNCCCC[NH2+]c1c2c([n+](C)c3ccccc13)CCCC2 (3D coordinates assigned)
C#CCNCCCC[NH2+]c1c2c([n+](C)c3ccccc13)CCCC2 (nonaromatic ring conformer: 71.47401218094255 kcal/mol)

>  <smiles>  (21) 
C#CCNCCCCNc1c2c([n+](C)c3ccccc13)CCCC2

>  <score_type>  (21) 
oracle

>  <origin>  (21) 
adg

>  <m_score__min__energy>  (21) 
-8.3300000000000001

>  <m_primary>  (21) 
energy

$$$$
21:0
     RDKit          3D

 57 59  0  0  0  0  0  0  0  0999 V2000
   -4.1510   23.8220  -28.1660 C   0  0  0  0  0  0  0  0  0  0  0  0
   -4.8330   22.7090  -28.9500 C   0  0  0  0  0  0  0  0  0  0  0  0
   -3.8530   21.9710  -29.6510 O   0  0  0  0  0  0  0  0  0  0  0  0
   -2.6770   21.8380  -28.8720 C   0  0  0  0  0  0  0  0  0  0  0  0
   -1.4190   21.8680  -29.7500 C   0  0  0  0  0  0  0  0  0  0  0  0
   -1.7510   22.0390  -31.1180 O   0  0  0  0  0  0  0  0  0  0  0  0
   -1.1670   21.0290  -31.9190 C   0  0  0  0  0  0  0  0  0  0  0  0
   -1.7260   21.0770  -33.3480 C   0  0  0  0  0  0  0  0  0  0  0  0
   -3.1810   21.6060  -33.4210 C   0  0  0  0  0  0  0  0  0  0  0  0
   -4.0460   21.4070  -32.2200 N   0  0  0  0  0  0  0  0  0  0  0  0
   -5.3430   20.7710  -32.4260 C   0  0  0  0  0  0  0  0  0  0  0  0
   -5.3950   19.4110  -32.8550 C   0  0  0  0  0  0  0  0  0  0  0  0
   -4.2350   18.7200  -33.2970 C   0  0  0  0  0  0  0  0  0  0  0  0
   -4.3050   17.4080  -33.7590 C   0  0  0  0  0  0  0  0  0  0  0  0
   -5.5250   16.7520  -33.8050 C   0  0  0  0  0  0  0  0  0  0  0  0
   -6.6760   17.3940  -33.3630 C   0  0  0  0  0  0  0  0  0  0  0  0
   -6.6320   18.7160  -32.8450 C   0  0  0  0  0  0  0  0  0  0  0  0
   -7.7600   19.3170  -32.3380 N   0  0  0  0  0  0  0  0  0  0  0  0
   -8.9400   18.4890  -31.9890 C   0  0  0  0  0  0  0  0  0  0  0  0
   -7.7860   20.6800  -32.1320 C   0  0  0  0  0  0  0  0  0  0  0  0
   -9.0200   21.3450  -31.9330 C   0  0  0  0  0  0  0  0  0  0  0  0
   -9.0750   22.6960  -31.6500 C   0  0  0  0  0  0  0  0  0  0  0  0
   -7.9140   23.4420  -31.5910 C   0  0  0  0  0  0  0  0  0  0  0  0
   -6.6650   22.8550  -31.8540 C   0  0  0  0  0  0  0  0  0  0  0  0
   -5.5240   23.6720  -31.8870 O   0  0  0  0  0  0  0  0  0  0  0  0
   -5.3660   24.9140  -31.2040 C   0  0  0  0  0  0  0  0  0  0  0  0
   -6.5770   21.4460  -32.1290 C   0  0  0  0  0  0  0  0  0  0  0  0
   -4.2658   23.6347  -27.0882 H   0  0  0  0  0  0  0  0  0  0  0  0
   -3.0815   23.8484  -28.4217 H   0  0  0  0  0  0  0  0  0  0  0  0
   -4.6131   24.7869  -28.4217 H   0  0  0  0  0  0  0  0  0  0  0  0
   -5.3686   22.0443  -28.2562 H   0  0  0  0  0  0  0  0  0  0  0  0
   -5.5506   23.1427  -29.6620 H   0  0  0  0  0  0  0  0  0  0  0  0
   -2.6299   22.6668  -28.1503 H   0  0  0  0  0  0  0  0  0  0  0  0
   -2.7136   20.8696  -28.3515 H   0  0  0  0  0  0  0  0  0  0  0  0
   -0.7779   22.7025  -29.4296 H   0  0  0  0  0  0  0  0  0  0  0  0
   -0.8931   20.9085  -29.6371 H   0  0  0  0  0  0  0  0  0  0  0  0
   -0.0779   21.1795  -31.9523 H   0  0  0  0  0  0  0  0  0  0  0  0
   -1.4041   20.0488  -31.4798 H   0  0  0  0  0  0  0  0  0  0  0  0
   -1.0845   21.7359  -33.9517 H   0  0  0  0  0  0  0  0  0  0  0  0
   -1.7357   20.0449  -33.7283 H   0  0  0  0  0  0  0  0  0  0  0  0
   -3.1294   22.6876  -33.6149 H   0  0  0  0  0  0  0  0  0  0  0  0
   -3.6577   21.0094  -34.2128 H   0  0  0  0  0  0  0  0  0  0  0  0
   -3.5060   20.8790  -31.5000 H   0  0  0  0  0  0  0  0  0  0  0  0
   -4.1670   22.3090  -31.7130 H   0  0  0  0  0  0  0  0  0  0  0  0
   -3.2616   19.2318  -33.2739 H   0  0  0  0  0  0  0  0  0  0  0  0
   -3.3910   16.8918  -34.0878 H   0  0  0  0  0  0  0  0  0  0  0  0
   -5.5825   15.7236  -34.1912 H   0  0  0  0  0  0  0  0  0  0  0  0
   -7.6405   16.8676  -33.4154 H   0  0  0  0  0  0  0  0  0  0  0  0
   -9.0320   18.4245  -30.8948 H   0  0  0  0  0  0  0  0  0  0  0  0
   -9.8475   18.9494  -32.4067 H   0  0  0  0  0  0  0  0  0  0  0  0
   -8.8157   17.4790  -32.4067 H   0  0  0  0  0  0  0  0  0  0  0  0
   -9.9566   20.7727  -32.0054 H   0  0  0  0  0  0  0  0  0  0  0  0
  -10.0468   23.1794  -31.4710 H   0  0  0  0  0  0  0  0  0  0  0  0
   -7.9681   24.5103  -31.3346 H   0  0  0  0  0  0  0  0  0  0  0  0
   -5.3881   24.7406  -30.1180 H   0  0  0  0  0  0  0  0  0  0  0  0
   -4.4031   25.3663  -31.4836 H   0  0  0  0  0  0  0  0  0  0  0  0
   -6.1850   25.5930  -31.4836 H   0  0  0  0  0  0  0  0  0  0  0  0
  1  2  1  0
  2  3  1  0
  3  4  1  0
  4  5  1  0
  5  6  1  0
  6  7  1  0
  7  8  1  0
  8  9  1  0
  9 10  1  0
 10 11  1  0
 11 12  2  0
 12 13  1  0
 13 14  2  0
 14 15  1  0
 15 16  2  0
 16 17  1  0
 17 18  2  0
 18 19  1  0
 18 20  1  0
 20 21  2  0
 21 22  1  0
 22 23  2  0
 23 24  1  0
 24 25  1  0
 25 26  1  0
 24 27  2  0
 27 11  1  0
 17 12  1  0
 27 20  1  0
  1 28  1  0
  1 29  1  0
  1 30  1  0
  2 31  1  0
  2 32  1  0
  4 33  1  0
  4 34  1  0
  5 35  1  0
  5 36  1  0
  7 37  1  0
  7 38  1  0
  8 39  1  0
  8 40  1  0
  9 41  1  0
  9 42  1  0
 10 43  1  0
 10 44  1  0
 13 45  1  0
 14 46  1  0
 15 47  1  0
 16 48  1  0
 19 49  1  0
 19 50  1  0
 19 51  1  0
 21 52  1  0
 22 53  1  0
 23 54  1  0
 26 55  1  0
 26 56  1  0
 26 57  1  0
M  CHG  2  10   1  18   1
M  END
>  <UniqueID>  (22) 
21

>  <SMILES>  (22) 
CCOCCOCCC[NH2+]c1c2ccccc2[n+](C)c2cccc(OC)c12

>  <Energy>  (22) 
96.8672084806862

>  <Genealogy>  (22) 
CCOCCOCCC[NH2+]c1c2ccccc2[n+](C)c2cccc(OC)c12 (protonated)
CCOCCOCCC[NH2+]c1c2ccccc2[n+](C)c2cccc(OC)c12 (3D coordinates assigned)
CCOCCOCCC[NH2+]c1c2ccccc2[n+](C)c2cccc(OC)c12 (optimized conformer: 96.8672084806862 kcal/mol)

>  <smiles>  (22) 
CCOCCOCCCNc1c2ccccc2[n+](C)c2cccc(OC)c12

>  <score_type>  (22) 
oracle

>  <origin>  (22) 
adg

>  <m_score__min__energy>  (22) 
-8.4299999999999997

>  <m_primary>  (22) 
energy

$$$$
22:0
     RDKit          3D

 30 31  0  0  0  0  0  0  0  0999 V2000
   -7.2770   17.8320  -31.6380 C   0  0  0  0  0  0  0  0  0  0  0  0
   -8.7410   18.2440  -31.5550 C   0  0  0  0  0  0  0  0  0  0  0  0
   -9.1420   19.5290  -32.7910 S   0  0  0  0  0  0  0  0  0  0  0  0
   -7.5720   20.3860  -32.6380 C   0  0  0  0  0  0  0  0  0  0  0  0
   -6.4960   20.0910  -33.3900 N   0  0  0  0  0  0  0  0  0  0  0  0
   -5.5480   20.9550  -33.0610 N   0  0  0  0  0  0  0  0  0  0  0  0
   -6.0570   21.7600  -32.1080 C   0  0  0  0  0  0  0  0  0  0  0  0
   -5.3080   22.8930  -31.5330 C   0  0  0  0  0  0  0  0  0  0  0  0
   -4.0160   22.6900  -31.0290 C   0  0  0  0  0  0  0  0  0  0  0  0
   -3.3190   23.7660  -30.4710 C   0  0  0  0  0  0  0  0  0  0  0  0
   -3.9000   24.9930  -30.4050 N   0  0  0  0  0  0  0  0  0  0  0  0
   -5.1590   25.2120  -30.8670 C   0  0  0  0  0  0  0  0  0  0  0  0
   -5.8890   24.1640  -31.4340 C   0  0  0  0  0  0  0  0  0  0  0  0
   -7.3350   21.4290  -31.8140 N   0  0  0  0  0  0  0  0  0  0  0  0
   -8.3250   22.1880  -31.0430 C   0  0  0  0  0  0  0  0  0  0  0  0
   -9.1540   23.0720  -31.9690 C   0  0  0  0  0  0  0  0  0  0  0  0
   -6.8702   17.7175  -30.6224 H   0  0  0  0  0  0  0  0  0  0  0  0
   -7.1951   16.8759  -32.1758 H   0  0  0  0  0  0  0  0  0  0  0  0
   -6.7085   18.6050  -32.1758 H   0  0  0  0  0  0  0  0  0  0  0  0
   -9.3722   17.3619  -31.7379 H   0  0  0  0  0  0  0  0  0  0  0  0
   -8.9287   18.6566  -30.5527 H   0  0  0  0  0  0  0  0  0  0  0  0
   -3.5542   21.6925  -31.0721 H   0  0  0  0  0  0  0  0  0  0  0  0
   -2.2994   23.6194  -30.0850 H   0  0  0  0  0  0  0  0  0  0  0  0
   -5.6040   26.2154  -30.7946 H   0  0  0  0  0  0  0  0  0  0  0  0
   -6.9121   24.3357  -31.7998 H   0  0  0  0  0  0  0  0  0  0  0  0
   -8.9910   21.4871  -30.5184 H   0  0  0  0  0  0  0  0  0  0  0  0
   -7.7999   22.8252  -30.3162 H   0  0  0  0  0  0  0  0  0  0  0  0
   -9.7840   23.7438  -31.3675 H   0  0  0  0  0  0  0  0  0  0  0  0
   -8.4828   23.6693  -32.6037 H   0  0  0  0  0  0  0  0  0  0  0  0
   -9.7931   22.4405  -32.6037 H   0  0  0  0  0  0  0  0  0  0  0  0
  1  2  1  0
  2  3  1  0
  3  4  1  0
  4  5  2  0
  5  6  1  0
  6  7  2  0
  7  8  1  0
  8  9  2  0
  9 10  1  0
 10 11  2  0
 11 12  1  0
 12 13  2  0
  7 14  1  0
 14 15  1  0
 15 16  1  0
 14  4  1  0
 13  8  1  0
  1 17  1  0
  1 18  1  0
  1 19  1  0
  2 20  1  0
  2 21  1  0
  9 22  1  0
 10 23  1  0
 12 24  1  0
 13 25  1  0
 15 26  1  0
 15 27  1  0
 16 28  1  0
 16 29  1  0
 16 30  1  0
M  END
>  <UniqueID>  (23) 
22

>  <SMILES>  (23) 
CCSc1nnc(-c2ccncc2)n1CC

>  <Energy>  (23) 
61.49813169306331

>  <Genealogy>  (23) 
CCSc1nnc(-c2ccncc2)n1CC (3D coordinates assigned)
CCSc1nnc(-c2ccncc2)n1CC (optimized conformer: 61.49813169306331 kcal/mol)

>  <smiles>  (23) 
CCSc1nnc(-c2ccncc2)n1CC

>  <score_type>  (23) 
oracle

>  <origin>  (23) 
adg

>  <m_score__min__energy>  (23) 
-6.6299999999999999

>  <m_primary>  (23) 
energy

$$$$
23:0
     RDKit          3D

 65 68  0  0  0  0  0  0  0  0999 V2000
   -9.3326   18.0276  -32.7190 H   0  0  0  0  0  0  0  0  0  0  0  0
   -8.2880   18.3720  -32.7030 C   0  0  0  0  0  0  0  0  0  0  0  0
   -8.0660   19.7030  -32.7030 C   0  0  0  0  0  0  0  0  0  0  0  0
   -6.6590   20.2130  -32.7370 C   0  0  0  0  0  0  0  0  0  0  0  0
   -6.3320   21.2520  -31.8450 C   0  0  0  0  0  0  0  0  0  0  0  0
   -4.9900   21.6220  -31.6740 C   0  0  0  0  0  0  0  0  0  0  0  0
   -4.6370   22.6470  -30.7350 N   0  0  0  0  0  0  0  0  0  0  0  0
   -4.1350   22.3610  -29.8640 H   0  0  0  0  0  0  0  0  0  0  0  0
   -5.1860   23.9950  -30.8660 C   0  0  0  0  0  0  0  0  0  0  0  0
   -6.2844   23.9381  -30.8509 H   0  0  0  0  0  0  0  0  0  0  0  0
   -4.8329   24.4242  -31.8153 H   0  0  0  0  0  0  0  0  0  0  0  0
   -4.7170   24.8970  -29.7220 C   0  0  0  0  0  0  0  0  0  0  0  0
   -5.5180   24.9743  -28.9720 H   0  0  0  0  0  0  0  0  0  0  0  0
   -4.4784   25.8900  -30.1307 H   0  0  0  0  0  0  0  0  0  0  0  0
   -3.5550   24.3670  -29.1080 O   0  0  0  0  0  0  0  0  0  0  0  0
   -3.7620   24.1200  -27.7300 C   0  0  0  0  0  0  0  0  0  0  0  0
   -4.6583   24.6617  -27.3934 H   0  0  0  0  0  0  0  0  0  0  0  0
   -2.8834   24.4653  -27.1653 H   0  0  0  0  0  0  0  0  0  0  0  0
   -3.9570   22.6130  -27.4890 C   0  0  0  0  0  0  0  0  0  0  0  0
   -5.0347   22.3930  -27.4763 H   0  0  0  0  0  0  0  0  0  0  0  0
   -3.4852   22.3613  -26.5277 H   0  0  0  0  0  0  0  0  0  0  0  0
   -3.3180   21.7940  -28.5340 N   0  0  0  0  0  0  0  0  0  0  0  0
   -2.6850   22.3910  -29.1160 H   0  0  0  0  0  0  0  0  0  0  0  0
   -2.5510   20.6670  -27.9820 C   0  0  0  0  0  0  0  0  0  0  0  0
   -3.1507   19.7480  -28.0579 H   0  0  0  0  0  0  0  0  0  0  0  0
   -2.3148   20.8765  -26.9283 H   0  0  0  0  0  0  0  0  0  0  0  0
   -1.2490   20.4840  -28.7560 C   0  0  0  0  0  0  0  0  0  0  0  0
   -0.4151   20.3668  -28.0483 H   0  0  0  0  0  0  0  0  0  0  0  0
   -1.3216   19.5872  -29.3889 H   0  0  0  0  0  0  0  0  0  0  0  0
   -1.0716   21.3660  -29.3889 H   0  0  0  0  0  0  0  0  0  0  0  0
   -3.9930   20.9770  -32.4250 C   0  0  0  0  0  0  0  0  0  0  0  0
   -2.6300   21.2850  -32.2320 C   0  0  0  0  0  0  0  0  0  0  0  0
   -2.3430   22.0436  -31.4890 H   0  0  0  0  0  0  0  0  0  0  0  0
   -1.6440   20.6380  -32.9730 C   0  0  0  0  0  0  0  0  0  0  0  0
   -0.5848   20.8895  -32.8156 H   0  0  0  0  0  0  0  0  0  0  0  0
   -1.9970   19.6740  -33.9120 C   0  0  0  0  0  0  0  0  0  0  0  0
   -1.2155   19.1616  -34.4923 H   0  0  0  0  0  0  0  0  0  0  0  0
   -3.3400   19.3550  -34.1200 C   0  0  0  0  0  0  0  0  0  0  0  0
   -3.6052   18.5866  -34.8611 H   0  0  0  0  0  0  0  0  0  0  0  0
   -4.3670   20.0050  -33.3920 C   0  0  0  0  0  0  0  0  0  0  0  0
   -5.7010   19.7060  -33.5920 N   0  0  0  0  0  0  0  0  0  0  0  0
   -6.1060   18.9060  -34.7690 C   0  0  0  0  0  0  0  0  0  0  0  0
   -6.5790   17.9717  -34.4322 H   0  0  0  0  0  0  0  0  0  0  0  0
   -6.8214   19.4814  -35.3749 H   0  0  0  0  0  0  0  0  0  0  0  0
   -5.2187   18.6701  -35.3749 H   0  0  0  0  0  0  0  0  0  0  0  0
   -7.4430   21.9440  -31.0810 C   0  0  0  0  0  0  0  0  0  0  0  0
   -7.1107   22.9493  -30.7828 H   0  0  0  0  0  0  0  0  0  0  0  0
   -7.6903   21.3560  -30.1848 H   0  0  0  0  0  0  0  0  0  0  0  0
   -8.6850   22.0610  -31.9700 C   0  0  0  0  0  0  0  0  0  0  0  0
   -8.4308   22.6489  -32.8643 H   0  0  0  0  0  0  0  0  0  0  0  0
   -9.4796   22.5544  -31.3911 H   0  0  0  0  0  0  0  0  0  0  0  0
   -9.1930   20.6800  -32.4080 C   0  0  0  0  0  0  0  0  0  0  0  0
   -9.7999   20.8012  -33.3174 H   0  0  0  0  0  0  0  0  0  0  0  0
   -9.7814   20.2650  -31.5764 H   0  0  0  0  0  0  0  0  0  0  0  0
   -7.2260   17.3450  -32.6830 C   0  0  0  0  0  0  0  0  0  0  0  0
   -7.0570   16.4520  -33.7570 C   0  0  0  0  0  0  0  0  0  0  0  0
   -7.7405   16.4938  -34.6179 H   0  0  0  0  0  0  0  0  0  0  0  0
   -6.0220   15.5110  -33.7330 C   0  0  0  0  0  0  0  0  0  0  0  0
   -5.9015   14.8056  -34.5684 H   0  0  0  0  0  0  0  0  0  0  0  0
   -5.1410   15.4660  -32.6490 C   0  0  0  0  0  0  0  0  0  0  0  0
   -4.3320   14.7210  -32.6283 H   0  0  0  0  0  0  0  0  0  0  0  0
   -5.2880   16.3680  -31.5910 C   0  0  0  0  0  0  0  0  0  0  0  0
   -4.5907   16.3357  -30.7408 H   0  0  0  0  0  0  0  0  0  0  0  0
   -6.3200   17.3110  -31.6120 C   0  0  0  0  0  0  0  0  0  0  0  0
   -6.4222   18.0294  -30.7853 H   0  0  0  0  0  0  0  0  0  0  0  0
  1  2  1  0
  2  3  2  0
  3  4  1  0
  4  5  1  0
  5  6  2  0
  6  7  1  0
  7  8  1  0
  7  9  1  0
  9 10  1  0
  9 11  1  0
  9 12  1  0
 12 13  1  0
 12 14  1  0
 12 15  1  0
 15 16  1  0
 16 17  1  0
 16 18  1  0
 16 19  1  0
 19 20  1  0
 19 21  1  0
 19 22  1  0
 22 23  1  0
 22 24  1  0
 24 25  1  0
 24 26  1  0
 24 27  1  0
 27 28  1  0
 27 29  1  0
 27 30  1  0
  6 31  1  0
 31 32  2  0
 32 33  1  0
 32 34  1  0
 34 35  1  0
 34 36  2  0
 36 37  1  0
 36 38  1  0
 38 39  1  0
 38 40  2  0
 40 41  1  0
 41 42  1  0
 42 43  1  0
 42 44  1  0
 42 45  1  0
  5 46  1  0
 46 47  1  0
 46 48  1  0
 46 49  1  0
 49 50  1  0
 49 51  1  0
 49 52  1  0
 52 53  1  0
 52 54  1  0
  2 55  1  0
 55 56  2  0
 56 57  1  0
 56 58  1  0
 58 59  1  0
 58 60  2  0
 60 61  1  0
 60 62  1  0
 62 63  1  0
 62 64  2  0
 64 65  1  0
 52  3  1  0
 64 55  1  0
 41  4  2  0
 40 31  1  0
M  CHG  1  41   1
M  END
>  <UniqueID>  (24) 
23

>  <SMILES>  (24) 
CCNCCOCCNc1c2c([n+](C)c3ccccc13)/C(=C/c1ccccc1)CCC2

>  <Energy>  (24) 
99.46826909380533

>  <Genealogy>  (24) 
CCNCCOCCNc1c2c([n+](C)c3ccccc13)/C(=C/c1ccccc1)CCC2 (cis-trans isomerization)
CCNCCOCCNc1c2c([n+](C)c3ccccc13)/C(=C/c1ccccc1)CCC2 (3D coordinates assigned)
CCNCCOCCNc1c2c([n+](C)c3ccccc13)/C(=C/c1ccccc1)CCC2 (nonaromatic ring conformer: 99.46826909380533 kcal/mol)

>  <smiles>  (24) 
CCNCCOCCNc1c2c([n+](C)c3ccccc13)C(=Cc1ccccc1)CCC2

>  <score_type>  (24) 
oracle

>  <origin>  (24) 
adg

>  <m_score__min__energy>  (24) 
-10.109999999999999

>  <m_primary>  (24) 
energy

$$$$
24:0
     RDKit          3D

 42 43  0  0  0  0  0  0  0  0999 V2000
   -9.0630   23.4020  -32.3440 C   0  0  0  0  0  0  0  0  0  0  0  0
   -8.9350   22.1640  -31.4650 C   0  0  0  0  0  0  0  0  0  0  0  0
   -7.9460   22.3630  -30.4560 O   0  0  0  0  0  0  0  0  0  0  0  0
   -6.8120   23.1880  -30.5650 C   0  0  0  0  0  0  0  0  0  0  0  0
   -6.8470   24.5610  -30.2620 C   0  0  0  0  0  0  0  0  0  0  0  0
   -5.6910   25.3300  -30.4080 C   0  0  0  0  0  0  0  0  0  0  0  0
   -4.5400   24.7560  -30.8440 N   0  0  0  0  0  0  0  0  0  0  0  0
   -4.4700   23.4340  -31.1450 C   0  0  0  0  0  0  0  0  0  0  0  0
   -5.6020   22.6160  -31.0050 C   0  0  0  0  0  0  0  0  0  0  0  0
   -5.5290   21.1520  -31.3460 C   0  0  0  0  0  0  0  0  0  0  0  0
   -5.4100   20.9960  -32.8010 N   0  0  0  0  0  0  0  0  0  0  0  0
   -6.6750   20.5570  -33.4020 C   0  0  0  0  0  0  0  0  0  0  0  0
   -6.8330   19.0680  -33.2640 C   0  0  0  0  0  0  0  0  0  0  0  0
   -7.7670   18.3790  -32.5040 C   0  0  0  0  0  0  0  0  0  0  0  0
   -8.8100   18.9760  -31.6170 C   0  0  0  0  0  0  0  0  0  0  0  0
   -7.5720   17.0520  -32.6380 N   0  0  0  0  0  0  0  0  0  0  0  0
   -6.5530   16.8780  -33.4660 N   0  0  0  0  0  0  0  0  0  0  0  0
   -6.0430   15.5650  -33.8470 C   0  0  0  0  0  0  0  0  0  0  0  0
   -6.0890   18.0760  -33.8810 C   0  0  0  0  0  0  0  0  0  0  0  0
   -4.8940   18.2760  -34.7650 C   0  0  0  0  0  0  0  0  0  0  0  0
   -9.1553   24.2950  -31.7084 H   0  0  0  0  0  0  0  0  0  0  0  0
   -8.1697   23.4947  -32.9791 H   0  0  0  0  0  0  0  0  0  0  0  0
   -9.9564   23.3100  -32.9791 H   0  0  0  0  0  0  0  0  0  0  0  0
   -9.9038   21.9594  -30.9859 H   0  0  0  0  0  0  0  0  0  0  0  0
   -8.6333   21.3132  -32.0935 H   0  0  0  0  0  0  0  0  0  0  0  0
   -7.7802   25.0264  -29.9119 H   0  0  0  0  0  0  0  0  0  0  0  0
   -5.7125   26.4036  -30.1693 H   0  0  0  0  0  0  0  0  0  0  0  0
   -3.5226   23.0023  -31.4999 H   0  0  0  0  0  0  0  0  0  0  0  0
   -4.6519   20.7042  -30.8559 H   0  0  0  0  0  0  0  0  0  0  0  0
   -6.4412   20.6470  -30.9955 H   0  0  0  0  0  0  0  0  0  0  0  0
   -4.6920   20.2550  -32.9850 H   0  0  0  0  0  0  0  0  0  0  0  0
   -7.5112   21.0588  -32.8931 H   0  0  0  0  0  0  0  0  0  0  0  0
   -6.6712   20.8175  -34.4707 H   0  0  0  0  0  0  0  0  0  0  0  0
   -8.5315   18.8166  -30.5648 H   0  0  0  0  0  0  0  0  0  0  0  0
   -8.8871   20.0550  -31.8165 H   0  0  0  0  0  0  0  0  0  0  0  0
   -9.7795   18.4960  -31.8165 H   0  0  0  0  0  0  0  0  0  0  0  0
   -5.8168   14.9827  -32.9416 H   0  0  0  0  0  0  0  0  0  0  0  0
   -6.8011   15.0361  -34.4433 H   0  0  0  0  0  0  0  0  0  0  0  0
   -5.1267   15.6865  -34.4433 H   0  0  0  0  0  0  0  0  0  0  0  0
   -3.9990   18.4258  -34.1433 H   0  0  0  0  0  0  0  0  0  0  0  0
   -4.7550   17.3886  -35.4000 H   0  0  0  0  0  0  0  0  0  0  0  0
   -5.0515   19.1603  -35.4000 H   0  0  0  0  0  0  0  0  0  0  0  0
  1  2  1  0
  2  3  1  0
  3  4  1  0
  4  5  2  0
  5  6  1  0
  6  7  2  0
  7  8  1  0
  8  9  2  0
  9 10  1  0
 10 11  1  0
 11 12  1  0
 12 13  1  0
 13 14  1  0
 14 15  1  0
 14 16  2  0
 16 17  1  0
 17 18  1  0
 17 19  1  0
 19 20  1  0
  9  4  1  0
 19 13  2  0
  1 21  1  0
  1 22  1  0
  1 23  1  0
  2 24  1  0
  2 25  1  0
  5 26  1  0
  6 27  1  0
  8 28  1  0
 10 29  1  0
 10 30  1  0
 11 31  1  0
 12 32  1  0
 12 33  1  0
 15 34  1  0
 15 35  1  0
 15 36  1  0
 18 37  1  0
 18 38  1  0
 18 39  1  0
 20 40  1  0
 20 41  1  0
 20 42  1  0
M  END
>  <UniqueID>  (25) 
24

>  <SMILES>  (25) 
CCOc1ccncc1CNCc1c(C)nn(C)c1C

>  <Energy>  (25) 
63.682895784446146

>  <Genealogy>  (25) 
CCOc1ccncc1CNCc1c(C)nn(C)c1C (3D coordinates assigned)
CCOc1ccncc1CNCc1c(C)nn(C)c1C (optimized conformer: 63.682895784446146 kcal/mol)

>  <smiles>  (25) 
CCOc1ccncc1CNCc1c(C)nn(C)c1C

>  <score_type>  (25) 
oracle

>  <origin>  (25) 
adg

>  <m_score__min__energy>  (25) 
-7.0300000000000002

>  <m_primary>  (25) 
energy

$$$$
25:0
     RDKit          3D

 50 51  0  0  0  0  0  0  0  0999 V2000
   -8.4960   20.2630  -31.9110 C   0  0  0  0  0  0  0  0  0  0  0  0
   -7.3070   19.7630  -32.7250 C   0  0  0  0  0  0  0  0  0  0  0  0
   -5.9860   20.0360  -31.9970 C   0  0  0  0  0  0  0  0  0  0  0  0
   -5.0770   21.0180  -32.7560 C   0  0  0  0  0  0  0  0  0  0  0  0
   -4.4410   21.9940  -31.8420 N   0  0  0  0  0  0  0  0  0  0  0  0
   -3.0990   21.8350  -31.6290 C   0  0  0  0  0  0  0  0  0  0  0  0
   -2.3840   22.7020  -30.8130 C   0  0  0  0  0  0  0  0  0  0  0  0
   -3.0300   23.7660  -30.1930 C   0  0  0  0  0  0  0  0  0  0  0  0
   -2.2540   24.6750  -29.4000 N   0  0  0  0  0  0  0  0  0  0  0  0
   -2.0270   24.4200  -27.9790 C   0  0  0  0  0  0  0  0  0  0  0  0
   -1.6740   25.7260  -27.2600 C   0  0  0  0  0  0  0  0  0  0  0  0
   -1.9680   25.6270  -25.7520 C   0  0  0  0  0  0  0  0  0  0  0  0
   -1.4730   26.8040  -24.9990 N   0  0  0  0  0  0  0  0  0  0  0  0
   -0.5830   26.4080  -23.8900 C   0  0  0  0  0  0  0  0  0  0  0  0
   -0.7520   27.7130  -25.9080 C   0  0  0  0  0  0  0  0  0  0  0  0
   -4.4210   23.9190  -30.3560 C   0  0  0  0  0  0  0  0  0  0  0  0
   -5.1220   24.9290  -29.6680 C   0  0  0  0  0  0  0  0  0  0  0  0
   -6.4970   25.0750  -29.8290 C   0  0  0  0  0  0  0  0  0  0  0  0
   -7.1960   24.2110  -30.6650 C   0  0  0  0  0  0  0  0  0  0  0  0
   -6.5290   23.1890  -31.3410 C   0  0  0  0  0  0  0  0  0  0  0  0
   -5.1280   23.0130  -31.2020 C   0  0  0  0  0  0  0  0  0  0  0  0
   -8.2716   20.1686  -30.8383 H   0  0  0  0  0  0  0  0  0  0  0  0
   -8.6888   21.3184  -32.1538 H   0  0  0  0  0  0  0  0  0  0  0  0
   -9.3851   19.6626  -32.1538 H   0  0  0  0  0  0  0  0  0  0  0  0
   -7.4116   18.6798  -32.8855 H   0  0  0  0  0  0  0  0  0  0  0  0
   -7.2927   20.2968  -33.6867 H   0  0  0  0  0  0  0  0  0  0  0  0
   -6.2116   20.4597  -31.0072 H   0  0  0  0  0  0  0  0  0  0  0  0
   -5.4477   19.0799  -31.9195 H   0  0  0  0  0  0  0  0  0  0  0  0
   -4.2904   20.4487  -33.2729 H   0  0  0  0  0  0  0  0  0  0  0  0
   -5.6974   21.5745  -33.4739 H   0  0  0  0  0  0  0  0  0  0  0  0
   -2.5735   21.0002  -32.1159 H   0  0  0  0  0  0  0  0  0  0  0  0
   -1.3062   22.5470  -30.6570 H   0  0  0  0  0  0  0  0  0  0  0  0
   -2.2060   25.6710  -29.7140 H   0  0  0  0  0  0  0  0  0  0  0  0
   -2.9395   23.9954  -27.5352 H   0  0  0  0  0  0  0  0  0  0  0  0
   -1.1929   23.7114  -27.8690 H   0  0  0  0  0  0  0  0  0  0  0  0
   -0.6041   25.9373  -27.4041 H   0  0  0  0  0  0  0  0  0  0  0  0
   -2.2888   26.5342  -27.6829 H   0  0  0  0  0  0  0  0  0  0  0  0
   -3.0559   25.5487  -25.6090 H   0  0  0  0  0  0  0  0  0  0  0  0
   -1.4447   24.7394  -25.3669 H   0  0  0  0  0  0  0  0  0  0  0  0
   -2.2860   27.3320  -24.6030 H   0  0  0  0  0  0  0  0  0  0  0  0
   -1.0738   26.6264  -22.9301 H   0  0  0  0  0  0  0  0  0  0  0  0
   -0.3711   25.3307  -23.9567 H   0  0  0  0  0  0  0  0  0  0  0  0
    0.3591   26.9718  -23.9567 H   0  0  0  0  0  0  0  0  0  0  0  0
   -0.1752   28.4402  -25.3178 H   0  0  0  0  0  0  0  0  0  0  0  0
   -0.0677   27.1304  -26.5423 H   0  0  0  0  0  0  0  0  0  0  0  0
   -1.4750   28.2467  -26.5423 H   0  0  0  0  0  0  0  0  0  0  0  0
   -4.5772   25.6092  -28.9967 H   0  0  0  0  0  0  0  0  0  0  0  0
   -7.0311   25.8744  -29.2945 H   0  0  0  0  0  0  0  0  0  0  0  0
   -8.2814   24.3342  -30.7940 H   0  0  0  0  0  0  0  0  0  0  0  0
   -7.0981   22.5090  -31.9919 H   0  0  0  0  0  0  0  0  0  0  0  0
  1  2  1  0
  2  3  1  0
  3  4  1  0
  4  5  1  0
  5  6  2  0
  6  7  1  0
  7  8  2  0
  8  9  1  0
  9 10  1  0
 10 11  1  0
 11 12  1  0
 12 13  1  0
 13 14  1  0
 13 15  1  0
  8 16  1  0
 16 17  2  0
 17 18  1  0
 18 19  2  0
 19 20  1  0
 20 21  2  0
 21  5  1  0
 21 16  1  0
  1 22  1  0
  1 23  1  0
  1 24  1  0
  2 25  1  0
  2 26  1  0
  3 27  1  0
  3 28  1  0
  4 29  1  0
  4 30  1  0
  6 31  1  0
  7 32  1  0
  9 33  1  0
 10 34  1  0
 10 35  1  0
 11 36  1  0
 11 37  1  0
 12 38  1  0
 12 39  1  0
 13 40  1  0
 14 41  1  0
 14 42  1  0
 14 43  1  0
 15 44  1  0
 15 45  1  0
 15 46  1  0
 17 47  1  0
 18 48  1  0
 19 49  1  0
 20 50  1  0
M  CHG  2   5   1  13   1
M  END
>  <UniqueID>  (26) 
25

>  <SMILES>  (26) 
CCCC[n+]1ccc(NCCC[NH+](C)C)c2ccccc21

>  <Energy>  (26) 
54.398913908595986

>  <Genealogy>  (26) 
CCCC[n+]1ccc(NCCC[NH+](C)C)c2ccccc21 (protonated)
CCCC[n+]1ccc(NCCC[NH+](C)C)c2ccccc21 (3D coordinates assigned)
CCCC[n+]1ccc(NCCC[NH+](C)C)c2ccccc21 (optimized conformer: 54.398913908595986 kcal/mol)

>  <smiles>  (26) 
CCCC[n+]1ccc(NCCCN(C)C)c2ccccc21

>  <score_type>  (26) 
oracle

>  <origin>  (26) 
adg

>  <m_score__min__energy>  (26) 
-6.5599999999999996

>  <m_primary>  (26) 
energy

$$$$
