0:0
     RDKit          3D

 70 74  0  0  0  0  0  0  0  0999 V2000
   -7.2000   18.0330  -31.5560 C   0  0  0  0  0  0  0  0  0  0  0  0
   -8.6340   18.3110  -32.0030 C   0  0  0  0  0  0  0  0  0  0  0  0
   -8.6950   19.5130  -32.8520 N   0  0  0  0  0  0  0  0  0  0  0  0
   -9.5240   20.5760  -32.2530 C   0  0  0  0  0  0  0  0  0  0  0  0
   -8.6980   21.5710  -31.4260 C   0  0  0  0  0  0  0  0  0  0  0  0
   -7.4080   21.6790  -31.9930 O   0  0  0  0  0  0  0  0  0  0  0  0
   -7.1620   23.0250  -32.3480 C   0  0  0  0  0  0  0  0  0  0  0  0
   -7.1520   23.9020  -31.0870 C   0  0  0  0  0  0  0  0  0  0  0  0
   -6.6250   23.2000  -29.9030 N   0  0  0  0  0  0  0  0  0  0  0  0
   -5.4220   23.8330  -29.3380 C   0  0  0  0  0  0  0  0  0  0  0  0
   -5.0510   25.1110  -30.1000 C   0  0  0  0  0  0  0  0  0  0  0  0
   -3.6720   25.1080  -30.4720 O   0  0  0  0  0  0  0  0  0  0  0  0
   -2.7600   24.1100  -30.0910 C   0  0  0  0  0  0  0  0  0  0  0  0
   -1.8030   24.3520  -29.0840 C   0  0  0  0  0  0  0  0  0  0  0  0
   -1.7300   25.6280  -28.5060 O   0  0  0  0  0  0  0  0  0  0  0  0
   -1.4290   25.8820  -27.1360 C   0  0  0  0  0  0  0  0  0  0  0  0
   -0.9270   23.3190  -28.7010 C   0  0  0  0  0  0  0  0  0  0  0  0
   -0.9790   22.0740  -29.3290 C   0  0  0  0  0  0  0  0  0  0  0  0
   -1.9030   21.8390  -30.3550 C   0  0  0  0  0  0  0  0  0  0  0  0
   -1.9480   20.5980  -30.9970 C   0  0  0  0  0  0  0  0  0  0  0  0
   -2.8820   20.3690  -32.0230 C   0  0  0  0  0  0  0  0  0  0  0  0
   -3.7820   21.3570  -32.3520 N   0  0  0  0  0  0  0  0  0  0  0  0
   -3.7330   22.5840  -31.7500 C   0  0  0  0  0  0  0  0  0  0  0  0
   -2.7980   22.8560  -30.7390 C   0  0  0  0  0  0  0  0  0  0  0  0
   -4.7630   21.1410  -33.4310 C   0  0  0  0  0  0  0  0  0  0  0  0
   -5.2990   19.7060  -33.4120 C   0  0  0  0  0  0  0  0  0  0  0  0
   -4.1590   18.7290  -33.4160 C   0  0  0  0  0  0  0  0  0  0  0  0
   -4.2960   17.4830  -34.0640 C   0  0  0  0  0  0  0  0  0  0  0  0
   -3.2160   16.6110  -34.0330 C   0  0  0  0  0  0  0  0  0  0  0  0
   -2.0580   16.9230  -33.4030 C   0  0  0  0  0  0  0  0  0  0  0  0
   -1.8810   18.1290  -32.7350 C   0  0  0  0  0  0  0  0  0  0  0  0
   -2.9610   19.0490  -32.7170 C   0  0  0  0  0  0  0  0  0  0  0  0
   -1.1590   15.8840  -33.5520 O   0  0  0  0  0  0  0  0  0  0  0  0
   -1.7960   14.8540  -34.3190 C   0  0  0  0  0  0  0  0  0  0  0  0
   -3.1070   15.3590  -34.6050 O   0  0  0  0  0  0  0  0  0  0  0  0
   -7.1537   18.0240  -30.4570 H   0  0  0  0  0  0  0  0  0  0  0  0
   -6.8778   17.0557  -31.9446 H   0  0  0  0  0  0  0  0  0  0  0  0
   -6.5359   18.8191  -31.9446 H   0  0  0  0  0  0  0  0  0  0  0  0
   -9.0075   17.4477  -32.5733 H   0  0  0  0  0  0  0  0  0  0  0  0
   -9.2546   18.4787  -31.1104 H   0  0  0  0  0  0  0  0  0  0  0  0
   -9.0580   19.2640  -33.8010 H   0  0  0  0  0  0  0  0  0  0  0  0
   -7.7240   19.8900  -32.9660 H   0  0  0  0  0  0  0  0  0  0  0  0
  -10.0316   21.1244  -33.0603 H   0  0  0  0  0  0  0  0  0  0  0  0
  -10.2444   20.0953  -31.5748 H   0  0  0  0  0  0  0  0  0  0  0  0
   -9.1888   22.5554  -31.4352 H   0  0  0  0  0  0  0  0  0  0  0  0
   -8.6197   21.2171  -30.3874 H   0  0  0  0  0  0  0  0  0  0  0  0
   -6.1865   23.0976  -32.8511 H   0  0  0  0  0  0  0  0  0  0  0  0
   -7.9554   23.3727  -33.0260 H   0  0  0  0  0  0  0  0  0  0  0  0
   -6.5251   24.7853  -31.2790 H   0  0  0  0  0  0  0  0  0  0  0  0
   -8.1942   24.1784  -30.8695 H   0  0  0  0  0  0  0  0  0  0  0  0
   -6.4060   22.2040  -30.1430 H   0  0  0  0  0  0  0  0  0  0  0  0
   -5.6125   24.0870  -28.2848 H   0  0  0  0  0  0  0  0  0  0  0  0
   -4.5854   23.1240  -29.4238 H   0  0  0  0  0  0  0  0  0  0  0  0
   -5.6676   25.1791  -31.0084 H   0  0  0  0  0  0  0  0  0  0  0  0
   -5.2328   25.9740  -29.4426 H   0  0  0  0  0  0  0  0  0  0  0  0
   -2.1133   25.3045  -26.4971 H   0  0  0  0  0  0  0  0  0  0  0  0
   -0.3915   25.5823  -26.9269 H   0  0  0  0  0  0  0  0  0  0  0  0
   -1.5499   26.9551  -26.9269 H   0  0  0  0  0  0  0  0  0  0  0  0
   -0.1947   23.4948  -27.8993 H   0  0  0  0  0  0  0  0  0  0  0  0
   -0.2916   21.2739  -29.0170 H   0  0  0  0  0  0  0  0  0  0  0  0
   -1.2521   19.7998  -30.6993 H   0  0  0  0  0  0  0  0  0  0  0  0
   -4.4368   23.3694  -32.0627 H   0  0  0  0  0  0  0  0  0  0  0  0
   -5.6023   21.8395  -33.2982 H   0  0  0  0  0  0  0  0  0  0  0  0
   -4.2639   21.3141  -34.3959 H   0  0  0  0  0  0  0  0  0  0  0  0
   -5.9038   19.5556  -32.5056 H   0  0  0  0  0  0  0  0  0  0  0  0
   -5.9175   19.5410  -34.3065 H   0  0  0  0  0  0  0  0  0  0  0  0
   -5.2297   17.2109  -34.5779 H   0  0  0  0  0  0  0  0  0  0  0  0
   -0.9301   18.3636  -32.2343 H   0  0  0  0  0  0  0  0  0  0  0  0
   -1.2420   14.6677  -35.2509 H   0  0  0  0  0  0  0  0  0  0  0  0
   -1.8316   13.8979  -33.7763 H   0  0  0  0  0  0  0  0  0  0  0  0
  1  2  1  0
  2  3  1  0
  3  4  1  0
  4  5  1  0
  5  6  1  0
  6  7  1  0
  7  8  1  0
  8  9  1  0
  9 10  1  0
 10 11  1  0
 11 12  1  0
 12 13  1  0
 13 14  2  0
 14 15  1  0
 15 16  1  0
 14 17  1  0
 17 18  2  0
 18 19  1  0
 19 20  2  0
 20 21  1  0
 21 22  2  0
 22 23  1  0
 23 24  2  0
 22 25  1  0
 25 26  1  0
 26 27  1  0
 27 28  2  0
 28 29  1  0
 29 30  2  0
 30 31  1  0
 31 32  2  0
 30 33  1  0
 33 34  1  0
 34 35  1  0
 24 13  1  0
 32 27  1  0
 24 19  1  0
 35 29  1  0
 32 21  1  0
  1 36  1  0
  1 37  1  0
  1 38  1  0
  2 39  1  0
  2 40  1  0
  3 41  1  0
  3 42  1  0
  4 43  1  0
  4 44  1  0
  5 45  1  0
  5 46  1  0
  7 47  1  0
  7 48  1  0
  8 49  1  0
  8 50  1  0
  9 51  1  0
 10 52  1  0
 10 53  1  0
 11 54  1  0
 11 55  1  0
 16 56  1  0
 16 57  1  0
 16 58  1  0
 17 59  1  0
 18 60  1  0
 20 61  1  0
 23 62  1  0
 25 63  1  0
 25 64  1  0
 26 65  1  0
 26 66  1  0
 28 67  1  0
 31 68  1  0
 34 69  1  0
 34 70  1  0
M  CHG  2   3   1  22   1
M  END
>  <UniqueID>  (1) 
1

>  <SMILES>  (1) 
CC[NH2+]CCOCCNCCOc1c(OC)ccc2cc3[n+](cc12)CCc1cc2c(cc1-3)OCO2

>  <Energy>  (1) 
110.87904753021813

>  <Genealogy>  (1) 
CC[NH2+]CCOCCNCCOc1c(OC)ccc2cc3[n+](cc12)CCc1cc2c(cc1-3)OCO2 (protonated)
CC[NH2+]CCOCCNCCOc1c(OC)ccc2cc3[n+](cc12)CCc1cc2c(cc1-3)OCO2 (3D coordinates assigned)
CC[NH2+]CCOCCNCCOc1c(OC)ccc2cc3[n+](cc12)CCc1cc2c(cc1-3)OCO2 (nonaromatic ring conformer: 110.87904753021813 kcal/mol)

>  <smiles>  (1) 
CCNCCOCCNCCOc1c(OC)ccc2cc3[n+](cc12)CCc1cc2c(cc1-3)OCO2

>  <score_type>  (1) 
oracle

>  <origin>  (1) 
adg

>  <m_score__min__energy>  (1) 
-8.9100000000000001

>  <m_primary>  (1) 
energy

$$$$
1:0
     RDKit          3D

 49 50  0  0  0  0  0  0  0  0999 V2000
   -3.1840   20.3620  -33.2100 C   0  0  0  0  0  0  0  0  0  0  0  0
   -3.2640   21.8810  -33.0560 C   0  0  0  0  0  0  0  0  0  0  0  0
   -3.2640   22.2990  -31.6430 N   0  0  0  0  0  0  0  0  0  0  0  0
   -2.6760   21.2850  -30.7370 C   0  0  0  0  0  0  0  0  0  0  0  0
   -3.2430   21.3820  -29.3170 C   0  0  0  0  0  0  0  0  0  0  0  0
   -4.3060   22.3130  -29.3160 O   0  0  0  0  0  0  0  0  0  0  0  0
   -4.0380   23.3830  -28.4280 C   0  0  0  0  0  0  0  0  0  0  0  0
   -3.2620   24.5000  -29.1290 C   0  0  0  0  0  0  0  0  0  0  0  0
   -3.8110   24.7220  -30.4780 N   0  0  0  0  0  0  0  0  0  0  0  0
   -4.9600   25.6400  -30.4770 C   0  0  0  0  0  0  0  0  0  0  0  0
   -6.2640   24.9250  -30.8610 C   0  0  0  0  0  0  0  0  0  0  0  0
   -5.9910   23.8200  -31.7230 O   0  0  0  0  0  0  0  0  0  0  0  0
   -6.7330   22.6280  -31.7790 C   0  0  0  0  0  0  0  0  0  0  0  0
   -8.1290   22.7210  -31.7660 C   0  0  0  0  0  0  0  0  0  0  0  0
   -8.9240   21.5730  -31.8170 C   0  0  0  0  0  0  0  0  0  0  0  0
   -8.3280   20.3070  -31.8900 C   0  0  0  0  0  0  0  0  0  0  0  0
   -9.1150   19.1460  -31.9330 C   0  0  0  0  0  0  0  0  0  0  0  0
   -8.5070   17.8890  -32.0030 C   0  0  0  0  0  0  0  0  0  0  0  0
   -7.1140   17.7820  -32.0340 C   0  0  0  0  0  0  0  0  0  0  0  0
   -6.3200   18.9310  -31.9930 C   0  0  0  0  0  0  0  0  0  0  0  0
   -6.9170   20.1990  -31.9170 C   0  0  0  0  0  0  0  0  0  0  0  0
   -6.1290   21.3580  -31.8560 C   0  0  0  0  0  0  0  0  0  0  0  0
   -3.1593   19.8934  -32.2151 H   0  0  0  0  0  0  0  0  0  0  0  0
   -4.0645   20.0026  -33.7628 H   0  0  0  0  0  0  0  0  0  0  0  0
   -2.2707   20.0971  -33.7628 H   0  0  0  0  0  0  0  0  0  0  0  0
   -2.3971   22.3340  -33.5592 H   0  0  0  0  0  0  0  0  0  0  0  0
   -4.2096   22.2163  -33.5069 H   0  0  0  0  0  0  0  0  0  0  0  0
   -2.6870   23.1710  -31.5770 H   0  0  0  0  0  0  0  0  0  0  0  0
   -4.2370   22.5630  -31.3560 H   0  0  0  0  0  0  0  0  0  0  0  0
   -2.8923   20.2836  -31.1375 H   0  0  0  0  0  0  0  0  0  0  0  0
   -1.5927   21.4678  -30.6821 H   0  0  0  0  0  0  0  0  0  0  0  0
   -3.6138   20.3966  -28.9984 H   0  0  0  0  0  0  0  0  0  0  0  0
   -2.4568   21.7103  -28.6212 H   0  0  0  0  0  0  0  0  0  0  0  0
   -4.9905   23.7871  -28.0546 H   0  0  0  0  0  0  0  0  0  0  0  0
   -3.4269   23.0020  -27.5965 H   0  0  0  0  0  0  0  0  0  0  0  0
   -3.3481   25.4270  -28.5431 H   0  0  0  0  0  0  0  0  0  0  0  0
   -2.2044   24.2092  -29.2119 H   0  0  0  0  0  0  0  0  0  0  0  0
   -4.0870   23.8060  -30.9050 H   0  0  0  0  0  0  0  0  0  0  0  0
   -5.0723   26.0682  -29.4700 H   0  0  0  0  0  0  0  0  0  0  0  0
   -4.7695   26.4258  -31.2228 H   0  0  0  0  0  0  0  0  0  0  0  0
   -6.7590   24.5596  -29.9491 H   0  0  0  0  0  0  0  0  0  0  0  0
   -6.9183   25.6352  -31.3878 H   0  0  0  0  0  0  0  0  0  0  0  0
   -8.6068   23.7105  -31.7150 H   0  0  0  0  0  0  0  0  0  0  0  0
  -10.0201   21.6634  -31.7998 H   0  0  0  0  0  0  0  0  0  0  0  0
  -10.2119   19.2250  -31.9116 H   0  0  0  0  0  0  0  0  0  0  0  0
   -9.1273   16.9811  -32.0338 H   0  0  0  0  0  0  0  0  0  0  0  0
   -6.6412   16.7904  -32.0908 H   0  0  0  0  0  0  0  0  0  0  0  0
   -5.2240   18.8416  -32.0204 H   0  0  0  0  0  0  0  0  0  0  0  0
   -5.0323   21.2744  -31.8684 H   0  0  0  0  0  0  0  0  0  0  0  0
  1  2  1  0
  2  3  1  0
  3  4  1  0
  4  5  1  0
  5  6  1  0
  6  7  1  0
  7  8  1  0
  8  9  1  0
  9 10  1  0
 10 11  1  0
 11 12  1  0
 12 13  1  0
 13 14  2  0
 14 15  1  0
 15 16  2  0
 16 17  1  0
 17 18  2  0
 18 19  1  0
 19 20  2  0
 20 21  1  0
 21 22  2  0
 22 13  1  0
 21 16  1  0
  1 23  1  0
  1 24  1  0
  1 25  1  0
  2 26  1  0
  2 27  1  0
  3 28  1  0
  3 29  1  0
  4 30  1  0
  4 31  1  0
  5 32  1  0
  5 33  1  0
  7 34  1  0
  7 35  1  0
  8 36  1  0
  8 37  1  0
  9 38  1  0
 10 39  1  0
 10 40  1  0
 11 41  1  0
 11 42  1  0
 14 43  1  0
 15 44  1  0
 17 45  1  0
 18 46  1  0
 19 47  1  0
 20 48  1  0
 22 49  1  0
M  CHG  1   3   1
M  END
>  <UniqueID>  (2) 
2

>  <SMILES>  (2) 
CC[NH2+]CCOCCNCCOc1ccc2ccccc2c1

>  <Energy>  (2) 
46.97455923810463

>  <Genealogy>  (2) 
CC[NH2+]CCOCCNCCOc1ccc2ccccc2c1 (protonated)
CC[NH2+]CCOCCNCCOc1ccc2ccccc2c1 (3D coordinates assigned)
CC[NH2+]CCOCCNCCOc1ccc2ccccc2c1 (optimized conformer: 46.97455923810463 kcal/mol)

>  <smiles>  (2) 
CCNCCOCCNCCOc1ccc2ccccc2c1

>  <score_type>  (2) 
oracle

>  <origin>  (2) 
adg

>  <m_score__min__energy>  (2) 
-7.5199999999999996

>  <m_primary>  (2) 
energy

$$$$
2:0
     RDKit          3D

 83 86  0  0  0  0  0  0  0  0999 V2000
   -6.4740   25.2080  -29.7140 C   0  0  0  0  0  0  0  0  0  0  0  0
   -5.5320   25.1700  -30.9150 C   0  0  0  0  0  0  0  0  0  0  0  0
   -4.1350   25.2800  -30.4730 N   0  0  0  0  0  0  0  0  0  0  0  0
   -3.8740   24.4450  -29.2920 C   0  0  0  0  0  0  0  0  0  0  0  0
   -2.7240   23.4740  -29.5710 C   0  0  0  0  0  0  0  0  0  0  0  0
   -2.7410   23.0580  -30.9240 O   0  0  0  0  0  0  0  0  0  0  0  0
   -3.6680   22.0090  -31.1200 C   0  0  0  0  0  0  0  0  0  0  0  0
   -3.4880   21.4260  -32.5250 C   0  0  0  0  0  0  0  0  0  0  0  0
   -4.6690   21.6900  -33.3650 N   0  0  0  0  0  0  0  0  0  0  0  0
   -5.7680   20.8080  -32.9980 C   0  0  0  0  0  0  0  0  0  0  0  0
   -6.9730   21.3330  -32.4580 C   0  0  0  0  0  0  0  0  0  0  0  0
   -7.2100   22.7290  -32.3850 C   0  0  0  0  0  0  0  0  0  0  0  0
   -8.3590   23.2320  -31.7820 C   0  0  0  0  0  0  0  0  0  0  0  0
   -9.2930   22.3680  -31.2320 C   0  0  0  0  0  0  0  0  0  0  0  0
   -9.1070   20.9920  -31.3250 C   0  0  0  0  0  0  0  0  0  0  0  0
   -7.9750   20.4420  -31.9810 C   0  0  0  0  0  0  0  0  0  0  0  0
   -7.8330   19.0770  -32.1430 N   0  0  0  0  0  0  0  0  0  0  0  0
   -8.9940   18.1840  -31.9160 C   0  0  0  0  0  0  0  0  0  0  0  0
   -6.6340   18.5480  -32.5780 C   0  0  0  0  0  0  0  0  0  0  0  0
   -6.3680   17.1570  -32.4980 C   0  0  0  0  0  0  0  0  0  0  0  0
   -5.2090   16.5980  -33.0360 C   0  0  0  0  0  0  0  0  0  0  0  0
   -5.0140   15.2130  -32.8930 O   0  0  0  0  0  0  0  0  0  0  0  0
   -4.6610   14.5400  -31.6850 C   0  0  0  0  0  0  0  0  0  0  0  0
   -4.3760   13.0490  -31.9830 C   0  0  0  0  0  0  0  0  0  0  0  0
   -3.3870   12.7610  -33.0780 N   0  0  0  0  0  0  0  0  0  0  0  0
   -2.6410   11.5440  -32.6480 C   0  0  0  0  0  0  0  0  0  0  0  0
   -4.0730   12.4480  -34.3780 C   0  0  0  0  0  0  0  0  0  0  0  0
   -4.0790   13.6390  -35.3600 C   0  0  0  0  0  0  0  0  0  0  0  0
   -2.6990   14.0950  -35.7210 N   0  0  0  0  0  0  0  0  0  0  0  0
   -2.2250   13.3480  -36.9130 C   0  0  0  0  0  0  0  0  0  0  0  0
   -2.7530   15.5340  -36.0810 C   0  0  0  0  0  0  0  0  0  0  0  0
   -1.7230   13.8990  -34.6000 C   0  0  0  0  0  0  0  0  0  0  0  0
   -2.4060   13.8860  -33.2160 C   0  0  0  0  0  0  0  0  0  0  0  0
   -4.2910   17.4300  -33.6840 C   0  0  0  0  0  0  0  0  0  0  0  0
   -4.4900   18.8080  -33.7100 C   0  0  0  0  0  0  0  0  0  0  0  0
   -5.6220   19.3980  -33.0990 C   0  0  0  0  0  0  0  0  0  0  0  0
   -5.8851   25.1842  -28.7852 H   0  0  0  0  0  0  0  0  0  0  0  0
   -7.0716   26.1310  -29.7458 H   0  0  0  0  0  0  0  0  0  0  0  0
   -7.1440   24.3362  -29.7458 H   0  0  0  0  0  0  0  0  0  0  0  0
   -5.6684   24.2202  -31.4529 H   0  0  0  0  0  0  0  0  0  0  0  0
   -5.7645   26.0163  -31.5781 H   0  0  0  0  0  0  0  0  0  0  0  0
   -3.5250   24.9220  -31.2500 H   0  0  0  0  0  0  0  0  0  0  0  0
   -3.6055   25.0910  -28.4431 H   0  0  0  0  0  0  0  0  0  0  0  0
   -4.7799   23.8678  -29.0548 H   0  0  0  0  0  0  0  0  0  0  0  0
   -1.7681   23.9751  -29.3587 H   0  0  0  0  0  0  0  0  0  0  0  0
   -2.8414   22.5903  -28.9265 H   0  0  0  0  0  0  0  0  0  0  0  0
   -3.4951   21.2219  -30.3713 H   0  0  0  0  0  0  0  0  0  0  0  0
   -4.6912   22.3983  -31.0123 H   0  0  0  0  0  0  0  0  0  0  0  0
   -2.6045   21.8842  -32.9934 H   0  0  0  0  0  0  0  0  0  0  0  0
   -3.3586   20.3372  -32.4371 H   0  0  0  0  0  0  0  0  0  0  0  0
   -4.4240   21.5870  -34.3740 H   0  0  0  0  0  0  0  0  0  0  0  0
   -4.9570   22.6910  -33.3000 H   0  0  0  0  0  0  0  0  0  0  0  0
   -6.4737   23.4258  -32.8119 H   0  0  0  0  0  0  0  0  0  0  0  0
   -8.5265   24.3184  -31.7417 H   0  0  0  0  0  0  0  0  0  0  0  0
  -10.1810   22.7699  -30.7222 H   0  0  0  0  0  0  0  0  0  0  0  0
   -9.8529   20.3165  -30.8808 H   0  0  0  0  0  0  0  0  0  0  0  0
   -9.1553   18.0599  -30.8350 H   0  0  0  0  0  0  0  0  0  0  0  0
   -9.8917   18.6266  -32.3723 H   0  0  0  0  0  0  0  0  0  0  0  0
   -8.7966   17.2028  -32.3723 H   0  0  0  0  0  0  0  0  0  0  0  0
   -7.0958   16.5011  -31.9979 H   0  0  0  0  0  0  0  0  0  0  0  0
   -3.7613   15.0057  -31.2565 H   0  0  0  0  0  0  0  0  0  0  0  0
   -5.4928   14.6159  -30.9692 H   0  0  0  0  0  0  0  0  0  0  0  0
   -3.9943   12.5905  -31.0588 H   0  0  0  0  0  0  0  0  0  0  0  0
   -5.3315   12.6351  -32.3375 H   0  0  0  0  0  0  0  0  0  0  0  0
   -2.6139   11.4997  -31.5492 H   0  0  0  0  0  0  0  0  0  0  0  0
   -3.1451   10.6478  -33.0387 H   0  0  0  0  0  0  0  0  0  0  0  0
   -1.6136   11.5865  -33.0387 H   0  0  0  0  0  0  0  0  0  0  0  0
   -3.5528   11.6039  -34.8543 H   0  0  0  0  0  0  0  0  0  0  0  0
   -5.1212   12.2074  -34.1468 H   0  0  0  0  0  0  0  0  0  0  0  0
   -4.6013   13.3351  -36.2792 H   0  0  0  0  0  0  0  0  0  0  0  0
   -4.5876   14.4781  -34.8628 H   0  0  0  0  0  0  0  0  0  0  0  0
   -1.6617   12.4603  -36.5893 H   0  0  0  0  0  0  0  0  0  0  0  0
   -3.0894   13.0339  -37.5165 H   0  0  0  0  0  0  0  0  0  0  0  0
   -1.5727   13.9963  -37.5165 H   0  0  0  0  0  0  0  0  0  0  0  0
   -2.7758   16.1408  -35.1638 H   0  0  0  0  0  0  0  0  0  0  0  0
   -1.8641   15.7975  -36.6730 H   0  0  0  0  0  0  0  0  0  0  0  0
   -3.6591   15.7301  -36.6730 H   0  0  0  0  0  0  0  0  0  0  0  0
   -1.2054   12.9395  -34.7468 H   0  0  0  0  0  0  0  0  0  0  0  0
   -1.0202   14.7450  -34.6175 H   0  0  0  0  0  0  0  0  0  0  0  0
   -1.6330   13.7788  -32.4407 H   0  0  0  0  0  0  0  0  0  0  0  0
   -2.9583   14.8307  -33.1036 H   0  0  0  0  0  0  0  0  0  0  0  0
   -3.4083   16.9945  -34.1751 H   0  0  0  0  0  0  0  0  0  0  0  0
   -3.7534   19.4501  -34.2150 H   0  0  0  0  0  0  0  0  0  0  0  0
  1  2  1  0
  2  3  1  0
  3  4  1  0
  4  5  1  0
  5  6  1  0
  6  7  1  0
  7  8  1  0
  8  9  1  0
  9 10  1  0
 10 11  2  0
 11 12  1  0
 12 13  2  0
 13 14  1  0
 14 15  2  0
 15 16  1  0
 16 17  2  0
 17 18  1  0
 17 19  1  0
 19 20  2  0
 20 21  1  0
 21 22  1  0
 22 23  1  0
 23 24  1  0
 24 25  1  0
 25 26  1  0
 25 27  1  0
 27 28  1  0
 28 29  1  0
 29 30  1  0
 29 31  1  0
 29 32  1  0
 32 33  1  0
 21 34  2  0
 34 35  1  0
 35 36  2  0
 36 10  1  0
 16 11  1  0
 36 19  1  0
 33 25  1  0
  1 37  1  0
  1 38  1  0
  1 39  1  0
  2 40  1  0
  2 41  1  0
  3 42  1  0
  4 43  1  0
  4 44  1  0
  5 45  1  0
  5 46  1  0
  7 47  1  0
  7 48  1  0
  8 49  1  0
  8 50  1  0
  9 51  1  0
  9 52  1  0
 12 53  1  0
 13 54  1  0
 14 55  1  0
 15 56  1  0
 18 57  1  0
 18 58  1  0
 18 59  1  0
 20 60  1  0
 23 61  1  0
 23 62  1  0
 24 63  1  0
 24 64  1  0
 26 65  1  0
 26 66  1  0
 26 67  1  0
 27 68  1  0
 27 69  1  0
 28 70  1  0
 28 71  1  0
 30 72  1  0
 30 73  1  0
 30 74  1  0
 31 75  1  0
 31 76  1  0
 31 77  1  0
 32 78  1  0
 32 79  1  0
 33 80  1  0
 33 81  1  0
 34 82  1  0
 35 83  1  0
M  CHG  4   9   1  17   1  25   1  29   1
M  END
>  <UniqueID>  (3) 
3

>  <SMILES>  (3) 
CCNCCOCC[NH2+]c1c2ccccc2[n+](C)c2cc(OCC[N+]3(C)CC[N+](C)(C)CC3)ccc12

>  <Energy>  (3) 
136.39472048632143

>  <Genealogy>  (3) 
CCNCCOCC[NH2+]c1c2ccccc2[n+](C)c2cc(OCC[N+]3(C)CC[N+](C)(C)CC3)ccc12 (protonated)
CCNCCOCC[NH2+]c1c2ccccc2[n+](C)c2cc(OCC[N+]3(C)CC[N+](C)(C)CC3)ccc12 (3D coordinates assigned)
CCNCCOCC[NH2+]c1c2ccccc2[n+](C)c2cc(OCC[N+]3(C)CC[N+](C)(C)CC3)ccc12 (nonaromatic ring conformer: 136.39472048632143 kcal/mol)

>  <smiles>  (3) 
CCNCCOCCNc1c2ccccc2[n+](C)c2cc(OCC[N+]3(C)CC[N+](C)(C)CC3)ccc12

>  <score_type>  (3) 
oracle

>  <origin>  (3) 
adg

>  <m_score__min__energy>  (3) 
-7.8300000000000001

>  <m_primary>  (3) 
energy

$$$$
3:0
     RDKit          3D

 71 74  0  0  0  0  0  0  0  0999 V2000
   -6.0650   24.5390  -31.4770 C   0  0  0  0  0  0  0  0  0  0  0  0
   -7.2410   23.8480  -30.7860 C   0  0  0  0  0  0  0  0  0  0  0  0
   -8.0130   22.9110  -31.7380 C   0  0  0  0  0  0  0  0  0  0  0  0
   -8.8370   21.8350  -31.0090 C   0  0  0  0  0  0  0  0  0  0  0  0
   -9.3080   20.7120  -31.9420 C   0  0  0  0  0  0  0  0  0  0  0  0
   -8.1430   19.8630  -32.3780 C   0  0  0  0  0  0  0  0  0  0  0  0
   -7.9450   18.5920  -31.8190 C   0  0  0  0  0  0  0  0  0  0  0  0
   -6.8810   17.7920  -32.2440 C   0  0  0  0  0  0  0  0  0  0  0  0
   -5.9990   18.2500  -33.2370 C   0  0  0  0  0  0  0  0  0  0  0  0
   -4.9120   17.4160  -33.6840 N   0  0  0  0  0  0  0  0  0  0  0  0
   -4.1030   16.6430  -32.7400 C   0  0  0  0  0  0  0  0  0  0  0  0
   -2.6320   17.0960  -32.8090 C   0  0  0  0  0  0  0  0  0  0  0  0
   -2.2120   17.6030  -34.1500 N   0  0  0  0  0  0  0  0  0  0  0  0
   -2.2080   19.0930  -34.2130 C   0  0  0  0  0  0  0  0  0  0  0  0
   -1.3910   19.7510  -33.0810 C   0  0  0  0  0  0  0  0  0  0  0  0
   -2.2430   20.4620  -32.1130 N   0  0  0  0  0  0  0  0  0  0  0  0
   -1.9400   20.3960  -30.7040 C   0  0  0  0  0  0  0  0  0  0  0  0
   -0.8900   19.8240  -30.3040 O   0  0  0  0  0  0  0  0  0  0  0  0
   -2.8990   20.9470  -29.6850 C   0  0  0  0  0  0  0  0  0  0  0  0
   -3.6810   22.1700  -30.2310 C   0  0  0  0  0  0  0  0  0  0  0  0
   -4.7400   22.6130  -29.2050 C   0  0  0  0  0  0  0  0  0  0  0  0
   -4.0550   23.6410  -28.3250 C   0  0  0  0  0  0  0  0  0  0  0  0
   -3.0750   24.3600  -29.2340 C   0  0  0  0  0  0  0  0  0  0  0  0
   -2.7530   23.4020  -30.3810 C   0  0  0  0  0  0  0  0  0  0  0  0
   -4.3660   21.7850  -31.5660 C   0  0  0  0  0  0  0  0  0  0  0  0
   -3.3950   21.2090  -32.5570 C   0  0  0  0  0  0  0  0  0  0  0  0
   -3.6310   21.3470  -33.7880 O   0  0  0  0  0  0  0  0  0  0  0  0
   -3.0360   17.0220  -35.2400 C   0  0  0  0  0  0  0  0  0  0  0  0
   -4.5210   17.4060  -35.0970 C   0  0  0  0  0  0  0  0  0  0  0  0
   -6.2160   19.5130  -33.8140 C   0  0  0  0  0  0  0  0  0  0  0  0
   -7.2800   20.3120  -33.3900 C   0  0  0  0  0  0  0  0  0  0  0  0
   -5.3789   24.9421  -30.7176 H   0  0  0  0  0  0  0  0  0  0  0  0
   -5.5300   23.8116  -32.1053 H   0  0  0  0  0  0  0  0  0  0  0  0
   -6.4400   25.3603  -32.1053 H   0  0  0  0  0  0  0  0  0  0  0  0
   -6.8569   23.2561  -29.9421 H   0  0  0  0  0  0  0  0  0  0  0  0
   -7.9370   24.6291  -30.4461 H   0  0  0  0  0  0  0  0  0  0  0  0
   -8.6975   23.5204  -32.3463 H   0  0  0  0  0  0  0  0  0  0  0  0
   -7.2652   22.3852  -32.3498 H   0  0  0  0  0  0  0  0  0  0  0  0
   -8.2158   21.3947  -30.2151 H   0  0  0  0  0  0  0  0  0  0  0  0
   -9.7339   22.3247  -30.6017 H   0  0  0  0  0  0  0  0  0  0  0  0
  -10.0361   20.0816  -31.4104 H   0  0  0  0  0  0  0  0  0  0  0  0
   -9.7727   21.1613  -32.8320 H   0  0  0  0  0  0  0  0  0  0  0  0
   -8.6308   18.2230  -31.0421 H   0  0  0  0  0  0  0  0  0  0  0  0
   -6.7331   16.7973  -31.7982 H   0  0  0  0  0  0  0  0  0  0  0  0
   -4.4846   16.7998  -31.7203 H   0  0  0  0  0  0  0  0  0  0  0  0
   -4.1641   15.5765  -33.0025 H   0  0  0  0  0  0  0  0  0  0  0  0
   -2.4834   17.9004  -32.0736 H   0  0  0  0  0  0  0  0  0  0  0  0
   -2.0168   16.2088  -32.5985 H   0  0  0  0  0  0  0  0  0  0  0  0
   -1.2360   17.2640  -34.3220 H   0  0  0  0  0  0  0  0  0  0  0  0
   -1.7779   19.4003  -35.1777 H   0  0  0  0  0  0  0  0  0  0  0  0
   -3.2500   19.4262  -34.0980 H   0  0  0  0  0  0  0  0  0  0  0  0
   -0.8300   18.9682  -32.5495 H   0  0  0  0  0  0  0  0  0  0  0  0
   -0.7170   20.4894  -33.5398 H   0  0  0  0  0  0  0  0  0  0  0  0
   -3.6164   20.1600  -29.4094 H   0  0  0  0  0  0  0  0  0  0  0  0
   -2.3173   21.2759  -28.8113 H   0  0  0  0  0  0  0  0  0  0  0  0
   -5.6050   23.0610  -29.7159 H   0  0  0  0  0  0  0  0  0  0  0  0
   -5.1166   21.7626  -28.6177 H   0  0  0  0  0  0  0  0  0  0  0  0
   -4.7908   24.3488  -27.9156 H   0  0  0  0  0  0  0  0  0  0  0  0
   -3.5500   23.1737  -27.4668 H   0  0  0  0  0  0  0  0  0  0  0  0
   -3.5288   25.2819  -29.6265 H   0  0  0  0  0  0  0  0  0  0  0  0
   -2.1632   24.6421  -28.6872 H   0  0  0  0  0  0  0  0  0  0  0  0
   -2.9373   23.8961  -31.3464 H   0  0  0  0  0  0  0  0  0  0  0  0
   -1.6963   23.0983  -30.3480 H   0  0  0  0  0  0  0  0  0  0  0  0
   -5.1473   21.0384  -31.3608 H   0  0  0  0  0  0  0  0  0  0  0  0
   -4.7915   22.7003  -32.0033 H   0  0  0  0  0  0  0  0  0  0  0  0
   -2.6630   17.3935  -36.2058 H   0  0  0  0  0  0  0  0  0  0  0  0
   -2.9577   15.9263  -35.1828 H   0  0  0  0  0  0  0  0  0  0  0  0
   -4.6793   18.4073  -35.5241 H   0  0  0  0  0  0  0  0  0  0  0  0
   -5.1343   16.6659  -35.6319 H   0  0  0  0  0  0  0  0  0  0  0  0
   -5.5429   19.8748  -34.6053 H   0  0  0  0  0  0  0  0  0  0  0  0
   -7.4425   21.2974  -33.8510 H   0  0  0  0  0  0  0  0  0  0  0  0
  1  2  1  0
  2  3  1  0
  3  4  1  0
  4  5  1  0
  5  6  1  0
  6  7  2  0
  7  8  1  0
  8  9  2  0
  9 10  1  0
 10 11  1  0
 11 12  1  0
 12 13  1  0
 13 14  1  0
 14 15  1  0
 15 16  1  0
 16 17  1  0
 17 18  2  0
 17 19  1  0
 19 20  1  0
 20 21  1  0
 21 22  1  0
 22 23  1  0
 23 24  1  0
 20 25  1  0
 25 26  1  0
 26 27  2  0
 13 28  1  0
 28 29  1  0
  9 30  1  0
 30 31  2  0
 31  6  1  0
 29 10  1  0
 26 16  1  0
 24 20  1  0
  1 32  1  0
  1 33  1  0
  1 34  1  0
  2 35  1  0
  2 36  1  0
  3 37  1  0
  3 38  1  0
  4 39  1  0
  4 40  1  0
  5 41  1  0
  5 42  1  0
  7 43  1  0
  8 44  1  0
 11 45  1  0
 11 46  1  0
 12 47  1  0
 12 48  1  0
 13 49  1  0
 14 50  1  0
 14 51  1  0
 15 52  1  0
 15 53  1  0
 19 54  1  0
 19 55  1  0
 21 56  1  0
 21 57  1  0
 22 58  1  0
 22 59  1  0
 23 60  1  0
 23 61  1  0
 24 62  1  0
 24 63  1  0
 25 64  1  0
 25 65  1  0
 28 66  1  0
 28 67  1  0
 29 68  1  0
 29 69  1  0
 30 70  1  0
 31 71  1  0
M  CHG  1  13   1
M  END
>  <UniqueID>  (4) 
4

>  <SMILES>  (4) 
CCCCCc1ccc(N2CC[NH+](CCN3C(=O)CC4(CCCC4)CC3=O)CC2)cc1

>  <Energy>  (4) 
78.55034031958434

>  <Genealogy>  (4) 
CCCCCc1ccc(N2CC[NH+](CCN3C(=O)CC4(CCCC4)CC3=O)CC2)cc1 (protonated)
CCCCCc1ccc(N2CC[NH+](CCN3C(=O)CC4(CCCC4)CC3=O)CC2)cc1 (3D coordinates assigned)
CCCCCc1ccc(N2CC[NH+](CCN3C(=O)CC4(CCCC4)CC3=O)CC2)cc1 (nonaromatic ring conformer: 78.55034031958434 kcal/mol)

>  <smiles>  (4) 
CCCCCc1ccc(N2CCN(CCN3C(=O)CC4(CCCC4)CC3=O)CC2)cc1

>  <score_type>  (4) 
oracle

>  <origin>  (4) 
adg

>  <m_score__min__energy>  (4) 
-8.5800000000000001

>  <m_primary>  (4) 
energy

$$$$
4:0
     RDKit          3D

 64 67  0  0  0  0  0  0  0  0999 V2000
   -2.2420   19.2420  -26.3330 C   0  0  0  0  0  0  0  0  0  0  0  0
   -2.7290   19.6850  -27.7090 C   0  0  0  0  0  0  0  0  0  0  0  0
   -1.6750   20.4190  -28.4330 N   0  0  0  0  0  0  0  0  0  0  0  0
   -0.6130   19.6340  -29.0890 C   0  0  0  0  0  0  0  0  0  0  0  0
   -0.8540   19.5290  -30.5980 C   0  0  0  0  0  0  0  0  0  0  0  0
   -1.1450   20.8070  -31.1210 O   0  0  0  0  0  0  0  0  0  0  0  0
   -1.3740   20.7180  -32.5110 C   0  0  0  0  0  0  0  0  0  0  0  0
   -2.8780   20.7380  -32.7730 C   0  0  0  0  0  0  0  0  0  0  0  0
   -3.6300   20.6760  -31.5180 N   0  0  0  0  0  0  0  0  0  0  0  0
   -5.0250   21.0050  -31.4830 C   0  0  0  0  0  0  0  0  0  0  0  0
   -5.9820   20.0470  -31.8500 C   0  0  0  0  0  0  0  0  0  0  0  0
   -5.5850   18.7630  -32.2810 C   0  0  0  0  0  0  0  0  0  0  0  0
   -6.5310   17.8310  -32.7010 C   0  0  0  0  0  0  0  0  0  0  0  0
   -7.8800   18.1650  -32.7120 C   0  0  0  0  0  0  0  0  0  0  0  0
   -8.2960   19.4230  -32.2760 C   0  0  0  0  0  0  0  0  0  0  0  0
   -7.3620   20.3800  -31.7990 C   0  0  0  0  0  0  0  0  0  0  0  0
   -7.7620   21.6100  -31.3100 N   0  0  0  0  0  0  0  0  0  0  0  0
   -9.1880   21.8510  -30.9950 C   0  0  0  0  0  0  0  0  0  0  0  0
   -6.8250   22.6030  -31.0840 C   0  0  0  0  0  0  0  0  0  0  0  0
   -7.2060   23.9450  -30.8230 C   0  0  0  0  0  0  0  0  0  0  0  0
   -6.2520   24.9220  -30.5390 C   0  0  0  0  0  0  0  0  0  0  0  0
   -4.9010   24.5960  -30.5170 C   0  0  0  0  0  0  0  0  0  0  0  0
   -4.4930   23.2960  -30.8070 C   0  0  0  0  0  0  0  0  0  0  0  0
   -5.4380   22.2980  -31.1230 C   0  0  0  0  0  0  0  0  0  0  0  0
   -1.6760   21.8730  -28.4920 C   0  0  0  0  0  0  0  0  0  0  0  0
   -0.5400   22.5820  -28.9370 C   0  0  0  0  0  0  0  0  0  0  0  0
   -0.5350   23.9800  -28.9670 C   0  0  0  0  0  0  0  0  0  0  0  0
   -1.6580   24.7050  -28.5610 C   0  0  0  0  0  0  0  0  0  0  0  0
   -1.6000   26.1060  -28.6020 O   0  0  0  0  0  0  0  0  0  0  0  0
   -0.8540   26.9070  -27.6890 C   0  0  0  0  0  0  0  0  0  0  0  0
   -2.8010   24.0110  -28.1280 C   0  0  0  0  0  0  0  0  0  0  0  0
   -2.8070   22.6150  -28.0920 C   0  0  0  0  0  0  0  0  0  0  0  0
   -2.8170   19.7650  -25.5546 H   0  0  0  0  0  0  0  0  0  0  0  0
   -2.3833   18.1564  -26.2260 H   0  0  0  0  0  0  0  0  0  0  0  0
   -1.1746   19.4851  -26.2260 H   0  0  0  0  0  0  0  0  0  0  0  0
   -3.0142   18.7971  -28.2924 H   0  0  0  0  0  0  0  0  0  0  0  0
   -3.5925   20.3534  -27.5760 H   0  0  0  0  0  0  0  0  0  0  0  0
    0.3560   20.1242  -28.9136 H   0  0  0  0  0  0  0  0  0  0  0  0
   -0.6167   18.6194  -28.6641 H   0  0  0  0  0  0  0  0  0  0  0  0
    0.0477   19.1304  -31.0859 H   0  0  0  0  0  0  0  0  0  0  0  0
   -1.7029   18.8553  -30.7863 H   0  0  0  0  0  0  0  0  0  0  0  0
   -0.9007   21.5721  -33.0175 H   0  0  0  0  0  0  0  0  0  0  0  0
   -0.9433   19.7827  -32.8979 H   0  0  0  0  0  0  0  0  0  0  0  0
   -3.1385   21.6660  -33.3030 H   0  0  0  0  0  0  0  0  0  0  0  0
   -3.1394   19.8601  -33.3820 H   0  0  0  0  0  0  0  0  0  0  0  0
   -3.1940   20.2970  -30.6480 H   0  0  0  0  0  0  0  0  0  0  0  0
   -4.5180   18.4957  -32.2852 H   0  0  0  0  0  0  0  0  0  0  0  0
   -6.2101   16.8297  -33.0243 H   0  0  0  0  0  0  0  0  0  0  0  0
   -8.6225   17.4346  -33.0659 H   0  0  0  0  0  0  0  0  0  0  0  0
   -9.3657   19.6779  -32.3022 H   0  0  0  0  0  0  0  0  0  0  0  0
   -9.3236   21.8739  -29.9036 H   0  0  0  0  0  0  0  0  0  0  0  0
   -9.5004   22.8147  -31.4236 H   0  0  0  0  0  0  0  0  0  0  0  0
   -9.7997   21.0435  -31.4236 H   0  0  0  0  0  0  0  0  0  0  0  0
   -8.2711   24.2191  -30.8451 H   0  0  0  0  0  0  0  0  0  0  0  0
   -6.5700   25.9544  -30.3316 H   0  0  0  0  0  0  0  0  0  0  0  0
   -4.1538   25.3647  -30.2705 H   0  0  0  0  0  0  0  0  0  0  0  0
   -3.4221   23.0452  -30.7893 H   0  0  0  0  0  0  0  0  0  0  0  0
    0.3524   22.0283  -29.2642 H   0  0  0  0  0  0  0  0  0  0  0  0
    0.3620   24.5141  -29.3137 H   0  0  0  0  0  0  0  0  0  0  0  0
   -1.1148   26.6269  -26.6577 H   0  0  0  0  0  0  0  0  0  0  0  0
    0.2215   26.7440  -27.8523 H   0  0  0  0  0  0  0  0  0  0  0  0
   -1.0930   27.9682  -27.8523 H   0  0  0  0  0  0  0  0  0  0  0  0
   -3.6953   24.5703  -27.8159 H   0  0  0  0  0  0  0  0  0  0  0  0
   -3.7074   22.0860  -27.7465 H   0  0  0  0  0  0  0  0  0  0  0  0
  1  2  1  0
  2  3  1  0
  3  4  1  0
  4  5  1  0
  5  6  1  0
  6  7  1  0
  7  8  1  0
  8  9  1  0
  9 10  1  0
 10 11  1  0
 11 12  2  0
 12 13  1  0
 13 14  2  0
 14 15  1  0
 15 16  2  0
 16 17  1  0
 17 18  1  0
 17 19  2  0
 19 20  1  0
 20 21  2  0
 21 22  1  0
 22 23  2  0
 23 24  1  0
  3 25  1  0
 25 26  2  0
 26 27  1  0
 27 28  2  0
 28 29  1  0
 29 30  1  0
 28 31  1  0
 31 32  2  0
 24 10  2  0
 32 25  1  0
 16 11  1  0
 24 19  1  0
  1 33  1  0
  1 34  1  0
  1 35  1  0
  2 36  1  0
  2 37  1  0
  4 38  1  0
  4 39  1  0
  5 40  1  0
  5 41  1  0
  7 42  1  0
  7 43  1  0
  8 44  1  0
  8 45  1  0
  9 46  1  0
 12 47  1  0
 13 48  1  0
 14 49  1  0
 15 50  1  0
 18 51  1  0
 18 52  1  0
 18 53  1  0
 20 54  1  0
 21 55  1  0
 22 56  1  0
 23 57  1  0
 26 58  1  0
 27 59  1  0
 30 60  1  0
 30 61  1  0
 30 62  1  0
 31 63  1  0
 32 64  1  0
M  CHG  1  17   1
M  END
>  <UniqueID>  (5) 
5

>  <SMILES>  (5) 
CCN(CCOCCNc1c2ccccc2[n+](C)c2ccccc12)c1ccc(OC)cc1

>  <Energy>  (5) 
86.64615698486134

>  <Genealogy>  (5) 
CCN(CCOCCNc1c2ccccc2[n+](C)c2ccccc12)c1ccc(OC)cc1 (3D coordinates assigned)
CCN(CCOCCNc1c2ccccc2[n+](C)c2ccccc12)c1ccc(OC)cc1 (optimized conformer: 86.64615698486134 kcal/mol)

>  <smiles>  (5) 
CCN(CCOCCNc1c2ccccc2[n+](C)c2ccccc12)c1ccc(OC)cc1

>  <score_type>  (5) 
oracle

>  <origin>  (5) 
adg

>  <m_score__min__energy>  (5) 
-9.7100000000000009

>  <m_primary>  (5) 
energy

$$$$
5:0
     RDKit          3D

 72 75  0  0  0  0  0  0  0  0999 V2000
    0.6450   20.1930  -36.2310 C   0  0  0  0  0  0  0  0  0  0  0  0
    0.7780   21.6310  -35.7270 C   0  0  0  0  0  0  0  0  0  0  0  0
   -0.1430   21.9170  -34.6170 N   0  0  0  0  0  0  0  0  0  0  0  0
   -0.2910   20.7880  -33.6860 C   0  0  0  0  0  0  0  0  0  0  0  0
   -1.2980   21.1330  -32.5820 C   0  0  0  0  0  0  0  0  0  0  0  0
   -2.6590   21.5740  -33.1450 C   0  0  0  0  0  0  0  0  0  0  0  0
   -3.7190   21.4330  -32.1430 N   0  0  0  0  0  0  0  0  0  0  0  0
   -4.9840   20.8260  -32.4600 C   0  0  0  0  0  0  0  0  0  0  0  0
   -5.0110   19.5780  -33.1100 C   0  0  0  0  0  0  0  0  0  0  0  0
   -3.8380   19.0210  -33.6660 C   0  0  0  0  0  0  0  0  0  0  0  0
   -3.8790   17.8070  -34.3470 C   0  0  0  0  0  0  0  0  0  0  0  0
   -5.0850   17.1380  -34.5060 C   0  0  0  0  0  0  0  0  0  0  0  0
   -6.2550   17.6700  -33.9700 C   0  0  0  0  0  0  0  0  0  0  0  0
   -6.2410   18.8860  -33.2420 C   0  0  0  0  0  0  0  0  0  0  0  0
   -7.3880   19.4100  -32.6870 N   0  0  0  0  0  0  0  0  0  0  0  0
   -8.5830   18.5550  -32.5200 C   0  0  0  0  0  0  0  0  0  0  0  0
   -7.4180   20.7300  -32.2830 C   0  0  0  0  0  0  0  0  0  0  0  0
   -8.6460   21.3790  -32.0160 C   0  0  0  0  0  0  0  0  0  0  0  0
   -8.6840   22.6950  -31.5820 C   0  0  0  0  0  0  0  0  0  0  0  0
   -7.5120   23.4130  -31.4190 C   0  0  0  0  0  0  0  0  0  0  0  0
   -6.2660   22.8290  -31.7060 C   0  0  0  0  0  0  0  0  0  0  0  0
   -5.0910   23.5890  -31.5730 O   0  0  0  0  0  0  0  0  0  0  0  0
   -4.9960   24.8160  -30.8540 C   0  0  0  0  0  0  0  0  0  0  0  0
   -5.0940   24.5230  -29.3440 C   0  0  0  0  0  0  0  0  0  0  0  0
   -3.9310   23.7910  -28.7440 N   0  0  0  0  0  0  0  0  0  0  0  0
   -3.6420   24.3510  -27.3940 C   0  0  0  0  0  0  0  0  0  0  0  0
   -2.7610   24.0310  -29.6460 C   0  0  0  0  0  0  0  0  0  0  0  0
   -1.5160   23.1880  -29.3090 C   0  0  0  0  0  0  0  0  0  0  0  0
   -1.8650   21.7030  -29.2490 C   0  0  0  0  0  0  0  0  0  0  0  0
   -3.0210   21.4690  -28.2820 C   0  0  0  0  0  0  0  0  0  0  0  0
   -4.2370   22.3310  -28.6620 C   0  0  0  0  0  0  0  0  0  0  0  0
   -6.2050   21.4720  -32.1440 C   0  0  0  0  0  0  0  0  0  0  0  0
    0.5816   19.5080  -35.3726 H   0  0  0  0  0  0  0  0  0  0  0  0
   -0.2655   20.1011  -36.8414 H   0  0  0  0  0  0  0  0  0  0  0  0
    1.5232   19.9357  -36.8414 H   0  0  0  0  0  0  0  0  0  0  0  0
    1.8100   21.7915  -35.3816 H   0  0  0  0  0  0  0  0  0  0  0  0
    0.5252   22.3054  -36.5584 H   0  0  0  0  0  0  0  0  0  0  0  0
   -1.0830   22.1780  -34.9960 H   0  0  0  0  0  0  0  0  0  0  0  0
   -0.6476   19.9066  -34.2391 H   0  0  0  0  0  0  0  0  0  0  0  0
    0.6849   20.5759  -33.2248 H   0  0  0  0  0  0  0  0  0  0  0  0
   -1.4482   20.2446  -31.9510 H   0  0  0  0  0  0  0  0  0  0  0  0
   -0.8864   21.9738  -32.0043 H   0  0  0  0  0  0  0  0  0  0  0  0
   -2.5950   22.6279  -33.4535 H   0  0  0  0  0  0  0  0  0  0  0  0
   -2.9046   20.9322  -34.0039 H   0  0  0  0  0  0  0  0  0  0  0  0
   -3.5960   21.9030  -31.2190 H   0  0  0  0  0  0  0  0  0  0  0  0
   -2.8808   19.5525  -33.5598 H   0  0  0  0  0  0  0  0  0  0  0  0
   -2.9542   17.3774  -34.7596 H   0  0  0  0  0  0  0  0  0  0  0  0
   -5.1164   16.1861  -35.0563 H   0  0  0  0  0  0  0  0  0  0  0  0
   -7.2065   17.1373  -34.1141 H   0  0  0  0  0  0  0  0  0  0  0  0
   -8.7840   18.4112  -31.4481 H   0  0  0  0  0  0  0  0  0  0  0  0
   -9.4495   19.0394  -32.9938 H   0  0  0  0  0  0  0  0  0  0  0  0
   -8.4043   17.5785  -32.9938 H   0  0  0  0  0  0  0  0  0  0  0  0
   -9.5885   20.8292  -32.1553 H   0  0  0  0  0  0  0  0  0  0  0  0
   -9.6516   23.1716  -31.3658 H   0  0  0  0  0  0  0  0  0  0  0  0
   -7.5561   24.4521  -31.0609 H   0  0  0  0  0  0  0  0  0  0  0  0
   -4.0323   25.2985  -31.0741 H   0  0  0  0  0  0  0  0  0  0  0  0
   -5.8136   25.4872  -31.1557 H   0  0  0  0  0  0  0  0  0  0  0  0
   -5.1943   25.4847  -28.8195 H   0  0  0  0  0  0  0  0  0  0  0  0
   -5.9603   23.8557  -29.2250 H   0  0  0  0  0  0  0  0  0  0  0  0
   -4.0018   23.6537  -26.6231 H   0  0  0  0  0  0  0  0  0  0  0  0
   -2.5573   24.4945  -27.2811 H   0  0  0  0  0  0  0  0  0  0  0  0
   -4.1535   25.3183  -27.2811 H   0  0  0  0  0  0  0  0  0  0  0  0
   -3.0668   23.7968  -30.6764 H   0  0  0  0  0  0  0  0  0  0  0  0
   -2.4729   25.0844  -29.5140 H   0  0  0  0  0  0  0  0  0  0  0  0
   -0.7521   23.3476  -30.0842 H   0  0  0  0  0  0  0  0  0  0  0  0
   -1.1353   23.5001  -28.3253 H   0  0  0  0  0  0  0  0  0  0  0  0
   -2.1557   21.3578  -30.2522 H   0  0  0  0  0  0  0  0  0  0  0  0
   -0.9859   21.1430  -28.8975 H   0  0  0  0  0  0  0  0  0  0  0  0
   -3.3079   20.4075  -28.3137 H   0  0  0  0  0  0  0  0  0  0  0  0
   -2.6945   21.7485  -27.2694 H   0  0  0  0  0  0  0  0  0  0  0  0
   -4.6073   21.9974  -29.6426 H   0  0  0  0  0  0  0  0  0  0  0  0
   -4.9860   22.2018  -27.8668 H   0  0  0  0  0  0  0  0  0  0  0  0
  1  2  1  0
  2  3  1  0
  3  4  1  0
  4  5  1  0
  5  6  1  0
  6  7  1  0
  7  8  1  0
  8  9  2  0
  9 10  1  0
 10 11  2  0
 11 12  1  0
 12 13  2  0
 13 14  1  0
 14 15  2  0
 15 16  1  0
 15 17  1  0
 17 18  2  0
 18 19  1  0
 19 20  2  0
 20 21  1  0
 21 22  1  0
 22 23  1  0
 23 24  1  0
 24 25  1  0
 25 26  1  0
 25 27  1  0
 27 28  1  0
 28 29  1  0
 29 30  1  0
 30 31  1  0
 21 32  2  0
 32  8  1  0
 14  9  1  0
 32 17  1  0
 31 25  1  0
  1 33  1  0
  1 34  1  0
  1 35  1  0
  2 36  1  0
  2 37  1  0
  3 38  1  0
  4 39  1  0
  4 40  1  0
  5 41  1  0
  5 42  1  0
  6 43  1  0
  6 44  1  0
  7 45  1  0
 10 46  1  0
 11 47  1  0
 12 48  1  0
 13 49  1  0
 16 50  1  0
 16 51  1  0
 16 52  1  0
 18 53  1  0
 19 54  1  0
 20 55  1  0
 23 56  1  0
 23 57  1  0
 24 58  1  0
 24 59  1  0
 26 60  1  0
 26 61  1  0
 26 62  1  0
 27 63  1  0
 27 64  1  0
 28 65  1  0
 28 66  1  0
 29 67  1  0
 29 68  1  0
 30 69  1  0
 30 70  1  0
 31 71  1  0
 31 72  1  0
M  CHG  2  15   1  25   1
M  END
>  <UniqueID>  (6) 
6

>  <SMILES>  (6) 
CCNCCCNc1c2ccccc2[n+](C)c2cccc(OCC[N+]3(C)CCCCC3)c12

>  <Energy>  (6) 
105.6368772720808

>  <Genealogy>  (6) 
CCNCCCNc1c2ccccc2[n+](C)c2cccc(OCC[N+]3(C)CCCCC3)c12 (3D coordinates assigned)
CCNCCCNc1c2ccccc2[n+](C)c2cccc(OCC[N+]3(C)CCCCC3)c12 (nonaromatic ring conformer: 105.6368772720808 kcal/mol)

>  <smiles>  (6) 
CCNCCCNc1c2ccccc2[n+](C)c2cccc(OCC[N+]3(C)CCCCC3)c12

>  <score_type>  (6) 
oracle

>  <origin>  (6) 
adg

>  <m_score__min__energy>  (6) 
-9.3200000000000003

>  <m_primary>  (6) 
energy

$$$$
6:0
     RDKit          3D

 46 47  0  0  0  0  0  0  0  0999 V2000
   -4.2636   16.6756  -34.8815 H   0  0  0  0  0  0  0  0  0  0  0  0
   -5.0490   17.1840  -34.3030 C   0  0  0  0  0  0  0  0  0  0  0  0
   -6.1640   16.4690  -33.8650 C   0  0  0  0  0  0  0  0  0  0  0  0
   -6.2601   15.3999  -34.1056 H   0  0  0  0  0  0  0  0  0  0  0  0
   -7.1590   17.1090  -33.1210 C   0  0  0  0  0  0  0  0  0  0  0  0
   -8.0345   16.5397  -32.7755 H   0  0  0  0  0  0  0  0  0  0  0  0
   -7.0480   18.4770  -32.8110 C   0  0  0  0  0  0  0  0  0  0  0  0
   -5.9280   19.2030  -33.2710 C   0  0  0  0  0  0  0  0  0  0  0  0
   -4.9280   18.5420  -34.0090 C   0  0  0  0  0  0  0  0  0  0  0  0
   -4.0458   19.0999  -34.3559 H   0  0  0  0  0  0  0  0  0  0  0  0
   -5.8380   20.6560  -33.0200 C   0  0  0  0  0  0  0  0  0  0  0  0
   -4.7800   21.2820  -33.2970 O   0  0  0  0  0  0  0  0  0  0  0  0
   -6.9990   21.3550  -32.4220 C   0  0  0  0  0  0  0  0  0  0  0  0
   -7.2940   22.6000  -32.6890 N   0  0  0  0  0  0  0  0  0  0  0  0
   -7.2100   23.7620  -31.8020 C   0  0  0  0  0  0  0  0  0  0  0  0
   -8.1967   23.9395  -31.3493 H   0  0  0  0  0  0  0  0  0  0  0  0
   -6.8932   24.6312  -32.3971 H   0  0  0  0  0  0  0  0  0  0  0  0
   -6.1790   23.5370  -30.6840 C   0  0  0  0  0  0  0  0  0  0  0  0
   -5.5276   22.6973  -30.9679 H   0  0  0  0  0  0  0  0  0  0  0  0
   -6.7309   23.3233  -29.7568 H   0  0  0  0  0  0  0  0  0  0  0  0
   -5.3040   24.7790  -30.4340 C   0  0  0  0  0  0  0  0  0  0  0  0
   -5.4929   25.1581  -29.4188 H   0  0  0  0  0  0  0  0  0  0  0  0
   -5.5561   25.5507  -31.1763 H   0  0  0  0  0  0  0  0  0  0  0  0
   -3.8720   24.4310  -30.5670 N   0  0  0  0  0  0  0  0  0  0  0  0
   -3.7300   23.0750  -31.1250 C   0  0  0  0  0  0  0  0  0  0  0  0
   -3.6537   22.3468  -30.3041 H   0  0  0  0  0  0  0  0  0  0  0  0
   -4.6084   22.8393  -31.7438 H   0  0  0  0  0  0  0  0  0  0  0  0
   -2.8219   23.0264  -31.7438 H   0  0  0  0  0  0  0  0  0  0  0  0
   -3.1760   24.5340  -29.2610 C   0  0  0  0  0  0  0  0  0  0  0  0
   -2.8185   25.5654  -29.1251 H   0  0  0  0  0  0  0  0  0  0  0  0
   -2.3324   23.8281  -29.2589 H   0  0  0  0  0  0  0  0  0  0  0  0
   -4.1150   24.1730  -28.1030 C   0  0  0  0  0  0  0  0  0  0  0  0
   -4.2608   23.0828  -28.0909 H   0  0  0  0  0  0  0  0  0  0  0  0
   -5.0672   24.7006  -28.2611 H   0  0  0  0  0  0  0  0  0  0  0  0
   -3.5530   24.6100  -26.7520 C   0  0  0  0  0  0  0  0  0  0  0  0
   -4.1424   24.1517  -25.9441 H   0  0  0  0  0  0  0  0  0  0  0  0
   -2.5046   24.2875  -26.6694 H   0  0  0  0  0  0  0  0  0  0  0  0
   -3.6072   25.7055  -26.6694 H   0  0  0  0  0  0  0  0  0  0  0  0
   -7.8790   20.5620  -31.4740 C   0  0  1  0  0  0  0  0  0  0  0  0
   -7.3522   20.5065  -30.5099 H   0  0  0  0  0  0  0  0  0  0  0  0
   -9.2270   21.2590  -31.2070 C   0  0  0  0  0  0  0  0  0  0  0  0
   -9.3881   21.3423  -30.1221 H   0  0  0  0  0  0  0  0  0  0  0  0
   -9.2151   22.2639  -31.6542 H   0  0  0  0  0  0  0  0  0  0  0  0
  -10.0401   20.6683  -31.6542 H   0  0  0  0  0  0  0  0  0  0  0  0
   -8.0900   19.1500  -31.9940 C   0  0  0  0  0  0  0  0  0  0  0  0
   -9.1250   18.5100  -31.6580 O   0  0  0  0  0  0  0  0  0  0  0  0
  1  2  1  0
  2  3  2  0
  3  4  1  0
  3  5  1  0
  5  6  1  0
  5  7  2  0
  7  8  1  0
  8  9  2  0
  9 10  1  0
  8 11  1  0
 11 12  2  0
 11 13  1  0
 13 14  2  0
 14 15  1  0
 15 16  1  0
 15 17  1  0
 15 18  1  0
 18 19  1  0
 18 20  1  0
 18 21  1  0
 21 22  1  0
 21 23  1  0
 21 24  1  0
 24 25  1  0
 25 26  1  0
 25 27  1  0
 25 28  1  0
 24 29  1  0
 29 30  1  0
 29 31  1  0
 29 32  1  0
 32 33  1  0
 32 34  1  0
 32 35  1  0
 35 36  1  0
 35 37  1  0
 35 38  1  0
 13 39  1  0
 39 40  1  1
 39 41  1  0
 41 42  1  0
 41 43  1  0
 41 44  1  0
 39 45  1  0
 45 46  2  0
  9  2  1  0
 45  7  1  0
M  END
>  <UniqueID>  (7) 
7

>  <SMILES>  (7) 
CCCN(C)CCC/N=C1\C(=O)c2ccccc2C(=O)[C@@H]1C

>  <Energy>  (7) 
45.6568344122446

>  <Genealogy>  (7) 
CCCN(C)CCCN=C1C(=O)c2ccccc2C(=O)[C@@H]1C (chirality)
CCCN(C)CCC/N=C1\C(=O)c2ccccc2C(=O)[C@@H]1C (cis-trans isomerization)
CCCN(C)CCC/N=C1\C(=O)c2ccccc2C(=O)[C@@H]1C (3D coordinates assigned)
CCCN(C)CCC/N=C1\C(=O)c2ccccc2C(=O)[C@@H]1C (nonaromatic ring conformer: 45.6568344122446 kcal/mol)

>  <smiles>  (7) 
CCCN(C)CCCN=C1C(=O)c2ccccc2C(=O)C1C

>  <score_type>  (7) 
oracle

>  <origin>  (7) 
adg

>  <m_score__min__energy>  (7) 
-8.4100000000000001

>  <m_primary>  (7) 
energy

$$$$
7:0
     RDKit          3D

 57 59  0  0  0  0  0  0  0  0999 V2000
   -2.7440   20.3970  -28.2110 C   0  0  0  0  0  0  0  0  0  0  0  0
   -2.6670   20.9540  -29.6400 C   0  0  0  0  0  0  0  0  0  0  0  0
   -1.2080   20.9280  -30.1210 C   0  0  0  0  0  0  0  0  0  0  0  0
   -3.1850   22.3330  -29.6830 N   0  0  0  0  0  0  0  0  0  0  0  0
   -4.1150   22.6430  -28.5790 C   0  0  0  0  0  0  0  0  0  0  0  0
   -4.4040   24.1500  -28.5200 C   0  0  0  0  0  0  0  0  0  0  0  0
   -3.8730   24.9160  -29.7400 C   0  0  0  0  0  0  0  0  0  0  0  0
   -4.5560   24.4850  -30.9690 N   0  0  0  0  0  0  0  0  0  0  0  0
   -6.0120   24.6570  -30.8560 C   0  0  0  0  0  0  0  0  0  0  0  0
   -6.7430   23.3680  -31.2430 C   0  0  0  0  0  0  0  0  0  0  0  0
   -6.2210   22.8380  -32.5020 N   0  0  0  0  0  0  0  0  0  0  0  0
   -5.9830   21.4340  -32.6940 C   0  0  0  0  0  0  0  0  0  0  0  0
   -7.0320   20.5050  -32.5380 C   0  0  0  0  0  0  0  0  0  0  0  0
   -8.3190   20.9290  -32.1440 C   0  0  0  0  0  0  0  0  0  0  0  0
   -9.3450   20.0060  -31.9520 C   0  0  0  0  0  0  0  0  0  0  0  0
   -9.1010   18.6480  -32.1180 C   0  0  0  0  0  0  0  0  0  0  0  0
   -7.8350   18.2050  -32.4960 C   0  0  0  0  0  0  0  0  0  0  0  0
   -6.7790   19.1210  -32.7470 C   0  0  0  0  0  0  0  0  0  0  0  0
   -5.5330   18.6980  -33.1750 N   0  0  0  0  0  0  0  0  0  0  0  0
   -5.3500   17.3150  -33.6720 C   0  0  0  0  0  0  0  0  0  0  0  0
   -4.4620   19.5770  -33.1680 C   0  0  0  0  0  0  0  0  0  0  0  0
   -3.1260   19.1310  -33.3560 C   0  0  0  0  0  0  0  0  0  0  0  0
   -2.0640   20.0320  -33.4050 C   0  0  0  0  0  0  0  0  0  0  0  0
   -2.2980   21.3950  -33.2570 C   0  0  0  0  0  0  0  0  0  0  0  0
   -3.5900   21.8620  -33.0260 C   0  0  0  0  0  0  0  0  0  0  0  0
   -4.6810   20.9660  -32.9570 C   0  0  0  0  0  0  0  0  0  0  0  0
   -2.6302   21.2200  -27.4901 H   0  0  0  0  0  0  0  0  0  0  0  0
   -3.7181   19.9090  -28.0597 H   0  0  0  0  0  0  0  0  0  0  0  0
   -1.9388   19.6630  -28.0597 H   0  0  0  0  0  0  0  0  0  0  0  0
   -3.2836   20.3282  -30.3020 H   0  0  0  0  0  0  0  0  0  0  0  0
   -0.5352   20.9160  -29.2508 H   0  0  0  0  0  0  0  0  0  0  0  0
   -1.0381   20.0267  -30.7283 H   0  0  0  0  0  0  0  0  0  0  0  0
   -1.0061   21.8227  -30.7283 H   0  0  0  0  0  0  0  0  0  0  0  0
   -3.7200   22.4500  -30.5720 H   0  0  0  0  0  0  0  0  0  0  0  0
   -5.0585   22.1003  -28.7384 H   0  0  0  0  0  0  0  0  0  0  0  0
   -3.6528   22.3340  -27.6298 H   0  0  0  0  0  0  0  0  0  0  0  0
   -5.4929   24.2952  -28.4629 H   0  0  0  0  0  0  0  0  0  0  0  0
   -3.8870   24.5475  -27.6341 H   0  0  0  0  0  0  0  0  0  0  0  0
   -4.0440   25.9925  -29.5916 H   0  0  0  0  0  0  0  0  0  0  0  0
   -2.7978   24.7083  -29.8444 H   0  0  0  0  0  0  0  0  0  0  0  0
   -4.3640   23.4630  -31.0940 H   0  0  0  0  0  0  0  0  0  0  0  0
   -6.2650   24.9173  -29.8176 H   0  0  0  0  0  0  0  0  0  0  0  0
   -6.3265   25.4597  -31.5392 H   0  0  0  0  0  0  0  0  0  0  0  0
   -6.6010   22.6197  -30.4493 H   0  0  0  0  0  0  0  0  0  0  0  0
   -7.8127   23.5912  -31.3688 H   0  0  0  0  0  0  0  0  0  0  0  0
   -6.1880   23.4750  -33.3360 H   0  0  0  0  0  0  0  0  0  0  0  0
   -8.5144   22.0000  -31.9867 H   0  0  0  0  0  0  0  0  0  0  0  0
  -10.3497   20.3528  -31.6686 H   0  0  0  0  0  0  0  0  0  0  0  0
   -9.9093   17.9209  -31.9506 H   0  0  0  0  0  0  0  0  0  0  0  0
   -7.6501   17.1258  -32.6019 H   0  0  0  0  0  0  0  0  0  0  0  0
   -5.2590   16.6275  -32.8181 H   0  0  0  0  0  0  0  0  0  0  0  0
   -6.2179   17.0273  -34.2835 H   0  0  0  0  0  0  0  0  0  0  0  0
   -4.4371   17.2629  -34.2835 H   0  0  0  0  0  0  0  0  0  0  0  0
   -2.9264   18.0548  -33.4649 H   0  0  0  0  0  0  0  0  0  0  0  0
   -1.0390   19.6646  -33.5610 H   0  0  0  0  0  0  0  0  0  0  0  0
   -1.4611   22.1058  -33.3225 H   0  0  0  0  0  0  0  0  0  0  0  0
   -3.7631   22.9405  -32.8958 H   0  0  0  0  0  0  0  0  0  0  0  0
  1  2  1  0
  2  3  1  0
  2  4  1  0
  4  5  1  0
  5  6  1  0
  6  7  1  0
  7  8  1  0
  8  9  1  0
  9 10  1  0
 10 11  1  0
 11 12  1  0
 12 13  2  0
 13 14  1  0
 14 15  2  0
 15 16  1  0
 16 17  2  0
 17 18  1  0
 18 19  2  0
 19 20  1  0
 19 21  1  0
 21 22  2  0
 22 23  1  0
 23 24  2  0
 24 25  1  0
 25 26  2  0
 26 12  1  0
 18 13  1  0
 26 21  1  0
  1 27  1  0
  1 28  1  0
  1 29  1  0
  2 30  1  0
  3 31  1  0
  3 32  1  0
  3 33  1  0
  4 34  1  0
  5 35  1  0
  5 36  1  0
  6 37  1  0
  6 38  1  0
  7 39  1  0
  7 40  1  0
  8 41  1  0
  9 42  1  0
  9 43  1  0
 10 44  1  0
 10 45  1  0
 11 46  1  0
 14 47  1  0
 15 48  1  0
 16 49  1  0
 17 50  1  0
 20 51  1  0
 20 52  1  0
 20 53  1  0
 22 54  1  0
 23 55  1  0
 24 56  1  0
 25 57  1  0
M  CHG  1  19   1
M  END
>  <UniqueID>  (8) 
8

>  <SMILES>  (8) 
CC(C)NCCCNCCNc1c2ccccc2[n+](C)c2ccccc12

>  <Energy>  (8) 
70.06187254793447

>  <Genealogy>  (8) 
CC(C)NCCCNCCNc1c2ccccc2[n+](C)c2ccccc12 (3D coordinates assigned)
CC(C)NCCCNCCNc1c2ccccc2[n+](C)c2ccccc12 (optimized conformer: 70.06187254793447 kcal/mol)

>  <smiles>  (8) 
CC(C)NCCCNCCNc1c2ccccc2[n+](C)c2ccccc12

>  <score_type>  (8) 
oracle

>  <origin>  (8) 
adg

>  <m_score__min__energy>  (8) 
-9.0199999999999996

>  <m_primary>  (8) 
energy

$$$$
8:0
     RDKit          3D

 52 55  0  0  0  0  0  0  0  0999 V2000
    1.0080   18.8700  -37.1670 C   0  0  0  0  0  0  0  0  0  0  0  0
    1.1830   17.8420  -36.0540 C   0  0  0  0  0  0  0  0  0  0  0  0
   -0.0250   17.1110  -35.8610 O   0  0  0  0  0  0  0  0  0  0  0  0
   -0.2710   16.3160  -34.7370 C   0  0  0  0  0  0  0  0  0  0  0  0
    0.6310   15.5730  -34.2630 O   0  0  0  0  0  0  0  0  0  0  0  0
   -1.6360   16.3210  -34.1200 C   0  0  0  0  0  0  0  0  0  0  0  0
   -2.5200   17.2550  -34.8220 N   0  0  0  0  0  0  0  0  0  0  0  0
   -3.8180   17.6420  -34.3310 C   0  0  0  0  0  0  0  0  0  0  0  0
   -4.9150   16.7950  -34.5790 C   0  0  0  0  0  0  0  0  0  0  0  0
   -6.2030   17.1490  -34.1800 C   0  0  0  0  0  0  0  0  0  0  0  0
   -7.2410   16.3140  -34.4300 F   0  0  0  0  0  0  0  0  0  0  0  0
   -6.4270   18.3650  -33.5490 C   0  0  0  0  0  0  0  0  0  0  0  0
   -5.3630   19.2340  -33.2950 C   0  0  0  0  0  0  0  0  0  0  0  0
   -5.6200   20.4230  -32.6940 N   0  0  0  0  0  0  0  0  0  0  0  0
   -4.6300   21.3070  -32.4130 C   0  0  0  0  0  0  0  0  0  0  0  0
   -4.9400   22.6030  -31.7630 C   0  0  0  0  0  0  0  0  0  0  0  0
   -6.2620   23.0740  -31.6910 C   0  0  0  0  0  0  0  0  0  0  0  0
   -6.5410   24.2950  -31.0740 C   0  0  0  0  0  0  0  0  0  0  0  0
   -5.4940   25.0410  -30.5310 C   0  0  0  0  0  0  0  0  0  0  0  0
   -4.2190   24.5780  -30.6060 N   0  0  0  0  0  0  0  0  0  0  0  0
   -3.9210   23.3930  -31.2010 C   0  0  0  0  0  0  0  0  0  0  0  0
   -3.3500   20.9840  -32.7180 N   0  0  0  0  0  0  0  0  0  0  0  0
   -3.0150   19.8080  -33.3140 C   0  0  0  0  0  0  0  0  0  0  0  0
   -1.6200   19.5360  -33.5100 N   0  0  0  0  0  0  0  0  0  0  0  0
   -0.7870   19.2210  -32.3470 C   0  0  0  0  0  0  0  0  0  0  0  0
    0.2130   20.3650  -32.0980 C   0  0  0  0  0  0  0  0  0  0  0  0
   -0.1820   21.5460  -32.7740 O   0  0  0  0  0  0  0  0  0  0  0  0
   -0.1050   21.3540  -34.1780 C   0  0  0  0  0  0  0  0  0  0  0  0
   -0.9340   20.1400  -34.6520 C   0  0  0  0  0  0  0  0  0  0  0  0
   -4.0370   18.8820  -33.6590 C   0  0  0  0  0  0  0  0  0  0  0  0
    0.8389   19.8632  -36.7255 H   0  0  0  0  0  0  0  0  0  0  0  0
    1.9148   18.8948  -37.7891 H   0  0  0  0  0  0  0  0  0  0  0  0
    0.1440   18.5934  -37.7891 H   0  0  0  0  0  0  0  0  0  0  0  0
    1.9890   17.1451  -36.3272 H   0  0  0  0  0  0  0  0  0  0  0  0
    1.4374   18.3653  -35.1205 H   0  0  0  0  0  0  0  0  0  0  0  0
   -2.0618   15.3084  -34.1780 H   0  0  0  0  0  0  0  0  0  0  0  0
   -1.5479   16.6394  -33.0708 H   0  0  0  0  0  0  0  0  0  0  0  0
   -2.2340   17.5570  -35.7790 H   0  0  0  0  0  0  0  0  0  0  0  0
   -4.7530   15.8378  -35.0963 H   0  0  0  0  0  0  0  0  0  0  0  0
   -7.4470   18.6457  -33.2476 H   0  0  0  0  0  0  0  0  0  0  0  0
   -7.0801   22.4785  -32.1224 H   0  0  0  0  0  0  0  0  0  0  0  0
   -7.5753   24.6651  -31.0165 H   0  0  0  0  0  0  0  0  0  0  0  0
   -5.7012   26.0043  -30.0421 H   0  0  0  0  0  0  0  0  0  0  0  0
   -2.8768   23.0497  -31.2433 H   0  0  0  0  0  0  0  0  0  0  0  0
   -1.4277   19.0966  -31.4616 H   0  0  0  0  0  0  0  0  0  0  0  0
   -0.2339   18.2894  -32.5374 H   0  0  0  0  0  0  0  0  0  0  0  0
    0.2633   20.5692  -31.0183 H   0  0  0  0  0  0  0  0  0  0  0  0
    1.1974   20.0570  -32.4803 H   0  0  0  0  0  0  0  0  0  0  0  0
   -0.4827   22.2573  -34.6794 H   0  0  0  0  0  0  0  0  0  0  0  0
    0.9476   21.1619  -34.4333 H   0  0  0  0  0  0  0  0  0  0  0  0
   -1.6775   20.4713  -35.3919 H   0  0  0  0  0  0  0  0  0  0  0  0
   -0.2639   19.3971  -35.1092 H   0  0  0  0  0  0  0  0  0  0  0  0
  1  2  1  0
  2  3  1  0
  3  4  1  0
  4  5  2  0
  4  6  1  0
  6  7  1  0
  7  8  1  0
  8  9  2  0
  9 10  1  0
 10 11  1  0
 10 12  2  0
 12 13  1  0
 13 14  2  0
 14 15  1  0
 15 16  1  0
 16 17  2  0
 17 18  1  0
 18 19  2  0
 19 20  1  0
 20 21  2  0
 15 22  2  0
 22 23  1  0
 23 24  1  0
 24 25  1  0
 25 26  1  0
 26 27  1  0
 27 28  1  0
 28 29  1  0
 23 30  2  0
 30  8  1  0
 30 13  1  0
 21 16  1  0
 29 24  1  0
  1 31  1  0
  1 32  1  0
  1 33  1  0
  2 34  1  0
  2 35  1  0
  6 36  1  0
  6 37  1  0
  7 38  1  0
  9 39  1  0
 12 40  1  0
 17 41  1  0
 18 42  1  0
 19 43  1  0
 21 44  1  0
 25 45  1  0
 25 46  1  0
 26 47  1  0
 26 48  1  0
 28 49  1  0
 28 50  1  0
 29 51  1  0
 29 52  1  0
M  END
>  <UniqueID>  (9) 
9

>  <SMILES>  (9) 
CCOC(=O)CNc1cc(F)cc2nc(-c3cccnc3)nc(N3CCOCC3)c12

>  <Energy>  (9) 
74.76622523970092

>  <Genealogy>  (9) 
CCOC(=O)CNc1cc(F)cc2nc(-c3cccnc3)nc(N3CCOCC3)c12 (3D coordinates assigned)
CCOC(=O)CNc1cc(F)cc2nc(-c3cccnc3)nc(N3CCOCC3)c12 (nonaromatic ring conformer: 74.76622523970092 kcal/mol)

>  <smiles>  (9) 
CCOC(=O)CNc1cc(F)cc2nc(-c3cccnc3)nc(N3CCOCC3)c12

>  <score_type>  (9) 
oracle

>  <origin>  (9) 
adg

>  <m_score__min__energy>  (9) 
-8.2899999999999991

>  <m_primary>  (9) 
energy

$$$$
9:0
     RDKit          3D

 44 46  0  0  0  0  0  0  0  0999 V2000
   -5.1800   17.4800  -35.0010 C   0  0  0  0  0  0  0  0  0  0  0  0
   -4.9800   17.7570  -33.5140 C   0  0  0  0  0  0  0  0  0  0  0  0
   -5.7220   18.9700  -33.1090 N   0  0  0  0  0  0  0  0  0  0  0  0
   -5.1090   20.2040  -33.1100 C   0  0  0  0  0  0  0  0  0  0  0  0
   -3.3460   20.3910  -33.4640 S   0  0  0  0  0  0  0  0  0  0  0  0
   -2.9120   21.1820  -31.8680 C   0  0  0  0  0  0  0  0  0  0  0  0
   -3.3720   22.6440  -31.7680 C   0  0  0  0  0  0  0  0  0  0  0  0
   -4.5180   22.8030  -30.8390 N   0  0  0  0  0  0  0  0  0  0  0  0
   -4.0990   22.8920  -29.4210 C   0  0  0  0  0  0  0  0  0  0  0  0
   -3.7860   24.3370  -28.9810 C   0  0  0  0  0  0  0  0  0  0  0  0
   -3.5660   25.1730  -30.0960 O   0  0  0  0  0  0  0  0  0  0  0  0
   -4.7630   25.3020  -30.8400 C   0  0  0  0  0  0  0  0  0  0  0  0
   -5.3990   23.9360  -31.1910 C   0  0  0  0  0  0  0  0  0  0  0  0
   -5.8260   21.3290  -32.8370 N   0  0  0  0  0  0  0  0  0  0  0  0
   -7.1420   21.2690  -32.5080 C   0  0  0  0  0  0  0  0  0  0  0  0
   -7.8520   22.4390  -32.1960 C   0  0  0  0  0  0  0  0  0  0  0  0
   -9.2050   22.3700  -31.8540 C   0  0  0  0  0  0  0  0  0  0  0  0
   -9.8590   21.1360  -31.8230 C   0  0  0  0  0  0  0  0  0  0  0  0
   -9.1610   19.9660  -32.1330 C   0  0  0  0  0  0  0  0  0  0  0  0
   -7.7960   20.0230  -32.4770 C   0  0  0  0  0  0  0  0  0  0  0  0
   -7.0580   18.8740  -32.8030 C   0  0  0  0  0  0  0  0  0  0  0  0
   -7.6350   17.7490  -32.8170 O   0  0  0  0  0  0  0  0  0  0  0  0
   -5.8197   16.5940  -35.1261 H   0  0  0  0  0  0  0  0  0  0  0  0
   -5.6604   18.3489  -35.4745 H   0  0  0  0  0  0  0  0  0  0  0  0
   -4.2040   17.2974  -35.4745 H   0  0  0  0  0  0  0  0  0  0  0  0
   -5.3464   16.8977  -32.9332 H   0  0  0  0  0  0  0  0  0  0  0  0
   -3.9084   17.9149  -33.3225 H   0  0  0  0  0  0  0  0  0  0  0  0
   -3.3852   20.6110  -31.0556 H   0  0  0  0  0  0  0  0  0  0  0  0
   -1.8146   21.1805  -31.7921 H   0  0  0  0  0  0  0  0  0  0  0  0
   -2.5332   23.2564  -31.4055 H   0  0  0  0  0  0  0  0  0  0  0  0
   -3.6973   22.9674  -32.7678 H   0  0  0  0  0  0  0  0  0  0  0  0
   -4.9098   22.4999  -28.7894 H   0  0  0  0  0  0  0  0  0  0  0  0
   -3.1758   22.3042  -29.3104 H   0  0  0  0  0  0  0  0  0  0  0  0
   -4.6355   24.7277  -28.4015 H   0  0  0  0  0  0  0  0  0  0  0  0
   -2.8721   24.3247  -28.3689 H   0  0  0  0  0  0  0  0  0  0  0  0
   -5.4843   25.8840  -30.2476 H   0  0  0  0  0  0  0  0  0  0  0  0
   -4.5132   25.8047  -31.7860 H   0  0  0  0  0  0  0  0  0  0  0  0
   -6.3452   23.8336  -30.6394 H   0  0  0  0  0  0  0  0  0  0  0  0
   -5.5644   23.9100  -32.2782 H   0  0  0  0  0  0  0  0  0  0  0  0
   -5.3420   22.2560  -32.8640 H   0  0  0  0  0  0  0  0  0  0  0  0
   -7.3417   23.4131  -32.2208 H   0  0  0  0  0  0  0  0  0  0  0  0
   -9.7565   23.2896  -31.6086 H   0  0  0  0  0  0  0  0  0  0  0  0
  -10.9245   21.0854  -31.5543 H   0  0  0  0  0  0  0  0  0  0  0  0
   -9.6795   18.9962  -32.1084 H   0  0  0  0  0  0  0  0  0  0  0  0
  1  2  1  0
  2  3  1  0
  3  4  1  0
  4  5  1  0
  5  6  1  0
  6  7  1  0
  7  8  1  0
  8  9  1  0
  9 10  1  0
 10 11  1  0
 11 12  1  0
 12 13  1  0
  4 14  2  0
 14 15  1  0
 15 16  2  0
 16 17  1  0
 17 18  2  0
 18 19  1  0
 19 20  2  0
 20 21  1  0
 21 22  2  0
 21  3  1  0
 13  8  1  0
 20 15  1  0
  1 23  1  0
  1 24  1  0
  1 25  1  0
  2 26  1  0
  2 27  1  0
  6 28  1  0
  6 29  1  0
  7 30  1  0
  7 31  1  0
  9 32  1  0
  9 33  1  0
 10 34  1  0
 10 35  1  0
 12 36  1  0
 12 37  1  0
 13 38  1  0
 13 39  1  0
 14 40  1  0
 16 41  1  0
 17 42  1  0
 18 43  1  0
 19 44  1  0
M  CHG  1  14   1
M  END
>  <UniqueID>  (10) 
10

>  <SMILES>  (10) 
CCn1c(SCCN2CCOCC2)[nH+]c2ccccc2c1=O

>  <Energy>  (10) 
57.80782783500711

>  <Genealogy>  (10) 
CCn1c(SCCN2CCOCC2)[nH+]c2ccccc2c1=O (protonated)
CCn1c(SCCN2CCOCC2)[nH+]c2ccccc2c1=O (3D coordinates assigned)
CCn1c(SCCN2CCOCC2)[nH+]c2ccccc2c1=O (nonaromatic ring conformer: 57.80782783500711 kcal/mol)

>  <smiles>  (10) 
CCn1c(SCCN2CCOCC2)nc2ccccc2c1=O

>  <score_type>  (10) 
oracle

>  <origin>  (10) 
adg

>  <m_score__min__energy>  (10) 
-8.2100000000000009

>  <m_primary>  (10) 
energy

$$$$
10:0
     RDKit          3D

 56 57  0  0  0  0  0  0  0  0999 V2000
   -6.0122   24.2423  -32.5947 H   0  0  0  0  0  0  0  0  0  0  0  0
   -6.5500   23.8080  -31.7390 C   0  0  0  0  0  0  0  0  0  0  0  0
   -6.4680   24.4130  -30.5500 C   0  0  0  0  0  0  0  0  0  0  0  0
   -7.1394   24.0979  -29.7376 H   0  0  0  0  0  0  0  0  0  0  0  0
   -5.4790   25.5130  -30.3010 C   0  0  0  0  0  0  0  0  0  0  0  0
   -5.3690   25.6613  -29.2166 H   0  0  0  0  0  0  0  0  0  0  0  0
   -5.8469   26.4343  -30.7763 H   0  0  0  0  0  0  0  0  0  0  0  0
   -4.2180   25.1860  -30.8560 O   0  0  0  0  0  0  0  0  0  0  0  0
   -3.6720   24.0290  -30.2470 C   0  0  0  0  0  0  0  0  0  0  0  0
   -2.8083   23.6830  -30.8337 H   0  0  0  0  0  0  0  0  0  0  0  0
   -4.4421   23.2442  -30.2131 H   0  0  0  0  0  0  0  0  0  0  0  0
   -3.2190   24.3460  -28.8190 C   0  0  0  0  0  0  0  0  0  0  0  0
   -3.1065   23.4076  -28.2561 H   0  0  0  0  0  0  0  0  0  0  0  0
   -3.9730   24.9842  -28.3351 H   0  0  0  0  0  0  0  0  0  0  0  0
   -1.9220   25.0610  -28.8440 N   0  0  0  0  0  0  0  0  0  0  0  0
   -0.8300   24.1760  -29.3120 C   0  0  0  0  0  0  0  0  0  0  0  0
    0.1051   24.7525  -29.3699 H   0  0  0  0  0  0  0  0  0  0  0  0
   -1.0899   23.7803  -30.3049 H   0  0  0  0  0  0  0  0  0  0  0  0
   -0.6440   23.0100  -28.3450 C   0  0  0  0  0  0  0  0  0  0  0  0
   -0.7028   23.3788  -27.3103 H   0  0  0  0  0  0  0  0  0  0  0  0
   -1.4345   22.2639  -28.5139 H   0  0  0  0  0  0  0  0  0  0  0  0
    0.3394   22.5469  -28.5139 H   0  0  0  0  0  0  0  0  0  0  0  0
   -1.6070   25.6450  -27.5200 C   0  0  0  0  0  0  0  0  0  0  0  0
   -0.6249   25.2790  -27.1860 H   0  0  0  0  0  0  0  0  0  0  0  0
   -1.5900   26.7415  -27.6066 H   0  0  0  0  0  0  0  0  0  0  0  0
   -2.6680   25.2430  -26.5000 C   0  0  0  0  0  0  0  0  0  0  0  0
   -2.2746   25.3920  -25.4836 H   0  0  0  0  0  0  0  0  0  0  0  0
   -3.5654   25.8634  -26.6405 H   0  0  0  0  0  0  0  0  0  0  0  0
   -2.9290   24.1837  -26.6405 H   0  0  0  0  0  0  0  0  0  0  0  0
   -7.3410   22.5720  -31.9430 C   0  0  0  0  0  0  0  0  0  0  0  0
   -8.7210   22.5860  -31.6590 C   0  0  0  0  0  0  0  0  0  0  0  0
   -9.1943   23.5148  -31.3078 H   0  0  0  0  0  0  0  0  0  0  0  0
   -9.4940   21.4360  -31.8180 C   0  0  0  0  0  0  0  0  0  0  0  0
  -10.5706   21.4632  -31.5938 H   0  0  0  0  0  0  0  0  0  0  0  0
   -8.9060   20.2530  -32.2600 C   0  0  0  0  0  0  0  0  0  0  0  0
   -9.5179   19.3472  -32.3828 H   0  0  0  0  0  0  0  0  0  0  0  0
   -7.5410   20.2170  -32.5470 C   0  0  0  0  0  0  0  0  0  0  0  0
   -7.0856   19.2808  -32.9022 H   0  0  0  0  0  0  0  0  0  0  0  0
   -6.7390   21.3630  -32.3880 C   0  0  0  0  0  0  0  0  0  0  0  0
   -5.2850   21.2740  -32.8090 C   0  0  0  0  0  0  0  0  0  0  0  0
   -5.1651   20.4237  -33.4965 H   0  0  0  0  0  0  0  0  0  0  0  0
   -5.0129   22.2207  -33.2986 H   0  0  0  0  0  0  0  0  0  0  0  0
   -4.3530   21.0750  -31.6060 C   0  0  0  0  0  0  0  0  0  0  0  0
   -4.5256   21.8877  -30.8851 H   0  0  0  0  0  0  0  0  0  0  0  0
   -4.5772   20.0940  -31.1618 H   0  0  0  0  0  0  0  0  0  0  0  0
   -2.9010   21.0820  -32.0080 C   0  0  0  0  0  0  0  0  0  0  0  0
   -1.8950   21.1190  -31.0270 C   0  0  0  0  0  0  0  0  0  0  0  0
   -2.1682   21.1181  -29.9615 H   0  0  0  0  0  0  0  0  0  0  0  0
   -0.5480   21.1570  -31.4010 C   0  0  0  0  0  0  0  0  0  0  0  0
    0.2358   21.1743  -30.6294 H   0  0  0  0  0  0  0  0  0  0  0  0
   -0.1960   21.1730  -32.7530 C   0  0  0  0  0  0  0  0  0  0  0  0
    0.8641   21.2061  -33.0447 H   0  0  0  0  0  0  0  0  0  0  0  0
   -1.1900   21.1470  -33.7350 C   0  0  0  0  0  0  0  0  0  0  0  0
   -0.9116   21.1619  -34.7991 H   0  0  0  0  0  0  0  0  0  0  0  0
   -2.5390   21.1020  -33.3660 C   0  0  0  0  0  0  0  0  0  0  0  0
   -3.3189   21.0822  -34.1414 H   0  0  0  0  0  0  0  0  0  0  0  0
  1  2  1  0
  2  3  2  0
  3  4  1  0
  3  5  1  0
  5  6  1  0
  5  7  1  0
  5  8  1  0
  8  9  1  0
  9 10  1  0
  9 11  1  0
  9 12  1  0
 12 13  1  0
 12 14  1  0
 12 15  1  0
 15 16  1  0
 16 17  1  0
 16 18  1  0
 16 19  1  0
 19 20  1  0
 19 21  1  0
 19 22  1  0
 15 23  1  0
 23 24  1  0
 23 25  1  0
 23 26  1  0
 26 27  1  0
 26 28  1  0
 26 29  1  0
  2 30  1  0
 30 31  2  0
 31 32  1  0
 31 33  1  0
 33 34  1  0
 33 35  2  0
 35 36  1  0
 35 37  1  0
 37 38  1  0
 37 39  2  0
 39 40  1  0
 40 41  1  0
 40 42  1  0
 40 43  1  0
 43 44  1  0
 43 45  1  0
 43 46  1  0
 46 47  2  0
 47 48  1  0
 47 49  1  0
 49 50  1  0
 49 51  2  0
 51 52  1  0
 51 53  1  0
 53 54  1  0
 53 55  2  0
 55 56  1  0
 39 30  1  0
 55 46  1  0
M  END
>  <UniqueID>  (11) 
11

>  <SMILES>  (11) 
CCN(CC)CCOC/C=C/c1ccccc1CCc1ccccc1

>  <Energy>  (11) 
52.79746392297055

>  <Genealogy>  (11) 
CCN(CC)CCOC/C=C/c1ccccc1CCc1ccccc1 (cis-trans isomerization)
CCN(CC)CCOC/C=C/c1ccccc1CCc1ccccc1 (3D coordinates assigned)
CCN(CC)CCOC/C=C/c1ccccc1CCc1ccccc1 (optimized conformer: 52.79746392297055 kcal/mol)

>  <smiles>  (11) 
CCN(CC)CCOCC=Cc1ccccc1CCc1ccccc1

>  <score_type>  (11) 
oracle

>  <origin>  (11) 
adg

>  <m_score__min__energy>  (11) 
-8.3800000000000008

>  <m_primary>  (11) 
energy

$$$$
11:0
     RDKit          3D

 63 66  0  0  0  0  0  0  0  0999 V2000
   -6.1630   25.3970  -29.7750 C   0  0  0  0  0  0  0  0  0  0  0  0
   -4.8870   24.9130  -30.4580 C   0  0  0  0  0  0  0  0  0  0  0  0
   -4.1390   24.0150  -29.5490 N   0  0  0  0  0  0  0  0  0  0  0  0
   -2.6750   24.1880  -29.6950 C   0  0  0  0  0  0  0  0  0  0  0  0
   -2.0110   24.5570  -28.3690 C   0  0  0  0  0  0  0  0  0  0  0  0
   -4.5980   22.6070  -29.6410 C   0  0  0  0  0  0  0  0  0  0  0  0
   -3.4750   21.5650  -29.4640 C   0  0  0  0  0  0  0  0  0  0  0  0
   -3.0690   21.0740  -30.7270 O   0  0  0  0  0  0  0  0  0  0  0  0
   -1.6900   20.7600  -30.7300 C   0  0  0  0  0  0  0  0  0  0  0  0
   -1.0740   21.1860  -32.0650 C   0  0  0  0  0  0  0  0  0  0  0  0
   -1.4560   20.2490  -33.2190 C   0  0  0  0  0  0  0  0  0  0  0  0
   -2.7560   20.6090  -33.7870 N   0  0  0  0  0  0  0  0  0  0  0  0
   -3.9220   19.8120  -33.5350 C   0  0  0  0  0  0  0  0  0  0  0  0
   -5.0910   20.4030  -33.0660 C   0  0  0  0  0  0  0  0  0  0  0  0
   -6.2410   19.6620  -32.8570 C   0  0  0  0  0  0  0  0  0  0  0  0
   -6.2490   18.2970  -32.9820 N   0  0  0  0  0  0  0  0  0  0  0  0
   -7.3780   17.5150  -32.4520 C   0  0  0  0  0  0  0  0  0  0  0  0
   -5.1440   17.6780  -33.5480 C   0  0  0  0  0  0  0  0  0  0  0  0
   -5.1660   16.3100  -33.9140 C   0  0  0  0  0  0  0  0  0  0  0  0
   -4.0360   15.6940  -34.4540 C   0  0  0  0  0  0  0  0  0  0  0  0
   -2.8660   16.4180  -34.6510 C   0  0  0  0  0  0  0  0  0  0  0  0
   -2.8180   17.7740  -34.3330 C   0  0  0  0  0  0  0  0  0  0  0  0
   -3.9470   18.4260  -33.8000 C   0  0  0  0  0  0  0  0  0  0  0  0
   -7.3130   20.5940  -32.4270 C   0  0  0  0  0  0  0  0  0  0  0  0
   -8.7010   20.4250  -32.3010 C   0  0  0  0  0  0  0  0  0  0  0  0
   -9.4860   21.5370  -31.9550 C   0  0  0  0  0  0  0  0  0  0  0  0
   -8.8970   22.8040  -31.7820 C   0  0  0  0  0  0  0  0  0  0  0  0
   -7.5200   22.9770  -31.9790 C   0  0  0  0  0  0  0  0  0  0  0  0
   -6.7560   21.8590  -32.3090 C   0  0  0  0  0  0  0  0  0  0  0  0
   -5.3570   21.7900  -32.6920 C   0  0  0  0  0  0  0  0  0  0  0  0
   -4.5360   22.7460  -32.6870 O   0  0  0  0  0  0  0  0  0  0  0  0
   -6.0356   25.3487  -28.6835 H   0  0  0  0  0  0  0  0  0  0  0  0
   -6.3680   26.4354  -30.0746 H   0  0  0  0  0  0  0  0  0  0  0  0
   -7.0051   24.7558  -30.0746 H   0  0  0  0  0  0  0  0  0  0  0  0
   -5.1493   24.3668  -31.3761 H   0  0  0  0  0  0  0  0  0  0  0  0
   -4.2586   25.7804  -30.7084 H   0  0  0  0  0  0  0  0  0  0  0  0
   -2.2401   23.2462  -30.0608 H   0  0  0  0  0  0  0  0  0  0  0  0
   -2.4973   25.0085  -30.4058 H   0  0  0  0  0  0  0  0  0  0  0  0
   -2.6383   24.2084  -27.5353 H   0  0  0  0  0  0  0  0  0  0  0  0
   -1.0221   24.0790  -28.3086 H   0  0  0  0  0  0  0  0  0  0  0  0
   -1.8947   25.6492  -28.3086 H   0  0  0  0  0  0  0  0  0  0  0  0
   -5.3524   22.4379  -28.8585 H   0  0  0  0  0  0  0  0  0  0  0  0
   -4.9999   22.4704  -30.6558 H   0  0  0  0  0  0  0  0  0  0  0  0
   -2.6165   22.0359  -28.9628 H   0  0  0  0  0  0  0  0  0  0  0  0
   -3.8496   20.7295  -28.8545 H   0  0  0  0  0  0  0  0  0  0  0  0
   -1.1903   21.2940  -29.9083 H   0  0  0  0  0  0  0  0  0  0  0  0
   -1.5599   19.6761  -30.5947 H   0  0  0  0  0  0  0  0  0  0  0  0
   -1.4228   22.2011  -32.3056 H   0  0  0  0  0  0  0  0  0  0  0  0
    0.0197   21.1476  -31.9537 H   0  0  0  0  0  0  0  0  0  0  0  0
   -0.6898   20.3178  -34.0053 H   0  0  0  0  0  0  0  0  0  0  0  0
   -1.5199   19.2231  -32.8272 H   0  0  0  0  0  0  0  0  0  0  0  0
   -2.8770   21.5460  -34.2300 H   0  0  0  0  0  0  0  0  0  0  0  0
   -7.3523   17.5328  -31.3524 H   0  0  0  0  0  0  0  0  0  0  0  0
   -8.3241   17.9522  -32.8038 H   0  0  0  0  0  0  0  0  0  0  0  0
   -7.3013   16.4756  -32.8038 H   0  0  0  0  0  0  0  0  0  0  0  0
   -6.0864   15.7249  -33.7707 H   0  0  0  0  0  0  0  0  0  0  0  0
   -4.0716   14.6286  -34.7254 H   0  0  0  0  0  0  0  0  0  0  0  0
   -1.9748   15.9189  -35.0593 H   0  0  0  0  0  0  0  0  0  0  0  0
   -1.8899   18.3403  -34.4998 H   0  0  0  0  0  0  0  0  0  0  0  0
   -9.1643   19.4417  -32.4698 H   0  0  0  0  0  0  0  0  0  0  0  0
  -10.5708   21.4169  -31.8179 H   0  0  0  0  0  0  0  0  0  0  0  0
   -9.5204   23.6623  -31.4908 H   0  0  0  0  0  0  0  0  0  0  0  0
   -7.0549   23.9685  -31.8759 H   0  0  0  0  0  0  0  0  0  0  0  0
  1  2  1  0
  2  3  1  0
  3  4  1  0
  4  5  1  0
  3  6  1  0
  6  7  1  0
  7  8  1  0
  8  9  1  0
  9 10  1  0
 10 11  1  0
 11 12  1  0
 12 13  1  0
 13 14  2  0
 14 15  1  0
 15 16  2  0
 16 17  1  0
 16 18  1  0
 18 19  2  0
 19 20  1  0
 20 21  2  0
 21 22  1  0
 22 23  2  0
 15 24  1  0
 24 25  2  0
 25 26  1  0
 26 27  2  0
 27 28  1  0
 28 29  2  0
 29 30  1  0
 30 31  2  0
 23 13  1  0
 29 24  1  0
 30 14  1  0
 23 18  1  0
  1 32  1  0
  1 33  1  0
  1 34  1  0
  2 35  1  0
  2 36  1  0
  4 37  1  0
  4 38  1  0
  5 39  1  0
  5 40  1  0
  5 41  1  0
  6 42  1  0
  6 43  1  0
  7 44  1  0
  7 45  1  0
  9 46  1  0
  9 47  1  0
 10 48  1  0
 10 49  1  0
 11 50  1  0
 11 51  1  0
 12 52  1  0
 17 53  1  0
 17 54  1  0
 17 55  1  0
 19 56  1  0
 20 57  1  0
 21 58  1  0
 22 59  1  0
 25 60  1  0
 26 61  1  0
 27 62  1  0
 28 63  1  0
M  CHG  1  16   1
M  END
>  <UniqueID>  (12) 
12

>  <SMILES>  (12) 
CCN(CC)CCOCCCNc1c2c([n+](C)c3ccccc13)-c1ccccc1C2=O

>  <Energy>  (12) 
118.60840012795252

>  <Genealogy>  (12) 
CCN(CC)CCOCCCNc1c2c([n+](C)c3ccccc13)-c1ccccc1C2=O (3D coordinates assigned)
CCN(CC)CCOCCCNc1c2c([n+](C)c3ccccc13)-c1ccccc1C2=O (nonaromatic ring conformer: 118.60840012795252 kcal/mol)

>  <smiles>  (12) 
CCN(CC)CCOCCCNc1c2c([n+](C)c3ccccc13)-c1ccccc1C2=O

>  <score_type>  (12) 
oracle

>  <origin>  (12) 
adg

>  <m_score__min__energy>  (12) 
-8.8800000000000008

>  <m_primary>  (12) 
energy

$$$$
12:0
     RDKit          3D

 45 46  0  0  0  0  0  0  0  0999 V2000
    1.2510   21.7990  -35.3180 C   0  0  0  0  0  0  0  0  0  0  0  0
   -0.1790   21.4840  -34.8600 C   0  0  0  0  0  0  0  0  0  0  0  0
   -0.2520   20.2350  -34.0560 N   0  0  0  0  0  0  0  0  0  0  0  0
   -0.4530   19.0500  -34.9320 C   0  0  0  0  0  0  0  0  0  0  0  0
   -0.9210   17.8030  -34.1690 C   0  0  0  0  0  0  0  0  0  0  0  0
    0.9820   20.0520  -33.2290 C   0  0  0  0  0  0  0  0  0  0  0  0
    0.6560   19.7290  -31.7610 C   0  0  0  0  0  0  0  0  0  0  0  0
   -0.7450   19.6920  -31.5510 O   0  0  0  0  0  0  0  0  0  0  0  0
   -1.1200   20.4100  -30.3880 C   0  0  0  0  0  0  0  0  0  0  0  0
   -1.5010   21.8390  -30.7570 C   0  0  0  0  0  0  0  0  0  0  0  0
   -1.7140   21.9290  -32.1450 O   0  0  0  0  0  0  0  0  0  0  0  0
   -3.0510   21.7850  -32.3420 N   0  0  0  0  0  0  0  0  0  0  0  0
   -3.7080   20.6000  -32.7800 C   0  0  0  0  0  0  0  0  0  0  0  0
   -3.1140   19.6150  -33.2950 O   0  0  0  0  0  0  0  0  0  0  0  0
   -5.1440   20.7040  -32.5120 C   0  0  0  0  0  0  0  0  0  0  0  0
   -6.1910   19.8160  -32.7710 C   0  0  0  0  0  0  0  0  0  0  0  0
   -5.8790   18.2740  -33.5620 Cl  0  0  0  0  0  0  0  0  0  0  0  0
   -7.4970   20.1950  -32.3910 C   0  0  0  0  0  0  0  0  0  0  0  0
   -8.8500   19.1070  -32.7040 Cl  0  0  0  0  0  0  0  0  0  0  0  0
   -7.7240   21.4440  -31.7550 C   0  0  0  0  0  0  0  0  0  0  0  0
   -9.3580   21.9090  -31.2800 Cl  0  0  0  0  0  0  0  0  0  0  0  0
   -6.6450   22.3190  -31.4970 C   0  0  0  0  0  0  0  0  0  0  0  0
   -6.8960   23.8750  -30.7120 Cl  0  0  0  0  0  0  0  0  0  0  0  0
   -5.3650   21.9200  -31.8910 C   0  0  0  0  0  0  0  0  0  0  0  0
   -4.0700   22.5910  -31.7600 C   0  0  0  0  0  0  0  0  0  0  0  0
   -3.8570   23.6990  -31.2010 O   0  0  0  0  0  0  0  0  0  0  0  0
    1.8951   21.9409  -34.4377 H   0  0  0  0  0  0  0  0  0  0  0  0
    1.6348   20.9639  -35.9224 H   0  0  0  0  0  0  0  0  0  0  0  0
    1.2484   22.7181  -35.9224 H   0  0  0  0  0  0  0  0  0  0  0  0
   -0.5468   22.3207  -34.2479 H   0  0  0  0  0  0  0  0  0  0  0  0
   -0.7967   21.3420  -35.7591 H   0  0  0  0  0  0  0  0  0  0  0  0
   -1.0940   20.3050  -33.4340 H   0  0  0  0  0  0  0  0  0  0  0  0
   -1.2102   19.3003  -35.6896 H   0  0  0  0  0  0  0  0  0  0  0  0
    0.5210   18.8094  -35.3830 H   0  0  0  0  0  0  0  0  0  0  0  0
   -0.8517   17.9878  -33.0868 H   0  0  0  0  0  0  0  0  0  0  0  0
   -1.9642   17.5794  -34.4367 H   0  0  0  0  0  0  0  0  0  0  0  0
   -0.2825   16.9482  -34.4367 H   0  0  0  0  0  0  0  0  0  0  0  0
    1.5716   19.2248  -33.6510 H   0  0  0  0  0  0  0  0  0  0  0  0
    1.5450   20.9968  -33.2495 H   0  0  0  0  0  0  0  0  0  0  0  0
    1.0848   18.7492  -31.5039 H   0  0  0  0  0  0  0  0  0  0  0  0
    1.0865   20.5156  -31.1239 H   0  0  0  0  0  0  0  0  0  0  0  0
   -1.9807   19.9141  -29.9156 H   0  0  0  0  0  0  0  0  0  0  0  0
   -0.2715   20.4320  -29.6883 H   0  0  0  0  0  0  0  0  0  0  0  0
   -2.4226   22.1204  -30.2265 H   0  0  0  0  0  0  0  0  0  0  0  0
   -0.6865   22.5196  -30.4683 H   0  0  0  0  0  0  0  0  0  0  0  0
  1  2  1  0
  2  3  1  0
  3  4  1  0
  4  5  1  0
  3  6  1  0
  6  7  1  0
  7  8  1  0
  8  9  1  0
  9 10  1  0
 10 11  1  0
 11 12  1  0
 12 13  1  0
 13 14  2  0
 13 15  1  0
 15 16  2  0
 16 17  1  0
 16 18  1  0
 18 19  1  0
 18 20  2  0
 20 21  1  0
 20 22  1  0
 22 23  1  0
 22 24  2  0
 24 25  1  0
 25 26  2  0
 25 12  1  0
 24 15  1  0
  1 27  1  0
  1 28  1  0
  1 29  1  0
  2 30  1  0
  2 31  1  0
  3 32  1  0
  4 33  1  0
  4 34  1  0
  5 35  1  0
  5 36  1  0
  5 37  1  0
  6 38  1  0
  6 39  1  0
  7 40  1  0
  7 41  1  0
  9 42  1  0
  9 43  1  0
 10 44  1  0
 10 45  1  0
M  CHG  1   3   1
M  END
>  <UniqueID>  (13) 
13

>  <SMILES>  (13) 
CC[NH+](CC)CCOCCON1C(=O)c2c(Cl)c(Cl)c(Cl)c(Cl)c2C1=O

>  <Energy>  (13) 
85.06063893320342

>  <Genealogy>  (13) 
CC[NH+](CC)CCOCCON1C(=O)c2c(Cl)c(Cl)c(Cl)c(Cl)c2C1=O (protonated)
CC[NH+](CC)CCOCCON1C(=O)c2c(Cl)c(Cl)c(Cl)c(Cl)c2C1=O (3D coordinates assigned)
CC[NH+](CC)CCOCCON1C(=O)c2c(Cl)c(Cl)c(Cl)c(Cl)c2C1=O (nonaromatic ring conformer: 85.06063893320342 kcal/mol)

>  <smiles>  (13) 
CCN(CC)CCOCCON1C(=O)c2c(Cl)c(Cl)c(Cl)c(Cl)c2C1=O

>  <score_type>  (13) 
oracle

>  <origin>  (13) 
adg

>  <m_score__min__energy>  (13) 
-8.4600000000000009

>  <m_primary>  (13) 
energy

$$$$
13:0
     RDKit          3D

 53 55  0  0  0  0  0  0  0  0999 V2000
   -9.1880   22.2810  -31.6080 C   0  0  0  0  0  0  0  0  0  0  0  0
   -7.8750   22.3090  -30.8110 C   0  0  0  0  0  0  0  0  0  0  0  0
   -6.9070   23.3310  -31.2750 N   0  0  0  0  0  0  0  0  0  0  0  0
   -7.1570   23.7480  -32.6670 C   0  0  0  0  0  0  0  0  0  0  0  0
   -6.8210   24.4860  -30.3570 C   0  0  0  0  0  0  0  0  0  0  0  0
   -5.4700   25.2000  -30.5010 C   0  0  0  0  0  0  0  0  0  0  0  0
   -4.5340   24.3740  -31.1720 O   0  0  0  0  0  0  0  0  0  0  0  0
   -3.8440   23.4950  -30.2980 C   0  0  0  0  0  0  0  0  0  0  0  0
   -4.1370   22.0280  -30.6330 C   0  0  0  0  0  0  0  0  0  0  0  0
   -4.5340   21.8640  -32.0340 N   0  0  0  0  0  0  0  0  0  0  0  0
   -4.2230   20.6660  -32.7720 C   0  0  0  0  0  0  0  0  0  0  0  0
   -2.9140   20.4390  -33.2400 C   0  0  0  0  0  0  0  0  0  0  0  0
   -1.9180   21.4320  -33.1160 C   0  0  0  0  0  0  0  0  0  0  0  0
   -0.6040   21.1750  -33.4970 C   0  0  0  0  0  0  0  0  0  0  0  0
   -0.2600   19.9300  -34.0080 C   0  0  0  0  0  0  0  0  0  0  0  0
   -1.2360   18.9510  -34.1870 C   0  0  0  0  0  0  0  0  0  0  0  0
   -2.5930   19.2010  -33.8560 C   0  0  0  0  0  0  0  0  0  0  0  0
   -3.5850   18.2710  -34.1070 N   0  0  0  0  0  0  0  0  0  0  0  0
   -3.3050   17.1110  -34.9840 C   0  0  0  0  0  0  0  0  0  0  0  0
   -4.8480   18.4420  -33.5710 C   0  0  0  0  0  0  0  0  0  0  0  0
   -5.8140   17.4020  -33.5960 C   0  0  0  0  0  0  0  0  0  0  0  0
   -7.0990   17.5990  -33.0940 C   0  0  0  0  0  0  0  0  0  0  0  0
   -7.4560   18.8240  -32.5440 C   0  0  0  0  0  0  0  0  0  0  0  0
   -9.0740   19.0640  -31.9120 Cl  0  0  0  0  0  0  0  0  0  0  0  0
   -6.5160   19.8500  -32.4640 C   0  0  0  0  0  0  0  0  0  0  0  0
   -5.2010   19.6690  -32.9450 C   0  0  0  0  0  0  0  0  0  0  0  0
  -10.0393   22.2628  -30.9116 H   0  0  0  0  0  0  0  0  0  0  0  0
   -9.2516   23.1780  -32.2415 H   0  0  0  0  0  0  0  0  0  0  0  0
   -9.2133   21.3821  -32.2415 H   0  0  0  0  0  0  0  0  0  0  0  0
   -8.1149   22.5137  -29.7572 H   0  0  0  0  0  0  0  0  0  0  0  0
   -7.3956   21.3295  -30.9551 H   0  0  0  0  0  0  0  0  0  0  0  0
   -7.7226   24.6914  -32.6712 H   0  0  0  0  0  0  0  0  0  0  0  0
   -6.1971   23.8936  -33.1841 H   0  0  0  0  0  0  0  0  0  0  0  0
   -7.7378   22.9700  -33.1841 H   0  0  0  0  0  0  0  0  0  0  0  0
   -7.6295   25.1939  -30.5920 H   0  0  0  0  0  0  0  0  0  0  0  0
   -6.9179   24.1218  -29.3236 H   0  0  0  0  0  0  0  0  0  0  0  0
   -5.6112   26.1266  -31.0767 H   0  0  0  0  0  0  0  0  0  0  0  0
   -5.0829   25.4286  -29.4971 H   0  0  0  0  0  0  0  0  0  0  0  0
   -2.7627   23.6741  -30.3909 H   0  0  0  0  0  0  0  0  0  0  0  0
   -4.1855   23.6901  -29.2707 H   0  0  0  0  0  0  0  0  0  0  0  0
   -3.2319   21.4314  -30.4462 H   0  0  0  0  0  0  0  0  0  0  0  0
   -4.9686   21.6892  -29.9976 H   0  0  0  0  0  0  0  0  0  0  0  0
   -5.2480   22.5220  -32.4200 H   0  0  0  0  0  0  0  0  0  0  0  0
   -2.1836   22.4207  -32.7135 H   0  0  0  0  0  0  0  0  0  0  0  0
    0.1619   21.9578  -33.3934 H   0  0  0  0  0  0  0  0  0  0  0  0
    0.7861   19.7159  -34.2723 H   0  0  0  0  0  0  0  0  0  0  0  0
   -0.9497   17.9689  -34.5913 H   0  0  0  0  0  0  0  0  0  0  0  0
   -3.0916   16.2268  -34.3655 H   0  0  0  0  0  0  0  0  0  0  0  0
   -4.1808   16.9116  -35.6190 H   0  0  0  0  0  0  0  0  0  0  0  0
   -2.4347   17.3330  -35.6190 H   0  0  0  0  0  0  0  0  0  0  0  0
   -5.5434   16.4233  -34.0191 H   0  0  0  0  0  0  0  0  0  0  0  0
   -7.8337   16.7813  -33.1333 H   0  0  0  0  0  0  0  0  0  0  0  0
   -6.8028   20.8146  -32.0197 H   0  0  0  0  0  0  0  0  0  0  0  0
  1  2  1  0
  2  3  1  0
  3  4  1  0
  3  5  1  0
  5  6  1  0
  6  7  1  0
  7  8  1  0
  8  9  1  0
  9 10  1  0
 10 11  1  0
 11 12  2  0
 12 13  1  0
 13 14  2  0
 14 15  1  0
 15 16  2  0
 16 17  1  0
 17 18  2  0
 18 19  1  0
 18 20  1  0
 20 21  2  0
 21 22  1  0
 22 23  2  0
 23 24  1  0
 23 25  1  0
 25 26  2  0
 26 11  1  0
 17 12  1  0
 26 20  1  0
  1 27  1  0
  1 28  1  0
  1 29  1  0
  2 30  1  0
  2 31  1  0
  4 32  1  0
  4 33  1  0
  4 34  1  0
  5 35  1  0
  5 36  1  0
  6 37  1  0
  6 38  1  0
  8 39  1  0
  8 40  1  0
  9 41  1  0
  9 42  1  0
 10 43  1  0
 13 44  1  0
 14 45  1  0
 15 46  1  0
 16 47  1  0
 19 48  1  0
 19 49  1  0
 19 50  1  0
 21 51  1  0
 22 52  1  0
 25 53  1  0
M  CHG  1  18   1
M  END
>  <UniqueID>  (14) 
14

>  <SMILES>  (14) 
CCN(C)CCOCCNc1c2ccccc2[n+](C)c2ccc(Cl)cc12

>  <Energy>  (14) 
79.45422642882859

>  <Genealogy>  (14) 
CCN(C)CCOCCNc1c2ccccc2[n+](C)c2ccc(Cl)cc12 (3D coordinates assigned)
CCN(C)CCOCCNc1c2ccccc2[n+](C)c2ccc(Cl)cc12 (optimized conformer: 79.45422642882859 kcal/mol)

>  <smiles>  (14) 
CCN(C)CCOCCNc1c2ccccc2[n+](C)c2ccc(Cl)cc12

>  <score_type>  (14) 
oracle

>  <origin>  (14) 
adg

>  <m_score__min__energy>  (14) 
-8.6500000000000004

>  <m_primary>  (14) 
energy

$$$$
14:0
     RDKit          3D

 45 46  0  0  0  0  0  0  0  0999 V2000
   -8.0180   23.4130  -32.0980 C   0  0  0  0  0  0  0  0  0  0  0  0
   -6.5960   22.9320  -32.3420 C   0  0  0  0  0  0  0  0  0  0  0  0
   -6.3570   21.7510  -31.5810 O   0  0  0  0  0  0  0  0  0  0  0  0
   -7.0420   20.5390  -31.7580 C   0  0  0  0  0  0  0  0  0  0  0  0
   -8.4360   20.4360  -31.5840 C   0  0  0  0  0  0  0  0  0  0  0  0
   -9.0820   19.2120  -31.7690 C   0  0  0  0  0  0  0  0  0  0  0  0
   -8.3470   18.0810  -32.1250 C   0  0  0  0  0  0  0  0  0  0  0  0
   -6.9650   18.1700  -32.2990 C   0  0  0  0  0  0  0  0  0  0  0  0
   -6.3010   19.4020  -32.1190 C   0  0  0  0  0  0  0  0  0  0  0  0
   -4.9120   19.5400  -32.2810 O   0  0  0  0  0  0  0  0  0  0  0  0
   -4.2650   20.2270  -33.3520 C   0  0  0  0  0  0  0  0  0  0  0  0
   -3.4810   21.4370  -32.8190 C   0  0  0  0  0  0  0  0  0  0  0  0
   -3.7950   21.7290  -31.4080 N   0  0  0  0  0  0  0  0  0  0  0  0
   -2.5770   21.8960  -30.5950 C   0  0  0  0  0  0  0  0  0  0  0  0
   -2.8030   22.8830  -29.4400 C   0  0  0  0  0  0  0  0  0  0  0  0
   -3.8610   23.8350  -29.7650 N   0  0  0  0  0  0  0  0  0  0  0  0
   -5.0180   23.9890  -29.0950 C   0  0  0  0  0  0  0  0  0  0  0  0
   -5.7580   24.9500  -29.7480 C   0  0  0  0  0  0  0  0  0  0  0  0
   -7.1490   25.3890  -29.4290 C   0  0  0  0  0  0  0  0  0  0  0  0
   -4.9950   25.3250  -30.8370 C   0  0  0  0  0  0  0  0  0  0  0  0
   -3.8380   24.6320  -30.8230 N   0  0  0  0  0  0  0  0  0  0  0  0
   -8.2032   23.4757  -31.0155 H   0  0  0  0  0  0  0  0  0  0  0  0
   -8.1519   24.4064  -32.5510 H   0  0  0  0  0  0  0  0  0  0  0  0
   -8.7274   22.7048  -32.5510 H   0  0  0  0  0  0  0  0  0  0  0  0
   -6.4615   22.7126  -33.4115 H   0  0  0  0  0  0  0  0  0  0  0  0
   -5.8865   23.7151  -32.0364 H   0  0  0  0  0  0  0  0  0  0  0  0
   -9.0190   21.3248  -31.3008 H   0  0  0  0  0  0  0  0  0  0  0  0
  -10.1713   19.1395  -31.6339 H   0  0  0  0  0  0  0  0  0  0  0  0
   -8.8575   17.1173  -32.2688 H   0  0  0  0  0  0  0  0  0  0  0  0
   -6.3902   17.2746  -32.5780 H   0  0  0  0  0  0  0  0  0  0  0  0
   -3.5704   19.5391  -33.8563 H   0  0  0  0  0  0  0  0  0  0  0  0
   -5.0284   20.5814  -34.0603 H   0  0  0  0  0  0  0  0  0  0  0  0
   -2.4046   21.2275  -32.9060 H   0  0  0  0  0  0  0  0  0  0  0  0
   -3.7686   22.3145  -33.4167 H   0  0  0  0  0  0  0  0  0  0  0  0
   -4.3900   20.9650  -31.0140 H   0  0  0  0  0  0  0  0  0  0  0  0
   -4.3430   22.6200  -31.3770 H   0  0  0  0  0  0  0  0  0  0  0  0
   -2.2878   20.9194  -30.1794 H   0  0  0  0  0  0  0  0  0  0  0  0
   -1.7824   22.2969  -31.2415 H   0  0  0  0  0  0  0  0  0  0  0  0
   -3.0886   22.3219  -28.5380 H   0  0  0  0  0  0  0  0  0  0  0  0
   -1.8705   23.4405  -29.2678 H   0  0  0  0  0  0  0  0  0  0  0  0
   -5.3190   23.4446  -28.1878 H   0  0  0  0  0  0  0  0  0  0  0  0
   -7.2793   25.4301  -28.3375 H   0  0  0  0  0  0  0  0  0  0  0  0
   -7.3259   26.3867  -29.8572 H   0  0  0  0  0  0  0  0  0  0  0  0
   -7.8666   24.6736  -29.8572 H   0  0  0  0  0  0  0  0  0  0  0  0
   -5.2845   26.0690  -31.5937 H   0  0  0  0  0  0  0  0  0  0  0  0
  1  2  1  0
  2  3  1  0
  3  4  1  0
  4  5  2  0
  5  6  1  0
  6  7  2  0
  7  8  1  0
  8  9  2  0
  9 10  1  0
 10 11  1  0
 11 12  1  0
 12 13  1  0
 13 14  1  0
 14 15  1  0
 15 16  1  0
 16 17  1  0
 17 18  2  0
 18 19  1  0
 18 20  1  0
 20 21  2  0
  9  4  1  0
 21 16  1  0
  1 22  1  0
  1 23  1  0
  1 24  1  0
  2 25  1  0
  2 26  1  0
  5 27  1  0
  6 28  1  0
  7 29  1  0
  8 30  1  0
 11 31  1  0
 11 32  1  0
 12 33  1  0
 12 34  1  0
 13 35  1  0
 13 36  1  0
 14 37  1  0
 14 38  1  0
 15 39  1  0
 15 40  1  0
 17 41  1  0
 19 42  1  0
 19 43  1  0
 19 44  1  0
 20 45  1  0
M  CHG  1  13   1
M  END
>  <UniqueID>  (15) 
15

>  <SMILES>  (15) 
CCOc1ccccc1OCC[NH2+]CCn1cc(C)cn1

>  <Energy>  (15) 
65.7628207397653

>  <Genealogy>  (15) 
CCOc1ccccc1OCC[NH2+]CCn1cc(C)cn1 (protonated)
CCOc1ccccc1OCC[NH2+]CCn1cc(C)cn1 (3D coordinates assigned)
CCOc1ccccc1OCC[NH2+]CCn1cc(C)cn1 (optimized conformer: 65.7628207397653 kcal/mol)

>  <smiles>  (15) 
CCOc1ccccc1OCCNCCn1cc(C)cn1

>  <score_type>  (15) 
oracle

>  <origin>  (15) 
adg

>  <m_score__min__energy>  (15) 
-5.7000000000000002

>  <m_primary>  (15) 
energy

$$$$
15:0
     RDKit          3D

 39 41  0  0  0  0  0  0  0  0999 V2000
   -6.1210   25.6190  -29.4230 C   0  0  0  0  0  0  0  0  0  0  0  0
   -5.3370   25.5110  -30.7270 C   0  0  0  0  0  0  0  0  0  0  0  0
   -3.9130   25.2650  -30.4540 N   0  0  0  0  0  0  0  0  0  0  0  0
   -3.7360   24.2070  -29.4490 C   0  0  0  0  0  0  0  0  0  0  0  0
   -4.0980   22.8400  -30.0370 C   0  0  0  0  0  0  0  0  0  0  0  0
   -3.9980   22.8550  -31.4960 N   0  0  0  0  0  0  0  0  0  0  0  0
   -4.0900   21.6410  -32.2500 C   0  0  0  0  0  0  0  0  0  0  0  0
   -5.2480   21.0120  -32.7010 C   0  0  0  0  0  0  0  0  0  0  0  0
   -6.6440   21.3350  -32.3530 C   0  0  0  0  0  0  0  0  0  0  0  0
   -7.6850   20.4210  -32.2420 C   0  0  0  0  0  0  0  0  0  0  0  0
   -8.8950   21.0000  -31.8420 C   0  0  0  0  0  0  0  0  0  0  0  0
   -8.8130   22.3680  -31.6220 C   0  0  0  0  0  0  0  0  0  0  0  0
   -7.2330   22.8540  -31.9250 S   0  0  0  0  0  0  0  0  0  0  0  0
   -4.8900   19.9530  -33.4690 N   0  0  0  0  0  0  0  0  0  0  0  0
   -3.5420   19.9580  -33.4610 C   0  0  0  0  0  0  0  0  0  0  0  0
   -2.7090   19.0560  -34.1210 C   0  0  0  0  0  0  0  0  0  0  0  0
   -1.3230   19.2430  -34.0020 C   0  0  0  0  0  0  0  0  0  0  0  0
   -0.8110   20.3120  -33.2390 C   0  0  0  0  0  0  0  0  0  0  0  0
   -1.6980   21.1880  -32.5950 C   0  0  0  0  0  0  0  0  0  0  0  0
   -3.0310   20.9660  -32.7310 N   0  0  0  0  0  0  0  0  0  0  0  0
   -5.4312   25.5240  -28.5715 H   0  0  0  0  0  0  0  0  0  0  0  0
   -6.6260   26.5952  -29.3786 H   0  0  0  0  0  0  0  0  0  0  0  0
   -6.8712   24.8157  -29.3786 H   0  0  0  0  0  0  0  0  0  0  0  0
   -5.7400   24.6794  -31.3236 H   0  0  0  0  0  0  0  0  0  0  0  0
   -5.4346   26.4570  -31.2797 H   0  0  0  0  0  0  0  0  0  0  0  0
   -3.4800   24.9320  -31.3460 H   0  0  0  0  0  0  0  0  0  0  0  0
   -2.6865   24.1927  -29.1200 H   0  0  0  0  0  0  0  0  0  0  0  0
   -4.3991   24.4133  -28.5959 H   0  0  0  0  0  0  0  0  0  0  0  0
   -3.4086   22.0821  -29.6368 H   0  0  0  0  0  0  0  0  0  0  0  0
   -5.1353   22.6019  -29.7588 H   0  0  0  0  0  0  0  0  0  0  0  0
   -4.2210   23.7480  -31.9880 H   0  0  0  0  0  0  0  0  0  0  0  0
   -7.5693   19.3468  -32.4485 H   0  0  0  0  0  0  0  0  0  0  0  0
   -9.8238   20.4248  -31.7140 H   0  0  0  0  0  0  0  0  0  0  0  0
   -9.6392   23.0210  -31.3043 H   0  0  0  0  0  0  0  0  0  0  0  0
   -5.5160   19.2640  -33.9410 H   0  0  0  0  0  0  0  0  0  0  0  0
   -3.1231   18.2272  -34.7140 H   0  0  0  0  0  0  0  0  0  0  0  0
   -0.6325   18.5515  -34.5070 H   0  0  0  0  0  0  0  0  0  0  0  0
    0.2755   20.4583  -33.1491 H   0  0  0  0  0  0  0  0  0  0  0  0
   -1.3239   22.0316  -31.9963 H   0  0  0  0  0  0  0  0  0  0  0  0
  1  2  1  0
  2  3  1  0
  3  4  1  0
  4  5  1  0
  5  6  1  0
  6  7  1  0
  7  8  2  0
  8  9  1  0
  9 10  2  0
 10 11  1  0
 11 12  2  0
 12 13  1  0
  8 14  1  0
 14 15  2  0
 15 16  1  0
 16 17  2  0
 17 18  1  0
 18 19  2  0
 19 20  1  0
 20  7  1  0
 13  9  1  0
 20 15  1  0
  1 21  1  0
  1 22  1  0
  1 23  1  0
  2 24  1  0
  2 25  1  0
  3 26  1  0
  4 27  1  0
  4 28  1  0
  5 29  1  0
  5 30  1  0
  6 31  1  0
 10 32  1  0
 11 33  1  0
 12 34  1  0
 14 35  1  0
 16 36  1  0
 17 37  1  0
 18 38  1  0
 19 39  1  0
M  CHG  1  14   1
M  END
>  <UniqueID>  (16) 
16

>  <SMILES>  (16) 
CCNCCNc1c(-c2cccs2)[nH+]c2ccccn12

>  <Energy>  (16) 
103.29884446221854

>  <Genealogy>  (16) 
CCNCCNc1c(-c2cccs2)[nH+]c2ccccn12 (protonated)
CCNCCNc1c(-c2cccs2)[nH+]c2ccccn12 (3D coordinates assigned)
CCNCCNc1c(-c2cccs2)[nH+]c2ccccn12 (optimized conformer: 103.29884446221854 kcal/mol)

>  <smiles>  (16) 
CCNCCNc1c(-c2cccs2)nc2ccccn12

>  <score_type>  (16) 
oracle

>  <origin>  (16) 
adg

>  <m_score__min__energy>  (16) 
-7.5

>  <m_primary>  (16) 
energy

$$$$
16:0
     RDKit          3D

 49 52  0  0  0  0  0  0  0  0999 V2000
   -5.6030   25.7390  -30.6830 C   0  0  0  0  0  0  0  0  0  0  0  0
   -6.0730   25.0530  -29.3980 C   0  0  0  0  0  0  0  0  0  0  0  0
   -4.9630   24.7720  -28.4690 N   0  0  0  0  0  0  0  0  0  0  0  0
   -3.6920   24.5410  -29.1740 C   0  0  0  0  0  0  0  0  0  0  0  0
   -3.6090   23.1130  -29.7470 C   0  0  0  0  0  0  0  0  0  0  0  0
   -3.3980   23.0700  -31.2040 N   0  0  0  0  0  0  0  0  0  0  0  0
   -3.8760   22.0230  -32.0760 C   0  0  0  0  0  0  0  0  0  0  0  0
   -5.2500   21.8190  -32.1950 C   0  0  0  0  0  0  0  0  0  0  0  0
   -5.7550   20.7290  -32.8770 C   0  0  0  0  0  0  0  0  0  0  0  0
   -4.9460   19.8770  -33.5860 N   0  0  0  0  0  0  0  0  0  0  0  0
   -5.5400   18.9200  -34.5360 C   0  0  0  0  0  0  0  0  0  0  0  0
   -3.5720   20.0120  -33.4650 C   0  0  0  0  0  0  0  0  0  0  0  0
   -2.6820   19.0620  -34.0210 C   0  0  0  0  0  0  0  0  0  0  0  0
   -1.3030   19.2660  -33.9890 C   0  0  0  0  0  0  0  0  0  0  0  0
   -0.7770   20.4200  -33.4180 C   0  0  0  0  0  0  0  0  0  0  0  0
    0.9540   20.7010  -33.4480 Cl  0  0  0  0  0  0  0  0  0  0  0  0
   -1.6250   21.3510  -32.8180 C   0  0  0  0  0  0  0  0  0  0  0  0
   -3.0150   21.1320  -32.7650 C   0  0  0  0  0  0  0  0  0  0  0  0
   -7.2140   20.7310  -32.7070 C   0  0  0  0  0  0  0  0  0  0  0  0
   -8.1840   19.7530  -32.9770 C   0  0  0  0  0  0  0  0  0  0  0  0
   -9.5170   20.0080  -32.6180 C   0  0  0  0  0  0  0  0  0  0  0  0
   -9.8620   21.2000  -31.9590 C   0  0  0  0  0  0  0  0  0  0  0  0
   -8.8720   22.1370  -31.6300 C   0  0  0  0  0  0  0  0  0  0  0  0
   -7.5520   21.8760  -32.0040 C   0  0  0  0  0  0  0  0  0  0  0  0
   -6.3490   22.6810  -31.6360 C   0  0  0  0  0  0  0  0  0  0  0  0
   -4.9983   26.6216  -30.4274 H   0  0  0  0  0  0  0  0  0  0  0  0
   -4.9955   25.0366  -31.2726 H   0  0  0  0  0  0  0  0  0  0  0  0
   -6.4774   26.0518  -31.2726 H   0  0  0  0  0  0  0  0  0  0  0  0
   -6.7980   25.7084  -28.8932 H   0  0  0  0  0  0  0  0  0  0  0  0
   -6.5250   24.0904  -29.6793 H   0  0  0  0  0  0  0  0  0  0  0  0
   -4.8580   25.6060  -27.8500 H   0  0  0  0  0  0  0  0  0  0  0  0
   -5.1970   23.9470  -27.8690 H   0  0  0  0  0  0  0  0  0  0  0  0
   -3.6066   25.2621  -30.0003 H   0  0  0  0  0  0  0  0  0  0  0  0
   -2.8717   24.6690  -28.4524 H   0  0  0  0  0  0  0  0  0  0  0  0
   -2.7721   22.5915  -29.2595 H   0  0  0  0  0  0  0  0  0  0  0  0
   -4.5775   22.6307  -29.5485 H   0  0  0  0  0  0  0  0  0  0  0  0
   -3.1330   23.9760  -31.6530 H   0  0  0  0  0  0  0  0  0  0  0  0
   -6.0404   18.1138  -33.9796 H   0  0  0  0  0  0  0  0  0  0  0  0
   -6.2746   19.4396  -35.1688 H   0  0  0  0  0  0  0  0  0  0  0  0
   -4.7484   18.4923  -35.1688 H   0  0  0  0  0  0  0  0  0  0  0  0
   -3.0842   18.1494  -34.4851 H   0  0  0  0  0  0  0  0  0  0  0  0
   -0.6279   18.5106  -34.4174 H   0  0  0  0  0  0  0  0  0  0  0  0
   -1.2026   22.2677  -32.3808 H   0  0  0  0  0  0  0  0  0  0  0  0
   -7.9051   18.8052  -33.4605 H   0  0  0  0  0  0  0  0  0  0  0  0
  -10.2970   19.2693  -32.8543 H   0  0  0  0  0  0  0  0  0  0  0  0
  -10.9125   21.3989  -31.7002 H   0  0  0  0  0  0  0  0  0  0  0  0
   -9.1299   23.0590  -31.0883 H   0  0  0  0  0  0  0  0  0  0  0  0
   -6.3657   23.6734  -32.1101 H   0  0  0  0  0  0  0  0  0  0  0  0
   -6.2567   22.8959  -30.5612 H   0  0  0  0  0  0  0  0  0  0  0  0
  1  2  1  0
  2  3  1  0
  3  4  1  0
  4  5  1  0
  5  6  1  0
  6  7  1  0
  7  8  2  0
  8  9  1  0
  9 10  2  0
 10 11  1  0
 10 12  1  0
 12 13  2  0
 13 14  1  0
 14 15  2  0
 15 16  1  0
 15 17  1  0
 17 18  2  0
  9 19  1  0
 19 20  2  0
 20 21  1  0
 21 22  2  0
 22 23  1  0
 23 24  2  0
 24 25  1  0
 18  7  1  0
 24 19  1  0
 25  8  1  0
 18 12  1  0
  1 26  1  0
  1 27  1  0
  1 28  1  0
  2 29  1  0
  2 30  1  0
  3 31  1  0
  3 32  1  0
  4 33  1  0
  4 34  1  0
  5 35  1  0
  5 36  1  0
  6 37  1  0
 11 38  1  0
 11 39  1  0
 11 40  1  0
 13 41  1  0
 14 42  1  0
 17 43  1  0
 20 44  1  0
 21 45  1  0
 22 46  1  0
 23 47  1  0
 25 48  1  0
 25 49  1  0
M  CHG  2   3   1  10   1
M  END
>  <UniqueID>  (17) 
17

>  <SMILES>  (17) 
CC[NH2+]CCNc1c2c([n+](C)c3ccc(Cl)cc13)-c1ccccc1C2

>  <Energy>  (17) 
93.88121208279973

>  <Genealogy>  (17) 
CC[NH2+]CCNc1c2c([n+](C)c3ccc(Cl)cc13)-c1ccccc1C2 (protonated)
CC[NH2+]CCNc1c2c([n+](C)c3ccc(Cl)cc13)-c1ccccc1C2 (3D coordinates assigned)
CC[NH2+]CCNc1c2c([n+](C)c3ccc(Cl)cc13)-c1ccccc1C2 (nonaromatic ring conformer: 93.88121208279973 kcal/mol)

>  <smiles>  (17) 
CCNCCNc1c2c([n+](C)c3ccc(Cl)cc13)-c1ccccc1C2

>  <score_type>  (17) 
oracle

>  <origin>  (17) 
adg

>  <m_score__min__energy>  (17) 
-7.8600000000000003

>  <m_primary>  (17) 
energy

$$$$
17:0
     RDKit          3D

 77 79  0  0  0  0  0  0  0  0999 V2000
   -6.1380   25.8320  -29.7200 C   0  0  0  0  0  0  0  0  0  0  0  0
   -5.0770   25.6640  -30.8110 C   0  0  0  0  0  0  0  0  0  0  0  0
   -4.0840   24.6360  -30.4670 N   0  0  0  0  0  0  0  0  0  0  0  0
   -4.1900   24.1750  -29.0720 C   0  0  0  0  0  0  0  0  0  0  0  0
   -2.8020   23.8170  -28.5430 C   0  0  0  0  0  0  0  0  0  0  0  0
   -1.8160   24.0580  -29.5280 O   0  0  0  0  0  0  0  0  0  0  0  0
   -1.3800   22.8580  -30.1390 C   0  0  0  0  0  0  0  0  0  0  0  0
   -2.2850   21.6940  -29.7240 C   0  0  0  0  0  0  0  0  0  0  0  0
   -3.0490   21.2410  -30.8260 O   0  0  0  0  0  0  0  0  0  0  0  0
   -2.5900   21.8080  -32.0400 C   0  0  0  0  0  0  0  0  0  0  0  0
   -2.9700   20.9080  -33.2150 C   0  0  0  0  0  0  0  0  0  0  0  0
   -4.3210   21.2160  -33.6770 N   0  0  0  0  0  0  0  0  0  0  0  0
   -5.4660   20.5130  -33.1640 C   0  0  0  0  0  0  0  0  0  0  0  0
   -6.3830   21.1730  -32.3260 C   0  0  0  0  0  0  0  0  0  0  0  0
   -6.1600   22.5070  -31.9170 C   0  0  0  0  0  0  0  0  0  0  0  0
   -7.0470   23.1480  -31.0550 C   0  0  0  0  0  0  0  0  0  0  0  0
   -8.1540   22.4650  -30.5640 C   0  0  0  0  0  0  0  0  0  0  0  0
   -8.3920   21.1450  -30.9490 C   0  0  0  0  0  0  0  0  0  0  0  0
   -7.5320   20.4790  -31.8610 C   0  0  0  0  0  0  0  0  0  0  0  0
   -7.7760   19.1850  -32.2810 N   0  0  0  0  0  0  0  0  0  0  0  0
   -9.1000   18.5660  -32.0460 C   0  0  0  0  0  0  0  0  0  0  0  0
   -6.7950   18.4770  -32.9530 C   0  0  0  0  0  0  0  0  0  0  0  0
   -6.8990   17.0810  -33.1650 C   0  0  0  0  0  0  0  0  0  0  0  0
   -5.9530   16.3730  -33.9290 C   0  0  0  0  0  0  0  0  0  0  0  0
   -6.0880   14.9520  -34.1650 N   0  0  0  0  0  0  0  0  0  0  0  0
   -5.2870   13.9140  -33.5110 C   0  0  0  0  0  0  0  0  0  0  0  0
   -4.6280   14.4670  -32.2300 C   0  0  0  0  0  0  0  0  0  0  0  0
   -3.4420   13.7060  -31.7760 N   0  0  0  0  0  0  0  0  0  0  0  0
   -3.6330   12.2490  -31.8410 C   0  0  0  0  0  0  0  0  0  0  0  0
   -2.2050   14.1130  -32.4630 C   0  0  0  0  0  0  0  0  0  0  0  0
   -4.8540   17.0620  -34.4700 C   0  0  0  0  0  0  0  0  0  0  0  0
   -3.9260   16.3530  -35.2540 O   0  0  0  0  0  0  0  0  0  0  0  0
   -2.5120   16.4380  -35.1200 C   0  0  0  0  0  0  0  0  0  0  0  0
   -4.7020   18.4330  -34.2110 C   0  0  0  0  0  0  0  0  0  0  0  0
   -5.6450   19.1430  -33.4420 C   0  0  0  0  0  0  0  0  0  0  0  0
   -5.6622   25.7567  -28.7311 H   0  0  0  0  0  0  0  0  0  0  0  0
   -6.6166   26.8171  -29.8225 H   0  0  0  0  0  0  0  0  0  0  0  0
   -6.8975   25.0429  -29.8225 H   0  0  0  0  0  0  0  0  0  0  0  0
   -5.5754   25.3754  -31.7482 H   0  0  0  0  0  0  0  0  0  0  0  0
   -4.5476   26.6224  -30.9174 H   0  0  0  0  0  0  0  0  0  0  0  0
   -3.1200   25.0030  -30.6450 H   0  0  0  0  0  0  0  0  0  0  0  0
   -4.6220   24.9757  -28.4538 H   0  0  0  0  0  0  0  0  0  0  0  0
   -4.8373   23.2866  -29.0293 H   0  0  0  0  0  0  0  0  0  0  0  0
   -2.5841   24.4299  -27.6559 H   0  0  0  0  0  0  0  0  0  0  0  0
   -2.7873   22.7488  -28.2807 H   0  0  0  0  0  0  0  0  0  0  0  0
   -1.4149   22.9734  -31.2324 H   0  0  0  0  0  0  0  0  0  0  0  0
   -0.3502   22.6446  -29.8166 H   0  0  0  0  0  0  0  0  0  0  0  0
   -1.6627   20.8672  -29.3510 H   0  0  0  0  0  0  0  0  0  0  0  0
   -2.9695   22.0400  -28.9355 H   0  0  0  0  0  0  0  0  0  0  0  0
   -3.0497   22.7980  -32.1762 H   0  0  0  0  0  0  0  0  0  0  0  0
   -1.4951   21.9067  -32.0007 H   0  0  0  0  0  0  0  0  0  0  0  0
   -2.2597   21.0691  -34.0393 H   0  0  0  0  0  0  0  0  0  0  0  0
   -2.9362   19.8589  -32.8860 H   0  0  0  0  0  0  0  0  0  0  0  0
   -4.4730   22.0870  -34.2380 H   0  0  0  0  0  0  0  0  0  0  0  0
   -5.2744   23.0464  -32.2841 H   0  0  0  0  0  0  0  0  0  0  0  0
   -6.8716   24.1939  -30.7630 H   0  0  0  0  0  0  0  0  0  0  0  0
   -8.8443   22.9667  -29.8699 H   0  0  0  0  0  0  0  0  0  0  0  0
   -9.2616   20.6110  -30.5384 H   0  0  0  0  0  0  0  0  0  0  0  0
   -9.2788   18.4824  -30.9639 H   0  0  0  0  0  0  0  0  0  0  0  0
   -9.8829   19.1914  -32.4998 H   0  0  0  0  0  0  0  0  0  0  0  0
   -9.1221   17.5642  -32.4998 H   0  0  0  0  0  0  0  0  0  0  0  0
   -7.7434   16.5343  -32.7198 H   0  0  0  0  0  0  0  0  0  0  0  0
   -6.7850   14.6180  -34.8690 H   0  0  0  0  0  0  0  0  0  0  0  0
   -5.9377   13.0673  -33.2468 H   0  0  0  0  0  0  0  0  0  0  0  0
   -4.4981   13.5844  -34.2031 H   0  0  0  0  0  0  0  0  0  0  0  0
   -4.3181   15.5047  -32.4228 H   0  0  0  0  0  0  0  0  0  0  0  0
   -5.3787   14.3858  -31.4301 H   0  0  0  0  0  0  0  0  0  0  0  0
   -3.6866   11.8404  -30.8211 H   0  0  0  0  0  0  0  0  0  0  0  0
   -4.5682   12.0253  -32.3752 H   0  0  0  0  0  0  0  0  0  0  0  0
   -2.7871   11.7918  -32.3752 H   0  0  0  0  0  0  0  0  0  0  0  0
   -1.4373   14.3656  -31.7168 H   0  0  0  0  0  0  0  0  0  0  0  0
   -1.8461   13.2856  -33.0927 H   0  0  0  0  0  0  0  0  0  0  0  0
   -2.4075   14.9919  -33.0927 H   0  0  0  0  0  0  0  0  0  0  0  0
   -2.2451   16.4540  -34.0530 H   0  0  0  0  0  0  0  0  0  0  0  0
   -2.0450   15.5663  -35.6017 H   0  0  0  0  0  0  0  0  0  0  0  0
   -2.1528   17.3594  -35.6017 H   0  0  0  0  0  0  0  0  0  0  0  0
   -3.8284   18.9642  -34.6169 H   0  0  0  0  0  0  0  0  0  0  0  0
  1  2  1  0
  2  3  1  0
  3  4  1  0
  4  5  1  0
  5  6  1  0
  6  7  1  0
  7  8  1  0
  8  9  1  0
  9 10  1  0
 10 11  1  0
 11 12  1  0
 12 13  1  0
 13 14  2  0
 14 15  1  0
 15 16  2  0
 16 17  1  0
 17 18  2  0
 18 19  1  0
 19 20  2  0
 20 21  1  0
 20 22  1  0
 22 23  2  0
 23 24  1  0
 24 25  1  0
 25 26  1  0
 26 27  1  0
 27 28  1  0
 28 29  1  0
 28 30  1  0
 24 31  2  0
 31 32  1  0
 32 33  1  0
 31 34  1  0
 34 35  2  0
 35 13  1  0
 19 14  1  0
 35 22  1  0
  1 36  1  0
  1 37  1  0
  1 38  1  0
  2 39  1  0
  2 40  1  0
  3 41  1  0
  4 42  1  0
  4 43  1  0
  5 44  1  0
  5 45  1  0
  7 46  1  0
  7 47  1  0
  8 48  1  0
  8 49  1  0
 10 50  1  0
 10 51  1  0
 11 52  1  0
 11 53  1  0
 12 54  1  0
 15 55  1  0
 16 56  1  0
 17 57  1  0
 18 58  1  0
 21 59  1  0
 21 60  1  0
 21 61  1  0
 23 62  1  0
 25 63  1  0
 26 64  1  0
 26 65  1  0
 27 66  1  0
 27 67  1  0
 29 68  1  0
 29 69  1  0
 29 70  1  0
 30 71  1  0
 30 72  1  0
 30 73  1  0
 33 74  1  0
 33 75  1  0
 33 76  1  0
 34 77  1  0
M  CHG  1  20   1
M  END
>  <UniqueID>  (18) 
18

>  <SMILES>  (18) 
CCNCCOCCOCCNc1c2ccccc2[n+](C)c2cc(NCCN(C)C)c(OC)cc12

>  <Energy>  (18) 
104.79713917499325

>  <Genealogy>  (18) 
CCNCCOCCOCCNc1c2ccccc2[n+](C)c2cc(NCCN(C)C)c(OC)cc12 (3D coordinates assigned)
CCNCCOCCOCCNc1c2ccccc2[n+](C)c2cc(NCCN(C)C)c(OC)cc12 (optimized conformer: 104.79713917499325 kcal/mol)

>  <smiles>  (18) 
CCNCCOCCOCCNc1c2ccccc2[n+](C)c2cc(NCCN(C)C)c(OC)cc12

>  <score_type>  (18) 
oracle

>  <origin>  (18) 
adg

>  <m_score__min__energy>  (18) 
-8.1999999999999993

>  <m_primary>  (18) 
energy

$$$$
18:0
     RDKit          3D

 42 44  0  0  0  0  0  0  0  0999 V2000
   -5.3320   25.2970  -30.4430 C   0  0  0  0  0  0  0  0  0  0  0  0
   -3.9080   25.2980  -30.4550 O   0  0  0  0  0  0  0  0  0  0  0  0
   -3.1150   24.1870  -30.1310 C   0  0  0  0  0  0  0  0  0  0  0  0
   -2.2040   24.3050  -29.0560 C   0  0  0  0  0  0  0  0  0  0  0  0
   -1.3780   23.2280  -28.6870 C   0  0  0  0  0  0  0  0  0  0  0  0
   -1.4900   22.0430  -29.4090 C   0  0  0  0  0  0  0  0  0  0  0  0
   -0.7850   20.9120  -29.2330 N   0  0  0  0  0  0  0  0  0  0  0  0
   -1.2240   20.0470  -30.1770 C   0  0  0  0  0  0  0  0  0  0  0  0
   -2.2240   20.6360  -30.9450 C   0  0  0  0  0  0  0  0  0  0  0  0
   -2.9110   20.0320  -32.1330 C   0  0  0  0  0  0  0  0  0  0  0  0
   -3.0100   21.0500  -33.2740 C   0  0  0  0  0  0  0  0  0  0  0  0
   -4.3920   21.5320  -33.4220 N   0  0  0  0  0  0  0  0  0  0  0  0
   -5.3510   20.4640  -33.1030 C   0  0  0  0  0  0  0  0  0  0  0  0
   -6.6350   21.0490  -32.5630 C   0  0  0  0  0  0  0  0  0  0  0  0
   -6.7150   22.4350  -32.3350 C   0  0  0  0  0  0  0  0  0  0  0  0
   -7.9000   23.0080  -31.8660 C   0  0  0  0  0  0  0  0  0  0  0  0
   -9.0190   22.2090  -31.6300 C   0  0  0  0  0  0  0  0  0  0  0  0
   -8.9590   20.8350  -31.8680 C   0  0  0  0  0  0  0  0  0  0  0  0
   -7.7780   20.2470  -32.3380 C   0  0  0  0  0  0  0  0  0  0  0  0
   -7.7720   18.5130  -32.6410 Cl  0  0  0  0  0  0  0  0  0  0  0  0
   -2.3740   21.9160  -30.4480 C   0  0  0  0  0  0  0  0  0  0  0  0
   -3.2030   22.9650  -30.8440 C   0  0  0  0  0  0  0  0  0  0  0  0
   -5.6899   25.2967  -29.4029 H   0  0  0  0  0  0  0  0  0  0  0  0
   -5.7037   26.1949  -30.9584 H   0  0  0  0  0  0  0  0  0  0  0  0
   -5.7024   24.3986  -30.9584 H   0  0  0  0  0  0  0  0  0  0  0  0
   -2.1404   25.2523  -28.5005 H   0  0  0  0  0  0  0  0  0  0  0  0
   -0.6656   23.3192  -27.8538 H   0  0  0  0  0  0  0  0  0  0  0  0
   -0.0390   20.7370  -28.5240 H   0  0  0  0  0  0  0  0  0  0  0  0
   -0.8444   19.0241  -30.3172 H   0  0  0  0  0  0  0  0  0  0  0  0
   -2.3376   19.1584  -32.4767 H   0  0  0  0  0  0  0  0  0  0  0  0
   -3.9267   19.7289  -31.8391 H   0  0  0  0  0  0  0  0  0  0  0  0
   -2.3514   21.9034  -33.0548 H   0  0  0  0  0  0  0  0  0  0  0  0
   -2.7032   20.5622  -34.2110 H   0  0  0  0  0  0  0  0  0  0  0  0
   -4.5410   21.8490  -34.4090 H   0  0  0  0  0  0  0  0  0  0  0  0
   -4.5480   22.3380  -32.7720 H   0  0  0  0  0  0  0  0  0  0  0  0
   -5.5704   19.8902  -34.0155 H   0  0  0  0  0  0  0  0  0  0  0  0
   -4.9104   19.8072  -32.3385 H   0  0  0  0  0  0  0  0  0  0  0  0
   -5.8389   23.0718  -32.5272 H   0  0  0  0  0  0  0  0  0  0  0  0
   -7.9507   24.0914  -31.6825 H   0  0  0  0  0  0  0  0  0  0  0  0
   -9.9490   22.6621  -31.2562 H   0  0  0  0  0  0  0  0  0  0  0  0
   -9.8453   20.2097  -31.6852 H   0  0  0  0  0  0  0  0  0  0  0  0
   -3.9037   22.8478  -31.6838 H   0  0  0  0  0  0  0  0  0  0  0  0
  1  2  1  0
  2  3  1  0
  3  4  2  0
  4  5  1  0
  5  6  2  0
  6  7  1  0
  7  8  1  0
  8  9  2  0
  9 10  1  0
 10 11  1  0
 11 12  1  0
 12 13  1  0
 13 14  1  0
 14 15  2  0
 15 16  1  0
 16 17  2  0
 17 18  1  0
 18 19  2  0
 19 20  1  0
  9 21  1  0
 21 22  2  0
 22  3  1  0
 21  6  1  0
 19 14  1  0
  1 23  1  0
  1 24  1  0
  1 25  1  0
  4 26  1  0
  5 27  1  0
  7 28  1  0
  8 29  1  0
 10 30  1  0
 10 31  1  0
 11 32  1  0
 11 33  1  0
 12 34  1  0
 12 35  1  0
 13 36  1  0
 13 37  1  0
 15 38  1  0
 16 39  1  0
 17 40  1  0
 18 41  1  0
 22 42  1  0
M  CHG  1  12   1
M  END
>  <UniqueID>  (19) 
19

>  <SMILES>  (19) 
COc1ccc2[nH]cc(CC[NH2+]Cc3ccccc3Cl)c2c1

>  <Energy>  (19) 
72.53726220949841

>  <Genealogy>  (19) 
COc1ccc2[nH]cc(CC[NH2+]Cc3ccccc3Cl)c2c1 (protonated)
COc1ccc2[nH]cc(CC[NH2+]Cc3ccccc3Cl)c2c1 (3D coordinates assigned)
COc1ccc2[nH]cc(CC[NH2+]Cc3ccccc3Cl)c2c1 (optimized conformer: 72.53726220949841 kcal/mol)

>  <smiles>  (19) 
COc1ccc2[nH]cc(CCNCc3ccccc3Cl)c2c1

>  <score_type>  (19) 
oracle

>  <origin>  (19) 
adg

>  <m_score__min__energy>  (19) 
-7.5999999999999996

>  <m_primary>  (19) 
energy

$$$$
19:0
     RDKit          3D

 53 55  0  0  0  0  0  0  0  0999 V2000
   -6.3680   24.7200  -30.2490 C   0  0  0  0  0  0  0  0  0  0  0  0
   -4.8730   24.7300  -30.2360 C   0  0  0  0  0  0  0  0  0  0  0  0
   -4.2550   25.6440  -30.8390 O   0  0  0  0  0  0  0  0  0  0  0  0
   -4.1450   23.6480  -29.6360 N   0  0  0  0  0  0  0  0  0  0  0  0
   -3.7330   23.8350  -28.2370 C   0  0  0  0  0  0  0  0  0  0  0  0
   -2.6080   22.8700  -27.8390 C   0  0  0  0  0  0  0  0  0  0  0  0
   -1.5010   22.8720  -28.9000 C   0  0  0  0  0  0  0  0  0  0  0  0
   -2.0210   22.6110  -30.3340 C   0  0  0  0  0  0  0  0  0  0  0  0
   -3.5600   22.5360  -30.4200 C   0  0  2  0  0  0  0  0  0  0  0  0
   -4.0330   22.4720  -31.8960 C   0  0  0  0  0  0  0  0  0  0  0  0
   -4.5450   21.1160  -32.2200 N   0  0  0  0  0  0  0  0  0  0  0  0
   -3.7670   20.4820  -33.3100 C   0  0  0  0  0  0  0  0  0  0  0  0
   -3.8270   18.9400  -33.2890 C   0  0  0  0  0  0  0  0  0  0  0  0
   -5.0450   18.4130  -32.6510 N   0  0  0  0  0  0  0  0  0  0  0  0
   -6.4580   18.5080  -33.6810 S   0  0  0  0  0  0  0  0  0  0  0  0
   -6.0510   18.9240  -35.0680 O   0  0  0  0  0  0  0  0  0  0  0  0
   -7.0810   17.1440  -33.7710 O   0  0  0  0  0  0  0  0  0  0  0  0
   -7.6720   19.6290  -33.0850 C   0  0  0  0  0  0  0  0  0  0  0  0
   -8.9400   19.3080  -32.6420 C   0  0  0  0  0  0  0  0  0  0  0  0
   -9.4760   20.4010  -32.0690 N   0  0  0  0  0  0  0  0  0  0  0  0
   -8.6000   21.3900  -32.1360 N   0  0  0  0  0  0  0  0  0  0  0  0
   -8.7630   22.6840  -31.4860 C   0  0  0  0  0  0  0  0  0  0  0  0
   -7.4760   20.9500  -32.7310 C   0  0  0  0  0  0  0  0  0  0  0  0
   -5.2880   18.9400  -31.2920 C   0  0  0  0  0  0  0  0  0  0  0  0
   -4.5690   20.2690  -31.0140 C   0  0  0  0  0  0  0  0  0  0  0  0
   -6.7437   24.7175  -29.2151 H   0  0  0  0  0  0  0  0  0  0  0  0
   -6.7361   25.6157  -30.7707 H   0  0  0  0  0  0  0  0  0  0  0  0
   -6.7241   23.8195  -30.7707 H   0  0  0  0  0  0  0  0  0  0  0  0
   -3.3788   24.8681  -28.1054 H   0  0  0  0  0  0  0  0  0  0  0  0
   -4.6021   23.6295  -27.5948 H   0  0  0  0  0  0  0  0  0  0  0  0
   -2.1852   23.1849  -26.8736 H   0  0  0  0  0  0  0  0  0  0  0  0
   -3.0219   21.8541  -27.7574 H   0  0  0  0  0  0  0  0  0  0  0  0
   -1.0039   23.8531  -28.8829 H   0  0  0  0  0  0  0  0  0  0  0  0
   -0.8121   22.0514  -28.6509 H   0  0  0  0  0  0  0  0  0  0  0  0
   -1.6741   23.4268  -30.9853 H   0  0  0  0  0  0  0  0  0  0  0  0
   -1.6286   21.6333  -30.6504 H   0  0  0  0  0  0  0  0  0  0  0  0
   -3.9263   21.6021  -29.9687 H   0  0  0  0  0  0  0  0  0  0  0  0
   -4.8352   23.2084  -32.0513 H   0  0  0  0  0  0  0  0  0  0  0  0
   -3.1797   22.6964  -32.5530 H   0  0  0  0  0  0  0  0  0  0  0  0
   -4.1658   20.8334  -34.2730 H   0  0  0  0  0  0  0  0  0  0  0  0
   -2.7146   20.7680  -33.1666 H   0  0  0  0  0  0  0  0  0  0  0  0
   -3.7902   18.5750  -34.3260 H   0  0  0  0  0  0  0  0  0  0  0  0
   -2.9702   18.5887  -32.6953 H   0  0  0  0  0  0  0  0  0  0  0  0
   -9.4280   18.3271  -32.7407 H   0  0  0  0  0  0  0  0  0  0  0  0
  -10.4080   20.4540  -31.5990 H   0  0  0  0  0  0  0  0  0  0  0  0
   -8.7462   22.5506  -30.3942 H   0  0  0  0  0  0  0  0  0  0  0  0
   -7.9418   23.3513  -31.7865 H   0  0  0  0  0  0  0  0  0  0  0  0
   -9.7240   23.1268  -31.7865 H   0  0  0  0  0  0  0  0  0  0  0  0
   -6.5628   21.5381  -32.9048 H   0  0  0  0  0  0  0  0  0  0  0  0
   -6.3697   19.0962  -31.1671 H   0  0  0  0  0  0  0  0  0  0  0  0
   -4.8892   18.2009  -30.5816 H   0  0  0  0  0  0  0  0  0  0  0  0
   -5.0965   20.8025  -30.2096 H   0  0  0  0  0  0  0  0  0  0  0  0
   -3.5326   20.0523  -30.7159 H   0  0  0  0  0  0  0  0  0  0  0  0
  1  2  1  0
  2  3  2  0
  2  4  1  0
  4  5  1  0
  5  6  1  0
  6  7  1  0
  7  8  1  0
  8  9  1  0
  9 10  1  0
 10 11  1  0
 11 12  1  0
 12 13  1  0
 13 14  1  0
 14 15  1  0
 15 16  2  0
 15 17  2  0
 15 18  1  0
 18 19  1  0
 19 20  2  0
 20 21  1  0
 21 22  1  0
 21 23  1  0
 14 24  1  0
 24 25  1  0
  9  4  1  0
 25 11  1  0
 23 18  2  0
  1 26  1  0
  1 27  1  0
  1 28  1  0
  5 29  1  0
  5 30  1  0
  6 31  1  0
  6 32  1  0
  7 33  1  0
  7 34  1  0
  8 35  1  0
  8 36  1  0
  9 37  1  1
 10 38  1  0
 10 39  1  0
 12 40  1  0
 12 41  1  0
 13 42  1  0
 13 43  1  0
 19 44  1  0
 20 45  1  0
 22 46  1  0
 22 47  1  0
 22 48  1  0
 23 49  1  0
 24 50  1  0
 24 51  1  0
 25 52  1  0
 25 53  1  0
M  CHG  1  20   1
M  END
>  <UniqueID>  (20) 
20

>  <SMILES>  (20) 
CC(=O)N1CCCC[C@@H]1CN1CCN(S(=O)(=O)c2c[nH+]n(C)c2)CC1

>  <Energy>  (20) 
101.17492705344522

>  <Genealogy>  (20) 
CC(=O)N1CCCCC1CN1CCN(S(=O)(=O)c2c[nH+]n(C)c2)CC1 (protonated)
CC(=O)N1CCCC[C@@H]1CN1CCN(S(=O)(=O)c2c[nH+]n(C)c2)CC1 (chirality)
CC(=O)N1CCCC[C@@H]1CN1CCN(S(=O)(=O)c2c[nH+]n(C)c2)CC1 (3D coordinates assigned)
CC(=O)N1CCCC[C@@H]1CN1CCN(S(=O)(=O)c2c[nH+]n(C)c2)CC1 (nonaromatic ring conformer: 101.17492705344522 kcal/mol)

>  <smiles>  (20) 
CC(=O)N1CCCCC1CN1CCN(S(=O)(=O)c2cnn(C)c2)CC1

>  <score_type>  (20) 
oracle

>  <origin>  (20) 
adg

>  <m_score__min__energy>  (20) 
-9.3599999999999994

>  <m_primary>  (20) 
energy

$$$$
20:0
     RDKit          3D

 48 50  0  0  0  0  0  0  0  0999 V2000
   -2.0050   20.5320  -31.1410 C   0  0  0  0  0  0  0  0  0  0  0  0
   -2.0250   21.1690  -32.8510 S   0  0  0  0  0  0  0  0  0  0  0  0
   -2.9100   19.7460  -33.5240 C   0  0  0  0  0  0  0  0  0  0  0  0
   -2.0890   18.8060  -34.1530 C   0  0  0  0  0  0  0  0  0  0  0  0
   -2.5560   17.5380  -34.4390 C   0  0  0  0  0  0  0  0  0  0  0  0
   -3.8580   17.1910  -34.1230 C   0  0  0  0  0  0  0  0  0  0  0  0
   -4.7740   18.1430  -33.6070 C   0  0  0  0  0  0  0  0  0  0  0  0
   -4.3090   19.4700  -33.3300 C   0  0  0  0  0  0  0  0  0  0  0  0
   -5.2750   20.4520  -32.9330 C   0  0  0  0  0  0  0  0  0  0  0  0
   -5.0220   21.8790  -33.0920 N   0  0  0  0  0  0  0  0  0  0  0  0
   -4.6030   22.6380  -31.8790 C   0  0  0  0  0  0  0  0  0  0  0  0
   -5.5340   23.8080  -31.4470 C   0  0  0  0  0  0  0  0  0  0  0  0
   -4.8380   24.9150  -30.7530 N   0  0  0  0  0  0  0  0  0  0  0  0
   -3.7980   24.4490  -29.8220 C   0  0  0  0  0  0  0  0  0  0  0  0
   -5.7540   25.8630  -30.0990 C   0  0  0  0  0  0  0  0  0  0  0  0
   -6.5760   20.0170  -32.5590 C   0  0  0  0  0  0  0  0  0  0  0  0
   -7.5470   20.9170  -32.0540 C   0  0  0  0  0  0  0  0  0  0  0  0
   -8.7800   20.4640  -31.5940 C   0  0  0  0  0  0  0  0  0  0  0  0
   -9.0790   19.1100  -31.6280 C   0  0  0  0  0  0  0  0  0  0  0  0
   -8.1680   18.2110  -32.1730 C   0  0  0  0  0  0  0  0  0  0  0  0
   -6.9280   18.6520  -32.7030 C   0  0  0  0  0  0  0  0  0  0  0  0
   -6.0920   17.7940  -33.3810 N   0  0  0  0  0  0  0  0  0  0  0  0
   -6.6260   16.5160  -33.9070 C   0  0  0  0  0  0  0  0  0  0  0  0
   -2.0315   21.3753  -30.4352 H   0  0  0  0  0  0  0  0  0  0  0  0
   -2.8834   19.8902  -30.9785 H   0  0  0  0  0  0  0  0  0  0  0  0
   -1.0880   19.9465  -30.9785 H   0  0  0  0  0  0  0  0  0  0  0  0
   -1.0584   19.0793  -34.4236 H   0  0  0  0  0  0  0  0  0  0  0  0
   -1.8925   16.8032  -34.9184 H   0  0  0  0  0  0  0  0  0  0  0  0
   -4.1899   16.1534  -34.2755 H   0  0  0  0  0  0  0  0  0  0  0  0
   -5.8900   22.3190  -33.4740 H   0  0  0  0  0  0  0  0  0  0  0  0
   -4.3530   22.0480  -33.8750 H   0  0  0  0  0  0  0  0  0  0  0  0
   -4.5457   21.9274  -31.0413 H   0  0  0  0  0  0  0  0  0  0  0  0
   -3.6427   23.1062  -32.1409 H   0  0  0  0  0  0  0  0  0  0  0  0
   -6.0164   24.2152  -32.3478 H   0  0  0  0  0  0  0  0  0  0  0  0
   -6.2544   23.3891  -30.7290 H   0  0  0  0  0  0  0  0  0  0  0  0
   -4.1376   24.6012  -28.7869 H   0  0  0  0  0  0  0  0  0  0  0  0
   -3.6067   23.3791  -29.9916 H   0  0  0  0  0  0  0  0  0  0  0  0
   -2.8722   25.0184  -29.9916 H   0  0  0  0  0  0  0  0  0  0  0  0
   -5.6620   25.7678  -29.0070 H   0  0  0  0  0  0  0  0  0  0  0  0
   -5.4965   26.8890  -30.4006 H   0  0  0  0  0  0  0  0  0  0  0  0
   -6.7883   25.6409  -30.4006 H   0  0  0  0  0  0  0  0  0  0  0  0
   -7.3222   21.9934  -32.0250 H   0  0  0  0  0  0  0  0  0  0  0  0
   -9.5178   21.1802  -31.2032 H   0  0  0  0  0  0  0  0  0  0  0  0
  -10.0358   18.7473  -31.2243 H   0  0  0  0  0  0  0  0  0  0  0  0
   -8.4134   17.1389  -32.1934 H   0  0  0  0  0  0  0  0  0  0  0  0
   -6.9001   15.8600  -33.0676 H   0  0  0  0  0  0  0  0  0  0  0  0
   -7.5159   16.7159  -34.5219 H   0  0  0  0  0  0  0  0  0  0  0  0
   -5.8585   16.0233  -34.5219 H   0  0  0  0  0  0  0  0  0  0  0  0
  1  2  1  0
  2  3  1  0
  3  4  2  0
  4  5  1  0
  5  6  2  0
  6  7  1  0
  7  8  2  0
  8  9  1  0
  9 10  1  0
 10 11  1  0
 11 12  1  0
 12 13  1  0
 13 14  1  0
 13 15  1  0
  9 16  2  0
 16 17  1  0
 17 18  2  0
 18 19  1  0
 19 20  2  0
 20 21  1  0
 21 22  2  0
 22 23  1  0
  8  3  1  0
 21 16  1  0
 22  7  1  0
  1 24  1  0
  1 25  1  0
  1 26  1  0
  4 27  1  0
  5 28  1  0
  6 29  1  0
 10 30  1  0
 10 31  1  0
 11 32  1  0
 11 33  1  0
 12 34  1  0
 12 35  1  0
 14 36  1  0
 14 37  1  0
 14 38  1  0
 15 39  1  0
 15 40  1  0
 15 41  1  0
 17 42  1  0
 18 43  1  0
 19 44  1  0
 20 45  1  0
 23 46  1  0
 23 47  1  0
 23 48  1  0
M  CHG  2  10   1  22   1
M  END
>  <UniqueID>  (21) 
21

>  <SMILES>  (21) 
CSc1cccc2c1c([NH2+]CCN(C)C)c1ccccc1[n+]2C

>  <Energy>  (21) 
95.65117258299954

>  <Genealogy>  (21) 
CSc1cccc2c1c([NH2+]CCN(C)C)c1ccccc1[n+]2C (protonated)
CSc1cccc2c1c([NH2+]CCN(C)C)c1ccccc1[n+]2C (3D coordinates assigned)
CSc1cccc2c1c([NH2+]CCN(C)C)c1ccccc1[n+]2C (optimized conformer: 95.65117258299954 kcal/mol)

>  <smiles>  (21) 
CSc1cccc2c1c(NCCN(C)C)c1ccccc1[n+]2C

>  <score_type>  (21) 
oracle

>  <origin>  (21) 
adg

>  <m_score__min__energy>  (21) 
-7.71

>  <m_primary>  (21) 
energy

$$$$
21:0
     RDKit          3D

 54 55  0  0  0  0  0  0  0  0999 V2000
   -0.7730   24.5470  -24.4650 C   0  0  0  0  0  0  0  0  0  0  0  0
   -0.6820   26.0680  -24.3070 C   0  0  0  0  0  0  0  0  0  0  0  0
   -1.5250   26.8060  -25.2840 N   0  0  0  0  0  0  0  0  0  0  0  0
   -0.8350   27.9780  -25.8910 C   0  0  0  0  0  0  0  0  0  0  0  0
   -0.8590   29.2500  -25.0280 C   0  0  0  0  0  0  0  0  0  0  0  0
   -2.0440   25.8880  -26.3350 C   0  0  0  0  0  0  0  0  0  0  0  0
   -1.1300   25.8320  -27.5710 C   0  0  0  0  0  0  0  0  0  0  0  0
   -1.9100   25.6490  -28.7370 O   0  0  0  0  0  0  0  0  0  0  0  0
   -2.3090   24.2990  -28.8660 C   0  0  0  0  0  0  0  0  0  0  0  0
   -3.7580   24.2420  -29.3590 C   0  0  0  0  0  0  0  0  0  0  0  0
   -3.9710   25.0810  -30.4820 O   0  0  0  0  0  0  0  0  0  0  0  0
   -5.3470   25.1870  -30.8230 C   0  0  2  0  0  0  0  0  0  0  0  0
   -6.1220   25.6320  -29.5840 C   0  0  0  0  0  0  0  0  0  0  0  0
   -5.8770   23.8490  -31.2950 C   0  0  0  0  0  0  0  0  0  0  0  0
   -5.0210   22.9250  -31.9530 C   0  0  0  0  0  0  0  0  0  0  0  0
   -5.5200   21.6920  -32.4380 C   0  0  0  0  0  0  0  0  0  0  0  0
   -4.7270   20.7610  -33.1250 O   0  0  0  0  0  0  0  0  0  0  0  0
   -3.3070   20.8160  -33.1850 C   0  0  0  0  0  0  0  0  0  0  0  0
   -6.8680   21.4180  -32.2150 C   0  0  0  0  0  0  0  0  0  0  0  0
   -7.6360   20.3290  -32.5590 C   0  0  0  0  0  0  0  0  0  0  0  0
   -8.9050   20.6270  -32.0760 C   0  0  0  0  0  0  0  0  0  0  0  0
   -8.9070   21.8080  -31.4860 O   0  0  0  0  0  0  0  0  0  0  0  0
   -7.6920   22.2930  -31.5640 C   0  0  0  0  0  0  0  0  0  0  0  0
   -7.2340   23.5160  -31.0850 C   0  0  0  0  0  0  0  0  0  0  0  0
   -0.8012   24.0762  -23.4713 H   0  0  0  0  0  0  0  0  0  0  0  0
   -1.6881   24.2900  -25.0186 H   0  0  0  0  0  0  0  0  0  0  0  0
    0.1050   24.1827  -25.0186 H   0  0  0  0  0  0  0  0  0  0  0  0
   -1.0082   26.3348  -23.2909 H   0  0  0  0  0  0  0  0  0  0  0  0
    0.3635   26.3556  -24.4920 H   0  0  0  0  0  0  0  0  0  0  0  0
   -2.3440   27.1970  -24.7610 H   0  0  0  0  0  0  0  0  0  0  0  0
    0.2152   27.7038  -26.0694 H   0  0  0  0  0  0  0  0  0  0  0  0
   -1.3804   28.2174  -26.8158 H   0  0  0  0  0  0  0  0  0  0  0  0
   -0.8537   28.9713  -23.9639 H   0  0  0  0  0  0  0  0  0  0  0  0
    0.0278   29.8614  -25.2513 H   0  0  0  0  0  0  0  0  0  0  0  0
   -1.7682   29.8275  -25.2513 H   0  0  0  0  0  0  0  0  0  0  0  0
   -2.1262   24.8764  -25.9108 H   0  0  0  0  0  0  0  0  0  0  0  0
   -3.0228   26.2707  -26.6598 H   0  0  0  0  0  0  0  0  0  0  0  0
   -0.5677   26.7739  -27.6521 H   0  0  0  0  0  0  0  0  0  0  0  0
   -0.4301   24.9898  -27.4668 H   0  0  0  0  0  0  0  0  0  0  0  0
   -1.6548   23.7904  -29.5895 H   0  0  0  0  0  0  0  0  0  0  0  0
   -2.2330   23.7983  -27.8895 H   0  0  0  0  0  0  0  0  0  0  0  0
   -3.9970   23.2056  -29.6397 H   0  0  0  0  0  0  0  0  0  0  0  0
   -4.4079   24.5938  -28.5442 H   0  0  0  0  0  0  0  0  0  0  0  0
   -5.4686   25.9192  -31.6349 H   0  0  0  0  0  0  0  0  0  0  0  0
   -5.5786   25.3200  -28.6799 H   0  0  0  0  0  0  0  0  0  0  0  0
   -6.2255   26.7271  -29.5900 H   0  0  0  0  0  0  0  0  0  0  0  0
   -7.1200   25.1693  -29.5900 H   0  0  0  0  0  0  0  0  0  0  0  0
   -3.9573   23.1708  -32.0872 H   0  0  0  0  0  0  0  0  0  0  0  0
   -2.8972   20.8319  -32.1643 H   0  0  0  0  0  0  0  0  0  0  0  0
   -2.9280   19.9319  -33.7186 H   0  0  0  0  0  0  0  0  0  0  0  0
   -2.9976   21.7268  -33.7186 H   0  0  0  0  0  0  0  0  0  0  0  0
   -7.3167   19.4240  -33.0966 H   0  0  0  0  0  0  0  0  0  0  0  0
   -9.7832   19.9716  -32.1718 H   0  0  0  0  0  0  0  0  0  0  0  0
   -7.9098   24.2050  -30.5572 H   0  0  0  0  0  0  0  0  0  0  0  0
  1  2  1  0
  2  3  1  0
  3  4  1  0
  4  5  1  0
  3  6  1  0
  6  7  1  0
  7  8  1  0
  8  9  1  0
  9 10  1  0
 10 11  1  0
 11 12  1  0
 12 13  1  0
 12 14  1  0
 14 15  2  0
 15 16  1  0
 16 17  1  0
 17 18  1  0
 16 19  2  0
 19 20  1  0
 20 21  2  0
 21 22  1  0
 22 23  1  0
 23 24  2  0
 24 14  1  0
 23 19  1  0
  1 25  1  0
  1 26  1  0
  1 27  1  0
  2 28  1  0
  2 29  1  0
  3 30  1  0
  4 31  1  0
  4 32  1  0
  5 33  1  0
  5 34  1  0
  5 35  1  0
  6 36  1  0
  6 37  1  0
  7 38  1  0
  7 39  1  0
  9 40  1  0
  9 41  1  0
 10 42  1  0
 10 43  1  0
 12 44  1  6
 13 45  1  0
 13 46  1  0
 13 47  1  0
 15 48  1  0
 18 49  1  0
 18 50  1  0
 18 51  1  0
 20 52  1  0
 21 53  1  0
 24 54  1  0
M  CHG  1   3   1
M  END
>  <UniqueID>  (22) 
22

>  <SMILES>  (22) 
CC[NH+](CC)CCOCCO[C@H](C)c1cc(OC)c2ccoc2c1

>  <Energy>  (22) 
87.17200954425363

>  <Genealogy>  (22) 
CC[NH+](CC)CCOCCOC(C)c1cc(OC)c2ccoc2c1 (protonated)
CC[NH+](CC)CCOCCO[C@H](C)c1cc(OC)c2ccoc2c1 (chirality)
CC[NH+](CC)CCOCCO[C@H](C)c1cc(OC)c2ccoc2c1 (3D coordinates assigned)
CC[NH+](CC)CCOCCO[C@H](C)c1cc(OC)c2ccoc2c1 (optimized conformer: 87.17200954425363 kcal/mol)

>  <smiles>  (22) 
CCN(CC)CCOCCOC(C)c1cc(OC)c2ccoc2c1

>  <score_type>  (22) 
oracle

>  <origin>  (22) 
adg

>  <m_score__min__energy>  (22) 
-7.5599999999999996

>  <m_primary>  (22) 
energy

$$$$
22:0
     RDKit          3D

 57 59  0  0  0  0  0  0  0  0999 V2000
   -8.0770   22.9310  -31.6910 C   0  0  0  0  0  0  0  0  0  0  0  0
   -7.7110   21.5740  -31.0710 C   0  0  0  0  0  0  0  0  0  0  0  0
   -7.5450   20.4870  -32.0750 N   0  0  0  0  0  0  0  0  0  0  0  0
   -8.8060   20.0590  -32.7400 C   0  0  0  0  0  0  0  0  0  0  0  0
   -9.3300   18.6820  -32.3130 C   0  0  0  0  0  0  0  0  0  0  0  0
   -6.7050   19.3330  -31.6140 C   0  0  0  0  0  0  0  0  0  0  0  0
   -5.5350   18.9020  -32.5280 C   0  0  0  0  0  0  0  0  0  0  0  0
   -5.0980   19.9710  -33.3470 O   0  0  0  0  0  0  0  0  0  0  0  0
   -3.6860   20.0170  -33.4280 C   0  0  0  0  0  0  0  0  0  0  0  0
   -3.1450   21.4470  -33.2730 C   0  0  0  0  0  0  0  0  0  0  0  0
   -4.2560   22.3610  -32.9520 N   0  0  0  0  0  0  0  0  0  0  0  0
   -4.6410   22.3090  -31.5320 C   0  0  0  0  0  0  0  0  0  0  0  0
   -3.9350   23.3700  -30.7300 C   0  0  0  0  0  0  0  0  0  0  0  0
   -4.3640   24.6700  -30.4620 C   0  0  0  0  0  0  0  0  0  0  0  0
   -5.6310   25.3010  -30.9390 C   0  0  0  0  0  0  0  0  0  0  0  0
   -3.4920   25.2910  -29.6860 O   0  0  0  0  0  0  0  0  0  0  0  0
   -2.5140   24.4530  -29.4320 C   0  0  0  0  0  0  0  0  0  0  0  0
   -2.7300   23.2550  -30.0630 C   0  0  0  0  0  0  0  0  0  0  0  0
   -1.8520   22.1810  -29.9290 C   0  0  0  0  0  0  0  0  0  0  0  0
   -0.7120   22.3560  -29.1230 C   0  0  0  0  0  0  0  0  0  0  0  0
   -0.4710   23.5920  -28.4720 C   0  0  0  0  0  0  0  0  0  0  0  0
    0.6660   23.7720  -27.6690 C   0  0  0  0  0  0  0  0  0  0  0  0
    0.8920   24.9980  -27.0330 C   0  0  0  0  0  0  0  0  0  0  0  0
   -0.0150   26.0500  -27.1870 C   0  0  0  0  0  0  0  0  0  0  0  0
   -1.1580   25.8880  -27.9790 C   0  0  0  0  0  0  0  0  0  0  0  0
   -1.3900   24.6670  -28.6280 C   0  0  0  0  0  0  0  0  0  0  0  0
   -8.2734   23.6590  -30.8901 H   0  0  0  0  0  0  0  0  0  0  0  0
   -7.2427   23.2867  -32.3134 H   0  0  0  0  0  0  0  0  0  0  0  0
   -8.9770   22.8190  -32.3134 H   0  0  0  0  0  0  0  0  0  0  0  0
   -6.7654   21.6866  -30.5204 H   0  0  0  0  0  0  0  0  0  0  0  0
   -8.5444   21.2832  -30.4145 H   0  0  0  0  0  0  0  0  0  0  0  0
   -6.9920   20.9230  -32.8520 H   0  0  0  0  0  0  0  0  0  0  0  0
   -9.5818   20.8048  -32.5123 H   0  0  0  0  0  0  0  0  0  0  0  0
   -8.5761   19.9809  -33.8129 H   0  0  0  0  0  0  0  0  0  0  0  0
   -9.3526   18.6227  -31.2148 H   0  0  0  0  0  0  0  0  0  0  0  0
  -10.3460   18.5374  -32.7090 H   0  0  0  0  0  0  0  0  0  0  0  0
   -8.6672   17.8985  -32.7090 H   0  0  0  0  0  0  0  0  0  0  0  0
   -6.2792   19.6032  -30.6364 H   0  0  0  0  0  0  0  0  0  0  0  0
   -7.3885   18.4712  -31.6025 H   0  0  0  0  0  0  0  0  0  0  0  0
   -4.6962   18.5656  -31.9009 H   0  0  0  0  0  0  0  0  0  0  0  0
   -5.8864   18.0883  -33.1794 H   0  0  0  0  0  0  0  0  0  0  0  0
   -3.2641   19.3895  -32.6291 H   0  0  0  0  0  0  0  0  0  0  0  0
   -3.3913   19.6489  -34.4218 H   0  0  0  0  0  0  0  0  0  0  0  0
   -2.4032   21.4723  -32.4611 H   0  0  0  0  0  0  0  0  0  0  0  0
   -2.6704   21.7632  -34.2136 H   0  0  0  0  0  0  0  0  0  0  0  0
   -5.0930   22.0690  -33.5080 H   0  0  0  0  0  0  0  0  0  0  0  0
   -5.7272   22.4625  -31.4502 H   0  0  0  0  0  0  0  0  0  0  0  0
   -4.3536   21.3254  -31.1321 H   0  0  0  0  0  0  0  0  0  0  0  0
   -6.2385   25.6035  -30.0733 H   0  0  0  0  0  0  0  0  0  0  0  0
   -5.3934   26.1860  -31.5475 H   0  0  0  0  0  0  0  0  0  0  0  0
   -6.1942   24.5781  -31.5475 H   0  0  0  0  0  0  0  0  0  0  0  0
   -2.0445   21.2251  -30.4381 H   0  0  0  0  0  0  0  0  0  0  0  0
   -0.0012   21.5260  -28.9969 H   0  0  0  0  0  0  0  0  0  0  0  0
    1.3817   22.9468  -27.5391 H   0  0  0  0  0  0  0  0  0  0  0  0
    1.7876   25.1342  -26.4091 H   0  0  0  0  0  0  0  0  0  0  0  0
    0.1701   27.0102  -26.6833 H   0  0  0  0  0  0  0  0  0  0  0  0
   -1.8724   26.7168  -28.0919 H   0  0  0  0  0  0  0  0  0  0  0  0
  1  2  1  0
  2  3  1  0
  3  4  1  0
  4  5  1  0
  3  6  1  0
  6  7  1  0
  7  8  1  0
  8  9  1  0
  9 10  1  0
 10 11  1  0
 11 12  1  0
 12 13  1  0
 13 14  2  0
 14 15  1  0
 14 16  1  0
 16 17  1  0
 17 18  2  0
 18 19  1  0
 19 20  2  0
 20 21  1  0
 21 22  2  0
 22 23  1  0
 23 24  2  0
 24 25  1  0
 25 26  2  0
 18 13  1  0
 26 21  1  0
 26 17  1  0
  1 27  1  0
  1 28  1  0
  1 29  1  0
  2 30  1  0
  2 31  1  0
  3 32  1  0
  4 33  1  0
  4 34  1  0
  5 35  1  0
  5 36  1  0
  5 37  1  0
  6 38  1  0
  6 39  1  0
  7 40  1  0
  7 41  1  0
  9 42  1  0
  9 43  1  0
 10 44  1  0
 10 45  1  0
 11 46  1  0
 12 47  1  0
 12 48  1  0
 15 49  1  0
 15 50  1  0
 15 51  1  0
 19 52  1  0
 20 53  1  0
 22 54  1  0
 23 55  1  0
 24 56  1  0
 25 57  1  0
M  CHG  1   3   1
M  END
>  <UniqueID>  (23) 
23

>  <SMILES>  (23) 
CC[NH+](CC)CCOCCNCc1c(C)oc2c1ccc1ccccc12

>  <Energy>  (23) 
100.2245478518805

>  <Genealogy>  (23) 
CC[NH+](CC)CCOCCNCc1c(C)oc2c1ccc1ccccc12 (protonated)
CC[NH+](CC)CCOCCNCc1c(C)oc2c1ccc1ccccc12 (3D coordinates assigned)
CC[NH+](CC)CCOCCNCc1c(C)oc2c1ccc1ccccc12 (optimized conformer: 100.2245478518805 kcal/mol)

>  <smiles>  (23) 
CCN(CC)CCOCCNCc1c(C)oc2c1ccc1ccccc12

>  <score_type>  (23) 
oracle

>  <origin>  (23) 
adg

>  <m_score__min__energy>  (23) 
-8.0800000000000001

>  <m_primary>  (23) 
energy

$$$$
23:0
     RDKit          3D

 47 50  0  0  0  0  0  0  0  0999 V2000
    0.1520   20.9050  -35.6750 C   0  0  0  0  0  0  0  0  0  0  0  0
   -0.7030   20.2480  -34.5900 C   0  0  0  0  0  0  0  0  0  0  0  0
   -1.7910   21.1400  -34.1260 N   0  0  0  0  0  0  0  0  0  0  0  0
   -1.9590   21.1370  -32.6610 C   0  0  0  0  0  0  0  0  0  0  0  0
   -3.2270   21.8830  -32.2180 C   0  0  0  0  0  0  0  0  0  0  0  0
   -4.2750   21.7620  -33.2300 N   0  0  0  0  0  0  0  0  0  0  0  0
   -5.3930   20.8760  -33.0550 C   0  0  0  0  0  0  0  0  0  0  0  0
   -6.6160   21.3700  -32.5680 C   0  0  0  0  0  0  0  0  0  0  0  0
   -6.7950   22.7510  -32.3380 C   0  0  0  0  0  0  0  0  0  0  0  0
   -8.0180   23.2440  -31.8900 C   0  0  0  0  0  0  0  0  0  0  0  0
   -9.0830   22.3760  -31.6780 C   0  0  0  0  0  0  0  0  0  0  0  0
   -8.9260   21.0070  -31.8870 C   0  0  0  0  0  0  0  0  0  0  0  0
   -7.6820   20.4680  -32.3020 C   0  0  0  0  0  0  0  0  0  0  0  0
   -7.4940   19.1070  -32.4630 N   0  0  0  0  0  0  0  0  0  0  0  0
   -8.4620   18.1510  -31.8850 C   0  0  0  0  0  0  0  0  0  0  0  0
   -6.3800   18.6440  -33.1330 C   0  0  0  0  0  0  0  0  0  0  0  0
   -6.2530   17.3130  -33.5950 C   0  0  0  0  0  0  0  0  0  0  0  0
   -5.1370   16.8680  -34.2330 C   0  0  0  0  0  0  0  0  0  0  0  0
   -4.0530   17.6910  -34.4870 C   0  0  0  0  0  0  0  0  0  0  0  0
   -4.1360   19.0300  -34.0860 C   0  0  0  0  0  0  0  0  0  0  0  0
   -5.2900   19.5220  -33.4150 C   0  0  0  0  0  0  0  0  0  0  0  0
   -5.2900   15.5420  -34.5880 O   0  0  0  0  0  0  0  0  0  0  0  0
   -6.5900   15.1180  -34.1660 C   0  0  0  0  0  0  0  0  0  0  0  0
   -7.1690   16.2740  -33.5510 O   0  0  0  0  0  0  0  0  0  0  0  0
    0.9402   21.5107  -35.2040 H   0  0  0  0  0  0  0  0  0  0  0  0
    0.6125   20.1262  -36.3006 H   0  0  0  0  0  0  0  0  0  0  0  0
   -0.4819   21.5505  -36.3006 H   0  0  0  0  0  0  0  0  0  0  0  0
   -1.1473   19.3275  -34.9966 H   0  0  0  0  0  0  0  0  0  0  0  0
   -0.0525   20.0293  -33.7303 H   0  0  0  0  0  0  0  0  0  0  0  0
   -2.7050   20.9120  -34.5850 H   0  0  0  0  0  0  0  0  0  0  0  0
   -1.5530   22.1200  -34.4070 H   0  0  0  0  0  0  0  0  0  0  0  0
   -2.0223   20.0950  -32.3143 H   0  0  0  0  0  0  0  0  0  0  0  0
   -1.0933   21.6546  -32.2219 H   0  0  0  0  0  0  0  0  0  0  0  0
   -3.5871   21.4535  -31.2715 H   0  0  0  0  0  0  0  0  0  0  0  0
   -2.9839   22.9475  -32.0846 H   0  0  0  0  0  0  0  0  0  0  0  0
   -4.2420   22.3740  -34.0770 H   0  0  0  0  0  0  0  0  0  0  0  0
   -5.9600   23.4450  -32.5144 H   0  0  0  0  0  0  0  0  0  0  0  0
   -8.1414   24.3211  -31.7037 H   0  0  0  0  0  0  0  0  0  0  0  0
  -10.0536   22.7713  -31.3439 H   0  0  0  0  0  0  0  0  0  0  0  0
   -9.7811   20.3337  -31.7274 H   0  0  0  0  0  0  0  0  0  0  0  0
   -8.4136   18.1988  -30.7871 H   0  0  0  0  0  0  0  0  0  0  0  0
   -9.4775   18.4104  -32.2189 H   0  0  0  0  0  0  0  0  0  0  0  0
   -8.2153   17.1324  -32.2189 H   0  0  0  0  0  0  0  0  0  0  0  0
   -3.1536   17.3046  -34.9887 H   0  0  0  0  0  0  0  0  0  0  0  0
   -3.2972   19.7110  -34.2927 H   0  0  0  0  0  0  0  0  0  0  0  0
   -7.1916   14.7955  -35.0286 H   0  0  0  0  0  0  0  0  0  0  0  0
   -6.5447   14.2603  -33.4787 H   0  0  0  0  0  0  0  0  0  0  0  0
  1  2  1  0
  2  3  1  0
  3  4  1  0
  4  5  1  0
  5  6  1  0
  6  7  1  0
  7  8  2  0
  8  9  1  0
  9 10  2  0
 10 11  1  0
 11 12  2  0
 12 13  1  0
 13 14  2  0
 14 15  1  0
 14 16  1  0
 16 17  2  0
 17 18  1  0
 18 19  2  0
 19 20  1  0
 20 21  2  0
 18 22  1  0
 22 23  1  0
 23 24  1  0
 21  7  1  0
 13  8  1  0
 21 16  1  0
 24 17  1  0
  1 25  1  0
  1 26  1  0
  1 27  1  0
  2 28  1  0
  2 29  1  0
  3 30  1  0
  3 31  1  0
  4 32  1  0
  4 33  1  0
  5 34  1  0
  5 35  1  0
  6 36  1  0
  9 37  1  0
 10 38  1  0
 11 39  1  0
 12 40  1  0
 15 41  1  0
 15 42  1  0
 15 43  1  0
 19 44  1  0
 20 45  1  0
 23 46  1  0
 23 47  1  0
M  CHG  2   3   1  14   1
M  END
>  <UniqueID>  (24) 
24

>  <SMILES>  (24) 
CC[NH2+]CCNc1c2ccccc2[n+](C)c2c3c(ccc12)OCO3

>  <Energy>  (24) 
102.53037901143036

>  <Genealogy>  (24) 
CC[NH2+]CCNc1c2ccccc2[n+](C)c2c3c(ccc12)OCO3 (protonated)
CC[NH2+]CCNc1c2ccccc2[n+](C)c2c3c(ccc12)OCO3 (3D coordinates assigned)
CC[NH2+]CCNc1c2ccccc2[n+](C)c2c3c(ccc12)OCO3 (nonaromatic ring conformer: 102.53037901143036 kcal/mol)

>  <smiles>  (24) 
CCNCCNc1c2ccccc2[n+](C)c2c3c(ccc12)OCO3

>  <score_type>  (24) 
oracle

>  <origin>  (24) 
adg

>  <m_score__min__energy>  (24) 
-7.1799999999999997

>  <m_primary>  (24) 
energy

$$$$
24:0
     RDKit          3D

 71 73  0  0  0  0  0  0  0  0999 V2000
   -6.0610   25.1160  -29.6470 C   0  0  0  0  0  0  0  0  0  0  0  0
   -5.2280   25.6180  -30.8130 C   0  0  0  0  0  0  0  0  0  0  0  0
   -3.8710   25.2870  -30.6050 O   0  0  0  0  0  0  0  0  0  0  0  0
   -3.7640   24.1510  -29.7650 C   0  0  0  0  0  0  0  0  0  0  0  0
   -2.3260   23.9910  -29.2600 C   0  0  0  0  0  0  0  0  0  0  0  0
   -1.7950   22.7350  -29.6400 O   0  0  0  0  0  0  0  0  0  0  0  0
   -1.6590   21.8950  -28.5150 C   0  0  0  0  0  0  0  0  0  0  0  0
   -0.5410   20.8790  -28.7570 C   0  0  0  0  0  0  0  0  0  0  0  0
   -0.2040   20.8010  -30.1880 N   0  0  0  0  0  0  0  0  0  0  0  0
   -0.6170   19.5260  -30.7980 C   0  0  0  0  0  0  0  0  0  0  0  0
    0.5590   18.8110  -31.5090 C   0  0  0  0  0  0  0  0  0  0  0  0
    0.3830   18.7420  -32.9090 O   0  0  0  0  0  0  0  0  0  0  0  0
   -0.9690   18.9710  -33.2620 C   0  0  0  0  0  0  0  0  0  0  0  0
   -1.0500   20.0100  -34.3740 C   0  0  0  0  0  0  0  0  0  0  0  0
   -2.1290   20.8980  -34.1390 O   0  0  0  0  0  0  0  0  0  0  0  0
   -2.0220   21.5410  -32.8830 C   0  0  0  0  0  0  0  0  0  0  0  0
   -3.4090   21.9310  -32.3620 C   0  0  0  0  0  0  0  0  0  0  0  0
   -4.4560   21.4950  -33.2900 N   0  0  0  0  0  0  0  0  0  0  0  0
   -5.5960   20.7150  -32.8740 C   0  0  0  0  0  0  0  0  0  0  0  0
   -6.7770   21.3480  -32.4370 C   0  0  0  0  0  0  0  0  0  0  0  0
   -6.8340   22.7580  -32.3290 C   0  0  0  0  0  0  0  0  0  0  0  0
   -7.9860   23.3990  -31.9020 C   0  0  0  0  0  0  0  0  0  0  0  0
   -9.1170   22.6580  -31.5970 C   0  0  0  0  0  0  0  0  0  0  0  0
   -9.1100   21.2730  -31.7390 C   0  0  0  0  0  0  0  0  0  0  0  0
   -7.9380   20.5680  -32.1460 C   0  0  0  0  0  0  0  0  0  0  0  0
   -7.9060   19.1830  -32.2950 N   0  0  0  0  0  0  0  0  0  0  0  0
   -9.0900   18.3330  -32.0110 C   0  0  0  0  0  0  0  0  0  0  0  0
   -6.7540   18.5600  -32.7590 C   0  0  0  0  0  0  0  0  0  0  0  0
   -6.7030   17.1540  -32.9950 C   0  0  0  0  0  0  0  0  0  0  0  0
   -5.5360   16.5340  -33.4350 C   0  0  0  0  0  0  0  0  0  0  0  0
   -4.3890   17.2800  -33.6610 C   0  0  0  0  0  0  0  0  0  0  0  0
   -4.4080   18.6570  -33.4700 C   0  0  0  0  0  0  0  0  0  0  0  0
   -5.5810   19.3160  -33.0360 C   0  0  0  0  0  0  0  0  0  0  0  0
   -5.5800   25.4058  -28.7011 H   0  0  0  0  0  0  0  0  0  0  0  0
   -7.0668   25.5585  -29.6976 H   0  0  0  0  0  0  0  0  0  0  0  0
   -6.1396   24.0200  -29.6976 H   0  0  0  0  0  0  0  0  0  0  0  0
   -5.5806   25.1486  -31.7433 H   0  0  0  0  0  0  0  0  0  0  0  0
   -5.3291   26.7107  -30.8896 H   0  0  0  0  0  0  0  0  0  0  0  0
   -4.4385   24.2721  -28.9046 H   0  0  0  0  0  0  0  0  0  0  0  0
   -4.0409   23.2554  -30.3405 H   0  0  0  0  0  0  0  0  0  0  0  0
   -1.7028   24.7901  -29.6879 H   0  0  0  0  0  0  0  0  0  0  0  0
   -2.3297   24.0538  -28.1618 H   0  0  0  0  0  0  0  0  0  0  0  0
   -1.4139   22.5040  -27.6324 H   0  0  0  0  0  0  0  0  0  0  0  0
   -2.6049   21.3597  -28.3458 H   0  0  0  0  0  0  0  0  0  0  0  0
    0.3522   21.1849  -28.1926 H   0  0  0  0  0  0  0  0  0  0  0  0
   -0.8862   19.8896  -28.4224 H   0  0  0  0  0  0  0  0  0  0  0  0
   -0.6790   21.5910  -30.6860 H   0  0  0  0  0  0  0  0  0  0  0  0
   -1.0085   18.8662  -30.0097 H   0  0  0  0  0  0  0  0  0  0  0  0
   -1.3857   19.7458  -31.5535 H   0  0  0  0  0  0  0  0  0  0  0  0
    1.4871   19.3621  -31.2968 H   0  0  0  0  0  0  0  0  0  0  0  0
    0.6042   17.7806  -31.1265 H   0  0  0  0  0  0  0  0  0  0  0  0
   -1.4188   18.0295  -33.6101 H   0  0  0  0  0  0  0  0  0  0  0  0
   -1.5136   19.3423  -32.3813 H   0  0  0  0  0  0  0  0  0  0  0  0
   -0.1104   20.5810  -34.4064 H   0  0  0  0  0  0  0  0  0  0  0  0
   -1.2116   19.4961  -35.3331 H   0  0  0  0  0  0  0  0  0  0  0  0
   -1.5445   20.8575  -32.1655 H   0  0  0  0  0  0  0  0  0  0  0  0
   -1.4158   22.4515  -32.9991 H   0  0  0  0  0  0  0  0  0  0  0  0
   -3.5734   21.4555  -31.3838 H   0  0  0  0  0  0  0  0  0  0  0  0
   -3.4550   23.0261  -32.2685 H   0  0  0  0  0  0  0  0  0  0  0  0
   -4.2410   21.5290  -34.3160 H   0  0  0  0  0  0  0  0  0  0  0  0
   -5.9479   23.3558  -32.5887 H   0  0  0  0  0  0  0  0  0  0  0  0
   -8.0029   24.4946  -31.8052 H   0  0  0  0  0  0  0  0  0  0  0  0
  -10.0249   23.1669  -31.2409 H   0  0  0  0  0  0  0  0  0  0  0  0
  -10.0309   20.7081  -31.5323 H   0  0  0  0  0  0  0  0  0  0  0  0
   -9.2212   18.2388  -30.9229 H   0  0  0  0  0  0  0  0  0  0  0  0
   -9.9867   18.7949  -32.4498 H   0  0  0  0  0  0  0  0  0  0  0  0
   -8.9391   17.3357  -32.4498 H   0  0  0  0  0  0  0  0  0  0  0  0
   -7.6044   16.5467  -32.8259 H   0  0  0  0  0  0  0  0  0  0  0  0
   -5.5241   15.4471  -33.6041 H   0  0  0  0  0  0  0  0  0  0  0  0
   -3.4650   16.7827  -33.9911 H   0  0  0  0  0  0  0  0  0  0  0  0
   -3.4964   19.2427  -33.6595 H   0  0  0  0  0  0  0  0  0  0  0  0
  1  2  1  0
  2  3  1  0
  3  4  1  0
  4  5  1  0
  5  6  1  0
  6  7  1  0
  7  8  1  0
  8  9  1  0
  9 10  1  0
 10 11  1  0
 11 12  1  0
 12 13  1  0
 13 14  1  0
 14 15  1  0
 15 16  1  0
 16 17  1  0
 17 18  1  0
 18 19  1  0
 19 20  2  0
 20 21  1  0
 21 22  2  0
 22 23  1  0
 23 24  2  0
 24 25  1  0
 25 26  2  0
 26 27  1  0
 26 28  1  0
 28 29  2  0
 29 30  1  0
 30 31  2  0
 31 32  1  0
 32 33  2  0
 33 19  1  0
 25 20  1  0
 33 28  1  0
  1 34  1  0
  1 35  1  0
  1 36  1  0
  2 37  1  0
  2 38  1  0
  4 39  1  0
  4 40  1  0
  5 41  1  0
  5 42  1  0
  7 43  1  0
  7 44  1  0
  8 45  1  0
  8 46  1  0
  9 47  1  0
 10 48  1  0
 10 49  1  0
 11 50  1  0
 11 51  1  0
 13 52  1  0
 13 53  1  0
 14 54  1  0
 14 55  1  0
 16 56  1  0
 16 57  1  0
 17 58  1  0
 17 59  1  0
 18 60  1  0
 21 61  1  0
 22 62  1  0
 23 63  1  0
 24 64  1  0
 27 65  1  0
 27 66  1  0
 27 67  1  0
 29 68  1  0
 30 69  1  0
 31 70  1  0
 32 71  1  0
M  CHG  1  26   1
M  END
>  <UniqueID>  (25) 
25

>  <SMILES>  (25) 
CCOCCOCCNCCOCCOCCNc1c2ccccc2[n+](C)c2ccccc12

>  <Energy>  (25) 
96.21536385313473

>  <Genealogy>  (25) 
CCOCCOCCNCCOCCOCCNc1c2ccccc2[n+](C)c2ccccc12 (3D coordinates assigned)
CCOCCOCCNCCOCCOCCNc1c2ccccc2[n+](C)c2ccccc12 (optimized conformer: 96.21536385313473 kcal/mol)

>  <smiles>  (25) 
CCOCCOCCNCCOCCOCCNc1c2ccccc2[n+](C)c2ccccc12

>  <score_type>  (25) 
oracle

>  <origin>  (25) 
adg

>  <m_score__min__energy>  (25) 
-8.9800000000000004

>  <m_primary>  (25) 
energy

$$$$
25:0
     RDKit          3D

 85 88  0  0  0  0  0  0  0  0999 V2000
   -2.1170   16.9510  -33.7490 C   0  0  0  0  0  0  0  0  0  0  0  0
   -3.5440   16.5330  -34.0950 C   0  0  0  0  0  0  0  0  0  0  0  0
   -4.4580   16.5890  -32.8700 C   0  0  0  0  0  0  0  0  0  0  0  0
   -5.5090   17.6170  -33.0630 N   0  0  0  0  0  0  0  0  0  0  0  0
   -6.8540   17.0390  -33.2790 C   0  0  0  0  0  0  0  0  0  0  0  0
   -6.8720   15.8130  -34.2050 C   0  0  0  0  0  0  0  0  0  0  0  0
   -5.1310   18.6520  -34.0560 C   0  0  0  0  0  0  0  0  0  0  0  0
   -4.3020   19.7840  -33.4120 C   0  0  0  0  0  0  0  0  0  0  0  0
   -4.3850   19.8340  -31.9340 N   0  0  0  0  0  0  0  0  0  0  0  0
   -5.0590   21.0330  -31.4360 C   0  0  0  0  0  0  0  0  0  0  0  0
   -6.4690   21.2180  -31.5950 C   0  0  0  0  0  0  0  0  0  0  0  0
   -7.3080   20.2330  -32.1770 C   0  0  0  0  0  0  0  0  0  0  0  0
   -8.6610   20.4730  -32.3970 C   0  0  0  0  0  0  0  0  0  0  0  0
   -9.2220   21.6870  -32.0450 C   0  0  0  0  0  0  0  0  0  0  0  0
   -8.4410   22.6610  -31.4380 C   0  0  0  0  0  0  0  0  0  0  0  0
   -7.0700   22.4320  -31.1490 C   0  0  0  0  0  0  0  0  0  0  0  0
   -6.3280   23.3740  -30.4670 N   0  0  0  0  0  0  0  0  0  0  0  0
   -7.0040   24.4670  -29.7290 C   0  0  0  0  0  0  0  0  0  0  0  0
   -4.9530   23.2740  -30.4150 C   0  0  0  0  0  0  0  0  0  0  0  0
   -4.1530   24.3540  -29.9490 C   0  0  0  0  0  0  0  0  0  0  0  0
   -2.7830   24.2130  -29.7500 C   0  0  0  0  0  0  0  0  0  0  0  0
   -2.0550   25.2930  -29.2380 O   0  0  0  0  0  0  0  0  0  0  0  0
   -1.0960   25.1690  -28.1960 C   0  0  0  0  0  0  0  0  0  0  0  0
   -1.7720   25.4400  -26.8360 C   0  0  0  0  0  0  0  0  0  0  0  0
   -0.8540   25.5300  -25.6520 N   0  0  0  0  0  0  0  0  0  0  0  0
   -0.6780   24.1330  -25.1560 C   0  0  0  0  0  0  0  0  0  0  0  0
    0.4830   26.0420  -26.0870 C   0  0  0  0  0  0  0  0  0  0  0  0
    1.2870   26.6350  -24.9180 C   0  0  0  0  0  0  0  0  0  0  0  0
    0.6220   27.8370  -24.3200 N   0  0  0  0  0  0  0  0  0  0  0  0
    0.9970   27.9190  -22.8870 C   0  0  0  0  0  0  0  0  0  0  0  0
    1.1230   29.0590  -24.9990 C   0  0  0  0  0  0  0  0  0  0  0  0
   -0.8730   27.7890  -24.4460 C   0  0  0  0  0  0  0  0  0  0  0  0
   -1.4350   26.3460  -24.5310 C   0  0  0  0  0  0  0  0  0  0  0  0
   -2.1630   23.0080  -30.0720 C   0  0  0  0  0  0  0  0  0  0  0  0
   -2.9060   21.9620  -30.6120 C   0  0  0  0  0  0  0  0  0  0  0  0
   -4.3040   22.0770  -30.8260 C   0  0  0  0  0  0  0  0  0  0  0  0
   -1.9998   16.9853  -32.6558 H   0  0  0  0  0  0  0  0  0  0  0  0
   -1.4090   16.2225  -34.1710 H   0  0  0  0  0  0  0  0  0  0  0  0
   -1.9140   17.9464  -34.1710 H   0  0  0  0  0  0  0  0  0  0  0  0
   -3.9380   17.2114  -34.8661 H   0  0  0  0  0  0  0  0  0  0  0  0
   -3.5204   15.4957  -34.4604 H   0  0  0  0  0  0  0  0  0  0  0  0
   -4.9322   15.6071  -32.7250 H   0  0  0  0  0  0  0  0  0  0  0  0
   -3.8581   16.8500  -31.9857 H   0  0  0  0  0  0  0  0  0  0  0  0
   -7.2615   16.7394  -32.3022 H   0  0  0  0  0  0  0  0  0  0  0  0
   -7.4563   17.8162  -33.7722 H   0  0  0  0  0  0  0  0  0  0  0  0
   -6.8855   14.8955  -33.5984 H   0  0  0  0  0  0  0  0  0  0  0  0
   -7.7698   15.8461  -34.8398 H   0  0  0  0  0  0  0  0  0  0  0  0
   -5.9737   15.8197  -34.8398 H   0  0  0  0  0  0  0  0  0  0  0  0
   -4.5348   18.1818  -34.8519 H   0  0  0  0  0  0  0  0  0  0  0  0
   -6.0540   19.0910  -34.4626 H   0  0  0  0  0  0  0  0  0  0  0  0
   -3.2481   19.6424  -33.6934 H   0  0  0  0  0  0  0  0  0  0  0  0
   -4.7196   20.7314  -33.7836 H   0  0  0  0  0  0  0  0  0  0  0  0
   -4.7830   18.9490  -31.5730 H   0  0  0  0  0  0  0  0  0  0  0  0
   -3.4200   19.7940  -31.5400 H   0  0  0  0  0  0  0  0  0  0  0  0
   -6.8804   19.2599  -32.4601 H   0  0  0  0  0  0  0  0  0  0  0  0
   -9.2877   19.6927  -32.8534 H   0  0  0  0  0  0  0  0  0  0  0  0
  -10.2860   21.8807  -32.2458 H   0  0  0  0  0  0  0  0  0  0  0  0
   -8.8931   23.6289  -31.1759 H   0  0  0  0  0  0  0  0  0  0  0  0
   -6.8996   24.2982  -28.6471 H   0  0  0  0  0  0  0  0  0  0  0  0
   -6.5432   25.4295  -29.9961 H   0  0  0  0  0  0  0  0  0  0  0  0
   -8.0709   24.4846  -29.9961 H   0  0  0  0  0  0  0  0  0  0  0  0
   -4.6287   25.3238  -29.7410 H   0  0  0  0  0  0  0  0  0  0  0  0
   -0.6791   24.1511  -28.2013 H   0  0  0  0  0  0  0  0  0  0  0  0
   -0.2880   25.8985  -28.3543 H   0  0  0  0  0  0  0  0  0  0  0  0
   -2.3152   26.3933  -26.9141 H   0  0  0  0  0  0  0  0  0  0  0  0
   -2.4167   24.5692  -26.6462 H   0  0  0  0  0  0  0  0  0  0  0  0
   -0.6778   24.1318  -24.0560 H   0  0  0  0  0  0  0  0  0  0  0  0
   -1.5043   23.5067  -25.5233 H   0  0  0  0  0  0  0  0  0  0  0  0
    0.2779   23.7312  -25.5233 H   0  0  0  0  0  0  0  0  0  0  0  0
    1.0552   25.2108  -26.5247 H   0  0  0  0  0  0  0  0  0  0  0  0
    0.3148   26.8433  -26.8216 H   0  0  0  0  0  0  0  0  0  0  0  0
    1.3958   25.8668  -24.1383 H   0  0  0  0  0  0  0  0  0  0  0  0
    2.2646   26.9524  -25.3098 H   0  0  0  0  0  0  0  0  0  0  0  0
    0.1110   27.7253  -22.2645 H   0  0  0  0  0  0  0  0  0  0  0  0
    1.7709   27.1689  -22.6670 H   0  0  0  0  0  0  0  0  0  0  0  0
    1.3871   28.9237  -22.6670 H   0  0  0  0  0  0  0  0  0  0  0  0
    1.4266   29.7995  -24.2443 H   0  0  0  0  0  0  0  0  0  0  0  0
    1.9878   28.8006  -25.6278 H   0  0  0  0  0  0  0  0  0  0  0  0
    0.3257   29.4821  -25.6278 H   0  0  0  0  0  0  0  0  0  0  0  0
   -1.3135   28.2842  -23.5681 H   0  0  0  0  0  0  0  0  0  0  0  0
   -1.1375   28.2977  -25.3847 H   0  0  0  0  0  0  0  0  0  0  0  0
   -1.2187   25.8338  -23.5819 H   0  0  0  0  0  0  0  0  0  0  0  0
   -2.5137   26.4350  -24.7272 H   0  0  0  0  0  0  0  0  0  0  0  0
   -1.0839   22.8827  -29.8992 H   0  0  0  0  0  0  0  0  0  0  0  0
   -2.3973   21.0240  -30.8792 H   0  0  0  0  0  0  0  0  0  0  0  0
  1  2  1  0
  2  3  1  0
  3  4  1  0
  4  5  1  0
  5  6  1  0
  4  7  1  0
  7  8  1  0
  8  9  1  0
  9 10  1  0
 10 11  2  0
 11 12  1  0
 12 13  2  0
 13 14  1  0
 14 15  2  0
 15 16  1  0
 16 17  2  0
 17 18  1  0
 17 19  1  0
 19 20  2  0
 20 21  1  0
 21 22  1  0
 22 23  1  0
 23 24  1  0
 24 25  1  0
 25 26  1  0
 25 27  1  0
 27 28  1  0
 28 29  1  0
 29 30  1  0
 29 31  1  0
 29 32  1  0
 32 33  1  0
 21 34  2  0
 34 35  1  0
 35 36  2  0
 36 10  1  0
 16 11  1  0
 36 19  1  0
 33 25  1  0
  1 37  1  0
  1 38  1  0
  1 39  1  0
  2 40  1  0
  2 41  1  0
  3 42  1  0
  3 43  1  0
  5 44  1  0
  5 45  1  0
  6 46  1  0
  6 47  1  0
  6 48  1  0
  7 49  1  0
  7 50  1  0
  8 51  1  0
  8 52  1  0
  9 53  1  0
  9 54  1  0
 12 55  1  0
 13 56  1  0
 14 57  1  0
 15 58  1  0
 18 59  1  0
 18 60  1  0
 18 61  1  0
 20 62  1  0
 23 63  1  0
 23 64  1  0
 24 65  1  0
 24 66  1  0
 26 67  1  0
 26 68  1  0
 26 69  1  0
 27 70  1  0
 27 71  1  0
 28 72  1  0
 28 73  1  0
 30 74  1  0
 30 75  1  0
 30 76  1  0
 31 77  1  0
 31 78  1  0
 31 79  1  0
 32 80  1  0
 32 81  1  0
 33 82  1  0
 33 83  1  0
 34 84  1  0
 35 85  1  0
M  CHG  4   9   1  17   1  25   1  29   1
M  END
>  <UniqueID>  (26) 
26

>  <SMILES>  (26) 
CCCN(CC)CC[NH2+]c1c2ccccc2[n+](C)c2cc(OCC[N+]3(C)CC[N+](C)(C)CC3)ccc12

>  <Energy>  (26) 
155.28618495416927

>  <Genealogy>  (26) 
CCCN(CC)CC[NH2+]c1c2ccccc2[n+](C)c2cc(OCC[N+]3(C)CC[N+](C)(C)CC3)ccc12 (protonated)
CCCN(CC)CC[NH2+]c1c2ccccc2[n+](C)c2cc(OCC[N+]3(C)CC[N+](C)(C)CC3)ccc12 (3D coordinates assigned)
CCCN(CC)CC[NH2+]c1c2ccccc2[n+](C)c2cc(OCC[N+]3(C)CC[N+](C)(C)CC3)ccc12 (nonaromatic ring conformer: 155.28618495416927 kcal/mol)

>  <smiles>  (26) 
CCCN(CC)CCNc1c2ccccc2[n+](C)c2cc(OCC[N+]3(C)CC[N+](C)(C)CC3)ccc12

>  <score_type>  (26) 
oracle

>  <origin>  (26) 
adg

>  <m_score__min__energy>  (26) 
-7.5999999999999996

>  <m_primary>  (26) 
energy

$$$$
26:0
     RDKit          3D

 41 42  0  0  0  0  0  0  0  0999 V2000
   -1.7270   23.7860  -29.3880 C   0  0  0  0  0  0  0  0  0  0  0  0
   -2.7690   24.8480  -29.0570 C   0  0  0  0  0  0  0  0  0  0  0  0
   -3.5060   25.2370  -30.2540 N   0  0  0  0  0  0  0  0  0  0  0  0
   -4.7820   24.6970  -30.6110 C   0  0  0  0  0  0  0  0  0  0  0  0
   -5.4610   25.2190  -31.5360 O   0  0  0  0  0  0  0  0  0  0  0  0
   -5.2830   23.4680  -29.9240 C   0  0  0  0  0  0  0  0  0  0  0  0
   -5.5900   22.4040  -30.9390 C   0  0  0  0  0  0  0  0  0  0  0  0
   -4.6840   21.6470  -31.6900 C   0  0  0  0  0  0  0  0  0  0  0  0
   -3.1930   21.8350  -31.7070 C   0  0  0  0  0  0  0  0  0  0  0  0
   -5.3500   20.7460  -32.4640 N   0  0  0  0  0  0  0  0  0  0  0  0
   -4.7710   19.7690  -33.3980 C   0  0  0  0  0  0  0  0  0  0  0  0
   -5.2540   18.3420  -33.0920 C   0  0  0  0  0  0  0  0  0  0  0  0
   -5.9310   17.6680  -34.2900 C   0  0  0  0  0  0  0  0  0  0  0  0
   -6.0540   18.5610  -35.3640 O   0  0  0  0  0  0  0  0  0  0  0  0
   -6.6620   20.9180  -32.1920 C   0  0  0  0  0  0  0  0  0  0  0  0
   -7.7550   20.2340  -32.7390 C   0  0  0  0  0  0  0  0  0  0  0  0
   -9.0430   20.5750  -32.2920 C   0  0  0  0  0  0  0  0  0  0  0  0
   -9.2190   21.5830  -31.3210 C   0  0  0  0  0  0  0  0  0  0  0  0
   -8.1090   22.2660  -30.7950 C   0  0  0  0  0  0  0  0  0  0  0  0
   -6.8400   21.9100  -31.2580 C   0  0  0  0  0  0  0  0  0  0  0  0
   -1.3186   23.3698  -28.4553 H   0  0  0  0  0  0  0  0  0  0  0  0
   -2.1963   22.9819  -29.9738 H   0  0  0  0  0  0  0  0  0  0  0  0
   -0.9141   24.2399  -29.9738 H   0  0  0  0  0  0  0  0  0  0  0  0
   -3.4731   24.4442  -28.3146 H   0  0  0  0  0  0  0  0  0  0  0  0
   -2.2560   25.7336  -28.6538 H   0  0  0  0  0  0  0  0  0  0  0  0
   -4.5136   23.0988  -29.2299 H   0  0  0  0  0  0  0  0  0  0  0  0
   -6.1996   23.7126  -29.3672 H   0  0  0  0  0  0  0  0  0  0  0  0
   -2.8176   21.8823  -30.6741 H   0  0  0  0  0  0  0  0  0  0  0  0
   -2.7227   20.9890  -32.2297 H   0  0  0  0  0  0  0  0  0  0  0  0
   -2.9474   22.7712  -32.2297 H   0  0  0  0  0  0  0  0  0  0  0  0
   -5.0684   20.0349  -34.4231 H   0  0  0  0  0  0  0  0  0  0  0  0
   -3.6767   19.7938  -33.2887 H   0  0  0  0  0  0  0  0  0  0  0  0
   -4.3867   17.7352  -32.7927 H   0  0  0  0  0  0  0  0  0  0  0  0
   -6.0025   18.4136  -32.2891 H   0  0  0  0  0  0  0  0  0  0  0  0
   -5.3265   16.8053  -34.6066 H   0  0  0  0  0  0  0  0  0  0  0  0
   -6.9371   17.3424  -33.9872 H   0  0  0  0  0  0  0  0  0  0  0  0
   -6.8580   19.1150  -35.1830 H   0  0  0  0  0  0  0  0  0  0  0  0
   -7.6092   19.4511  -33.4979 H   0  0  0  0  0  0  0  0  0  0  0  0
   -9.9198   20.0524  -32.7021 H   0  0  0  0  0  0  0  0  0  0  0  0
  -10.2314   21.8361  -30.9733 H   0  0  0  0  0  0  0  0  0  0  0  0
   -8.2357   23.0572  -30.0413 H   0  0  0  0  0  0  0  0  0  0  0  0
  1  2  1  0
  2  3  1  0
  3  4  1  0
  4  5  2  0
  4  6  1  0
  6  7  1  0
  7  8  2  0
  8  9  1  0
  8 10  1  0
 10 11  1  0
 11 12  1  0
 12 13  1  0
 13 14  1  0
 10 15  1  0
 15 16  2  0
 16 17  1  0
 17 18  2  0
 18 19  1  0
 19 20  2  0
 20  7  1  0
 20 15  1  0
  1 21  1  0
  1 22  1  0
  1 23  1  0
  2 24  1  0
  2 25  1  0
  6 26  1  0
  6 27  1  0
  9 28  1  0
  9 29  1  0
  9 30  1  0
 11 31  1  0
 11 32  1  0
 12 33  1  0
 12 34  1  0
 13 35  1  0
 13 36  1  0
 14 37  1  0
 16 38  1  0
 17 39  1  0
 18 40  1  0
 19 41  1  0
M  CHG  1   3  -1
M  END
>  <UniqueID>  (27) 
27

>  <SMILES>  (27) 
CC[N-]C(=O)Cc1c(C)n(CCCO)c2ccccc12

>  <Energy>  (27) 
62.710977782942344

>  <Genealogy>  (27) 
CC[N-]C(=O)Cc1c(C)n(CCCO)c2ccccc12 (protonated)
CC[N-]C(=O)Cc1c(C)n(CCCO)c2ccccc12 (3D coordinates assigned)
CC[N-]C(=O)Cc1c(C)n(CCCO)c2ccccc12 (optimized conformer: 62.710977782942344 kcal/mol)

>  <smiles>  (27) 
CCNC(=O)Cc1c(C)n(CCCO)c2ccccc12

>  <score_type>  (27) 
oracle

>  <origin>  (27) 
adg

>  <m_score__min__energy>  (27) 
-9.1300000000000008

>  <m_primary>  (27) 
energy

$$$$
27:0
     RDKit          3D

 42 43  0  0  0  0  0  0  0  0999 V2000
   -3.9790   24.1600  -27.6930 C   0  0  0  0  0  0  0  0  0  0  0  0
   -4.8800   23.8820  -28.8930 C   0  0  0  0  0  0  0  0  0  0  0  0
   -4.1570   24.1150  -30.1950 C   0  0  0  0  0  0  0  0  0  0  0  0
   -3.8640   25.3020  -30.5050 O   0  0  0  0  0  0  0  0  0  0  0  0
   -3.8200   23.0190  -31.1470 C   0  0  0  0  0  0  0  0  0  0  0  0
   -2.6330   22.2920  -30.9500 C   0  0  0  0  0  0  0  0  0  0  0  0
   -2.2660   21.2760  -31.7940 N   0  0  0  0  0  0  0  0  0  0  0  0
   -1.0000   20.5760  -31.5300 C   0  0  0  0  0  0  0  0  0  0  0  0
   -3.0460   20.9600  -32.8830 C   0  0  0  0  0  0  0  0  0  0  0  0
   -2.6900   19.8420  -33.8440 C   0  0  0  0  0  0  0  0  0  0  0  0
   -3.1980   18.5520  -33.3450 N   0  0  0  0  0  0  0  0  0  0  0  0
   -4.3920   18.1050  -34.0830 C   0  0  0  0  0  0  0  0  0  0  0  0
   -5.6680   18.4270  -33.3400 C   0  0  0  0  0  0  0  0  0  0  0  0
   -6.0820   17.6290  -32.2610 C   0  0  0  0  0  0  0  0  0  0  0  0
   -7.2760   17.9170  -31.5920 C   0  0  0  0  0  0  0  0  0  0  0  0
   -8.0640   18.9970  -31.9970 C   0  0  0  0  0  0  0  0  0  0  0  0
   -9.2220   19.2730  -31.3470 F   0  0  0  0  0  0  0  0  0  0  0  0
   -7.6600   19.7930  -33.0730 C   0  0  0  0  0  0  0  0  0  0  0  0
   -6.4670   19.5080  -33.7440 C   0  0  0  0  0  0  0  0  0  0  0  0
   -4.2520   21.6440  -33.0960 C   0  0  0  0  0  0  0  0  0  0  0  0
   -4.6430   22.6650  -32.2320 C   0  0  0  0  0  0  0  0  0  0  0  0
   -5.7450   23.2400  -32.4320 O   0  0  0  0  0  0  0  0  0  0  0  0
   -4.5417   23.9864  -26.7639 H   0  0  0  0  0  0  0  0  0  0  0  0
   -3.1081   23.4888  -27.7251 H   0  0  0  0  0  0  0  0  0  0  0  0
   -3.6377   25.2052  -27.7251 H   0  0  0  0  0  0  0  0  0  0  0  0
   -5.2150   22.8350  -28.8530 H   0  0  0  0  0  0  0  0  0  0  0  0
   -5.7367   24.5704  -28.8470 H   0  0  0  0  0  0  0  0  0  0  0  0
   -1.9836   22.5443  -30.0988 H   0  0  0  0  0  0  0  0  0  0  0  0
   -0.8473   20.4916  -30.4439 H   0  0  0  0  0  0  0  0  0  0  0  0
   -1.0375   19.5704  -31.9743 H   0  0  0  0  0  0  0  0  0  0  0  0
   -0.1683   21.1424  -31.9743 H   0  0  0  0  0  0  0  0  0  0  0  0
   -3.1384   20.0523  -34.8262 H   0  0  0  0  0  0  0  0  0  0  0  0
   -1.5951   19.7834  -33.9321 H   0  0  0  0  0  0  0  0  0  0  0  0
   -2.4570   17.8230  -33.4600 H   0  0  0  0  0  0  0  0  0  0  0  0
   -3.4200   18.6300  -32.3250 H   0  0  0  0  0  0  0  0  0  0  0  0
   -4.4139   18.6073  -35.0614 H   0  0  0  0  0  0  0  0  0  0  0  0
   -4.3317   17.0128  -34.1988 H   0  0  0  0  0  0  0  0  0  0  0  0
   -5.4659   16.7756  -31.9414 H   0  0  0  0  0  0  0  0  0  0  0  0
   -7.5952   17.2918  -30.7451 H   0  0  0  0  0  0  0  0  0  0  0  0
   -8.2807   20.6434  -33.3916 H   0  0  0  0  0  0  0  0  0  0  0  0
   -6.1531   20.1338  -34.5924 H   0  0  0  0  0  0  0  0  0  0  0  0
   -4.8919   21.3732  -33.9488 H   0  0  0  0  0  0  0  0  0  0  0  0
  1  2  1  0
  2  3  1  0
  3  4  2  0
  3  5  1  0
  5  6  2  0
  6  7  1  0
  7  8  1  0
  7  9  1  0
  9 10  1  0
 10 11  1  0
 11 12  1  0
 12 13  1  0
 13 14  2  0
 14 15  1  0
 15 16  2  0
 16 17  1  0
 16 18  1  0
 18 19  2  0
  9 20  2  0
 20 21  1  0
 21 22  2  0
 21  5  1  0
 19 13  1  0
  1 23  1  0
  1 24  1  0
  1 25  1  0
  2 26  1  0
  2 27  1  0
  6 28  1  0
  8 29  1  0
  8 30  1  0
  8 31  1  0
 10 32  1  0
 10 33  1  0
 11 34  1  0
 11 35  1  0
 12 36  1  0
 12 37  1  0
 14 38  1  0
 15 39  1  0
 18 40  1  0
 19 41  1  0
 20 42  1  0
M  CHG  1  11   1
M  END
>  <UniqueID>  (28) 
28

>  <SMILES>  (28) 
CCC(=O)c1cn(C)c(C[NH2+]Cc2ccc(F)cc2)cc1=O

>  <Energy>  (28) 
46.742285683353565

>  <Genealogy>  (28) 
CCC(=O)c1cn(C)c(C[NH2+]Cc2ccc(F)cc2)cc1=O (protonated)
CCC(=O)c1cn(C)c(C[NH2+]Cc2ccc(F)cc2)cc1=O (3D coordinates assigned)
CCC(=O)c1cn(C)c(C[NH2+]Cc2ccc(F)cc2)cc1=O (optimized conformer: 46.742285683353565 kcal/mol)

>  <smiles>  (28) 
CCC(=O)c1cn(C)c(CNCc2ccc(F)cc2)cc1=O

>  <score_type>  (28) 
oracle

>  <origin>  (28) 
adg

>  <m_score__min__energy>  (28) 
-6.9500000000000002

>  <m_primary>  (28) 
energy

$$$$
28:0
     RDKit          3D

 49 51  0  0  0  0  0  0  0  0999 V2000
    0.5230   27.4050  -22.9860 C   0  0  0  0  0  0  0  0  0  0  0  0
   -0.8500   26.8480  -23.3820 C   0  0  0  0  0  0  0  0  0  0  0  0
   -1.2670   27.2500  -24.7490 N   0  0  1  0  0  0  0  0  0  0  0  0
   -1.0190   28.6910  -24.9660 C   0  0  0  0  0  0  0  0  0  0  0  0
   -0.5310   26.4330  -25.7500 C   0  0  0  0  0  0  0  0  0  0  0  0
   -1.2460   25.1200  -26.1140 C   0  0  0  0  0  0  0  0  0  0  0  0
   -2.6510   25.3110  -26.1410 O   0  0  0  0  0  0  0  0  0  0  0  0
   -3.2390   24.6990  -27.2730 C   0  0  0  0  0  0  0  0  0  0  0  0
   -2.3380   24.8460  -28.5040 C   0  0  0  0  0  0  0  0  0  0  0  0
   -3.1020   25.2490  -29.6410 O   0  0  0  0  0  0  0  0  0  0  0  0
   -4.2650   24.6130  -30.1070 C   0  0  0  0  0  0  0  0  0  0  0  0
   -5.4930   25.2810  -30.2520 C   0  0  0  0  0  0  0  0  0  0  0  0
   -6.6210   24.5990  -30.7150 C   0  0  0  0  0  0  0  0  0  0  0  0
   -6.5610   23.2280  -31.0530 C   0  0  0  0  0  0  0  0  0  0  0  0
   -7.7360   22.5590  -31.5240 C   0  0  0  0  0  0  0  0  0  0  0  0
   -8.8000   23.2370  -31.6160 O   0  0  0  0  0  0  0  0  0  0  0  0
   -7.7960   21.1780  -31.8970 C   0  0  0  0  0  0  0  0  0  0  0  0
   -9.0160   20.6230  -32.3500 C   0  0  0  0  0  0  0  0  0  0  0  0
   -9.1040   19.2770  -32.7200 C   0  0  0  0  0  0  0  0  0  0  0  0
   -7.9810   18.4550  -32.6500 C   0  0  0  0  0  0  0  0  0  0  0  0
   -6.7650   18.9740  -32.2090 C   0  0  0  0  0  0  0  0  0  0  0  0
   -6.6720   20.3190  -31.8360 C   0  0  0  0  0  0  0  0  0  0  0  0
   -5.2050   20.9450  -31.3030 S   0  0  0  0  0  0  0  0  0  0  0  0
   -5.3150   22.5770  -30.9070 C   0  0  0  0  0  0  0  0  0  0  0  0
   -4.1870   23.2600  -30.4430 C   0  0  0  0  0  0  0  0  0  0  0  0
    0.6031   27.4375  -21.8894 H   0  0  0  0  0  0  0  0  0  0  0  0
    1.3130   26.7562  -23.3923 H   0  0  0  0  0  0  0  0  0  0  0  0
    0.6377   28.4208  -23.3923 H   0  0  0  0  0  0  0  0  0  0  0  0
   -0.8090   25.7497  -23.3368 H   0  0  0  0  0  0  0  0  0  0  0  0
   -1.5879   27.2607  -22.6783 H   0  0  0  0  0  0  0  0  0  0  0  0
   -2.2930   27.0660  -24.8440 H   0  0  0  0  0  0  0  0  0  0  0  0
   -0.9317   29.1985  -23.9940 H   0  0  0  0  0  0  0  0  0  0  0  0
   -0.0853   28.8211  -25.5328 H   0  0  0  0  0  0  0  0  0  0  0  0
   -1.8555   29.1258  -25.5328 H   0  0  0  0  0  0  0  0  0  0  0  0
   -0.4107   27.0298  -26.6662 H   0  0  0  0  0  0  0  0  0  0  0  0
    0.4352   26.1618  -25.2996 H   0  0  0  0  0  0  0  0  0  0  0  0
   -0.9069   24.7859  -27.1057 H   0  0  0  0  0  0  0  0  0  0  0  0
   -1.0045   24.3610  -25.3553 H   0  0  0  0  0  0  0  0  0  0  0  0
   -3.3931   23.6299  -27.0651 H   0  0  0  0  0  0  0  0  0  0  0  0
   -4.2000   25.1926  -27.4799 H   0  0  0  0  0  0  0  0  0  0  0  0
   -1.5672   25.6037  -28.2994 H   0  0  0  0  0  0  0  0  0  0  0  0
   -1.8691   23.8743  -28.7182 H   0  0  0  0  0  0  0  0  0  0  0  0
   -5.5666   26.3490  -29.9990 H   0  0  0  0  0  0  0  0  0  0  0  0
   -7.5736   25.1392  -30.8184 H   0  0  0  0  0  0  0  0  0  0  0  0
   -9.9102   21.2606  -32.4123 H   0  0  0  0  0  0  0  0  0  0  0  0
  -10.0632   18.8658  -33.0675 H   0  0  0  0  0  0  0  0  0  0  0  0
   -8.0542   17.3972  -32.9426 H   0  0  0  0  0  0  0  0  0  0  0  0
   -5.8780   18.3257  -32.1542 H   0  0  0  0  0  0  0  0  0  0  0  0
   -3.2300   22.7271  -30.3418 H   0  0  0  0  0  0  0  0  0  0  0  0
  1  2  1  0
  2  3  1  0
  3  4  1  0
  3  5  1  0
  5  6  1  0
  6  7  1  0
  7  8  1  0
  8  9  1  0
  9 10  1  0
 10 11  1  0
 11 12  2  0
 12 13  1  0
 13 14  2  0
 14 15  1  0
 15 16  2  0
 15 17  1  0
 17 18  2  0
 18 19  1  0
 19 20  2  0
 20 21  1  0
 21 22  2  0
 22 23  1  0
 23 24  1  0
 24 25  2  0
 25 11  1  0
 24 14  1  0
 22 17  1  0
  1 26  1  0
  1 27  1  0
  1 28  1  0
  2 29  1  0
  2 30  1  0
  3 31  1  1
  4 32  1  0
  4 33  1  0
  4 34  1  0
  5 35  1  0
  5 36  1  0
  6 37  1  0
  6 38  1  0
  8 39  1  0
  8 40  1  0
  9 41  1  0
  9 42  1  0
 12 43  1  0
 13 44  1  0
 18 45  1  0
 19 46  1  0
 20 47  1  0
 21 48  1  0
 25 49  1  0
M  CHG  1   3   1
M  END
>  <UniqueID>  (29) 
29

>  <SMILES>  (29) 
CC[N@@H+](C)CCOCCOc1ccc2c(=O)c3ccccc3sc2c1

>  <Energy>  (29) 
65.01138350145341

>  <Genealogy>  (29) 
CC[NH+](C)CCOCCOc1ccc2c(=O)c3ccccc3sc2c1 (protonated)
CC[N@@H+](C)CCOCCOc1ccc2c(=O)c3ccccc3sc2c1 (chirality)
CC[N@@H+](C)CCOCCOc1ccc2c(=O)c3ccccc3sc2c1 (3D coordinates assigned)
CC[N@@H+](C)CCOCCOc1ccc2c(=O)c3ccccc3sc2c1 (optimized conformer: 65.01138350145341 kcal/mol)

>  <smiles>  (29) 
CCN(C)CCOCCOc1ccc2c(=O)c3ccccc3sc2c1

>  <score_type>  (29) 
oracle

>  <origin>  (29) 
adg

>  <m_score__min__energy>  (29) 
-9.3000000000000007

>  <m_primary>  (29) 
energy

$$$$
29:0
     RDKit          3D

 52 54  0  0  0  0  0  0  0  0999 V2000
   -9.1740   20.5270  -32.3100 C   0  0  0  0  0  0  0  0  0  0  0  0
   -8.0030   19.6250  -31.8960 C   0  0  0  0  0  0  0  0  0  0  0  0
   -7.3190   18.9890  -33.0540 N   0  0  0  0  0  0  0  0  0  0  0  0
   -7.2380   17.5170  -32.8720 C   0  0  0  0  0  0  0  0  0  0  0  0
   -6.0030   17.0750  -32.0740 C   0  0  0  0  0  0  0  0  0  0  0  0
   -5.9600   19.5600  -33.2270 C   0  0  0  0  0  0  0  0  0  0  0  0
   -5.9210   20.9400  -32.8430 O   0  0  0  0  0  0  0  0  0  0  0  0
   -4.9360   21.5690  -32.0580 C   0  0  0  0  0  0  0  0  0  0  0  0
   -3.5870   21.1570  -32.0470 C   0  0  0  0  0  0  0  0  0  0  0  0
   -2.6530   21.8150  -31.2440 C   0  0  0  0  0  0  0  0  0  0  0  0
   -3.0420   22.8930  -30.4340 C   0  0  0  0  0  0  0  0  0  0  0  0
   -2.0220   23.6070  -29.5790 C   0  0  1  0  0  0  0  0  0  0  0  0
   -2.5400   24.9320  -29.2240 N   0  0  0  0  0  0  0  0  0  0  0  0
   -2.3500   25.0970  -27.7810 C   0  0  0  0  0  0  0  0  0  0  0  0
   -2.0590   23.7280  -27.1920 C   0  0  0  0  0  0  0  0  0  0  0  0
   -1.7850   22.8830  -28.3350 N   0  0  0  0  0  0  0  0  0  0  0  0
   -1.2760   21.5320  -28.2370 C   0  0  0  0  0  0  0  0  0  0  0  0
   -1.8810   20.5900  -27.3800 C   0  0  0  0  0  0  0  0  0  0  0  0
   -1.3820   19.2880  -27.2870 C   0  0  0  0  0  0  0  0  0  0  0  0
   -0.2740   18.9060  -28.0470 C   0  0  0  0  0  0  0  0  0  0  0  0
    0.3520   17.2710  -27.9250 Cl  0  0  0  0  0  0  0  0  0  0  0  0
    0.3390   19.8280  -28.8960 C   0  0  0  0  0  0  0  0  0  0  0  0
   -0.1580   21.1310  -28.9940 C   0  0  0  0  0  0  0  0  0  0  0  0
   -4.3790   23.3210  -30.4650 C   0  0  0  0  0  0  0  0  0  0  0  0
   -5.3180   22.6630  -31.2670 C   0  0  0  0  0  0  0  0  0  0  0  0
   -6.9830   23.2250  -31.2670 Cl  0  0  0  0  0  0  0  0  0  0  0  0
   -9.6753   20.9131  -31.4102 H   0  0  0  0  0  0  0  0  0  0  0  0
   -8.7948   21.3686  -32.9082 H   0  0  0  0  0  0  0  0  0  0  0  0
   -9.8910   19.9456  -32.9082 H   0  0  0  0  0  0  0  0  0  0  0  0
   -7.2693   20.2336  -31.3470 H   0  0  0  0  0  0  0  0  0  0  0  0
   -8.4153   18.8168  -31.2740 H   0  0  0  0  0  0  0  0  0  0  0  0
   -7.8660   19.1860  -33.9270 H   0  0  0  0  0  0  0  0  0  0  0  0
   -8.1387   17.1804  -32.3378 H   0  0  0  0  0  0  0  0  0  0  0  0
   -7.1598   17.0670  -33.8727 H   0  0  0  0  0  0  0  0  0  0  0  0
   -6.2156   17.1511  -30.9974 H   0  0  0  0  0  0  0  0  0  0  0  0
   -5.7570   16.0330  -32.3264 H   0  0  0  0  0  0  0  0  0  0  0  0
   -5.1517   17.7243  -32.3264 H   0  0  0  0  0  0  0  0  0  0  0  0
   -5.2520   18.9946  -32.6033 H   0  0  0  0  0  0  0  0  0  0  0  0
   -5.6866   19.4881  -34.2900 H   0  0  0  0  0  0  0  0  0  0  0  0
   -3.2686   20.3119  -32.6750 H   0  0  0  0  0  0  0  0  0  0  0  0
   -1.6035   21.4856  -31.2464 H   0  0  0  0  0  0  0  0  0  0  0  0
   -1.0851   23.6778  -30.1510 H   0  0  0  0  0  0  0  0  0  0  0  0
   -1.9910   25.6670  -29.7310 H   0  0  0  0  0  0  0  0  0  0  0  0
   -1.5044   25.7741  -27.5898 H   0  0  0  0  0  0  0  0  0  0  0  0
   -3.2511   25.5295  -27.3216 H   0  0  0  0  0  0  0  0  0  0  0  0
   -1.1859   23.7713  -26.5242 H   0  0  0  0  0  0  0  0  0  0  0  0
   -2.8969   23.3498  -26.5880 H   0  0  0  0  0  0  0  0  0  0  0  0
   -2.7543   20.8828  -26.7787 H   0  0  0  0  0  0  0  0  0  0  0  0
   -1.8626   18.5626  -26.6141 H   0  0  0  0  0  0  0  0  0  0  0  0
    1.2154   19.5289  -29.4897 H   0  0  0  0  0  0  0  0  0  0  0  0
    0.3289   21.8502  -29.6690 H   0  0  0  0  0  0  0  0  0  0  0  0
   -4.6908   24.1807  -29.8537 H   0  0  0  0  0  0  0  0  0  0  0  0
  1  2  1  0
  2  3  1  0
  3  4  1  0
  4  5  1  0
  3  6  1  0
  6  7  1  0
  7  8  1  0
  8  9  2  0
  9 10  1  0
 10 11  2  0
 11 12  1  0
 12 13  1  0
 13 14  1  0
 14 15  1  0
 15 16  1  0
 16 17  1  0
 17 18  2  0
 18 19  1  0
 19 20  2  0
 20 21  1  0
 20 22  1  0
 22 23  2  0
 11 24  1  0
 24 25  2  0
 25 26  1  0
 25  8  1  0
 16 12  1  0
 23 17  1  0
  1 27  1  0
  1 28  1  0
  1 29  1  0
  2 30  1  0
  2 31  1  0
  3 32  1  0
  4 33  1  0
  4 34  1  0
  5 35  1  0
  5 36  1  0
  5 37  1  0
  6 38  1  0
  6 39  1  0
  9 40  1  0
 10 41  1  0
 12 42  1  6
 13 43  1  0
 14 44  1  0
 14 45  1  0
 15 46  1  0
 15 47  1  0
 18 48  1  0
 19 49  1  0
 22 50  1  0
 23 51  1  0
 24 52  1  0
M  CHG  1   3   1
M  END
>  <UniqueID>  (30) 
30

>  <SMILES>  (30) 
CC[NH+](CC)COc1ccc([C@H]2NCCN2c2ccc(Cl)cc2)cc1Cl

>  <Energy>  (30) 
60.04724039724546

>  <Genealogy>  (30) 
CC[NH+](CC)COc1ccc(C2NCCN2c2ccc(Cl)cc2)cc1Cl (protonated)
CC[NH+](CC)COc1ccc([C@H]2NCCN2c2ccc(Cl)cc2)cc1Cl (chirality)
CC[NH+](CC)COc1ccc([C@H]2NCCN2c2ccc(Cl)cc2)cc1Cl (3D coordinates assigned)
CC[NH+](CC)COc1ccc([C@H]2NCCN2c2ccc(Cl)cc2)cc1Cl (nonaromatic ring conformer: 60.04724039724546 kcal/mol)

>  <smiles>  (30) 
CCN(CC)COc1ccc(C2NCCN2c2ccc(Cl)cc2)cc1Cl

>  <score_type>  (30) 
oracle

>  <origin>  (30) 
adg

>  <m_score__min__energy>  (30) 
-7.5899999999999999

>  <m_primary>  (30) 
energy

$$$$
30:0
     RDKit          3D

 47 49  0  0  0  0  0  0  0  0999 V2000
   -7.1190   14.2850  -34.5950 C   0  0  0  0  0  0  0  0  0  0  0  0
   -5.7250   14.6120  -34.0270 C   0  0  0  0  0  0  0  0  0  0  0  0
   -5.5250   16.0270  -33.5710 N   0  0  0  0  0  0  0  0  0  0  0  0
   -4.6740   16.0870  -32.3550 C   0  0  0  0  0  0  0  0  0  0  0  0
   -4.8500   16.8010  -34.6470 C   0  0  0  0  0  0  0  0  0  0  0  0
   -6.8640   16.6790  -33.3300 C   0  0  0  0  0  0  0  0  0  0  0  0
   -6.9570   17.7800  -32.2360 C   0  0  0  0  0  0  0  0  0  0  0  0
   -8.1960   18.7020  -32.3310 C   0  0  0  0  0  0  0  0  0  0  0  0
   -7.9540   19.9550  -33.0860 N   0  0  0  0  0  0  0  0  0  0  0  0
   -8.3030   21.1200  -32.2970 C   0  0  0  0  0  0  0  0  0  0  0  0
   -9.5210   21.4020  -32.1230 O   0  0  0  0  0  0  0  0  0  0  0  0
   -7.2620   21.9480  -31.6460 C   0  0  0  0  0  0  0  0  0  0  0  0
   -7.6000   22.9000  -30.6680 C   0  0  0  0  0  0  0  0  0  0  0  0
   -6.6100   23.6730  -30.0600 C   0  0  0  0  0  0  0  0  0  0  0  0
   -5.2710   23.5170  -30.4250 C   0  0  0  0  0  0  0  0  0  0  0  0
   -4.9130   22.5790  -31.4040 C   0  0  0  0  0  0  0  0  0  0  0  0
   -3.5740   22.4300  -31.7900 C   0  0  0  0  0  0  0  0  0  0  0  0
   -3.2280   21.5030  -32.7740 C   0  0  0  0  0  0  0  0  0  0  0  0
   -4.2110   20.7170  -33.3800 C   0  0  0  0  0  0  0  0  0  0  0  0
   -5.5590   20.8480  -33.0030 C   0  0  0  0  0  0  0  0  0  0  0  0
   -5.9140   21.7830  -32.0140 C   0  0  0  0  0  0  0  0  0  0  0  0
   -6.6080   20.0010  -33.6210 C   0  0  0  0  0  0  0  0  0  0  0  0
   -6.3170   19.2750  -34.6130 O   0  0  0  0  0  0  0  0  0  0  0  0
   -7.8231   14.1198  -33.7662 H   0  0  0  0  0  0  0  0  0  0  0  0
   -7.4698   15.1252  -35.2122 H   0  0  0  0  0  0  0  0  0  0  0  0
   -7.0596   13.3764  -35.2122 H   0  0  0  0  0  0  0  0  0  0  0  0
   -5.5471   13.9509  -33.1660 H   0  0  0  0  0  0  0  0  0  0  0  0
   -5.0195   14.4616  -34.8575 H   0  0  0  0  0  0  0  0  0  0  0  0
   -5.3108   16.0421  -31.4592 H   0  0  0  0  0  0  0  0  0  0  0  0
   -3.9773   15.2357  -32.3526 H   0  0  0  0  0  0  0  0  0  0  0  0
   -4.1037   17.0276  -32.3526 H   0  0  0  0  0  0  0  0  0  0  0  0
   -4.1905   17.5572  -34.1962 H   0  0  0  0  0  0  0  0  0  0  0  0
   -4.2533   16.1188  -35.2703 H   0  0  0  0  0  0  0  0  0  0  0  0
   -5.6070   17.2994  -35.2703 H   0  0  0  0  0  0  0  0  0  0  0  0
   -7.1808   17.1348  -34.2797 H   0  0  0  0  0  0  0  0  0  0  0  0
   -7.5005   15.8649  -32.9532 H   0  0  0  0  0  0  0  0  0  0  0  0
   -6.9771   17.2834  -31.2547 H   0  0  0  0  0  0  0  0  0  0  0  0
   -6.0817   18.4299  -32.3826 H   0  0  0  0  0  0  0  0  0  0  0  0
   -9.0037   18.1469  -32.8304 H   0  0  0  0  0  0  0  0  0  0  0  0
   -8.4578   18.9932  -31.3031 H   0  0  0  0  0  0  0  0  0  0  0  0
   -8.6020   19.9470  -33.9100 H   0  0  0  0  0  0  0  0  0  0  0  0
   -8.6528   23.0365  -30.3800 H   0  0  0  0  0  0  0  0  0  0  0  0
   -6.8855   24.4085  -29.2898 H   0  0  0  0  0  0  0  0  0  0  0  0
   -4.4957   24.1311  -29.9436 H   0  0  0  0  0  0  0  0  0  0  0  0
   -2.7944   23.0448  -31.3165 H   0  0  0  0  0  0  0  0  0  0  0  0
   -2.1757   21.3906  -33.0740 H   0  0  0  0  0  0  0  0  0  0  0  0
   -3.9286   19.9912  -34.1568 H   0  0  0  0  0  0  0  0  0  0  0  0
  1  2  1  0
  2  3  1  0
  3  4  1  0
  3  5  1  0
  3  6  1  0
  6  7  1  0
  7  8  1  0
  8  9  1  0
  9 10  1  0
 10 11  2  0
 10 12  1  0
 12 13  1  0
 13 14  2  0
 14 15  1  0
 15 16  2  0
 16 17  1  0
 17 18  2  0
 18 19  1  0
 19 20  2  0
 20 21  1  0
 20 22  1  0
 22 23  2  0
 22  9  1  0
 21 12  2  0
 21 16  1  0
  1 24  1  0
  1 25  1  0
  1 26  1  0
  2 27  1  0
  2 28  1  0
  4 29  1  0
  4 30  1  0
  4 31  1  0
  5 32  1  0
  5 33  1  0
  5 34  1  0
  6 35  1  0
  6 36  1  0
  7 37  1  0
  7 38  1  0
  8 39  1  0
  8 40  1  0
  9 41  1  0
 13 42  1  0
 14 43  1  0
 15 44  1  0
 17 45  1  0
 18 46  1  0
 19 47  1  0
M  CHG  2   3   1   9   1
M  END
>  <UniqueID>  (31) 
31

>  <SMILES>  (31) 
CC[N+](C)(C)CCC[NH+]1C(=O)c2cccc3cccc(c23)C1=O

>  <Energy>  (31) 
74.49037997773907

>  <Genealogy>  (31) 
CC[N+](C)(C)CCC[NH+]1C(=O)c2cccc3cccc(c23)C1=O (protonated)
CC[N+](C)(C)CCC[NH+]1C(=O)c2cccc3cccc(c23)C1=O (3D coordinates assigned)
CC[N+](C)(C)CCC[NH+]1C(=O)c2cccc3cccc(c23)C1=O (nonaromatic ring conformer: 74.49037997773907 kcal/mol)

>  <smiles>  (31) 
CC[N+](C)(C)CCCN1C(=O)c2cccc3cccc(c23)C1=O

>  <score_type>  (31) 
oracle

>  <origin>  (31) 
adg

>  <m_score__min__energy>  (31) 
-7.1399999999999997

>  <m_primary>  (31) 
energy

$$$$
