0:0
     RDKit          3D

 41 42  0  0  1  0  0  0  0  0999 V2000
   -5.0040   17.5140  -34.9260 C   0  0  0  0  0  0  0  0  0  0  0  0
   -4.8490   18.7150  -34.2240 O   0  0  0  0  0  0  0  0  0  0  0  0
   -6.1320   19.3040  -34.1450 C   0  0  0  0  0  0  0  0  0  0  0  0
   -6.4240   19.8220  -32.7750 C   0  0  0  0  0  0  0  0  0  0  0  0
   -5.3830   20.7640  -32.2120 C   0  0  0  0  0  0  0  0  0  0  0  0
   -5.5430   22.1180  -32.5370 N   0  0  0  0  0  0  0  0  0  0  0  0
   -5.5690   23.0300  -31.6460 C   0  0  0  0  0  0  0  0  0  0  0  0
   -4.3660   23.3020  -31.0720 N   0  0  0  0  0  0  0  0  0  0  0  0
   -4.2700   24.2390  -30.1290 C   0  0  0  0  0  0  0  0  0  0  0  0
   -2.9700   24.5440  -29.4980 C   0  0  0  0  0  0  0  0  0  0  0  0
   -5.3400   24.9350  -29.7220 N   0  0  0  0  0  0  0  0  0  0  0  0
   -6.5290   24.6780  -30.2780 C   0  0  0  0  0  0  0  0  0  0  0  0
   -6.7210   23.7120  -31.2740 C   0  0  0  0  0  0  0  0  0  0  0  0
   -8.0130   23.4380  -31.8840 C   0  0  0  0  0  0  0  0  0  0  0  0
   -7.7670   20.4690  -32.6510 C   0  0  0  0  0  0  0  0  0  0  0  0
   -8.7530   19.4500  -32.2080 C   0  0  0  0  0  0  0  0  0  0  0  0
   -8.0380   18.1580  -32.0090 C   0  0  0  0  0  0  0  0  0  0  0  0
   -6.6050   18.5460  -31.9340 C   0  0  0  0  0  0  0  0  0  0  0  0
   -5.1112   16.6835  -34.2127 H   0  0  0  0  0  0  0  0  0  0  0  0
   -5.9021   17.5723  -35.5585 H   0  0  0  0  0  0  0  0  0  0  0  0
   -4.1206   17.3424  -35.5585 H   0  0  0  0  0  0  0  0  0  0  0  0
   -6.1846   20.1388  -34.8594 H   0  0  0  0  0  0  0  0  0  0  0  0
   -6.8772   18.5306  -34.3829 H   0  0  0  0  0  0  0  0  0  0  0  0
   -5.4060   20.6755  -31.1158 H   0  0  0  0  0  0  0  0  0  0  0  0
   -4.4289   20.4594  -32.6668 H   0  0  0  0  0  0  0  0  0  0  0  0
   -3.0786   24.5185  -28.4037 H   0  0  0  0  0  0  0  0  0  0  0  0
   -2.2264   23.7959  -29.8102 H   0  0  0  0  0  0  0  0  0  0  0  0
   -2.6367   25.5447  -29.8102 H   0  0  0  0  0  0  0  0  0  0  0  0
   -5.2480   25.6690  -28.9790 H   0  0  0  0  0  0  0  0  0  0  0  0
   -7.4008   25.2548  -29.9355 H   0  0  0  0  0  0  0  0  0  0  0  0
   -8.7640   23.2787  -31.0962 H   0  0  0  0  0  0  0  0  0  0  0  0
   -8.3123   24.2927  -32.5085 H   0  0  0  0  0  0  0  0  0  0  0  0
   -7.9396   22.5354  -32.5085 H   0  0  0  0  0  0  0  0  0  0  0  0
   -7.7184   21.2818  -31.9114 H   0  0  0  0  0  0  0  0  0  0  0  0
   -8.0716   20.8846  -33.6229 H   0  0  0  0  0  0  0  0  0  0  0  0
   -9.2159   19.7678  -31.2621 H   0  0  0  0  0  0  0  0  0  0  0  0
   -9.5412   19.3325  -32.9662 H   0  0  0  0  0  0  0  0  0  0  0  0
   -8.3607   17.6725  -31.0762 H   0  0  0  0  0  0  0  0  0  0  0  0
   -8.2387   17.4355  -32.8138 H   0  0  0  0  0  0  0  0  0  0  0  0
   -6.3238   18.7425  -30.8889 H   0  0  0  0  0  0  0  0  0  0  0  0
   -5.9652   17.7371  -32.3165 H   0  0  0  0  0  0  0  0  0  0  0  0
  1  2  1  0
  2  3  1  0
  3  4  1  0
  4  5  1  0
  5  6  1  0
  6  7  2  0
  7  8  1  0
  8  9  2  0
  9 10  1  0
  9 11  1  0
 11 12  1  0
 12 13  2  0
 13 14  1  0
  4 15  1  0
 15 16  1  0
 16 17  1  0
 17 18  1  0
 18  4  1  0
 13  7  1  0
  1 19  1  0
  1 20  1  0
  1 21  1  0
  3 22  1  0
  3 23  1  0
  5 24  1  0
  5 25  1  0
 10 26  1  0
 10 27  1  0
 10 28  1  0
 11 29  1  0
 12 30  1  0
 14 31  1  0
 14 32  1  0
 14 33  1  0
 15 34  1  0
 15 35  1  0
 16 36  1  0
 16 37  1  0
 17 38  1  0
 17 39  1  0
 18 40  1  0
 18 41  1  0
M  END
>  <smiles>  (1) 
COCC1(CN=c2nc(C)[nH]cc2C)CCCC1

>  <score_type>  (1) 
oracle

>  <origin>  (1) 
adg

>  <m_score__min__energy>  (1) 
-7.0899999999999999

>  <m_primary>  (1) 
energy

$$$$
1:0
     RDKit          3D

 41 43  0  0  0  0  0  0  0  0999 V2000
   -1.4829   23.5449  -27.4830 H   0  0  0  0  0  0  0  0  0  0  0  0
   -1.7480   22.9850  -28.3920 C   0  0  0  0  0  0  0  0  0  0  0  0
   -1.0700   21.9060  -28.6690 N   0  0  0  0  0  0  0  0  0  0  0  0
   -1.1840   20.6340  -28.0100 C   0  0  0  0  0  0  0  0  0  0  0  0
   -2.2270   20.4530  -27.0910 C   0  0  0  0  0  0  0  0  0  0  0  0
   -2.9057   21.2887  -26.8652 H   0  0  0  0  0  0  0  0  0  0  0  0
   -2.4120   19.2220  -26.4600 C   0  0  0  0  0  0  0  0  0  0  0  0
   -3.2445   19.0859  -25.7540 H   0  0  0  0  0  0  0  0  0  0  0  0
   -1.5420   18.1640  -26.7240 C   0  0  0  0  0  0  0  0  0  0  0  0
   -1.7005   17.1886  -26.2407 H   0  0  0  0  0  0  0  0  0  0  0  0
   -0.4690   18.3420  -27.6020 C   0  0  0  0  0  0  0  0  0  0  0  0
    0.2164   17.5054  -27.8028 H   0  0  0  0  0  0  0  0  0  0  0  0
   -0.2590   19.5810  -28.2300 C   0  0  0  0  0  0  0  0  0  0  0  0
    0.9440   19.7390  -29.1190 C   0  0  0  0  0  0  0  0  0  0  0  0
    1.8450   19.8573  -28.4991 H   0  0  0  0  0  0  0  0  0  0  0  0
    1.0503   18.8471  -29.7540 H   0  0  0  0  0  0  0  0  0  0  0  0
    0.8164   20.6281  -29.7540 H   0  0  0  0  0  0  0  0  0  0  0  0
   -2.8570   23.5010  -29.2330 C   0  0  0  0  0  0  0  0  0  0  0  0
   -2.8290   24.8280  -29.6750 C   0  0  0  0  0  0  0  0  0  0  0  0
   -1.7820   25.6720  -29.3230 O   0  0  0  0  0  0  0  0  0  0  0  0
   -3.8190   25.2960  -30.4720 N   0  0  0  0  0  0  0  0  0  0  0  0
   -4.8540   24.5080  -30.8550 C   0  0  0  0  0  0  0  0  0  0  0  0
   -5.7300   24.9830  -31.6280 O   0  0  0  0  0  0  0  0  0  0  0  0
   -4.9370   23.2130  -30.4130 N   0  0  0  0  0  0  0  0  0  0  0  0
   -6.0290   22.3690  -30.8340 C   0  0  0  0  0  0  0  0  0  0  0  0
   -5.7960   21.2700  -31.6750 C   0  0  0  0  0  0  0  0  0  0  0  0
   -4.7734   21.0462  -32.0129 H   0  0  0  0  0  0  0  0  0  0  0  0
   -6.8570   20.4590  -32.0850 C   0  0  0  0  0  0  0  0  0  0  0  0
   -6.6631   19.5990  -32.7429 H   0  0  0  0  0  0  0  0  0  0  0  0
   -8.1650   20.7310  -31.6660 C   0  0  0  0  0  0  0  0  0  0  0  0
   -9.1950   19.8870  -32.1060 O   0  0  0  0  0  0  0  0  0  0  0  0
   -9.1860   18.4700  -31.9690 C   0  0  0  0  0  0  0  0  0  0  0  0
   -9.1843   18.2048  -30.9014 H   0  0  0  0  0  0  0  0  0  0  0  0
  -10.0815   18.0494  -32.4499 H   0  0  0  0  0  0  0  0  0  0  0  0
   -8.2852   18.0608  -32.4499 H   0  0  0  0  0  0  0  0  0  0  0  0
   -8.4000   21.8340  -30.8230 C   0  0  0  0  0  0  0  0  0  0  0  0
   -9.4228   22.0578  -30.4857 H   0  0  0  0  0  0  0  0  0  0  0  0
   -7.3380   22.6460  -30.4130 C   0  0  0  0  0  0  0  0  0  0  0  0
   -7.5303   23.5073  -29.7563 H   0  0  0  0  0  0  0  0  0  0  0  0
   -3.9700   22.7140  -29.5780 C   0  0  0  0  0  0  0  0  0  0  0  0
   -4.0950   21.5570  -29.0870 O   0  0  0  0  0  0  0  0  0  0  0  0
  1  2  1  0
  2  3  2  0
  3  4  1  0
  4  5  2  0
  5  6  1  0
  5  7  1  0
  7  8  1  0
  7  9  2  0
  9 10  1  0
  9 11  1  0
 11 12  1  0
 11 13  2  0
 13 14  1  0
 14 15  1  0
 14 16  1  0
 14 17  1  0
  2 18  1  0
 18 19  2  0
 19 20  1  0
 19 21  1  0
 21 22  1  0
 22 23  2  0
 22 24  1  0
 24 25  1  0
 25 26  2  0
 26 27  1  0
 26 28  1  0
 28 29  1  0
 28 30  2  0
 30 31  1  0
 31 32  1  0
 32 33  1  0
 32 34  1  0
 32 35  1  0
 30 36  1  0
 36 37  1  0
 36 38  2  0
 38 39  1  0
 24 40  1  0
 40 41  2  0
 13  4  1  0
 40 18  1  0
 38 25  1  0
M  CHG  2  20  -1  21  -1
M  END
>  <UniqueID>  (2) 
1

>  <SMILES>  (2) 
COc1ccc(-n2c(=O)[n-]c([O-])c(/C=N\c3ccccc3C)c2=O)cc1

>  <Energy>  (2) 
68.19291783599523

>  <Genealogy>  (2) 
COc1ccc(-n2c(=O)[n-]c([O-])c(C=Nc3ccccc3C)c2=O)cc1 (protonated)
COc1ccc(-n2c(=O)[n-]c([O-])c(/C=N\c3ccccc3C)c2=O)cc1 (cis-trans isomerization)
COc1ccc(-n2c(=O)[n-]c([O-])c(/C=N\c3ccccc3C)c2=O)cc1 (3D coordinates assigned)
COc1ccc(-n2c(=O)[n-]c([O-])c(/C=N\c3ccccc3C)c2=O)cc1 (optimized conformer: 68.19291783599523 kcal/mol)

>  <smiles>  (2) 
COc1ccc(-n2c(=O)[nH]c(O)c(C=Nc3ccccc3C)c2=O)cc1

>  <score_type>  (2) 
oracle

>  <origin>  (2) 
adg

>  <m_score__min__energy>  (2) 
-12.07

>  <m_primary>  (2) 
energy

$$$$
2:0
     RDKit          3D

 29 31  0  0  0  0  0  0  0  0999 V2000
   -2.8130   22.3150  -30.8740 C   0  0  0  0  0  0  0  0  0  0  0  0
   -3.6360   23.2310  -31.5890 O   0  0  0  0  0  0  0  0  0  0  0  0
   -4.8270   23.7860  -31.0950 C   0  0  0  0  0  0  0  0  0  0  0  0
   -4.8380   24.9920  -30.3630 C   0  0  0  0  0  0  0  0  0  0  0  0
   -6.0370   25.5060  -29.8680 C   0  0  0  0  0  0  0  0  0  0  0  0
   -7.2370   24.8310  -30.0970 C   0  0  0  0  0  0  0  0  0  0  0  0
   -7.2410   23.6400  -30.8240 C   0  0  0  0  0  0  0  0  0  0  0  0
   -6.0410   23.1090  -31.3250 C   0  0  0  0  0  0  0  0  0  0  0  0
   -6.0610   21.8910  -32.0880 N   0  0  0  0  0  0  0  0  0  0  0  0
   -5.1930   21.5770  -33.0470 N   0  0  0  0  0  0  0  0  0  0  0  0
   -5.4710   20.3990  -33.6020 N   0  0  0  0  0  0  0  0  0  0  0  0
   -6.5640   19.9540  -32.9560 C   0  0  0  0  0  0  0  0  0  0  0  0
   -7.2540   18.7590  -33.1350 C   0  0  0  0  0  0  0  0  0  0  0  0
   -8.3620   18.5180  -32.3000 C   0  0  0  0  0  0  0  0  0  0  0  0
   -8.7400   19.4640  -31.3160 C   0  0  0  0  0  0  0  0  0  0  0  0
   -8.0170   20.6640  -31.1620 C   0  0  0  0  0  0  0  0  0  0  0  0
   -6.9360   20.8730  -32.0190 C   0  0  0  0  0  0  0  0  0  0  0  0
   -2.9491   22.4665  -29.7930 H   0  0  0  0  0  0  0  0  0  0  0  0
   -3.0952   21.2852  -31.1383 H   0  0  0  0  0  0  0  0  0  0  0  0
   -1.7590   22.4857  -31.1383 H   0  0  0  0  0  0  0  0  0  0  0  0
   -3.8960   25.5302  -30.1815 H   0  0  0  0  0  0  0  0  0  0  0  0
   -6.0365   26.4455  -29.2959 H   0  0  0  0  0  0  0  0  0  0  0  0
   -8.1803   25.2382  -29.7041 H   0  0  0  0  0  0  0  0  0  0  0  0
   -8.1897   23.1137  -31.0059 H   0  0  0  0  0  0  0  0  0  0  0  0
   -4.4010   22.1850  -33.3520 H   0  0  0  0  0  0  0  0  0  0  0  0
   -6.9458   18.0305  -33.8994 H   0  0  0  0  0  0  0  0  0  0  0  0
   -8.9384   17.5879  -32.4128 H   0  0  0  0  0  0  0  0  0  0  0  0
   -9.6045   19.2606  -30.6670 H   0  0  0  0  0  0  0  0  0  0  0  0
   -8.2936   21.4052  -30.3977 H   0  0  0  0  0  0  0  0  0  0  0  0
  1  2  1  0
  2  3  1  0
  3  4  2  0
  4  5  1  0
  5  6  2  0
  6  7  1  0
  7  8  2  0
  8  9  1  0
  9 10  1  0
 10 11  2  0
 11 12  1  0
 12 13  2  0
 13 14  1  0
 14 15  2  0
 15 16  1  0
 16 17  2  0
  8  3  1  0
 17  9  1  0
 17 12  1  0
  1 18  1  0
  1 19  1  0
  1 20  1  0
  4 21  1  0
  5 22  1  0
  6 23  1  0
  7 24  1  0
 10 25  1  0
 13 26  1  0
 14 27  1  0
 15 28  1  0
 16 29  1  0
M  CHG  1  10   1
M  END
>  <UniqueID>  (3) 
2

>  <SMILES>  (3) 
COc1ccccc1-n1[nH+]nc2ccccc21

>  <Energy>  (3) 
81.41855104385179

>  <Genealogy>  (3) 
COc1ccccc1-n1[nH+]nc2ccccc21 (protonated)
COc1ccccc1-n1[nH+]nc2ccccc21 (3D coordinates assigned)
COc1ccccc1-n1[nH+]nc2ccccc21 (optimized conformer: 81.41855104385179 kcal/mol)

>  <smiles>  (3) 
COc1ccccc1-n1nnc2ccccc21

>  <score_type>  (3) 
oracle

>  <origin>  (3) 
adg

>  <m_score__min__energy>  (3) 
-6.46

>  <m_primary>  (3) 
energy

$$$$
3:0
     RDKit          3D

 44 46  0  0  0  0  0  0  0  0999 V2000
   -6.6290   24.6820  -29.8240 C   0  0  0  0  0  0  0  0  0  0  0  0
   -5.3850   25.2820  -31.0070 S   0  0  0  0  0  0  0  0  0  0  0  0
   -4.3510   23.8170  -30.8510 C   0  0  0  0  0  0  0  0  0  0  0  0
   -3.3170   23.8230  -29.9050 C   0  0  0  0  0  0  0  0  0  0  0  0
   -2.4540   22.7290  -29.7970 C   0  0  0  0  0  0  0  0  0  0  0  0
   -2.6120   21.6270  -30.6400 C   0  0  0  0  0  0  0  0  0  0  0  0
   -3.6400   21.6130  -31.5870 C   0  0  0  0  0  0  0  0  0  0  0  0
   -4.5250   22.6920  -31.6880 C   0  0  0  0  0  0  0  0  0  0  0  0
   -5.5320   22.6410  -32.6580 O   0  0  0  0  0  0  0  0  0  0  0  0
   -6.8510   22.2390  -32.4050 C   0  0  0  0  0  0  0  0  0  0  0  0
   -7.8300   23.1640  -32.1720 N   0  0  0  0  0  0  0  0  0  0  0  0
   -9.1210   22.7950  -31.9490 C   0  0  0  0  0  0  0  0  0  0  0  0
   -9.4770   21.4470  -31.9510 C   0  0  0  0  0  0  0  0  0  0  0  0
   -8.4970   20.4820  -32.1780 C   0  0  0  0  0  0  0  0  0  0  0  0
   -7.1660   20.8660  -32.3960 C   0  0  0  0  0  0  0  0  0  0  0  0
   -6.1320   19.8430  -32.6820 C   0  0  0  0  0  0  0  0  0  0  0  0
   -5.6940   19.0740  -31.6600 C   0  0  0  0  0  0  0  0  0  0  0  0
   -6.1600   17.6790  -31.3220 C   0  0  0  0  0  0  0  0  0  0  0  0
   -6.0190   16.6910  -32.4840 C   0  0  0  0  0  0  0  0  0  0  0  0
   -6.5830   17.2520  -33.7990 C   0  0  0  0  0  0  0  0  0  0  0  0
   -5.6120   18.1710  -34.5570 C   0  0  0  0  0  0  0  0  0  0  0  0
   -5.7420   19.6400  -34.1380 C   0  0  0  0  0  0  0  0  0  0  0  0
   -6.2722   24.8541  -28.7978 H   0  0  0  0  0  0  0  0  0  0  0  0
   -7.5738   25.2234  -29.9793 H   0  0  0  0  0  0  0  0  0  0  0  0
   -6.7935   23.6055  -29.9793 H   0  0  0  0  0  0  0  0  0  0  0  0
   -3.1841   24.6926  -29.2446 H   0  0  0  0  0  0  0  0  0  0  0  0
   -1.6493   22.7360  -29.0470 H   0  0  0  0  0  0  0  0  0  0  0  0
   -1.9274   20.7698  -30.5588 H   0  0  0  0  0  0  0  0  0  0  0  0
   -3.7540   20.7482  -32.2571 H   0  0  0  0  0  0  0  0  0  0  0  0
   -7.5960   24.1810  -32.1580 H   0  0  0  0  0  0  0  0  0  0  0  0
   -9.8866   23.5635  -31.7665 H   0  0  0  0  0  0  0  0  0  0  0  0
  -10.5209   21.1479  -31.7752 H   0  0  0  0  0  0  0  0  0  0  0  0
   -8.7685   19.4161  -32.1862 H   0  0  0  0  0  0  0  0  0  0  0  0
   -4.9205   19.5086  -31.0097 H   0  0  0  0  0  0  0  0  0  0  0  0
   -5.5640   17.3082  -30.4750 H   0  0  0  0  0  0  0  0  0  0  0  0
   -7.2311   17.7446  -31.0804 H   0  0  0  0  0  0  0  0  0  0  0  0
   -4.9525   16.4618  -32.6259 H   0  0  0  0  0  0  0  0  0  0  0  0
   -6.5938   15.7883  -32.2295 H   0  0  0  0  0  0  0  0  0  0  0  0
   -6.8399   16.4060  -34.4534 H   0  0  0  0  0  0  0  0  0  0  0  0
   -7.4572   17.8645  -33.5334 H   0  0  0  0  0  0  0  0  0  0  0  0
   -4.5830   17.8375  -34.3574 H   0  0  0  0  0  0  0  0  0  0  0  0
   -5.8591   18.1066  -35.6270 H   0  0  0  0  0  0  0  0  0  0  0  0
   -4.7737   20.1336  -34.3074 H   0  0  0  0  0  0  0  0  0  0  0  0
   -6.5527   20.0701  -34.7444 H   0  0  0  0  0  0  0  0  0  0  0  0
  1  2  1  0
  2  3  1  0
  3  4  2  0
  4  5  1  0
  5  6  2  0
  6  7  1  0
  7  8  2  0
  8  9  1  0
  9 10  1  0
 10 11  2  0
 11 12  1  0
 12 13  2  0
 13 14  1  0
 14 15  2  0
 15 16  1  0
 16 17  2  0
 17 18  1  0
 18 19  1  0
 19 20  1  0
 20 21  1  0
 21 22  1  0
  8  3  1  0
 15 10  1  0
 22 16  1  0
  1 23  1  0
  1 24  1  0
  1 25  1  0
  4 26  1  0
  5 27  1  0
  6 28  1  0
  7 29  1  0
 11 30  1  0
 12 31  1  0
 13 32  1  0
 14 33  1  0
 17 34  1  0
 18 35  1  0
 18 36  1  0
 19 37  1  0
 19 38  1  0
 20 39  1  0
 20 40  1  0
 21 41  1  0
 21 42  1  0
 22 43  1  0
 22 44  1  0
M  CHG  1  11   1
M  END
>  <UniqueID>  (4) 
3

>  <SMILES>  (4) 
CSc1ccccc1Oc1[nH+]cccc1C1=CCCCCC1

>  <Energy>  (4) 
57.2780169009463

>  <Genealogy>  (4) 
CSc1ccccc1Oc1[nH+]cccc1C1=CCCCCC1 (protonated)
CSc1ccccc1Oc1[nH+]cccc1C1=CCCCCC1 (3D coordinates assigned)
CSc1ccccc1Oc1[nH+]cccc1C1=CCCCCC1 (nonaromatic ring conformer: 57.2780169009463 kcal/mol)

>  <smiles>  (4) 
CSc1ccccc1Oc1ncccc1C1=CCCCCC1

>  <score_type>  (4) 
oracle

>  <origin>  (4) 
adg

>  <m_score__min__energy>  (4) 
-5.9500000000000002

>  <m_primary>  (4) 
energy

$$$$
4:0
     RDKit          3D

 41 43  0  0  0  0  0  0  0  0999 V2000
   -3.0360   20.4350  -32.6410 C   0  0  0  0  0  0  0  0  0  0  0  0
   -4.3730   20.9840  -32.3420 N   0  0  0  0  0  0  0  0  0  0  0  0
   -5.4640   20.1610  -32.3520 C   0  0  0  0  0  0  0  0  0  0  0  0
   -5.3280   18.9330  -32.6190 O   0  0  0  0  0  0  0  0  0  0  0  0
   -6.7350   20.6720  -32.0680 C   0  0  0  0  0  0  0  0  0  0  0  0
   -7.8760   19.8440  -32.1110 C   0  0  0  0  0  0  0  0  0  0  0  0
   -9.1390   20.3690  -31.8520 C   0  0  0  0  0  0  0  0  0  0  0  0
   -9.2830   21.7180  -31.5490 C   0  0  0  0  0  0  0  0  0  0  0  0
   -8.1640   22.5510  -31.4960 C   0  0  0  0  0  0  0  0  0  0  0  0
   -6.8630   22.0450  -31.7500 C   0  0  0  0  0  0  0  0  0  0  0  0
   -5.7370   22.8440  -31.7020 N   0  0  0  0  0  0  0  0  0  0  0  0
   -5.8360   24.2950  -31.4080 C   0  0  0  0  0  0  0  0  0  0  0  0
   -4.9430   24.6460  -30.2560 C   0  0  0  0  0  0  0  0  0  0  0  0
   -3.8840   25.3000  -30.4580 O   0  0  0  0  0  0  0  0  0  0  0  0
   -5.2750   24.2070  -28.9340 N   0  0  0  0  0  0  0  0  0  0  0  0
   -4.2450   23.8060  -27.9820 C   0  0  0  0  0  0  0  0  0  0  0  0
   -3.1960   22.9770  -28.6830 C   0  0  0  0  0  0  0  0  0  0  0  0
   -3.4750   21.6360  -29.0010 C   0  0  0  0  0  0  0  0  0  0  0  0
   -2.5000   20.8330  -29.6000 C   0  0  0  0  0  0  0  0  0  0  0  0
   -1.2370   21.3550  -29.8800 C   0  0  0  0  0  0  0  0  0  0  0  0
   -0.9420   22.6820  -29.5580 C   0  0  0  0  0  0  0  0  0  0  0  0
   -1.9100   23.4960  -28.9580 C   0  0  0  0  0  0  0  0  0  0  0  0
   -1.4720   25.1520  -28.5520 Cl  0  0  0  0  0  0  0  0  0  0  0  0
   -4.5040   22.3040  -31.9930 C   0  0  0  0  0  0  0  0  0  0  0  0
   -3.4720   23.0330  -31.9450 O   0  0  0  0  0  0  0  0  0  0  0  0
   -2.5095   20.2188  -31.6997 H   0  0  0  0  0  0  0  0  0  0  0  0
   -3.1422   19.5077  -33.2231 H   0  0  0  0  0  0  0  0  0  0  0  0
   -2.4599   21.1693  -33.2231 H   0  0  0  0  0  0  0  0  0  0  0  0
   -7.7671   18.7760  -32.3509 H   0  0  0  0  0  0  0  0  0  0  0  0
  -10.0235   19.7160  -31.8871 H   0  0  0  0  0  0  0  0  0  0  0  0
  -10.2830   22.1309  -31.3501 H   0  0  0  0  0  0  0  0  0  0  0  0
   -8.2929   23.6162  -31.2536 H   0  0  0  0  0  0  0  0  0  0  0  0
   -5.5288   24.8684  -32.2951 H   0  0  0  0  0  0  0  0  0  0  0  0
   -6.8760   24.5408  -31.1471 H   0  0  0  0  0  0  0  0  0  0  0  0
   -6.2700   23.9770  -28.7130 H   0  0  0  0  0  0  0  0  0  0  0  0
   -3.7749   24.7032  -27.5530 H   0  0  0  0  0  0  0  0  0  0  0  0
   -4.7040   23.2089  -27.1802 H   0  0  0  0  0  0  0  0  0  0  0  0
   -4.4667   21.2162  -28.7770 H   0  0  0  0  0  0  0  0  0  0  0  0
   -2.7293   19.7869  -29.8512 H   0  0  0  0  0  0  0  0  0  0  0  0
   -0.4731   20.7215  -30.3545 H   0  0  0  0  0  0  0  0  0  0  0  0
    0.0560   23.0893  -29.7771 H   0  0  0  0  0  0  0  0  0  0  0  0
  1  2  1  0
  2  3  1  0
  3  4  2  0
  3  5  1  0
  5  6  2  0
  6  7  1  0
  7  8  2  0
  8  9  1  0
  9 10  2  0
 10 11  1  0
 11 12  1  0
 12 13  1  0
 13 14  2  0
 13 15  1  0
 15 16  1  0
 16 17  1  0
 17 18  2  0
 18 19  1  0
 19 20  2  0
 20 21  1  0
 21 22  2  0
 22 23  1  0
 11 24  1  0
 24 25  2  0
 24  2  1  0
 10  5  1  0
 22 17  1  0
  1 26  1  0
  1 27  1  0
  1 28  1  0
  6 29  1  0
  7 30  1  0
  8 31  1  0
  9 32  1  0
 12 33  1  0
 12 34  1  0
 15 35  1  0
 16 36  1  0
 16 37  1  0
 18 38  1  0
 19 39  1  0
 20 40  1  0
 21 41  1  0
M  END
>  <UniqueID>  (5) 
4

>  <SMILES>  (5) 
Cn1c(=O)c2ccccc2n(CC(=O)NCc2ccccc2Cl)c1=O

>  <Energy>  (5) 
51.21859380678378

>  <Genealogy>  (5) 
Cn1c(=O)c2ccccc2n(CC(=O)NCc2ccccc2Cl)c1=O (3D coordinates assigned)
Cn1c(=O)c2ccccc2n(CC(=O)NCc2ccccc2Cl)c1=O (optimized conformer: 51.21859380678378 kcal/mol)

>  <smiles>  (5) 
Cn1c(=O)c2ccccc2n(CC(=O)NCc2ccccc2Cl)c1=O

>  <score_type>  (5) 
oracle

>  <origin>  (5) 
adg

>  <m_score__min__energy>  (5) 
-9.3900000000000006

>  <m_primary>  (5) 
energy

$$$$
5:0
     RDKit          3D

 39 41  0  0  0  0  0  0  0  0999 V2000
   -6.0990   25.2900  -30.3860 C   0  0  0  0  0  0  0  0  0  0  0  0
   -5.4370   24.0470  -30.9040 C   0  0  0  0  0  0  0  0  0  0  0  0
   -4.1060   23.8830  -30.6660 N   0  0  0  0  0  0  0  0  0  0  0  0
   -3.4120   22.8080  -31.1230 C   0  0  0  0  0  0  0  0  0  0  0  0
   -2.0460   22.6840  -30.8440 C   0  0  0  0  0  0  0  0  0  0  0  0
   -1.3330   21.5770  -31.3170 C   0  0  0  0  0  0  0  0  0  0  0  0
   -1.9830   20.5920  -32.0680 C   0  0  0  0  0  0  0  0  0  0  0  0
   -3.3480   20.7090  -32.3510 C   0  0  0  0  0  0  0  0  0  0  0  0
   -4.0680   21.8170  -31.8810 C   0  0  0  0  0  0  0  0  0  0  0  0
   -5.4330   21.9630  -32.1460 C   0  0  0  0  0  0  0  0  0  0  0  0
   -6.1390   23.0760  -31.6600 C   0  0  0  0  0  0  0  0  0  0  0  0
   -7.6260   23.1830  -31.9400 C   0  0  0  0  0  0  0  0  0  0  0  0
   -8.4070   22.1840  -31.1870 N   0  0  0  0  0  0  0  0  0  0  0  0
   -9.0550   21.2030  -32.0720 C   0  0  0  0  0  0  0  0  0  0  0  0
   -8.1320   20.0410  -32.3350 C   0  0  0  0  0  0  0  0  0  0  0  0
   -8.1390   18.9250  -31.4810 C   0  0  0  0  0  0  0  0  0  0  0  0
   -7.3090   17.8310  -31.7460 C   0  0  0  0  0  0  0  0  0  0  0  0
   -6.4750   17.8390  -32.8670 C   0  0  0  0  0  0  0  0  0  0  0  0
   -6.4730   18.9390  -33.7300 C   0  0  0  0  0  0  0  0  0  0  0  0
   -5.6710   18.9420  -34.8230 F   0  0  0  0  0  0  0  0  0  0  0  0
   -7.3020   20.0350  -33.4690 C   0  0  0  0  0  0  0  0  0  0  0  0
   -6.0925   25.2777  -29.2861 H   0  0  0  0  0  0  0  0  0  0  0  0
   -5.5522   26.1739  -30.7461 H   0  0  0  0  0  0  0  0  0  0  0  0
   -7.1376   25.3295  -30.7461 H   0  0  0  0  0  0  0  0  0  0  0  0
   -1.5330   23.4569  -30.2528 H   0  0  0  0  0  0  0  0  0  0  0  0
   -0.2593   21.4811  -31.0979 H   0  0  0  0  0  0  0  0  0  0  0  0
   -1.4191   19.7227  -32.4372 H   0  0  0  0  0  0  0  0  0  0  0  0
   -3.8562   19.9326  -32.9417 H   0  0  0  0  0  0  0  0  0  0  0  0
   -5.9582   21.2004  -32.7397 H   0  0  0  0  0  0  0  0  0  0  0  0
   -7.9688   24.1887  -31.6554 H   0  0  0  0  0  0  0  0  0  0  0  0
   -7.7824   22.9959  -33.0126 H   0  0  0  0  0  0  0  0  0  0  0  0
   -9.1470   22.6920  -30.6480 H   0  0  0  0  0  0  0  0  0  0  0  0
   -7.7900   21.6840  -30.5040 H   0  0  0  0  0  0  0  0  0  0  0  0
   -9.9740   20.8344  -31.5929 H   0  0  0  0  0  0  0  0  0  0  0  0
   -9.2960   21.6903  -33.0283 H   0  0  0  0  0  0  0  0  0  0  0  0
   -8.7993   18.9119  -30.6014 H   0  0  0  0  0  0  0  0  0  0  0  0
   -7.3128   16.9627  -31.0707 H   0  0  0  0  0  0  0  0  0  0  0  0
   -5.8196   16.9794  -33.0707 H   0  0  0  0  0  0  0  0  0  0  0  0
   -7.3043   20.8956  -34.1541 H   0  0  0  0  0  0  0  0  0  0  0  0
  1  2  1  0
  2  3  2  0
  3  4  1  0
  4  5  2  0
  5  6  1  0
  6  7  2  0
  7  8  1  0
  8  9  2  0
  9 10  1  0
 10 11  2  0
 11 12  1  0
 12 13  1  0
 13 14  1  0
 14 15  1  0
 15 16  2  0
 16 17  1  0
 17 18  2  0
 18 19  1  0
 19 20  1  0
 19 21  2  0
 11  2  1  0
 21 15  1  0
  9  4  1  0
  1 22  1  0
  1 23  1  0
  1 24  1  0
  5 25  1  0
  6 26  1  0
  7 27  1  0
  8 28  1  0
 10 29  1  0
 12 30  1  0
 12 31  1  0
 13 32  1  0
 13 33  1  0
 14 34  1  0
 14 35  1  0
 16 36  1  0
 17 37  1  0
 18 38  1  0
 21 39  1  0
M  CHG  1  13   1
M  END
>  <UniqueID>  (6) 
5

>  <SMILES>  (6) 
Cc1nc2ccccc2cc1C[NH2+]Cc1cccc(F)c1

>  <Energy>  (6) 
44.15656867164385

>  <Genealogy>  (6) 
Cc1nc2ccccc2cc1C[NH2+]Cc1cccc(F)c1 (protonated)
Cc1nc2ccccc2cc1C[NH2+]Cc1cccc(F)c1 (3D coordinates assigned)
Cc1nc2ccccc2cc1C[NH2+]Cc1cccc(F)c1 (optimized conformer: 44.15656867164385 kcal/mol)

>  <smiles>  (6) 
Cc1nc2ccccc2cc1CNCc1cccc(F)c1

>  <score_type>  (6) 
oracle

>  <origin>  (6) 
adg

>  <m_score__min__energy>  (6) 
-7.4500000000000002

>  <m_primary>  (6) 
energy

$$$$
6:0
     RDKit          3D

 35 36  0  0  0  0  0  0  0  0999 V2000
   -6.8610   16.9730  -33.9070 C   0  0  0  0  0  0  0  0  0  0  0  0
   -6.6260   18.1230  -32.9840 C   0  0  0  0  0  0  0  0  0  0  0  0
   -6.3450   17.8980  -31.7760 O   0  0  0  0  0  0  0  0  0  0  0  0
   -6.8130   19.4680  -33.4540 N   0  0  0  0  0  0  0  0  0  0  0  0
   -6.4410   20.6410  -32.7120 C   0  0  0  0  0  0  0  0  0  0  0  0
   -5.1000   21.0560  -32.7090 C   0  0  0  0  0  0  0  0  0  0  0  0
   -4.7070   22.1800  -31.9780 C   0  0  0  0  0  0  0  0  0  0  0  0
   -5.6490   22.9000  -31.2330 C   0  0  0  0  0  0  0  0  0  0  0  0
   -5.1480   24.2990  -30.2900 S   0  0  0  0  0  0  0  0  0  0  0  0
   -4.5970   25.3610  -31.2010 O   0  0  0  0  0  0  0  0  0  0  0  0
   -6.3310   24.8770  -29.5630 O   0  0  0  0  0  0  0  0  0  0  0  0
   -3.9180   23.8010  -29.1350 C   0  0  0  0  0  0  0  0  0  0  0  0
   -4.0880   22.6290  -28.3850 C   0  0  0  0  0  0  0  0  0  0  0  0
   -3.1020   22.2210  -27.4830 C   0  0  0  0  0  0  0  0  0  0  0  0
   -1.9380   22.9860  -27.3140 C   0  0  0  0  0  0  0  0  0  0  0  0
   -0.8610   22.5270  -26.3760 C   0  0  0  0  0  0  0  0  0  0  0  0
   -1.7570   24.1440  -28.0860 C   0  0  0  0  0  0  0  0  0  0  0  0
   -2.7440   24.5510  -28.9880 C   0  0  0  0  0  0  0  0  0  0  0  0
   -6.9820   22.4720  -31.2050 C   0  0  0  0  0  0  0  0  0  0  0  0
   -7.3760   21.3480  -31.9360 C   0  0  0  0  0  0  0  0  0  0  0  0
   -7.0471   16.0625  -33.3184 H   0  0  0  0  0  0  0  0  0  0  0  0
   -7.7345   17.1845  -34.5413 H   0  0  0  0  0  0  0  0  0  0  0  0
   -5.9746   16.8248  -34.5413 H   0  0  0  0  0  0  0  0  0  0  0  0
   -7.3260   19.5980  -34.3560 H   0  0  0  0  0  0  0  0  0  0  0  0
   -4.3528   20.4920  -33.2866 H   0  0  0  0  0  0  0  0  0  0  0  0
   -3.6547   22.5002  -31.9878 H   0  0  0  0  0  0  0  0  0  0  0  0
   -5.0013   22.0281  -28.5071 H   0  0  0  0  0  0  0  0  0  0  0  0
   -3.2389   21.2964  -26.9031 H   0  0  0  0  0  0  0  0  0  0  0  0
   -1.1943   22.6691  -25.3374 H   0  0  0  0  0  0  0  0  0  0  0  0
   -0.6516   21.4615  -26.5514 H   0  0  0  0  0  0  0  0  0  0  0  0
    0.0526   23.1139  -26.5514 H   0  0  0  0  0  0  0  0  0  0  0  0
   -0.8345   24.7338  -27.9807 H   0  0  0  0  0  0  0  0  0  0  0  0
   -2.5984   25.4636  -29.5847 H   0  0  0  0  0  0  0  0  0  0  0  0
   -7.7218   23.0226  -30.6054 H   0  0  0  0  0  0  0  0  0  0  0  0
   -8.4238   21.0146  -31.9040 H   0  0  0  0  0  0  0  0  0  0  0  0
  1  2  1  0
  2  3  2  0
  2  4  1  0
  4  5  1  0
  5  6  2  0
  6  7  1  0
  7  8  2  0
  8  9  1  0
  9 10  2  0
  9 11  2  0
  9 12  1  0
 12 13  2  0
 13 14  1  0
 14 15  2  0
 15 16  1  0
 15 17  1  0
 17 18  2  0
  8 19  1  0
 19 20  2  0
 20  5  1  0
 18 12  1  0
  1 21  1  0
  1 22  1  0
  1 23  1  0
  4 24  1  0
  6 25  1  0
  7 26  1  0
 13 27  1  0
 14 28  1  0
 16 29  1  0
 16 30  1  0
 16 31  1  0
 17 32  1  0
 18 33  1  0
 19 34  1  0
 20 35  1  0
M  END
>  <UniqueID>  (7) 
6

>  <SMILES>  (7) 
CC(=O)Nc1ccc(S(=O)(=O)c2ccc(C)cc2)cc1

>  <Energy>  (7) 
37.89015141191627

>  <Genealogy>  (7) 
CC(=O)Nc1ccc(S(=O)(=O)c2ccc(C)cc2)cc1 (3D coordinates assigned)
CC(=O)Nc1ccc(S(=O)(=O)c2ccc(C)cc2)cc1 (optimized conformer: 37.89015141191627 kcal/mol)

>  <smiles>  (7) 
CC(=O)Nc1ccc(S(=O)(=O)c2ccc(C)cc2)cc1

>  <score_type>  (7) 
oracle

>  <origin>  (7) 
adg

>  <m_score__min__energy>  (7) 
-8.5

>  <m_primary>  (7) 
energy

$$$$
7:0
     RDKit          3D

 51 54  0  0  0  0  0  0  0  0999 V2000
   -1.0250   21.8220  -30.7040 C   0  0  0  0  0  0  0  0  0  0  0  0
   -2.1630   21.7040  -31.6730 C   0  0  0  0  0  0  0  0  0  0  0  0
   -3.4430   22.2150  -31.5280 C   0  0  0  0  0  0  0  0  0  0  0  0
   -4.0390   22.9060  -30.3350 C   0  0  0  0  0  0  0  0  0  0  0  0
   -4.6060   24.2110  -30.7220 N   0  0  0  0  0  0  0  0  0  0  0  0
   -6.0630   24.2750  -30.9820 C   0  0  2  0  0  0  0  0  0  0  0  0
   -6.9340   23.2020  -30.3160 C   0  0  0  0  0  0  0  0  0  0  0  0
   -7.4310   22.7720  -31.7110 C   0  0  2  0  0  0  0  0  0  0  0  0
   -8.9290   22.9640  -31.9470 C   0  0  0  0  0  0  0  0  0  0  0  0
   -9.5010   21.5450  -31.9770 C   0  0  0  0  0  0  0  0  0  0  0  0
   -8.4000   20.6100  -31.6930 N   0  0  0  0  0  0  0  0  0  0  0  0
   -8.5530   19.3320  -32.4110 C   0  0  0  0  0  0  0  0  0  0  0  0
   -7.2040   18.7070  -32.6510 C   0  0  0  0  0  0  0  0  0  0  0  0
   -6.5100   18.9570  -33.8430 C   0  0  0  0  0  0  0  0  0  0  0  0
   -5.2840   18.3330  -34.0810 C   0  0  0  0  0  0  0  0  0  0  0  0
   -4.7660   17.4570  -33.1260 C   0  0  0  0  0  0  0  0  0  0  0  0
   -5.4560   17.2120  -31.9800 N   0  0  0  0  0  0  0  0  0  0  0  0
   -6.6510   17.8100  -31.7250 C   0  0  0  0  0  0  0  0  0  0  0  0
   -7.1690   21.3150  -32.0580 C   0  0  0  0  0  0  0  0  0  0  0  0
   -6.5110   23.8100  -32.3740 C   0  0  0  0  0  0  0  0  0  0  0  0
   -4.0990   21.8620  -32.6950 C   0  0  0  0  0  0  0  0  0  0  0  0
   -3.2460   21.2130  -33.5110 N   0  0  0  0  0  0  0  0  0  0  0  0
   -2.0760   21.1350  -32.8940 N   0  0  0  0  0  0  0  0  0  0  0  0
   -0.9060   20.4800  -33.4690 C   0  0  0  0  0  0  0  0  0  0  0  0
   -1.4134   21.7817  -29.6756 H   0  0  0  0  0  0  0  0  0  0  0  0
   -0.3207   20.9921  -30.8627 H   0  0  0  0  0  0  0  0  0  0  0  0
   -0.5060   22.7788  -30.8627 H   0  0  0  0  0  0  0  0  0  0  0  0
   -4.8360   22.2762  -29.9130 H   0  0  0  0  0  0  0  0  0  0  0  0
   -3.2484   23.0698  -29.5879 H   0  0  0  0  0  0  0  0  0  0  0  0
   -4.1220   24.5390  -31.5910 H   0  0  0  0  0  0  0  0  0  0  0  0
   -6.1875   25.3262  -30.6829 H   0  0  0  0  0  0  0  0  0  0  0  0
   -6.3663   22.4275  -29.7794 H   0  0  0  0  0  0  0  0  0  0  0  0
   -7.6459   23.4671  -29.5204 H   0  0  0  0  0  0  0  0  0  0  0  0
   -9.3791   23.5468  -31.1298 H   0  0  0  0  0  0  0  0  0  0  0  0
   -9.1372   23.5170  -32.8748 H   0  0  0  0  0  0  0  0  0  0  0  0
  -10.2860   21.4417  -31.2134 H   0  0  0  0  0  0  0  0  0  0  0  0
   -9.9437   21.3299  -32.9607 H   0  0  0  0  0  0  0  0  0  0  0  0
   -9.1686   18.6479  -31.8085 H   0  0  0  0  0  0  0  0  0  0  0  0
   -9.0396   19.5198  -33.3795 H   0  0  0  0  0  0  0  0  0  0  0  0
   -6.9314   19.6448  -34.5909 H   0  0  0  0  0  0  0  0  0  0  0  0
   -4.7319   18.5298  -35.0118 H   0  0  0  0  0  0  0  0  0  0  0  0
   -3.7983   16.9640  -33.3005 H   0  0  0  0  0  0  0  0  0  0  0  0
   -7.1856   17.5894  -30.7893 H   0  0  0  0  0  0  0  0  0  0  0  0
   -6.3163   20.9277  -31.4811 H   0  0  0  0  0  0  0  0  0  0  0  0
   -6.9171   21.1826  -33.1206 H   0  0  0  0  0  0  0  0  0  0  0  0
   -5.7066   23.3754  -32.9857 H   0  0  0  0  0  0  0  0  0  0  0  0
   -6.9086   24.5281  -33.1063 H   0  0  0  0  0  0  0  0  0  0  0  0
   -5.1536   22.0781  -32.9209 H   0  0  0  0  0  0  0  0  0  0  0  0
   -0.2553   20.1157  -32.6604 H   0  0  0  0  0  0  0  0  0  0  0  0
   -1.2290   19.6315  -34.0901 H   0  0  0  0  0  0  0  0  0  0  0  0
   -0.3515   21.1989  -34.0901 H   0  0  0  0  0  0  0  0  0  0  0  0
  1  2  1  0
  2  3  2  0
  3  4  1  0
  4  5  1  0
  5  6  1  0
  6  7  1  0
  8  7  1  1
  8  9  1  0
  9 10  1  0
 10 11  1  0
 11 12  1  0
 12 13  1  0
 13 14  2  0
 14 15  1  0
 15 16  2  0
 16 17  1  0
 17 18  2  0
 11 19  1  0
  8 20  1  0
  3 21  1  0
 21 22  2  0
 22 23  1  0
 23 24  1  0
 23  2  1  0
 20  6  1  0
 19  8  1  0
 18 13  1  0
  1 25  1  0
  1 26  1  0
  1 27  1  0
  4 28  1  0
  4 29  1  0
  5 30  1  0
  6 31  1  1
  7 32  1  0
  7 33  1  0
  9 34  1  0
  9 35  1  0
 10 36  1  0
 10 37  1  0
 12 38  1  0
 12 39  1  0
 14 40  1  0
 15 41  1  0
 16 42  1  0
 18 43  1  0
 19 44  1  0
 19 45  1  0
 20 46  1  0
 20 47  1  0
 21 48  1  0
 24 49  1  0
 24 50  1  0
 24 51  1  0
M  END
>  <UniqueID>  (8) 
7

>  <SMILES>  (8) 
Cc1c(CNC2CC3(CCN(Cc4cccnc4)C3)C2)cnn1C

>  <Energy>  (8) 
154.49371785682752

>  <Genealogy>  (8) 
Cc1c(CNC2CC3(CCN(Cc4cccnc4)C3)C2)cnn1C (3D coordinates assigned)
Cc1c(CNC2CC3(CCN(Cc4cccnc4)C3)C2)cnn1C (nonaromatic ring conformer: 154.49371785682752 kcal/mol)

>  <smiles>  (8) 
Cc1c(CNC2CC3(CCN(Cc4cccnc4)C3)C2)cnn1C

>  <score_type>  (8) 
oracle

>  <origin>  (8) 
adg

>  <m_score__min__energy>  (8) 
-9.0099999999999998

>  <m_primary>  (8) 
energy

$$$$
8:0
     RDKit          3D

 51 54  0  0  1  0  0  0  0  0999 V2000
   -8.4440   19.2310  -31.9250 C   0  0  0  0  0  0  0  0  0  0  0  0
   -7.6140   20.0690  -32.7080 O   0  0  0  0  0  0  0  0  0  0  0  0
   -7.2180   21.2990  -32.2360 C   0  0  0  0  0  0  0  0  0  0  0  0
   -8.0620   22.2250  -31.6740 C   0  0  0  0  0  0  0  0  0  0  0  0
   -7.5920   23.4560  -31.2150 C   0  0  0  0  0  0  0  0  0  0  0  0
   -6.2490   23.7700  -31.3210 C   0  0  0  0  0  0  0  0  0  0  0  0
   -5.7130   25.0920  -30.8330 C   0  0  0  0  0  0  0  0  0  0  0  0
   -4.2800   24.9050  -30.7120 N   0  0  0  0  0  0  0  0  0  0  0  0
   -3.8280   24.2270  -29.7380 C   0  0  0  0  0  0  0  0  0  0  0  0
   -4.2800   24.5470  -28.4930 N   0  0  0  0  0  0  0  0  0  0  0  0
   -3.8240   23.8470  -27.4120 C   0  0  0  0  0  0  0  0  0  0  0  0
   -2.9320   22.8410  -27.5560 N   0  0  0  0  0  0  0  0  0  0  0  0
   -2.4480   22.4800  -28.7690 C   0  0  0  0  0  0  0  0  0  0  0  0
   -2.9170   23.1950  -29.8510 C   0  0  0  0  0  0  0  0  0  0  0  0
   -2.3310   22.6930  -30.9290 N   0  0  0  0  0  0  0  0  0  0  0  0
   -1.5210   21.6950  -30.5280 C   0  0  0  0  0  0  0  0  0  0  0  0
   -1.5830   21.5500  -29.1860 N   0  0  0  0  0  0  0  0  0  0  0  0
   -0.8820   20.6060  -28.3370 C   0  0  2  0  0  0  0  0  0  0  0  0
   -0.8940   19.2300  -28.9750 C   0  0  0  0  0  0  0  0  0  0  0  0
   -0.8160   18.2520  -27.8020 C   0  0  1  0  0  0  0  0  0  0  0  0
    0.6260   17.8830  -27.5130 C   0  0  0  0  0  0  0  0  0  0  0  0
    0.6620   16.5720  -27.0790 O   0  0  0  0  0  0  0  0  0  0  0  0
   -1.4440   18.9700  -26.6480 C   0  0  2  0  0  0  0  0  0  0  0  0
   -2.6440   18.3500  -26.2900 O   0  0  0  0  0  0  0  0  0  0  0  0
   -1.6290   20.4160  -27.0340 C   0  0  1  0  0  0  0  0  0  0  0  0
   -1.2030   21.2980  -26.0530 O   0  0  0  0  0  0  0  0  0  0  0  0
   -5.3940   22.8270  -31.8930 C   0  0  0  0  0  0  0  0  0  0  0  0
   -5.8710   21.6130  -32.3430 C   0  0  0  0  0  0  0  0  0  0  0  0
   -4.6100   20.4030  -33.1070 Br  0  0  0  0  0  0  0  0  0  0  0  0
   -8.2553   19.4215  -30.8582 H   0  0  0  0  0  0  0  0  0  0  0  0
   -9.4989   19.4422  -32.1542 H   0  0  0  0  0  0  0  0  0  0  0  0
   -8.2227   18.1782  -32.1542 H   0  0  0  0  0  0  0  0  0  0  0  0
   -9.1330   21.9910  -31.5836 H   0  0  0  0  0  0  0  0  0  0  0  0
   -8.2909   24.1783  -30.7679 H   0  0  0  0  0  0  0  0  0  0  0  0
   -5.9374   25.8892  -31.5569 H   0  0  0  0  0  0  0  0  0  0  0  0
   -6.1689   25.3909  -29.8776 H   0  0  0  0  0  0  0  0  0  0  0  0
   -4.9580   25.3000  -28.3130 H   0  0  0  0  0  0  0  0  0  0  0  0
   -4.1888   24.1062  -26.4071 H   0  0  0  0  0  0  0  0  0  0  0  0
   -0.8974   21.0845  -31.1977 H   0  0  0  0  0  0  0  0  0  0  0  0
    0.1340   20.9999  -28.1870 H   0  0  0  0  0  0  0  0  0  0  0  0
   -1.8215   19.0762  -29.5461 H   0  0  0  0  0  0  0  0  0  0  0  0
   -0.0632   19.0945  -29.6832 H   0  0  0  0  0  0  0  0  0  0  0  0
   -1.3355   17.3054  -28.0120 H   0  0  0  0  0  0  0  0  0  0  0  0
    1.2269   17.9880  -28.4283 H   0  0  0  0  0  0  0  0  0  0  0  0
    1.0389   18.5484  -26.7404 H   0  0  0  0  0  0  0  0  0  0  0  0
   -0.1550   16.2900  -26.5890 H   0  0  0  0  0  0  0  0  0  0  0  0
   -0.7962   18.9290  -25.7599 H   0  0  0  0  0  0  0  0  0  0  0  0
   -2.7370   18.3470  -25.3100 H   0  0  0  0  0  0  0  0  0  0  0  0
   -2.6984   20.6443  -27.1532 H   0  0  0  0  0  0  0  0  0  0  0  0
   -1.6780   22.1500  -26.1780 H   0  0  0  0  0  0  0  0  0  0  0  0
   -4.3220   23.0553  -31.9867 H   0  0  0  0  0  0  0  0  0  0  0  0
  1  2  1  0
  2  3  1  0
  3  4  2  0
  4  5  1  0
  5  6  2  0
  6  7  1  0
  7  8  1  0
  8  9  2  0
  9 10  1  0
 10 11  1  0
 11 12  2  0
 12 13  1  0
 13 14  2  0
 14 15  1  0
 15 16  2  0
 16 17  1  0
 17 18  1  0
 18 19  1  0
 19 20  1  0
 20 21  1  0
 21 22  1  0
 20 23  1  0
 23 24  1  0
 23 25  1  0
 25 26  1  0
  6 27  1  0
 27 28  2  0
 28 29  1  0
 28  3  1  0
 14  9  1  0
 25 18  1  0
 17 13  1  0
  1 30  1  0
  1 31  1  0
  1 32  1  0
  4 33  1  0
  5 34  1  0
  7 35  1  0
  7 36  1  0
 10 37  1  0
 11 38  1  0
 16 39  1  0
 18 40  1  1
 19 41  1  0
 19 42  1  0
 20 43  1  6
 21 44  1  0
 21 45  1  0
 22 46  1  0
 23 47  1  1
 24 48  1  0
 25 49  1  6
 26 50  1  0
 27 51  1  0
M  END
>  <smiles>  (9) 
COc1ccc(CN=c2[nH]cnc3c2ncn3C2CC(CO)C(O)C2O)cc1Br

>  <score_type>  (9) 
oracle

>  <origin>  (9) 
adg

>  <m_score__min__energy>  (9) 
-9.3000000000000007

>  <m_primary>  (9) 
energy

$$$$
9:0
     RDKit          3D

 59 61  0  0  1  0  0  0  0  0999 V2000
   -2.8330   19.6660  -27.0850 C   0  0  0  0  0  0  0  0  0  0  0  0
   -2.0480   20.7580  -27.4630 O   0  0  0  0  0  0  0  0  0  0  0  0
   -2.5040   21.8600  -28.1590 C   0  0  0  0  0  0  0  0  0  0  0  0
   -2.8740   23.0420  -27.5650 C   0  0  0  0  0  0  0  0  0  0  0  0
   -3.3250   24.1120  -28.3300 C   0  0  0  0  0  0  0  0  0  0  0  0
   -3.4220   24.0330  -29.7110 C   0  0  0  0  0  0  0  0  0  0  0  0
   -3.8680   25.0860  -30.4810 O   0  0  0  0  0  0  0  0  0  0  0  0
   -5.2080   25.3930  -30.7590 C   0  0  0  0  0  0  0  0  0  0  0  0
   -3.0420   22.8270  -30.3050 C   0  0  0  0  0  0  0  0  0  0  0  0
   -3.1230   22.6910  -31.7360 N   0  0  0  0  0  0  0  0  0  0  0  0
   -2.5790   21.6530  -32.2780 C   0  0  0  0  0  0  0  0  0  0  0  0
   -1.2310   21.5520  -32.1930 N   0  0  0  0  0  0  0  0  0  0  0  0
   -0.5960   20.4800  -32.7450 C   0  0  0  0  0  0  0  0  0  0  0  0
   -1.2970   19.5180  -33.3740 N   0  0  0  0  0  0  0  0  0  0  0  0
   -2.6480   19.6020  -33.4700 C   0  0  0  0  0  0  0  0  0  0  0  0
   -3.4080   18.6440  -34.1020 C   0  0  0  0  0  0  0  0  0  0  0  0
   -4.7800   18.7070  -34.2110 C   0  0  0  0  0  0  0  0  0  0  0  0
   -5.5210   17.7240  -34.8550 O   0  0  0  0  0  0  0  0  0  0  0  0
   -6.1840   16.7630  -34.0400 C   0  0  0  0  0  0  0  0  0  0  0  0
   -5.3870   19.8260  -33.6300 C   0  0  0  0  0  0  0  0  0  0  0  0
   -6.8230   19.9030  -33.7350 N   0  0  0  0  0  0  0  0  0  0  0  0
   -7.5900   19.7740  -32.5420 C   0  0  0  0  0  0  0  0  0  0  0  0
   -6.9420   19.6010  -31.4770 O   0  0  0  0  0  0  0  0  0  0  0  0
   -9.0490   19.8340  -32.5240 C   0  0  0  0  0  0  0  0  0  0  0  0
   -9.7390   20.8280  -32.0120 C   0  0  0  0  0  0  0  0  0  0  0  0
   -9.3790   21.5860  -30.7940 C   0  0  0  0  0  0  0  0  0  0  0  0
   -8.4070   22.5970  -30.9660 N   0  0  0  0  0  0  0  0  0  0  0  0
   -7.1170   22.3670  -30.4380 C   0  0  0  0  0  0  0  0  0  0  0  0
   -8.3910   23.1220  -32.2920 C   0  0  0  0  0  0  0  0  0  0  0  0
   -4.6890   20.8070  -32.9910 C   0  0  0  0  0  0  0  0  0  0  0  0
   -3.3120   20.6770  -32.9200 C   0  0  0  0  0  0  0  0  0  0  0  0
   -2.5960   21.7710  -29.5330 C   0  0  0  0  0  0  0  0  0  0  0  0
   -2.8752   19.6072  -25.9874 H   0  0  0  0  0  0  0  0  0  0  0  0
   -3.8502   19.7897  -27.4850 H   0  0  0  0  0  0  0  0  0  0  0  0
   -2.3917   18.7412  -27.4850 H   0  0  0  0  0  0  0  0  0  0  0  0
   -2.8128   23.1433  -26.4714 H   0  0  0  0  0  0  0  0  0  0  0  0
   -3.6126   25.0465  -27.8260 H   0  0  0  0  0  0  0  0  0  0  0  0
   -5.7587   25.5192  -29.8152 H   0  0  0  0  0  0  0  0  0  0  0  0
   -5.2576   26.3258  -31.3399 H   0  0  0  0  0  0  0  0  0  0  0  0
   -5.6587   24.5748  -31.3399 H   0  0  0  0  0  0  0  0  0  0  0  0
    0.4989   20.4000  -32.6760 H   0  0  0  0  0  0  0  0  0  0  0  0
   -0.8080   18.6920  -33.8000 H   0  0  0  0  0  0  0  0  0  0  0  0
   -2.8911   17.7799  -34.5448 H   0  0  0  0  0  0  0  0  0  0  0  0
   -6.0176   17.0042  -32.9797 H   0  0  0  0  0  0  0  0  0  0  0  0
   -7.2626   16.7812  -34.2553 H   0  0  0  0  0  0  0  0  0  0  0  0
   -5.7840   15.7612  -34.2553 H   0  0  0  0  0  0  0  0  0  0  0  0
   -7.2790   20.0490  -34.6600 H   0  0  0  0  0  0  0  0  0  0  0  0
   -9.6051   18.9945  -32.9668 H   0  0  0  0  0  0  0  0  0  0  0  0
  -10.6623   21.1212  -32.5331 H   0  0  0  0  0  0  0  0  0  0  0  0
  -10.2939   22.0591  -30.4077 H   0  0  0  0  0  0  0  0  0  0  0  0
   -8.9310   20.8534  -30.1066 H   0  0  0  0  0  0  0  0  0  0  0  0
   -7.1638   22.3753  -29.3390 H   0  0  0  0  0  0  0  0  0  0  0  0
   -6.7490   21.3891  -30.7819 H   0  0  0  0  0  0  0  0  0  0  0  0
   -6.4337   23.1575  -30.7819 H   0  0  0  0  0  0  0  0  0  0  0  0
   -8.3575   24.2207  -32.2510 H   0  0  0  0  0  0  0  0  0  0  0  0
   -7.5038   22.7477  -32.8239 H   0  0  0  0  0  0  0  0  0  0  0  0
   -9.2993   22.8025  -32.8239 H   0  0  0  0  0  0  0  0  0  0  0  0
   -5.2021   21.6727  -32.5467 H   0  0  0  0  0  0  0  0  0  0  0  0
   -2.3060   20.8325  -30.0281 H   0  0  0  0  0  0  0  0  0  0  0  0
  1  2  1  0
  2  3  1  0
  3  4  2  0
  4  5  1  0
  5  6  2  0
  6  7  1  0
  7  8  1  0
  6  9  1  0
  9 10  1  0
 10 11  2  0
 11 12  1  0
 12 13  2  0
 13 14  1  0
 14 15  1  0
 15 16  2  0
 16 17  1  0
 17 18  1  0
 18 19  1  0
 17 20  2  0
 20 21  1  0
 21 22  1  0
 22 23  2  0
 22 24  1  0
 24 25  2  0
 25 26  1  0
 26 27  1  0
 27 28  1  0
 27 29  1  0
 20 30  1  0
 30 31  2  0
  9 32  2  0
 32  3  1  0
 31 11  1  0
 31 15  1  0
  1 33  1  0
  1 34  1  0
  1 35  1  0
  4 36  1  0
  5 37  1  0
  8 38  1  0
  8 39  1  0
  8 40  1  0
 13 41  1  0
 14 42  1  0
 16 43  1  0
 19 44  1  0
 19 45  1  0
 19 46  1  0
 21 47  1  0
 24 48  1  0
 25 49  1  0
 26 50  1  0
 26 51  1  0
 28 52  1  0
 28 53  1  0
 28 54  1  0
 29 55  1  0
 29 56  1  0
 29 57  1  0
 30 58  1  0
 32 59  1  0
M  END
>  <smiles>  (10) 
COc1ccc(OC)c(N=c2nc[nH]c3cc(OC)c(NC(=O)C=CCN(C)C)cc23)c1

>  <score_type>  (10) 
oracle

>  <origin>  (10) 
adg

>  <m_score__min__energy>  (10) 
-9.0399999999999991

>  <m_primary>  (10) 
energy

$$$$
10:0
     RDKit          3D

 42 44  0  0  0  0  0  0  0  0999 V2000
   -6.2590   13.5670  -34.3220 C   0  0  0  0  0  0  0  0  0  0  0  0
   -5.2420   14.3560  -33.6930 O   0  0  0  0  0  0  0  0  0  0  0  0
   -5.6090   15.6280  -33.2920 C   0  0  0  0  0  0  0  0  0  0  0  0
   -5.3780   16.1220  -32.0210 C   0  0  0  0  0  0  0  0  0  0  0  0
   -5.7660   17.4020  -31.6700 C   0  0  0  0  0  0  0  0  0  0  0  0
   -6.3950   18.2440  -32.5600 C   0  0  0  0  0  0  0  0  0  0  0  0
   -6.8160   19.6000  -32.2230 C   0  0  0  0  0  0  0  0  0  0  0  0
   -6.0390   20.5280  -31.6400 N   0  0  0  0  0  0  0  0  0  0  0  0
   -6.7210   21.6550  -31.4690 N   0  0  0  0  0  0  0  0  0  0  0  0
   -6.2810   22.8840  -30.8930 C   0  0  0  0  0  0  0  0  0  0  0  0
   -7.2450   23.6950  -30.3170 C   0  0  0  0  0  0  0  0  0  0  0  0
   -6.9080   24.9020  -29.7380 C   0  0  0  0  0  0  0  0  0  0  0  0
   -5.5840   25.2860  -29.7420 C   0  0  0  0  0  0  0  0  0  0  0  0
   -4.6100   24.4800  -30.3160 C   0  0  0  0  0  0  0  0  0  0  0  0
   -3.2730   24.8750  -30.3180 O   0  0  0  0  0  0  0  0  0  0  0  0
   -2.3920   24.1070  -29.5150 C   0  0  0  0  0  0  0  0  0  0  0  0
   -4.9370   23.2570  -30.9070 C   0  0  0  0  0  0  0  0  0  0  0  0
   -7.9680   21.4660  -31.9490 C   0  0  0  0  0  0  0  0  0  0  0  0
   -9.0530   22.4770  -31.9550 C   0  0  0  0  0  0  0  0  0  0  0  0
   -8.0070   20.1980  -32.4070 N   0  0  0  0  0  0  0  0  0  0  0  0
   -9.1300   19.6050  -32.9890 N   0  0  0  0  0  0  0  0  0  0  0  0
   -6.6290   17.7590  -33.8300 C   0  0  0  0  0  0  0  0  0  0  0  0
   -6.2460   16.4680  -34.2070 C   0  0  0  0  0  0  0  0  0  0  0  0
   -6.8790   13.0860  -33.5512 H   0  0  0  0  0  0  0  0  0  0  0  0
   -6.8899   14.2142  -34.9489 H   0  0  0  0  0  0  0  0  0  0  0  0
   -5.7889   12.7950  -34.9489 H   0  0  0  0  0  0  0  0  0  0  0  0
   -4.8770   15.4857  -31.2765 H   0  0  0  0  0  0  0  0  0  0  0  0
   -5.5662   17.7586  -30.6488 H   0  0  0  0  0  0  0  0  0  0  0  0
   -8.2965   23.3719  -30.3210 H   0  0  0  0  0  0  0  0  0  0  0  0
   -7.6783   25.5427  -29.2839 H   0  0  0  0  0  0  0  0  0  0  0  0
   -5.2953   26.2437  -29.2843 H   0  0  0  0  0  0  0  0  0  0  0  0
   -2.6069   24.2943  -28.4526 H   0  0  0  0  0  0  0  0  0  0  0  0
   -2.5330   23.0384  -29.7348 H   0  0  0  0  0  0  0  0  0  0  0  0
   -1.3527   24.3925  -29.7348 H   0  0  0  0  0  0  0  0  0  0  0  0
   -4.1682   22.6162  -31.3634 H   0  0  0  0  0  0  0  0  0  0  0  0
   -9.3243   22.7298  -30.9194 H   0  0  0  0  0  0  0  0  0  0  0  0
   -8.7074   23.3826  -32.4750 H   0  0  0  0  0  0  0  0  0  0  0  0
   -9.9320   22.0684  -32.4750 H   0  0  0  0  0  0  0  0  0  0  0  0
   -9.8840   19.1340  -32.4670 H   0  0  0  0  0  0  0  0  0  0  0  0
   -9.1810   19.6590  -34.0410 H   0  0  0  0  0  0  0  0  0  0  0  0
   -7.1302   18.4050  -34.5658 H   0  0  0  0  0  0  0  0  0  0  0  0
   -6.4475   16.1131  -35.2285 H   0  0  0  0  0  0  0  0  0  0  0  0
  1  2  1  0
  2  3  1  0
  3  4  2  0
  4  5  1  0
  5  6  2  0
  6  7  1  0
  7  8  2  0
  8  9  1  0
  9 10  1  0
 10 11  2  0
 11 12  1  0
 12 13  2  0
 13 14  1  0
 14 15  1  0
 15 16  1  0
 14 17  2  0
  9 18  2  0
 18 19  1  0
 18 20  1  0
 20 21  1  0
  6 22  1  0
 22 23  2  0
 23  3  1  0
 20  7  1  0
 17 10  1  0
  1 24  1  0
  1 25  1  0
  1 26  1  0
  4 27  1  0
  5 28  1  0
 11 29  1  0
 12 30  1  0
 13 31  1  0
 16 32  1  0
 16 33  1  0
 16 34  1  0
 17 35  1  0
 19 36  1  0
 19 37  1  0
 19 38  1  0
 21 39  1  0
 21 40  1  0
 22 41  1  0
 23 42  1  0
M  CHG  1   9   1
M  END
>  <smiles>  (11) 
COc1ccc(-c2n[n+](-c3cccc(OC)c3)c(C)n2N)cc1

>  <score_type>  (11) 
oracle

>  <origin>  (11) 
adg

>  <m_score__min__energy>  (11) 
-8.1500000000000004

>  <m_primary>  (11) 
energy

$$$$
11:0
     RDKit          3D

 36 36  0  0  0  0  0  0  0  0999 V2000
   -4.6890   18.9120  -33.8760 C   0  0  0  0  0  0  0  0  0  0  0  0
   -5.5440   18.1920  -32.8380 C   0  0  0  0  0  0  0  0  0  0  0  0
   -6.8740   17.8670  -33.4040 N   0  0  0  0  0  0  0  0  0  0  0  0
   -6.8370   16.5950  -34.1610 C   0  0  0  0  0  0  0  0  0  0  0  0
   -5.7360   15.6880  -33.6170 C   0  0  0  0  0  0  0  0  0  0  0  0
   -7.9090   17.8250  -32.3450 C   0  0  0  0  0  0  0  0  0  0  0  0
   -8.5210   19.2170  -32.1500 C   0  0  0  0  0  0  0  0  0  0  0  0
   -7.7620   20.2220  -32.8960 N   0  0  0  0  0  0  0  0  0  0  0  0
   -7.2240   21.4320  -32.3270 C   0  0  0  0  0  0  0  0  0  0  0  0
   -8.0480   22.4290  -31.7730 C   0  0  0  0  0  0  0  0  0  0  0  0
   -7.4900   23.5920  -31.2330 C   0  0  0  0  0  0  0  0  0  0  0  0
   -6.0980   23.7810  -31.2380 C   0  0  0  0  0  0  0  0  0  0  0  0
   -5.4920   25.0000  -30.6730 C   0  0  0  0  0  0  0  0  0  0  0  0
   -4.2700   25.2580  -30.8430 O   0  0  0  0  0  0  0  0  0  0  0  0
   -5.2770   22.7920  -31.7950 C   0  0  0  0  0  0  0  0  0  0  0  0
   -5.8340   21.6300  -32.3360 C   0  0  0  0  0  0  0  0  0  0  0  0
   -3.9437   19.5396  -33.3656 H   0  0  0  0  0  0  0  0  0  0  0  0
   -4.1749   18.1708  -34.5055 H   0  0  0  0  0  0  0  0  0  0  0  0
   -5.3319   19.5448  -34.5055 H   0  0  0  0  0  0  0  0  0  0  0  0
   -5.0410   17.2616  -32.5357 H   0  0  0  0  0  0  0  0  0  0  0  0
   -5.6769   18.8489  -31.9657 H   0  0  0  0  0  0  0  0  0  0  0  0
   -7.8075   16.0863  -34.0639 H   0  0  0  0  0  0  0  0  0  0  0  0
   -6.6310   16.8136  -35.2192 H   0  0  0  0  0  0  0  0  0  0  0  0
   -5.7568   15.7051  -32.5173 H   0  0  0  0  0  0  0  0  0  0  0  0
   -5.9000   14.6595  -33.9709 H   0  0  0  0  0  0  0  0  0  0  0  0
   -4.7579   16.0459  -33.9709 H   0  0  0  0  0  0  0  0  0  0  0  0
   -8.6994   17.1178  -32.6368 H   0  0  0  0  0  0  0  0  0  0  0  0
   -7.4455   17.5005  -31.4017 H   0  0  0  0  0  0  0  0  0  0  0  0
   -9.5606   19.2086  -32.5095 H   0  0  0  0  0  0  0  0  0  0  0  0
   -8.4907   19.4713  -31.0802 H   0  0  0  0  0  0  0  0  0  0  0  0
   -7.6160   20.0450  -33.9160 H   0  0  0  0  0  0  0  0  0  0  0  0
   -9.1395   22.2925  -31.7646 H   0  0  0  0  0  0  0  0  0  0  0  0
   -8.1449   24.3634  -30.8018 H   0  0  0  0  0  0  0  0  0  0  0  0
   -6.1164   25.6960  -30.0935 H   0  0  0  0  0  0  0  0  0  0  0  0
   -4.1859   22.9310  -31.8066 H   0  0  0  0  0  0  0  0  0  0  0  0
   -5.1773   20.8633  -32.7730 H   0  0  0  0  0  0  0  0  0  0  0  0
  1  2  1  0
  2  3  1  0
  3  4  1  0
  4  5  1  0
  3  6  1  0
  6  7  1  0
  7  8  1  0
  8  9  1  0
  9 10  2  0
 10 11  1  0
 11 12  2  0
 12 13  1  0
 13 14  2  0
 12 15  1  0
 15 16  2  0
 16  9  1  0
  1 17  1  0
  1 18  1  0
  1 19  1  0
  2 20  1  0
  2 21  1  0
  4 22  1  0
  4 23  1  0
  5 24  1  0
  5 25  1  0
  5 26  1  0
  6 27  1  0
  6 28  1  0
  7 29  1  0
  7 30  1  0
  8 31  1  0
 10 32  1  0
 11 33  1  0
 13 34  1  0
 15 35  1  0
 16 36  1  0
M  END
>  <UniqueID>  (12) 
8

>  <SMILES>  (12) 
CCN(CC)CCNc1ccc(C=O)cc1

>  <Energy>  (12) 
30.129302181461483

>  <Genealogy>  (12) 
CCN(CC)CCNc1ccc(C=O)cc1 (3D coordinates assigned)
CCN(CC)CCNc1ccc(C=O)cc1 (optimized conformer: 30.129302181461483 kcal/mol)

>  <smiles>  (12) 
CCN(CC)CCNc1ccc(C=O)cc1

>  <score_type>  (12) 
oracle

>  <origin>  (12) 
adg

>  <m_score__min__energy>  (12) 
-6.5099999999999998

>  <m_primary>  (12) 
energy

$$$$
12:0
     RDKit          3D

 51 54  0  0  0  0  0  0  0  0999 V2000
   -5.3590   25.7670  -30.4270 C   0  0  0  0  0  0  0  0  0  0  0  0
   -4.9920   24.6490  -31.2300 O   0  0  0  0  0  0  0  0  0  0  0  0
   -5.8070   23.5290  -31.4480 C   0  0  0  0  0  0  0  0  0  0  0  0
   -7.1710   23.7380  -31.6920 C   0  0  0  0  0  0  0  0  0  0  0  0
   -8.0300   22.6580  -31.9170 C   0  0  0  0  0  0  0  0  0  0  0  0
   -7.5330   21.3520  -31.9000 C   0  0  0  0  0  0  0  0  0  0  0  0
   -8.3500   20.3290  -32.1170 O   0  0  0  0  0  0  0  0  0  0  0  0
   -7.9410   19.0630  -32.1140 C   0  0  0  0  0  0  0  0  0  0  0  0
   -8.7860   18.1510  -32.3180 O   0  0  0  0  0  0  0  0  0  0  0  0
   -6.5850   18.7480  -31.8720 C   0  0  0  0  0  0  0  0  0  0  0  0
   -6.1050   17.3390  -31.8820 C   0  0  0  0  0  0  0  0  0  0  0  0
   -6.1350   16.6750  -30.8080 O   0  0  0  0  0  0  0  0  0  0  0  0
   -5.6250   16.7060  -33.0970 N   0  0  0  0  0  0  0  0  0  0  0  0
   -4.2860   16.1100  -32.8540 C   0  0  0  0  0  0  0  0  0  0  0  0
   -3.5120   15.9210  -34.1660 C   0  0  0  0  0  0  0  0  0  0  0  0
   -3.2960   17.2080  -34.8700 N   0  0  0  0  0  0  0  0  0  0  0  0
   -1.8920   17.6780  -34.8820 C   0  0  0  0  0  0  0  0  0  0  0  0
   -1.6340   18.8720  -33.9840 C   0  0  0  0  0  0  0  0  0  0  0  0
   -1.8170   18.7780  -32.5920 C   0  0  0  0  0  0  0  0  0  0  0  0
   -1.5820   19.8860  -31.7720 C   0  0  0  0  0  0  0  0  0  0  0  0
   -1.1500   21.0910  -32.3280 C   0  0  0  0  0  0  0  0  0  0  0  0
   -0.9400   21.1880  -33.7060 C   0  0  0  0  0  0  0  0  0  0  0  0
   -1.1730   20.0840  -34.5300 C   0  0  0  0  0  0  0  0  0  0  0  0
   -4.2730   18.2670  -34.5290 C   0  0  0  0  0  0  0  0  0  0  0  0
   -5.6550   17.6610  -34.2420 C   0  0  0  0  0  0  0  0  0  0  0  0
   -5.6960   19.8100  -31.6440 C   0  0  0  0  0  0  0  0  0  0  0  0
   -6.1640   21.1270  -31.6530 C   0  0  0  0  0  0  0  0  0  0  0  0
   -5.3040   22.2130  -31.4300 C   0  0  0  0  0  0  0  0  0  0  0  0
   -5.2711   25.4993  -29.3637 H   0  0  0  0  0  0  0  0  0  0  0  0
   -4.6913   26.6126  -30.6486 H   0  0  0  0  0  0  0  0  0  0  0  0
   -6.3980   26.0523  -30.6486 H   0  0  0  0  0  0  0  0  0  0  0  0
   -7.5702   24.7629  -31.7067 H   0  0  0  0  0  0  0  0  0  0  0  0
   -9.0985   22.8366  -32.1077 H   0  0  0  0  0  0  0  0  0  0  0  0
   -6.2790   15.9290  -33.3520 H   0  0  0  0  0  0  0  0  0  0  0  0
   -3.7123   16.7758  -32.1925 H   0  0  0  0  0  0  0  0  0  0  0  0
   -4.4250   15.1232  -32.3882 H   0  0  0  0  0  0  0  0  0  0  0  0
   -2.5342   15.4704  -33.9405 H   0  0  0  0  0  0  0  0  0  0  0  0
   -4.1069   15.2687  -34.8222 H   0  0  0  0  0  0  0  0  0  0  0  0
   -1.2473   16.8505  -34.5510 H   0  0  0  0  0  0  0  0  0  0  0  0
   -1.6729   18.0001  -35.9107 H   0  0  0  0  0  0  0  0  0  0  0  0
   -2.1467   17.8278  -32.1465 H   0  0  0  0  0  0  0  0  0  0  0  0
   -1.7380   19.8077  -30.6859 H   0  0  0  0  0  0  0  0  0  0  0  0
   -0.9749   21.9638  -31.6818 H   0  0  0  0  0  0  0  0  0  0  0  0
   -0.5906   22.1352  -34.1428 H   0  0  0  0  0  0  0  0  0  0  0  0
   -0.9949   20.1629  -35.6126 H   0  0  0  0  0  0  0  0  0  0  0  0
   -3.9233   18.8067  -33.6366 H   0  0  0  0  0  0  0  0  0  0  0  0
   -4.3598   18.9553  -35.3826 H   0  0  0  0  0  0  0  0  0  0  0  0
   -6.3565   18.4748  -34.0062 H   0  0  0  0  0  0  0  0  0  0  0  0
   -5.9723   17.1053  -35.1367 H   0  0  0  0  0  0  0  0  0  0  0  0
   -4.6312   19.6058  -31.4583 H   0  0  0  0  0  0  0  0  0  0  0  0
   -4.2349   22.0366  -31.2407 H   0  0  0  0  0  0  0  0  0  0  0  0
  1  2  1  0
  2  3  1  0
  3  4  2  0
  4  5  1  0
  5  6  2  0
  6  7  1  0
  7  8  1  0
  8  9  2  0
  8 10  1  0
 10 11  1  0
 11 12  2  0
 11 13  1  0
 13 14  1  0
 14 15  1  0
 15 16  1  0
 16 17  1  0
 17 18  1  0
 18 19  2  0
 19 20  1  0
 20 21  2  0
 21 22  1  0
 22 23  2  0
 16 24  1  0
 24 25  1  0
 10 26  2  0
 26 27  1  0
 27 28  2  0
 28  3  1  0
 27  6  1  0
 25 13  1  0
 23 18  1  0
  1 29  1  0
  1 30  1  0
  1 31  1  0
  4 32  1  0
  5 33  1  0
 13 34  1  0
 14 35  1  0
 14 36  1  0
 15 37  1  0
 15 38  1  0
 17 39  1  0
 17 40  1  0
 19 41  1  0
 20 42  1  0
 21 43  1  0
 22 44  1  0
 23 45  1  0
 24 46  1  0
 24 47  1  0
 25 48  1  0
 25 49  1  0
 26 50  1  0
 28 51  1  0
M  CHG  1  13   1
M  END
>  <UniqueID>  (13) 
9

>  <SMILES>  (13) 
COc1ccc2oc(=O)c(C(=O)[NH+]3CCN(Cc4ccccc4)CC3)cc2c1

>  <Energy>  (13) 
79.0028602450022

>  <Genealogy>  (13) 
COc1ccc2oc(=O)c(C(=O)[NH+]3CCN(Cc4ccccc4)CC3)cc2c1 (protonated)
COc1ccc2oc(=O)c(C(=O)[NH+]3CCN(Cc4ccccc4)CC3)cc2c1 (3D coordinates assigned)
COc1ccc2oc(=O)c(C(=O)[NH+]3CCN(Cc4ccccc4)CC3)cc2c1 (nonaromatic ring conformer: 79.0028602450022 kcal/mol)

>  <smiles>  (13) 
COc1ccc2oc(=O)c(C(=O)N3CCN(Cc4ccccc4)CC3)cc2c1

>  <score_type>  (13) 
oracle

>  <origin>  (13) 
adg

>  <m_score__min__energy>  (13) 
-8.8900000000000006

>  <m_primary>  (13) 
energy

$$$$
13:0
     RDKit          3D

 52 56  0  0  0  0  0  0  0  0999 V2000
   -1.6820   17.7990  -33.6010 C   0  0  0  0  0  0  0  0  0  0  0  0
   -2.8470   17.0290  -34.1310 C   0  0  0  0  0  0  0  0  0  0  0  0
   -3.0330   16.9650  -35.3750 O   0  0  0  0  0  0  0  0  0  0  0  0
   -3.6940   16.3060  -33.2270 N   0  0  0  0  0  0  0  0  0  0  0  0
   -4.8790   15.6020  -33.6420 C   0  0  0  0  0  0  0  0  0  0  0  0
   -4.8030   14.2380  -33.9810 C   0  0  0  0  0  0  0  0  0  0  0  0
   -5.9270   13.5620  -34.4580 C   0  0  0  0  0  0  0  0  0  0  0  0
   -7.1360   14.2400  -34.6170 C   0  0  0  0  0  0  0  0  0  0  0  0
   -7.2260   15.5960  -34.2950 C   0  0  0  0  0  0  0  0  0  0  0  0
   -6.1070   16.2900  -33.8020 C   0  0  0  0  0  0  0  0  0  0  0  0
   -6.2510   17.7180  -33.4310 C   0  0  0  0  0  0  0  0  0  0  0  0
   -7.1180   18.1000  -32.3930 C   0  0  0  0  0  0  0  0  0  0  0  0
   -7.2500   19.4460  -32.0420 C   0  0  0  0  0  0  0  0  0  0  0  0
   -6.5140   20.4320  -32.7220 C   0  0  0  0  0  0  0  0  0  0  0  0
   -6.6270   21.7930  -32.4000 O   0  0  0  0  0  0  0  0  0  0  0  0
   -5.7870   22.4890  -31.5190 C   0  0  0  0  0  0  0  0  0  0  0  0
   -6.0630   23.8070  -31.1130 C   0  0  0  0  0  0  0  0  0  0  0  0
   -5.2110   24.4630  -30.2200 C   0  0  0  0  0  0  0  0  0  0  0  0
   -4.0740   23.8120  -29.7100 C   0  0  0  0  0  0  0  0  0  0  0  0
   -3.1700   24.5090  -28.7680 C   0  0  0  0  0  0  0  0  0  0  0  0
   -3.3200   24.4480  -27.4170 N   0  0  0  0  0  0  0  0  0  0  0  0
   -2.3100   25.2080  -26.9720 C   0  0  0  0  0  0  0  0  0  0  0  0
   -1.9790   25.4990  -25.6520 C   0  0  0  0  0  0  0  0  0  0  0  0
   -0.8640   26.3290  -25.4260 C   0  0  0  0  0  0  0  0  0  0  0  0
   -0.1200   26.8380  -26.5160 C   0  0  0  0  0  0  0  0  0  0  0  0
   -0.4870   26.5200  -27.8380 C   0  0  0  0  0  0  0  0  0  0  0  0
   -1.5940   25.6970  -28.0200 C   0  0  0  0  0  0  0  0  0  0  0  0
   -2.1180   25.2690  -29.1780 N   0  0  0  0  0  0  0  0  0  0  0  0
   -3.8150   22.4880  -30.1030 C   0  0  0  0  0  0  0  0  0  0  0  0
   -4.6690   21.8320  -30.9940 C   0  0  0  0  0  0  0  0  0  0  0  0
   -5.6790   20.0550  -33.7800 C   0  0  0  0  0  0  0  0  0  0  0  0
   -5.5430   18.7090  -34.1300 C   0  0  0  0  0  0  0  0  0  0  0  0
   -1.7030   17.7851  -32.5013 H   0  0  0  0  0  0  0  0  0  0  0  0
   -0.7473   17.3402  -33.9557 H   0  0  0  0  0  0  0  0  0  0  0  0
   -1.7377   18.8388  -33.9557 H   0  0  0  0  0  0  0  0  0  0  0  0
   -3.3890   16.2230  -32.2300 H   0  0  0  0  0  0  0  0  0  0  0  0
   -3.8499   13.7004  -33.8691 H   0  0  0  0  0  0  0  0  0  0  0  0
   -5.8596   12.4931  -34.7090 H   0  0  0  0  0  0  0  0  0  0  0  0
   -8.0195   13.7058  -34.9965 H   0  0  0  0  0  0  0  0  0  0  0  0
   -8.1808   16.1257  -34.4283 H   0  0  0  0  0  0  0  0  0  0  0  0
   -7.6960   17.3350  -31.8538 H   0  0  0  0  0  0  0  0  0  0  0  0
   -7.9330   19.7355  -31.2298 H   0  0  0  0  0  0  0  0  0  0  0  0
   -6.9535   24.3239  -31.5000 H   0  0  0  0  0  0  0  0  0  0  0  0
   -5.4317   25.4963  -29.9140 H   0  0  0  0  0  0  0  0  0  0  0  0
   -2.5674   25.0951  -24.8149 H   0  0  0  0  0  0  0  0  0  0  0  0
   -0.5702   26.5827  -24.3968 H   0  0  0  0  0  0  0  0  0  0  0  0
    0.7496   27.4855  -26.3302 H   0  0  0  0  0  0  0  0  0  0  0  0
    0.0813   26.9084  -28.6960 H   0  0  0  0  0  0  0  0  0  0  0  0
   -2.9331   21.9637  -29.7063 H   0  0  0  0  0  0  0  0  0  0  0  0
   -4.4606   20.7917  -31.2845 H   0  0  0  0  0  0  0  0  0  0  0  0
   -5.1260   20.8235  -34.3399 H   0  0  0  0  0  0  0  0  0  0  0  0
   -4.8773   18.4240  -34.9581 H   0  0  0  0  0  0  0  0  0  0  0  0
  1  2  1  0
  2  3  2  0
  2  4  1  0
  4  5  1  0
  5  6  2  0
  6  7  1  0
  7  8  2  0
  8  9  1  0
  9 10  2  0
 10 11  1  0
 11 12  2  0
 12 13  1  0
 13 14  2  0
 14 15  1  0
 15 16  1  0
 16 17  2  0
 17 18  1  0
 18 19  2  0
 19 20  1  0
 20 21  2  0
 21 22  1  0
 22 23  2  0
 23 24  1  0
 24 25  2  0
 25 26  1  0
 26 27  2  0
 27 28  1  0
 19 29  1  0
 29 30  2  0
 14 31  1  0
 31 32  2  0
 10  5  1  0
 32 11  1  0
 30 16  1  0
 28 20  1  0
 27 22  1  0
  1 33  1  0
  1 34  1  0
  1 35  1  0
  4 36  1  0
  6 37  1  0
  7 38  1  0
  8 39  1  0
  9 40  1  0
 12 41  1  0
 13 42  1  0
 17 43  1  0
 18 44  1  0
 23 45  1  0
 24 46  1  0
 25 47  1  0
 26 48  1  0
 29 49  1  0
 30 50  1  0
 31 51  1  0
 32 52  1  0
M  CHG  1  28  -1
M  END
>  <UniqueID>  (14) 
10

>  <SMILES>  (14) 
CC(=O)Nc1ccccc1-c1ccc(Oc2ccc(-c3nc4ccccc4[n-]3)cc2)cc1

>  <Energy>  (14) 
109.1853333985592

>  <Genealogy>  (14) 
CC(=O)Nc1ccccc1-c1ccc(Oc2ccc(-c3nc4ccccc4[n-]3)cc2)cc1 (protonated)
CC(=O)Nc1ccccc1-c1ccc(Oc2ccc(-c3nc4ccccc4[n-]3)cc2)cc1 (3D coordinates assigned)
CC(=O)Nc1ccccc1-c1ccc(Oc2ccc(-c3nc4ccccc4[n-]3)cc2)cc1 (optimized conformer: 109.1853333985592 kcal/mol)

>  <smiles>  (14) 
CC(=O)Nc1ccccc1-c1ccc(Oc2ccc(-c3nc4ccccc4[nH]3)cc2)cc1

>  <score_type>  (14) 
oracle

>  <origin>  (14) 
adg

>  <m_score__min__energy>  (14) 
-10

>  <m_primary>  (14) 
energy

$$$$
14:0
     RDKit          3D

 65 67  0  0  0  0  0  0  0  0999 V2000
   -4.5988   24.4071  -27.9407 H   0  0  0  0  0  0  0  0  0  0  0  0
   -3.7450   24.2490  -28.6160 C   0  0  0  0  0  0  0  0  0  0  0  0
   -3.9930   24.1410  -30.0650 C   0  0  0  0  0  0  0  0  0  0  0  0
   -3.8900   25.1890  -30.7610 O   0  0  0  0  0  0  0  0  0  0  0  0
   -4.3010   22.8820  -30.7030 N   0  0  0  0  0  0  0  0  0  0  0  0
   -3.6360   21.6450  -30.2470 C   0  0  0  0  0  0  0  0  0  0  0  0
   -4.0553   21.3524  -29.2730 H   0  0  0  0  0  0  0  0  0  0  0  0
   -2.5571   21.8438  -30.1662 H   0  0  0  0  0  0  0  0  0  0  0  0
   -3.8390   20.4970  -31.2410 C   0  0  0  0  0  0  0  0  0  0  0  0
   -4.8715   20.1251  -31.1660 H   0  0  0  0  0  0  0  0  0  0  0  0
   -3.1382   19.6817  -31.0082 H   0  0  0  0  0  0  0  0  0  0  0  0
   -3.5910   20.9820  -32.6050 N   0  0  0  0  0  0  0  0  0  0  0  0
   -2.5470   20.3770  -33.3840 C   0  0  0  0  0  0  0  0  0  0  0  0
   -1.4300   21.1510  -33.7360 C   0  0  0  0  0  0  0  0  0  0  0  0
   -1.3957   22.2157  -33.4616 H   0  0  0  0  0  0  0  0  0  0  0  0
   -0.3630   20.5810  -34.4310 C   0  0  0  0  0  0  0  0  0  0  0  0
    1.0220   21.5620  -34.8700 Cl  0  0  0  0  0  0  0  0  0  0  0  0
   -0.3920   19.2250  -34.7650 C   0  0  0  0  0  0  0  0  0  0  0  0
    0.4547   18.7736  -35.3030 H   0  0  0  0  0  0  0  0  0  0  0  0
   -1.4940   18.4420  -34.4170 C   0  0  0  0  0  0  0  0  0  0  0  0
   -1.5017   17.3719  -34.6718 H   0  0  0  0  0  0  0  0  0  0  0  0
   -2.5960   19.0040  -33.7440 C   0  0  0  0  0  0  0  0  0  0  0  0
   -3.7570   18.1820  -33.4590 N   0  0  0  0  0  0  0  0  0  0  0  0
   -4.2300   18.4580  -32.5690 H   0  0  0  0  0  0  0  0  0  0  0  0
   -3.4350   17.1940  -33.3380 H   0  0  0  0  0  0  0  0  0  0  0  0
   -4.7400   18.2170  -34.5560 C   0  0  0  0  0  0  0  0  0  0  0  0
   -4.6270   17.3046  -35.1600 H   0  0  0  0  0  0  0  0  0  0  0  0
   -4.5455   19.1222  -35.1499 H   0  0  0  0  0  0  0  0  0  0  0  0
   -6.1890   18.2950  -34.0470 C   0  0  0  0  0  0  0  0  0  0  0  0
   -6.5339   17.2892  -33.7653 H   0  0  0  0  0  0  0  0  0  0  0  0
   -6.8370   18.6941  -34.8412 H   0  0  0  0  0  0  0  0  0  0  0  0
   -6.2470   19.1900  -32.8610 N   0  0  0  0  0  0  0  0  0  0  0  0
   -7.1180   20.3620  -33.1030 C   0  0  0  0  0  0  0  0  0  0  0  0
   -7.3215   20.4435  -34.1809 H   0  0  0  0  0  0  0  0  0  0  0  0
   -6.6033   21.2643  -32.7410 H   0  0  0  0  0  0  0  0  0  0  0  0
   -8.4430   20.2190  -32.3520 C   0  0  0  0  0  0  0  0  0  0  0  0
   -8.2544   20.2394  -31.2685 H   0  0  0  0  0  0  0  0  0  0  0  0
   -9.1101   21.0504  -32.6237 H   0  0  0  0  0  0  0  0  0  0  0  0
   -8.9173   19.2644  -32.6237 H   0  0  0  0  0  0  0  0  0  0  0  0
   -6.6850   18.4670  -31.6420 C   0  0  0  0  0  0  0  0  0  0  0  0
   -6.3470   19.0246  -30.7561 H   0  0  0  0  0  0  0  0  0  0  0  0
   -7.7821   18.3901  -31.6646 H   0  0  0  0  0  0  0  0  0  0  0  0
   -6.1080   17.0490  -31.5860 C   0  0  0  0  0  0  0  0  0  0  0  0
   -5.9842   16.7447  -30.5362 H   0  0  0  0  0  0  0  0  0  0  0  0
   -6.7947   16.3535  -32.0908 H   0  0  0  0  0  0  0  0  0  0  0  0
   -5.1308   17.0306  -32.0908 H   0  0  0  0  0  0  0  0  0  0  0  0
   -4.2230   22.2260  -33.0700 C   0  0  0  0  0  0  0  0  0  0  0  0
   -4.8710   22.0005  -33.9298 H   0  0  0  0  0  0  0  0  0  0  0  0
   -3.4319   22.9340  -33.3581 H   0  0  0  0  0  0  0  0  0  0  0  0
   -5.0670   22.8630  -31.9600 C   0  0  0  0  0  0  0  0  0  0  0  0
   -5.9872   22.2772  -31.8186 H   0  0  0  0  0  0  0  0  0  0  0  0
   -5.3252   23.8936  -32.2448 H   0  0  0  0  0  0  0  0  0  0  0  0
   -2.5140   24.1610  -28.0940 C   0  0  0  0  0  0  0  0  0  0  0  0
   -1.9255   23.2576  -28.3123 H   0  0  0  0  0  0  0  0  0  0  0  0
   -1.8930   25.2060  -27.2390 C   0  0  0  0  0  0  0  0  0  0  0  0
   -2.2330   25.3890  -25.8820 C   0  0  0  0  0  0  0  0  0  0  0  0
   -2.9697   24.7240  -25.4075 H   0  0  0  0  0  0  0  0  0  0  0  0
   -1.6370   26.4130  -25.1370 C   0  0  0  0  0  0  0  0  0  0  0  0
   -1.9192   26.5591  -24.0839 H   0  0  0  0  0  0  0  0  0  0  0  0
   -0.6860   27.2500  -25.7240 C   0  0  0  0  0  0  0  0  0  0  0  0
   -0.2239   28.0565  -25.1357 H   0  0  0  0  0  0  0  0  0  0  0  0
   -0.3230   27.0620  -27.0570 C   0  0  0  0  0  0  0  0  0  0  0  0
    0.4363   27.7125  -27.5157 H   0  0  0  0  0  0  0  0  0  0  0  0
   -0.9220   26.0480  -27.8130 C   0  0  0  0  0  0  0  0  0  0  0  0
   -0.6316   25.9078  -28.8647 H   0  0  0  0  0  0  0  0  0  0  0  0
  1  2  1  0
  2  3  1  0
  3  4  2  0
  3  5  1  0
  5  6  1  0
  6  7  1  0
  6  8  1  0
  6  9  1  0
  9 10  1  0
  9 11  1  0
  9 12  1  0
 12 13  1  0
 13 14  2  0
 14 15  1  0
 14 16  1  0
 16 17  1  0
 16 18  2  0
 18 19  1  0
 18 20  1  0
 20 21  1  0
 20 22  2  0
 22 23  1  0
 23 24  1  0
 23 25  1  0
 23 26  1  0
 26 27  1  0
 26 28  1  0
 26 29  1  0
 29 30  1  0
 29 31  1  0
 29 32  1  0
 32 33  1  0
 33 34  1  0
 33 35  1  0
 33 36  1  0
 36 37  1  0
 36 38  1  0
 36 39  1  0
 32 40  1  0
 40 41  1  0
 40 42  1  0
 40 43  1  0
 43 44  1  0
 43 45  1  0
 43 46  1  0
 12 47  1  0
 47 48  1  0
 47 49  1  0
 47 50  1  0
 50 51  1  0
 50 52  1  0
  2 53  2  0
 53 54  1  0
 53 55  1  0
 55 56  2  0
 56 57  1  0
 56 58  1  0
 58 59  1  0
 58 60  2  0
 60 61  1  0
 60 62  1  0
 62 63  1  0
 62 64  2  0
 64 65  1  0
 50  5  1  0
 64 55  1  0
 22 13  1  0
M  CHG  1  23   1
M  END
>  <UniqueID>  (15) 
11

>  <SMILES>  (15) 
CCN(CC)CC[NH2+]c1ccc(Cl)cc1N1CCN(C(=O)/C=C/c2ccccc2)CC1

>  <Energy>  (15) 
78.45535395774057

>  <Genealogy>  (15) 
CCN(CC)CC[NH2+]c1ccc(Cl)cc1N1CCN(C(=O)C=Cc2ccccc2)CC1 (protonated)
CCN(CC)CC[NH2+]c1ccc(Cl)cc1N1CCN(C(=O)/C=C/c2ccccc2)CC1 (cis-trans isomerization)
CCN(CC)CC[NH2+]c1ccc(Cl)cc1N1CCN(C(=O)/C=C/c2ccccc2)CC1 (3D coordinates assigned)
CCN(CC)CC[NH2+]c1ccc(Cl)cc1N1CCN(C(=O)/C=C/c2ccccc2)CC1 (nonaromatic ring conformer: 78.45535395774057 kcal/mol)

>  <smiles>  (15) 
CCN(CC)CCNc1ccc(Cl)cc1N1CCN(C(=O)C=Cc2ccccc2)CC1

>  <score_type>  (15) 
oracle

>  <origin>  (15) 
adg

>  <m_score__min__energy>  (15) 
-8.3900000000000006

>  <m_primary>  (15) 
energy

$$$$
15:0
     RDKit          3D

 40 42  0  0  0  0  0  0  0  0999 V2000
   -7.5860   13.4920  -34.6880 C   0  0  0  0  0  0  0  0  0  0  0  0
   -6.0790   13.7260  -34.6420 C   0  0  0  0  0  0  0  0  0  0  0  0
   -5.7670   15.1350  -34.1910 C   0  0  0  0  0  0  0  0  0  0  0  0
   -6.8060   15.9260  -33.6740 C   0  0  0  0  0  0  0  0  0  0  0  0
   -6.5610   17.2430  -33.2730 C   0  0  0  0  0  0  0  0  0  0  0  0
   -7.5820   18.0460  -32.7490 C   0  0  0  0  0  0  0  0  0  0  0  0
   -7.3080   19.3600  -32.3570 C   0  0  0  0  0  0  0  0  0  0  0  0
   -6.0110   19.8900  -32.4800 C   0  0  0  0  0  0  0  0  0  0  0  0
   -5.7240   21.2850  -32.0600 C   0  0  0  0  0  0  0  0  0  0  0  0
   -6.6910   22.2940  -32.2190 C   0  0  0  0  0  0  0  0  0  0  0  0
   -6.4210   23.6080  -31.8240 C   0  0  0  0  0  0  0  0  0  0  0  0
   -5.1750   23.9370  -31.2600 C   0  0  0  0  0  0  0  0  0  0  0  0
   -4.8570   25.2400  -30.8480 O   0  0  0  0  0  0  0  0  0  0  0  0
   -5.7230   26.0770  -30.0890 C   0  0  0  0  0  0  0  0  0  0  0  0
   -4.2130   22.9350  -31.1010 C   0  0  0  0  0  0  0  0  0  0  0  0
   -4.4800   21.6210  -31.4960 C   0  0  0  0  0  0  0  0  0  0  0  0
   -4.9880   19.0790  -33.0070 C   0  0  0  0  0  0  0  0  0  0  0  0
   -5.2590   17.7650  -33.4020 C   0  0  0  0  0  0  0  0  0  0  0  0
   -4.2680   16.9910  -33.9170 N   0  0  0  0  0  0  0  0  0  0  0  0
   -4.4790   15.7080  -34.3210 C   0  0  0  0  0  0  0  0  0  0  0  0
   -3.3130   14.9360  -34.8670 C   0  0  0  0  0  0  0  0  0  0  0  0
   -7.9791   13.4310  -33.6624 H   0  0  0  0  0  0  0  0  0  0  0  0
   -8.0705   14.3257  -35.2174 H   0  0  0  0  0  0  0  0  0  0  0  0
   -7.7949   12.5507  -35.2174 H   0  0  0  0  0  0  0  0  0  0  0  0
   -5.6249   13.0133  -33.9379 H   0  0  0  0  0  0  0  0  0  0  0  0
   -5.6690   13.5807  -35.6524 H   0  0  0  0  0  0  0  0  0  0  0  0
   -7.8190   15.5068  -33.5839 H   0  0  0  0  0  0  0  0  0  0  0  0
   -8.6002   17.6427  -32.6458 H   0  0  0  0  0  0  0  0  0  0  0  0
   -8.1152   19.9856  -31.9482 H   0  0  0  0  0  0  0  0  0  0  0  0
   -7.6688   22.0471  -32.6582 H   0  0  0  0  0  0  0  0  0  0  0  0
   -7.1860   24.3875  -31.9548 H   0  0  0  0  0  0  0  0  0  0  0  0
   -5.5485   25.9083  -29.0161 H   0  0  0  0  0  0  0  0  0  0  0  0
   -5.5207   27.1305  -30.3322 H   0  0  0  0  0  0  0  0  0  0  0  0
   -6.7690   25.8389  -30.3322 H   0  0  0  0  0  0  0  0  0  0  0  0
   -3.2361   23.1832  -30.6606 H   0  0  0  0  0  0  0  0  0  0  0  0
   -3.7120   20.8444  -31.3649 H   0  0  0  0  0  0  0  0  0  0  0  0
   -3.9693   19.4813  -33.1087 H   0  0  0  0  0  0  0  0  0  0  0  0
   -2.7137   14.5392  -34.0343 H   0  0  0  0  0  0  0  0  0  0  0  0
   -3.6813   14.1027  -35.4834 H   0  0  0  0  0  0  0  0  0  0  0  0
   -2.6896   15.6004  -35.4834 H   0  0  0  0  0  0  0  0  0  0  0  0
  1  2  1  0
  2  3  1  0
  3  4  2  0
  4  5  1  0
  5  6  2  0
  6  7  1  0
  7  8  2  0
  8  9  1  0
  9 10  2  0
 10 11  1  0
 11 12  2  0
 12 13  1  0
 13 14  1  0
 12 15  1  0
 15 16  2  0
  8 17  1  0
 17 18  2  0
 18 19  1  0
 19 20  2  0
 20 21  1  0
 20  3  1  0
 18  5  1  0
 16  9  1  0
  1 22  1  0
  1 23  1  0
  1 24  1  0
  2 25  1  0
  2 26  1  0
  4 27  1  0
  6 28  1  0
  7 29  1  0
 10 30  1  0
 11 31  1  0
 14 32  1  0
 14 33  1  0
 14 34  1  0
 15 35  1  0
 16 36  1  0
 17 37  1  0
 21 38  1  0
 21 39  1  0
 21 40  1  0
M  END
>  <UniqueID>  (16) 
12

>  <SMILES>  (16) 
CCc1cc2ccc(-c3ccc(OC)cc3)cc2nc1C

>  <Energy>  (16) 
47.08846311765225

>  <Genealogy>  (16) 
CCc1cc2ccc(-c3ccc(OC)cc3)cc2nc1C (3D coordinates assigned)
CCc1cc2ccc(-c3ccc(OC)cc3)cc2nc1C (optimized conformer: 47.08846311765225 kcal/mol)

>  <smiles>  (16) 
CCc1cc2ccc(-c3ccc(OC)cc3)cc2nc1C

>  <score_type>  (16) 
oracle

>  <origin>  (16) 
adg

>  <m_score__min__energy>  (16) 
-7.4400000000000004

>  <m_primary>  (16) 
energy

$$$$
16:0
     RDKit          3D

 41 43  0  0  0  0  0  0  0  0999 V2000
   -2.6050   21.4080  -32.7350 C   0  0  0  0  0  0  0  0  0  0  0  0
   -3.8060   22.2230  -33.1980 C   0  0  0  0  0  0  0  0  0  0  0  0
   -4.9360   22.0950  -32.2640 N   0  0  0  0  0  0  0  0  0  0  0  0
   -4.8220   22.6670  -30.9100 C   0  0  0  0  0  0  0  0  0  0  0  0
   -5.1530   24.1620  -30.8920 C   0  0  0  0  0  0  0  0  0  0  0  0
   -3.9350   24.9640  -30.8320 N   0  0  0  0  0  0  0  0  0  0  0  0
   -5.8630   21.0120  -32.4650 C   0  0  0  0  0  0  0  0  0  0  0  0
   -5.3940   19.8000  -32.8820 N   0  0  0  0  0  0  0  0  0  0  0  0
   -6.2340   18.7330  -33.0540 C   0  0  0  0  0  0  0  0  0  0  0  0
   -5.7110   17.4230  -33.5100 C   0  0  0  0  0  0  0  0  0  0  0  0
   -6.5670   16.3220  -33.6970 C   0  0  0  0  0  0  0  0  0  0  0  0
   -6.0390   15.1050  -34.1280 C   0  0  0  0  0  0  0  0  0  0  0  0
   -4.6700   14.9860  -34.3710 C   0  0  0  0  0  0  0  0  0  0  0  0
   -3.8460   16.0950  -34.1760 C   0  0  0  0  0  0  0  0  0  0  0  0
   -4.3780   17.2740  -33.7560 N   0  0  0  0  0  0  0  0  0  0  0  0
   -7.5630   18.8790  -32.7950 N   0  0  0  0  0  0  0  0  0  0  0  0
   -8.0590   20.0680  -32.3760 C   0  0  0  0  0  0  0  0  0  0  0  0
   -7.2370   21.1590  -32.2100 C   0  0  0  0  0  0  0  0  0  0  0  0
   -7.9370   22.4030  -31.7850 C   0  0  0  0  0  0  0  0  0  0  0  0
   -9.6280   21.9200  -31.2860 S   0  0  0  0  0  0  0  0  0  0  0  0
   -9.4920   20.2780  -32.0740 C   0  0  0  0  0  0  0  0  0  0  0  0
   -2.5768   21.3888  -31.6355 H   0  0  0  0  0  0  0  0  0  0  0  0
   -2.6899   20.3802  -33.1176 H   0  0  0  0  0  0  0  0  0  0  0  0
   -1.6812   21.8665  -33.1176 H   0  0  0  0  0  0  0  0  0  0  0  0
   -3.5154   23.2818  -33.2647 H   0  0  0  0  0  0  0  0  0  0  0  0
   -4.1243   21.8421  -34.1797 H   0  0  0  0  0  0  0  0  0  0  0  0
   -5.5191   22.1404  -30.2416 H   0  0  0  0  0  0  0  0  0  0  0  0
   -3.7817   22.5441  -30.5745 H   0  0  0  0  0  0  0  0  0  0  0  0
   -5.7088   24.4189  -31.8058 H   0  0  0  0  0  0  0  0  0  0  0  0
   -5.7599   24.3771  -30.0002 H   0  0  0  0  0  0  0  0  0  0  0  0
   -3.1220   24.3460  -31.0560 H   0  0  0  0  0  0  0  0  0  0  0  0
   -3.9860   25.6780  -31.5950 H   0  0  0  0  0  0  0  0  0  0  0  0
   -4.3710   19.7000  -33.0690 H   0  0  0  0  0  0  0  0  0  0  0  0
   -7.6456   16.4204  -33.5045 H   0  0  0  0  0  0  0  0  0  0  0  0
   -6.7014   14.2394  -34.2763 H   0  0  0  0  0  0  0  0  0  0  0  0
   -4.2459   14.0300  -34.7119 H   0  0  0  0  0  0  0  0  0  0  0  0
   -2.7648   16.0156  -34.3622 H   0  0  0  0  0  0  0  0  0  0  0  0
   -7.4092   22.8624  -30.9362 H   0  0  0  0  0  0  0  0  0  0  0  0
   -7.9637   23.1378  -32.6032 H   0  0  0  0  0  0  0  0  0  0  0  0
   -9.8531   19.4974  -31.3882 H   0  0  0  0  0  0  0  0  0  0  0  0
  -10.1005   20.2269  -32.9889 H   0  0  0  0  0  0  0  0  0  0  0  0
  1  2  1  0
  2  3  1  0
  3  4  1  0
  4  5  1  0
  5  6  1  0
  3  7  1  0
  7  8  2  0
  8  9  1  0
  9 10  1  0
 10 11  2  0
 11 12  1  0
 12 13  2  0
 13 14  1  0
 14 15  2  0
  9 16  2  0
 16 17  1  0
 17 18  2  0
 18 19  1  0
 19 20  1  0
 20 21  1  0
 18  7  1  0
 15 10  1  0
 21 17  1  0
  1 22  1  0
  1 23  1  0
  1 24  1  0
  2 25  1  0
  2 26  1  0
  4 27  1  0
  4 28  1  0
  5 29  1  0
  5 30  1  0
  6 31  1  0
  6 32  1  0
  8 33  1  0
 11 34  1  0
 12 35  1  0
 13 36  1  0
 14 37  1  0
 19 38  1  0
 19 39  1  0
 21 40  1  0
 21 41  1  0
M  CHG  1   8   1
M  END
>  <UniqueID>  (17) 
13

>  <SMILES>  (17) 
CCN(CCN)c1[nH+]c(-c2ccccn2)nc2c1CSC2

>  <Energy>  (17) 
44.0733460814876

>  <Genealogy>  (17) 
CCN(CCN)c1[nH+]c(-c2ccccn2)nc2c1CSC2 (protonated)
CCN(CCN)c1[nH+]c(-c2ccccn2)nc2c1CSC2 (3D coordinates assigned)
CCN(CCN)c1[nH+]c(-c2ccccn2)nc2c1CSC2 (nonaromatic ring conformer: 44.0733460814876 kcal/mol)

>  <smiles>  (17) 
CCN(CCN)c1nc(-c2ccccn2)nc2c1CSC2

>  <score_type>  (17) 
oracle

>  <origin>  (17) 
adg

>  <m_score__min__energy>  (17) 
-7.1399999999999997

>  <m_primary>  (17) 
energy

$$$$
17:0
     RDKit          3D

 49 52  0  0  0  0  0  0  0  0999 V2000
   -6.1200   25.6580  -29.0310 C   0  0  0  0  0  0  0  0  0  0  0  0
   -5.9970   24.4660  -29.9410 C   0  0  0  0  0  0  0  0  0  0  0  0
   -7.1460   23.9130  -30.5300 C   0  0  0  0  0  0  0  0  0  0  0  0
   -7.0410   22.8160  -31.3910 C   0  0  0  0  0  0  0  0  0  0  0  0
   -5.7910   22.2310  -31.6480 C   0  0  0  0  0  0  0  0  0  0  0  0
   -4.6400   22.7890  -31.0670 C   0  0  0  0  0  0  0  0  0  0  0  0
   -4.7360   23.9040  -30.2260 C   0  0  0  0  0  0  0  0  0  0  0  0
   -3.2580   24.5590  -29.5280 Cl  0  0  0  0  0  0  0  0  0  0  0  0
   -5.7200   21.0020  -32.4020 N   0  0  0  0  0  0  0  0  0  0  0  0
   -4.5840   20.7280  -33.2360 C   0  0  0  0  0  0  0  0  0  0  0  0
   -4.0080   21.6680  -33.8440 O   0  0  0  0  0  0  0  0  0  0  0  0
   -4.1310   19.3160  -33.4410 C   0  0  0  0  0  0  0  0  0  0  0  0
   -2.8660   19.1000  -32.7030 N   0  0  0  0  0  0  0  0  0  0  0  0
   -1.7930   18.5250  -33.5290 C   0  0  0  0  0  0  0  0  0  0  0  0
   -1.2290   19.5330  -34.5520 C   0  0  0  0  0  0  0  0  0  0  0  0
   -1.5130   20.9370  -34.2030 N   0  0  0  0  0  0  0  0  0  0  0  0
   -1.4500   21.2110  -32.7530 C   0  0  2  0  0  0  0  0  0  0  0  0
   -0.0040   21.1430  -32.2290 C   0  0  0  0  0  0  0  0  0  0  0  0
   -2.4030   20.2850  -31.9440 C   0  0  0  0  0  0  0  0  0  0  0  0
   -6.7930   20.0450  -32.2690 C   0  0  0  0  0  0  0  0  0  0  0  0
   -6.5350   18.6610  -32.2250 C   0  0  0  0  0  0  0  0  0  0  0  0
   -7.5660   17.7620  -31.9350 C   0  0  0  0  0  0  0  0  0  0  0  0
   -8.8560   18.2330  -31.6760 C   0  0  0  0  0  0  0  0  0  0  0  0
   -9.1250   19.6020  -31.7280 C   0  0  0  0  0  0  0  0  0  0  0  0
   -8.1040   20.5050  -32.0420 C   0  0  0  0  0  0  0  0  0  0  0  0
   -8.4880   22.2410  -32.2840 S   0  0  0  0  0  0  0  0  0  0  0  0
   -6.0856   25.3246  -27.9833 H   0  0  0  0  0  0  0  0  0  0  0  0
   -5.2888   26.3526  -29.2222 H   0  0  0  0  0  0  0  0  0  0  0  0
   -7.0756   26.1682  -29.2222 H   0  0  0  0  0  0  0  0  0  0  0  0
   -8.1339   24.3452  -30.3128 H   0  0  0  0  0  0  0  0  0  0  0  0
   -3.6548   22.3459  -31.2747 H   0  0  0  0  0  0  0  0  0  0  0  0
   -4.8994   18.6246  -33.0648 H   0  0  0  0  0  0  0  0  0  0  0  0
   -3.9702   19.1309  -34.5133 H   0  0  0  0  0  0  0  0  0  0  0  0
   -0.9762   18.1985  -32.8686 H   0  0  0  0  0  0  0  0  0  0  0  0
   -2.2203   17.6819  -34.0917 H   0  0  0  0  0  0  0  0  0  0  0  0
   -0.1384   19.4007  -34.6081 H   0  0  0  0  0  0  0  0  0  0  0  0
   -1.7206   19.3303  -35.5149 H   0  0  0  0  0  0  0  0  0  0  0  0
   -0.8340   21.5550  -34.7060 H   0  0  0  0  0  0  0  0  0  0  0  0
   -2.4630   21.1970  -34.5590 H   0  0  0  0  0  0  0  0  0  0  0  0
   -1.8047   22.2412  -32.6015 H   0  0  0  0  0  0  0  0  0  0  0  0
   -0.0122   21.1434  -31.1290 H   0  0  0  0  0  0  0  0  0  0  0  0
    0.4745   20.2214  -32.5918 H   0  0  0  0  0  0  0  0  0  0  0  0
    0.5589   22.0157  -32.5918 H   0  0  0  0  0  0  0  0  0  0  0  0
   -1.8703   19.9367  -31.0469 H   0  0  0  0  0  0  0  0  0  0  0  0
   -3.2958   20.8784  -31.6973 H   0  0  0  0  0  0  0  0  0  0  0  0
   -5.5193   18.2862  -32.4194 H   0  0  0  0  0  0  0  0  0  0  0  0
   -7.3612   16.6815  -31.9107 H   0  0  0  0  0  0  0  0  0  0  0  0
   -9.6606   17.5241  -31.4308 H   0  0  0  0  0  0  0  0  0  0  0  0
  -10.1406   19.9707  -31.5219 H   0  0  0  0  0  0  0  0  0  0  0  0
  1  2  1  0
  2  3  2  0
  3  4  1  0
  4  5  2  0
  5  6  1  0
  6  7  2  0
  7  8  1  0
  5  9  1  0
  9 10  1  0
 10 11  2  0
 10 12  1  0
 12 13  1  0
 13 14  1  0
 14 15  1  0
 15 16  1  0
 16 17  1  0
 17 18  1  0
 17 19  1  0
  9 20  1  0
 20 21  2  0
 21 22  1  0
 22 23  2  0
 23 24  1  0
 24 25  2  0
 25 26  1  0
  7  2  1  0
 19 13  1  0
 25 20  1  0
 26  4  1  0
  1 27  1  0
  1 28  1  0
  1 29  1  0
  3 30  1  0
  6 31  1  0
 12 32  1  0
 12 33  1  0
 14 34  1  0
 14 35  1  0
 15 36  1  0
 15 37  1  0
 16 38  1  0
 16 39  1  0
 17 40  1  6
 18 41  1  0
 18 42  1  0
 18 43  1  0
 19 44  1  0
 19 45  1  0
 21 46  1  0
 22 47  1  0
 23 48  1  0
 24 49  1  0
M  CHG  1  16   1
M  END
>  <UniqueID>  (18) 
14

>  <SMILES>  (18) 
Cc1cc2c(cc1Cl)N(C(=O)CN1CC[NH2+][C@H](C)C1)c1ccccc1S2

>  <Energy>  (18) 
86.72527423979865

>  <Genealogy>  (18) 
Cc1cc2c(cc1Cl)N(C(=O)CN1CC[NH2+]C(C)C1)c1ccccc1S2 (protonated)
Cc1cc2c(cc1Cl)N(C(=O)CN1CC[NH2+][C@H](C)C1)c1ccccc1S2 (chirality)
Cc1cc2c(cc1Cl)N(C(=O)CN1CC[NH2+][C@H](C)C1)c1ccccc1S2 (3D coordinates assigned)
Cc1cc2c(cc1Cl)N(C(=O)CN1CC[NH2+][C@H](C)C1)c1ccccc1S2 (nonaromatic ring conformer: 86.72527423979865 kcal/mol)

>  <smiles>  (18) 
Cc1cc2c(cc1Cl)N(C(=O)CN1CCNC(C)C1)c1ccccc1S2

>  <score_type>  (18) 
oracle

>  <origin>  (18) 
adg

>  <m_score__min__energy>  (18) 
-9.0299999999999994

>  <m_primary>  (18) 
energy

$$$$
18:0
     RDKit          3D

 31 32  0  0  0  0  0  0  0  0999 V2000
   -3.6920   20.8820  -33.3190 C   0  0  0  0  0  0  0  0  0  0  0  0
   -5.0240   20.2490  -33.0760 C   0  0  0  0  0  0  0  0  0  0  0  0
   -5.2440   18.9100  -33.4130 C   0  0  0  0  0  0  0  0  0  0  0  0
   -6.5160   18.3660  -33.1970 C   0  0  0  0  0  0  0  0  0  0  0  0
   -6.8050   16.9450  -33.5630 C   0  0  0  0  0  0  0  0  0  0  0  0
   -7.5070   19.1520  -32.6980 N   0  0  0  0  0  0  0  0  0  0  0  0
   -7.2790   20.4530  -32.3860 C   0  0  0  0  0  0  0  0  0  0  0  0
   -8.6150   21.4770  -31.7760 S   0  0  0  0  0  0  0  0  0  0  0  0
   -7.5690   22.4180  -30.6090 C   0  0  0  0  0  0  0  0  0  0  0  0
   -6.7590   23.4520  -31.3350 C   0  0  0  0  0  0  0  0  0  0  0  0
   -7.1600   23.8680  -32.4550 O   0  0  0  0  0  0  0  0  0  0  0  0
   -5.5400   24.0260  -30.7390 C   0  0  0  0  0  0  0  0  0  0  0  0
   -4.8430   23.5100  -29.6650 C   0  0  0  0  0  0  0  0  0  0  0  0
   -3.7720   24.3660  -29.5380 C   0  0  0  0  0  0  0  0  0  0  0  0
   -2.6680   24.2560  -28.5420 C   0  0  0  0  0  0  0  0  0  0  0  0
   -3.8510   25.2920  -30.4640 O   0  0  0  0  0  0  0  0  0  0  0  0
   -4.9050   25.1190  -31.2080 N   0  0  0  0  0  0  0  0  0  0  0  0
   -6.0440   20.9910  -32.5720 N   0  0  0  0  0  0  0  0  0  0  0  0
   -3.2129   21.1097  -32.3553 H   0  0  0  0  0  0  0  0  0  0  0  0
   -3.0559   20.1899  -33.8903 H   0  0  0  0  0  0  0  0  0  0  0  0
   -3.8269   21.8123  -33.8903 H   0  0  0  0  0  0  0  0  0  0  0  0
   -4.4355   18.2974  -33.8385 H   0  0  0  0  0  0  0  0  0  0  0  0
   -6.9264   16.3479  -32.6472 H   0  0  0  0  0  0  0  0  0  0  0  0
   -7.7307   16.9000  -34.1555 H   0  0  0  0  0  0  0  0  0  0  0  0
   -5.9704   16.5420  -34.1555 H   0  0  0  0  0  0  0  0  0  0  0  0
   -8.2126   22.9175  -29.8699 H   0  0  0  0  0  0  0  0  0  0  0  0
   -6.8824   21.7194  -30.1084 H   0  0  0  0  0  0  0  0  0  0  0  0
   -5.0852   22.6264  -29.0563 H   0  0  0  0  0  0  0  0  0  0  0  0
   -3.0859   24.2976  -27.5253 H   0  0  0  0  0  0  0  0  0  0  0  0
   -2.1408   23.3009  -28.6829 H   0  0  0  0  0  0  0  0  0  0  0  0
   -1.9627   25.0883  -28.6829 H   0  0  0  0  0  0  0  0  0  0  0  0
  1  2  1  0
  2  3  2  0
  3  4  1  0
  4  5  1  0
  4  6  2  0
  6  7  1  0
  7  8  1  0
  8  9  1  0
  9 10  1  0
 10 11  2  0
 10 12  1  0
 12 13  1  0
 13 14  2  0
 14 15  1  0
 14 16  1  0
 16 17  1  0
  7 18  2  0
 18  2  1  0
 17 12  2  0
  1 19  1  0
  1 20  1  0
  1 21  1  0
  3 22  1  0
  5 23  1  0
  5 24  1  0
  5 25  1  0
  9 26  1  0
  9 27  1  0
 13 28  1  0
 15 29  1  0
 15 30  1  0
 15 31  1  0
M  END
>  <UniqueID>  (19) 
15

>  <SMILES>  (19) 
Cc1cc(C)nc(SCC(=O)c2cc(C)on2)n1

>  <Energy>  (19) 
50.61052610524859

>  <Genealogy>  (19) 
Cc1cc(C)nc(SCC(=O)c2cc(C)on2)n1 (3D coordinates assigned)
Cc1cc(C)nc(SCC(=O)c2cc(C)on2)n1 (optimized conformer: 50.61052610524859 kcal/mol)

>  <smiles>  (19) 
Cc1cc(C)nc(SCC(=O)c2cc(C)on2)n1

>  <score_type>  (19) 
oracle

>  <origin>  (19) 
adg

>  <m_score__min__energy>  (19) 
-8.1500000000000004

>  <m_primary>  (19) 
energy

$$$$
19:0
     RDKit          3D

 42 43  0  0  0  0  0  0  0  0999 V2000
   -2.3060   24.3150  -28.9860 C   0  0  0  0  0  0  0  0  0  0  0  0
   -3.0910   24.9220  -30.0080 O   0  0  0  0  0  0  0  0  0  0  0  0
   -4.3410   24.4470  -30.4320 C   0  0  0  0  0  0  0  0  0  0  0  0
   -4.4820   23.2840  -31.2120 C   0  0  0  0  0  0  0  0  0  0  0  0
   -5.7510   22.8520  -31.6080 C   0  0  0  0  0  0  0  0  0  0  0  0
   -6.8960   23.5720  -31.2340 C   0  0  0  0  0  0  0  0  0  0  0  0
   -8.2600   23.0720  -31.6240 C   0  0  0  0  0  0  0  0  0  0  0  0
   -8.1740   21.6790  -32.0780 N   0  0  0  0  0  0  0  0  0  0  0  0
   -9.4720   20.9970  -31.9720 C   0  0  0  0  0  0  0  0  0  0  0  0
   -9.4050   19.6080  -32.6250 C   0  0  0  0  0  0  0  0  0  0  0  0
   -8.8400   18.5190  -31.6920 C   0  0  0  0  0  0  0  0  0  0  0  0
   -7.3090   18.5360  -31.5420 C   0  0  0  0  0  0  0  0  0  0  0  0
   -6.5980   18.0740  -32.7910 C   0  0  0  0  0  0  0  0  0  0  0  0
   -6.2210   16.7320  -32.9460 C   0  0  0  0  0  0  0  0  0  0  0  0
   -5.5590   16.3310  -34.1080 C   0  0  0  0  0  0  0  0  0  0  0  0
   -5.2890   17.2350  -35.0870 N   0  0  0  0  0  0  0  0  0  0  0  0
   -5.6510   18.5410  -34.9690 C   0  0  0  0  0  0  0  0  0  0  0  0
   -6.3140   18.9840  -33.8220 C   0  0  0  0  0  0  0  0  0  0  0  0
   -6.7540   24.7300  -30.4530 C   0  0  0  0  0  0  0  0  0  0  0  0
   -5.4840   25.1630  -30.0590 C   0  0  0  0  0  0  0  0  0  0  0  0
   -2.6926   24.6139  -28.0005 H   0  0  0  0  0  0  0  0  0  0  0  0
   -2.3590   23.2207  -29.0842 H   0  0  0  0  0  0  0  0  0  0  0  0
   -1.2602   24.6417  -29.0842 H   0  0  0  0  0  0  0  0  0  0  0  0
   -3.5906   22.7131  -31.5110 H   0  0  0  0  0  0  0  0  0  0  0  0
   -5.8528   21.9416  -32.2169 H   0  0  0  0  0  0  0  0  0  0  0  0
   -8.9316   23.1309  -30.7548 H   0  0  0  0  0  0  0  0  0  0  0  0
   -8.6521   23.6944  -32.4419 H   0  0  0  0  0  0  0  0  0  0  0  0
   -7.9000   21.6860  -33.0890 H   0  0  0  0  0  0  0  0  0  0  0  0
   -9.7366   20.8854  -30.9102 H   0  0  0  0  0  0  0  0  0  0  0  0
  -10.2330   21.5979  -32.4914 H   0  0  0  0  0  0  0  0  0  0  0  0
  -10.4215   19.3153  -32.9269 H   0  0  0  0  0  0  0  0  0  0  0  0
   -8.7221   19.6858  -33.4838 H   0  0  0  0  0  0  0  0  0  0  0  0
   -9.2840   18.6570  -30.6951 H   0  0  0  0  0  0  0  0  0  0  0  0
   -9.0979   17.5522  -32.1489 H   0  0  0  0  0  0  0  0  0  0  0  0
   -6.9888   19.5633  -31.3139 H   0  0  0  0  0  0  0  0  0  0  0  0
   -7.0459   17.8397  -30.7321 H   0  0  0  0  0  0  0  0  0  0  0  0
   -6.4456   15.9996  -32.1566 H   0  0  0  0  0  0  0  0  0  0  0  0
   -5.2551   15.2811  -34.2318 H   0  0  0  0  0  0  0  0  0  0  0  0
   -5.4212   19.2496  -35.7784 H   0  0  0  0  0  0  0  0  0  0  0  0
   -6.6116   20.0387  -33.7271 H   0  0  0  0  0  0  0  0  0  0  0  0
   -7.6453   25.2990  -30.1498 H   0  0  0  0  0  0  0  0  0  0  0  0
   -5.3827   26.0740  -29.4508 H   0  0  0  0  0  0  0  0  0  0  0  0
  1  2  1  0
  2  3  1  0
  3  4  2  0
  4  5  1  0
  5  6  2  0
  6  7  1  0
  7  8  1  0
  8  9  1  0
  9 10  1  0
 10 11  1  0
 11 12  1  0
 12 13  1  0
 13 14  2  0
 14 15  1  0
 15 16  2  0
 16 17  1  0
 17 18  2  0
  6 19  1  0
 19 20  2  0
 20  3  1  0
 18 13  1  0
  1 21  1  0
  1 22  1  0
  1 23  1  0
  4 24  1  0
  5 25  1  0
  7 26  1  0
  7 27  1  0
  8 28  1  0
  9 29  1  0
  9 30  1  0
 10 31  1  0
 10 32  1  0
 11 33  1  0
 11 34  1  0
 12 35  1  0
 12 36  1  0
 14 37  1  0
 15 38  1  0
 17 39  1  0
 18 40  1  0
 19 41  1  0
 20 42  1  0
M  END
>  <UniqueID>  (20) 
16

>  <SMILES>  (20) 
COc1ccc(CNCCCCc2ccncc2)cc1

>  <Energy>  (20) 
35.02961907116524

>  <Genealogy>  (20) 
COc1ccc(CNCCCCc2ccncc2)cc1 (3D coordinates assigned)
COc1ccc(CNCCCCc2ccncc2)cc1 (optimized conformer: 35.02961907116524 kcal/mol)

>  <smiles>  (20) 
COc1ccc(CNCCCCc2ccncc2)cc1

>  <score_type>  (20) 
oracle

>  <origin>  (20) 
adg

>  <m_score__min__energy>  (20) 
-7.6500000000000004

>  <m_primary>  (20) 
energy

$$$$
20:0
     RDKit          3D

 44 46  0  0  0  0  0  0  0  0999 V2000
   -5.3630   25.4270  -30.3830 C   0  0  0  0  0  0  0  0  0  0  0  0
   -5.0530   24.3170  -31.2200 O   0  0  0  0  0  0  0  0  0  0  0  0
   -5.9350   23.2650  -31.5130 C   0  0  0  0  0  0  0  0  0  0  0  0
   -7.3270   23.4700  -31.5910 C   0  0  0  0  0  0  0  0  0  0  0  0
   -8.1880   22.4030  -31.8460 C   0  0  0  0  0  0  0  0  0  0  0  0
   -7.6770   21.1160  -32.0170 C   0  0  0  0  0  0  0  0  0  0  0  0
   -8.8610   19.6540  -32.3470 Br  0  0  0  0  0  0  0  0  0  0  0  0
   -6.3000   20.8980  -31.9470 C   0  0  0  0  0  0  0  0  0  0  0  0
   -5.4140   21.9670  -31.7220 C   0  0  0  0  0  0  0  0  0  0  0  0
   -3.9180   21.6940  -31.6600 C   0  0  0  0  0  0  0  0  0  0  0  0
   -3.2160   22.3360  -30.5170 N   0  0  0  0  0  0  0  0  0  0  0  0
   -3.7850   21.9440  -29.2040 C   0  0  0  0  0  0  0  0  0  0  0  0
   -2.9380   22.4410  -28.0100 C   0  0  0  0  0  0  0  0  0  0  0  0
   -1.9220   23.4110  -28.4380 N   0  0  0  0  0  0  0  0  0  0  0  0
   -1.6730   24.5990  -27.6640 C   0  0  0  0  0  0  0  0  0  0  0  0
   -0.8380   25.6170  -28.1610 C   0  0  0  0  0  0  0  0  0  0  0  0
   -0.6080   26.7730  -27.4090 C   0  0  0  0  0  0  0  0  0  0  0  0
   -1.2120   26.9280  -26.1590 C   0  0  0  0  0  0  0  0  0  0  0  0
   -2.0500   25.9280  -25.6590 C   0  0  0  0  0  0  0  0  0  0  0  0
   -2.2810   24.7690  -26.4070 C   0  0  0  0  0  0  0  0  0  0  0  0
   -1.0490   23.0750  -29.5710 C   0  0  0  0  0  0  0  0  0  0  0  0
   -1.7550   22.1210  -30.5490 C   0  0  0  0  0  0  0  0  0  0  0  0
   -5.2789   25.1258  -29.3284 H   0  0  0  0  0  0  0  0  0  0  0  0
   -4.6597   26.2478  -30.5871 H   0  0  0  0  0  0  0  0  0  0  0  0
   -6.3898   25.7646  -30.5871 H   0  0  0  0  0  0  0  0  0  0  0  0
   -7.7380   24.4805  -31.4495 H   0  0  0  0  0  0  0  0  0  0  0  0
   -9.2722   22.5764  -31.9125 H   0  0  0  0  0  0  0  0  0  0  0  0
   -5.9035   19.8792  -32.0691 H   0  0  0  0  0  0  0  0  0  0  0  0
   -3.7710   20.6064  -31.5852 H   0  0  0  0  0  0  0  0  0  0  0  0
   -3.4850   22.1274  -32.5736 H   0  0  0  0  0  0  0  0  0  0  0  0
   -3.3850   23.3660  -30.6320 H   0  0  0  0  0  0  0  0  0  0  0  0
   -4.7960   22.3689  -29.1184 H   0  0  0  0  0  0  0  0  0  0  0  0
   -3.7989   20.8448  -29.1646 H   0  0  0  0  0  0  0  0  0  0  0  0
   -3.6021   22.9196  -27.2753 H   0  0  0  0  0  0  0  0  0  0  0  0
   -2.4239   21.5752  -27.5673 H   0  0  0  0  0  0  0  0  0  0  0  0
   -0.3636   25.5025  -29.1468 H   0  0  0  0  0  0  0  0  0  0  0  0
    0.0498   27.5620  -27.8024 H   0  0  0  0  0  0  0  0  0  0  0  0
   -1.0279   27.8374  -25.5682 H   0  0  0  0  0  0  0  0  0  0  0  0
   -2.5284   26.0524  -24.6763 H   0  0  0  0  0  0  0  0  0  0  0  0
   -2.9426   23.9851  -26.0096 H   0  0  0  0  0  0  0  0  0  0  0  0
   -0.7784   23.9992  -30.1027 H   0  0  0  0  0  0  0  0  0  0  0  0
   -0.1492   22.5751  -29.1830 H   0  0  0  0  0  0  0  0  0  0  0  0
   -1.3839   22.3070  -31.5677 H   0  0  0  0  0  0  0  0  0  0  0  0
   -1.5413   21.0839  -30.2512 H   0  0  0  0  0  0  0  0  0  0  0  0
  1  2  1  0
  2  3  1  0
  3  4  2  0
  4  5  1  0
  5  6  2  0
  6  7  1  0
  6  8  1  0
  8  9  2  0
  9 10  1  0
 10 11  1  0
 11 12  1  0
 12 13  1  0
 13 14  1  0
 14 15  1  0
 15 16  2  0
 16 17  1  0
 17 18  2  0
 18 19  1  0
 19 20  2  0
 14 21  1  0
 21 22  1  0
  9  3  1  0
 22 11  1  0
 20 15  1  0
  1 23  1  0
  1 24  1  0
  1 25  1  0
  4 26  1  0
  5 27  1  0
  8 28  1  0
 10 29  1  0
 10 30  1  0
 11 31  1  0
 12 32  1  0
 12 33  1  0
 13 34  1  0
 13 35  1  0
 16 36  1  0
 17 37  1  0
 18 38  1  0
 19 39  1  0
 20 40  1  0
 21 41  1  0
 21 42  1  0
 22 43  1  0
 22 44  1  0
M  CHG  1  11   1
M  END
>  <UniqueID>  (21) 
17

>  <SMILES>  (21) 
COc1ccc(Br)cc1C[NH+]1CCN(c2ccccc2)CC1

>  <Energy>  (21) 
59.12743066072283

>  <Genealogy>  (21) 
COc1ccc(Br)cc1C[NH+]1CCN(c2ccccc2)CC1 (protonated)
COc1ccc(Br)cc1C[NH+]1CCN(c2ccccc2)CC1 (3D coordinates assigned)
COc1ccc(Br)cc1C[NH+]1CCN(c2ccccc2)CC1 (nonaromatic ring conformer: 59.12743066072283 kcal/mol)

>  <smiles>  (21) 
COc1ccc(Br)cc1CN1CCN(c2ccccc2)CC1

>  <score_type>  (21) 
oracle

>  <origin>  (21) 
adg

>  <m_score__min__energy>  (21) 
-7.2599999999999998

>  <m_primary>  (21) 
energy

$$$$
21:0
     RDKit          3D

 44 46  0  0  0  0  0  0  0  0999 V2000
    0.7390   23.8120  -25.8640 C   0  0  0  0  0  0  0  0  0  0  0  0
    0.3650   24.1580  -27.2730 C   0  0  0  0  0  0  0  0  0  0  0  0
    1.1540   24.8800  -27.9440 O   0  0  0  0  0  0  0  0  0  0  0  0
   -0.8700   23.7030  -27.8700 N   0  0  0  0  0  0  0  0  0  0  0  0
   -1.9210   23.0600  -27.0630 C   0  0  0  0  0  0  0  0  0  0  0  0
   -3.3150   23.4820  -27.5470 C   0  0  0  0  0  0  0  0  0  0  0  0
   -3.4150   23.4530  -29.0120 N   0  0  0  0  0  0  0  0  0  0  0  0
   -4.6550   23.8140  -29.6420 C   0  0  0  0  0  0  0  0  0  0  0  0
   -5.3560   24.8970  -29.2020 N   0  0  0  0  0  0  0  0  0  0  0  0
   -6.5260   25.2590  -29.7930 C   0  0  0  0  0  0  0  0  0  0  0  0
   -7.0180   24.5350  -30.8310 N   0  0  0  0  0  0  0  0  0  0  0  0
   -6.3680   23.4420  -31.3050 C   0  0  0  0  0  0  0  0  0  0  0  0
   -6.9350   22.7420  -32.3800 O   0  0  0  0  0  0  0  0  0  0  0  0
   -7.2740   21.3830  -32.3630 C   0  0  0  0  0  0  0  0  0  0  0  0
   -6.3980   20.4720  -32.9660 C   0  0  0  0  0  0  0  0  0  0  0  0
   -6.6770   19.1030  -32.9510 C   0  0  0  0  0  0  0  0  0  0  0  0
   -7.8410   18.6350  -32.3390 C   0  0  0  0  0  0  0  0  0  0  0  0
   -8.7370   19.5350  -31.7590 C   0  0  0  0  0  0  0  0  0  0  0  0
   -8.4790   20.9160  -31.7850 C   0  0  0  0  0  0  0  0  0  0  0  0
   -9.4870   21.8590  -31.1860 C   0  0  0  0  0  0  0  0  0  0  0  0
   -5.1430   23.0670  -30.7220 C   0  0  0  0  0  0  0  0  0  0  0  0
   -4.4120   22.0390  -31.2240 F   0  0  0  0  0  0  0  0  0  0  0  0
   -2.2630   23.0500  -29.8230 C   0  0  0  0  0  0  0  0  0  0  0  0
   -1.0090   23.7790  -29.3340 C   0  0  0  0  0  0  0  0  0  0  0  0
    0.1146   24.3896  -25.1665 H   0  0  0  0  0  0  0  0  0  0  0  0
    0.5786   22.7369  -25.6955 H   0  0  0  0  0  0  0  0  0  0  0  0
    1.7984   24.0555  -25.6955 H   0  0  0  0  0  0  0  0  0  0  0  0
   -1.8246   21.9677  -27.1497 H   0  0  0  0  0  0  0  0  0  0  0  0
   -1.8020   23.3731  -26.0152 H   0  0  0  0  0  0  0  0  0  0  0  0
   -4.0620   22.7934  -27.1253 H   0  0  0  0  0  0  0  0  0  0  0  0
   -3.4956   24.5141  -27.2121 H   0  0  0  0  0  0  0  0  0  0  0  0
   -5.0070   25.4560  -28.3930 H   0  0  0  0  0  0  0  0  0  0  0  0
   -7.0750   26.1402  -29.4294 H   0  0  0  0  0  0  0  0  0  0  0  0
   -5.4830   20.8371  -33.4554 H   0  0  0  0  0  0  0  0  0  0  0  0
   -5.9796   18.3942  -33.4213 H   0  0  0  0  0  0  0  0  0  0  0  0
   -8.0526   17.5558  -32.3137 H   0  0  0  0  0  0  0  0  0  0  0  0
   -9.6523   19.1600  -31.2778 H   0  0  0  0  0  0  0  0  0  0  0  0
   -9.4311   21.8067  -30.0887 H   0  0  0  0  0  0  0  0  0  0  0  0
   -9.2698   22.8857  -31.5157 H   0  0  0  0  0  0  0  0  0  0  0  0
  -10.4970   21.5739  -31.5157 H   0  0  0  0  0  0  0  0  0  0  0  0
   -2.1136   21.9640  -29.7322 H   0  0  0  0  0  0  0  0  0  0  0  0
   -2.4490   23.3100  -30.8755 H   0  0  0  0  0  0  0  0  0  0  0  0
   -0.1250   23.3194  -29.8002 H   0  0  0  0  0  0  0  0  0  0  0  0
   -1.0973   24.8388  -29.6152 H   0  0  0  0  0  0  0  0  0  0  0  0
  1  2  1  0
  2  3  2  0
  2  4  1  0
  4  5  1  0
  5  6  1  0
  6  7  1  0
  7  8  1  0
  8  9  2  0
  9 10  1  0
 10 11  2  0
 11 12  1  0
 12 13  1  0
 13 14  1  0
 14 15  2  0
 15 16  1  0
 16 17  2  0
 17 18  1  0
 18 19  2  0
 19 20  1  0
 12 21  2  0
 21 22  1  0
  7 23  1  0
 23 24  1  0
 24  4  1  0
 21  8  1  0
 19 14  1  0
  1 25  1  0
  1 26  1  0
  1 27  1  0
  5 28  1  0
  5 29  1  0
  6 30  1  0
  6 31  1  0
  9 32  1  0
 10 33  1  0
 15 34  1  0
 16 35  1  0
 17 36  1  0
 18 37  1  0
 20 38  1  0
 20 39  1  0
 20 40  1  0
 23 41  1  0
 23 42  1  0
 24 43  1  0
 24 44  1  0
M  CHG  1   9   1
M  END
>  <UniqueID>  (22) 
18

>  <SMILES>  (22) 
CC(=O)N1CCN(c2[nH+]cnc(Oc3ccccc3C)c2F)CC1

>  <Energy>  (22) 
58.771547394148435

>  <Genealogy>  (22) 
CC(=O)N1CCN(c2[nH+]cnc(Oc3ccccc3C)c2F)CC1 (protonated)
CC(=O)N1CCN(c2[nH+]cnc(Oc3ccccc3C)c2F)CC1 (3D coordinates assigned)
CC(=O)N1CCN(c2[nH+]cnc(Oc3ccccc3C)c2F)CC1 (nonaromatic ring conformer: 58.771547394148435 kcal/mol)

>  <smiles>  (22) 
CC(=O)N1CCN(c2ncnc(Oc3ccccc3C)c2F)CC1

>  <score_type>  (22) 
oracle

>  <origin>  (22) 
adg

>  <m_score__min__energy>  (22) 
-7.54

>  <m_primary>  (22) 
energy

$$$$
22:0
     RDKit          3D

 47 50  0  0  0  0  0  0  0  0999 V2000
   -1.2030   24.4060  -28.3480 C   0  0  0  0  0  0  0  0  0  0  0  0
   -2.1170   24.8310  -29.3550 O   0  0  0  0  0  0  0  0  0  0  0  0
   -3.2630   24.1170  -29.7350 C   0  0  0  0  0  0  0  0  0  0  0  0
   -4.4390   24.0940  -28.9420 C   0  0  0  0  0  0  0  0  0  0  0  0
   -5.5630   23.3620  -29.3560 C   0  0  0  0  0  0  0  0  0  0  0  0
   -5.5080   22.6880  -30.5750 C   0  0  0  0  0  0  0  0  0  0  0  0
   -4.3600   22.6890  -31.3440 C   0  0  0  0  0  0  0  0  0  0  0  0
   -3.2280   23.3980  -30.9430 C   0  0  0  0  0  0  0  0  0  0  0  0
   -4.5180   21.8450  -32.5690 C   0  0  0  0  0  0  0  0  0  0  0  0
   -6.0500   21.7120  -32.6180 C   0  0  2  0  0  0  0  0  0  0  0  0
   -6.4980   21.7510  -31.1610 C   0  0  2  0  0  0  0  0  0  0  0  0
   -7.9790   22.1120  -31.1240 C   0  0  0  0  0  0  0  0  0  0  0  0
   -8.7490   21.1960  -32.0720 C   0  0  0  0  0  0  0  0  0  0  0  0
  -10.2430   21.1510  -31.9590 C   0  0  0  0  0  0  0  0  0  0  0  0
   -8.1750   20.5650  -33.0600 N   0  0  0  0  0  0  0  0  0  0  0  0
   -6.7370   20.5420  -33.3400 C   0  0  2  0  0  0  0  0  0  0  0  0
   -6.1400   19.1840  -33.0090 C   0  0  0  0  0  0  0  0  0  0  0  0
   -5.0260   18.6710  -33.7050 C   0  0  0  0  0  0  0  0  0  0  0  0
   -4.5130   17.4090  -33.3910 C   0  0  0  0  0  0  0  0  0  0  0  0
   -5.0990   16.6450  -32.3780 C   0  0  0  0  0  0  0  0  0  0  0  0
   -4.4420   15.0240  -31.9810 S   0  0  0  0  0  0  0  0  0  0  0  0
   -5.2080   14.2260  -33.4250 C   0  0  0  0  0  0  0  0  0  0  0  0
   -6.2060   17.1410  -31.6830 C   0  0  0  0  0  0  0  0  0  0  0  0
   -6.7220   18.4020  -31.9950 C   0  0  0  0  0  0  0  0  0  0  0  0
   -1.6324   24.6057  -27.3552 H   0  0  0  0  0  0  0  0  0  0  0  0
   -1.0142   23.3277  -28.4557 H   0  0  0  0  0  0  0  0  0  0  0  0
   -0.2568   24.9565  -28.4557 H   0  0  0  0  0  0  0  0  0  0  0  0
   -4.4704   24.6539  -27.9957 H   0  0  0  0  0  0  0  0  0  0  0  0
   -6.4678   23.3211  -28.7318 H   0  0  0  0  0  0  0  0  0  0  0  0
   -2.3197   23.3948  -31.5635 H   0  0  0  0  0  0  0  0  0  0  0  0
   -4.1248   22.3495  -33.4639 H   0  0  0  0  0  0  0  0  0  0  0  0
   -3.9743   20.8892  -32.5419 H   0  0  0  0  0  0  0  0  0  0  0  0
   -6.3729   22.5342  -33.2735 H   0  0  0  0  0  0  0  0  0  0  0  0
   -6.4867   20.8230  -30.5704 H   0  0  0  0  0  0  0  0  0  0  0  0
   -8.3618   21.9859  -30.1005 H   0  0  0  0  0  0  0  0  0  0  0  0
   -8.1097   23.1582  -31.4377 H   0  0  0  0  0  0  0  0  0  0  0  0
  -10.5303   21.1423  -30.8972 H   0  0  0  0  0  0  0  0  0  0  0  0
  -10.6746   22.0366  -32.4484 H   0  0  0  0  0  0  0  0  0  0  0  0
  -10.6205   20.2411  -32.4484 H   0  0  0  0  0  0  0  0  0  0  0  0
   -6.5634   20.6848  -34.4168 H   0  0  0  0  0  0  0  0  0  0  0  0
   -4.5572   19.2683  -34.5009 H   0  0  0  0  0  0  0  0  0  0  0  0
   -3.6460   17.0164  -33.9426 H   0  0  0  0  0  0  0  0  0  0  0  0
   -5.9325   13.4712  -33.0854 H   0  0  0  0  0  0  0  0  0  0  0  0
   -5.7253   14.9841  -34.0314 H   0  0  0  0  0  0  0  0  0  0  0  0
   -4.4294   13.7402  -34.0314 H   0  0  0  0  0  0  0  0  0  0  0  0
   -6.6716   16.5380  -30.8895 H   0  0  0  0  0  0  0  0  0  0  0  0
   -7.5917   18.7866  -31.4421 H   0  0  0  0  0  0  0  0  0  0  0  0
  1  2  1  0
  2  3  1  0
  3  4  2  0
  4  5  1  0
  5  6  2  0
  6  7  1  0
  7  8  2  0
  7  9  1  0
  9 10  1  0
 10 11  1  0
 11 12  1  0
 12 13  1  0
 13 14  1  0
 13 15  2  0
 15 16  1  0
 16 17  1  0
 17 18  2  0
 18 19  1  0
 19 20  2  0
 20 21  1  0
 21 22  1  0
 20 23  1  0
 23 24  2  0
  8  3  1  0
 16 10  1  0
 24 17  1  0
 11  6  1  0
  1 25  1  0
  1 26  1  0
  1 27  1  0
  4 28  1  0
  5 29  1  0
  8 30  1  0
  9 31  1  0
  9 32  1  0
 10 33  1  6
 11 34  1  1
 12 35  1  0
 12 36  1  0
 14 37  1  0
 14 38  1  0
 14 39  1  0
 16 40  1  6
 18 41  1  0
 19 42  1  0
 22 43  1  0
 22 44  1  0
 22 45  1  0
 23 46  1  0
 24 47  1  0
M  END
>  <UniqueID>  (23) 
19

>  <SMILES>  (23) 
COc1ccc2c(c1)C[C@H]1C(c3ccc(SC)cc3)N=C(C)C[C@H]21

>  <Energy>  (23) 
68.62567494303836

>  <Genealogy>  (23) 
COc1ccc2c(c1)C[C@H]1C(c3ccc(SC)cc3)N=C(C)C[C@H]21 (chirality)
COc1ccc2c(c1)C[C@H]1C(c3ccc(SC)cc3)N=C(C)C[C@H]21 (3D coordinates assigned)
COc1ccc2c(c1)C[C@H]1C(c3ccc(SC)cc3)N=C(C)C[C@H]21 (nonaromatic ring conformer: 68.62567494303836 kcal/mol)

>  <smiles>  (23) 
COc1ccc2c(c1)CC1C2CC(C)=NC1c1ccc(SC)cc1

>  <score_type>  (23) 
oracle

>  <origin>  (23) 
adg

>  <m_score__min__energy>  (23) 
-8.5600000000000005

>  <m_primary>  (23) 
energy

$$$$
23:0
     RDKit          3D

 41 43  0  0  0  0  0  0  0  0999 V2000
   -3.6960   25.2980  -30.4700 N   0  0  0  0  0  0  0  0  0  0  0  0
   -5.1930   24.9240  -29.6940 S   0  0  0  0  0  0  0  0  0  0  0  0
   -4.9360   24.5390  -28.2640 O   0  0  0  0  0  0  0  0  0  0  0  0
   -6.0820   26.1360  -29.7140 O   0  0  0  0  0  0  0  0  0  0  0  0
   -5.9770   23.5930  -30.5390 C   0  0  0  0  0  0  0  0  0  0  0  0
   -5.3960   22.3190  -30.5320 C   0  0  0  0  0  0  0  0  0  0  0  0
   -6.0050   21.2650  -31.2180 C   0  0  0  0  0  0  0  0  0  0  0  0
   -7.2030   21.4750  -31.9210 C   0  0  0  0  0  0  0  0  0  0  0  0
   -7.8290   20.3530  -32.7150 C   0  0  0  0  0  0  0  0  0  0  0  0
   -6.9700   19.9260  -33.8320 N   0  0  0  0  0  0  0  0  0  0  0  0
   -6.3150   18.6710  -33.5440 C   0  0  0  0  0  0  0  0  0  0  0  0
   -6.4870   18.0500  -32.2960 C   0  0  0  0  0  0  0  0  0  0  0  0
   -5.8160   16.8610  -31.9980 C   0  0  0  0  0  0  0  0  0  0  0  0
   -4.9570   16.2700  -32.9420 C   0  0  0  0  0  0  0  0  0  0  0  0
   -4.2370   15.0100  -32.6240 C   0  0  0  0  0  0  0  0  0  0  0  0
   -3.1540   14.5800  -33.4100 C   0  0  0  0  0  0  0  0  0  0  0  0
   -2.4880   13.3930  -33.0990 C   0  0  0  0  0  0  0  0  0  0  0  0
   -2.9070   12.6400  -32.0030 C   0  0  0  0  0  0  0  0  0  0  0  0
   -3.9550   13.0640  -31.2470 N   0  0  0  0  0  0  0  0  0  0  0  0
   -4.6220   14.2150  -31.5300 C   0  0  0  0  0  0  0  0  0  0  0  0
   -4.7840   16.8950  -34.1890 C   0  0  0  0  0  0  0  0  0  0  0  0
   -5.4550   18.0830  -34.4870 C   0  0  0  0  0  0  0  0  0  0  0  0
   -7.7750   22.7560  -31.9370 C   0  0  0  0  0  0  0  0  0  0  0  0
   -7.1660   23.8100  -31.2490 C   0  0  0  0  0  0  0  0  0  0  0  0
   -3.8770   26.1070  -31.1060 H   0  0  0  0  0  0  0  0  0  0  0  0
   -4.4573   22.1474  -29.9848 H   0  0  0  0  0  0  0  0  0  0  0  0
   -5.5442   20.2662  -31.2075 H   0  0  0  0  0  0  0  0  0  0  0  0
   -7.9968   19.4952  -32.0472 H   0  0  0  0  0  0  0  0  0  0  0  0
   -8.7773   20.7198  -33.1347 H   0  0  0  0  0  0  0  0  0  0  0  0
   -7.5640   19.8120  -34.6860 H   0  0  0  0  0  0  0  0  0  0  0  0
   -6.2650   20.6700  -34.0430 H   0  0  0  0  0  0  0  0  0  0  0  0
   -7.1545   18.5027  -31.5480 H   0  0  0  0  0  0  0  0  0  0  0  0
   -5.9607   16.3836  -31.0176 H   0  0  0  0  0  0  0  0  0  0  0  0
   -2.8302   15.1805  -34.2728 H   0  0  0  0  0  0  0  0  0  0  0  0
   -1.6403   13.0549  -33.7132 H   0  0  0  0  0  0  0  0  0  0  0  0
   -2.3898   11.7028  -31.7497 H   0  0  0  0  0  0  0  0  0  0  0  0
   -5.4678   14.5259  -30.8992 H   0  0  0  0  0  0  0  0  0  0  0  0
   -4.1144   16.4446  -34.9365 H   0  0  0  0  0  0  0  0  0  0  0  0
   -5.3093   18.5617  -35.4666 H   0  0  0  0  0  0  0  0  0  0  0  0
   -8.7073   22.9321  -32.4936 H   0  0  0  0  0  0  0  0  0  0  0  0
   -7.6208   24.8114  -31.2649 H   0  0  0  0  0  0  0  0  0  0  0  0
  1  2  1  0
  2  3  2  0
  2  4  2  0
  2  5  1  0
  5  6  2  0
  6  7  1  0
  7  8  2  0
  8  9  1  0
  9 10  1  0
 10 11  1  0
 11 12  2  0
 12 13  1  0
 13 14  2  0
 14 15  1  0
 15 16  2  0
 16 17  1  0
 17 18  2  0
 18 19  1  0
 19 20  2  0
 14 21  1  0
 21 22  2  0
  8 23  1  0
 23 24  2  0
 24  5  1  0
 22 11  1  0
 20 15  1  0
  1 25  1  0
  6 26  1  0
  7 27  1  0
  9 28  1  0
  9 29  1  0
 10 30  1  0
 10 31  1  0
 12 32  1  0
 13 33  1  0
 16 34  1  0
 17 35  1  0
 18 36  1  0
 20 37  1  0
 21 38  1  0
 22 39  1  0
 23 40  1  0
 24 41  1  0
M  CHG  2   1  -1  10   1
M  END
>  <UniqueID>  (24) 
20

>  <SMILES>  (24) 
[NH-]S(=O)(=O)c1ccc(C[NH2+]c2ccc(-c3cccnc3)cc2)cc1

>  <Energy>  (24) 
49.18445895334943

>  <Genealogy>  (24) 
[NH-]S(=O)(=O)c1ccc(C[NH2+]c2ccc(-c3cccnc3)cc2)cc1 (protonated)
[NH-]S(=O)(=O)c1ccc(C[NH2+]c2ccc(-c3cccnc3)cc2)cc1 (3D coordinates assigned)
[NH-]S(=O)(=O)c1ccc(C[NH2+]c2ccc(-c3cccnc3)cc2)cc1 (optimized conformer: 49.18445895334943 kcal/mol)

>  <smiles>  (24) 
NS(=O)(=O)c1ccc(CNc2ccc(-c3cccnc3)cc2)cc1

>  <score_type>  (24) 
oracle

>  <origin>  (24) 
adg

>  <m_score__min__energy>  (24) 
-10.470000000000001

>  <m_primary>  (24) 
energy

$$$$
24:0
     RDKit          3D

 25 26  0  0  0  0  0  0  0  0999 V2000
   -1.2920   22.7530  -27.1250 C   0  0  0  0  0  0  0  0  0  0  0  0
   -2.0700   23.0890  -28.1600 C   0  0  0  0  0  0  0  0  0  0  0  0
   -2.1810   24.3570  -28.7160 C   0  0  0  0  0  0  0  0  0  0  0  0
   -1.4960   25.5580  -28.3080 C   0  0  0  0  0  0  0  0  0  0  0  0
   -0.9470   26.5220  -27.9790 N   0  0  0  0  0  0  0  0  0  0  0  0
   -3.0830   24.2540  -29.7530 C   0  0  0  0  0  0  0  0  0  0  0  0
   -3.4840   25.3010  -30.5750 O   0  0  0  0  0  0  0  0  0  0  0  0
   -3.5370   22.9910  -29.8650 N   0  0  0  0  0  0  0  0  0  0  0  0
   -4.4900   22.5340  -30.8370 C   0  0  0  0  0  0  0  0  0  0  0  0
   -4.1260   21.5540  -31.7800 C   0  0  0  0  0  0  0  0  0  0  0  0
   -2.5120   20.8560  -31.7820 Cl  0  0  0  0  0  0  0  0  0  0  0  0
   -5.0590   21.1120  -32.7240 C   0  0  0  0  0  0  0  0  0  0  0  0
   -6.3520   21.6410  -32.7340 C   0  0  0  0  0  0  0  0  0  0  0  0
   -6.7190   22.6130  -31.8020 C   0  0  0  0  0  0  0  0  0  0  0  0
   -5.7950   23.0630  -30.8540 C   0  0  0  0  0  0  0  0  0  0  0  0
   -6.2830   24.3000  -29.7040 Cl  0  0  0  0  0  0  0  0  0  0  0  0
   -2.9260   22.2620  -28.8980 C   0  0  0  0  0  0  0  0  0  0  0  0
   -3.1260   20.9490  -28.7110 C   0  0  0  0  0  0  0  0  0  0  0  0
   -1.2784   21.7149  -26.7614 H   0  0  0  0  0  0  0  0  0  0  0  0
   -0.6659   23.5148  -26.6375 H   0  0  0  0  0  0  0  0  0  0  0  0
   -4.7739   20.3460  -33.4602 H   0  0  0  0  0  0  0  0  0  0  0  0
   -7.0825   21.2907  -33.4781 H   0  0  0  0  0  0  0  0  0  0  0  0
   -7.7383   23.0263  -31.8133 H   0  0  0  0  0  0  0  0  0  0  0  0
   -2.5952   20.4211  -27.9051 H   0  0  0  0  0  0  0  0  0  0  0  0
   -3.8209   20.4001  -29.3636 H   0  0  0  0  0  0  0  0  0  0  0  0
  1  2  2  0
  2  3  1  0
  3  4  1  0
  4  5  3  0
  3  6  2  0
  6  7  1  0
  6  8  1  0
  8  9  1  0
  9 10  2  0
 10 11  1  0
 10 12  1  0
 12 13  2  0
 13 14  1  0
 14 15  2  0
 15 16  1  0
  8 17  1  0
 17 18  2  0
 17  2  1  0
 15  9  1  0
  1 19  1  0
  1 20  1  0
 12 21  1  0
 13 22  1  0
 14 23  1  0
 18 24  1  0
 18 25  1  0
M  CHG  1   7  -1
M  END
>  <UniqueID>  (25) 
21

>  <SMILES>  (25) 
C=c1c(C#N)c([O-])n(-c2c(Cl)cccc2Cl)c1=C

>  <Energy>  (25) 
64.62938546312029

>  <Genealogy>  (25) 
C=c1c(C#N)c([O-])n(-c2c(Cl)cccc2Cl)c1=C (protonated)
C=c1c(C#N)c([O-])n(-c2c(Cl)cccc2Cl)c1=C (3D coordinates assigned)
C=c1c(C#N)c([O-])n(-c2c(Cl)cccc2Cl)c1=C (optimized conformer: 64.62938546312029 kcal/mol)

>  <smiles>  (25) 
C=c1c(C#N)c(O)n(-c2c(Cl)cccc2Cl)c1=C

>  <score_type>  (25) 
oracle

>  <origin>  (25) 
adg

>  <m_score__min__energy>  (25) 
-9.3699999999999992

>  <m_primary>  (25) 
energy

$$$$
25:0
     RDKit          3D

 36 38  0  0  0  0  0  0  0  0999 V2000
   -6.4400   19.5250  -34.7260 O   0  0  0  0  0  0  0  0  0  0  0  0
   -6.8580   19.1440  -33.5950 C   0  0  0  0  0  0  0  0  0  0  0  0
   -7.5820   20.1260  -32.7410 C   0  0  0  0  0  0  0  0  0  0  0  0
   -8.9360   19.9150  -32.4220 C   0  0  0  0  0  0  0  0  0  0  0  0
   -9.6180   20.8200  -31.6720 N   0  0  0  0  0  0  0  0  0  0  0  0
   -9.0290   21.9500  -31.2010 C   0  0  0  0  0  0  0  0  0  0  0  0
   -7.6870   22.2050  -31.4840 C   0  0  0  0  0  0  0  0  0  0  0  0
   -6.8510   23.7910  -30.8270 Br  0  0  0  0  0  0  0  0  0  0  0  0
   -6.9620   21.2910  -32.2510 C   0  0  0  0  0  0  0  0  0  0  0  0
   -6.5990   17.7830  -33.1390 N   0  0  1  0  0  0  0  0  0  0  0  0
   -6.5040   16.7910  -34.2210 C   0  0  0  0  0  0  0  0  0  0  0  0
   -5.7160   15.6120  -33.6690 C   0  0  0  0  0  0  0  0  0  0  0  0
   -4.9290   16.1590  -32.4860 C   0  0  0  0  0  0  0  0  0  0  0  0
   -5.3620   17.6240  -32.3360 C   0  0  1  0  0  0  0  0  0  0  0  0
   -4.2430   18.5960  -32.7200 C   0  0  0  0  0  0  0  0  0  0  0  0
   -3.3580   18.3260  -33.7830 C   0  0  0  0  0  0  0  0  0  0  0  0
   -2.3830   19.2590  -34.1480 C   0  0  0  0  0  0  0  0  0  0  0  0
   -2.2840   20.4730  -33.4670 C   0  0  0  0  0  0  0  0  0  0  0  0
   -3.1570   20.7570  -32.4130 C   0  0  0  0  0  0  0  0  0  0  0  0
   -3.0440   22.2900  -31.5690 Cl  0  0  0  0  0  0  0  0  0  0  0  0
   -4.1290   19.8240  -32.0390 C   0  0  0  0  0  0  0  0  0  0  0  0
   -9.4467   19.0100  -32.7827 H   0  0  0  0  0  0  0  0  0  0  0  0
   -9.6096   22.6630  -30.5972 H   0  0  0  0  0  0  0  0  0  0  0  0
   -5.9018   21.4820  -32.4734 H   0  0  0  0  0  0  0  0  0  0  0  0
   -7.4130   17.4880  -32.5510 H   0  0  0  0  0  0  0  0  0  0  0  0
   -7.5096   16.4651  -34.5253 H   0  0  0  0  0  0  0  0  0  0  0  0
   -6.0080   17.2178  -35.1052 H   0  0  0  0  0  0  0  0  0  0  0  0
   -6.3988   14.8150  -33.3396 H   0  0  0  0  0  0  0  0  0  0  0  0
   -5.0529   15.1752  -34.4302 H   0  0  0  0  0  0  0  0  0  0  0  0
   -5.1677   15.5938  -31.5730 H   0  0  0  0  0  0  0  0  0  0  0  0
   -3.8443   16.0722  -32.6469 H   0  0  0  0  0  0  0  0  0  0  0  0
   -5.5732   17.8746  -31.2860 H   0  0  0  0  0  0  0  0  0  0  0  0
   -3.4350   17.3744  -34.3294 H   0  0  0  0  0  0  0  0  0  0  0  0
   -1.6920   19.0356  -34.9742 H   0  0  0  0  0  0  0  0  0  0  0  0
   -1.5186   21.2068  -33.7598 H   0  0  0  0  0  0  0  0  0  0  0  0
   -4.8105   20.0508  -31.2059 H   0  0  0  0  0  0  0  0  0  0  0  0
  1  2  2  0
  2  3  1  0
  3  4  2  0
  4  5  1  0
  5  6  2  0
  6  7  1  0
  7  8  1  0
  7  9  2  0
  2 10  1  0
 10 11  1  0
 11 12  1  0
 12 13  1  0
 13 14  1  0
 14 15  1  0
 15 16  2  0
 16 17  1  0
 17 18  2  0
 18 19  1  0
 19 20  1  0
 19 21  2  0
  9  3  1  0
 14 10  1  0
 21 15  1  0
  4 22  1  0
  6 23  1  0
  9 24  1  0
 10 25  1  1
 11 26  1  0
 11 27  1  0
 12 28  1  0
 12 29  1  0
 13 30  1  0
 13 31  1  0
 14 32  1  1
 16 33  1  0
 17 34  1  0
 18 35  1  0
 21 36  1  0
M  CHG  1  10   1
M  END
>  <UniqueID>  (26) 
22

>  <SMILES>  (26) 
O=C(c1cncc(Br)c1)[N@H+]1CCC[C@H]1c1cccc(Cl)c1

>  <Energy>  (26) 
51.1201917518957

>  <Genealogy>  (26) 
O=C(c1cncc(Br)c1)[NH+]1CCCC1c1cccc(Cl)c1 (protonated)
O=C(c1cncc(Br)c1)[N@H+]1CCC[C@H]1c1cccc(Cl)c1 (chirality)
O=C(c1cncc(Br)c1)[N@H+]1CCC[C@H]1c1cccc(Cl)c1 (3D coordinates assigned)
O=C(c1cncc(Br)c1)[N@H+]1CCC[C@H]1c1cccc(Cl)c1 (nonaromatic ring conformer: 51.1201917518957 kcal/mol)

>  <smiles>  (26) 
O=C(c1cncc(Br)c1)N1CCCC1c1cccc(Cl)c1

>  <score_type>  (26) 
oracle

>  <origin>  (26) 
adg

>  <m_score__min__energy>  (26) 
-7.4299999999999997

>  <m_primary>  (26) 
energy

$$$$
26:0
     RDKit          3D

 28 29  0  0  0  0  0  0  0  0999 V2000
   -2.3170   20.3190  -31.3710 O   0  0  0  0  0  0  0  0  0  0  0  0
   -2.5710   21.5380  -31.1760 C   0  0  0  0  0  0  0  0  0  0  0  0
   -1.8830   22.2660  -30.0640 C   0  0  0  0  0  0  0  0  0  0  0  0
   -3.0300   22.5470  -28.6730 S   0  0  0  0  0  0  0  0  0  0  0  0
   -4.0730   23.6940  -29.5720 C   0  0  0  0  0  0  0  0  0  0  0  0
   -3.6130   24.5510  -30.5060 N   0  0  0  0  0  0  0  0  0  0  0  0
   -4.5710   25.3090  -31.0370 N   0  0  0  0  0  0  0  0  0  0  0  0
   -5.8000   25.0620  -30.5270 C   0  0  0  0  0  0  0  0  0  0  0  0
   -5.7320   23.8520  -29.3580 S   0  0  0  0  0  0  0  0  0  0  0  0
   -3.5340   22.2180  -31.9930 N   0  0  0  0  0  0  0  0  0  0  0  0
   -4.2420   21.5570  -33.0860 C   0  0  0  0  0  0  0  0  0  0  0  0
   -5.6670   21.2810  -32.6930 C   0  0  0  0  0  0  0  0  0  0  0  0
   -6.2050   19.9880  -32.8100 C   0  0  0  0  0  0  0  0  0  0  0  0
   -7.5370   19.7450  -32.4620 C   0  0  0  0  0  0  0  0  0  0  0  0
   -8.3410   20.7900  -31.9980 C   0  0  0  0  0  0  0  0  0  0  0  0
   -7.8150   22.0800  -31.8840 C   0  0  0  0  0  0  0  0  0  0  0  0
   -6.4840   22.3270  -32.2320 C   0  0  0  0  0  0  0  0  0  0  0  0
   -1.0296   21.6670  -29.7134 H   0  0  0  0  0  0  0  0  0  0  0  0
   -1.5359   23.2400  -30.4394 H   0  0  0  0  0  0  0  0  0  0  0  0
   -6.7194   25.5816  -30.8347 H   0  0  0  0  0  0  0  0  0  0  0  0
   -3.7540   23.2200  -31.7890 H   0  0  0  0  0  0  0  0  0  0  0  0
   -4.2296   22.2080  -33.9726 H   0  0  0  0  0  0  0  0  0  0  0  0
   -3.7419   20.6036  -33.3116 H   0  0  0  0  0  0  0  0  0  0  0  0
   -5.5755   19.1639  -33.1769 H   0  0  0  0  0  0  0  0  0  0  0  0
   -7.9527   18.7307  -32.5534 H   0  0  0  0  0  0  0  0  0  0  0  0
   -9.3883   20.5971  -31.7224 H   0  0  0  0  0  0  0  0  0  0  0  0
   -8.4492   22.9017  -31.5200 H   0  0  0  0  0  0  0  0  0  0  0  0
   -6.0746   23.3442  -32.1446 H   0  0  0  0  0  0  0  0  0  0  0  0
  1  2  2  0
  2  3  1  0
  3  4  1  0
  4  5  1  0
  5  6  2  0
  6  7  1  0
  7  8  2  0
  8  9  1  0
  2 10  1  0
 10 11  1  0
 11 12  1  0
 12 13  2  0
 13 14  1  0
 14 15  2  0
 15 16  1  0
 16 17  2  0
  9  5  1  0
 17 12  1  0
  3 18  1  0
  3 19  1  0
  8 20  1  0
 10 21  1  0
 11 22  1  0
 11 23  1  0
 13 24  1  0
 14 25  1  0
 15 26  1  0
 16 27  1  0
 17 28  1  0
M  END
>  <UniqueID>  (27) 
23

>  <SMILES>  (27) 
O=C(CSc1nncs1)NCc1ccccc1

>  <Energy>  (27) 
54.44908296291138

>  <Genealogy>  (27) 
O=C(CSc1nncs1)NCc1ccccc1 (3D coordinates assigned)
O=C(CSc1nncs1)NCc1ccccc1 (optimized conformer: 54.44908296291138 kcal/mol)

>  <smiles>  (27) 
O=C(CSc1nncs1)NCc1ccccc1

>  <score_type>  (27) 
oracle

>  <origin>  (27) 
adg

>  <m_score__min__energy>  (27) 
-7.1600000000000001

>  <m_primary>  (27) 
energy

$$$$
27:0
     RDKit          3D

 33 35  0  0  0  0  0  0  0  0999 V2000
   -6.2370   25.6870  -29.6010 C   0  0  0  0  0  0  0  0  0  0  0  0
   -5.9360   24.4990  -30.4760 C   0  0  0  0  0  0  0  0  0  0  0  0
   -7.0070   23.7210  -30.9460 C   0  0  0  0  0  0  0  0  0  0  0  0
   -6.7710   22.5790  -31.7140 C   0  0  0  0  0  0  0  0  0  0  0  0
   -5.4630   22.1970  -32.0180 C   0  0  0  0  0  0  0  0  0  0  0  0
   -5.1690   20.7530  -32.9700 Cl  0  0  0  0  0  0  0  0  0  0  0  0
   -4.3890   22.9720  -31.5740 C   0  0  0  0  0  0  0  0  0  0  0  0
   -4.6120   24.1430  -30.8360 C   0  0  0  0  0  0  0  0  0  0  0  0
   -3.4730   24.9240  -30.4470 N   0  0  0  0  0  0  0  0  0  0  0  0
   -2.5510   24.5950  -29.3980 C   0  0  0  0  0  0  0  0  0  0  0  0
   -1.7780   25.4940  -28.9730 O   0  0  0  0  0  0  0  0  0  0  0  0
   -2.5120   23.2470  -28.7770 C   0  0  0  0  0  0  0  0  0  0  0  0
   -1.3990   22.4140  -28.9570 C   0  0  0  0  0  0  0  0  0  0  0  0
   -1.3690   21.1530  -28.3580 C   0  0  0  0  0  0  0  0  0  0  0  0
   -0.2670   20.2960  -28.5040 C   0  0  0  0  0  0  0  0  0  0  0  0
   -0.2760   19.0400  -27.8880 C   0  0  0  0  0  0  0  0  0  0  0  0
   -1.3800   18.6350  -27.1310 C   0  0  0  0  0  0  0  0  0  0  0  0
   -2.4820   19.4840  -26.9840 C   0  0  0  0  0  0  0  0  0  0  0  0
   -2.4830   20.7440  -27.5950 C   0  0  0  0  0  0  0  0  0  0  0  0
   -3.5310   21.5480  -27.4560 O   0  0  0  0  0  0  0  0  0  0  0  0
   -3.5890   22.7570  -28.0080 C   0  0  0  0  0  0  0  0  0  0  0  0
   -4.6140   23.4640  -27.8170 O   0  0  0  0  0  0  0  0  0  0  0  0
   -6.1623   25.3921  -28.5439 H   0  0  0  0  0  0  0  0  0  0  0  0
   -5.5137   26.4889  -29.8100 H   0  0  0  0  0  0  0  0  0  0  0  0
   -7.2549   26.0478  -29.8100 H   0  0  0  0  0  0  0  0  0  0  0  0
   -8.0400   24.0138  -30.7071 H   0  0  0  0  0  0  0  0  0  0  0  0
   -7.6172   21.9792  -32.0802 H   0  0  0  0  0  0  0  0  0  0  0  0
   -3.3596   22.6609  -31.8053 H   0  0  0  0  0  0  0  0  0  0  0  0
   -0.5504   22.7532  -29.5693 H   0  0  0  0  0  0  0  0  0  0  0  0
    0.6014   20.6111  -29.1012 H   0  0  0  0  0  0  0  0  0  0  0  0
    0.5882   18.3687  -27.9994 H   0  0  0  0  0  0  0  0  0  0  0  0
   -1.3818   17.6459  -26.6497 H   0  0  0  0  0  0  0  0  0  0  0  0
   -3.3485   19.1616  -26.3880 H   0  0  0  0  0  0  0  0  0  0  0  0
  1  2  1  0
  2  3  2  0
  3  4  1  0
  4  5  2  0
  5  6  1  0
  5  7  1  0
  7  8  2  0
  8  9  1  0
  9 10  1  0
 10 11  2  0
 10 12  1  0
 12 13  2  0
 13 14  1  0
 14 15  2  0
 15 16  1  0
 16 17  2  0
 17 18  1  0
 18 19  2  0
 19 20  1  0
 20 21  1  0
 21 22  2  0
  8  2  1  0
 21 12  1  0
 19 14  1  0
  1 23  1  0
  1 24  1  0
  1 25  1  0
  3 26  1  0
  4 27  1  0
  7 28  1  0
 13 29  1  0
 15 30  1  0
 16 31  1  0
 17 32  1  0
 18 33  1  0
M  CHG  1   9  -1
M  END
>  <UniqueID>  (28) 
24

>  <SMILES>  (28) 
Cc1ccc(Cl)cc1[N-]C(=O)c1cc2ccccc2oc1=O

>  <Energy>  (28) 
50.13284170283888

>  <Genealogy>  (28) 
Cc1ccc(Cl)cc1[N-]C(=O)c1cc2ccccc2oc1=O (protonated)
Cc1ccc(Cl)cc1[N-]C(=O)c1cc2ccccc2oc1=O (3D coordinates assigned)
Cc1ccc(Cl)cc1[N-]C(=O)c1cc2ccccc2oc1=O (optimized conformer: 50.13284170283888 kcal/mol)

>  <smiles>  (28) 
Cc1ccc(Cl)cc1NC(=O)c1cc2ccccc2oc1=O

>  <score_type>  (28) 
oracle

>  <origin>  (28) 
adg

>  <m_score__min__energy>  (28) 
-9.7699999999999996

>  <m_primary>  (28) 
energy

$$$$
28:0
     RDKit          3D

 62 64  0  0  0  0  0  0  0  0999 V2000
   -6.1880   14.8340  -34.1830 C   0  0  0  0  0  0  0  0  0  0  0  0
   -5.0940   14.5270  -33.1640 C   0  0  0  0  0  0  0  0  0  0  0  0
   -4.5600   15.8120  -32.5230 C   0  0  0  0  0  0  0  0  0  0  0  0
   -5.7020   16.6600  -31.9460 C   0  0  0  0  0  0  0  0  0  0  0  0
   -6.1710   17.6510  -32.9310 N   0  0  0  0  0  0  0  0  0  0  0  0
   -7.6170   17.9490  -32.9820 C   0  0  0  0  0  0  0  0  0  0  0  0
   -8.1200   18.5920  -31.6780 C   0  0  0  0  0  0  0  0  0  0  0  0
   -8.1140   20.0990  -31.7290 C   0  0  0  0  0  0  0  0  0  0  0  0
   -6.9140   20.8120  -31.5650 C   0  0  0  0  0  0  0  0  0  0  0  0
   -6.9200   22.2110  -31.5740 C   0  0  0  0  0  0  0  0  0  0  0  0
   -8.1160   22.9060  -31.7620 C   0  0  0  0  0  0  0  0  0  0  0  0
   -9.3110   22.2050  -31.9480 C   0  0  0  0  0  0  0  0  0  0  0  0
   -9.3120   20.8060  -31.9360 C   0  0  0  0  0  0  0  0  0  0  0  0
   -5.2450   18.4870  -33.6750 C   0  0  0  0  0  0  0  0  0  0  0  0
   -5.2360   18.4140  -34.9350 O   0  0  0  0  0  0  0  0  0  0  0  0
   -4.2930   19.4640  -32.9910 C   0  0  0  0  0  0  0  0  0  0  0  0
   -4.4060   20.8830  -33.5820 C   0  0  0  0  0  0  0  0  0  0  0  0
   -3.4810   21.8720  -32.8440 C   0  0  0  0  0  0  0  0  0  0  0  0
   -2.1590   21.3050  -32.4670 N   0  0  0  0  0  0  0  0  0  0  0  0
   -2.0170   21.0920  -31.0100 C   0  0  0  0  0  0  0  0  0  0  0  0
   -2.2740   22.3790  -30.2700 C   0  0  0  0  0  0  0  0  0  0  0  0
   -1.2180   23.0340  -29.6170 C   0  0  0  0  0  0  0  0  0  0  0  0
   -1.4440   24.2380  -28.9430 C   0  0  0  0  0  0  0  0  0  0  0  0
   -2.7250   24.7960  -28.9170 C   0  0  0  0  0  0  0  0  0  0  0  0
   -3.7830   24.1510  -29.5670 C   0  0  0  0  0  0  0  0  0  0  0  0
   -5.5310   24.9200  -29.5390 Br  0  0  0  0  0  0  0  0  0  0  0  0
   -3.5600   22.9450  -30.2420 C   0  0  0  0  0  0  0  0  0  0  0  0
   -1.8030   20.0990  -33.2420 C   0  0  0  0  0  0  0  0  0  0  0  0
   -2.8270   18.9650  -33.0510 C   0  0  0  0  0  0  0  0  0  0  0  0
   -7.1175   15.0948  -33.6557 H   0  0  0  0  0  0  0  0  0  0  0  0
   -5.8748   15.6790  -34.8138 H   0  0  0  0  0  0  0  0  0  0  0  0
   -6.3602   13.9495  -34.8138 H   0  0  0  0  0  0  0  0  0  0  0  0
   -5.5074   13.8784  -32.3777 H   0  0  0  0  0  0  0  0  0  0  0  0
   -4.2643   14.0250  -33.6832 H   0  0  0  0  0  0  0  0  0  0  0  0
   -3.8650   15.5468  -31.7126 H   0  0  0  0  0  0  0  0  0  0  0  0
   -4.0460   16.4003  -33.2974 H   0  0  0  0  0  0  0  0  0  0  0  0
   -6.5384   15.9998  -31.6732 H   0  0  0  0  0  0  0  0  0  0  0  0
   -5.3295   17.1946  -31.0598 H   0  0  0  0  0  0  0  0  0  0  0  0
   -7.8077   18.6409  -33.8156 H   0  0  0  0  0  0  0  0  0  0  0  0
   -8.1545   16.9995  -33.1216 H   0  0  0  0  0  0  0  0  0  0  0  0
   -9.1491   18.2508  -31.4921 H   0  0  0  0  0  0  0  0  0  0  0  0
   -7.4365   18.2853  -30.8726 H   0  0  0  0  0  0  0  0  0  0  0  0
   -5.9673   20.2685  -31.4292 H   0  0  0  0  0  0  0  0  0  0  0  0
   -5.9801   22.7646  -31.4326 H   0  0  0  0  0  0  0  0  0  0  0  0
   -8.1181   24.0060  -31.7638 H   0  0  0  0  0  0  0  0  0  0  0  0
  -10.2515   22.7538  -32.1039 H   0  0  0  0  0  0  0  0  0  0  0  0
  -10.2530   20.2572  -32.0890 H   0  0  0  0  0  0  0  0  0  0  0  0
   -4.5950   19.5145  -31.9345 H   0  0  0  0  0  0  0  0  0  0  0  0
   -4.1231   20.8523  -34.6445 H   0  0  0  0  0  0  0  0  0  0  0  0
   -5.4447   21.2260  -33.4659 H   0  0  0  0  0  0  0  0  0  0  0  0
   -3.3103   22.7390  -33.4991 H   0  0  0  0  0  0  0  0  0  0  0  0
   -3.9891   22.1399  -31.9059 H   0  0  0  0  0  0  0  0  0  0  0  0
   -2.7417   20.3326  -30.6812 H   0  0  0  0  0  0  0  0  0  0  0  0
   -0.9935   20.7515  -30.7945 H   0  0  0  0  0  0  0  0  0  0  0  0
   -0.2082   22.5981  -29.6356 H   0  0  0  0  0  0  0  0  0  0  0  0
   -0.6127   24.7465  -28.4327 H   0  0  0  0  0  0  0  0  0  0  0  0
   -2.9016   25.7426  -28.3853 H   0  0  0  0  0  0  0  0  0  0  0  0
   -4.3933   22.4392  -30.7517 H   0  0  0  0  0  0  0  0  0  0  0  0
   -1.7606   20.3627  -34.3091 H   0  0  0  0  0  0  0  0  0  0  0  0
   -0.8281   19.7396  -32.8809 H   0  0  0  0  0  0  0  0  0  0  0  0
   -2.7315   18.2634  -33.8928 H   0  0  0  0  0  0  0  0  0  0  0  0
   -2.6065   18.4873  -32.0850 H   0  0  0  0  0  0  0  0  0  0  0  0
  1  2  1  0
  2  3  1  0
  3  4  1  0
  4  5  1  0
  5  6  1  0
  6  7  1  0
  7  8  1  0
  8  9  2  0
  9 10  1  0
 10 11  2  0
 11 12  1  0
 12 13  2  0
  5 14  1  0
 14 15  2  0
 14 16  1  0
 16 17  1  0
 17 18  1  0
 18 19  1  0
 19 20  1  0
 20 21  1  0
 21 22  2  0
 22 23  1  0
 23 24  2  0
 24 25  1  0
 25 26  1  0
 25 27  2  0
 19 28  1  0
 28 29  1  0
 13  8  1  0
 29 16  1  0
 27 21  1  0
  1 30  1  0
  1 31  1  0
  1 32  1  0
  2 33  1  0
  2 34  1  0
  3 35  1  0
  3 36  1  0
  4 37  1  0
  4 38  1  0
  6 39  1  0
  6 40  1  0
  7 41  1  0
  7 42  1  0
  9 43  1  0
 10 44  1  0
 11 45  1  0
 12 46  1  0
 13 47  1  0
 16 48  1  0
 17 49  1  0
 17 50  1  0
 18 51  1  0
 18 52  1  0
 20 53  1  0
 20 54  1  0
 22 55  1  0
 23 56  1  0
 24 57  1  0
 27 58  1  0
 28 59  1  0
 28 60  1  0
 29 61  1  0
 29 62  1  0
M  END
>  <UniqueID>  (29) 
25

>  <SMILES>  (29) 
CCCCN(CCc1ccccc1)C(=O)C1CCN(Cc2cccc(Br)c2)CC1

>  <Energy>  (29) 
62.3580133646234

>  <Genealogy>  (29) 
CCCCN(CCc1ccccc1)C(=O)C1CCN(Cc2cccc(Br)c2)CC1 (3D coordinates assigned)
CCCCN(CCc1ccccc1)C(=O)C1CCN(Cc2cccc(Br)c2)CC1 (nonaromatic ring conformer: 62.3580133646234 kcal/mol)

>  <smiles>  (29) 
CCCCN(CCc1ccccc1)C(=O)C1CCN(Cc2cccc(Br)c2)CC1

>  <score_type>  (29) 
oracle

>  <origin>  (29) 
adg

>  <m_score__min__energy>  (29) 
-10.01

>  <m_primary>  (29) 
energy

$$$$
29:0
     RDKit          3D

 33 34  0  0  0  0  0  0  0  0999 V2000
   -0.1070   18.2270  -28.0730 C   0  0  0  0  0  0  0  0  0  0  0  0
   -0.3420   19.0730  -29.1940 O   0  0  0  0  0  0  0  0  0  0  0  0
   -0.8620   20.3730  -29.1080 C   0  0  0  0  0  0  0  0  0  0  0  0
   -0.6990   21.2290  -30.2050 C   0  0  0  0  0  0  0  0  0  0  0  0
   -1.2010   22.5320  -30.1690 C   0  0  0  0  0  0  0  0  0  0  0  0
   -1.8760   22.9960  -29.0340 C   0  0  0  0  0  0  0  0  0  0  0  0
   -2.5200   24.6350  -29.0000 S   0  0  0  0  0  0  0  0  0  0  0  0
   -1.3740   25.6060  -28.9850 O   0  0  0  0  0  0  0  0  0  0  0  0
   -3.3630   24.8510  -27.7750 O   0  0  0  0  0  0  0  0  0  0  0  0
   -3.4870   24.9220  -30.4100 N   0  0  0  0  0  0  0  0  0  0  0  0
   -4.5920   24.1120  -30.8430 C   0  0  0  0  0  0  0  0  0  0  0  0
   -4.3950   22.9540  -31.6210 C   0  0  0  0  0  0  0  0  0  0  0  0
   -5.4860   22.1860  -32.0360 C   0  0  0  0  0  0  0  0  0  0  0  0
   -5.2840   21.0740  -32.7850 F   0  0  0  0  0  0  0  0  0  0  0  0
   -6.7810   22.5610  -31.6800 C   0  0  0  0  0  0  0  0  0  0  0  0
   -6.9920   23.7050  -30.9080 C   0  0  0  0  0  0  0  0  0  0  0  0
   -5.9040   24.4860  -30.4830 C   0  0  0  0  0  0  0  0  0  0  0  0
   -6.1450   25.7180  -29.6540 C   0  0  0  0  0  0  0  0  0  0  0  0
   -2.0390   22.1480  -27.9310 C   0  0  0  0  0  0  0  0  0  0  0  0
   -1.5360   20.8440  -27.9650 C   0  0  0  0  0  0  0  0  0  0  0  0
   -0.2650   18.7958  -27.1448 H   0  0  0  0  0  0  0  0  0  0  0  0
   -0.8026   17.3754  -28.1041 H   0  0  0  0  0  0  0  0  0  0  0  0
    0.9282   17.8562  -28.1041 H   0  0  0  0  0  0  0  0  0  0  0  0
   -0.1715   20.8721  -31.1019 H   0  0  0  0  0  0  0  0  0  0  0  0
   -1.0654   23.1958  -31.0356 H   0  0  0  0  0  0  0  0  0  0  0  0
   -3.3756   22.6525  -31.9036 H   0  0  0  0  0  0  0  0  0  0  0  0
   -7.6380   21.9543  -32.0080 H   0  0  0  0  0  0  0  0  0  0  0  0
   -8.0158   23.9966  -30.6309 H   0  0  0  0  0  0  0  0  0  0  0  0
   -6.0940   25.4574  -28.5865 H   0  0  0  0  0  0  0  0  0  0  0  0
   -5.3772   26.4711  -29.8847 H   0  0  0  0  0  0  0  0  0  0  0  0
   -7.1400   26.1263  -29.8847 H   0  0  0  0  0  0  0  0  0  0  0  0
   -2.5647   22.5094  -27.0349 H   0  0  0  0  0  0  0  0  0  0  0  0
   -1.6673   20.1833  -27.0954 H   0  0  0  0  0  0  0  0  0  0  0  0
  1  2  1  0
  2  3  1  0
  3  4  2  0
  4  5  1  0
  5  6  2  0
  6  7  1  0
  7  8  2  0
  7  9  2  0
  7 10  1  0
 10 11  1  0
 11 12  2  0
 12 13  1  0
 13 14  1  0
 13 15  2  0
 15 16  1  0
 16 17  2  0
 17 18  1  0
  6 19  1  0
 19 20  2  0
 20  3  1  0
 17 11  1  0
  1 21  1  0
  1 22  1  0
  1 23  1  0
  4 24  1  0
  5 25  1  0
 12 26  1  0
 15 27  1  0
 16 28  1  0
 18 29  1  0
 18 30  1  0
 18 31  1  0
 19 32  1  0
 20 33  1  0
M  CHG  1  10  -1
M  END
>  <UniqueID>  (30) 
26

>  <SMILES>  (30) 
COc1ccc(S(=O)(=O)[N-]c2cc(F)ccc2C)cc1

>  <Energy>  (30) 
35.84657235613893

>  <Genealogy>  (30) 
COc1ccc(S(=O)(=O)[N-]c2cc(F)ccc2C)cc1 (protonated)
COc1ccc(S(=O)(=O)[N-]c2cc(F)ccc2C)cc1 (3D coordinates assigned)
COc1ccc(S(=O)(=O)[N-]c2cc(F)ccc2C)cc1 (optimized conformer: 35.84657235613893 kcal/mol)

>  <smiles>  (30) 
COc1ccc(S(=O)(=O)Nc2cc(F)ccc2C)cc1

>  <score_type>  (30) 
oracle

>  <origin>  (30) 
adg

>  <m_score__min__energy>  (30) 
-7.8200000000000003

>  <m_primary>  (30) 
energy

$$$$
30:0
     RDKit          3D

 47 48  0  0  0  0  0  0  0  0999 V2000
   -6.9060   24.3550  -29.7980 C   0  0  0  0  0  0  0  0  0  0  0  0
   -5.4510   24.2790  -29.3250 C   0  0  0  0  0  0  0  0  0  0  0  0
   -4.3870   24.2540  -30.4580 C   0  0  2  0  0  0  0  0  0  0  0  0
   -4.8190   23.2920  -31.5980 C   0  0  0  0  0  0  0  0  0  0  0  0
   -4.8820   21.7980  -31.2160 C   0  0  1  0  0  0  0  0  0  0  0  0
   -5.5920   20.9080  -32.2170 C   0  0  0  0  0  0  0  0  0  0  0  0
   -4.9230   20.3220  -33.1100 O   0  0  0  0  0  0  0  0  0  0  0  0
   -7.0090   20.6560  -32.1250 N   0  0  0  0  0  0  0  0  0  0  0  0
   -7.9740   21.6310  -31.6480 C   0  0  0  0  0  0  0  0  0  0  0  0
   -9.3460   21.0740  -32.0020 C   0  0  0  0  0  0  0  0  0  0  0  0
   -9.1340   19.6030  -32.3500 C   0  0  0  0  0  0  0  0  0  0  0  0
   -7.6390   19.4480  -32.6470 C   0  0  2  0  0  0  0  0  0  0  0  0
   -7.0660   18.1900  -31.9830 C   0  0  0  0  0  0  0  0  0  0  0  0
   -3.5590   21.2580  -30.8870 N   0  0  0  0  0  0  0  0  0  0  0  0
   -2.7310   21.5340  -29.7460 C   0  0  0  0  0  0  0  0  0  0  0  0
   -2.0200   20.6030  -29.2860 O   0  0  0  0  0  0  0  0  0  0  0  0
   -2.7460   22.8540  -29.0200 C   0  0  0  0  0  0  0  0  0  0  0  0
   -2.9130   24.0540  -29.9750 C   0  0  2  0  0  0  0  0  0  0  0  0
   -2.4040   25.2750  -29.3460 N   0  0  0  0  0  0  0  0  0  0  0  0
   -1.4840   25.3220  -28.2460 C   0  0  0  0  0  0  0  0  0  0  0  0
   -1.9530   25.4520  -26.8280 C   0  0  0  0  0  0  0  0  0  0  0  0
   -0.2520   25.2150  -28.4800 O   0  0  0  0  0  0  0  0  0  0  0  0
   -7.5741   24.3899  -28.9248 H   0  0  0  0  0  0  0  0  0  0  0  0
   -7.0475   25.2618  -30.4044 H   0  0  0  0  0  0  0  0  0  0  0  0
   -7.1412   23.4679  -30.4044 H   0  0  0  0  0  0  0  0  0  0  0  0
   -5.2529   25.1562  -28.6915 H   0  0  0  0  0  0  0  0  0  0  0  0
   -5.3527   23.3213  -28.7929 H   0  0  0  0  0  0  0  0  0  0  0  0
   -4.3590   25.2696  -30.8797 H   0  0  0  0  0  0  0  0  0  0  0  0
   -5.8192   23.5975  -31.9389 H   0  0  0  0  0  0  0  0  0  0  0  0
   -4.0432   23.3738  -32.3735 H   0  0  0  0  0  0  0  0  0  0  0  0
   -5.5095   21.7812  -30.3127 H   0  0  0  0  0  0  0  0  0  0  0  0
   -7.8826   21.7577  -30.5591 H   0  0  0  0  0  0  0  0  0  0  0  0
   -7.8097   22.6172  -32.1068 H   0  0  0  0  0  0  0  0  0  0  0  0
  -10.0282   21.1680  -31.1442 H   0  0  0  0  0  0  0  0  0  0  0  0
   -9.7959   21.6230  -32.8424 H   0  0  0  0  0  0  0  0  0  0  0  0
   -9.4230   18.9646  -31.5021 H   0  0  0  0  0  0  0  0  0  0  0  0
   -9.7483   19.3011  -33.2111 H   0  0  0  0  0  0  0  0  0  0  0  0
   -7.4526   19.3289  -33.7245 H   0  0  0  0  0  0  0  0  0  0  0  0
   -7.1151   18.2979  -30.8894 H   0  0  0  0  0  0  0  0  0  0  0  0
   -7.6533   17.3126  -32.2917 H   0  0  0  0  0  0  0  0  0  0  0  0
   -6.0186   18.0572  -32.2917 H   0  0  0  0  0  0  0  0  0  0  0  0
   -3.5821   22.8535  -28.3052 H   0  0  0  0  0  0  0  0  0  0  0  0
   -1.7773   22.9654  -28.5109 H   0  0  0  0  0  0  0  0  0  0  0  0
   -2.3209   23.8307  -30.8747 H   0  0  0  0  0  0  0  0  0  0  0  0
   -1.1224   25.2218  -26.1445 H   0  0  0  0  0  0  0  0  0  0  0  0
   -2.3004   26.4803  -26.6495 H   0  0  0  0  0  0  0  0  0  0  0  0
   -2.7803   24.7493  -26.6495 H   0  0  0  0  0  0  0  0  0  0  0  0
  1  2  1  0
  2  3  1  0
  3  4  1  0
  4  5  1  0
  5  6  1  0
  6  7  2  0
  6  8  1  0
  8  9  1  0
  9 10  1  0
 10 11  1  0
 11 12  1  0
 12 13  1  0
  5 14  1  0
 14 15  1  0
 15 16  2  0
 15 17  1  0
 17 18  1  0
 18 19  1  0
 19 20  1  0
 20 21  1  0
 20 22  2  0
 18  3  1  0
 12  8  1  0
  1 23  1  0
  1 24  1  0
  1 25  1  0
  2 26  1  0
  2 27  1  0
  3 28  1  6
  4 29  1  0
  4 30  1  0
  5 31  1  1
  9 32  1  0
  9 33  1  0
 10 34  1  0
 10 35  1  0
 11 36  1  0
 11 37  1  0
 12 38  1  6
 13 39  1  0
 13 40  1  0
 13 41  1  0
 17 42  1  0
 17 43  1  0
 18 44  1  6
 21 45  1  0
 21 46  1  0
 21 47  1  0
M  CHG  2  14  -1  19  -1
M  END
>  <UniqueID>  (31) 
27

>  <SMILES>  (31) 
CC[C@@H]1C[C@@H](C(=O)N2CCCC2C)[N-]C(=O)CC1[N-]C(C)=O

>  <Energy>  (31) 
50.06889288279462

>  <Genealogy>  (31) 
CCC1CC(C(=O)N2CCCC2C)[N-]C(=O)CC1[N-]C(C)=O (protonated)
CC[C@@H]1C[C@@H](C(=O)N2CCCC2C)[N-]C(=O)CC1[N-]C(C)=O (chirality)
CC[C@@H]1C[C@@H](C(=O)N2CCCC2C)[N-]C(=O)CC1[N-]C(C)=O (3D coordinates assigned)
CC[C@@H]1C[C@@H](C(=O)N2CCCC2C)[N-]C(=O)CC1[N-]C(C)=O (nonaromatic ring conformer: 50.06889288279462 kcal/mol)

>  <smiles>  (31) 
CCC1CC(C(=O)N2CCCC2C)NC(=O)CC1NC(C)=O

>  <score_type>  (31) 
oracle

>  <origin>  (31) 
adg

>  <m_score__min__energy>  (31) 
-8.1500000000000004

>  <m_primary>  (31) 
energy

$$$$
31:0
     RDKit          3D

 56 59  0  0  0  0  0  0  0  0999 V2000
    3.3850   21.7730  -36.0380 C   0  0  0  0  0  0  0  0  0  0  0  0
    2.6640   22.8860  -35.2810 C   0  0  0  0  0  0  0  0  0  0  0  0
    1.2820   22.4810  -34.9490 N   0  0  0  0  0  0  0  0  0  0  0  0
    0.2720   23.2050  -35.7620 C   0  0  0  0  0  0  0  0  0  0  0  0
    0.7860   24.6010  -36.0910 C   0  0  0  0  0  0  0  0  0  0  0  0
    1.0350   21.0100  -34.9250 C   0  0  0  0  0  0  0  0  0  0  0  0
    1.3090   20.3290  -33.5490 C   0  0  0  0  0  0  0  0  0  0  0  0
    0.0680   20.1680  -32.6660 C   0  0  0  0  0  0  0  0  0  0  0  0
   -1.0360   19.6240  -33.4540 N   0  0  0  0  0  0  0  0  0  0  0  0
   -1.3820   18.2310  -33.3520 C   0  0  0  0  0  0  0  0  0  0  0  0
   -0.4730   17.3770  -33.1680 O   0  0  0  0  0  0  0  0  0  0  0  0
   -2.7840   17.7770  -33.4500 C   0  0  0  0  0  0  0  0  0  0  0  0
   -3.7830   18.6220  -33.0820 N   0  0  0  0  0  0  0  0  0  0  0  0
   -5.0940   18.2650  -33.1620 C   0  0  0  0  0  0  0  0  0  0  0  0
   -6.1380   19.2310  -32.7330 C   0  0  0  0  0  0  0  0  0  0  0  0
   -7.3440   18.7920  -32.1140 C   0  0  0  0  0  0  0  0  0  0  0  0
   -8.3300   19.7140  -31.7210 C   0  0  0  0  0  0  0  0  0  0  0  0
   -8.0920   21.0630  -31.9600 C   0  0  0  0  0  0  0  0  0  0  0  0
   -8.8630   22.1720  -31.6890 C   0  0  0  0  0  0  0  0  0  0  0  0
   -8.1190   23.2530  -32.1510 C   0  0  0  0  0  0  0  0  0  0  0  0
   -6.9470   22.8360  -32.6830 N   0  0  0  0  0  0  0  0  0  0  0  0
   -6.9440   21.4980  -32.5600 C   0  0  0  0  0  0  0  0  0  0  0  0
   -5.9450   20.6140  -32.9650 C   0  0  0  0  0  0  0  0  0  0  0  0
   -5.4170   16.9820  -33.6290 C   0  0  0  0  0  0  0  0  0  0  0  0
   -4.3850   16.1300  -34.0170 C   0  0  0  0  0  0  0  0  0  0  0  0
   -3.0920   16.5380  -33.9310 N   0  0  0  0  0  0  0  0  0  0  0  0
   -1.4860   20.4170  -34.6000 C   0  0  0  0  0  0  0  0  0  0  0  0
   -0.3240   20.6330  -35.5780 C   0  0  0  0  0  0  0  0  0  0  0  0
    3.8377   21.0742  -35.3191 H   0  0  0  0  0  0  0  0  0  0  0  0
    2.6646   21.2332  -36.6701 H   0  0  0  0  0  0  0  0  0  0  0  0
    4.1722   22.2098  -36.6701 H   0  0  0  0  0  0  0  0  0  0  0  0
    3.2101   23.1028  -34.3511 H   0  0  0  0  0  0  0  0  0  0  0  0
    2.6268   23.7813  -35.9190 H   0  0  0  0  0  0  0  0  0  0  0  0
    0.0894   22.6527  -36.6956 H   0  0  0  0  0  0  0  0  0  0  0  0
   -0.6656   23.2858  -35.1925 H   0  0  0  0  0  0  0  0  0  0  0  0
    0.9871   25.1471  -35.1576 H   0  0  0  0  0  0  0  0  0  0  0  0
    1.7138   24.5216  -36.6765 H   0  0  0  0  0  0  0  0  0  0  0  0
    0.0282   25.1422  -36.6765 H   0  0  0  0  0  0  0  0  0  0  0  0
    1.8068   20.5658  -35.5707 H   0  0  0  0  0  0  0  0  0  0  0  0
    1.7298   19.3302  -33.7369 H   0  0  0  0  0  0  0  0  0  0  0  0
    1.9997   20.9888  -33.0035 H   0  0  0  0  0  0  0  0  0  0  0  0
    0.2968   19.4824  -31.8368 H   0  0  0  0  0  0  0  0  0  0  0  0
   -0.2222   21.1509  -32.2665 H   0  0  0  0  0  0  0  0  0  0  0  0
   -7.5057   17.7177  -31.9414 H   0  0  0  0  0  0  0  0  0  0  0  0
   -9.2605   19.3787  -31.2396 H   0  0  0  0  0  0  0  0  0  0  0  0
   -9.8532   22.1974  -31.2106 H   0  0  0  0  0  0  0  0  0  0  0  0
   -8.4399   24.3035  -32.0918 H   0  0  0  0  0  0  0  0  0  0  0  0
   -6.2010   23.4350  -33.1000 H   0  0  0  0  0  0  0  0  0  0  0  0
   -5.0301   20.9818  -33.4524 H   0  0  0  0  0  0  0  0  0  0  0  0
   -6.4656   16.6548  -33.6877 H   0  0  0  0  0  0  0  0  0  0  0  0
   -4.6180   15.1234  -34.3943 H   0  0  0  0  0  0  0  0  0  0  0  0
   -2.3410   15.8880  -34.2520 H   0  0  0  0  0  0  0  0  0  0  0  0
   -2.3003   19.8850  -35.1137 H   0  0  0  0  0  0  0  0  0  0  0  0
   -1.8445   21.3942  -34.2442 H   0  0  0  0  0  0  0  0  0  0  0  0
   -0.1809   19.7020  -36.1461 H   0  0  0  0  0  0  0  0  0  0  0  0
   -0.6091   21.4924  -36.2026 H   0  0  0  0  0  0  0  0  0  0  0  0
  1  2  1  0
  2  3  1  0
  3  4  1  0
  4  5  1  0
  3  6  1  0
  6  7  1  0
  7  8  1  0
  8  9  1  0
  9 10  1  0
 10 11  2  0
 10 12  1  0
 12 13  2  0
 13 14  1  0
 14 15  1  0
 15 16  2  0
 16 17  1  0
 17 18  2  0
 18 19  1  0
 19 20  2  0
 20 21  1  0
 21 22  1  0
 22 23  2  0
 14 24  2  0
 24 25  1  0
 25 26  2  0
  9 27  1  0
 27 28  1  0
 28  6  1  0
 26 12  1  0
 23 15  1  0
 22 18  1  0
  1 29  1  0
  1 30  1  0
  1 31  1  0
  2 32  1  0
  2 33  1  0
  4 34  1  0
  4 35  1  0
  5 36  1  0
  5 37  1  0
  5 38  1  0
  6 39  1  0
  7 40  1  0
  7 41  1  0
  8 42  1  0
  8 43  1  0
 16 44  1  0
 17 45  1  0
 19 46  1  0
 20 47  1  0
 21 48  1  0
 23 49  1  0
 24 50  1  0
 25 51  1  0
 26 52  1  0
 27 53  1  0
 27 54  1  0
 28 55  1  0
 28 56  1  0
M  CHG  1  26   1
M  END
>  <UniqueID>  (32) 
28

>  <SMILES>  (32) 
CCN(CC)C1CCN(C(=O)c2nc(-c3ccc4cc[nH]c4c3)cc[nH+]2)CC1

>  <Energy>  (32) 
106.40297700439771

>  <Genealogy>  (32) 
CCN(CC)C1CCN(C(=O)c2nc(-c3ccc4cc[nH]c4c3)cc[nH+]2)CC1 (protonated)
CCN(CC)C1CCN(C(=O)c2nc(-c3ccc4cc[nH]c4c3)cc[nH+]2)CC1 (3D coordinates assigned)
CCN(CC)C1CCN(C(=O)c2nc(-c3ccc4cc[nH]c4c3)cc[nH+]2)CC1 (nonaromatic ring conformer: 106.40297700439771 kcal/mol)

>  <smiles>  (32) 
CCN(CC)C1CCN(C(=O)c2nccc(-c3ccc4cc[nH]c4c3)n2)CC1

>  <score_type>  (32) 
oracle

>  <origin>  (32) 
adg

>  <m_score__min__energy>  (32) 
-9.1300000000000008

>  <m_primary>  (32) 
energy

$$$$
32:0
     RDKit          3D

 49 52  0  0  0  0  0  0  0  0999 V2000
   -1.2570   26.0020  -28.4470 C   0  0  0  0  0  0  0  0  0  0  0  0
   -1.9820   25.1600  -29.3380 O   0  0  0  0  0  0  0  0  0  0  0  0
   -1.9190   23.7570  -29.3360 C   0  0  0  0  0  0  0  0  0  0  0  0
   -0.8120   23.0620  -28.8070 C   0  0  0  0  0  0  0  0  0  0  0  0
   -0.7700   21.6660  -28.8440 C   0  0  0  0  0  0  0  0  0  0  0  0
   -1.8260   20.9490  -29.4040 C   0  0  0  0  0  0  0  0  0  0  0  0
   -2.9310   21.6230  -29.9270 C   0  0  0  0  0  0  0  0  0  0  0  0
   -2.9890   23.0250  -29.8930 C   0  0  0  0  0  0  0  0  0  0  0  0
   -4.1410   23.6990  -30.4290 N   0  0  0  0  0  0  0  0  0  0  0  0
   -4.5700   24.9900  -29.8810 C   0  0  0  0  0  0  0  0  0  0  0  0
   -6.1070   25.0690  -29.7570 C   0  0  0  0  0  0  0  0  0  0  0  0
   -6.8450   24.1730  -30.6850 N   0  0  0  0  0  0  0  0  0  0  0  0
   -7.3040   22.9400  -30.0060 C   0  0  0  0  0  0  0  0  0  0  0  0
   -7.6000   21.8480  -30.9890 C   0  0  0  0  0  0  0  0  0  0  0  0
   -8.7570   21.7070  -31.7190 C   0  0  0  0  0  0  0  0  0  0  0  0
   -8.6050   20.6600  -32.4910 O   0  0  0  0  0  0  0  0  0  0  0  0
   -7.4030   20.1730  -32.2600 C   0  0  0  0  0  0  0  0  0  0  0  0
   -6.8540   18.9870  -32.9450 C   0  0  0  0  0  0  0  0  0  0  0  0
   -7.4010   17.7110  -32.7190 C   0  0  0  0  0  0  0  0  0  0  0  0
   -6.8740   16.5920  -33.3710 C   0  0  0  0  0  0  0  0  0  0  0  0
   -5.8000   16.7340  -34.2520 C   0  0  0  0  0  0  0  0  0  0  0  0
   -5.2480   17.9970  -34.4820 C   0  0  0  0  0  0  0  0  0  0  0  0
   -4.2050   18.1340  -35.3370 F   0  0  0  0  0  0  0  0  0  0  0  0
   -5.7720   19.1200  -33.8320 C   0  0  0  0  0  0  0  0  0  0  0  0
   -6.7270   20.8810  -31.3280 N   0  0  0  0  0  0  0  0  0  0  0  0
   -6.0870   23.9170  -31.9310 C   0  0  0  0  0  0  0  0  0  0  0  0
   -4.7670   23.1880  -31.6520 C   0  0  0  0  0  0  0  0  0  0  0  0
   -1.4937   25.7271  -27.4085 H   0  0  0  0  0  0  0  0  0  0  0  0
   -0.1781   25.8786  -28.6222 H   0  0  0  0  0  0  0  0  0  0  0  0
   -1.5393   27.0506  -28.6222 H   0  0  0  0  0  0  0  0  0  0  0  0
    0.0237   23.6224  -28.3625 H   0  0  0  0  0  0  0  0  0  0  0  0
    0.0981   21.1317  -28.4304 H   0  0  0  0  0  0  0  0  0  0  0  0
   -1.7886   19.8500  -29.4339 H   0  0  0  0  0  0  0  0  0  0  0  0
   -3.7611   21.0520  -30.3684 H   0  0  0  0  0  0  0  0  0  0  0  0
   -4.1237   25.1213  -28.8842 H   0  0  0  0  0  0  0  0  0  0  0  0
   -4.2376   25.7836  -30.5663 H   0  0  0  0  0  0  0  0  0  0  0  0
   -6.3832   24.8000  -28.7268 H   0  0  0  0  0  0  0  0  0  0  0  0
   -6.3907   26.0981  -30.0225 H   0  0  0  0  0  0  0  0  0  0  0  0
   -6.5175   22.5974  -29.3175 H   0  0  0  0  0  0  0  0  0  0  0  0
   -8.2299   23.1719  -29.4593 H   0  0  0  0  0  0  0  0  0  0  0  0
   -9.6452   22.3536  -31.6646 H   0  0  0  0  0  0  0  0  0  0  0  0
   -8.2472   17.5929  -32.0262 H   0  0  0  0  0  0  0  0  0  0  0  0
   -7.3066   15.5971  -33.1894 H   0  0  0  0  0  0  0  0  0  0  0  0
   -5.3886   15.8520  -34.7648 H   0  0  0  0  0  0  0  0  0  0  0  0
   -5.3346   20.1123  -34.0163 H   0  0  0  0  0  0  0  0  0  0  0  0
   -6.7014   23.2979  -32.6013 H   0  0  0  0  0  0  0  0  0  0  0  0
   -5.8521   24.8864  -32.3949 H   0  0  0  0  0  0  0  0  0  0  0  0
   -4.9665   22.1128  -31.5334 H   0  0  0  0  0  0  0  0  0  0  0  0
   -4.0835   23.3586  -32.4968 H   0  0  0  0  0  0  0  0  0  0  0  0
  1  2  1  0
  2  3  1  0
  3  4  2  0
  4  5  1  0
  5  6  2  0
  6  7  1  0
  7  8  2  0
  8  9  1  0
  9 10  1  0
 10 11  1  0
 11 12  1  0
 12 13  1  0
 13 14  1  0
 14 15  2  0
 15 16  1  0
 16 17  1  0
 17 18  1  0
 18 19  2  0
 19 20  1  0
 20 21  2  0
 21 22  1  0
 22 23  1  0
 22 24  2  0
 17 25  2  0
 12 26  1  0
 26 27  1  0
  8  3  1  0
 27  9  1  0
 25 14  1  0
 24 18  1  0
  1 28  1  0
  1 29  1  0
  1 30  1  0
  4 31  1  0
  5 32  1  0
  6 33  1  0
  7 34  1  0
 10 35  1  0
 10 36  1  0
 11 37  1  0
 11 38  1  0
 13 39  1  0
 13 40  1  0
 15 41  1  0
 19 42  1  0
 20 43  1  0
 21 44  1  0
 24 45  1  0
 26 46  1  0
 26 47  1  0
 27 48  1  0
 27 49  1  0
M  END
>  <UniqueID>  (33) 
29

>  <SMILES>  (33) 
COc1ccccc1N1CCN(Cc2coc(-c3cccc(F)c3)n2)CC1

>  <Energy>  (33) 
94.29527086705441

>  <Genealogy>  (33) 
COc1ccccc1N1CCN(Cc2coc(-c3cccc(F)c3)n2)CC1 (3D coordinates assigned)
COc1ccccc1N1CCN(Cc2coc(-c3cccc(F)c3)n2)CC1 (nonaromatic ring conformer: 94.29527086705441 kcal/mol)

>  <smiles>  (33) 
COc1ccccc1N1CCN(Cc2coc(-c3cccc(F)c3)n2)CC1

>  <score_type>  (33) 
oracle

>  <origin>  (33) 
adg

>  <m_score__min__energy>  (33) 
-8.3200000000000003

>  <m_primary>  (33) 
energy

$$$$
33:0
     RDKit          3D

 50 52  0  0  0  0  0  0  0  0999 V2000
   -6.3810   17.5620  -32.5890 C   0  0  0  0  0  0  0  0  0  0  0  0
   -5.8660   18.9550  -32.7680 C   0  0  0  0  0  0  0  0  0  0  0  0
   -4.5570   19.2780  -32.6520 N   0  0  0  0  0  0  0  0  0  0  0  0
   -4.5820   20.6190  -32.8190 C   0  0  0  0  0  0  0  0  0  0  0  0
   -3.4140   21.4410  -32.7690 N   0  0  0  0  0  0  0  0  0  0  0  0
   -3.5080   22.6560  -32.4970 O   0  0  0  0  0  0  0  0  0  0  0  0
   -2.1760   20.8930  -33.0090 O   0  0  0  0  0  0  0  0  0  0  0  0
   -5.8270   21.0920  -33.0130 N   0  0  0  0  0  0  0  0  0  0  0  0
   -6.6340   20.0480  -32.9790 N   0  0  0  0  0  0  0  0  0  0  0  0
   -8.0910   20.1270  -33.0970 C   0  0  0  0  0  0  0  0  0  0  0  0
   -8.7450   20.5880  -31.7860 C   0  0  0  0  0  0  0  0  0  0  0  0
   -9.0630   22.0970  -31.7560 C   0  0  0  0  0  0  0  0  0  0  0  0
   -7.9320   22.9810  -32.3430 C   0  0  0  0  0  0  0  0  0  0  0  0
   -6.7950   23.2000  -31.4230 N   0  0  0  0  0  0  0  0  0  0  0  0
   -7.0750   22.7810  -30.0370 C   0  0  0  0  0  0  0  0  0  0  0  0
   -5.7680   22.7480  -29.2360 C   0  0  0  0  0  0  0  0  0  0  0  0
   -4.9510   23.9370  -29.5140 N   0  0  0  0  0  0  0  0  0  0  0  0
   -3.5670   23.9670  -29.1110 C   0  0  0  0  0  0  0  0  0  0  0  0
   -2.5740   23.4020  -29.9290 C   0  0  0  0  0  0  0  0  0  0  0  0
   -1.2360   23.4110  -29.5240 C   0  0  0  0  0  0  0  0  0  0  0  0
   -0.8720   23.9780  -28.2970 C   0  0  0  0  0  0  0  0  0  0  0  0
    0.8200   23.9630  -27.8200 Cl  0  0  0  0  0  0  0  0  0  0  0  0
   -1.8580   24.5470  -27.4720 C   0  0  0  0  0  0  0  0  0  0  0  0
   -1.4440   25.2670  -25.9210 Cl  0  0  0  0  0  0  0  0  0  0  0  0
   -3.1970   24.5380  -27.8790 C   0  0  0  0  0  0  0  0  0  0  0  0
   -5.5510   25.0560  -30.2500 C   0  0  0  0  0  0  0  0  0  0  0  0
   -6.1820   24.5470  -31.5570 C   0  0  0  0  0  0  0  0  0  0  0  0
   -6.4642   17.3370  -31.5155 H   0  0  0  0  0  0  0  0  0  0  0  0
   -7.3712   17.4738  -33.0599 H   0  0  0  0  0  0  0  0  0  0  0  0
   -5.6863   16.8509  -33.0599 H   0  0  0  0  0  0  0  0  0  0  0  0
   -6.1190   22.0860  -33.1490 H   0  0  0  0  0  0  0  0  0  0  0  0
   -8.3455   20.8425  -33.8928 H   0  0  0  0  0  0  0  0  0  0  0  0
   -8.4700   19.1218  -33.3333 H   0  0  0  0  0  0  0  0  0  0  0  0
   -9.6840   20.0313  -31.6505 H   0  0  0  0  0  0  0  0  0  0  0  0
   -8.0245   20.3925  -30.9781 H   0  0  0  0  0  0  0  0  0  0  0  0
   -9.9790   22.2711  -32.3396 H   0  0  0  0  0  0  0  0  0  0  0  0
   -9.1798   22.3814  -30.6998 H   0  0  0  0  0  0  0  0  0  0  0  0
   -7.5508   22.4945  -33.2529 H   0  0  0  0  0  0  0  0  0  0  0  0
   -8.3733   23.9689  -32.5412 H   0  0  0  0  0  0  0  0  0  0  0  0
   -7.7713   23.4946  -29.5723 H   0  0  0  0  0  0  0  0  0  0  0  0
   -7.5257   21.7776  -30.0425 H   0  0  0  0  0  0  0  0  0  0  0  0
   -6.0047   22.7170  -28.1622 H   0  0  0  0  0  0  0  0  0  0  0  0
   -5.1984   21.8542  -29.5306 H   0  0  0  0  0  0  0  0  0  0  0  0
   -2.8509   22.9503  -30.8930 H   0  0  0  0  0  0  0  0  0  0  0  0
   -0.4650   22.9701  -30.1730 H   0  0  0  0  0  0  0  0  0  0  0  0
   -3.9670   24.9811  -27.2303 H   0  0  0  0  0  0  0  0  0  0  0  0
   -6.3280   25.5257  -29.6290 H   0  0  0  0  0  0  0  0  0  0  0  0
   -4.7692   25.7920  -30.4888 H   0  0  0  0  0  0  0  0  0  0  0  0
   -6.9621   25.2571  -31.8688 H   0  0  0  0  0  0  0  0  0  0  0  0
   -5.3757   24.4677  -32.3011 H   0  0  0  0  0  0  0  0  0  0  0  0
  1  2  1  0
  2  3  2  0
  3  4  1  0
  4  5  1  0
  5  6  2  0
  5  7  1  0
  4  8  2  0
  8  9  1  0
  9 10  1  0
 10 11  1  0
 11 12  1  0
 12 13  1  0
 13 14  1  0
 14 15  1  0
 15 16  1  0
 16 17  1  0
 17 18  1  0
 18 19  2  0
 19 20  1  0
 20 21  2  0
 21 22  1  0
 21 23  1  0
 23 24  1  0
 23 25  2  0
 17 26  1  0
 26 27  1  0
  9  2  1  0
 27 14  1  0
 25 18  1  0
  1 28  1  0
  1 29  1  0
  1 30  1  0
  8 31  1  0
 10 32  1  0
 10 33  1  0
 11 34  1  0
 11 35  1  0
 12 36  1  0
 12 37  1  0
 13 38  1  0
 13 39  1  0
 15 40  1  0
 15 41  1  0
 16 42  1  0
 16 43  1  0
 19 44  1  0
 20 45  1  0
 25 46  1  0
 26 47  1  0
 26 48  1  0
 27 49  1  0
 27 50  1  0
M  CHG  3   5   1   7  -1   8   1
M  END
>  <UniqueID>  (34) 
30

>  <SMILES>  (34) 
Cc1nc([N+](=O)[O-])[nH+]n1CCCCN1CCN(c2ccc(Cl)c(Cl)c2)CC1

>  <Energy>  (34) 
94.18013251888213

>  <Genealogy>  (34) 
Cc1nc([N+](=O)[O-])[nH+]n1CCCCN1CCN(c2ccc(Cl)c(Cl)c2)CC1 (protonated)
Cc1nc([N+](=O)[O-])[nH+]n1CCCCN1CCN(c2ccc(Cl)c(Cl)c2)CC1 (3D coordinates assigned)
Cc1nc([N+](=O)[O-])[nH+]n1CCCCN1CCN(c2ccc(Cl)c(Cl)c2)CC1 (nonaromatic ring conformer: 94.18013251888213 kcal/mol)

>  <smiles>  (34) 
Cc1nc([N+](=O)[O-])nn1CCCCN1CCN(c2ccc(Cl)c(Cl)c2)CC1

>  <score_type>  (34) 
oracle

>  <origin>  (34) 
adg

>  <m_score__min__energy>  (34) 
-8.5

>  <m_primary>  (34) 
energy

$$$$
34:0
     RDKit          3D

 39 40  0  0  0  0  0  0  0  0999 V2000
   -0.4570   26.4460  -23.3330 C   0  0  0  0  0  0  0  0  0  0  0  0
   -0.8730   27.1590  -24.4940 O   0  0  0  0  0  0  0  0  0  0  0  0
   -1.2120   26.5530  -25.7140 C   0  0  0  0  0  0  0  0  0  0  0  0
   -2.2570   25.6190  -25.7240 C   0  0  0  0  0  0  0  0  0  0  0  0
   -2.6400   24.9900  -26.9130 C   0  0  0  0  0  0  0  0  0  0  0  0
   -1.9780   25.2900  -28.1150 C   0  0  0  0  0  0  0  0  0  0  0  0
   -2.3570   24.6850  -29.3580 N   0  0  0  0  0  0  0  0  0  0  0  0
   -3.6440   24.7740  -29.9730 C   0  0  0  0  0  0  0  0  0  0  0  0
   -3.8800   25.6550  -30.8440 O   0  0  0  0  0  0  0  0  0  0  0  0
   -4.7120   23.7980  -29.5930 C   0  0  0  0  0  0  0  0  0  0  0  0
   -5.9750   24.1670  -30.2490 N   0  0  0  0  0  0  0  0  0  0  0  0
   -6.8320   25.1960  -29.6500 C   0  0  0  0  0  0  0  0  0  0  0  0
   -6.3340   23.5440  -31.5040 C   0  0  0  0  0  0  0  0  0  0  0  0
   -5.4430   23.3350  -32.3730 O   0  0  0  0  0  0  0  0  0  0  0  0
   -7.7570   23.2200  -31.8550 C   0  0  0  0  0  0  0  0  0  0  0  0
   -7.9320   21.7320  -31.9510 C   0  0  0  0  0  0  0  0  0  0  0  0
   -9.0670   21.0160  -31.5830 C   0  0  0  0  0  0  0  0  0  0  0  0
   -8.9530   19.6410  -31.8330 C   0  0  0  0  0  0  0  0  0  0  0  0
   -7.7350   19.2730  -32.4010 C   0  0  0  0  0  0  0  0  0  0  0  0
   -6.8020   20.6630  -32.5970 S   0  0  0  0  0  0  0  0  0  0  0  0
   -0.9460   26.2400  -28.1130 C   0  0  0  0  0  0  0  0  0  0  0  0
   -0.5510   26.8560  -26.9210 C   0  0  0  0  0  0  0  0  0  0  0  0
   -0.7759   26.9925  -22.4332 H   0  0  0  0  0  0  0  0  0  0  0  0
   -0.9127   25.4448  -23.3346 H   0  0  0  0  0  0  0  0  0  0  0  0
    0.6388   26.3501  -23.3346 H   0  0  0  0  0  0  0  0  0  0  0  0
   -2.7811   25.3783  -24.7873 H   0  0  0  0  0  0  0  0  0  0  0  0
   -3.4616   24.2586  -26.9068 H   0  0  0  0  0  0  0  0  0  0  0  0
   -4.4152   22.7881  -29.9125 H   0  0  0  0  0  0  0  0  0  0  0  0
   -4.8494   23.8141  -28.5017 H   0  0  0  0  0  0  0  0  0  0  0  0
   -6.7752   25.1278  -28.5536 H   0  0  0  0  0  0  0  0  0  0  0  0
   -6.4916   26.1907  -29.9736 H   0  0  0  0  0  0  0  0  0  0  0  0
   -7.8718   25.0411  -29.9736 H   0  0  0  0  0  0  0  0  0  0  0  0
   -8.4245   23.6165  -31.0757 H   0  0  0  0  0  0  0  0  0  0  0  0
   -8.0048   23.6777  -32.8241 H   0  0  0  0  0  0  0  0  0  0  0  0
   -9.9611   21.4806  -31.1417 H   0  0  0  0  0  0  0  0  0  0  0  0
   -9.7509   18.9199  -31.6022 H   0  0  0  0  0  0  0  0  0  0  0  0
   -7.4341   18.2509  -32.6745 H   0  0  0  0  0  0  0  0  0  0  0  0
   -0.4437   26.5025  -29.0558 H   0  0  0  0  0  0  0  0  0  0  0  0
    0.2780   27.5790  -26.9258 H   0  0  0  0  0  0  0  0  0  0  0  0
  1  2  1  0
  2  3  1  0
  3  4  2  0
  4  5  1  0
  5  6  2  0
  6  7  1  0
  7  8  1  0
  8  9  2  0
  8 10  1  0
 10 11  1  0
 11 12  1  0
 11 13  1  0
 13 14  2  0
 13 15  1  0
 15 16  1  0
 16 17  2  0
 17 18  1  0
 18 19  2  0
 19 20  1  0
  6 21  1  0
 21 22  2  0
 22  3  1  0
 20 16  1  0
  1 23  1  0
  1 24  1  0
  1 25  1  0
  4 26  1  0
  5 27  1  0
 10 28  1  0
 10 29  1  0
 12 30  1  0
 12 31  1  0
 12 32  1  0
 15 33  1  0
 15 34  1  0
 17 35  1  0
 18 36  1  0
 19 37  1  0
 21 38  1  0
 22 39  1  0
M  CHG  1   7  -1
M  END
>  <UniqueID>  (35) 
31

>  <SMILES>  (35) 
COc1ccc([N-]C(=O)CN(C)C(=O)Cc2cccs2)cc1

>  <Energy>  (35) 
59.8250149790763

>  <Genealogy>  (35) 
COc1ccc([N-]C(=O)CN(C)C(=O)Cc2cccs2)cc1 (protonated)
COc1ccc([N-]C(=O)CN(C)C(=O)Cc2cccs2)cc1 (3D coordinates assigned)
COc1ccc([N-]C(=O)CN(C)C(=O)Cc2cccs2)cc1 (optimized conformer: 59.8250149790763 kcal/mol)

>  <smiles>  (35) 
COc1ccc(NC(=O)CN(C)C(=O)Cc2cccs2)cc1

>  <score_type>  (35) 
oracle

>  <origin>  (35) 
adg

>  <m_score__min__energy>  (35) 
-9.1199999999999992

>  <m_primary>  (35) 
energy

$$$$
35:0
     RDKit          3D

 51 54  0  0  0  0  0  0  0  0999 V2000
   -4.9560   12.6720  -32.7900 C   0  0  0  0  0  0  0  0  0  0  0  0
   -5.9890   13.0260  -33.7610 N   0  0  0  0  0  0  0  0  0  0  0  0
   -6.9440   12.1940  -34.2210 C   0  0  0  0  0  0  0  0  0  0  0  0
   -7.8400   12.9290  -34.9670 C   0  0  0  0  0  0  0  0  0  0  0  0
   -7.4530   14.2170  -34.9590 N   0  0  0  0  0  0  0  0  0  0  0  0
   -6.3220   14.2550  -34.2220 C   0  0  0  0  0  0  0  0  0  0  0  0
   -5.5650   15.5300  -33.9090 C   0  0  0  0  0  0  0  0  0  0  0  0
   -6.3270   16.7780  -34.1540 N   0  0  0  0  0  0  0  0  0  0  0  0
   -5.4690   17.9330  -34.5360 C   0  0  0  0  0  0  0  0  0  0  0  0
   -6.1480   19.1110  -33.8820 C   0  0  2  0  0  0  0  0  0  0  0  0
   -5.5130   20.4200  -33.4520 C   0  0  0  0  0  0  0  0  0  0  0  0
   -6.2520   20.7860  -32.2190 N   0  0  0  0  0  0  0  0  0  0  0  0
   -6.6840   22.1950  -32.0770 C   0  0  0  0  0  0  0  0  0  0  0  0
   -5.8850   23.0770  -31.0800 C   0  0  0  0  0  0  0  0  0  0  0  0
   -6.2030   24.5750  -31.2180 C   0  0  0  0  0  0  0  0  0  0  0  0
   -5.2510   25.4040  -30.3450 C   0  0  0  0  0  0  0  0  0  0  0  0
   -3.9010   25.1640  -30.6970 O   0  0  0  0  0  0  0  0  0  0  0  0
   -3.5650   23.8180  -30.4200 C   0  0  0  0  0  0  0  0  0  0  0  0
   -4.3760   22.8620  -31.3020 C   0  0  0  0  0  0  0  0  0  0  0  0
   -7.2170   19.7030  -31.9190 C   0  0  0  0  0  0  0  0  0  0  0  0
   -6.5580   18.5210  -32.5830 C   0  0  1  0  0  0  0  0  0  0  0  0
   -7.2010   17.2330  -33.0370 C   0  0  0  0  0  0  0  0  0  0  0  0
   -5.3487   12.8066  -31.7713 H   0  0  0  0  0  0  0  0  0  0  0  0
   -4.6620   11.6218  -32.9339 H   0  0  0  0  0  0  0  0  0  0  0  0
   -4.0797   13.3211  -32.9339 H   0  0  0  0  0  0  0  0  0  0  0  0
   -6.9991   11.1116  -34.0330 H   0  0  0  0  0  0  0  0  0  0  0  0
   -8.7249   12.5286  -35.4833 H   0  0  0  0  0  0  0  0  0  0  0  0
   -7.9670   15.0150  -35.3890 H   0  0  0  0  0  0  0  0  0  0  0  0
   -5.2780   15.5064  -32.8474 H   0  0  0  0  0  0  0  0  0  0  0  0
   -4.7014   15.5541  -34.5899 H   0  0  0  0  0  0  0  0  0  0  0  0
   -4.4461   17.8063  -34.1519 H   0  0  0  0  0  0  0  0  0  0  0  0
   -5.3679   18.0485  -35.6252 H   0  0  0  0  0  0  0  0  0  0  0  0
   -6.8076   19.4621  -34.6893 H   0  0  0  0  0  0  0  0  0  0  0  0
   -4.4419   20.2848  -33.2409 H   0  0  0  0  0  0  0  0  0  0  0  0
   -5.5728   21.1963  -34.2290 H   0  0  0  0  0  0  0  0  0  0  0  0
   -6.6127   22.6661  -33.0685 H   0  0  0  0  0  0  0  0  0  0  0  0
   -7.7015   22.1428  -31.6623 H   0  0  0  0  0  0  0  0  0  0  0  0
   -6.1835   22.7688  -30.0671 H   0  0  0  0  0  0  0  0  0  0  0  0
   -6.0855   24.8756  -32.2696 H   0  0  0  0  0  0  0  0  0  0  0  0
   -7.2373   24.7532  -30.8886 H   0  0  0  0  0  0  0  0  0  0  0  0
   -5.4744   26.4722  -30.4834 H   0  0  0  0  0  0  0  0  0  0  0  0
   -5.3962   25.1128  -29.2942 H   0  0  0  0  0  0  0  0  0  0  0  0
   -2.4930   23.6665  -30.6147 H   0  0  0  0  0  0  0  0  0  0  0  0
   -3.7962   23.6067  -29.3655 H   0  0  0  0  0  0  0  0  0  0  0  0
   -4.1345   23.0506  -32.3585 H   0  0  0  0  0  0  0  0  0  0  0  0
   -4.1199   21.8261  -31.0350 H   0  0  0  0  0  0  0  0  0  0  0  0
   -7.3226   19.5477  -30.8351 H   0  0  0  0  0  0  0  0  0  0  0  0
   -8.2396   19.9030  -32.2716 H   0  0  0  0  0  0  0  0  0  0  0  0
   -5.9101   18.1586  -31.7713 H   0  0  0  0  0  0  0  0  0  0  0  0
   -7.2149   16.4931  -32.2231 H   0  0  0  0  0  0  0  0  0  0  0  0
   -8.2498   17.3639  -33.3419 H   0  0  0  0  0  0  0  0  0  0  0  0
  1  2  1  0
  2  3  1  0
  3  4  2  0
  4  5  1  0
  5  6  2  0
  6  7  1  0
  7  8  1  0
  8  9  1  0
  9 10  1  0
 10 11  1  0
 11 12  1  0
 12 13  1  0
 13 14  1  0
 14 15  1  0
 15 16  1  0
 16 17  1  0
 17 18  1  0
 18 19  1  0
 12 20  1  0
 20 21  1  0
 21 22  1  0
  6  2  1  0
 22  8  1  0
 21 10  1  0
 19 14  1  0
  1 23  1  0
  1 24  1  0
  1 25  1  0
  3 26  1  0
  4 27  1  0
  5 28  1  0
  7 29  1  0
  7 30  1  0
  9 31  1  0
  9 32  1  0
 10 33  1  6
 11 34  1  0
 11 35  1  0
 13 36  1  0
 13 37  1  0
 14 38  1  0
 15 39  1  0
 15 40  1  0
 16 41  1  0
 16 42  1  0
 18 43  1  0
 18 44  1  0
 19 45  1  0
 19 46  1  0
 20 47  1  0
 20 48  1  0
 21 49  1  1
 22 50  1  0
 22 51  1  0
M  CHG  1   5   1
M  END
>  <UniqueID>  (36) 
32

>  <SMILES>  (36) 
Cn1cc[nH+]c1CN1C[C@@H]2CN(CC3CCOCC3)C[C@H]2C1

>  <Energy>  (36) 
128.9978588809511

>  <Genealogy>  (36) 
Cn1cc[nH+]c1CN1CC2CN(CC3CCOCC3)CC2C1 (protonated)
Cn1cc[nH+]c1CN1C[C@@H]2CN(CC3CCOCC3)C[C@H]2C1 (chirality)
Cn1cc[nH+]c1CN1C[C@@H]2CN(CC3CCOCC3)C[C@H]2C1 (3D coordinates assigned)
Cn1cc[nH+]c1CN1C[C@@H]2CN(CC3CCOCC3)C[C@H]2C1 (nonaromatic ring conformer: 128.9978588809511 kcal/mol)

>  <smiles>  (36) 
Cn1ccnc1CN1CC2CN(CC3CCOCC3)CC2C1

>  <score_type>  (36) 
oracle

>  <origin>  (36) 
adg

>  <m_score__min__energy>  (36) 
-7.6699999999999999

>  <m_primary>  (36) 
energy

$$$$
36:0
     RDKit          3D

 51 53  0  0  0  0  0  0  0  0999 V2000
   -5.7830   16.8250  -32.0530 C   0  0  0  0  0  0  0  0  0  0  0  0
   -6.6860   17.8070  -31.3090 C   0  0  0  0  0  0  0  0  0  0  0  0
   -6.5790   19.1620  -31.8980 N   0  0  0  0  0  0  0  0  0  0  0  0
   -5.3580   19.2920  -32.7270 C   0  0  0  0  0  0  0  0  0  0  0  0
   -5.7210   19.3350  -34.2090 C   0  0  0  0  0  0  0  0  0  0  0  0
   -7.8020   19.5270  -32.6600 C   0  0  0  0  0  0  0  0  0  0  0  0
   -8.7570   20.3370  -31.7770 C   0  0  0  0  0  0  0  0  0  0  0  0
   -8.2430   21.7580  -31.5100 C   0  0  0  0  0  0  0  0  0  0  0  0
   -6.8430   21.7260  -31.0880 N   0  0  0  0  0  0  0  0  0  0  0  0
   -6.0850   22.8770  -30.6630 C   0  0  0  0  0  0  0  0  0  0  0  0
   -6.5170   24.1930  -30.9240 C   0  0  0  0  0  0  0  0  0  0  0  0
   -5.7560   25.2830  -30.4940 C   0  0  0  0  0  0  0  0  0  0  0  0
   -4.5650   25.0780  -29.7950 C   0  0  0  0  0  0  0  0  0  0  0  0
   -4.1270   23.7760  -29.5130 C   0  0  0  0  0  0  0  0  0  0  0  0
   -2.8960   23.5610  -28.8020 N   0  0  0  0  0  0  0  0  0  0  0  0
   -1.8510   24.4210  -28.7190 C   0  0  0  0  0  0  0  0  0  0  0  0
   -1.8250   25.6720  -29.3260 O   0  0  0  0  0  0  0  0  0  0  0  0
   -0.8250   23.9080  -27.9380 C   0  0  0  0  0  0  0  0  0  0  0  0
   -1.2810   22.6700  -27.5350 C   0  0  0  0  0  0  0  0  0  0  0  0
   -0.6630   21.6990  -26.7510 C   0  0  0  0  0  0  0  0  0  0  0  0
   -1.3580   20.4980  -26.5220 C   0  0  0  0  0  0  0  0  0  0  0  0
   -2.6380   20.2930  -27.0840 C   0  0  0  0  0  0  0  0  0  0  0  0
   -3.4820   18.7810  -26.8030 Cl  0  0  0  0  0  0  0  0  0  0  0  0
   -3.2370   21.2920  -27.8750 C   0  0  0  0  0  0  0  0  0  0  0  0
   -2.5330   22.4850  -28.0710 C   0  0  0  0  0  0  0  0  0  0  0  0
   -4.8880   22.6830  -29.9550 C   0  0  0  0  0  0  0  0  0  0  0  0
   -5.2243   16.2175  -31.3258 H   0  0  0  0  0  0  0  0  0  0  0  0
   -6.3983   16.1673  -32.6845 H   0  0  0  0  0  0  0  0  0  0  0  0
   -5.0761   17.3831  -32.6845 H   0  0  0  0  0  0  0  0  0  0  0  0
   -7.7287   17.4636  -31.3789 H   0  0  0  0  0  0  0  0  0  0  0  0
   -6.3701   17.8518  -30.2563 H   0  0  0  0  0  0  0  0  0  0  0  0
   -4.8332   20.2199  -32.4557 H   0  0  0  0  0  0  0  0  0  0  0  0
   -4.7094   18.4226  -32.5444 H   0  0  0  0  0  0  0  0  0  0  0  0
   -6.8081   19.4638  -34.3166 H   0  0  0  0  0  0  0  0  0  0  0  0
   -5.2026   20.1780  -34.6892 H   0  0  0  0  0  0  0  0  0  0  0  0
   -5.4139   18.3942  -34.6892 H   0  0  0  0  0  0  0  0  0  0  0  0
   -7.5178   20.1297  -33.5352 H   0  0  0  0  0  0  0  0  0  0  0  0
   -8.3091   18.6065  -32.9848 H   0  0  0  0  0  0  0  0  0  0  0  0
   -9.7330   20.4030  -32.2801 H   0  0  0  0  0  0  0  0  0  0  0  0
   -8.8369   19.8216  -30.8085 H   0  0  0  0  0  0  0  0  0  0  0  0
   -8.3299   22.3533  -32.4309 H   0  0  0  0  0  0  0  0  0  0  0  0
   -8.8458   22.2093  -30.7082 H   0  0  0  0  0  0  0  0  0  0  0  0
   -6.3700   20.7930  -31.0830 H   0  0  0  0  0  0  0  0  0  0  0  0
   -7.4575   24.3627  -31.4687 H   0  0  0  0  0  0  0  0  0  0  0  0
   -6.0967   26.3070  -30.7071 H   0  0  0  0  0  0  0  0  0  0  0  0
   -3.9681   25.9408  -29.4643 H   0  0  0  0  0  0  0  0  0  0  0  0
    0.1371   24.3826  -27.6946 H   0  0  0  0  0  0  0  0  0  0  0  0
    0.3370   21.8661  -26.3244 H   0  0  0  0  0  0  0  0  0  0  0  0
   -0.9019   19.7128  -25.9011 H   0  0  0  0  0  0  0  0  0  0  0  0
   -4.2288   21.1390  -28.3254 H   0  0  0  0  0  0  0  0  0  0  0  0
   -4.5421   21.6603  -29.7440 H   0  0  0  0  0  0  0  0  0  0  0  0
  1  2  1  0
  2  3  1  0
  3  4  1  0
  4  5  1  0
  3  6  1  0
  6  7  1  0
  7  8  1  0
  8  9  1  0
  9 10  1  0
 10 11  2  0
 11 12  1  0
 12 13  2  0
 13 14  1  0
 14 15  1  0
 15 16  1  0
 16 17  1  0
 16 18  2  0
 18 19  1  0
 19 20  2  0
 20 21  1  0
 21 22  2  0
 22 23  1  0
 22 24  1  0
 24 25  2  0
 14 26  2  0
 26 10  1  0
 25 15  1  0
 25 19  1  0
  1 27  1  0
  1 28  1  0
  1 29  1  0
  2 30  1  0
  2 31  1  0
  4 32  1  0
  4 33  1  0
  5 34  1  0
  5 35  1  0
  5 36  1  0
  6 37  1  0
  6 38  1  0
  7 39  1  0
  7 40  1  0
  8 41  1  0
  8 42  1  0
  9 43  1  0
 11 44  1  0
 12 45  1  0
 13 46  1  0
 18 47  1  0
 20 48  1  0
 21 49  1  0
 24 50  1  0
 26 51  1  0
M  CHG  1  17  -1
M  END
>  <UniqueID>  (37) 
33

>  <SMILES>  (37) 
CCN(CC)CCCNc1cccc(-n2c([O-])cc3ccc(Cl)cc32)c1

>  <Energy>  (37) 
89.2181266854365

>  <Genealogy>  (37) 
CCN(CC)CCCNc1cccc(-n2c([O-])cc3ccc(Cl)cc32)c1 (protonated)
CCN(CC)CCCNc1cccc(-n2c([O-])cc3ccc(Cl)cc32)c1 (3D coordinates assigned)
CCN(CC)CCCNc1cccc(-n2c([O-])cc3ccc(Cl)cc32)c1 (optimized conformer: 89.2181266854365 kcal/mol)

>  <smiles>  (37) 
CCN(CC)CCCNc1cccc(-n2c(O)cc3ccc(Cl)cc32)c1

>  <score_type>  (37) 
oracle

>  <origin>  (37) 
adg

>  <m_score__min__energy>  (37) 
-12.07

>  <m_primary>  (37) 
energy

$$$$
37:0
     RDKit          3D

 57 58  0  0  0  0  0  0  0  0999 V2000
   -6.1480   19.5950  -34.0970 C   0  0  0  0  0  0  0  0  0  0  0  0
   -5.7910   18.3540  -34.9120 C   0  0  0  0  0  0  0  0  0  0  0  0
   -4.9830   17.4190  -34.0960 N   0  0  0  0  0  0  0  0  0  0  0  0
   -5.8400   16.4460  -33.3800 C   0  0  0  0  0  0  0  0  0  0  0  0
   -5.3050   16.2030  -31.9730 C   0  0  0  0  0  0  0  0  0  0  0  0
   -3.9630   16.7270  -34.9190 C   0  0  0  0  0  0  0  0  0  0  0  0
   -2.5630   17.1990  -34.5200 C   0  0  0  0  0  0  0  0  0  0  0  0
   -2.6520   18.2580  -33.5140 N   0  0  0  0  0  0  0  0  0  0  0  0
   -1.9380   19.4990  -33.6370 C   0  0  0  0  0  0  0  0  0  0  0  0
   -1.1430   19.6720  -34.6000 O   0  0  0  0  0  0  0  0  0  0  0  0
   -2.1580   20.6010  -32.6700 C   0  0  0  0  0  0  0  0  0  0  0  0
   -3.3130   21.3960  -32.7680 C   0  0  0  0  0  0  0  0  0  0  0  0
   -3.5500   22.4190  -31.8470 C   0  0  0  0  0  0  0  0  0  0  0  0
   -2.6300   22.6770  -30.8200 C   0  0  0  0  0  0  0  0  0  0  0  0
   -2.8740   23.7950  -29.8390 C   0  0  0  0  0  0  0  0  0  0  0  0
   -3.5430   24.9310  -30.4750 N   0  0  0  0  0  0  0  0  0  0  0  0
   -5.1790   25.1150  -29.9020 S   0  0  0  0  0  0  0  0  0  0  0  0
   -5.2250   24.9950  -28.4040 O   0  0  0  0  0  0  0  0  0  0  0  0
   -5.6850   26.4740  -30.2900 O   0  0  0  0  0  0  0  0  0  0  0  0
   -6.2030   23.8940  -30.6510 C   0  0  0  0  0  0  0  0  0  0  0  0
   -6.4140   23.9290  -32.0360 C   0  0  0  0  0  0  0  0  0  0  0  0
   -7.2030   22.9560  -32.6530 C   0  0  0  0  0  0  0  0  0  0  0  0
   -7.7980   21.9350  -31.8880 C   0  0  0  0  0  0  0  0  0  0  0  0
   -8.6230   20.9550  -32.4590 O   0  0  0  0  0  0  0  0  0  0  0  0
   -8.8300   19.6590  -31.9020 C   0  0  0  0  0  0  0  0  0  0  0  0
   -7.5740   21.8990  -30.5060 C   0  0  0  0  0  0  0  0  0  0  0  0
   -6.7850   22.8730  -29.8890 C   0  0  0  0  0  0  0  0  0  0  0  0
   -1.4700   21.8920  -30.7250 C   0  0  0  0  0  0  0  0  0  0  0  0
   -1.2320   20.8690  -31.6470 C   0  0  0  0  0  0  0  0  0  0  0  0
   -6.0807   19.3610  -33.0243 H   0  0  0  0  0  0  0  0  0  0  0  0
   -5.4471   20.4073  -34.3398 H   0  0  0  0  0  0  0  0  0  0  0  0
   -7.1734   19.9107  -34.3398 H   0  0  0  0  0  0  0  0  0  0  0  0
   -6.7157   17.8511  -35.2314 H   0  0  0  0  0  0  0  0  0  0  0  0
   -5.2054   18.6595  -35.7917 H   0  0  0  0  0  0  0  0  0  0  0  0
   -6.8637   16.8433  -33.3152 H   0  0  0  0  0  0  0  0  0  0  0  0
   -5.8387   15.4946  -33.9321 H   0  0  0  0  0  0  0  0  0  0  0  0
   -6.0477   16.5403  -31.2350 H   0  0  0  0  0  0  0  0  0  0  0  0
   -5.1121   15.1289  -31.8345 H   0  0  0  0  0  0  0  0  0  0  0  0
   -4.3693   16.7644  -31.8345 H   0  0  0  0  0  0  0  0  0  0  0  0
   -4.0410   15.6414  -34.7595 H   0  0  0  0  0  0  0  0  0  0  0  0
   -4.1349   16.9606  -35.9801 H   0  0  0  0  0  0  0  0  0  0  0  0
   -1.9985   16.3509  -34.1052 H   0  0  0  0  0  0  0  0  0  0  0  0
   -2.0508   17.5930  -35.4102 H   0  0  0  0  0  0  0  0  0  0  0  0
   -3.4270   18.1920  -32.8180 H   0  0  0  0  0  0  0  0  0  0  0  0
   -4.0358   21.2111  -33.5763 H   0  0  0  0  0  0  0  0  0  0  0  0
   -4.4638   23.0261  -31.9275 H   0  0  0  0  0  0  0  0  0  0  0  0
   -3.5062   23.4205  -29.0205 H   0  0  0  0  0  0  0  0  0  0  0  0
   -1.9008   24.1374  -29.4573 H   0  0  0  0  0  0  0  0  0  0  0  0
   -5.9561   24.7264  -32.6397 H   0  0  0  0  0  0  0  0  0  0  0  0
   -7.3602   22.9875  -33.7412 H   0  0  0  0  0  0  0  0  0  0  0  0
   -8.8193   19.7258  -30.8041 H   0  0  0  0  0  0  0  0  0  0  0  0
   -9.8021   19.2673  -32.2361 H   0  0  0  0  0  0  0  0  0  0  0  0
   -8.0283   18.9840  -32.2361 H   0  0  0  0  0  0  0  0  0  0  0  0
   -8.0230   21.0972  -29.9013 H   0  0  0  0  0  0  0  0  0  0  0  0
   -6.6204   22.8379  -28.8019 H   0  0  0  0  0  0  0  0  0  0  0  0
   -0.7445   22.0831  -29.9206 H   0  0  0  0  0  0  0  0  0  0  0  0
   -0.3131   20.2690  -31.5715 H   0  0  0  0  0  0  0  0  0  0  0  0
  1  2  1  0
  2  3  1  0
  3  4  1  0
  4  5  1  0
  3  6  1  0
  6  7  1  0
  7  8  1  0
  8  9  1  0
  9 10  2  0
  9 11  1  0
 11 12  2  0
 12 13  1  0
 13 14  2  0
 14 15  1  0
 15 16  1  0
 16 17  1  0
 17 18  2  0
 17 19  2  0
 17 20  1  0
 20 21  2  0
 21 22  1  0
 22 23  2  0
 23 24  1  0
 24 25  1  0
 23 26  1  0
 26 27  2  0
 14 28  1  0
 28 29  2  0
 29 11  1  0
 27 20  1  0
  1 30  1  0
  1 31  1  0
  1 32  1  0
  2 33  1  0
  2 34  1  0
  4 35  1  0
  4 36  1  0
  5 37  1  0
  5 38  1  0
  5 39  1  0
  6 40  1  0
  6 41  1  0
  7 42  1  0
  7 43  1  0
  8 44  1  0
 12 45  1  0
 13 46  1  0
 15 47  1  0
 15 48  1  0
 21 49  1  0
 22 50  1  0
 25 51  1  0
 25 52  1  0
 25 53  1  0
 26 54  1  0
 27 55  1  0
 28 56  1  0
 29 57  1  0
M  CHG  1  16  -1
M  END
>  <UniqueID>  (38) 
34

>  <SMILES>  (38) 
CCN(CC)CCNC(=O)c1ccc(C[N-]S(=O)(=O)c2ccc(OC)cc2)cc1

>  <Energy>  (38) 
47.54465752004253

>  <Genealogy>  (38) 
CCN(CC)CCNC(=O)c1ccc(C[N-]S(=O)(=O)c2ccc(OC)cc2)cc1 (protonated)
CCN(CC)CCNC(=O)c1ccc(C[N-]S(=O)(=O)c2ccc(OC)cc2)cc1 (3D coordinates assigned)
CCN(CC)CCNC(=O)c1ccc(C[N-]S(=O)(=O)c2ccc(OC)cc2)cc1 (optimized conformer: 47.54465752004253 kcal/mol)

>  <smiles>  (38) 
CCN(CC)CCNC(=O)c1ccc(CNS(=O)(=O)c2ccc(OC)cc2)cc1

>  <score_type>  (38) 
oracle

>  <origin>  (38) 
adg

>  <m_score__min__energy>  (38) 
-9.7599999999999998

>  <m_primary>  (38) 
energy

$$$$
38:0
     RDKit          3D

 45 46  0  0  0  0  0  0  0  0999 V2000
   -2.7330   19.0650  -26.4710 C   0  0  0  0  0  0  0  0  0  0  0  0
   -2.0600   20.2000  -27.0030 O   0  0  0  0  0  0  0  0  0  0  0  0
   -2.6700   21.0960  -27.8860 C   0  0  0  0  0  0  0  0  0  0  0  0
   -2.9480   22.3980  -27.4580 C   0  0  0  0  0  0  0  0  0  0  0  0
   -3.5590   23.2930  -28.3390 C   0  0  0  0  0  0  0  0  0  0  0  0
   -3.8930   22.8810  -29.6340 C   0  0  0  0  0  0  0  0  0  0  0  0
   -4.6440   24.0050  -30.7610 S   0  0  0  0  0  0  0  0  0  0  0  0
   -3.8670   25.2920  -30.7840 O   0  0  0  0  0  0  0  0  0  0  0  0
   -4.6320   23.4070  -32.1400 O   0  0  0  0  0  0  0  0  0  0  0  0
   -6.3250   24.3140  -30.2310 C   0  0  0  0  0  0  0  0  0  0  0  0
   -7.3540   23.6120  -31.1230 C   0  0  0  0  0  0  0  0  0  0  0  0
   -8.0630   22.1300  -30.3150 S   0  0  0  0  0  0  0  0  0  0  0  0
   -9.0240   21.5150  -31.7470 C   0  0  0  0  0  0  0  0  0  0  0  0
   -8.9840   19.9790  -31.8490 C   0  0  0  0  0  0  0  0  0  0  0  0
   -8.0880   19.4870  -32.9380 N   0  0  0  0  0  0  0  0  0  0  0  0
   -6.9430   20.3960  -33.1920 C   0  0  0  0  0  0  0  0  0  0  0  0
   -5.8430   20.2610  -32.1200 C   0  0  0  0  0  0  0  0  0  0  0  0
   -5.4150   18.9210  -31.9920 O   0  0  0  0  0  0  0  0  0  0  0  0
   -6.5030   18.1130  -31.5950 C   0  0  0  0  0  0  0  0  0  0  0  0
   -7.5930   18.1170  -32.6760 C   0  0  0  0  0  0  0  0  0  0  0  0
   -3.5910   21.5710  -30.0270 C   0  0  0  0  0  0  0  0  0  0  0  0
   -2.9950   20.7170  -29.1540 N   0  0  0  0  0  0  0  0  0  0  0  0
   -2.7087   19.1061  -25.3720 H   0  0  0  0  0  0  0  0  0  0  0  0
   -3.7779   19.0638  -26.8148 H   0  0  0  0  0  0  0  0  0  0  0  0
   -2.2328   18.1476  -26.8148 H   0  0  0  0  0  0  0  0  0  0  0  0
   -2.6879   22.7142  -26.4371 H   0  0  0  0  0  0  0  0  0  0  0  0
   -3.7776   24.3213  -28.0151 H   0  0  0  0  0  0  0  0  0  0  0  0
   -6.4435   23.9496  -29.1999 H   0  0  0  0  0  0  0  0  0  0  0  0
   -6.5052   25.3971  -30.2974 H   0  0  0  0  0  0  0  0  0  0  0  0
   -8.1677   24.3168  -31.3493 H   0  0  0  0  0  0  0  0  0  0  0  0
   -6.8428   23.2870  -32.0412 H   0  0  0  0  0  0  0  0  0  0  0  0
  -10.0701   21.8369  -31.6378 H   0  0  0  0  0  0  0  0  0  0  0  0
   -8.5749   21.9290  -32.6618 H   0  0  0  0  0  0  0  0  0  0  0  0
   -8.6258   19.5738  -30.8911 H   0  0  0  0  0  0  0  0  0  0  0  0
  -10.0034   19.6394  -32.0846 H   0  0  0  0  0  0  0  0  0  0  0  0
   -8.6350   19.4260  -33.8280 H   0  0  0  0  0  0  0  0  0  0  0  0
   -6.5112   20.1557  -34.1748 H   0  0  0  0  0  0  0  0  0  0  0  0
   -7.3190   21.4293  -33.1616 H   0  0  0  0  0  0  0  0  0  0  0  0
   -4.9843   20.8859  -32.4066 H   0  0  0  0  0  0  0  0  0  0  0  0
   -6.2562   20.5880  -31.1544 H   0  0  0  0  0  0  0  0  0  0  0  0
   -6.1514   17.0826  -31.4383 H   0  0  0  0  0  0  0  0  0  0  0  0
   -6.9241   18.5140  -30.6613 H   0  0  0  0  0  0  0  0  0  0  0  0
   -7.1764   17.7029  -33.6060 H   0  0  0  0  0  0  0  0  0  0  0  0
   -8.4359   17.5062  -32.3203 H   0  0  0  0  0  0  0  0  0  0  0  0
   -3.8368   21.2328  -31.0444 H   0  0  0  0  0  0  0  0  0  0  0  0
  1  2  1  0
  2  3  1  0
  3  4  2  0
  4  5  1  0
  5  6  2  0
  6  7  1  0
  7  8  2  0
  7  9  2  0
  7 10  1  0
 10 11  1  0
 11 12  1  0
 12 13  1  0
 13 14  1  0
 14 15  1  0
 15 16  1  0
 16 17  1  0
 17 18  1  0
 18 19  1  0
 19 20  1  0
  6 21  1  0
 21 22  2  0
 22  3  1  0
 20 15  1  0
  1 23  1  0
  1 24  1  0
  1 25  1  0
  4 26  1  0
  5 27  1  0
 10 28  1  0
 10 29  1  0
 11 30  1  0
 11 31  1  0
 13 32  1  0
 13 33  1  0
 14 34  1  0
 14 35  1  0
 15 36  1  0
 16 37  1  0
 16 38  1  0
 17 39  1  0
 17 40  1  0
 19 41  1  0
 19 42  1  0
 20 43  1  0
 20 44  1  0
 21 45  1  0
M  CHG  1  15   1
M  END
>  <UniqueID>  (39) 
35

>  <SMILES>  (39) 
COc1ccc(S(=O)(=O)CCSCC[NH+]2CCOCC2)cn1

>  <Energy>  (39) 
44.59656369401302

>  <Genealogy>  (39) 
COc1ccc(S(=O)(=O)CCSCC[NH+]2CCOCC2)cn1 (protonated)
COc1ccc(S(=O)(=O)CCSCC[NH+]2CCOCC2)cn1 (3D coordinates assigned)
COc1ccc(S(=O)(=O)CCSCC[NH+]2CCOCC2)cn1 (nonaromatic ring conformer: 44.59656369401302 kcal/mol)

>  <smiles>  (39) 
COc1ccc(S(=O)(=O)CCSCCN2CCOCC2)cn1

>  <score_type>  (39) 
oracle

>  <origin>  (39) 
adg

>  <m_score__min__energy>  (39) 
-7.2400000000000002

>  <m_primary>  (39) 
energy

$$$$
39:0
     RDKit          3D

 60 63  0  0  0  0  0  0  0  0999 V2000
   -5.3680   26.0360  -30.4560 C   0  0  0  0  0  0  0  0  0  0  0  0
   -4.0350   25.5440  -30.5350 O   0  0  0  0  0  0  0  0  0  0  0  0
   -3.5340   24.4720  -29.7790 C   0  0  0  0  0  0  0  0  0  0  0  0
   -2.3720   24.5940  -28.9910 C   0  0  0  0  0  0  0  0  0  0  0  0
   -1.8850   23.4970  -28.2750 C   0  0  0  0  0  0  0  0  0  0  0  0
   -2.5470   22.2710  -28.3380 C   0  0  0  0  0  0  0  0  0  0  0  0
   -3.7020   22.1390  -29.1110 C   0  0  0  0  0  0  0  0  0  0  0  0
   -4.2080   23.2350  -29.8250 C   0  0  0  0  0  0  0  0  0  0  0  0
   -5.3990   23.0880  -30.6160 N   0  0  0  0  0  0  0  0  0  0  0  0
   -6.7070   22.9980  -29.9610 C   0  0  0  0  0  0  0  0  0  0  0  0
   -7.7680   22.4780  -30.9430 C   0  0  0  0  0  0  0  0  0  0  0  0
   -7.1940   21.4180  -31.8030 N   0  0  0  0  0  0  0  0  0  0  0  0
   -8.2730   20.7660  -32.5810 C   0  0  0  0  0  0  0  0  0  0  0  0
   -9.1110   19.7980  -31.7200 C   0  0  0  0  0  0  0  0  0  0  0  0
   -8.6210   18.3420  -31.8100 C   0  0  0  0  0  0  0  0  0  0  0  0
   -7.1600   18.1440  -31.3740 C   0  0  0  0  0  0  0  0  0  0  0  0
   -6.2400   18.2340  -32.5110 N   0  0  0  0  0  0  0  0  0  0  0  0
   -6.4260   17.6750  -33.7310 C   0  0  0  0  0  0  0  0  0  0  0  0
   -5.3810   18.0090  -34.5860 C   0  0  0  0  0  0  0  0  0  0  0  0
   -4.5380   18.8010  -33.8380 C   0  0  0  0  0  0  0  0  0  0  0  0
   -3.3420   19.4230  -34.1860 C   0  0  0  0  0  0  0  0  0  0  0  0
   -2.6780   20.1860  -33.2010 C   0  0  0  0  0  0  0  0  0  0  0  0
   -1.4080   20.9070  -33.5390 C   0  0  0  0  0  0  0  0  0  0  0  0
   -3.2500   20.3210  -31.9110 C   0  0  0  0  0  0  0  0  0  0  0  0
   -4.4610   19.6810  -31.5910 C   0  0  0  0  0  0  0  0  0  0  0  0
   -5.0820   18.9230  -32.5860 C   0  0  0  0  0  0  0  0  0  0  0  0
   -6.1280   21.9560  -32.6950 C   0  0  0  0  0  0  0  0  0  0  0  0
   -5.3330   23.1270  -32.0790 C   0  0  0  0  0  0  0  0  0  0  0  0
   -5.6574   26.1428  -29.4002 H   0  0  0  0  0  0  0  0  0  0  0  0
   -5.4275   27.0153  -30.9534 H   0  0  0  0  0  0  0  0  0  0  0  0
   -6.0495   25.3301  -30.9534 H   0  0  0  0  0  0  0  0  0  0  0  0
   -1.8452   25.5583  -28.9392 H   0  0  0  0  0  0  0  0  0  0  0  0
   -0.9783   23.6006  -27.6609 H   0  0  0  0  0  0  0  0  0  0  0  0
   -2.1587   21.4074  -27.7782 H   0  0  0  0  0  0  0  0  0  0  0  0
   -4.2186   21.1691  -29.1604 H   0  0  0  0  0  0  0  0  0  0  0  0
   -6.6368   22.3092  -29.1063 H   0  0  0  0  0  0  0  0  0  0  0  0
   -7.0019   24.0007  -29.6179 H   0  0  0  0  0  0  0  0  0  0  0  0
   -8.6165   22.0665  -30.3766 H   0  0  0  0  0  0  0  0  0  0  0  0
   -8.1077   23.3098  -31.5775 H   0  0  0  0  0  0  0  0  0  0  0  0
   -6.7680   20.6940  -31.1740 H   0  0  0  0  0  0  0  0  0  0  0  0
   -8.9366   21.5439  -32.9866 H   0  0  0  0  0  0  0  0  0  0  0  0
   -7.8026   20.1809  -33.3850 H   0  0  0  0  0  0  0  0  0  0  0  0
   -9.0553   20.1232  -30.6706 H   0  0  0  0  0  0  0  0  0  0  0  0
  -10.1424   19.8242  -32.1015 H   0  0  0  0  0  0  0  0  0  0  0  0
   -9.2611   17.7215  -31.1656 H   0  0  0  0  0  0  0  0  0  0  0  0
   -8.6781   18.0527  -32.8697 H   0  0  0  0  0  0  0  0  0  0  0  0
   -6.8981   18.9209  -30.6407 H   0  0  0  0  0  0  0  0  0  0  0  0
   -7.0656   17.1402  -30.9341 H   0  0  0  0  0  0  0  0  0  0  0  0
   -7.2842   17.0446  -34.0070 H   0  0  0  0  0  0  0  0  0  0  0  0
   -5.2547   17.7054  -35.6357 H   0  0  0  0  0  0  0  0  0  0  0  0
   -2.9263   19.3228  -35.1995 H   0  0  0  0  0  0  0  0  0  0  0  0
   -0.8940   21.1988  -32.6113 H   0  0  0  0  0  0  0  0  0  0  0  0
   -0.7556   20.2446  -34.1269 H   0  0  0  0  0  0  0  0  0  0  0  0
   -1.6424   21.8067  -34.1269 H   0  0  0  0  0  0  0  0  0  0  0  0
   -2.7411   20.9331  -31.1518 H   0  0  0  0  0  0  0  0  0  0  0  0
   -4.9048   19.7746  -30.5889 H   0  0  0  0  0  0  0  0  0  0  0  0
   -5.4246   21.1421  -32.9249 H   0  0  0  0  0  0  0  0  0  0  0  0
   -6.6285   22.3460  -33.5936 H   0  0  0  0  0  0  0  0  0  0  0  0
   -4.2817   23.0547  -32.3946 H   0  0  0  0  0  0  0  0  0  0  0  0
   -5.7730   24.0733  -32.4267 H   0  0  0  0  0  0  0  0  0  0  0  0
  1  2  1  0
  2  3  1  0
  3  4  2  0
  4  5  1  0
  5  6  2  0
  6  7  1  0
  7  8  2  0
  8  9  1  0
  9 10  1  0
 10 11  1  0
 11 12  1  0
 12 13  1  0
 13 14  1  0
 14 15  1  0
 15 16  1  0
 16 17  1  0
 17 18  1  0
 18 19  2  0
 19 20  1  0
 20 21  2  0
 21 22  1  0
 22 23  1  0
 22 24  2  0
 24 25  1  0
 25 26  2  0
 12 27  1  0
 27 28  1  0
  8  3  1  0
 28  9  1  0
 26 17  1  0
 26 20  1  0
  1 29  1  0
  1 30  1  0
  1 31  1  0
  4 32  1  0
  5 33  1  0
  6 34  1  0
  7 35  1  0
 10 36  1  0
 10 37  1  0
 11 38  1  0
 11 39  1  0
 12 40  1  0
 13 41  1  0
 13 42  1  0
 14 43  1  0
 14 44  1  0
 15 45  1  0
 15 46  1  0
 16 47  1  0
 16 48  1  0
 18 49  1  0
 19 50  1  0
 21 51  1  0
 23 52  1  0
 23 53  1  0
 23 54  1  0
 24 55  1  0
 25 56  1  0
 27 57  1  0
 27 58  1  0
 28 59  1  0
 28 60  1  0
M  CHG  1  12   1
M  END
>  <UniqueID>  (40) 
36

>  <SMILES>  (40) 
COc1ccccc1N1CC[NH+](CCCCn2ccc3cc(C)ccc32)CC1

>  <Energy>  (40) 
100.00791264741106

>  <Genealogy>  (40) 
COc1ccccc1N1CC[NH+](CCCCn2ccc3cc(C)ccc32)CC1 (protonated)
COc1ccccc1N1CC[NH+](CCCCn2ccc3cc(C)ccc32)CC1 (3D coordinates assigned)
COc1ccccc1N1CC[NH+](CCCCn2ccc3cc(C)ccc32)CC1 (nonaromatic ring conformer: 100.00791264741106 kcal/mol)

>  <smiles>  (40) 
COc1ccccc1N1CCN(CCCCn2ccc3cc(C)ccc32)CC1

>  <score_type>  (40) 
oracle

>  <origin>  (40) 
adg

>  <m_score__min__energy>  (40) 
-8.3800000000000008

>  <m_primary>  (40) 
energy

$$$$
40:0
     RDKit          3D

 42 44  0  0  0  0  0  0  0  0999 V2000
   -5.5420   20.3790  -33.2100 C   0  0  0  0  0  0  0  0  0  0  0  0
   -6.7730   21.0550  -32.6660 C   0  0  0  0  0  0  0  0  0  0  0  0
   -7.9510   20.3070  -32.5120 C   0  0  0  0  0  0  0  0  0  0  0  0
   -9.1030   20.9060  -32.0080 C   0  0  0  0  0  0  0  0  0  0  0  0
   -9.0770   22.2530  -31.6580 C   0  0  0  0  0  0  0  0  0  0  0  0
   -7.9340   22.9750  -31.8030 N   0  0  0  0  0  0  0  0  0  0  0  0
   -6.7840   22.4230  -32.2930 C   0  0  0  0  0  0  0  0  0  0  0  0
   -5.5680   23.3140  -32.4330 C   0  0  0  0  0  0  0  0  0  0  0  0
   -4.9950   23.6100  -31.1040 N   0  0  0  0  0  0  0  0  0  0  0  0
   -4.9870   22.4080  -30.2450 C   0  0  0  0  0  0  0  0  0  0  0  0
   -4.1860   22.6610  -28.9520 C   0  0  0  0  0  0  0  0  0  0  0  0
   -4.0350   24.1670  -28.6290 C   0  0  0  0  0  0  0  0  0  0  0  0
   -5.3370   24.9130  -28.9770 C   0  0  0  0  0  0  0  0  0  0  0  0
   -5.7490   24.7040  -30.4530 C   0  0  0  0  0  0  0  0  0  0  0  0
   -3.6210   24.4020  -27.1360 C   0  0  0  0  0  0  0  0  0  0  0  0
   -2.3570   25.1200  -27.2040 N   0  0  0  0  0  0  0  0  0  0  0  0
   -1.5630   25.5690  -26.0680 C   0  0  0  0  0  0  0  0  0  0  0  0
   -2.0170   25.2640  -28.5630 C   0  0  0  0  0  0  0  0  0  0  0  0
   -0.9660   25.8260  -28.9700 O   0  0  0  0  0  0  0  0  0  0  0  0
   -2.9610   24.7160  -29.3990 O   0  0  0  0  0  0  0  0  0  0  0  0
   -4.9140   20.0341  -32.3754 H   0  0  0  0  0  0  0  0  0  0  0  0
   -5.8388   19.5173  -33.8260 H   0  0  0  0  0  0  0  0  0  0  0  0
   -4.9742   21.0918  -33.8260 H   0  0  0  0  0  0  0  0  0  0  0  0
   -7.9643   19.2430  -32.7907 H   0  0  0  0  0  0  0  0  0  0  0  0
  -10.0257   20.3195  -31.8875 H   0  0  0  0  0  0  0  0  0  0  0  0
   -9.9836   22.7347  -31.2630 H   0  0  0  0  0  0  0  0  0  0  0  0
   -7.9500   23.9840  -31.5290 H   0  0  0  0  0  0  0  0  0  0  0  0
   -4.8127   22.8034  -33.0485 H   0  0  0  0  0  0  0  0  0  0  0  0
   -5.8684   24.2576  -32.9119 H   0  0  0  0  0  0  0  0  0  0  0  0
   -6.0226   22.1466  -29.9818 H   0  0  0  0  0  0  0  0  0  0  0  0
   -4.5113   21.5843  -30.7976 H   0  0  0  0  0  0  0  0  0  0  0  0
   -4.7052   22.1717  -28.1148 H   0  0  0  0  0  0  0  0  0  0  0  0
   -3.1766   22.2498  -29.1002 H   0  0  0  0  0  0  0  0  0  0  0  0
   -6.1433   24.5416  -28.3274 H   0  0  0  0  0  0  0  0  0  0  0  0
   -5.1638   25.9882  -28.8221 H   0  0  0  0  0  0  0  0  0  0  0  0
   -6.8216   24.4627  -30.4887 H   0  0  0  0  0  0  0  0  0  0  0  0
   -5.5243   25.6334  -30.9968 H   0  0  0  0  0  0  0  0  0  0  0  0
   -4.3799   25.0038  -26.6145 H   0  0  0  0  0  0  0  0  0  0  0  0
   -3.5303   23.4578  -26.5789 H   0  0  0  0  0  0  0  0  0  0  0  0
   -2.0671   25.2839  -25.1328 H   0  0  0  0  0  0  0  0  0  0  0  0
   -0.5691   25.0992  -26.1068 H   0  0  0  0  0  0  0  0  0  0  0  0
   -1.4533   26.6628  -26.1068 H   0  0  0  0  0  0  0  0  0  0  0  0
  1  2  1  0
  2  3  2  0
  3  4  1  0
  4  5  2  0
  5  6  1  0
  6  7  2  0
  7  8  1  0
  8  9  1  0
  9 10  1  0
 10 11  1  0
 11 12  1  0
 12 13  1  0
 13 14  1  0
 12 15  1  0
 15 16  1  0
 16 17  1  0
 16 18  1  0
 18 19  2  0
 18 20  1  0
  7  2  1  0
 14  9  1  0
 20 12  1  0
  1 21  1  0
  1 22  1  0
  1 23  1  0
  3 24  1  0
  4 25  1  0
  5 26  1  0
  6 27  1  0
  8 28  1  0
  8 29  1  0
 10 30  1  0
 10 31  1  0
 11 32  1  0
 11 33  1  0
 13 34  1  0
 13 35  1  0
 14 36  1  0
 14 37  1  0
 15 38  1  0
 15 39  1  0
 17 40  1  0
 17 41  1  0
 17 42  1  0
M  CHG  1   6   1
M  END
>  <UniqueID>  (41) 
37

>  <SMILES>  (41) 
Cc1ccc[nH+]c1CN1CCC2(CC1)CN(C)C(=O)O2

>  <Energy>  (41) 
62.79192829318775

>  <Genealogy>  (41) 
Cc1ccc[nH+]c1CN1CCC2(CC1)CN(C)C(=O)O2 (protonated)
Cc1ccc[nH+]c1CN1CCC2(CC1)CN(C)C(=O)O2 (3D coordinates assigned)
Cc1ccc[nH+]c1CN1CCC2(CC1)CN(C)C(=O)O2 (nonaromatic ring conformer: 62.79192829318775 kcal/mol)

>  <smiles>  (41) 
Cc1cccnc1CN1CCC2(CC1)CN(C)C(=O)O2

>  <score_type>  (41) 
oracle

>  <origin>  (41) 
adg

>  <m_score__min__energy>  (41) 
-7.3300000000000001

>  <m_primary>  (41) 
energy

$$$$
41:0
     RDKit          3D

 40 41  0  0  0  0  0  0  0  0999 V2000
   -2.7090   20.1840  -27.1400 C   0  0  0  0  0  0  0  0  0  0  0  0
   -2.6590   21.3250  -28.0700 N   0  0  0  0  0  0  0  0  0  0  0  0
   -2.6890   20.8320  -29.4560 C   0  0  0  0  0  0  0  0  0  0  0  0
   -1.4550   22.1550  -27.8390 C   0  0  0  0  0  0  0  0  0  0  0  0
   -1.8250   23.6300  -27.6070 C   0  0  0  0  0  0  0  0  0  0  0  0
   -2.4060   24.3060  -28.8570 C   0  0  0  0  0  0  0  0  0  0  0  0
   -3.7060   23.7330  -29.2040 N   0  0  0  0  0  0  0  0  0  0  0  0
   -4.4800   24.1840  -30.3280 C   0  0  0  0  0  0  0  0  0  0  0  0
   -4.2290   25.3020  -30.8510 O   0  0  0  0  0  0  0  0  0  0  0  0
   -5.5430   23.3230  -30.8990 C   0  0  0  0  0  0  0  0  0  0  0  0
   -6.8820   23.3770  -30.5120 C   0  0  0  0  0  0  0  0  0  0  0  0
   -7.5010   22.3570  -31.1950 C   0  0  0  0  0  0  0  0  0  0  0  0
   -8.8270   21.9320  -31.1610 C   0  0  0  0  0  0  0  0  0  0  0  0
   -9.1830   20.8250  -31.9490 C   0  0  0  0  0  0  0  0  0  0  0  0
   -8.2140   20.1700  -32.7370 C   0  0  0  0  0  0  0  0  0  0  0  0
   -6.8800   20.6160  -32.7480 C   0  0  0  0  0  0  0  0  0  0  0  0
   -6.5520   21.7280  -31.9610 C   0  0  0  0  0  0  0  0  0  0  0  0
   -5.3480   22.3210  -31.8020 N   0  0  0  0  0  0  0  0  0  0  0  0
   -4.0820   21.9250  -32.4250 C   0  0  0  0  0  0  0  0  0  0  0  0
   -2.6928   20.5542  -26.1043 H   0  0  0  0  0  0  0  0  0  0  0  0
   -3.6331   19.6122  -27.3106 H   0  0  0  0  0  0  0  0  0  0  0  0
   -1.8385   19.5335  -27.3106 H   0  0  0  0  0  0  0  0  0  0  0  0
   -2.7558   19.7340  -29.4533 H   0  0  0  0  0  0  0  0  0  0  0  0
   -3.5633   21.2513  -29.9755 H   0  0  0  0  0  0  0  0  0  0  0  0
   -1.7703   21.1421  -29.9755 H   0  0  0  0  0  0  0  0  0  0  0  0
   -0.9237   21.7759  -26.9535 H   0  0  0  0  0  0  0  0  0  0  0  0
   -0.8169   22.0951  -28.7330 H   0  0  0  0  0  0  0  0  0  0  0  0
   -2.5721   23.6815  -26.8013 H   0  0  0  0  0  0  0  0  0  0  0  0
   -0.9000   24.1640  -27.3438 H   0  0  0  0  0  0  0  0  0  0  0  0
   -2.5273   25.3816  -28.6612 H   0  0  0  0  0  0  0  0  0  0  0  0
   -1.7150   24.1438  -29.6974 H   0  0  0  0  0  0  0  0  0  0  0  0
   -4.0360   22.9110  -28.6500 H   0  0  0  0  0  0  0  0  0  0  0  0
   -7.3446   24.0856  -29.8092 H   0  0  0  0  0  0  0  0  0  0  0  0
   -9.5720   22.4470  -30.5367 H   0  0  0  0  0  0  0  0  0  0  0  0
  -10.2231   20.4671  -31.9515 H   0  0  0  0  0  0  0  0  0  0  0  0
   -8.5039   19.3027  -33.3484 H   0  0  0  0  0  0  0  0  0  0  0  0
   -6.1174   20.1073  -33.3560 H   0  0  0  0  0  0  0  0  0  0  0  0
   -3.3445   21.6943  -31.6422 H   0  0  0  0  0  0  0  0  0  0  0  0
   -4.2438   21.0345  -33.0502 H   0  0  0  0  0  0  0  0  0  0  0  0
   -3.7075   22.7489  -33.0502 H   0  0  0  0  0  0  0  0  0  0  0  0
  1  2  1  0
  2  3  1  0
  2  4  1  0
  4  5  1  0
  5  6  1  0
  6  7  1  0
  7  8  1  0
  8  9  2  0
  8 10  1  0
 10 11  2  0
 11 12  1  0
 12 13  2  0
 13 14  1  0
 14 15  2  0
 15 16  1  0
 16 17  2  0
 17 18  1  0
 18 19  1  0
 18 10  1  0
 17 12  1  0
  1 20  1  0
  1 21  1  0
  1 22  1  0
  3 23  1  0
  3 24  1  0
  3 25  1  0
  4 26  1  0
  4 27  1  0
  5 28  1  0
  5 29  1  0
  6 30  1  0
  6 31  1  0
  7 32  1  0
 11 33  1  0
 13 34  1  0
 14 35  1  0
 15 36  1  0
 16 37  1  0
 19 38  1  0
 19 39  1  0
 19 40  1  0
M  END
>  <UniqueID>  (42) 
38

>  <SMILES>  (42) 
CN(C)CCCNC(=O)c1cc2ccccc2n1C

>  <Energy>  (42) 
69.6700186979416

>  <Genealogy>  (42) 
CN(C)CCCNC(=O)c1cc2ccccc2n1C (3D coordinates assigned)
CN(C)CCCNC(=O)c1cc2ccccc2n1C (optimized conformer: 69.6700186979416 kcal/mol)

>  <smiles>  (42) 
CN(C)CCCNC(=O)c1cc2ccccc2n1C

>  <score_type>  (42) 
oracle

>  <origin>  (42) 
adg

>  <m_score__min__energy>  (42) 
-7.4800000000000004

>  <m_primary>  (42) 
energy

$$$$
42:0
     RDKit          3D

 58 60  0  0  0  0  0  0  0  0999 V2000
   -3.1790   18.9120  -26.2330 C   0  0  0  0  0  0  0  0  0  0  0  0
   -1.9300   19.5050  -26.8130 C   0  0  0  0  0  0  0  0  0  0  0  0
   -1.3010   18.8950  -27.9090 C   0  0  0  0  0  0  0  0  0  0  0  0
   -0.1560   19.4650  -28.4700 C   0  0  0  0  0  0  0  0  0  0  0  0
    0.3660   20.6520  -27.9470 C   0  0  0  0  0  0  0  0  0  0  0  0
   -0.2580   21.2770  -26.8560 C   0  0  0  0  0  0  0  0  0  0  0  0
    0.2810   22.5710  -26.3090 C   0  0  0  0  0  0  0  0  0  0  0  0
   -0.6300   23.6670  -26.6280 N   0  0  0  0  0  0  0  0  0  0  0  0
   -0.4500   24.5130  -27.7730 C   0  0  0  0  0  0  0  0  0  0  0  0
    0.5530   24.3660  -28.5220 O   0  0  0  0  0  0  0  0  0  0  0  0
   -1.4580   25.5710  -28.0860 C   0  0  0  0  0  0  0  0  0  0  0  0
   -2.0360   25.3010  -29.3440 O   0  0  0  0  0  0  0  0  0  0  0  0
   -2.6140   24.0150  -29.3330 C   0  0  0  0  0  0  0  0  0  0  0  0
   -3.6420   23.9320  -30.4240 C   0  0  0  0  0  0  0  0  0  0  0  0
   -4.2400   24.9880  -30.7700 O   0  0  0  0  0  0  0  0  0  0  0  0
   -3.9440   22.6850  -31.0880 N   0  0  0  0  0  0  0  0  0  0  0  0
   -3.5540   21.4000  -30.4890 C   0  0  0  0  0  0  0  0  0  0  0  0
   -4.2830   20.2370  -31.1680 C   0  0  0  0  0  0  0  0  0  0  0  0
   -4.0800   20.2540  -32.6340 N   0  0  0  0  0  0  0  0  0  0  0  0
   -4.8600   19.2090  -33.3310 C   0  0  0  0  0  0  0  0  0  0  0  0
   -6.3100   19.1680  -32.9040 C   0  0  0  0  0  0  0  0  0  0  0  0
   -7.2270   20.0610  -33.3360 N   0  0  0  0  0  0  0  0  0  0  0  0
   -8.3720   19.6860  -32.7310 C   0  0  0  0  0  0  0  0  0  0  0  0
   -8.1380   18.5790  -31.9480 C   0  0  0  0  0  0  0  0  0  0  0  0
   -6.8390   18.2580  -32.0550 N   0  0  0  0  0  0  0  0  0  0  0  0
   -6.1780   17.1160  -31.4310 C   0  0  0  0  0  0  0  0  0  0  0  0
   -4.1620   21.5910  -33.2770 C   0  0  0  0  0  0  0  0  0  0  0  0
   -4.7060   22.6820  -32.3440 C   0  0  0  0  0  0  0  0  0  0  0  0
   -1.4170   20.7100  -26.3050 C   0  0  0  0  0  0  0  0  0  0  0  0
   -3.1220   18.9390  -25.1348 H   0  0  0  0  0  0  0  0  0  0  0  0
   -4.0509   19.4923  -26.5693 H   0  0  0  0  0  0  0  0  0  0  0  0
   -3.2804   17.8696  -26.5693 H   0  0  0  0  0  0  0  0  0  0  0  0
   -1.7113   17.9643  -28.3279 H   0  0  0  0  0  0  0  0  0  0  0  0
    0.3363   18.9790  -29.3253 H   0  0  0  0  0  0  0  0  0  0  0  0
    1.2682   21.0973  -28.3918 H   0  0  0  0  0  0  0  0  0  0  0  0
    0.3845   22.4897  -25.2169 H   0  0  0  0  0  0  0  0  0  0  0  0
    1.2622   22.7737  -26.7630 H   0  0  0  0  0  0  0  0  0  0  0  0
   -1.4740   23.8000  -26.0260 H   0  0  0  0  0  0  0  0  0  0  0  0
   -2.2413   25.5733  -27.3137 H   0  0  0  0  0  0  0  0  0  0  0  0
   -0.9673   26.5552  -28.1075 H   0  0  0  0  0  0  0  0  0  0  0  0
   -1.8338   23.2585  -29.5031 H   0  0  0  0  0  0  0  0  0  0  0  0
   -3.0901   23.8298  -28.3588 H   0  0  0  0  0  0  0  0  0  0  0  0
   -2.4689   21.2625  -30.6063 H   0  0  0  0  0  0  0  0  0  0  0  0
   -3.8268   21.4117  -29.4234 H   0  0  0  0  0  0  0  0  0  0  0  0
   -3.8980   19.2889  -30.7644 H   0  0  0  0  0  0  0  0  0  0  0  0
   -5.3596   20.3387  -30.9666 H   0  0  0  0  0  0  0  0  0  0  0  0
   -4.8189   19.4043  -34.4127 H   0  0  0  0  0  0  0  0  0  0  0  0
   -4.4136   18.2379  -33.0709 H   0  0  0  0  0  0  0  0  0  0  0  0
   -9.3440   20.1880  -32.8457 H   0  0  0  0  0  0  0  0  0  0  0  0
   -8.8858   18.0490  -31.3398 H   0  0  0  0  0  0  0  0  0  0  0  0
   -6.2341   17.2128  -30.3367 H   0  0  0  0  0  0  0  0  0  0  0  0
   -6.6782   16.1873  -31.7430 H   0  0  0  0  0  0  0  0  0  0  0  0
   -5.1236   17.0872  -31.7430 H   0  0  0  0  0  0  0  0  0  0  0  0
   -3.1534   21.8831  -33.6047 H   0  0  0  0  0  0  0  0  0  0  0  0
   -4.8633   21.5043  -34.1200 H   0  0  0  0  0  0  0  0  0  0  0  0
   -4.6091   23.6627  -32.8327 H   0  0  0  0  0  0  0  0  0  0  0  0
   -5.7653   22.4804  -32.1268 H   0  0  0  0  0  0  0  0  0  0  0  0
   -1.9272   21.2122  -25.4699 H   0  0  0  0  0  0  0  0  0  0  0  0
  1  2  1  0
  2  3  2  0
  3  4  1  0
  4  5  2  0
  5  6  1  0
  6  7  1  0
  7  8  1  0
  8  9  1  0
  9 10  2  0
  9 11  1  0
 11 12  1  0
 12 13  1  0
 13 14  1  0
 14 15  2  0
 14 16  1  0
 16 17  1  0
 17 18  1  0
 18 19  1  0
 19 20  1  0
 20 21  1  0
 21 22  2  0
 22 23  1  0
 23 24  2  0
 24 25  1  0
 25 26  1  0
 19 27  1  0
 27 28  1  0
  6 29  2  0
 29  2  1  0
 28 16  1  0
 25 21  1  0
  1 30  1  0
  1 31  1  0
  1 32  1  0
  3 33  1  0
  4 34  1  0
  5 35  1  0
  7 36  1  0
  7 37  1  0
  8 38  1  0
 11 39  1  0
 11 40  1  0
 13 41  1  0
 13 42  1  0
 17 43  1  0
 17 44  1  0
 18 45  1  0
 18 46  1  0
 20 47  1  0
 20 48  1  0
 23 49  1  0
 24 50  1  0
 26 51  1  0
 26 52  1  0
 26 53  1  0
 27 54  1  0
 27 55  1  0
 28 56  1  0
 28 57  1  0
 29 58  1  0
M  END
>  <UniqueID>  (43) 
39

>  <SMILES>  (43) 
Cc1cccc(CNC(=O)COCC(=O)N2CCN(Cc3nccn3C)CC2)c1

>  <Energy>  (43) 
90.77269201989314

>  <Genealogy>  (43) 
Cc1cccc(CNC(=O)COCC(=O)N2CCN(Cc3nccn3C)CC2)c1 (3D coordinates assigned)
Cc1cccc(CNC(=O)COCC(=O)N2CCN(Cc3nccn3C)CC2)c1 (nonaromatic ring conformer: 90.77269201989314 kcal/mol)

>  <smiles>  (43) 
Cc1cccc(CNC(=O)COCC(=O)N2CCN(Cc3nccn3C)CC2)c1

>  <score_type>  (43) 
oracle

>  <origin>  (43) 
adg

>  <m_score__min__energy>  (43) 
-8.7899999999999991

>  <m_primary>  (43) 
energy

$$$$
43:0
     RDKit          3D

 53 56  0  0  0  0  0  0  0  0999 V2000
   -7.9300   22.7370  -32.1160 C   0  0  0  0  0  0  0  0  0  0  0  0
   -7.6090   23.3630  -30.7640 C   0  0  0  0  0  0  0  0  0  0  0  0
   -6.1960   23.7390  -30.7000 N   0  0  0  0  0  0  0  0  0  0  0  0
   -5.7170   24.9910  -30.5050 C   0  0  0  0  0  0  0  0  0  0  0  0
   -4.3280   24.9770  -30.4320 C   0  0  0  0  0  0  0  0  0  0  0  0
   -3.9700   23.6530  -30.5790 C   0  0  0  0  0  0  0  0  0  0  0  0
   -2.7130   23.0540  -30.5660 C   0  0  0  0  0  0  0  0  0  0  0  0
   -2.6460   21.6540  -30.7210 C   0  0  0  0  0  0  0  0  0  0  0  0
   -1.0940   20.8250  -30.6910 S   0  0  0  0  0  0  0  0  0  0  0  0
   -0.1230   21.6560  -29.8970 O   0  0  0  0  0  0  0  0  0  0  0  0
   -1.2450   19.4880  -30.0190 O   0  0  0  0  0  0  0  0  0  0  0  0
   -0.5230   20.6230  -32.3330 N   0  0  0  0  0  0  0  0  0  0  0  0
   -1.3530   21.3850  -33.3000 C   0  0  0  0  0  0  0  0  0  0  0  0
   -2.2410   20.5010  -34.1930 C   0  0  0  0  0  0  0  0  0  0  0  0
   -2.7010   19.3310  -33.4420 N   0  0  0  0  0  0  0  0  0  0  0  0
   -4.1060   19.0460  -33.2840 C   0  0  0  0  0  0  0  0  0  0  0  0
   -4.5250   17.8320  -32.7150 C   0  0  0  0  0  0  0  0  0  0  0  0
   -5.8860   17.5630  -32.5460 C   0  0  0  0  0  0  0  0  0  0  0  0
   -6.8510   18.5000  -32.9330 C   0  0  0  0  0  0  0  0  0  0  0  0
   -8.2030   18.1820  -32.7400 O   0  0  0  0  0  0  0  0  0  0  0  0
   -9.1050   18.9530  -31.9520 C   0  0  0  0  0  0  0  0  0  0  0  0
   -6.4340   19.7210  -33.4940 C   0  0  0  0  0  0  0  0  0  0  0  0
   -5.0730   19.9910  -33.6660 C   0  0  0  0  0  0  0  0  0  0  0  0
   -1.6970   18.4660  -32.8120 C   0  0  0  0  0  0  0  0  0  0  0  0
   -0.3500   19.1980  -32.6820 C   0  0  0  0  0  0  0  0  0  0  0  0
   -3.8350   20.9020  -30.8720 C   0  0  0  0  0  0  0  0  0  0  0  0
   -5.0900   21.5370  -30.8790 C   0  0  0  0  0  0  0  0  0  0  0  0
   -5.1210   22.9260  -30.7330 C   0  0  0  0  0  0  0  0  0  0  0  0
   -8.4270   21.7678  -31.9626 H   0  0  0  0  0  0  0  0  0  0  0  0
   -8.5965   23.4055  -32.6806 H   0  0  0  0  0  0  0  0  0  0  0  0
   -6.9981   22.5859  -32.6806 H   0  0  0  0  0  0  0  0  0  0  0  0
   -8.2298   24.2601  -30.6231 H   0  0  0  0  0  0  0  0  0  0  0  0
   -7.8200   22.6299  -29.9715 H   0  0  0  0  0  0  0  0  0  0  0  0
   -6.3399   25.8933  -30.4167 H   0  0  0  0  0  0  0  0  0  0  0  0
   -3.6583   25.8377  -30.2879 H   0  0  0  0  0  0  0  0  0  0  0  0
   -1.8002   23.6545  -30.4387 H   0  0  0  0  0  0  0  0  0  0  0  0
   -2.0028   22.0692  -32.7347 H   0  0  0  0  0  0  0  0  0  0  0  0
   -0.6584   21.9163  -33.9672 H   0  0  0  0  0  0  0  0  0  0  0  0
   -3.1117   21.0826  -34.5302 H   0  0  0  0  0  0  0  0  0  0  0  0
   -1.6569   20.1647  -35.0624 H   0  0  0  0  0  0  0  0  0  0  0  0
   -3.7776   17.0887  -32.4006 H   0  0  0  0  0  0  0  0  0  0  0  0
   -6.2017   16.6061  -32.1048 H   0  0  0  0  0  0  0  0  0  0  0  0
   -8.9011   18.7787  -30.8852 H   0  0  0  0  0  0  0  0  0  0  0  0
   -8.9717   20.0206  -32.1811 H   0  0  0  0  0  0  0  0  0  0  0  0
  -10.1388   18.6551  -32.1811 H   0  0  0  0  0  0  0  0  0  0  0  0
   -7.1826   20.4671  -33.7989 H   0  0  0  0  0  0  0  0  0  0  0  0
   -4.7572   20.9497  -34.1033 H   0  0  0  0  0  0  0  0  0  0  0  0
   -2.0480   18.1760  -31.8107 H   0  0  0  0  0  0  0  0  0  0  0  0
   -1.5549   17.5747  -33.4407 H   0  0  0  0  0  0  0  0  0  0  0  0
    0.2444   18.7099  -31.8956 H   0  0  0  0  0  0  0  0  0  0  0  0
    0.1583   19.1473  -33.6562 H   0  0  0  0  0  0  0  0  0  0  0  0
   -3.7773   19.8094  -30.9851 H   0  0  0  0  0  0  0  0  0  0  0  0
   -6.0180   20.9581  -30.9958 H   0  0  0  0  0  0  0  0  0  0  0  0
  1  2  1  0
  2  3  1  0
  3  4  1  0
  4  5  2  0
  5  6  1  0
  6  7  2  0
  7  8  1  0
  8  9  1  0
  9 10  2  0
  9 11  2  0
  9 12  1  0
 12 13  1  0
 13 14  1  0
 14 15  1  0
 15 16  1  0
 16 17  2  0
 17 18  1  0
 18 19  2  0
 19 20  1  0
 20 21  1  0
 19 22  1  0
 22 23  2  0
 15 24  1  0
 24 25  1  0
  8 26  2  0
 26 27  1  0
 27 28  2  0
 28  3  1  0
 28  6  1  0
 25 12  1  0
 23 16  1  0
  1 29  1  0
  1 30  1  0
  1 31  1  0
  2 32  1  0
  2 33  1  0
  4 34  1  0
  5 35  1  0
  7 36  1  0
 13 37  1  0
 13 38  1  0
 14 39  1  0
 14 40  1  0
 17 41  1  0
 18 42  1  0
 21 43  1  0
 21 44  1  0
 21 45  1  0
 22 46  1  0
 23 47  1  0
 24 48  1  0
 24 49  1  0
 25 50  1  0
 25 51  1  0
 26 52  1  0
 27 53  1  0
M  END
>  <UniqueID>  (44) 
40

>  <SMILES>  (44) 
CCn1ccc2cc(S(=O)(=O)N3CCN(c4ccc(OC)cc4)CC3)ccc21

>  <Energy>  (44) 
95.45825904380732

>  <Genealogy>  (44) 
CCn1ccc2cc(S(=O)(=O)N3CCN(c4ccc(OC)cc4)CC3)ccc21 (3D coordinates assigned)
CCn1ccc2cc(S(=O)(=O)N3CCN(c4ccc(OC)cc4)CC3)ccc21 (nonaromatic ring conformer: 95.45825904380732 kcal/mol)

>  <smiles>  (44) 
CCn1ccc2cc(S(=O)(=O)N3CCN(c4ccc(OC)cc4)CC3)ccc21

>  <score_type>  (44) 
oracle

>  <origin>  (44) 
adg

>  <m_score__min__energy>  (44) 
-9.1699999999999999

>  <m_primary>  (44) 
energy

$$$$
44:0
     RDKit          3D

 46 48  0  0  0  0  0  0  0  0999 V2000
   -4.8203   26.6262  -29.7245 H   0  0  0  0  0  0  0  0  0  0  0  0
   -4.7600   25.6650  -30.2560 C   0  0  0  0  0  0  0  0  0  0  0  0
   -3.6380   24.9110  -30.1590 N   0  0  0  0  0  0  0  0  0  0  0  0
   -3.5210   23.7160  -30.7950 C   0  0  0  0  0  0  0  0  0  0  0  0
   -2.3460   22.9730  -30.6570 C   0  0  0  0  0  0  0  0  0  0  0  0
   -1.5228   23.3602  -30.0386 H   0  0  0  0  0  0  0  0  0  0  0  0
   -2.2120   21.7420  -31.3000 C   0  0  0  0  0  0  0  0  0  0  0  0
   -1.2830   21.1648  -31.1827 H   0  0  0  0  0  0  0  0  0  0  0  0
   -3.2520   21.2320  -32.0960 C   0  0  0  0  0  0  0  0  0  0  0  0
   -3.1110   19.9620  -32.7600 N   0  0  0  0  0  0  0  0  0  0  0  0
   -2.3650   19.0780  -32.2910 O   0  0  0  0  0  0  0  0  0  0  0  0
   -3.7970   19.7000  -33.9230 O   0  0  0  0  0  0  0  0  0  0  0  0
   -4.4350   21.9800  -32.2370 C   0  0  0  0  0  0  0  0  0  0  0  0
   -5.2538   21.5888  -32.8588 H   0  0  0  0  0  0  0  0  0  0  0  0
   -4.5850   23.2260  -31.5910 C   0  0  0  0  0  0  0  0  0  0  0  0
   -5.7590   24.0050  -31.7220 C   0  0  0  0  0  0  0  0  0  0  0  0
   -6.7510   23.5570  -32.4480 N   0  0  0  0  0  0  0  0  0  0  0  0
   -7.5740   22.4060  -32.2000 C   0  0  0  0  0  0  0  0  0  0  0  0
   -8.6540   22.5190  -31.3160 C   0  0  0  0  0  0  0  0  0  0  0  0
   -8.8948   23.4942  -30.8676 H   0  0  0  0  0  0  0  0  0  0  0  0
   -9.4270   21.3990  -31.0010 C   0  0  0  0  0  0  0  0  0  0  0  0
  -10.2798   21.4963  -30.3130 H   0  0  0  0  0  0  0  0  0  0  0  0
   -9.1190   20.1560  -31.5580 C   0  0  0  0  0  0  0  0  0  0  0  0
   -9.7307   19.2773  -31.3056 H   0  0  0  0  0  0  0  0  0  0  0  0
   -8.0350   20.0210  -32.4370 C   0  0  0  0  0  0  0  0  0  0  0  0
   -7.7110   18.7250  -32.9680 N   0  0  0  0  0  0  0  0  0  0  0  0
   -8.3290   18.3310  -33.7130 H   0  0  0  0  0  0  0  0  0  0  0  0
   -6.5460   17.9740  -32.5900 C   0  0  0  0  0  0  0  0  0  0  0  0
   -5.5910   18.5330  -31.9860 O   0  0  0  0  0  0  0  0  0  0  0  0
   -6.4560   16.5100  -32.9100 C   0  0  0  0  0  0  0  0  0  0  0  0
   -7.4655   16.1280  -33.1219 H   0  0  0  0  0  0  0  0  0  0  0  0
   -6.0153   15.9945  -32.0440 H   0  0  0  0  0  0  0  0  0  0  0  0
   -5.5550   16.2520  -34.1360 C   0  0  0  0  0  0  0  0  0  0  0  0
   -6.0451   15.4877  -34.7570 H   0  0  0  0  0  0  0  0  0  0  0  0
   -5.3870   17.5170  -34.9910 C   0  0  0  0  0  0  0  0  0  0  0  0
   -5.2709   18.3912  -34.3335 H   0  0  0  0  0  0  0  0  0  0  0  0
   -4.4946   17.4146  -35.6259 H   0  0  0  0  0  0  0  0  0  0  0  0
   -6.2752   17.6511  -35.6259 H   0  0  0  0  0  0  0  0  0  0  0  0
   -4.1830   15.7380  -33.6840 C   0  0  0  0  0  0  0  0  0  0  0  0
   -4.1412   15.7223  -32.5849 H   0  0  0  0  0  0  0  0  0  0  0  0
   -4.0268   14.7204  -34.0714 H   0  0  0  0  0  0  0  0  0  0  0  0
   -3.3967   16.4025  -34.0714 H   0  0  0  0  0  0  0  0  0  0  0  0
   -7.2430   21.1470  -32.7270 C   0  0  0  0  0  0  0  0  0  0  0  0
   -6.3579   21.0405  -33.3713 H   0  0  0  0  0  0  0  0  0  0  0  0
   -5.8380   25.2300  -31.0250 C   0  0  0  0  0  0  0  0  0  0  0  0
   -6.7503   25.8413  -31.0888 H   0  0  0  0  0  0  0  0  0  0  0  0
  1  2  1  0
  2  3  1  0
  3  4  1  0
  4  5  2  0
  5  6  1  0
  5  7  1  0
  7  8  1  0
  7  9  2  0
  9 10  1  0
 10 11  2  0
 10 12  1  0
  9 13  1  0
 13 14  1  0
 13 15  2  0
 15 16  1  0
 16 17  2  0
 17 18  1  0
 18 19  2  0
 19 20  1  0
 19 21  1  0
 21 22  1  0
 21 23  2  0
 23 24  1  0
 23 25  1  0
 25 26  1  0
 26 27  1  0
 26 28  1  0
 28 29  2  0
 28 30  1  0
 30 31  1  0
 30 32  1  0
 30 33  1  0
 33 34  1  0
 33 35  1  0
 35 36  1  0
 35 37  1  0
 35 38  1  0
 33 39  1  0
 39 40  1  0
 39 41  1  0
 39 42  1  0
 25 43  2  0
 43 44  1  0
 16 45  1  0
 45 46  1  0
 45  2  2  0
 15  4  1  0
 43 18  1  0
M  CHG  3   3  -1  10   1  12  -1
M  END
>  <UniqueID>  (45) 
41

>  <SMILES>  (45) 
CC(C)CC(=O)Nc1cccc(/N=c2\cc[n-]c3ccc([N+](=O)[O-])cc23)c1

>  <Energy>  (45) 
60.037654453061684

>  <Genealogy>  (45) 
CC(C)CC(=O)Nc1cccc(N=c2cc[n-]c3ccc([N+](=O)[O-])cc23)c1 (protonated)
CC(C)CC(=O)Nc1cccc(/N=c2\cc[n-]c3ccc([N+](=O)[O-])cc23)c1 (cis-trans isomerization)
CC(C)CC(=O)Nc1cccc(/N=c2\cc[n-]c3ccc([N+](=O)[O-])cc23)c1 (3D coordinates assigned)
CC(C)CC(=O)Nc1cccc(/N=c2\cc[n-]c3ccc([N+](=O)[O-])cc23)c1 (optimized conformer: 60.037654453061684 kcal/mol)

>  <smiles>  (45) 
CC(C)CC(=O)Nc1cccc(N=c2cc[nH]c3ccc([N+](=O)[O-])cc23)c1

>  <score_type>  (45) 
oracle

>  <origin>  (45) 
adg

>  <m_score__min__energy>  (45) 
-10.68

>  <m_primary>  (45) 
energy

$$$$
45:0
     RDKit          3D

 45 48  0  0  0  0  0  0  0  0999 V2000
   -6.5610   25.5720  -29.5940 C   0  0  0  0  0  0  0  0  0  0  0  0
   -5.4200   24.7520  -30.0950 C   0  0  0  0  0  0  0  0  0  0  0  0
   -5.3370   23.3770  -30.0630 C   0  0  0  0  0  0  0  0  0  0  0  0
   -4.0780   23.1220  -30.5620 C   0  0  0  0  0  0  0  0  0  0  0  0
   -3.4450   21.7580  -30.7350 C   0  0  1  0  0  0  0  0  0  0  0  0
   -2.3750   21.8060  -31.8200 C   0  0  0  0  0  0  0  0  0  0  0  0
   -1.0700   22.0520  -31.0760 C   0  0  0  0  0  0  0  0  0  0  0  0
   -1.3870   21.8340  -29.5990 C   0  0  0  0  0  0  0  0  0  0  0  0
   -2.7460   21.2840  -29.5280 N   0  0  0  0  0  0  0  0  0  0  0  0
   -3.4380   21.5660  -28.2540 C   0  0  0  0  0  0  0  0  0  0  0  0
   -2.5670   22.4210  -27.3730 C   0  0  0  0  0  0  0  0  0  0  0  0
   -2.7190   23.8150  -27.3590 C   0  0  0  0  0  0  0  0  0  0  0  0
   -1.8860   24.6080  -26.5640 C   0  0  0  0  0  0  0  0  0  0  0  0
   -0.8810   24.0200  -25.7770 C   0  0  0  0  0  0  0  0  0  0  0  0
    0.0080   24.8500  -24.9340 C   0  0  0  0  0  0  0  0  0  0  0  0
    1.3600   24.8320  -24.9970 N   0  0  0  0  0  0  0  0  0  0  0  0
    1.9290   25.6980  -24.1010 C   0  0  0  0  0  0  0  0  0  0  0  0
    3.4080   25.8780  -24.0200 C   0  0  0  0  0  0  0  0  0  0  0  0
    1.0760   26.4250  -23.3310 N   0  0  0  0  0  0  0  0  0  0  0  0
   -0.4520   25.9560  -23.7700 S   0  0  0  0  0  0  0  0  0  0  0  0
   -0.7250   22.6230  -25.8040 C   0  0  0  0  0  0  0  0  0  0  0  0
   -1.5580   21.8310  -26.5980 C   0  0  0  0  0  0  0  0  0  0  0  0
   -3.4920   24.2640  -30.8400 O   0  0  0  0  0  0  0  0  0  0  0  0
   -4.2690   25.2700  -30.5650 N   0  0  0  0  0  0  0  0  0  0  0  0
   -6.5586   25.5703  -28.4940 H   0  0  0  0  0  0  0  0  0  0  0  0
   -6.4587   26.6045  -29.9593 H   0  0  0  0  0  0  0  0  0  0  0  0
   -7.5070   25.1459  -29.9593 H   0  0  0  0  0  0  0  0  0  0  0  0
   -6.0940   22.6559  -29.7212 H   0  0  0  0  0  0  0  0  0  0  0  0
   -4.2801   21.0851  -30.9795 H   0  0  0  0  0  0  0  0  0  0  0  0
   -2.3349   20.8518  -32.3659 H   0  0  0  0  0  0  0  0  0  0  0  0
   -2.5786   22.5877  -32.5666 H   0  0  0  0  0  0  0  0  0  0  0  0
   -0.2984   21.3432  -31.4110 H   0  0  0  0  0  0  0  0  0  0  0  0
   -0.6821   23.0644  -31.2621 H   0  0  0  0  0  0  0  0  0  0  0  0
   -0.6694   21.1257  -29.1592 H   0  0  0  0  0  0  0  0  0  0  0  0
   -1.3160   22.7781  -29.0389 H   0  0  0  0  0  0  0  0  0  0  0  0
   -4.3793   22.0964  -28.4604 H   0  0  0  0  0  0  0  0  0  0  0  0
   -3.6495   20.6166  -27.7403 H   0  0  0  0  0  0  0  0  0  0  0  0
   -3.4974   24.2869  -27.9765 H   0  0  0  0  0  0  0  0  0  0  0  0
   -2.0182   25.7000  -26.5544 H   0  0  0  0  0  0  0  0  0  0  0  0
    3.7156   25.9154  -22.9645 H   0  0  0  0  0  0  0  0  0  0  0  0
    3.9079   25.0341  -24.5179 H   0  0  0  0  0  0  0  0  0  0  0  0
    3.6909   26.8172  -24.5179 H   0  0  0  0  0  0  0  0  0  0  0  0
    1.3330   27.1370  -22.6110 H   0  0  0  0  0  0  0  0  0  0  0  0
    0.0593   22.1498  -25.1950 H   0  0  0  0  0  0  0  0  0  0  0  0
   -1.4219   20.7396  -26.6154 H   0  0  0  0  0  0  0  0  0  0  0  0
  1  2  1  0
  2  3  1  0
  3  4  2  0
  4  5  1  0
  5  6  1  0
  6  7  1  0
  7  8  1  0
  8  9  1  0
  9 10  1  0
 10 11  1  0
 11 12  2  0
 12 13  1  0
 13 14  2  0
 14 15  1  0
 15 16  2  0
 16 17  1  0
 17 18  1  0
 17 19  2  0
 19 20  1  0
 14 21  1  0
 21 22  2  0
  4 23  1  0
 23 24  1  0
 24  2  2  0
  9  5  1  0
 22 11  1  0
 20 15  1  0
  1 25  1  0
  1 26  1  0
  1 27  1  0
  3 28  1  0
  5 29  1  6
  6 30  1  0
  6 31  1  0
  7 32  1  0
  7 33  1  0
  8 34  1  0
  8 35  1  0
 10 36  1  0
 10 37  1  0
 12 38  1  0
 13 39  1  0
 18 40  1  0
 18 41  1  0
 18 42  1  0
 19 43  1  0
 21 44  1  0
 22 45  1  0
M  CHG  1  19   1
M  END
>  <UniqueID>  (46) 
42

>  <SMILES>  (46) 
Cc1cc([C@H]2CCCN2Cc2ccc(-c3nc(C)[nH+]s3)cc2)on1

>  <Energy>  (46) 
118.68815602201013

>  <Genealogy>  (46) 
Cc1cc(C2CCCN2Cc2ccc(-c3nc(C)[nH+]s3)cc2)on1 (protonated)
Cc1cc([C@H]2CCCN2Cc2ccc(-c3nc(C)[nH+]s3)cc2)on1 (chirality)
Cc1cc([C@H]2CCCN2Cc2ccc(-c3nc(C)[nH+]s3)cc2)on1 (3D coordinates assigned)
Cc1cc([C@H]2CCCN2Cc2ccc(-c3nc(C)[nH+]s3)cc2)on1 (nonaromatic ring conformer: 118.68815602201013 kcal/mol)

>  <smiles>  (46) 
Cc1cc(C2CCCN2Cc2ccc(-c3nc(C)ns3)cc2)on1

>  <score_type>  (46) 
oracle

>  <origin>  (46) 
adg

>  <m_score__min__energy>  (46) 
-8.6500000000000004

>  <m_primary>  (46) 
energy

$$$$
46:0
     RDKit          3D

 44 45  0  0  0  0  0  0  0  0999 V2000
   -7.2310   25.2710  -29.8070 C   0  0  0  0  0  0  0  0  0  0  0  0
   -6.0670   24.7050  -30.4940 N   0  0  0  0  0  0  0  0  0  0  0  0
   -6.2220   24.1470  -31.8400 C   0  0  0  0  0  0  0  0  0  0  0  0
   -7.1020   22.9260  -31.8270 C   0  0  0  0  0  0  0  0  0  0  0  0
   -8.4930   23.0500  -31.9690 C   0  0  0  0  0  0  0  0  0  0  0  0
   -9.3070   21.9130  -31.9690 C   0  0  0  0  0  0  0  0  0  0  0  0
   -8.7380   20.6440  -31.8270 C   0  0  0  0  0  0  0  0  0  0  0  0
   -7.3540   20.5120  -31.6860 C   0  0  0  0  0  0  0  0  0  0  0  0
   -6.5370   21.6470  -31.6900 C   0  0  0  0  0  0  0  0  0  0  0  0
   -4.7990   24.6190  -29.8260 C   0  0  0  0  0  0  0  0  0  0  0  0
   -3.8150   25.2610  -30.2830 O   0  0  0  0  0  0  0  0  0  0  0  0
   -4.6390   23.8270  -28.5480 C   0  0  0  0  0  0  0  0  0  0  0  0
   -3.7780   24.4870  -27.5250 N   0  0  1  0  0  0  0  0  0  0  0  0
   -4.5930   24.9140  -26.3650 C   0  0  0  0  0  0  0  0  0  0  0  0
   -2.5790   23.6510  -27.1700 C   0  0  1  0  0  0  0  0  0  0  0  0
   -2.2070   22.6770  -28.3280 C   0  0  0  0  0  0  0  0  0  0  0  0
   -1.3410   23.4110  -29.3560 C   0  0  0  0  0  0  0  0  0  0  0  0
   -0.5310   24.7040  -28.4650 S   0  0  0  0  0  0  0  0  0  0  0  0
    0.9590   24.5060  -28.4090 O   0  0  0  0  0  0  0  0  0  0  0  0
   -0.8680   26.0560  -29.0300 O   0  0  0  0  0  0  0  0  0  0  0  0
   -1.2820   24.4490  -26.8900 C   0  0  0  0  0  0  0  0  0  0  0  0
   -7.0850   25.2000  -28.7190 H   0  0  0  0  0  0  0  0  0  0  0  0
   -7.3481   26.3267  -30.0931 H   0  0  0  0  0  0  0  0  0  0  0  0
   -8.1337   24.7112  -30.0931 H   0  0  0  0  0  0  0  0  0  0  0  0
   -6.6740   24.9077  -32.4935 H   0  0  0  0  0  0  0  0  0  0  0  0
   -5.2287   23.8555  -32.2119 H   0  0  0  0  0  0  0  0  0  0  0  0
   -8.9450   24.0466  -32.0808 H   0  0  0  0  0  0  0  0  0  0  0  0
  -10.3963   22.0172  -32.0809 H   0  0  0  0  0  0  0  0  0  0  0  0
   -9.3791   19.7502  -31.8263 H   0  0  0  0  0  0  0  0  0  0  0  0
   -6.9064   19.5137  -31.5717 H   0  0  0  0  0  0  0  0  0  0  0  0
   -5.4474   21.5379  -31.5854 H   0  0  0  0  0  0  0  0  0  0  0  0
   -5.6365   23.6713  -28.1112 H   0  0  0  0  0  0  0  0  0  0  0  0
   -4.1416   22.8843  -28.8199 H   0  0  0  0  0  0  0  0  0  0  0  0
   -3.4310   25.3760  -27.9600 H   0  0  0  0  0  0  0  0  0  0  0  0
   -4.0751   24.6427  -25.4333 H   0  0  0  0  0  0  0  0  0  0  0  0
   -4.7379   26.0039  -26.4000 H   0  0  0  0  0  0  0  0  0  0  0  0
   -5.5715   24.4127  -26.4000 H   0  0  0  0  0  0  0  0  0  0  0  0
   -2.9003   23.1378  -26.2516 H   0  0  0  0  0  0  0  0  0  0  0  0
   -1.6476   21.8214  -27.9217 H   0  0  0  0  0  0  0  0  0  0  0  0
   -3.1262   22.3176  -28.8136 H   0  0  0  0  0  0  0  0  0  0  0  0
   -0.6008   22.7249  -29.7934 H   0  0  0  0  0  0  0  0  0  0  0  0
   -1.9447   23.8070  -30.1859 H   0  0  0  0  0  0  0  0  0  0  0  0
   -0.6119   23.8742  -26.2339 H   0  0  0  0  0  0  0  0  0  0  0  0
   -1.4924   25.4012  -26.3810 H   0  0  0  0  0  0  0  0  0  0  0  0
  1  2  1  0
  2  3  1  0
  3  4  1  0
  4  5  2  0
  5  6  1  0
  6  7  2  0
  7  8  1  0
  8  9  2  0
  2 10  1  0
 10 11  2  0
 10 12  1  0
 12 13  1  0
 13 14  1  0
 13 15  1  0
 15 16  1  0
 16 17  1  0
 17 18  1  0
 18 19  2  0
 18 20  2  0
 18 21  1  0
  9  4  1  0
 21 15  1  0
  1 22  1  0
  1 23  1  0
  1 24  1  0
  3 25  1  0
  3 26  1  0
  5 27  1  0
  6 28  1  0
  7 29  1  0
  8 30  1  0
  9 31  1  0
 12 32  1  0
 12 33  1  0
 13 34  1  6
 14 35  1  0
 14 36  1  0
 14 37  1  0
 15 38  1  1
 16 39  1  0
 16 40  1  0
 17 41  1  0
 17 42  1  0
 21 43  1  0
 21 44  1  0
M  CHG  1  13   1
M  END
>  <UniqueID>  (47) 
43

>  <SMILES>  (47) 
CN(Cc1ccccc1)C(=O)C[N@@H+](C)[C@H]1CCS(=O)(=O)C1

>  <Energy>  (47) 
55.51798633959861

>  <Genealogy>  (47) 
CN(Cc1ccccc1)C(=O)C[NH+](C)C1CCS(=O)(=O)C1 (protonated)
CN(Cc1ccccc1)C(=O)C[N@@H+](C)[C@H]1CCS(=O)(=O)C1 (chirality)
CN(Cc1ccccc1)C(=O)C[N@@H+](C)[C@H]1CCS(=O)(=O)C1 (3D coordinates assigned)
CN(Cc1ccccc1)C(=O)C[N@@H+](C)[C@H]1CCS(=O)(=O)C1 (nonaromatic ring conformer: 55.51798633959861 kcal/mol)

>  <smiles>  (47) 
CN(Cc1ccccc1)C(=O)CN(C)C1CCS(=O)(=O)C1

>  <score_type>  (47) 
oracle

>  <origin>  (47) 
adg

>  <m_score__min__energy>  (47) 
-7.7800000000000002

>  <m_primary>  (47) 
energy

$$$$
47:0
     RDKit          3D

 26 28  0  0  0  0  0  0  0  0999 V2000
   -0.4830   26.8900  -25.4460 C   0  0  0  0  0  0  0  0  0  0  0  0
    0.4620   26.4720  -26.5650 C   0  0  0  0  0  0  0  0  0  0  0  0
   -0.2400   25.6330  -27.5300 N   0  0  0  0  0  0  0  0  0  0  0  0
   -1.5600   25.6700  -27.7950 C   0  0  0  0  0  0  0  0  0  0  0  0
   -1.8310   24.6800  -28.7160 C   0  0  0  0  0  0  0  0  0  0  0  0
   -3.1350   24.3410  -29.2980 C   0  0  0  0  0  0  0  0  0  0  0  0
   -3.6070   24.9260  -30.4320 N   0  0  0  0  0  0  0  0  0  0  0  0
   -4.7970   24.3300  -30.5890 C   0  0  0  0  0  0  0  0  0  0  0  0
   -5.7340   24.5380  -31.5960 C   0  0  0  0  0  0  0  0  0  0  0  0
   -6.9170   23.7780  -31.5340 C   0  0  0  0  0  0  0  0  0  0  0  0
   -7.1110   22.8800  -30.5160 N   0  0  0  0  0  0  0  0  0  0  0  0
   -6.1790   22.6880  -29.5340 C   0  0  0  0  0  0  0  0  0  0  0  0
   -5.0090   23.4360  -29.5910 C   0  0  0  0  0  0  0  0  0  0  0  0
   -3.9670   23.4170  -28.7480 N   0  0  0  0  0  0  0  0  0  0  0  0
   -0.6170   24.0660  -28.9640 C   0  0  0  0  0  0  0  0  0  0  0  0
    0.3370   24.6630  -28.2220 N   0  0  0  0  0  0  0  0  0  0  0  0
   -0.0137   26.6824  -24.4730 H   0  0  0  0  0  0  0  0  0  0  0  0
   -0.6956   27.9661  -25.5284 H   0  0  0  0  0  0  0  0  0  0  0  0
   -1.4222   26.3234  -25.5284 H   0  0  0  0  0  0  0  0  0  0  0  0
    0.8428   27.3700  -27.0735 H   0  0  0  0  0  0  0  0  0  0  0  0
    1.2980   25.9014  -26.1344 H   0  0  0  0  0  0  0  0  0  0  0  0
   -2.2907   26.3651  -27.3557 H   0  0  0  0  0  0  0  0  0  0  0  0
   -5.5583   25.2635  -32.4040 H   0  0  0  0  0  0  0  0  0  0  0  0
   -7.6900   23.9050  -32.3062 H   0  0  0  0  0  0  0  0  0  0  0  0
   -6.3500   21.9638  -28.7239 H   0  0  0  0  0  0  0  0  0  0  0  0
   -0.4558   23.2258  -29.6554 H   0  0  0  0  0  0  0  0  0  0  0  0
  1  2  1  0
  2  3  1  0
  3  4  1  0
  4  5  2  0
  5  6  1  0
  6  7  2  0
  7  8  1  0
  8  9  2  0
  9 10  1  0
 10 11  2  0
 11 12  1  0
 12 13  2  0
 13 14  1  0
  5 15  1  0
 15 16  2  0
 16  3  1  0
 14  6  1  0
 13  8  1  0
  1 17  1  0
  1 18  1  0
  1 19  1  0
  2 20  1  0
  2 21  1  0
  4 22  1  0
  9 23  1  0
 10 24  1  0
 12 25  1  0
 15 26  1  0
M  CHG  1  14  -1
M  END
>  <UniqueID>  (48) 
44

>  <SMILES>  (48) 
CCn1cc(-c2nc3ccncc3[n-]2)cn1

>  <Energy>  (48) 
90.23749799250503

>  <Genealogy>  (48) 
CCn1cc(-c2nc3ccncc3[n-]2)cn1 (protonated)
CCn1cc(-c2nc3ccncc3[n-]2)cn1 (3D coordinates assigned)
CCn1cc(-c2nc3ccncc3[n-]2)cn1 (optimized conformer: 90.23749799250503 kcal/mol)

>  <smiles>  (48) 
CCn1cc(-c2nc3ccncc3[nH]2)cn1

>  <score_type>  (48) 
oracle

>  <origin>  (48) 
adg

>  <m_score__min__energy>  (48) 
-6.4800000000000004

>  <m_primary>  (48) 
energy

$$$$
