0:0
     RDKit          3D

 63 63  0  0  0  0  0  0  0  0999 V2000
   -1.4215   23.5405  -29.4845 H   0  0  0  0  0  0  0  0  0  0  0  0
   -1.9630   24.4610  -29.2210 C   0  0  0  0  0  0  0  0  0  0  0  0
   -1.3080   25.5450  -28.9920 N   0  0  0  0  0  0  0  0  0  0  0  0
   -0.9290   25.9340  -27.6550 C   0  0  0  0  0  0  0  0  0  0  0  0
   -1.5032   25.3446  -26.9250 H   0  0  0  0  0  0  0  0  0  0  0  0
    0.1459   25.7502  -27.5104 H   0  0  0  0  0  0  0  0  0  0  0  0
   -1.1407   27.0037  -27.5104 H   0  0  0  0  0  0  0  0  0  0  0  0
   -3.4570   24.4450  -29.1310 C   0  0  0  0  0  0  0  0  0  0  0  0
   -3.7981   25.3575  -28.6202 H   0  0  0  0  0  0  0  0  0  0  0  0
   -3.7686   23.5537  -28.5666 H   0  0  0  0  0  0  0  0  0  0  0  0
   -4.0530   24.3900  -30.4660 N   0  0  0  0  0  0  0  0  0  0  0  0
   -3.5610   24.9090  -31.2310 H   0  0  0  0  0  0  0  0  0  0  0  0
   -5.2930   23.7230  -30.7770 C   0  0  0  0  0  0  0  0  0  0  0  0
   -5.7010   23.4830  -32.1050 C   0  0  0  0  0  0  0  0  0  0  0  0
   -5.0586   23.8009  -32.9395 H   0  0  0  0  0  0  0  0  0  0  0  0
   -6.9160   22.8440  -32.3690 C   0  0  0  0  0  0  0  0  0  0  0  0
   -7.2323   22.6783  -33.4094 H   0  0  0  0  0  0  0  0  0  0  0  0
   -7.7340   22.4130  -31.3140 C   0  0  0  0  0  0  0  0  0  0  0  0
   -9.0580   21.7550  -31.5980 C   0  0  0  0  0  0  0  0  0  0  0  0
   -9.7489   22.4991  -32.0210 H   0  0  0  0  0  0  0  0  0  0  0  0
   -9.4644   21.3520  -30.6586 H   0  0  0  0  0  0  0  0  0  0  0  0
   -8.8810   20.6020  -32.5990 C   0  0  0  0  0  0  0  0  0  0  0  0
   -7.9502   20.7614  -33.1631 H   0  0  0  0  0  0  0  0  0  0  0  0
   -9.7552   20.5950  -33.2667 H   0  0  0  0  0  0  0  0  0  0  0  0
   -8.8080   19.2260  -31.8930 C   0  0  0  0  0  0  0  0  0  0  0  0
   -9.2327   18.4667  -32.5661 H   0  0  0  0  0  0  0  0  0  0  0  0
   -9.3732   19.3147  -30.9535 H   0  0  0  0  0  0  0  0  0  0  0  0
   -7.4350   18.8180  -31.5360 N   0  0  0  0  0  0  0  0  0  0  0  0
   -6.8180   19.6650  -31.5520 H   0  0  0  0  0  0  0  0  0  0  0  0
   -6.8510   17.8070  -32.4330 C   0  0  0  0  0  0  0  0  0  0  0  0
   -7.6030   17.0291  -32.6313 H   0  0  0  0  0  0  0  0  0  0  0  0
   -5.9648   17.3811  -31.9398 H   0  0  0  0  0  0  0  0  0  0  0  0
   -6.4070   18.4230  -33.7690 C   0  0  0  0  0  0  0  0  0  0  0  0
   -7.2985   18.6328  -34.3782 H   0  0  0  0  0  0  0  0  0  0  0  0
   -5.7439   17.7047  -34.2733 H   0  0  0  0  0  0  0  0  0  0  0  0
   -5.6280   19.7280  -33.5630 C   0  0  0  0  0  0  0  0  0  0  0  0
   -6.3388   20.5598  -33.4498 H   0  0  0  0  0  0  0  0  0  0  0  0
   -4.9813   19.8979  -34.4365 H   0  0  0  0  0  0  0  0  0  0  0  0
   -4.7880   19.6420  -32.3590 N   0  0  0  0  0  0  0  0  0  0  0  0
   -5.4020   19.5360  -31.5160 H   0  0  0  0  0  0  0  0  0  0  0  0
   -3.9280   20.8250  -32.2000 C   0  0  0  0  0  0  0  0  0  0  0  0
   -3.3361   20.7119  -31.2797 H   0  0  0  0  0  0  0  0  0  0  0  0
   -4.5776   21.7113  -32.1510 H   0  0  0  0  0  0  0  0  0  0  0  0
   -2.9650   21.0080  -33.3910 C   0  0  0  0  0  0  0  0  0  0  0  0
   -2.2906   21.8487  -33.1711 H   0  0  0  0  0  0  0  0  0  0  0  0
   -3.5776   21.1976  -34.2847 H   0  0  0  0  0  0  0  0  0  0  0  0
   -2.1120   19.7530  -33.6720 C   0  0  0  0  0  0  0  0  0  0  0  0
   -1.2099   19.8045  -33.0446 H   0  0  0  0  0  0  0  0  0  0  0  0
   -1.8913   19.7626  -34.7496 H   0  0  0  0  0  0  0  0  0  0  0  0
   -2.7910   18.4700  -33.3970 N   0  0  0  0  0  0  0  0  0  0  0  0
   -2.9900   18.3910  -32.3750 H   0  0  0  0  0  0  0  0  0  0  0  0
   -3.7200   18.4850  -33.8780 H   0  0  0  0  0  0  0  0  0  0  0  0
   -2.0580   17.2670  -33.8380 C   0  0  0  0  0  0  0  0  0  0  0  0
   -1.3347   16.9910  -33.0566 H   0  0  0  0  0  0  0  0  0  0  0  0
   -1.5614   17.5137  -34.7880 H   0  0  0  0  0  0  0  0  0  0  0  0
   -2.9760   16.0700  -34.0980 C   0  0  0  0  0  0  0  0  0  0  0  0
   -3.3031   15.6435  -33.1383 H   0  0  0  0  0  0  0  0  0  0  0  0
   -3.8550   16.3997  -34.6713 H   0  0  0  0  0  0  0  0  0  0  0  0
   -2.4296   15.3066  -34.6713 H   0  0  0  0  0  0  0  0  0  0  0  0
   -7.3350   22.6560  -29.9910 C   0  0  0  0  0  0  0  0  0  0  0  0
   -7.9762   22.3333  -29.1575 H   0  0  0  0  0  0  0  0  0  0  0  0
   -6.1270   23.3060  -29.7280 C   0  0  0  0  0  0  0  0  0  0  0  0
   -5.8258   23.4932  -28.6867 H   0  0  0  0  0  0  0  0  0  0  0  0
  1  2  1  0
  2  3  2  0
  3  4  1  0
  4  5  1  0
  4  6  1  0
  4  7  1  0
  2  8  1  0
  8  9  1  0
  8 10  1  0
  8 11  1  0
 11 12  1  0
 11 13  1  0
 13 14  2  0
 14 15  1  0
 14 16  1  0
 16 17  1  0
 16 18  2  0
 18 19  1  0
 19 20  1  0
 19 21  1  0
 19 22  1  0
 22 23  1  0
 22 24  1  0
 22 25  1  0
 25 26  1  0
 25 27  1  0
 25 28  1  0
 28 29  1  0
 28 30  1  0
 30 31  1  0
 30 32  1  0
 30 33  1  0
 33 34  1  0
 33 35  1  0
 33 36  1  0
 36 37  1  0
 36 38  1  0
 36 39  1  0
 39 40  1  0
 39 41  1  0
 41 42  1  0
 41 43  1  0
 41 44  1  0
 44 45  1  0
 44 46  1  0
 44 47  1  0
 47 48  1  0
 47 49  1  0
 47 50  1  0
 50 51  1  0
 50 52  1  0
 50 53  1  0
 53 54  1  0
 53 55  1  0
 53 56  1  0
 56 57  1  0
 56 58  1  0
 56 59  1  0
 18 60  1  0
 60 61  1  0
 60 62  2  0
 62 63  1  0
 62 13  1  0
M  CHG  1  50   1
M  END
>  <UniqueID>  (1) 
1

>  <SMILES>  (1) 
CC[NH2+]CCCNCCCNCCCc1ccc(NC/C=N/C)cc1

>  <Energy>  (1) 
48.5290599404758

>  <Genealogy>  (1) 
CC[NH2+]CCCNCCCNCCCc1ccc(NCC=NC)cc1 (protonated)
CC[NH2+]CCCNCCCNCCCc1ccc(NC/C=N/C)cc1 (cis-trans isomerization)
CC[NH2+]CCCNCCCNCCCc1ccc(NC/C=N/C)cc1 (3D coordinates assigned)
CC[NH2+]CCCNCCCNCCCc1ccc(NC/C=N/C)cc1 (optimized conformer: 48.5290599404758 kcal/mol)

>  <smiles>  (1) 
CCNCCCNCCCNCCCc1ccc(NCC=NC)cc1

>  <score_type>  (1) 
oracle

>  <origin>  (1) 
adg

>  <m_score__min__energy>  (1) 
-8.0500000000000007

>  <m_primary>  (1) 
energy

$$$$
1:0
     RDKit          3D

 28 29  0  0  0  0  0  0  0  0999 V2000
   -9.4530   21.7710  -31.5940 C   0  0  0  0  0  0  0  0  0  0  0  0
   -8.1640   21.2260  -32.2200 C   0  0  0  0  0  0  0  0  0  0  0  0
   -8.1840   19.6940  -32.2760 C   0  0  0  0  0  0  0  0  0  0  0  0
   -6.9400   21.7300  -31.4790 C   0  0  0  0  0  0  0  0  0  0  0  0
   -7.0480   22.7160  -30.4820 C   0  0  0  0  0  0  0  0  0  0  0  0
   -5.9110   23.1700  -29.8070 C   0  0  0  0  0  0  0  0  0  0  0  0
   -4.6480   22.6460  -30.1140 C   0  0  0  0  0  0  0  0  0  0  0  0
   -3.4750   23.1180  -29.4250 N   0  0  0  0  0  0  0  0  0  0  0  0
   -2.9390   24.3570  -29.6200 C   0  0  0  0  0  0  0  0  0  0  0  0
   -3.4950   25.2840  -30.4950 O   0  0  0  0  0  0  0  0  0  0  0  0
   -1.8020   24.6380  -28.8710 C   0  0  0  0  0  0  0  0  0  0  0  0
   -1.4550   23.2830  -27.9360 S   0  0  0  0  0  0  0  0  0  0  0  0
   -2.7650   22.4040  -28.5120 C   0  0  0  0  0  0  0  0  0  0  0  0
   -3.0610   20.8460  -28.0930 S   0  0  0  0  0  0  0  0  0  0  0  0
   -4.5340   21.6680  -31.1120 C   0  0  0  0  0  0  0  0  0  0  0  0
   -5.6690   21.2120  -31.7880 C   0  0  0  0  0  0  0  0  0  0  0  0
   -9.3712   21.7364  -30.4976 H   0  0  0  0  0  0  0  0  0  0  0  0
   -9.6065   22.8110  -31.9176 H   0  0  0  0  0  0  0  0  0  0  0  0
  -10.3061   21.1566  -31.9176 H   0  0  0  0  0  0  0  0  0  0  0  0
   -8.1076   21.6000  -33.2529 H   0  0  0  0  0  0  0  0  0  0  0  0
   -8.1893   19.2897  -31.2530 H   0  0  0  0  0  0  0  0  0  0  0  0
   -9.0866   19.3583  -32.8076 H   0  0  0  0  0  0  0  0  0  0  0  0
   -7.2905   19.3348  -32.8076 H   0  0  0  0  0  0  0  0  0  0  0  0
   -8.0345   23.1331  -30.2314 H   0  0  0  0  0  0  0  0  0  0  0  0
   -6.0083   23.9430  -29.0304 H   0  0  0  0  0  0  0  0  0  0  0  0
   -1.2312   25.5782  -28.8868 H   0  0  0  0  0  0  0  0  0  0  0  0
   -3.5453   21.2571  -31.3645 H   0  0  0  0  0  0  0  0  0  0  0  0
   -5.5678   20.4424  -32.5674 H   0  0  0  0  0  0  0  0  0  0  0  0
  1  2  1  0
  2  3  1  0
  2  4  1  0
  4  5  2  0
  5  6  1  0
  6  7  2  0
  7  8  1  0
  8  9  1  0
  9 10  1  0
  9 11  2  0
 11 12  1  0
 12 13  1  0
 13 14  2  0
  7 15  1  0
 15 16  2  0
 16  4  1  0
 13  8  1  0
  1 17  1  0
  1 18  1  0
  1 19  1  0
  2 20  1  0
  3 21  1  0
  3 22  1  0
  3 23  1  0
  5 24  1  0
  6 25  1  0
 11 26  1  0
 15 27  1  0
 16 28  1  0
M  CHG  1  10  -1
M  END
>  <UniqueID>  (2) 
2

>  <SMILES>  (2) 
CC(C)c1ccc(-n2c([O-])csc2=S)cc1

>  <Energy>  (2) 
62.92762563730173

>  <Genealogy>  (2) 
CC(C)c1ccc(-n2c([O-])csc2=S)cc1 (protonated)
CC(C)c1ccc(-n2c([O-])csc2=S)cc1 (3D coordinates assigned)
CC(C)c1ccc(-n2c([O-])csc2=S)cc1 (optimized conformer: 62.92762563730173 kcal/mol)

>  <smiles>  (2) 
CC(C)c1ccc(-n2c(O)csc2=S)cc1

>  <score_type>  (2) 
oracle

>  <origin>  (2) 
adg

>  <m_score__min__energy>  (2) 
-9.3800000000000008

>  <m_primary>  (2) 
energy

$$$$
2:0
     RDKit          3D

 53 56  0  0  0  0  0  0  0  0999 V2000
   -2.3550   19.2980  -34.1800 C   0  0  0  0  0  0  0  0  0  0  0  0
   -2.6910   20.3650  -33.1800 C   0  0  0  0  0  0  0  0  0  0  0  0
   -1.6790   20.9390  -32.3970 C   0  0  0  0  0  0  0  0  0  0  0  0
   -1.9820   21.9540  -31.4840 C   0  0  0  0  0  0  0  0  0  0  0  0
   -3.3040   22.4050  -31.3370 C   0  0  0  0  0  0  0  0  0  0  0  0
   -3.6230   23.4720  -30.3630 C   0  0  0  0  0  0  0  0  0  0  0  0
   -4.1130   24.5570  -30.7810 O   0  0  0  0  0  0  0  0  0  0  0  0
   -3.3610   23.3050  -28.9570 N   0  0  0  0  0  0  0  0  0  0  0  0
   -4.2390   23.9310  -27.9590 C   0  0  0  0  0  0  0  0  0  0  0  0
   -3.4260   24.8890  -27.0790 C   0  0  0  0  0  0  0  0  0  0  0  0
   -2.1370   24.3000  -26.6700 N   0  0  0  0  0  0  0  0  0  0  0  0
   -1.1570   25.0910  -25.9510 C   0  0  0  0  0  0  0  0  0  0  0  0
   -0.8330   26.4000  -26.3400 C   0  0  0  0  0  0  0  0  0  0  0  0
    0.1160   27.1170  -25.6170 C   0  0  0  0  0  0  0  0  0  0  0  0
    0.7410   26.5190  -24.5170 C   0  0  0  0  0  0  0  0  0  0  0  0
    1.7220   27.2340  -23.7450 N   0  0  0  0  0  0  0  0  0  0  0  0
    3.1370   26.8640  -23.8340 C   0  0  0  0  0  0  0  0  0  0  0  0
    3.8300   27.1750  -22.5060 C   0  0  0  0  0  0  0  0  0  0  0  0
    3.6070   28.5220  -22.1290 O   0  0  0  0  0  0  0  0  0  0  0  0
    2.2300   28.7270  -21.8680 C   0  0  0  0  0  0  0  0  0  0  0  0
    1.3970   28.5290  -23.1390 C   0  0  0  0  0  0  0  0  0  0  0  0
    0.3960   25.2450  -24.1770 N   0  0  0  0  0  0  0  0  0  0  0  0
   -0.5190   24.5640  -24.8690 N   0  0  0  0  0  0  0  0  0  0  0  0
   -1.8540   22.8990  -27.0260 C   0  0  0  0  0  0  0  0  0  0  0  0
   -2.0980   22.6830  -28.5230 C   0  0  0  0  0  0  0  0  0  0  0  0
   -4.3110   21.8550  -32.1480 C   0  0  0  0  0  0  0  0  0  0  0  0
   -4.0050   20.8440  -33.0650 C   0  0  0  0  0  0  0  0  0  0  0  0
   -2.0653   18.3780  -33.6512 H   0  0  0  0  0  0  0  0  0  0  0  0
   -3.2334   19.0971  -34.8110 H   0  0  0  0  0  0  0  0  0  0  0  0
   -1.5200   19.6367  -34.8110 H   0  0  0  0  0  0  0  0  0  0  0  0
   -0.6414   20.5890  -32.5015 H   0  0  0  0  0  0  0  0  0  0  0  0
   -1.1807   22.4016  -30.8777 H   0  0  0  0  0  0  0  0  0  0  0  0
   -5.0335   24.4923  -28.4725 H   0  0  0  0  0  0  0  0  0  0  0  0
   -4.6861   23.1491  -27.3275 H   0  0  0  0  0  0  0  0  0  0  0  0
   -3.2317   25.8126  -27.6440 H   0  0  0  0  0  0  0  0  0  0  0  0
   -4.0101   25.0957  -26.1701 H   0  0  0  0  0  0  0  0  0  0  0  0
   -1.3260   26.8565  -27.2109 H   0  0  0  0  0  0  0  0  0  0  0  0
    0.3728   28.1462  -25.9082 H   0  0  0  0  0  0  0  0  0  0  0  0
    3.2220   25.7885  -24.0489 H   0  0  0  0  0  0  0  0  0  0  0  0
    3.6160   27.4381  -24.6408 H   0  0  0  0  0  0  0  0  0  0  0  0
    3.4303   26.5106  -21.7257 H   0  0  0  0  0  0  0  0  0  0  0  0
    4.9118   27.0153  -22.6254 H   0  0  0  0  0  0  0  0  0  0  0  0
    1.8975   28.0089  -21.1040 H   0  0  0  0  0  0  0  0  0  0  0  0
    2.0894   29.7586  -21.5129 H   0  0  0  0  0  0  0  0  0  0  0  0
    0.3275   28.5551  -22.8832 H   0  0  0  0  0  0  0  0  0  0  0  0
    1.6251   29.3336  -23.8536 H   0  0  0  0  0  0  0  0  0  0  0  0
    0.8320   24.7900  -23.3440 H   0  0  0  0  0  0  0  0  0  0  0  0
   -0.8049   22.6673  -26.7901 H   0  0  0  0  0  0  0  0  0  0  0  0
   -2.5187   22.2374  -26.4511 H   0  0  0  0  0  0  0  0  0  0  0  0
   -1.2666   23.1285  -29.0891 H   0  0  0  0  0  0  0  0  0  0  0  0
   -2.1625   21.6011  -28.7107 H   0  0  0  0  0  0  0  0  0  0  0  0
   -5.3447   22.2211  -32.0614 H   0  0  0  0  0  0  0  0  0  0  0  0
   -4.7986   20.4222  -33.6993 H   0  0  0  0  0  0  0  0  0  0  0  0
  1  2  1  0
  2  3  2  0
  3  4  1  0
  4  5  2  0
  5  6  1  0
  6  7  2  0
  6  8  1  0
  8  9  1  0
  9 10  1  0
 10 11  1  0
 11 12  1  0
 12 13  2  0
 13 14  1  0
 14 15  2  0
 15 16  1  0
 16 17  1  0
 17 18  1  0
 18 19  1  0
 19 20  1  0
 20 21  1  0
 15 22  1  0
 22 23  2  0
 11 24  1  0
 24 25  1  0
  5 26  1  0
 26 27  2  0
 27  2  1  0
 25  8  1  0
 23 12  1  0
 21 16  1  0
  1 28  1  0
  1 29  1  0
  1 30  1  0
  3 31  1  0
  4 32  1  0
  9 33  1  0
  9 34  1  0
 10 35  1  0
 10 36  1  0
 13 37  1  0
 14 38  1  0
 17 39  1  0
 17 40  1  0
 18 41  1  0
 18 42  1  0
 20 43  1  0
 20 44  1  0
 21 45  1  0
 21 46  1  0
 22 47  1  0
 24 48  1  0
 24 49  1  0
 25 50  1  0
 25 51  1  0
 26 52  1  0
 27 53  1  0
M  CHG  1  22   1
M  END
>  <UniqueID>  (3) 
3

>  <SMILES>  (3) 
Cc1ccc(C(=O)N2CCN(c3ccc(N4CCOCC4)[nH+]n3)CC2)cc1

>  <Energy>  (3) 
68.538010528108

>  <Genealogy>  (3) 
Cc1ccc(C(=O)N2CCN(c3ccc(N4CCOCC4)[nH+]n3)CC2)cc1 (protonated)
Cc1ccc(C(=O)N2CCN(c3ccc(N4CCOCC4)[nH+]n3)CC2)cc1 (3D coordinates assigned)
Cc1ccc(C(=O)N2CCN(c3ccc(N4CCOCC4)[nH+]n3)CC2)cc1 (nonaromatic ring conformer: 68.538010528108 kcal/mol)

>  <smiles>  (3) 
Cc1ccc(C(=O)N2CCN(c3ccc(N4CCOCC4)nn3)CC2)cc1

>  <score_type>  (3) 
oracle

>  <origin>  (3) 
adg

>  <m_score__min__energy>  (3) 
-7.6799999999999997

>  <m_primary>  (3) 
energy

$$$$
3:0
     RDKit          3D

 31 33  0  0  0  0  0  0  0  0999 V2000
   -3.4460   24.5480  -29.4790 C   0  0  0  0  0  0  0  0  0  0  0  0
   -3.8600   24.2860  -30.8500 N   0  0  0  0  0  0  0  0  0  0  0  0
   -5.2140   24.0560  -31.2550 C   0  0  0  0  0  0  0  0  0  0  0  0
   -6.0340   25.0100  -31.2140 O   0  0  0  0  0  0  0  0  0  0  0  0
   -5.6870   22.7250  -31.6760 C   0  0  0  0  0  0  0  0  0  0  0  0
   -4.9400   21.5830  -31.9990 C   0  0  0  0  0  0  0  0  0  0  0  0
   -3.4680   21.4580  -32.0940 C   0  0  0  0  0  0  0  0  0  0  0  0
   -2.8720   21.2870  -33.3550 C   0  0  0  0  0  0  0  0  0  0  0  0
   -1.4830   21.1680  -33.4710 C   0  0  0  0  0  0  0  0  0  0  0  0
   -0.6770   21.2300  -32.3330 C   0  0  0  0  0  0  0  0  0  0  0  0
    0.6690   21.1170  -32.4470 F   0  0  0  0  0  0  0  0  0  0  0  0
   -1.2590   21.4200  -31.0760 C   0  0  0  0  0  0  0  0  0  0  0  0
   -2.6460   21.5400  -30.9550 C   0  0  0  0  0  0  0  0  0  0  0  0
   -5.7540   20.5710  -32.2450 O   0  0  0  0  0  0  0  0  0  0  0  0
   -6.9850   21.0000  -32.1160 C   0  0  0  0  0  0  0  0  0  0  0  0
   -8.1610   20.2710  -32.2810 C   0  0  0  0  0  0  0  0  0  0  0  0
   -9.3830   20.9380  -32.0780 C   0  0  0  0  0  0  0  0  0  0  0  0
   -9.4000   22.3050  -31.7160 C   0  0  0  0  0  0  0  0  0  0  0  0
   -8.1960   23.0140  -31.5560 C   0  0  0  0  0  0  0  0  0  0  0  0
   -7.0030   22.3260  -31.7740 C   0  0  0  0  0  0  0  0  0  0  0  0
   -4.1670   24.0917  -28.7847 H   0  0  0  0  0  0  0  0  0  0  0  0
   -2.4488   24.1162  -29.3082 H   0  0  0  0  0  0  0  0  0  0  0  0
   -3.4094   25.6340  -29.3082 H   0  0  0  0  0  0  0  0  0  0  0  0
   -3.5014   21.2465  -34.2562 H   0  0  0  0  0  0  0  0  0  0  0  0
   -1.0250   21.0253  -34.4609 H   0  0  0  0  0  0  0  0  0  0  0  0
   -0.6234   21.4752  -30.1799 H   0  0  0  0  0  0  0  0  0  0  0  0
   -3.0973   21.6993  -29.9646 H   0  0  0  0  0  0  0  0  0  0  0  0
   -8.1348   19.2076  -32.5611 H   0  0  0  0  0  0  0  0  0  0  0  0
  -10.3306   20.3931  -32.2015 H   0  0  0  0  0  0  0  0  0  0  0  0
  -10.3608   22.8169  -31.5586 H   0  0  0  0  0  0  0  0  0  0  0  0
   -8.1955   24.0758  -31.2685 H   0  0  0  0  0  0  0  0  0  0  0  0
  1  2  1  0
  2  3  1  0
  3  4  2  0
  3  5  1  0
  5  6  2  0
  6  7  1  0
  7  8  2  0
  8  9  1  0
  9 10  2  0
 10 11  1  0
 10 12  1  0
 12 13  2  0
  6 14  1  0
 14 15  1  0
 15 16  2  0
 16 17  1  0
 17 18  2  0
 18 19  1  0
 19 20  2  0
 20  5  1  0
 13  7  1  0
 20 15  1  0
  1 21  1  0
  1 22  1  0
  1 23  1  0
  8 24  1  0
  9 25  1  0
 12 26  1  0
 13 27  1  0
 16 28  1  0
 17 29  1  0
 18 30  1  0
 19 31  1  0
M  CHG  1   2  -1
M  END
>  <UniqueID>  (4) 
4

>  <SMILES>  (4) 
C[N-]C(=O)c1c(-c2ccc(F)cc2)oc2ccccc12

>  <Energy>  (4) 
74.83974734294037

>  <Genealogy>  (4) 
C[N-]C(=O)c1c(-c2ccc(F)cc2)oc2ccccc12 (protonated)
C[N-]C(=O)c1c(-c2ccc(F)cc2)oc2ccccc12 (3D coordinates assigned)
C[N-]C(=O)c1c(-c2ccc(F)cc2)oc2ccccc12 (optimized conformer: 74.83974734294037 kcal/mol)

>  <smiles>  (4) 
CNC(=O)c1c(-c2ccc(F)cc2)oc2ccccc12

>  <score_type>  (4) 
oracle

>  <origin>  (4) 
adg

>  <m_score__min__energy>  (4) 
-7.9800000000000004

>  <m_primary>  (4) 
energy

$$$$
4:0
     RDKit          3D

 51 54  0  0  0  0  0  0  0  0999 V2000
   -3.4750   21.9020  -27.9550 C   0  0  0  0  0  0  0  0  0  0  0  0
   -2.5520   20.7150  -27.8590 C   0  0  0  0  0  0  0  0  0  0  0  0
   -2.7610   19.7670  -26.8420 C   0  0  0  0  0  0  0  0  0  0  0  0
   -1.9140   18.6660  -26.7140 C   0  0  0  0  0  0  0  0  0  0  0  0
   -0.8480   18.4970  -27.5980 C   0  0  0  0  0  0  0  0  0  0  0  0
   -0.6280   19.4220  -28.6180 C   0  0  0  0  0  0  0  0  0  0  0  0
   -1.4720   20.5380  -28.7660 C   0  0  0  0  0  0  0  0  0  0  0  0
   -1.1960   21.5270  -29.8770 C   0  0  0  0  0  0  0  0  0  0  0  0
   -1.9410   21.1410  -31.0990 N   0  0  0  0  0  0  0  0  0  0  0  0
   -1.1910   21.4880  -32.3320 C   0  0  0  0  0  0  0  0  0  0  0  0
   -2.0300   21.2020  -33.5880 C   0  0  0  0  0  0  0  0  0  0  0  0
   -3.0370   20.0510  -33.4460 C   0  0  0  0  0  0  0  0  0  0  0  0
   -4.3560   20.5480  -32.9940 N   0  0  0  0  0  0  0  0  0  0  0  0
   -5.4790   19.6880  -33.4400 C   0  0  0  0  0  0  0  0  0  0  0  0
   -6.8290   20.0950  -32.8760 C   0  0  0  0  0  0  0  0  0  0  0  0
   -7.8450   19.1350  -32.6610 C   0  0  0  0  0  0  0  0  0  0  0  0
   -9.0970   19.5140  -32.1400 C   0  0  0  0  0  0  0  0  0  0  0  0
   -9.3420   20.8590  -31.8320 C   0  0  0  0  0  0  0  0  0  0  0  0
   -8.3490   21.7530  -32.0600 N   0  0  0  0  0  0  0  0  0  0  0  0
   -8.3180   23.0890  -31.9240 C   0  0  0  0  0  0  0  0  0  0  0  0
   -7.1270   23.5750  -32.3390 N   0  0  0  0  0  0  0  0  0  0  0  0
   -6.4000   22.5330  -32.7350 N   0  0  0  0  0  0  0  0  0  0  0  0
   -7.1500   21.4290  -32.5610 C   0  0  0  0  0  0  0  0  0  0  0  0
   -4.3830   20.8030  -31.5340 C   0  0  0  0  0  0  0  0  0  0  0  0
   -3.2810   21.7780  -31.1020 C   0  0  0  0  0  0  0  0  0  0  0  0
   -3.7402   22.2430  -26.9434 H   0  0  0  0  0  0  0  0  0  0  0  0
   -2.9703   22.7161  -28.4959 H   0  0  0  0  0  0  0  0  0  0  0  0
   -4.3884   21.6135  -28.4959 H   0  0  0  0  0  0  0  0  0  0  0  0
   -3.5994   19.8945  -26.1414 H   0  0  0  0  0  0  0  0  0  0  0  0
   -2.0869   17.9300  -25.9149 H   0  0  0  0  0  0  0  0  0  0  0  0
   -0.1786   17.6309  -27.4900 H   0  0  0  0  0  0  0  0  0  0  0  0
    0.2125   19.2780  -29.3128 H   0  0  0  0  0  0  0  0  0  0  0  0
   -1.5146   22.5305  -29.5583 H   0  0  0  0  0  0  0  0  0  0  0  0
   -0.1184   21.5291  -30.0978 H   0  0  0  0  0  0  0  0  0  0  0  0
   -0.9338   22.5572  -32.3073 H   0  0  0  0  0  0  0  0  0  0  0  0
   -0.2802   20.8726  -32.3722 H   0  0  0  0  0  0  0  0  0  0  0  0
   -2.5886   22.1153  -33.8408 H   0  0  0  0  0  0  0  0  0  0  0  0
   -1.3196   20.8951  -34.3697 H   0  0  0  0  0  0  0  0  0  0  0  0
   -3.1550   19.5549  -34.4207 H   0  0  0  0  0  0  0  0  0  0  0  0
   -2.6548   19.3437  -32.6952 H   0  0  0  0  0  0  0  0  0  0  0  0
   -5.5347   19.7331  -34.5377 H   0  0  0  0  0  0  0  0  0  0  0  0
   -5.2709   18.6738  -33.0683 H   0  0  0  0  0  0  0  0  0  0  0  0
   -7.6548   18.0791  -32.9038 H   0  0  0  0  0  0  0  0  0  0  0  0
   -9.8790   18.7580  -31.9755 H   0  0  0  0  0  0  0  0  0  0  0  0
  -10.3096   21.1791  -31.4183 H   0  0  0  0  0  0  0  0  0  0  0  0
   -9.1439   23.7002  -31.5310 H   0  0  0  0  0  0  0  0  0  0  0  0
   -5.4330   22.6080  -33.1190 H   0  0  0  0  0  0  0  0  0  0  0  0
   -5.3606   21.2301  -31.2659 H   0  0  0  0  0  0  0  0  0  0  0  0
   -4.2125   19.8465  -31.0182 H   0  0  0  0  0  0  0  0  0  0  0  0
   -3.2675   22.6291  -31.7988 H   0  0  0  0  0  0  0  0  0  0  0  0
   -3.5023   22.1056  -30.0755 H   0  0  0  0  0  0  0  0  0  0  0  0
  1  2  1  0
  2  3  2  0
  3  4  1  0
  4  5  2  0
  5  6  1  0
  6  7  2  0
  7  8  1  0
  8  9  1  0
  9 10  1  0
 10 11  1  0
 11 12  1  0
 12 13  1  0
 13 14  1  0
 14 15  1  0
 15 16  2  0
 16 17  1  0
 17 18  2  0
 18 19  1  0
 19 20  1  0
 20 21  2  0
 21 22  1  0
 22 23  2  0
 13 24  1  0
 24 25  1  0
  7  2  1  0
 25  9  1  0
 23 15  1  0
 23 19  1  0
  1 26  1  0
  1 27  1  0
  1 28  1  0
  3 29  1  0
  4 30  1  0
  5 31  1  0
  6 32  1  0
  8 33  1  0
  8 34  1  0
 10 35  1  0
 10 36  1  0
 11 37  1  0
 11 38  1  0
 12 39  1  0
 12 40  1  0
 14 41  1  0
 14 42  1  0
 16 43  1  0
 17 44  1  0
 18 45  1  0
 20 46  1  0
 22 47  1  0
 24 48  1  0
 24 49  1  0
 25 50  1  0
 25 51  1  0
M  CHG  1  22   1
M  END
>  <UniqueID>  (5) 
5

>  <SMILES>  (5) 
Cc1ccccc1CN1CCCN(Cc2cccn3cn[nH+]c23)CC1

>  <Energy>  (5) 
109.22581957717233

>  <Genealogy>  (5) 
Cc1ccccc1CN1CCCN(Cc2cccn3cn[nH+]c23)CC1 (protonated)
Cc1ccccc1CN1CCCN(Cc2cccn3cn[nH+]c23)CC1 (3D coordinates assigned)
Cc1ccccc1CN1CCCN(Cc2cccn3cn[nH+]c23)CC1 (nonaromatic ring conformer: 109.22581957717233 kcal/mol)

>  <smiles>  (5) 
Cc1ccccc1CN1CCCN(Cc2cccn3cnnc23)CC1

>  <score_type>  (5) 
oracle

>  <origin>  (5) 
adg

>  <m_score__min__energy>  (5) 
-7.0499999999999998

>  <m_primary>  (5) 
energy

$$$$
5:0
     RDKit          3D

 48 50  0  0  0  0  0  0  0  0999 V2000
   -8.7160   23.3590  -32.1450 C   0  0  0  0  0  0  0  0  0  0  0  0
   -9.4210   22.0220  -31.9180 C   0  0  0  0  0  0  0  0  0  0  0  0
   -8.7110   21.1370  -30.8820 C   0  0  0  0  0  0  0  0  0  0  0  0
   -8.7450   19.6320  -31.2250 C   0  0  0  0  0  0  0  0  0  0  0  0
   -8.5880   19.3380  -32.7280 C   0  0  0  0  0  0  0  0  0  0  0  0
   -7.1780   19.3240  -33.1230 N   0  0  0  0  0  0  0  0  0  0  0  0
   -6.3460   20.3940  -33.1320 C   0  0  0  0  0  0  0  0  0  0  0  0
   -5.0590   19.9920  -33.4570 C   0  0  0  0  0  0  0  0  0  0  0  0
   -3.5870   21.0190  -33.4480 S   0  0  0  0  0  0  0  0  0  0  0  0
   -3.4620   21.1040  -31.6230 C   0  0  0  0  0  0  0  0  0  0  0  0
   -4.2720   22.2440  -31.0700 C   0  0  0  0  0  0  0  0  0  0  0  0
   -5.0300   23.0540  -31.9290 C   0  0  0  0  0  0  0  0  0  0  0  0
   -5.7140   24.1660  -31.4300 C   0  0  0  0  0  0  0  0  0  0  0  0
   -5.6360   24.4920  -30.0670 C   0  0  0  0  0  0  0  0  0  0  0  0
   -6.3830   25.6750  -29.5280 C   0  0  0  0  0  0  0  0  0  0  0  0
   -4.9040   23.6660  -29.2020 C   0  0  0  0  0  0  0  0  0  0  0  0
   -4.2240   22.5510  -29.6990 C   0  0  0  0  0  0  0  0  0  0  0  0
   -5.1220   18.6300  -33.6670 C   0  0  0  0  0  0  0  0  0  0  0  0
   -4.1240   17.7060  -33.9740 C   0  0  0  0  0  0  0  0  0  0  0  0
   -4.4900   16.3510  -34.0610 C   0  0  0  0  0  0  0  0  0  0  0  0
   -5.8270   15.9560  -33.8440 C   0  0  0  0  0  0  0  0  0  0  0  0
   -6.8130   16.9120  -33.5340 C   0  0  0  0  0  0  0  0  0  0  0  0
   -6.4230   18.2520  -33.4490 C   0  0  0  0  0  0  0  0  0  0  0  0
   -8.4750   23.8160  -31.1739 H   0  0  0  0  0  0  0  0  0  0  0  0
   -7.7883   23.1927  -32.7123 H   0  0  0  0  0  0  0  0  0  0  0  0
   -9.3773   24.0305  -32.7123 H   0  0  0  0  0  0  0  0  0  0  0  0
  -10.4444   22.2206  -31.5668 H   0  0  0  0  0  0  0  0  0  0  0  0
   -9.4131   21.4793  -32.8748 H   0  0  0  0  0  0  0  0  0  0  0  0
   -7.6599   21.4546  -30.8158 H   0  0  0  0  0  0  0  0  0  0  0  0
   -9.2476   21.2623  -29.9300 H   0  0  0  0  0  0  0  0  0  0  0  0
   -7.9256   19.1340  -30.6859 H   0  0  0  0  0  0  0  0  0  0  0  0
   -9.7338   19.2552  -30.9245 H   0  0  0  0  0  0  0  0  0  0  0  0
   -9.0319   18.3562  -32.9493 H   0  0  0  0  0  0  0  0  0  0  0  0
   -9.0988   20.1322  -33.2923 H   0  0  0  0  0  0  0  0  0  0  0  0
   -6.6473   21.4292  -32.9136 H   0  0  0  0  0  0  0  0  0  0  0  0
   -3.8323   20.1610  -31.1946 H   0  0  0  0  0  0  0  0  0  0  0  0
   -2.4075   21.2668  -31.3554 H   0  0  0  0  0  0  0  0  0  0  0  0
   -5.0862   22.8126  -33.0007 H   0  0  0  0  0  0  0  0  0  0  0  0
   -6.3161   24.7884  -32.1084 H   0  0  0  0  0  0  0  0  0  0  0  0
   -6.3666   25.6491  -28.4284 H   0  0  0  0  0  0  0  0  0  0  0  0
   -5.9058   26.6015  -29.8801 H   0  0  0  0  0  0  0  0  0  0  0  0
   -7.4246   25.6424  -29.8801 H   0  0  0  0  0  0  0  0  0  0  0  0
   -4.8649   23.8968  -28.1272 H   0  0  0  0  0  0  0  0  0  0  0  0
   -3.6485   21.9106  -29.0143 H   0  0  0  0  0  0  0  0  0  0  0  0
   -3.0852   18.0262  -34.1425 H   0  0  0  0  0  0  0  0  0  0  0  0
   -3.7287   15.5938  -34.2999 H   0  0  0  0  0  0  0  0  0  0  0  0
   -6.1011   14.8932  -33.9176 H   0  0  0  0  0  0  0  0  0  0  0  0
   -7.8581   16.6139  -33.3639 H   0  0  0  0  0  0  0  0  0  0  0  0
  1  2  1  0
  2  3  1  0
  3  4  1  0
  4  5  1  0
  5  6  1  0
  6  7  1  0
  7  8  2  0
  8  9  1  0
  9 10  1  0
 10 11  1  0
 11 12  2  0
 12 13  1  0
 13 14  2  0
 14 15  1  0
 14 16  1  0
 16 17  2  0
  8 18  1  0
 18 19  2  0
 19 20  1  0
 20 21  2  0
 21 22  1  0
 22 23  2  0
 23  6  1  0
 17 11  1  0
 23 18  1  0
  1 24  1  0
  1 25  1  0
  1 26  1  0
  2 27  1  0
  2 28  1  0
  3 29  1  0
  3 30  1  0
  4 31  1  0
  4 32  1  0
  5 33  1  0
  5 34  1  0
  7 35  1  0
 10 36  1  0
 10 37  1  0
 12 38  1  0
 13 39  1  0
 15 40  1  0
 15 41  1  0
 15 42  1  0
 16 43  1  0
 17 44  1  0
 19 45  1  0
 20 46  1  0
 21 47  1  0
 22 48  1  0
M  END
>  <UniqueID>  (6) 
6

>  <SMILES>  (6) 
CCCCCn1cc(SCc2ccc(C)cc2)c2ccccc21

>  <Energy>  (6) 
69.08781720415206

>  <Genealogy>  (6) 
CCCCCn1cc(SCc2ccc(C)cc2)c2ccccc21 (3D coordinates assigned)
CCCCCn1cc(SCc2ccc(C)cc2)c2ccccc21 (optimized conformer: 69.08781720415206 kcal/mol)

>  <smiles>  (6) 
CCCCCn1cc(SCc2ccc(C)cc2)c2ccccc21

>  <score_type>  (6) 
oracle

>  <origin>  (6) 
adg

>  <m_score__min__energy>  (6) 
-8.3100000000000005

>  <m_primary>  (6) 
energy

$$$$
6:0
     RDKit          3D

 39 41  0  0  0  0  0  0  0  0999 V2000
   -2.4620   20.7820  -32.2520 O   0  0  0  0  0  0  0  0  0  0  0  0
   -3.8490   20.7390  -32.8290 S   0  0  0  0  0  0  0  0  0  0  0  0
   -3.9820   21.8620  -33.8220 O   0  0  0  0  0  0  0  0  0  0  0  0
   -4.1200   19.2100  -33.6570 C   0  0  0  0  0  0  0  0  0  0  0  0
   -3.1560   18.1920  -33.6040 C   0  0  0  0  0  0  0  0  0  0  0  0
   -3.3950   16.9650  -34.2310 C   0  0  0  0  0  0  0  0  0  0  0  0
   -4.5980   16.7470  -34.9090 C   0  0  0  0  0  0  0  0  0  0  0  0
   -5.5630   17.7590  -34.9630 C   0  0  0  0  0  0  0  0  0  0  0  0
   -5.3250   18.9860  -34.3390 C   0  0  0  0  0  0  0  0  0  0  0  0
   -5.0070   20.9250  -31.5470 N   0  0  0  0  0  0  0  0  0  0  0  0
   -4.5960   21.5520  -30.2870 C   0  0  0  0  0  0  0  0  0  0  0  0
   -4.9060   23.0250  -30.3130 C   0  0  0  0  0  0  0  0  0  0  0  0
   -6.1850   23.4940  -29.9790 C   0  0  0  0  0  0  0  0  0  0  0  0
   -6.4720   24.8580  -30.0600 C   0  0  0  0  0  0  0  0  0  0  0  0
   -5.4770   25.7420  -30.4770 C   0  0  0  0  0  0  0  0  0  0  0  0
   -4.2420   25.2740  -30.8030 N   0  0  0  0  0  0  0  0  0  0  0  0
   -3.9390   23.9510  -30.7320 C   0  0  0  0  0  0  0  0  0  0  0  0
   -6.3670   20.5040  -31.7430 C   0  0  0  0  0  0  0  0  0  0  0  0
   -6.7230   19.1540  -31.5900 C   0  0  0  0  0  0  0  0  0  0  0  0
   -8.0430   18.7460  -31.8030 C   0  0  0  0  0  0  0  0  0  0  0  0
   -9.0140   19.6800  -32.1730 C   0  0  0  0  0  0  0  0  0  0  0  0
   -8.6660   21.0250  -32.3300 C   0  0  0  0  0  0  0  0  0  0  0  0
   -7.3470   21.4370  -32.1160 C   0  0  0  0  0  0  0  0  0  0  0  0
   -2.2101   18.3593  -33.0681 H   0  0  0  0  0  0  0  0  0  0  0  0
   -2.6354   16.1704  -34.1906 H   0  0  0  0  0  0  0  0  0  0  0  0
   -4.7859   15.7806  -35.3997 H   0  0  0  0  0  0  0  0  0  0  0  0
   -6.5094   17.5883  -35.4970 H   0  0  0  0  0  0  0  0  0  0  0  0
   -6.0855   19.7795  -34.3827 H   0  0  0  0  0  0  0  0  0  0  0  0
   -5.1380   21.0814  -29.4534 H   0  0  0  0  0  0  0  0  0  0  0  0
   -3.5124   21.4159  -30.1554 H   0  0  0  0  0  0  0  0  0  0  0  0
   -6.9622   22.7870  -29.6532 H   0  0  0  0  0  0  0  0  0  0  0  0
   -7.4728   25.2317  -29.7976 H   0  0  0  0  0  0  0  0  0  0  0  0
   -5.6912   26.8190  -30.5423 H   0  0  0  0  0  0  0  0  0  0  0  0
   -2.9310   23.6047  -31.0043 H   0  0  0  0  0  0  0  0  0  0  0  0
   -5.9606   18.4153  -31.3016 H   0  0  0  0  0  0  0  0  0  0  0  0
   -8.3176   17.6881  -31.6791 H   0  0  0  0  0  0  0  0  0  0  0  0
  -10.0521   19.3572  -32.3408 H   0  0  0  0  0  0  0  0  0  0  0  0
   -9.4306   21.7599  -32.6222 H   0  0  0  0  0  0  0  0  0  0  0  0
   -7.0765   22.4959  -32.2404 H   0  0  0  0  0  0  0  0  0  0  0  0
  1  2  2  0
  2  3  2  0
  2  4  1  0
  4  5  2  0
  5  6  1  0
  6  7  2  0
  7  8  1  0
  8  9  2  0
  2 10  1  0
 10 11  1  0
 11 12  1  0
 12 13  2  0
 13 14  1  0
 14 15  2  0
 15 16  1  0
 16 17  2  0
 10 18  1  0
 18 19  2  0
 19 20  1  0
 20 21  2  0
 21 22  1  0
 22 23  2  0
  9  4  1  0
 17 12  1  0
 23 18  1  0
  5 24  1  0
  6 25  1  0
  7 26  1  0
  8 27  1  0
  9 28  1  0
 11 29  1  0
 11 30  1  0
 13 31  1  0
 14 32  1  0
 15 33  1  0
 17 34  1  0
 19 35  1  0
 20 36  1  0
 21 37  1  0
 22 38  1  0
 23 39  1  0
M  END
>  <UniqueID>  (7) 
7

>  <SMILES>  (7) 
O=S(=O)(c1ccccc1)N(Cc1cccnc1)c1ccccc1

>  <Energy>  (7) 
45.16669307318934

>  <Genealogy>  (7) 
O=S(=O)(c1ccccc1)N(Cc1cccnc1)c1ccccc1 (3D coordinates assigned)
O=S(=O)(c1ccccc1)N(Cc1cccnc1)c1ccccc1 (optimized conformer: 45.16669307318934 kcal/mol)

>  <smiles>  (7) 
O=S(=O)(c1ccccc1)N(Cc1cccnc1)c1ccccc1

>  <score_type>  (7) 
oracle

>  <origin>  (7) 
adg

>  <m_score__min__energy>  (7) 
-8.2100000000000009

>  <m_primary>  (7) 
energy

$$$$
7:0
     RDKit          3D

 47 50  0  0  0  0  0  0  0  0999 V2000
   -9.1090   19.2400  -31.9870 C   0  0  0  0  0  0  0  0  0  0  0  0
   -8.6850   20.4370  -32.6290 O   0  0  0  0  0  0  0  0  0  0  0  0
   -7.8240   21.3890  -32.0590 C   0  0  0  0  0  0  0  0  0  0  0  0
   -8.3190   22.4670  -31.2990 C   0  0  0  0  0  0  0  0  0  0  0  0
   -7.4430   23.3770  -30.7040 C   0  0  0  0  0  0  0  0  0  0  0  0
   -6.0610   23.2310  -30.8550 C   0  0  0  0  0  0  0  0  0  0  0  0
   -4.9570   24.3940  -30.1150 S   0  0  0  0  0  0  0  0  0  0  0  0
   -5.7330   25.2980  -29.1980 O   0  0  0  0  0  0  0  0  0  0  0  0
   -4.3390   25.2430  -31.1910 O   0  0  0  0  0  0  0  0  0  0  0  0
   -3.6900   23.5970  -29.2120 N   0  0  0  0  0  0  0  0  0  0  0  0
   -2.6650   23.0140  -30.1060 C   0  0  0  0  0  0  0  0  0  0  0  0
   -2.7910   21.4820  -30.2060 C   0  0  0  0  0  0  0  0  0  0  0  0
   -2.6800   20.8260  -28.9500 O   0  0  0  0  0  0  0  0  0  0  0  0
   -3.2090   21.5750  -27.8620 C   0  0  0  0  0  0  0  0  0  0  0  0
   -4.2640   22.6160  -28.2710 C   0  0  0  0  0  0  0  0  0  0  0  0
   -5.5590   22.1620  -31.6060 C   0  0  0  0  0  0  0  0  0  0  0  0
   -6.4270   21.2500  -32.2300 C   0  0  0  0  0  0  0  0  0  0  0  0
   -5.8490   20.1480  -33.0330 C   0  0  0  0  0  0  0  0  0  0  0  0
   -6.5440   19.5800  -34.1140 C   0  0  0  0  0  0  0  0  0  0  0  0
   -5.9710   18.5850  -34.8420 N   0  0  0  0  0  0  0  0  0  0  0  0
   -4.7210   18.1310  -34.5480 C   0  0  0  0  0  0  0  0  0  0  0  0
   -4.1260   17.1050  -35.2970 C   0  0  0  0  0  0  0  0  0  0  0  0
   -2.8370   16.6630  -34.9780 C   0  0  0  0  0  0  0  0  0  0  0  0
   -2.1390   17.2410  -33.9120 C   0  0  0  0  0  0  0  0  0  0  0  0
   -2.7250   18.2640  -33.1600 C   0  0  0  0  0  0  0  0  0  0  0  0
   -4.0130   18.7100  -33.4730 C   0  0  0  0  0  0  0  0  0  0  0  0
   -4.5940   19.7020  -32.7510 N   0  0  0  0  0  0  0  0  0  0  0  0
   -9.0620   19.3726  -30.8960 H   0  0  0  0  0  0  0  0  0  0  0  0
  -10.1430   19.0109  -32.2843 H   0  0  0  0  0  0  0  0  0  0  0  0
   -8.4498   18.4111  -32.2843 H   0  0  0  0  0  0  0  0  0  0  0  0
   -9.4045   22.5928  -31.1733 H   0  0  0  0  0  0  0  0  0  0  0  0
   -7.8428   24.2140  -30.1128 H   0  0  0  0  0  0  0  0  0  0  0  0
   -2.7825   23.4464  -31.1106 H   0  0  0  0  0  0  0  0  0  0  0  0
   -1.6754   23.2470  -29.6860 H   0  0  0  0  0  0  0  0  0  0  0  0
   -3.7719   21.2399  -30.6409 H   0  0  0  0  0  0  0  0  0  0  0  0
   -1.9605   21.1269  -30.8338 H   0  0  0  0  0  0  0  0  0  0  0  0
   -3.6726   20.8736  -27.1527 H   0  0  0  0  0  0  0  0  0  0  0  0
   -2.3685   22.1312  -27.4213 H   0  0  0  0  0  0  0  0  0  0  0  0
   -5.1089   22.1035  -28.7542 H   0  0  0  0  0  0  0  0  0  0  0  0
   -4.6051   23.1472  -27.3702 H   0  0  0  0  0  0  0  0  0  0  0  0
   -4.4713   22.0341  -31.7091 H   0  0  0  0  0  0  0  0  0  0  0  0
   -7.5511   19.9401  -34.3711 H   0  0  0  0  0  0  0  0  0  0  0  0
   -6.5060   18.1760  -35.6420 H   0  0  0  0  0  0  0  0  0  0  0  0
   -4.6725   16.6479  -36.1350 H   0  0  0  0  0  0  0  0  0  0  0  0
   -2.3714   15.8590  -35.5669 H   0  0  0  0  0  0  0  0  0  0  0  0
   -1.1264   16.8897  -33.6648 H   0  0  0  0  0  0  0  0  0  0  0  0
   -2.1735   18.7174  -32.3232 H   0  0  0  0  0  0  0  0  0  0  0  0
  1  2  1  0
  2  3  1  0
  3  4  2  0
  4  5  1  0
  5  6  2  0
  6  7  1  0
  7  8  2  0
  7  9  2  0
  7 10  1  0
 10 11  1  0
 11 12  1  0
 12 13  1  0
 13 14  1  0
 14 15  1  0
  6 16  1  0
 16 17  2  0
 17 18  1  0
 18 19  2  0
 19 20  1  0
 20 21  2  0
 21 22  1  0
 22 23  2  0
 23 24  1  0
 24 25  2  0
 25 26  1  0
 26 27  2  0
 17  3  1  0
 27 18  1  0
 15 10  1  0
 26 21  1  0
  1 28  1  0
  1 29  1  0
  1 30  1  0
  4 31  1  0
  5 32  1  0
 11 33  1  0
 11 34  1  0
 12 35  1  0
 12 36  1  0
 14 37  1  0
 14 38  1  0
 15 39  1  0
 15 40  1  0
 16 41  1  0
 19 42  1  0
 20 43  1  0
 22 44  1  0
 23 45  1  0
 24 46  1  0
 25 47  1  0
M  CHG  1  20   1
M  END
>  <UniqueID>  (8) 
8

>  <SMILES>  (8) 
COc1ccc(S(=O)(=O)N2CCOCC2)cc1-c1c[nH+]c2ccccc2n1

>  <Energy>  (8) 
70.62961426833769

>  <Genealogy>  (8) 
COc1ccc(S(=O)(=O)N2CCOCC2)cc1-c1c[nH+]c2ccccc2n1 (protonated)
COc1ccc(S(=O)(=O)N2CCOCC2)cc1-c1c[nH+]c2ccccc2n1 (3D coordinates assigned)
COc1ccc(S(=O)(=O)N2CCOCC2)cc1-c1c[nH+]c2ccccc2n1 (nonaromatic ring conformer: 70.62961426833769 kcal/mol)

>  <smiles>  (8) 
COc1ccc(S(=O)(=O)N2CCOCC2)cc1-c1cnc2ccccc2n1

>  <score_type>  (8) 
oracle

>  <origin>  (8) 
adg

>  <m_score__min__energy>  (8) 
-8.7799999999999994

>  <m_primary>  (8) 
energy

$$$$
8:0
     RDKit          3D

 45 47  0  0  0  0  0  0  0  0999 V2000
   -2.5210   25.5610  -25.6080 C   0  0  0  0  0  0  0  0  0  0  0  0
   -2.4690   25.1530  -27.0170 N   0  0  0  0  0  0  0  0  0  0  0  0
   -1.2220   24.4420  -27.3490 C   0  0  0  0  0  0  0  0  0  0  0  0
   -1.0840   24.1710  -28.8540 C   0  0  0  0  0  0  0  0  0  0  0  0
   -2.4040   24.0180  -29.4550 N   0  0  0  0  0  0  0  0  0  0  0  0
   -2.8460   22.9310  -30.1240 C   0  0  0  0  0  0  0  0  0  0  0  0
   -4.1560   23.1660  -30.4770 C   0  0  0  0  0  0  0  0  0  0  0  0
   -4.4450   24.4050  -29.9780 C   0  0  0  0  0  0  0  0  0  0  0  0
   -3.3700   24.9230  -29.3570 N   0  0  0  0  0  0  0  0  0  0  0  0
   -5.7630   25.0650  -30.1760 C   0  0  0  0  0  0  0  0  0  0  0  0
   -6.8530   23.9850  -30.2680 C   0  0  0  0  0  0  0  0  0  0  0  0
   -6.4880   22.9010  -31.2080 N   0  0  0  0  0  0  0  0  0  0  0  0
   -7.5560   22.2570  -31.9240 C   0  0  0  0  0  0  0  0  0  0  0  0
   -8.5130   22.9560  -32.3560 O   0  0  0  0  0  0  0  0  0  0  0  0
   -7.5560   20.7960  -32.1580 C   0  0  0  0  0  0  0  0  0  0  0  0
   -6.7840   20.2450  -33.1960 C   0  0  0  0  0  0  0  0  0  0  0  0
   -6.7900   18.8650  -33.4250 C   0  0  0  0  0  0  0  0  0  0  0  0
   -7.5730   18.0260  -32.6280 C   0  0  0  0  0  0  0  0  0  0  0  0
   -7.5790   16.6890  -32.8530 F   0  0  0  0  0  0  0  0  0  0  0  0
   -8.3560   18.5660  -31.6040 C   0  0  0  0  0  0  0  0  0  0  0  0
   -8.3520   19.9440  -31.3710 C   0  0  0  0  0  0  0  0  0  0  0  0
   -5.1150   22.3330  -31.2760 C   0  0  1  0  0  0  0  0  0  0  0  0
   -4.6360   22.2750  -32.7310 C   0  0  0  0  0  0  0  0  0  0  0  0
   -2.4081   24.6754  -24.9654 H   0  0  0  0  0  0  0  0  0  0  0  0
   -1.7060   26.2702  -25.4013 H   0  0  0  0  0  0  0  0  0  0  0  0
   -3.4879   26.0431  -25.4013 H   0  0  0  0  0  0  0  0  0  0  0  0
   -3.2740   24.5080  -27.1980 H   0  0  0  0  0  0  0  0  0  0  0  0
   -2.5830   25.9940  -27.6290 H   0  0  0  0  0  0  0  0  0  0  0  0
   -0.3687   25.0537  -27.0208 H   0  0  0  0  0  0  0  0  0  0  0  0
   -1.2436   23.4700  -26.8344 H   0  0  0  0  0  0  0  0  0  0  0  0
   -0.5623   25.0144  -29.3299 H   0  0  0  0  0  0  0  0  0  0  0  0
   -0.5090   23.2453  -29.0036 H   0  0  0  0  0  0  0  0  0  0  0  0
   -2.2653   22.0236  -30.3463 H   0  0  0  0  0  0  0  0  0  0  0  0
   -5.9738   25.7307  -29.3260 H   0  0  0  0  0  0  0  0  0  0  0  0
   -5.7471   25.6577  -31.1025 H   0  0  0  0  0  0  0  0  0  0  0  0
   -7.0068   23.5509  -29.2691 H   0  0  0  0  0  0  0  0  0  0  0  0
   -7.7706   24.4622  -30.6426 H   0  0  0  0  0  0  0  0  0  0  0  0
   -6.1722   20.9024  -33.8312 H   0  0  0  0  0  0  0  0  0  0  0  0
   -6.1774   18.4398  -34.2337 H   0  0  0  0  0  0  0  0  0  0  0  0
   -8.9764   17.9054  -30.9805 H   0  0  0  0  0  0  0  0  0  0  0  0
   -8.9747   20.3647  -30.5678 H   0  0  0  0  0  0  0  0  0  0  0  0
   -5.1472   21.3166  -30.8566 H   0  0  0  0  0  0  0  0  0  0  0  0
   -3.5442   22.1428  -32.7526 H   0  0  0  0  0  0  0  0  0  0  0  0
   -5.1180   21.4287  -33.2422 H   0  0  0  0  0  0  0  0  0  0  0  0
   -4.9021   23.2119  -33.2422 H   0  0  0  0  0  0  0  0  0  0  0  0
  1  2  1  0
  2  3  1  0
  3  4  1  0
  4  5  1  0
  5  6  1  0
  6  7  2  0
  7  8  1  0
  8  9  2  0
  8 10  1  0
 10 11  1  0
 11 12  1  0
 12 13  1  0
 13 14  2  0
 13 15  1  0
 15 16  2  0
 16 17  1  0
 17 18  2  0
 18 19  1  0
 18 20  1  0
 20 21  2  0
 12 22  1  0
 22 23  1  0
  9  5  1  0
 21 15  1  0
 22  7  1  0
  1 24  1  0
  1 25  1  0
  1 26  1  0
  2 27  1  0
  2 28  1  0
  3 29  1  0
  3 30  1  0
  4 31  1  0
  4 32  1  0
  6 33  1  0
 10 34  1  0
 10 35  1  0
 11 36  1  0
 11 37  1  0
 16 38  1  0
 17 39  1  0
 20 40  1  0
 21 41  1  0
 22 42  1  1
 23 43  1  0
 23 44  1  0
 23 45  1  0
M  CHG  1   2   1
M  END
>  <UniqueID>  (9) 
9

>  <SMILES>  (9) 
C[NH2+]CCn1cc2c(n1)CCN(C(=O)c1ccc(F)cc1)[C@H]2C

>  <Energy>  (9) 
81.00508189820293

>  <Genealogy>  (9) 
C[NH2+]CCn1cc2c(n1)CCN(C(=O)c1ccc(F)cc1)C2C (protonated)
C[NH2+]CCn1cc2c(n1)CCN(C(=O)c1ccc(F)cc1)[C@H]2C (chirality)
C[NH2+]CCn1cc2c(n1)CCN(C(=O)c1ccc(F)cc1)[C@H]2C (3D coordinates assigned)
C[NH2+]CCn1cc2c(n1)CCN(C(=O)c1ccc(F)cc1)[C@H]2C (nonaromatic ring conformer: 81.00508189820293 kcal/mol)

>  <smiles>  (9) 
CNCCn1cc2c(n1)CCN(C(=O)c1ccc(F)cc1)C2C

>  <score_type>  (9) 
oracle

>  <origin>  (9) 
adg

>  <m_score__min__energy>  (9) 
-7.9400000000000004

>  <m_primary>  (9) 
energy

$$$$
9:0
     RDKit          3D

 35 37  0  0  0  0  0  0  0  0999 V2000
   -8.2890   22.0380  -30.3820 C   0  0  0  0  0  0  0  0  0  0  0  0
   -7.5060   21.6210  -31.5440 N   0  0  0  0  0  0  0  0  0  0  0  0
   -7.7930   20.6410  -32.4300 C   0  0  0  0  0  0  0  0  0  0  0  0
   -9.2220   19.5560  -32.3380 S   0  0  0  0  0  0  0  0  0  0  0  0
   -8.3190   18.1810  -31.5380 C   0  0  0  0  0  0  0  0  0  0  0  0
   -7.0970   17.8010  -32.3290 C   0  0  0  0  0  0  0  0  0  0  0  0
   -7.2220   17.0130  -33.4850 C   0  0  0  0  0  0  0  0  0  0  0  0
   -6.0830   16.6160  -34.1920 C   0  0  0  0  0  0  0  0  0  0  0  0
   -4.8140   16.9990  -33.7490 C   0  0  0  0  0  0  0  0  0  0  0  0
   -4.6810   17.7800  -32.5970 C   0  0  0  0  0  0  0  0  0  0  0  0
   -5.8180   18.1830  -31.8900 C   0  0  0  0  0  0  0  0  0  0  0  0
   -6.8480   20.5360  -33.3850 N   0  0  0  0  0  0  0  0  0  0  0  0
   -5.9420   21.4580  -33.1070 N   0  0  0  0  0  0  0  0  0  0  0  0
   -6.3390   22.1240  -32.0050 C   0  0  0  0  0  0  0  0  0  0  0  0
   -5.5600   23.2180  -31.3870 C   0  0  0  0  0  0  0  0  0  0  0  0
   -6.1120   24.4960  -31.2140 C   0  0  0  0  0  0  0  0  0  0  0  0
   -5.3400   25.5080  -30.6370 C   0  0  0  0  0  0  0  0  0  0  0  0
   -4.0600   25.2570  -30.2550 N   0  0  0  0  0  0  0  0  0  0  0  0
   -3.4950   24.0330  -30.4230 C   0  0  0  0  0  0  0  0  0  0  0  0
   -4.2310   22.9930  -30.9980 C   0  0  0  0  0  0  0  0  0  0  0  0
   -7.7578   21.7551  -29.4612 H   0  0  0  0  0  0  0  0  0  0  0  0
   -8.4270   23.1291  -30.4052 H   0  0  0  0  0  0  0  0  0  0  0  0
   -9.2714   21.5436  -30.4052 H   0  0  0  0  0  0  0  0  0  0  0  0
   -8.0110   18.4927  -30.5291 H   0  0  0  0  0  0  0  0  0  0  0  0
   -8.9867   17.3083  -31.4868 H   0  0  0  0  0  0  0  0  0  0  0  0
   -8.2190   16.7073  -33.8351 H   0  0  0  0  0  0  0  0  0  0  0  0
   -6.1858   16.0012  -35.0984 H   0  0  0  0  0  0  0  0  0  0  0  0
   -3.9193   16.6858  -34.3070 H   0  0  0  0  0  0  0  0  0  0  0  0
   -3.6816   18.0775  -32.2468 H   0  0  0  0  0  0  0  0  0  0  0  0
   -5.7108   18.8015  -30.9867 H   0  0  0  0  0  0  0  0  0  0  0  0
   -5.0810   21.6300  -33.6710 H   0  0  0  0  0  0  0  0  0  0  0  0
   -7.1455   24.7002  -31.5304 H   0  0  0  0  0  0  0  0  0  0  0  0
   -5.7694   26.5102  -30.4916 H   0  0  0  0  0  0  0  0  0  0  0  0
   -2.4560   23.8600  -30.1058 H   0  0  0  0  0  0  0  0  0  0  0  0
   -3.7711   22.0046  -31.1445 H   0  0  0  0  0  0  0  0  0  0  0  0
  1  2  1  0
  2  3  1  0
  3  4  1  0
  4  5  1  0
  5  6  1  0
  6  7  2  0
  7  8  1  0
  8  9  2  0
  9 10  1  0
 10 11  2  0
  3 12  2  0
 12 13  1  0
 13 14  2  0
 14 15  1  0
 15 16  2  0
 16 17  1  0
 17 18  2  0
 18 19  1  0
 19 20  2  0
 14  2  1  0
 20 15  1  0
 11  6  1  0
  1 21  1  0
  1 22  1  0
  1 23  1  0
  5 24  1  0
  5 25  1  0
  7 26  1  0
  8 27  1  0
  9 28  1  0
 10 29  1  0
 11 30  1  0
 13 31  1  0
 16 32  1  0
 17 33  1  0
 19 34  1  0
 20 35  1  0
M  CHG  1  13   1
M  END
>  <UniqueID>  (10) 
10

>  <SMILES>  (10) 
Cn1c(SCc2ccccc2)n[nH+]c1-c1ccncc1

>  <Energy>  (10) 
72.24083313204433

>  <Genealogy>  (10) 
Cn1c(SCc2ccccc2)n[nH+]c1-c1ccncc1 (protonated)
Cn1c(SCc2ccccc2)n[nH+]c1-c1ccncc1 (3D coordinates assigned)
Cn1c(SCc2ccccc2)n[nH+]c1-c1ccncc1 (optimized conformer: 72.24083313204433 kcal/mol)

>  <smiles>  (10) 
Cn1c(SCc2ccccc2)nnc1-c1ccncc1

>  <score_type>  (10) 
oracle

>  <origin>  (10) 
adg

>  <m_score__min__energy>  (10) 
-7.5700000000000003

>  <m_primary>  (10) 
energy

$$$$
10:0
     RDKit          3D

 31 33  0  0  0  0  0  0  0  0999 V2000
   -2.4860   22.2870  -30.6130 C   0  0  0  0  0  0  0  0  0  0  0  0
   -3.1040   23.4550  -31.1450 O   0  0  0  0  0  0  0  0  0  0  0  0
   -4.4430   23.8200  -30.9250 C   0  0  0  0  0  0  0  0  0  0  0  0
   -4.7850   24.9430  -30.1500 C   0  0  0  0  0  0  0  0  0  0  0  0
   -6.1200   25.2890  -29.9660 C   0  0  0  0  0  0  0  0  0  0  0  0
   -7.1280   24.5280  -30.5530 C   0  0  0  0  0  0  0  0  0  0  0  0
   -6.8200   23.3930  -31.3240 C   0  0  0  0  0  0  0  0  0  0  0  0
   -5.4560   23.0290  -31.5000 C   0  0  0  0  0  0  0  0  0  0  0  0
   -5.0360   21.9330  -32.3340 N   0  0  0  0  0  0  0  0  0  0  0  0
   -5.6120   20.7770  -32.4700 C   0  0  0  0  0  0  0  0  0  0  0  0
   -6.8320   20.3930  -31.6860 C   0  0  2  0  0  0  0  0  0  0  0  0
   -7.2880   18.9580  -31.9710 C   0  0  0  0  0  0  0  0  0  0  0  0
   -8.8080   19.0260  -32.0970 C   0  0  0  0  0  0  0  0  0  0  0  0
   -9.1280   20.4740  -32.4430 C   0  0  0  0  0  0  0  0  0  0  0  0
   -7.9460   21.2340  -32.0750 N   0  0  0  0  0  0  0  0  0  0  0  0
   -7.9450   22.6640  -31.9600 C   0  0  0  0  0  0  0  0  0  0  0  0
   -8.9500   23.3140  -32.3600 O   0  0  0  0  0  0  0  0  0  0  0  0
   -2.5081   22.3287  -29.5140 H   0  0  0  0  0  0  0  0  0  0  0  0
   -3.0302   21.3951  -30.9571 H   0  0  0  0  0  0  0  0  0  0  0  0
   -1.4425   22.2352  -30.9571 H   0  0  0  0  0  0  0  0  0  0  0  0
   -3.9933   25.5505  -29.6873 H   0  0  0  0  0  0  0  0  0  0  0  0
   -6.3801   26.1661  -29.3552 H   0  0  0  0  0  0  0  0  0  0  0  0
   -8.1794   24.8188  -30.4116 H   0  0  0  0  0  0  0  0  0  0  0  0
   -5.1908   20.0546  -33.1846 H   0  0  0  0  0  0  0  0  0  0  0  0
   -6.5575   20.5015  -30.6263 H   0  0  0  0  0  0  0  0  0  0  0  0
   -6.8413   18.5922  -32.9073 H   0  0  0  0  0  0  0  0  0  0  0  0
   -6.9768   18.2668  -31.1739 H   0  0  0  0  0  0  0  0  0  0  0  0
   -9.1572   18.3547  -32.8954 H   0  0  0  0  0  0  0  0  0  0  0  0
   -9.3070   18.7104  -31.1689 H   0  0  0  0  0  0  0  0  0  0  0  0
   -9.3303   20.5759  -33.5194 H   0  0  0  0  0  0  0  0  0  0  0  0
  -10.0230   20.8310  -31.9124 H   0  0  0  0  0  0  0  0  0  0  0  0
  1  2  1  0
  2  3  1  0
  3  4  2  0
  4  5  1  0
  5  6  2  0
  6  7  1  0
  7  8  2  0
  8  9  1  0
  9 10  2  0
 10 11  1  0
 11 12  1  0
 12 13  1  0
 13 14  1  0
 14 15  1  0
 15 16  1  0
 16 17  2  0
  8  3  1  0
 15 11  1  0
 16  7  1  0
  1 18  1  0
  1 19  1  0
  1 20  1  0
  4 21  1  0
  5 22  1  0
  6 23  1  0
 10 24  1  0
 11 25  1  1
 12 26  1  0
 12 27  1  0
 13 28  1  0
 13 29  1  0
 14 30  1  0
 14 31  1  0
M  END
>  <UniqueID>  (11) 
11

>  <SMILES>  (11) 
COc1cccc2c1N=C[C@@H]1CCCN1C2=O

>  <Energy>  (11) 
44.38615176906927

>  <Genealogy>  (11) 
COc1cccc2c1N=C[C@@H]1CCCN1C2=O (chirality)
COc1cccc2c1N=C[C@@H]1CCCN1C2=O (3D coordinates assigned)
COc1cccc2c1N=C[C@@H]1CCCN1C2=O (nonaromatic ring conformer: 44.38615176906927 kcal/mol)

>  <smiles>  (11) 
COc1cccc2c1N=CC1CCCN1C2=O

>  <score_type>  (11) 
oracle

>  <origin>  (11) 
adg

>  <m_score__min__energy>  (11) 
-5.7300000000000004

>  <m_primary>  (11) 
energy

$$$$
11:0
     RDKit          3D

 31 32  0  0  0  0  0  0  0  0999 V2000
   -4.0300   24.1670  -27.2080 C   0  0  0  0  0  0  0  0  0  0  0  0
   -3.1920   24.5430  -28.4230 C   0  0  0  0  0  0  0  0  0  0  0  0
   -3.7170   23.8930  -29.6240 N   0  0  0  0  0  0  0  0  0  0  0  0
   -2.9020   22.7460  -30.5070 S   0  0  0  0  0  0  0  0  0  0  0  0
   -4.0550   22.5970  -31.6940 C   0  0  0  0  0  0  0  0  0  0  0  0
   -3.9770   21.8240  -32.6860 O   0  0  0  0  0  0  0  0  0  0  0  0
   -5.0930   23.4350  -31.4460 N   0  0  0  0  0  0  0  0  0  0  0  0
   -6.2520   23.5770  -32.3400 C   0  0  0  0  0  0  0  0  0  0  0  0
   -7.2500   22.4760  -32.0890 C   0  0  0  0  0  0  0  0  0  0  0  0
   -8.5580   22.7910  -31.6890 C   0  0  0  0  0  0  0  0  0  0  0  0
   -9.4840   21.7740  -31.4500 C   0  0  0  0  0  0  0  0  0  0  0  0
   -9.1130   20.4360  -31.5960 C   0  0  0  0  0  0  0  0  0  0  0  0
   -7.8010   20.0990  -31.9700 C   0  0  0  0  0  0  0  0  0  0  0  0
   -7.4100   18.6570  -32.1740 C   0  0  0  0  0  0  0  0  0  0  0  0
   -8.5070   17.8250  -32.0350 F   0  0  0  0  0  0  0  0  0  0  0  0
   -6.4570   18.2750  -31.2450 F   0  0  0  0  0  0  0  0  0  0  0  0
   -6.8870   18.5040  -33.4450 F   0  0  0  0  0  0  0  0  0  0  0  0
   -6.8820   21.1280  -32.2390 C   0  0  0  0  0  0  0  0  0  0  0  0
   -4.8830   24.1590  -30.2900 C   0  0  0  0  0  0  0  0  0  0  0  0
   -5.9610   25.2740  -29.7380 S   0  0  0  0  0  0  0  0  0  0  0  0
   -3.4769   24.4152  -26.2901 H   0  0  0  0  0  0  0  0  0  0  0  0
   -4.9768   24.7266  -27.2282 H   0  0  0  0  0  0  0  0  0  0  0  0
   -4.2415   23.0877  -27.2282 H   0  0  0  0  0  0  0  0  0  0  0  0
   -3.2202   25.6341  -28.5594 H   0  0  0  0  0  0  0  0  0  0  0  0
   -2.1565   24.2097  -28.2599 H   0  0  0  0  0  0  0  0  0  0  0  0
   -6.7325   24.5496  -32.1580 H   0  0  0  0  0  0  0  0  0  0  0  0
   -5.9070   23.5137  -33.3826 H   0  0  0  0  0  0  0  0  0  0  0  0
   -8.8545   23.8428  -31.5634 H   0  0  0  0  0  0  0  0  0  0  0  0
  -10.5101   22.0279  -31.1454 H   0  0  0  0  0  0  0  0  0  0  0  0
   -9.8519   19.6410  -31.4172 H   0  0  0  0  0  0  0  0  0  0  0  0
   -5.8640   20.8755  -32.5704 H   0  0  0  0  0  0  0  0  0  0  0  0
  1  2  1  0
  2  3  1  0
  3  4  1  0
  4  5  1  0
  5  6  2  0
  5  7  1  0
  7  8  1  0
  8  9  1  0
  9 10  2  0
 10 11  1  0
 11 12  2  0
 12 13  1  0
 13 14  1  0
 14 15  1  0
 14 16  1  0
 14 17  1  0
 13 18  2  0
  7 19  1  0
 19 20  2  0
 19  3  1  0
 18  9  1  0
  1 21  1  0
  1 22  1  0
  1 23  1  0
  2 24  1  0
  2 25  1  0
  8 26  1  0
  8 27  1  0
 10 28  1  0
 11 29  1  0
 12 30  1  0
 18 31  1  0
M  END
>  <UniqueID>  (12) 
12

>  <SMILES>  (12) 
CCn1sc(=O)n(Cc2cccc(C(F)(F)F)c2)c1=S

>  <Energy>  (12) 
69.5395073510718

>  <Genealogy>  (12) 
CCn1sc(=O)n(Cc2cccc(C(F)(F)F)c2)c1=S (3D coordinates assigned)
CCn1sc(=O)n(Cc2cccc(C(F)(F)F)c2)c1=S (optimized conformer: 69.5395073510718 kcal/mol)

>  <smiles>  (12) 
CCn1sc(=O)n(Cc2cccc(C(F)(F)F)c2)c1=S

>  <score_type>  (12) 
oracle

>  <origin>  (12) 
adg

>  <m_score__min__energy>  (12) 
-6.6600000000000001

>  <m_primary>  (12) 
energy

$$$$
12:0
     RDKit          3D

 47 49  0  0  0  0  0  0  0  0999 V2000
   -7.0900   23.1960  -32.2090 C   0  0  0  0  0  0  0  0  0  0  0  0
   -5.6520   23.7020  -32.3180 C   0  0  0  0  0  0  0  0  0  0  0  0
   -4.7480   22.9360  -31.4380 N   0  0  0  0  0  0  0  0  0  0  0  0
   -3.5480   22.4730  -32.1680 C   0  0  0  0  0  0  0  0  0  0  0  0
   -3.1830   20.9950  -31.7870 C   0  0  2  0  0  0  0  0  0  0  0  0
   -2.4360   20.3090  -32.9350 C   0  0  0  0  0  0  0  0  0  0  0  0
   -3.5240   19.7150  -33.8280 C   0  0  0  0  0  0  0  0  0  0  0  0
   -4.8030   19.8000  -33.1050 N   0  0  0  0  0  0  0  0  0  0  0  0
   -5.5740   18.5470  -33.1950 C   0  0  0  0  0  0  0  0  0  0  0  0
   -6.9660   18.7540  -32.6850 C   0  0  0  0  0  0  0  0  0  0  0  0
   -7.8780   19.5500  -33.2850 N   0  0  0  0  0  0  0  0  0  0  0  0
   -9.0460   19.6160  -32.5930 C   0  0  0  0  0  0  0  0  0  0  0  0
   -9.0710   18.8710  -31.4200 C   0  0  0  0  0  0  0  0  0  0  0  0
   -7.5770   18.1130  -31.2550 S   0  0  0  0  0  0  0  0  0  0  0  0
   -4.4720   20.1630  -31.7210 C   0  0  0  0  0  0  0  0  0  0  0  0
   -2.4100   20.8750  -30.4360 C   0  0  0  0  0  0  0  0  0  0  0  0
   -2.9760   21.6740  -29.2410 C   0  0  0  0  0  0  0  0  0  0  0  0
   -2.8160   23.1360  -29.3570 N   0  0  0  0  0  0  0  0  0  0  0  0
   -2.5470   23.7240  -28.0380 C   0  0  0  0  0  0  0  0  0  0  0  0
   -4.2300   23.8880  -30.0580 S   0  0  0  0  0  0  0  0  0  0  0  0
   -3.8870   25.2920  -30.4840 O   0  0  0  0  0  0  0  0  0  0  0  0
   -5.3390   23.9390  -29.0440 O   0  0  0  0  0  0  0  0  0  0  0  0
   -7.3652   23.0992  -31.1484 H   0  0  0  0  0  0  0  0  0  0  0  0
   -7.7680   23.9096  -32.7001 H   0  0  0  0  0  0  0  0  0  0  0  0
   -7.1718   22.2151  -32.7001 H   0  0  0  0  0  0  0  0  0  0  0  0
   -5.3128   23.5973  -33.3592 H   0  0  0  0  0  0  0  0  0  0  0  0
   -5.6296   24.7568  -32.0067 H   0  0  0  0  0  0  0  0  0  0  0  0
   -3.7436   22.5263  -33.2491 H   0  0  0  0  0  0  0  0  0  0  0  0
   -2.7029   23.1211  -31.8927 H   0  0  0  0  0  0  0  0  0  0  0  0
   -1.8352   21.0407  -33.4950 H   0  0  0  0  0  0  0  0  0  0  0  0
   -1.7410   19.5389  -32.5690 H   0  0  0  0  0  0  0  0  0  0  0  0
   -3.5877   20.2839  -34.7673 H   0  0  0  0  0  0  0  0  0  0  0  0
   -3.2905   18.6675  -34.0692 H   0  0  0  0  0  0  0  0  0  0  0  0
   -5.6171   18.2224  -34.2451 H   0  0  0  0  0  0  0  0  0  0  0  0
   -5.0797   17.7787  -32.5823 H   0  0  0  0  0  0  0  0  0  0  0  0
   -7.7050   20.0660  -34.1750 H   0  0  0  0  0  0  0  0  0  0  0  0
   -9.9046   20.2126  -32.9348 H   0  0  0  0  0  0  0  0  0  0  0  0
   -9.9177   18.7908  -30.7224 H   0  0  0  0  0  0  0  0  0  0  0  0
   -5.2856   20.7565  -31.2785 H   0  0  0  0  0  0  0  0  0  0  0  0
   -4.3373   19.2682  -31.0956 H   0  0  0  0  0  0  0  0  0  0  0  0
   -2.3986   19.8125  -30.1514 H   0  0  0  0  0  0  0  0  0  0  0  0
   -1.4179   21.3085  -30.6304 H   0  0  0  0  0  0  0  0  0  0  0  0
   -4.0497   21.4508  -29.1551 H   0  0  0  0  0  0  0  0  0  0  0  0
   -2.4023   21.3639  -28.3551 H   0  0  0  0  0  0  0  0  0  0  0  0
   -2.8673   23.0240  -27.2523 H   0  0  0  0  0  0  0  0  0  0  0  0
   -1.4694   23.9205  -27.9370 H   0  0  0  0  0  0  0  0  0  0  0  0
   -3.1029   24.6678  -27.9370 H   0  0  0  0  0  0  0  0  0  0  0  0
  1  2  1  0
  2  3  1  0
  3  4  1  0
  5  4  1  6
  5  6  1  0
  6  7  1  0
  7  8  1  0
  8  9  1  0
  9 10  1  0
 10 11  2  0
 11 12  1  0
 12 13  2  0
 13 14  1  0
  8 15  1  0
  5 16  1  0
 16 17  1  0
 17 18  1  0
 18 19  1  0
 18 20  1  0
 20 21  2  0
 20 22  2  0
 20  3  1  0
 15  5  1  0
 14 10  1  0
  1 23  1  0
  1 24  1  0
  1 25  1  0
  2 26  1  0
  2 27  1  0
  4 28  1  0
  4 29  1  0
  6 30  1  0
  6 31  1  0
  7 32  1  0
  7 33  1  0
  9 34  1  0
  9 35  1  0
 11 36  1  0
 12 37  1  0
 13 38  1  0
 15 39  1  0
 15 40  1  0
 16 41  1  0
 16 42  1  0
 17 43  1  0
 17 44  1  0
 19 45  1  0
 19 46  1  0
 19 47  1  0
M  CHG  1  11   1
M  END
>  <UniqueID>  (13) 
13

>  <SMILES>  (13) 
CCN1C[C@@]2(CCN(Cc3[nH+]ccs3)C2)CCN(C)S1(=O)=O

>  <Energy>  (13) 
85.19673365543643

>  <Genealogy>  (13) 
CCN1CC2(CCN(Cc3[nH+]ccs3)C2)CCN(C)S1(=O)=O (protonated)
CCN1C[C@@]2(CCN(Cc3[nH+]ccs3)C2)CCN(C)S1(=O)=O (chirality)
CCN1C[C@@]2(CCN(Cc3[nH+]ccs3)C2)CCN(C)S1(=O)=O (3D coordinates assigned)
CCN1C[C@@]2(CCN(Cc3[nH+]ccs3)C2)CCN(C)S1(=O)=O (nonaromatic ring conformer: 85.19673365543643 kcal/mol)

>  <smiles>  (13) 
CCN1CC2(CCN(Cc3nccs3)C2)CCN(C)S1(=O)=O

>  <score_type>  (13) 
oracle

>  <origin>  (13) 
adg

>  <m_score__min__energy>  (13) 
-6.4500000000000002

>  <m_primary>  (13) 
energy

$$$$
13:0
     RDKit          3D

 38 40  0  0  0  0  0  0  0  0999 V2000
   -5.7410   18.9210  -34.5200 C   0  0  0  0  0  0  0  0  0  0  0  0
   -4.7530   19.4320  -33.4630 C   0  0  0  0  0  0  0  0  0  0  0  0
   -4.8860   20.9000  -33.2240 N   0  0  0  0  0  0  0  0  0  0  0  0
   -3.5650   21.5520  -33.4630 C   0  0  0  0  0  0  0  0  0  0  0  0
   -2.4140   20.8590  -32.7190 C   0  0  0  0  0  0  0  0  0  0  0  0
   -5.4840   21.1330  -31.8590 C   0  0  0  0  0  0  0  0  0  0  0  0
   -6.9990   20.9810  -31.9150 C   0  0  0  0  0  0  0  0  0  0  0  0
   -7.7480   19.8330  -32.2070 C   0  0  0  0  0  0  0  0  0  0  0  0
   -9.1490   19.9250  -32.2370 C   0  0  0  0  0  0  0  0  0  0  0  0
   -9.7880   21.1490  -31.9700 C   0  0  0  0  0  0  0  0  0  0  0  0
   -9.0330   22.2900  -31.6650 C   0  0  0  0  0  0  0  0  0  0  0  0
   -7.6410   22.1780  -31.6540 C   0  0  0  0  0  0  0  0  0  0  0  0
   -6.6500   23.1610  -31.2890 C   0  0  0  0  0  0  0  0  0  0  0  0
   -6.8360   24.4430  -30.7720 C   0  0  0  0  0  0  0  0  0  0  0  0
   -5.7210   25.1280  -30.2690 C   0  0  0  0  0  0  0  0  0  0  0  0
   -4.4610   24.5020  -30.2380 C   0  0  0  0  0  0  0  0  0  0  0  0
   -4.3040   23.2010  -30.7410 C   0  0  0  0  0  0  0  0  0  0  0  0
   -5.4020   22.5610  -31.3330 C   0  0  0  0  0  0  0  0  0  0  0  0
   -6.6116   18.4707  -34.0208 H   0  0  0  0  0  0  0  0  0  0  0  0
   -6.0724   19.7607  -35.1485 H   0  0  0  0  0  0  0  0  0  0  0  0
   -5.2472   18.1652  -35.1485 H   0  0  0  0  0  0  0  0  0  0  0  0
   -4.9408   18.9015  -32.5178 H   0  0  0  0  0  0  0  0  0  0  0  0
   -3.7353   19.2430  -33.8352 H   0  0  0  0  0  0  0  0  0  0  0  0
   -5.5510   21.2790  -33.9420 H   0  0  0  0  0  0  0  0  0  0  0  0
   -3.3512   21.5271  -34.5417 H   0  0  0  0  0  0  0  0  0  0  0  0
   -3.6314   22.5821  -33.0829 H   0  0  0  0  0  0  0  0  0  0  0  0
   -2.5696   20.9527  -31.6341 H   0  0  0  0  0  0  0  0  0  0  0  0
   -2.3873   19.7945  -32.9950 H   0  0  0  0  0  0  0  0  0  0  0  0
   -1.4607   21.3334  -32.9950 H   0  0  0  0  0  0  0  0  0  0  0  0
   -4.9180   20.4227  -31.2384 H   0  0  0  0  0  0  0  0  0  0  0  0
   -7.2465   18.8751  -32.4095 H   0  0  0  0  0  0  0  0  0  0  0  0
   -9.7503   19.0341  -32.4708 H   0  0  0  0  0  0  0  0  0  0  0  0
  -10.8858   21.2113  -32.0007 H   0  0  0  0  0  0  0  0  0  0  0  0
   -9.5240   23.2483  -31.4403 H   0  0  0  0  0  0  0  0  0  0  0  0
   -7.8339   24.9056  -30.7592 H   0  0  0  0  0  0  0  0  0  0  0  0
   -5.8313   26.1575  -29.8976 H   0  0  0  0  0  0  0  0  0  0  0  0
   -3.5952   25.0347  -29.8177 H   0  0  0  0  0  0  0  0  0  0  0  0
   -3.3322   22.6903  -30.6716 H   0  0  0  0  0  0  0  0  0  0  0  0
  1  2  1  0
  2  3  1  0
  3  4  1  0
  4  5  1  0
  3  6  1  0
  6  7  1  0
  7  8  2  0
  8  9  1  0
  9 10  2  0
 10 11  1  0
 11 12  2  0
 12 13  1  0
 13 14  2  0
 14 15  1  0
 15 16  2  0
 16 17  1  0
 17 18  2  0
 18  6  1  0
 12  7  1  0
 18 13  1  0
  1 19  1  0
  1 20  1  0
  1 21  1  0
  2 22  1  0
  2 23  1  0
  3 24  1  0
  4 25  1  0
  4 26  1  0
  5 27  1  0
  5 28  1  0
  5 29  1  0
  6 30  1  0
  8 31  1  0
  9 32  1  0
 10 33  1  0
 11 34  1  0
 14 35  1  0
 15 36  1  0
 16 37  1  0
 17 38  1  0
M  CHG  1   3   1
M  END
>  <UniqueID>  (14) 
14

>  <SMILES>  (14) 
CC[NH+](CC)C1c2ccccc2-c2ccccc21

>  <Energy>  (14) 
75.51623783734158

>  <Genealogy>  (14) 
CC[NH+](CC)C1c2ccccc2-c2ccccc21 (protonated)
CC[NH+](CC)C1c2ccccc2-c2ccccc21 (3D coordinates assigned)
CC[NH+](CC)C1c2ccccc2-c2ccccc21 (nonaromatic ring conformer: 75.51623783734158 kcal/mol)

>  <smiles>  (14) 
CCN(CC)C1c2ccccc2-c2ccccc21

>  <score_type>  (14) 
oracle

>  <origin>  (14) 
adg

>  <m_score__min__energy>  (14) 
-7.1100000000000003

>  <m_primary>  (14) 
energy

$$$$
14:0
     RDKit          3D

 47 49  0  0  0  0  0  0  0  0999 V2000
    1.6990   26.6210  -36.0450 C   0  0  0  0  0  0  0  0  0  0  0  0
    0.8540   25.8520  -37.0800 C   0  0  0  0  0  0  0  0  0  0  0  0
   -0.5610   25.6510  -36.5130 C   0  0  0  0  0  0  0  0  0  0  0  0
    0.7560   26.6460  -38.3970 C   0  0  0  0  0  0  0  0  0  0  0  0
    1.4060   24.5480  -37.3150 O   0  0  0  0  0  0  0  0  0  0  0  0
    1.5160   23.5120  -36.3760 C   0  0  0  0  0  0  0  0  0  0  0  0
    1.6270   23.7580  -35.1440 O   0  0  0  0  0  0  0  0  0  0  0  0
    1.5070   22.1590  -36.8390 N   0  0  0  0  0  0  0  0  0  0  0  0
    1.5550   21.0030  -35.9520 C   0  0  0  0  0  0  0  0  0  0  0  0
    0.4790   21.0990  -34.9200 C   0  0  0  0  0  0  0  0  0  0  0  0
    0.6850   21.5520  -33.6680 N   0  0  0  0  0  0  0  0  0  0  0  0
   -0.4650   21.4310  -33.0780 O   0  0  0  0  0  0  0  0  0  0  0  0
   -1.3390   20.9230  -33.9140 C   0  0  0  0  0  0  0  0  0  0  0  0
   -2.7430   20.6420  -33.5830 C   0  0  0  0  0  0  0  0  0  0  0  0
   -3.2960   19.3780  -33.7970 C   0  0  0  0  0  0  0  0  0  0  0  0
   -4.6320   19.1540  -33.4720 C   0  0  0  0  0  0  0  0  0  0  0  0
   -5.3990   20.2030  -32.9390 C   0  0  0  0  0  0  0  0  0  0  0  0
   -6.7910   20.0270  -32.5900 N   0  0  0  0  0  0  0  0  0  0  0  0
   -7.4280   18.7200  -32.8070 C   0  0  0  0  0  0  0  0  0  0  0  0
   -8.5950   18.5310  -31.8330 C   0  0  0  0  0  0  0  0  0  0  0  0
   -9.4760   19.6350  -31.8860 O   0  0  0  0  0  0  0  0  0  0  0  0
   -8.8150   20.7900  -31.4080 C   0  0  0  0  0  0  0  0  0  0  0  0
   -7.6620   21.1830  -32.3370 C   0  0  0  0  0  0  0  0  0  0  0  0
   -4.8030   21.4110  -32.7470 N   0  0  0  0  0  0  0  0  0  0  0  0
   -3.5220   21.6250  -33.0570 N   0  0  0  0  0  0  0  0  0  0  0  0
   -0.7890   20.6820  -35.1200 N   0  0  0  0  0  0  0  0  0  0  0  0
    1.3850   26.3353  -35.0302 H   0  0  0  0  0  0  0  0  0  0  0  0
    2.7620   26.3740  -36.1831 H   0  0  0  0  0  0  0  0  0  0  0  0
    1.5529   27.7025  -36.1831 H   0  0  0  0  0  0  0  0  0  0  0  0
   -0.5198   25.6569  -35.4138 H   0  0  0  0  0  0  0  0  0  0  0  0
   -1.2141   26.4654  -36.8598 H   0  0  0  0  0  0  0  0  0  0  0  0
   -0.9614   24.6870  -36.8598 H   0  0  0  0  0  0  0  0  0  0  0  0
    0.6241   27.7146  -38.1719 H   0  0  0  0  0  0  0  0  0  0  0  0
    1.6784   26.5051  -38.9796 H   0  0  0  0  0  0  0  0  0  0  0  0
   -0.1044   26.2851  -38.9796 H   0  0  0  0  0  0  0  0  0  0  0  0
    1.4114   20.0860  -36.5423 H   0  0  0  0  0  0  0  0  0  0  0  0
    2.5330   20.9770  -35.4492 H   0  0  0  0  0  0  0  0  0  0  0  0
   -2.6831   18.5673  -34.2179 H   0  0  0  0  0  0  0  0  0  0  0  0
   -5.0827   18.1633  -33.6316 H   0  0  0  0  0  0  0  0  0  0  0  0
   -7.8042   18.6662  -33.8393 H   0  0  0  0  0  0  0  0  0  0  0  0
   -6.6857   17.9265  -32.6355 H   0  0  0  0  0  0  0  0  0  0  0  0
   -9.1451   17.6172  -32.1021 H   0  0  0  0  0  0  0  0  0  0  0  0
   -8.1930   18.4490  -30.8124 H   0  0  0  0  0  0  0  0  0  0  0  0
   -9.5341   21.6207  -31.3550 H   0  0  0  0  0  0  0  0  0  0  0  0
   -8.4048   20.5731  -30.4106 H   0  0  0  0  0  0  0  0  0  0  0  0
   -8.0726   21.5433  -33.2918 H   0  0  0  0  0  0  0  0  0  0  0  0
   -7.0710   21.9764  -31.8562 H   0  0  0  0  0  0  0  0  0  0  0  0
  1  2  1  0
  2  3  1  0
  2  4  1  0
  2  5  1  0
  5  6  1  0
  6  7  2  0
  6  8  1  0
  8  9  1  0
  9 10  1  0
 10 11  2  0
 11 12  1  0
 12 13  1  0
 13 14  1  0
 14 15  2  0
 15 16  1  0
 16 17  2  0
 17 18  1  0
 18 19  1  0
 19 20  1  0
 20 21  1  0
 21 22  1  0
 22 23  1  0
 17 24  1  0
 24 25  2  0
 13 26  2  0
 26 10  1  0
 25 14  1  0
 23 18  1  0
  1 27  1  0
  1 28  1  0
  1 29  1  0
  3 30  1  0
  3 31  1  0
  3 32  1  0
  4 33  1  0
  4 34  1  0
  4 35  1  0
  9 36  1  0
  9 37  1  0
 15 38  1  0
 16 39  1  0
 19 40  1  0
 19 41  1  0
 20 42  1  0
 20 43  1  0
 22 44  1  0
 22 45  1  0
 23 46  1  0
 23 47  1  0
M  CHG  1   8  -1
M  END
>  <UniqueID>  (15) 
15

>  <SMILES>  (15) 
CC(C)(C)OC(=O)[N-]Cc1noc(-c2ccc(N3CCOCC3)nn2)n1

>  <Energy>  (15) 
77.66411788344516

>  <Genealogy>  (15) 
CC(C)(C)OC(=O)[N-]Cc1noc(-c2ccc(N3CCOCC3)nn2)n1 (protonated)
CC(C)(C)OC(=O)[N-]Cc1noc(-c2ccc(N3CCOCC3)nn2)n1 (3D coordinates assigned)
CC(C)(C)OC(=O)[N-]Cc1noc(-c2ccc(N3CCOCC3)nn2)n1 (nonaromatic ring conformer: 77.66411788344516 kcal/mol)

>  <smiles>  (15) 
CC(C)(C)OC(=O)NCc1noc(-c2ccc(N3CCOCC3)nn2)n1

>  <score_type>  (15) 
oracle

>  <origin>  (15) 
adg

>  <m_score__min__energy>  (15) 
-8.9900000000000002

>  <m_primary>  (15) 
energy

$$$$
15:0
     RDKit          3D

 34 36  0  0  0  0  0  0  0  0999 V2000
   -1.6240   25.1130  -28.1580 C   0  0  0  0  0  0  0  0  0  0  0  0
   -2.4120   25.2960  -29.3290 O   0  0  0  0  0  0  0  0  0  0  0  0
   -3.4420   24.4330  -29.7310 C   0  0  0  0  0  0  0  0  0  0  0  0
   -3.2440   23.0420  -29.5850 C   0  0  0  0  0  0  0  0  0  0  0  0
   -4.2390   22.1280  -29.9700 C   0  0  0  0  0  0  0  0  0  0  0  0
   -5.4120   22.6290  -30.5300 C   0  0  0  0  0  0  0  0  0  0  0  0
   -5.6340   23.9840  -30.6410 C   0  0  0  0  0  0  0  0  0  0  0  0
   -4.6630   24.9110  -30.2670 C   0  0  0  0  0  0  0  0  0  0  0  0
   -6.9050   24.2700  -31.2140 N   0  0  0  0  0  0  0  0  0  0  0  0
   -7.3540   22.9930  -31.7560 C   0  0  2  0  0  0  0  0  0  0  0  0
   -8.8560   22.7220  -31.7700 C   0  0  0  0  0  0  0  0  0  0  0  0
   -9.1010   21.1850  -31.9050 C   0  0  0  0  0  0  0  0  0  0  0  0
   -7.9170   20.4690  -32.4670 N   0  0  0  0  0  0  0  0  0  0  0  0
   -8.2330   19.0530  -32.6970 C   0  0  0  0  0  0  0  0  0  0  0  0
   -6.6760   20.6060  -31.6440 C   0  0  0  0  0  0  0  0  0  0  0  0
   -6.6760   21.9350  -30.8830 C   0  0  1  0  0  0  0  0  0  0  0  0
   -2.2522   25.2589  -27.2669 H   0  0  0  0  0  0  0  0  0  0  0  0
   -1.2086   24.0945  -28.1511 H   0  0  0  0  0  0  0  0  0  0  0  0
   -0.8022   25.8442  -28.1511 H   0  0  0  0  0  0  0  0  0  0  0  0
   -2.2983   22.6696  -29.1643 H   0  0  0  0  0  0  0  0  0  0  0  0
   -4.0957   21.0460  -29.8330 H   0  0  0  0  0  0  0  0  0  0  0  0
   -4.8408   25.9901  -30.3854 H   0  0  0  0  0  0  0  0  0  0  0  0
   -7.1960   25.2070  -31.5730 H   0  0  0  0  0  0  0  0  0  0  0  0
   -7.0875   22.9853  -32.8232 H   0  0  0  0  0  0  0  0  0  0  0  0
   -9.3038   23.0848  -30.8330 H   0  0  0  0  0  0  0  0  0  0  0  0
   -9.3174   23.2452  -32.6205 H   0  0  0  0  0  0  0  0  0  0  0  0
   -9.3233   20.7735  -30.9094 H   0  0  0  0  0  0  0  0  0  0  0  0
   -9.9427   21.0382  -32.5978 H   0  0  0  0  0  0  0  0  0  0  0  0
   -8.3472   18.5411  -31.7301 H   0  0  0  0  0  0  0  0  0  0  0  0
   -9.1708   18.9744  -33.2666 H   0  0  0  0  0  0  0  0  0  0  0  0
   -7.4176   18.5832  -33.2666 H   0  0  0  0  0  0  0  0  0  0  0  0
   -6.6274   19.7768  -30.9228 H   0  0  0  0  0  0  0  0  0  0  0  0
   -5.8031   20.5812  -32.3129 H   0  0  0  0  0  0  0  0  0  0  0  0
   -7.1393   21.6047  -29.9416 H   0  0  0  0  0  0  0  0  0  0  0  0
  1  2  1  0
  2  3  1  0
  3  4  2  0
  4  5  1  0
  5  6  2  0
  6  7  1  0
  7  8  2  0
  7  9  1  0
  9 10  1  0
 10 11  1  0
 11 12  1  0
 12 13  1  0
 13 14  1  0
 13 15  1  0
 15 16  1  0
  8  3  1  0
 16 10  1  0
 16  6  1  0
  1 17  1  0
  1 18  1  0
  1 19  1  0
  4 20  1  0
  5 21  1  0
  8 22  1  0
  9 23  1  0
 10 24  1  6
 11 25  1  0
 11 26  1  0
 12 27  1  0
 12 28  1  0
 14 29  1  0
 14 30  1  0
 14 31  1  0
 15 32  1  0
 15 33  1  0
 16 34  1  1
M  END
>  <UniqueID>  (16) 
16

>  <SMILES>  (16) 
COc1ccc2c(c1)N[C@@H]1CCN(C)C[C@@H]21

>  <Energy>  (16) 
71.09561177786495

>  <Genealogy>  (16) 
COc1ccc2c(c1)N[C@@H]1CCN(C)C[C@@H]21 (chirality)
COc1ccc2c(c1)N[C@@H]1CCN(C)C[C@@H]21 (3D coordinates assigned)
COc1ccc2c(c1)N[C@@H]1CCN(C)C[C@@H]21 (nonaromatic ring conformer: 71.09561177786495 kcal/mol)

>  <smiles>  (16) 
COc1ccc2c(c1)NC1CCN(C)CC21

>  <score_type>  (16) 
oracle

>  <origin>  (16) 
adg

>  <m_score__min__energy>  (16) 
-7

>  <m_primary>  (16) 
energy

$$$$
16:0
     RDKit          3D

 25 26  0  0  0  0  0  0  0  0999 V2000
   -3.3860   22.2940  -28.4670 C   0  0  0  0  0  0  0  0  0  0  0  0
   -2.4980   22.5770  -29.4240 C   0  0  0  0  0  0  0  0  0  0  0  0
   -2.9090   22.7150  -30.8630 C   0  0  0  0  0  0  0  0  0  0  0  0
   -4.3200   23.1060  -30.9590 N   0  0  0  0  0  0  0  0  0  0  0  0
   -5.2170   22.1690  -31.2810 N   0  0  0  0  0  0  0  0  0  0  0  0
   -6.5440   22.4420  -31.4170 C   0  0  0  0  0  0  0  0  0  0  0  0
   -7.4780   21.3570  -31.7730 C   0  0  0  0  0  0  0  0  0  0  0  0
   -7.1210   20.0410  -32.0520 C   0  0  0  0  0  0  0  0  0  0  0  0
   -8.2130   19.2220  -32.3620 C   0  0  0  0  0  0  0  0  0  0  0  0
   -9.4340   19.8820  -32.3320 C   0  0  0  0  0  0  0  0  0  0  0  0
   -9.1520   21.4850  -31.9180 S   0  0  0  0  0  0  0  0  0  0  0  0
   -6.9860   23.7550  -31.2160 C   0  0  0  0  0  0  0  0  0  0  0  0
   -6.0610   24.7410  -30.8890 C   0  0  0  0  0  0  0  0  0  0  0  0
   -4.7140   24.4040  -30.7660 C   0  0  0  0  0  0  0  0  0  0  0  0
   -3.8730   25.3010  -30.4790 O   0  0  0  0  0  0  0  0  0  0  0  0
   -3.0566   22.1988  -27.4218 H   0  0  0  0  0  0  0  0  0  0  0  0
   -4.4466   22.1561  -28.7242 H   0  0  0  0  0  0  0  0  0  0  0  0
   -1.4407   22.7123  -29.1523 H   0  0  0  0  0  0  0  0  0  0  0  0
   -2.2868   23.4834  -31.3451 H   0  0  0  0  0  0  0  0  0  0  0  0
   -2.7731   21.7464  -31.3663 H   0  0  0  0  0  0  0  0  0  0  0  0
   -6.0822   19.6798  -32.0309 H   0  0  0  0  0  0  0  0  0  0  0  0
   -8.1130   18.1542  -32.6067 H   0  0  0  0  0  0  0  0  0  0  0  0
  -10.4158   19.4329  -32.5428 H   0  0  0  0  0  0  0  0  0  0  0  0
   -8.0528   24.0041  -31.3155 H   0  0  0  0  0  0  0  0  0  0  0  0
   -6.3898   25.7784  -30.7287 H   0  0  0  0  0  0  0  0  0  0  0  0
  1  2  2  0
  2  3  1  0
  3  4  1  0
  4  5  1  0
  5  6  2  0
  6  7  1  0
  7  8  2  0
  8  9  1  0
  9 10  2  0
 10 11  1  0
  6 12  1  0
 12 13  2  0
 13 14  1  0
 14 15  2  0
 14  4  1  0
 11  7  1  0
  1 16  1  0
  1 17  1  0
  2 18  1  0
  3 19  1  0
  3 20  1  0
  8 21  1  0
  9 22  1  0
 10 23  1  0
 12 24  1  0
 13 25  1  0
M  END
>  <UniqueID>  (17) 
17

>  <SMILES>  (17) 
C=CCn1nc(-c2cccs2)ccc1=O

>  <Energy>  (17) 
50.029450738232846

>  <Genealogy>  (17) 
C=CCn1nc(-c2cccs2)ccc1=O (3D coordinates assigned)
C=CCn1nc(-c2cccs2)ccc1=O (optimized conformer: 50.029450738232846 kcal/mol)

>  <smiles>  (17) 
C=CCn1nc(-c2cccs2)ccc1=O

>  <score_type>  (17) 
oracle

>  <origin>  (17) 
adg

>  <m_score__min__energy>  (17) 
-6.4500000000000002

>  <m_primary>  (17) 
energy

$$$$
17:0
     RDKit          3D

 45 47  0  0  0  0  0  0  0  0999 V2000
   -6.2970   15.7700  -34.2040 C   0  0  0  0  0  0  0  0  0  0  0  0
   -7.2190   16.3880  -33.3090 O   0  0  0  0  0  0  0  0  0  0  0  0
   -7.1830   17.7410  -32.9530 C   0  0  0  0  0  0  0  0  0  0  0  0
   -6.1880   18.6080  -33.4310 C   0  0  0  0  0  0  0  0  0  0  0  0
   -6.1600   19.9440  -33.0180 C   0  0  0  0  0  0  0  0  0  0  0  0
   -7.1300   20.4370  -32.1260 C   0  0  0  0  0  0  0  0  0  0  0  0
   -7.1140   21.8220  -31.7260 N   0  0  0  0  0  0  0  0  0  0  0  0
   -6.7700   22.8710  -32.7030 C   0  0  0  0  0  0  0  0  0  0  0  0
   -6.4890   24.2100  -32.0050 C   0  0  0  0  0  0  0  0  0  0  0  0
   -5.8130   23.9490  -30.7340 N   0  0  0  0  0  0  0  0  0  0  0  0
   -4.3880   24.1050  -30.6690 C   0  0  0  0  0  0  0  0  0  0  0  0
   -3.8900   25.2560  -30.5430 O   0  0  0  0  0  0  0  0  0  0  0  0
   -3.4880   22.9220  -30.8500 C   0  0  0  0  0  0  0  0  0  0  0  0
   -3.2700   22.0440  -29.2650 S   0  0  0  0  0  0  0  0  0  0  0  0
   -2.6530   23.4870  -28.3980 C   0  0  0  0  0  0  0  0  0  0  0  0
   -3.2920   23.9440  -27.2360 C   0  0  0  0  0  0  0  0  0  0  0  0
   -2.7770   25.0580  -26.5680 C   0  0  0  0  0  0  0  0  0  0  0  0
   -1.6400   25.7030  -27.0670 C   0  0  0  0  0  0  0  0  0  0  0  0
   -1.0340   25.2190  -28.2300 C   0  0  0  0  0  0  0  0  0  0  0  0
   -1.5470   24.1320  -28.8660 N   0  0  0  0  0  0  0  0  0  0  0  0
   -6.5080   23.1340  -29.7240 C   0  0  0  0  0  0  0  0  0  0  0  0
   -7.5500   22.2100  -30.3750 C   0  0  0  0  0  0  0  0  0  0  0  0
   -8.1200   19.5630  -31.6460 C   0  0  0  0  0  0  0  0  0  0  0  0
   -8.1380   18.2250  -32.0520 C   0  0  0  0  0  0  0  0  0  0  0  0
   -5.5192   15.2486  -33.6268 H   0  0  0  0  0  0  0  0  0  0  0  0
   -6.8303   15.0462  -34.8378 H   0  0  0  0  0  0  0  0  0  0  0  0
   -5.8302   16.5384  -34.8378 H   0  0  0  0  0  0  0  0  0  0  0  0
   -5.4275   18.2354  -34.1330 H   0  0  0  0  0  0  0  0  0  0  0  0
   -5.3732   20.6147  -33.3936 H   0  0  0  0  0  0  0  0  0  0  0  0
   -5.8735   22.5620  -33.2605 H   0  0  0  0  0  0  0  0  0  0  0  0
   -7.6232   23.0057  -33.3841 H   0  0  0  0  0  0  0  0  0  0  0  0
   -5.8455   24.8320  -32.6446 H   0  0  0  0  0  0  0  0  0  0  0  0
   -7.4350   24.7407  -31.8220 H   0  0  0  0  0  0  0  0  0  0  0  0
   -3.9331   22.2366  -31.5863 H   0  0  0  0  0  0  0  0  0  0  0  0
   -2.5065   23.2699  -31.2044 H   0  0  0  0  0  0  0  0  0  0  0  0
   -4.1878   23.4316  -26.8552 H   0  0  0  0  0  0  0  0  0  0  0  0
   -3.2637   25.4266  -25.6530 H   0  0  0  0  0  0  0  0  0  0  0  0
   -1.2274   26.5816  -26.5496 H   0  0  0  0  0  0  0  0  0  0  0  0
   -0.1401   25.7186  -28.6316 H   0  0  0  0  0  0  0  0  0  0  0  0
   -5.7691   22.5200  -29.1883 H   0  0  0  0  0  0  0  0  0  0  0  0
   -7.0281   23.8099  -29.0293 H   0  0  0  0  0  0  0  0  0  0  0  0
   -7.6697   21.3067  -29.7587 H   0  0  0  0  0  0  0  0  0  0  0  0
   -8.5080   22.7456  -30.4478 H   0  0  0  0  0  0  0  0  0  0  0  0
   -8.8847   19.9332  -30.9473 H   0  0  0  0  0  0  0  0  0  0  0  0
   -8.9100   17.5467  -31.6595 H   0  0  0  0  0  0  0  0  0  0  0  0
  1  2  1  0
  2  3  1  0
  3  4  2  0
  4  5  1  0
  5  6  2  0
  6  7  1  0
  7  8  1  0
  8  9  1  0
  9 10  1  0
 10 11  1  0
 11 12  2  0
 11 13  1  0
 13 14  1  0
 14 15  1  0
 15 16  2  0
 16 17  1  0
 17 18  2  0
 18 19  1  0
 19 20  2  0
 10 21  1  0
 21 22  1  0
  6 23  1  0
 23 24  2  0
 24  3  1  0
 22  7  1  0
 20 15  1  0
  1 25  1  0
  1 26  1  0
  1 27  1  0
  4 28  1  0
  5 29  1  0
  8 30  1  0
  8 31  1  0
  9 32  1  0
  9 33  1  0
 13 34  1  0
 13 35  1  0
 16 36  1  0
 17 37  1  0
 18 38  1  0
 19 39  1  0
 21 40  1  0
 21 41  1  0
 22 42  1  0
 22 43  1  0
 23 44  1  0
 24 45  1  0
M  END
>  <UniqueID>  (18) 
18

>  <SMILES>  (18) 
COc1ccc(N2CCN(C(=O)CSc3ccccn3)CC2)cc1

>  <Energy>  (18) 
57.24632960225439

>  <Genealogy>  (18) 
COc1ccc(N2CCN(C(=O)CSc3ccccn3)CC2)cc1 (3D coordinates assigned)
COc1ccc(N2CCN(C(=O)CSc3ccccn3)CC2)cc1 (nonaromatic ring conformer: 57.24632960225439 kcal/mol)

>  <smiles>  (18) 
COc1ccc(N2CCN(C(=O)CSc3ccccn3)CC2)cc1

>  <score_type>  (18) 
oracle

>  <origin>  (18) 
adg

>  <m_score__min__energy>  (18) 
-8.0899999999999999

>  <m_primary>  (18) 
energy

$$$$
18:0
     RDKit          3D

 62 65  0  0  0  0  0  0  0  0999 V2000
   -3.1950   20.8960  -33.7710 O   0  0  0  0  0  0  0  0  0  0  0  0
   -3.1600   19.7740  -33.1960 C   0  0  0  0  0  0  0  0  0  0  0  0
   -1.8730   19.3120  -32.5490 C   0  0  0  0  0  0  0  0  0  0  0  0
   -1.5570   20.0360  -31.2890 N   0  0  0  0  0  0  0  0  0  0  0  0
   -1.0120   21.3860  -31.5450 C   0  0  0  0  0  0  0  0  0  0  0  0
   -0.8720   22.1530  -30.2280 C   0  0  0  0  0  0  0  0  0  0  0  0
   -0.1010   21.3980  -29.2140 N   0  0  0  0  0  0  0  0  0  0  0  0
   -0.6090   21.5140  -27.8290 C   0  0  0  0  0  0  0  0  0  0  0  0
   -1.8110   22.4210  -27.6930 C   0  0  0  0  0  0  0  0  0  0  0  0
   -3.1020   21.9560  -28.0030 C   0  0  0  0  0  0  0  0  0  0  0  0
   -4.2090   22.7970  -27.8610 C   0  0  0  0  0  0  0  0  0  0  0  0
   -4.0370   24.1150  -27.4320 C   0  0  0  0  0  0  0  0  0  0  0  0
   -2.7560   24.5950  -27.1450 C   0  0  0  0  0  0  0  0  0  0  0  0
   -1.6470   23.7540  -27.2750 C   0  0  0  0  0  0  0  0  0  0  0  0
    0.3670   20.0550  -29.6160 C   0  0  0  0  0  0  0  0  0  0  0  0
   -0.7080   19.2300  -30.3670 C   0  0  0  0  0  0  0  0  0  0  0  0
   -4.3160   18.9240  -33.2440 N   0  0  0  0  0  0  0  0  0  0  0  0
   -4.9100   18.4310  -31.9950 C   0  0  0  0  0  0  0  0  0  0  0  0
   -6.2960   17.7940  -32.2360 C   0  0  0  0  0  0  0  0  0  0  0  0
   -7.1690   18.5790  -33.1470 N   0  0  0  0  0  0  0  0  0  0  0  0
   -8.2820   19.5990  -32.2620 S   0  0  0  0  0  0  0  0  0  0  0  0
   -9.4980   19.8810  -33.1010 O   0  0  0  0  0  0  0  0  0  0  0  0
   -8.7280   18.8690  -31.0250 O   0  0  0  0  0  0  0  0  0  0  0  0
   -7.5320   21.1270  -31.7960 C   0  0  0  0  0  0  0  0  0  0  0  0
   -6.1480   21.1960  -31.5650 C   0  0  0  0  0  0  0  0  0  0  0  0
   -5.5610   22.4020  -31.1680 C   0  0  0  0  0  0  0  0  0  0  0  0
   -6.3500   23.5460  -31.0090 C   0  0  0  0  0  0  0  0  0  0  0  0
   -5.5470   25.1960  -30.4790 Br  0  0  0  0  0  0  0  0  0  0  0  0
   -7.7280   23.4830  -31.2420 C   0  0  0  0  0  0  0  0  0  0  0  0
   -8.3170   22.2780  -31.6350 C   0  0  0  0  0  0  0  0  0  0  0  0
   -6.4850   19.3280  -34.2270 C   0  0  0  0  0  0  0  0  0  0  0  0
   -5.0770   18.8010  -34.4860 C   0  0  0  0  0  0  0  0  0  0  0  0
   -1.9611   18.2391  -32.3229 H   0  0  0  0  0  0  0  0  0  0  0  0
   -1.0581   19.5197  -33.2581 H   0  0  0  0  0  0  0  0  0  0  0  0
   -2.4800   20.1730  -30.8090 H   0  0  0  0  0  0  0  0  0  0  0  0
   -0.0243   21.2958  -32.0207 H   0  0  0  0  0  0  0  0  0  0  0  0
   -1.6979   21.9320  -32.2094 H   0  0  0  0  0  0  0  0  0  0  0  0
   -0.3574   23.1047  -30.4265 H   0  0  0  0  0  0  0  0  0  0  0  0
   -1.8829   22.3173  -29.8266 H   0  0  0  0  0  0  0  0  0  0  0  0
   -0.8906   20.5103  -27.4779 H   0  0  0  0  0  0  0  0  0  0  0  0
    0.1977   21.9596  -27.2285 H   0  0  0  0  0  0  0  0  0  0  0  0
   -3.2409   20.9246  -28.3592 H   0  0  0  0  0  0  0  0  0  0  0  0
   -5.2174   22.4204  -28.0874 H   0  0  0  0  0  0  0  0  0  0  0  0
   -4.9096   24.7753  -27.3200 H   0  0  0  0  0  0  0  0  0  0  0  0
   -2.6204   25.6360  -26.8164 H   0  0  0  0  0  0  0  0  0  0  0  0
   -0.6407   24.1367  -27.0492 H   0  0  0  0  0  0  0  0  0  0  0  0
    1.2401   20.1724  -30.2747 H   0  0  0  0  0  0  0  0  0  0  0  0
    0.6131   19.5068  -28.6946 H   0  0  0  0  0  0  0  0  0  0  0  0
   -0.1986   18.4533  -30.9563 H   0  0  0  0  0  0  0  0  0  0  0  0
   -1.3785   18.8106  -29.6024 H   0  0  0  0  0  0  0  0  0  0  0  0
   -4.2417   17.6757  -31.5559 H   0  0  0  0  0  0  0  0  0  0  0  0
   -5.0383   19.2858  -31.3147 H   0  0  0  0  0  0  0  0  0  0  0  0
   -6.1471   16.7959  -32.6737 H   0  0  0  0  0  0  0  0  0  0  0  0
   -6.8039   17.7560  -31.2610 H   0  0  0  0  0  0  0  0  0  0  0  0
   -5.5244   20.2994  -31.6966 H   0  0  0  0  0  0  0  0  0  0  0  0
   -4.4782   22.4508  -30.9807 H   0  0  0  0  0  0  0  0  0  0  0  0
   -8.3484   24.3825  -31.1158 H   0  0  0  0  0  0  0  0  0  0  0  0
   -9.4006   22.2322  -31.8188 H   0  0  0  0  0  0  0  0  0  0  0  0
   -7.0742   19.2355  -35.1513 H   0  0  0  0  0  0  0  0  0  0  0  0
   -6.4015   20.3784  -33.9112 H   0  0  0  0  0  0  0  0  0  0  0  0
   -5.1234   17.7457  -34.7930 H   0  0  0  0  0  0  0  0  0  0  0  0
   -4.5943   19.3762  -35.2898 H   0  0  0  0  0  0  0  0  0  0  0  0
  1  2  2  0
  2  3  1  0
  3  4  1  0
  4  5  1  0
  5  6  1  0
  6  7  1  0
  7  8  1  0
  8  9  1  0
  9 10  2  0
 10 11  1  0
 11 12  2  0
 12 13  1  0
 13 14  2  0
  7 15  1  0
 15 16  1  0
  2 17  1  0
 17 18  1  0
 18 19  1  0
 19 20  1  0
 20 21  1  0
 21 22  2  0
 21 23  2  0
 21 24  1  0
 24 25  2  0
 25 26  1  0
 26 27  2  0
 27 28  1  0
 27 29  1  0
 29 30  2  0
 20 31  1  0
 31 32  1  0
 16  4  1  0
 32 17  1  0
 14  9  1  0
 30 24  1  0
  3 33  1  0
  3 34  1  0
  4 35  1  0
  5 36  1  0
  5 37  1  0
  6 38  1  0
  6 39  1  0
  8 40  1  0
  8 41  1  0
 10 42  1  0
 11 43  1  0
 12 44  1  0
 13 45  1  0
 14 46  1  0
 15 47  1  0
 15 48  1  0
 16 49  1  0
 16 50  1  0
 18 51  1  0
 18 52  1  0
 19 53  1  0
 19 54  1  0
 25 55  1  0
 26 56  1  0
 29 57  1  0
 30 58  1  0
 31 59  1  0
 31 60  1  0
 32 61  1  0
 32 62  1  0
M  CHG  1   4   1
M  END
>  <UniqueID>  (19) 
19

>  <SMILES>  (19) 
O=C(C[NH+]1CCN(Cc2ccccc2)CC1)N1CCN(S(=O)(=O)c2ccc(Br)cc2)CC1

>  <Energy>  (19) 
91.95346773355793

>  <Genealogy>  (19) 
O=C(C[NH+]1CCN(Cc2ccccc2)CC1)N1CCN(S(=O)(=O)c2ccc(Br)cc2)CC1 (protonated)
O=C(C[NH+]1CCN(Cc2ccccc2)CC1)N1CCN(S(=O)(=O)c2ccc(Br)cc2)CC1 (3D coordinates assigned)
O=C(C[NH+]1CCN(Cc2ccccc2)CC1)N1CCN(S(=O)(=O)c2ccc(Br)cc2)CC1 (nonaromatic ring conformer: 91.95346773355793 kcal/mol)

>  <smiles>  (19) 
O=C(CN1CCN(Cc2ccccc2)CC1)N1CCN(S(=O)(=O)c2ccc(Br)cc2)CC1

>  <score_type>  (19) 
oracle

>  <origin>  (19) 
adg

>  <m_score__min__energy>  (19) 
-10.31

>  <m_primary>  (19) 
energy

$$$$
19:0
     RDKit          3D

 53 55  0  0  0  0  0  0  0  0999 V2000
   -8.9490   21.9190  -30.9790 C   0  0  0  0  0  0  0  0  0  0  0  0
   -7.5030   22.1600  -30.5690 C   0  0  0  0  0  0  0  0  0  0  0  0
   -6.6550   22.3290  -31.7550 N   0  0  0  0  0  0  0  0  0  0  0  0
   -6.3550   23.6730  -32.2660 C   0  0  0  0  0  0  0  0  0  0  0  0
   -5.9270   24.6150  -31.1360 C   0  0  0  0  0  0  0  0  0  0  0  0
   -4.4680   24.7750  -31.1130 N   0  0  0  0  0  0  0  0  0  0  0  0
   -3.9220   24.8100  -29.7470 C   0  0  0  0  0  0  0  0  0  0  0  0
   -3.1530   23.5450  -29.4960 C   0  0  0  0  0  0  0  0  0  0  0  0
   -3.8260   22.3920  -29.0730 C   0  0  0  0  0  0  0  0  0  0  0  0
   -3.1110   21.2310  -28.7690 C   0  0  0  0  0  0  0  0  0  0  0  0
   -1.7100   21.2030  -28.8780 C   0  0  0  0  0  0  0  0  0  0  0  0
   -0.9470   19.9820  -28.5120 C   0  0  0  0  0  0  0  0  0  0  0  0
    0.1690   19.5750  -29.2610 C   0  0  0  0  0  0  0  0  0  0  0  0
    0.8800   18.4300  -28.9000 C   0  0  0  0  0  0  0  0  0  0  0  0
    0.4740   17.6970  -27.7870 C   0  0  0  0  0  0  0  0  0  0  0  0
   -0.6040   18.0990  -27.0650 N   0  0  0  0  0  0  0  0  0  0  0  0
   -1.3160   19.2080  -27.3970 C   0  0  0  0  0  0  0  0  0  0  0  0
   -1.0420   22.3600  -29.3090 C   0  0  0  0  0  0  0  0  0  0  0  0
   -1.7570   23.5230  -29.6050 C   0  0  0  0  0  0  0  0  0  0  0  0
   -6.1720   21.1660  -32.4500 C   0  0  0  0  0  0  0  0  0  0  0  0
   -7.0810   20.1570  -32.8050 C   0  0  0  0  0  0  0  0  0  0  0  0
   -6.6410   19.0020  -33.4550 C   0  0  0  0  0  0  0  0  0  0  0  0
   -5.2870   18.8380  -33.7470 C   0  0  0  0  0  0  0  0  0  0  0  0
   -4.8570   17.7110  -34.3660 F   0  0  0  0  0  0  0  0  0  0  0  0
   -4.3710   19.8330  -33.4000 C   0  0  0  0  0  0  0  0  0  0  0  0
   -4.7990   21.0070  -32.7580 C   0  0  0  0  0  0  0  0  0  0  0  0
   -3.7580   22.0130  -32.3490 C   0  0  0  0  0  0  0  0  0  0  0  0
   -9.5728   21.8150  -30.0790 H   0  0  0  0  0  0  0  0  0  0  0  0
   -9.3072   22.7698  -31.5771 H   0  0  0  0  0  0  0  0  0  0  0  0
   -9.0119   20.9980  -31.5771 H   0  0  0  0  0  0  0  0  0  0  0  0
   -7.4481   23.0690  -29.9520 H   0  0  0  0  0  0  0  0  0  0  0  0
   -7.1456   21.2915  -29.9963 H   0  0  0  0  0  0  0  0  0  0  0  0
   -5.5406   23.6030  -33.0021 H   0  0  0  0  0  0  0  0  0  0  0  0
   -7.2655   24.0792  -32.7308 H   0  0  0  0  0  0  0  0  0  0  0  0
   -6.3949   25.5985  -31.2901 H   0  0  0  0  0  0  0  0  0  0  0  0
   -6.2487   24.1830  -30.1769 H   0  0  0  0  0  0  0  0  0  0  0  0
   -4.2320   25.6770  -31.5850 H   0  0  0  0  0  0  0  0  0  0  0  0
   -3.2526   25.6762  -29.6394 H   0  0  0  0  0  0  0  0  0  0  0  0
   -4.7433   24.8963  -29.0203 H   0  0  0  0  0  0  0  0  0  0  0  0
   -4.9220   22.4006  -28.9797 H   0  0  0  0  0  0  0  0  0  0  0  0
   -3.6498   20.3298  -28.4411 H   0  0  0  0  0  0  0  0  0  0  0  0
    0.4841   20.1617  -30.1365 H   0  0  0  0  0  0  0  0  0  0  0  0
    1.7524   18.1093  -29.4883 H   0  0  0  0  0  0  0  0  0  0  0  0
    1.0266   16.7925  -27.4928 H   0  0  0  0  0  0  0  0  0  0  0  0
   -2.1854   19.5018  -26.7906 H   0  0  0  0  0  0  0  0  0  0  0  0
    0.0529   22.3508  -29.4145 H   0  0  0  0  0  0  0  0  0  0  0  0
   -1.2198   24.4277  -29.9259 H   0  0  0  0  0  0  0  0  0  0  0  0
   -8.1487   20.2771  -32.5692 H   0  0  0  0  0  0  0  0  0  0  0  0
   -7.3626   18.2211  -33.7369 H   0  0  0  0  0  0  0  0  0  0  0  0
   -3.3043   19.6964  -33.6315 H   0  0  0  0  0  0  0  0  0  0  0  0
   -3.7070   22.0623  -31.2513 H   0  0  0  0  0  0  0  0  0  0  0  0
   -2.7787   21.7103  -32.7483 H   0  0  0  0  0  0  0  0  0  0  0  0
   -4.0270   23.0020  -32.7483 H   0  0  0  0  0  0  0  0  0  0  0  0
  1  2  1  0
  2  3  1  0
  3  4  1  0
  4  5  1  0
  5  6  1  0
  6  7  1  0
  7  8  1  0
  8  9  2  0
  9 10  1  0
 10 11  2  0
 11 12  1  0
 12 13  2  0
 13 14  1  0
 14 15  2  0
 15 16  1  0
 16 17  2  0
 11 18  1  0
 18 19  2  0
  3 20  1  0
 20 21  2  0
 21 22  1  0
 22 23  2  0
 23 24  1  0
 23 25  1  0
 25 26  2  0
 26 27  1  0
 19  8  1  0
 26 20  1  0
 17 12  1  0
  1 28  1  0
  1 29  1  0
  1 30  1  0
  2 31  1  0
  2 32  1  0
  4 33  1  0
  4 34  1  0
  5 35  1  0
  5 36  1  0
  6 37  1  0
  7 38  1  0
  7 39  1  0
  9 40  1  0
 10 41  1  0
 13 42  1  0
 14 43  1  0
 15 44  1  0
 17 45  1  0
 18 46  1  0
 19 47  1  0
 21 48  1  0
 22 49  1  0
 25 50  1  0
 27 51  1  0
 27 52  1  0
 27 53  1  0
M  END
>  <UniqueID>  (20) 
20

>  <SMILES>  (20) 
CCN(CCNCc1ccc(-c2cccnc2)cc1)c1ccc(F)cc1C

>  <Energy>  (20) 
54.96030888507741

>  <Genealogy>  (20) 
CCN(CCNCc1ccc(-c2cccnc2)cc1)c1ccc(F)cc1C (3D coordinates assigned)
CCN(CCNCc1ccc(-c2cccnc2)cc1)c1ccc(F)cc1C (optimized conformer: 54.96030888507741 kcal/mol)

>  <smiles>  (20) 
CCN(CCNCc1ccc(-c2cccnc2)cc1)c1ccc(F)cc1C

>  <score_type>  (20) 
oracle

>  <origin>  (20) 
adg

>  <m_score__min__energy>  (20) 
-8.6400000000000006

>  <m_primary>  (20) 
energy

$$$$
20:0
     RDKit          3D

 32 35  0  0  0  0  0  0  0  0999 V2000
    1.0240   24.2920  -27.2710 C   0  0  0  0  0  0  0  0  0  0  0  0
    0.5360   24.5130  -28.5910 O   0  0  0  0  0  0  0  0  0  0  0  0
   -0.7370   24.1310  -29.0380 C   0  0  0  0  0  0  0  0  0  0  0  0
   -1.8810   24.9240  -28.8320 C   0  0  0  0  0  0  0  0  0  0  0  0
   -3.1290   24.5000  -29.2980 C   0  0  0  0  0  0  0  0  0  0  0  0
   -3.2610   23.2750  -29.9790 C   0  0  0  0  0  0  0  0  0  0  0  0
   -4.5770   22.8090  -30.4810 C   0  0  0  0  0  0  0  0  0  0  0  0
   -4.9170   21.4930  -30.8240 C   0  0  0  0  0  0  0  0  0  0  0  0
   -6.1920   21.5450  -31.2210 N   0  0  0  0  0  0  0  0  0  0  0  0
   -6.5830   22.8000  -31.1240 C   0  0  0  0  0  0  0  0  0  0  0  0
   -5.6400   23.6460  -30.6730 N   0  0  0  0  0  0  0  0  0  0  0  0
   -8.1880   23.0430  -31.5930 S   0  0  0  0  0  0  0  0  0  0  0  0
   -8.3440   21.3720  -31.9390 C   0  0  0  0  0  0  0  0  0  0  0  0
   -9.4590   20.6880  -32.4160 C   0  0  0  0  0  0  0  0  0  0  0  0
   -9.3490   19.3030  -32.6270 C   0  0  0  0  0  0  0  0  0  0  0  0
   -8.1390   18.6300  -32.3600 C   0  0  0  0  0  0  0  0  0  0  0  0
   -7.0210   19.3330  -31.8780 C   0  0  0  0  0  0  0  0  0  0  0  0
   -7.1460   20.7070  -31.6750 C   0  0  0  0  0  0  0  0  0  0  0  0
   -2.1130   22.4890  -30.1810 C   0  0  0  0  0  0  0  0  0  0  0  0
   -0.8660   22.9140  -29.7150 C   0  0  0  0  0  0  0  0  0  0  0  0
    0.2742   24.6316  -26.5413 H   0  0  0  0  0  0  0  0  0  0  0  0
    1.2168   23.2187  -27.1262 H   0  0  0  0  0  0  0  0  0  0  0  0
    1.9578   24.8551  -27.1262 H   0  0  0  0  0  0  0  0  0  0  0  0
   -1.7928   25.8833  -28.3011 H   0  0  0  0  0  0  0  0  0  0  0  0
   -4.0157   25.1292  -29.1311 H   0  0  0  0  0  0  0  0  0  0  0  0
   -4.2703   20.6044  -30.7764 H   0  0  0  0  0  0  0  0  0  0  0  0
  -10.4008   21.2176  -32.6222 H   0  0  0  0  0  0  0  0  0  0  0  0
  -10.2148   18.7387  -33.0039 H   0  0  0  0  0  0  0  0  0  0  0  0
   -8.0692   17.5455  -32.5303 H   0  0  0  0  0  0  0  0  0  0  0  0
   -6.0744   18.8139  -31.6670 H   0  0  0  0  0  0  0  0  0  0  0  0
   -2.1973   21.5291  -30.7116 H   0  0  0  0  0  0  0  0  0  0  0  0
    0.0216   22.2861  -29.8821 H   0  0  0  0  0  0  0  0  0  0  0  0
  1  2  1  0
  2  3  1  0
  3  4  2  0
  4  5  1  0
  5  6  2  0
  6  7  1  0
  7  8  2  0
  8  9  1  0
  9 10  1  0
 10 11  2  0
 10 12  1  0
 12 13  1  0
 13 14  2  0
 14 15  1  0
 15 16  2  0
 16 17  1  0
 17 18  2  0
  6 19  1  0
 19 20  2  0
 20  3  1  0
 11  7  1  0
 18 13  1  0
 18  9  1  0
  1 21  1  0
  1 22  1  0
  1 23  1  0
  4 24  1  0
  5 25  1  0
  8 26  1  0
 14 27  1  0
 15 28  1  0
 16 29  1  0
 17 30  1  0
 19 31  1  0
 20 32  1  0
M  END
>  <UniqueID>  (21) 
21

>  <SMILES>  (21) 
COc1ccc(-c2cn3c(n2)sc2ccccc23)cc1

>  <Energy>  (21) 
121.01168152255364

>  <Genealogy>  (21) 
COc1ccc(-c2cn3c(n2)sc2ccccc23)cc1 (3D coordinates assigned)
COc1ccc(-c2cn3c(n2)sc2ccccc23)cc1 (optimized conformer: 121.01168152255364 kcal/mol)

>  <smiles>  (21) 
COc1ccc(-c2cn3c(n2)sc2ccccc23)cc1

>  <score_type>  (21) 
oracle

>  <origin>  (21) 
adg

>  <m_score__min__energy>  (21) 
-7.2300000000000004

>  <m_primary>  (21) 
energy

$$$$
21:0
     RDKit          3D

 40 42  0  0  0  0  0  0  0  0999 V2000
   -4.0300   25.6710  -30.8370 O   0  0  0  0  0  0  0  0  0  0  0  0
   -4.1240   24.6290  -30.1340 C   0  0  0  0  0  0  0  0  0  0  0  0
   -5.3670   24.3840  -29.3350 C   0  0  0  0  0  0  0  0  0  0  0  0
   -6.6280   24.6390  -30.1730 C   0  0  0  0  0  0  0  0  0  0  0  0
   -6.5330   24.0210  -31.4920 N   0  0  0  0  0  0  0  0  0  0  0  0
   -6.2950   22.7830  -31.8330 C   0  0  0  0  0  0  0  0  0  0  0  0
   -4.9440   22.3660  -32.0460 N   0  0  0  0  0  0  0  0  0  0  0  0
   -4.8880   20.6790  -32.3510 S   0  0  0  0  0  0  0  0  0  0  0  0
   -4.1540   19.9430  -31.2660 O   0  0  0  0  0  0  0  0  0  0  0  0
   -4.3390   20.3830  -33.7190 O   0  0  0  0  0  0  0  0  0  0  0  0
   -6.6050   20.4600  -32.2640 C   0  0  0  0  0  0  0  0  0  0  0  0
   -7.2830   19.2610  -32.4720 C   0  0  0  0  0  0  0  0  0  0  0  0
   -8.6810   19.2620  -32.4160 C   0  0  0  0  0  0  0  0  0  0  0  0
   -9.3740   20.4550  -32.1670 C   0  0  0  0  0  0  0  0  0  0  0  0
   -8.6780   21.6570  -31.9650 C   0  0  0  0  0  0  0  0  0  0  0  0
   -7.2700   21.6570  -31.9960 C   0  0  0  0  0  0  0  0  0  0  0  0
   -3.1000   23.6290  -30.1600 N   0  0  0  0  0  0  0  0  0  0  0  0
   -2.7060   22.7680  -29.0780 C   0  0  0  0  0  0  0  0  0  0  0  0
   -3.2720   21.4890  -28.9240 C   0  0  0  0  0  0  0  0  0  0  0  0
   -2.8700   20.6580  -27.8770 C   0  0  0  0  0  0  0  0  0  0  0  0
   -1.8950   21.0870  -26.9790 C   0  0  0  0  0  0  0  0  0  0  0  0
   -1.3060   22.3430  -27.1310 C   0  0  0  0  0  0  0  0  0  0  0  0
   -1.6890   23.1920  -28.1890 C   0  0  0  0  0  0  0  0  0  0  0  0
   -1.0610   24.5590  -28.3450 C   0  0  0  0  0  0  0  0  0  0  0  0
   -0.3930   24.9030  -27.1830 F   0  0  0  0  0  0  0  0  0  0  0  0
   -0.1610   24.5320  -29.3940 F   0  0  0  0  0  0  0  0  0  0  0  0
   -2.0090   25.5350  -28.6030 F   0  0  0  0  0  0  0  0  0  0  0  0
   -5.3712   23.3395  -28.9900 H   0  0  0  0  0  0  0  0  0  0  0  0
   -5.3723   25.0762  -28.4801 H   0  0  0  0  0  0  0  0  0  0  0  0
   -7.4977   24.2207  -29.6450 H   0  0  0  0  0  0  0  0  0  0  0  0
   -6.7353   25.7252  -30.3098 H   0  0  0  0  0  0  0  0  0  0  0  0
   -4.1070   22.9880  -31.9890 H   0  0  0  0  0  0  0  0  0  0  0  0
   -6.7304   18.3321  -32.6762 H   0  0  0  0  0  0  0  0  0  0  0  0
   -9.2373   18.3252  -32.5676 H   0  0  0  0  0  0  0  0  0  0  0  0
  -10.4733   20.4490  -32.1296 H   0  0  0  0  0  0  0  0  0  0  0  0
   -9.2282   22.5921  -31.7838 H   0  0  0  0  0  0  0  0  0  0  0  0
   -4.0369   21.1414  -29.6340 H   0  0  0  0  0  0  0  0  0  0  0  0
   -3.3238   19.6627  -27.7607 H   0  0  0  0  0  0  0  0  0  0  0  0
   -1.5888   20.4342  -26.1483 H   0  0  0  0  0  0  0  0  0  0  0  0
   -0.5358   22.6735  -26.4186 H   0  0  0  0  0  0  0  0  0  0  0  0
  1  2  2  0
  2  3  1  0
  3  4  1  0
  4  5  1  0
  5  6  2  3
  6  7  1  0
  7  8  1  0
  8  9  2  0
  8 10  2  0
  8 11  1  0
 11 12  2  0
 12 13  1  0
 13 14  2  0
 14 15  1  0
 15 16  2  0
  2 17  1  0
 17 18  1  0
 18 19  2  0
 19 20  1  0
 20 21  2  0
 21 22  1  0
 22 23  2  0
 23 24  1  0
 24 25  1  0
 24 26  1  0
 24 27  1  0
 16  6  1  0
 23 18  1  0
 16 11  1  0
  3 28  1  0
  3 29  1  0
  4 30  1  0
  4 31  1  0
  7 32  1  0
 12 33  1  0
 13 34  1  0
 14 35  1  0
 15 36  1  0
 19 37  1  0
 20 38  1  0
 21 39  1  0
 22 40  1  0
M  CHG  1  17  -1
M  END
>  <UniqueID>  (22) 
22

>  <SMILES>  (22) 
O=C(CCN=C1NS(=O)(=O)c2ccccc21)[N-]c1ccccc1C(F)(F)F

>  <Energy>  (22) 
72.28879328015626

>  <Genealogy>  (22) 
O=C(CCN=C1NS(=O)(=O)c2ccccc21)[N-]c1ccccc1C(F)(F)F (protonated)
O=C(CCN=C1NS(=O)(=O)c2ccccc21)[N-]c1ccccc1C(F)(F)F (3D coordinates assigned)
O=C(CCN=C1NS(=O)(=O)c2ccccc21)[N-]c1ccccc1C(F)(F)F (nonaromatic ring conformer: 72.28879328015626 kcal/mol)

>  <smiles>  (22) 
O=C(CCN=C1NS(=O)(=O)c2ccccc21)Nc1ccccc1C(F)(F)F

>  <score_type>  (22) 
oracle

>  <origin>  (22) 
adg

>  <m_score__min__energy>  (22) 
-10.33

>  <m_primary>  (22) 
energy

$$$$
22:0
     RDKit          3D

 41 44  0  0  0  0  0  0  0  0999 V2000
   -2.2060   25.1620  -26.3680 C   0  0  0  0  0  0  0  0  0  0  0  0
   -1.4810   25.0270  -27.5540 C   0  0  0  0  0  0  0  0  0  0  0  0
   -2.1290   24.6530  -28.7340 C   0  0  0  0  0  0  0  0  0  0  0  0
   -3.5150   24.4090  -28.7380 C   0  0  0  0  0  0  0  0  0  0  0  0
   -4.2000   24.0050  -29.9830 C   0  0  0  0  0  0  0  0  0  0  0  0
   -4.6420   24.8730  -30.9160 N   0  0  0  0  0  0  0  0  0  0  0  0
   -5.1930   24.1320  -31.8280 O   0  0  0  0  0  0  0  0  0  0  0  0
   -5.1050   22.8720  -31.4840 C   0  0  0  0  0  0  0  0  0  0  0  0
   -5.6470   21.7270  -32.2940 C   0  0  0  0  0  0  0  0  0  0  0  0
   -7.0910   21.8510  -32.6330 N   0  0  0  0  0  0  0  0  0  0  0  0
   -7.8040   22.7660  -31.7260 C   0  0  0  0  0  0  0  0  0  0  0  0
   -8.7090   21.9340  -30.8150 C   0  0  0  0  0  0  0  0  0  0  0  0
   -8.5410   20.4940  -31.2640 C   0  0  0  0  0  0  0  0  0  0  0  0
   -7.8850   20.6040  -32.6360 C   0  0  2  0  0  0  0  0  0  0  0  0
   -7.1410   19.3650  -33.0980 C   0  0  0  0  0  0  0  0  0  0  0  0
   -7.2110   18.1830  -32.3430 C   0  0  0  0  0  0  0  0  0  0  0  0
   -6.5130   17.0520  -32.7700 C   0  0  0  0  0  0  0  0  0  0  0  0
   -5.7420   17.1070  -33.9310 C   0  0  0  0  0  0  0  0  0  0  0  0
   -5.6750   18.3030  -34.6480 C   0  0  0  0  0  0  0  0  0  0  0  0
   -6.3640   19.3940  -34.2190 N   0  0  0  0  0  0  0  0  0  0  0  0
   -4.4680   22.7230  -30.3080 N   0  0  0  0  0  0  0  0  0  0  0  0
   -4.2370   24.5480  -27.5380 C   0  0  0  0  0  0  0  0  0  0  0  0
   -3.5830   24.9230  -26.3610 C   0  0  0  0  0  0  0  0  0  0  0  0
   -1.6937   25.4562  -25.4401 H   0  0  0  0  0  0  0  0  0  0  0  0
   -0.3973   25.2156  -27.5592 H   0  0  0  0  0  0  0  0  0  0  0  0
   -1.5526   24.5487  -29.6651 H   0  0  0  0  0  0  0  0  0  0  0  0
   -5.0760   21.6671  -33.2323 H   0  0  0  0  0  0  0  0  0  0  0  0
   -5.5435   20.8239  -31.6746 H   0  0  0  0  0  0  0  0  0  0  0  0
   -7.0787   23.3264  -31.1178 H   0  0  0  0  0  0  0  0  0  0  0  0
   -8.4059   23.4808  -32.3063 H   0  0  0  0  0  0  0  0  0  0  0  0
   -8.4013   22.0456  -29.7648 H   0  0  0  0  0  0  0  0  0  0  0  0
   -9.7579   22.2583  -30.8828 H   0  0  0  0  0  0  0  0  0  0  0  0
   -7.8954   19.9406  -30.5662 H   0  0  0  0  0  0  0  0  0  0  0  0
   -9.4957   19.9486  -31.2960 H   0  0  0  0  0  0  0  0  0  0  0  0
   -8.6616   20.6628  -33.4128 H   0  0  0  0  0  0  0  0  0  0  0  0
   -7.8114   18.1486  -31.4219 H   0  0  0  0  0  0  0  0  0  0  0  0
   -6.5710   16.1183  -32.1914 H   0  0  0  0  0  0  0  0  0  0  0  0
   -5.1934   16.2188  -34.2775 H   0  0  0  0  0  0  0  0  0  0  0  0
   -5.0642   18.3629  -35.5609 H   0  0  0  0  0  0  0  0  0  0  0  0
   -5.3209   24.3607  -27.5263 H   0  0  0  0  0  0  0  0  0  0  0  0
   -4.1536   25.0303  -25.4267 H   0  0  0  0  0  0  0  0  0  0  0  0
  1  2  2  0
  2  3  1  0
  3  4  2  0
  4  5  1  0
  5  6  2  0
  6  7  1  0
  7  8  1  0
  8  9  1  0
  9 10  1  0
 10 11  1  0
 11 12  1  0
 12 13  1  0
 13 14  1  0
 14 15  1  0
 15 16  2  0
 16 17  1  0
 17 18  2  0
 18 19  1  0
 19 20  2  0
  8 21  2  0
  4 22  1  0
 22 23  2  0
 23  1  1  0
 21  5  1  0
 14 10  1  0
 20 15  1  0
  1 24  1  0
  2 25  1  0
  3 26  1  0
  9 27  1  0
  9 28  1  0
 11 29  1  0
 11 30  1  0
 12 31  1  0
 12 32  1  0
 13 33  1  0
 13 34  1  0
 14 35  1  6
 16 36  1  0
 17 37  1  0
 18 38  1  0
 19 39  1  0
 22 40  1  0
 23 41  1  0
M  END
>  <UniqueID>  (23) 
23

>  <SMILES>  (23) 
c1ccc(-c2noc(CN3CCC[C@@H]3c3ccccn3)n2)cc1

>  <Energy>  (23) 
87.75893002731792

>  <Genealogy>  (23) 
c1ccc(-c2noc(CN3CCC[C@@H]3c3ccccn3)n2)cc1 (chirality)
c1ccc(-c2noc(CN3CCC[C@@H]3c3ccccn3)n2)cc1 (3D coordinates assigned)
c1ccc(-c2noc(CN3CCC[C@@H]3c3ccccn3)n2)cc1 (nonaromatic ring conformer: 87.75893002731792 kcal/mol)

>  <smiles>  (23) 
c1ccc(-c2noc(CN3CCCC3c3ccccn3)n2)cc1

>  <score_type>  (23) 
oracle

>  <origin>  (23) 
adg

>  <m_score__min__energy>  (23) 
-9.2400000000000002

>  <m_primary>  (23) 
energy

$$$$
23:0
     RDKit          3D

 39 41  0  0  0  0  0  0  0  0999 V2000
   -1.9870   24.9140  -28.2040 C   0  0  0  0  0  0  0  0  0  0  0  0
   -2.7380   25.2820  -29.3570 O   0  0  0  0  0  0  0  0  0  0  0  0
   -3.8370   24.5620  -29.8480 C   0  0  0  0  0  0  0  0  0  0  0  0
   -3.5960   23.4480  -30.6590 C   0  0  0  0  0  0  0  0  0  0  0  0
   -4.6580   22.6970  -31.1710 C   0  0  0  0  0  0  0  0  0  0  0  0
   -5.9820   23.0450  -30.8660 C   0  0  0  0  0  0  0  0  0  0  0  0
   -7.0780   22.2890  -31.4010 N   0  0  0  0  0  0  0  0  0  0  0  0
   -8.3230   22.7450  -31.4770 N   0  0  0  0  0  0  0  0  0  0  0  0
   -9.1200   21.7740  -31.9710 C   0  0  0  0  0  0  0  0  0  0  0  0
   -8.3360   20.6630  -32.2020 C   0  0  0  0  0  0  0  0  0  0  0  0
   -7.0590   21.0170  -31.8530 C   0  0  0  0  0  0  0  0  0  0  0  0
   -5.9430   20.0110  -31.7520 C   0  0  0  0  0  0  0  0  0  0  0  0
   -6.1850   18.8090  -32.7210 C   0  0  0  0  0  0  0  0  0  0  0  0
   -5.1740   17.6930  -32.3910 C   0  0  0  0  0  0  0  0  0  0  0  0
   -5.9520   19.2580  -34.1820 C   0  0  0  0  0  0  0  0  0  0  0  0
   -7.6350   18.2390  -32.5660 C   0  0  0  0  0  0  0  0  0  0  0  0
   -8.6950   19.3130  -32.6290 C   0  0  0  0  0  0  0  0  0  0  0  0
   -9.8740   19.0360  -32.9760 O   0  0  0  0  0  0  0  0  0  0  0  0
   -6.2290   24.1720  -30.0700 C   0  0  0  0  0  0  0  0  0  0  0  0
   -5.1670   24.9230  -29.5560 C   0  0  0  0  0  0  0  0  0  0  0  0
   -2.5475   25.1887  -27.2983 H   0  0  0  0  0  0  0  0  0  0  0  0
   -1.8119   23.8280  -28.2117 H   0  0  0  0  0  0  0  0  0  0  0  0
   -1.0215   25.4411  -28.2117 H   0  0  0  0  0  0  0  0  0  0  0  0
   -2.5611   23.1603  -30.8961 H   0  0  0  0  0  0  0  0  0  0  0  0
   -4.4544   21.8294  -31.8159 H   0  0  0  0  0  0  0  0  0  0  0  0
   -8.6310   23.6990  -31.1850 H   0  0  0  0  0  0  0  0  0  0  0  0
  -10.2013   21.8544  -32.1562 H   0  0  0  0  0  0  0  0  0  0  0  0
   -4.9931   20.4996  -32.0147 H   0  0  0  0  0  0  0  0  0  0  0  0
   -5.9069   19.6291  -30.7211 H   0  0  0  0  0  0  0  0  0  0  0  0
   -5.0826   17.5921  -31.2995 H   0  0  0  0  0  0  0  0  0  0  0  0
   -5.5246   16.7423  -32.8190 H   0  0  0  0  0  0  0  0  0  0  0  0
   -4.1934   17.9483  -32.8190 H   0  0  0  0  0  0  0  0  0  0  0  0
   -5.4453   20.2343  -34.1892 H   0  0  0  0  0  0  0  0  0  0  0  0
   -5.3252   18.5159  -34.6981 H   0  0  0  0  0  0  0  0  0  0  0  0
   -6.9196   19.3432  -34.6981 H   0  0  0  0  0  0  0  0  0  0  0  0
   -7.8174   17.5170  -33.3756 H   0  0  0  0  0  0  0  0  0  0  0  0
   -7.7010   17.7657  -31.5752 H   0  0  0  0  0  0  0  0  0  0  0  0
   -7.2650   24.4677  -29.8481 H   0  0  0  0  0  0  0  0  0  0  0  0
   -5.3709   25.7983  -28.9217 H   0  0  0  0  0  0  0  0  0  0  0  0
  1  2  1  0
  2  3  1  0
  3  4  2  0
  4  5  1  0
  5  6  2  0
  6  7  1  0
  7  8  1  0
  8  9  2  0
  9 10  1  0
 10 11  2  0
 11 12  1  0
 12 13  1  0
 13 14  1  0
 13 15  1  0
 13 16  1  0
 16 17  1  0
 17 18  2  0
  6 19  1  0
 19 20  2  0
 20  3  1  0
 11  7  1  0
 17 10  1  0
  1 21  1  0
  1 22  1  0
  1 23  1  0
  4 24  1  0
  5 25  1  0
  8 26  1  0
  9 27  1  0
 12 28  1  0
 12 29  1  0
 14 30  1  0
 14 31  1  0
 14 32  1  0
 15 33  1  0
 15 34  1  0
 15 35  1  0
 16 36  1  0
 16 37  1  0
 19 38  1  0
 20 39  1  0
M  CHG  1   8   1
M  END
>  <UniqueID>  (24) 
24

>  <SMILES>  (24) 
COc1ccc(-n2[nH+]cc3c2CC(C)(C)CC3=O)cc1

>  <Energy>  (24) 
77.34725645565787

>  <Genealogy>  (24) 
COc1ccc(-n2[nH+]cc3c2CC(C)(C)CC3=O)cc1 (protonated)
COc1ccc(-n2[nH+]cc3c2CC(C)(C)CC3=O)cc1 (3D coordinates assigned)
COc1ccc(-n2[nH+]cc3c2CC(C)(C)CC3=O)cc1 (nonaromatic ring conformer: 77.34725645565787 kcal/mol)

>  <smiles>  (24) 
COc1ccc(-n2ncc3c2CC(C)(C)CC3=O)cc1

>  <score_type>  (24) 
oracle

>  <origin>  (24) 
adg

>  <m_score__min__energy>  (24) 
-8.3100000000000005

>  <m_primary>  (24) 
energy

$$$$
24:0
     RDKit          3D

 35 37  0  0  0  0  0  0  0  0999 V2000
   -8.3137   23.5887  -31.5008 H   0  0  0  0  0  0  0  0  0  0  0  0
   -7.6250   22.8390  -31.0840 C   0  0  0  0  0  0  0  0  0  0  0  0
   -6.8610   23.1950  -30.0920 N   0  0  0  0  0  0  0  0  0  0  0  0
   -5.7110   23.9960  -30.2060 N   0  0  0  0  0  0  0  0  0  0  0  0
   -5.6120   25.2480  -30.6860 C   0  0  0  0  0  0  0  0  0  0  0  0
   -6.4671   25.8979  -30.9237 H   0  0  0  0  0  0  0  0  0  0  0  0
   -4.3190   25.5950  -30.8350 N   0  0  0  0  0  0  0  0  0  0  0  0
   -3.5880   24.5470  -30.4760 N   0  0  0  0  0  0  0  0  0  0  0  0
   -4.4420   23.5700  -30.1140 C   0  0  0  0  0  0  0  0  0  0  0  0
   -4.1409   22.5634  -29.7884 H   0  0  0  0  0  0  0  0  0  0  0  0
   -7.6230   21.4910  -31.6830 C   0  0  0  0  0  0  0  0  0  0  0  0
   -8.7260   20.7660  -32.1000 C   0  0  0  0  0  0  0  0  0  0  0  0
  -10.1560   21.1750  -31.9700 C   0  0  0  0  0  0  0  0  0  0  0  0
  -10.4204   21.2506  -30.9049 H   0  0  0  0  0  0  0  0  0  0  0  0
  -10.3036   22.1514  -32.4546 H   0  0  0  0  0  0  0  0  0  0  0  0
  -10.7976   20.4243  -32.4546 H   0  0  0  0  0  0  0  0  0  0  0  0
   -8.3230   19.6240  -32.6940 N   0  0  0  0  0  0  0  0  0  0  0  0
   -6.9990   19.6040  -32.6800 N   0  0  0  0  0  0  0  0  0  0  0  0
   -6.2520   18.4940  -33.1830 C   0  0  0  0  0  0  0  0  0  0  0  0
   -6.1120   17.3310  -32.4120 C   0  0  0  0  0  0  0  0  0  0  0  0
   -6.5551   17.2819  -31.4064 H   0  0  0  0  0  0  0  0  0  0  0  0
   -5.4100   16.2340  -32.9200 C   0  0  0  0  0  0  0  0  0  0  0  0
   -5.2919   15.3266  -32.3095 H   0  0  0  0  0  0  0  0  0  0  0  0
   -4.8580   16.2890  -34.2030 C   0  0  0  0  0  0  0  0  0  0  0  0
   -4.3017   15.4270  -34.5999 H   0  0  0  0  0  0  0  0  0  0  0  0
   -5.0130   17.4400  -34.9820 C   0  0  0  0  0  0  0  0  0  0  0  0
   -4.5811   17.4813  -35.9928 H   0  0  0  0  0  0  0  0  0  0  0  0
   -5.7160   18.5380  -34.4780 C   0  0  0  0  0  0  0  0  0  0  0  0
   -5.8488   19.4371  -35.0976 H   0  0  0  0  0  0  0  0  0  0  0  0
   -6.5390   20.7380  -32.0970 C   0  0  0  0  0  0  0  0  0  0  0  0
   -5.2030   21.1580  -31.9860 O   0  0  0  0  0  0  0  0  0  0  0  0
   -4.3430   21.4860  -33.0680 C   0  0  0  0  0  0  0  0  0  0  0  0
   -3.3829   21.8522  -32.6753 H   0  0  0  0  0  0  0  0  0  0  0  0
   -4.1700   20.5907  -33.6833 H   0  0  0  0  0  0  0  0  0  0  0  0
   -4.8101   22.2691  -33.6833 H   0  0  0  0  0  0  0  0  0  0  0  0
  1  2  1  0
  2  3  2  0
  3  4  1  0
  4  5  1  0
  5  6  1  0
  5  7  2  0
  7  8  1  0
  8  9  2  0
  9 10  1  0
  2 11  1  0
 11 12  1  0
 12 13  1  0
 13 14  1  0
 13 15  1  0
 13 16  1  0
 12 17  2  0
 17 18  1  0
 18 19  1  0
 19 20  2  0
 20 21  1  0
 20 22  1  0
 22 23  1  0
 22 24  2  0
 24 25  1  0
 24 26  1  0
 26 27  1  0
 26 28  2  0
 28 29  1  0
 18 30  1  0
 30 31  1  0
 31 32  1  0
 32 33  1  0
 32 34  1  0
 32 35  1  0
  9  4  1  0
 30 11  2  0
 28 19  1  0
M  END
>  <UniqueID>  (25) 
25

>  <SMILES>  (25) 
COc1c(/C=N\n2cnnc2)c(C)nn1-c1ccccc1

>  <Energy>  (25) 
119.9779185895676

>  <Genealogy>  (25) 
COc1c(/C=N\n2cnnc2)c(C)nn1-c1ccccc1 (cis-trans isomerization)
COc1c(/C=N\n2cnnc2)c(C)nn1-c1ccccc1 (3D coordinates assigned)
COc1c(/C=N\n2cnnc2)c(C)nn1-c1ccccc1 (optimized conformer: 119.9779185895676 kcal/mol)

>  <smiles>  (25) 
COc1c(C=Nn2cnnc2)c(C)nn1-c1ccccc1

>  <score_type>  (25) 
oracle

>  <origin>  (25) 
adg

>  <m_score__min__energy>  (25) 
-7.5099999999999998

>  <m_primary>  (25) 
energy

$$$$
25:0
     RDKit          3D

 42 44  0  0  0  0  0  0  0  0999 V2000
   -1.5900   21.1430  -33.0890 C   0  0  0  0  0  0  0  0  0  0  0  0
   -2.9270   20.7050  -33.3080 O   0  0  0  0  0  0  0  0  0  0  0  0
   -4.0650   21.3510  -32.8020 C   0  0  0  0  0  0  0  0  0  0  0  0
   -5.3690   20.8940  -33.0650 C   0  0  0  0  0  0  0  0  0  0  0  0
   -6.4730   21.5670  -32.5400 C   0  0  0  0  0  0  0  0  0  0  0  0
   -6.2960   22.7090  -31.7450 C   0  0  0  0  0  0  0  0  0  0  0  0
   -7.4070   23.3840  -31.2230 C   0  0  0  0  0  0  0  0  0  0  0  0
   -7.2300   24.5280  -30.4450 C   0  0  0  0  0  0  0  0  0  0  0  0
   -5.9470   25.0020  -30.1710 C   0  0  0  0  0  0  0  0  0  0  0  0
   -4.8130   24.3280  -30.6600 C   0  0  0  0  0  0  0  0  0  0  0  0
   -3.4890   24.8260  -30.4010 N   0  0  0  0  0  0  0  0  0  0  0  0
   -2.8500   24.9160  -29.1220 C   0  0  0  0  0  0  0  0  0  0  0  0
   -1.8600   25.6760  -28.9460 O   0  0  0  0  0  0  0  0  0  0  0  0
   -3.3880   24.1270  -27.9690 C   0  0  0  0  0  0  0  0  0  0  0  0
   -2.3880   23.1350  -27.5220 N   0  0  0  0  0  0  0  0  0  0  0  0
   -1.0120   23.6930  -27.4470 C   0  0  0  0  0  0  0  0  0  0  0  0
   -0.0790   23.1830  -28.5640 C   0  0  0  0  0  0  0  0  0  0  0  0
   -0.7990   23.0480  -29.8340 N   0  0  0  0  0  0  0  0  0  0  0  0
   -1.9140   22.0870  -29.7470 C   0  0  0  0  0  0  0  0  0  0  0  0
   -2.4500   21.8910  -28.3130 C   0  0  0  0  0  0  0  0  0  0  0  0
   -4.9860   23.1820  -31.4710 C   0  0  0  0  0  0  0  0  0  0  0  0
   -3.8840   22.4890  -32.0080 C   0  0  0  0  0  0  0  0  0  0  0  0
   -1.3973   21.2061  -32.0079 H   0  0  0  0  0  0  0  0  0  0  0  0
   -0.8903   20.4271  -33.5450 H   0  0  0  0  0  0  0  0  0  0  0  0
   -1.4495   22.1341  -33.5450 H   0  0  0  0  0  0  0  0  0  0  0  0
   -5.5195   20.0004  -33.6885 H   0  0  0  0  0  0  0  0  0  0  0  0
   -7.4882   21.1997  -32.7509 H   0  0  0  0  0  0  0  0  0  0  0  0
   -8.4214   23.0109  -31.4272 H   0  0  0  0  0  0  0  0  0  0  0  0
   -8.1065   25.0591  -30.0455 H   0  0  0  0  0  0  0  0  0  0  0  0
   -5.8206   25.9122  -29.5663 H   0  0  0  0  0  0  0  0  0  0  0  0
   -3.6203   24.8093  -27.1380 H   0  0  0  0  0  0  0  0  0  0  0  0
   -4.3000   23.6007  -28.2872 H   0  0  0  0  0  0  0  0  0  0  0  0
   -1.0762   24.7887  -27.5204 H   0  0  0  0  0  0  0  0  0  0  0  0
   -0.5811   23.3632  -26.4902 H   0  0  0  0  0  0  0  0  0  0  0  0
    0.7483   23.8962  -28.6943 H   0  0  0  0  0  0  0  0  0  0  0  0
    0.3047   22.1938  -28.2736 H   0  0  0  0  0  0  0  0  0  0  0  0
   -1.1690   23.9880  -30.1080 H   0  0  0  0  0  0  0  0  0  0  0  0
   -2.7372   22.4512  -30.3792 H   0  0  0  0  0  0  0  0  0  0  0  0
   -1.5278   21.1134  -30.0830 H   0  0  0  0  0  0  0  0  0  0  0  0
   -3.4968   21.5577  -28.3682 H   0  0  0  0  0  0  0  0  0  0  0  0
   -1.8179   21.1412  -27.8148 H   0  0  0  0  0  0  0  0  0  0  0  0
   -2.8651   22.8478  -31.8001 H   0  0  0  0  0  0  0  0  0  0  0  0
  1  2  1  0
  2  3  1  0
  3  4  2  0
  4  5  1  0
  5  6  2  0
  6  7  1  0
  7  8  2  0
  8  9  1  0
  9 10  2  0
 10 11  1  0
 11 12  1  0
 12 13  2  0
 12 14  1  0
 14 15  1  0
 15 16  1  0
 16 17  1  0
 17 18  1  0
 18 19  1  0
 19 20  1  0
 10 21  1  0
 21 22  2  0
 22  3  1  0
 21  6  1  0
 20 15  1  0
  1 23  1  0
  1 24  1  0
  1 25  1  0
  4 26  1  0
  5 27  1  0
  7 28  1  0
  8 29  1  0
  9 30  1  0
 14 31  1  0
 14 32  1  0
 16 33  1  0
 16 34  1  0
 17 35  1  0
 17 36  1  0
 18 37  1  0
 19 38  1  0
 19 39  1  0
 20 40  1  0
 20 41  1  0
 22 42  1  0
M  CHG  1  11  -1
M  END
>  <UniqueID>  (26) 
26

>  <SMILES>  (26) 
COc1ccc2cccc([N-]C(=O)CN3CCNCC3)c2c1

>  <Energy>  (26) 
60.06468035827466

>  <Genealogy>  (26) 
COc1ccc2cccc([N-]C(=O)CN3CCNCC3)c2c1 (protonated)
COc1ccc2cccc([N-]C(=O)CN3CCNCC3)c2c1 (3D coordinates assigned)
COc1ccc2cccc([N-]C(=O)CN3CCNCC3)c2c1 (nonaromatic ring conformer: 60.06468035827466 kcal/mol)

>  <smiles>  (26) 
COc1ccc2cccc(NC(=O)CN3CCNCC3)c2c1

>  <score_type>  (26) 
oracle

>  <origin>  (26) 
adg

>  <m_score__min__energy>  (26) 
-8.6400000000000006

>  <m_primary>  (26) 
energy

$$$$
26:0
     RDKit          3D

 45 48  0  0  0  0  0  0  0  0999 V2000
   -6.8400   14.5260  -34.2650 C   0  0  0  0  0  0  0  0  0  0  0  0
   -5.8510   15.5500  -34.2510 O   0  0  0  0  0  0  0  0  0  0  0  0
   -6.0340   16.8260  -33.6940 C   0  0  0  0  0  0  0  0  0  0  0  0
   -7.2490   17.2140  -33.1020 C   0  0  0  0  0  0  0  0  0  0  0  0
   -7.3960   18.4910  -32.5570 C   0  0  0  0  0  0  0  0  0  0  0  0
   -6.3320   19.4090  -32.5880 C   0  0  0  0  0  0  0  0  0  0  0  0
   -6.4690   20.7750  -32.0170 C   0  0  0  0  0  0  0  0  0  0  0  0
   -7.6650   21.4980  -31.9770 C   0  0  0  0  0  0  0  0  0  0  0  0
   -7.3520   22.9780  -31.2450 S   0  0  0  0  0  0  0  0  0  0  0  0
   -5.7230   22.6480  -30.9920 C   0  0  0  0  0  0  0  0  0  0  0  0
   -4.7250   23.5510  -30.3910 C   0  0  0  0  0  0  0  0  0  0  0  0
   -4.4030   24.7390  -30.9380 N   0  0  0  0  0  0  0  0  0  0  0  0
   -3.5190   25.2970  -30.1640 O   0  0  0  0  0  0  0  0  0  0  0  0
   -3.2420   24.5420  -29.1270 C   0  0  0  0  0  0  0  0  0  0  0  0
   -2.2870   24.9360  -28.0710 C   0  0  0  0  0  0  0  0  0  0  0  0
   -0.9800   25.3080  -28.4260 C   0  0  0  0  0  0  0  0  0  0  0  0
   -0.0690   25.7070  -27.4430 C   0  0  0  0  0  0  0  0  0  0  0  0
   -0.4590   25.7530  -26.1030 C   0  0  0  0  0  0  0  0  0  0  0  0
   -1.7640   25.4080  -25.7440 C   0  0  0  0  0  0  0  0  0  0  0  0
   -2.6790   25.0080  -26.7220 C   0  0  0  0  0  0  0  0  0  0  0  0
   -3.9830   23.3720  -29.2300 C   0  0  0  0  0  0  0  0  0  0  0  0
   -3.9180   22.1570  -28.3520 C   0  0  0  0  0  0  0  0  0  0  0  0
   -5.4020   21.4250  -31.4690 N   0  0  0  0  0  0  0  0  0  0  0  0
   -5.1200   19.0200  -33.1870 C   0  0  0  0  0  0  0  0  0  0  0  0
   -4.9650   17.7320  -33.7380 C   0  0  0  0  0  0  0  0  0  0  0  0
   -3.7660   17.3170  -34.3370 O   0  0  0  0  0  0  0  0  0  0  0  0
   -2.5150   17.9810  -34.1880 C   0  0  0  0  0  0  0  0  0  0  0  0
   -7.1018   14.2549  -33.2316 H   0  0  0  0  0  0  0  0  0  0  0  0
   -7.7372   14.8899  -34.7871 H   0  0  0  0  0  0  0  0  0  0  0  0
   -6.4451   13.6420  -34.7871 H   0  0  0  0  0  0  0  0  0  0  0  0
   -8.0902   16.5060  -33.0680 H   0  0  0  0  0  0  0  0  0  0  0  0
   -8.3531   18.7813  -32.0992 H   0  0  0  0  0  0  0  0  0  0  0  0
   -8.6394   21.1579  -32.3577 H   0  0  0  0  0  0  0  0  0  0  0  0
   -0.6717   25.2854  -29.4817 H   0  0  0  0  0  0  0  0  0  0  0  0
    0.9569   25.9852  -27.7259 H   0  0  0  0  0  0  0  0  0  0  0  0
    0.2611   26.0608  -25.3305 H   0  0  0  0  0  0  0  0  0  0  0  0
   -2.0724   25.4512  -24.6890 H   0  0  0  0  0  0  0  0  0  0  0  0
   -3.7090   24.7487  -26.4358 H   0  0  0  0  0  0  0  0  0  0  0  0
   -3.9345   22.4661  -27.2964 H   0  0  0  0  0  0  0  0  0  0  0  0
   -4.7828   21.5091  -28.5579 H   0  0  0  0  0  0  0  0  0  0  0  0
   -2.9890   21.6051  -28.5579 H   0  0  0  0  0  0  0  0  0  0  0  0
   -4.2816   19.7310  -33.2259 H   0  0  0  0  0  0  0  0  0  0  0  0
   -2.2888   18.1011  -33.1182 H   0  0  0  0  0  0  0  0  0  0  0  0
   -1.7239   17.3841  -34.6653 H   0  0  0  0  0  0  0  0  0  0  0  0
   -2.5661   18.9707  -34.6653 H   0  0  0  0  0  0  0  0  0  0  0  0
  1  2  1  0
  2  3  1  0
  3  4  2  0
  4  5  1  0
  5  6  2  0
  6  7  1  0
  7  8  2  0
  8  9  1  0
  9 10  1  0
 10 11  1  0
 11 12  2  0
 12 13  1  0
 13 14  1  0
 14 15  1  0
 15 16  2  0
 16 17  1  0
 17 18  2  0
 18 19  1  0
 19 20  2  0
 14 21  2  0
 21 22  1  0
 10 23  2  0
  6 24  1  0
 24 25  2  0
 25 26  1  0
 26 27  1  0
 25  3  1  0
 23  7  1  0
 21 11  1  0
 20 15  1  0
  1 28  1  0
  1 29  1  0
  1 30  1  0
  4 31  1  0
  5 32  1  0
  8 33  1  0
 16 34  1  0
 17 35  1  0
 18 36  1  0
 19 37  1  0
 20 38  1  0
 22 39  1  0
 22 40  1  0
 22 41  1  0
 24 42  1  0
 27 43  1  0
 27 44  1  0
 27 45  1  0
M  END
>  <UniqueID>  (27) 
27

>  <SMILES>  (27) 
COc1ccc(-c2csc(-c3noc(-c4ccccc4)c3C)n2)cc1OC

>  <Energy>  (27) 
115.87371630787197

>  <Genealogy>  (27) 
COc1ccc(-c2csc(-c3noc(-c4ccccc4)c3C)n2)cc1OC (3D coordinates assigned)
COc1ccc(-c2csc(-c3noc(-c4ccccc4)c3C)n2)cc1OC (optimized conformer: 115.87371630787197 kcal/mol)

>  <smiles>  (27) 
COc1ccc(-c2csc(-c3noc(-c4ccccc4)c3C)n2)cc1OC

>  <score_type>  (27) 
oracle

>  <origin>  (27) 
adg

>  <m_score__min__energy>  (27) 
-9.8399999999999999

>  <m_primary>  (27) 
energy

$$$$
27:0
     RDKit          3D

 35 37  0  0  0  0  0  0  0  0999 V2000
   -5.3520   16.3400  -31.9630 C   0  0  0  0  0  0  0  0  0  0  0  0
   -6.4260   17.2060  -32.6170 C   0  0  0  0  0  0  0  0  0  0  0  0
   -6.4040   17.0550  -34.1390 C   0  0  0  0  0  0  0  0  0  0  0  0
   -5.7310   18.5560  -34.9360 S   0  0  0  0  0  0  0  0  0  0  0  0
   -6.2210   19.6790  -33.6090 C   0  0  0  0  0  0  0  0  0  0  0  0
   -7.5560   19.8600  -33.3740 N   0  0  0  0  0  0  0  0  0  0  0  0
   -7.9610   20.6710  -32.3650 C   0  0  0  0  0  0  0  0  0  0  0  0
   -9.2900   20.9300  -32.0160 C   0  0  0  0  0  0  0  0  0  0  0  0
   -9.3910   21.8050  -30.9340 C   0  0  0  0  0  0  0  0  0  0  0  0
   -7.8360   22.2440  -30.4270 S   0  0  0  0  0  0  0  0  0  0  0  0
   -7.0400   21.3200  -31.5810 C   0  0  0  0  0  0  0  0  0  0  0  0
   -5.6820   21.1620  -31.8150 C   0  0  0  0  0  0  0  0  0  0  0  0
   -4.8410   21.7740  -31.1000 O   0  0  0  0  0  0  0  0  0  0  0  0
   -5.2800   20.3390  -32.8390 N   0  0  0  0  0  0  0  0  0  0  0  0
   -3.8750   20.1720  -33.1030 C   0  0  0  0  0  0  0  0  0  0  0  0
   -3.0860   21.2750  -33.4650 C   0  0  0  0  0  0  0  0  0  0  0  0
   -1.7200   21.1100  -33.7190 C   0  0  0  0  0  0  0  0  0  0  0  0
   -1.1360   19.8440  -33.6070 C   0  0  0  0  0  0  0  0  0  0  0  0
   -1.9150   18.7440  -33.2400 C   0  0  0  0  0  0  0  0  0  0  0  0
   -3.2800   18.9050  -32.9850 C   0  0  0  0  0  0  0  0  0  0  0  0
   -5.4399   16.4109  -30.8688 H   0  0  0  0  0  0  0  0  0  0  0  0
   -5.4849   15.2934  -32.2745 H   0  0  0  0  0  0  0  0  0  0  0  0
   -4.3574   16.6918  -32.2745 H   0  0  0  0  0  0  0  0  0  0  0  0
   -7.4130   16.9001  -32.2399 H   0  0  0  0  0  0  0  0  0  0  0  0
   -6.2259   18.2585  -32.3675 H   0  0  0  0  0  0  0  0  0  0  0  0
   -5.7749   16.1930  -34.4060 H   0  0  0  0  0  0  0  0  0  0  0  0
   -7.4350   16.9032  -34.4912 H   0  0  0  0  0  0  0  0  0  0  0  0
   -8.2640   19.3690  -33.9650 H   0  0  0  0  0  0  0  0  0  0  0  0
  -10.1564   20.4940  -32.5349 H   0  0  0  0  0  0  0  0  0  0  0  0
  -10.3312   22.1542  -30.4821 H   0  0  0  0  0  0  0  0  0  0  0  0
   -3.5429   22.2721  -33.5493 H   0  0  0  0  0  0  0  0  0  0  0  0
   -1.1055   21.9758  -34.0067 H   0  0  0  0  0  0  0  0  0  0  0  0
   -0.0623   19.7144  -33.8081 H   0  0  0  0  0  0  0  0  0  0  0  0
   -1.4535   17.7494  -33.1515 H   0  0  0  0  0  0  0  0  0  0  0  0
   -3.8895   18.0377  -32.6913 H   0  0  0  0  0  0  0  0  0  0  0  0
  1  2  1  0
  2  3  1  0
  3  4  1  0
  4  5  1  0
  5  6  2  0
  6  7  1  0
  7  8  1  0
  8  9  2  0
  9 10  1  0
 10 11  1  0
 11 12  1  0
 12 13  2  0
 12 14  1  0
 14 15  1  0
 15 16  2  0
 16 17  1  0
 17 18  2  0
 18 19  1  0
 19 20  2  0
 14  5  1  0
 20 15  1  0
 11  7  2  0
  1 21  1  0
  1 22  1  0
  1 23  1  0
  2 24  1  0
  2 25  1  0
  3 26  1  0
  3 27  1  0
  6 28  1  0
  8 29  1  0
  9 30  1  0
 16 31  1  0
 17 32  1  0
 18 33  1  0
 19 34  1  0
 20 35  1  0
M  CHG  1   6   1
M  END
>  <UniqueID>  (28) 
28

>  <SMILES>  (28) 
CCCSc1[nH+]c2ccsc2c(=O)n1-c1ccccc1

>  <Energy>  (28) 
70.46341733512199

>  <Genealogy>  (28) 
CCCSc1[nH+]c2ccsc2c(=O)n1-c1ccccc1 (protonated)
CCCSc1[nH+]c2ccsc2c(=O)n1-c1ccccc1 (3D coordinates assigned)
CCCSc1[nH+]c2ccsc2c(=O)n1-c1ccccc1 (optimized conformer: 70.46341733512199 kcal/mol)

>  <smiles>  (28) 
CCCSc1nc2ccsc2c(=O)n1-c1ccccc1

>  <score_type>  (28) 
oracle

>  <origin>  (28) 
adg

>  <m_score__min__energy>  (28) 
-7.1500000000000004

>  <m_primary>  (28) 
energy

$$$$
28:0
     RDKit          3D

 44 46  0  0  0  0  0  0  0  0999 V2000
   -1.5720   25.4280  -28.1220 C   0  0  0  0  0  0  0  0  0  0  0  0
   -2.2240   25.1020  -29.3480 O   0  0  0  0  0  0  0  0  0  0  0  0
   -2.3540   23.8010  -29.8590 C   0  0  0  0  0  0  0  0  0  0  0  0
   -1.3910   22.8020  -29.6140 C   0  0  0  0  0  0  0  0  0  0  0  0
   -1.5550   21.5220  -30.1470 C   0  0  0  0  0  0  0  0  0  0  0  0
   -2.6740   21.2240  -30.9260 C   0  0  0  0  0  0  0  0  0  0  0  0
   -3.6350   22.2050  -31.1750 C   0  0  0  0  0  0  0  0  0  0  0  0
   -3.4860   23.4990  -30.6370 C   0  0  0  0  0  0  0  0  0  0  0  0
   -4.4390   24.5130  -30.8410 O   0  0  0  0  0  0  0  0  0  0  0  0
   -5.3430   25.0210  -29.8560 C   0  0  0  0  0  0  0  0  0  0  0  0
   -6.8060   24.8760  -30.2970 C   0  0  0  0  0  0  0  0  0  0  0  0
   -6.8990   24.0450  -31.5110 N   0  0  0  0  0  0  0  0  0  0  0  0
   -8.2020   23.3650  -31.6470 C   0  0  0  0  0  0  0  0  0  0  0  0
   -7.9890   21.9200  -31.9710 C   0  0  0  0  0  0  0  0  0  0  0  0
   -8.9570   20.9400  -31.9500 C   0  0  0  0  0  0  0  0  0  0  0  0
   -8.4040   19.8360  -32.3880 O   0  0  0  0  0  0  0  0  0  0  0  0
   -7.1480   20.1130  -32.6800 C   0  0  0  0  0  0  0  0  0  0  0  0
   -6.1930   19.1250  -33.2200 C   0  0  0  0  0  0  0  0  0  0  0  0
   -4.8730   19.5070  -33.5170 C   0  0  0  0  0  0  0  0  0  0  0  0
   -3.9650   18.5710  -34.0230 C   0  0  0  0  0  0  0  0  0  0  0  0
   -4.3660   17.2490  -34.2440 C   0  0  0  0  0  0  0  0  0  0  0  0
   -3.4860   16.3440  -34.7420 F   0  0  0  0  0  0  0  0  0  0  0  0
   -5.6750   16.8590  -33.9480 C   0  0  0  0  0  0  0  0  0  0  0  0
   -6.5850   17.7900  -33.4340 C   0  0  0  0  0  0  0  0  0  0  0  0
   -6.8350   21.4060  -32.4470 N   0  0  0  0  0  0  0  0  0  0  0  0
   -2.2017   25.1131  -27.2768 H   0  0  0  0  0  0  0  0  0  0  0  0
   -0.6041   24.9078  -28.0718 H   0  0  0  0  0  0  0  0  0  0  0  0
   -1.4074   26.5145  -28.0718 H   0  0  0  0  0  0  0  0  0  0  0  0
   -0.5071   23.0313  -29.0008 H   0  0  0  0  0  0  0  0  0  0  0  0
   -0.8000   20.7461  -29.9524 H   0  0  0  0  0  0  0  0  0  0  0  0
   -2.7987   20.2144  -31.3444 H   0  0  0  0  0  0  0  0  0  0  0  0
   -4.5127   21.9671  -31.7940 H   0  0  0  0  0  0  0  0  0  0  0  0
   -5.1970   24.4651  -28.9181 H   0  0  0  0  0  0  0  0  0  0  0  0
   -5.1319   26.0916  -29.7176 H   0  0  0  0  0  0  0  0  0  0  0  0
   -7.3825   24.4021  -29.4888 H   0  0  0  0  0  0  0  0  0  0  0  0
   -7.2120   25.8744  -30.5171 H   0  0  0  0  0  0  0  0  0  0  0  0
   -6.1470   23.3160  -31.4730 H   0  0  0  0  0  0  0  0  0  0  0  0
   -8.7580   23.4490  -30.7016 H   0  0  0  0  0  0  0  0  0  0  0  0
   -8.7753   23.8380  -32.4579 H   0  0  0  0  0  0  0  0  0  0  0  0
  -10.0010   21.0619  -31.6255 H   0  0  0  0  0  0  0  0  0  0  0  0
   -4.5529   20.5462  -33.3508 H   0  0  0  0  0  0  0  0  0  0  0  0
   -2.9322   18.8754  -34.2479 H   0  0  0  0  0  0  0  0  0  0  0  0
   -5.9905   15.8192  -34.1192 H   0  0  0  0  0  0  0  0  0  0  0  0
   -7.6122   17.4768  -33.1959 H   0  0  0  0  0  0  0  0  0  0  0  0
  1  2  1  0
  2  3  1  0
  3  4  2  0
  4  5  1  0
  5  6  2  0
  6  7  1  0
  7  8  2  0
  8  9  1  0
  9 10  1  0
 10 11  1  0
 11 12  1  0
 12 13  1  0
 13 14  1  0
 14 15  2  0
 15 16  1  0
 16 17  1  0
 17 18  1  0
 18 19  2  0
 19 20  1  0
 20 21  2  0
 21 22  1  0
 21 23  1  0
 23 24  2  0
 17 25  2  0
  8  3  1  0
 25 14  1  0
 24 18  1  0
  1 26  1  0
  1 27  1  0
  1 28  1  0
  4 29  1  0
  5 30  1  0
  6 31  1  0
  7 32  1  0
 10 33  1  0
 10 34  1  0
 11 35  1  0
 11 36  1  0
 12 37  1  0
 13 38  1  0
 13 39  1  0
 15 40  1  0
 19 41  1  0
 20 42  1  0
 23 43  1  0
 24 44  1  0
M  END
>  <UniqueID>  (29) 
29

>  <SMILES>  (29) 
COc1ccccc1OCCNCc1coc(-c2ccc(F)cc2)n1

>  <Energy>  (29) 
72.25803166921587

>  <Genealogy>  (29) 
COc1ccccc1OCCNCc1coc(-c2ccc(F)cc2)n1 (3D coordinates assigned)
COc1ccccc1OCCNCc1coc(-c2ccc(F)cc2)n1 (optimized conformer: 72.25803166921587 kcal/mol)

>  <smiles>  (29) 
COc1ccccc1OCCNCc1coc(-c2ccc(F)cc2)n1

>  <score_type>  (29) 
oracle

>  <origin>  (29) 
adg

>  <m_score__min__energy>  (29) 
-9

>  <m_primary>  (29) 
energy

$$$$
29:0
     RDKit          3D

 36 37  0  0  0  0  0  0  0  0999 V2000
   -1.9120   20.5070  -33.9170 C   0  0  0  0  0  0  0  0  0  0  0  0
   -3.3100   20.4380  -33.3930 C   0  0  0  0  0  0  0  0  0  0  0  0
   -4.0480   19.2540  -33.5000 C   0  0  0  0  0  0  0  0  0  0  0  0
   -5.3670   19.1860  -33.0070 C   0  0  0  0  0  0  0  0  0  0  0  0
   -6.1620   17.8700  -33.1350 C   0  0  0  0  0  0  0  0  0  0  0  0
   -5.6010   16.7310  -32.2480 C   0  0  0  0  0  0  0  0  0  0  0  0
   -7.6280   18.1100  -32.7160 C   0  0  0  0  0  0  0  0  0  0  0  0
   -6.1200   17.3840  -34.6000 C   0  0  0  0  0  0  0  0  0  0  0  0
   -5.9030   20.3500  -32.4090 C   0  0  0  0  0  0  0  0  0  0  0  0
   -5.1350   21.5220  -32.3180 C   0  0  0  0  0  0  0  0  0  0  0  0
   -5.6710   22.7110  -31.7120 N   0  0  0  0  0  0  0  0  0  0  0  0
   -6.9600   22.9120  -31.3700 C   0  0  0  0  0  0  0  0  0  0  0  0
   -7.0790   24.1740  -30.8280 C   0  0  0  0  0  0  0  0  0  0  0  0
   -5.7950   24.6840  -30.8650 C   0  0  0  0  0  0  0  0  0  0  0  0
   -5.3900   26.0590  -30.4530 C   0  0  0  0  0  0  0  0  0  0  0  0
   -4.9580   23.7860  -31.4170 N   0  0  0  0  0  0  0  0  0  0  0  0
   -3.8680   21.5300  -32.8110 N   0  0  0  0  0  0  0  0  0  0  0  0
   -1.2059   20.5419  -33.0743 H   0  0  0  0  0  0  0  0  0  0  0  0
   -1.7063   19.6179  -34.5312 H   0  0  0  0  0  0  0  0  0  0  0  0
   -1.7949   21.4120  -34.5312 H   0  0  0  0  0  0  0  0  0  0  0  0
   -3.5956   18.3696  -33.9724 H   0  0  0  0  0  0  0  0  0  0  0  0
   -5.7306   16.9942  -31.1878 H   0  0  0  0  0  0  0  0  0  0  0  0
   -6.1427   15.7981  -32.4631 H   0  0  0  0  0  0  0  0  0  0  0  0
   -4.5313   16.5918  -32.4631 H   0  0  0  0  0  0  0  0  0  0  0  0
   -7.6984   18.1215  -31.6183 H   0  0  0  0  0  0  0  0  0  0  0  0
   -7.9701   19.0761  -33.1155 H   0  0  0  0  0  0  0  0  0  0  0  0
   -8.2603   17.3034  -33.1155 H   0  0  0  0  0  0  0  0  0  0  0  0
   -6.0253   16.2883  -34.6202 H   0  0  0  0  0  0  0  0  0  0  0  0
   -7.0472   17.6814  -35.1117 H   0  0  0  0  0  0  0  0  0  0  0  0
   -5.2576   17.8361  -35.1117 H   0  0  0  0  0  0  0  0  0  0  0  0
   -6.9289   20.3372  -32.0123 H   0  0  0  0  0  0  0  0  0  0  0  0
   -7.7793   22.1899  -31.5015 H   0  0  0  0  0  0  0  0  0  0  0  0
   -7.9892   24.6638  -30.4516 H   0  0  0  0  0  0  0  0  0  0  0  0
   -5.3714   26.1222  -29.3550 H   0  0  0  0  0  0  0  0  0  0  0  0
   -4.3884   26.2807  -30.8501 H   0  0  0  0  0  0  0  0  0  0  0  0
   -6.1115   26.7882  -30.8501 H   0  0  0  0  0  0  0  0  0  0  0  0
  1  2  1  0
  2  3  2  0
  3  4  1  0
  4  5  1  0
  5  6  1  0
  5  7  1  0
  5  8  1  0
  4  9  2  0
  9 10  1  0
 10 11  1  0
 11 12  1  0
 12 13  2  0
 13 14  1  0
 14 15  1  0
 14 16  2  0
 10 17  2  0
 17  2  1  0
 16 11  1  0
  1 18  1  0
  1 19  1  0
  1 20  1  0
  3 21  1  0
  6 22  1  0
  6 23  1  0
  6 24  1  0
  7 25  1  0
  7 26  1  0
  7 27  1  0
  8 28  1  0
  8 29  1  0
  8 30  1  0
  9 31  1  0
 12 32  1  0
 13 33  1  0
 15 34  1  0
 15 35  1  0
 15 36  1  0
M  END
>  <UniqueID>  (30) 
30

>  <SMILES>  (30) 
Cc1cc(C(C)(C)C)cc(-n2ccc(C)n2)n1

>  <Energy>  (30) 
64.81853565055383

>  <Genealogy>  (30) 
Cc1cc(C(C)(C)C)cc(-n2ccc(C)n2)n1 (3D coordinates assigned)
Cc1cc(C(C)(C)C)cc(-n2ccc(C)n2)n1 (optimized conformer: 64.81853565055383 kcal/mol)

>  <smiles>  (30) 
Cc1cc(C(C)(C)C)cc(-n2ccc(C)n2)n1

>  <score_type>  (30) 
oracle

>  <origin>  (30) 
adg

>  <m_score__min__energy>  (30) 
-6.79

>  <m_primary>  (30) 
energy

$$$$
30:0
     RDKit          3D

 30 32  0  0  0  0  0  0  0  0999 V2000
   -8.9220   21.6110  -30.7300 C   0  0  0  0  0  0  0  0  0  0  0  0
   -8.2920   22.2330  -31.9740 C   0  0  0  0  0  0  0  0  0  0  0  0
   -6.8300   22.2590  -31.8590 N   0  0  0  0  0  0  0  0  0  0  0  0
   -5.9290   21.2530  -32.0790 C   0  0  0  0  0  0  0  0  0  0  0  0
   -6.2560   19.8870  -32.5340 C   0  0  0  0  0  0  0  0  0  0  0  0
   -7.2000   19.0920  -31.8670 C   0  0  0  0  0  0  0  0  0  0  0  0
   -7.4950   17.8190  -32.3580 C   0  0  0  0  0  0  0  0  0  0  0  0
   -6.8660   17.3560  -33.5140 C   0  0  0  0  0  0  0  0  0  0  0  0
   -5.9510   18.1810  -34.1690 C   0  0  0  0  0  0  0  0  0  0  0  0
   -5.6750   19.4170  -33.6740 N   0  0  0  0  0  0  0  0  0  0  0  0
   -4.6620   21.6140  -31.7510 N   0  0  0  0  0  0  0  0  0  0  0  0
   -4.7760   22.8810  -31.3280 C   0  0  0  0  0  0  0  0  0  0  0  0
   -3.7850   23.7290  -30.8450 C   0  0  0  0  0  0  0  0  0  0  0  0
   -4.1570   24.9750  -30.4270 N   0  0  0  0  0  0  0  0  0  0  0  0
   -5.4610   25.3940  -30.4660 C   0  0  0  0  0  0  0  0  0  0  0  0
   -6.4720   24.5400  -30.9470 C   0  0  0  0  0  0  0  0  0  0  0  0
   -6.0770   23.2750  -31.3850 C   0  0  0  0  0  0  0  0  0  0  0  0
   -8.4720   22.0553  -29.8299 H   0  0  0  0  0  0  0  0  0  0  0  0
  -10.0049   21.8039  -30.7319 H   0  0  0  0  0  0  0  0  0  0  0  0
   -8.7429   20.5257  -30.7319 H   0  0  0  0  0  0  0  0  0  0  0  0
   -8.5740   21.6396  -32.8563 H   0  0  0  0  0  0  0  0  0  0  0  0
   -8.6565   23.2659  -32.0753 H   0  0  0  0  0  0  0  0  0  0  0  0
   -7.7036   19.4687  -30.9645 H   0  0  0  0  0  0  0  0  0  0  0  0
   -8.2225   17.1817  -31.8341 H   0  0  0  0  0  0  0  0  0  0  0  0
   -7.0888   16.3521  -33.9046 H   0  0  0  0  0  0  0  0  0  0  0  0
   -5.4531   17.8316  -35.0855 H   0  0  0  0  0  0  0  0  0  0  0  0
   -3.7950   21.0340  -31.8010 H   0  0  0  0  0  0  0  0  0  0  0  0
   -2.7343   23.4063  -30.8010 H   0  0  0  0  0  0  0  0  0  0  0  0
   -5.7200   26.4052  -30.1189 H   0  0  0  0  0  0  0  0  0  0  0  0
   -7.5254   24.8555  -30.9762 H   0  0  0  0  0  0  0  0  0  0  0  0
  1  2  1  0
  2  3  1  0
  3  4  1  0
  4  5  1  0
  5  6  2  0
  6  7  1  0
  7  8  2  0
  8  9  1  0
  9 10  2  0
  4 11  2  0
 11 12  1  0
 12 13  2  0
 13 14  1  0
 14 15  2  0
 15 16  1  0
 16 17  2  0
 17  3  1  0
 10  5  1  0
 17 12  1  0
  1 18  1  0
  1 19  1  0
  1 20  1  0
  2 21  1  0
  2 22  1  0
  6 23  1  0
  7 24  1  0
  8 25  1  0
  9 26  1  0
 11 27  1  0
 13 28  1  0
 15 29  1  0
 16 30  1  0
M  CHG  1  11   1
M  END
>  <UniqueID>  (31) 
31

>  <SMILES>  (31) 
CCn1c(-c2ccccn2)[nH+]c2cnccc21

>  <Energy>  (31) 
76.14207076167665

>  <Genealogy>  (31) 
CCn1c(-c2ccccn2)[nH+]c2cnccc21 (protonated)
CCn1c(-c2ccccn2)[nH+]c2cnccc21 (3D coordinates assigned)
CCn1c(-c2ccccn2)[nH+]c2cnccc21 (optimized conformer: 76.14207076167665 kcal/mol)

>  <smiles>  (31) 
CCn1c(-c2ccccn2)nc2cnccc21

>  <score_type>  (31) 
oracle

>  <origin>  (31) 
adg

>  <m_score__min__energy>  (31) 
-6.21

>  <m_primary>  (31) 
energy

$$$$
31:0
     RDKit          3D

 49 51  0  0  0  0  0  0  0  0999 V2000
   -7.5940   22.5300  -30.8440 C   0  0  0  0  0  0  0  0  0  0  0  0
   -7.7310   21.9300  -32.2060 C   0  0  0  0  0  0  0  0  0  0  0  0
   -7.7430   20.5300  -32.2000 N   0  0  0  0  0  0  0  0  0  0  0  0
   -8.7500   19.8540  -31.4760 C   0  0  0  0  0  0  0  0  0  0  0  0
   -8.7270   18.3650  -31.6970 C   0  0  0  0  0  0  0  0  0  0  0  0
   -7.1900   19.8390  -33.2810 C   0  0  0  0  0  0  0  0  0  0  0  0
   -5.7190   19.7650  -33.4350 C   0  0  0  0  0  0  0  0  0  0  0  0
   -4.9790   20.9940  -33.4010 N   0  0  0  0  0  0  0  0  0  0  0  0
   -4.3140   21.3990  -32.1810 C   0  0  0  0  0  0  0  0  0  0  0  0
   -3.7260   20.4490  -31.3490 C   0  0  0  0  0  0  0  0  0  0  0  0
   -3.1090   20.7900  -30.1630 C   0  0  0  0  0  0  0  0  0  0  0  0
   -3.0710   22.1160  -29.7850 C   0  0  0  0  0  0  0  0  0  0  0  0
   -2.4930   22.5130  -28.6280 N   0  0  0  0  0  0  0  0  0  0  0  0
   -2.4460   23.7830  -28.2190 C   0  0  0  0  0  0  0  0  0  0  0  0
   -1.8310   24.2020  -26.9570 C   0  0  0  0  0  0  0  0  0  0  0  0
   -0.9530   23.4060  -26.2510 C   0  0  0  0  0  0  0  0  0  0  0  0
   -0.3920   23.8130  -25.0360 C   0  0  0  0  0  0  0  0  0  0  0  0
   -0.7230   25.0490  -24.5200 C   0  0  0  0  0  0  0  0  0  0  0  0
   -1.6060   25.8770  -25.2080 C   0  0  0  0  0  0  0  0  0  0  0  0
   -2.1280   25.4290  -26.4000 C   0  0  0  0  0  0  0  0  0  0  0  0
   -2.9960   24.7430  -28.9860 N   0  0  0  0  0  0  0  0  0  0  0  0
   -3.5770   24.3770  -30.1400 C   0  0  0  0  0  0  0  0  0  0  0  0
   -4.0850   25.2920  -30.8380 O   0  0  0  0  0  0  0  0  0  0  0  0
   -3.6470   23.0810  -30.5940 C   0  0  0  0  0  0  0  0  0  0  0  0
   -4.2570   22.7120  -31.7740 C   0  0  0  0  0  0  0  0  0  0  0  0
   -7.7708   21.7558  -30.0828 H   0  0  0  0  0  0  0  0  0  0  0  0
   -6.5796   22.9380  -30.7234 H   0  0  0  0  0  0  0  0  0  0  0  0
   -8.3308   23.3378  -30.7234 H   0  0  0  0  0  0  0  0  0  0  0  0
   -8.6731   22.2845  -32.6497 H   0  0  0  0  0  0  0  0  0  0  0  0
   -6.8521   22.2439  -32.7882 H   0  0  0  0  0  0  0  0  0  0  0  0
   -8.6055   20.0525  -30.4038 H   0  0  0  0  0  0  0  0  0  0  0  0
   -9.7215   20.2270  -31.8325 H   0  0  0  0  0  0  0  0  0  0  0  0
   -8.7190   17.8501  -30.7250 H   0  0  0  0  0  0  0  0  0  0  0  0
   -9.6206   18.0646  -32.2638 H   0  0  0  0  0  0  0  0  0  0  0  0
   -7.8245   18.0923  -32.2638 H   0  0  0  0  0  0  0  0  0  0  0  0
   -7.5556   18.8035  -33.2172 H   0  0  0  0  0  0  0  0  0  0  0  0
   -7.5069   20.4328  -34.1510 H   0  0  0  0  0  0  0  0  0  0  0  0
   -5.3359   19.1291  -32.6233 H   0  0  0  0  0  0  0  0  0  0  0  0
   -5.5667   19.3787  -34.4536 H   0  0  0  0  0  0  0  0  0  0  0  0
   -4.8760   21.6550  -34.1840 H   0  0  0  0  0  0  0  0  0  0  0  0
   -3.7546   19.3907  -31.6478 H   0  0  0  0  0  0  0  0  0  0  0  0
   -2.6539   20.0156  -29.5280 H   0  0  0  0  0  0  0  0  0  0  0  0
   -2.0720   21.7500  -28.0490 H   0  0  0  0  0  0  0  0  0  0  0  0
   -0.6854   22.4192  -26.6567 H   0  0  0  0  0  0  0  0  0  0  0  0
    0.3057   23.1546  -24.4977 H   0  0  0  0  0  0  0  0  0  0  0  0
   -0.2893   25.3803  -23.5650 H   0  0  0  0  0  0  0  0  0  0  0  0
   -1.8796   26.8648  -24.8087 H   0  0  0  0  0  0  0  0  0  0  0  0
   -2.8231   26.0881  -26.9407 H   0  0  0  0  0  0  0  0  0  0  0  0
   -4.7105   23.4886  -32.4074 H   0  0  0  0  0  0  0  0  0  0  0  0
  1  2  1  0
  2  3  1  0
  3  4  1  0
  4  5  1  0
  3  6  1  0
  6  7  1  0
  7  8  1  0
  8  9  1  0
  9 10  2  0
 10 11  1  0
 11 12  2  0
 12 13  1  0
 13 14  1  0
 14 15  1  0
 15 16  2  0
 16 17  1  0
 17 18  2  0
 18 19  1  0
 19 20  2  0
 14 21  2  0
 21 22  1  0
 22 23  2  0
 22 24  1  0
 24 25  2  0
 25  9  1  0
 24 12  1  0
 20 15  1  0
  1 26  1  0
  1 27  1  0
  1 28  1  0
  2 29  1  0
  2 30  1  0
  4 31  1  0
  4 32  1  0
  5 33  1  0
  5 34  1  0
  5 35  1  0
  6 36  1  0
  6 37  1  0
  7 38  1  0
  7 39  1  0
  8 40  1  0
 10 41  1  0
 11 42  1  0
 13 43  1  0
 16 44  1  0
 17 45  1  0
 18 46  1  0
 19 47  1  0
 20 48  1  0
 25 49  1  0
M  END
>  <smiles>  (32) 
CCN(CC)CCNc1ccc2[nH]c(-c3ccccc3)nc(=O)c2c1

>  <score_type>  (32) 
oracle

>  <origin>  (32) 
adg

>  <m_score__min__energy>  (32) 
-8.2300000000000004

>  <m_primary>  (32) 
energy

$$$$
32:0
     RDKit          3D

 52 56  0  0  0  0  0  0  0  0999 V2000
    2.0500   28.8120  -23.9170 C   0  0  0  0  0  0  0  0  0  0  0  0
    0.6190   28.5390  -23.9620 N   0  0  0  0  0  0  0  0  0  0  0  0
    0.0710   27.4960  -24.7790 C   0  0  0  0  0  0  0  0  0  0  0  0
   -0.7010   26.4820  -24.2010 C   0  0  0  0  0  0  0  0  0  0  0  0
   -1.2280   25.4730  -25.0080 C   0  0  0  0  0  0  0  0  0  0  0  0
   -0.9860   25.4770  -26.3910 C   0  0  0  0  0  0  0  0  0  0  0  0
   -1.5420   24.4050  -27.2580 C   0  0  0  0  0  0  0  0  0  0  0  0
   -2.3830   24.7280  -28.3320 C   0  0  0  0  0  0  0  0  0  0  0  0
   -2.9100   23.7100  -29.1440 C   0  0  0  0  0  0  0  0  0  0  0  0
   -3.7620   24.0010  -30.2300 C   0  0  0  0  0  0  0  0  0  0  0  0
   -4.0860   25.1980  -30.4710 O   0  0  0  0  0  0  0  0  0  0  0  0
   -4.2430   22.9890  -31.0220 N   0  0  0  0  0  0  0  0  0  0  0  0
   -5.1640   23.2840  -32.1320 C   0  0  0  0  0  0  0  0  0  0  0  0
   -6.5330   23.8050  -31.7050 C   0  0  0  0  0  0  0  0  0  0  0  0
   -6.3870   22.3750  -32.1890 C   0  0  0  0  0  0  0  0  0  0  0  0
   -3.9680   21.6840  -30.7250 C   0  0  0  0  0  0  0  0  0  0  0  0
   -3.1330   21.3530  -29.6600 C   0  0  0  0  0  0  0  0  0  0  0  0
   -2.5860   22.3660  -28.8600 C   0  0  0  0  0  0  0  0  0  0  0  0
   -1.7350   22.0820  -27.7720 C   0  0  0  0  0  0  0  0  0  0  0  0
   -1.3640   20.7350  -27.4460 N   0  0  0  0  0  0  0  0  0  0  0  0
   -0.1810   20.1340  -28.0610 C   0  0  0  0  0  0  0  0  0  0  0  0
   -0.4030   18.6280  -28.2300 C   0  0  0  0  0  0  0  0  0  0  0  0
   -0.8230   18.0400  -27.0130 O   0  0  0  0  0  0  0  0  0  0  0  0
   -2.0970   18.5410  -26.6520 C   0  0  0  0  0  0  0  0  0  0  0  0
   -2.0250   20.0390  -26.3410 C   0  0  0  0  0  0  0  0  0  0  0  0
   -1.2420   23.0970  -27.0100 N   0  0  0  0  0  0  0  0  0  0  0  0
   -0.2060   26.5130  -26.9300 C   0  0  0  0  0  0  0  0  0  0  0  0
    0.2980   27.4830  -26.1210 N   0  0  0  0  0  0  0  0  0  0  0  0
    2.3785   28.8747  -22.8691 H   0  0  0  0  0  0  0  0  0  0  0  0
    2.5940   28.0014  -24.4240 H   0  0  0  0  0  0  0  0  0  0  0  0
    2.2574   29.7659  -24.4240 H   0  0  0  0  0  0  0  0  0  0  0  0
   -0.0190   29.1270  -23.3780 H   0  0  0  0  0  0  0  0  0  0  0  0
   -0.8912   26.4804  -23.1176 H   0  0  0  0  0  0  0  0  0  0  0  0
   -1.8346   24.6724  -24.5595 H   0  0  0  0  0  0  0  0  0  0  0  0
   -2.6305   25.7796  -28.5391 H   0  0  0  0  0  0  0  0  0  0  0  0
   -4.3940   23.6103  -32.8466 H   0  0  0  0  0  0  0  0  0  0  0  0
   -6.7372   24.0077  -30.6433 H   0  0  0  0  0  0  0  0  0  0  0  0
   -7.1619   24.6613  -31.9901 H   0  0  0  0  0  0  0  0  0  0  0  0
   -6.4857   21.5415  -31.4779 H   0  0  0  0  0  0  0  0  0  0  0  0
   -6.8667   21.7667  -32.9699 H   0  0  0  0  0  0  0  0  0  0  0  0
   -4.4120   20.8837  -31.3352 H   0  0  0  0  0  0  0  0  0  0  0  0
   -2.9033   20.2985  -29.4472 H   0  0  0  0  0  0  0  0  0  0  0  0
   -0.0071   20.5918  -29.0460 H   0  0  0  0  0  0  0  0  0  0  0  0
    0.6943   20.3057  -27.4173 H   0  0  0  0  0  0  0  0  0  0  0  0
   -1.1749   18.4614  -28.9958 H   0  0  0  0  0  0  0  0  0  0  0  0
    0.5469   18.1646  -28.5350 H   0  0  0  0  0  0  0  0  0  0  0  0
   -2.7973   18.3789  -27.4847 H   0  0  0  0  0  0  0  0  0  0  0  0
   -2.4421   18.0106  -25.7522 H   0  0  0  0  0  0  0  0  0  0  0  0
   -3.0427   20.4365  -26.2136 H   0  0  0  0  0  0  0  0  0  0  0  0
   -1.4524   20.1943  -25.4147 H   0  0  0  0  0  0  0  0  0  0  0  0
   -0.5980   22.8550  -26.2240 H   0  0  0  0  0  0  0  0  0  0  0  0
   -0.0020   26.5400  -28.0106 H   0  0  0  0  0  0  0  0  0  0  0  0
  1  2  1  0
  2  3  1  0
  3  4  2  0
  4  5  1  0
  5  6  2  0
  6  7  1  0
  7  8  2  0
  8  9  1  0
  9 10  1  0
 10 11  2  0
 10 12  1  0
 12 13  1  0
 13 14  1  0
 14 15  1  0
 12 16  1  0
 16 17  2  0
 17 18  1  0
 18 19  1  0
 19 20  1  0
 20 21  1  0
 21 22  1  0
 22 23  1  0
 23 24  1  0
 24 25  1  0
 19 26  2  0
  6 27  1  0
 27 28  2  0
 28  3  1  0
 26  7  1  0
 18  9  2  0
 25 20  1  0
 15 13  1  0
  1 29  1  0
  1 30  1  0
  1 31  1  0
  2 32  1  0
  4 33  1  0
  5 34  1  0
  8 35  1  0
 13 36  1  0
 14 37  1  0
 14 38  1  0
 15 39  1  0
 15 40  1  0
 16 41  1  0
 17 42  1  0
 21 43  1  0
 21 44  1  0
 22 45  1  0
 22 46  1  0
 24 47  1  0
 24 48  1  0
 25 49  1  0
 25 50  1  0
 26 51  1  0
 27 52  1  0
M  CHG  1  26   1
M  END
>  <UniqueID>  (33) 
32

>  <SMILES>  (33) 
CNc1ccc(-c2cc3c(=O)n(C4CC4)ccc3c(N3CCOCC3)[nH+]2)cn1

>  <Energy>  (33) 
338.66084924501155

>  <Genealogy>  (33) 
CNc1ccc(-c2cc3c(=O)n(C4CC4)ccc3c(N3CCOCC3)[nH+]2)cn1 (protonated)
CNc1ccc(-c2cc3c(=O)n(C4CC4)ccc3c(N3CCOCC3)[nH+]2)cn1 (3D coordinates assigned)
CNc1ccc(-c2cc3c(=O)n(C4CC4)ccc3c(N3CCOCC3)[nH+]2)cn1 (nonaromatic ring conformer: 338.66084924501155 kcal/mol)

>  <smiles>  (33) 
CNc1ccc(-c2cc3c(=O)n(C4CC4)ccc3c(N3CCOCC3)n2)cn1

>  <score_type>  (33) 
oracle

>  <origin>  (33) 
adg

>  <m_score__min__energy>  (33) 
-7.4699999999999998

>  <m_primary>  (33) 
energy

$$$$
33:0
     RDKit          3D

 63 65  0  0  0  0  0  0  0  0999 V2000
   -0.5810   21.3990  -33.8430 C   0  0  0  0  0  0  0  0  0  0  0  0
   -1.3620   20.2460  -34.4590 C   0  0  0  0  0  0  0  0  0  0  0  0
   -2.7370   20.1600  -33.8660 C   0  0  0  0  0  0  0  0  0  0  0  0
   -3.1330   21.0670  -33.0850 O   0  0  0  0  0  0  0  0  0  0  0  0
   -3.6040   19.0700  -34.2120 N   0  0  0  0  0  0  0  0  0  0  0  0
   -4.9380   18.9060  -33.6170 C   0  0  1  0  0  0  0  0  0  0  0  0
   -5.8850   18.1280  -34.5730 C   0  0  0  0  0  0  0  0  0  0  0  0
   -6.8410   17.1630  -33.8450 C   0  0  0  0  0  0  0  0  0  0  0  0
   -7.3660   17.7310  -32.5090 C   0  0  2  0  0  0  0  0  0  0  0  0
   -8.3570   18.8940  -32.7570 C   0  0  0  0  0  0  0  0  0  0  0  0
   -8.6870   19.6710  -31.4690 C   0  0  0  0  0  0  0  0  0  0  0  0
   -7.7430   20.7930  -31.2700 N   0  0  0  0  0  0  0  0  0  0  0  0
   -8.4250   21.9530  -30.6690 C   0  0  0  0  0  0  0  0  0  0  0  0
   -7.3960   23.0010  -30.2140 C   0  0  0  0  0  0  0  0  0  0  0  0
   -6.2920   23.2620  -31.2730 C   0  0  0  0  0  0  0  0  0  0  0  0
   -4.8620   22.9350  -30.8280 C   0  0  0  0  0  0  0  0  0  0  0  0
   -4.5540   21.5820  -30.5750 C   0  0  0  0  0  0  0  0  0  0  0  0
   -3.2970   21.2050  -30.1060 C   0  0  0  0  0  0  0  0  0  0  0  0
   -2.3230   22.1700  -29.8680 C   0  0  0  0  0  0  0  0  0  0  0  0
   -2.6010   23.5140  -30.1000 C   0  0  0  0  0  0  0  0  0  0  0  0
   -3.8680   23.9190  -30.5720 C   0  0  0  0  0  0  0  0  0  0  0  0
   -4.1500   25.2750  -30.7930 O   0  0  0  0  0  0  0  0  0  0  0  0
   -5.3550   25.9320  -30.4120 C   0  0  0  0  0  0  0  0  0  0  0  0
   -6.6190   22.6200  -32.6330 C   0  0  0  0  0  0  0  0  0  0  0  0
   -7.0230   21.1370  -32.5250 C   0  0  0  0  0  0  0  0  0  0  0  0
   -6.1980   18.1350  -31.5590 C   0  0  0  0  0  0  0  0  0  0  0  0
   -4.8250   18.2070  -32.2510 C   0  0  0  0  0  0  0  0  0  0  0  0
   -0.6282   21.3293  -32.7462 H   0  0  0  0  0  0  0  0  0  0  0  0
    0.4683   21.3466  -34.1689 H   0  0  0  0  0  0  0  0  0  0  0  0
   -1.0189   22.3540  -34.1689 H   0  0  0  0  0  0  0  0  0  0  0  0
   -1.4461   20.4059  -35.5441 H   0  0  0  0  0  0  0  0  0  0  0  0
   -0.8282   19.3068  -34.2517 H   0  0  0  0  0  0  0  0  0  0  0  0
   -3.2510   18.3710  -34.9050 H   0  0  0  0  0  0  0  0  0  0  0  0
   -5.3773   19.9024  -33.4610 H   0  0  0  0  0  0  0  0  0  0  0  0
   -5.2693   17.5447  -35.2735 H   0  0  0  0  0  0  0  0  0  0  0  0
   -6.5094   18.8744  -35.0858 H   0  0  0  0  0  0  0  0  0  0  0  0
   -6.3042   16.2249  -33.6407 H   0  0  0  0  0  0  0  0  0  0  0  0
   -7.7102   17.0032  -34.4999 H   0  0  0  0  0  0  0  0  0  0  0  0
   -7.9226   16.9347  -31.9932 H   0  0  0  0  0  0  0  0  0  0  0  0
   -7.9110   19.5888  -33.4839 H   0  0  0  0  0  0  0  0  0  0  0  0
   -9.2943   18.4601  -33.1355 H   0  0  0  0  0  0  0  0  0  0  0  0
   -9.7096   20.0698  -31.5415 H   0  0  0  0  0  0  0  0  0  0  0  0
   -8.6008   18.9846  -30.6138 H   0  0  0  0  0  0  0  0  0  0  0  0
   -9.0974   22.4042  -31.4135 H   0  0  0  0  0  0  0  0  0  0  0  0
   -9.0018   21.6155  -29.7953 H   0  0  0  0  0  0  0  0  0  0  0  0
   -7.9221   23.9463  -30.0150 H   0  0  0  0  0  0  0  0  0  0  0  0
   -6.9027   22.6097  -29.3121 H   0  0  0  0  0  0  0  0  0  0  0  0
   -6.3043   24.3552  -31.3949 H   0  0  0  0  0  0  0  0  0  0  0  0
   -5.3189   20.8113  -30.7509 H   0  0  0  0  0  0  0  0  0  0  0  0
   -3.0744   20.1433  -29.9237 H   0  0  0  0  0  0  0  0  0  0  0  0
   -1.3321   21.8703  -29.4961 H   0  0  0  0  0  0  0  0  0  0  0  0
   -1.8238   24.2697  -29.9132 H   0  0  0  0  0  0  0  0  0  0  0  0
   -5.4216   25.9683  -29.3146 H   0  0  0  0  0  0  0  0  0  0  0  0
   -5.3570   26.9561  -30.8136 H   0  0  0  0  0  0  0  0  0  0  0  0
   -6.2169   25.3790  -30.8136 H   0  0  0  0  0  0  0  0  0  0  0  0
   -7.4504   23.1760  -33.0908 H   0  0  0  0  0  0  0  0  0  0  0  0
   -5.7048   22.6652  -33.2431 H   0  0  0  0  0  0  0  0  0  0  0  0
   -7.6767   20.8943  -33.3758 H   0  0  0  0  0  0  0  0  0  0  0  0
   -6.0904   20.5536  -32.5254 H   0  0  0  0  0  0  0  0  0  0  0  0
   -6.1386   17.3933  -30.7489 H   0  0  0  0  0  0  0  0  0  0  0  0
   -6.4225   19.1470  -31.1909 H   0  0  0  0  0  0  0  0  0  0  0  0
   -4.4415   17.1866  -32.3986 H   0  0  0  0  0  0  0  0  0  0  0  0
   -4.1391   18.7853  -31.6145 H   0  0  0  0  0  0  0  0  0  0  0  0
  1  2  1  0
  2  3  1  0
  3  4  2  0
  3  5  1  0
  5  6  1  0
  6  7  1  0
  7  8  1  0
  8  9  1  0
  9 10  1  0
 10 11  1  0
 11 12  1  0
 12 13  1  0
 13 14  1  0
 14 15  1  0
 15 16  1  0
 16 17  2  0
 17 18  1  0
 18 19  2  0
 19 20  1  0
 20 21  2  0
 21 22  1  0
 22 23  1  0
 15 24  1  0
 24 25  1  0
  9 26  1  0
 26 27  1  0
 27  6  1  0
 25 12  1  0
 21 16  1  0
  1 28  1  0
  1 29  1  0
  1 30  1  0
  2 31  1  0
  2 32  1  0
  5 33  1  0
  6 34  1  1
  7 35  1  0
  7 36  1  0
  8 37  1  0
  8 38  1  0
  9 39  1  1
 10 40  1  0
 10 41  1  0
 11 42  1  0
 11 43  1  0
 13 44  1  0
 13 45  1  0
 14 46  1  0
 14 47  1  0
 15 48  1  0
 17 49  1  0
 18 50  1  0
 19 51  1  0
 20 52  1  0
 23 53  1  0
 23 54  1  0
 23 55  1  0
 24 56  1  0
 24 57  1  0
 25 58  1  0
 25 59  1  0
 26 60  1  0
 26 61  1  0
 27 62  1  0
 27 63  1  0
M  END
>  <UniqueID>  (34) 
33

>  <SMILES>  (34) 
CCC(=O)NC1CCC(CCN2CCC(c3ccccc3OC)CC2)CC1

>  <Energy>  (34) 
70.9087894768057

>  <Genealogy>  (34) 
CCC(=O)NC1CCC(CCN2CCC(c3ccccc3OC)CC2)CC1 (3D coordinates assigned)
CCC(=O)NC1CCC(CCN2CCC(c3ccccc3OC)CC2)CC1 (nonaromatic ring conformer: 70.9087894768057 kcal/mol)

>  <smiles>  (34) 
CCC(=O)NC1CCC(CCN2CCC(c3ccccc3OC)CC2)CC1

>  <score_type>  (34) 
oracle

>  <origin>  (34) 
adg

>  <m_score__min__energy>  (34) 
-9.4000000000000004

>  <m_primary>  (34) 
energy

$$$$
34:0
     RDKit          3D

 29 30  0  0  0  0  0  0  0  0999 V2000
   -9.0572   22.4607  -30.2709 H   0  0  0  0  0  0  0  0  0  0  0  0
   -8.3020   22.3950  -31.0680 C   0  0  0  0  0  0  0  0  0  0  0  0
   -8.5930   21.6280  -32.1310 C   0  0  0  0  0  0  0  0  0  0  0  0
   -9.2252   22.0699  -32.9152 H   0  0  0  0  0  0  0  0  0  0  0  0
   -8.1320   20.2360  -32.3330 C   0  0  0  0  0  0  0  0  0  0  0  0
   -8.7040   19.1640  -31.6260 C   0  0  0  0  0  0  0  0  0  0  0  0
   -9.5351   19.3481  -30.9293 H   0  0  0  0  0  0  0  0  0  0  0  0
   -8.2210   17.8670  -31.8050 C   0  0  0  0  0  0  0  0  0  0  0  0
   -8.6779   17.0314  -31.2546 H   0  0  0  0  0  0  0  0  0  0  0  0
   -7.1600   17.6260  -32.6800 C   0  0  0  0  0  0  0  0  0  0  0  0
   -6.7813   16.6016  -32.8114 H   0  0  0  0  0  0  0  0  0  0  0  0
   -6.5730   18.6850  -33.3940 C   0  0  0  0  0  0  0  0  0  0  0  0
   -5.3860   18.4350  -34.2910 C   0  0  0  0  0  0  0  0  0  0  0  0
   -4.9000   17.1630  -34.0600 F   0  0  0  0  0  0  0  0  0  0  0  0
   -5.7460   18.5450  -35.6230 F   0  0  0  0  0  0  0  0  0  0  0  0
   -4.3830   19.3550  -34.0380 F   0  0  0  0  0  0  0  0  0  0  0  0
   -7.0460   19.9930  -33.1880 C   0  0  0  0  0  0  0  0  0  0  0  0
   -6.5596   20.8348  -33.7025 H   0  0  0  0  0  0  0  0  0  0  0  0
   -7.0490   23.1590  -30.8810 C   0  0  0  0  0  0  0  0  0  0  0  0
   -7.0510   24.4550  -30.3320 C   0  0  0  0  0  0  0  0  0  0  0  0
   -7.9987   24.9130  -30.0125 H   0  0  0  0  0  0  0  0  0  0  0  0
   -5.8530   25.1630  -30.1910 C   0  0  0  0  0  0  0  0  0  0  0  0
   -5.8581   26.1683  -29.7446 H   0  0  0  0  0  0  0  0  0  0  0  0
   -4.6490   24.5940  -30.6170 C   0  0  0  0  0  0  0  0  0  0  0  0
   -3.4590   25.2980  -30.4760 O   0  0  0  0  0  0  0  0  0  0  0  0
   -4.6430   23.3170  -31.1890 C   0  0  0  0  0  0  0  0  0  0  0  0
   -3.6962   22.8713  -31.5281 H   0  0  0  0  0  0  0  0  0  0  0  0
   -5.8390   22.6070  -31.3300 C   0  0  0  0  0  0  0  0  0  0  0  0
   -5.8318   21.6103  -31.7954 H   0  0  0  0  0  0  0  0  0  0  0  0
  1  2  1  0
  2  3  2  0
  3  4  1  0
  3  5  1  0
  5  6  2  0
  6  7  1  0
  6  8  1  0
  8  9  1  0
  8 10  2  0
 10 11  1  0
 10 12  1  0
 12 13  1  0
 13 14  1  0
 13 15  1  0
 13 16  1  0
 12 17  2  0
 17 18  1  0
  2 19  1  0
 19 20  2  0
 20 21  1  0
 20 22  1  0
 22 23  1  0
 22 24  2  0
 24 25  1  0
 24 26  1  0
 26 27  1  0
 26 28  2  0
 28 29  1  0
 17  5  1  0
 28 19  1  0
M  CHG  1  25  -1
M  END
>  <UniqueID>  (35) 
34

>  <SMILES>  (35) 
[O-]c1ccc(/C=C\c2cccc(C(F)(F)F)c2)cc1

>  <Energy>  (35) 
39.790305611049085

>  <Genealogy>  (35) 
[O-]c1ccc(C=Cc2cccc(C(F)(F)F)c2)cc1 (protonated)
[O-]c1ccc(/C=C\c2cccc(C(F)(F)F)c2)cc1 (cis-trans isomerization)
[O-]c1ccc(/C=C\c2cccc(C(F)(F)F)c2)cc1 (3D coordinates assigned)
[O-]c1ccc(/C=C\c2cccc(C(F)(F)F)c2)cc1 (optimized conformer: 39.790305611049085 kcal/mol)

>  <smiles>  (35) 
Oc1ccc(C=Cc2cccc(C(F)(F)F)c2)cc1

>  <score_type>  (35) 
oracle

>  <origin>  (35) 
adg

>  <m_score__min__energy>  (35) 
-10.9

>  <m_primary>  (35) 
energy

$$$$
35:0
     RDKit          3D

 42 44  0  0  0  0  0  0  0  0999 V2000
   -9.2140   18.9820  -32.7130 C   0  0  0  0  0  0  0  0  0  0  0  0
   -8.7260   20.3050  -32.2130 C   0  0  0  0  0  0  0  0  0  0  0  0
   -9.5020   21.4190  -31.9600 C   0  0  0  0  0  0  0  0  0  0  0  0
   -8.7420   22.3830  -31.4910 O   0  0  0  0  0  0  0  0  0  0  0  0
   -7.4980   21.9620  -31.4260 C   0  0  0  0  0  0  0  0  0  0  0  0
   -6.3850   22.8220  -30.9740 C   0  0  0  0  0  0  0  0  0  0  0  0
   -6.3720   24.1810  -31.3290 C   0  0  0  0  0  0  0  0  0  0  0  0
   -5.3330   25.0130  -30.9000 C   0  0  0  0  0  0  0  0  0  0  0  0
   -4.2930   24.4920  -30.1260 C   0  0  0  0  0  0  0  0  0  0  0  0
   -3.2860   25.2990  -29.7100 F   0  0  0  0  0  0  0  0  0  0  0  0
   -4.2840   23.1350  -29.7900 C   0  0  0  0  0  0  0  0  0  0  0  0
   -5.3200   22.3010  -30.2190 C   0  0  0  0  0  0  0  0  0  0  0  0
   -7.4330   20.6390  -31.8560 C   0  0  0  0  0  0  0  0  0  0  0  0
   -6.2680   19.7300  -31.8580 C   0  0  0  0  0  0  0  0  0  0  0  0
   -6.2900   18.7210  -31.1020 O   0  0  0  0  0  0  0  0  0  0  0  0
   -5.1120   19.9750  -32.6850 N   0  0  0  0  0  0  0  0  0  0  0  0
   -4.3300   18.8310  -33.1710 C   0  0  0  0  0  0  0  0  0  0  0  0
   -3.0550   19.3000  -33.8790 C   0  0  0  0  0  0  0  0  0  0  0  0
   -2.4060   20.3580  -33.0820 N   0  0  0  0  0  0  0  0  0  0  0  0
   -1.0740   20.6660  -33.6300 C   0  0  0  0  0  0  0  0  0  0  0  0
   -3.2340   21.5910  -33.0030 C   0  0  0  0  0  0  0  0  0  0  0  0
   -4.7530   21.3350  -33.1130 C   0  0  0  0  0  0  0  0  0  0  0  0
   -9.4535   18.3326  -31.8581 H   0  0  0  0  0  0  0  0  0  0  0  0
  -10.1163   19.1312  -33.3243 H   0  0  0  0  0  0  0  0  0  0  0  0
   -8.4310   18.5095  -33.3243 H   0  0  0  0  0  0  0  0  0  0  0  0
  -10.5873   21.4886  -32.1253 H   0  0  0  0  0  0  0  0  0  0  0  0
   -7.1831   24.5929  -31.9475 H   0  0  0  0  0  0  0  0  0  0  0  0
   -5.3346   26.0788  -31.1722 H   0  0  0  0  0  0  0  0  0  0  0  0
   -3.4608   22.7234  -29.1875 H   0  0  0  0  0  0  0  0  0  0  0  0
   -5.3019   21.2310  -29.9645 H   0  0  0  0  0  0  0  0  0  0  0  0
   -4.0542   18.1947  -32.3171 H   0  0  0  0  0  0  0  0  0  0  0  0
   -4.9429   18.2667  -33.8893 H   0  0  0  0  0  0  0  0  0  0  0  0
   -2.3649   18.4507  -33.9907 H   0  0  0  0  0  0  0  0  0  0  0  0
   -3.3139   19.6976  -34.8714 H   0  0  0  0  0  0  0  0  0  0  0  0
   -2.2600   19.9960  -32.1080 H   0  0  0  0  0  0  0  0  0  0  0  0
   -0.3665   20.8296  -32.8038 H   0  0  0  0  0  0  0  0  0  0  0  0
   -0.7280   19.8242  -34.2477 H   0  0  0  0  0  0  0  0  0  0  0  0
   -1.1327   21.5743  -34.2477 H   0  0  0  0  0  0  0  0  0  0  0  0
   -3.0346   22.0805  -32.0383 H   0  0  0  0  0  0  0  0  0  0  0  0
   -2.9537   22.2184  -33.8619 H   0  0  0  0  0  0  0  0  0  0  0  0
   -5.2827   22.0595  -32.4770 H   0  0  0  0  0  0  0  0  0  0  0  0
   -5.0423   21.4479  -34.1683 H   0  0  0  0  0  0  0  0  0  0  0  0
  1  2  1  0
  2  3  2  0
  3  4  1  0
  4  5  1  0
  5  6  1  0
  6  7  2  0
  7  8  1  0
  8  9  2  0
  9 10  1  0
  9 11  1  0
 11 12  2  0
  5 13  2  0
 13 14  1  0
 14 15  2  0
 14 16  1  0
 16 17  1  0
 17 18  1  0
 18 19  1  0
 19 20  1  0
 19 21  1  0
 21 22  1  0
 13  2  1  0
 22 16  1  0
 12  6  1  0
  1 23  1  0
  1 24  1  0
  1 25  1  0
  3 26  1  0
  7 27  1  0
  8 28  1  0
 11 29  1  0
 12 30  1  0
 17 31  1  0
 17 32  1  0
 18 33  1  0
 18 34  1  0
 19 35  1  0
 20 36  1  0
 20 37  1  0
 20 38  1  0
 21 39  1  0
 21 40  1  0
 22 41  1  0
 22 42  1  0
M  CHG  1  19   1
M  END
>  <UniqueID>  (36) 
35

>  <SMILES>  (36) 
Cc1coc(-c2ccc(F)cc2)c1C(=O)N1CC[NH+](C)CC1

>  <Energy>  (36) 
81.5948276235654

>  <Genealogy>  (36) 
Cc1coc(-c2ccc(F)cc2)c1C(=O)N1CC[NH+](C)CC1 (protonated)
Cc1coc(-c2ccc(F)cc2)c1C(=O)N1CC[NH+](C)CC1 (3D coordinates assigned)
Cc1coc(-c2ccc(F)cc2)c1C(=O)N1CC[NH+](C)CC1 (nonaromatic ring conformer: 81.5948276235654 kcal/mol)

>  <smiles>  (36) 
Cc1coc(-c2ccc(F)cc2)c1C(=O)N1CCN(C)CC1

>  <score_type>  (36) 
oracle

>  <origin>  (36) 
adg

>  <m_score__min__energy>  (36) 
-6.8799999999999999

>  <m_primary>  (36) 
energy

$$$$
36:0
     RDKit          3D

 25 26  0  0  0  0  0  0  0  0999 V2000
   -9.5940   21.2170  -31.9470 C   0  0  0  0  0  0  0  0  0  0  0  0
   -8.2500   20.6270  -31.9830 N   0  0  0  0  0  0  0  0  0  0  0  0
   -8.1080   19.2100  -32.3390 C   0  0  0  0  0  0  0  0  0  0  0  0
   -7.0830   21.4320  -31.6740 C   0  0  0  0  0  0  0  0  0  0  0  0
   -5.7940   20.8620  -31.6740 C   0  0  0  0  0  0  0  0  0  0  0  0
   -4.6670   21.6320  -31.3770 C   0  0  0  0  0  0  0  0  0  0  0  0
   -4.7980   22.9950  -31.0700 C   0  0  0  0  0  0  0  0  0  0  0  0
   -3.6830   23.8000  -30.7660 C   0  0  0  0  0  0  0  0  0  0  0  0
   -2.5180   23.3180  -30.7570 O   0  0  0  0  0  0  0  0  0  0  0  0
   -3.8560   25.1180  -30.4760 N   0  0  0  0  0  0  0  0  0  0  0  0
   -5.0840   25.6980  -30.4670 C   0  0  0  0  0  0  0  0  0  0  0  0
   -6.2210   24.9440  -30.7620 C   0  0  0  0  0  0  0  0  0  0  0  0
   -6.0830   23.5820  -31.0650 C   0  0  0  0  0  0  0  0  0  0  0  0
   -7.2120   22.8020  -31.3650 C   0  0  0  0  0  0  0  0  0  0  0  0
   -9.9064   21.3541  -30.9012 H   0  0  0  0  0  0  0  0  0  0  0  0
   -9.5803   22.1918  -32.4564 H   0  0  0  0  0  0  0  0  0  0  0  0
  -10.3023   20.5471  -32.4564 H   0  0  0  0  0  0  0  0  0  0  0  0
   -8.0475   18.6058  -31.4218 H   0  0  0  0  0  0  0  0  0  0  0  0
   -8.9787   18.8916  -32.9310 H   0  0  0  0  0  0  0  0  0  0  0  0
   -7.1914   19.0707  -32.9310 H   0  0  0  0  0  0  0  0  0  0  0  0
   -5.6736   19.7947  -31.9115 H   0  0  0  0  0  0  0  0  0  0  0  0
   -3.6702   21.1668  -31.3838 H   0  0  0  0  0  0  0  0  0  0  0  0
   -5.1830   26.7667  -30.2262 H   0  0  0  0  0  0  0  0  0  0  0  0
   -7.2156   25.4138  -30.7568 H   0  0  0  0  0  0  0  0  0  0  0  0
   -8.2095   23.2656  -31.3588 H   0  0  0  0  0  0  0  0  0  0  0  0
  1  2  1  0
  2  3  1  0
  2  4  1  0
  4  5  2  0
  5  6  1  0
  6  7  2  0
  7  8  1  0
  8  9  2  0
  8 10  1  0
 10 11  1  0
 11 12  2  0
 12 13  1  0
 13 14  2  0
 14  4  1  0
 13  7  1  0
  1 15  1  0
  1 16  1  0
  1 17  1  0
  3 18  1  0
  3 19  1  0
  3 20  1  0
  5 21  1  0
  6 22  1  0
 11 23  1  0
 12 24  1  0
 14 25  1  0
M  CHG  1  10  -1
M  END
>  <UniqueID>  (37) 
36

>  <SMILES>  (37) 
CN(C)c1ccc2c(=O)[n-]ccc2c1

>  <Energy>  (37) 
32.031791350943195

>  <Genealogy>  (37) 
CN(C)c1ccc2c(=O)[n-]ccc2c1 (protonated)
CN(C)c1ccc2c(=O)[n-]ccc2c1 (3D coordinates assigned)
CN(C)c1ccc2c(=O)[n-]ccc2c1 (optimized conformer: 32.031791350943195 kcal/mol)

>  <smiles>  (37) 
CN(C)c1ccc2c(=O)[nH]ccc2c1

>  <score_type>  (37) 
oracle

>  <origin>  (37) 
adg

>  <m_score__min__energy>  (37) 
-7.5999999999999996

>  <m_primary>  (37) 
energy

$$$$
37:0
     RDKit          3D

 36 38  0  0  0  0  0  0  0  0999 V2000
   -0.8930   26.7670  -28.7460 O   0  0  0  0  0  0  0  0  0  0  0  0
   -1.4450   25.6720  -28.4520 C   0  0  0  0  0  0  0  0  0  0  0  0
   -2.4580   25.1340  -29.3100 N   0  0  0  0  0  0  0  0  0  0  0  0
   -3.4710   24.1850  -28.8630 C   0  0  0  0  0  0  0  0  0  0  0  0
   -4.6030   24.1400  -29.8400 C   0  0  0  0  0  0  0  0  0  0  0  0
   -5.7380   23.3630  -29.7240 C   0  0  0  0  0  0  0  0  0  0  0  0
   -6.4820   23.6260  -30.8540 C   0  0  0  0  0  0  0  0  0  0  0  0
   -5.7540   24.5400  -31.5890 C   0  0  0  0  0  0  0  0  0  0  0  0
   -4.6370   24.8260  -30.9590 O   0  0  0  0  0  0  0  0  0  0  0  0
   -1.0720   24.9510  -27.2120 C   0  0  0  0  0  0  0  0  0  0  0  0
   -1.2380   25.6030  -25.9760 C   0  0  0  0  0  0  0  0  0  0  0  0
   -0.8810   24.9740  -24.7820 C   0  0  0  0  0  0  0  0  0  0  0  0
   -0.3560   23.6820  -24.8020 C   0  0  0  0  0  0  0  0  0  0  0  0
   -0.1970   23.0130  -26.0160 C   0  0  0  0  0  0  0  0  0  0  0  0
   -0.5590   23.6280  -27.2230 C   0  0  0  0  0  0  0  0  0  0  0  0
   -0.4000   22.6580  -28.7340 S   0  0  0  0  0  0  0  0  0  0  0  0
   -1.1360   21.1990  -27.9940 C   0  0  0  0  0  0  0  0  0  0  0  0
   -0.3510   20.0680  -27.7390 C   0  0  0  0  0  0  0  0  0  0  0  0
   -0.9270   18.9280  -27.1700 C   0  0  0  0  0  0  0  0  0  0  0  0
   -2.2880   18.9190  -26.8480 C   0  0  0  0  0  0  0  0  0  0  0  0
   -3.0730   20.0500  -27.0930 C   0  0  0  0  0  0  0  0  0  0  0  0
   -2.4980   21.1900  -27.6630 C   0  0  0  0  0  0  0  0  0  0  0  0
   -3.0211   23.1845  -28.7817 H   0  0  0  0  0  0  0  0  0  0  0  0
   -3.8549   24.5046  -27.8830 H   0  0  0  0  0  0  0  0  0  0  0  0
   -5.9947   22.6780  -28.9025 H   0  0  0  0  0  0  0  0  0  0  0  0
   -7.4590   23.1945  -31.1172 H   0  0  0  0  0  0  0  0  0  0  0  0
   -6.0624   24.9646  -32.5558 H   0  0  0  0  0  0  0  0  0  0  0  0
   -1.6542   26.6209  -25.9504 H   0  0  0  0  0  0  0  0  0  0  0  0
   -1.0139   25.4981  -23.8240 H   0  0  0  0  0  0  0  0  0  0  0  0
   -0.0674   23.1907  -23.8611 H   0  0  0  0  0  0  0  0  0  0  0  0
    0.2162   21.9936  -26.0263 H   0  0  0  0  0  0  0  0  0  0  0  0
    0.7207   20.0763  -27.9867 H   0  0  0  0  0  0  0  0  0  0  0  0
   -0.3098   18.0384  -26.9757 H   0  0  0  0  0  0  0  0  0  0  0  0
   -2.7413   18.0216  -26.4017 H   0  0  0  0  0  0  0  0  0  0  0  0
   -4.1428   20.0429  -26.8373 H   0  0  0  0  0  0  0  0  0  0  0  0
   -3.1152   22.0807  -27.8519 H   0  0  0  0  0  0  0  0  0  0  0  0
  1  2  2  0
  2  3  1  0
  3  4  1  0
  4  5  1  0
  5  6  2  0
  6  7  1  0
  7  8  2  0
  8  9  1  0
  2 10  1  0
 10 11  2  0
 11 12  1  0
 12 13  2  0
 13 14  1  0
 14 15  2  0
 15 16  1  0
 16 17  1  0
 17 18  2  0
 18 19  1  0
 19 20  2  0
 20 21  1  0
 21 22  2  0
  9  5  1  0
 15 10  1  0
 22 17  1  0
  4 23  1  0
  4 24  1  0
  6 25  1  0
  7 26  1  0
  8 27  1  0
 11 28  1  0
 12 29  1  0
 13 30  1  0
 14 31  1  0
 18 32  1  0
 19 33  1  0
 20 34  1  0
 21 35  1  0
 22 36  1  0
M  CHG  1   3  -1
M  END
>  <UniqueID>  (38) 
37

>  <SMILES>  (38) 
O=C([N-]Cc1ccco1)c1ccccc1Sc1ccccc1

>  <Energy>  (38) 
59.1664326678703

>  <Genealogy>  (38) 
O=C([N-]Cc1ccco1)c1ccccc1Sc1ccccc1 (protonated)
O=C([N-]Cc1ccco1)c1ccccc1Sc1ccccc1 (3D coordinates assigned)
O=C([N-]Cc1ccco1)c1ccccc1Sc1ccccc1 (optimized conformer: 59.1664326678703 kcal/mol)

>  <smiles>  (38) 
O=C(NCc1ccco1)c1ccccc1Sc1ccccc1

>  <score_type>  (38) 
oracle

>  <origin>  (38) 
adg

>  <m_score__min__energy>  (38) 
-9.5999999999999996

>  <m_primary>  (38) 
energy

$$$$
38:0
     RDKit          3D

 55 57  0  0  0  0  0  0  0  0999 V2000
   -9.1880   19.7130  -32.4160 C   0  0  0  0  0  0  0  0  0  0  0  0
   -8.1340   20.5090  -32.9450 O   0  0  0  0  0  0  0  0  0  0  0  0
   -7.4140   21.4720  -32.2160 C   0  0  0  0  0  0  0  0  0  0  0  0
   -8.0530   22.3160  -31.2860 C   0  0  0  0  0  0  0  0  0  0  0  0
   -7.3200   23.2600  -30.5660 C   0  0  0  0  0  0  0  0  0  0  0  0
   -5.9430   23.3770  -30.7640 C   0  0  0  0  0  0  0  0  0  0  0  0
   -5.0050   24.5800  -29.8870 S   0  0  0  0  0  0  0  0  0  0  0  0
   -4.2200   25.4360  -30.8420 O   0  0  0  0  0  0  0  0  0  0  0  0
   -5.9400   25.4700  -29.1160 O   0  0  0  0  0  0  0  0  0  0  0  0
   -3.9140   23.7620  -28.8110 N   0  0  0  0  0  0  0  0  0  0  0  0
   -4.2370   22.3940  -28.4120 C   0  0  0  0  0  0  0  0  0  0  0  0
   -2.9840   24.5370  -28.0370 C   0  0  0  0  0  0  0  0  0  0  0  0
   -3.2880   24.9030  -26.7140 C   0  0  0  0  0  0  0  0  0  0  0  0
   -2.3780   25.6530  -25.9650 C   0  0  0  0  0  0  0  0  0  0  0  0
   -1.1590   26.0410  -26.5260 C   0  0  0  0  0  0  0  0  0  0  0  0
   -0.2780   26.7710  -25.7980 F   0  0  0  0  0  0  0  0  0  0  0  0
   -0.8510   25.6830  -27.8420 C   0  0  0  0  0  0  0  0  0  0  0  0
   -1.7590   24.9320  -28.5940 C   0  0  0  0  0  0  0  0  0  0  0  0
   -5.3020   22.5520  -31.6930 C   0  0  0  0  0  0  0  0  0  0  0  0
   -6.0220   21.5840  -32.4220 C   0  0  0  0  0  0  0  0  0  0  0  0
   -5.3770   20.7270  -33.3940 N   0  0  0  0  0  0  0  0  0  0  0  0
   -5.3420   19.2550  -33.3920 C   0  0  2  0  0  0  0  0  0  0  0  0
   -6.1120   18.6570  -34.5800 C   0  0  0  0  0  0  0  0  0  0  0  0
   -6.0010   17.1200  -34.5860 C   0  0  0  0  0  0  0  0  0  0  0  0
   -6.1200   16.4870  -33.2390 N   0  0  1  0  0  0  0  0  0  0  0  0
   -4.8510   15.8590  -32.8220 C   0  0  0  0  0  0  0  0  0  0  0  0
   -6.6350   17.3990  -32.1900 C   0  0  0  0  0  0  0  0  0  0  0  0
   -5.7790   18.6690  -32.0310 C   0  0  0  0  0  0  0  0  0  0  0  0
   -9.1519   19.7402  -31.3169 H   0  0  0  0  0  0  0  0  0  0  0  0
  -10.1548   20.1084  -32.7610 H   0  0  0  0  0  0  0  0  0  0  0  0
   -9.0722   18.6750  -32.7610 H   0  0  0  0  0  0  0  0  0  0  0  0
   -9.1380   22.2300  -31.1264 H   0  0  0  0  0  0  0  0  0  0  0  0
   -7.8280   23.9131  -29.8411 H   0  0  0  0  0  0  0  0  0  0  0  0
   -4.2530   22.3263  -27.3142 H   0  0  0  0  0  0  0  0  0  0  0  0
   -5.2247   22.1193  -28.8107 H   0  0  0  0  0  0  0  0  0  0  0  0
   -3.4765   21.7065  -28.8107 H   0  0  0  0  0  0  0  0  0  0  0  0
   -4.2457   24.5978  -26.2671 H   0  0  0  0  0  0  0  0  0  0  0  0
   -2.6220   25.9387  -24.9311 H   0  0  0  0  0  0  0  0  0  0  0  0
    0.1066   25.9926  -28.2859 H   0  0  0  0  0  0  0  0  0  0  0  0
   -1.5115   24.6494  -29.6279 H   0  0  0  0  0  0  0  0  0  0  0  0
   -4.2197   22.6599  -31.8575 H   0  0  0  0  0  0  0  0  0  0  0  0
   -4.9700   21.1780  -34.2440 H   0  0  0  0  0  0  0  0  0  0  0  0
   -4.2929   18.9546  -33.5304 H   0  0  0  0  0  0  0  0  0  0  0  0
   -7.1717   18.9418  -34.5030 H   0  0  0  0  0  0  0  0  0  0  0  0
   -5.6780   19.0455  -35.5131 H   0  0  0  0  0  0  0  0  0  0  0  0
   -6.8013   16.7199  -35.2259 H   0  0  0  0  0  0  0  0  0  0  0  0
   -4.9939   16.8798  -34.9575 H   0  0  0  0  0  0  0  0  0  0  0  0
   -6.8150   15.7070  -33.3180 H   0  0  0  0  0  0  0  0  0  0  0  0
   -4.7984   15.8330  -31.7236 H   0  0  0  0  0  0  0  0  0  0  0  0
   -4.8028   14.8330  -33.2158 H   0  0  0  0  0  0  0  0  0  0  0  0
   -4.0061   16.4430  -33.2158 H   0  0  0  0  0  0  0  0  0  0  0  0
   -7.6600   17.6970  -32.4556 H   0  0  0  0  0  0  0  0  0  0  0  0
   -6.6028   16.8560  -31.2339 H   0  0  0  0  0  0  0  0  0  0  0  0
   -6.3667   19.4266  -31.4918 H   0  0  0  0  0  0  0  0  0  0  0  0
   -4.8703   18.3952  -31.4749 H   0  0  0  0  0  0  0  0  0  0  0  0
  1  2  1  0
  2  3  1  0
  3  4  2  0
  4  5  1  0
  5  6  2  0
  6  7  1  0
  7  8  2  0
  7  9  2  0
  7 10  1  0
 10 11  1  0
 10 12  1  0
 12 13  2  0
 13 14  1  0
 14 15  2  0
 15 16  1  0
 15 17  1  0
 17 18  2  0
  6 19  1  0
 19 20  2  0
 20 21  1  0
 21 22  1  0
 22 23  1  0
 23 24  1  0
 24 25  1  0
 25 26  1  0
 25 27  1  0
 27 28  1  0
 20  3  1  0
 28 22  1  0
 18 12  1  0
  1 29  1  0
  1 30  1  0
  1 31  1  0
  4 32  1  0
  5 33  1  0
 11 34  1  0
 11 35  1  0
 11 36  1  0
 13 37  1  0
 14 38  1  0
 17 39  1  0
 18 40  1  0
 19 41  1  0
 21 42  1  0
 22 43  1  6
 23 44  1  0
 23 45  1  0
 24 46  1  0
 24 47  1  0
 25 48  1  6
 26 49  1  0
 26 50  1  0
 26 51  1  0
 27 52  1  0
 27 53  1  0
 28 54  1  0
 28 55  1  0
M  CHG  1  25   1
M  END
>  <UniqueID>  (39) 
38

>  <SMILES>  (39) 
COc1ccc(S(=O)(=O)N(C)c2ccc(F)cc2)cc1NC1CC[NH+](C)CC1

>  <Energy>  (39) 
69.93422663778408

>  <Genealogy>  (39) 
COc1ccc(S(=O)(=O)N(C)c2ccc(F)cc2)cc1NC1CC[NH+](C)CC1 (protonated)
COc1ccc(S(=O)(=O)N(C)c2ccc(F)cc2)cc1NC1CC[NH+](C)CC1 (3D coordinates assigned)
COc1ccc(S(=O)(=O)N(C)c2ccc(F)cc2)cc1NC1CC[NH+](C)CC1 (nonaromatic ring conformer: 69.93422663778408 kcal/mol)

>  <smiles>  (39) 
COc1ccc(S(=O)(=O)N(C)c2ccc(F)cc2)cc1NC1CCN(C)CC1

>  <score_type>  (39) 
oracle

>  <origin>  (39) 
adg

>  <m_score__min__energy>  (39) 
-9.0199999999999996

>  <m_primary>  (39) 
energy

$$$$
39:0
     RDKit          3D

 39 41  0  0  0  0  0  0  0  0999 V2000
   -2.8723   19.9278  -32.9405 H   0  0  0  0  0  0  0  0  0  0  0  0
   -3.6740   20.6480  -32.7200 C   0  0  0  0  0  0  0  0  0  0  0  0
   -4.7980   20.5660  -33.4490 C   0  0  0  0  0  0  0  0  0  0  0  0
   -4.8018   21.0485  -34.4375 H   0  0  0  0  0  0  0  0  0  0  0  0
   -6.0360   19.8710  -33.0170 C   0  0  0  0  0  0  0  0  0  0  0  0
   -6.1150   18.4720  -33.1300 C   0  0  0  0  0  0  0  0  0  0  0  0
   -5.2546   17.9013  -33.5095 H   0  0  0  0  0  0  0  0  0  0  0  0
   -7.2840   17.8080  -32.7610 C   0  0  0  0  0  0  0  0  0  0  0  0
   -7.3398   16.7123  -32.8408 H   0  0  0  0  0  0  0  0  0  0  0  0
   -8.3530   18.5070  -32.3040 N   0  0  0  0  0  0  0  0  0  0  0  0
   -8.3280   19.8620  -32.1900 C   0  0  0  0  0  0  0  0  0  0  0  0
   -9.4580   20.5360  -31.7140 C   0  0  0  0  0  0  0  0  0  0  0  0
  -10.3603   19.9689  -31.4414 H   0  0  0  0  0  0  0  0  0  0  0  0
   -9.4440   21.9250  -31.5840 C   0  0  0  0  0  0  0  0  0  0  0  0
  -10.3360   22.4504  -31.2121 H   0  0  0  0  0  0  0  0  0  0  0  0
   -8.3000   22.6500  -31.9250 C   0  0  0  0  0  0  0  0  0  0  0  0
   -8.2927   23.7448  -31.8179 H   0  0  0  0  0  0  0  0  0  0  0  0
   -7.1640   21.9890  -32.4020 C   0  0  0  0  0  0  0  0  0  0  0  0
   -6.2655   22.5666  -32.6650 H   0  0  0  0  0  0  0  0  0  0  0  0
   -7.1630   20.5870  -32.5480 C   0  0  0  0  0  0  0  0  0  0  0  0
   -3.4300   21.6330  -31.6420 C   0  0  0  0  0  0  0  0  0  0  0  0
   -2.4140   21.4430  -30.6880 C   0  0  0  0  0  0  0  0  0  0  0  0
   -1.7716   20.5517  -30.7416 H   0  0  0  0  0  0  0  0  0  0  0  0
   -2.2180   22.3820  -29.6730 C   0  0  0  0  0  0  0  0  0  0  0  0
   -1.4099   22.2348  -28.9414 H   0  0  0  0  0  0  0  0  0  0  0  0
   -3.0440   23.5110  -29.5800 C   0  0  0  0  0  0  0  0  0  0  0  0
   -2.8300   24.4620  -28.5260 N   0  0  0  0  0  0  0  0  0  0  0  0
   -3.7550   24.5330  -27.3960 C   0  0  0  0  0  0  0  0  0  0  0  0
   -3.1878   24.4895  -26.4545 H   0  0  0  0  0  0  0  0  0  0  0  0
   -4.3178   25.4770  -27.4416 H   0  0  0  0  0  0  0  0  0  0  0  0
   -4.4553   23.6860  -27.4416 H   0  0  0  0  0  0  0  0  0  0  0  0
   -1.6320   25.2980  -28.5450 C   0  0  0  0  0  0  0  0  0  0  0  0
   -1.3203   25.5155  -27.5128 H   0  0  0  0  0  0  0  0  0  0  0  0
   -0.8229   24.7674  -29.0683 H   0  0  0  0  0  0  0  0  0  0  0  0
   -1.8508   26.2405  -29.0683 H   0  0  0  0  0  0  0  0  0  0  0  0
   -4.0780   23.6910  -30.5180 C   0  0  0  0  0  0  0  0  0  0  0  0
   -5.2120   25.2340  -30.4660 Br  0  0  0  0  0  0  0  0  0  0  0  0
   -4.2710   22.7490  -31.5330 C   0  0  0  0  0  0  0  0  0  0  0  0
   -5.0912   22.8851  -32.2533 H   0  0  0  0  0  0  0  0  0  0  0  0
  1  2  1  0
  2  3  2  0
  3  4  1  0
  3  5  1  0
  5  6  2  0
  6  7  1  0
  6  8  1  0
  8  9  1  0
  8 10  2  0
 10 11  1  0
 11 12  2  0
 12 13  1  0
 12 14  1  0
 14 15  1  0
 14 16  2  0
 16 17  1  0
 16 18  1  0
 18 19  1  0
 18 20  2  0
  2 21  1  0
 21 22  2  0
 22 23  1  0
 22 24  1  0
 24 25  1  0
 24 26  2  0
 26 27  1  0
 27 28  1  0
 28 29  1  0
 28 30  1  0
 28 31  1  0
 27 32  1  0
 32 33  1  0
 32 34  1  0
 32 35  1  0
 26 36  1  0
 36 37  1  0
 36 38  2  0
 38 39  1  0
 20  5  1  0
 38 21  1  0
 20 11  1  0
M  END
>  <UniqueID>  (40) 
39

>  <SMILES>  (40) 
CN(C)c1ccc(/C=C\c2ccnc3ccccc23)cc1Br

>  <Energy>  (40) 
60.356030306106106

>  <Genealogy>  (40) 
CN(C)c1ccc(/C=C\c2ccnc3ccccc23)cc1Br (cis-trans isomerization)
CN(C)c1ccc(/C=C\c2ccnc3ccccc23)cc1Br (3D coordinates assigned)
CN(C)c1ccc(/C=C\c2ccnc3ccccc23)cc1Br (optimized conformer: 60.356030306106106 kcal/mol)

>  <smiles>  (40) 
CN(C)c1ccc(C=Cc2ccnc3ccccc23)cc1Br

>  <score_type>  (40) 
oracle

>  <origin>  (40) 
adg

>  <m_score__min__energy>  (40) 
-8.6600000000000001

>  <m_primary>  (40) 
energy

$$$$
40:0
     RDKit          3D

 44 45  0  0  0  0  0  0  0  0999 V2000
    1.7388   25.4479  -26.9838 H   0  0  0  0  0  0  0  0  0  0  0  0
    0.7480   25.2420  -27.4150 C   0  0  0  0  0  0  0  0  0  0  0  0
    0.6080   24.2990  -28.3760 N   0  0  0  0  0  0  0  0  0  0  0  0
   -0.5810   23.9940  -28.9680 C   0  0  0  0  0  0  0  0  0  0  0  0
   -0.5280   23.0680  -29.8870 N   0  0  0  0  0  0  0  0  0  0  0  0
   -1.1070   21.7310  -30.0420 C   0  0  1  0  0  0  0  0  0  0  0  0
   -0.3053   20.9955  -30.2043 H   0  0  0  0  0  0  0  0  0  0  0  0
   -1.8580   21.3290  -28.7630 C   0  0  0  0  0  0  0  0  0  0  0  0
   -1.2762   21.6404  -27.8829 H   0  0  0  0  0  0  0  0  0  0  0  0
   -2.8416   21.8212  -28.7453 H   0  0  0  0  0  0  0  0  0  0  0  0
   -1.9938   20.2376  -28.7453 H   0  0  0  0  0  0  0  0  0  0  0  0
   -2.0400   21.7140  -31.2730 C   0  0  0  0  0  0  0  0  0  0  0  0
   -1.7308   20.8858  -31.9275 H   0  0  0  0  0  0  0  0  0  0  0  0
   -1.9440   22.6990  -31.7532 H   0  0  0  0  0  0  0  0  0  0  0  0
   -3.5240   21.5330  -30.9400 C   0  0  0  0  0  0  0  0  0  0  0  0
   -3.6554   21.5170  -29.8480 H   0  0  0  0  0  0  0  0  0  0  0  0
   -4.0999   22.3676  -31.3664 H   0  0  0  0  0  0  0  0  0  0  0  0
   -3.8824   20.5845  -31.3664 H   0  0  0  0  0  0  0  0  0  0  0  0
   -1.7570   24.7010  -28.5410 C   0  0  0  0  0  0  0  0  0  0  0  0
   -3.1740   24.4370  -28.9920 C   0  0  0  0  0  0  0  0  0  0  0  0
   -3.2695   23.3846  -29.2974 H   0  0  0  0  0  0  0  0  0  0  0  0
   -3.8636   24.6471  -28.1611 H   0  0  0  0  0  0  0  0  0  0  0  0
   -3.5040   25.2980  -30.1180 N   0  0  0  0  0  0  0  0  0  0  0  0
   -4.7960   25.2950  -30.7350 C   0  0  0  0  0  0  0  0  0  0  0  0
   -5.6120   26.2270  -30.5050 O   0  0  0  0  0  0  0  0  0  0  0  0
   -5.1720   24.2400  -31.6200 N   0  0  0  0  0  0  0  0  0  0  0  0
   -6.5560   23.8180  -31.8070 C   0  0  0  0  0  0  0  0  0  0  0  0
   -7.2239   24.6757  -31.6389 H   0  0  0  0  0  0  0  0  0  0  0  0
   -6.6825   23.4412  -32.8327 H   0  0  0  0  0  0  0  0  0  0  0  0
   -6.9030   22.7050  -30.8180 C   0  0  0  0  0  0  0  0  0  0  0  0
   -5.9738   22.3160  -30.3761 H   0  0  0  0  0  0  0  0  0  0  0  0
   -7.5587   23.1241  -30.0405 H   0  0  0  0  0  0  0  0  0  0  0  0
   -7.6300   21.5810  -31.4940 C   0  0  0  0  0  0  0  0  0  0  0  0
   -6.9300   20.1580  -32.0540 S   0  0  0  0  0  0  0  0  0  0  0  0
   -8.3620   19.4500  -32.5850 C   0  0  0  0  0  0  0  0  0  0  0  0
   -8.4539   18.4625  -33.0609 H   0  0  0  0  0  0  0  0  0  0  0  0
   -9.4080   20.3250  -32.3200 C   0  0  0  0  0  0  0  0  0  0  0  0
  -10.4558   20.1043  -32.5720 H   0  0  0  0  0  0  0  0  0  0  0  0
   -9.0030   21.5140  -31.7020 C   0  0  0  0  0  0  0  0  0  0  0  0
   -9.6999   22.3136  -31.4107 H   0  0  0  0  0  0  0  0  0  0  0  0
   -1.6050   25.6660  -27.5290 C   0  0  0  0  0  0  0  0  0  0  0  0
   -2.4895   26.2105  -27.1668 H   0  0  0  0  0  0  0  0  0  0  0  0
   -0.3600   25.9460  -26.9770 C   0  0  0  0  0  0  0  0  0  0  0  0
   -0.2569   26.7185  -26.2007 H   0  0  0  0  0  0  0  0  0  0  0  0
  1  2  1  0
  2  3  1  0
  3  4  1  0
  4  5  2  0
  5  6  1  0
  6  7  1  6
  6  8  1  0
  8  9  1  0
  8 10  1  0
  8 11  1  0
  6 12  1  0
 12 13  1  0
 12 14  1  0
 12 15  1  0
 15 16  1  0
 15 17  1  0
 15 18  1  0
  4 19  1  0
 19 20  1  0
 20 21  1  0
 20 22  1  0
 20 23  1  0
 23 24  1  0
 24 25  2  0
 24 26  1  0
 26 27  1  0
 27 28  1  0
 27 29  1  0
 27 30  1  0
 30 31  1  0
 30 32  1  0
 30 33  1  0
 33 34  1  0
 34 35  1  0
 35 36  1  0
 35 37  2  0
 37 38  1  0
 37 39  1  0
 39 40  1  0
 19 41  2  0
 41 42  1  0
 41 43  1  0
 43 44  1  0
 43  2  2  0
 39 33  2  0
M  CHG  3   3  -1  23  -1  26  -1
M  END
>  <UniqueID>  (41) 
40

>  <SMILES>  (41) 
CC[C@H](C)/N=c1/[n-]cccc1C[N-]C(=O)[N-]CCc1cccs1

>  <Energy>  (41) 
72.85234740144227

>  <Genealogy>  (41) 
CCC(C)N=c1[n-]cccc1C[N-]C(=O)[N-]CCc1cccs1 (protonated)
CC[C@H](C)N=c1[n-]cccc1C[N-]C(=O)[N-]CCc1cccs1 (chirality)
CC[C@H](C)/N=c1/[n-]cccc1C[N-]C(=O)[N-]CCc1cccs1 (cis-trans isomerization)
CC[C@H](C)/N=c1/[n-]cccc1C[N-]C(=O)[N-]CCc1cccs1 (3D coordinates assigned)
CC[C@H](C)/N=c1/[n-]cccc1C[N-]C(=O)[N-]CCc1cccs1 (optimized conformer: 72.85234740144227 kcal/mol)

>  <smiles>  (41) 
CCC(C)N=c1[nH]cccc1CNC(=O)NCCc1cccs1

>  <score_type>  (41) 
oracle

>  <origin>  (41) 
adg

>  <m_score__min__energy>  (41) 
-10.359999999999999

>  <m_primary>  (41) 
energy

$$$$
41:0
     RDKit          3D

 48 50  0  0  0  0  0  0  0  0999 V2000
    1.5240   25.0440  -27.4600 C   0  0  0  0  0  0  0  0  0  0  0  0
    0.4610   24.5120  -28.2440 O   0  0  0  0  0  0  0  0  0  0  0  0
   -0.3800   23.4590  -27.8430 C   0  0  0  0  0  0  0  0  0  0  0  0
    0.0720   22.4450  -26.9740 C   0  0  0  0  0  0  0  0  0  0  0  0
   -0.7760   21.4000  -26.6040 C   0  0  0  0  0  0  0  0  0  0  0  0
   -2.0820   21.3530  -27.0900 C   0  0  0  0  0  0  0  0  0  0  0  0
   -2.5460   22.3520  -27.9480 C   0  0  0  0  0  0  0  0  0  0  0  0
   -1.7020   23.4090  -28.3350 C   0  0  0  0  0  0  0  0  0  0  0  0
   -2.2200   24.4630  -29.2410 C   0  0  0  0  0  0  0  0  0  0  0  0
   -2.0150   25.6740  -28.9660 O   0  0  0  0  0  0  0  0  0  0  0  0
   -3.0160   24.1480  -30.3900 N   0  0  0  0  0  0  0  0  0  0  0  0
   -4.4520   24.1640  -30.4650 C   0  0  0  0  0  0  0  0  0  0  0  0
   -5.1890   25.3220  -30.1610 C   0  0  0  0  0  0  0  0  0  0  0  0
   -6.5480   25.2910  -30.1710 N   0  0  0  0  0  0  0  0  0  0  0  0
   -7.2360   24.1560  -30.4590 C   0  0  0  0  0  0  0  0  0  0  0  0
   -6.5490   22.9740  -30.7420 C   0  0  0  0  0  0  0  0  0  0  0  0
   -5.1480   22.9720  -30.7370 C   0  0  0  0  0  0  0  0  0  0  0  0
   -4.4190   21.7210  -31.0170 C   0  0  0  0  0  0  0  0  0  0  0  0
   -3.8410   21.1360  -30.0610 O   0  0  0  0  0  0  0  0  0  0  0  0
   -4.3810   21.1480  -32.3440 N   0  0  0  0  0  0  0  0  0  0  0  0
   -3.8540   21.9600  -33.4460 C   0  0  0  0  0  0  0  0  0  0  0  0
   -4.7900   19.7540  -32.5860 C   0  0  0  0  0  0  0  0  0  0  0  0
   -6.2770   19.5920  -32.3910 C   0  0  0  0  0  0  0  0  0  0  0  0
   -6.7950   18.4370  -31.7790 C   0  0  0  0  0  0  0  0  0  0  0  0
   -8.1770   18.2720  -31.6440 C   0  0  0  0  0  0  0  0  0  0  0  0
   -9.0490   19.2600  -32.1060 C   0  0  0  0  0  0  0  0  0  0  0  0
   -8.5420   20.4200  -32.7000 C   0  0  0  0  0  0  0  0  0  0  0  0
   -7.1610   20.5880  -32.8390 C   0  0  0  0  0  0  0  0  0  0  0  0
    1.2871   24.9254  -26.3924 H   0  0  0  0  0  0  0  0  0  0  0  0
    2.4550   24.5056  -27.6910 H   0  0  0  0  0  0  0  0  0  0  0  0
    1.6511   26.1119  -27.6910 H   0  0  0  0  0  0  0  0  0  0  0  0
    1.1003   22.4777  -26.5848 H   0  0  0  0  0  0  0  0  0  0  0  0
   -0.4133   20.6120  -25.9277 H   0  0  0  0  0  0  0  0  0  0  0  0
   -2.7477   20.5278  -26.7971 H   0  0  0  0  0  0  0  0  0  0  0  0
   -3.5789   22.3123  -28.3241 H   0  0  0  0  0  0  0  0  0  0  0  0
   -4.6640   26.2566  -29.9141 H   0  0  0  0  0  0  0  0  0  0  0  0
   -8.3359   24.1680  -30.4693 H   0  0  0  0  0  0  0  0  0  0  0  0
   -7.1036   22.0511  -30.9672 H   0  0  0  0  0  0  0  0  0  0  0  0
   -3.2981   22.8166  -33.0370 H   0  0  0  0  0  0  0  0  0  0  0  0
   -3.1810   21.3472  -34.0637 H   0  0  0  0  0  0  0  0  0  0  0  0
   -4.6877   22.3251  -34.0637 H   0  0  0  0  0  0  0  0  0  0  0  0
   -4.5288   19.4751  -33.6175 H   0  0  0  0  0  0  0  0  0  0  0  0
   -4.2669   19.1031  -31.8700 H   0  0  0  0  0  0  0  0  0  0  0  0
   -6.1110   17.6608  -31.4053 H   0  0  0  0  0  0  0  0  0  0  0  0
   -8.5779   17.3623  -31.1731 H   0  0  0  0  0  0  0  0  0  0  0  0
  -10.1359   19.1257  -32.0026 H   0  0  0  0  0  0  0  0  0  0  0  0
   -9.2297   21.2003  -33.0579 H   0  0  0  0  0  0  0  0  0  0  0  0
   -6.7647   21.5041  -33.3012 H   0  0  0  0  0  0  0  0  0  0  0  0
  1  2  1  0
  2  3  1  0
  3  4  2  0
  4  5  1  0
  5  6  2  0
  6  7  1  0
  7  8  2  0
  8  9  1  0
  9 10  2  0
  9 11  1  0
 11 12  1  0
 12 13  2  0
 13 14  1  0
 14 15  2  0
 15 16  1  0
 16 17  2  0
 17 18  1  0
 18 19  2  0
 18 20  1  0
 20 21  1  0
 20 22  1  0
 22 23  1  0
 23 24  2  0
 24 25  1  0
 25 26  2  0
 26 27  1  0
 27 28  2  0
  8  3  1  0
 17 12  1  0
 28 23  1  0
  1 29  1  0
  1 30  1  0
  1 31  1  0
  4 32  1  0
  5 33  1  0
  6 34  1  0
  7 35  1  0
 13 36  1  0
 15 37  1  0
 16 38  1  0
 21 39  1  0
 21 40  1  0
 21 41  1  0
 22 42  1  0
 22 43  1  0
 24 44  1  0
 25 45  1  0
 26 46  1  0
 27 47  1  0
 28 48  1  0
M  CHG  1  11  -1
M  END
>  <UniqueID>  (42) 
41

>  <SMILES>  (42) 
COc1ccccc1C(=O)[N-]c1cnccc1C(=O)N(C)Cc1ccccc1

>  <Energy>  (42) 
60.69098409766857

>  <Genealogy>  (42) 
COc1ccccc1C(=O)[N-]c1cnccc1C(=O)N(C)Cc1ccccc1 (protonated)
COc1ccccc1C(=O)[N-]c1cnccc1C(=O)N(C)Cc1ccccc1 (3D coordinates assigned)
COc1ccccc1C(=O)[N-]c1cnccc1C(=O)N(C)Cc1ccccc1 (optimized conformer: 60.69098409766857 kcal/mol)

>  <smiles>  (42) 
COc1ccccc1C(=O)Nc1cnccc1C(=O)N(C)Cc1ccccc1

>  <score_type>  (42) 
oracle

>  <origin>  (42) 
adg

>  <m_score__min__energy>  (42) 
-10.69

>  <m_primary>  (42) 
energy

$$$$
42:0
     RDKit          3D

 31 33  0  0  0  0  0  0  0  0999 V2000
   -2.6250   24.5460  -27.3770 C   0  0  0  0  0  0  0  0  0  0  0  0
   -2.3220   24.3380  -28.8570 C   0  0  0  0  0  0  0  0  0  0  0  0
   -3.1050   25.2210  -29.6570 O   0  0  0  0  0  0  0  0  0  0  0  0
   -4.3850   24.9050  -30.1250 C   0  0  0  0  0  0  0  0  0  0  0  0
   -4.8010   25.3570  -31.2260 O   0  0  0  0  0  0  0  0  0  0  0  0
   -5.2450   23.9750  -29.3330 C   0  0  0  0  0  0  0  0  0  0  0  0
   -5.8000   22.9510  -30.2120 N   0  0  0  0  0  0  0  0  0  0  0  0
   -7.4310   22.6190  -30.3990 S   0  0  0  0  0  0  0  0  0  0  0  0
   -7.2660   21.4720  -31.5960 C   0  0  0  0  0  0  0  0  0  0  0  0
   -8.2030   20.7560  -32.2520 N   0  0  0  0  0  0  0  0  0  0  0  0
   -7.8030   19.8970  -33.1960 N   0  0  0  0  0  0  0  0  0  0  0  0
   -6.4750   19.7380  -33.5080 C   0  0  0  0  0  0  0  0  0  0  0  0
   -6.0930   18.7530  -34.5810 C   0  0  0  0  0  0  0  0  0  0  0  0
   -4.8050   17.9750  -34.3550 C   0  0  0  0  0  0  0  0  0  0  0  0
   -6.1510   17.2870  -34.1790 C   0  0  0  0  0  0  0  0  0  0  0  0
   -5.5290   20.4710  -32.8410 N   0  0  0  0  0  0  0  0  0  0  0  0
   -5.9320   21.3380  -31.8820 C   0  0  0  0  0  0  0  0  0  0  0  0
   -5.1170   22.1790  -31.1060 C   0  0  0  0  0  0  0  0  0  0  0  0
   -3.8640   22.2250  -31.2260 O   0  0  0  0  0  0  0  0  0  0  0  0
   -1.8680   24.0264  -26.7712 H   0  0  0  0  0  0  0  0  0  0  0  0
   -2.6045   25.6213  -27.1461 H   0  0  0  0  0  0  0  0  0  0  0  0
   -3.6211   24.1404  -27.1461 H   0  0  0  0  0  0  0  0  0  0  0  0
   -1.2552   24.5349  -29.0390 H   0  0  0  0  0  0  0  0  0  0  0  0
   -2.5683   23.3007  -29.1277 H   0  0  0  0  0  0  0  0  0  0  0  0
   -4.6402   23.4956  -28.5492 H   0  0  0  0  0  0  0  0  0  0  0  0
   -6.0660   24.5424  -28.8703 H   0  0  0  0  0  0  0  0  0  0  0  0
   -6.4999   19.3552  -35.4066 H   0  0  0  0  0  0  0  0  0  0  0  0
   -4.1621   17.7155  -35.2090 H   0  0  0  0  0  0  0  0  0  0  0  0
   -3.9134   18.1124  -33.7256 H   0  0  0  0  0  0  0  0  0  0  0  0
   -6.4810   16.5301  -34.9057 H   0  0  0  0  0  0  0  0  0  0  0  0
   -6.6353   16.7210  -33.3696 H   0  0  0  0  0  0  0  0  0  0  0  0
  1  2  1  0
  2  3  1  0
  3  4  1  0
  4  5  2  0
  4  6  1  0
  6  7  1  0
  7  8  1  0
  8  9  1  0
  9 10  2  0
 10 11  1  0
 11 12  2  0
 12 13  1  0
 13 14  1  0
 14 15  1  0
 12 16  1  0
 16 17  2  0
 17 18  1  0
 18 19  2  0
 18  7  1  0
 17  9  1  0
 15 13  1  0
  1 20  1  0
  1 21  1  0
  1 22  1  0
  2 23  1  0
  2 24  1  0
  6 25  1  0
  6 26  1  0
 13 27  1  0
 14 28  1  0
 14 29  1  0
 15 30  1  0
 15 31  1  0
M  END
>  <UniqueID>  (43) 
42

>  <SMILES>  (43) 
CCOC(=O)Cn1sc2nnc(C3CC3)nc2c1=O

>  <Energy>  (43) 
335.6612202969203

>  <Genealogy>  (43) 
CCOC(=O)Cn1sc2nnc(C3CC3)nc2c1=O (3D coordinates assigned)
CCOC(=O)Cn1sc2nnc(C3CC3)nc2c1=O (nonaromatic ring conformer: 335.6612202969203 kcal/mol)

>  <smiles>  (43) 
CCOC(=O)Cn1sc2nnc(C3CC3)nc2c1=O

>  <score_type>  (43) 
oracle

>  <origin>  (43) 
adg

>  <m_score__min__energy>  (43) 
-7.2400000000000002

>  <m_primary>  (43) 
energy

$$$$
43:0
     RDKit          3D

 56 59  0  0  0  0  0  0  0  0999 V2000
   -3.6380   15.7600  -34.2390 C   0  0  0  0  0  0  0  0  0  0  0  0
   -4.5600   14.7110  -33.7670 N   0  0  0  0  0  0  0  0  0  0  0  0
   -4.2250   14.3780  -32.3700 C   0  0  0  0  0  0  0  0  0  0  0  0
   -5.9530   15.1960  -33.9030 C   0  0  0  0  0  0  0  0  0  0  0  0
   -6.0920   16.7270  -33.8310 C   0  0  0  0  0  0  0  0  0  0  0  0
   -5.9160   17.3210  -32.4170 C   0  0  0  0  0  0  0  0  0  0  0  0
   -6.2450   18.7660  -32.3480 N   0  0  0  0  0  0  0  0  0  0  0  0
   -5.2820   19.7370  -32.5350 C   0  0  0  0  0  0  0  0  0  0  0  0
   -3.5520   19.3540  -32.8790 S   0  0  0  0  0  0  0  0  0  0  0  0
   -2.8950   20.1960  -31.3960 C   0  0  0  0  0  0  0  0  0  0  0  0
   -2.5150   21.6200  -31.6910 C   0  0  0  0  0  0  0  0  0  0  0  0
   -1.8490   21.8860  -32.7270 O   0  0  0  0  0  0  0  0  0  0  0  0
   -2.9760   22.6930  -30.8450 N   0  0  0  0  0  0  0  0  0  0  0  0
   -4.3520   23.1970  -31.0050 C   0  0  0  0  0  0  0  0  0  0  0  0
   -4.4360   24.6700  -30.7290 C   0  0  0  0  0  0  0  0  0  0  0  0
   -5.3870   25.3450  -31.2020 O   0  0  0  0  0  0  0  0  0  0  0  0
   -3.4820   25.2980  -29.8740 N   0  0  0  0  0  0  0  0  0  0  0  0
   -2.3680   24.5660  -29.3640 C   0  0  0  0  0  0  0  0  0  0  0  0
   -1.5330   25.1500  -28.4040 C   0  0  0  0  0  0  0  0  0  0  0  0
   -0.4600   24.4280  -27.8780 C   0  0  0  0  0  0  0  0  0  0  0  0
   -0.2190   23.1210  -28.3080 C   0  0  0  0  0  0  0  0  0  0  0  0
   -1.0420   22.5360  -29.2740 C   0  0  0  0  0  0  0  0  0  0  0  0
   -2.1170   23.2620  -29.8270 C   0  0  0  0  0  0  0  0  0  0  0  0
   -5.6210   21.0520  -32.5180 N   0  0  0  0  0  0  0  0  0  0  0  0
   -6.8920   21.4610  -32.3130 C   0  0  0  0  0  0  0  0  0  0  0  0
   -7.1910   22.8280  -32.2840 C   0  0  0  0  0  0  0  0  0  0  0  0
   -8.5100   23.2510  -32.0870 C   0  0  0  0  0  0  0  0  0  0  0  0
   -9.5290   22.3100  -31.9220 C   0  0  0  0  0  0  0  0  0  0  0  0
   -9.2360   20.9430  -31.9560 C   0  0  0  0  0  0  0  0  0  0  0  0
   -7.9100   20.5090  -32.1510 C   0  0  0  0  0  0  0  0  0  0  0  0
   -7.5610   19.1490  -32.2030 C   0  0  0  0  0  0  0  0  0  0  0  0
   -8.4750   18.2780  -32.1360 O   0  0  0  0  0  0  0  0  0  0  0  0
   -3.1895   16.2703  -33.3739 H   0  0  0  0  0  0  0  0  0  0  0  0
   -2.8437   15.3033  -34.8476 H   0  0  0  0  0  0  0  0  0  0  0  0
   -4.1929   16.4891  -34.8476 H   0  0  0  0  0  0  0  0  0  0  0  0
   -4.8385   14.9878  -31.6905 H   0  0  0  0  0  0  0  0  0  0  0  0
   -4.4265   13.3119  -32.1887 H   0  0  0  0  0  0  0  0  0  0  0  0
   -3.1601   14.5859  -32.1887 H   0  0  0  0  0  0  0  0  0  0  0  0
   -6.3436   14.8584  -34.8743 H   0  0  0  0  0  0  0  0  0  0  0  0
   -6.5179   14.7846  -33.0535 H   0  0  0  0  0  0  0  0  0  0  0  0
   -5.3301   17.1722  -34.4878 H   0  0  0  0  0  0  0  0  0  0  0  0
   -7.1203   16.9623  -34.1430 H   0  0  0  0  0  0  0  0  0  0  0  0
   -6.5761   16.7781  -31.7245 H   0  0  0  0  0  0  0  0  0  0  0  0
   -4.8556   17.2126  -32.1452 H   0  0  0  0  0  0  0  0  0  0  0  0
   -3.6647   20.1874  -30.6102 H   0  0  0  0  0  0  0  0  0  0  0  0
   -1.9923   19.6600  -31.0676 H   0  0  0  0  0  0  0  0  0  0  0  0
   -4.6840   23.0075  -32.0364 H   0  0  0  0  0  0  0  0  0  0  0  0
   -4.9963   22.6741  -30.2828 H   0  0  0  0  0  0  0  0  0  0  0  0
   -1.7225   26.1788  -28.0638 H   0  0  0  0  0  0  0  0  0  0  0  0
    0.1959   24.8886  -27.1246 H   0  0  0  0  0  0  0  0  0  0  0  0
    0.6211   22.5506  -27.8850 H   0  0  0  0  0  0  0  0  0  0  0  0
   -0.8504   21.5045  -29.6045 H   0  0  0  0  0  0  0  0  0  0  0  0
   -6.3893   23.5695  -32.4160 H   0  0  0  0  0  0  0  0  0  0  0  0
   -8.7447   24.3254  -32.0620 H   0  0  0  0  0  0  0  0  0  0  0  0
  -10.5649   22.6451  -31.7649 H   0  0  0  0  0  0  0  0  0  0  0  0
  -10.0423   20.2054  -31.8303 H   0  0  0  0  0  0  0  0  0  0  0  0
  1  2  1  0
  2  3  1  0
  2  4  1  0
  4  5  1  0
  5  6  1  0
  6  7  1  0
  7  8  1  0
  8  9  1  0
  9 10  1  0
 10 11  1  0
 11 12  2  0
 11 13  1  0
 13 14  1  0
 14 15  1  0
 15 16  2  0
 15 17  1  0
 17 18  1  0
 18 19  2  0
 19 20  1  0
 20 21  2  0
 21 22  1  0
 22 23  2  0
  8 24  2  0
 24 25  1  0
 25 26  2  0
 26 27  1  0
 27 28  2  0
 28 29  1  0
 29 30  2  0
 30 31  1  0
 31 32  2  0
 31  7  1  0
 23 13  1  0
 30 25  1  0
 23 18  1  0
  1 33  1  0
  1 34  1  0
  1 35  1  0
  3 36  1  0
  3 37  1  0
  3 38  1  0
  4 39  1  0
  4 40  1  0
  5 41  1  0
  5 42  1  0
  6 43  1  0
  6 44  1  0
 10 45  1  0
 10 46  1  0
 14 47  1  0
 14 48  1  0
 19 49  1  0
 20 50  1  0
 21 51  1  0
 22 52  1  0
 26 53  1  0
 27 54  1  0
 28 55  1  0
 29 56  1  0
M  CHG  1  17  -1
M  END
>  <UniqueID>  (44) 
43

>  <SMILES>  (44) 
CN(C)CCCn1c(SCC(=O)N2CC(=O)[N-]c3ccccc32)nc2ccccc2c1=O

>  <Energy>  (44) 
72.0583614193639

>  <Genealogy>  (44) 
CN(C)CCCn1c(SCC(=O)N2CC(=O)[N-]c3ccccc32)nc2ccccc2c1=O (protonated)
CN(C)CCCn1c(SCC(=O)N2CC(=O)[N-]c3ccccc32)nc2ccccc2c1=O (3D coordinates assigned)
CN(C)CCCn1c(SCC(=O)N2CC(=O)[N-]c3ccccc32)nc2ccccc2c1=O (nonaromatic ring conformer: 72.0583614193639 kcal/mol)

>  <smiles>  (44) 
CN(C)CCCn1c(SCC(=O)N2CC(=O)Nc3ccccc32)nc2ccccc2c1=O

>  <score_type>  (44) 
oracle

>  <origin>  (44) 
adg

>  <m_score__min__energy>  (44) 
-11.25

>  <m_primary>  (44) 
energy

$$$$
44:0
     RDKit          3D

 42 44  0  0  0  0  0  0  0  0999 V2000
    0.7990   16.7070  -27.5680 C   0  0  0  0  0  0  0  0  0  0  0  0
   -0.1130   17.8390  -27.4570 N   0  0  0  0  0  0  0  0  0  0  0  0
    0.1020   19.0790  -27.9350 C   0  0  0  0  0  0  0  0  0  0  0  0
   -0.9550   19.8760  -27.5410 C   0  0  0  0  0  0  0  0  0  0  0  0
   -1.1330   21.3380  -27.8160 C   0  0  0  0  0  0  0  0  0  0  0  0
   -1.5470   21.5510  -29.2190 N   0  0  0  0  0  0  0  0  0  0  0  0
   -1.0340   22.8370  -29.7620 C   0  0  0  0  0  0  0  0  0  0  0  0
   -1.0930   24.0280  -28.7850 C   0  0  0  0  0  0  0  0  0  0  0  0
   -2.5290   24.5350  -28.5900 C   0  0  0  0  0  0  0  0  0  0  0  0
   -3.4890   23.7130  -29.3320 N   0  0  0  0  0  0  0  0  0  0  0  0
   -4.2780   24.3190  -30.3710 C   0  0  0  0  0  0  0  0  0  0  0  0
   -3.9400   25.4410  -30.8340 O   0  0  0  0  0  0  0  0  0  0  0  0
   -5.4650   23.6420  -30.9180 C   0  0  0  0  0  0  0  0  0  0  0  0
   -6.7880   23.8730  -30.5550 C   0  0  0  0  0  0  0  0  0  0  0  0
   -7.6970   23.0460  -31.2240 C   0  0  0  0  0  0  0  0  0  0  0  0
   -7.0980   22.1550  -32.1050 C   0  0  0  0  0  0  0  0  0  0  0  0
   -5.4360   22.3970  -32.0490 S   0  0  0  0  0  0  0  0  0  0  0  0
   -3.8890   22.4100  -28.7860 C   0  0  0  0  0  0  0  0  0  0  0  0
   -3.0000   21.3020  -29.3740 C   0  0  0  0  0  0  0  0  0  0  0  0
   -1.7860   19.0550  -26.8000 C   0  0  0  0  0  0  0  0  0  0  0  0
   -1.2410   17.8250  -26.7630 N   0  0  0  0  0  0  0  0  0  0  0  0
    1.0779   16.3608  -26.5618 H   0  0  0  0  0  0  0  0  0  0  0  0
    0.3042   15.8896  -28.1130 H   0  0  0  0  0  0  0  0  0  0  0  0
    1.7030   17.0165  -28.1130 H   0  0  0  0  0  0  0  0  0  0  0  0
    0.9669   19.4007  -28.5337 H   0  0  0  0  0  0  0  0  0  0  0  0
   -1.9053   21.7418  -27.1448 H   0  0  0  0  0  0  0  0  0  0  0  0
   -0.1763   21.8529  -27.6438 H   0  0  0  0  0  0  0  0  0  0  0  0
    0.0156   22.6886  -30.0557 H   0  0  0  0  0  0  0  0  0  0  0  0
   -1.6913   23.0983  -30.6044 H   0  0  0  0  0  0  0  0  0  0  0  0
   -0.6924   23.7098  -27.8112 H   0  0  0  0  0  0  0  0  0  0  0  0
   -0.4955   24.8483  -29.2094 H   0  0  0  0  0  0  0  0  0  0  0  0
   -2.7792   24.4998  -27.5194 H   0  0  0  0  0  0  0  0  0  0  0  0
   -2.5880   25.5657  -28.9696 H   0  0  0  0  0  0  0  0  0  0  0  0
   -7.0893   24.6300  -29.8160 H   0  0  0  0  0  0  0  0  0  0  0  0
   -8.7845   23.0968  -31.0668 H   0  0  0  0  0  0  0  0  0  0  0  0
   -7.6214   21.4178  -32.7316 H   0  0  0  0  0  0  0  0  0  0  0  0
   -3.7791   22.4237  -27.6916 H   0  0  0  0  0  0  0  0  0  0  0  0
   -4.9380   22.2123  -29.0515 H   0  0  0  0  0  0  0  0  0  0  0  0
   -3.2451   20.3565  -28.8681 H   0  0  0  0  0  0  0  0  0  0  0  0
   -3.2044   21.2688  -30.4543 H   0  0  0  0  0  0  0  0  0  0  0  0
   -2.7303   19.3559  -26.3228 H   0  0  0  0  0  0  0  0  0  0  0  0
   -1.6260   16.9950  -26.2600 H   0  0  0  0  0  0  0  0  0  0  0  0
  1  2  1  0
  2  3  1  0
  3  4  2  0
  4  5  1  0
  5  6  1  0
  6  7  1  0
  7  8  1  0
  8  9  1  0
  9 10  1  0
 10 11  1  0
 11 12  2  0
 11 13  1  0
 13 14  2  0
 14 15  1  0
 15 16  2  0
 16 17  1  0
 10 18  1  0
 18 19  1  0
  4 20  1  0
 20 21  2  0
 21  2  1  0
 19  6  1  0
 17 13  1  0
  1 22  1  0
  1 23  1  0
  1 24  1  0
  3 25  1  0
  5 26  1  0
  5 27  1  0
  7 28  1  0
  7 29  1  0
  8 30  1  0
  8 31  1  0
  9 32  1  0
  9 33  1  0
 14 34  1  0
 15 35  1  0
 16 36  1  0
 18 37  1  0
 18 38  1  0
 19 39  1  0
 19 40  1  0
 20 41  1  0
 21 42  1  0
M  CHG  1  21   1
M  END
>  <UniqueID>  (45) 
44

>  <SMILES>  (45) 
Cn1cc(CN2CCCN(C(=O)c3cccs3)CC2)c[nH+]1

>  <Energy>  (45) 
110.45715504374637

>  <Genealogy>  (45) 
Cn1cc(CN2CCCN(C(=O)c3cccs3)CC2)c[nH+]1 (protonated)
Cn1cc(CN2CCCN(C(=O)c3cccs3)CC2)c[nH+]1 (3D coordinates assigned)
Cn1cc(CN2CCCN(C(=O)c3cccs3)CC2)c[nH+]1 (nonaromatic ring conformer: 110.45715504374637 kcal/mol)

>  <smiles>  (45) 
Cn1cc(CN2CCCN(C(=O)c3cccs3)CC2)cn1

>  <score_type>  (45) 
oracle

>  <origin>  (45) 
adg

>  <m_score__min__energy>  (45) 
-5.4100000000000001

>  <m_primary>  (45) 
energy

$$$$
45:0
     RDKit          3D

 57 61  0  0  1  0  0  0  0  0999 V2000
    1.1880   24.1790  -27.6820 C   0  0  0  0  0  0  0  0  0  0  0  0
    0.1780   25.0130  -28.2130 O   0  0  0  0  0  0  0  0  0  0  0  0
   -1.0120   25.1100  -27.4810 C   0  0  0  0  0  0  0  0  0  0  0  0
   -1.0760   25.7980  -26.2930 C   0  0  0  0  0  0  0  0  0  0  0  0
   -2.2770   25.8500  -25.6370 C   0  0  0  0  0  0  0  0  0  0  0  0
   -3.4390   25.2640  -26.0680 C   0  0  0  0  0  0  0  0  0  0  0  0
   -3.3740   24.5700  -27.2660 C   0  0  0  0  0  0  0  0  0  0  0  0
   -2.1920   24.5200  -27.9150 C   0  0  0  0  0  0  0  0  0  0  0  0
   -2.0200   23.7970  -29.2720 C   0  0  0  0  0  0  0  0  0  0  0  0
   -3.0230   24.4520  -30.0120 N   0  0  0  0  0  0  0  0  0  0  0  0
   -4.2060   24.1740  -30.2320 C   0  0  0  0  0  0  0  0  0  0  0  0
   -5.1600   25.0050  -29.8100 N   0  0  0  0  0  0  0  0  0  0  0  0
   -6.4680   24.7500  -29.9040 C   0  0  0  0  0  0  0  0  0  0  0  0
   -6.8260   23.5830  -30.4580 N   0  0  0  0  0  0  0  0  0  0  0  0
   -5.8980   22.7220  -30.8990 C   0  0  0  0  0  0  0  0  0  0  0  0
   -4.5180   22.9820  -30.8100 C   0  0  0  0  0  0  0  0  0  0  0  0
   -3.8280   21.9910  -31.3390 C   0  0  0  0  0  0  0  0  0  0  0  0
   -2.5220   21.5480  -31.7640 C   0  0  0  0  0  0  0  0  0  0  0  0
   -2.1280   21.5200  -33.0880 C   0  0  0  0  0  0  0  0  0  0  0  0
   -0.8610   21.2370  -33.5190 C   0  0  0  0  0  0  0  0  0  0  0  0
    0.0960   20.9570  -32.5780 C   0  0  0  0  0  0  0  0  0  0  0  0
   -0.2150   20.9640  -31.2430 C   0  0  0  0  0  0  0  0  0  0  0  0
   -1.4920   21.2520  -30.8440 C   0  0  0  0  0  0  0  0  0  0  0  0
   -4.8560   21.0760  -31.7580 C   0  0  0  0  0  0  0  0  0  0  0  0
   -6.0560   21.5450  -31.4810 N   0  0  0  0  0  0  0  0  0  0  0  0
   -7.3180   20.8950  -31.7620 C   0  0  2  0  0  0  0  0  0  0  0  0
   -7.1500   19.7600  -32.7690 C   0  0  0  0  0  0  0  0  0  0  0  0
   -8.4000   18.9070  -32.5740 C   0  0  0  0  0  0  0  0  0  0  0  0
   -9.6330   19.7530  -32.6190 C   0  0  0  0  0  0  0  0  0  0  0  0
   -9.5030   21.1350  -32.0910 C   0  0  0  0  0  0  0  0  0  0  0  0
   -8.2630   21.7370  -32.2870 O   0  0  0  0  0  0  0  0  0  0  0  0
    1.1496   24.2107  -26.5831 H   0  0  0  0  0  0  0  0  0  0  0  0
    1.0284   23.1460  -28.0248 H   0  0  0  0  0  0  0  0  0  0  0  0
    2.1721   24.5311  -28.0248 H   0  0  0  0  0  0  0  0  0  0  0  0
   -0.1855   26.2941  -25.8797 H   0  0  0  0  0  0  0  0  0  0  0  0
   -2.3121   26.4063  -24.6887 H   0  0  0  0  0  0  0  0  0  0  0  0
   -4.3738   25.3406  -25.4933 H   0  0  0  0  0  0  0  0  0  0  0  0
   -4.2643   24.0721  -27.6777 H   0  0  0  0  0  0  0  0  0  0  0  0
   -1.0203   23.9610  -29.7007 H   0  0  0  0  0  0  0  0  0  0  0  0
   -2.1064   22.7011  -29.2333 H   0  0  0  0  0  0  0  0  0  0  0  0
   -4.8710   25.8990  -29.3860 H   0  0  0  0  0  0  0  0  0  0  0  0
   -7.2194   25.4673  -29.5421 H   0  0  0  0  0  0  0  0  0  0  0  0
   -2.8886   21.7414  -33.8511 H   0  0  0  0  0  0  0  0  0  0  0  0
   -0.6166   21.2341  -34.5915 H   0  0  0  0  0  0  0  0  0  0  0  0
    1.1227   20.7246  -32.8972 H   0  0  0  0  0  0  0  0  0  0  0  0
    0.5593   20.7389  -30.4949 H   0  0  0  0  0  0  0  0  0  0  0  0
   -1.7245   21.2530  -29.7688 H   0  0  0  0  0  0  0  0  0  0  0  0
   -4.6650   20.1092  -32.2467 H   0  0  0  0  0  0  0  0  0  0  0  0
   -7.6556   20.5254  -30.7825 H   0  0  0  0  0  0  0  0  0  0  0  0
   -7.1001   20.1520  -33.7956 H   0  0  0  0  0  0  0  0  0  0  0  0
   -6.2208   19.1915  -32.6157 H   0  0  0  0  0  0  0  0  0  0  0  0
   -8.4505   18.1532  -33.3735 H   0  0  0  0  0  0  0  0  0  0  0  0
   -8.3434   18.4185  -31.5901 H   0  0  0  0  0  0  0  0  0  0  0  0
   -9.9523   19.8242  -33.6692 H   0  0  0  0  0  0  0  0  0  0  0  0
  -10.3556   19.2532  -31.9572 H   0  0  0  0  0  0  0  0  0  0  0  0
  -10.2641   21.7587  -32.5827 H   0  0  0  0  0  0  0  0  0  0  0  0
   -9.6314   21.0555  -31.0014 H   0  0  0  0  0  0  0  0  0  0  0  0
  1  2  1  0
  2  3  1  0
  3  4  2  0
  4  5  1  0
  5  6  2  0
  6  7  1  0
  7  8  2  0
  8  9  1  0
  9 10  1  0
 10 11  2  0
 11 12  1  0
 12 13  1  0
 13 14  2  0
 14 15  1  0
 15 16  2  0
 16 17  1  0
 17 18  1  0
 18 19  2  0
 19 20  1  0
 20 21  2  0
 21 22  1  0
 22 23  2  0
 17 24  2  0
 24 25  1  0
 25 26  1  0
 26 27  1  0
 27 28  1  0
 28 29  1  0
 29 30  1  0
 30 31  1  0
  8  3  1  0
 16 11  1  0
 23 18  1  0
 31 26  1  0
 25 15  1  0
  1 32  1  0
  1 33  1  0
  1 34  1  0
  4 35  1  0
  5 36  1  0
  6 37  1  0
  7 38  1  0
  9 39  1  0
  9 40  1  0
 12 41  1  0
 13 42  1  0
 19 43  1  0
 20 44  1  0
 21 45  1  0
 22 46  1  0
 23 47  1  0
 24 48  1  0
 26 49  1  1
 27 50  1  0
 27 51  1  0
 28 52  1  0
 28 53  1  0
 29 54  1  0
 29 55  1  0
 30 56  1  0
 30 57  1  0
M  END
>  <smiles>  (46) 
COc1ccccc1CN=c1[nH]cnc2c1c(-c1ccccc1)cn2C1CCCCO1

>  <score_type>  (46) 
oracle

>  <origin>  (46) 
adg

>  <m_score__min__energy>  (46) 
-10.109999999999999

>  <m_primary>  (46) 
energy

$$$$
46:0
     RDKit          3D

 56 60  0  0  0  0  0  0  0  0999 V2000
   -5.7570   17.7720  -34.1590 C   0  0  0  0  0  0  0  0  0  0  0  0
   -5.5020   18.9000  -33.2600 N   0  0  0  0  0  0  0  0  0  0  0  0
   -6.3750   19.4780  -32.3920 C   0  0  0  0  0  0  0  0  0  0  0  0
   -7.7710   18.9910  -32.1210 C   0  0  0  0  0  0  0  0  0  0  0  0
   -8.7430   19.6560  -33.0020 N   0  0  0  0  0  0  0  0  0  0  0  0
   -9.5740   20.6500  -32.3010 C   0  0  0  0  0  0  0  0  0  0  0  0
   -8.7490   21.6060  -31.4900 C   0  0  0  0  0  0  0  0  0  0  0  0
   -8.0640   22.7040  -31.9620 C   0  0  0  0  0  0  0  0  0  0  0  0
   -7.5510   23.3100  -30.8780 N   0  0  0  0  0  0  0  0  0  0  0  0
   -6.8270   24.5760  -30.8530 C   0  0  0  0  0  0  0  0  0  0  0  0
   -5.4300   24.3520  -30.3600 C   0  0  0  0  0  0  0  0  0  0  0  0
   -4.4860   25.0270  -30.8530 O   0  0  0  0  0  0  0  0  0  0  0  0
   -5.1930   23.4430  -29.2740 N   0  0  0  0  0  0  0  0  0  0  0  0
   -3.8860   23.1160  -28.7730 C   0  0  0  0  0  0  0  0  0  0  0  0
   -3.0500   24.1010  -28.2190 C   0  0  0  0  0  0  0  0  0  0  0  0
   -1.7740   23.7700  -27.7550 C   0  0  0  0  0  0  0  0  0  0  0  0
   -1.3100   22.4500  -27.8480 C   0  0  0  0  0  0  0  0  0  0  0  0
   -0.0310   22.1070  -27.3820 C   0  0  0  0  0  0  0  0  0  0  0  0
    0.4200   20.7870  -27.4840 C   0  0  0  0  0  0  0  0  0  0  0  0
   -0.3960   19.8050  -28.0500 C   0  0  0  0  0  0  0  0  0  0  0  0
   -1.6720   20.1360  -28.5200 C   0  0  0  0  0  0  0  0  0  0  0  0
   -2.1380   21.4560  -28.4220 C   0  0  0  0  0  0  0  0  0  0  0  0
   -3.4160   21.8000  -28.8880 C   0  0  0  0  0  0  0  0  0  0  0  0
   -7.9110   22.6290  -29.8020 N   0  0  0  0  0  0  0  0  0  0  0  0
   -8.6420   21.5790  -30.1460 N   0  0  0  0  0  0  0  0  0  0  0  0
   -5.7970   20.5820  -31.7700 C   0  0  0  0  0  0  0  0  0  0  0  0
   -4.5320   20.6760  -32.3070 C   0  0  0  0  0  0  0  0  0  0  0  0
   -3.5200   21.6040  -32.0690 C   0  0  0  0  0  0  0  0  0  0  0  0
   -2.3210   21.4680  -32.7920 C   0  0  0  0  0  0  0  0  0  0  0  0
   -2.1650   20.4220  -33.7280 C   0  0  0  0  0  0  0  0  0  0  0  0
   -3.2050   19.5010  -33.9480 C   0  0  0  0  0  0  0  0  0  0  0  0
   -4.3840   19.6530  -33.2110 C   0  0  0  0  0  0  0  0  0  0  0  0
   -5.9612   16.8688  -33.5652 H   0  0  0  0  0  0  0  0  0  0  0  0
   -6.6267   17.9981  -34.7934 H   0  0  0  0  0  0  0  0  0  0  0  0
   -4.8746   17.6020  -34.7934 H   0  0  0  0  0  0  0  0  0  0  0  0
   -7.8129   17.9055  -32.2940 H   0  0  0  0  0  0  0  0  0  0  0  0
   -8.0270   19.2258  -31.0773 H   0  0  0  0  0  0  0  0  0  0  0  0
   -8.2180   20.1370  -33.7690 H   0  0  0  0  0  0  0  0  0  0  0  0
  -10.1480   21.2207  -33.0458 H   0  0  0  0  0  0  0  0  0  0  0  0
  -10.2396   20.1091  -31.6122 H   0  0  0  0  0  0  0  0  0  0  0  0
   -7.9587   23.0197  -33.0105 H   0  0  0  0  0  0  0  0  0  0  0  0
   -6.7927   24.9972  -31.8686 H   0  0  0  0  0  0  0  0  0  0  0  0
   -7.3423   25.2759  -30.1787 H   0  0  0  0  0  0  0  0  0  0  0  0
   -6.0220   23.0960  -28.7400 H   0  0  0  0  0  0  0  0  0  0  0  0
   -3.4030   25.1406  -28.1502 H   0  0  0  0  0  0  0  0  0  0  0  0
   -1.1317   24.5473  -27.3155 H   0  0  0  0  0  0  0  0  0  0  0  0
    0.6166   22.8765  -26.9365 H   0  0  0  0  0  0  0  0  0  0  0  0
    1.4222   20.5210  -27.1167 H   0  0  0  0  0  0  0  0  0  0  0  0
   -0.0349   18.7688  -28.1266 H   0  0  0  0  0  0  0  0  0  0  0  0
   -2.3108   19.3600  -28.9670 H   0  0  0  0  0  0  0  0  0  0  0  0
   -4.0544   21.0309  -29.3473 H   0  0  0  0  0  0  0  0  0  0  0  0
   -6.2525   21.2375  -31.0131 H   0  0  0  0  0  0  0  0  0  0  0  0
   -3.6544   22.4163  -31.3396 H   0  0  0  0  0  0  0  0  0  0  0  0
   -1.4997   22.1809  -32.6273 H   0  0  0  0  0  0  0  0  0  0  0  0
   -1.2235   20.3269  -34.2889 H   0  0  0  0  0  0  0  0  0  0  0  0
   -3.0944   18.6855  -34.6779 H   0  0  0  0  0  0  0  0  0  0  0  0
  1  2  1  0
  2  3  1  0
  3  4  1  0
  4  5  1  0
  5  6  1  0
  6  7  1  0
  7  8  2  0
  8  9  1  0
  9 10  1  0
 10 11  1  0
 11 12  2  0
 11 13  1  0
 13 14  1  0
 14 15  2  0
 15 16  1  0
 16 17  2  0
 17 18  1  0
 18 19  2  0
 19 20  1  0
 20 21  2  0
 21 22  1  0
 22 23  2  0
  9 24  1  0
 24 25  2  0
  3 26  2  0
 26 27  1  0
 27 28  2  0
 28 29  1  0
 29 30  2  0
 30 31  1  0
 31 32  2  0
 32  2  1  0
 25  7  1  0
 32 27  1  0
 23 14  1  0
 22 17  1  0
  1 33  1  0
  1 34  1  0
  1 35  1  0
  4 36  1  0
  4 37  1  0
  5 38  1  0
  6 39  1  0
  6 40  1  0
  8 41  1  0
 10 42  1  0
 10 43  1  0
 13 44  1  0
 15 45  1  0
 16 46  1  0
 18 47  1  0
 19 48  1  0
 20 49  1  0
 21 50  1  0
 23 51  1  0
 26 52  1  0
 28 53  1  0
 29 54  1  0
 30 55  1  0
 31 56  1  0
M  END
>  <UniqueID>  (47) 
45

>  <SMILES>  (47) 
Cn1c(CNCc2cn(CC(=O)Nc3ccc4ccccc4c3)nn2)cc2ccccc21

>  <Energy>  (47) 
132.67981329144956

>  <Genealogy>  (47) 
Cn1c(CNCc2cn(CC(=O)Nc3ccc4ccccc4c3)nn2)cc2ccccc21 (3D coordinates assigned)
Cn1c(CNCc2cn(CC(=O)Nc3ccc4ccccc4c3)nn2)cc2ccccc21 (optimized conformer: 132.67981329144956 kcal/mol)

>  <smiles>  (47) 
Cn1c(CNCc2cn(CC(=O)Nc3ccc4ccccc4c3)nn2)cc2ccccc21

>  <score_type>  (47) 
oracle

>  <origin>  (47) 
adg

>  <m_score__min__energy>  (47) 
-11.23

>  <m_primary>  (47) 
energy

$$$$
