0:0
     RDKit          3D

 75 77  0  0  0  0  0  0  0  0999 V2000
    3.2930   20.4370  -34.5510 C   0  0  0  0  0  0  0  0  0  0  0  0
    3.0860   21.4450  -35.6770 C   0  0  0  0  0  0  0  0  0  0  0  0
    1.7490   21.3790  -36.1720 O   0  0  0  0  0  0  0  0  0  0  0  0
    0.6260   21.7560  -35.4240 C   0  0  0  0  0  0  0  0  0  0  0  0
    0.2950   22.9710  -35.3450 O   0  0  0  0  0  0  0  0  0  0  0  0
   -0.1510   20.7520  -34.7480 N   0  0  0  0  0  0  0  0  0  0  0  0
    0.1410   19.3320  -34.9650 C   0  0  0  0  0  0  0  0  0  0  0  0
   -1.0900   18.4810  -34.6320 C   0  0  0  0  0  0  0  0  0  0  0  0
   -1.5690   18.6950  -33.2430 N   0  0  0  0  0  0  0  0  0  0  0  0
   -2.9710   18.2440  -33.0790 C   0  0  0  0  0  0  0  0  0  0  0  0
   -3.6930   18.0900  -34.4300 C   0  0  0  0  0  0  0  0  0  0  0  0
   -5.1620   18.5390  -34.3700 C   0  0  0  0  0  0  0  0  0  0  0  0
   -5.5060   19.0140  -33.0680 O   0  0  0  0  0  0  0  0  0  0  0  0
   -5.6290   20.3640  -32.6930 C   0  0  0  0  0  0  0  0  0  0  0  0
   -4.5260   21.2290  -32.6920 C   0  0  0  0  0  0  0  0  0  0  0  0
   -4.6700   22.5630  -32.3200 C   0  0  0  0  0  0  0  0  0  0  0  0
   -5.9130   23.0770  -31.9250 C   0  0  0  0  0  0  0  0  0  0  0  0
   -5.9870   24.5460  -31.5510 C   0  0  0  0  0  0  0  0  0  0  0  0
   -5.2710   24.8220  -30.2270 C   0  0  0  0  0  0  0  0  0  0  0  0
   -3.9120   25.1200  -30.4760 O   0  0  0  0  0  0  0  0  0  0  0  0
   -3.1060   24.4770  -29.5110 C   0  0  0  0  0  0  0  0  0  0  0  0
   -3.7970   23.1940  -29.0500 C   0  0  0  0  0  0  0  0  0  0  0  0
   -3.1110   22.0100  -29.6140 N   0  0  0  0  0  0  0  0  0  0  0  0
   -2.7980   21.0440  -28.5460 C   0  0  0  0  0  0  0  0  0  0  0  0
   -1.8890   22.3770  -30.3670 C   0  0  0  0  0  0  0  0  0  0  0  0
   -0.6870   21.6360  -29.7860 C   0  0  0  0  0  0  0  0  0  0  0  0
   -7.0480   22.2210  -31.9280 C   0  0  0  0  0  0  0  0  0  0  0  0
   -8.3320   22.6760  -31.5520 C   0  0  0  0  0  0  0  0  0  0  0  0
   -9.4250   21.8100  -31.5540 C   0  0  0  0  0  0  0  0  0  0  0  0
   -9.2670   20.4790  -31.9280 C   0  0  0  0  0  0  0  0  0  0  0  0
   -8.0140   20.0020  -32.3060 C   0  0  0  0  0  0  0  0  0  0  0  0
   -6.8950   20.8580  -32.3170 C   0  0  0  0  0  0  0  0  0  0  0  0
   -1.3720   20.0770  -32.7280 C   0  0  0  0  0  0  0  0  0  0  0  0
   -1.2370   21.1280  -33.8370 C   0  0  0  0  0  0  0  0  0  0  0  0
    3.1888   20.9446  -33.5807 H   0  0  0  0  0  0  0  0  0  0  0  0
    2.5400   19.6391  -34.6301 H   0  0  0  0  0  0  0  0  0  0  0  0
    4.2995   20.0004  -34.6301 H   0  0  0  0  0  0  0  0  0  0  0  0
    3.2804   22.4582  -35.2952 H   0  0  0  0  0  0  0  0  0  0  0  0
    3.7795   21.2073  -36.4971 H   0  0  0  0  0  0  0  0  0  0  0  0
    0.4173   19.1747  -36.0181 H   0  0  0  0  0  0  0  0  0  0  0  0
    0.9722   19.0324  -34.3097 H   0  0  0  0  0  0  0  0  0  0  0  0
   -1.8996   18.7435  -35.3289 H   0  0  0  0  0  0  0  0  0  0  0  0
   -0.8018   17.4237  -34.7275 H   0  0  0  0  0  0  0  0  0  0  0  0
   -2.9728   17.2723  -32.5634 H   0  0  0  0  0  0  0  0  0  0  0  0
   -3.5057   19.0075  -32.4949 H   0  0  0  0  0  0  0  0  0  0  0  0
   -3.1688   18.6993  -35.1810 H   0  0  0  0  0  0  0  0  0  0  0  0
   -3.6816   17.0222  -34.6939 H   0  0  0  0  0  0  0  0  0  0  0  0
   -5.3199   19.3469  -35.0996 H   0  0  0  0  0  0  0  0  0  0  0  0
   -5.7996   17.6737  -34.6039 H   0  0  0  0  0  0  0  0  0  0  0  0
   -3.5367   20.8501  -32.9881 H   0  0  0  0  0  0  0  0  0  0  0  0
   -3.7923   23.2258  -32.3364 H   0  0  0  0  0  0  0  0  0  0  0  0
   -5.5131   25.1418  -32.3451 H   0  0  0  0  0  0  0  0  0  0  0  0
   -7.0458   24.8209  -31.4358 H   0  0  0  0  0  0  0  0  0  0  0  0
   -5.7471   25.6769  -29.7246 H   0  0  0  0  0  0  0  0  0  0  0  0
   -5.3379   23.9326  -29.5832 H   0  0  0  0  0  0  0  0  0  0  0  0
   -2.1296   24.2300  -29.9533 H   0  0  0  0  0  0  0  0  0  0  0  0
   -2.9575   25.1455  -28.6501 H   0  0  0  0  0  0  0  0  0  0  0  0
   -3.7684   23.1410  -27.9516 H   0  0  0  0  0  0  0  0  0  0  0  0
   -4.8399   23.2037  -29.3998 H   0  0  0  0  0  0  0  0  0  0  0  0
   -2.9518   21.5187  -27.5657 H   0  0  0  0  0  0  0  0  0  0  0  0
   -3.4587   20.1693  -28.6376 H   0  0  0  0  0  0  0  0  0  0  0  0
   -1.7499   20.7230  -28.6376 H   0  0  0  0  0  0  0  0  0  0  0  0
   -2.0136   22.1001  -31.4243 H   0  0  0  0  0  0  0  0  0  0  0  0
   -1.7229   23.4615  -30.2873 H   0  0  0  0  0  0  0  0  0  0  0  0
   -0.7343   21.6651  -28.6874 H   0  0  0  0  0  0  0  0  0  0  0  0
   -0.7017   20.5900  -30.1260 H   0  0  0  0  0  0  0  0  0  0  0  0
    0.2409   22.1191  -30.1260 H   0  0  0  0  0  0  0  0  0  0  0  0
   -8.4709   23.7258  -31.2542 H   0  0  0  0  0  0  0  0  0  0  0  0
  -10.4174   22.1810  -31.2583 H   0  0  0  0  0  0  0  0  0  0  0  0
  -10.1338   19.8018  -31.9251 H   0  0  0  0  0  0  0  0  0  0  0  0
   -7.8972   18.9480  -32.5984 H   0  0  0  0  0  0  0  0  0  0  0  0
   -2.2359   20.3415  -32.1005 H   0  0  0  0  0  0  0  0  0  0  0  0
   -0.4292   20.0806  -32.1614 H   0  0  0  0  0  0  0  0  0  0  0  0
   -2.1806   21.1891  -34.3991 H   0  0  0  0  0  0  0  0  0  0  0  0
   -1.0106   22.1053  -33.3857 H   0  0  0  0  0  0  0  0  0  0  0  0
  1  2  1  0
  2  3  1  0
  3  4  1  0
  4  5  2  0
  4  6  1  0
  6  7  1  0
  7  8  1  0
  8  9  1  0
  9 10  1  0
 10 11  1  0
 11 12  1  0
 12 13  1  0
 13 14  1  0
 14 15  2  0
 15 16  1  0
 16 17  2  0
 17 18  1  0
 18 19  1  0
 19 20  1  0
 20 21  1  0
 21 22  1  0
 22 23  1  0
 23 24  1  0
 23 25  1  0
 25 26  1  0
 17 27  1  0
 27 28  2  0
 28 29  1  0
 29 30  2  0
 30 31  1  0
 31 32  2  0
  9 33  1  0
 33 34  1  0
 34  6  1  0
 32 14  1  0
 32 27  1  0
  1 35  1  0
  1 36  1  0
  1 37  1  0
  2 38  1  0
  2 39  1  0
  7 40  1  0
  7 41  1  0
  8 42  1  0
  8 43  1  0
 10 44  1  0
 10 45  1  0
 11 46  1  0
 11 47  1  0
 12 48  1  0
 12 49  1  0
 15 50  1  0
 16 51  1  0
 18 52  1  0
 18 53  1  0
 19 54  1  0
 19 55  1  0
 21 56  1  0
 21 57  1  0
 22 58  1  0
 22 59  1  0
 24 60  1  0
 24 61  1  0
 24 62  1  0
 25 63  1  0
 25 64  1  0
 26 65  1  0
 26 66  1  0
 26 67  1  0
 28 68  1  0
 29 69  1  0
 30 70  1  0
 31 71  1  0
 33 72  1  0
 33 73  1  0
 34 74  1  0
 34 75  1  0
M  END
>  <UniqueID>  (1) 
1

>  <SMILES>  (1) 
CCOC(=O)N1CCN(CCCOc2ccc(CCOCCN(C)CC)c3ccccc23)CC1

>  <Energy>  (1) 
78.85532422030207

>  <Genealogy>  (1) 
CCOC(=O)N1CCN(CCCOc2ccc(CCOCCN(C)CC)c3ccccc23)CC1 (3D coordinates assigned)
CCOC(=O)N1CCN(CCCOc2ccc(CCOCCN(C)CC)c3ccccc23)CC1 (nonaromatic ring conformer: 78.85532422030207 kcal/mol)

>  <smiles>  (1) 
CCOC(=O)N1CCN(CCCOc2ccc(CCOCCN(C)CC)c3ccccc23)CC1

>  <score_type>  (1) 
oracle

>  <origin>  (1) 
adg

>  <m_score__min__energy>  (1) 
-9.3599999999999994

>  <m_primary>  (1) 
energy

$$$$
1:0
     RDKit          3D

 56 58  0  0  0  0  0  0  0  0999 V2000
   -4.5720   13.3840  -31.2210 C   0  0  0  0  0  0  0  0  0  0  0  0
   -4.6980   13.0630  -32.7150 C   0  0  0  0  0  0  0  0  0  0  0  0
   -5.3820   14.1370  -33.4810 N   0  0  2  0  0  0  0  0  0  0  0  0
   -6.4020   13.5580  -34.3800 C   0  0  0  0  0  0  0  0  0  0  0  0
   -4.4000   14.9310  -34.2740 C   0  0  0  0  0  0  0  0  0  0  0  0
   -4.7940   16.4160  -34.3940 C   0  0  0  0  0  0  0  0  0  0  0  0
   -5.8880   16.7520  -33.5400 O   0  0  0  0  0  0  0  0  0  0  0  0
   -6.3130   18.0550  -33.2250 C   0  0  0  0  0  0  0  0  0  0  0  0
   -5.5680   19.1240  -33.7240 C   0  0  0  0  0  0  0  0  0  0  0  0
   -5.9460   20.4420  -33.4630 C   0  0  0  0  0  0  0  0  0  0  0  0
   -7.0770   20.7250  -32.6730 C   0  0  0  0  0  0  0  0  0  0  0  0
   -7.8570   19.6440  -32.2040 C   0  0  0  0  0  0  0  0  0  0  0  0
   -7.4560   18.3210  -32.4530 C   0  0  0  0  0  0  0  0  0  0  0  0
   -9.1120   19.9060  -31.4200 C   0  0  0  0  0  0  0  0  0  0  0  0
   -9.7670   21.1980  -31.8990 C   0  0  0  0  0  0  0  0  0  0  0  0
   -8.7920   22.3660  -31.7480 C   0  0  0  0  0  0  0  0  0  0  0  0
   -7.4840   22.0920  -32.3770 N   0  0  0  0  0  0  0  0  0  0  0  0
   -6.5430   23.2230  -32.4760 C   0  0  0  0  0  0  0  0  0  0  0  0
   -5.8590   23.4730  -31.1550 C   0  0  0  0  0  0  0  0  0  0  0  0
   -6.0740   24.6830  -30.4690 C   0  0  0  0  0  0  0  0  0  0  0  0
   -5.4490   24.9210  -29.2420 C   0  0  0  0  0  0  0  0  0  0  0  0
   -4.5950   23.9600  -28.6840 C   0  0  0  0  0  0  0  0  0  0  0  0
   -3.9450   24.2200  -27.3570 C   0  0  0  0  0  0  0  0  0  0  0  0
   -4.3840   22.7490  -29.3610 C   0  0  0  0  0  0  0  0  0  0  0  0
   -5.0030   22.5120  -30.5920 C   0  0  0  0  0  0  0  0  0  0  0  0
   -4.9111   12.5201  -30.6305 H   0  0  0  0  0  0  0  0  0  0  0  0
   -3.5212   13.6029  -30.9803 H   0  0  0  0  0  0  0  0  0  0  0  0
   -5.1933   14.2593  -30.9803 H   0  0  0  0  0  0  0  0  0  0  0  0
   -3.6891   12.9235  -33.1304 H   0  0  0  0  0  0  0  0  0  0  0  0
   -5.3078   12.1521  -32.8069 H   0  0  0  0  0  0  0  0  0  0  0  0
   -5.8850   14.7700  -32.8120 H   0  0  0  0  0  0  0  0  0  0  0  0
   -7.2038   13.1029  -33.7799 H   0  0  0  0  0  0  0  0  0  0  0  0
   -6.8241   14.3511  -35.0146 H   0  0  0  0  0  0  0  0  0  0  0  0
   -5.9374   12.7890  -35.0146 H   0  0  0  0  0  0  0  0  0  0  0  0
   -3.4174   14.8662  -33.7838 H   0  0  0  0  0  0  0  0  0  0  0  0
   -4.3763   14.5105  -35.2902 H   0  0  0  0  0  0  0  0  0  0  0  0
   -3.9274   17.0361  -34.1210 H   0  0  0  0  0  0  0  0  0  0  0  0
   -5.1057   16.6010  -35.4326 H   0  0  0  0  0  0  0  0  0  0  0  0
   -4.6719   18.9257  -34.3304 H   0  0  0  0  0  0  0  0  0  0  0  0
   -5.3533   21.2698  -33.8794 H   0  0  0  0  0  0  0  0  0  0  0  0
   -8.0418   17.4865  -32.0401 H   0  0  0  0  0  0  0  0  0  0  0  0
   -9.8114   19.0689  -31.5617 H   0  0  0  0  0  0  0  0  0  0  0  0
   -8.8579   20.0038  -30.3542 H   0  0  0  0  0  0  0  0  0  0  0  0
  -10.0486   21.0931  -32.9572 H   0  0  0  0  0  0  0  0  0  0  0  0
  -10.6631   21.3950  -31.2922 H   0  0  0  0  0  0  0  0  0  0  0  0
   -9.2317   23.2567  -32.2206 H   0  0  0  0  0  0  0  0  0  0  0  0
   -8.6209   22.5234  -30.6729 H   0  0  0  0  0  0  0  0  0  0  0  0
   -5.7828   22.9931  -33.2371 H   0  0  0  0  0  0  0  0  0  0  0  0
   -7.1069   24.1252  -32.7555 H   0  0  0  0  0  0  0  0  0  0  0  0
   -6.7380   25.4460  -30.9013 H   0  0  0  0  0  0  0  0  0  0  0  0
   -5.6283   25.8677  -28.7113 H   0  0  0  0  0  0  0  0  0  0  0  0
   -4.6378   23.9429  -26.5488 H   0  0  0  0  0  0  0  0  0  0  0  0
   -3.0268   23.6200  -27.2747 H   0  0  0  0  0  0  0  0  0  0  0  0
   -3.6939   25.2878  -27.2747 H   0  0  0  0  0  0  0  0  0  0  0  0
   -3.7287   21.9828  -28.9212 H   0  0  0  0  0  0  0  0  0  0  0  0
   -4.8185   21.5666  -31.1232 H   0  0  0  0  0  0  0  0  0  0  0  0
  1  2  1  0
  2  3  1  0
  3  4  1  0
  3  5  1  0
  5  6  1  0
  6  7  1  0
  7  8  1  0
  8  9  2  0
  9 10  1  0
 10 11  2  0
 11 12  1  0
 12 13  2  0
 12 14  1  0
 14 15  1  0
 15 16  1  0
 16 17  1  0
 17 18  1  0
 18 19  1  0
 19 20  2  0
 20 21  1  0
 21 22  2  0
 22 23  1  0
 22 24  1  0
 24 25  2  0
 13  8  1  0
 25 19  1  0
 17 11  1  0
  1 26  1  0
  1 27  1  0
  1 28  1  0
  2 29  1  0
  2 30  1  0
  3 31  1  1
  4 32  1  0
  4 33  1  0
  4 34  1  0
  5 35  1  0
  5 36  1  0
  6 37  1  0
  6 38  1  0
  9 39  1  0
 10 40  1  0
 13 41  1  0
 14 42  1  0
 14 43  1  0
 15 44  1  0
 15 45  1  0
 16 46  1  0
 16 47  1  0
 18 48  1  0
 18 49  1  0
 20 50  1  0
 21 51  1  0
 23 52  1  0
 23 53  1  0
 23 54  1  0
 24 55  1  0
 25 56  1  0
M  CHG  1   3   1
M  END
>  <UniqueID>  (2) 
2

>  <SMILES>  (2) 
CC[N@H+](C)CCOc1ccc2c(c1)CCCN2Cc1ccc(C)cc1

>  <Energy>  (2) 
59.05933650788964

>  <Genealogy>  (2) 
CC[NH+](C)CCOc1ccc2c(c1)CCCN2Cc1ccc(C)cc1 (protonated)
CC[N@H+](C)CCOc1ccc2c(c1)CCCN2Cc1ccc(C)cc1 (chirality)
CC[N@H+](C)CCOc1ccc2c(c1)CCCN2Cc1ccc(C)cc1 (3D coordinates assigned)
CC[N@H+](C)CCOc1ccc2c(c1)CCCN2Cc1ccc(C)cc1 (nonaromatic ring conformer: 59.05933650788964 kcal/mol)

>  <smiles>  (2) 
CCN(C)CCOc1ccc2c(c1)CCCN2Cc1ccc(C)cc1

>  <score_type>  (2) 
oracle

>  <origin>  (2) 
adg

>  <m_score__min__energy>  (2) 
-7.21

>  <m_primary>  (2) 
energy

$$$$
2:0
     RDKit          3D

 44 45  0  0  0  0  0  0  0  0999 V2000
   -1.9930   21.1620  -32.4260 C   0  0  0  0  0  0  0  0  0  0  0  0
   -3.1230   21.1890  -33.4530 C   0  0  0  0  0  0  0  0  0  0  0  0
   -4.0480   19.9800  -33.3120 C   0  0  0  0  0  0  0  0  0  0  0  0
   -5.4040   20.3830  -33.4760 O   0  0  0  0  0  0  0  0  0  0  0  0
   -6.4780   19.6960  -32.8990 C   0  0  0  0  0  0  0  0  0  0  0  0
   -6.5300   18.3060  -33.0600 C   0  0  0  0  0  0  0  0  0  0  0  0
   -7.6030   17.5710  -32.5510 C   0  0  0  0  0  0  0  0  0  0  0  0
   -8.6360   18.2210  -31.8780 C   0  0  0  0  0  0  0  0  0  0  0  0
   -8.6030   19.6060  -31.7170 C   0  0  0  0  0  0  0  0  0  0  0  0
   -7.5240   20.3620  -32.2140 C   0  0  0  0  0  0  0  0  0  0  0  0
   -7.5420   21.8640  -32.0340 C   0  0  0  0  0  0  0  0  0  0  0  0
   -6.2650   22.4960  -32.4170 N   0  0  0  0  0  0  0  0  0  0  0  0
   -6.1720   23.8990  -31.9780 C   0  0  0  0  0  0  0  0  0  0  0  0
   -5.1660   24.0370  -30.8740 C   0  0  0  0  0  0  0  0  0  0  0  0
   -3.8970   23.4970  -30.8460 C   0  0  0  0  0  0  0  0  0  0  0  0
   -3.2770   23.9480  -29.7390 N   0  0  0  0  0  0  0  0  0  0  0  0
   -1.9240   23.6030  -29.3210 C   0  0  0  0  0  0  0  0  0  0  0  0
   -4.0810   24.7520  -29.0580 N   0  0  0  0  0  0  0  0  0  0  0  0
   -5.2440   24.8250  -29.7360 C   0  0  0  0  0  0  0  0  0  0  0  0
   -6.3960   25.6830  -29.3250 C   0  0  0  0  0  0  0  0  0  0  0  0
   -2.4189   21.1722  -31.4119 H   0  0  0  0  0  0  0  0  0  0  0  0
   -1.3945   20.2493  -32.5632 H   0  0  0  0  0  0  0  0  0  0  0  0
   -1.3516   22.0451  -32.5632 H   0  0  0  0  0  0  0  0  0  0  0  0
   -3.7123   22.1067  -33.3098 H   0  0  0  0  0  0  0  0  0  0  0  0
   -2.6734   21.1601  -34.4565 H   0  0  0  0  0  0  0  0  0  0  0  0
   -3.7938   19.2351  -34.0805 H   0  0  0  0  0  0  0  0  0  0  0  0
   -3.9198   19.5418  -32.3112 H   0  0  0  0  0  0  0  0  0  0  0  0
   -5.7184   17.7882  -33.5922 H   0  0  0  0  0  0  0  0  0  0  0  0
   -7.6328   16.4791  -32.6813 H   0  0  0  0  0  0  0  0  0  0  0  0
   -9.4784   17.6409  -31.4733 H   0  0  0  0  0  0  0  0  0  0  0  0
   -9.4286   20.1131  -31.1963 H   0  0  0  0  0  0  0  0  0  0  0  0
   -8.3444   22.2842  -32.6582 H   0  0  0  0  0  0  0  0  0  0  0  0
   -7.7090   22.0699  -30.9664 H   0  0  0  0  0  0  0  0  0  0  0  0
   -5.4620   21.9640  -32.0130 H   0  0  0  0  0  0  0  0  0  0  0  0
   -6.1930   22.4580  -33.4630 H   0  0  0  0  0  0  0  0  0  0  0  0
   -5.8646   24.5251  -32.8286 H   0  0  0  0  0  0  0  0  0  0  0  0
   -7.1556   24.2220  -31.6062 H   0  0  0  0  0  0  0  0  0  0  0  0
   -3.4670   22.8172  -31.5963 H   0  0  0  0  0  0  0  0  0  0  0  0
   -1.8718   23.5897  -28.2223 H   0  0  0  0  0  0  0  0  0  0  0  0
   -1.6614   22.6092  -29.7126 H   0  0  0  0  0  0  0  0  0  0  0  0
   -1.2176   24.3498  -29.7126 H   0  0  0  0  0  0  0  0  0  0  0  0
   -6.4499   25.7232  -28.2271 H   0  0  0  0  0  0  0  0  0  0  0  0
   -6.2566   26.6991  -29.7227 H   0  0  0  0  0  0  0  0  0  0  0  0
   -7.3296   25.2585  -29.7227 H   0  0  0  0  0  0  0  0  0  0  0  0
  1  2  1  0
  2  3  1  0
  3  4  1  0
  4  5  1  0
  5  6  2  0
  6  7  1  0
  7  8  2  0
  8  9  1  0
  9 10  2  0
 10 11  1  0
 11 12  1  0
 12 13  1  0
 13 14  1  0
 14 15  2  0
 15 16  1  0
 16 17  1  0
 16 18  1  0
 18 19  2  0
 19 20  1  0
 10  5  1  0
 19 14  1  0
  1 21  1  0
  1 22  1  0
  1 23  1  0
  2 24  1  0
  2 25  1  0
  3 26  1  0
  3 27  1  0
  6 28  1  0
  7 29  1  0
  8 30  1  0
  9 31  1  0
 11 32  1  0
 11 33  1  0
 12 34  1  0
 12 35  1  0
 13 36  1  0
 13 37  1  0
 15 38  1  0
 17 39  1  0
 17 40  1  0
 17 41  1  0
 20 42  1  0
 20 43  1  0
 20 44  1  0
M  CHG  1  12   1
M  END
>  <UniqueID>  (3) 
3

>  <SMILES>  (3) 
CCCOc1ccccc1C[NH2+]Cc1cn(C)nc1C

>  <Energy>  (3) 
73.27649616509215

>  <Genealogy>  (3) 
CCCOc1ccccc1C[NH2+]Cc1cn(C)nc1C (protonated)
CCCOc1ccccc1C[NH2+]Cc1cn(C)nc1C (3D coordinates assigned)
CCCOc1ccccc1C[NH2+]Cc1cn(C)nc1C (optimized conformer: 73.27649616509215 kcal/mol)

>  <smiles>  (3) 
CCCOc1ccccc1CNCc1cn(C)nc1C

>  <score_type>  (3) 
oracle

>  <origin>  (3) 
adg

>  <m_score__min__energy>  (3) 
-7.0899999999999999

>  <m_primary>  (3) 
energy

$$$$
3:0
     RDKit          3D

 28 29  0  0  0  0  0  0  0  0999 V2000
   -5.6070   25.4890  -30.3320 C   0  0  0  0  0  0  0  0  0  0  0  0
   -4.9840   24.5620  -31.2120 O   0  0  0  0  0  0  0  0  0  0  0  0
   -5.6020   23.3700  -31.6000 C   0  0  0  0  0  0  0  0  0  0  0  0
   -6.9400   23.1520  -31.4950 N   0  0  0  0  0  0  0  0  0  0  0  0
   -7.0700   21.8990  -31.9760 C   0  0  0  0  0  0  0  0  0  0  0  0
   -5.8680   21.3950  -32.3430 C   0  0  0  0  0  0  0  0  0  0  0  0
   -5.7700   20.1010  -32.8400 C   0  0  0  0  0  0  0  0  0  0  0  0
   -4.6480   19.6230  -33.1630 O   0  0  0  0  0  0  0  0  0  0  0  0
   -6.9240   19.3610  -32.9600 N   0  0  0  0  0  0  0  0  0  0  0  0
   -6.8550   17.9730  -33.4470 C   0  0  0  0  0  0  0  0  0  0  0  0
   -8.1370   19.8880  -32.5490 C   0  0  0  0  0  0  0  0  0  0  0  0
   -9.1810   19.1760  -32.6000 O   0  0  0  0  0  0  0  0  0  0  0  0
   -8.2210   21.1810  -32.0780 N   0  0  0  0  0  0  0  0  0  0  0  0
   -9.4990   21.7420  -31.6170 C   0  0  0  0  0  0  0  0  0  0  0  0
   -4.9170   22.3180  -32.1150 N   0  0  0  0  0  0  0  0  0  0  0  0
   -3.4780   22.2130  -32.3400 C   0  0  0  0  0  0  0  0  0  0  0  0
   -5.4096   25.1953  -29.2905 H   0  0  0  0  0  0  0  0  0  0  0  0
   -5.2012   26.4954  -30.5124 H   0  0  0  0  0  0  0  0  0  0  0  0
   -6.6921   25.4934  -30.5124 H   0  0  0  0  0  0  0  0  0  0  0  0
   -6.8208   17.2848  -32.5895 H   0  0  0  0  0  0  0  0  0  0  0  0
   -7.7434   17.7541  -34.0576 H   0  0  0  0  0  0  0  0  0  0  0  0
   -5.9493   17.8433  -34.0576 H   0  0  0  0  0  0  0  0  0  0  0  0
   -9.5200   21.7512  -30.5172 H   0  0  0  0  0  0  0  0  0  0  0  0
   -9.6057   22.7697  -31.9944 H   0  0  0  0  0  0  0  0  0  0  0  0
  -10.3277   21.1249  -31.9944 H   0  0  0  0  0  0  0  0  0  0  0  0
   -2.9573   22.1750  -31.3718 H   0  0  0  0  0  0  0  0  0  0  0  0
   -3.2617   21.2967  -32.9089 H   0  0  0  0  0  0  0  0  0  0  0  0
   -3.1310   23.0882  -32.9089 H   0  0  0  0  0  0  0  0  0  0  0  0
  1  2  1  0
  2  3  1  0
  3  4  2  0
  4  5  1  0
  5  6  2  0
  6  7  1  0
  7  8  2  0
  7  9  1  0
  9 10  1  0
  9 11  1  0
 11 12  2  0
 11 13  1  0
 13 14  1  0
  6 15  1  0
 15 16  1  0
 15  3  1  0
 13  5  1  0
  1 17  1  0
  1 18  1  0
  1 19  1  0
 10 20  1  0
 10 21  1  0
 10 22  1  0
 14 23  1  0
 14 24  1  0
 14 25  1  0
 16 26  1  0
 16 27  1  0
 16 28  1  0
M  END
>  <UniqueID>  (4) 
4

>  <SMILES>  (4) 
COc1nc2c(c(=O)n(C)c(=O)n2C)n1C

>  <Energy>  (4) 
70.96399070698938

>  <Genealogy>  (4) 
COc1nc2c(c(=O)n(C)c(=O)n2C)n1C (3D coordinates assigned)
COc1nc2c(c(=O)n(C)c(=O)n2C)n1C (optimized conformer: 70.96399070698938 kcal/mol)

>  <smiles>  (4) 
COc1nc2c(c(=O)n(C)c(=O)n2C)n1C

>  <score_type>  (4) 
oracle

>  <origin>  (4) 
adg

>  <m_score__min__energy>  (4) 
-5.75

>  <m_primary>  (4) 
energy

$$$$
4:0
     RDKit          3D

 53 55  0  0  0  0  0  0  0  0999 V2000
    0.5750   20.1330  -36.1330 C   0  0  0  0  0  0  0  0  0  0  0  0
    0.8660   21.5350  -35.6110 C   0  0  0  0  0  0  0  0  0  0  0  0
   -0.1380   21.9210  -34.6140 N   0  0  0  0  0  0  0  0  0  0  0  0
   -0.0330   21.0670  -33.4250 C   0  0  0  0  0  0  0  0  0  0  0  0
   -1.2940   21.1880  -32.5660 C   0  0  0  0  0  0  0  0  0  0  0  0
   -2.4580   21.5450  -33.3770 N   0  0  0  0  0  0  0  0  0  0  0  0
   -3.7700   21.0710  -33.0370 C   0  0  0  0  0  0  0  0  0  0  0  0
   -4.3490   19.8530  -33.3890 C   0  0  0  0  0  0  0  0  0  0  0  0
   -3.7030   18.7040  -34.0530 C   0  0  0  0  0  0  0  0  0  0  0  0
   -2.3060   18.6830  -34.1730 C   0  0  0  0  0  0  0  0  0  0  0  0
   -1.6660   17.6020  -34.7820 C   0  0  0  0  0  0  0  0  0  0  0  0
   -2.4170   16.5390  -35.2850 C   0  0  0  0  0  0  0  0  0  0  0  0
   -3.8100   16.5590  -35.1940 C   0  0  0  0  0  0  0  0  0  0  0  0
   -4.4710   17.6490  -34.5910 C   0  0  0  0  0  0  0  0  0  0  0  0
   -5.8740   17.7280  -34.5210 O   0  0  0  0  0  0  0  0  0  0  0  0
   -6.7430   16.7200  -34.0060 C   0  0  0  0  0  0  0  0  0  0  0  0
   -7.2430   17.0980  -32.6110 C   0  0  0  0  0  0  0  0  0  0  0  0
   -7.7740   18.4100  -32.6230 O   0  0  0  0  0  0  0  0  0  0  0  0
   -8.7350   18.5620  -31.6010 C   0  0  0  0  0  0  0  0  0  0  0  0
   -5.6300   19.8410  -32.9550 N   0  0  0  0  0  0  0  0  0  0  0  0
   -5.7990   21.0290  -32.3410 C   0  0  0  0  0  0  0  0  0  0  0  0
   -6.9670   21.4830  -31.7300 C   0  0  0  0  0  0  0  0  0  0  0  0
   -6.9470   22.7640  -31.1580 C   0  0  0  0  0  0  0  0  0  0  0  0
   -5.7800   23.5510  -31.2140 C   0  0  0  0  0  0  0  0  0  0  0  0
   -5.7580   25.2980  -30.4430 Br  0  0  0  0  0  0  0  0  0  0  0  0
   -4.6320   23.0430  -31.8420 C   0  0  0  0  0  0  0  0  0  0  0  0
   -4.6920   21.7930  -32.3730 N   0  0  0  0  0  0  0  0  0  0  0  0
    0.4328   19.4479  -35.2842 H   0  0  0  0  0  0  0  0  0  0  0  0
   -0.3383   20.1521  -36.7458 H   0  0  0  0  0  0  0  0  0  0  0  0
    1.4205   19.7871  -36.7458 H   0  0  0  0  0  0  0  0  0  0  0  0
    1.8635   21.5507  -35.1476 H   0  0  0  0  0  0  0  0  0  0  0  0
    0.8314   22.2455  -36.4500 H   0  0  0  0  0  0  0  0  0  0  0  0
   -1.0820   21.7570  -35.0380 H   0  0  0  0  0  0  0  0  0  0  0  0
    0.0912   20.0206  -33.7406 H   0  0  0  0  0  0  0  0  0  0  0  0
    0.8349   21.3890  -32.8308 H   0  0  0  0  0  0  0  0  0  0  0  0
   -1.4842   20.2242  -32.0711 H   0  0  0  0  0  0  0  0  0  0  0  0
   -1.1324   21.9824  -31.8224 H   0  0  0  0  0  0  0  0  0  0  0  0
   -2.2870   21.7990  -34.3760 H   0  0  0  0  0  0  0  0  0  0  0  0
   -1.7111   19.5230  -33.7851 H   0  0  0  0  0  0  0  0  0  0  0  0
   -0.5692   17.5883  -34.8653 H   0  0  0  0  0  0  0  0  0  0  0  0
   -1.9102   15.6830  -35.7545 H   0  0  0  0  0  0  0  0  0  0  0  0
   -4.3958   15.7189  -35.5953 H   0  0  0  0  0  0  0  0  0  0  0  0
   -7.6048   16.6074  -34.6802 H   0  0  0  0  0  0  0  0  0  0  0  0
   -6.1857   15.7741  -33.9375 H   0  0  0  0  0  0  0  0  0  0  0  0
   -8.0270   16.3911  -32.3017 H   0  0  0  0  0  0  0  0  0  0  0  0
   -6.4015   17.0569  -31.9038 H   0  0  0  0  0  0  0  0  0  0  0  0
   -8.2428   18.4841  -30.6203 H   0  0  0  0  0  0  0  0  0  0  0  0
   -9.2154   19.5473  -31.6930 H   0  0  0  0  0  0  0  0  0  0  0  0
   -9.4960   17.7731  -31.6930 H   0  0  0  0  0  0  0  0  0  0  0  0
   -6.3290   19.0700  -33.0490 H   0  0  0  0  0  0  0  0  0  0  0  0
   -7.8723   20.8589  -31.6975 H   0  0  0  0  0  0  0  0  0  0  0  0
   -7.8477   23.1560  -30.6630 H   0  0  0  0  0  0  0  0  0  0  0  0
   -3.7098   23.6395  -31.9028 H   0  0  0  0  0  0  0  0  0  0  0  0
  1  2  1  0
  2  3  1  0
  3  4  1  0
  4  5  1  0
  5  6  1  0
  6  7  1  0
  7  8  2  0
  8  9  1  0
  9 10  2  0
 10 11  1  0
 11 12  2  0
 12 13  1  0
 13 14  2  0
 14 15  1  0
 15 16  1  0
 16 17  1  0
 17 18  1  0
 18 19  1  0
  8 20  1  0
 20 21  2  0
 21 22  1  0
 22 23  2  0
 23 24  1  0
 24 25  1  0
 24 26  2  0
 26 27  1  0
 27  7  1  0
 14  9  1  0
 27 21  1  0
  1 28  1  0
  1 29  1  0
  1 30  1  0
  2 31  1  0
  2 32  1  0
  3 33  1  0
  4 34  1  0
  4 35  1  0
  5 36  1  0
  5 37  1  0
  6 38  1  0
 10 39  1  0
 11 40  1  0
 12 41  1  0
 13 42  1  0
 16 43  1  0
 16 44  1  0
 17 45  1  0
 17 46  1  0
 19 47  1  0
 19 48  1  0
 19 49  1  0
 20 50  1  0
 22 51  1  0
 23 52  1  0
 26 53  1  0
M  CHG  1  20   1
M  END
>  <UniqueID>  (5) 
5

>  <SMILES>  (5) 
CCNCCNc1c(-c2ccccc2OCCOC)[nH+]c2ccc(Br)cn12

>  <Energy>  (5) 
91.41935195477768

>  <Genealogy>  (5) 
CCNCCNc1c(-c2ccccc2OCCOC)[nH+]c2ccc(Br)cn12 (protonated)
CCNCCNc1c(-c2ccccc2OCCOC)[nH+]c2ccc(Br)cn12 (3D coordinates assigned)
CCNCCNc1c(-c2ccccc2OCCOC)[nH+]c2ccc(Br)cn12 (optimized conformer: 91.41935195477768 kcal/mol)

>  <smiles>  (5) 
CCNCCNc1c(-c2ccccc2OCCOC)nc2ccc(Br)cn12

>  <score_type>  (5) 
oracle

>  <origin>  (5) 
adg

>  <m_score__min__energy>  (5) 
-7.75

>  <m_primary>  (5) 
energy

$$$$
5:0
     RDKit          3D

 67 69  0  0  0  0  0  0  0  0999 V2000
   -0.8270   21.3740  -31.4580 C   0  0  0  0  0  0  0  0  0  0  0  0
   -2.1730   22.0770  -31.3980 C   0  0  0  0  0  0  0  0  0  0  0  0
   -2.8420   21.9270  -32.6470 O   0  0  0  0  0  0  0  0  0  0  0  0
   -3.4610   20.7500  -33.1030 C   0  0  0  0  0  0  0  0  0  0  0  0
   -2.7020   19.7580  -33.7500 C   0  0  0  0  0  0  0  0  0  0  0  0
   -3.2960   18.5850  -34.1870 C   0  0  0  0  0  0  0  0  0  0  0  0
   -4.6420   18.3500  -33.9490 C   0  0  0  0  0  0  0  0  0  0  0  0
   -5.4420   19.2960  -33.2630 C   0  0  0  0  0  0  0  0  0  0  0  0
   -4.8610   20.5480  -32.9040 C   0  0  0  0  0  0  0  0  0  0  0  0
   -5.7000   21.5520  -32.3580 C   0  0  0  0  0  0  0  0  0  0  0  0
   -5.1830   22.8500  -32.0240 N   0  0  0  0  0  0  0  0  0  0  0  0
   -5.4450   23.4430  -30.7130 C   0  0  0  0  0  0  0  0  0  0  0  0
   -4.9890   24.9060  -30.6650 C   0  0  0  0  0  0  0  0  0  0  0  0
   -3.5890   24.9830  -30.4590 O   0  0  0  0  0  0  0  0  0  0  0  0
   -3.2180   24.3320  -29.2610 C   0  0  0  0  0  0  0  0  0  0  0  0
   -1.7380   24.6040  -28.9780 C   0  0  0  0  0  0  0  0  0  0  0  0
   -1.4570   25.9910  -28.9650 O   0  0  0  0  0  0  0  0  0  0  0  0
   -0.7670   26.3830  -27.7890 C   0  0  0  0  0  0  0  0  0  0  0  0
   -1.6150   26.0230  -26.5680 C   0  0  0  0  0  0  0  0  0  0  0  0
   -1.4610   27.0500  -25.5090 N   0  0  0  0  0  0  0  0  0  0  0  0
   -0.9580   26.4380  -24.2650 C   0  0  0  0  0  0  0  0  0  0  0  0
   -0.5580   28.1410  -25.9420 C   0  0  0  0  0  0  0  0  0  0  0  0
   -0.9290   29.4440  -25.2400 C   0  0  0  0  0  0  0  0  0  0  0  0
   -7.0850   21.3190  -32.2510 C   0  0  0  0  0  0  0  0  0  0  0  0
   -7.9610   22.3480  -31.8410 C   0  0  0  0  0  0  0  0  0  0  0  0
   -9.3340   22.1340  -31.7790 C   0  0  0  0  0  0  0  0  0  0  0  0
   -9.8620   20.9000  -32.1300 C   0  0  0  0  0  0  0  0  0  0  0  0
   -9.0180   19.8670  -32.5340 C   0  0  0  0  0  0  0  0  0  0  0  0
   -7.6110   20.0450  -32.5800 C   0  0  0  0  0  0  0  0  0  0  0  0
   -6.7640   19.0250  -32.9620 N   0  0  0  0  0  0  0  0  0  0  0  0
   -7.2670   17.6330  -33.0190 C   0  0  0  0  0  0  0  0  0  0  0  0
   -0.4660   21.1854  -30.4362 H   0  0  0  0  0  0  0  0  0  0  0  0
   -0.9362   20.4178  -31.9906 H   0  0  0  0  0  0  0  0  0  0  0  0
   -0.1046   22.0100  -31.9906 H   0  0  0  0  0  0  0  0  0  0  0  0
   -2.7840   21.6321  -30.5988 H   0  0  0  0  0  0  0  0  0  0  0  0
   -2.0198   23.1462  -31.1896 H   0  0  0  0  0  0  0  0  0  0  0  0
   -1.6252   19.9152  -33.9107 H   0  0  0  0  0  0  0  0  0  0  0  0
   -2.6968   17.8361  -34.7256 H   0  0  0  0  0  0  0  0  0  0  0  0
   -5.0965   17.4116  -34.2995 H   0  0  0  0  0  0  0  0  0  0  0  0
   -4.4140   23.2350  -32.6180 H   0  0  0  0  0  0  0  0  0  0  0  0
   -6.5247   23.3968  -30.5076 H   0  0  0  0  0  0  0  0  0  0  0  0
   -4.8816   22.8776  -29.9561 H   0  0  0  0  0  0  0  0  0  0  0  0
   -5.2423   25.3955  -31.6169 H   0  0  0  0  0  0  0  0  0  0  0  0
   -5.4995   25.4106  -29.8315 H   0  0  0  0  0  0  0  0  0  0  0  0
   -3.8281   24.7153  -28.4298 H   0  0  0  0  0  0  0  0  0  0  0  0
   -3.3820   23.2491  -29.3627 H   0  0  0  0  0  0  0  0  0  0  0  0
   -1.4776   24.1777  -27.9980 H   0  0  0  0  0  0  0  0  0  0  0  0
   -1.1434   24.1397  -29.7785 H   0  0  0  0  0  0  0  0  0  0  0  0
    0.1978   25.8573  -27.7354 H   0  0  0  0  0  0  0  0  0  0  0  0
   -0.5875   27.4681  -27.8088 H   0  0  0  0  0  0  0  0  0  0  0  0
   -2.6724   25.9653  -26.8656 H   0  0  0  0  0  0  0  0  0  0  0  0
   -1.2790   25.0523  -26.1745 H   0  0  0  0  0  0  0  0  0  0  0  0
   -1.3884   26.9617  -23.3987 H   0  0  0  0  0  0  0  0  0  0  0  0
   -1.2491   25.3777  -24.2342 H   0  0  0  0  0  0  0  0  0  0  0  0
    0.1386   26.5182  -24.2342 H   0  0  0  0  0  0  0  0  0  0  0  0
    0.4793   27.8754  -25.6899 H   0  0  0  0  0  0  0  0  0  0  0  0
   -0.6577   28.2786  -27.0288 H   0  0  0  0  0  0  0  0  0  0  0  0
   -0.8875   29.2982  -24.1505 H   0  0  0  0  0  0  0  0  0  0  0  0
   -0.2197   30.2325  -25.5317 H   0  0  0  0  0  0  0  0  0  0  0  0
   -1.9473   29.7406  -25.5317 H   0  0  0  0  0  0  0  0  0  0  0  0
   -7.5521   23.3318  -31.5670 H   0  0  0  0  0  0  0  0  0  0  0  0
  -10.0020   22.9442  -31.4513 H   0  0  0  0  0  0  0  0  0  0  0  0
  -10.9490   20.7365  -32.0894 H   0  0  0  0  0  0  0  0  0  0  0  0
   -9.4500   18.8973  -32.8221 H   0  0  0  0  0  0  0  0  0  0  0  0
   -7.4051   17.2509  -31.9968 H   0  0  0  0  0  0  0  0  0  0  0  0
   -8.2294   17.6124  -33.5513 H   0  0  0  0  0  0  0  0  0  0  0  0
   -6.5400   17.0019  -33.5513 H   0  0  0  0  0  0  0  0  0  0  0  0
  1  2  1  0
  2  3  1  0
  3  4  1  0
  4  5  2  0
  5  6  1  0
  6  7  2  0
  7  8  1  0
  8  9  2  0
  9 10  1  0
 10 11  1  0
 11 12  1  0
 12 13  1  0
 13 14  1  0
 14 15  1  0
 15 16  1  0
 16 17  1  0
 17 18  1  0
 18 19  1  0
 19 20  1  0
 20 21  1  0
 20 22  1  0
 22 23  1  0
 10 24  2  0
 24 25  1  0
 25 26  2  0
 26 27  1  0
 27 28  2  0
 28 29  1  0
 29 30  2  0
 30 31  1  0
  9  4  1  0
 29 24  1  0
 30  8  1  0
  1 32  1  0
  1 33  1  0
  1 34  1  0
  2 35  1  0
  2 36  1  0
  5 37  1  0
  6 38  1  0
  7 39  1  0
 11 40  1  0
 12 41  1  0
 12 42  1  0
 13 43  1  0
 13 44  1  0
 15 45  1  0
 15 46  1  0
 16 47  1  0
 16 48  1  0
 18 49  1  0
 18 50  1  0
 19 51  1  0
 19 52  1  0
 21 53  1  0
 21 54  1  0
 21 55  1  0
 22 56  1  0
 22 57  1  0
 23 58  1  0
 23 59  1  0
 23 60  1  0
 25 61  1  0
 26 62  1  0
 27 63  1  0
 28 64  1  0
 31 65  1  0
 31 66  1  0
 31 67  1  0
M  CHG  1  30   1
M  END
>  <UniqueID>  (6) 
6

>  <SMILES>  (6) 
CCOc1cccc2c1c(NCCOCCOCCN(C)CC)c1ccccc1[n+]2C

>  <Energy>  (6) 
93.692960816825

>  <Genealogy>  (6) 
CCOc1cccc2c1c(NCCOCCOCCN(C)CC)c1ccccc1[n+]2C (3D coordinates assigned)
CCOc1cccc2c1c(NCCOCCOCCN(C)CC)c1ccccc1[n+]2C (optimized conformer: 93.692960816825 kcal/mol)

>  <smiles>  (6) 
CCOc1cccc2c1c(NCCOCCOCCN(C)CC)c1ccccc1[n+]2C

>  <score_type>  (6) 
oracle

>  <origin>  (6) 
adg

>  <m_score__min__energy>  (6) 
-8.8699999999999992

>  <m_primary>  (6) 
energy

$$$$
6:0
     RDKit          3D

 48 49  0  0  0  0  0  0  0  0999 V2000
   -9.8570   21.3000  -31.9650 C   0  0  0  0  0  0  0  0  0  0  0  0
   -9.3990   20.0510  -32.4330 O   0  0  0  0  0  0  0  0  0  0  0  0
   -8.9730   19.2410  -31.3530 C   0  0  0  0  0  0  0  0  0  0  0  0
   -7.5860   18.6410  -31.6660 C   0  0  0  0  0  0  0  0  0  0  0  0
   -7.2320   18.6190  -33.1060 N   0  0  2  0  0  0  0  0  0  0  0  0
   -6.8190   17.2830  -33.5770 C   0  0  0  0  0  0  0  0  0  0  0  0
   -6.2510   19.6390  -33.4340 C   0  0  0  0  0  0  0  0  0  0  0  0
   -5.7200   19.6550  -34.5380 O   0  0  0  0  0  0  0  0  0  0  0  0
   -5.8490   20.6780  -32.4070 C   0  0  0  0  0  0  0  0  0  0  0  0
   -6.7850   21.8950  -32.4580 C   0  0  0  0  0  0  0  0  0  0  0  0
   -6.3950   22.9560  -31.4020 C   0  0  0  0  0  0  0  0  0  0  0  0
   -5.0470   22.7230  -30.8400 N   0  0  0  0  0  0  0  0  0  0  0  0
   -4.5450   24.1160  -29.9140 S   0  0  0  0  0  0  0  0  0  0  0  0
   -5.7370   24.7560  -29.2570 O   0  0  0  0  0  0  0  0  0  0  0  0
   -3.8990   25.1240  -30.8240 O   0  0  0  0  0  0  0  0  0  0  0  0
   -3.3710   23.6250  -28.6950 C   0  0  0  0  0  0  0  0  0  0  0  0
   -2.6780   24.5840  -27.9430 C   0  0  0  0  0  0  0  0  0  0  0  0
   -1.7640   24.1820  -26.9630 C   0  0  0  0  0  0  0  0  0  0  0  0
   -1.5420   22.8220  -26.7280 C   0  0  0  0  0  0  0  0  0  0  0  0
   -2.2360   21.8620  -27.4720 C   0  0  0  0  0  0  0  0  0  0  0  0
   -3.1510   22.2630  -28.4500 C   0  0  0  0  0  0  0  0  0  0  0  0
   -4.0710   22.4560  -31.9090 C   0  0  0  0  0  0  0  0  0  0  0  0
   -4.3790   21.1130  -32.6020 C   0  0  0  0  0  0  0  0  0  0  0  0
   -9.8576   21.3016  -30.8650 H   0  0  0  0  0  0  0  0  0  0  0  0
   -9.1921   22.0955  -32.3325 H   0  0  0  0  0  0  0  0  0  0  0  0
  -10.8786   21.4771  -32.3325 H   0  0  0  0  0  0  0  0  0  0  0  0
   -8.9092   19.8524  -30.4408 H   0  0  0  0  0  0  0  0  0  0  0  0
   -9.6962   18.4259  -31.2026 H   0  0  0  0  0  0  0  0  0  0  0  0
   -6.8276   19.2356  -31.1356 H   0  0  0  0  0  0  0  0  0  0  0  0
   -7.6197   17.5916  -31.3378 H   0  0  0  0  0  0  0  0  0  0  0  0
   -8.1120   18.8410  -33.6290 H   0  0  0  0  0  0  0  0  0  0  0  0
   -6.6186   16.6347  -32.7112 H   0  0  0  0  0  0  0  0  0  0  0  0
   -7.6233   16.8439  -34.1855 H   0  0  0  0  0  0  0  0  0  0  0  0
   -5.9072   17.3744  -34.1855 H   0  0  0  0  0  0  0  0  0  0  0  0
   -5.9400   20.2170  -31.4124 H   0  0  0  0  0  0  0  0  0  0  0  0
   -6.7271   22.3486  -33.4585 H   0  0  0  0  0  0  0  0  0  0  0  0
   -7.8077   21.5527  -32.2413 H   0  0  0  0  0  0  0  0  0  0  0  0
   -6.4137   23.9489  -31.8751 H   0  0  0  0  0  0  0  0  0  0  0  0
   -7.1188   22.8893  -30.5763 H   0  0  0  0  0  0  0  0  0  0  0  0
   -2.8532   25.6548  -28.1239 H   0  0  0  0  0  0  0  0  0  0  0  0
   -1.2195   24.9369  -26.3768 H   0  0  0  0  0  0  0  0  0  0  0  0
   -0.8220   22.5069  -25.9584 H   0  0  0  0  0  0  0  0  0  0  0  0
   -2.0618   20.7917  -27.2876 H   0  0  0  0  0  0  0  0  0  0  0  0
   -3.7004   21.5064  -29.0294 H   0  0  0  0  0  0  0  0  0  0  0  0
   -4.1183   23.2656  -32.6522 H   0  0  0  0  0  0  0  0  0  0  0  0
   -3.0653   22.4043  -31.4663 H   0  0  0  0  0  0  0  0  0  0  0  0
   -4.1803   21.2165  -33.6789 H   0  0  0  0  0  0  0  0  0  0  0  0
   -3.7367   20.3441  -32.1480 H   0  0  0  0  0  0  0  0  0  0  0  0
  1  2  1  0
  2  3  1  0
  3  4  1  0
  4  5  1  0
  5  6  1  0
  5  7  1  0
  7  8  2  0
  7  9  1  0
  9 10  1  0
 10 11  1  0
 11 12  1  0
 12 13  1  0
 13 14  2  0
 13 15  2  0
 13 16  1  0
 16 17  2  0
 17 18  1  0
 18 19  2  0
 19 20  1  0
 20 21  2  0
 12 22  1  0
 22 23  1  0
 23  9  1  0
 21 16  1  0
  1 24  1  0
  1 25  1  0
  1 26  1  0
  3 27  1  0
  3 28  1  0
  4 29  1  0
  4 30  1  0
  5 31  1  6
  6 32  1  0
  6 33  1  0
  6 34  1  0
  9 35  1  0
 10 36  1  0
 10 37  1  0
 11 38  1  0
 11 39  1  0
 17 40  1  0
 18 41  1  0
 19 42  1  0
 20 43  1  0
 21 44  1  0
 22 45  1  0
 22 46  1  0
 23 47  1  0
 23 48  1  0
M  CHG  1   5   1
M  END
>  <UniqueID>  (7) 
7

>  <SMILES>  (7) 
COCC[N@H+](C)C(=O)C1CCN(S(=O)(=O)c2ccccc2)CC1

>  <Energy>  (7) 
54.20331973330408

>  <Genealogy>  (7) 
COCC[NH+](C)C(=O)C1CCN(S(=O)(=O)c2ccccc2)CC1 (protonated)
COCC[N@H+](C)C(=O)C1CCN(S(=O)(=O)c2ccccc2)CC1 (chirality)
COCC[N@H+](C)C(=O)C1CCN(S(=O)(=O)c2ccccc2)CC1 (3D coordinates assigned)
COCC[N@H+](C)C(=O)C1CCN(S(=O)(=O)c2ccccc2)CC1 (nonaromatic ring conformer: 54.20331973330408 kcal/mol)

>  <smiles>  (7) 
COCCN(C)C(=O)C1CCN(S(=O)(=O)c2ccccc2)CC1

>  <score_type>  (7) 
oracle

>  <origin>  (7) 
adg

>  <m_score__min__energy>  (7) 
-8.2200000000000006

>  <m_primary>  (7) 
energy

$$$$
7:0
     RDKit          3D

 58 60  0  0  0  0  0  0  0  0999 V2000
   -4.1180   24.1630  -27.5020 C   0  0  0  0  0  0  0  0  0  0  0  0
   -4.5220   22.9380  -28.3250 C   0  0  0  0  0  0  0  0  0  0  0  0
   -5.6890   23.2020  -29.1790 N   0  0  0  0  0  0  0  0  0  0  0  0
   -5.8060   24.6190  -29.5610 C   0  0  0  0  0  0  0  0  0  0  0  0
   -4.8510   24.9300  -30.7120 C   0  0  0  0  0  0  0  0  0  0  0  0
   -4.7020   23.7490  -31.5760 N   0  0  0  0  0  0  0  0  0  0  0  0
   -3.4280   23.0570  -31.3370 C   0  0  0  0  0  0  0  0  0  0  0  0
   -3.4260   21.6790  -32.0080 C   0  0  0  0  0  0  0  0  0  0  0  0
   -4.6470   21.4800  -32.7870 N   0  0  0  0  0  0  0  0  0  0  0  0
   -5.1760   20.1620  -32.9880 C   0  0  0  0  0  0  0  0  0  0  0  0
   -4.3300   19.1600  -33.4950 C   0  0  0  0  0  0  0  0  0  0  0  0
   -2.9670   19.4260  -33.7510 C   0  0  0  0  0  0  0  0  0  0  0  0
   -2.1160   18.4220  -34.2050 C   0  0  0  0  0  0  0  0  0  0  0  0
   -2.6030   17.1360  -34.3990 C   0  0  0  0  0  0  0  0  0  0  0  0
   -3.9500   16.8540  -34.1690 C   0  0  0  0  0  0  0  0  0  0  0  0
   -4.8490   17.8670  -33.7450 C   0  0  0  0  0  0  0  0  0  0  0  0
   -6.1930   17.6150  -33.5600 N   0  0  0  0  0  0  0  0  0  0  0  0
   -6.7880   16.3750  -34.1080 C   0  0  0  0  0  0  0  0  0  0  0  0
   -6.9850   18.5270  -32.8850 C   0  0  0  0  0  0  0  0  0  0  0  0
   -8.2760   18.1740  -32.4250 C   0  0  0  0  0  0  0  0  0  0  0  0
   -9.0940   19.1020  -31.7950 C   0  0  0  0  0  0  0  0  0  0  0  0
   -8.6500   20.3980  -31.5820 C   0  0  0  0  0  0  0  0  0  0  0  0
   -7.3560   20.7850  -31.9670 C   0  0  0  0  0  0  0  0  0  0  0  0
   -6.9000   22.0860  -31.7020 O   0  0  0  0  0  0  0  0  0  0  0  0
   -7.4240   23.2800  -32.2820 C   0  0  0  0  0  0  0  0  0  0  0  0
   -8.9180   23.3630  -32.0110 C   0  0  0  0  0  0  0  0  0  0  0  0
   -6.5020   19.8420  -32.6150 C   0  0  0  0  0  0  0  0  0  0  0  0
   -4.1959   23.9268  -26.4305 H   0  0  0  0  0  0  0  0  0  0  0  0
   -3.0809   24.4401  -27.7419 H   0  0  0  0  0  0  0  0  0  0  0  0
   -4.7868   25.0027  -27.7419 H   0  0  0  0  0  0  0  0  0  0  0  0
   -3.6752   22.6452  -28.9632 H   0  0  0  0  0  0  0  0  0  0  0  0
   -4.7920   22.1346  -27.6238 H   0  0  0  0  0  0  0  0  0  0  0  0
   -5.6250   22.6110  -30.0440 H   0  0  0  0  0  0  0  0  0  0  0  0
   -6.8386   24.8268  -29.8781 H   0  0  0  0  0  0  0  0  0  0  0  0
   -5.5474   25.2486  -28.6969 H   0  0  0  0  0  0  0  0  0  0  0  0
   -5.2535   25.7655  -31.3035 H   0  0  0  0  0  0  0  0  0  0  0  0
   -3.8677   25.2029  -30.3013 H   0  0  0  0  0  0  0  0  0  0  0  0
   -5.4720   23.0810  -31.3350 H   0  0  0  0  0  0  0  0  0  0  0  0
   -2.6062   23.6607  -31.7495 H   0  0  0  0  0  0  0  0  0  0  0  0
   -3.2962   22.9229  -30.2532 H   0  0  0  0  0  0  0  0  0  0  0  0
   -2.5555   21.6044  -32.6763 H   0  0  0  0  0  0  0  0  0  0  0  0
   -3.3758   20.9062  -31.2269 H   0  0  0  0  0  0  0  0  0  0  0  0
   -5.2240   22.2950  -33.0910 H   0  0  0  0  0  0  0  0  0  0  0  0
   -2.5724   20.4400  -33.5896 H   0  0  0  0  0  0  0  0  0  0  0  0
   -1.0590   18.6471  -34.4098 H   0  0  0  0  0  0  0  0  0  0  0  0
   -1.9250   16.3376  -34.7349 H   0  0  0  0  0  0  0  0  0  0  0  0
   -4.3213   15.8295  -34.3188 H   0  0  0  0  0  0  0  0  0  0  0  0
   -7.1014   15.7218  -33.2803 H   0  0  0  0  0  0  0  0  0  0  0  0
   -7.6621   16.6295  -34.7254 H   0  0  0  0  0  0  0  0  0  0  0  0
   -6.0426   15.8524  -34.7254 H   0  0  0  0  0  0  0  0  0  0  0  0
   -8.6380   17.1453  -32.5693 H   0  0  0  0  0  0  0  0  0  0  0  0
  -10.1004   18.8073  -31.4628 H   0  0  0  0  0  0  0  0  0  0  0  0
   -9.3183   21.1309  -31.1064 H   0  0  0  0  0  0  0  0  0  0  0  0
   -6.9222   24.1532  -31.8396 H   0  0  0  0  0  0  0  0  0  0  0  0
   -7.2489   23.2671  -33.3679 H   0  0  0  0  0  0  0  0  0  0  0  0
   -9.0937   23.3728  -30.9252 H   0  0  0  0  0  0  0  0  0  0  0  0
   -9.3207   24.2849  -32.4559 H   0  0  0  0  0  0  0  0  0  0  0  0
   -9.4203   22.4914  -32.4559 H   0  0  0  0  0  0  0  0  0  0  0  0
  1  2  1  0
  2  3  1  0
  3  4  1  0
  4  5  1  0
  5  6  1  0
  6  7  1  0
  7  8  1  0
  8  9  1  0
  9 10  1  0
 10 11  2  0
 11 12  1  0
 12 13  2  0
 13 14  1  0
 14 15  2  0
 15 16  1  0
 16 17  2  0
 17 18  1  0
 17 19  1  0
 19 20  2  0
 20 21  1  0
 21 22  2  0
 22 23  1  0
 23 24  1  0
 24 25  1  0
 25 26  1  0
 23 27  2  0
 27 10  1  0
 16 11  1  0
 27 19  1  0
  1 28  1  0
  1 29  1  0
  1 30  1  0
  2 31  1  0
  2 32  1  0
  3 33  1  0
  4 34  1  0
  4 35  1  0
  5 36  1  0
  5 37  1  0
  6 38  1  0
  7 39  1  0
  7 40  1  0
  8 41  1  0
  8 42  1  0
  9 43  1  0
 12 44  1  0
 13 45  1  0
 14 46  1  0
 15 47  1  0
 18 48  1  0
 18 49  1  0
 18 50  1  0
 20 51  1  0
 21 52  1  0
 22 53  1  0
 25 54  1  0
 25 55  1  0
 26 56  1  0
 26 57  1  0
 26 58  1  0
M  CHG  1  17   1
M  END
>  <UniqueID>  (8) 
8

>  <SMILES>  (8) 
CCNCCNCCNc1c2ccccc2[n+](C)c2cccc(OCC)c12

>  <Energy>  (8) 
79.00169488364078

>  <Genealogy>  (8) 
CCNCCNCCNc1c2ccccc2[n+](C)c2cccc(OCC)c12 (3D coordinates assigned)
CCNCCNCCNc1c2ccccc2[n+](C)c2cccc(OCC)c12 (optimized conformer: 79.00169488364078 kcal/mol)

>  <smiles>  (8) 
CCNCCNCCNc1c2ccccc2[n+](C)c2cccc(OCC)c12

>  <score_type>  (8) 
oracle

>  <origin>  (8) 
adg

>  <m_score__min__energy>  (8) 
-8.6199999999999992

>  <m_primary>  (8) 
energy

$$$$
8:0
     RDKit          3D

 57 59  0  0  0  0  0  0  0  0999 V2000
   -8.5090   22.3030  -31.6070 C   0  0  0  0  0  0  0  0  0  0  0  0
   -7.6140   22.5870  -30.4020 C   0  0  0  0  0  0  0  0  0  0  0  0
   -6.4300   23.3630  -30.7960 N   0  0  0  0  0  0  0  0  0  0  0  0
   -6.5920   24.7890  -30.4790 C   0  0  0  0  0  0  0  0  0  0  0  0
   -5.2450   25.5050  -30.5400 C   0  0  0  0  0  0  0  0  0  0  0  0
   -4.2240   24.5700  -30.8150 O   0  0  0  0  0  0  0  0  0  0  0  0
   -3.6500   24.1270  -29.6020 C   0  0  0  0  0  0  0  0  0  0  0  0
   -2.7900   22.8860  -29.8630 C   0  0  0  0  0  0  0  0  0  0  0  0
   -3.6160   21.5970  -30.0350 C   0  0  0  0  0  0  0  0  0  0  0  0
   -4.5120   21.6250  -31.2100 N   0  0  0  0  0  0  0  0  0  0  0  0
   -4.1970   20.5730  -32.1710 C   0  0  0  0  0  0  0  0  0  0  0  0
   -2.9460   20.5400  -32.8570 C   0  0  0  0  0  0  0  0  0  0  0  0
   -1.9370   21.5150  -32.6460 C   0  0  0  0  0  0  0  0  0  0  0  0
   -0.7590   21.5110  -33.3870 C   0  0  0  0  0  0  0  0  0  0  0  0
   -0.5520   20.5510  -34.3610 C   0  0  0  0  0  0  0  0  0  0  0  0
   -1.5010   19.5590  -34.5690 C   0  0  0  0  0  0  0  0  0  0  0  0
   -2.6890   19.4990  -33.7950 C   0  0  0  0  0  0  0  0  0  0  0  0
   -3.5840   18.4620  -33.9510 N   0  0  0  0  0  0  0  0  0  0  0  0
   -3.1680   17.2270  -34.6530 C   0  0  0  0  0  0  0  0  0  0  0  0
   -4.8550   18.5580  -33.4250 C   0  0  0  0  0  0  0  0  0  0  0  0
   -5.8750   17.6520  -33.8070 C   0  0  0  0  0  0  0  0  0  0  0  0
   -7.1390   17.6980  -33.2320 C   0  0  0  0  0  0  0  0  0  0  0  0
   -7.4380   18.6580  -32.2700 C   0  0  0  0  0  0  0  0  0  0  0  0
   -8.7850   18.6840  -31.6100 C   0  0  0  0  0  0  0  0  0  0  0  0
   -6.4630   19.5880  -31.9020 C   0  0  0  0  0  0  0  0  0  0  0  0
   -5.1710   19.5830  -32.4910 C   0  0  0  0  0  0  0  0  0  0  0  0
   -9.5036   21.9874  -31.2588 H   0  0  0  0  0  0  0  0  0  0  0  0
   -8.6056   23.2146  -32.2150 H   0  0  0  0  0  0  0  0  0  0  0  0
   -8.0623   21.5025  -32.2150 H   0  0  0  0  0  0  0  0  0  0  0  0
   -8.1861   23.1578  -29.6557 H   0  0  0  0  0  0  0  0  0  0  0  0
   -7.2796   21.6277  -29.9803 H   0  0  0  0  0  0  0  0  0  0  0  0
   -5.6230   23.0060  -30.2330 H   0  0  0  0  0  0  0  0  0  0  0  0
   -7.2786   25.2462  -31.2067 H   0  0  0  0  0  0  0  0  0  0  0  0
   -7.0004   24.8839  -29.4620 H   0  0  0  0  0  0  0  0  0  0  0  0
   -5.2698   26.2645  -31.3353 H   0  0  0  0  0  0  0  0  0  0  0  0
   -5.0452   25.9905  -29.5734 H   0  0  0  0  0  0  0  0  0  0  0  0
   -3.0217   24.9258  -29.1811 H   0  0  0  0  0  0  0  0  0  0  0  0
   -4.4498   23.8740  -28.8905 H   0  0  0  0  0  0  0  0  0  0  0  0
   -2.2070   23.0521  -30.7809 H   0  0  0  0  0  0  0  0  0  0  0  0
   -2.1460   22.7450  -28.9825 H   0  0  0  0  0  0  0  0  0  0  0  0
   -2.9221   20.7507  -30.1460 H   0  0  0  0  0  0  0  0  0  0  0  0
   -4.2532   21.4989  -29.1437 H   0  0  0  0  0  0  0  0  0  0  0  0
   -4.5410   22.5770  -31.6260 H   0  0  0  0  0  0  0  0  0  0  0  0
   -5.4990   21.5160  -30.8900 H   0  0  0  0  0  0  0  0  0  0  0  0
   -2.0891   22.2903  -31.8807 H   0  0  0  0  0  0  0  0  0  0  0  0
    0.0103   22.2741  -33.1974 H   0  0  0  0  0  0  0  0  0  0  0  0
    0.3636   20.5734  -34.9703 H   0  0  0  0  0  0  0  0  0  0  0  0
   -1.3284   18.8039  -35.3500 H   0  0  0  0  0  0  0  0  0  0  0  0
   -2.9079   16.4550  -33.9138 H   0  0  0  0  0  0  0  0  0  0  0  0
   -3.9946   16.8674  -35.2834 H   0  0  0  0  0  0  0  0  0  0  0  0
   -2.2923   17.4408  -35.2834 H   0  0  0  0  0  0  0  0  0  0  0  0
   -5.6614   16.8951  -34.5761 H   0  0  0  0  0  0  0  0  0  0  0  0
   -7.9068   16.9724  -33.5386 H   0  0  0  0  0  0  0  0  0  0  0  0
   -8.6580   18.6815  -30.5174 H   0  0  0  0  0  0  0  0  0  0  0  0
   -9.3250   19.5927  -31.9144 H   0  0  0  0  0  0  0  0  0  0  0  0
   -9.3596   17.7968  -31.9144 H   0  0  0  0  0  0  0  0  0  0  0  0
   -6.7017   20.3422  -31.1377 H   0  0  0  0  0  0  0  0  0  0  0  0
  1  2  1  0
  2  3  1  0
  3  4  1  0
  4  5  1  0
  5  6  1  0
  6  7  1  0
  7  8  1  0
  8  9  1  0
  9 10  1  0
 10 11  1  0
 11 12  2  0
 12 13  1  0
 13 14  2  0
 14 15  1  0
 15 16  2  0
 16 17  1  0
 17 18  2  0
 18 19  1  0
 18 20  1  0
 20 21  2  0
 21 22  1  0
 22 23  2  0
 23 24  1  0
 23 25  1  0
 25 26  2  0
 26 11  1  0
 17 12  1  0
 26 20  1  0
  1 27  1  0
  1 28  1  0
  1 29  1  0
  2 30  1  0
  2 31  1  0
  3 32  1  0
  4 33  1  0
  4 34  1  0
  5 35  1  0
  5 36  1  0
  7 37  1  0
  7 38  1  0
  8 39  1  0
  8 40  1  0
  9 41  1  0
  9 42  1  0
 10 43  1  0
 10 44  1  0
 13 45  1  0
 14 46  1  0
 15 47  1  0
 16 48  1  0
 19 49  1  0
 19 50  1  0
 19 51  1  0
 21 52  1  0
 22 53  1  0
 24 54  1  0
 24 55  1  0
 24 56  1  0
 25 57  1  0
M  CHG  2  10   1  18   1
M  END
>  <UniqueID>  (9) 
9

>  <SMILES>  (9) 
CCNCCOCCC[NH2+]c1c2ccccc2[n+](C)c2ccc(C)cc12

>  <Energy>  (9) 
81.64662859921907

>  <Genealogy>  (9) 
CCNCCOCCC[NH2+]c1c2ccccc2[n+](C)c2ccc(C)cc12 (protonated)
CCNCCOCCC[NH2+]c1c2ccccc2[n+](C)c2ccc(C)cc12 (3D coordinates assigned)
CCNCCOCCC[NH2+]c1c2ccccc2[n+](C)c2ccc(C)cc12 (optimized conformer: 81.64662859921907 kcal/mol)

>  <smiles>  (9) 
CCNCCOCCCNc1c2ccccc2[n+](C)c2ccc(C)cc12

>  <score_type>  (9) 
oracle

>  <origin>  (9) 
adg

>  <m_score__min__energy>  (9) 
-6.8399999999999999

>  <m_primary>  (9) 
energy

$$$$
9:0
     RDKit          3D

 56 58  0  0  0  0  0  0  0  0999 V2000
   -7.2090   13.5700  -34.8760 C   0  0  0  0  0  0  0  0  0  0  0  0
   -6.9550   14.9020  -34.3260 C   0  0  0  0  0  0  0  0  0  0  0  0
   -6.7470   16.0000  -33.8730 C   0  0  0  0  0  0  0  0  0  0  0  0
   -6.4970   17.3130  -33.3340 C   0  0  0  0  0  0  0  0  0  0  0  0
   -5.9710   18.2700  -34.1030 C   0  0  0  0  0  0  0  0  0  0  0  0
   -5.8030   19.6520  -33.5380 C   0  0  0  0  0  0  0  0  0  0  0  0
   -7.1160   20.0620  -32.8130 C   0  0  2  0  0  0  0  0  0  0  0  0
   -7.0840   21.4350  -32.2200 N   0  0  0  0  0  0  0  0  0  0  0  0
   -6.2560   21.4840  -30.9840 C   0  0  0  0  0  0  0  0  0  0  0  0
   -6.6130   22.6760  -30.0650 C   0  0  0  0  0  0  0  0  0  0  0  0
   -7.1130   23.8460  -30.8180 N   0  0  0  0  0  0  0  0  0  0  0  0
   -6.0590   24.5540  -31.5860 C   0  0  0  0  0  0  0  0  0  0  0  0
   -5.3350   25.5940  -30.7220 C   0  0  0  0  0  0  0  0  0  0  0  0
   -3.9730   25.2170  -30.5390 O   0  0  0  0  0  0  0  0  0  0  0  0
   -3.5260   24.2350  -29.6400 C   0  0  0  0  0  0  0  0  0  0  0  0
   -3.4280   24.4800  -28.2560 C   0  0  0  0  0  0  0  0  0  0  0  0
   -2.9890   23.4760  -27.3890 C   0  0  0  0  0  0  0  0  0  0  0  0
   -2.6450   22.2190  -27.8910 C   0  0  0  0  0  0  0  0  0  0  0  0
   -2.7360   21.9620  -29.2610 C   0  0  0  0  0  0  0  0  0  0  0  0
   -3.1680   22.9680  -30.1450 C   0  0  0  0  0  0  0  0  0  0  0  0
   -3.2910   22.6760  -31.6150 C   0  0  0  0  0  0  0  0  0  0  0  0
   -8.3120   23.5150  -31.6340 C   0  0  0  0  0  0  0  0  0  0  0  0
   -8.4240   22.0140  -31.9830 C   0  0  0  0  0  0  0  0  0  0  0  0
   -7.5560   18.9870  -31.7600 C   0  0  0  0  0  0  0  0  0  0  0  0
   -6.8420   17.6230  -31.9000 C   0  0  0  0  0  0  0  0  0  0  0  0
   -7.3457   12.8533  -34.0528 H   0  0  0  0  0  0  0  0  0  0  0  0
   -8.1184   13.5959  -35.4943 H   0  0  0  0  0  0  0  0  0  0  0  0
   -6.3539   13.2594  -35.4943 H   0  0  0  0  0  0  0  0  0  0  0  0
   -5.6649   18.0493  -35.1362 H   0  0  0  0  0  0  0  0  0  0  0  0
   -4.9679   19.6593  -32.8220 H   0  0  0  0  0  0  0  0  0  0  0  0
   -5.5872   20.3629  -34.3492 H   0  0  0  0  0  0  0  0  0  0  0  0
   -7.8823   20.1033  -33.6011 H   0  0  0  0  0  0  0  0  0  0  0  0
   -6.6030   22.0480  -32.9220 H   0  0  0  0  0  0  0  0  0  0  0  0
   -6.4085   20.5504  -30.4226 H   0  0  0  0  0  0  0  0  0  0  0  0
   -5.2082   21.6097  -31.2943 H   0  0  0  0  0  0  0  0  0  0  0  0
   -7.3910   22.3542  -29.3571 H   0  0  0  0  0  0  0  0  0  0  0  0
   -5.6931   22.9829  -29.5457 H   0  0  0  0  0  0  0  0  0  0  0  0
   -5.3261   23.8182  -31.9486 H   0  0  0  0  0  0  0  0  0  0  0  0
   -6.5380   25.0775  -32.4265 H   0  0  0  0  0  0  0  0  0  0  0  0
   -5.3774   26.5738  -31.2203 H   0  0  0  0  0  0  0  0  0  0  0  0
   -5.8274   25.6515  -29.7400 H   0  0  0  0  0  0  0  0  0  0  0  0
   -3.6988   25.4680  -27.8554 H   0  0  0  0  0  0  0  0  0  0  0  0
   -2.9143   23.6759  -26.3099 H   0  0  0  0  0  0  0  0  0  0  0  0
   -2.3017   21.4297  -27.2061 H   0  0  0  0  0  0  0  0  0  0  0  0
   -2.4687   20.9686  -29.6506 H   0  0  0  0  0  0  0  0  0  0  0  0
   -3.7145   21.6705  -31.7549 H   0  0  0  0  0  0  0  0  0  0  0  0
   -3.9519   23.4206  -32.0827 H   0  0  0  0  0  0  0  0  0  0  0  0
   -2.2965   22.7233  -32.0827 H   0  0  0  0  0  0  0  0  0  0  0  0
   -9.2093   23.8093  -31.0699 H   0  0  0  0  0  0  0  0  0  0  0  0
   -8.2185   24.0622  -32.5837 H   0  0  0  0  0  0  0  0  0  0  0  0
   -8.9049   21.4833  -31.1481 H   0  0  0  0  0  0  0  0  0  0  0  0
   -9.0248   21.9058  -32.8981 H   0  0  0  0  0  0  0  0  0  0  0  0
   -7.3456   19.3835  -30.7557 H   0  0  0  0  0  0  0  0  0  0  0  0
   -8.6260   18.7993  -31.9328 H   0  0  0  0  0  0  0  0  0  0  0  0
   -5.9151   17.6445  -31.3080 H   0  0  0  0  0  0  0  0  0  0  0  0
   -7.5263   16.8416  -31.5377 H   0  0  0  0  0  0  0  0  0  0  0  0
  1  2  1  0
  2  3  3  0
  3  4  1  0
  4  5  2  0
  5  6  1  0
  6  7  1  0
  7  8  1  0
  8  9  1  0
  9 10  1  0
 10 11  1  0
 11 12  1  0
 12 13  1  0
 13 14  1  0
 14 15  1  0
 15 16  2  0
 16 17  1  0
 17 18  2  0
 18 19  1  0
 19 20  2  0
 20 21  1  0
 11 22  1  0
 22 23  1  0
  7 24  1  0
 24 25  1  0
 25  4  1  0
 23  8  1  0
 20 15  1  0
  1 26  1  0
  1 27  1  0
  1 28  1  0
  5 29  1  0
  6 30  1  0
  6 31  1  0
  7 32  1  6
  8 33  1  0
  9 34  1  0
  9 35  1  0
 10 36  1  0
 10 37  1  0
 12 38  1  0
 12 39  1  0
 13 40  1  0
 13 41  1  0
 16 42  1  0
 17 43  1  0
 18 44  1  0
 19 45  1  0
 21 46  1  0
 21 47  1  0
 21 48  1  0
 22 49  1  0
 22 50  1  0
 23 51  1  0
 23 52  1  0
 24 53  1  0
 24 54  1  0
 25 55  1  0
 25 56  1  0
M  CHG  1   8   1
M  END
>  <UniqueID>  (10) 
10

>  <SMILES>  (10) 
CC#CC1=CC[C@H]([NH+]2CCN(CCOc3ccccc3C)CC2)CC1

>  <Energy>  (10) 
71.49480957330483

>  <Genealogy>  (10) 
CC#CC1=CCC([NH+]2CCN(CCOc3ccccc3C)CC2)CC1 (protonated)
CC#CC1=CC[C@H]([NH+]2CCN(CCOc3ccccc3C)CC2)CC1 (chirality)
CC#CC1=CC[C@H]([NH+]2CCN(CCOc3ccccc3C)CC2)CC1 (3D coordinates assigned)
CC#CC1=CC[C@H]([NH+]2CCN(CCOc3ccccc3C)CC2)CC1 (nonaromatic ring conformer: 71.49480957330483 kcal/mol)

>  <smiles>  (10) 
CC#CC1=CCC(N2CCN(CCOc3ccccc3C)CC2)CC1

>  <score_type>  (10) 
oracle

>  <origin>  (10) 
adg

>  <m_score__min__energy>  (10) 
-8.1199999999999992

>  <m_primary>  (10) 
energy

$$$$
10:0
     RDKit          3D

 34 36  0  0  0  0  0  0  0  0999 V2000
   -5.6360   24.9010  -29.3610 C   0  0  0  0  0  0  0  0  0  0  0  0
   -6.3030   24.6560  -30.7080 C   0  0  0  0  0  0  0  0  0  0  0  0
   -5.9260   23.3430  -31.2290 N   0  0  0  0  0  0  0  0  0  0  0  0
   -4.6830   22.8650  -31.4820 C   0  0  0  0  0  0  0  0  0  0  0  0
   -3.6290   23.5170  -31.2430 O   0  0  0  0  0  0  0  0  0  0  0  0
   -4.6870   21.6140  -32.0140 N   0  0  0  0  0  0  0  0  0  0  0  0
   -3.5130   20.8100  -32.3490 C   0  0  0  0  0  0  0  0  0  0  0  0
   -6.0030   21.3130  -32.1340 C   0  0  0  0  0  0  0  0  0  0  0  0
   -6.6650   20.1720  -32.6140 C   0  0  0  0  0  0  0  0  0  0  0  0
   -5.9670   19.0390  -33.2360 C   0  0  0  0  0  0  0  0  0  0  0  0
   -5.7490   18.8650  -34.5970 C   0  0  0  0  0  0  0  0  0  0  0  0
   -5.1550   17.6350  -34.9040 C   0  0  0  0  0  0  0  0  0  0  0  0
   -4.9290   16.8300  -33.7950 C   0  0  0  0  0  0  0  0  0  0  0  0
   -5.4750   17.6480  -32.4300 S   0  0  0  0  0  0  0  0  0  0  0  0
   -8.0320   20.1530  -32.5270 N   0  0  0  0  0  0  0  0  0  0  0  0
   -8.7400   21.2140  -32.0180 C   0  0  0  0  0  0  0  0  0  0  0  0
  -10.2330   21.1700  -31.9740 C   0  0  0  0  0  0  0  0  0  0  0  0
   -8.0870   22.3320  -31.5820 N   0  0  0  0  0  0  0  0  0  0  0  0
   -6.7360   22.3550  -31.6470 C   0  0  0  0  0  0  0  0  0  0  0  0
   -6.3364   24.6437  -28.5528 H   0  0  0  0  0  0  0  0  0  0  0  0
   -4.7352   24.2751  -29.2786 H   0  0  0  0  0  0  0  0  0  0  0  0
   -5.3546   25.9612  -29.2786 H   0  0  0  0  0  0  0  0  0  0  0  0
   -7.3953   24.6978  -30.5851 H   0  0  0  0  0  0  0  0  0  0  0  0
   -5.9739   25.4303  -31.4166 H   0  0  0  0  0  0  0  0  0  0  0  0
   -3.0224   20.4740  -31.4235 H   0  0  0  0  0  0  0  0  0  0  0  0
   -3.8241   19.9344  -32.9378 H   0  0  0  0  0  0  0  0  0  0  0  0
   -2.8091   21.4165  -32.9378 H   0  0  0  0  0  0  0  0  0  0  0  0
   -6.0156   19.6161  -35.3551 H   0  0  0  0  0  0  0  0  0  0  0  0
   -4.8917   17.3340  -35.9287 H   0  0  0  0  0  0  0  0  0  0  0  0
   -4.4717   15.8296  -33.8071 H   0  0  0  0  0  0  0  0  0  0  0  0
   -8.5550   19.3180  -32.8790 H   0  0  0  0  0  0  0  0  0  0  0  0
  -10.5688   21.1601  -30.9266 H   0  0  0  0  0  0  0  0  0  0  0  0
  -10.6411   22.0565  -32.4815 H   0  0  0  0  0  0  0  0  0  0  0  0
  -10.5882   20.2610  -32.4815 H   0  0  0  0  0  0  0  0  0  0  0  0
  1  2  1  0
  2  3  1  0
  3  4  1  0
  4  5  2  0
  4  6  1  0
  6  7  1  0
  6  8  1  0
  8  9  2  0
  9 10  1  0
 10 11  2  0
 11 12  1  0
 12 13  2  0
 13 14  1  0
  9 15  1  0
 15 16  2  0
 16 17  1  0
 16 18  1  0
 18 19  2  0
 19  3  1  0
 19  8  1  0
 14 10  1  0
  1 20  1  0
  1 21  1  0
  1 22  1  0
  2 23  1  0
  2 24  1  0
  7 25  1  0
  7 26  1  0
  7 27  1  0
 11 28  1  0
 12 29  1  0
 13 30  1  0
 15 31  1  0
 17 32  1  0
 17 33  1  0
 17 34  1  0
M  CHG  1  15   1
M  END
>  <UniqueID>  (11) 
11

>  <SMILES>  (11) 
CCn1c(=O)n(C)c2c(-c3cccs3)[nH+]c(C)nc21

>  <Energy>  (11) 
108.47733614478588

>  <Genealogy>  (11) 
CCn1c(=O)n(C)c2c(-c3cccs3)[nH+]c(C)nc21 (protonated)
CCn1c(=O)n(C)c2c(-c3cccs3)[nH+]c(C)nc21 (3D coordinates assigned)
CCn1c(=O)n(C)c2c(-c3cccs3)[nH+]c(C)nc21 (optimized conformer: 108.47733614478588 kcal/mol)

>  <smiles>  (11) 
CCn1c(=O)n(C)c2c(-c3cccs3)nc(C)nc21

>  <score_type>  (11) 
oracle

>  <origin>  (11) 
adg

>  <m_score__min__energy>  (11) 
-6.4800000000000004

>  <m_primary>  (11) 
energy

$$$$
11:0
     RDKit          3D

 94 97  0  0  0  0  0  0  0  0999 V2000
    0.3640   25.2100  -36.4260 C   0  0  0  0  0  0  0  0  0  0  0  0
    1.4030   24.1040  -36.2310 C   0  0  0  0  0  0  0  0  0  0  0  0
    0.9280   23.0320  -35.3400 N   0  0  0  0  0  0  0  0  0  0  0  0
    0.2980   21.9270  -36.0760 C   0  0  0  0  0  0  0  0  0  0  0  0
    0.4190   20.6250  -35.2830 C   0  0  0  0  0  0  0  0  0  0  0  0
    1.0830   20.8560  -34.0520 O   0  0  0  0  0  0  0  0  0  0  0  0
    0.3050   20.4300  -32.9500 C   0  0  0  0  0  0  0  0  0  0  0  0
   -1.1570   20.2090  -33.3660 C   0  0  0  0  0  0  0  0  0  0  0  0
   -1.8900   21.4200  -33.3610 O   0  0  0  0  0  0  0  0  0  0  0  0
   -2.2220   21.8250  -32.0440 C   0  0  0  0  0  0  0  0  0  0  0  0
   -3.7430   21.8780  -31.8830 C   0  0  0  0  0  0  0  0  0  0  0  0
   -4.4220   21.6750  -33.1760 N   0  0  0  0  0  0  0  0  0  0  0  0
   -5.5910   20.8230  -33.0290 C   0  0  0  0  0  0  0  0  0  0  0  0
   -6.8160   21.3560  -32.5470 C   0  0  0  0  0  0  0  0  0  0  0  0
   -7.0090   22.7500  -32.3880 C   0  0  0  0  0  0  0  0  0  0  0  0
   -8.2240   23.2610  -31.9410 C   0  0  0  0  0  0  0  0  0  0  0  0
   -9.2780   22.4050  -31.6590 C   0  0  0  0  0  0  0  0  0  0  0  0
   -9.1170   21.0300  -31.8030 C   0  0  0  0  0  0  0  0  0  0  0  0
   -7.8830   20.4730  -32.2260 C   0  0  0  0  0  0  0  0  0  0  0  0
   -7.7120   19.1090  -32.3380 N   0  0  0  0  0  0  0  0  0  0  0  0
   -8.6760   18.1900  -31.6920 C   0  0  0  0  0  0  0  0  0  0  0  0
   -6.6390   18.6060  -33.0460 C   0  0  0  0  0  0  0  0  0  0  0  0
   -6.6060   17.2510  -33.4620 C   0  0  0  0  0  0  0  0  0  0  0  0
   -5.5110   16.7240  -34.1630 C   0  0  0  0  0  0  0  0  0  0  0  0
   -5.4630   15.3810  -34.5710 O   0  0  0  0  0  0  0  0  0  0  0  0
   -6.3050   14.3480  -34.0680 C   0  0  0  0  0  0  0  0  0  0  0  0
   -5.5650   12.9920  -33.9780 C   0  0  0  0  0  0  0  0  0  0  0  0
   -4.6210   12.7930  -32.8210 N   0  0  0  0  0  0  0  0  0  0  0  0
   -5.3060   12.0910  -31.7030 C   0  0  0  0  0  0  0  0  0  0  0  0
   -4.0970   14.1090  -32.3170 C   0  0  0  0  0  0  0  0  0  0  0  0
   -2.7980   14.5440  -33.0270 C   0  0  0  0  0  0  0  0  0  0  0  0
   -1.6730   13.5840  -32.7900 N   0  0  0  0  0  0  0  0  0  0  0  0
   -0.8870   14.0190  -31.6070 C   0  0  0  0  0  0  0  0  0  0  0  0
   -0.7680   13.6010  -33.9670 C   0  0  0  0  0  0  0  0  0  0  0  0
   -2.1690   12.1920  -32.5580 C   0  0  0  0  0  0  0  0  0  0  0  0
   -3.4940   11.9210  -33.3000 C   0  0  0  0  0  0  0  0  0  0  0  0
   -4.4330   17.5500  -34.4830 C   0  0  0  0  0  0  0  0  0  0  0  0
   -3.3620   16.9940  -35.2030 O   0  0  0  0  0  0  0  0  0  0  0  0
   -1.9880   17.2360  -34.9320 C   0  0  0  0  0  0  0  0  0  0  0  0
   -4.4540   18.8990  -34.0970 C   0  0  0  0  0  0  0  0  0  0  0  0
   -5.5480   19.4490  -33.3880 C   0  0  0  0  0  0  0  0  0  0  0  0
    0.0245   25.5714  -35.4441 H   0  0  0  0  0  0  0  0  0  0  0  0
    0.8148   26.0418  -36.9870 H   0  0  0  0  0  0  0  0  0  0  0  0
   -0.4944   24.8119  -36.9870 H   0  0  0  0  0  0  0  0  0  0  0  0
    1.6410   23.6672  -37.2121 H   0  0  0  0  0  0  0  0  0  0  0  0
    2.2892   24.5579  -35.7634 H   0  0  0  0  0  0  0  0  0  0  0  0
    1.7340   22.6580  -34.7860 H   0  0  0  0  0  0  0  0  0  0  0  0
   -0.7657   22.1572  -36.2359 H   0  0  0  0  0  0  0  0  0  0  0  0
    0.8065   21.8054  -37.0438 H   0  0  0  0  0  0  0  0  0  0  0  0
   -0.5870   20.2275  -35.0832 H   0  0  0  0  0  0  0  0  0  0  0  0
    1.0013   19.9012  -35.8721 H   0  0  0  0  0  0  0  0  0  0  0  0
    0.7159   19.4863  -32.5620 H   0  0  0  0  0  0  0  0  0  0  0  0
    0.3364   21.2095  -32.1745 H   0  0  0  0  0  0  0  0  0  0  0  0
   -1.1789   19.7829  -34.3799 H   0  0  0  0  0  0  0  0  0  0  0  0
   -1.6207   19.5237  -32.6411 H   0  0  0  0  0  0  0  0  0  0  0  0
   -1.8040   21.1053  -31.3248 H   0  0  0  0  0  0  0  0  0  0  0  0
   -1.8030   22.8245  -31.8561 H   0  0  0  0  0  0  0  0  0  0  0  0
   -4.0578   21.0889  -31.1843 H   0  0  0  0  0  0  0  0  0  0  0  0
   -4.0186   22.8701  -31.4961 H   0  0  0  0  0  0  0  0  0  0  0  0
   -3.7670   21.2630  -33.8790 H   0  0  0  0  0  0  0  0  0  0  0  0
   -4.6810   22.5950  -33.5980 H   0  0  0  0  0  0  0  0  0  0  0  0
   -6.1850   23.4403  -32.6216 H   0  0  0  0  0  0  0  0  0  0  0  0
   -8.3485   24.3462  -31.8111 H   0  0  0  0  0  0  0  0  0  0  0  0
  -10.2421   22.8130  -31.3212 H   0  0  0  0  0  0  0  0  0  0  0  0
   -9.9633   20.3622  -31.5845 H   0  0  0  0  0  0  0  0  0  0  0  0
   -8.5872   18.2747  -30.5989 H   0  0  0  0  0  0  0  0  0  0  0  0
   -9.6983   18.4563  -31.9985 H   0  0  0  0  0  0  0  0  0  0  0  0
   -8.4589   17.1561  -31.9985 H   0  0  0  0  0  0  0  0  0  0  0  0
   -7.4595   16.5972  -33.2295 H   0  0  0  0  0  0  0  0  0  0  0  0
   -6.6529   14.6305  -33.0634 H   0  0  0  0  0  0  0  0  0  0  0  0
   -7.1502   14.2294  -34.7619 H   0  0  0  0  0  0  0  0  0  0  0  0
   -6.3288   12.2025  -33.9203 H   0  0  0  0  0  0  0  0  0  0  0  0
   -4.9248   12.9610  -34.8720 H   0  0  0  0  0  0  0  0  0  0  0  0
   -4.9304   12.4759  -30.7434 H   0  0  0  0  0  0  0  0  0  0  0  0
   -6.3899   12.2662  -31.7693 H   0  0  0  0  0  0  0  0  0  0  0  0
   -5.1043   11.0117  -31.7693 H   0  0  0  0  0  0  0  0  0  0  0  0
   -4.8639   14.8799  -32.4830 H   0  0  0  0  0  0  0  0  0  0  0  0
   -3.8668   13.9876  -31.2482 H   0  0  0  0  0  0  0  0  0  0  0  0
   -2.9892   14.6051  -34.1085 H   0  0  0  0  0  0  0  0  0  0  0  0
   -2.5002   15.5201  -32.6164 H   0  0  0  0  0  0  0  0  0  0  0  0
   -1.4156   13.7264  -30.6878 H   0  0  0  0  0  0  0  0  0  0  0  0
    0.1032   13.5405  -31.6286 H   0  0  0  0  0  0  0  0  0  0  0  0
   -0.7666   15.1122  -31.6286 H   0  0  0  0  0  0  0  0  0  0  0  0
    0.2774   13.6206  -33.6254 H   0  0  0  0  0  0  0  0  0  0  0  0
   -0.9386   12.6995  -34.5738 H   0  0  0  0  0  0  0  0  0  0  0  0
   -0.9724   14.4955  -34.5738 H   0  0  0  0  0  0  0  0  0  0  0  0
   -1.4099   11.4802  -32.9146 H   0  0  0  0  0  0  0  0  0  0  0  0
   -2.3516   12.0710  -31.4800 H   0  0  0  0  0  0  0  0  0  0  0  0
   -3.3393   12.1052  -34.3734 H   0  0  0  0  0  0  0  0  0  0  0  0
   -3.7766   10.8768  -33.1007 H   0  0  0  0  0  0  0  0  0  0  0  0
   -1.8283   17.2641  -33.8440 H   0  0  0  0  0  0  0  0  0  0  0  0
   -1.3803   16.4311  -35.3711 H   0  0  0  0  0  0  0  0  0  0  0  0
   -1.6919   18.2001  -35.3711 H   0  0  0  0  0  0  0  0  0  0  0  0
   -3.6000   19.5439  -34.3516 H   0  0  0  0  0  0  0  0  0  0  0  0
  1  2  1  0
  2  3  1  0
  3  4  1  0
  4  5  1  0
  5  6  1  0
  6  7  1  0
  7  8  1  0
  8  9  1  0
  9 10  1  0
 10 11  1  0
 11 12  1  0
 12 13  1  0
 13 14  2  0
 14 15  1  0
 15 16  2  0
 16 17  1  0
 17 18  2  0
 18 19  1  0
 19 20  2  0
 20 21  1  0
 20 22  1  0
 22 23  2  0
 23 24  1  0
 24 25  1  0
 25 26  1  0
 26 27  1  0
 27 28  1  0
 28 29  1  0
 28 30  1  0
 30 31  1  0
 31 32  1  0
 32 33  1  0
 32 34  1  0
 32 35  1  0
 35 36  1  0
 24 37  2  0
 37 38  1  0
 38 39  1  0
 37 40  1  0
 40 41  2  0
 41 13  1  0
 19 14  1  0
 41 22  1  0
 36 28  1  0
  1 42  1  0
  1 43  1  0
  1 44  1  0
  2 45  1  0
  2 46  1  0
  3 47  1  0
  4 48  1  0
  4 49  1  0
  5 50  1  0
  5 51  1  0
  7 52  1  0
  7 53  1  0
  8 54  1  0
  8 55  1  0
 10 56  1  0
 10 57  1  0
 11 58  1  0
 11 59  1  0
 12 60  1  0
 12 61  1  0
 15 62  1  0
 16 63  1  0
 17 64  1  0
 18 65  1  0
 21 66  1  0
 21 67  1  0
 21 68  1  0
 23 69  1  0
 26 70  1  0
 26 71  1  0
 27 72  1  0
 27 73  1  0
 29 74  1  0
 29 75  1  0
 29 76  1  0
 30 77  1  0
 30 78  1  0
 31 79  1  0
 31 80  1  0
 33 81  1  0
 33 82  1  0
 33 83  1  0
 34 84  1  0
 34 85  1  0
 34 86  1  0
 35 87  1  0
 35 88  1  0
 36 89  1  0
 36 90  1  0
 39 91  1  0
 39 92  1  0
 39 93  1  0
 40 94  1  0
M  CHG  4  12   1  20   1  28   1  32   1
M  END
>  <UniqueID>  (12) 
12

>  <SMILES>  (12) 
CCNCCOCCOCC[NH2+]c1c2ccccc2[n+](C)c2cc(OCC[N+]3(C)CC[N+](C)(C)CC3)c(OC)cc12

>  <Energy>  (12) 
149.65493406656728

>  <Genealogy>  (12) 
CCNCCOCCOCC[NH2+]c1c2ccccc2[n+](C)c2cc(OCC[N+]3(C)CC[N+](C)(C)CC3)c(OC)cc12 (protonated)
CCNCCOCCOCC[NH2+]c1c2ccccc2[n+](C)c2cc(OCC[N+]3(C)CC[N+](C)(C)CC3)c(OC)cc12 (3D coordinates assigned)
CCNCCOCCOCC[NH2+]c1c2ccccc2[n+](C)c2cc(OCC[N+]3(C)CC[N+](C)(C)CC3)c(OC)cc12 (nonaromatic ring conformer: 149.65493406656728 kcal/mol)

>  <smiles>  (12) 
CCNCCOCCOCCNc1c2ccccc2[n+](C)c2cc(OCC[N+]3(C)CC[N+](C)(C)CC3)c(OC)cc12

>  <score_type>  (12) 
oracle

>  <origin>  (12) 
adg

>  <m_score__min__energy>  (12) 
-7.7199999999999998

>  <m_primary>  (12) 
energy

$$$$
12:0
     RDKit          3D

 60 63  0  0  0  0  0  0  0  0999 V2000
   -0.1500   21.3200  -31.0120 C   0  0  0  0  0  0  0  0  0  0  0  0
    0.2430   19.8680  -31.2650 C   0  0  0  0  0  0  0  0  0  0  0  0
   -0.3020   19.3800  -32.5410 N   0  0  0  0  0  0  0  0  0  0  0  0
   -0.6350   20.4640  -33.4840 C   0  0  0  0  0  0  0  0  0  0  0  0
   -2.1360   20.7750  -33.4530 C   0  0  0  0  0  0  0  0  0  0  0  0
   -2.7540   20.3420  -32.1970 N   0  0  0  0  0  0  0  0  0  0  0  0
   -4.1800   20.3160  -32.0220 C   0  0  0  0  0  0  0  0  0  0  0  0
   -4.9260   19.1780  -32.3950 C   0  0  0  0  0  0  0  0  0  0  0  0
   -6.3400   19.2440  -32.3590 C   0  0  0  0  0  0  0  0  0  0  0  0
   -6.9710   20.4390  -32.0720 N   0  0  0  0  0  0  0  0  0  0  0  0
   -8.3990   20.6230  -32.4090 C   0  0  0  0  0  0  0  0  0  0  0  0
   -6.2590   21.4810  -31.5170 C   0  0  0  0  0  0  0  0  0  0  0  0
   -6.9050   22.6060  -30.9480 C   0  0  0  0  0  0  0  0  0  0  0  0
   -6.1730   23.6620  -30.4100 C   0  0  0  0  0  0  0  0  0  0  0  0
   -4.7740   23.6330  -30.4150 C   0  0  0  0  0  0  0  0  0  0  0  0
   -4.0000   24.6970  -29.8350 N   0  0  0  0  0  0  0  0  0  0  0  0
   -2.6680   24.5410  -29.3270 C   0  0  0  0  0  0  0  0  0  0  0  0
   -2.1690   23.3930  -29.1790 O   0  0  0  0  0  0  0  0  0  0  0  0
   -1.9460   25.6800  -28.9540 O   0  0  0  0  0  0  0  0  0  0  0  0
   -1.3110   25.8280  -27.6860 C   0  0  0  0  0  0  0  0  0  0  0  0
   -2.1820   25.2490  -26.5770 C   0  0  0  0  0  0  0  0  0  0  0  0
   -4.1200   22.5080  -30.9260 C   0  0  0  0  0  0  0  0  0  0  0  0
   -4.8430   21.4370  -31.4910 C   0  0  0  0  0  0  0  0  0  0  0  0
   -7.1100   17.9890  -32.6220 C   0  0  0  0  0  0  0  0  0  0  0  0
   -8.2840   17.8530  -32.1820 O   0  0  0  0  0  0  0  0  0  0  0  0
   -6.4700   16.8590  -33.3220 C   0  0  0  0  0  0  0  0  0  0  0  0
   -7.2400   15.8010  -33.8400 C   0  0  0  0  0  0  0  0  0  0  0  0
   -6.6200   14.7290  -34.4850 C   0  0  0  0  0  0  0  0  0  0  0  0
   -5.2300   14.6980  -34.6130 C   0  0  0  0  0  0  0  0  0  0  0  0
   -4.4570   15.7400  -34.0950 C   0  0  0  0  0  0  0  0  0  0  0  0
   -5.0710   16.8270  -33.4460 C   0  0  0  0  0  0  0  0  0  0  0  0
   -4.2640   17.9240  -32.8720 C   0  0  0  0  0  0  0  0  0  0  0  0
   -3.0140   17.7790  -32.7830 O   0  0  0  0  0  0  0  0  0  0  0  0
   -0.1995   21.5030  -29.9285 H   0  0  0  0  0  0  0  0  0  0  0  0
    0.6000   21.9867  -31.4625 H   0  0  0  0  0  0  0  0  0  0  0  0
   -1.1339   21.5174  -31.4625 H   0  0  0  0  0  0  0  0  0  0  0  0
    1.3401   19.7936  -31.2924 H   0  0  0  0  0  0  0  0  0  0  0  0
   -0.1695   19.2508  -30.4533 H   0  0  0  0  0  0  0  0  0  0  0  0
   -1.1850   18.8620  -32.3200 H   0  0  0  0  0  0  0  0  0  0  0  0
   -0.0741   21.3684  -33.2056 H   0  0  0  0  0  0  0  0  0  0  0  0
   -0.3641   20.1412  -34.5001 H   0  0  0  0  0  0  0  0  0  0  0  0
   -2.2775   21.8602  -33.5642 H   0  0  0  0  0  0  0  0  0  0  0  0
   -2.6163   20.2279  -34.2776 H   0  0  0  0  0  0  0  0  0  0  0  0
   -2.1430   20.1390  -31.3740 H   0  0  0  0  0  0  0  0  0  0  0  0
   -8.9875   20.6988  -31.4828 H   0  0  0  0  0  0  0  0  0  0  0  0
   -8.5211   21.5443  -32.9975 H   0  0  0  0  0  0  0  0  0  0  0  0
   -8.7507   19.7627  -32.9975 H   0  0  0  0  0  0  0  0  0  0  0  0
   -8.0041   22.6464  -30.9307 H   0  0  0  0  0  0  0  0  0  0  0  0
   -6.6991   24.5259  -29.9776 H   0  0  0  0  0  0  0  0  0  0  0  0
   -4.4600   25.6250  -29.6930 H   0  0  0  0  0  0  0  0  0  0  0  0
   -0.3466   25.2992  -27.7011 H   0  0  0  0  0  0  0  0  0  0  0  0
   -1.1555   26.8993  -27.4910 H   0  0  0  0  0  0  0  0  0  0  0  0
   -1.7632   25.5274  -25.5987 H   0  0  0  0  0  0  0  0  0  0  0  0
   -3.2029   25.6489  -26.6660 H   0  0  0  0  0  0  0  0  0  0  0  0
   -2.2085   24.1529  -26.6660 H   0  0  0  0  0  0  0  0  0  0  0  0
   -3.0219   22.4573  -30.8867 H   0  0  0  0  0  0  0  0  0  0  0  0
   -8.3350   15.8186  -33.7363 H   0  0  0  0  0  0  0  0  0  0  0  0
   -7.2275   13.9077  -34.8929 H   0  0  0  0  0  0  0  0  0  0  0  0
   -4.7434   13.8528  -35.1219 H   0  0  0  0  0  0  0  0  0  0  0  0
   -3.3620   15.7105  -34.1951 H   0  0  0  0  0  0  0  0  0  0  0  0
  1  2  1  0
  2  3  1  0
  3  4  1  0
  4  5  1  0
  5  6  1  0
  6  7  1  0
  7  8  2  0
  8  9  1  0
  9 10  2  0
 10 11  1  0
 10 12  1  0
 12 13  2  0
 13 14  1  0
 14 15  2  0
 15 16  1  0
 16 17  1  0
 17 18  2  0
 17 19  1  0
 19 20  1  0
 20 21  1  0
 15 22  1  0
 22 23  2  0
  9 24  1  0
 24 25  2  0
 24 26  1  0
 26 27  2  0
 27 28  1  0
 28 29  2  0
 29 30  1  0
 30 31  2  0
 31 32  1  0
 32 33  2  0
 23  7  1  0
 31 26  1  0
 32  8  1  0
 23 12  1  0
  1 34  1  0
  1 35  1  0
  1 36  1  0
  2 37  1  0
  2 38  1  0
  3 39  1  0
  4 40  1  0
  4 41  1  0
  5 42  1  0
  5 43  1  0
  6 44  1  0
 11 45  1  0
 11 46  1  0
 11 47  1  0
 13 48  1  0
 14 49  1  0
 16 50  1  0
 20 51  1  0
 20 52  1  0
 21 53  1  0
 21 54  1  0
 21 55  1  0
 22 56  1  0
 27 57  1  0
 28 58  1  0
 29 59  1  0
 30 60  1  0
M  CHG  1  10   1
M  END
>  <UniqueID>  (13) 
13

>  <SMILES>  (13) 
CCNCCNc1c2c([n+](C)c3ccc(NC(=O)OCC)cc13)C(=O)c1ccccc1C2=O

>  <Energy>  (13) 
89.09433496392806

>  <Genealogy>  (13) 
CCNCCNc1c2c([n+](C)c3ccc(NC(=O)OCC)cc13)C(=O)c1ccccc1C2=O (3D coordinates assigned)
CCNCCNc1c2c([n+](C)c3ccc(NC(=O)OCC)cc13)C(=O)c1ccccc1C2=O (nonaromatic ring conformer: 89.09433496392806 kcal/mol)

>  <smiles>  (13) 
CCNCCNc1c2c([n+](C)c3ccc(NC(=O)OCC)cc13)C(=O)c1ccccc1C2=O

>  <score_type>  (13) 
oracle

>  <origin>  (13) 
adg

>  <m_score__min__energy>  (13) 
-9.25

>  <m_primary>  (13) 
energy

$$$$
13:0
     RDKit          3D

 41 43  0  0  0  0  0  0  0  0999 V2000
   -9.8700   21.0930  -31.9890 C   0  0  0  0  0  0  0  0  0  0  0  0
   -8.4550   21.6150  -31.9290 C   0  0  0  0  0  0  0  0  0  0  0  0
   -8.2960   22.9670  -31.6030 C   0  0  0  0  0  0  0  0  0  0  0  0
   -7.0670   23.5900  -31.7560 C   0  0  0  0  0  0  0  0  0  0  0  0
   -5.9950   22.8950  -32.3010 C   0  0  0  0  0  0  0  0  0  0  0  0
   -6.1090   21.5250  -32.6420 C   0  0  0  0  0  0  0  0  0  0  0  0
   -5.0560   20.8250  -33.3000 C   0  0  0  0  0  0  0  0  0  0  0  0
   -3.8340   21.5300  -33.6760 N   0  0  0  0  0  0  0  0  0  0  0  0
   -2.8430   21.5400  -32.5820 C   0  0  0  0  0  0  0  0  0  0  0  0
   -1.4880   20.9470  -32.9940 C   0  0  0  0  0  0  0  0  0  0  0  0
   -1.2240   21.1810  -34.4110 N   0  0  0  0  0  0  0  0  0  0  0  0
   -5.2480   19.4470  -33.6140 C   0  0  0  0  0  0  0  0  0  0  0  0
   -4.3020   18.6880  -34.3510 C   0  0  0  0  0  0  0  0  0  0  0  0
   -4.5210   17.3440  -34.6430 C   0  0  0  0  0  0  0  0  0  0  0  0
   -5.6820   16.7160  -34.2160 C   0  0  0  0  0  0  0  0  0  0  0  0
   -6.6220   17.4250  -33.4770 C   0  0  0  0  0  0  0  0  0  0  0  0
   -6.4200   18.7870  -33.1460 C   0  0  0  0  0  0  0  0  0  0  0  0
   -7.3400   19.4630  -32.3770 N   0  0  0  0  0  0  0  0  0  0  0  0
   -8.2070   18.6920  -31.4600 C   0  0  0  0  0  0  0  0  0  0  0  0
   -7.3140   20.8410  -32.3160 C   0  0  0  0  0  0  0  0  0  0  0  0
  -10.2524   20.9519  -30.9673 H   0  0  0  0  0  0  0  0  0  0  0  0
  -10.5052   21.8160  -32.5217 H   0  0  0  0  0  0  0  0  0  0  0  0
   -9.8835   20.1307  -32.5217 H   0  0  0  0  0  0  0  0  0  0  0  0
   -9.1540   23.5403  -31.2220 H   0  0  0  0  0  0  0  0  0  0  0  0
   -6.9405   24.6375  -31.4450 H   0  0  0  0  0  0  0  0  0  0  0  0
   -5.0418   23.4172  -32.4706 H   0  0  0  0  0  0  0  0  0  0  0  0
   -3.4040   21.1780  -34.5550 H   0  0  0  0  0  0  0  0  0  0  0  0
   -4.0640   22.5140  -33.9380 H   0  0  0  0  0  0  0  0  0  0  0  0
   -2.6870   22.5802  -32.2600 H   0  0  0  0  0  0  0  0  0  0  0  0
   -3.2427   20.9142  -31.7704 H   0  0  0  0  0  0  0  0  0  0  0  0
   -0.6928   21.4178  -32.3973 H   0  0  0  0  0  0  0  0  0  0  0  0
   -1.5116   19.8617  -32.8162 H   0  0  0  0  0  0  0  0  0  0  0  0
   -1.2340   22.2140  -34.5700 H   0  0  0  0  0  0  0  0  0  0  0  0
   -2.0220   20.7880  -34.9620 H   0  0  0  0  0  0  0  0  0  0  0  0
   -3.3769   19.1711  -34.6987 H   0  0  0  0  0  0  0  0  0  0  0  0
   -3.7705   16.7782  -35.2144 H   0  0  0  0  0  0  0  0  0  0  0  0
   -5.8585   15.6585  -34.4619 H   0  0  0  0  0  0  0  0  0  0  0  0
   -7.5397   16.9187  -33.1432 H   0  0  0  0  0  0  0  0  0  0  0  0
   -7.9414   18.9282  -30.4190 H   0  0  0  0  0  0  0  0  0  0  0  0
   -9.2591   18.9583  -31.6395 H   0  0  0  0  0  0  0  0  0  0  0  0
   -8.0654   17.6160  -31.6395 H   0  0  0  0  0  0  0  0  0  0  0  0
  1  2  1  0
  2  3  2  0
  3  4  1  0
  4  5  2  0
  5  6  1  0
  6  7  2  0
  7  8  1  0
  8  9  1  0
  9 10  1  0
 10 11  1  0
  7 12  1  0
 12 13  2  0
 13 14  1  0
 14 15  2  0
 15 16  1  0
 16 17  2  0
 17 18  1  0
 18 19  1  0
 18 20  2  0
 20  2  1  0
 20  6  1  0
 17 12  1  0
  1 21  1  0
  1 22  1  0
  1 23  1  0
  3 24  1  0
  4 25  1  0
  5 26  1  0
  8 27  1  0
  8 28  1  0
  9 29  1  0
  9 30  1  0
 10 31  1  0
 10 32  1  0
 11 33  1  0
 11 34  1  0
 13 35  1  0
 14 36  1  0
 15 37  1  0
 16 38  1  0
 19 39  1  0
 19 40  1  0
 19 41  1  0
M  CHG  2   8   1  18   1
M  END
>  <UniqueID>  (14) 
14

>  <SMILES>  (14) 
Cc1cccc2c([NH2+]CCN)c3ccccc3[n+](C)c12

>  <Energy>  (14) 
79.87377280971448

>  <Genealogy>  (14) 
Cc1cccc2c([NH2+]CCN)c3ccccc3[n+](C)c12 (protonated)
Cc1cccc2c([NH2+]CCN)c3ccccc3[n+](C)c12 (3D coordinates assigned)
Cc1cccc2c([NH2+]CCN)c3ccccc3[n+](C)c12 (optimized conformer: 79.87377280971448 kcal/mol)

>  <smiles>  (14) 
Cc1cccc2c(NCCN)c3ccccc3[n+](C)c12

>  <score_type>  (14) 
oracle

>  <origin>  (14) 
adg

>  <m_score__min__energy>  (14) 
-7.4100000000000001

>  <m_primary>  (14) 
energy

$$$$
14:0
     RDKit          3D

 40 41  0  0  0  0  0  0  0  0999 V2000
   -6.1550   25.2820  -29.3870 C   0  0  0  0  0  0  0  0  0  0  0  0
   -5.7310   25.6610  -30.8020 C   0  0  0  0  0  0  0  0  0  0  0  0
   -4.4850   24.9680  -31.1650 N   0  0  0  0  0  0  0  0  0  0  0  0
   -3.8440   24.3100  -30.0140 C   0  0  0  0  0  0  0  0  0  0  0  0
   -2.8690   23.1990  -30.4480 C   0  0  0  0  0  0  0  0  0  0  0  0
   -3.5920   21.8810  -30.7620 C   0  0  0  0  0  0  0  0  0  0  0  0
   -3.1930   21.3470  -32.0770 N   0  0  0  0  0  0  0  0  0  0  0  0
   -4.1690   21.6450  -33.1380 C   0  0  0  0  0  0  0  0  0  0  0  0
   -5.4020   20.7770  -33.0060 C   0  0  0  0  0  0  0  0  0  0  0  0
   -5.2940   19.4120  -33.3230 C   0  0  0  0  0  0  0  0  0  0  0  0
   -6.3880   18.5570  -33.1840 C   0  0  0  0  0  0  0  0  0  0  0  0
   -6.2060   16.7030  -33.6110 Br  0  0  0  0  0  0  0  0  0  0  0  0
   -7.6100   19.0480  -32.7290 C   0  0  0  0  0  0  0  0  0  0  0  0
   -7.7510   20.4040  -32.4070 C   0  0  0  0  0  0  0  0  0  0  0  0
   -8.9840   20.8870  -31.9410 C   0  0  0  0  0  0  0  0  0  0  0  0
   -9.1320   22.2340  -31.6110 C   0  0  0  0  0  0  0  0  0  0  0  0
   -8.0550   23.1090  -31.7390 C   0  0  0  0  0  0  0  0  0  0  0  0
   -6.8200   22.6460  -32.1990 C   0  0  0  0  0  0  0  0  0  0  0  0
   -6.6450   21.2870  -32.5410 C   0  0  0  0  0  0  0  0  0  0  0  0
   -5.5395   25.8322  -28.6600 H   0  0  0  0  0  0  0  0  0  0  0  0
   -7.2142   25.5398  -29.2402 H   0  0  0  0  0  0  0  0  0  0  0  0
   -6.0171   24.2006  -29.2402 H   0  0  0  0  0  0  0  0  0  0  0  0
   -6.5246   25.3740  -31.5076 H   0  0  0  0  0  0  0  0  0  0  0  0
   -5.5620   26.7471  -30.8459 H   0  0  0  0  0  0  0  0  0  0  0  0
   -3.8220   25.6560  -31.5910 H   0  0  0  0  0  0  0  0  0  0  0  0
   -3.2877   25.0649  -29.4390 H   0  0  0  0  0  0  0  0  0  0  0  0
   -4.6351   23.8467  -29.4061 H   0  0  0  0  0  0  0  0  0  0  0  0
   -2.3318   23.5313  -31.3485 H   0  0  0  0  0  0  0  0  0  0  0  0
   -2.1766   23.0132  -29.6137 H   0  0  0  0  0  0  0  0  0  0  0  0
   -3.3428   21.1427  -29.9856 H   0  0  0  0  0  0  0  0  0  0  0  0
   -4.6742   22.0769  -30.7825 H   0  0  0  0  0  0  0  0  0  0  0  0
   -3.1390   20.3040  -31.9950 H   0  0  0  0  0  0  0  0  0  0  0  0
   -4.4649   22.7021  -33.0669 H   0  0  0  0  0  0  0  0  0  0  0  0
   -3.6999   21.4385  -34.1113 H   0  0  0  0  0  0  0  0  0  0  0  0
   -4.3352   19.0127  -33.6852 H   0  0  0  0  0  0  0  0  0  0  0  0
   -8.4678   18.3678  -32.6222 H   0  0  0  0  0  0  0  0  0  0  0  0
   -9.8369   20.2003  -31.8357 H   0  0  0  0  0  0  0  0  0  0  0  0
  -10.1015   22.6067  -31.2487 H   0  0  0  0  0  0  0  0  0  0  0  0
   -8.1781   24.1701  -31.4764 H   0  0  0  0  0  0  0  0  0  0  0  0
   -5.9768   23.3457  -32.2957 H   0  0  0  0  0  0  0  0  0  0  0  0
  1  2  1  0
  2  3  1  0
  3  4  1  0
  4  5  1  0
  5  6  1  0
  6  7  1  0
  7  8  1  0
  8  9  1  0
  9 10  2  0
 10 11  1  0
 11 12  1  0
 11 13  2  0
 13 14  1  0
 14 15  2  0
 15 16  1  0
 16 17  2  0
 17 18  1  0
 18 19  2  0
 19  9  1  0
 19 14  1  0
  1 20  1  0
  1 21  1  0
  1 22  1  0
  2 23  1  0
  2 24  1  0
  3 25  1  0
  4 26  1  0
  4 27  1  0
  5 28  1  0
  5 29  1  0
  6 30  1  0
  6 31  1  0
  7 32  1  0
  8 33  1  0
  8 34  1  0
 10 35  1  0
 13 36  1  0
 15 37  1  0
 16 38  1  0
 17 39  1  0
 18 40  1  0
M  END
>  <UniqueID>  (15) 
15

>  <SMILES>  (15) 
CCNCCCNCc1cc(Br)cc2ccccc12

>  <Energy>  (15) 
36.43027897463225

>  <Genealogy>  (15) 
CCNCCCNCc1cc(Br)cc2ccccc12 (3D coordinates assigned)
CCNCCCNCc1cc(Br)cc2ccccc12 (optimized conformer: 36.43027897463225 kcal/mol)

>  <smiles>  (15) 
CCNCCCNCc1cc(Br)cc2ccccc12

>  <score_type>  (15) 
oracle

>  <origin>  (15) 
adg

>  <m_score__min__energy>  (15) 
-8.5099999999999998

>  <m_primary>  (15) 
energy

$$$$
15:0
     RDKit          3D

 45 47  0  0  0  0  0  0  0  0999 V2000
   -6.3960   24.8540  -29.7500 C   0  0  0  0  0  0  0  0  0  0  0  0
   -5.3670   25.3290  -30.7690 C   0  0  0  0  0  0  0  0  0  0  0  0
   -4.5760   24.2390  -31.2180 O   0  0  0  0  0  0  0  0  0  0  0  0
   -4.7130   23.1190  -30.3590 C   0  0  0  0  0  0  0  0  0  0  0  0
   -3.7100   22.0150  -30.7510 C   0  0  0  0  0  0  0  0  0  0  0  0
   -3.4020   21.9780  -32.2650 C   0  0  0  0  0  0  0  0  0  0  0  0
   -4.5990   22.1140  -33.1270 N   0  0  0  0  0  0  0  0  0  0  0  0
   -5.6240   21.1140  -32.8510 C   0  0  0  0  0  0  0  0  0  0  0  0
   -6.9320   21.5190  -32.4500 C   0  0  0  0  0  0  0  0  0  0  0  0
   -7.2830   22.8900  -32.3270 C   0  0  0  0  0  0  0  0  0  0  0  0
   -8.5530   23.2790  -31.9130 C   0  0  0  0  0  0  0  0  0  0  0  0
   -9.5110   22.3230  -31.6170 C   0  0  0  0  0  0  0  0  0  0  0  0
   -9.2080   20.9690  -31.7420 C   0  0  0  0  0  0  0  0  0  0  0  0
   -7.9230   20.5340  -32.1680 C   0  0  0  0  0  0  0  0  0  0  0  0
   -7.6380   19.1920  -32.3130 N   0  0  0  0  0  0  0  0  0  0  0  0
   -8.6810   18.1810  -32.0160 C   0  0  0  0  0  0  0  0  0  0  0  0
   -6.3940   18.7820  -32.7350 C   0  0  0  0  0  0  0  0  0  0  0  0
   -6.1360   17.4500  -32.8960 N   0  0  0  0  0  0  0  0  0  0  0  0
   -4.9350   16.9660  -33.2940 C   0  0  0  0  0  0  0  0  0  0  0  0
   -3.8920   17.8400  -33.5490 C   0  0  0  0  0  0  0  0  0  0  0  0
   -4.0970   19.2090  -33.4020 C   0  0  0  0  0  0  0  0  0  0  0  0
   -5.3610   19.7220  -33.0030 C   0  0  0  0  0  0  0  0  0  0  0  0
   -6.0140   25.0303  -28.7336 H   0  0  0  0  0  0  0  0  0  0  0  0
   -7.3348   25.4099  -29.8904 H   0  0  0  0  0  0  0  0  0  0  0  0
   -6.5819   23.7790  -29.8904 H   0  0  0  0  0  0  0  0  0  0  0  0
   -5.8877   25.7772  -31.6281 H   0  0  0  0  0  0  0  0  0  0  0  0
   -4.7116   26.0738  -30.2939 H   0  0  0  0  0  0  0  0  0  0  0  0
   -4.5207   23.4318  -29.3221 H   0  0  0  0  0  0  0  0  0  0  0  0
   -5.7347   22.7218  -30.4507 H   0  0  0  0  0  0  0  0  0  0  0  0
   -2.7695   22.1888  -30.2076 H   0  0  0  0  0  0  0  0  0  0  0  0
   -4.1685   21.0502  -30.4883 H   0  0  0  0  0  0  0  0  0  0  0  0
   -2.7125   22.8028  -32.4979 H   0  0  0  0  0  0  0  0  0  0  0  0
   -2.9676   20.9899  -32.4773 H   0  0  0  0  0  0  0  0  0  0  0  0
   -5.0110   23.0660  -32.9890 H   0  0  0  0  0  0  0  0  0  0  0  0
   -4.3070   22.1550  -34.1260 H   0  0  0  0  0  0  0  0  0  0  0  0
   -6.5347   23.6606  -32.5642 H   0  0  0  0  0  0  0  0  0  0  0  0
   -8.7969   24.3476  -31.8205 H   0  0  0  0  0  0  0  0  0  0  0  0
  -10.5120   22.6334  -31.2829 H   0  0  0  0  0  0  0  0  0  0  0  0
   -9.9790   20.2207  -31.5062 H   0  0  0  0  0  0  0  0  0  0  0  0
   -8.7898   18.0756  -30.9265 H   0  0  0  0  0  0  0  0  0  0  0  0
   -9.6386   18.5036  -32.4506 H   0  0  0  0  0  0  0  0  0  0  0  0
   -8.3884   17.2138  -32.4506 H   0  0  0  0  0  0  0  0  0  0  0  0
   -4.7890   15.8824  -33.4142 H   0  0  0  0  0  0  0  0  0  0  0  0
   -2.9106   17.4563  -33.8648 H   0  0  0  0  0  0  0  0  0  0  0  0
   -3.2677   19.9047  -33.5977 H   0  0  0  0  0  0  0  0  0  0  0  0
  1  2  1  0
  2  3  1  0
  3  4  1  0
  4  5  1  0
  5  6  1  0
  6  7  1  0
  7  8  1  0
  8  9  2  0
  9 10  1  0
 10 11  2  0
 11 12  1  0
 12 13  2  0
 13 14  1  0
 14 15  2  0
 15 16  1  0
 15 17  1  0
 17 18  2  0
 18 19  1  0
 19 20  2  0
 20 21  1  0
 21 22  2  0
 22  8  1  0
 14  9  1  0
 22 17  1  0
  1 23  1  0
  1 24  1  0
  1 25  1  0
  2 26  1  0
  2 27  1  0
  4 28  1  0
  4 29  1  0
  5 30  1  0
  5 31  1  0
  6 32  1  0
  6 33  1  0
  7 34  1  0
  7 35  1  0
 10 36  1  0
 11 37  1  0
 12 38  1  0
 13 39  1  0
 16 40  1  0
 16 41  1  0
 16 42  1  0
 19 43  1  0
 20 44  1  0
 21 45  1  0
M  CHG  2   7   1  15   1
M  END
>  <UniqueID>  (16) 
16

>  <SMILES>  (16) 
CCOCCC[NH2+]c1c2ccccc2[n+](C)c2ncccc12

>  <Energy>  (16) 
72.31011393431974

>  <Genealogy>  (16) 
CCOCCC[NH2+]c1c2ccccc2[n+](C)c2ncccc12 (protonated)
CCOCCC[NH2+]c1c2ccccc2[n+](C)c2ncccc12 (3D coordinates assigned)
CCOCCC[NH2+]c1c2ccccc2[n+](C)c2ncccc12 (optimized conformer: 72.31011393431974 kcal/mol)

>  <smiles>  (16) 
CCOCCCNc1c2ccccc2[n+](C)c2ncccc12

>  <score_type>  (16) 
oracle

>  <origin>  (16) 
adg

>  <m_score__min__energy>  (16) 
-7.4000000000000004

>  <m_primary>  (16) 
energy

$$$$
16:0
     RDKit          3D

 62 66  0  0  0  0  0  0  0  0999 V2000
    1.2640   20.1580  -36.7600 C   0  0  0  0  0  0  0  0  0  0  0  0
    0.5230   21.4490  -36.3990 C   0  0  0  0  0  0  0  0  0  0  0  0
    1.0550   22.1230  -35.1930 N   0  0  0  0  0  0  0  0  0  0  0  0
    1.8900   23.3210  -35.4740 C   0  0  0  0  0  0  0  0  0  0  0  0
    1.1360   24.5150  -36.0810 C   0  0  0  0  0  0  0  0  0  0  0  0
    1.5460   21.1910  -34.1520 C   0  0  0  0  0  0  0  0  0  0  0  0
    0.3660   20.5430  -33.3910 C   0  0  0  0  0  0  0  0  0  0  0  0
   -0.9800   21.1130  -33.6690 N   0  0  0  0  0  0  0  0  0  0  0  0
   -2.0940   20.1760  -33.6080 C   0  0  0  0  0  0  0  0  0  0  0  0
   -3.3230   20.5520  -33.0100 C   0  0  0  0  0  0  0  0  0  0  0  0
   -4.3360   19.5730  -32.8380 C   0  0  0  0  0  0  0  0  0  0  0  0
   -4.0510   18.2450  -33.0710 N   0  0  0  0  0  0  0  0  0  0  0  0
   -4.8110   17.1820  -32.3870 C   0  0  0  0  0  0  0  0  0  0  0  0
   -2.9700   17.9050  -33.8550 C   0  0  0  0  0  0  0  0  0  0  0  0
   -2.8270   16.5970  -34.3820 C   0  0  0  0  0  0  0  0  0  0  0  0
   -1.7380   16.2600  -35.1810 C   0  0  0  0  0  0  0  0  0  0  0  0
   -0.7700   17.2110  -35.4800 C   0  0  0  0  0  0  0  0  0  0  0  0
   -0.8830   18.5040  -34.9750 C   0  0  0  0  0  0  0  0  0  0  0  0
   -1.9750   18.8730  -34.1550 C   0  0  0  0  0  0  0  0  0  0  0  0
   -5.6900   20.0580  -32.4250 C   0  0  0  0  0  0  0  0  0  0  0  0
   -6.8650   19.3730  -32.4570 N   0  0  0  0  0  0  0  0  0  0  0  0
   -7.8270   20.2780  -32.2000 C   0  0  0  0  0  0  0  0  0  0  0  0
   -9.2050   20.0630  -32.1950 C   0  0  0  0  0  0  0  0  0  0  0  0
  -10.0450   21.1760  -32.0090 C   0  0  0  0  0  0  0  0  0  0  0  0
   -9.4970   22.4690  -31.8600 C   0  0  0  0  0  0  0  0  0  0  0  0
   -8.1040   22.6590  -31.8890 C   0  0  0  0  0  0  0  0  0  0  0  0
   -7.2970   21.5310  -32.0420 C   0  0  0  0  0  0  0  0  0  0  0  0
   -5.9340   21.4010  -32.1860 C   0  0  0  0  0  0  0  0  0  0  0  0
   -4.9510   22.4770  -32.4950 C   0  0  0  0  0  0  0  0  0  0  0  0
   -3.5150   21.9460  -32.4040 C   0  0  0  0  0  0  0  0  0  0  0  0
    1.5631   19.6370  -35.8385 H   0  0  0  0  0  0  0  0  0  0  0  0
    0.6016   19.5078  -37.3504 H   0  0  0  0  0  0  0  0  0  0  0  0
    2.1595   20.4020  -37.3504 H   0  0  0  0  0  0  0  0  0  0  0  0
    0.6016   22.1437  -37.2483 H   0  0  0  0  0  0  0  0  0  0  0  0
   -0.5184   21.1713  -36.1791 H   0  0  0  0  0  0  0  0  0  0  0  0
    2.3430   23.6500  -34.5272 H   0  0  0  0  0  0  0  0  0  0  0  0
    2.6275   23.0096  -36.2284 H   0  0  0  0  0  0  0  0  0  0  0  0
    0.7375   25.1461  -35.2730 H   0  0  0  0  0  0  0  0  0  0  0  0
    1.8249   25.1062  -36.7022 H   0  0  0  0  0  0  0  0  0  0  0  0
    0.3061   24.1471  -36.7022 H   0  0  0  0  0  0  0  0  0  0  0  0
    2.1443   20.4008  -34.6292 H   0  0  0  0  0  0  0  0  0  0  0  0
    2.1589   21.7565  -33.4346 H   0  0  0  0  0  0  0  0  0  0  0  0
    0.3407   19.4755  -33.6550 H   0  0  0  0  0  0  0  0  0  0  0  0
    0.5568   20.7382  -32.3254 H   0  0  0  0  0  0  0  0  0  0  0  0
   -1.1560   21.9200  -33.0300 H   0  0  0  0  0  0  0  0  0  0  0  0
   -0.9680   21.5810  -34.6030 H   0  0  0  0  0  0  0  0  0  0  0  0
   -4.7202   17.3090  -31.2981 H   0  0  0  0  0  0  0  0  0  0  0  0
   -5.8704   17.2445  -32.6764 H   0  0  0  0  0  0  0  0  0  0  0  0
   -4.4092   16.1998  -32.6764 H   0  0  0  0  0  0  0  0  0  0  0  0
   -3.5886   15.8361  -34.1560 H   0  0  0  0  0  0  0  0  0  0  0  0
   -1.6435   15.2380  -35.5768 H   0  0  0  0  0  0  0  0  0  0  0  0
    0.0863   16.9424  -36.1161 H   0  0  0  0  0  0  0  0  0  0  0  0
   -0.1114   19.2496  -35.2174 H   0  0  0  0  0  0  0  0  0  0  0  0
   -7.0430   18.3880  -32.7420 H   0  0  0  0  0  0  0  0  0  0  0  0
   -9.6221   19.0544  -32.3322 H   0  0  0  0  0  0  0  0  0  0  0  0
  -11.1359   21.0382  -31.9794 H   0  0  0  0  0  0  0  0  0  0  0  0
  -10.1638   23.3327  -31.7204 H   0  0  0  0  0  0  0  0  0  0  0  0
   -7.6652   23.6632  -31.7942 H   0  0  0  0  0  0  0  0  0  0  0  0
   -5.1335   22.8504  -33.5135 H   0  0  0  0  0  0  0  0  0  0  0  0
   -5.0740   23.2878  -31.7619 H   0  0  0  0  0  0  0  0  0  0  0  0
   -2.8534   22.6470  -32.9340 H   0  0  0  0  0  0  0  0  0  0  0  0
   -3.2756   21.8619  -31.3337 H   0  0  0  0  0  0  0  0  0  0  0  0
  1  2  1  0
  2  3  1  0
  3  4  1  0
  4  5  1  0
  3  6  1  0
  6  7  1  0
  7  8  1  0
  8  9  1  0
  9 10  2  0
 10 11  1  0
 11 12  2  0
 12 13  1  0
 12 14  1  0
 14 15  2  0
 15 16  1  0
 16 17  2  0
 17 18  1  0
 18 19  2  0
 11 20  1  0
 20 21  1  0
 21 22  1  0
 22 23  2  0
 23 24  1  0
 24 25  2  0
 25 26  1  0
 26 27  2  0
 27 28  1  0
 28 29  1  0
 29 30  1  0
 19  9  1  0
 28 20  2  0
 30 10  1  0
 19 14  1  0
 27 22  1  0
  1 31  1  0
  1 32  1  0
  1 33  1  0
  2 34  1  0
  2 35  1  0
  4 36  1  0
  4 37  1  0
  5 38  1  0
  5 39  1  0
  5 40  1  0
  6 41  1  0
  6 42  1  0
  7 43  1  0
  7 44  1  0
  8 45  1  0
  8 46  1  0
 13 47  1  0
 13 48  1  0
 13 49  1  0
 15 50  1  0
 16 51  1  0
 17 52  1  0
 18 53  1  0
 21 54  1  0
 23 55  1  0
 24 56  1  0
 25 57  1  0
 26 58  1  0
 29 59  1  0
 29 60  1  0
 30 61  1  0
 30 62  1  0
M  CHG  2   8   1  12   1
M  END
>  <UniqueID>  (17) 
17

>  <SMILES>  (17) 
CCN(CC)CC[NH2+]c1c2c([n+](C)c3ccccc13)-c1[nH]c3ccccc3c1CC2

>  <Energy>  (17) 
144.18502612967995

>  <Genealogy>  (17) 
CCN(CC)CC[NH2+]c1c2c([n+](C)c3ccccc13)-c1[nH]c3ccccc3c1CC2 (protonated)
CCN(CC)CC[NH2+]c1c2c([n+](C)c3ccccc13)-c1[nH]c3ccccc3c1CC2 (3D coordinates assigned)
CCN(CC)CC[NH2+]c1c2c([n+](C)c3ccccc13)-c1[nH]c3ccccc3c1CC2 (nonaromatic ring conformer: 144.18502612967995 kcal/mol)

>  <smiles>  (17) 
CCN(CC)CCNc1c2c([n+](C)c3ccccc13)-c1[nH]c3ccccc3c1CC2

>  <score_type>  (17) 
oracle

>  <origin>  (17) 
adg

>  <m_score__min__energy>  (17) 
-8.5299999999999994

>  <m_primary>  (17) 
energy

$$$$
17:0
     RDKit          3D

 42 45  0  0  0  0  0  0  0  0999 V2000
   -5.4850   24.8130  -31.2160 C   0  0  0  0  0  0  0  0  0  0  0  0
   -6.2560   23.5280  -31.2720 C   0  0  0  0  0  0  0  0  0  0  0  0
   -7.5610   23.4630  -30.7520 C   0  0  0  0  0  0  0  0  0  0  0  0
   -8.2790   22.2630  -30.7780 C   0  0  0  0  0  0  0  0  0  0  0  0
   -7.6910   21.1110  -31.3120 C   0  0  0  0  0  0  0  0  0  0  0  0
   -6.3630   21.1550  -31.7880 C   0  0  0  0  0  0  0  0  0  0  0  0
   -5.6500   22.3660  -31.7800 C   0  0  0  0  0  0  0  0  0  0  0  0
   -5.8450   19.9020  -32.2770 N   0  0  2  0  0  0  0  0  0  0  0  0
   -4.4550   19.7820  -32.7010 C   0  0  0  0  0  0  0  0  0  0  0  0
   -4.1390   18.2720  -32.7480 C   0  0  0  0  0  0  0  0  0  0  0  0
   -5.0620   17.4910  -33.6430 N   0  0  0  0  0  0  0  0  0  0  0  0
   -4.4920   17.5440  -35.0180 C   0  0  0  0  0  0  0  0  0  0  0  0
   -5.0550   16.0670  -33.2270 C   0  0  0  0  0  0  0  0  0  0  0  0
   -6.4900   17.9890  -33.7320 C   0  0  1  0  0  0  0  0  0  0  0  0
   -7.5840   17.5810  -32.7130 C   0  0  0  0  0  0  0  0  0  0  0  0
   -8.0920   19.0450  -32.7340 C   0  0  1  0  0  0  0  0  0  0  0  0
   -8.4280   19.7780  -31.3940 C   0  0  0  0  0  0  0  0  0  0  0  0
   -6.7420   19.4440  -33.3540 C   0  0  1  0  0  0  0  0  0  0  0  0
   -5.3164   25.0940  -30.1659 H   0  0  0  0  0  0  0  0  0  0  0  0
   -4.5164   24.6817  -31.7205 H   0  0  0  0  0  0  0  0  0  0  0  0
   -6.0567   25.6059  -31.7205 H   0  0  0  0  0  0  0  0  0  0  0  0
   -8.0213   24.3642  -30.3208 H   0  0  0  0  0  0  0  0  0  0  0  0
   -9.3036   22.2249  -30.3796 H   0  0  0  0  0  0  0  0  0  0  0  0
   -4.6220   22.4043  -32.1696 H   0  0  0  0  0  0  0  0  0  0  0  0
   -5.9210   19.2720  -31.4390 H   0  0  0  0  0  0  0  0  0  0  0  0
   -4.3218   20.2291  -33.6971 H   0  0  0  0  0  0  0  0  0  0  0  0
   -3.7814   20.3076  -32.0082 H   0  0  0  0  0  0  0  0  0  0  0  0
   -3.1094   18.1434  -33.1132 H   0  0  0  0  0  0  0  0  0  0  0  0
   -4.2729   17.8826  -31.7280 H   0  0  0  0  0  0  0  0  0  0  0  0
   -3.3984   17.6457  -34.9579 H   0  0  0  0  0  0  0  0  0  0  0  0
   -4.7452   16.6184  -35.5558 H   0  0  0  0  0  0  0  0  0  0  0  0
   -4.9115   18.4070  -35.5558 H   0  0  0  0  0  0  0  0  0  0  0  0
   -5.0547   16.0059  -32.1287 H   0  0  0  0  0  0  0  0  0  0  0  0
   -5.9507   15.5652  -33.6219 H   0  0  0  0  0  0  0  0  0  0  0  0
   -4.1544   15.5741  -33.6219 H   0  0  0  0  0  0  0  0  0  0  0  0
   -6.5660   17.6028  -34.7592 H   0  0  0  0  0  0  0  0  0  0  0  0
   -8.3065   16.8433  -33.0922 H   0  0  0  0  0  0  0  0  0  0  0  0
   -7.3248   17.0812  -31.7680 H   0  0  0  0  0  0  0  0  0  0  0  0
   -9.0680   19.2584  -33.1944 H   0  0  0  0  0  0  0  0  0  0  0  0
   -9.5116   19.9603  -31.3435 H   0  0  0  0  0  0  0  0  0  0  0  0
   -8.1093   19.1442  -30.5534 H   0  0  0  0  0  0  0  0  0  0  0  0
   -6.6519   20.2269  -34.1214 H   0  0  0  0  0  0  0  0  0  0  0  0
  1  2  1  0
  2  3  2  0
  3  4  1  0
  4  5  2  0
  5  6  1  0
  6  7  2  0
  6  8  1  0
  8  9  1  0
  9 10  1  0
 10 11  1  0
 11 12  1  0
 11 13  1  0
 11 14  1  0
 14 15  1  0
 15 16  1  0
 16 17  1  0
 16 18  1  0
  7  2  1  0
 18  8  1  0
 17  5  1  0
 18 14  1  0
  1 19  1  0
  1 20  1  0
  1 21  1  0
  3 22  1  0
  4 23  1  0
  7 24  1  0
  8 25  1  1
  9 26  1  0
  9 27  1  0
 10 28  1  0
 10 29  1  0
 12 30  1  0
 12 31  1  0
 12 32  1  0
 13 33  1  0
 13 34  1  0
 13 35  1  0
 14 36  1  6
 15 37  1  0
 15 38  1  0
 16 39  1  6
 17 40  1  0
 17 41  1  0
 18 42  1  6
M  CHG  2   8   1  11   1
M  END
>  <UniqueID>  (18) 
18

>  <SMILES>  (18) 
Cc1ccc2c(c1)[N@@H+]1CC[N+](C)(C)[C@H]3CC(C2)C31

>  <Energy>  (18) 
158.91095214762123

>  <Genealogy>  (18) 
Cc1ccc2c(c1)[NH+]1CC[N+](C)(C)C3CC(C2)C31 (protonated)
Cc1ccc2c(c1)[N@@H+]1CC[N+](C)(C)[C@H]3CC(C2)C31 (chirality)
Cc1ccc2c(c1)[N@@H+]1CC[N+](C)(C)[C@H]3CC(C2)C31 (3D coordinates assigned)
Cc1ccc2c(c1)[N@@H+]1CC[N+](C)(C)[C@H]3CC(C2)C31 (nonaromatic ring conformer: 158.91095214762123 kcal/mol)

>  <smiles>  (18) 
Cc1ccc2c(c1)N1CC[N+](C)(C)C3CC(C2)C31

>  <score_type>  (18) 
oracle

>  <origin>  (18) 
adg

>  <m_score__min__energy>  (18) 
-6.29

>  <m_primary>  (18) 
energy

$$$$
