0:0
     RDKit          3D

 40 42  0  0  0  0  0  0  0  0999 V2000
   -2.2180   24.8410  -28.7140 C   0  0  0  0  0  0  0  0  0  0  0  0
   -3.1270   25.2940  -29.7120 O   0  0  0  0  0  0  0  0  0  0  0  0
   -4.3030   24.6210  -30.0740 C   0  0  0  0  0  0  0  0  0  0  0  0
   -5.5530   25.2670  -30.1420 C   0  0  0  0  0  0  0  0  0  0  0  0
   -6.6970   24.5510  -30.5090 C   0  0  0  0  0  0  0  0  0  0  0  0
   -6.6070   23.1880  -30.8190 C   0  0  0  0  0  0  0  0  0  0  0  0
   -8.0510   22.2830  -31.2540 S   0  0  0  0  0  0  0  0  0  0  0  0
   -8.9290   23.1150  -32.1470 O   0  0  0  0  0  0  0  0  0  0  0  0
   -8.8350   21.9420  -30.0170 O   0  0  0  0  0  0  0  0  0  0  0  0
   -7.5740   20.8090  -32.0880 C   0  0  0  0  0  0  0  0  0  0  0  0
   -6.5930   20.8510  -33.0860 C   0  0  0  0  0  0  0  0  0  0  0  0
   -6.1970   19.6780  -33.7330 C   0  0  0  0  0  0  0  0  0  0  0  0
   -6.7740   18.4420  -33.3860 C   0  0  0  0  0  0  0  0  0  0  0  0
   -6.3500   17.1610  -34.0820 C   0  0  2  0  0  0  0  0  0  0  0  0
   -5.7390   16.1390  -33.0870 C   0  0  0  0  0  0  0  0  0  0  0  0
   -4.3600   15.9600  -33.4920 N   0  0  0  0  0  0  0  0  0  0  0  0
   -4.1070   16.6780  -34.6770 C   0  0  0  0  0  0  0  0  0  0  0  0
   -2.9890   16.6640  -35.2570 O   0  0  0  0  0  0  0  0  0  0  0  0
   -5.2810   17.4260  -35.1690 C   0  0  0  0  0  0  0  0  0  0  0  0
   -7.7530   18.4060  -32.3770 C   0  0  0  0  0  0  0  0  0  0  0  0
   -8.1470   19.5810  -31.7310 C   0  0  0  0  0  0  0  0  0  0  0  0
   -5.3670   22.5410  -30.7440 C   0  0  0  0  0  0  0  0  0  0  0  0
   -4.2230   23.2560  -30.3760 C   0  0  0  0  0  0  0  0  0  0  0  0
   -2.6345   25.0486  -27.7173 H   0  0  0  0  0  0  0  0  0  0  0  0
   -2.0592   23.7584  -28.8269 H   0  0  0  0  0  0  0  0  0  0  0  0
   -1.2580   25.3661  -28.8269 H   0  0  0  0  0  0  0  0  0  0  0  0
   -5.6296   26.3386  -29.9056 H   0  0  0  0  0  0  0  0  0  0  0  0
   -7.6710   25.0601  -30.5544 H   0  0  0  0  0  0  0  0  0  0  0  0
   -6.1324   21.8111  -33.3616 H   0  0  0  0  0  0  0  0  0  0  0  0
   -5.4288   19.7206  -34.5192 H   0  0  0  0  0  0  0  0  0  0  0  0
   -7.2670   16.7552  -34.5343 H   0  0  0  0  0  0  0  0  0  0  0  0
   -5.7877   16.5300  -32.0600 H   0  0  0  0  0  0  0  0  0  0  0  0
   -6.2889   15.1864  -33.1007 H   0  0  0  0  0  0  0  0  0  0  0  0
   -3.6740   15.3350  -33.0130 H   0  0  0  0  0  0  0  0  0  0  0  0
   -5.0587   18.5002  -35.2500 H   0  0  0  0  0  0  0  0  0  0  0  0
   -5.6011   17.1139  -36.1740 H   0  0  0  0  0  0  0  0  0  0  0  0
   -8.2116   17.4469  -32.0944 H   0  0  0  0  0  0  0  0  0  0  0  0
   -8.9097   19.5417  -30.9394 H   0  0  0  0  0  0  0  0  0  0  0  0
   -5.2929   21.4681  -30.9751 H   0  0  0  0  0  0  0  0  0  0  0  0
   -3.2520   22.7418  -30.3233 H   0  0  0  0  0  0  0  0  0  0  0  0
  1  2  1  0
  2  3  1  0
  3  4  2  0
  4  5  1  0
  5  6  2  0
  6  7  1  0
  7  8  2  0
  7  9  2  0
  7 10  1  0
 10 11  2  0
 11 12  1  0
 12 13  2  0
 13 14  1  0
 14 15  1  0
 15 16  1  0
 16 17  1  0
 17 18  2  0
 17 19  1  0
 13 20  1  0
 20 21  2  0
  6 22  1  0
 22 23  2  0
 23  3  1  0
 21 10  1  0
 19 14  1  0
  1 24  1  0
  1 25  1  0
  1 26  1  0
  4 27  1  0
  5 28  1  0
 11 29  1  0
 12 30  1  0
 14 31  1  6
 15 32  1  0
 15 33  1  0
 16 34  1  0
 19 35  1  0
 19 36  1  0
 20 37  1  0
 21 38  1  0
 22 39  1  0
 23 40  1  0
M  END
>  <UniqueID>  (1) 
1

>  <SMILES>  (1) 
COc1ccc(S(=O)(=O)c2ccc([C@@H]3CNC(=O)C3)cc2)cc1

>  <Energy>  (1) 
50.870969155526076

>  <Genealogy>  (1) 
COc1ccc(S(=O)(=O)c2ccc([C@@H]3CNC(=O)C3)cc2)cc1 (chirality)
COc1ccc(S(=O)(=O)c2ccc([C@@H]3CNC(=O)C3)cc2)cc1 (3D coordinates assigned)
COc1ccc(S(=O)(=O)c2ccc([C@@H]3CNC(=O)C3)cc2)cc1 (nonaromatic ring conformer: 50.870969155526076 kcal/mol)

>  <smiles>  (1) 
COc1ccc(S(=O)(=O)c2ccc(C3CNC(=O)C3)cc2)cc1

>  <score_type>  (1) 
oracle

>  <origin>  (1) 
adg

>  <m_score__min__energy>  (1) 
-9.1799999999999997

>  <m_primary>  (1) 
energy

$$$$
1:0
     RDKit          3D

 40 41  0  0  0  0  0  0  0  0999 V2000
   -3.1030   19.0030  -33.4900 C   0  0  0  0  0  0  0  0  0  0  0  0
   -3.4350   17.5750  -33.5850 N   0  0  0  0  0  0  0  0  0  0  0  0
   -2.2820   16.7170  -33.2690 C   0  0  0  0  0  0  0  0  0  0  0  0
   -4.1610   17.1910  -34.8200 C   0  0  0  0  0  0  0  0  0  0  0  0
   -5.6380   16.7590  -34.6430 C   0  0  0  0  0  0  0  0  0  0  0  0
   -6.0670   16.7400  -33.2360 N   0  0  0  0  0  0  0  0  0  0  0  0
   -6.8630   17.9070  -32.9450 C   0  0  0  0  0  0  0  0  0  0  0  0
   -7.9580   17.8220  -32.0670 C   0  0  0  0  0  0  0  0  0  0  0  0
   -8.7110   18.9590  -31.7630 C   0  0  0  0  0  0  0  0  0  0  0  0
   -8.3760   20.1950  -32.3290 C   0  0  0  0  0  0  0  0  0  0  0  0
   -9.3480   21.6520  -31.9430 S   0  0  0  0  0  0  0  0  0  0  0  0
   -7.9070   22.5890  -31.4290 C   0  0  0  0  0  0  0  0  0  0  0  0
   -7.4190   22.4640  -30.1230 C   0  0  0  0  0  0  0  0  0  0  0  0
   -6.2930   23.1910  -29.7240 C   0  0  0  0  0  0  0  0  0  0  0  0
   -5.6530   24.0460  -30.6290 C   0  0  0  0  0  0  0  0  0  0  0  0
   -4.2400   24.9560  -30.1280 Cl  0  0  0  0  0  0  0  0  0  0  0  0
   -6.1440   24.1740  -31.9340 C   0  0  0  0  0  0  0  0  0  0  0  0
   -7.2710   23.4480  -32.3330 C   0  0  0  0  0  0  0  0  0  0  0  0
   -7.2770   20.2930  -33.1890 C   0  0  0  0  0  0  0  0  0  0  0  0
   -6.5220   19.1570  -33.4940 C   0  0  0  0  0  0  0  0  0  0  0  0
   -3.0353   19.2941  -32.4314 H   0  0  0  0  0  0  0  0  0  0  0  0
   -2.1377   19.1887  -33.9838 H   0  0  0  0  0  0  0  0  0  0  0  0
   -3.8874   19.5954  -33.9838 H   0  0  0  0  0  0  0  0  0  0  0  0
   -2.1734   16.6362  -32.1774 H   0  0  0  0  0  0  0  0  0  0  0  0
   -2.4416   15.7162  -33.6967 H   0  0  0  0  0  0  0  0  0  0  0  0
   -1.3692   17.1573  -33.6967 H   0  0  0  0  0  0  0  0  0  0  0  0
   -4.1440   18.0548  -35.5008 H   0  0  0  0  0  0  0  0  0  0  0  0
   -3.6393   16.3009  -35.2015 H   0  0  0  0  0  0  0  0  0  0  0  0
   -6.2777   17.4634  -35.1950 H   0  0  0  0  0  0  0  0  0  0  0  0
   -5.7290   15.7328  -35.0285 H   0  0  0  0  0  0  0  0  0  0  0  0
   -6.6500   15.8920  -33.0580 H   0  0  0  0  0  0  0  0  0  0  0  0
   -5.2360   16.7130  -32.6000 H   0  0  0  0  0  0  0  0  0  0  0  0
   -8.2235   16.8542  -31.6166 H   0  0  0  0  0  0  0  0  0  0  0  0
   -9.5683   18.8830  -31.0780 H   0  0  0  0  0  0  0  0  0  0  0  0
   -7.9215   21.7936  -29.4102 H   0  0  0  0  0  0  0  0  0  0  0  0
   -5.9097   23.0909  -28.6978 H   0  0  0  0  0  0  0  0  0  0  0  0
   -5.6429   24.8462  -32.6461 H   0  0  0  0  0  0  0  0  0  0  0  0
   -7.6577   23.5521  -33.3575 H   0  0  0  0  0  0  0  0  0  0  0  0
   -7.0066   21.2656  -33.6259 H   0  0  0  0  0  0  0  0  0  0  0  0
   -5.6561   19.2406  -34.1672 H   0  0  0  0  0  0  0  0  0  0  0  0
  1  2  1  0
  2  3  1  0
  2  4  1  0
  4  5  1  0
  5  6  1  0
  6  7  1  0
  7  8  2  0
  8  9  1  0
  9 10  2  0
 10 11  1  0
 11 12  1  0
 12 13  2  0
 13 14  1  0
 14 15  2  0
 15 16  1  0
 15 17  1  0
 17 18  2  0
 10 19  1  0
 19 20  2  0
 20  7  1  0
 18 12  1  0
  1 21  1  0
  1 22  1  0
  1 23  1  0
  3 24  1  0
  3 25  1  0
  3 26  1  0
  4 27  1  0
  4 28  1  0
  5 29  1  0
  5 30  1  0
  6 31  1  0
  6 32  1  0
  8 33  1  0
  9 34  1  0
 13 35  1  0
 14 36  1  0
 17 37  1  0
 18 38  1  0
 19 39  1  0
 20 40  1  0
M  CHG  1   6   1
M  END
>  <UniqueID>  (2) 
2

>  <SMILES>  (2) 
CN(C)CC[NH2+]c1ccc(Sc2ccc(Cl)cc2)cc1

>  <Energy>  (2) 
41.25158878906407

>  <Genealogy>  (2) 
CN(C)CC[NH2+]c1ccc(Sc2ccc(Cl)cc2)cc1 (protonated)
CN(C)CC[NH2+]c1ccc(Sc2ccc(Cl)cc2)cc1 (3D coordinates assigned)
CN(C)CC[NH2+]c1ccc(Sc2ccc(Cl)cc2)cc1 (optimized conformer: 41.25158878906407 kcal/mol)

>  <smiles>  (2) 
CN(C)CCNc1ccc(Sc2ccc(Cl)cc2)cc1

>  <score_type>  (2) 
oracle

>  <origin>  (2) 
adg

>  <m_score__min__energy>  (2) 
-6.6900000000000004

>  <m_primary>  (2) 
energy

$$$$
2:0
     RDKit          3D

 50 52  0  0  0  0  0  0  0  0999 V2000
   -0.7970   23.5920  -25.6170 C   0  0  0  0  0  0  0  0  0  0  0  0
   -1.6660   23.6750  -26.7830 N   0  0  0  0  0  0  0  0  0  0  0  0
   -2.5270   24.6670  -27.0780 C   0  0  0  0  0  0  0  0  0  0  0  0
   -3.2990   24.3570  -28.1370 N   0  0  0  0  0  0  0  0  0  0  0  0
   -2.9110   23.1220  -28.5210 C   0  0  0  0  0  0  0  0  0  0  0  0
   -3.6160   22.2850  -29.5640 C   0  0  0  0  0  0  0  0  0  0  0  0
   -3.6620   22.8770  -30.9250 N   0  0  0  0  0  0  0  0  0  0  0  0
   -2.7560   22.2460  -31.9110 C   0  0  0  0  0  0  0  0  0  0  0  0
   -3.5050   21.3900  -32.9600 C   0  0  0  0  0  0  0  0  0  0  0  0
   -4.7510   20.8250  -32.4020 N   0  0  0  0  0  0  0  0  0  0  0  0
   -5.3760   19.8960  -33.3670 C   0  0  0  0  0  0  0  0  0  0  0  0
   -6.7040   19.4050  -32.8500 C   0  0  0  0  0  0  0  0  0  0  0  0
   -7.8830   20.1090  -33.1470 C   0  0  0  0  0  0  0  0  0  0  0  0
   -9.1140   19.6660  -32.6550 C   0  0  0  0  0  0  0  0  0  0  0  0
   -9.1790   18.5140  -31.8670 C   0  0  0  0  0  0  0  0  0  0  0  0
   -8.0120   17.8070  -31.5660 C   0  0  0  0  0  0  0  0  0  0  0  0
   -6.7760   18.2530  -32.0440 C   0  0  0  0  0  0  0  0  0  0  0  0
   -5.6540   17.5580  -31.7290 F   0  0  0  0  0  0  0  0  0  0  0  0
   -5.7070   21.8800  -31.9680 C   0  0  0  0  0  0  0  0  0  0  0  0
   -4.9900   23.1730  -31.5070 C   0  0  1  0  0  0  0  0  0  0  0  0
   -5.8210   24.2020  -30.6860 C   0  0  0  0  0  0  0  0  0  0  0  0
   -5.2740   25.6300  -30.6160 C   0  0  0  0  0  0  0  0  0  0  0  0
   -3.8760   25.5860  -30.5480 O   0  0  0  0  0  0  0  0  0  0  0  0
   -1.9130   22.6900  -27.6650 C   0  0  0  0  0  0  0  0  0  0  0  0
   -1.4047   23.6500  -24.7019 H   0  0  0  0  0  0  0  0  0  0  0  0
   -0.2504   22.6376  -25.6343 H   0  0  0  0  0  0  0  0  0  0  0  0
   -0.0796   24.4257  -25.6343 H   0  0  0  0  0  0  0  0  0  0  0  0
   -2.5919   25.6142  -26.5224 H   0  0  0  0  0  0  0  0  0  0  0  0
   -4.0870   24.9290  -28.5090 H   0  0  0  0  0  0  0  0  0  0  0  0
   -3.0972   21.3174  -29.6313 H   0  0  0  0  0  0  0  0  0  0  0  0
   -4.6614   22.2012  -29.2323 H   0  0  0  0  0  0  0  0  0  0  0  0
   -2.2028   23.0387  -32.4360 H   0  0  0  0  0  0  0  0  0  0  0  0
   -2.0843   21.5737  -31.3571 H   0  0  0  0  0  0  0  0  0  0  0  0
   -3.7542   22.0213  -33.8256 H   0  0  0  0  0  0  0  0  0  0  0  0
   -2.8508   20.5582  -33.2601 H   0  0  0  0  0  0  0  0  0  0  0  0
   -5.5313   20.4184  -34.3225 H   0  0  0  0  0  0  0  0  0  0  0  0
   -4.7101   19.0320  -33.5083 H   0  0  0  0  0  0  0  0  0  0  0  0
   -7.8370   21.0141  -33.7704 H   0  0  0  0  0  0  0  0  0  0  0  0
  -10.0323   20.2247  -32.8884 H   0  0  0  0  0  0  0  0  0  0  0  0
  -10.1487   18.1637  -31.4837 H   0  0  0  0  0  0  0  0  0  0  0  0
   -8.0658   16.8966  -30.9510 H   0  0  0  0  0  0  0  0  0  0  0  0
   -6.3695   22.1249  -32.8113 H   0  0  0  0  0  0  0  0  0  0  0  0
   -6.2738   21.4870  -31.1110 H   0  0  0  0  0  0  0  0  0  0  0  0
   -4.8409   23.7339  -32.4415 H   0  0  0  0  0  0  0  0  0  0  0  0
   -6.8250   24.2515  -31.1327 H   0  0  0  0  0  0  0  0  0  0  0  0
   -5.7958   23.8324  -29.6503 H   0  0  0  0  0  0  0  0  0  0  0  0
   -5.5811   26.1858  -31.5142 H   0  0  0  0  0  0  0  0  0  0  0  0
   -5.6712   26.1340  -29.7226 H   0  0  0  0  0  0  0  0  0  0  0  0
   -3.5860   24.9240  -31.2270 H   0  0  0  0  0  0  0  0  0  0  0  0
   -1.4099   21.7124  -27.6998 H   0  0  0  0  0  0  0  0  0  0  0  0
  1  2  1  0
  2  3  1  0
  3  4  2  0
  4  5  1  0
  5  6  1  0
  6  7  1  0
  7  8  1  0
  8  9  1  0
  9 10  1  0
 10 11  1  0
 11 12  1  0
 12 13  2  0
 13 14  1  0
 14 15  2  0
 15 16  1  0
 16 17  2  0
 17 18  1  0
 10 19  1  0
 19 20  1  0
 20 21  1  0
 21 22  1  0
 22 23  1  0
  5 24  2  0
 24  2  1  0
 20  7  1  0
 17 12  1  0
  1 25  1  0
  1 26  1  0
  1 27  1  0
  3 28  1  0
  4 29  1  0
  6 30  1  0
  6 31  1  0
  8 32  1  0
  8 33  1  0
  9 34  1  0
  9 35  1  0
 11 36  1  0
 11 37  1  0
 13 38  1  0
 14 39  1  0
 15 40  1  0
 16 41  1  0
 19 42  1  0
 19 43  1  0
 20 44  1  6
 21 45  1  0
 21 46  1  0
 22 47  1  0
 22 48  1  0
 23 49  1  0
 24 50  1  0
M  CHG  1   4   1
M  END
>  <UniqueID>  (3) 
3

>  <SMILES>  (3) 
Cn1c[nH+]c(CN2CCN(Cc3ccccc3F)C[C@H]2CCO)c1

>  <Energy>  (3) 
98.9537853216735

>  <Genealogy>  (3) 
Cn1c[nH+]c(CN2CCN(Cc3ccccc3F)CC2CCO)c1 (protonated)
Cn1c[nH+]c(CN2CCN(Cc3ccccc3F)C[C@H]2CCO)c1 (chirality)
Cn1c[nH+]c(CN2CCN(Cc3ccccc3F)C[C@H]2CCO)c1 (3D coordinates assigned)
Cn1c[nH+]c(CN2CCN(Cc3ccccc3F)C[C@H]2CCO)c1 (nonaromatic ring conformer: 98.9537853216735 kcal/mol)

>  <smiles>  (3) 
Cn1cnc(CN2CCN(Cc3ccccc3F)CC2CCO)c1

>  <score_type>  (3) 
oracle

>  <origin>  (3) 
adg

>  <m_score__min__energy>  (3) 
-7.9699999999999998

>  <m_primary>  (3) 
energy

$$$$
3:0
     RDKit          3D

 61 65  0  0  0  0  0  0  0  0999 V2000
   -5.2295   26.7545  -30.9109 H   0  0  0  0  0  0  0  0  0  0  0  0
   -5.0500   25.6730  -30.8210 C   0  0  0  0  0  0  0  0  0  0  0  0
   -3.8380   25.2220  -30.4090 N   0  0  0  0  0  0  0  0  0  0  0  0
   -3.5720   23.8960  -30.2850 C   0  0  0  0  0  0  0  0  0  0  0  0
   -2.3050   23.4830  -29.8560 C   0  0  0  0  0  0  0  0  0  0  0  0
   -1.5329   24.2315  -29.6246 H   0  0  0  0  0  0  0  0  0  0  0  0
   -2.0190   22.1210  -29.7210 C   0  0  0  0  0  0  0  0  0  0  0  0
   -0.4310   21.6080  -29.1820 Cl  0  0  0  0  0  0  0  0  0  0  0  0
   -2.9980   21.1670  -30.0140 C   0  0  0  0  0  0  0  0  0  0  0  0
   -2.7698   20.0964  -29.9058 H   0  0  0  0  0  0  0  0  0  0  0  0
   -4.2660   21.5690  -30.4440 C   0  0  0  0  0  0  0  0  0  0  0  0
   -5.0307   20.8122  -30.6730 H   0  0  0  0  0  0  0  0  0  0  0  0
   -4.5710   22.9380  -30.5860 C   0  0  0  0  0  0  0  0  0  0  0  0
   -5.8430   23.3860  -31.0160 C   0  0  0  0  0  0  0  0  0  0  0  0
   -6.7710   22.5080  -31.2970 N   0  0  0  0  0  0  0  0  0  0  0  0
   -8.0810   22.7470  -31.9070 C   0  0  0  0  0  0  0  0  0  0  0  0
   -8.5005   23.6790  -31.5003 H   0  0  0  0  0  0  0  0  0  0  0  0
   -7.9473   22.8218  -32.9963 H   0  0  0  0  0  0  0  0  0  0  0  0
   -9.0540   21.5920  -31.6170 C   0  0  0  0  0  0  0  0  0  0  0  0
   -9.4962   21.7456  -30.6216 H   0  0  0  0  0  0  0  0  0  0  0  0
   -9.8199   21.5958  -32.4066 H   0  0  0  0  0  0  0  0  0  0  0  0
   -8.3680   20.2220  -31.6430 C   0  0  0  0  0  0  0  0  0  0  0  0
   -7.5575   20.2080  -30.8994 H   0  0  0  0  0  0  0  0  0  0  0  0
   -9.1106   19.4458  -31.4062 H   0  0  0  0  0  0  0  0  0  0  0  0
   -7.8110   19.9580  -32.9680 N   0  0  0  0  0  0  0  0  0  0  0  0
   -6.7620   19.2230  -33.1810 C   0  0  0  0  0  0  0  0  0  0  0  0
   -6.8710   17.8750  -33.3200 N   0  0  0  0  0  0  0  0  0  0  0  0
   -5.7680   17.1110  -33.5400 C   0  0  0  0  0  0  0  0  0  0  0  0
   -5.8890   15.6800  -33.6840 N   0  0  0  0  0  0  0  0  0  0  0  0
   -4.9610   14.7940  -32.9660 C   0  0  0  0  0  0  0  0  0  0  0  0
   -3.9605   15.2509  -32.9541 H   0  0  0  0  0  0  0  0  0  0  0  0
   -5.3263   14.6542  -31.9379 H   0  0  0  0  0  0  0  0  0  0  0  0
   -4.8830   13.4280  -33.6540 C   0  0  0  0  0  0  0  0  0  0  0  0
   -4.3735   13.5408  -34.6224 H   0  0  0  0  0  0  0  0  0  0  0  0
   -4.3241   12.7382  -33.0045 H   0  0  0  0  0  0  0  0  0  0  0  0
   -6.1770   12.8980  -33.8700 O   0  0  0  0  0  0  0  0  0  0  0  0
   -6.8660   13.7090  -34.7990 C   0  0  0  0  0  0  0  0  0  0  0  0
   -6.2585   13.8082  -35.7107 H   0  0  0  0  0  0  0  0  0  0  0  0
   -7.8317   13.2358  -35.0305 H   0  0  0  0  0  0  0  0  0  0  0  0
   -7.1300   15.1020  -34.2180 C   0  0  0  0  0  0  0  0  0  0  0  0
   -7.5226   15.7563  -35.0103 H   0  0  0  0  0  0  0  0  0  0  0  0
   -7.8620   15.0143  -33.4016 H   0  0  0  0  0  0  0  0  0  0  0  0
   -4.5520   17.7120  -33.6200 N   0  0  0  0  0  0  0  0  0  0  0  0
   -4.4280   19.0590  -33.4840 C   0  0  0  0  0  0  0  0  0  0  0  0
   -3.1310   19.6860  -33.5720 N   0  0  0  0  0  0  0  0  0  0  0  0
   -1.9940   18.9330  -34.1190 C   0  0  0  0  0  0  0  0  0  0  0  0
   -2.0631   17.8849  -33.7922 H   0  0  0  0  0  0  0  0  0  0  0  0
   -2.0244   18.9907  -35.2171 H   0  0  0  0  0  0  0  0  0  0  0  0
   -0.6700   19.5280  -33.6280 C   0  0  0  0  0  0  0  0  0  0  0  0
   -0.5647   19.3335  -32.5505 H   0  0  0  0  0  0  0  0  0  0  0  0
    0.1552   19.0590  -34.1839 H   0  0  0  0  0  0  0  0  0  0  0  0
   -0.6330   20.9230  -33.8530 O   0  0  0  0  0  0  0  0  0  0  0  0
   -1.6090   21.5550  -33.0490 C   0  0  0  0  0  0  0  0  0  0  0  0
   -1.4560   21.2621  -31.9998 H   0  0  0  0  0  0  0  0  0  0  0  0
   -1.5063   22.6443  -33.1628 H   0  0  0  0  0  0  0  0  0  0  0  0
   -3.0200   21.1490  -33.4820 C   0  0  0  0  0  0  0  0  0  0  0  0
   -3.7461   21.5223  -32.7448 H   0  0  0  0  0  0  0  0  0  0  0  0
   -3.2265   21.5826  -34.4716 H   0  0  0  0  0  0  0  0  0  0  0  0
   -5.5420   19.8080  -33.2620 N   0  0  0  0  0  0  0  0  0  0  0  0
   -6.0690   24.7730  -31.1310 C   0  0  0  0  0  0  0  0  0  0  0  0
   -7.0488   25.1450  -31.4651 H   0  0  0  0  0  0  0  0  0  0  0  0
  1  2  1  0
  2  3  1  0
  3  4  1  0
  4  5  2  0
  5  6  1  0
  5  7  1  0
  7  8  1  0
  7  9  2  0
  9 10  1  0
  9 11  1  0
 11 12  1  0
 11 13  2  0
 13 14  1  0
 14 15  2  0
 15 16  1  0
 16 17  1  0
 16 18  1  0
 16 19  1  0
 19 20  1  0
 19 21  1  0
 19 22  1  0
 22 23  1  0
 22 24  1  0
 22 25  1  0
 25 26  2  3
 26 27  1  0
 27 28  2  0
 28 29  1  0
 29 30  1  0
 30 31  1  0
 30 32  1  0
 30 33  1  0
 33 34  1  0
 33 35  1  0
 33 36  1  0
 36 37  1  0
 37 38  1  0
 37 39  1  0
 37 40  1  0
 40 41  1  0
 40 42  1  0
 28 43  1  0
 43 44  1  0
 44 45  1  0
 45 46  1  0
 46 47  1  0
 46 48  1  0
 46 49  1  0
 49 50  1  0
 49 51  1  0
 49 52  1  0
 52 53  1  0
 53 54  1  0
 53 55  1  0
 53 56  1  0
 56 57  1  0
 56 58  1  0
 44 59  2  0
 14 60  1  0
 60 61  1  0
 60  2  2  0
 13  4  1  0
 59 26  1  0
 40 29  1  0
 56 45  1  0
M  CHG  2   3  -1  43  -1
M  END
>  <UniqueID>  (4) 
4

>  <SMILES>  (4) 
Clc1ccc2/c(=N/CCCN=c3nc(N4CCOCC4)[n-]c(N4CCOCC4)n3)cc[n-]c2c1

>  <Energy>  (4) 
71.3474579291993

>  <Genealogy>  (4) 
Clc1ccc2c(=NCCCN=c3nc(N4CCOCC4)[n-]c(N4CCOCC4)n3)cc[n-]c2c1 (protonated)
Clc1ccc2/c(=N/CCCN=c3nc(N4CCOCC4)[n-]c(N4CCOCC4)n3)cc[n-]c2c1 (cis-trans isomerization)
Clc1ccc2/c(=N/CCCN=c3nc(N4CCOCC4)[n-]c(N4CCOCC4)n3)cc[n-]c2c1 (3D coordinates assigned)
Clc1ccc2/c(=N/CCCN=c3nc(N4CCOCC4)[n-]c(N4CCOCC4)n3)cc[n-]c2c1 (nonaromatic ring conformer: 71.3474579291993 kcal/mol)

>  <smiles>  (4) 
Clc1ccc2c(=NCCCN=c3nc(N4CCOCC4)[nH]c(N4CCOCC4)n3)cc[nH]c2c1

>  <score_type>  (4) 
oracle

>  <origin>  (4) 
adg

>  <m_score__min__energy>  (4) 
-10.48

>  <m_primary>  (4) 
energy

$$$$
4:0
     RDKit          3D

 35 37  0  0  0  0  0  0  0  0999 V2000
   -1.5590   25.1210  -28.0650 C   0  0  0  0  0  0  0  0  0  0  0  0
   -2.1910   25.3060  -29.3280 O   0  0  0  0  0  0  0  0  0  0  0  0
   -3.1260   24.4190  -29.8820 C   0  0  0  0  0  0  0  0  0  0  0  0
   -4.4660   24.7820  -30.1150 C   0  0  0  0  0  0  0  0  0  0  0  0
   -5.3600   23.8610  -30.6700 C   0  0  0  0  0  0  0  0  0  0  0  0
   -4.9350   22.5630  -31.0020 C   0  0  0  0  0  0  0  0  0  0  0  0
   -5.8850   21.5840  -31.5920 C   0  0  0  0  0  0  0  0  0  0  0  0
   -7.2710   21.8100  -31.5290 C   0  0  0  0  0  0  0  0  0  0  0  0
   -8.1630   20.8890  -32.0850 C   0  0  0  0  0  0  0  0  0  0  0  0
   -9.8910   21.1780  -31.9880 Cl  0  0  0  0  0  0  0  0  0  0  0  0
   -7.6840   19.7360  -32.7090 C   0  0  0  0  0  0  0  0  0  0  0  0
   -6.3020   19.4880  -32.7850 C   0  0  0  0  0  0  0  0  0  0  0  0
   -5.7910   18.2620  -33.4500 C   0  0  0  0  0  0  0  0  0  0  0  0
   -6.3370   17.0040  -33.1600 C   0  0  0  0  0  0  0  0  0  0  0  0
   -5.8350   15.8740  -33.7990 C   0  0  0  0  0  0  0  0  0  0  0  0
   -4.8240   16.0040  -34.6960 N   0  0  0  0  0  0  0  0  0  0  0  0
   -4.2940   17.1950  -34.9800 N   0  0  0  0  0  0  0  0  0  0  0  0
   -4.7460   18.3310  -34.3850 C   0  0  0  0  0  0  0  0  0  0  0  0
   -5.4110   20.4200  -32.2230 C   0  0  0  0  0  0  0  0  0  0  0  0
   -3.5960   22.2060  -30.7670 C   0  0  0  0  0  0  0  0  0  0  0  0
   -2.7030   23.1270  -30.2120 C   0  0  0  0  0  0  0  0  0  0  0  0
   -2.2789   25.3317  -27.2604 H   0  0  0  0  0  0  0  0  0  0  0  0
   -1.2073   24.0822  -27.9796 H   0  0  0  0  0  0  0  0  0  0  0  0
   -0.7027   25.8062  -27.9796 H   0  0  0  0  0  0  0  0  0  0  0  0
   -4.8114   25.7946  -29.8594 H   0  0  0  0  0  0  0  0  0  0  0  0
   -6.4049   24.1549  -30.8483 H   0  0  0  0  0  0  0  0  0  0  0  0
   -7.6556   22.7168  -31.0393 H   0  0  0  0  0  0  0  0  0  0  0  0
   -8.3927   19.0162  -33.1444 H   0  0  0  0  0  0  0  0  0  0  0  0
   -7.1566   16.9105  -32.4324 H   0  0  0  0  0  0  0  0  0  0  0  0
   -6.2548   14.8814  -33.5786 H   0  0  0  0  0  0  0  0  0  0  0  0
   -3.5150   17.2530  -35.6720 H   0  0  0  0  0  0  0  0  0  0  0  0
   -4.2939   19.3019  -34.6357 H   0  0  0  0  0  0  0  0  0  0  0  0
   -4.3279   20.2358  -32.2778 H   0  0  0  0  0  0  0  0  0  0  0  0
   -3.2482   21.1940  -31.0218 H   0  0  0  0  0  0  0  0  0  0  0  0
   -1.6582   22.8332  -30.0331 H   0  0  0  0  0  0  0  0  0  0  0  0
  1  2  1  0
  2  3  1  0
  3  4  2  0
  4  5  1  0
  5  6  2  0
  6  7  1  0
  7  8  2  0
  8  9  1  0
  9 10  1  0
  9 11  2  0
 11 12  1  0
 12 13  1  0
 13 14  2  0
 14 15  1  0
 15 16  2  0
 16 17  1  0
 17 18  2  0
 12 19  2  0
  6 20  1  0
 20 21  2  0
 21  3  1  0
 19  7  1  0
 18 13  1  0
  1 22  1  0
  1 23  1  0
  1 24  1  0
  4 25  1  0
  5 26  1  0
  8 27  1  0
 11 28  1  0
 14 29  1  0
 15 30  1  0
 17 31  1  0
 18 32  1  0
 19 33  1  0
 20 34  1  0
 21 35  1  0
M  CHG  1  17   1
M  END
>  <UniqueID>  (5) 
5

>  <SMILES>  (5) 
COc1ccc(-c2cc(Cl)cc(-c3ccn[nH+]c3)c2)cc1

>  <Energy>  (5) 
47.823020940229846

>  <Genealogy>  (5) 
COc1ccc(-c2cc(Cl)cc(-c3ccn[nH+]c3)c2)cc1 (protonated)
COc1ccc(-c2cc(Cl)cc(-c3ccn[nH+]c3)c2)cc1 (3D coordinates assigned)
COc1ccc(-c2cc(Cl)cc(-c3ccn[nH+]c3)c2)cc1 (optimized conformer: 47.823020940229846 kcal/mol)

>  <smiles>  (5) 
COc1ccc(-c2cc(Cl)cc(-c3ccnnc3)c2)cc1

>  <score_type>  (5) 
oracle

>  <origin>  (5) 
adg

>  <m_score__min__energy>  (5) 
-8.0500000000000007

>  <m_primary>  (5) 
energy

$$$$
5:0
     RDKit          3D

 49 52  0  0  0  0  0  0  0  0999 V2000
   -9.1181   17.5511  -32.2980 H   0  0  0  0  0  0  0  0  0  0  0  0
   -8.2070   18.1650  -32.2430 C   0  0  0  0  0  0  0  0  0  0  0  0
   -7.1570   17.7850  -31.4010 C   0  0  0  0  0  0  0  0  0  0  0  0
   -7.2417   16.8705  -30.7955 H   0  0  0  0  0  0  0  0  0  0  0  0
   -6.0000   18.5660  -31.3280 C   0  0  0  0  0  0  0  0  0  0  0  0
   -5.1802   18.2719  -30.6561 H   0  0  0  0  0  0  0  0  0  0  0  0
   -5.8830   19.7250  -32.1110 C   0  0  0  0  0  0  0  0  0  0  0  0
   -4.6820   20.5680  -32.0180 C   0  0  0  0  0  0  0  0  0  0  0  0
   -4.6600   21.6470  -31.1890 N   0  0  0  0  0  0  0  0  0  0  0  0
   -3.4870   22.3140  -31.2630 C   0  0  0  0  0  0  0  0  0  0  0  0
   -3.2020   23.3760  -30.5700 N   0  0  0  0  0  0  0  0  0  0  0  0
   -4.0850   24.4800  -30.3160 C   0  0  0  0  0  0  0  0  0  0  0  0
   -3.8780   25.6140  -30.8290 O   0  0  0  0  0  0  0  0  0  0  0  0
   -5.2930   24.2720  -29.4580 C   0  0  0  0  0  0  0  0  0  0  0  0
   -5.0420   23.5856  -28.6359 H   0  0  0  0  0  0  0  0  0  0  0  0
   -5.6169   25.2407  -29.0497 H   0  0  0  0  0  0  0  0  0  0  0  0
   -6.4090   23.6830  -30.2750 C   0  0  0  0  0  0  0  0  0  0  0  0
   -6.5770   24.0550  -31.6180 C   0  0  0  0  0  0  0  0  0  0  0  0
   -5.9085   24.8047  -32.0663 H   0  0  0  0  0  0  0  0  0  0  0  0
   -7.5900   23.4770  -32.3880 C   0  0  0  0  0  0  0  0  0  0  0  0
   -7.7225   23.7799  -33.4371 H   0  0  0  0  0  0  0  0  0  0  0  0
   -8.4350   22.5150  -31.8280 C   0  0  0  0  0  0  0  0  0  0  0  0
   -9.2316   22.0610  -32.4357 H   0  0  0  0  0  0  0  0  0  0  0  0
   -8.2670   22.1310  -30.4970 C   0  0  0  0  0  0  0  0  0  0  0  0
   -8.9305   21.3721  -30.0567 H   0  0  0  0  0  0  0  0  0  0  0  0
   -7.2570   22.7090  -29.7220 C   0  0  0  0  0  0  0  0  0  0  0  0
   -7.1258   22.3997  -28.6746 H   0  0  0  0  0  0  0  0  0  0  0  0
   -2.4320   21.6100  -32.3580 S   0  0  0  0  0  0  0  0  0  0  0  0
   -3.5180   20.3870  -32.7820 C   0  0  0  0  0  0  0  0  0  0  0  0
   -3.2530   19.3290  -33.7820 C   0  0  0  0  0  0  0  0  0  0  0  0
   -2.2620   19.4370  -34.5500 O   0  0  0  0  0  0  0  0  0  0  0  0
   -4.1350   18.1470  -33.9210 C   0  0  0  0  0  0  0  0  0  0  0  0
   -3.8900   16.9950  -33.1540 C   0  0  0  0  0  0  0  0  0  0  0  0
   -3.0335   16.9697  -32.4643 H   0  0  0  0  0  0  0  0  0  0  0  0
   -4.7280   15.8810  -33.2620 C   0  0  0  0  0  0  0  0  0  0  0  0
   -4.5271   14.9844  -32.6572 H   0  0  0  0  0  0  0  0  0  0  0  0
   -5.8240   15.9010  -34.1380 C   0  0  0  0  0  0  0  0  0  0  0  0
   -6.7410   14.7170  -34.2220 C   0  0  0  0  0  0  0  0  0  0  0  0
   -7.0007   14.3817  -33.2071 H   0  0  0  0  0  0  0  0  0  0  0  0
   -7.6575   15.0005  -34.7603 H   0  0  0  0  0  0  0  0  0  0  0  0
   -6.2373   13.9006  -34.7603 H   0  0  0  0  0  0  0  0  0  0  0  0
   -6.0920   17.0610  -34.8790 C   0  0  0  0  0  0  0  0  0  0  0  0
   -6.9644   17.0940  -35.5481 H   0  0  0  0  0  0  0  0  0  0  0  0
   -5.2550   18.1760  -34.7710 C   0  0  0  0  0  0  0  0  0  0  0  0
   -5.4742   19.0821  -35.3550 H   0  0  0  0  0  0  0  0  0  0  0  0
   -6.9420   20.1090  -32.9470 C   0  0  0  0  0  0  0  0  0  0  0  0
   -6.8627   21.0262  -33.5490 H   0  0  0  0  0  0  0  0  0  0  0  0
   -8.0980   19.3260  -33.0150 C   0  0  0  0  0  0  0  0  0  0  0  0
   -8.9241   19.6238  -33.6775 H   0  0  0  0  0  0  0  0  0  0  0  0
  1  2  1  0
  2  3  2  0
  3  4  1  0
  3  5  1  0
  5  6  1  0
  5  7  2  0
  7  8  1  0
  8  9  1  0
  9 10  1  0
 10 11  2  0
 11 12  1  0
 12 13  2  0
 12 14  1  0
 14 15  1  0
 14 16  1  0
 14 17  1  0
 17 18  2  0
 18 19  1  0
 18 20  1  0
 20 21  1  0
 20 22  2  0
 22 23  1  0
 22 24  1  0
 24 25  1  0
 24 26  2  0
 26 27  1  0
 10 28  1  0
 28 29  1  0
 29 30  1  0
 30 31  2  0
 30 32  1  0
 32 33  2  0
 33 34  1  0
 33 35  1  0
 35 36  1  0
 35 37  2  0
 37 38  1  0
 38 39  1  0
 38 40  1  0
 38 41  1  0
 37 42  1  0
 42 43  1  0
 42 44  2  0
 44 45  1  0
  7 46  1  0
 46 47  1  0
 46 48  2  0
 48 49  1  0
 48  2  1  0
 29  8  2  0
 44 32  1  0
 26 17  1  0
M  CHG  1   9  -1
M  END
>  <UniqueID>  (6) 
6

>  <SMILES>  (6) 
Cc1ccc(C(=O)c2s/c(=N/C(=O)Cc3ccccc3)[n-]c2-c2ccccc2)cc1

>  <Energy>  (6) 
95.89563250221084

>  <Genealogy>  (6) 
Cc1ccc(C(=O)c2sc(=NC(=O)Cc3ccccc3)[n-]c2-c2ccccc2)cc1 (protonated)
Cc1ccc(C(=O)c2s/c(=N/C(=O)Cc3ccccc3)[n-]c2-c2ccccc2)cc1 (cis-trans isomerization)
Cc1ccc(C(=O)c2s/c(=N/C(=O)Cc3ccccc3)[n-]c2-c2ccccc2)cc1 (3D coordinates assigned)
Cc1ccc(C(=O)c2s/c(=N/C(=O)Cc3ccccc3)[n-]c2-c2ccccc2)cc1 (optimized conformer: 95.89563250221084 kcal/mol)

>  <smiles>  (6) 
Cc1ccc(C(=O)c2sc(=NC(=O)Cc3ccccc3)[nH]c2-c2ccccc2)cc1

>  <score_type>  (6) 
oracle

>  <origin>  (6) 
adg

>  <m_score__min__energy>  (6) 
-11.029999999999999

>  <m_primary>  (6) 
energy

$$$$
6:0
     RDKit          3D

 30 32  0  0  0  0  0  0  0  0999 V2000
   -8.8380   22.0530  -31.1600 C   0  0  0  0  0  0  0  0  0  0  0  0
   -7.5260   22.7640  -31.0100 C   0  0  0  0  0  0  0  0  0  0  0  0
   -7.0050   23.5270  -32.0860 C   0  0  0  0  0  0  0  0  0  0  0  0
   -5.7560   24.1680  -31.9710 C   0  0  0  0  0  0  0  0  0  0  0  0
   -5.0540   24.0150  -30.7790 C   0  0  0  0  0  0  0  0  0  0  0  0
   -3.8860   24.5180  -30.4670 O   0  0  0  0  0  0  0  0  0  0  0  0
   -3.5880   24.1190  -29.2420 C   0  0  0  0  0  0  0  0  0  0  0  0
   -2.3340   24.4940  -28.5490 C   0  0  0  0  0  0  0  0  0  0  0  0
   -1.0740   24.2690  -29.1280 C   0  0  0  0  0  0  0  0  0  0  0  0
    0.0580   24.6120  -28.4590 N   0  0  0  0  0  0  0  0  0  0  0  0
    0.0210   25.1860  -27.2300 C   0  0  0  0  0  0  0  0  0  0  0  0
   -1.2090   25.4590  -26.6130 C   0  0  0  0  0  0  0  0  0  0  0  0
   -1.2620   26.0490  -25.2260 C   0  0  0  0  0  0  0  0  0  0  0  0
   -0.4650   27.1780  -25.1410 F   0  0  0  0  0  0  0  0  0  0  0  0
   -0.8130   25.1120  -24.3150 F   0  0  0  0  0  0  0  0  0  0  0  0
   -2.5580   26.4100  -24.9010 F   0  0  0  0  0  0  0  0  0  0  0  0
   -2.3870   25.0850  -27.2770 C   0  0  0  0  0  0  0  0  0  0  0  0
   -4.6140   23.3170  -28.7340 C   0  0  0  0  0  0  0  0  0  0  0  0
   -5.5450   23.2690  -29.7450 C   0  0  0  0  0  0  0  0  0  0  0  0
   -6.7760   22.6200  -29.8220 C   0  0  0  0  0  0  0  0  0  0  0  0
   -9.2499   21.8298  -30.1648 H   0  0  0  0  0  0  0  0  0  0  0  0
   -9.5411   22.6935  -31.7126 H   0  0  0  0  0  0  0  0  0  0  0  0
   -8.6852   21.1142  -31.7126 H   0  0  0  0  0  0  0  0  0  0  0  0
   -7.5813   23.6190  -33.0184 H   0  0  0  0  0  0  0  0  0  0  0  0
   -5.3486   24.7700  -32.7966 H   0  0  0  0  0  0  0  0  0  0  0  0
   -1.0034   23.8134  -30.1267 H   0  0  0  0  0  0  0  0  0  0  0  0
    0.9597   25.4384  -26.7151 H   0  0  0  0  0  0  0  0  0  0  0  0
   -3.3614   25.2566  -26.7962 H   0  0  0  0  0  0  0  0  0  0  0  0
   -4.6652   22.8331  -27.7475 H   0  0  0  0  0  0  0  0  0  0  0  0
   -7.1516   22.0147  -28.9838 H   0  0  0  0  0  0  0  0  0  0  0  0
  1  2  1  0
  2  3  2  0
  3  4  1  0
  4  5  2  0
  5  6  1  0
  6  7  1  0
  7  8  1  0
  8  9  2  0
  9 10  1  0
 10 11  2  0
 11 12  1  0
 12 13  1  0
 13 14  1  0
 13 15  1  0
 13 16  1  0
 12 17  2  0
  7 18  2  0
 18 19  1  0
 19 20  2  0
 20  2  1  0
 19  5  1  0
 17  8  1  0
  1 21  1  0
  1 22  1  0
  1 23  1  0
  3 24  1  0
  4 25  1  0
  9 26  1  0
 11 27  1  0
 17 28  1  0
 18 29  1  0
 20 30  1  0
M  END
>  <UniqueID>  (7) 
7

>  <SMILES>  (7) 
Cc1ccc2oc(-c3cncc(C(F)(F)F)c3)cc2c1

>  <Energy>  (7) 
67.70632383132462

>  <Genealogy>  (7) 
Cc1ccc2oc(-c3cncc(C(F)(F)F)c3)cc2c1 (3D coordinates assigned)
Cc1ccc2oc(-c3cncc(C(F)(F)F)c3)cc2c1 (optimized conformer: 67.70632383132462 kcal/mol)

>  <smiles>  (7) 
Cc1ccc2oc(-c3cncc(C(F)(F)F)c3)cc2c1

>  <score_type>  (7) 
oracle

>  <origin>  (7) 
adg

>  <m_score__min__energy>  (7) 
-6.8200000000000003

>  <m_primary>  (7) 
energy

$$$$
7:0
     RDKit          3D

 36 38  0  0  0  0  0  0  0  0999 V2000
   -2.7980   22.6690  -30.9680 C   0  0  0  0  0  0  0  0  0  0  0  0
   -3.1310   23.5510  -29.8400 N   0  0  0  0  0  0  0  0  0  0  0  0
   -3.1740   22.7740  -28.5870 C   0  0  0  0  0  0  0  0  0  0  0  0
   -2.5180   23.5360  -27.4780 C   0  0  0  0  0  0  0  0  0  0  0  0
   -1.4280   23.1440  -26.7240 C   0  0  0  0  0  0  0  0  0  0  0  0
   -1.1310   24.1520  -25.8790 N   0  0  0  0  0  0  0  0  0  0  0  0
   -2.0170   25.1080  -26.1150 N   0  0  0  0  0  0  0  0  0  0  0  0
   -2.0050   26.4060  -25.4560 C   0  0  0  0  0  0  0  0  0  0  0  0
   -2.8550   24.7750  -27.0840 N   0  0  0  0  0  0  0  0  0  0  0  0
   -4.6810   24.3050  -30.1440 S   0  0  0  0  0  0  0  0  0  0  0  0
   -4.5500   25.3620  -31.2040 O   0  0  0  0  0  0  0  0  0  0  0  0
   -5.2040   24.9430  -28.8860 O   0  0  0  0  0  0  0  0  0  0  0  0
   -5.8250   23.1000  -30.7050 C   0  0  0  0  0  0  0  0  0  0  0  0
   -5.6260   22.2300  -31.7750 C   0  0  0  0  0  0  0  0  0  0  0  0
   -6.7350   21.4080  -31.9960 C   0  0  0  0  0  0  0  0  0  0  0  0
   -6.8540   20.4320  -32.9880 C   0  0  0  0  0  0  0  0  0  0  0  0
   -8.0470   19.6950  -33.0730 C   0  0  0  0  0  0  0  0  0  0  0  0
   -9.1020   19.9390  -32.1710 C   0  0  0  0  0  0  0  0  0  0  0  0
   -8.9740   20.9220  -31.1780 C   0  0  0  0  0  0  0  0  0  0  0  0
   -7.7820   21.6400  -31.1130 C   0  0  0  0  0  0  0  0  0  0  0  0
   -7.3630   22.8640  -30.0440 S   0  0  0  0  0  0  0  0  0  0  0  0
   -2.4339   21.7046  -30.5843 H   0  0  0  0  0  0  0  0  0  0  0  0
   -3.6957   22.5040  -31.5819 H   0  0  0  0  0  0  0  0  0  0  0  0
   -2.0152   23.1385  -31.5819 H   0  0  0  0  0  0  0  0  0  0  0  0
   -4.2223   22.5751  -28.3196 H   0  0  0  0  0  0  0  0  0  0  0  0
   -2.6358   21.8263  -28.7360 H   0  0  0  0  0  0  0  0  0  0  0  0
   -0.8982   22.1829  -26.7996 H   0  0  0  0  0  0  0  0  0  0  0  0
   -2.0063   26.2635  -24.3653 H   0  0  0  0  0  0  0  0  0  0  0  0
   -1.1017   26.9594  -25.7524 H   0  0  0  0  0  0  0  0  0  0  0  0
   -2.8979   26.9760  -25.7524 H   0  0  0  0  0  0  0  0  0  0  0  0
   -3.6160   25.3790  -27.4650 H   0  0  0  0  0  0  0  0  0  0  0  0
   -4.7048   22.1942  -32.3751 H   0  0  0  0  0  0  0  0  0  0  0  0
   -6.0284   20.2438  -33.6901 H   0  0  0  0  0  0  0  0  0  0  0  0
   -8.1583   18.9227  -33.8484 H   0  0  0  0  0  0  0  0  0  0  0  0
  -10.0314   19.3553  -32.2459 H   0  0  0  0  0  0  0  0  0  0  0  0
   -9.7924   21.1202  -30.4703 H   0  0  0  0  0  0  0  0  0  0  0  0
  1  2  1  0
  2  3  1  0
  3  4  1  0
  4  5  1  0
  5  6  2  0
  6  7  1  0
  7  8  1  0
  7  9  1  0
  2 10  1  0
 10 11  2  0
 10 12  2  0
 10 13  1  0
 13 14  2  0
 14 15  1  0
 15 16  2  0
 16 17  1  0
 17 18  2  0
 18 19  1  0
 19 20  2  0
 20 21  1  0
  9  4  2  0
 21 13  1  0
 20 15  1  0
  1 22  1  0
  1 23  1  0
  1 24  1  0
  3 25  1  0
  3 26  1  0
  5 27  1  0
  8 28  1  0
  8 29  1  0
  8 30  1  0
  9 31  1  0
 14 32  1  0
 16 33  1  0
 17 34  1  0
 18 35  1  0
 19 36  1  0
M  CHG  1   9   1
M  END
>  <UniqueID>  (8) 
8

>  <SMILES>  (8) 
CN(Cc1cnn(C)[nH+]1)S(=O)(=O)c1cc2ccccc2s1

>  <Energy>  (8) 
100.36337767886691

>  <Genealogy>  (8) 
CN(Cc1cnn(C)[nH+]1)S(=O)(=O)c1cc2ccccc2s1 (protonated)
CN(Cc1cnn(C)[nH+]1)S(=O)(=O)c1cc2ccccc2s1 (3D coordinates assigned)
CN(Cc1cnn(C)[nH+]1)S(=O)(=O)c1cc2ccccc2s1 (optimized conformer: 100.36337767886691 kcal/mol)

>  <smiles>  (8) 
CN(Cc1cnn(C)n1)S(=O)(=O)c1cc2ccccc2s1

>  <score_type>  (8) 
oracle

>  <origin>  (8) 
adg

>  <m_score__min__energy>  (8) 
-8.1600000000000001

>  <m_primary>  (8) 
energy

$$$$
8:0
     RDKit          3D

 40 42  0  0  0  0  0  0  0  0999 V2000
   -0.4340   25.5990  -26.6460 C   0  0  0  0  0  0  0  0  0  0  0  0
   -0.9630   24.7320  -27.7490 C   0  0  0  0  0  0  0  0  0  0  0  0
   -0.4820   23.4260  -27.9090 C   0  0  0  0  0  0  0  0  0  0  0  0
   -1.0080   22.5990  -28.9040 C   0  0  0  0  0  0  0  0  0  0  0  0
   -2.0300   23.0570  -29.7490 C   0  0  0  0  0  0  0  0  0  0  0  0
   -2.6050   22.1140  -30.7720 C   0  0  0  0  0  0  0  0  0  0  0  0
   -2.4940   24.3880  -29.6130 C   0  0  0  0  0  0  0  0  0  0  0  0
   -3.5160   24.9280  -30.4590 N   0  0  0  0  0  0  0  0  0  0  0  0
   -4.9030   24.5920  -30.3570 C   0  0  0  0  0  0  0  0  0  0  0  0
   -5.4040   24.2730  -29.2460 O   0  0  0  0  0  0  0  0  0  0  0  0
   -5.7410   24.5300  -31.5940 C   0  0  0  0  0  0  0  0  0  0  0  0
   -6.4400   23.2370  -31.6640 N   0  0  0  0  0  0  0  0  0  0  0  0
   -7.6200   23.0880  -30.9910 C   0  0  0  0  0  0  0  0  0  0  0  0
   -8.2830   21.9030  -31.0040 N   0  0  0  0  0  0  0  0  0  0  0  0
   -7.7900   20.8290  -31.6750 C   0  0  0  0  0  0  0  0  0  0  0  0
   -8.4850   19.6080  -31.6780 C   0  0  0  0  0  0  0  0  0  0  0  0
   -7.9680   18.5070  -32.3670 C   0  0  0  0  0  0  0  0  0  0  0  0
   -6.7570   18.6150  -33.0550 C   0  0  0  0  0  0  0  0  0  0  0  0
   -6.0560   19.8240  -33.0580 C   0  0  0  0  0  0  0  0  0  0  0  0
   -6.5680   20.9400  -32.3700 C   0  0  0  0  0  0  0  0  0  0  0  0
   -5.8970   22.1760  -32.3440 C   0  0  0  0  0  0  0  0  0  0  0  0
   -4.7940   22.3050  -32.9460 O   0  0  0  0  0  0  0  0  0  0  0  0
   -1.9830   25.1980  -28.5910 C   0  0  0  0  0  0  0  0  0  0  0  0
   -0.7020   25.1598  -25.6738 H   0  0  0  0  0  0  0  0  0  0  0  0
    0.6607   25.6689  -26.7275 H   0  0  0  0  0  0  0  0  0  0  0  0
   -0.8726   26.6045  -26.7275 H   0  0  0  0  0  0  0  0  0  0  0  0
    0.3132   23.0504  -27.2483 H   0  0  0  0  0  0  0  0  0  0  0  0
   -0.6170   21.5782  -29.0264 H   0  0  0  0  0  0  0  0  0  0  0  0
   -3.1119   21.2826  -30.2603 H   0  0  0  0  0  0  0  0  0  0  0  0
   -3.3284   22.6528  -31.4016 H   0  0  0  0  0  0  0  0  0  0  0  0
   -1.7948   21.7176  -31.4016 H   0  0  0  0  0  0  0  0  0  0  0  0
   -6.4811   25.3436  -31.5738 H   0  0  0  0  0  0  0  0  0  0  0  0
   -5.0920   24.6379  -32.4756 H   0  0  0  0  0  0  0  0  0  0  0  0
   -8.0378   23.9383  -30.4320 H   0  0  0  0  0  0  0  0  0  0  0  0
   -9.1860   21.8290  -30.4800 H   0  0  0  0  0  0  0  0  0  0  0  0
   -9.4384   19.5181  -31.1368 H   0  0  0  0  0  0  0  0  0  0  0  0
   -8.5161   17.5533  -32.3674 H   0  0  0  0  0  0  0  0  0  0  0  0
   -6.3541   17.7460  -33.5959 H   0  0  0  0  0  0  0  0  0  0  0  0
   -5.1018   19.9036  -33.5994 H   0  0  0  0  0  0  0  0  0  0  0  0
   -2.3864   26.2112  -28.4472 H   0  0  0  0  0  0  0  0  0  0  0  0
  1  2  1  0
  2  3  2  0
  3  4  1  0
  4  5  2  0
  5  6  1  0
  5  7  1  0
  7  8  1  0
  8  9  1  0
  9 10  2  0
  9 11  1  0
 11 12  1  0
 12 13  1  0
 13 14  2  0
 14 15  1  0
 15 16  2  0
 16 17  1  0
 17 18  2  0
 18 19  1  0
 19 20  2  0
 20 21  1  0
 21 22  2  0
  7 23  2  0
 23  2  1  0
 21 12  1  0
 20 15  1  0
  1 24  1  0
  1 25  1  0
  1 26  1  0
  3 27  1  0
  4 28  1  0
  6 29  1  0
  6 30  1  0
  6 31  1  0
 11 32  1  0
 11 33  1  0
 13 34  1  0
 14 35  1  0
 16 36  1  0
 17 37  1  0
 18 38  1  0
 19 39  1  0
 23 40  1  0
M  CHG  2   8  -1  14   1
M  END
>  <UniqueID>  (9) 
9

>  <SMILES>  (9) 
Cc1ccc(C)c([N-]C(=O)Cn2c[nH+]c3ccccc3c2=O)c1

>  <Energy>  (9) 
52.91091339815597

>  <Genealogy>  (9) 
Cc1ccc(C)c([N-]C(=O)Cn2c[nH+]c3ccccc3c2=O)c1 (protonated)
Cc1ccc(C)c([N-]C(=O)Cn2c[nH+]c3ccccc3c2=O)c1 (3D coordinates assigned)
Cc1ccc(C)c([N-]C(=O)Cn2c[nH+]c3ccccc3c2=O)c1 (optimized conformer: 52.91091339815597 kcal/mol)

>  <smiles>  (9) 
Cc1ccc(C)c(NC(=O)Cn2cnc3ccccc3c2=O)c1

>  <score_type>  (9) 
oracle

>  <origin>  (9) 
adg

>  <m_score__min__energy>  (9) 
-9.0700000000000003

>  <m_primary>  (9) 
energy

$$$$
9:0
     RDKit          3D

 37 39  0  0  0  0  0  0  0  0999 V2000
   -1.5110   20.3880  -34.1580 C   0  0  0  0  0  0  0  0  0  0  0  0
   -2.2750   19.3650  -33.5290 O   0  0  0  0  0  0  0  0  0  0  0  0
   -3.6780   19.3120  -33.5080 C   0  0  0  0  0  0  0  0  0  0  0  0
   -4.3930   18.4420  -34.3570 C   0  0  0  0  0  0  0  0  0  0  0  0
   -5.7880   18.3970  -34.3170 C   0  0  0  0  0  0  0  0  0  0  0  0
   -6.4880   19.2160  -33.4330 C   0  0  0  0  0  0  0  0  0  0  0  0
   -5.7980   20.0850  -32.5880 C   0  0  0  0  0  0  0  0  0  0  0  0
   -4.3920   20.1470  -32.6150 C   0  0  0  0  0  0  0  0  0  0  0  0
   -3.6880   21.0790  -31.7010 C   0  0  0  0  0  0  0  0  0  0  0  0
   -4.0420   22.3730  -31.5380 N   0  0  0  0  0  0  0  0  0  0  0  0
   -3.1610   22.8320  -30.6320 C   0  0  0  0  0  0  0  0  0  0  0  0
   -3.1230   24.2110  -30.0970 C   0  0  0  0  0  0  0  0  0  0  0  0
   -2.4260   24.4410  -29.0740 O   0  0  0  0  0  0  0  0  0  0  0  0
   -3.8510   25.3030  -30.6810 N   0  0  0  0  0  0  0  0  0  0  0  0
   -5.2540   25.6450  -30.4690 C   0  0  0  0  0  0  0  0  0  0  0  0
   -6.1580   24.4850  -30.7870 C   0  0  0  0  0  0  0  0  0  0  0  0
   -6.6750   23.6900  -29.7550 C   0  0  0  0  0  0  0  0  0  0  0  0
   -7.5010   22.6090  -30.0690 C   0  0  0  0  0  0  0  0  0  0  0  0
   -7.7870   22.3190  -31.4040 C   0  0  0  0  0  0  0  0  0  0  0  0
   -7.2330   23.1150  -32.4090 C   0  0  0  0  0  0  0  0  0  0  0  0
   -6.4340   24.1650  -32.0840 N   0  0  0  0  0  0  0  0  0  0  0  0
   -2.3020   21.8130  -30.2810 C   0  0  0  0  0  0  0  0  0  0  0  0
   -2.6550   20.7480  -30.9570 O   0  0  0  0  0  0  0  0  0  0  0  0
   -1.0399   21.0187  -33.3897 H   0  0  0  0  0  0  0  0  0  0  0  0
   -0.7317   19.9305  -34.7852 H   0  0  0  0  0  0  0  0  0  0  0  0
   -2.1709   21.0054  -34.7852 H   0  0  0  0  0  0  0  0  0  0  0  0
   -3.8467   17.7929  -35.0571 H   0  0  0  0  0  0  0  0  0  0  0  0
   -6.3350   17.7144  -34.9839 H   0  0  0  0  0  0  0  0  0  0  0  0
   -7.5869   19.1770  -33.4016 H   0  0  0  0  0  0  0  0  0  0  0  0
   -6.3582   20.7284  -31.8935 H   0  0  0  0  0  0  0  0  0  0  0  0
   -5.3970   25.9317  -29.4167 H   0  0  0  0  0  0  0  0  0  0  0  0
   -5.5117   26.4777  -31.1400 H   0  0  0  0  0  0  0  0  0  0  0  0
   -6.4320   23.9159  -28.7062 H   0  0  0  0  0  0  0  0  0  0  0  0
   -7.9252   21.9876  -29.2665 H   0  0  0  0  0  0  0  0  0  0  0  0
   -8.4413   21.4731  -31.6616 H   0  0  0  0  0  0  0  0  0  0  0  0
   -7.4438   22.8916  -33.4653 H   0  0  0  0  0  0  0  0  0  0  0  0
   -1.4710   21.8816  -29.5636 H   0  0  0  0  0  0  0  0  0  0  0  0
  1  2  1  0
  2  3  1  0
  3  4  2  0
  4  5  1  0
  5  6  2  0
  6  7  1  0
  7  8  2  0
  8  9  1  0
  9 10  2  0
 10 11  1  0
 11 12  1  0
 12 13  2  0
 12 14  1  0
 14 15  1  0
 15 16  1  0
 16 17  2  0
 17 18  1  0
 18 19  2  0
 19 20  1  0
 20 21  2  0
 11 22  2  0
 22 23  1  0
  8  3  1  0
 23  9  1  0
 21 16  1  0
  1 24  1  0
  1 25  1  0
  1 26  1  0
  4 27  1  0
  5 28  1  0
  6 29  1  0
  7 30  1  0
 15 31  1  0
 15 32  1  0
 17 33  1  0
 18 34  1  0
 19 35  1  0
 20 36  1  0
 22 37  1  0
M  CHG  1  14  -1
M  END
>  <UniqueID>  (10) 
10

>  <SMILES>  (10) 
COc1ccccc1-c1nc(C(=O)[N-]Cc2ccccn2)co1

>  <Energy>  (10) 
68.81310530713402

>  <Genealogy>  (10) 
COc1ccccc1-c1nc(C(=O)[N-]Cc2ccccn2)co1 (protonated)
COc1ccccc1-c1nc(C(=O)[N-]Cc2ccccn2)co1 (3D coordinates assigned)
COc1ccccc1-c1nc(C(=O)[N-]Cc2ccccn2)co1 (optimized conformer: 68.81310530713402 kcal/mol)

>  <smiles>  (10) 
COc1ccccc1-c1nc(C(=O)NCc2ccccn2)co1

>  <score_type>  (10) 
oracle

>  <origin>  (10) 
adg

>  <m_score__min__energy>  (10) 
-9.5899999999999999

>  <m_primary>  (10) 
energy

$$$$
10:0
     RDKit          3D

 42 44  0  0  0  0  0  0  0  0999 V2000
    4.4790   18.9520  -27.4960 C   0  0  0  0  0  0  0  0  0  0  0  0
    3.8160   18.9740  -28.8420 C   0  0  0  0  0  0  0  0  0  0  0  0
    4.5740   18.8190  -30.0090 C   0  0  0  0  0  0  0  0  0  0  0  0
    3.9750   18.8930  -31.2250 N   0  0  0  0  0  0  0  0  0  0  0  0
    2.6410   19.1210  -31.3560 C   0  0  0  0  0  0  0  0  0  0  0  0
    1.8330   19.2870  -30.2190 C   0  0  0  0  0  0  0  0  0  0  0  0
    0.3820   19.5480  -30.3760 C   0  0  0  0  0  0  0  0  0  0  0  0
   -0.4390   18.6750  -29.9810 O   0  0  0  0  0  0  0  0  0  0  0  0
   -0.0990   20.7680  -30.9730 N   0  0  0  0  0  0  0  0  0  0  0  0
   -1.4900   21.1220  -31.0620 C   0  0  0  0  0  0  0  0  0  0  0  0
   -2.3280   21.0930  -29.9330 C   0  0  0  0  0  0  0  0  0  0  0  0
   -3.6700   21.4700  -30.0410 C   0  0  0  0  0  0  0  0  0  0  0  0
   -4.1860   21.9030  -31.2720 C   0  0  0  0  0  0  0  0  0  0  0  0
   -5.6050   22.2940  -31.3820 C   0  0  0  0  0  0  0  0  0  0  0  0
   -6.4790   21.4450  -32.0810 C   0  0  0  0  0  0  0  0  0  0  0  0
   -7.8240   21.7810  -32.2350 C   0  0  0  0  0  0  0  0  0  0  0  0
   -8.3130   22.9680  -31.6920 C   0  0  0  0  0  0  0  0  0  0  0  0
   -7.4610   23.8170  -30.9820 C   0  0  0  0  0  0  0  0  0  0  0  0
   -6.1070   23.4890  -30.8080 C   0  0  0  0  0  0  0  0  0  0  0  0
   -5.0860   24.5720  -29.8460 S   0  0  0  0  0  0  0  0  0  0  0  0
   -3.8660   25.2890  -30.8390 N   0  0  0  0  0  0  0  0  0  0  0  0
   -4.4070   23.7980  -28.7500 O   0  0  0  0  0  0  0  0  0  0  0  0
   -5.9310   25.6490  -29.2280 O   0  0  0  0  0  0  0  0  0  0  0  0
   -3.3510   21.9390  -32.3970 C   0  0  0  0  0  0  0  0  0  0  0  0
   -2.0090   21.5630  -32.2880 C   0  0  0  0  0  0  0  0  0  0  0  0
    2.4430   19.2290  -28.9540 C   0  0  0  0  0  0  0  0  0  0  0  0
    3.7113   18.9775  -26.7086 H   0  0  0  0  0  0  0  0  0  0  0  0
    5.0761   18.0335  -27.3963 H   0  0  0  0  0  0  0  0  0  0  0  0
    5.1357   19.8288  -27.3963 H   0  0  0  0  0  0  0  0  0  0  0  0
    5.6567   18.6370  -29.9404 H   0  0  0  0  0  0  0  0  0  0  0  0
    2.1917   19.1758  -32.3586 H   0  0  0  0  0  0  0  0  0  0  0  0
    0.5820   21.4220  -31.4160 H   0  0  0  0  0  0  0  0  0  0  0  0
   -1.9259   20.7723  -28.9607 H   0  0  0  0  0  0  0  0  0  0  0  0
   -4.3239   21.4270  -29.1575 H   0  0  0  0  0  0  0  0  0  0  0  0
   -6.0992   20.5064  -32.5109 H   0  0  0  0  0  0  0  0  0  0  0  0
   -8.4990   21.1090  -32.7852 H   0  0  0  0  0  0  0  0  0  0  0  0
   -9.3717   23.2365  -31.8229 H   0  0  0  0  0  0  0  0  0  0  0  0
   -7.8545   24.7513  -30.5552 H   0  0  0  0  0  0  0  0  0  0  0  0
   -2.9800   25.2850  -30.2850 H   0  0  0  0  0  0  0  0  0  0  0  0
   -3.7526   22.2639  -33.3682 H   0  0  0  0  0  0  0  0  0  0  0  0
   -1.3548   21.6134  -33.1709 H   0  0  0  0  0  0  0  0  0  0  0  0
    1.8394   19.3846  -28.0476 H   0  0  0  0  0  0  0  0  0  0  0  0
  1  2  1  0
  2  3  2  0
  3  4  1  0
  4  5  2  0
  5  6  1  0
  6  7  1  0
  7  8  2  0
  7  9  1  0
  9 10  1  0
 10 11  2  0
 11 12  1  0
 12 13  2  0
 13 14  1  0
 14 15  2  0
 15 16  1  0
 16 17  2  0
 17 18  1  0
 18 19  2  0
 19 20  1  0
 20 21  1  0
 20 22  2  0
 20 23  2  0
 13 24  1  0
 24 25  2  0
  6 26  2  0
 26  2  1  0
 25 10  1  0
 19 14  1  0
  1 27  1  0
  1 28  1  0
  1 29  1  0
  3 30  1  0
  5 31  1  0
  9 32  1  0
 11 33  1  0
 12 34  1  0
 15 35  1  0
 16 36  1  0
 17 37  1  0
 18 38  1  0
 21 39  1  0
 24 40  1  0
 25 41  1  0
 26 42  1  0
M  CHG  1  21  -1
M  END
>  <UniqueID>  (11) 
11

>  <SMILES>  (11) 
Cc1cncc(C(=O)Nc2ccc(-c3ccccc3S([NH-])(=O)=O)cc2)c1

>  <Energy>  (11) 
59.7065679274482

>  <Genealogy>  (11) 
Cc1cncc(C(=O)Nc2ccc(-c3ccccc3S([NH-])(=O)=O)cc2)c1 (protonated)
Cc1cncc(C(=O)Nc2ccc(-c3ccccc3S([NH-])(=O)=O)cc2)c1 (3D coordinates assigned)
Cc1cncc(C(=O)Nc2ccc(-c3ccccc3S([NH-])(=O)=O)cc2)c1 (optimized conformer: 59.7065679274482 kcal/mol)

>  <smiles>  (11) 
Cc1cncc(C(=O)Nc2ccc(-c3ccccc3S(N)(=O)=O)cc2)c1

>  <score_type>  (11) 
oracle

>  <origin>  (11) 
adg

>  <m_score__min__energy>  (11) 
-9.8100000000000005

>  <m_primary>  (11) 
energy

$$$$
11:0
     RDKit          3D

 48 51  0  0  0  0  0  0  0  0999 V2000
   -0.1920   27.9340  -27.0490 C   0  0  0  0  0  0  0  0  0  0  0  0
   -1.1110   26.8870  -26.4280 C   0  0  0  0  0  0  0  0  0  0  0  0
   -1.1530   25.6470  -27.2750 C   0  0  0  0  0  0  0  0  0  0  0  0
   -0.0610   25.2840  -28.0050 N   0  0  0  0  0  0  0  0  0  0  0  0
   -0.0690   24.1770  -28.7610 N   0  0  0  0  0  0  0  0  0  0  0  0
   -1.1600   23.3600  -28.8260 C   0  0  0  0  0  0  0  0  0  0  0  0
   -1.1420   22.1870  -29.6570 N   0  0  0  0  0  0  0  0  0  0  0  0
   -0.4360   20.9940  -29.1630 C   0  0  0  0  0  0  0  0  0  0  0  0
   -0.5310   20.8940  -27.6410 C   0  0  0  0  0  0  0  0  0  0  0  0
   -1.0210   19.6200  -27.2840 O   0  0  0  0  0  0  0  0  0  0  0  0
   -2.3990   19.7090  -27.0060 C   0  0  0  0  0  0  0  0  0  0  0  0
   -1.6110   22.2730  -31.0500 C   0  0  0  0  0  0  0  0  0  0  0  0
   -3.0340   22.7360  -31.1180 C   0  0  0  0  0  0  0  0  0  0  0  0
   -3.3440   24.0260  -30.8200 N   0  0  0  0  0  0  0  0  0  0  0  0
   -4.6280   24.4700  -30.8460 C   0  0  0  0  0  0  0  0  0  0  0  0
   -4.8710   25.6740  -30.5670 O   0  0  0  0  0  0  0  0  0  0  0  0
   -5.6650   23.5820  -31.1820 C   0  0  0  0  0  0  0  0  0  0  0  0
   -7.0150   23.9760  -31.2260 C   0  0  0  0  0  0  0  0  0  0  0  0
   -8.0040   23.0470  -31.5630 C   0  0  0  0  0  0  0  0  0  0  0  0
   -7.6570   21.7250  -31.8580 C   0  0  0  0  0  0  0  0  0  0  0  0
   -6.3190   21.3230  -31.8170 C   0  0  0  0  0  0  0  0  0  0  0  0
   -5.3200   22.2450  -31.4810 C   0  0  0  0  0  0  0  0  0  0  0  0
   -4.0200   21.8560  -31.4410 N   0  0  0  0  0  0  0  0  0  0  0  0
   -2.2780   23.7310  -28.0770 C   0  0  0  0  0  0  0  0  0  0  0  0
   -3.4660   23.0930  -28.0320 N   0  0  0  0  0  0  0  0  0  0  0  0
   -4.2010   23.8590  -27.1920 C   0  0  0  0  0  0  0  0  0  0  0  0
   -3.4540   24.9390  -26.7530 C   0  0  0  0  0  0  0  0  0  0  0  0
   -2.2470   24.8420  -27.3300 N   0  0  0  0  0  0  0  0  0  0  0  0
    0.3075   28.5030  -26.2510 H   0  0  0  0  0  0  0  0  0  0  0  0
    0.5647   27.4345  -27.6719 H   0  0  0  0  0  0  0  0  0  0  0  0
   -0.7854   28.6195  -27.6719 H   0  0  0  0  0  0  0  0  0  0  0  0
   -0.7376   26.6275  -25.4264 H   0  0  0  0  0  0  0  0  0  0  0  0
   -2.1268   27.3037  -26.3609 H   0  0  0  0  0  0  0  0  0  0  0  0
   -0.8877   20.0969  -29.6116 H   0  0  0  0  0  0  0  0  0  0  0  0
    0.6246   21.0723  -29.4441 H   0  0  0  0  0  0  0  0  0  0  0  0
    0.4665   21.0400  -27.2008 H   0  0  0  0  0  0  0  0  0  0  0  0
   -1.2146   21.6690  -27.2642 H   0  0  0  0  0  0  0  0  0  0  0  0
   -2.5534   19.7190  -25.9169 H   0  0  0  0  0  0  0  0  0  0  0  0
   -2.8020   20.6350  -27.4420 H   0  0  0  0  0  0  0  0  0  0  0  0
   -2.9177   18.8425  -27.4420 H   0  0  0  0  0  0  0  0  0  0  0  0
   -0.9762   22.9845  -31.5985 H   0  0  0  0  0  0  0  0  0  0  0  0
   -1.5504   21.2707  -31.4991 H   0  0  0  0  0  0  0  0  0  0  0  0
   -7.2924   25.0151  -30.9952 H   0  0  0  0  0  0  0  0  0  0  0  0
   -9.0588   23.3572  -31.5962 H   0  0  0  0  0  0  0  0  0  0  0  0
   -8.4396   20.9990  -32.1232 H   0  0  0  0  0  0  0  0  0  0  0  0
   -6.0505   20.2818  -32.0488 H   0  0  0  0  0  0  0  0  0  0  0  0
   -5.2415   23.6531  -26.9003 H   0  0  0  0  0  0  0  0  0  0  0  0
   -3.7873   25.7273  -26.0619 H   0  0  0  0  0  0  0  0  0  0  0  0
  1  2  1  0
  2  3  1  0
  3  4  2  0
  4  5  1  0
  5  6  2  0
  6  7  1  0
  7  8  1  0
  8  9  1  0
  9 10  1  0
 10 11  1  0
  7 12  1  0
 12 13  1  0
 13 14  2  0
 14 15  1  0
 15 16  2  0
 15 17  1  0
 17 18  2  0
 18 19  1  0
 19 20  2  0
 20 21  1  0
 21 22  2  0
 22 23  1  0
  6 24  1  0
 24 25  2  0
 25 26  1  0
 26 27  2  0
 27 28  1  0
 28  3  1  0
 23 13  1  0
 28 24  1  0
 22 17  1  0
  1 29  1  0
  1 30  1  0
  1 31  1  0
  2 32  1  0
  2 33  1  0
  8 34  1  0
  8 35  1  0
  9 36  1  0
  9 37  1  0
 11 38  1  0
 11 39  1  0
 11 40  1  0
 12 41  1  0
 12 42  1  0
 18 43  1  0
 19 44  1  0
 20 45  1  0
 21 46  1  0
 26 47  1  0
 27 48  1  0
M  CHG  1  23  -1
M  END
>  <UniqueID>  (12) 
12

>  <SMILES>  (12) 
CCc1nnc(N(CCOC)Cc2nc(=O)c3ccccc3[n-]2)c2nccn12

>  <Energy>  (12) 
91.58956604805489

>  <Genealogy>  (12) 
CCc1nnc(N(CCOC)Cc2nc(=O)c3ccccc3[n-]2)c2nccn12 (protonated)
CCc1nnc(N(CCOC)Cc2nc(=O)c3ccccc3[n-]2)c2nccn12 (3D coordinates assigned)
CCc1nnc(N(CCOC)Cc2nc(=O)c3ccccc3[n-]2)c2nccn12 (optimized conformer: 91.58956604805489 kcal/mol)

>  <smiles>  (12) 
CCc1nnc(N(CCOC)Cc2nc(=O)c3ccccc3[nH]2)c2nccn12

>  <score_type>  (12) 
oracle

>  <origin>  (12) 
adg

>  <m_score__min__energy>  (12) 
-8.9100000000000001

>  <m_primary>  (12) 
energy

$$$$
12:0
     RDKit          3D

 41 42  0  0  0  0  0  0  0  0999 V2000
   -8.7640   18.9580  -31.3850 C   0  0  0  0  0  0  0  0  0  0  0  0
   -7.4800   19.0360  -32.0840 N   0  0  0  0  0  0  0  0  0  0  0  0
   -7.2920   20.0570  -33.1220 C   0  0  0  0  0  0  0  0  0  0  0  0
   -6.7660   21.3260  -32.5080 C   0  0  0  0  0  0  0  0  0  0  0  0
   -7.6500   22.2630  -31.9540 C   0  0  0  0  0  0  0  0  0  0  0  0
   -7.1620   23.4230  -31.3470 C   0  0  0  0  0  0  0  0  0  0  0  0
   -5.7780   23.6630  -31.2770 C   0  0  0  0  0  0  0  0  0  0  0  0
   -5.2780   24.8590  -30.6510 N   0  0  0  0  0  0  0  0  0  0  0  0
   -6.0210   25.5620  -29.9350 O   0  0  0  0  0  0  0  0  0  0  0  0
   -3.9700   25.2490  -30.8320 O   0  0  0  0  0  0  0  0  0  0  0  0
   -4.8940   22.7140  -31.8220 C   0  0  0  0  0  0  0  0  0  0  0  0
   -5.3840   21.5530  -32.4280 C   0  0  0  0  0  0  0  0  0  0  0  0
   -6.5250   17.9610  -31.9750 C   0  0  0  0  0  0  0  0  0  0  0  0
   -6.1680   17.5150  -30.8070 N   0  0  0  0  0  0  0  0  0  0  0  0
   -5.9600   17.3850  -33.1640 N   0  0  0  0  0  0  0  0  0  0  0  0
   -6.0210   15.9370  -33.3920 C   0  0  0  0  0  0  0  0  0  0  0  0
   -4.6470   15.4030  -33.8220 C   0  0  0  0  0  0  0  0  0  0  0  0
   -3.9090   16.3240  -34.8220 C   0  0  0  0  0  0  0  0  0  0  0  0
   -4.7800   17.4730  -35.3450 C   0  0  0  0  0  0  0  0  0  0  0  0
   -5.3740   18.2730  -34.1780 C   0  0  0  0  0  0  0  0  0  0  0  0
   -8.5913   18.9685  -30.2987 H   0  0  0  0  0  0  0  0  0  0  0  0
   -9.3872   19.8199  -31.6656 H   0  0  0  0  0  0  0  0  0  0  0  0
   -9.2782   18.0270  -31.6656 H   0  0  0  0  0  0  0  0  0  0  0  0
   -6.5733   19.6888  -33.8689 H   0  0  0  0  0  0  0  0  0  0  0  0
   -8.2590   20.2635  -33.6040 H   0  0  0  0  0  0  0  0  0  0  0  0
   -8.7344   22.0837  -31.9976 H   0  0  0  0  0  0  0  0  0  0  0  0
   -7.8652   24.1537  -30.9209 H   0  0  0  0  0  0  0  0  0  0  0  0
   -3.8088   22.8866  -31.7710 H   0  0  0  0  0  0  0  0  0  0  0  0
   -4.6828   20.8145  -32.8438 H   0  0  0  0  0  0  0  0  0  0  0  0
   -6.2960   16.5090  -30.5560 H   0  0  0  0  0  0  0  0  0  0  0  0
   -5.7440   18.1440  -30.0890 H   0  0  0  0  0  0  0  0  0  0  0  0
   -6.3292   15.4366  -32.4622 H   0  0  0  0  0  0  0  0  0  0  0  0
   -6.7486   15.7326  -34.1912 H   0  0  0  0  0  0  0  0  0  0  0  0
   -4.0208   15.2919  -32.9245 H   0  0  0  0  0  0  0  0  0  0  0  0
   -4.8195   14.4446  -34.3336 H   0  0  0  0  0  0  0  0  0  0  0  0
   -3.0304   16.7533  -34.3183 H   0  0  0  0  0  0  0  0  0  0  0  0
   -3.6295   15.7066  -35.6884 H   0  0  0  0  0  0  0  0  0  0  0  0
   -4.1638   18.1409  -35.9649 H   0  0  0  0  0  0  0  0  0  0  0  0
   -5.6024   17.0520  -35.9421 H   0  0  0  0  0  0  0  0  0  0  0  0
   -4.5775   18.8719  -33.7123 H   0  0  0  0  0  0  0  0  0  0  0  0
   -6.1699   18.9221  -34.5721 H   0  0  0  0  0  0  0  0  0  0  0  0
  1  2  1  0
  2  3  1  0
  3  4  1  0
  4  5  2  0
  5  6  1  0
  6  7  2  0
  7  8  1  0
  8  9  2  0
  8 10  1  0
  7 11  1  0
 11 12  2  0
  2 13  1  0
 13 14  2  0
 13 15  1  0
 15 16  1  0
 16 17  1  0
 17 18  1  0
 18 19  1  0
 19 20  1  0
 12  4  1  0
 20 15  1  0
  1 21  1  0
  1 22  1  0
  1 23  1  0
  3 24  1  0
  3 25  1  0
  5 26  1  0
  6 27  1  0
 11 28  1  0
 12 29  1  0
 14 30  1  0
 14 31  1  0
 16 32  1  0
 16 33  1  0
 17 34  1  0
 17 35  1  0
 18 36  1  0
 18 37  1  0
 19 38  1  0
 19 39  1  0
 20 40  1  0
 20 41  1  0
M  CHG  3   8   1  10  -1  14   1
M  END
>  <UniqueID>  (13) 
13

>  <SMILES>  (13) 
CN(Cc1ccc([N+](=O)[O-])cc1)C(=[NH2+])N1CCCCC1

>  <Energy>  (13) 
43.98832829246556

>  <Genealogy>  (13) 
CN(Cc1ccc([N+](=O)[O-])cc1)C(=[NH2+])N1CCCCC1 (protonated)
CN(Cc1ccc([N+](=O)[O-])cc1)C(=[NH2+])N1CCCCC1 (3D coordinates assigned)
CN(Cc1ccc([N+](=O)[O-])cc1)C(=[NH2+])N1CCCCC1 (nonaromatic ring conformer: 43.98832829246556 kcal/mol)

>  <smiles>  (13) 
CN(Cc1ccc([N+](=O)[O-])cc1)C(=N)N1CCCCC1

>  <score_type>  (13) 
oracle

>  <origin>  (13) 
adg

>  <m_score__min__energy>  (13) 
-7.6299999999999999

>  <m_primary>  (13) 
energy

$$$$
13:0
     RDKit          3D

 44 45  0  0  0  0  0  0  0  0999 V2000
   -4.4730   17.5940  -34.6960 C   0  0  0  0  0  0  0  0  0  0  0  0
   -3.3710   17.9490  -33.7030 C   0  0  0  0  0  0  0  0  0  0  0  0
   -3.1400   19.4690  -33.6500 C   0  0  0  0  0  0  0  0  0  0  0  0
   -3.5930   20.1060  -32.3030 C   0  0  1  0  0  0  0  0  0  0  0  0
   -2.4050   20.9560  -31.7410 C   0  0  0  0  0  0  0  0  0  0  0  0
   -1.2940   21.1850  -32.7710 C   0  0  0  0  0  0  0  0  0  0  0  0
   -4.8660   20.8870  -32.4690 N   0  0  0  0  0  0  0  0  0  0  0  0
   -4.6310   22.3420  -32.7180 C   0  0  0  0  0  0  0  0  0  0  0  0
   -5.3040   23.2580  -31.7220 C   0  0  0  0  0  0  0  0  0  0  0  0
   -6.6480   23.0770  -31.3590 C   0  0  0  0  0  0  0  0  0  0  0  0
   -7.2340   23.9480  -30.4390 C   0  0  0  0  0  0  0  0  0  0  0  0
   -6.4870   24.9940  -29.8970 C   0  0  0  0  0  0  0  0  0  0  0  0
   -5.1570   25.1560  -30.2890 C   0  0  0  0  0  0  0  0  0  0  0  0
   -4.6030   24.2960  -31.1860 N   0  0  0  0  0  0  0  0  0  0  0  0
   -5.8090   20.3140  -33.4650 C   0  0  0  0  0  0  0  0  0  0  0  0
   -7.0070   19.6890  -32.8100 C   0  0  0  0  0  0  0  0  0  0  0  0
   -8.2510   20.2850  -32.6560 C   0  0  0  0  0  0  0  0  0  0  0  0
   -9.1700   19.4740  -31.9800 C   0  0  0  0  0  0  0  0  0  0  0  0
   -8.6480   18.2460  -31.5920 C   0  0  0  0  0  0  0  0  0  0  0  0
   -7.0440   18.1700  -32.0920 S   0  0  0  0  0  0  0  0  0  0  0  0
   -5.3806   17.3016  -34.1475 H   0  0  0  0  0  0  0  0  0  0  0  0
   -4.6920   18.4671  -35.3283 H   0  0  0  0  0  0  0  0  0  0  0  0
   -4.1412   16.7573  -35.3283 H   0  0  0  0  0  0  0  0  0  0  0  0
   -3.6613   17.5949  -32.7028 H   0  0  0  0  0  0  0  0  0  0  0  0
   -2.4384   17.4656  -34.0294 H   0  0  0  0  0  0  0  0  0  0  0  0
   -2.0664   19.6655  -33.7873 H   0  0  0  0  0  0  0  0  0  0  0  0
   -3.7455   19.9222  -34.4487 H   0  0  0  0  0  0  0  0  0  0  0  0
   -3.8351   19.3252  -31.5670 H   0  0  0  0  0  0  0  0  0  0  0  0
   -2.7939   21.9340  -31.4214 H   0  0  0  0  0  0  0  0  0  0  0  0
   -1.9664   20.3951  -30.9025 H   0  0  0  0  0  0  0  0  0  0  0  0
   -0.3453   21.3805  -32.2497 H   0  0  0  0  0  0  0  0  0  0  0  0
   -1.1882   20.2898  -33.4014 H   0  0  0  0  0  0  0  0  0  0  0  0
   -1.5509   22.0491  -33.4014 H   0  0  0  0  0  0  0  0  0  0  0  0
   -3.5475   22.5278  -32.6800 H   0  0  0  0  0  0  0  0  0  0  0  0
   -5.0684   22.5689  -33.7015 H   0  0  0  0  0  0  0  0  0  0  0  0
   -7.2345   22.2554  -31.7960 H   0  0  0  0  0  0  0  0  0  0  0  0
   -8.2840   23.8097  -30.1416 H   0  0  0  0  0  0  0  0  0  0  0  0
   -6.9406   25.6830  -29.1693 H   0  0  0  0  0  0  0  0  0  0  0  0
   -4.5571   25.9787  -29.8728 H   0  0  0  0  0  0  0  0  0  0  0  0
   -6.1492   21.1172  -34.1352 H   0  0  0  0  0  0  0  0  0  0  0  0
   -5.2782   19.5286  -34.0231 H   0  0  0  0  0  0  0  0  0  0  0  0
   -8.4904   21.2923  -33.0275 H   0  0  0  0  0  0  0  0  0  0  0  0
  -10.2067   19.7796  -31.7754 H   0  0  0  0  0  0  0  0  0  0  0  0
   -9.1913   17.4579  -31.0501 H   0  0  0  0  0  0  0  0  0  0  0  0
  1  2  1  0
  2  3  1  0
  3  4  1  0
  4  5  1  0
  5  6  1  0
  4  7  1  0
  7  8  1  0
  8  9  1  0
  9 10  2  0
 10 11  1  0
 11 12  2  0
 12 13  1  0
 13 14  2  0
  7 15  1  0
 15 16  1  0
 16 17  2  0
 17 18  1  0
 18 19  2  0
 19 20  1  0
 14  9  1  0
 20 16  1  0
  1 21  1  0
  1 22  1  0
  1 23  1  0
  2 24  1  0
  2 25  1  0
  3 26  1  0
  3 27  1  0
  4 28  1  1
  5 29  1  0
  5 30  1  0
  6 31  1  0
  6 32  1  0
  6 33  1  0
  8 34  1  0
  8 35  1  0
 10 36  1  0
 11 37  1  0
 12 38  1  0
 13 39  1  0
 15 40  1  0
 15 41  1  0
 17 42  1  0
 18 43  1  0
 19 44  1  0
M  END
>  <UniqueID>  (14) 
14

>  <SMILES>  (14) 
CCC[C@@H](CC)N(Cc1ccccn1)Cc1cccs1

>  <Energy>  (14) 
75.33379090944098

>  <Genealogy>  (14) 
CCC[C@@H](CC)N(Cc1ccccn1)Cc1cccs1 (chirality)
CCC[C@@H](CC)N(Cc1ccccn1)Cc1cccs1 (3D coordinates assigned)
CCC[C@@H](CC)N(Cc1ccccn1)Cc1cccs1 (optimized conformer: 75.33379090944098 kcal/mol)

>  <smiles>  (14) 
CCCC(CC)N(Cc1ccccn1)Cc1cccs1

>  <score_type>  (14) 
oracle

>  <origin>  (14) 
adg

>  <m_score__min__energy>  (14) 
-7.0899999999999999

>  <m_primary>  (14) 
energy

$$$$
14:0
     RDKit          3D

 34 36  0  0  0  0  0  0  0  0999 V2000
   -5.5440   14.6150  -33.8640 C   0  0  0  0  0  0  0  0  0  0  0  0
   -6.3800   15.6540  -34.3630 O   0  0  0  0  0  0  0  0  0  0  0  0
   -6.4280   16.9530  -33.8360 C   0  0  0  0  0  0  0  0  0  0  0  0
   -6.0750   18.0880  -34.5920 C   0  0  0  0  0  0  0  0  0  0  0  0
   -6.1390   19.3620  -34.0190 C   0  0  0  0  0  0  0  0  0  0  0  0
   -6.5530   19.5190  -32.6900 C   0  0  0  0  0  0  0  0  0  0  0  0
   -6.6210   20.8330  -32.1050 N   0  0  0  0  0  0  0  0  0  0  0  0
   -7.8370   21.4300  -31.8720 C   0  0  0  0  0  0  0  0  0  0  0  0
   -9.1330   20.7440  -32.2060 C   0  0  0  0  0  0  0  0  0  0  0  0
   -7.8900   22.6750  -31.3280 N   0  0  0  0  0  0  0  0  0  0  0  0
   -6.7660   23.3540  -30.9940 C   0  0  0  0  0  0  0  0  0  0  0  0
   -6.8620   24.6340  -30.4350 C   0  0  0  0  0  0  0  0  0  0  0  0
   -5.7030   25.3340  -30.0870 C   0  0  0  0  0  0  0  0  0  0  0  0
   -4.4460   24.7580  -30.2990 C   0  0  0  0  0  0  0  0  0  0  0  0
   -4.3430   23.4810  -30.8570 C   0  0  0  0  0  0  0  0  0  0  0  0
   -5.5050   22.7680  -31.2100 C   0  0  0  0  0  0  0  0  0  0  0  0
   -5.4580   21.4840  -31.7780 C   0  0  0  0  0  0  0  0  0  0  0  0
   -4.3410   20.9310  -31.9910 O   0  0  0  0  0  0  0  0  0  0  0  0
   -6.9100   18.3910  -31.9380 C   0  0  0  0  0  0  0  0  0  0  0  0
   -6.8460   17.1180  -32.5100 C   0  0  0  0  0  0  0  0  0  0  0  0
   -5.5566   14.6306  -32.7642 H   0  0  0  0  0  0  0  0  0  0  0  0
   -5.9146   13.6428  -34.2212 H   0  0  0  0  0  0  0  0  0  0  0  0
   -4.5150   14.7689  -34.2212 H   0  0  0  0  0  0  0  0  0  0  0  0
   -5.7481   17.9718  -35.6359 H   0  0  0  0  0  0  0  0  0  0  0  0
   -5.8630   20.2447  -34.6145 H   0  0  0  0  0  0  0  0  0  0  0  0
   -9.6525   20.4690  -31.2762 H   0  0  0  0  0  0  0  0  0  0  0  0
   -9.7674   21.4244  -32.7930 H   0  0  0  0  0  0  0  0  0  0  0  0
   -8.9270   19.8368  -32.7930 H   0  0  0  0  0  0  0  0  0  0  0  0
   -7.8497   25.0891  -30.2696 H   0  0  0  0  0  0  0  0  0  0  0  0
   -5.7796   26.3388  -29.6460 H   0  0  0  0  0  0  0  0  0  0  0  0
   -3.5358   25.3120  -30.0256 H   0  0  0  0  0  0  0  0  0  0  0  0
   -3.3523   23.0318  -31.0208 H   0  0  0  0  0  0  0  0  0  0  0  0
   -7.2411   18.5085  -30.8956 H   0  0  0  0  0  0  0  0  0  0  0  0
   -7.1265   16.2375  -31.9133 H   0  0  0  0  0  0  0  0  0  0  0  0
  1  2  1  0
  2  3  1  0
  3  4  2  0
  4  5  1  0
  5  6  2  0
  6  7  1  0
  7  8  1  0
  8  9  1  0
  8 10  2  0
 10 11  1  0
 11 12  2  0
 12 13  1  0
 13 14  2  0
 14 15  1  0
 15 16  2  0
 16 17  1  0
 17 18  2  0
  6 19  1  0
 19 20  2  0
 20  3  1  0
 17  7  1  0
 16 11  1  0
  1 21  1  0
  1 22  1  0
  1 23  1  0
  4 24  1  0
  5 25  1  0
  9 26  1  0
  9 27  1  0
  9 28  1  0
 12 29  1  0
 13 30  1  0
 14 31  1  0
 15 32  1  0
 19 33  1  0
 20 34  1  0
M  END
>  <UniqueID>  (15) 
15

>  <SMILES>  (15) 
COc1ccc(-n2c(C)nc3ccccc3c2=O)cc1

>  <Energy>  (15) 
49.703210575735696

>  <Genealogy>  (15) 
COc1ccc(-n2c(C)nc3ccccc3c2=O)cc1 (3D coordinates assigned)
COc1ccc(-n2c(C)nc3ccccc3c2=O)cc1 (optimized conformer: 49.703210575735696 kcal/mol)

>  <smiles>  (15) 
COc1ccc(-n2c(C)nc3ccccc3c2=O)cc1

>  <score_type>  (15) 
oracle

>  <origin>  (15) 
adg

>  <m_score__min__energy>  (15) 
-7.3200000000000003

>  <m_primary>  (15) 
energy

$$$$
15:0
     RDKit          3D

 35 38  0  0  0  0  0  0  0  0999 V2000
   -2.1270   19.8320  -27.2760 C   0  0  0  0  0  0  0  0  0  0  0  0
   -1.6860   21.2330  -27.0040 C   0  0  0  0  0  0  0  0  0  0  0  0
   -0.8520   21.5790  -25.9930 N   0  0  0  0  0  0  0  0  0  0  0  0
   -0.7150   22.9220  -26.1030 C   0  0  0  0  0  0  0  0  0  0  0  0
   -1.4270   23.4140  -27.1330 N   0  0  0  0  0  0  0  0  0  0  0  0
   -1.5640   24.6860  -27.5810 C   0  0  0  0  0  0  0  0  0  0  0  0
   -2.3610   24.9120  -28.6640 N   0  0  0  0  0  0  0  0  0  0  0  0
   -3.0090   23.8790  -29.2880 C   0  0  0  0  0  0  0  0  0  0  0  0
   -3.8300   24.0970  -30.3980 C   0  0  0  0  0  0  0  0  0  0  0  0
   -3.9820   25.2710  -30.8360 O   0  0  0  0  0  0  0  0  0  0  0  0
   -4.4630   23.0380  -31.0030 N   0  0  0  0  0  0  0  0  0  0  0  0
   -5.3590   23.2460  -32.1520 C   0  0  0  0  0  0  0  0  0  0  0  0
   -6.6110   22.4230  -31.9920 C   0  0  0  0  0  0  0  0  0  0  0  0
   -7.7990   23.0250  -31.5490 C   0  0  0  0  0  0  0  0  0  0  0  0
   -8.9700   22.2710  -31.4330 C   0  0  0  0  0  0  0  0  0  0  0  0
   -8.9660   20.9140  -31.7650 C   0  0  0  0  0  0  0  0  0  0  0  0
   -7.7880   20.3070  -32.2140 C   0  0  0  0  0  0  0  0  0  0  0  0
   -7.7850   18.6040  -32.6370 Cl  0  0  0  0  0  0  0  0  0  0  0  0
   -6.6140   21.0590  -32.3310 C   0  0  0  0  0  0  0  0  0  0  0  0
   -4.3000   21.7700  -30.5090 C   0  0  0  0  0  0  0  0  0  0  0  0
   -3.5080   21.5400  -29.4310 N   0  0  0  0  0  0  0  0  0  0  0  0
   -2.8620   22.5610  -28.8160 C   0  0  0  0  0  0  0  0  0  0  0  0
   -2.0390   22.3720  -27.7050 C   0  0  0  0  0  0  0  0  0  0  0  0
   -2.2920   19.3080  -26.3230 H   0  0  0  0  0  0  0  0  0  0  0  0
   -3.0636   19.8478  -27.8526 H   0  0  0  0  0  0  0  0  0  0  0  0
   -1.3502   19.3085  -27.8526 H   0  0  0  0  0  0  0  0  0  0  0  0
   -0.0966   23.5359  -25.4316 H   0  0  0  0  0  0  0  0  0  0  0  0
   -1.0440   25.5171  -27.0821 H   0  0  0  0  0  0  0  0  0  0  0  0
   -5.6294   24.3105  -32.2137 H   0  0  0  0  0  0  0  0  0  0  0  0
   -4.8410   22.9359  -33.0715 H   0  0  0  0  0  0  0  0  0  0  0  0
   -7.8084   24.0945  -31.2921 H   0  0  0  0  0  0  0  0  0  0  0  0
   -9.8966   22.7469  -31.0796 H   0  0  0  0  0  0  0  0  0  0  0  0
   -9.8890   20.3227  -31.6734 H   0  0  0  0  0  0  0  0  0  0  0  0
   -5.6903   20.5812  -32.6895 H   0  0  0  0  0  0  0  0  0  0  0  0
   -4.8175   20.9282  -30.9922 H   0  0  0  0  0  0  0  0  0  0  0  0
  1  2  1  0
  2  3  1  0
  3  4  2  0
  4  5  1  0
  5  6  1  0
  6  7  2  0
  7  8  1  0
  8  9  1  0
  9 10  2  0
  9 11  1  0
 11 12  1  0
 12 13  1  0
 13 14  2  0
 14 15  1  0
 15 16  2  0
 16 17  1  0
 17 18  1  0
 17 19  2  0
 11 20  1  0
 20 21  2  0
 21 22  1  0
 22 23  1  0
 23  2  2  0
 23  5  1  0
 22  8  2  0
 19 13  1  0
  1 24  1  0
  1 25  1  0
  1 26  1  0
  4 27  1  0
  6 28  1  0
 12 29  1  0
 12 30  1  0
 14 31  1  0
 15 32  1  0
 16 33  1  0
 19 34  1  0
 20 35  1  0
M  END
>  <UniqueID>  (16) 
16

>  <SMILES>  (16) 
Cc1ncn2cnc3c(=O)n(Cc4cccc(Cl)c4)cnc3c12

>  <Energy>  (16) 
80.50490923708898

>  <Genealogy>  (16) 
Cc1ncn2cnc3c(=O)n(Cc4cccc(Cl)c4)cnc3c12 (3D coordinates assigned)
Cc1ncn2cnc3c(=O)n(Cc4cccc(Cl)c4)cnc3c12 (optimized conformer: 80.50490923708898 kcal/mol)

>  <smiles>  (16) 
Cc1ncn2cnc3c(=O)n(Cc4cccc(Cl)c4)cnc3c12

>  <score_type>  (16) 
oracle

>  <origin>  (16) 
adg

>  <m_score__min__energy>  (16) 
-8.3699999999999992

>  <m_primary>  (16) 
energy

$$$$
16:0
     RDKit          3D

 45 47  0  0  0  0  0  0  0  0999 V2000
   -6.4610   15.8260  -33.9970 C   0  0  0  0  0  0  0  0  0  0  0  0
   -5.4930   16.3470  -32.9370 C   0  0  0  0  0  0  0  0  0  0  0  0
   -5.6250   17.8120  -32.7560 N   0  0  0  0  0  0  0  0  0  0  0  0
   -4.3400   18.5360  -32.8050 C   0  0  0  0  0  0  0  0  0  0  0  0
   -4.3410   19.8230  -32.0280 C   0  0  0  0  0  0  0  0  0  0  0  0
   -3.4620   20.0060  -31.1450 O   0  0  0  0  0  0  0  0  0  0  0  0
   -5.2470   20.8870  -32.3480 N   0  0  0  0  0  0  0  0  0  0  0  0
   -4.6710   22.2100  -32.6420 C   0  0  0  0  0  0  0  0  0  0  0  0
   -3.8850   22.7430  -31.4380 C   0  0  0  0  0  0  0  0  0  0  0  0
   -4.4660   24.0050  -30.9410 N   0  0  0  0  0  0  0  0  0  0  0  0
   -4.5620   24.0550  -29.4790 C   0  0  0  0  0  0  0  0  0  0  0  0
   -5.6940   25.0180  -29.1520 C   0  0  0  0  0  0  0  0  0  0  0  0
   -6.5150   25.1230  -30.4280 C   0  0  0  0  0  0  0  0  0  0  0  0
   -5.8380   24.1900  -31.4170 C   0  0  0  0  0  0  0  0  0  0  0  0
   -6.6860   20.7250  -32.2620 C   0  0  0  0  0  0  0  0  0  0  0  0
   -7.4110   21.7000  -31.6390 N   0  0  0  0  0  0  0  0  0  0  0  0
   -8.7600   21.6510  -31.5100 C   0  0  0  0  0  0  0  0  0  0  0  0
   -9.4670   20.5700  -32.0210 C   0  0  0  0  0  0  0  0  0  0  0  0
   -8.7750   19.5510  -32.6710 C   0  0  0  0  0  0  0  0  0  0  0  0
   -7.3770   19.6120  -32.8180 C   0  0  0  0  0  0  0  0  0  0  0  0
   -6.6940   18.4670  -33.5420 C   0  0  0  0  0  0  0  0  0  0  0  0
   -7.3273   15.3597  -33.5050 H   0  0  0  0  0  0  0  0  0  0  0  0
   -6.8021   16.6624  -34.6248 H   0  0  0  0  0  0  0  0  0  0  0  0
   -5.9508   15.0806  -34.6248 H   0  0  0  0  0  0  0  0  0  0  0  0
   -5.7073   15.8477  -31.9806 H   0  0  0  0  0  0  0  0  0  0  0  0
   -4.4670   16.1308  -33.2696 H   0  0  0  0  0  0  0  0  0  0  0  0
   -3.5572   17.8822  -32.3929 H   0  0  0  0  0  0  0  0  0  0  0  0
   -4.1580   18.7966  -33.8581 H   0  0  0  0  0  0  0  0  0  0  0  0
   -3.9943   22.1247  -33.5050 H   0  0  0  0  0  0  0  0  0  0  0  0
   -5.4905   22.9091  -32.8648 H   0  0  0  0  0  0  0  0  0  0  0  0
   -3.9100   21.9942  -30.6326 H   0  0  0  0  0  0  0  0  0  0  0  0
   -2.8493   22.9359  -31.7544 H   0  0  0  0  0  0  0  0  0  0  0  0
   -4.7862   23.0553  -29.0787 H   0  0  0  0  0  0  0  0  0  0  0  0
   -3.6148   24.3880  -29.0297 H   0  0  0  0  0  0  0  0  0  0  0  0
   -6.3092   24.6240  -28.3297 H   0  0  0  0  0  0  0  0  0  0  0  0
   -5.3163   25.9984  -28.8263 H   0  0  0  0  0  0  0  0  0  0  0  0
   -7.5523   24.8051  -30.2462 H   0  0  0  0  0  0  0  0  0  0  0  0
   -6.5602   26.1561  -30.8031 H   0  0  0  0  0  0  0  0  0  0  0  0
   -6.3629   23.2238  -31.4486 H   0  0  0  0  0  0  0  0  0  0  0  0
   -5.8533   24.6090  -32.4340 H   0  0  0  0  0  0  0  0  0  0  0  0
   -9.2941   22.4668  -31.0010 H   0  0  0  0  0  0  0  0  0  0  0  0
  -10.5606   20.5194  -31.9135 H   0  0  0  0  0  0  0  0  0  0  0  0
   -9.3273   18.6892  -33.0738 H   0  0  0  0  0  0  0  0  0  0  0  0
   -7.4541   17.7114  -33.7895 H   0  0  0  0  0  0  0  0  0  0  0  0
   -6.2162   18.8947  -34.4358 H   0  0  0  0  0  0  0  0  0  0  0  0
  1  2  1  0
  2  3  1  0
  3  4  1  0
  4  5  1  0
  5  6  2  0
  5  7  1  0
  7  8  1  0
  8  9  1  0
  9 10  1  0
 10 11  1  0
 11 12  1  0
 12 13  1  0
 13 14  1  0
  7 15  1  0
 15 16  2  0
 16 17  1  0
 17 18  2  0
 18 19  1  0
 19 20  2  0
 20 21  1  0
 21  3  1  0
 14 10  1  0
 20 15  1  0
  1 22  1  0
  1 23  1  0
  1 24  1  0
  2 25  1  0
  2 26  1  0
  4 27  1  0
  4 28  1  0
  8 29  1  0
  8 30  1  0
  9 31  1  0
  9 32  1  0
 11 33  1  0
 11 34  1  0
 12 35  1  0
 12 36  1  0
 13 37  1  0
 13 38  1  0
 14 39  1  0
 14 40  1  0
 17 41  1  0
 18 42  1  0
 19 43  1  0
 21 44  1  0
 21 45  1  0
M  END
>  <UniqueID>  (17) 
17

>  <SMILES>  (17) 
CCN1CC(=O)N(CCN2CCCC2)c2ncccc2C1

>  <Energy>  (17) 
62.989367517865006

>  <Genealogy>  (17) 
CCN1CC(=O)N(CCN2CCCC2)c2ncccc2C1 (3D coordinates assigned)
CCN1CC(=O)N(CCN2CCCC2)c2ncccc2C1 (nonaromatic ring conformer: 62.989367517865006 kcal/mol)

>  <smiles>  (17) 
CCN1CC(=O)N(CCN2CCCC2)c2ncccc2C1

>  <score_type>  (17) 
oracle

>  <origin>  (17) 
adg

>  <m_score__min__energy>  (17) 
-5.6399999999999997

>  <m_primary>  (17) 
energy

$$$$
17:0
     RDKit          3D

 38 39  0  0  0  0  0  0  0  0999 V2000
   -0.2541   24.8594  -27.9692 H   0  0  0  0  0  0  0  0  0  0  0  0
   -1.2490   24.5840  -28.3490 C   0  0  0  0  0  0  0  0  0  0  0  0
   -1.8910   25.2970  -29.3110 N   0  0  0  0  0  0  0  0  0  0  0  0
   -3.0980   24.7610  -29.6050 C   0  0  0  0  0  0  0  0  0  0  0  0
   -3.9290   25.2630  -30.4690 N   0  0  0  0  0  0  0  0  0  0  0  0
   -5.3280   24.9520  -30.5620 C   0  0  0  0  0  0  0  0  0  0  0  0
   -6.1610   25.7960  -30.1360 O   0  0  0  0  0  0  0  0  0  0  0  0
   -5.8180   23.6560  -31.0900 C   0  0  0  0  0  0  0  0  0  0  0  0
   -7.1860   23.3490  -31.0460 C   0  0  0  0  0  0  0  0  0  0  0  0
   -7.8951   24.0763  -30.6239 H   0  0  0  0  0  0  0  0  0  0  0  0
   -7.6550   22.1270  -31.5340 C   0  0  0  0  0  0  0  0  0  0  0  0
   -8.7315   21.9033  -31.4996 H   0  0  0  0  0  0  0  0  0  0  0  0
   -6.7630   21.1800  -32.0690 C   0  0  0  0  0  0  0  0  0  0  0  0
   -7.2460   19.9200  -32.5910 N   0  0  0  0  0  0  0  0  0  0  0  0
   -8.6910   19.6510  -32.6900 C   0  0  0  0  0  0  0  0  0  0  0  0
   -8.9274   19.3221  -33.7127 H   0  0  0  0  0  0  0  0  0  0  0  0
   -9.2388   20.5738  -32.4483 H   0  0  0  0  0  0  0  0  0  0  0  0
   -9.1080   18.5630  -31.7060 C   0  0  0  0  0  0  0  0  0  0  0  0
   -8.9688   18.9262  -30.6771 H   0  0  0  0  0  0  0  0  0  0  0  0
  -10.1667   18.3104  -31.8656 H   0  0  0  0  0  0  0  0  0  0  0  0
   -8.4893   17.6676  -31.8656 H   0  0  0  0  0  0  0  0  0  0  0  0
   -6.2960   18.8870  -33.0310 C   0  0  0  0  0  0  0  0  0  0  0  0
   -5.3276   19.0554  -32.5372 H   0  0  0  0  0  0  0  0  0  0  0  0
   -6.7011   17.9008  -32.7600 H   0  0  0  0  0  0  0  0  0  0  0  0
   -6.0990   18.9320  -34.5440 C   0  0  0  0  0  0  0  0  0  0  0  0
   -5.0495   19.1717  -34.7701 H   0  0  0  0  0  0  0  0  0  0  0  0
   -6.3527   17.9528  -34.9761 H   0  0  0  0  0  0  0  0  0  0  0  0
   -6.7528   19.7039  -34.9761 H   0  0  0  0  0  0  0  0  0  0  0  0
   -5.3890   21.4820  -32.0890 C   0  0  0  0  0  0  0  0  0  0  0  0
   -4.6758   20.7480  -32.4923 H   0  0  0  0  0  0  0  0  0  0  0  0
   -4.9220   22.7040  -31.6020 C   0  0  0  0  0  0  0  0  0  0  0  0
   -3.8441   22.9227  -31.6195 H   0  0  0  0  0  0  0  0  0  0  0  0
   -3.4360   23.4040  -28.6740 S   0  0  0  0  0  0  0  0  0  0  0  0
   -1.9520   23.4770  -27.8830 C   0  0  0  0  0  0  0  0  0  0  0  0
   -1.5210   22.5750  -26.7760 C   0  0  0  0  0  0  0  0  0  0  0  0
   -1.7469   23.0478  -25.8088 H   0  0  0  0  0  0  0  0  0  0  0  0
   -2.0595   21.6188  -26.8514 H   0  0  0  0  0  0  0  0  0  0  0  0
   -0.4387   22.3932  -26.8514 H   0  0  0  0  0  0  0  0  0  0  0  0
  1  2  1  0
  2  3  1  0
  3  4  1  0
  4  5  2  0
  5  6  1  0
  6  7  2  0
  6  8  1  0
  8  9  2  0
  9 10  1  0
  9 11  1  0
 11 12  1  0
 11 13  2  0
 13 14  1  0
 14 15  1  0
 15 16  1  0
 15 17  1  0
 15 18  1  0
 18 19  1  0
 18 20  1  0
 18 21  1  0
 14 22  1  0
 22 23  1  0
 22 24  1  0
 22 25  1  0
 25 26  1  0
 25 27  1  0
 25 28  1  0
 13 29  1  0
 29 30  1  0
 29 31  2  0
 31 32  1  0
  4 33  1  0
 33 34  1  0
 34 35  1  0
 35 36  1  0
 35 37  1  0
 35 38  1  0
 34  2  2  0
 31  8  1  0
M  CHG  1   3  -1
M  END
>  <UniqueID>  (18) 
18

>  <SMILES>  (18) 
CCN(CC)c1ccc(C(=O)/N=c2\[n-]cc(C)s2)cc1

>  <Energy>  (18) 
71.43448540848462

>  <Genealogy>  (18) 
CCN(CC)c1ccc(C(=O)N=c2[n-]cc(C)s2)cc1 (protonated)
CCN(CC)c1ccc(C(=O)/N=c2\[n-]cc(C)s2)cc1 (cis-trans isomerization)
CCN(CC)c1ccc(C(=O)/N=c2\[n-]cc(C)s2)cc1 (3D coordinates assigned)
CCN(CC)c1ccc(C(=O)/N=c2\[n-]cc(C)s2)cc1 (optimized conformer: 71.43448540848462 kcal/mol)

>  <smiles>  (18) 
CCN(CC)c1ccc(C(=O)N=c2[nH]cc(C)s2)cc1

>  <score_type>  (18) 
oracle

>  <origin>  (18) 
adg

>  <m_score__min__energy>  (18) 
-9.4499999999999993

>  <m_primary>  (18) 
energy

$$$$
18:0
     RDKit          3D

 33 35  0  0  0  0  0  0  0  0999 V2000
   -5.3890   25.6620  -30.4930 C   0  0  0  0  0  0  0  0  0  0  0  0
   -4.0120   25.3040  -30.4670 O   0  0  0  0  0  0  0  0  0  0  0  0
   -3.5130   24.1130  -29.9200 C   0  0  0  0  0  0  0  0  0  0  0  0
   -3.2680   24.0640  -28.5440 C   0  0  0  0  0  0  0  0  0  0  0  0
   -2.7720   22.9010  -27.9490 C   0  0  0  0  0  0  0  0  0  0  0  0
   -2.5100   21.7590  -28.7250 C   0  0  0  0  0  0  0  0  0  0  0  0
   -1.9970   20.5590  -28.1130 N   0  0  0  0  0  0  0  0  0  0  0  0
   -0.8300   19.9460  -28.4030 C   0  0  0  0  0  0  0  0  0  0  0  0
   -0.7120   18.8320  -27.5930 C   0  0  0  0  0  0  0  0  0  0  0  0
    0.4000   17.8710  -27.5630 C   0  0  0  0  0  0  0  0  0  0  0  0
    1.5840   18.1670  -27.9750 N   0  0  0  0  0  0  0  0  0  0  0  0
    2.4610   17.0120  -27.8180 C   0  0  0  0  0  0  0  0  0  0  0  0
    1.5730   15.9120  -27.2140 C   0  0  0  0  0  0  0  0  0  0  0  0
    0.2760   16.5460  -27.0860 N   0  0  0  0  0  0  0  0  0  0  0  0
   -1.8580   18.8150  -26.8200 C   0  0  0  0  0  0  0  0  0  0  0  0
   -2.6140   19.8750  -27.1590 N   0  0  0  0  0  0  0  0  0  0  0  0
   -2.7550   21.8090  -30.1090 C   0  0  0  0  0  0  0  0  0  0  0  0
   -3.2520   22.9730  -30.7020 C   0  0  0  0  0  0  0  0  0  0  0  0
   -5.7621   25.7590  -29.4628 H   0  0  0  0  0  0  0  0  0  0  0  0
   -5.5087   26.6211  -31.0182 H   0  0  0  0  0  0  0  0  0  0  0  0
   -5.9606   24.8826  -31.0182 H   0  0  0  0  0  0  0  0  0  0  0  0
   -3.4678   24.9501  -27.9237 H   0  0  0  0  0  0  0  0  0  0  0  0
   -2.5852   22.8792  -26.8652 H   0  0  0  0  0  0  0  0  0  0  0  0
   -0.0982   20.2762  -29.1550 H   0  0  0  0  0  0  0  0  0  0  0  0
    2.8592   16.6945  -28.7930 H   0  0  0  0  0  0  0  0  0  0  0  0
    3.3282   17.2375  -27.1799 H   0  0  0  0  0  0  0  0  0  0  0  0
    1.5189   15.0406  -27.8832 H   0  0  0  0  0  0  0  0  0  0  0  0
    1.9577   15.5332  -26.2556 H   0  0  0  0  0  0  0  0  0  0  0  0
   -0.5870   16.0970  -26.7080 H   0  0  0  0  0  0  0  0  0  0  0  0
   -2.1090   18.0629  -26.0576 H   0  0  0  0  0  0  0  0  0  0  0  0
   -3.5490   20.1050  -26.7540 H   0  0  0  0  0  0  0  0  0  0  0  0
   -2.5536   20.9240  -30.7304 H   0  0  0  0  0  0  0  0  0  0  0  0
   -3.4400   22.9979  -31.7855 H   0  0  0  0  0  0  0  0  0  0  0  0
  1  2  1  0
  2  3  1  0
  3  4  2  0
  4  5  1  0
  5  6  2  0
  6  7  1  0
  7  8  1  0
  8  9  2  0
  9 10  1  0
 10 11  2  0
 11 12  1  0
 12 13  1  0
 13 14  1  0
  9 15  1  0
 15 16  2  0
  6 17  1  0
 17 18  2  0
 18  3  1  0
 16  7  1  0
 14 10  1  0
  1 19  1  0
  1 20  1  0
  1 21  1  0
  4 22  1  0
  5 23  1  0
  8 24  1  0
 12 25  1  0
 12 26  1  0
 13 27  1  0
 13 28  1  0
 14 29  1  0
 15 30  1  0
 16 31  1  0
 17 32  1  0
 18 33  1  0
M  CHG  1  16   1
M  END
>  <UniqueID>  (19) 
19

>  <SMILES>  (19) 
COc1ccc(-n2cc(C3=NCCN3)c[nH+]2)cc1

>  <Energy>  (19) 
78.98352220218526

>  <Genealogy>  (19) 
COc1ccc(-n2cc(C3=NCCN3)c[nH+]2)cc1 (protonated)
COc1ccc(-n2cc(C3=NCCN3)c[nH+]2)cc1 (3D coordinates assigned)
COc1ccc(-n2cc(C3=NCCN3)c[nH+]2)cc1 (nonaromatic ring conformer: 78.98352220218526 kcal/mol)

>  <smiles>  (19) 
COc1ccc(-n2cc(C3=NCCN3)cn2)cc1

>  <score_type>  (19) 
oracle

>  <origin>  (19) 
adg

>  <m_score__min__energy>  (19) 
-5.96

>  <m_primary>  (19) 
energy

$$$$
19:0
     RDKit          3D

 64 68  0  0  0  0  0  0  0  0999 V2000
    1.8034   20.3854  -28.9662 H   0  0  0  0  0  0  0  0  0  0  0  0
    0.8940   19.8370  -29.2530 C   0  0  0  0  0  0  0  0  0  0  0  0
    0.8670   19.2080  -30.4330 C   0  0  0  0  0  0  0  0  0  0  0  0
    1.7781   18.6996  -30.7815 H   0  0  0  0  0  0  0  0  0  0  0  0
   -0.3350   19.1690  -31.2850 C   0  0  0  0  0  0  0  0  0  0  0  0
   -0.7110   18.0650  -31.9720 N   0  0  0  0  0  0  0  0  0  0  0  0
   -1.8370   18.3220  -32.6310 N   0  0  0  0  0  0  0  0  0  0  0  0
   -2.1830   19.5890  -32.3540 C   0  0  0  0  0  0  0  0  0  0  0  0
   -3.3130   20.2730  -32.7940 C   0  0  0  0  0  0  0  0  0  0  0  0
   -4.0326   19.7960  -33.4757 H   0  0  0  0  0  0  0  0  0  0  0  0
   -3.5100   21.5960  -32.3410 C   0  0  0  0  0  0  0  0  0  0  0  0
   -4.6810   22.3140  -32.7630 N   0  0  0  0  0  0  0  0  0  0  0  0
   -4.5830   22.9920  -33.5540 H   0  0  0  0  0  0  0  0  0  0  0  0
   -5.9730   22.1890  -32.1420 C   0  0  0  0  0  0  0  0  0  0  0  0
   -6.9580   21.3760  -32.7320 C   0  0  0  0  0  0  0  0  0  0  0  0
   -6.7572   20.8907  -33.6985 H   0  0  0  0  0  0  0  0  0  0  0  0
   -8.1870   21.1800  -32.1020 C   0  0  0  0  0  0  0  0  0  0  0  0
   -8.9535   20.5499  -32.5768 H   0  0  0  0  0  0  0  0  0  0  0  0
   -8.4450   21.7820  -30.8710 C   0  0  0  0  0  0  0  0  0  0  0  0
   -9.4149   21.6259  -30.3761 H   0  0  0  0  0  0  0  0  0  0  0  0
   -7.4740   22.5830  -30.2650 C   0  0  0  0  0  0  0  0  0  0  0  0
   -7.6835   23.0531  -29.2928 H   0  0  0  0  0  0  0  0  0  0  0  0
   -6.2310   22.7930  -30.8880 C   0  0  0  0  0  0  0  0  0  0  0  0
   -5.2350   23.6810  -30.2470 C   0  0  0  0  0  0  0  0  0  0  0  0
   -4.8750   24.7310  -30.8450 O   0  0  0  0  0  0  0  0  0  0  0  0
   -4.7090   23.3720  -28.9450 N   0  0  0  0  0  0  0  0  0  0  0  0
   -5.1620   22.6110  -28.3930 H   0  0  0  0  0  0  0  0  0  0  0  0
   -3.6230   24.0830  -28.3240 C   0  0  0  0  0  0  0  0  0  0  0  0
   -2.3690   24.2030  -28.9490 C   0  0  0  0  0  0  0  0  0  0  0  0
   -2.2094   23.7627  -29.9443 H   0  0  0  0  0  0  0  0  0  0  0  0
   -1.3240   24.8790  -28.3120 C   0  0  0  0  0  0  0  0  0  0  0  0
   -0.3522   24.9837  -28.8166 H   0  0  0  0  0  0  0  0  0  0  0  0
   -1.5080   25.4240  -27.0340 C   0  0  0  0  0  0  0  0  0  0  0  0
   -0.3820   26.1630  -26.3600 C   0  0  0  0  0  0  0  0  0  0  0  0
   -0.7473   27.1417  -26.0157 H   0  0  0  0  0  0  0  0  0  0  0  0
    0.4374   26.2943  -27.0820 H   0  0  0  0  0  0  0  0  0  0  0  0
    0.1240   25.3980  -25.2000 N   0  0  0  0  0  0  0  0  0  0  0  0
   -0.5430   25.8270  -23.9580 C   0  0  0  0  0  0  0  0  0  0  0  0
    0.0262   25.4609  -23.0908 H   0  0  0  0  0  0  0  0  0  0  0  0
   -0.5907   26.9256  -23.9280 H   0  0  0  0  0  0  0  0  0  0  0  0
   -1.5624   25.4148  -23.9280 H   0  0  0  0  0  0  0  0  0  0  0  0
   -0.1060   23.9590  -25.4080 C   0  0  0  0  0  0  0  0  0  0  0  0
   -0.1864   23.4559  -24.4331 H   0  0  0  0  0  0  0  0  0  0  0  0
   -1.0386   23.8147  -25.9732 H   0  0  0  0  0  0  0  0  0  0  0  0
    0.7352   23.5312  -25.9732 H   0  0  0  0  0  0  0  0  0  0  0  0
   -2.7540   25.2900  -26.4010 C   0  0  0  0  0  0  0  0  0  0  0  0
   -2.9088   25.7168  -25.3991 H   0  0  0  0  0  0  0  0  0  0  0  0
   -3.7980   24.6160  -27.0400 C   0  0  0  0  0  0  0  0  0  0  0  0
   -4.7662   24.5028  -26.5303 H   0  0  0  0  0  0  0  0  0  0  0  0
   -2.5860   22.1670  -31.4240 C   0  0  0  0  0  0  0  0  0  0  0  0
   -2.7558   23.1854  -31.0446 H   0  0  0  0  0  0  0  0  0  0  0  0
   -1.4570   21.4450  -30.9960 C   0  0  0  0  0  0  0  0  0  0  0  0
   -0.7416   21.8794  -30.2822 H   0  0  0  0  0  0  0  0  0  0  0  0
   -1.2750   20.1600  -31.5070 C   0  0  0  0  0  0  0  0  0  0  0  0
   -0.2520   19.8230  -28.3200 C   0  0  0  0  0  0  0  0  0  0  0  0
   -0.8790   20.9830  -27.9680 N   0  0  0  0  0  0  0  0  0  0  0  0
   -1.9290   21.0000  -27.1060 C   0  0  0  0  0  0  0  0  0  0  0  0
   -2.4126   21.9538  -26.8483 H   0  0  0  0  0  0  0  0  0  0  0  0
   -2.3950   19.8090  -26.5470 C   0  0  0  0  0  0  0  0  0  0  0  0
   -3.2441   19.8176  -25.8477 H   0  0  0  0  0  0  0  0  0  0  0  0
   -1.7720   18.6080  -26.8850 C   0  0  0  0  0  0  0  0  0  0  0  0
   -2.1268   17.6618  -26.4505 H   0  0  0  0  0  0  0  0  0  0  0  0
   -0.6970   18.6090  -27.7760 C   0  0  0  0  0  0  0  0  0  0  0  0
   -0.2028   17.6650  -28.0493 H   0  0  0  0  0  0  0  0  0  0  0  0
  1  2  1  0
  2  3  2  0
  3  4  1  0
  3  5  1  0
  5  6  1  0
  6  7  1  0
  7  8  2  0
  8  9  1  0
  9 10  1  0
  9 11  2  0
 11 12  1  0
 12 13  1  0
 12 14  1  0
 14 15  2  0
 15 16  1  0
 15 17  1  0
 17 18  1  0
 17 19  2  0
 19 20  1  0
 19 21  1  0
 21 22  1  0
 21 23  2  0
 23 24  1  0
 24 25  2  0
 24 26  1  0
 26 27  1  0
 26 28  1  0
 28 29  2  0
 29 30  1  0
 29 31  1  0
 31 32  1  0
 31 33  2  0
 33 34  1  0
 34 35  1  0
 34 36  1  0
 34 37  1  0
 37 38  1  0
 38 39  1  0
 38 40  1  0
 38 41  1  0
 37 42  1  0
 42 43  1  0
 42 44  1  0
 42 45  1  0
 33 46  1  0
 46 47  1  0
 46 48  2  0
 48 49  1  0
 11 50  1  0
 50 51  1  0
 50 52  2  0
 52 53  1  0
 52 54  1  0
  2 55  1  0
 55 56  2  0
 56 57  1  0
 57 58  1  0
 57 59  2  0
 59 60  1  0
 59 61  1  0
 61 62  1  0
 61 63  2  0
 63 64  1  0
 54  5  2  0
 63 55  1  0
 54  8  1  0
 23 14  1  0
 48 28  1  0
M  CHG  1   6  -1
M  END
>  <UniqueID>  (20) 
20

>  <SMILES>  (20) 
CN(C)Cc1ccc(NC(=O)c2ccccc2Nc2ccc3c(/C=C/c4ccccn4)[n-]nc3c2)cc1

>  <Energy>  (20) 
125.45238597172381

>  <Genealogy>  (20) 
CN(C)Cc1ccc(NC(=O)c2ccccc2Nc2ccc3c(C=Cc4ccccn4)[n-]nc3c2)cc1 (protonated)
CN(C)Cc1ccc(NC(=O)c2ccccc2Nc2ccc3c(/C=C/c4ccccn4)[n-]nc3c2)cc1 (cis-trans isomerization)
CN(C)Cc1ccc(NC(=O)c2ccccc2Nc2ccc3c(/C=C/c4ccccn4)[n-]nc3c2)cc1 (3D coordinates assigned)
CN(C)Cc1ccc(NC(=O)c2ccccc2Nc2ccc3c(/C=C/c4ccccn4)[n-]nc3c2)cc1 (optimized conformer: 125.45238597172381 kcal/mol)

>  <smiles>  (20) 
CN(C)Cc1ccc(NC(=O)c2ccccc2Nc2ccc3c(C=Cc4ccccn4)[nH]nc3c2)cc1

>  <score_type>  (20) 
oracle

>  <origin>  (20) 
adg

>  <m_score__min__energy>  (20) 
-12.609999999999999

>  <m_primary>  (20) 
energy

$$$$
20:0
     RDKit          3D

 56 59  0  0  0  0  0  0  0  0999 V2000
    1.9080   29.9540  -22.3580 C   0  0  0  0  0  0  0  0  0  0  0  0
    1.1400   30.1290  -23.5450 O   0  0  0  0  0  0  0  0  0  0  0  0
    0.6130   29.0760  -24.3080 C   0  0  0  0  0  0  0  0  0  0  0  0
    0.5870   27.7940  -23.7460 C   0  0  0  0  0  0  0  0  0  0  0  0
    0.0710   26.7140  -24.4650 C   0  0  0  0  0  0  0  0  0  0  0  0
   -0.4330   26.8980  -25.7620 C   0  0  0  0  0  0  0  0  0  0  0  0
   -0.9520   25.7820  -26.5100 N   0  0  0  0  0  0  0  0  0  0  0  0
   -0.4190   25.4990  -27.8510 C   0  0  0  0  0  0  0  0  0  0  0  0
   -1.1830   24.3590  -28.5420 C   0  0  0  0  0  0  0  0  0  0  0  0
   -2.6350   24.5130  -28.3550 N   0  0  0  0  0  0  0  0  0  0  0  0
   -3.5460   24.1090  -29.4000 C   0  0  0  0  0  0  0  0  0  0  0  0
   -3.3170   22.9310  -30.1320 C   0  0  0  0  0  0  0  0  0  0  0  0
   -4.1960   22.5410  -31.1450 C   0  0  0  0  0  0  0  0  0  0  0  0
   -5.3310   23.3190  -31.4420 C   0  0  0  0  0  0  0  0  0  0  0  0
   -6.2530   22.9410  -32.4810 N   0  0  0  0  0  0  0  0  0  0  0  0
   -7.3180   21.9930  -32.2980 C   0  0  0  0  0  0  0  0  0  0  0  0
   -8.4560   22.3940  -31.5840 C   0  0  0  0  0  0  0  0  0  0  0  0
   -9.5350   21.5250  -31.4240 C   0  0  0  0  0  0  0  0  0  0  0  0
   -9.4840   20.2410  -31.9650 C   0  0  0  0  0  0  0  0  0  0  0  0
   -8.3470   19.8160  -32.6550 C   0  0  0  0  0  0  0  0  0  0  0  0
   -7.2460   20.6770  -32.8210 C   0  0  0  0  0  0  0  0  0  0  0  0
   -6.0220   20.1660  -33.4840 C   0  0  0  0  0  0  0  0  0  0  0  0
   -6.1070   19.2270  -34.5580 N   0  0  0  0  0  0  0  0  0  0  0  0
   -4.8870   20.5540  -33.0960 O   0  0  0  0  0  0  0  0  0  0  0  0
   -5.5500   24.5030  -30.7260 C   0  0  0  0  0  0  0  0  0  0  0  0
   -4.6710   24.8930  -29.7120 C   0  0  0  0  0  0  0  0  0  0  0  0
   -3.1720   24.9080  -27.0410 C   0  0  0  0  0  0  0  0  0  0  0  0
   -2.0680   24.9860  -25.9870 C   0  0  0  0  0  0  0  0  0  0  0  0
   -0.4030   28.1820  -26.3300 C   0  0  0  0  0  0  0  0  0  0  0  0
    0.1130   29.2640  -25.6100 C   0  0  0  0  0  0  0  0  0  0  0  0
    1.2631   30.1009  -21.4791 H   0  0  0  0  0  0  0  0  0  0  0  0
    2.3274   28.9373  -22.3392 H   0  0  0  0  0  0  0  0  0  0  0  0
    2.7265   30.6887  -22.3392 H   0  0  0  0  0  0  0  0  0  0  0  0
    0.9764   27.6362  -22.7294 H   0  0  0  0  0  0  0  0  0  0  0  0
    0.0594   25.7118  -24.0117 H   0  0  0  0  0  0  0  0  0  0  0  0
   -0.5027   26.4072  -28.4660 H   0  0  0  0  0  0  0  0  0  0  0  0
    0.6309   25.1892  -27.7423 H   0  0  0  0  0  0  0  0  0  0  0  0
   -0.9547   24.3724  -29.6180 H   0  0  0  0  0  0  0  0  0  0  0  0
   -0.8698   23.4037  -28.0955 H   0  0  0  0  0  0  0  0  0  0  0  0
   -2.4375   22.3106  -29.9050 H   0  0  0  0  0  0  0  0  0  0  0  0
   -4.0002   21.6203  -31.7142 H   0  0  0  0  0  0  0  0  0  0  0  0
   -6.0730   23.2820  -33.4520 H   0  0  0  0  0  0  0  0  0  0  0  0
   -8.4982   23.4023  -31.1464 H   0  0  0  0  0  0  0  0  0  0  0  0
  -10.4272   21.8529  -30.8704 H   0  0  0  0  0  0  0  0  0  0  0  0
  -10.3411   19.5615  -31.8480 H   0  0  0  0  0  0  0  0  0  0  0  0
   -8.3114   18.7990  -33.0727 H   0  0  0  0  0  0  0  0  0  0  0  0
   -5.2370   18.8470  -34.9910 H   0  0  0  0  0  0  0  0  0  0  0  0
   -7.0280   18.9550  -34.9670 H   0  0  0  0  0  0  0  0  0  0  0  0
   -6.4212   25.1310  -30.9639 H   0  0  0  0  0  0  0  0  0  0  0  0
   -4.8607   25.8212  -29.1531 H   0  0  0  0  0  0  0  0  0  0  0  0
   -3.6502   25.8944  -27.1318 H   0  0  0  0  0  0  0  0  0  0  0  0
   -3.9009   24.1482  -26.7227 H   0  0  0  0  0  0  0  0  0  0  0  0
   -2.4625   25.4605  -25.0764 H   0  0  0  0  0  0  0  0  0  0  0  0
   -1.7160   23.9718  -25.7471 H   0  0  0  0  0  0  0  0  0  0  0  0
   -0.7881   28.3377  -27.3485 H   0  0  0  0  0  0  0  0  0  0  0  0
    0.1282   30.2662  -26.0632 H   0  0  0  0  0  0  0  0  0  0  0  0
  1  2  1  0
  2  3  1  0
  3  4  2  0
  4  5  1  0
  5  6  2  0
  6  7  1  0
  7  8  1  0
  8  9  1  0
  9 10  1  0
 10 11  1  0
 11 12  2  0
 12 13  1  0
 13 14  2  0
 14 15  1  0
 15 16  1  0
 16 17  2  0
 17 18  1  0
 18 19  2  0
 19 20  1  0
 20 21  2  0
 21 22  1  0
 22 23  1  0
 22 24  2  0
 14 25  1  0
 25 26  2  0
 10 27  1  0
 27 28  1  0
  6 29  1  0
 29 30  2  0
 30  3  1  0
 28  7  1  0
 26 11  1  0
 21 16  1  0
  1 31  1  0
  1 32  1  0
  1 33  1  0
  4 34  1  0
  5 35  1  0
  8 36  1  0
  8 37  1  0
  9 38  1  0
  9 39  1  0
 12 40  1  0
 13 41  1  0
 15 42  1  0
 17 43  1  0
 18 44  1  0
 19 45  1  0
 20 46  1  0
 23 47  1  0
 23 48  1  0
 25 49  1  0
 26 50  1  0
 27 51  1  0
 27 52  1  0
 28 53  1  0
 28 54  1  0
 29 55  1  0
 30 56  1  0
M  END
>  <UniqueID>  (21) 
21

>  <SMILES>  (21) 
COc1ccc(N2CCN(c3ccc(Nc4ccccc4C(N)=O)cc3)CC2)cc1

>  <Energy>  (21) 
76.58289486172328

>  <Genealogy>  (21) 
COc1ccc(N2CCN(c3ccc(Nc4ccccc4C(N)=O)cc3)CC2)cc1 (3D coordinates assigned)
COc1ccc(N2CCN(c3ccc(Nc4ccccc4C(N)=O)cc3)CC2)cc1 (nonaromatic ring conformer: 76.58289486172328 kcal/mol)

>  <smiles>  (21) 
COc1ccc(N2CCN(c3ccc(Nc4ccccc4C(N)=O)cc3)CC2)cc1

>  <score_type>  (21) 
oracle

>  <origin>  (21) 
adg

>  <m_score__min__energy>  (21) 
-8.8100000000000005

>  <m_primary>  (21) 
energy

$$$$
21:0
     RDKit          3D

 46 48  0  0  0  0  0  0  0  0999 V2000
   -6.4590   16.1500  -34.0170 C   0  0  0  0  0  0  0  0  0  0  0  0
   -6.1540   16.7830  -32.6580 C   0  0  0  0  0  0  0  0  0  0  0  0
   -6.1860   18.2660  -32.7170 N   0  0  0  0  0  0  0  0  0  0  0  0
   -5.3560   18.8730  -31.6410 C   0  0  0  0  0  0  0  0  0  0  0  0
   -4.3350   19.8170  -32.2090 C   0  0  0  0  0  0  0  0  0  0  0  0
   -3.8790   19.8740  -33.8160 S   0  0  0  0  0  0  0  0  0  0  0  0
   -2.8660   21.1780  -33.7020 N   0  0  0  0  0  0  0  0  0  0  0  0
   -2.8670   21.6180  -32.4500 N   0  0  0  0  0  0  0  0  0  0  0  0
   -3.6750   20.9030  -31.6070 C   0  0  0  0  0  0  0  0  0  0  0  0
   -3.8020   21.2760  -30.1660 C   0  0  0  0  0  0  0  0  0  0  0  0
   -7.5810   18.7930  -32.7990 C   0  0  1  0  0  0  0  0  0  0  0  0
   -8.4800   18.4430  -31.5980 C   0  0  0  0  0  0  0  0  0  0  0  0
   -9.0450   19.7760  -31.1270 C   0  0  0  0  0  0  0  0  0  0  0  0
   -8.8970   20.6970  -32.2550 N   0  0  0  0  0  0  0  0  0  0  0  0
   -9.0520   22.1310  -31.9290 C   0  0  0  0  0  0  0  0  0  0  0  0
   -7.7830   22.8260  -31.4780 C   0  0  0  0  0  0  0  0  0  0  0  0
   -7.4130   22.8190  -30.1240 C   0  0  0  0  0  0  0  0  0  0  0  0
   -6.2150   23.4200  -29.7320 C   0  0  0  0  0  0  0  0  0  0  0  0
   -5.4130   24.0100  -30.6570 N   0  0  0  0  0  0  0  0  0  0  0  0
   -5.7400   24.0260  -31.9760 C   0  0  0  0  0  0  0  0  0  0  0  0
   -6.9240   23.4270  -32.4120 C   0  0  0  0  0  0  0  0  0  0  0  0
   -7.6530   20.3180  -32.9260 C   0  0  0  0  0  0  0  0  0  0  0  0
   -6.9320   15.1684  -33.8664 H   0  0  0  0  0  0  0  0  0  0  0  0
   -7.1413   16.8031  -34.5809 H   0  0  0  0  0  0  0  0  0  0  0  0
   -5.5230   16.0234  -34.5809 H   0  0  0  0  0  0  0  0  0  0  0  0
   -6.9038   16.4400  -31.9299 H   0  0  0  0  0  0  0  0  0  0  0  0
   -5.1408   16.4761  -32.3593 H   0  0  0  0  0  0  0  0  0  0  0  0
   -6.0110   19.4256  -30.9514 H   0  0  0  0  0  0  0  0  0  0  0  0
   -4.8277   18.0662  -31.1119 H   0  0  0  0  0  0  0  0  0  0  0  0
   -2.3140   21.6070  -34.4780 H   0  0  0  0  0  0  0  0  0  0  0  0
   -3.5107   20.4206  -29.5388 H   0  0  0  0  0  0  0  0  0  0  0  0
   -3.1442   22.1305  -29.9491 H   0  0  0  0  0  0  0  0  0  0  0  0
   -4.8446   21.5516  -29.9491 H   0  0  0  0  0  0  0  0  0  0  0  0
   -7.9475   18.2913  -33.7067 H   0  0  0  0  0  0  0  0  0  0  0  0
   -9.2909   17.7666  -31.9062 H   0  0  0  0  0  0  0  0  0  0  0  0
   -7.9237   17.9258  -30.8024 H   0  0  0  0  0  0  0  0  0  0  0  0
  -10.1062   19.6680  -30.8582 H   0  0  0  0  0  0  0  0  0  0  0  0
   -8.5187   20.1442  -30.2340 H   0  0  0  0  0  0  0  0  0  0  0  0
   -9.4230   22.6469  -32.8269 H   0  0  0  0  0  0  0  0  0  0  0  0
   -9.7480   22.1795  -31.0786 H   0  0  0  0  0  0  0  0  0  0  0  0
   -8.0633   22.3426  -29.3756 H   0  0  0  0  0  0  0  0  0  0  0  0
   -5.9199   23.4159  -28.6723 H   0  0  0  0  0  0  0  0  0  0  0  0
   -5.0709   24.5116  -32.7016 H   0  0  0  0  0  0  0  0  0  0  0  0
   -7.1821   23.4261  -33.4813 H   0  0  0  0  0  0  0  0  0  0  0  0
   -7.6783   20.6168  -33.9843 H   0  0  0  0  0  0  0  0  0  0  0  0
   -6.7767   20.8110  -32.4798 H   0  0  0  0  0  0  0  0  0  0  0  0
  1  2  1  0
  2  3  1  0
  3  4  1  0
  4  5  1  0
  5  6  1  0
  6  7  1  0
  7  8  2  0
  8  9  1  0
  9 10  1  0
  3 11  1  0
 11 12  1  0
 12 13  1  0
 13 14  1  0
 14 15  1  0
 15 16  1  0
 16 17  2  0
 17 18  1  0
 18 19  2  0
 19 20  1  0
 20 21  2  0
 14 22  1  0
  9  5  2  0
 22 11  1  0
 21 16  1  0
  1 23  1  0
  1 24  1  0
  1 25  1  0
  2 26  1  0
  2 27  1  0
  4 28  1  0
  4 29  1  0
  7 30  1  0
 10 31  1  0
 10 32  1  0
 10 33  1  0
 11 34  1  6
 12 35  1  0
 12 36  1  0
 13 37  1  0
 13 38  1  0
 15 39  1  0
 15 40  1  0
 17 41  1  0
 18 42  1  0
 20 43  1  0
 21 44  1  0
 22 45  1  0
 22 46  1  0
M  CHG  1   7   1
M  END
>  <UniqueID>  (22) 
22

>  <SMILES>  (22) 
CCN(Cc1s[nH+]nc1C)[C@H]1CCN(Cc2ccncc2)C1

>  <Energy>  (22) 
97.46107017750843

>  <Genealogy>  (22) 
CCN(Cc1s[nH+]nc1C)C1CCN(Cc2ccncc2)C1 (protonated)
CCN(Cc1s[nH+]nc1C)[C@H]1CCN(Cc2ccncc2)C1 (chirality)
CCN(Cc1s[nH+]nc1C)[C@H]1CCN(Cc2ccncc2)C1 (3D coordinates assigned)
CCN(Cc1s[nH+]nc1C)[C@H]1CCN(Cc2ccncc2)C1 (nonaromatic ring conformer: 97.46107017750843 kcal/mol)

>  <smiles>  (22) 
CCN(Cc1snnc1C)C1CCN(Cc2ccncc2)C1

>  <score_type>  (22) 
oracle

>  <origin>  (22) 
adg

>  <m_score__min__energy>  (22) 
-8.1400000000000006

>  <m_primary>  (22) 
energy

$$$$
22:0
     RDKit          3D

 42 44  0  0  0  0  0  0  0  0999 V2000
   -2.8030   23.4430  -30.0650 C   0  0  0  0  0  0  0  0  0  0  0  0
   -3.5790   24.5700  -29.5190 N   0  0  0  0  0  0  0  0  0  0  0  0
   -4.2050   24.1640  -28.2500 C   0  0  0  0  0  0  0  0  0  0  0  0
   -4.6150   25.0180  -30.4770 C   0  0  0  0  0  0  0  0  0  0  0  0
   -5.7900   24.0310  -30.5440 C   0  0  0  0  0  0  0  0  0  0  0  0
   -6.2720   23.8030  -31.9830 C   0  0  0  0  0  0  0  0  0  0  0  0
   -6.1530   22.3740  -32.3520 N   0  0  0  0  0  0  0  0  0  0  0  0
   -4.9060   21.8990  -32.7020 C   0  0  0  0  0  0  0  0  0  0  0  0
   -3.8880   22.6440  -32.6760 O   0  0  0  0  0  0  0  0  0  0  0  0
   -4.7680   20.5760  -33.0900 C   0  0  0  0  0  0  0  0  0  0  0  0
   -3.6410   19.9560  -33.4760 N   0  0  0  0  0  0  0  0  0  0  0  0
   -4.0280   18.6940  -33.7500 C   0  0  0  0  0  0  0  0  0  0  0  0
   -5.3550   18.5060  -33.5470 N   0  0  0  0  0  0  0  0  0  0  0  0
   -6.0420   17.2350  -33.7620 C   0  0  0  0  0  0  0  0  0  0  0  0
   -5.8230   19.7120  -33.1250 C   0  0  0  0  0  0  0  0  0  0  0  0
   -7.1110   20.1400  -32.7380 C   0  0  0  0  0  0  0  0  0  0  0  0
   -8.2410   19.2980  -32.7250 C   0  0  0  0  0  0  0  0  0  0  0  0
   -9.4810   19.7720  -32.3030 C   0  0  0  0  0  0  0  0  0  0  0  0
   -9.6200   21.0860  -31.8790 C   0  0  0  0  0  0  0  0  0  0  0  0
   -8.5260   21.9470  -31.8840 C   0  0  0  0  0  0  0  0  0  0  0  0
   -7.2490   21.5120  -32.3250 C   0  0  0  0  0  0  0  0  0  0  0  0
   -2.3919   22.8459  -29.2377 H   0  0  0  0  0  0  0  0  0  0  0  0
   -3.4586   22.8114  -30.6825 H   0  0  0  0  0  0  0  0  0  0  0  0
   -1.9791   23.8301  -30.6825 H   0  0  0  0  0  0  0  0  0  0  0  0
   -3.6109   24.5493  -27.4083 H   0  0  0  0  0  0  0  0  0  0  0  0
   -5.2247   24.5732  -28.1967 H   0  0  0  0  0  0  0  0  0  0  0  0
   -4.2472   23.0661  -28.1967 H   0  0  0  0  0  0  0  0  0  0  0  0
   -4.9927   26.0013  -30.1599 H   0  0  0  0  0  0  0  0  0  0  0  0
   -4.1574   25.0755  -31.4757 H   0  0  0  0  0  0  0  0  0  0  0  0
   -5.4686   23.0678  -30.1209 H   0  0  0  0  0  0  0  0  0  0  0  0
   -6.6254   24.4600  -29.9712 H   0  0  0  0  0  0  0  0  0  0  0  0
   -7.3248   24.1110  -32.0647 H   0  0  0  0  0  0  0  0  0  0  0  0
   -5.6473   24.3986  -32.6649 H   0  0  0  0  0  0  0  0  0  0  0  0
   -2.6790   20.3560  -33.5520 H   0  0  0  0  0  0  0  0  0  0  0  0
   -3.3443   17.9060  -34.0988 H   0  0  0  0  0  0  0  0  0  0  0  0
   -6.2870   16.7817  -32.7902 H   0  0  0  0  0  0  0  0  0  0  0  0
   -6.9683   17.4102  -34.3289 H   0  0  0  0  0  0  0  0  0  0  0  0
   -5.3880   16.5560  -34.3289 H   0  0  0  0  0  0  0  0  0  0  0  0
   -8.1425   18.2525  -33.0525 H   0  0  0  0  0  0  0  0  0  0  0  0
  -10.3535   19.1021  -32.3059 H   0  0  0  0  0  0  0  0  0  0  0  0
  -10.6003   21.4494  -31.5370 H   0  0  0  0  0  0  0  0  0  0  0  0
   -8.6537   22.9839  -31.5397 H   0  0  0  0  0  0  0  0  0  0  0  0
  1  2  1  0
  2  3  1  0
  2  4  1  0
  4  5  1  0
  5  6  1  0
  6  7  1  0
  7  8  1  0
  8  9  2  0
  8 10  1  0
 10 11  1  0
 11 12  2  0
 12 13  1  0
 13 14  1  0
 13 15  1  0
 15 16  1  0
 16 17  2  0
 17 18  1  0
 18 19  2  0
 19 20  1  0
 20 21  2  0
 21  7  1  0
 15 10  2  0
 21 16  1  0
  1 22  1  0
  1 23  1  0
  1 24  1  0
  3 25  1  0
  3 26  1  0
  3 27  1  0
  4 28  1  0
  4 29  1  0
  5 30  1  0
  5 31  1  0
  6 32  1  0
  6 33  1  0
 11 34  1  0
 12 35  1  0
 14 36  1  0
 14 37  1  0
 14 38  1  0
 17 39  1  0
 18 40  1  0
 19 41  1  0
 20 42  1  0
M  CHG  1  11   1
M  END
>  <UniqueID>  (23) 
23

>  <SMILES>  (23) 
CN(C)CCCn1c(=O)c2[nH+]cn(C)c2c2ccccc21

>  <Energy>  (23) 
95.07239851244326

>  <Genealogy>  (23) 
CN(C)CCCn1c(=O)c2[nH+]cn(C)c2c2ccccc21 (protonated)
CN(C)CCCn1c(=O)c2[nH+]cn(C)c2c2ccccc21 (3D coordinates assigned)
CN(C)CCCn1c(=O)c2[nH+]cn(C)c2c2ccccc21 (optimized conformer: 95.07239851244326 kcal/mol)

>  <smiles>  (23) 
CN(C)CCCn1c(=O)c2ncn(C)c2c2ccccc21

>  <score_type>  (23) 
oracle

>  <origin>  (23) 
adg

>  <m_score__min__energy>  (23) 
-6.9900000000000002

>  <m_primary>  (23) 
energy

$$$$
23:0
     RDKit          3D

 53 54  0  0  0  0  0  0  0  0999 V2000
   -4.1840   24.5780  -26.7520 C   0  0  0  0  0  0  0  0  0  0  0  0
   -2.6920   24.5610  -27.0690 C   0  0  0  0  0  0  0  0  0  0  0  0
   -2.4460   24.5690  -28.5810 C   0  0  0  0  0  0  0  0  0  0  0  0
   -3.3500   23.6200  -29.2560 N   0  0  0  0  0  0  0  0  0  0  0  0
   -3.0320   22.1800  -29.2230 C   0  0  0  0  0  0  0  0  0  0  0  0
   -3.4560   21.4970  -27.9110 C   0  0  0  0  0  0  0  0  0  0  0  0
   -2.5400   20.3410  -27.5220 C   0  0  0  0  0  0  0  0  0  0  0  0
   -4.2660   24.1330  -30.2540 C   0  0  0  0  0  0  0  0  0  0  0  0
   -4.0570   25.2610  -30.7790 O   0  0  0  0  0  0  0  0  0  0  0  0
   -5.4430   23.3650  -30.7010 C   0  0  0  0  0  0  0  0  0  0  0  0
   -5.5260   22.8910  -32.0170 C   0  0  0  0  0  0  0  0  0  0  0  0
   -6.6420   22.1620  -32.4360 C   0  0  0  0  0  0  0  0  0  0  0  0
   -7.6810   21.8770  -31.5360 C   0  0  0  0  0  0  0  0  0  0  0  0
   -8.8880   21.0930  -31.9800 C   0  0  0  0  0  0  0  0  0  0  0  0
   -8.5130   20.0840  -32.9730 N   0  0  0  0  0  0  0  0  0  0  0  0
   -7.4780   19.1000  -32.7850 C   0  0  0  0  0  0  0  0  0  0  0  0
   -7.4240   18.2850  -31.6380 C   0  0  0  0  0  0  0  0  0  0  0  0
   -6.4090   17.3360  -31.4890 C   0  0  0  0  0  0  0  0  0  0  0  0
   -5.4240   17.1860  -32.4850 C   0  0  0  0  0  0  0  0  0  0  0  0
   -4.3870   16.2470  -32.3820 O   0  0  0  0  0  0  0  0  0  0  0  0
   -3.4310   15.9900  -33.4060 C   0  0  0  0  0  0  0  0  0  0  0  0
   -5.4740   18.0010  -33.6190 C   0  0  0  0  0  0  0  0  0  0  0  0
   -6.4890   18.9500  -33.7680 C   0  0  0  0  0  0  0  0  0  0  0  0
   -7.5910   22.3430  -30.2150 C   0  0  0  0  0  0  0  0  0  0  0  0
   -6.4740   23.0720  -29.7980 C   0  0  0  0  0  0  0  0  0  0  0  0
   -4.3271   24.5796  -25.6614 H   0  0  0  0  0  0  0  0  0  0  0  0
   -4.6402   25.4814  -27.1830 H   0  0  0  0  0  0  0  0  0  0  0  0
   -4.6606   23.6852  -27.1830 H   0  0  0  0  0  0  0  0  0  0  0  0
   -2.2207   25.4498  -26.6242 H   0  0  0  0  0  0  0  0  0  0  0  0
   -2.2578   23.6410  -26.6507 H   0  0  0  0  0  0  0  0  0  0  0  0
   -2.6265   25.5813  -28.9718 H   0  0  0  0  0  0  0  0  0  0  0  0
   -1.4057   24.2680  -28.7739 H   0  0  0  0  0  0  0  0  0  0  0  0
   -3.5522   21.6876  -30.0578 H   0  0  0  0  0  0  0  0  0  0  0  0
   -1.9392   22.0840  -29.3039 H   0  0  0  0  0  0  0  0  0  0  0  0
   -3.4396   22.2448  -27.1045 H   0  0  0  0  0  0  0  0  0  0  0  0
   -4.4636   21.0832  -28.0643 H   0  0  0  0  0  0  0  0  0  0  0  0
   -2.4841   20.2704  -26.4257 H   0  0  0  0  0  0  0  0  0  0  0  0
   -2.9416   19.4017  -27.9299 H   0  0  0  0  0  0  0  0  0  0  0  0
   -1.5337   20.5173  -27.9299 H   0  0  0  0  0  0  0  0  0  0  0  0
   -4.7082   23.0939  -32.7241 H   0  0  0  0  0  0  0  0  0  0  0  0
   -6.7067   21.8097  -33.4761 H   0  0  0  0  0  0  0  0  0  0  0  0
   -9.3346   20.5930  -31.1080 H   0  0  0  0  0  0  0  0  0  0  0  0
   -9.6117   21.7852  -32.4350 H   0  0  0  0  0  0  0  0  0  0  0  0
   -9.0740   20.0530  -33.8550 H   0  0  0  0  0  0  0  0  0  0  0  0
   -8.1867   18.3962  -30.8532 H   0  0  0  0  0  0  0  0  0  0  0  0
   -6.3790   16.7031  -30.5898 H   0  0  0  0  0  0  0  0  0  0  0  0
   -2.4648   15.7303  -32.9488 H   0  0  0  0  0  0  0  0  0  0  0  0
   -3.7781   15.1533  -34.0300 H   0  0  0  0  0  0  0  0  0  0  0  0
   -3.3117   16.8880  -34.0300 H   0  0  0  0  0  0  0  0  0  0  0  0
   -4.7078   17.8947  -34.4011 H   0  0  0  0  0  0  0  0  0  0  0  0
   -6.5125   19.5858  -34.6654 H   0  0  0  0  0  0  0  0  0  0  0  0
   -8.4040   22.1333  -29.5043 H   0  0  0  0  0  0  0  0  0  0  0  0
   -6.4037   23.4175  -28.7560 H   0  0  0  0  0  0  0  0  0  0  0  0
  1  2  1  0
  2  3  1  0
  3  4  1  0
  4  5  1  0
  5  6  1  0
  6  7  1  0
  4  8  1  0
  8  9  2  0
  8 10  1  0
 10 11  2  0
 11 12  1  0
 12 13  2  0
 13 14  1  0
 14 15  1  0
 15 16  1  0
 16 17  2  0
 17 18  1  0
 18 19  2  0
 19 20  1  0
 20 21  1  0
 19 22  1  0
 22 23  2  0
 13 24  1  0
 24 25  2  0
 25 10  1  0
 23 16  1  0
  1 26  1  0
  1 27  1  0
  1 28  1  0
  2 29  1  0
  2 30  1  0
  3 31  1  0
  3 32  1  0
  5 33  1  0
  5 34  1  0
  6 35  1  0
  6 36  1  0
  7 37  1  0
  7 38  1  0
  7 39  1  0
 11 40  1  0
 12 41  1  0
 14 42  1  0
 14 43  1  0
 15 44  1  0
 17 45  1  0
 18 46  1  0
 21 47  1  0
 21 48  1  0
 21 49  1  0
 22 50  1  0
 23 51  1  0
 24 52  1  0
 25 53  1  0
M  END
>  <UniqueID>  (24) 
24

>  <SMILES>  (24) 
CCCN(CCC)C(=O)c1ccc(CNc2ccc(OC)cc2)cc1

>  <Energy>  (24) 
47.798840362302194

>  <Genealogy>  (24) 
CCCN(CCC)C(=O)c1ccc(CNc2ccc(OC)cc2)cc1 (3D coordinates assigned)
CCCN(CCC)C(=O)c1ccc(CNc2ccc(OC)cc2)cc1 (optimized conformer: 47.798840362302194 kcal/mol)

>  <smiles>  (24) 
CCCN(CCC)C(=O)c1ccc(CNc2ccc(OC)cc2)cc1

>  <score_type>  (24) 
oracle

>  <origin>  (24) 
adg

>  <m_score__min__energy>  (24) 
-8.4000000000000004

>  <m_primary>  (24) 
energy

$$$$
24:0
     RDKit          3D

 41 43  0  0  0  0  0  0  0  0999 V2000
   -6.5000   16.9650  -33.6340 C   0  0  0  0  0  0  0  0  0  0  0  0
   -7.1550   17.6890  -32.4620 C   0  0  0  0  0  0  0  0  0  0  0  0
   -7.8570   18.8490  -32.9110 O   0  0  0  0  0  0  0  0  0  0  0  0
   -7.7260   20.1430  -32.3820 C   0  0  0  0  0  0  0  0  0  0  0  0
   -8.7220   20.7360  -31.5810 C   0  0  0  0  0  0  0  0  0  0  0  0
   -8.5490   22.0250  -31.0750 C   0  0  0  0  0  0  0  0  0  0  0  0
   -7.3770   22.7410  -31.3470 C   0  0  0  0  0  0  0  0  0  0  0  0
   -7.2120   24.1450  -30.8350 C   0  0  0  0  0  0  0  0  0  0  0  0
   -5.7750   24.4070  -30.5200 C   0  0  0  0  0  0  0  0  0  0  0  0
   -5.0070   25.2760  -31.2040 N   0  0  0  0  0  0  0  0  0  0  0  0
   -3.8640   25.2620  -30.5910 O   0  0  0  0  0  0  0  0  0  0  0  0
   -3.9190   24.4370  -29.5740 C   0  0  0  0  0  0  0  0  0  0  0  0
   -2.8040   24.1790  -28.6580 C   0  0  0  0  0  0  0  0  0  0  0  0
   -2.7460   23.1600  -27.7180 C   0  0  0  0  0  0  0  0  0  0  0  0
   -1.5540   23.1580  -26.9840 C   0  0  0  0  0  0  0  0  0  0  0  0
   -0.6750   24.1710  -27.3450 C   0  0  0  0  0  0  0  0  0  0  0  0
   -1.3810   25.0710  -28.5780 S   0  0  0  0  0  0  0  0  0  0  0  0
   -5.1310   23.8560  -29.4700 N   0  0  0  0  0  0  0  0  0  0  0  0
   -6.3860   22.1610  -32.1520 C   0  0  0  0  0  0  0  0  0  0  0  0
   -6.5500   20.8580  -32.6640 C   0  0  0  0  0  0  0  0  0  0  0  0
   -5.5790   20.2370  -33.4690 O   0  0  0  0  0  0  0  0  0  0  0  0
   -4.1750   20.2040  -33.2090 C   0  0  0  0  0  0  0  0  0  0  0  0
   -3.5410   18.9580  -33.8170 C   0  0  0  0  0  0  0  0  0  0  0  0
   -5.8080   16.2001  -33.2519 H   0  0  0  0  0  0  0  0  0  0  0  0
   -7.2759   16.4839  -34.2476 H   0  0  0  0  0  0  0  0  0  0  0  0
   -5.9438   17.6890  -34.2476 H   0  0  0  0  0  0  0  0  0  0  0  0
   -7.8631   17.0078  -31.9675 H   0  0  0  0  0  0  0  0  0  0  0  0
   -6.3701   18.0023  -31.7579 H   0  0  0  0  0  0  0  0  0  0  0  0
   -9.6426   20.1789  -31.3528 H   0  0  0  0  0  0  0  0  0  0  0  0
   -9.3379   22.4811  -30.4589 H   0  0  0  0  0  0  0  0  0  0  0  0
   -7.5523   24.8554  -31.6028 H   0  0  0  0  0  0  0  0  0  0  0  0
   -7.8112   24.2694  -29.9209 H   0  0  0  0  0  0  0  0  0  0  0  0
   -3.5536   22.4289  -27.5653 H   0  0  0  0  0  0  0  0  0  0  0  0
   -1.3342   22.4232  -26.1955 H   0  0  0  0  0  0  0  0  0  0  0  0
    0.3144   24.3536  -26.9002 H   0  0  0  0  0  0  0  0  0  0  0  0
   -5.4728   22.7278  -32.3859 H   0  0  0  0  0  0  0  0  0  0  0  0
   -3.7061   21.0975  -33.6469 H   0  0  0  0  0  0  0  0  0  0  0  0
   -4.0184   20.1839  -32.1204 H   0  0  0  0  0  0  0  0  0  0  0  0
   -3.2009   18.2897  -33.0122 H   0  0  0  0  0  0  0  0  0  0  0  0
   -4.2828   18.4353  -34.4388 H   0  0  0  0  0  0  0  0  0  0  0  0
   -2.6818   19.2499  -34.4388 H   0  0  0  0  0  0  0  0  0  0  0  0
  1  2  1  0
  2  3  1  0
  3  4  1  0
  4  5  2  0
  5  6  1  0
  6  7  2  0
  7  8  1  0
  8  9  1  0
  9 10  2  0
 10 11  1  0
 11 12  1  0
 12 13  1  0
 13 14  2  0
 14 15  1  0
 15 16  2  0
 16 17  1  0
 12 18  2  0
  7 19  1  0
 19 20  2  0
 20 21  1  0
 21 22  1  0
 22 23  1  0
 20  4  1  0
 18  9  1  0
 17 13  1  0
  1 24  1  0
  1 25  1  0
  1 26  1  0
  2 27  1  0
  2 28  1  0
  5 29  1  0
  6 30  1  0
  8 31  1  0
  8 32  1  0
 14 33  1  0
 15 34  1  0
 16 35  1  0
 19 36  1  0
 22 37  1  0
 22 38  1  0
 23 39  1  0
 23 40  1  0
 23 41  1  0
M  END
>  <UniqueID>  (25) 
25

>  <SMILES>  (25) 
CCOc1ccc(Cc2noc(-c3cccs3)n2)cc1OCC

>  <Energy>  (25) 
94.83658746220122

>  <Genealogy>  (25) 
CCOc1ccc(Cc2noc(-c3cccs3)n2)cc1OCC (3D coordinates assigned)
CCOc1ccc(Cc2noc(-c3cccs3)n2)cc1OCC (optimized conformer: 94.83658746220122 kcal/mol)

>  <smiles>  (25) 
CCOc1ccc(Cc2noc(-c3cccs3)n2)cc1OCC

>  <score_type>  (25) 
oracle

>  <origin>  (25) 
adg

>  <m_score__min__energy>  (25) 
-8.5199999999999996

>  <m_primary>  (25) 
energy

$$$$
25:0
     RDKit          3D

 50 51  0  0  0  0  0  0  0  0999 V2000
   -0.8860   28.9940  -25.4090 C   0  0  0  0  0  0  0  0  0  0  0  0
   -0.8800   27.5610  -25.9580 C   0  0  0  0  0  0  0  0  0  0  0  0
   -1.6700   26.6220  -25.1160 N   0  0  0  0  0  0  0  0  0  0  0  0
   -0.8000   25.9540  -24.1080 C   0  0  0  0  0  0  0  0  0  0  0  0
   -0.3370   26.8680  -22.9630 C   0  0  0  0  0  0  0  0  0  0  0  0
   -2.4370   25.6680  -25.9640 C   0  0  0  0  0  0  0  0  0  0  0  0
   -1.7870   25.3520  -27.3300 C   0  0  0  0  0  0  0  0  0  0  0  0
   -2.5590   24.3260  -28.1650 C   0  0  0  0  0  0  0  0  0  0  0  0
   -3.0930   24.9450  -29.3340 O   0  0  0  0  0  0  0  0  0  0  0  0
   -4.2350   24.5010  -30.0170 C   0  0  0  0  0  0  0  0  0  0  0  0
   -5.5090   25.0570  -29.7990 C   0  0  0  0  0  0  0  0  0  0  0  0
   -6.6160   24.5820  -30.5090 C   0  0  0  0  0  0  0  0  0  0  0  0
   -6.4680   23.5410  -31.4390 C   0  0  0  0  0  0  0  0  0  0  0  0
   -7.6510   23.0590  -32.2330 C   0  0  0  0  0  0  0  0  0  0  0  0
   -7.7460   21.5580  -32.1650 C   0  0  0  0  0  0  0  0  0  0  0  0
   -8.6740   20.9440  -31.3070 C   0  0  0  0  0  0  0  0  0  0  0  0
   -8.7350   19.5500  -31.2180 C   0  0  0  0  0  0  0  0  0  0  0  0
   -7.8660   18.7610  -31.9760 C   0  0  0  0  0  0  0  0  0  0  0  0
   -6.9310   19.3650  -32.8220 C   0  0  0  0  0  0  0  0  0  0  0  0
   -6.8670   20.7580  -32.9140 C   0  0  0  0  0  0  0  0  0  0  0  0
   -5.1950   22.9940  -31.6610 C   0  0  0  0  0  0  0  0  0  0  0  0
   -4.0900   23.4700  -30.9500 C   0  0  0  0  0  0  0  0  0  0  0  0
   -0.8859   28.9654  -24.3094 H   0  0  0  0  0  0  0  0  0  0  0  0
    0.0099   29.5257  -25.7620 H   0  0  0  0  0  0  0  0  0  0  0  0
   -1.7863   29.5181  -25.7620 H   0  0  0  0  0  0  0  0  0  0  0  0
   -1.3076   27.5703  -26.9715 H   0  0  0  0  0  0  0  0  0  0  0  0
    0.1624   27.2097  -25.9605 H   0  0  0  0  0  0  0  0  0  0  0  0
   -2.3540   27.1970  -24.5710 H   0  0  0  0  0  0  0  0  0  0  0  0
   -1.3609   25.1141  -23.6722 H   0  0  0  0  0  0  0  0  0  0  0  0
    0.1078   25.6336  -24.6403 H   0  0  0  0  0  0  0  0  0  0  0  0
   -0.5758   26.3967  -21.9982 H   0  0  0  0  0  0  0  0  0  0  0  0
    0.7493   27.0250  -23.0355 H   0  0  0  0  0  0  0  0  0  0  0  0
   -0.8531   27.8367  -23.0355 H   0  0  0  0  0  0  0  0  0  0  0  0
   -2.5430   24.7245  -25.4085 H   0  0  0  0  0  0  0  0  0  0  0  0
   -3.4004   26.1518  -26.1827 H   0  0  0  0  0  0  0  0  0  0  0  0
   -1.7204   26.2869  -27.9059 H   0  0  0  0  0  0  0  0  0  0  0  0
   -0.8006   24.9131  -27.1191 H   0  0  0  0  0  0  0  0  0  0  0  0
   -1.8794   23.5137  -28.4620 H   0  0  0  0  0  0  0  0  0  0  0  0
   -3.3860   23.9218  -27.5628 H   0  0  0  0  0  0  0  0  0  0  0  0
   -5.6346   25.8685  -29.0671 H   0  0  0  0  0  0  0  0  0  0  0  0
   -7.6077   25.0262  -30.3379 H   0  0  0  0  0  0  0  0  0  0  0  0
   -8.5700   23.5003  -31.8200 H   0  0  0  0  0  0  0  0  0  0  0  0
   -7.5270   23.3636  -33.2827 H   0  0  0  0  0  0  0  0  0  0  0  0
   -9.3548   21.5621  -30.7033 H   0  0  0  0  0  0  0  0  0  0  0  0
   -9.4681   19.0738  -30.5503 H   0  0  0  0  0  0  0  0  0  0  0  0
   -7.9175   17.6644  -31.9071 H   0  0  0  0  0  0  0  0  0  0  0  0
   -6.2450   18.7431  -33.4158 H   0  0  0  0  0  0  0  0  0  0  0  0
   -6.1255   21.2299  -33.5754 H   0  0  0  0  0  0  0  0  0  0  0  0
   -5.0663   22.1873  -32.3976 H   0  0  0  0  0  0  0  0  0  0  0  0
   -3.0975   23.0296  -31.1260 H   0  0  0  0  0  0  0  0  0  0  0  0
  1  2  1  0
  2  3  1  0
  3  4  1  0
  4  5  1  0
  3  6  1  0
  6  7  1  0
  7  8  1  0
  8  9  1  0
  9 10  1  0
 10 11  2  0
 11 12  1  0
 12 13  2  0
 13 14  1  0
 14 15  1  0
 15 16  2  0
 16 17  1  0
 17 18  2  0
 18 19  1  0
 19 20  2  0
 13 21  1  0
 21 22  2  0
 22 10  1  0
 20 15  1  0
  1 23  1  0
  1 24  1  0
  1 25  1  0
  2 26  1  0
  2 27  1  0
  3 28  1  0
  4 29  1  0
  4 30  1  0
  5 31  1  0
  5 32  1  0
  5 33  1  0
  6 34  1  0
  6 35  1  0
  7 36  1  0
  7 37  1  0
  8 38  1  0
  8 39  1  0
 11 40  1  0
 12 41  1  0
 14 42  1  0
 14 43  1  0
 16 44  1  0
 17 45  1  0
 18 46  1  0
 19 47  1  0
 20 48  1  0
 21 49  1  0
 22 50  1  0
M  CHG  1   3   1
M  END
>  <UniqueID>  (26) 
26

>  <SMILES>  (26) 
CC[NH+](CC)CCCOc1ccc(Cc2ccccc2)cc1

>  <Energy>  (26) 
47.91324119054316

>  <Genealogy>  (26) 
CC[NH+](CC)CCCOc1ccc(Cc2ccccc2)cc1 (protonated)
CC[NH+](CC)CCCOc1ccc(Cc2ccccc2)cc1 (3D coordinates assigned)
CC[NH+](CC)CCCOc1ccc(Cc2ccccc2)cc1 (optimized conformer: 47.91324119054316 kcal/mol)

>  <smiles>  (26) 
CCN(CC)CCCOc1ccc(Cc2ccccc2)cc1

>  <score_type>  (26) 
oracle

>  <origin>  (26) 
adg

>  <m_score__min__energy>  (26) 
-7.96

>  <m_primary>  (26) 
energy

$$$$
26:0
     RDKit          3D

 29 31  0  0  0  0  0  0  0  0999 V2000
   -9.4860   18.9330  -32.7080 C   0  0  0  0  0  0  0  0  0  0  0  0
   -8.5480   20.0180  -32.2690 C   0  0  0  0  0  0  0  0  0  0  0  0
   -7.1680   19.8840  -32.4750 C   0  0  0  0  0  0  0  0  0  0  0  0
   -6.2890   20.8770  -32.0340 C   0  0  0  0  0  0  0  0  0  0  0  0
   -6.7730   22.0150  -31.3640 C   0  0  0  0  0  0  0  0  0  0  0  0
   -5.8660   23.0370  -30.9080 N   0  0  0  0  0  0  0  0  0  0  0  0
   -5.5480   24.1890  -31.5350 C   0  0  0  0  0  0  0  0  0  0  0  0
   -4.6610   24.9140  -30.8200 N   0  0  0  0  0  0  0  0  0  0  0  0
   -4.4580   24.1400  -29.7320 C   0  0  0  0  0  0  0  0  0  0  0  0
   -3.5460   24.5030  -28.6380 C   0  0  0  0  0  0  0  0  0  0  0  0
   -3.8540   24.5460  -27.2830 C   0  0  0  0  0  0  0  0  0  0  0  0
   -2.7700   24.9300  -26.4830 C   0  0  0  0  0  0  0  0  0  0  0  0
   -1.6100   25.1900  -27.2000 C   0  0  0  0  0  0  0  0  0  0  0  0
   -1.9330   24.9420  -28.8310 S   0  0  0  0  0  0  0  0  0  0  0  0
   -5.1820   23.0070  -29.7780 N   0  0  0  0  0  0  0  0  0  0  0  0
   -8.1570   22.1330  -31.1400 C   0  0  0  0  0  0  0  0  0  0  0  0
   -9.0350   21.1400  -31.5850 C   0  0  0  0  0  0  0  0  0  0  0  0
   -9.9138   18.4381  -31.8236 H   0  0  0  0  0  0  0  0  0  0  0  0
  -10.2955   19.3700  -33.3112 H   0  0  0  0  0  0  0  0  0  0  0  0
   -8.9366   18.1952  -33.3112 H   0  0  0  0  0  0  0  0  0  0  0  0
   -6.7749   18.9929  -32.9863 H   0  0  0  0  0  0  0  0  0  0  0  0
   -5.2091   20.7676  -32.2125 H   0  0  0  0  0  0  0  0  0  0  0  0
   -5.9598   24.4987  -32.5069 H   0  0  0  0  0  0  0  0  0  0  0  0
   -4.8482   24.3031  -26.8799 H   0  0  0  0  0  0  0  0  0  0  0  0
   -2.8322   25.0174  -25.3882 H   0  0  0  0  0  0  0  0  0  0  0  0
   -0.6456   25.5042  -26.7742 H   0  0  0  0  0  0  0  0  0  0  0  0
   -5.1900   22.2320  -29.0790 H   0  0  0  0  0  0  0  0  0  0  0  0
   -8.5513   23.0131  -30.6108 H   0  0  0  0  0  0  0  0  0  0  0  0
  -10.1142   21.2400  -31.3971 H   0  0  0  0  0  0  0  0  0  0  0  0
  1  2  1  0
  2  3  2  0
  3  4  1  0
  4  5  2  0
  5  6  1  0
  6  7  1  0
  7  8  2  0
  8  9  1  0
  9 10  1  0
 10 11  2  0
 11 12  1  0
 12 13  2  0
 13 14  1  0
  9 15  2  0
  5 16  1  0
 16 17  2  0
 17  2  1  0
 15  6  1  0
 14 10  1  0
  1 18  1  0
  1 19  1  0
  1 20  1  0
  3 21  1  0
  4 22  1  0
  7 23  1  0
 11 24  1  0
 12 25  1  0
 13 26  1  0
 15 27  1  0
 16 28  1  0
 17 29  1  0
M  CHG  1  15   1
M  END
>  <UniqueID>  (27) 
27

>  <SMILES>  (27) 
Cc1ccc(-n2cnc(-c3cccs3)[nH+]2)cc1

>  <Energy>  (27) 
93.30495441385393

>  <Genealogy>  (27) 
Cc1ccc(-n2cnc(-c3cccs3)[nH+]2)cc1 (protonated)
Cc1ccc(-n2cnc(-c3cccs3)[nH+]2)cc1 (3D coordinates assigned)
Cc1ccc(-n2cnc(-c3cccs3)[nH+]2)cc1 (optimized conformer: 93.30495441385393 kcal/mol)

>  <smiles>  (27) 
Cc1ccc(-n2cnc(-c3cccs3)n2)cc1

>  <score_type>  (27) 
oracle

>  <origin>  (27) 
adg

>  <m_score__min__energy>  (27) 
-6.21

>  <m_primary>  (27) 
energy

$$$$
27:0
     RDKit          3D

 40 42  0  0  0  0  0  0  0  0999 V2000
   -3.2200   21.8850  -32.3390 C   0  0  0  0  0  0  0  0  0  0  0  0
   -4.0750   22.8060  -31.6680 O   0  0  0  0  0  0  0  0  0  0  0  0
   -5.4540   22.6190  -31.4790 C   0  0  0  0  0  0  0  0  0  0  0  0
   -6.0970   21.4100  -31.8120 C   0  0  0  0  0  0  0  0  0  0  0  0
   -7.4760   21.2610  -31.6140 C   0  0  0  0  0  0  0  0  0  0  0  0
   -8.2590   19.7500  -32.0620 S   0  0  0  0  0  0  0  0  0  0  0  0
   -8.9110   19.1450  -30.8500 O   0  0  0  0  0  0  0  0  0  0  0  0
   -9.3220   19.9920  -33.0980 O   0  0  0  0  0  0  0  0  0  0  0  0
   -7.0480   18.6520  -32.7140 C   0  0  0  0  0  0  0  0  0  0  0  0
   -6.4520   18.9200  -33.9520 C   0  0  0  0  0  0  0  0  0  0  0  0
   -5.4740   18.0640  -34.4660 C   0  0  0  0  0  0  0  0  0  0  0  0
   -5.0720   16.9270  -33.7400 C   0  0  0  0  0  0  0  0  0  0  0  0
   -5.6570   16.6740  -32.4840 C   0  0  0  0  0  0  0  0  0  0  0  0
   -6.6450   17.5300  -31.9800 C   0  0  0  0  0  0  0  0  0  0  0  0
   -5.2290   15.5360  -31.7220 N   0  0  0  0  0  0  0  0  0  0  0  0
   -4.0400   14.7840  -32.1150 C   0  0  0  0  0  0  0  0  0  0  0  0
   -3.9750   14.6710  -33.6390 C   0  0  0  0  0  0  0  0  0  0  0  0
   -4.0780   16.0060  -34.2490 N   0  0  0  0  0  0  0  0  0  0  0  0
   -3.1660   16.3910  -35.3320 C   0  0  0  0  0  0  0  0  0  0  0  0
   -8.2200   22.3230  -31.0850 C   0  0  0  0  0  0  0  0  0  0  0  0
   -7.5880   23.5220  -30.7500 C   0  0  0  0  0  0  0  0  0  0  0  0
   -6.2120   23.6730  -30.9450 C   0  0  0  0  0  0  0  0  0  0  0  0
   -5.3810   25.3320  -30.4780 Br  0  0  0  0  0  0  0  0  0  0  0  0
   -2.6676   21.2900  -31.5969 H   0  0  0  0  0  0  0  0  0  0  0  0
   -3.8243   21.2159  -32.9691 H   0  0  0  0  0  0  0  0  0  0  0  0
   -2.5079   22.4380  -32.9691 H   0  0  0  0  0  0  0  0  0  0  0  0
   -5.5122   20.5775  -32.2303 H   0  0  0  0  0  0  0  0  0  0  0  0
   -6.7552   19.8096  -34.5236 H   0  0  0  0  0  0  0  0  0  0  0  0
   -5.0162   18.2799  -35.4426 H   0  0  0  0  0  0  0  0  0  0  0  0
   -7.1059   17.3197  -31.0036 H   0  0  0  0  0  0  0  0  0  0  0  0
   -5.7320   15.2690  -30.8460 H   0  0  0  0  0  0  0  0  0  0  0  0
   -3.1423   15.3040  -31.7493 H   0  0  0  0  0  0  0  0  0  0  0  0
   -4.0892   13.7753  -31.6791 H   0  0  0  0  0  0  0  0  0  0  0  0
   -3.0190   14.2109  -33.9294 H   0  0  0  0  0  0  0  0  0  0  0  0
   -4.8113   14.0488  -33.9902 H   0  0  0  0  0  0  0  0  0  0  0  0
   -2.2329   16.7849  -34.9029 H   0  0  0  0  0  0  0  0  0  0  0  0
   -2.9414   15.5109  -35.9525 H   0  0  0  0  0  0  0  0  0  0  0  0
   -3.6400   17.1658  -35.9525 H   0  0  0  0  0  0  0  0  0  0  0  0
   -9.3038   22.2123  -30.9332 H   0  0  0  0  0  0  0  0  0  0  0  0
   -8.1757   24.3519  -30.3306 H   0  0  0  0  0  0  0  0  0  0  0  0
  1  2  1  0
  2  3  1  0
  3  4  2  0
  4  5  1  0
  5  6  1  0
  6  7  2  0
  6  8  2  0
  6  9  1  0
  9 10  2  0
 10 11  1  0
 11 12  2  0
 12 13  1  0
 13 14  2  0
 13 15  1  0
 15 16  1  0
 16 17  1  0
 17 18  1  0
 18 19  1  0
  5 20  2  0
 20 21  1  0
 21 22  2  0
 22 23  1  0
 22  3  1  0
 14  9  1  0
 18 12  1  0
  1 24  1  0
  1 25  1  0
  1 26  1  0
  4 27  1  0
 10 28  1  0
 11 29  1  0
 14 30  1  0
 15 31  1  0
 16 32  1  0
 16 33  1  0
 17 34  1  0
 17 35  1  0
 19 36  1  0
 19 37  1  0
 19 38  1  0
 20 39  1  0
 21 40  1  0
M  END
>  <UniqueID>  (28) 
28

>  <SMILES>  (28) 
COc1cc(S(=O)(=O)c2ccc3c(c2)NCCN3C)ccc1Br

>  <Energy>  (28) 
42.8035198100684

>  <Genealogy>  (28) 
COc1cc(S(=O)(=O)c2ccc3c(c2)NCCN3C)ccc1Br (3D coordinates assigned)
COc1cc(S(=O)(=O)c2ccc3c(c2)NCCN3C)ccc1Br (nonaromatic ring conformer: 42.8035198100684 kcal/mol)

>  <smiles>  (28) 
COc1cc(S(=O)(=O)c2ccc3c(c2)NCCN3C)ccc1Br

>  <score_type>  (28) 
oracle

>  <origin>  (28) 
adg

>  <m_score__min__energy>  (28) 
-8.7899999999999991

>  <m_primary>  (28) 
energy

$$$$
28:0
     RDKit          3D

 47 49  0  0  0  0  0  0  0  0999 V2000
   -0.5380   20.8510  -32.0570 C   0  0  0  0  0  0  0  0  0  0  0  0
   -1.5960   21.2110  -31.0080 C   0  0  0  0  0  0  0  0  0  0  0  0
   -0.9370   21.4980  -29.6520 C   0  0  0  0  0  0  0  0  0  0  0  0
   -2.5210   22.3620  -31.4740 C   0  0  0  0  0  0  0  0  0  0  0  0
   -3.9400   21.9760  -31.5200 N   0  0  0  0  0  0  0  0  0  0  0  0
   -4.3810   20.7310  -31.8230 C   0  0  0  0  0  0  0  0  0  0  0  0
   -5.7600   20.7400  -31.8620 C   0  0  0  0  0  0  0  0  0  0  0  0
   -6.1760   22.0100  -31.6040 C   0  0  0  0  0  0  0  0  0  0  0  0
   -5.0350   22.7800  -31.4050 C   0  0  0  0  0  0  0  0  0  0  0  0
   -5.0010   24.2460  -31.2320 C   0  0  0  0  0  0  0  0  0  0  0  0
   -6.0000   24.9410  -31.5570 O   0  0  0  0  0  0  0  0  0  0  0  0
   -3.8600   24.8610  -30.6230 N   0  0  0  0  0  0  0  0  0  0  0  0
   -3.3090   24.5510  -29.3360 C   0  0  0  0  0  0  0  0  0  0  0  0
   -1.9740   24.8530  -29.0010 C   0  0  0  0  0  0  0  0  0  0  0  0
   -1.4700   24.5090  -27.7430 C   0  0  0  0  0  0  0  0  0  0  0  0
   -2.2830   23.8520  -26.8160 C   0  0  0  0  0  0  0  0  0  0  0  0
   -3.6010   23.5280  -27.1510 C   0  0  0  0  0  0  0  0  0  0  0  0
   -4.1080   23.8680  -28.4090 C   0  0  0  0  0  0  0  0  0  0  0  0
   -7.5380   22.2950  -31.5730 C   0  0  0  0  0  0  0  0  0  0  0  0
   -7.9430   23.4570  -31.2980 O   0  0  0  0  0  0  0  0  0  0  0  0
   -8.4310   21.2800  -31.8340 N   0  0  0  0  0  0  0  0  0  0  0  0
   -9.8760   21.5640  -31.8560 C   0  0  0  0  0  0  0  0  0  0  0  0
   -7.9740   20.0110  -32.1460 C   0  0  0  0  0  0  0  0  0  0  0  0
   -8.8020   19.1070  -32.4520 O   0  0  0  0  0  0  0  0  0  0  0  0
   -6.6260   19.7240  -32.1310 N   0  0  0  0  0  0  0  0  0  0  0  0
   -6.1150   18.3820  -32.4490 C   0  0  0  0  0  0  0  0  0  0  0  0
    0.3870   20.5362  -31.5518 H   0  0  0  0  0  0  0  0  0  0  0  0
   -0.9102   20.0289  -32.6860 H   0  0  0  0  0  0  0  0  0  0  0  0
   -0.3316   21.7295  -32.6860 H   0  0  0  0  0  0  0  0  0  0  0  0
   -2.2521   20.3374  -30.8801 H   0  0  0  0  0  0  0  0  0  0  0  0
   -1.6197   21.2007  -28.8423 H   0  0  0  0  0  0  0  0  0  0  0  0
   -0.0009   20.9261  -29.5709 H   0  0  0  0  0  0  0  0  0  0  0  0
   -0.7181   22.5729  -29.5709 H   0  0  0  0  0  0  0  0  0  0  0  0
   -2.4095   23.2055  -30.7768 H   0  0  0  0  0  0  0  0  0  0  0  0
   -2.2201   22.6325  -32.4969 H   0  0  0  0  0  0  0  0  0  0  0  0
   -3.7425   19.8546  -32.0080 H   0  0  0  0  0  0  0  0  0  0  0  0
   -1.3267   25.3607  -29.7312 H   0  0  0  0  0  0  0  0  0  0  0  0
   -0.4303   24.7564  -27.4824 H   0  0  0  0  0  0  0  0  0  0  0  0
   -1.8866   23.5900  -25.8239 H   0  0  0  0  0  0  0  0  0  0  0  0
   -4.2399   23.0050  -26.4242 H   0  0  0  0  0  0  0  0  0  0  0  0
   -5.1411   23.5975  -28.6729 H   0  0  0  0  0  0  0  0  0  0  0  0
  -10.2509   21.6377  -30.8245 H   0  0  0  0  0  0  0  0  0  0  0  0
  -10.0549   22.5145  -32.3800 H   0  0  0  0  0  0  0  0  0  0  0  0
  -10.4014   20.7519  -32.3800 H   0  0  0  0  0  0  0  0  0  0  0  0
   -5.9078   17.8379  -31.5157 H   0  0  0  0  0  0  0  0  0  0  0  0
   -6.8669   17.8326  -33.0346 H   0  0  0  0  0  0  0  0  0  0  0  0
   -5.1881   18.4718  -33.0346 H   0  0  0  0  0  0  0  0  0  0  0  0
  1  2  1  0
  2  3  1  0
  2  4  1  0
  4  5  1  0
  5  6  1  0
  6  7  2  0
  7  8  1  0
  8  9  2  0
  9 10  1  0
 10 11  2  0
 10 12  1  0
 12 13  1  0
 13 14  2  0
 14 15  1  0
 15 16  2  0
 16 17  1  0
 17 18  2  0
  8 19  1  0
 19 20  2  0
 19 21  1  0
 21 22  1  0
 21 23  1  0
 23 24  2  0
 23 25  1  0
 25 26  1  0
  9  5  1  0
 18 13  1  0
 25  7  1  0
  1 27  1  0
  1 28  1  0
  1 29  1  0
  2 30  1  0
  3 31  1  0
  3 32  1  0
  3 33  1  0
  4 34  1  0
  4 35  1  0
  6 36  1  0
 14 37  1  0
 15 38  1  0
 16 39  1  0
 17 40  1  0
 18 41  1  0
 22 42  1  0
 22 43  1  0
 22 44  1  0
 26 45  1  0
 26 46  1  0
 26 47  1  0
M  CHG  1  12  -1
M  END
>  <UniqueID>  (29) 
29

>  <SMILES>  (29) 
CC(C)Cn1cc2c(c1C(=O)[N-]c1ccccc1)c(=O)n(C)c(=O)n2C

>  <Energy>  (29) 
95.3994413322337

>  <Genealogy>  (29) 
CC(C)Cn1cc2c(c1C(=O)[N-]c1ccccc1)c(=O)n(C)c(=O)n2C (protonated)
CC(C)Cn1cc2c(c1C(=O)[N-]c1ccccc1)c(=O)n(C)c(=O)n2C (3D coordinates assigned)
CC(C)Cn1cc2c(c1C(=O)[N-]c1ccccc1)c(=O)n(C)c(=O)n2C (optimized conformer: 95.3994413322337 kcal/mol)

>  <smiles>  (29) 
CC(C)Cn1cc2c(c1C(=O)Nc1ccccc1)c(=O)n(C)c(=O)n2C

>  <score_type>  (29) 
oracle

>  <origin>  (29) 
adg

>  <m_score__min__energy>  (29) 
-9.0700000000000003

>  <m_primary>  (29) 
energy

$$$$
29:0
     RDKit          3D

 32 34  0  0  0  0  0  0  0  0999 V2000
    0.0390   24.2030  -27.5200 C   0  0  0  0  0  0  0  0  0  0  0  0
   -0.1510   23.7780  -28.8660 O   0  0  0  0  0  0  0  0  0  0  0  0
   -1.3240   23.1790  -29.3560 C   0  0  0  0  0  0  0  0  0  0  0  0
   -1.4150   21.7950  -29.5690 C   0  0  0  0  0  0  0  0  0  0  0  0
   -2.5980   21.2300  -30.0330 C   0  0  0  0  0  0  0  0  0  0  0  0
   -3.6970   22.0350  -30.3300 C   0  0  0  0  0  0  0  0  0  0  0  0
   -4.8030   21.4590  -30.7890 O   0  0  0  0  0  0  0  0  0  0  0  0
   -5.8950   22.1350  -31.1280 C   0  0  0  0  0  0  0  0  0  0  0  0
   -7.0780   21.3830  -31.6180 C   0  0  0  0  0  0  0  0  0  0  0  0
   -8.3610   21.9490  -31.4900 C   0  0  0  0  0  0  0  0  0  0  0  0
   -9.4880   21.2640  -31.9530 C   0  0  0  0  0  0  0  0  0  0  0  0
   -9.3500   20.0120  -32.5560 C   0  0  0  0  0  0  0  0  0  0  0  0
   -8.0830   19.4440  -32.7010 C   0  0  0  0  0  0  0  0  0  0  0  0
   -6.9510   20.1240  -32.2400 C   0  0  0  0  0  0  0  0  0  0  0  0
   -5.8920   23.5330  -31.0370 C   0  0  0  0  0  0  0  0  0  0  0  0
   -4.7540   24.1920  -30.5670 C   0  0  0  0  0  0  0  0  0  0  0  0
   -4.7570   25.4500  -30.5610 O   0  0  0  0  0  0  0  0  0  0  0  0
   -3.6280   23.4420  -30.1540 C   0  0  0  0  0  0  0  0  0  0  0  0
   -2.4320   24.0050  -29.6160 C   0  0  0  0  0  0  0  0  0  0  0  0
   -2.2950   25.3600  -29.2940 O   0  0  0  0  0  0  0  0  0  0  0  0
   -0.3121   23.4176  -26.8345 H   0  0  0  0  0  0  0  0  0  0  0  0
    1.1079   24.3932  -27.3430 H   0  0  0  0  0  0  0  0  0  0  0  0
   -0.5320   25.1264  -27.3430 H   0  0  0  0  0  0  0  0  0  0  0  0
   -0.5449   21.1528  -29.3676 H   0  0  0  0  0  0  0  0  0  0  0  0
   -2.6672   20.1403  -30.1666 H   0  0  0  0  0  0  0  0  0  0  0  0
   -8.4772   22.9377  -31.0221 H   0  0  0  0  0  0  0  0  0  0  0  0
  -10.4863   21.7123  -31.8421 H   0  0  0  0  0  0  0  0  0  0  0  0
  -10.2390   19.4737  -32.9165 H   0  0  0  0  0  0  0  0  0  0  0  0
   -7.9747   18.4592  -33.1790 H   0  0  0  0  0  0  0  0  0  0  0  0
   -5.9551   19.6736  -32.3635 H   0  0  0  0  0  0  0  0  0  0  0  0
   -6.7811   24.1084  -31.3341 H   0  0  0  0  0  0  0  0  0  0  0  0
   -3.0380   26.0390  -29.3410 H   0  0  0  0  0  0  0  0  0  0  0  0
  1  2  1  0
  2  3  1  0
  3  4  2  0
  4  5  1  0
  5  6  2  0
  6  7  1  0
  7  8  1  0
  8  9  1  0
  9 10  2  0
 10 11  1  0
 11 12  2  0
 12 13  1  0
 13 14  2  0
  8 15  2  0
 15 16  1  0
 16 17  2  0
 16 18  1  0
 18 19  2  0
 19 20  1  0
 19  3  1  0
 18  6  1  0
 14  9  1  0
  1 21  1  0
  1 22  1  0
  1 23  1  0
  4 24  1  0
  5 25  1  0
 10 26  1  0
 11 27  1  0
 12 28  1  0
 13 29  1  0
 14 30  1  0
 15 31  1  0
 20 32  1  0
M  END
>  <UniqueID>  (30) 
30

>  <SMILES>  (30) 
COc1ccc2oc(-c3ccccc3)cc(=O)c2c1O

>  <Energy>  (30) 
49.629378939180015

>  <Genealogy>  (30) 
COc1ccc2oc(-c3ccccc3)cc(=O)c2c1O (3D coordinates assigned)
COc1ccc2oc(-c3ccccc3)cc(=O)c2c1O (optimized conformer: 49.629378939180015 kcal/mol)

>  <smiles>  (30) 
COc1ccc2oc(-c3ccccc3)cc(=O)c2c1O

>  <score_type>  (30) 
oracle

>  <origin>  (30) 
adg

>  <m_score__min__energy>  (30) 
-8.4199999999999999

>  <m_primary>  (30) 
energy

$$$$
30:0
     RDKit          3D

 63 65  0  0  0  0  0  0  0  0999 V2000
   -7.5328   17.8685  -33.9479 H   0  0  0  0  0  0  0  0  0  0  0  0
   -6.4530   18.0780  -33.9380 C   0  0  0  0  0  0  0  0  0  0  0  0
   -6.0420   19.3020  -34.2870 C   0  0  0  0  0  0  0  0  0  0  0  0
   -5.7158   19.4889  -35.3207 H   0  0  0  0  0  0  0  0  0  0  0  0
   -6.0190   20.4090  -33.3050 C   0  0  0  0  0  0  0  0  0  0  0  0
   -4.8280   21.1500  -33.1030 C   0  0  0  0  0  0  0  0  0  0  0  0
   -3.5900   20.7560  -33.7140 N   0  0  0  0  0  0  0  0  0  0  0  0
   -3.0250   21.4950  -34.1920 H   0  0  0  0  0  0  0  0  0  0  0  0
   -2.8690   19.5700  -33.2540 C   0  0  0  0  0  0  0  0  0  0  0  0
   -3.5380   18.6982  -33.3041 H   0  0  0  0  0  0  0  0  0  0  0  0
   -2.5372   19.7362  -32.2185 H   0  0  0  0  0  0  0  0  0  0  0  0
   -1.6340   19.3110  -34.1350 C   0  0  0  0  0  0  0  0  0  0  0  0
   -1.9582   18.8337  -35.0715 H   0  0  0  0  0  0  0  0  0  0  0  0
   -0.9461   18.6588  -33.5770 H   0  0  0  0  0  0  0  0  0  0  0  0
   -0.9140   20.5730  -34.4610 N   0  0  0  0  0  0  0  0  0  0  0  0
   -1.5770   21.2300  -34.9430 H   0  0  0  0  0  0  0  0  0  0  0  0
    0.2210   20.2900  -35.3810 C   0  0  0  0  0  0  0  0  0  0  0  0
   -0.1654   19.7699  -36.2700 H   0  0  0  0  0  0  0  0  0  0  0  0
    0.9484   19.6695  -34.8372 H   0  0  0  0  0  0  0  0  0  0  0  0
    0.9390   21.5700  -35.8310 C   0  0  0  0  0  0  0  0  0  0  0  0
    1.2592   22.1409  -34.9470 H   0  0  0  0  0  0  0  0  0  0  0  0
    1.8195   21.3038  -36.4343 H   0  0  0  0  0  0  0  0  0  0  0  0
    0.2528   22.1826  -36.4343 H   0  0  0  0  0  0  0  0  0  0  0  0
   -0.4220   21.2290  -33.2180 C   0  0  0  0  0  0  0  0  0  0  0  0
    0.2638   22.0434  -33.4943 H   0  0  0  0  0  0  0  0  0  0  0  0
   -1.2948   21.6114  -32.6685 H   0  0  0  0  0  0  0  0  0  0  0  0
    0.3190   20.2480  -32.3030 C   0  0  0  0  0  0  0  0  0  0  0  0
    0.1231   20.5074  -31.2521 H   0  0  0  0  0  0  0  0  0  0  0  0
   -0.0338   19.2249  -32.5001 H   0  0  0  0  0  0  0  0  0  0  0  0
    1.3996   20.3076  -32.5001 H   0  0  0  0  0  0  0  0  0  0  0  0
   -4.8390   22.2730  -32.2700 C   0  0  0  0  0  0  0  0  0  0  0  0
   -3.9238   22.8717  -32.1520 H   0  0  0  0  0  0  0  0  0  0  0  0
   -5.9960   22.6420  -31.5880 C   0  0  0  0  0  0  0  0  0  0  0  0
   -5.9889   23.5302  -30.9391 H   0  0  0  0  0  0  0  0  0  0  0  0
   -7.1670   21.8890  -31.7240 C   0  0  0  0  0  0  0  0  0  0  0  0
   -8.3230   22.2590  -31.0190 C   0  0  0  0  0  0  0  0  0  0  0  0
   -8.3008   23.1330  -30.3514 H   0  0  0  0  0  0  0  0  0  0  0  0
   -9.5010   21.5230  -31.1610 C   0  0  0  0  0  0  0  0  0  0  0  0
  -10.4032   21.8175  -30.6049 H   0  0  0  0  0  0  0  0  0  0  0  0
   -9.5350   20.4150  -32.0070 C   0  0  0  0  0  0  0  0  0  0  0  0
  -10.4639   19.8354  -32.1129 H   0  0  0  0  0  0  0  0  0  0  0  0
   -8.3960   20.0380  -32.7200 C   0  0  0  0  0  0  0  0  0  0  0  0
   -8.4372   19.1682  -33.3921 H   0  0  0  0  0  0  0  0  0  0  0  0
   -7.1920   20.7620  -32.5870 C   0  0  0  0  0  0  0  0  0  0  0  0
   -5.5310   16.9900  -33.5390 C   0  0  0  0  0  0  0  0  0  0  0  0
   -5.7090   16.2440  -32.3610 C   0  0  0  0  0  0  0  0  0  0  0  0
   -6.5809   16.4366  -31.7185 H   0  0  0  0  0  0  0  0  0  0  0  0
   -4.7850   15.2590  -32.0010 C   0  0  0  0  0  0  0  0  0  0  0  0
   -4.9362   14.6851  -31.0748 H   0  0  0  0  0  0  0  0  0  0  0  0
   -3.6630   14.9920  -32.8090 C   0  0  0  0  0  0  0  0  0  0  0  0
   -2.6870   13.9920  -32.4210 N   0  0  0  0  0  0  0  0  0  0  0  0
   -1.2970   14.0910  -32.8780 C   0  0  0  0  0  0  0  0  0  0  0  0
   -0.6271   14.1387  -32.0068 H   0  0  0  0  0  0  0  0  0  0  0  0
   -1.0468   13.2084  -33.4850 H   0  0  0  0  0  0  0  0  0  0  0  0
   -1.1745   15.0001  -33.4850 H   0  0  0  0  0  0  0  0  0  0  0  0
   -3.0830   12.8530  -31.5840 C   0  0  0  0  0  0  0  0  0  0  0  0
   -2.9877   13.1271  -30.5230 H   0  0  0  0  0  0  0  0  0  0  0  0
   -4.1274   12.5841  -31.8009 H   0  0  0  0  0  0  0  0  0  0  0  0
   -2.4307   11.9943  -31.8009 H   0  0  0  0  0  0  0  0  0  0  0  0
   -3.5080   15.7220  -34.0020 C   0  0  0  0  0  0  0  0  0  0  0  0
   -2.6462   15.5196  -34.6550 H   0  0  0  0  0  0  0  0  0  0  0  0
   -4.4360   16.7010  -34.3670 C   0  0  0  0  0  0  0  0  0  0  0  0
   -4.3068   17.2497  -35.3116 H   0  0  0  0  0  0  0  0  0  0  0  0
  1  2  1  0
  2  3  2  0
  3  4  1  0
  3  5  1  0
  5  6  2  0
  6  7  1  0
  7  8  1  0
  7  9  1  0
  9 10  1  0
  9 11  1  0
  9 12  1  0
 12 13  1  0
 12 14  1  0
 12 15  1  0
 15 16  1  0
 15 17  1  0
 17 18  1  0
 17 19  1  0
 17 20  1  0
 20 21  1  0
 20 22  1  0
 20 23  1  0
 15 24  1  0
 24 25  1  0
 24 26  1  0
 24 27  1  0
 27 28  1  0
 27 29  1  0
 27 30  1  0
  6 31  1  0
 31 32  1  0
 31 33  2  0
 33 34  1  0
 33 35  1  0
 35 36  2  0
 36 37  1  0
 36 38  1  0
 38 39  1  0
 38 40  2  0
 40 41  1  0
 40 42  1  0
 42 43  1  0
 42 44  2  0
  2 45  1  0
 45 46  2  0
 46 47  1  0
 46 48  1  0
 48 49  1  0
 48 50  2  0
 50 51  1  0
 51 52  1  0
 52 53  1  0
 52 54  1  0
 52 55  1  0
 51 56  1  0
 56 57  1  0
 56 58  1  0
 56 59  1  0
 50 60  1  0
 60 61  1  0
 60 62  2  0
 62 63  1  0
 44  5  1  0
 62 45  1  0
 44 35  1  0
M  CHG  1  15   1
M  END
>  <UniqueID>  (31) 
31

>  <SMILES>  (31) 
CC[NH+](CC)CCNc1ccc2ccccc2c1/C=C/c1ccc(N(C)C)cc1

>  <Energy>  (31) 
80.57624167717131

>  <Genealogy>  (31) 
CC[NH+](CC)CCNc1ccc2ccccc2c1C=Cc1ccc(N(C)C)cc1 (protonated)
CC[NH+](CC)CCNc1ccc2ccccc2c1/C=C/c1ccc(N(C)C)cc1 (cis-trans isomerization)
CC[NH+](CC)CCNc1ccc2ccccc2c1/C=C/c1ccc(N(C)C)cc1 (3D coordinates assigned)
CC[NH+](CC)CCNc1ccc2ccccc2c1/C=C/c1ccc(N(C)C)cc1 (optimized conformer: 80.57624167717131 kcal/mol)

>  <smiles>  (31) 
CCN(CC)CCNc1ccc2ccccc2c1C=Cc1ccc(N(C)C)cc1

>  <score_type>  (31) 
oracle

>  <origin>  (31) 
adg

>  <m_score__min__energy>  (31) 
-8.2100000000000009

>  <m_primary>  (31) 
energy

$$$$
31:0
     RDKit          3D

 68 70  0  0  0  0  0  0  0  0999 V2000
   -5.3590   16.1080  -32.1200 C   0  0  0  0  0  0  0  0  0  0  0  0
   -6.0100   17.3750  -32.6120 C   0  0  0  0  0  0  0  0  0  0  0  0
   -7.0750   17.9280  -31.8780 C   0  0  0  0  0  0  0  0  0  0  0  0
   -7.6970   19.1010  -32.3050 C   0  0  0  0  0  0  0  0  0  0  0  0
   -7.2670   19.7400  -33.4660 C   0  0  0  0  0  0  0  0  0  0  0  0
   -6.2090   19.2070  -34.2050 C   0  0  0  0  0  0  0  0  0  0  0  0
   -5.5650   18.0270  -33.7900 C   0  0  0  0  0  0  0  0  0  0  0  0
   -4.4380   17.4750  -34.6350 C   0  0  0  0  0  0  0  0  0  0  0  0
   -3.2160   18.2740  -34.4720 N   0  0  0  0  0  0  0  0  0  0  0  0
   -2.3410   17.7070  -33.4360 C   0  0  0  0  0  0  0  0  0  0  0  0
   -1.3360   18.7630  -32.9630 C   0  0  0  0  0  0  0  0  0  0  0  0
   -1.8470   20.2120  -33.1070 C   0  0  0  0  0  0  0  0  0  0  0  0
   -3.3220   20.3380  -32.9300 N   0  0  0  0  0  0  0  0  0  0  0  0
   -3.8580   21.5860  -33.5570 C   0  0  0  0  0  0  0  0  0  0  0  0
   -4.3420   22.6180  -32.5310 C   0  0  0  0  0  0  0  0  0  0  0  0
   -5.3960   22.0320  -31.6810 N   0  0  0  0  0  0  0  0  0  0  0  0
   -5.8730   22.9410  -30.6160 C   0  0  0  0  0  0  0  0  0  0  0  0
   -6.2300   24.3570  -31.1210 C   0  0  0  0  0  0  0  0  0  0  0  0
   -5.2780   25.4230  -30.5590 C   0  0  0  0  0  0  0  0  0  0  0  0
   -3.8980   24.9200  -30.4700 N   0  0  0  0  0  0  0  0  0  0  0  0
   -3.5360   24.5670  -29.0920 C   0  0  0  0  0  0  0  0  0  0  0  0
   -2.7820   23.2670  -29.0940 C   0  0  0  0  0  0  0  0  0  0  0  0
   -1.7020   23.0810  -29.9730 C   0  0  0  0  0  0  0  0  0  0  0  0
   -1.0250   21.8570  -30.0070 C   0  0  0  0  0  0  0  0  0  0  0  0
   -1.4270   20.8110  -29.1740 C   0  0  0  0  0  0  0  0  0  0  0  0
   -2.5110   20.9830  -28.3080 C   0  0  0  0  0  0  0  0  0  0  0  0
   -3.1910   22.2040  -28.2700 C   0  0  0  0  0  0  0  0  0  0  0  0
   -5.1220   20.6490  -31.2220 C   0  0  0  0  0  0  0  0  0  0  0  0
   -3.6710   20.2190  -31.4900 C   0  0  0  0  0  0  0  0  0  0  0  0
   -5.3553   16.1009  -31.0200 H   0  0  0  0  0  0  0  0  0  0  0  0
   -5.9221   15.2387  -32.4904 H   0  0  0  0  0  0  0  0  0  0  0  0
   -4.3244   16.0596  -32.4904 H   0  0  0  0  0  0  0  0  0  0  0  0
   -7.4202   17.4310  -30.9594 H   0  0  0  0  0  0  0  0  0  0  0  0
   -8.5298   19.5230  -31.7233 H   0  0  0  0  0  0  0  0  0  0  0  0
   -7.7609   20.6642  -33.8004 H   0  0  0  0  0  0  0  0  0  0  0  0
   -5.8754   19.7153  -35.1217 H   0  0  0  0  0  0  0  0  0  0  0  0
   -4.2334   16.4385  -34.3286 H   0  0  0  0  0  0  0  0  0  0  0  0
   -4.7421   17.5123  -35.6915 H   0  0  0  0  0  0  0  0  0  0  0  0
   -2.7000   18.2360  -35.3810 H   0  0  0  0  0  0  0  0  0  0  0  0
   -2.9524   17.3781  -32.5828 H   0  0  0  0  0  0  0  0  0  0  0  0
   -1.7936   16.8499  -33.8552 H   0  0  0  0  0  0  0  0  0  0  0  0
   -1.1105   18.5778  -31.9024 H   0  0  0  0  0  0  0  0  0  0  0  0
   -0.4461   18.6702  -33.6029 H   0  0  0  0  0  0  0  0  0  0  0  0
   -1.3500   20.8344  -32.3483 H   0  0  0  0  0  0  0  0  0  0  0  0
   -1.6127   20.5396  -34.1306 H   0  0  0  0  0  0  0  0  0  0  0  0
   -3.7820   19.5250  -33.4060 H   0  0  0  0  0  0  0  0  0  0  0  0
   -3.0616   22.0426  -34.1631 H   0  0  0  0  0  0  0  0  0  0  0  0
   -4.7275   21.2982  -34.1662 H   0  0  0  0  0  0  0  0  0  0  0  0
   -3.4961   22.9280  -31.8999 H   0  0  0  0  0  0  0  0  0  0  0  0
   -4.7514   23.4896  -33.0627 H   0  0  0  0  0  0  0  0  0  0  0  0
   -6.7704   22.4990  -30.1585 H   0  0  0  0  0  0  0  0  0  0  0  0
   -5.0479   23.0548  -29.8974 H   0  0  0  0  0  0  0  0  0  0  0  0
   -6.1684   24.3688  -32.2192 H   0  0  0  0  0  0  0  0  0  0  0  0
   -7.2478   24.5944  -30.7780 H   0  0  0  0  0  0  0  0  0  0  0  0
   -5.2961   26.3024  -31.2195 H   0  0  0  0  0  0  0  0  0  0  0  0
   -5.6152   25.6875  -29.5459 H   0  0  0  0  0  0  0  0  0  0  0  0
   -3.8410   24.0470  -31.0450 H   0  0  0  0  0  0  0  0  0  0  0  0
   -2.9029   25.3583  -28.6642 H   0  0  0  0  0  0  0  0  0  0  0  0
   -4.4484   24.4628  -28.4865 H   0  0  0  0  0  0  0  0  0  0  0  0
   -1.3877   23.9001  -30.6365 H   0  0  0  0  0  0  0  0  0  0  0  0
   -0.1747   21.7185  -30.6910 H   0  0  0  0  0  0  0  0  0  0  0  0
   -0.8905   19.8510  -29.1991 H   0  0  0  0  0  0  0  0  0  0  0  0
   -2.8293   20.1565  -27.6556 H   0  0  0  0  0  0  0  0  0  0  0  0
   -4.0486   22.3333  -27.5933 H   0  0  0  0  0  0  0  0  0  0  0  0
   -5.3134   20.5914  -30.1403 H   0  0  0  0  0  0  0  0  0  0  0  0
   -5.7816   19.9721  -31.7848 H   0  0  0  0  0  0  0  0  0  0  0  0
   -2.9950   20.8597  -30.9047 H   0  0  0  0  0  0  0  0  0  0  0  0
   -3.5650   19.1642  -31.1964 H   0  0  0  0  0  0  0  0  0  0  0  0
  1  2  1  0
  2  3  2  0
  3  4  1  0
  4  5  2  0
  5  6  1  0
  6  7  2  0
  7  8  1  0
  8  9  1  0
  9 10  1  0
 10 11  1  0
 11 12  1  0
 12 13  1  0
 13 14  1  0
 14 15  1  0
 15 16  1  0
 16 17  1  0
 17 18  1  0
 18 19  1  0
 19 20  1  0
 20 21  1  0
 21 22  1  0
 22 23  2  0
 23 24  1  0
 24 25  2  0
 25 26  1  0
 26 27  2  0
 16 28  1  0
 28 29  1  0
  7  2  1  0
 29 13  1  0
 27 22  1  0
  1 30  1  0
  1 31  1  0
  1 32  1  0
  3 33  1  0
  4 34  1  0
  5 35  1  0
  6 36  1  0
  8 37  1  0
  8 38  1  0
  9 39  1  0
 10 40  1  0
 10 41  1  0
 11 42  1  0
 11 43  1  0
 12 44  1  0
 12 45  1  0
 13 46  1  0
 14 47  1  0
 14 48  1  0
 15 49  1  0
 15 50  1  0
 17 51  1  0
 17 52  1  0
 18 53  1  0
 18 54  1  0
 19 55  1  0
 19 56  1  0
 20 57  1  0
 21 58  1  0
 21 59  1  0
 23 60  1  0
 24 61  1  0
 25 62  1  0
 26 63  1  0
 27 64  1  0
 28 65  1  0
 28 66  1  0
 29 67  1  0
 29 68  1  0
M  CHG  1  13   1
M  END
>  <UniqueID>  (32) 
32

>  <SMILES>  (32) 
Cc1ccccc1CNCCC[NH+]1CCN(CCCNCc2ccccc2)CC1

>  <Energy>  (32) 
79.20679286406347

>  <Genealogy>  (32) 
Cc1ccccc1CNCCC[NH+]1CCN(CCCNCc2ccccc2)CC1 (protonated)
Cc1ccccc1CNCCC[NH+]1CCN(CCCNCc2ccccc2)CC1 (3D coordinates assigned)
Cc1ccccc1CNCCC[NH+]1CCN(CCCNCc2ccccc2)CC1 (nonaromatic ring conformer: 79.20679286406347 kcal/mol)

>  <smiles>  (32) 
Cc1ccccc1CNCCCN1CCN(CCCNCc2ccccc2)CC1

>  <score_type>  (32) 
oracle

>  <origin>  (32) 
adg

>  <m_score__min__energy>  (32) 
-8.25

>  <m_primary>  (32) 
energy

$$$$
32:0
     RDKit          3D

 24 25  0  0  0  0  0  0  0  0999 V2000
   -7.7230   22.9000  -28.9560 H   0  0  0  0  0  0  0  0  0  0  0  0
   -7.6290   22.4550  -29.8950 N   0  0  0  0  0  0  0  0  0  0  0  0
   -6.7720   22.8580  -30.7800 C   0  0  0  0  0  0  0  0  0  0  0  0
   -6.1740   24.0960  -30.8250 C   0  0  0  0  0  0  0  0  0  0  0  0
   -6.3250   25.1750  -29.8880 C   0  0  0  0  0  0  0  0  0  0  0  0
   -6.4470   26.0440  -29.1340 N   0  0  0  0  0  0  0  0  0  0  0  0
   -5.4280   24.1540  -31.9470 N   0  0  0  0  0  0  0  0  0  0  0  0
   -5.5740   22.9820  -32.5540 N   0  0  0  0  0  0  0  0  0  0  0  0
   -5.0990   22.7300  -33.4500 H   0  0  0  0  0  0  0  0  0  0  0  0
   -6.3750   22.1730  -31.8720 N   0  0  0  0  0  0  0  0  0  0  0  0
   -6.7010   20.8310  -32.2700 C   0  0  0  0  0  0  0  0  0  0  0  0
   -7.8720   20.2240  -31.7910 C   0  0  0  0  0  0  0  0  0  0  0  0
   -8.5242   20.7680  -31.0920 H   0  0  0  0  0  0  0  0  0  0  0  0
   -8.2130   18.9320  -32.1980 C   0  0  0  0  0  0  0  0  0  0  0  0
   -9.1297   18.4602  -31.8145 H   0  0  0  0  0  0  0  0  0  0  0  0
   -7.3930   18.2370  -33.0910 C   0  0  0  0  0  0  0  0  0  0  0  0
   -7.6684   17.2214  -33.4116 H   0  0  0  0  0  0  0  0  0  0  0  0
   -6.2190   18.8310  -33.5800 C   0  0  0  0  0  0  0  0  0  0  0  0
   -5.3670   18.1080  -34.5790 C   0  0  0  0  0  0  0  0  0  0  0  0
   -4.6315   17.4839  -34.0502 H   0  0  0  0  0  0  0  0  0  0  0  0
   -6.0032   17.4699  -35.2100 H   0  0  0  0  0  0  0  0  0  0  0  0
   -4.8410   18.8396  -35.2100 H   0  0  0  0  0  0  0  0  0  0  0  0
   -5.8890   20.1360  -33.1820 C   0  0  0  0  0  0  0  0  0  0  0  0
   -4.9874   20.6185  -33.5874 H   0  0  0  0  0  0  0  0  0  0  0  0
  1  2  1  0
  2  3  2  0
  3  4  1  0
  4  5  1  0
  5  6  3  0
  4  7  2  0
  7  8  1  0
  8  9  1  0
  8 10  1  0
 10 11  1  0
 11 12  2  0
 12 13  1  0
 12 14  1  0
 14 15  1  0
 14 16  2  0
 16 17  1  0
 16 18  1  0
 18 19  1  0
 19 20  1  0
 19 21  1  0
 19 22  1  0
 18 23  2  0
 23 24  1  0
 10  3  1  0
 23 11  1  0
M  END
>  <UniqueID>  (33) 
33

>  <SMILES>  (33) 
[H]/N=c1/c(C#N)n[nH]n1-c1cccc(C)c1

>  <Energy>  (33) 
67.21691617206893

>  <Genealogy>  (33) 
[H]/N=c1/c(C#N)n[nH]n1-c1cccc(C)c1 (cis-trans isomerization)
[H]/N=c1/c(C#N)n[nH]n1-c1cccc(C)c1 (3D coordinates assigned)
[H]/N=c1/c(C#N)n[nH]n1-c1cccc(C)c1 (optimized conformer: 67.21691617206893 kcal/mol)

>  <smiles>  (33) 
Cc1cccc(-n2[nH]nc(C#N)c2=N)c1

>  <score_type>  (33) 
oracle

>  <origin>  (33) 
adg

>  <m_score__min__energy>  (33) 
-6.1600000000000001

>  <m_primary>  (33) 
energy

$$$$
33:0
     RDKit          3D

 31 32  0  0  0  0  0  0  0  0999 V2000
   -2.9470   23.4190  -30.0730 C   0  0  0  0  0  0  0  0  0  0  0  0
   -3.4450   24.5380  -29.2560 N   0  0  0  0  0  0  0  0  0  0  0  0
   -2.8010   24.5500  -27.9330 C   0  0  0  0  0  0  0  0  0  0  0  0
   -4.9220   24.5500  -29.1630 C   0  0  0  0  0  0  0  0  0  0  0  0
   -5.6010   23.9930  -30.3820 C   0  0  0  0  0  0  0  0  0  0  0  0
   -6.5170   22.9990  -30.3500 N   0  0  0  0  0  0  0  0  0  0  0  0
   -6.8120   22.8590  -31.6610 C   0  0  0  0  0  0  0  0  0  0  0  0
   -7.7280   21.7950  -32.2110 C   0  0  1  0  0  0  0  0  0  0  0  0
   -6.9830   20.5630  -32.7030 C   0  0  0  0  0  0  0  0  0  0  0  0
   -7.9980   19.4460  -32.5770 C   0  0  0  0  0  0  0  0  0  0  0  0
   -9.0810   19.9850  -31.6460 C   0  0  0  0  0  0  0  0  0  0  0  0
   -8.6890   21.3270  -31.2100 N   0  0  0  0  0  0  0  0  0  0  0  0
   -6.0890   23.7000  -32.4230 N   0  0  0  0  0  0  0  0  0  0  0  0
   -5.3570   24.3910  -31.6080 O   0  0  0  0  0  0  0  0  0  0  0  0
   -2.5890   22.6145  -29.4137 H   0  0  0  0  0  0  0  0  0  0  0  0
   -3.7605   23.0380  -30.7079 H   0  0  0  0  0  0  0  0  0  0  0  0
   -2.1194   23.7684  -30.7079 H   0  0  0  0  0  0  0  0  0  0  0  0
   -3.5728   24.5356  -27.1494 H   0  0  0  0  0  0  0  0  0  0  0  0
   -2.1576   23.6637  -27.8303 H   0  0  0  0  0  0  0  0  0  0  0  0
   -2.1911   25.4597  -27.8303 H   0  0  0  0  0  0  0  0  0  0  0  0
   -5.2214   23.9489  -28.2918 H   0  0  0  0  0  0  0  0  0  0  0  0
   -5.2330   25.6010  -29.0697 H   0  0  0  0  0  0  0  0  0  0  0  0
   -8.2394   22.2864  -33.0518 H   0  0  0  0  0  0  0  0  0  0  0  0
   -6.6678   20.6887  -33.7494 H   0  0  0  0  0  0  0  0  0  0  0  0
   -6.0646   20.3669  -32.1302 H   0  0  0  0  0  0  0  0  0  0  0  0
   -8.4238   19.2002  -33.5610 H   0  0  0  0  0  0  0  0  0  0  0  0
   -7.5444   18.5235  -32.1857 H   0  0  0  0  0  0  0  0  0  0  0  0
  -10.0407   20.0337  -32.1813 H   0  0  0  0  0  0  0  0  0  0  0  0
   -9.1951   19.3227  -30.7752 H   0  0  0  0  0  0  0  0  0  0  0  0
   -8.1950   21.2220  -30.2910 H   0  0  0  0  0  0  0  0  0  0  0  0
   -6.0870   23.7860  -33.4640 H   0  0  0  0  0  0  0  0  0  0  0  0
  1  2  1  0
  2  3  1  0
  2  4  1  0
  4  5  1  0
  5  6  2  0
  6  7  1  0
  7  8  1  0
  8  9  1  0
  9 10  1  0
 10 11  1  0
 11 12  1  0
  7 13  2  0
 13 14  1  0
 14  5  1  0
 12  8  1  0
  1 15  1  0
  1 16  1  0
  1 17  1  0
  3 18  1  0
  3 19  1  0
  3 20  1  0
  4 21  1  0
  4 22  1  0
  8 23  1  6
  9 24  1  0
  9 25  1  0
 10 26  1  0
 10 27  1  0
 11 28  1  0
 11 29  1  0
 12 30  1  0
 13 31  1  0
M  CHG  1  13   1
M  END
>  <UniqueID>  (34) 
34

>  <SMILES>  (34) 
CN(C)Cc1nc([C@H]2CCCN2)[nH+]o1

>  <Energy>  (34) 
65.42955697707346

>  <Genealogy>  (34) 
CN(C)Cc1nc(C2CCCN2)[nH+]o1 (protonated)
CN(C)Cc1nc([C@H]2CCCN2)[nH+]o1 (chirality)
CN(C)Cc1nc([C@H]2CCCN2)[nH+]o1 (3D coordinates assigned)
CN(C)Cc1nc([C@H]2CCCN2)[nH+]o1 (nonaromatic ring conformer: 65.42955697707346 kcal/mol)

>  <smiles>  (34) 
CN(C)Cc1nc(C2CCCN2)no1

>  <score_type>  (34) 
oracle

>  <origin>  (34) 
adg

>  <m_score__min__energy>  (34) 
-5.46

>  <m_primary>  (34) 
energy

$$$$
34:0
     RDKit          3D

 52 53  0  0  0  0  0  0  0  0999 V2000
   -9.9775   21.8498  -30.5534 H   0  0  0  0  0  0  0  0  0  0  0  0
   -9.1040   21.6060  -31.1760 C   0  0  0  0  0  0  0  0  0  0  0  0
   -9.1930   20.5350  -31.9770 C   0  0  0  0  0  0  0  0  0  0  0  0
   -9.9108   20.5863  -32.8090 H   0  0  0  0  0  0  0  0  0  0  0  0
   -8.3900   19.2630  -31.8330 C   0  0  0  0  0  0  0  0  0  0  0  0
   -9.0868   18.4303  -31.6563 H   0  0  0  0  0  0  0  0  0  0  0  0
   -7.6957   19.4139  -30.9933 H   0  0  0  0  0  0  0  0  0  0  0  0
   -7.5630   18.9390  -33.0300 N   0  0  2  0  0  0  0  0  0  0  0  0
   -8.1750   18.5740  -33.7970 H   0  0  0  0  0  0  0  0  0  0  0  0
   -6.5300   17.9060  -32.7330 C   0  0  0  0  0  0  0  0  0  0  0  0
   -6.7841   17.4259  -31.7765 H   0  0  0  0  0  0  0  0  0  0  0  0
   -5.5595   18.4227  -32.6988 H   0  0  0  0  0  0  0  0  0  0  0  0
   -6.4200   16.8170  -33.8070 C   0  0  0  0  0  0  0  0  0  0  0  0
   -6.3207   15.8339  -33.3236 H   0  0  0  0  0  0  0  0  0  0  0  0
   -7.3238   16.8277  -34.4339 H   0  0  0  0  0  0  0  0  0  0  0  0
   -5.5366   17.0082  -34.4339 H   0  0  0  0  0  0  0  0  0  0  0  0
   -6.8870   20.1790  -33.5120 C   0  0  0  0  0  0  0  0  0  0  0  0
   -7.0075   20.2426  -34.6035 H   0  0  0  0  0  0  0  0  0  0  0  0
   -7.3554   21.0311  -32.9976 H   0  0  0  0  0  0  0  0  0  0  0  0
   -5.3820   20.2100  -33.1810 C   0  0  0  0  0  0  0  0  0  0  0  0
   -5.1756   19.4910  -32.3745 H   0  0  0  0  0  0  0  0  0  0  0  0
   -4.8170   19.9436  -34.0864 H   0  0  0  0  0  0  0  0  0  0  0  0
   -4.9690   21.5520  -32.7470 N   0  0  0  0  0  0  0  0  0  0  0  0
   -4.9350   22.1660  -33.5950 H   0  0  0  0  0  0  0  0  0  0  0  0
   -3.6150   21.5110  -32.1800 C   0  0  0  0  0  0  0  0  0  0  0  0
   -2.9612   20.9321  -32.8489 H   0  0  0  0  0  0  0  0  0  0  0  0
   -3.2434   22.5414  -32.0793 H   0  0  0  0  0  0  0  0  0  0  0  0
   -3.6250   20.8540  -30.7940 C   0  0  0  0  0  0  0  0  0  0  0  0
   -4.6608   20.5929  -30.5314 H   0  0  0  0  0  0  0  0  0  0  0  0
   -2.9893   19.9573  -30.8366 H   0  0  0  0  0  0  0  0  0  0  0  0
   -3.0700   21.7710  -29.7350 C   0  0  0  0  0  0  0  0  0  0  0  0
   -2.8460   21.2990  -28.4310 C   0  0  0  0  0  0  0  0  0  0  0  0
   -3.0555   20.2474  -28.1856 H   0  0  0  0  0  0  0  0  0  0  0  0
   -2.3580   22.1600  -27.4440 C   0  0  0  0  0  0  0  0  0  0  0  0
   -2.1798   21.7836  -26.4259 H   0  0  0  0  0  0  0  0  0  0  0  0
   -2.0960   23.4990  -27.7490 C   0  0  0  0  0  0  0  0  0  0  0  0
   -1.7113   24.1751  -26.9712 H   0  0  0  0  0  0  0  0  0  0  0  0
   -2.3230   23.9790  -29.0430 C   0  0  0  0  0  0  0  0  0  0  0  0
   -2.0740   25.2790  -29.3360 F   0  0  0  0  0  0  0  0  0  0  0  0
   -2.8120   23.1200  -30.0320 C   0  0  0  0  0  0  0  0  0  0  0  0
   -2.9956   23.5020  -31.0471 H   0  0  0  0  0  0  0  0  0  0  0  0
   -7.9240   22.4810  -31.0670 C   0  0  0  0  0  0  0  0  0  0  0  0
   -7.5310   23.2470  -32.1760 C   0  0  0  0  0  0  0  0  0  0  0  0
   -8.0637   23.1408  -33.1325 H   0  0  0  0  0  0  0  0  0  0  0  0
   -6.4650   24.1440  -32.0680 C   0  0  0  0  0  0  0  0  0  0  0  0
   -6.1520   24.7324  -32.9431 H   0  0  0  0  0  0  0  0  0  0  0  0
   -5.7960   24.2950  -30.8510 C   0  0  0  0  0  0  0  0  0  0  0  0
   -4.9562   25.0007  -30.7689 H   0  0  0  0  0  0  0  0  0  0  0  0
   -6.1940   23.5490  -29.7370 C   0  0  0  0  0  0  0  0  0  0  0  0
   -5.6678   23.6690  -28.7785 H   0  0  0  0  0  0  0  0  0  0  0  0
   -7.2600   22.6510  -29.8410 C   0  0  0  0  0  0  0  0  0  0  0  0
   -7.5800   22.0755  -28.9598 H   0  0  0  0  0  0  0  0  0  0  0  0
  1  2  1  0
  2  3  2  0
  3  4  1  0
  3  5  1  0
  5  6  1  0
  5  7  1  0
  5  8  1  0
  8  9  1  6
  8 10  1  0
 10 11  1  0
 10 12  1  0
 10 13  1  0
 13 14  1  0
 13 15  1  0
 13 16  1  0
  8 17  1  0
 17 18  1  0
 17 19  1  0
 17 20  1  0
 20 21  1  0
 20 22  1  0
 20 23  1  0
 23 24  1  0
 23 25  1  0
 25 26  1  0
 25 27  1  0
 25 28  1  0
 28 29  1  0
 28 30  1  0
 28 31  1  0
 31 32  2  0
 32 33  1  0
 32 34  1  0
 34 35  1  0
 34 36  2  0
 36 37  1  0
 36 38  1  0
 38 39  1  0
 38 40  2  0
 40 41  1  0
  2 42  1  0
 42 43  2  0
 43 44  1  0
 43 45  1  0
 45 46  1  0
 45 47  2  0
 47 48  1  0
 47 49  1  0
 49 50  1  0
 49 51  2  0
 51 52  1  0
 40 31  1  0
 51 42  1  0
M  CHG  1   8   1
M  END
>  <UniqueID>  (35) 
35

>  <SMILES>  (35) 
CC[N@@H+](C/C=C\c1ccccc1)CCNCCc1cccc(F)c1

>  <Energy>  (35) 
53.992394354813506

>  <Genealogy>  (35) 
CC[NH+](CC=Cc1ccccc1)CCNCCc1cccc(F)c1 (protonated)
CC[N@@H+](CC=Cc1ccccc1)CCNCCc1cccc(F)c1 (chirality)
CC[N@@H+](C/C=C\c1ccccc1)CCNCCc1cccc(F)c1 (cis-trans isomerization)
CC[N@@H+](C/C=C\c1ccccc1)CCNCCc1cccc(F)c1 (3D coordinates assigned)
CC[N@@H+](C/C=C\c1ccccc1)CCNCCc1cccc(F)c1 (optimized conformer: 53.992394354813506 kcal/mol)

>  <smiles>  (35) 
CCN(CC=Cc1ccccc1)CCNCCc1cccc(F)c1

>  <score_type>  (35) 
oracle

>  <origin>  (35) 
adg

>  <m_score__min__energy>  (35) 
-7.3600000000000003

>  <m_primary>  (35) 
energy

$$$$
35:0
     RDKit          3D

 28 29  0  0  0  0  0  0  0  0999 V2000
   -6.1750   17.7060  -33.7670 C   0  0  0  0  0  0  0  0  0  0  0  0
   -7.0750   18.6600  -33.0360 C   0  0  0  0  0  0  0  0  0  0  0  0
   -8.1880   18.1830  -32.3330 C   0  0  0  0  0  0  0  0  0  0  0  0
   -9.0030   19.0670  -31.6240 C   0  0  0  0  0  0  0  0  0  0  0  0
   -8.7060   20.4320  -31.5990 C   0  0  0  0  0  0  0  0  0  0  0  0
   -7.5760   20.9270  -32.2800 C   0  0  0  0  0  0  0  0  0  0  0  0
   -7.2320   22.3250  -32.2650 N   0  0  0  0  0  0  0  0  0  0  0  0
   -7.5230   23.2330  -31.1550 C   0  0  0  0  0  0  0  0  0  0  0  0
   -6.3520   24.0510  -30.8430 N   0  0  0  0  0  0  0  0  0  0  0  0
   -6.2890   25.1460  -30.0660 C   0  0  0  0  0  0  0  0  0  0  0  0
   -7.3630   25.6760  -29.3580 O   0  0  0  0  0  0  0  0  0  0  0  0
   -5.0040   25.6490  -30.0930 C   0  0  0  0  0  0  0  0  0  0  0  0
   -4.2940   24.8780  -30.8900 O   0  0  0  0  0  0  0  0  0  0  0  0
   -5.1000   23.9380  -31.3360 C   0  0  0  0  0  0  0  0  0  0  0  0
   -4.7400   23.0380  -32.1400 O   0  0  0  0  0  0  0  0  0  0  0  0
   -6.7660   20.0290  -32.9950 C   0  0  0  0  0  0  0  0  0  0  0  0
   -5.6087   17.1058  -33.0396 H   0  0  0  0  0  0  0  0  0  0  0  0
   -6.7818   17.0403  -34.3985 H   0  0  0  0  0  0  0  0  0  0  0  0
   -5.4752   18.2730  -34.3985 H   0  0  0  0  0  0  0  0  0  0  0  0
   -8.4209   17.1080  -32.3395 H   0  0  0  0  0  0  0  0  0  0  0  0
   -9.8824   18.6876  -31.0829 H   0  0  0  0  0  0  0  0  0  0  0  0
   -9.3575   21.1237  -31.0449 H   0  0  0  0  0  0  0  0  0  0  0  0
   -6.7040   22.7190  -33.0770 H   0  0  0  0  0  0  0  0  0  0  0  0
   -8.3597   23.8901  -31.4345 H   0  0  0  0  0  0  0  0  0  0  0  0
   -7.7882   22.6381  -30.2685 H   0  0  0  0  0  0  0  0  0  0  0  0
   -7.2390   26.4770  -28.7490 H   0  0  0  0  0  0  0  0  0  0  0  0
   -4.6396   26.5325  -29.5483 H   0  0  0  0  0  0  0  0  0  0  0  0
   -5.8797   20.4026  -33.5287 H   0  0  0  0  0  0  0  0  0  0  0  0
  1  2  1  0
  2  3  2  0
  3  4  1  0
  4  5  2  0
  5  6  1  0
  6  7  1  0
  7  8  1  0
  8  9  1  0
  9 10  1  0
 10 11  1  0
 10 12  2  0
 12 13  1  0
 13 14  1  0
 14 15  2  0
  6 16  2  0
 16  2  1  0
 14  9  1  0
  1 17  1  0
  1 18  1  0
  1 19  1  0
  3 20  1  0
  4 21  1  0
  5 22  1  0
  7 23  1  0
  8 24  1  0
  8 25  1  0
 11 26  1  0
 12 27  1  0
 16 28  1  0
M  END
>  <UniqueID>  (36) 
36

>  <SMILES>  (36) 
Cc1cccc(NCn2c(O)coc2=O)c1

>  <Energy>  (36) 
60.09268613987658

>  <Genealogy>  (36) 
Cc1cccc(NCn2c(O)coc2=O)c1 (3D coordinates assigned)
Cc1cccc(NCn2c(O)coc2=O)c1 (optimized conformer: 60.09268613987658 kcal/mol)

>  <smiles>  (36) 
Cc1cccc(NCn2c(O)coc2=O)c1

>  <score_type>  (36) 
oracle

>  <origin>  (36) 
adg

>  <m_score__min__energy>  (36) 
-7.3700000000000001

>  <m_primary>  (36) 
energy

$$$$
36:0
     RDKit          3D

 48 49  0  0  0  0  0  0  0  0999 V2000
   -0.9740   21.6030  -29.3960 C   0  0  0  0  0  0  0  0  0  0  0  0
   -1.6100   22.5730  -30.3860 C   0  0  0  0  0  0  0  0  0  0  0  0
   -2.9170   23.0350  -29.9000 N   0  0  0  0  0  0  0  0  0  0  0  0
   -3.0150   23.7460  -28.6200 C   0  0  0  0  0  0  0  0  0  0  0  0
   -4.0850   23.1200  -27.7290 C   0  0  0  0  0  0  0  0  0  0  0  0
   -4.1140   22.5190  -30.5070 C   0  0  0  0  0  0  0  0  0  0  0  0
   -4.2140   21.1380  -30.7220 C   0  0  0  0  0  0  0  0  0  0  0  0
   -5.3420   20.5880  -31.3280 C   0  0  0  0  0  0  0  0  0  0  0  0
   -6.4020   21.4120  -31.7380 C   0  0  0  0  0  0  0  0  0  0  0  0
   -7.6130   20.8510  -32.3950 C   0  0  0  0  0  0  0  0  0  0  0  0
   -8.7040   21.4810  -32.2930 O   0  0  0  0  0  0  0  0  0  0  0  0
   -7.5700   19.6220  -33.1660 N   0  0  0  0  0  0  0  0  0  0  0  0
   -6.4830   19.6630  -34.1850 C   0  0  0  0  0  0  0  0  0  0  0  0
   -5.2110   18.9320  -33.7190 C   0  0  0  0  0  0  0  0  0  0  0  0
   -5.4700   17.5100  -33.3760 N   0  0  0  0  0  0  0  0  0  0  0  0
   -5.0830   16.6130  -34.4750 C   0  0  0  0  0  0  0  0  0  0  0  0
   -6.8660   17.2440  -32.9570 C   0  0  0  0  0  0  0  0  0  0  0  0
   -7.4730   18.4600  -32.2480 C   0  0  0  0  0  0  0  0  0  0  0  0
   -6.2950   22.8000  -31.5450 C   0  0  0  0  0  0  0  0  0  0  0  0
   -5.1640   23.3720  -30.9280 C   0  0  0  0  0  0  0  0  0  0  0  0
   -5.0950   24.8050  -30.7700 N   0  0  0  0  0  0  0  0  0  0  0  0
   -6.1260   25.4580  -30.5060 O   0  0  0  0  0  0  0  0  0  0  0  0
   -3.8980   25.4790  -30.8440 O   0  0  0  0  0  0  0  0  0  0  0  0
   -1.1902   21.9328  -28.3691 H   0  0  0  0  0  0  0  0  0  0  0  0
   -1.3876   20.5958  -29.5524 H   0  0  0  0  0  0  0  0  0  0  0  0
    0.1146   21.5807  -29.5524 H   0  0  0  0  0  0  0  0  0  0  0  0
   -0.9469   23.4409  -30.5166 H   0  0  0  0  0  0  0  0  0  0  0  0
   -1.7548   22.0529  -31.3444 H   0  0  0  0  0  0  0  0  0  0  0  0
   -2.0440   23.6967  -28.1055 H   0  0  0  0  0  0  0  0  0  0  0  0
   -3.2918   24.7918  -28.8194 H   0  0  0  0  0  0  0  0  0  0  0  0
   -3.8195   23.2753  -26.6729 H   0  0  0  0  0  0  0  0  0  0  0  0
   -5.0567   23.5920  -27.9361 H   0  0  0  0  0  0  0  0  0  0  0  0
   -4.1497   22.0416  -27.9361 H   0  0  0  0  0  0  0  0  0  0  0  0
   -3.3910   20.4791  -30.4082 H   0  0  0  0  0  0  0  0  0  0  0  0
   -5.4022   19.5011  -31.4861 H   0  0  0  0  0  0  0  0  0  0  0  0
   -8.4630   19.5320  -33.7050 H   0  0  0  0  0  0  0  0  0  0  0  0
   -6.8460   19.1863  -35.1075 H   0  0  0  0  0  0  0  0  0  0  0  0
   -6.2204   20.7181  -34.3516 H   0  0  0  0  0  0  0  0  0  0  0  0
   -4.4652   18.9706  -34.5266 H   0  0  0  0  0  0  0  0  0  0  0  0
   -4.8476   19.4357  -32.8112 H   0  0  0  0  0  0  0  0  0  0  0  0
   -4.6794   15.6776  -34.0600 H   0  0  0  0  0  0  0  0  0  0  0  0
   -5.9647   16.3894  -35.0936 H   0  0  0  0  0  0  0  0  0  0  0  0
   -4.3154   17.1010  -35.0936 H   0  0  0  0  0  0  0  0  0  0  0  0
   -7.4691   17.0092  -33.8465 H   0  0  0  0  0  0  0  0  0  0  0  0
   -6.8638   16.3968  -32.2554 H   0  0  0  0  0  0  0  0  0  0  0  0
   -8.4801   18.2008  -31.8894 H   0  0  0  0  0  0  0  0  0  0  0  0
   -6.8207   18.7343  -31.4059 H   0  0  0  0  0  0  0  0  0  0  0  0
   -7.1120   23.4545  -31.8829 H   0  0  0  0  0  0  0  0  0  0  0  0
  1  2  1  0
  2  3  1  0
  3  4  1  0
  4  5  1  0
  3  6  1  0
  6  7  2  0
  7  8  1  0
  8  9  2  0
  9 10  1  0
 10 11  2  0
 10 12  1  0
 12 13  1  0
 13 14  1  0
 14 15  1  0
 15 16  1  0
 15 17  1  0
 17 18  1  0
  9 19  1  0
 19 20  2  0
 20 21  1  0
 21 22  2  0
 21 23  1  0
 20  6  1  0
 18 12  1  0
  1 24  1  0
  1 25  1  0
  1 26  1  0
  2 27  1  0
  2 28  1  0
  4 29  1  0
  4 30  1  0
  5 31  1  0
  5 32  1  0
  5 33  1  0
  7 34  1  0
  8 35  1  0
 12 36  1  0
 13 37  1  0
 13 38  1  0
 14 39  1  0
 14 40  1  0
 16 41  1  0
 16 42  1  0
 16 43  1  0
 17 44  1  0
 17 45  1  0
 18 46  1  0
 18 47  1  0
 19 48  1  0
M  CHG  3  12   1  21   1  23  -1
M  END
>  <UniqueID>  (37) 
37

>  <SMILES>  (37) 
CCN(CC)c1ccc(C(=O)[NH+]2CCN(C)CC2)cc1[N+](=O)[O-]

>  <Energy>  (37) 
66.02464128958648

>  <Genealogy>  (37) 
CCN(CC)c1ccc(C(=O)[NH+]2CCN(C)CC2)cc1[N+](=O)[O-] (protonated)
CCN(CC)c1ccc(C(=O)[NH+]2CCN(C)CC2)cc1[N+](=O)[O-] (3D coordinates assigned)
CCN(CC)c1ccc(C(=O)[NH+]2CCN(C)CC2)cc1[N+](=O)[O-] (nonaromatic ring conformer: 66.02464128958648 kcal/mol)

>  <smiles>  (37) 
CCN(CC)c1ccc(C(=O)N2CCN(C)CC2)cc1[N+](=O)[O-]

>  <score_type>  (37) 
oracle

>  <origin>  (37) 
adg

>  <m_score__min__energy>  (37) 
-7.4299999999999997

>  <m_primary>  (37) 
energy

$$$$
37:0
     RDKit          3D

 56 60  0  0  0  0  0  0  0  0999 V2000
   -6.1220   25.3190  -29.2450 C   0  0  0  0  0  0  0  0  0  0  0  0
   -6.5430   25.1460  -30.5850 O   0  0  0  0  0  0  0  0  0  0  0  0
   -6.6890   23.8910  -31.1430 C   0  0  0  0  0  0  0  0  0  0  0  0
   -7.9160   23.3120  -31.4170 C   0  0  0  0  0  0  0  0  0  0  0  0
   -8.0160   22.0590  -31.9740 C   0  0  0  0  0  0  0  0  0  0  0  0
   -9.0390   21.2730  -32.3390 N   0  0  0  0  0  0  0  0  0  0  0  0
   -8.5920   20.1210  -32.8440 N   0  0  0  0  0  0  0  0  0  0  0  0
   -7.2360   20.1070  -32.8300 C   0  0  0  0  0  0  0  0  0  0  0  0
   -6.4530   18.9950  -33.3160 C   0  0  0  0  0  0  0  0  0  0  0  0
   -6.4670   17.7820  -32.6890 N   0  0  0  0  0  0  0  0  0  0  0  0
   -5.6740   16.9090  -33.3100 C   0  0  0  0  0  0  0  0  0  0  0  0
   -5.3650   15.5660  -33.0520 C   0  0  0  0  0  0  0  0  0  0  0  0
   -4.4940   14.8580  -33.8630 C   0  0  0  0  0  0  0  0  0  0  0  0
   -4.2120   13.4970  -33.5850 N   0  0  0  0  0  0  0  0  0  0  0  0
   -3.5530   12.6680  -34.5660 C   0  0  0  0  0  0  0  0  0  0  0  0
   -2.0520   12.6420  -34.3510 C   0  0  0  0  0  0  0  0  0  0  0  0
   -1.6460   13.0390  -32.9540 C   0  0  0  0  0  0  0  0  0  0  0  0
   -2.3280   12.3690  -31.9030 N   0  0  0  0  0  0  0  0  0  0  0  0
   -1.3640   12.0790  -30.8390 C   0  0  0  0  0  0  0  0  0  0  0  0
   -3.4430   13.1040  -31.3280 C   0  0  0  0  0  0  0  0  0  0  0  0
   -4.6220   13.0060  -32.2670 C   0  0  0  0  0  0  0  0  0  0  0  0
   -3.9570   15.5550  -34.9290 C   0  0  0  0  0  0  0  0  0  0  0  0
   -4.2630   16.8830  -35.1860 C   0  0  0  0  0  0  0  0  0  0  0  0
   -5.1270   17.5670  -34.3710 C   0  0  0  0  0  0  0  0  0  0  0  0
   -5.6230   18.8280  -34.3410 N   0  0  0  0  0  0  0  0  0  0  0  0
   -6.8800   21.3120  -32.2890 C   0  0  0  0  0  0  0  0  0  0  0  0
   -5.6720   21.8920  -32.0150 C   0  0  0  0  0  0  0  0  0  0  0  0
   -5.5740   23.1480  -31.4560 C   0  0  0  0  0  0  0  0  0  0  0  0
   -4.3350   23.6730  -31.2050 O   0  0  0  0  0  0  0  0  0  0  0  0
   -3.2680   23.0160  -30.5930 C   0  0  0  0  0  0  0  0  0  0  0  0
   -6.9212   24.9906  -28.5643 H   0  0  0  0  0  0  0  0  0  0  0  0
   -5.2174   24.7197  -29.0646 H   0  0  0  0  0  0  0  0  0  0  0  0
   -5.9001   26.3812  -29.0646 H   0  0  0  0  0  0  0  0  0  0  0  0
   -8.8352   23.8690  -31.1830 H   0  0  0  0  0  0  0  0  0  0  0  0
   -9.2630   19.3950  -33.1760 H   0  0  0  0  0  0  0  0  0  0  0  0
   -5.8240   15.0643  -32.1874 H   0  0  0  0  0  0  0  0  0  0  0  0
   -3.9434   11.6426  -34.4881 H   0  0  0  0  0  0  0  0  0  0  0  0
   -3.7524   13.0873  -35.5632 H   0  0  0  0  0  0  0  0  0  0  0  0
   -1.6886   11.6219  -34.5443 H   0  0  0  0  0  0  0  0  0  0  0  0
   -1.6097   13.3754  -35.0413 H   0  0  0  0  0  0  0  0  0  0  0  0
   -0.5706   12.8357  -32.8434 H   0  0  0  0  0  0  0  0  0  0  0  0
   -1.9100   14.1022  -32.8545 H   0  0  0  0  0  0  0  0  0  0  0  0
   -1.8441   12.2234  -29.8599 H   0  0  0  0  0  0  0  0  0  0  0  0
   -1.0207   11.0378  -30.9290 H   0  0  0  0  0  0  0  0  0  0  0  0
   -0.5032   12.7580  -30.9290 H   0  0  0  0  0  0  0  0  0  0  0  0
   -3.7091   12.6700  -30.3529 H   0  0  0  0  0  0  0  0  0  0  0  0
   -3.1637   14.1583  -31.1852 H   0  0  0  0  0  0  0  0  0  0  0  0
   -4.9463   11.9579  -32.3464 H   0  0  0  0  0  0  0  0  0  0  0  0
   -5.4582   13.6098  -31.8845 H   0  0  0  0  0  0  0  0  0  0  0  0
   -3.2584   15.0351  -35.6010 H   0  0  0  0  0  0  0  0  0  0  0  0
   -3.8092   17.3908  -36.0498 H   0  0  0  0  0  0  0  0  0  0  0  0
   -5.3570   19.5230  -35.0460 H   0  0  0  0  0  0  0  0  0  0  0  0
   -4.7501   21.3389  -32.2480 H   0  0  0  0  0  0  0  0  0  0  0  0
   -3.3750   23.0819  -29.5002 H   0  0  0  0  0  0  0  0  0  0  0  0
   -3.2646   21.9591  -30.8980 H   0  0  0  0  0  0  0  0  0  0  0  0
   -2.3228   23.4887  -30.8980 H   0  0  0  0  0  0  0  0  0  0  0  0
  1  2  1  0
  2  3  1  0
  3  4  2  0
  4  5  1  0
  5  6  2  0
  6  7  1  0
  7  8  1  0
  8  9  1  0
  9 10  2  0
 10 11  1  0
 11 12  2  0
 12 13  1  0
 13 14  1  0
 14 15  1  0
 15 16  1  0
 16 17  1  0
 17 18  1  0
 18 19  1  0
 18 20  1  0
 20 21  1  0
 13 22  2  0
 22 23  1  0
 23 24  2  0
 24 25  1  0
  8 26  2  0
 26 27  1  0
 27 28  2  0
 28 29  1  0
 29 30  1  0
 28  3  1  0
 26  5  1  0
 25  9  1  0
 24 11  1  0
 21 14  1  0
  1 31  1  0
  1 32  1  0
  1 33  1  0
  4 34  1  0
  7 35  1  0
 12 36  1  0
 15 37  1  0
 15 38  1  0
 16 39  1  0
 16 40  1  0
 17 41  1  0
 17 42  1  0
 19 43  1  0
 19 44  1  0
 19 45  1  0
 20 46  1  0
 20 47  1  0
 21 48  1  0
 21 49  1  0
 22 50  1  0
 23 51  1  0
 25 52  1  0
 27 53  1  0
 30 54  1  0
 30 55  1  0
 30 56  1  0
M  END
>  <smiles>  (38) 
COc1cc2n[nH]c(-c3nc4cc(N5CCCN(C)CC5)ccc4[nH]3)c2cc1OC

>  <score_type>  (38) 
oracle

>  <origin>  (38) 
adg

>  <m_score__min__energy>  (38) 
-6.8799999999999999

>  <m_primary>  (38) 
energy

$$$$
38:0
     RDKit          3D

 43 44  0  0  0  0  0  0  0  0999 V2000
   -9.3930   21.2460  -31.9590 C   0  0  0  0  0  0  0  0  0  0  0  0
   -8.1040   21.8070  -31.3660 C   0  0  0  0  0  0  0  0  0  0  0  0
   -7.9290   23.2870  -31.7190 C   0  0  0  0  0  0  0  0  0  0  0  0
   -6.6290   23.5130  -32.3480 N   0  0  0  0  0  0  0  0  0  0  0  0
   -5.4100   23.6040  -31.5960 C   0  0  0  0  0  0  0  0  0  0  0  0
   -4.7080   22.4500  -31.2480 C   0  0  0  0  0  0  0  0  0  0  0  0
   -3.5240   22.5600  -30.5210 C   0  0  0  0  0  0  0  0  0  0  0  0
   -3.0540   23.8320  -30.1510 C   0  0  0  0  0  0  0  0  0  0  0  0
   -1.8340   24.0040  -29.3890 N   0  0  0  0  0  0  0  0  0  0  0  0
   -1.8460   24.8960  -28.2160 C   0  0  0  0  0  0  0  0  0  0  0  0
   -2.2960   24.1400  -26.9580 C   0  0  0  0  0  0  0  0  0  0  0  0
   -1.3410   23.0020  -26.5720 C   0  0  0  0  0  0  0  0  0  0  0  0
   -1.3960   21.9040  -27.5550 N   0  0  0  0  0  0  0  0  0  0  0  0
   -2.2110   20.7320  -27.3180 C   0  0  0  0  0  0  0  0  0  0  0  0
   -1.6410   19.4580  -26.7670 C   0  0  0  0  0  0  0  0  0  0  0  0
   -3.4470   20.7690  -27.5670 O   0  0  0  0  0  0  0  0  0  0  0  0
   -0.5280   21.9010  -28.7540 C   0  0  0  0  0  0  0  0  0  0  0  0
   -0.6690   23.1360  -29.6730 C   0  0  0  0  0  0  0  0  0  0  0  0
   -3.7820   24.9230  -30.5250 N   0  0  0  0  0  0  0  0  0  0  0  0
   -4.9140   24.8150  -31.2210 N   0  0  0  0  0  0  0  0  0  0  0  0
  -10.0724   20.9503  -31.1460 H   0  0  0  0  0  0  0  0  0  0  0  0
   -9.8764   22.0151  -32.5793 H   0  0  0  0  0  0  0  0  0  0  0  0
   -9.1596   20.3681  -32.5793 H   0  0  0  0  0  0  0  0  0  0  0  0
   -8.1367   21.7008  -30.2716 H   0  0  0  0  0  0  0  0  0  0  0  0
   -7.2554   21.2466  -31.7853 H   0  0  0  0  0  0  0  0  0  0  0  0
   -8.7253   23.5898  -32.4148 H   0  0  0  0  0  0  0  0  0  0  0  0
   -7.9857   23.8821  -30.7956 H   0  0  0  0  0  0  0  0  0  0  0  0
   -6.6020   23.6600  -33.3820 H   0  0  0  0  0  0  0  0  0  0  0  0
   -5.0860   21.4606  -31.5451 H   0  0  0  0  0  0  0  0  0  0  0  0
   -2.9614   21.6579  -30.2388 H   0  0  0  0  0  0  0  0  0  0  0  0
   -0.8328   25.2927  -28.0547 H   0  0  0  0  0  0  0  0  0  0  0  0
   -2.5539   25.7164  -28.4053 H   0  0  0  0  0  0  0  0  0  0  0  0
   -2.3502   24.8519  -26.1212 H   0  0  0  0  0  0  0  0  0  0  0  0
   -3.2756   23.6895  -27.1760 H   0  0  0  0  0  0  0  0  0  0  0  0
   -0.3142   23.3942  -26.5290 H   0  0  0  0  0  0  0  0  0  0  0  0
   -1.6466   22.6078  -25.5916 H   0  0  0  0  0  0  0  0  0  0  0  0
   -1.6572   19.4943  -25.6677 H   0  0  0  0  0  0  0  0  0  0  0  0
   -2.2438   18.6061  -27.1147 H   0  0  0  0  0  0  0  0  0  0  0  0
   -0.6041   19.3397  -27.1147 H   0  0  0  0  0  0  0  0  0  0  0  0
    0.5176   21.8456  -28.4168 H   0  0  0  0  0  0  0  0  0  0  0  0
   -0.8426   21.0357  -29.3559 H   0  0  0  0  0  0  0  0  0  0  0  0
    0.2417   23.7439  -29.5680 H   0  0  0  0  0  0  0  0  0  0  0  0
   -0.8213   22.7440  -30.6894 H   0  0  0  0  0  0  0  0  0  0  0  0
  1  2  1  0
  2  3  1  0
  3  4  1  0
  4  5  1  0
  5  6  2  0
  6  7  1  0
  7  8  2  0
  8  9  1  0
  9 10  1  0
 10 11  1  0
 11 12  1  0
 12 13  1  0
 13 14  1  0
 14 15  1  0
 14 16  2  0
 13 17  1  0
 17 18  1  0
  8 19  1  0
 19 20  2  0
 20  5  1  0
 18  9  1  0
  1 21  1  0
  1 22  1  0
  1 23  1  0
  2 24  1  0
  2 25  1  0
  3 26  1  0
  3 27  1  0
  4 28  1  0
  6 29  1  0
  7 30  1  0
 10 31  1  0
 10 32  1  0
 11 33  1  0
 11 34  1  0
 12 35  1  0
 12 36  1  0
 15 37  1  0
 15 38  1  0
 15 39  1  0
 17 40  1  0
 17 41  1  0
 18 42  1  0
 18 43  1  0
M  END
>  <UniqueID>  (39) 
38

>  <SMILES>  (39) 
CCCNc1ccc(N2CCCN(C(C)=O)CC2)nn1

>  <Energy>  (39) 
41.881733856848896

>  <Genealogy>  (39) 
CCCNc1ccc(N2CCCN(C(C)=O)CC2)nn1 (3D coordinates assigned)
CCCNc1ccc(N2CCCN(C(C)=O)CC2)nn1 (nonaromatic ring conformer: 41.881733856848896 kcal/mol)

>  <smiles>  (39) 
CCCNc1ccc(N2CCCN(C(C)=O)CC2)nn1

>  <score_type>  (39) 
oracle

>  <origin>  (39) 
adg

>  <m_score__min__energy>  (39) 
-6.2000000000000002

>  <m_primary>  (39) 
energy

$$$$
39:0
     RDKit          3D

 49 52  0  0  0  0  0  0  0  0999 V2000
   -4.1710   23.6090  -30.8530 H   0  0  0  0  0  0  0  0  0  0  0  0
   -3.8490   24.5470  -30.8280 O   0  0  0  0  0  0  0  0  0  0  0  0
   -4.9880   25.3580  -30.7260 C   0  0  0  0  0  0  0  0  0  0  0  0
   -4.8373   26.2723  -31.3188 H   0  0  0  0  0  0  0  0  0  0  0  0
   -5.1501   25.6178  -29.6695 H   0  0  0  0  0  0  0  0  0  0  0  0
   -6.2170   24.6120  -31.2510 C   0  0  0  0  0  0  0  0  0  0  0  0
   -5.8857   23.7740  -31.8819 H   0  0  0  0  0  0  0  0  0  0  0  0
   -6.8301   25.3163  -31.8324 H   0  0  0  0  0  0  0  0  0  0  0  0
   -7.0670   24.0650  -30.0990 C   0  0  0  0  0  0  0  0  0  0  0  0
   -8.1282   24.2699  -30.3039 H   0  0  0  0  0  0  0  0  0  0  0  0
   -6.7575   24.5574  -29.1653 H   0  0  0  0  0  0  0  0  0  0  0  0
   -6.8750   22.6230  -29.9570 N   0  0  0  0  0  0  0  0  0  0  0  0
   -6.4960   21.8280  -30.9140 C   0  0  0  0  0  0  0  0  0  0  0  0
   -5.1850   21.7560  -31.2990 N   0  0  0  0  0  0  0  0  0  0  0  0
   -4.7460   20.9320  -32.3060 C   0  0  0  0  0  0  0  0  0  0  0  0
   -3.3040   20.9340  -32.6620 C   0  0  0  0  0  0  0  0  0  0  0  0
   -2.3480   21.5740  -31.8530 C   0  0  0  0  0  0  0  0  0  0  0  0
   -2.6665   22.0808  -30.9301 H   0  0  0  0  0  0  0  0  0  0  0  0
   -0.9970   21.5720  -32.2110 C   0  0  0  0  0  0  0  0  0  0  0  0
   -0.2623   22.0785  -31.5678 H   0  0  0  0  0  0  0  0  0  0  0  0
   -0.5680   20.9290  -33.3850 C   0  0  0  0  0  0  0  0  0  0  0  0
    0.8680   20.9400  -33.7540 C   0  0  0  0  0  0  0  0  0  0  0  0
    1.3480   21.9440  -34.3490 O   0  0  0  0  0  0  0  0  0  0  0  0
    1.7240   19.8320  -33.4360 N   0  0  0  0  0  0  0  0  0  0  0  0
    1.4120   19.1150  -32.7430 H   0  0  0  0  0  0  0  0  0  0  0  0
    3.1070   19.7840  -33.9000 C   0  0  0  0  0  0  0  0  0  0  0  0
    3.5560   20.3453  -33.0673 H   0  0  0  0  0  0  0  0  0  0  0  0
    3.4610   18.5120  -34.6500 C   0  0  0  0  0  0  0  0  0  0  0  0
    4.4744   18.0914  -34.5717 H   0  0  0  0  0  0  0  0  0  0  0  0
    3.0428   17.4957  -34.6982 H   0  0  0  0  0  0  0  0  0  0  0  0
    3.2320   19.8060  -35.4150 C   0  0  0  0  0  0  0  0  0  0  0  0
    4.0796   20.3219  -35.8897 H   0  0  0  0  0  0  0  0  0  0  0  0
    2.5797   20.1142  -36.2454 H   0  0  0  0  0  0  0  0  0  0  0  0
   -1.5250   20.3100  -34.2060 C   0  0  0  0  0  0  0  0  0  0  0  0
   -1.2083   19.8187  -35.1378 H   0  0  0  0  0  0  0  0  0  0  0  0
   -2.8760   20.3130  -33.8490 C   0  0  0  0  0  0  0  0  0  0  0  0
   -3.6127   19.8243  -34.5035 H   0  0  0  0  0  0  0  0  0  0  0  0
   -5.6810   20.1200  -32.9930 C   0  0  0  0  0  0  0  0  0  0  0  0
   -5.3672   19.4552  -33.8113 H   0  0  0  0  0  0  0  0  0  0  0  0
   -7.0100   20.1950  -32.5940 C   0  0  0  0  0  0  0  0  0  0  0  0
   -8.0580   19.5240  -33.1070 N   0  0  0  0  0  0  0  0  0  0  0  0
   -9.1040   19.9740  -32.3660 C   0  0  0  0  0  0  0  0  0  0  0  0
  -10.1396   19.6327  -32.5109 H   0  0  0  0  0  0  0  0  0  0  0  0
   -8.7430   20.8860  -31.4300 N   0  0  0  0  0  0  0  0  0  0  0  0
   -9.6230   21.5680  -30.4880 C   0  0  0  0  0  0  0  0  0  0  0  0
   -9.3148   21.3291  -29.4594 H   0  0  0  0  0  0  0  0  0  0  0  0
   -9.5588   22.6546  -30.6470 H   0  0  0  0  0  0  0  0  0  0  0  0
  -10.6592   21.2347  -30.6470 H   0  0  0  0  0  0  0  0  0  0  0  0
   -7.4130   21.0170  -31.5870 C   0  0  0  0  0  0  0  0  0  0  0  0
  1  2  1  0
  2  3  1  0
  3  4  1  0
  3  5  1  0
  3  6  1  0
  6  7  1  0
  6  8  1  0
  6  9  1  0
  9 10  1  0
  9 11  1  0
  9 12  1  0
 12 13  2  0
 13 14  1  0
 14 15  1  0
 15 16  1  0
 16 17  2  0
 17 18  1  0
 17 19  1  0
 19 20  1  0
 19 21  2  0
 21 22  1  0
 22 23  2  0
 22 24  1  0
 24 25  1  0
 24 26  1  0
 26 27  1  0
 26 28  1  0
 28 29  1  0
 28 30  1  0
 28 31  1  0
 31 32  1  0
 31 33  1  0
 21 34  1  0
 34 35  1  0
 34 36  2  0
 36 37  1  0
 15 38  2  0
 38 39  1  0
 38 40  1  0
 40 41  1  0
 41 42  2  0
 42 43  1  0
 42 44  1  0
 44 45  1  0
 45 46  1  0
 45 47  1  0
 45 48  1  0
 44 49  1  0
 49 13  1  0
 36 16  1  0
 49 40  2  0
 31 26  1  0
M  CHG  1  14  -1
M  END
>  <UniqueID>  (40) 
39

>  <SMILES>  (40) 
Cn1cnc2cc(-c3ccc(C(=O)NC4CC4)cc3)[n-]/c(=N\CCCO)c21

>  <Energy>  (40) 
354.0262895253109

>  <Genealogy>  (40) 
Cn1cnc2cc(-c3ccc(C(=O)NC4CC4)cc3)[n-]c(=NCCCO)c21 (protonated)
Cn1cnc2cc(-c3ccc(C(=O)NC4CC4)cc3)[n-]/c(=N\CCCO)c21 (cis-trans isomerization)
Cn1cnc2cc(-c3ccc(C(=O)NC4CC4)cc3)[n-]/c(=N\CCCO)c21 (3D coordinates assigned)
Cn1cnc2cc(-c3ccc(C(=O)NC4CC4)cc3)[n-]/c(=N\CCCO)c21 (nonaromatic ring conformer: 354.0262895253109 kcal/mol)

>  <smiles>  (40) 
Cn1cnc2cc(-c3ccc(C(=O)NC4CC4)cc3)[nH]c(=NCCCO)c21

>  <score_type>  (40) 
oracle

>  <origin>  (40) 
adg

>  <m_score__min__energy>  (40) 
-8.3200000000000003

>  <m_primary>  (40) 
energy

$$$$
40:0
     RDKit          3D

 38 39  0  0  0  0  0  0  0  0999 V2000
   -3.0760   22.2810  -30.5110 C   0  0  0  0  0  0  0  0  0  0  0  0
   -3.5360   23.6630  -30.0540 C   0  0  0  0  0  0  0  0  0  0  0  0
   -4.8630   23.6110  -29.2860 C   0  0  0  0  0  0  0  0  0  0  0  0
   -5.9420   24.2530  -30.0790 N   0  0  0  0  0  0  0  0  0  0  0  0
   -6.1150   25.6630  -29.6840 C   0  0  0  0  0  0  0  0  0  0  0  0
   -5.7360   24.1470  -31.5450 C   0  0  0  0  0  0  0  0  0  0  0  0
   -6.7390   23.1720  -32.2120 C   0  0  2  0  0  0  0  0  0  0  0  0
   -8.0300   23.0380  -31.3740 C   0  0  0  0  0  0  0  0  0  0  0  0
   -8.9660   21.9830  -31.9660 C   0  0  0  0  0  0  0  0  0  0  0  0
   -8.2770   20.6440  -32.0320 C   0  0  0  0  0  0  0  0  0  0  0  0
   -9.0210   19.4670  -31.8630 C   0  0  0  0  0  0  0  0  0  0  0  0
   -8.3980   18.2220  -31.9570 C   0  0  0  0  0  0  0  0  0  0  0  0
   -7.0320   18.1400  -32.2310 C   0  0  0  0  0  0  0  0  0  0  0  0
   -6.4330   16.9260  -32.3150 F   0  0  0  0  0  0  0  0  0  0  0  0
   -6.2810   19.3050  -32.4210 C   0  0  0  0  0  0  0  0  0  0  0  0
   -4.9520   19.1910  -32.6760 F   0  0  0  0  0  0  0  0  0  0  0  0
   -6.8990   20.5700  -32.3320 C   0  0  0  0  0  0  0  0  0  0  0  0
   -6.1280   21.8240  -32.5350 C   0  0  0  0  0  0  0  0  0  0  0  0
   -4.9930   21.7810  -33.0860 O   0  0  0  0  0  0  0  0  0  0  0  0
   -2.8675   21.6545  -29.6312 H   0  0  0  0  0  0  0  0  0  0  0  0
   -3.8667   21.8127  -31.1155 H   0  0  0  0  0  0  0  0  0  0  0  0
   -2.1624   22.3800  -31.1155 H   0  0  0  0  0  0  0  0  0  0  0  0
   -2.7647   24.0936  -29.3985 H   0  0  0  0  0  0  0  0  0  0  0  0
   -3.6909   24.2797  -30.9516 H   0  0  0  0  0  0  0  0  0  0  0  0
   -5.1298   22.5615  -29.0929 H   0  0  0  0  0  0  0  0  0  0  0  0
   -4.7477   24.1513  -28.3348 H   0  0  0  0  0  0  0  0  0  0  0  0
   -6.1242   25.7379  -28.5866 H   0  0  0  0  0  0  0  0  0  0  0  0
   -5.2835   26.2609  -30.0854 H   0  0  0  0  0  0  0  0  0  0  0  0
   -7.0664   26.0421  -30.0854 H   0  0  0  0  0  0  0  0  0  0  0  0
   -5.8613   25.1440  -31.9926 H   0  0  0  0  0  0  0  0  0  0  0  0
   -4.7225   23.7544  -31.7144 H   0  0  0  0  0  0  0  0  0  0  0  0
   -7.0131   23.6151  -33.1808 H   0  0  0  0  0  0  0  0  0  0  0  0
   -7.7630   22.7456  -30.3477 H   0  0  0  0  0  0  0  0  0  0  0  0
   -8.5503   24.0072  -31.3779 H   0  0  0  0  0  0  0  0  0  0  0  0
   -9.8621   21.8983  -31.3337 H   0  0  0  0  0  0  0  0  0  0  0  0
   -9.2482   22.2887  -32.9843 H   0  0  0  0  0  0  0  0  0  0  0  0
  -10.0997   19.5257  -31.6556 H   0  0  0  0  0  0  0  0  0  0  0  0
   -8.9851   17.3027  -31.8148 H   0  0  0  0  0  0  0  0  0  0  0  0
  1  2  1  0
  2  3  1  0
  3  4  1  0
  4  5  1  0
  4  6  1  0
  6  7  1  0
  7  8  1  0
  8  9  1  0
  9 10  1  0
 10 11  2  0
 11 12  1  0
 12 13  2  0
 13 14  1  0
 13 15  1  0
 15 16  1  0
 15 17  2  0
 17 18  1  0
 18 19  2  0
 18  7  1  0
 17 10  1  0
  1 20  1  0
  1 21  1  0
  1 22  1  0
  2 23  1  0
  2 24  1  0
  3 25  1  0
  3 26  1  0
  5 27  1  0
  5 28  1  0
  5 29  1  0
  6 30  1  0
  6 31  1  0
  7 32  1  6
  8 33  1  0
  8 34  1  0
  9 35  1  0
  9 36  1  0
 11 37  1  0
 12 38  1  0
M  END
>  <UniqueID>  (41) 
40

>  <SMILES>  (41) 
CCCN(C)C[C@@H]1CCc2ccc(F)c(F)c2C1=O

>  <Energy>  (41) 
38.68661647187574

>  <Genealogy>  (41) 
CCCN(C)C[C@@H]1CCc2ccc(F)c(F)c2C1=O (chirality)
CCCN(C)C[C@@H]1CCc2ccc(F)c(F)c2C1=O (3D coordinates assigned)
CCCN(C)C[C@@H]1CCc2ccc(F)c(F)c2C1=O (nonaromatic ring conformer: 38.68661647187574 kcal/mol)

>  <smiles>  (41) 
CCCN(C)CC1CCc2ccc(F)c(F)c2C1=O

>  <score_type>  (41) 
oracle

>  <origin>  (41) 
adg

>  <m_score__min__energy>  (41) 
-7.0800000000000001

>  <m_primary>  (41) 
energy

$$$$
41:0
     RDKit          3D

 37 39  0  0  0  0  0  0  0  0999 V2000
   -2.2560   24.4400  -28.9710 C   0  0  0  0  0  0  0  0  0  0  0  0
   -3.1330   24.9770  -29.9570 O   0  0  0  0  0  0  0  0  0  0  0  0
   -4.3760   24.4210  -30.2960 C   0  0  0  0  0  0  0  0  0  0  0  0
   -5.5650   25.1750  -30.3000 C   0  0  0  0  0  0  0  0  0  0  0  0
   -6.7780   24.5750  -30.6470 C   0  0  0  0  0  0  0  0  0  0  0  0
   -6.8310   23.2130  -30.9930 C   0  0  0  0  0  0  0  0  0  0  0  0
   -8.1380   22.5490  -31.3840 C   0  0  1  0  0  0  0  0  0  0  0  0
   -8.9580   23.4240  -32.3430 C   0  0  0  0  0  0  0  0  0  0  0  0
   -7.8940   21.1500  -31.9090 C   0  0  0  0  0  0  0  0  0  0  0  0
   -8.6300   20.1280  -31.3970 N   0  0  0  0  0  0  0  0  0  0  0  0
   -8.4440   18.8430  -31.7880 C   0  0  0  0  0  0  0  0  0  0  0  0
   -9.1580   17.9350  -31.2870 O   0  0  0  0  0  0  0  0  0  0  0  0
   -7.4580   18.5440  -32.7410 C   0  0  0  0  0  0  0  0  0  0  0  0
   -7.2180   17.2310  -33.1860 C   0  0  0  0  0  0  0  0  0  0  0  0
   -6.2210   16.9840  -34.1340 C   0  0  0  0  0  0  0  0  0  0  0  0
   -5.4590   18.0390  -34.6430 C   0  0  0  0  0  0  0  0  0  0  0  0
   -5.6910   19.3470  -34.2090 C   0  0  0  0  0  0  0  0  0  0  0  0
   -6.6900   19.6100  -33.2580 C   0  0  0  0  0  0  0  0  0  0  0  0
   -6.9190   20.8840  -32.8290 N   0  0  0  0  0  0  0  0  0  0  0  0
   -5.6400   22.4660  -30.9900 C   0  0  0  0  0  0  0  0  0  0  0  0
   -4.4270   23.0680  -30.6430 C   0  0  0  0  0  0  0  0  0  0  0  0
   -2.6424   24.6766  -27.9687 H   0  0  0  0  0  0  0  0  0  0  0  0
   -2.1932   23.3484  -29.0915 H   0  0  0  0  0  0  0  0  0  0  0  0
   -1.2552   24.8803  -29.0915 H   0  0  0  0  0  0  0  0  0  0  0  0
   -5.5388   26.2407  -30.0288 H   0  0  0  0  0  0  0  0  0  0  0  0
   -7.7007   25.1739  -30.6496 H   0  0  0  0  0  0  0  0  0  0  0  0
   -8.7565   22.4433  -30.4805 H   0  0  0  0  0  0  0  0  0  0  0  0
   -9.5967   24.1056  -31.7621 H   0  0  0  0  0  0  0  0  0  0  0  0
   -8.2770   24.0108  -32.9770 H   0  0  0  0  0  0  0  0  0  0  0  0
   -9.5877   22.7825  -32.9770 H   0  0  0  0  0  0  0  0  0  0  0  0
   -7.8156   16.3980  -32.7874 H   0  0  0  0  0  0  0  0  0  0  0  0
   -6.0357   15.9565  -34.4803 H   0  0  0  0  0  0  0  0  0  0  0  0
   -4.6742   17.8393  -35.3875 H   0  0  0  0  0  0  0  0  0  0  0  0
   -5.0887   20.1736  -34.6139 H   0  0  0  0  0  0  0  0  0  0  0  0
   -6.3380   21.6590  -33.2160 H   0  0  0  0  0  0  0  0  0  0  0  0
   -5.6628   21.4005  -31.2626 H   0  0  0  0  0  0  0  0  0  0  0  0
   -3.5032   22.4708  -30.6430 H   0  0  0  0  0  0  0  0  0  0  0  0
  1  2  1  0
  2  3  1  0
  3  4  2  0
  4  5  1  0
  5  6  2  0
  6  7  1  0
  7  8  1  0
  7  9  1  0
  9 10  2  0
 10 11  1  0
 11 12  2  0
 11 13  1  0
 13 14  2  0
 14 15  1  0
 15 16  2  0
 16 17  1  0
 17 18  2  0
 18 19  1  0
  6 20  1  0
 20 21  2  0
 21  3  1  0
 19  9  1  0
 18 13  1  0
  1 22  1  0
  1 23  1  0
  1 24  1  0
  4 25  1  0
  5 26  1  0
  7 27  1  1
  8 28  1  0
  8 29  1  0
  8 30  1  0
 14 31  1  0
 15 32  1  0
 16 33  1  0
 17 34  1  0
 19 35  1  0
 20 36  1  0
 21 37  1  0
M  END
>  <UniqueID>  (42) 
41

>  <SMILES>  (42) 
COc1ccc([C@@H](C)c2nc(=O)c3ccccc3[nH]2)cc1

>  <Energy>  (42) 
43.28017620186047

>  <Genealogy>  (42) 
COc1ccc([C@@H](C)c2nc(=O)c3ccccc3[nH]2)cc1 (chirality)
COc1ccc([C@@H](C)c2nc(=O)c3ccccc3[nH]2)cc1 (3D coordinates assigned)
COc1ccc([C@@H](C)c2nc(=O)c3ccccc3[nH]2)cc1 (optimized conformer: 43.28017620186047 kcal/mol)

>  <smiles>  (42) 
COc1ccc(C(C)c2nc(=O)c3ccccc3[nH]2)cc1

>  <score_type>  (42) 
oracle

>  <origin>  (42) 
adg

>  <m_score__min__energy>  (42) 
-9.0999999999999996

>  <m_primary>  (42) 
energy

$$$$
42:0
     RDKit          3D

 34 36  0  0  0  0  0  0  0  0999 V2000
   -7.8259   20.4299  -34.2424 H   0  0  0  0  0  0  0  0  0  0  0  0
   -7.1860   20.0050  -33.4550 C   0  0  0  0  0  0  0  0  0  0  0  0
   -5.8810   20.4760  -33.2860 C   0  0  0  0  0  0  0  0  0  0  0  0
   -5.4991   21.2751  -33.9383 H   0  0  0  0  0  0  0  0  0  0  0  0
   -5.0540   19.9340  -32.2870 C   0  0  0  0  0  0  0  0  0  0  0  0
   -3.6510   20.4500  -32.1020 C   0  0  0  0  0  0  0  0  0  0  0  0
   -3.4611   21.2480  -32.8350 H   0  0  0  0  0  0  0  0  0  0  0  0
   -2.9478   19.6172  -32.2500 H   0  0  0  0  0  0  0  0  0  0  0  0
   -3.4650   20.9850  -30.7520 N   0  0  0  0  0  0  0  0  0  0  0  0
   -3.3400   22.2380  -30.4010 C   0  0  0  0  0  0  0  0  0  0  0  0
   -2.1360   22.7450  -29.8680 C   0  0  0  0  0  0  0  0  0  0  0  0
   -1.2719   22.0782  -29.7314 H   0  0  0  0  0  0  0  0  0  0  0  0
   -2.0400   24.0950  -29.5130 C   0  0  0  0  0  0  0  0  0  0  0  0
   -0.7660   24.6360  -28.9440 C   0  0  0  0  0  0  0  0  0  0  0  0
   -0.8168   24.6144  -27.8454 H   0  0  0  0  0  0  0  0  0  0  0  0
    0.0787   24.0189  -29.2842 H   0  0  0  0  0  0  0  0  0  0  0  0
   -0.6234   25.6723  -29.2842 H   0  0  0  0  0  0  0  0  0  0  0  0
   -3.1090   24.9170  -29.6730 N   0  0  0  0  0  0  0  0  0  0  0  0
   -4.2890   24.4740  -30.1780 C   0  0  0  0  0  0  0  0  0  0  0  0
   -5.3570   25.3660  -30.3230 C   0  0  0  0  0  0  0  0  0  0  0  0
   -5.2365   26.4185  -30.0267 H   0  0  0  0  0  0  0  0  0  0  0  0
   -6.5760   24.9240  -30.8430 C   0  0  0  0  0  0  0  0  0  0  0  0
   -7.4129   25.6292  -30.9543 H   0  0  0  0  0  0  0  0  0  0  0  0
   -6.7350   23.5890  -31.2220 C   0  0  0  0  0  0  0  0  0  0  0  0
   -8.2680   23.0420  -31.8760 Cl  0  0  0  0  0  0  0  0  0  0  0  0
   -5.6740   22.6880  -31.0810 C   0  0  0  0  0  0  0  0  0  0  0  0
   -5.8053   21.6378  -31.3806 H   0  0  0  0  0  0  0  0  0  0  0  0
   -4.4370   23.1180  -30.5570 C   0  0  0  0  0  0  0  0  0  0  0  0
   -5.5610   18.9270  -31.4480 C   0  0  0  0  0  0  0  0  0  0  0  0
   -4.9280   18.5067  -30.6526 H   0  0  0  0  0  0  0  0  0  0  0  0
   -6.8670   18.4570  -31.6200 C   0  0  0  0  0  0  0  0  0  0  0  0
   -7.2560   17.6638  -30.9646 H   0  0  0  0  0  0  0  0  0  0  0  0
   -7.6790   18.9940  -32.6240 C   0  0  0  0  0  0  0  0  0  0  0  0
   -8.9440   18.5380  -32.7890 F   0  0  0  0  0  0  0  0  0  0  0  0
  1  2  1  0
  2  3  2  0
  3  4  1  0
  3  5  1  0
  5  6  1  0
  6  7  1  0
  6  8  1  0
  6  9  1  0
  9 10  2  0
 10 11  1  0
 11 12  1  0
 11 13  2  0
 13 14  1  0
 14 15  1  0
 14 16  1  0
 14 17  1  0
 13 18  1  0
 18 19  1  0
 19 20  2  0
 20 21  1  0
 20 22  1  0
 22 23  1  0
 22 24  2  0
 24 25  1  0
 24 26  1  0
 26 27  1  0
 26 28  2  0
  5 29  2  0
 29 30  1  0
 29 31  1  0
 31 32  1  0
 31 33  2  0
 33 34  1  0
 33  2  1  0
 28 10  1  0
 28 19  1  0
M  CHG  1  18  -1
M  END
>  <UniqueID>  (43) 
42

>  <SMILES>  (43) 
Cc1c/c(=N\Cc2ccc(F)cc2)c2cc(Cl)ccc2[n-]1

>  <Energy>  (43) 
41.58800610516063

>  <Genealogy>  (43) 
Cc1cc(=NCc2ccc(F)cc2)c2cc(Cl)ccc2[n-]1 (protonated)
Cc1c/c(=N\Cc2ccc(F)cc2)c2cc(Cl)ccc2[n-]1 (cis-trans isomerization)
Cc1c/c(=N\Cc2ccc(F)cc2)c2cc(Cl)ccc2[n-]1 (3D coordinates assigned)
Cc1c/c(=N\Cc2ccc(F)cc2)c2cc(Cl)ccc2[n-]1 (optimized conformer: 41.58800610516063 kcal/mol)

>  <smiles>  (43) 
Cc1cc(=NCc2ccc(F)cc2)c2cc(Cl)ccc2[nH]1

>  <score_type>  (43) 
oracle

>  <origin>  (43) 
adg

>  <m_score__min__energy>  (43) 
-8.8300000000000001

>  <m_primary>  (43) 
energy

$$$$
43:0
     RDKit          3D

 43 46  0  0  0  0  0  0  0  0999 V2000
   -0.4650   22.8630  -24.1440 O   0  0  0  0  0  0  0  0  0  0  0  0
   -0.5870   23.6440  -25.1280 C   0  0  0  0  0  0  0  0  0  0  0  0
   -0.6400   25.1030  -24.8850 C   0  0  0  0  0  0  0  0  0  0  0  0
   -1.1340   25.9680  -25.8740 C   0  0  0  0  0  0  0  0  0  0  0  0
   -1.1750   27.3050  -25.6370 N   0  0  0  0  0  0  0  0  0  0  0  0
   -0.7360   27.8260  -24.4630 C   0  0  0  0  0  0  0  0  0  0  0  0
   -0.2280   26.9740  -23.4820 C   0  0  0  0  0  0  0  0  0  0  0  0
   -0.1840   25.6340  -23.7120 N   0  0  0  0  0  0  0  0  0  0  0  0
   -0.6730   23.0970  -26.4590 N   0  0  0  0  0  0  0  0  0  0  0  0
    0.5350   22.5290  -27.0760 C   0  0  0  0  0  0  0  0  0  0  0  0
    0.1880   21.7240  -28.3330 C   0  0  0  0  0  0  0  0  0  0  0  0
   -0.6190   22.5490  -29.3530 C   0  0  0  0  0  0  0  0  0  0  0  0
   -1.5480   23.6040  -28.7020 C   0  0  1  0  0  0  0  0  0  0  0  0
   -2.7930   23.8000  -29.5190 C   0  0  0  0  0  0  0  0  0  0  0  0
   -3.7160   22.8410  -29.7250 N   0  0  0  0  0  0  0  0  0  0  0  0
   -4.6180   23.4960  -30.4860 C   0  0  0  0  0  0  0  0  0  0  0  0
   -5.8600   22.8830  -31.0030 C   0  0  0  0  0  0  0  0  0  0  0  0
   -5.8810   21.5290  -31.3850 C   0  0  0  0  0  0  0  0  0  0  0  0
   -7.0570   20.9510  -31.8730 C   0  0  0  0  0  0  0  0  0  0  0  0
   -8.2200   21.7160  -31.9860 C   0  0  0  0  0  0  0  0  0  0  0  0
   -8.2100   23.0620  -31.6100 C   0  0  0  0  0  0  0  0  0  0  0  0
   -7.0360   23.6450  -31.1210 C   0  0  0  0  0  0  0  0  0  0  0  0
   -4.2570   24.7750  -30.7210 N   0  0  0  0  0  0  0  0  0  0  0  0
   -3.1250   24.9230  -30.1050 O   0  0  0  0  0  0  0  0  0  0  0  0
   -1.9050   23.2380  -27.2520 C   0  0  0  0  0  0  0  0  0  0  0  0
   -1.4859   25.5656  -26.8354 H   0  0  0  0  0  0  0  0  0  0  0  0
   -0.7804   28.9109  -24.2866 H   0  0  0  0  0  0  0  0  0  0  0  0
    0.1350   27.3835  -22.5278 H   0  0  0  0  0  0  0  0  0  0  0  0
    0.2340   25.0180  -22.9800 H   0  0  0  0  0  0  0  0  0  0  0  0
    1.2166   23.3475  -27.3507 H   0  0  0  0  0  0  0  0  0  0  0  0
    1.0127   21.8541  -26.3505 H   0  0  0  0  0  0  0  0  0  0  0  0
    1.1223   21.3904  -28.8082 H   0  0  0  0  0  0  0  0  0  0  0  0
   -0.4336   20.8705  -28.0243 H   0  0  0  0  0  0  0  0  0  0  0  0
    0.0877   23.0698  -30.0158 H   0  0  0  0  0  0  0  0  0  0  0  0
   -1.2639   21.8448  -29.8991 H   0  0  0  0  0  0  0  0  0  0  0  0
   -0.9926   24.5532  -28.6766 H   0  0  0  0  0  0  0  0  0  0  0  0
   -4.9676   20.9220  -31.2993 H   0  0  0  0  0  0  0  0  0  0  0  0
   -7.0662   19.8915  -32.1685 H   0  0  0  0  0  0  0  0  0  0  0  0
   -9.1437   21.2592  -32.3709 H   0  0  0  0  0  0  0  0  0  0  0  0
   -9.1265   23.6639  -31.6987 H   0  0  0  0  0  0  0  0  0  0  0  0
   -7.0328   24.7051  -30.8273 H   0  0  0  0  0  0  0  0  0  0  0  0
   -2.5306   24.0318  -26.8178 H   0  0  0  0  0  0  0  0  0  0  0  0
   -2.4564   22.2862  -27.2414 H   0  0  0  0  0  0  0  0  0  0  0  0
  1  2  2  0
  2  3  1  0
  3  4  2  0
  4  5  1  0
  5  6  2  0
  6  7  1  0
  7  8  2  0
  2  9  1  0
  9 10  1  0
 10 11  1  0
 11 12  1  0
 12 13  1  0
 13 14  1  0
 14 15  2  0
 15 16  1  0
 16 17  1  0
 17 18  2  0
 18 19  1  0
 19 20  2  0
 20 21  1  0
 21 22  2  0
 16 23  2  0
 23 24  1  0
 13 25  1  0
  8  3  1  0
 25  9  1  0
 24 14  1  0
 22 17  1  0
  4 26  1  0
  6 27  1  0
  7 28  1  0
  8 29  1  0
 10 30  1  0
 10 31  1  0
 11 32  1  0
 11 33  1  0
 12 34  1  0
 12 35  1  0
 13 36  1  1
 18 37  1  0
 19 38  1  0
 20 39  1  0
 21 40  1  0
 22 41  1  0
 25 42  1  0
 25 43  1  0
M  CHG  1   8   1
M  END
>  <UniqueID>  (44) 
43

>  <SMILES>  (44) 
O=C(c1cncc[nH+]1)N1CCC[C@@H](c2nc(-c3ccccc3)no2)C1

>  <Energy>  (44) 
86.6493899835316

>  <Genealogy>  (44) 
O=C(c1cncc[nH+]1)N1CCCC(c2nc(-c3ccccc3)no2)C1 (protonated)
O=C(c1cncc[nH+]1)N1CCC[C@@H](c2nc(-c3ccccc3)no2)C1 (chirality)
O=C(c1cncc[nH+]1)N1CCC[C@@H](c2nc(-c3ccccc3)no2)C1 (3D coordinates assigned)
O=C(c1cncc[nH+]1)N1CCC[C@@H](c2nc(-c3ccccc3)no2)C1 (nonaromatic ring conformer: 86.6493899835316 kcal/mol)

>  <smiles>  (44) 
O=C(c1cnccn1)N1CCCC(c2nc(-c3ccccc3)no2)C1

>  <score_type>  (44) 
oracle

>  <origin>  (44) 
adg

>  <m_score__min__energy>  (44) 
-9.4399999999999995

>  <m_primary>  (44) 
energy

$$$$
44:0
     RDKit          3D

 39 41  0  0  0  0  0  0  0  0999 V2000
   -3.6200   22.1490  -28.3590 C   0  0  0  0  0  0  0  0  0  0  0  0
   -3.4470   22.6350  -29.7480 N   0  0  0  0  0  0  0  0  0  0  0  0
   -2.0880   22.9460  -30.0170 C   0  0  0  0  0  0  0  0  0  0  0  0
   -1.4150   23.5920  -28.8650 C   0  0  0  0  0  0  0  0  0  0  0  0
   -2.0260   24.8420  -28.4610 N   0  0  0  0  0  0  0  0  0  0  0  0
   -1.4530   25.7190  -27.4990 C   0  0  0  0  0  0  0  0  0  0  0  0
   -1.4630   25.4250  -26.1310 C   0  0  0  0  0  0  0  0  0  0  0  0
   -0.9040   26.2810  -25.2040 C   0  0  0  0  0  0  0  0  0  0  0  0
   -0.9310   25.9660  -23.8960 N   0  0  0  0  0  0  0  0  0  0  0  0
   -0.3850   26.7960  -22.9620 C   0  0  0  0  0  0  0  0  0  0  0  0
    0.1960   27.9550  -23.3460 N   0  0  0  0  0  0  0  0  0  0  0  0
    0.2430   28.3070  -24.6580 C   0  0  0  0  0  0  0  0  0  0  0  0
    0.7790   29.3820  -25.0350 O   0  0  0  0  0  0  0  0  0  0  0  0
   -0.3120   27.4630  -25.5990 C   0  0  0  0  0  0  0  0  0  0  0  0
   -0.3110   27.7350  -26.9520 C   0  0  0  0  0  0  0  0  0  0  0  0
   -0.8640   26.8820  -27.8330 N   0  0  0  0  0  0  0  0  0  0  0  0
   -4.5500   23.9410  -29.8890 S   0  0  0  0  0  0  0  0  0  0  0  0
   -3.9060   24.9700  -30.8110 O   0  0  0  0  0  0  0  0  0  0  0  0
   -4.8070   24.5850  -28.5470 O   0  0  0  0  0  0  0  0  0  0  0  0
   -6.0080   23.4430  -30.6240 C   0  0  0  0  0  0  0  0  0  0  0  0
   -7.0700   22.7000  -30.1070 C   0  0  0  0  0  0  0  0  0  0  0  0
   -8.1130   22.4290  -30.8710 C   0  0  0  0  0  0  0  0  0  0  0  0
   -8.0950   22.9100  -32.1800 C   0  0  0  0  0  0  0  0  0  0  0  0
   -6.4990   23.7910  -32.3040 S   0  0  0  0  0  0  0  0  0  0  0  0
   -3.3368   22.9446  -27.6542 H   0  0  0  0  0  0  0  0  0  0  0  0
   -4.6720   21.8720  -28.1958 H   0  0  0  0  0  0  0  0  0  0  0  0
   -2.9797   21.2696  -28.1958 H   0  0  0  0  0  0  0  0  0  0  0  0
   -1.5546   22.0153  -30.2607 H   0  0  0  0  0  0  0  0  0  0  0  0
   -2.0674   23.6557  -30.8572 H   0  0  0  0  0  0  0  0  0  0  0  0
   -1.4451   22.8987  -28.0115 H   0  0  0  0  0  0  0  0  0  0  0  0
   -0.3871   23.8234  -29.1810 H   0  0  0  0  0  0  0  0  0  0  0  0
   -2.9480   25.1510  -28.8810 H   0  0  0  0  0  0  0  0  0  0  0  0
   -1.9275   24.4893  -25.7863 H   0  0  0  0  0  0  0  0  0  0  0  0
   -0.4172   26.5229  -21.8969 H   0  0  0  0  0  0  0  0  0  0  0  0
    0.6020   28.5660  -22.6170 H   0  0  0  0  0  0  0  0  0  0  0  0
    0.1498   28.6651  -27.3162 H   0  0  0  0  0  0  0  0  0  0  0  0
   -7.0388   22.3414  -29.0675 H   0  0  0  0  0  0  0  0  0  0  0  0
   -8.9639   21.8458  -30.4891 H   0  0  0  0  0  0  0  0  0  0  0  0
   -8.8634   22.7874  -32.9575 H   0  0  0  0  0  0  0  0  0  0  0  0
  1  2  1  0
  2  3  1  0
  3  4  1  0
  4  5  1  0
  5  6  1  0
  6  7  2  0
  7  8  1  0
  8  9  1  0
  9 10  2  0
 10 11  1  0
 11 12  1  0
 12 13  2  0
 12 14  1  0
 14 15  1  0
 15 16  2  0
  2 17  1  0
 17 18  2  0
 17 19  2  0
 17 20  1  0
 20 21  2  0
 21 22  1  0
 22 23  2  0
 23 24  1  0
 16  6  1  0
 24 20  1  0
 14  8  2  0
  1 25  1  0
  1 26  1  0
  1 27  1  0
  3 28  1  0
  3 29  1  0
  4 30  1  0
  4 31  1  0
  5 32  1  0
  7 33  1  0
 10 34  1  0
 11 35  1  0
 15 36  1  0
 21 37  1  0
 22 38  1  0
 23 39  1  0
M  END
>  <smiles>  (45) 
CN(CCNc1cc2nc[nH]c(=O)c2cn1)S(=O)(=O)c1cccs1

>  <score_type>  (45) 
oracle

>  <origin>  (45) 
adg

>  <m_score__min__energy>  (45) 
-8.3200000000000003

>  <m_primary>  (45) 
energy

$$$$
45:0
     RDKit          3D

 34 36  0  0  0  0  0  0  0  0999 V2000
   -7.9100   18.5050  -31.5450 F   0  0  0  0  0  0  0  0  0  0  0  0
   -7.1420   18.1890  -32.6190 C   0  0  0  0  0  0  0  0  0  0  0  0
   -7.1540   16.8710  -33.0900 C   0  0  0  0  0  0  0  0  0  0  0  0
   -6.3760   16.5100  -34.1920 C   0  0  0  0  0  0  0  0  0  0  0  0
   -5.5820   17.4660  -34.8280 C   0  0  0  0  0  0  0  0  0  0  0  0
   -5.5640   18.7840  -34.3640 C   0  0  0  0  0  0  0  0  0  0  0  0
   -6.3430   19.1610  -33.2550 C   0  0  0  0  0  0  0  0  0  0  0  0
   -6.3090   20.5630  -32.7860 C   0  0  0  0  0  0  0  0  0  0  0  0
   -5.3200   21.4420  -33.0570 N   0  0  0  0  0  0  0  0  0  0  0  0
   -5.6680   22.5640  -32.4510 N   0  0  0  0  0  0  0  0  0  0  0  0
   -6.8410   22.3440  -31.8360 C   0  0  0  0  0  0  0  0  0  0  0  0
   -7.5760   23.3560  -31.0070 C   0  0  0  0  0  0  0  0  0  0  0  0
   -6.8130   23.8020  -29.8220 N   0  0  0  0  0  0  0  0  0  0  0  0
   -6.6330   25.2680  -29.7310 C   0  0  0  0  0  0  0  0  0  0  0  0
   -5.3650   25.7650  -30.4690 C   0  0  0  0  0  0  0  0  0  0  0  0
   -4.4840   24.7260  -30.8510 O   0  0  0  0  0  0  0  0  0  0  0  0
   -4.3030   23.8320  -29.7770 C   0  0  0  0  0  0  0  0  0  0  0  0
   -5.5850   23.0190  -29.5480 C   0  0  0  0  0  0  0  0  0  0  0  0
   -7.2440   21.1130  -32.0400 O   0  0  0  0  0  0  0  0  0  0  0  0
   -7.7789   16.1164  -32.5900 H   0  0  0  0  0  0  0  0  0  0  0  0
   -6.3888   15.4730  -34.5587 H   0  0  0  0  0  0  0  0  0  0  0  0
   -4.9693   17.1812  -35.6961 H   0  0  0  0  0  0  0  0  0  0  0  0
   -4.9360   19.5323  -34.8697 H   0  0  0  0  0  0  0  0  0  0  0  0
   -5.1080   23.4450  -32.4560 H   0  0  0  0  0  0  0  0  0  0  0  0
   -7.7908   24.2331  -31.6351 H   0  0  0  0  0  0  0  0  0  0  0  0
   -8.4952   22.8745  -30.6420 H   0  0  0  0  0  0  0  0  0  0  0  0
   -7.5123   25.7581  -30.1744 H   0  0  0  0  0  0  0  0  0  0  0  0
   -6.5172   25.5216  -28.6669 H   0  0  0  0  0  0  0  0  0  0  0  0
   -5.6795   26.3039  -31.3749 H   0  0  0  0  0  0  0  0  0  0  0  0
   -4.8162   26.4089  -29.7660 H   0  0  0  0  0  0  0  0  0  0  0  0
   -3.4740   23.1472  -30.0090 H   0  0  0  0  0  0  0  0  0  0  0  0
   -4.0710   24.4040  -28.8665 H   0  0  0  0  0  0  0  0  0  0  0  0
   -5.5701   22.1429  -30.2130 H   0  0  0  0  0  0  0  0  0  0  0  0
   -5.6075   22.7239  -28.4886 H   0  0  0  0  0  0  0  0  0  0  0  0
  1  2  1  0
  2  3  2  0
  3  4  1  0
  4  5  2  0
  5  6  1  0
  6  7  2  0
  7  8  1  0
  8  9  2  0
  9 10  1  0
 10 11  2  0
 11 12  1  0
 12 13  1  0
 13 14  1  0
 14 15  1  0
 15 16  1  0
 16 17  1  0
 17 18  1  0
 11 19  1  0
  7  2  1  0
 19  8  1  0
 18 13  1  0
  3 20  1  0
  4 21  1  0
  5 22  1  0
  6 23  1  0
 10 24  1  0
 12 25  1  0
 12 26  1  0
 14 27  1  0
 14 28  1  0
 15 29  1  0
 15 30  1  0
 17 31  1  0
 17 32  1  0
 18 33  1  0
 18 34  1  0
M  CHG  1  10   1
M  END
>  <UniqueID>  (46) 
44

>  <SMILES>  (46) 
Fc1ccccc1-c1n[nH+]c(CN2CCOCC2)o1

>  <Energy>  (46) 
84.80874643514709

>  <Genealogy>  (46) 
Fc1ccccc1-c1n[nH+]c(CN2CCOCC2)o1 (protonated)
Fc1ccccc1-c1n[nH+]c(CN2CCOCC2)o1 (3D coordinates assigned)
Fc1ccccc1-c1n[nH+]c(CN2CCOCC2)o1 (nonaromatic ring conformer: 84.80874643514709 kcal/mol)

>  <smiles>  (46) 
Fc1ccccc1-c1nnc(CN2CCOCC2)o1

>  <score_type>  (46) 
oracle

>  <origin>  (46) 
adg

>  <m_score__min__energy>  (46) 
-6.3799999999999999

>  <m_primary>  (46) 
energy

$$$$
46:0
     RDKit          3D

 49 51  0  0  1  0  0  0  0  0999 V2000
   -9.1050   18.7100  -32.0370 C   0  0  0  0  0  0  0  0  0  0  0  0
   -9.4350   20.1860  -32.3160 C   0  0  0  0  0  0  0  0  0  0  0  0
   -8.9620   21.0590  -31.2100 C   0  0  0  0  0  0  0  0  0  0  0  0
   -7.6030   22.1290  -31.5830 S   0  0  0  0  0  0  0  0  0  0  0  0
   -8.0750   23.2840  -32.4440 O   0  0  0  0  0  0  0  0  0  0  0  0
   -7.2200   22.7860  -30.2630 O   0  0  0  0  0  0  0  0  0  0  0  0
   -6.2150   21.3620  -32.2310 C   0  0  0  0  0  0  0  0  0  0  0  0
   -6.3980   20.1410  -32.9000 C   0  0  0  0  0  0  0  0  0  0  0  0
   -5.3780   19.4770  -33.5280 C   0  0  0  0  0  0  0  0  0  0  0  0
   -5.6500   18.2690  -34.1690 O   0  0  0  0  0  0  0  0  0  0  0  0
   -4.0940   19.9770  -33.5380 C   0  0  0  0  0  0  0  0  0  0  0  0
   -3.8850   21.1690  -32.8890 C   0  0  0  0  0  0  0  0  0  0  0  0
   -4.9330   21.8520  -32.2420 C   0  0  0  0  0  0  0  0  0  0  0  0
   -4.5380   23.0280  -31.5580 N   0  0  0  0  0  0  0  0  0  0  0  0
   -5.0440   24.2490  -31.5920 N   0  0  0  0  0  0  0  0  0  0  0  0
   -4.3880   25.0650  -30.8270 N   0  0  0  0  0  0  0  0  0  0  0  0
   -3.4290   24.4030  -30.2680 N   0  0  0  0  0  0  0  0  0  0  0  0
   -3.5000   23.1000  -30.7150 C   0  0  0  0  0  0  0  0  0  0  0  0
   -2.5060   22.1200  -30.2670 C   0  0  1  0  0  0  0  0  0  0  0  0
   -1.1890   22.0660  -30.8990 C   0  0  0  0  0  0  0  0  0  0  0  0
   -2.4750   21.9760  -28.8170 N   0  0  0  0  0  0  0  0  0  0  0  0
   -2.1600   20.9320  -28.1820 C   0  0  0  0  0  0  0  0  0  0  0  0
   -0.8830   20.4330  -28.2640 C   0  0  0  0  0  0  0  0  0  0  0  0
   -0.6050   19.2910  -27.5460 C   0  0  0  0  0  0  0  0  0  0  0  0
   -1.5380   18.6820  -26.7910 N   0  0  0  0  0  0  0  0  0  0  0  0
   -2.7880   19.1890  -26.7240 C   0  0  0  0  0  0  0  0  0  0  0  0
   -3.8480   18.5450  -25.9000 C   0  0  0  0  0  0  0  0  0  0  0  0
   -3.0870   20.3170  -27.4250 N   0  0  0  0  0  0  0  0  0  0  0  0
   -9.0674   18.5417  -30.9506 H   0  0  0  0  0  0  0  0  0  0  0  0
   -9.8823   18.0703  -32.4804 H   0  0  0  0  0  0  0  0  0  0  0  0
   -8.1293   18.4623  -32.4804 H   0  0  0  0  0  0  0  0  0  0  0  0
   -8.9440   20.4932  -33.2511 H   0  0  0  0  0  0  0  0  0  0  0  0
  -10.5269   20.2898  -32.4001 H   0  0  0  0  0  0  0  0  0  0  0  0
   -9.8073   21.6882  -30.8946 H   0  0  0  0  0  0  0  0  0  0  0  0
   -8.5915   20.3739  -30.4332 H   0  0  0  0  0  0  0  0  0  0  0  0
   -7.4048   19.6984  -32.9206 H   0  0  0  0  0  0  0  0  0  0  0  0
   -4.9780   18.0150  -34.9060 H   0  0  0  0  0  0  0  0  0  0  0  0
   -3.2738   19.4455  -34.0428 H   0  0  0  0  0  0  0  0  0  0  0  0
   -2.8736   21.6012  -32.8741 H   0  0  0  0  0  0  0  0  0  0  0  0
   -2.9258   21.2042  -30.7087 H   0  0  0  0  0  0  0  0  0  0  0  0
   -0.4106   22.0341  -30.1224 H   0  0  0  0  0  0  0  0  0  0  0  0
   -1.1194   21.1642  -31.5251 H   0  0  0  0  0  0  0  0  0  0  0  0
   -1.0459   22.9590  -31.5251 H   0  0  0  0  0  0  0  0  0  0  0  0
   -0.1141   20.9251  -28.8777 H   0  0  0  0  0  0  0  0  0  0  0  0
    0.4080   18.8647  -27.5909 H   0  0  0  0  0  0  0  0  0  0  0  0
   -1.2760   17.8200  -26.2670 H   0  0  0  0  0  0  0  0  0  0  0  0
   -3.6185   18.6844  -24.8333 H   0  0  0  0  0  0  0  0  0  0  0  0
   -4.8206   19.0050  -26.1290 H   0  0  0  0  0  0  0  0  0  0  0  0
   -3.8879   17.4698  -26.1290 H   0  0  0  0  0  0  0  0  0  0  0  0
  1  2  1  0
  2  3  1  0
  3  4  1  0
  4  5  2  0
  4  6  2  0
  4  7  1  0
  7  8  2  0
  8  9  1  0
  9 10  1  0
  9 11  2  0
 11 12  1  0
 12 13  2  0
 13 14  1  0
 14 15  1  0
 15 16  2  0
 16 17  1  0
 17 18  2  0
 18 19  1  0
 19 20  1  0
 19 21  1  0
 21 22  2  0
 22 23  1  0
 23 24  2  0
 24 25  1  0
 25 26  1  0
 26 27  1  0
 26 28  2  0
 13  7  1  0
 18 14  1  0
 28 22  1  0
  1 29  1  0
  1 30  1  0
  1 31  1  0
  2 32  1  0
  2 33  1  0
  3 34  1  0
  3 35  1  0
  8 36  1  0
 10 37  1  0
 11 38  1  0
 12 39  1  0
 19 40  1  6
 20 41  1  0
 20 42  1  0
 20 43  1  0
 23 44  1  0
 24 45  1  0
 25 46  1  0
 27 47  1  0
 27 48  1  0
 27 49  1  0
M  END
>  <smiles>  (47) 
CCCS(=O)(=O)c1cc(O)ccc1-n1nnnc1C(C)N=c1cc[nH]c(C)n1

>  <score_type>  (47) 
oracle

>  <origin>  (47) 
adg

>  <m_score__min__energy>  (47) 
-9.9499999999999993

>  <m_primary>  (47) 
energy

$$$$
47:0
     RDKit          3D

 47 49  0  0  0  0  0  0  0  0999 V2000
   -6.4960   25.6730  -29.9400 C   0  0  0  0  0  0  0  0  0  0  0  0
   -5.2710   24.8760  -30.2550 C   0  0  0  0  0  0  0  0  0  0  0  0
   -4.0180   25.3010  -30.0040 N   0  0  0  0  0  0  0  0  0  0  0  0
   -3.1690   24.3990  -30.4740 N   0  0  0  0  0  0  0  0  0  0  0  0
   -3.8700   23.3910  -31.0310 C   0  0  0  0  0  0  0  0  0  0  0  0
   -3.2290   22.2290  -31.6800 C   0  0  0  0  0  0  0  0  0  0  0  0
   -3.7470   21.7320  -32.8870 C   0  0  0  0  0  0  0  0  0  0  0  0
   -3.1460   20.6360  -33.5170 C   0  0  0  0  0  0  0  0  0  0  0  0
   -2.0160   20.0380  -32.9530 C   0  0  0  0  0  0  0  0  0  0  0  0
   -1.4790   20.5400  -31.7660 C   0  0  0  0  0  0  0  0  0  0  0  0
   -2.0760   21.6360  -31.1350 C   0  0  0  0  0  0  0  0  0  0  0  0
   -5.2260   23.6690  -30.9250 C   0  0  0  0  0  0  0  0  0  0  0  0
   -6.3920   22.9190  -31.5030 C   0  0  0  0  0  0  0  0  0  0  0  0
   -6.9600   22.0240  -30.4870 N   0  0  0  0  0  0  0  0  0  0  0  0
   -8.4320   21.9540  -30.5400 C   0  0  0  0  0  0  0  0  0  0  0  0
   -8.9940   21.2130  -31.7730 C   0  0  0  0  0  0  0  0  0  0  0  0
   -8.5040   19.7480  -31.8790 C   0  0  0  0  0  0  0  0  0  0  0  0
   -7.0430   19.6050  -32.0840 N   0  0  0  0  0  0  0  0  0  0  0  0
   -6.5400   18.2410  -31.8820 C   0  0  0  0  0  0  0  0  0  0  0  0
   -6.2560   17.6480  -33.2490 C   0  0  0  0  0  0  0  0  0  0  0  0
   -6.0360   18.8400  -34.1600 C   0  0  0  0  0  0  0  0  0  0  0  0
   -6.5910   20.0480  -33.4140 C   0  0  0  0  0  0  0  0  0  0  0  0
   -6.6133   25.7493  -28.8489 H   0  0  0  0  0  0  0  0  0  0  0  0
   -6.3982   26.6809  -30.3696 H   0  0  0  0  0  0  0  0  0  0  0  0
   -7.3778   25.1752  -30.3696 H   0  0  0  0  0  0  0  0  0  0  0  0
   -4.6300   22.2066  -33.3399 H   0  0  0  0  0  0  0  0  0  0  0  0
   -3.5635   20.2452  -34.4567 H   0  0  0  0  0  0  0  0  0  0  0  0
   -1.5494   19.1715  -33.4444 H   0  0  0  0  0  0  0  0  0  0  0  0
   -0.5853   20.0729  -31.3266 H   0  0  0  0  0  0  0  0  0  0  0  0
   -1.6414   22.0365  -30.2073 H   0  0  0  0  0  0  0  0  0  0  0  0
   -7.1606   23.6346  -31.8302 H   0  0  0  0  0  0  0  0  0  0  0  0
   -6.0509   22.3231  -32.3624 H   0  0  0  0  0  0  0  0  0  0  0  0
   -6.5420   21.0720  -30.5690 H   0  0  0  0  0  0  0  0  0  0  0  0
   -8.7840   21.4341  -29.6368 H   0  0  0  0  0  0  0  0  0  0  0  0
   -8.7923   22.9911  -30.6073 H   0  0  0  0  0  0  0  0  0  0  0  0
  -10.0921   21.2107  -31.7092 H   0  0  0  0  0  0  0  0  0  0  0  0
   -8.6335   21.7441  -32.6663 H   0  0  0  0  0  0  0  0  0  0  0  0
   -8.7736   19.2267  -30.9486 H   0  0  0  0  0  0  0  0  0  0  0  0
   -8.9895   19.3178  -32.7673 H   0  0  0  0  0  0  0  0  0  0  0  0
   -5.6162   18.2667  -31.2853 H   0  0  0  0  0  0  0  0  0  0  0  0
   -7.2816   17.6322  -31.3441 H   0  0  0  0  0  0  0  0  0  0  0  0
   -5.3563   17.0160  -33.2162 H   0  0  0  0  0  0  0  0  0  0  0  0
   -7.0795   17.0085  -33.5995 H   0  0  0  0  0  0  0  0  0  0  0  0
   -4.9629   18.9747  -34.3605 H   0  0  0  0  0  0  0  0  0  0  0  0
   -6.5347   18.7023  -35.1307 H   0  0  0  0  0  0  0  0  0  0  0  0
   -5.8055   20.8103  -33.3047 H   0  0  0  0  0  0  0  0  0  0  0  0
   -7.4318   20.4843  -33.9732 H   0  0  0  0  0  0  0  0  0  0  0  0
  1  2  1  0
  2  3  2  0
  3  4  1  0
  4  5  1  0
  5  6  1  0
  6  7  2  0
  7  8  1  0
  8  9  2  0
  9 10  1  0
 10 11  2  0
  5 12  2  0
 12 13  1  0
 13 14  1  0
 14 15  1  0
 15 16  1  0
 16 17  1  0
 17 18  1  0
 18 19  1  0
 19 20  1  0
 20 21  1  0
 21 22  1  0
 12  2  1  0
 22 18  1  0
 11  6  1  0
  1 23  1  0
  1 24  1  0
  1 25  1  0
  7 26  1  0
  8 27  1  0
  9 28  1  0
 10 29  1  0
 11 30  1  0
 13 31  1  0
 13 32  1  0
 14 33  1  0
 15 34  1  0
 15 35  1  0
 16 36  1  0
 16 37  1  0
 17 38  1  0
 17 39  1  0
 19 40  1  0
 19 41  1  0
 20 42  1  0
 20 43  1  0
 21 44  1  0
 21 45  1  0
 22 46  1  0
 22 47  1  0
M  CHG  1   4  -1
M  END
>  <UniqueID>  (48) 
45

>  <SMILES>  (48) 
Cc1n[n-]c(-c2ccccc2)c1CNCCCN1CCCC1

>  <Energy>  (48) 
82.53056264718909

>  <Genealogy>  (48) 
Cc1n[n-]c(-c2ccccc2)c1CNCCCN1CCCC1 (protonated)
Cc1n[n-]c(-c2ccccc2)c1CNCCCN1CCCC1 (3D coordinates assigned)
Cc1n[n-]c(-c2ccccc2)c1CNCCCN1CCCC1 (nonaromatic ring conformer: 82.53056264718909 kcal/mol)

>  <smiles>  (48) 
Cc1n[nH]c(-c2ccccc2)c1CNCCCN1CCCC1

>  <score_type>  (48) 
oracle

>  <origin>  (48) 
adg

>  <m_score__min__energy>  (48) 
-9.8699999999999992

>  <m_primary>  (48) 
energy

$$$$
