0:0
     RDKit          3D

 41 43  0  0  0  0  0  0  0  0999 V2000
   -8.7579   22.5186  -30.7617 H   0  0  0  0  0  0  0  0  0  0  0  0
   -7.6960   22.6830  -30.9970 C   0  0  0  0  0  0  0  0  0  0  0  0
   -6.9800   23.6770  -30.3240 C   0  0  0  0  0  0  0  0  0  0  0  0
   -7.4809   24.2889  -29.5593 H   0  0  0  0  0  0  0  0  0  0  0  0
   -5.6260   23.8990  -30.6180 C   0  0  0  0  0  0  0  0  0  0  0  0
   -4.8560   24.9560  -29.8720 C   0  0  0  0  0  0  0  0  0  0  0  0
   -5.0149   24.8250  -28.7914 H   0  0  0  0  0  0  0  0  0  0  0  0
   -5.2122   25.9471  -30.1897 H   0  0  0  0  0  0  0  0  0  0  0  0
   -3.4270   24.8500  -30.1650 N   0  0  0  0  0  0  0  0  0  0  0  0
   -2.4920   24.6730  -29.2740 C   0  0  0  0  0  0  0  0  0  0  0  0
   -1.6210   25.6760  -28.9840 N   0  0  0  0  0  0  0  0  0  0  0  0
   -0.6490   25.5320  -28.0840 N   0  0  0  0  0  0  0  0  0  0  0  0
   -0.4700   24.3700  -27.3990 C   0  0  0  0  0  0  0  0  0  0  0  0
    0.5630   24.2520  -26.4580 O   0  0  0  0  0  0  0  0  0  0  0  0
    0.3810   24.4380  -25.0560 C   0  0  0  0  0  0  0  0  0  0  0  0
    1.2602   24.9542  -24.6430 H   0  0  0  0  0  0  0  0  0  0  0  0
    0.2590   23.4533  -24.5812 H   0  0  0  0  0  0  0  0  0  0  0  0
   -0.8650   25.2730  -24.7810 C   0  0  0  0  0  0  0  0  0  0  0  0
   -1.0092   25.3697  -23.6948 H   0  0  0  0  0  0  0  0  0  0  0  0
   -0.7423   26.2719  -25.2249 H   0  0  0  0  0  0  0  0  0  0  0  0
   -1.7423   24.7797  -25.2249 H   0  0  0  0  0  0  0  0  0  0  0  0
   -1.3350   23.2920  -27.6430 C   0  0  0  0  0  0  0  0  0  0  0  0
   -1.1910   22.0720  -26.9590 C   0  0  0  0  0  0  0  0  0  0  0  0
   -0.3893   21.9520  -26.2155 H   0  0  0  0  0  0  0  0  0  0  0  0
   -2.0620   21.0120  -27.2200 C   0  0  0  0  0  0  0  0  0  0  0  0
   -1.9444   20.0601  -26.6814 H   0  0  0  0  0  0  0  0  0  0  0  0
   -3.0810   21.1570  -28.1620 C   0  0  0  0  0  0  0  0  0  0  0  0
   -3.7637   20.3184  -28.3636 H   0  0  0  0  0  0  0  0  0  0  0  0
   -3.2380   22.3620  -28.8500 C   0  0  0  0  0  0  0  0  0  0  0  0
   -4.0439   22.4684  -29.5911 H   0  0  0  0  0  0  0  0  0  0  0  0
   -2.3680   23.4430  -28.5990 C   0  0  0  0  0  0  0  0  0  0  0  0
   -4.9960   23.1080  -31.5920 C   0  0  0  0  0  0  0  0  0  0  0  0
   -3.9341   23.2714  -31.8277 H   0  0  0  0  0  0  0  0  0  0  0  0
   -5.7130   22.1140  -32.2630 C   0  0  0  0  0  0  0  0  0  0  0  0
   -5.2103   21.5006  -33.0253 H   0  0  0  0  0  0  0  0  0  0  0  0
   -7.0640   21.8910  -31.9750 C   0  0  0  0  0  0  0  0  0  0  0  0
   -7.7390   20.8800  -32.6760 O   0  0  0  0  0  0  0  0  0  0  0  0
   -8.3650   19.7590  -32.0650 C   0  0  0  0  0  0  0  0  0  0  0  0
   -8.3091   19.8590  -30.9710 H   0  0  0  0  0  0  0  0  0  0  0  0
   -9.4192   19.7133  -32.3757 H   0  0  0  0  0  0  0  0  0  0  0  0
   -7.8509   18.8375  -32.3757 H   0  0  0  0  0  0  0  0  0  0  0  0
  1  2  1  0
  2  3  2  0
  3  4  1  0
  3  5  1  0
  5  6  1  0
  6  7  1  0
  6  8  1  0
  6  9  1  0
  9 10  2  0
 10 11  1  0
 11 12  1  0
 12 13  2  0
 13 14  1  0
 14 15  1  0
 15 16  1  0
 15 17  1  0
 15 18  1  0
 18 19  1  0
 18 20  1  0
 18 21  1  0
 13 22  1  0
 22 23  2  0
 23 24  1  0
 23 25  1  0
 25 26  1  0
 25 27  2  0
 27 28  1  0
 27 29  1  0
 29 30  1  0
 29 31  2  0
  5 32  2  0
 32 33  1  0
 32 34  1  0
 34 35  1  0
 34 36  2  0
 36 37  1  0
 37 38  1  0
 38 39  1  0
 38 40  1  0
 38 41  1  0
 36  2  1  0
 31 10  1  0
 31 22  1  0
M  CHG  1  11  -1
M  END
>  <UniqueID>  (1) 
1

>  <SMILES>  (1) 
CCOc1n[n-]/c(=N\Cc2ccc(OC)cc2)c2ccccc12

>  <Energy>  (1) 
44.28821939653004

>  <Genealogy>  (1) 
CCOc1n[n-]c(=NCc2ccc(OC)cc2)c2ccccc12 (protonated)
CCOc1n[n-]/c(=N\Cc2ccc(OC)cc2)c2ccccc12 (cis-trans isomerization)
CCOc1n[n-]/c(=N\Cc2ccc(OC)cc2)c2ccccc12 (3D coordinates assigned)
CCOc1n[n-]/c(=N\Cc2ccc(OC)cc2)c2ccccc12 (optimized conformer: 44.28821939653004 kcal/mol)

>  <smiles>  (1) 
CCOc1n[nH]c(=NCc2ccc(OC)cc2)c2ccccc12

>  <score_type>  (1) 
oracle

>  <origin>  (1) 
adg

>  <m_score__min__energy>  (1) 
-8.7899999999999991

>  <m_primary>  (1) 
energy

$$$$
1:0
     RDKit          3D

 60 63  0  0  0  0  0  0  0  0999 V2000
   -1.0160   20.7530  -30.1830 C   0  0  0  0  0  0  0  0  0  0  0  0
   -1.1840   22.2370  -30.5030 C   0  0  0  0  0  0  0  0  0  0  0  0
   -2.5970   22.6520  -30.3270 N   0  0  0  0  0  0  0  0  0  0  0  0
   -3.4360   21.4810  -30.0020 C   0  0  0  0  0  0  0  0  0  0  0  0
   -2.7030   23.6890  -29.2740 C   0  0  0  0  0  0  0  0  0  0  0  0
   -3.9700   24.5470  -29.4300 C   0  0  0  0  0  0  0  0  0  0  0  0
   -4.2100   24.8600  -30.8460 N   0  0  0  0  0  0  0  0  0  0  0  0
   -5.6370   24.8050  -31.1990 C   0  0  0  0  0  0  0  0  0  0  0  0
   -6.1700   23.3620  -31.2800 C   0  0  0  0  0  0  0  0  0  0  0  0
   -6.2060   22.8980  -32.6760 N   0  0  0  0  0  0  0  0  0  0  0  0
   -5.9150   21.4810  -32.7460 C   0  0  0  0  0  0  0  0  0  0  0  0
   -4.6220   21.0470  -33.0630 C   0  0  0  0  0  0  0  0  0  0  0  0
   -4.3150   19.7020  -33.1300 C   0  0  0  0  0  0  0  0  0  0  0  0
   -5.2750   18.7310  -33.0070 N   0  0  0  0  0  0  0  0  0  0  0  0
   -4.9850   17.3490  -33.4230 C   0  0  0  0  0  0  0  0  0  0  0  0
   -6.5310   19.0970  -32.5500 C   0  0  0  0  0  0  0  0  0  0  0  0
   -7.4870   18.1240  -32.1710 C   0  0  0  0  0  0  0  0  0  0  0  0
   -8.7560   18.4960  -31.7320 C   0  0  0  0  0  0  0  0  0  0  0  0
   -9.1020   19.8380  -31.6470 C   0  0  0  0  0  0  0  0  0  0  0  0
   -8.1790   20.8250  -31.9830 C   0  0  0  0  0  0  0  0  0  0  0  0
   -6.8810   20.4840  -32.4270 C   0  0  0  0  0  0  0  0  0  0  0  0
   -2.8740   19.5800  -33.3900 C   0  0  0  0  0  0  0  0  0  0  0  0
   -2.0100   18.4750  -33.3360 C   0  0  0  0  0  0  0  0  0  0  0  0
   -0.6370   18.6830  -33.5460 C   0  0  0  0  0  0  0  0  0  0  0  0
   -0.1380   19.9780  -33.7620 C   0  0  0  0  0  0  0  0  0  0  0  0
   -1.0040   21.0810  -33.7440 C   0  0  0  0  0  0  0  0  0  0  0  0
   -2.3680   20.8590  -33.5450 C   0  0  0  0  0  0  0  0  0  0  0  0
   -3.4230   21.9000  -33.3700 C   0  0  0  0  0  0  0  0  0  0  0  0
   -1.0001   20.6127  -29.0921 H   0  0  0  0  0  0  0  0  0  0  0  0
   -1.8559   20.1878  -30.6132 H   0  0  0  0  0  0  0  0  0  0  0  0
   -0.0710   20.3898  -30.6132 H   0  0  0  0  0  0  0  0  0  0  0  0
   -0.5471   22.8269  -29.8275 H   0  0  0  0  0  0  0  0  0  0  0  0
   -0.8912   22.4097  -31.5492 H   0  0  0  0  0  0  0  0  0  0  0  0
   -3.5114   21.3758  -28.9096 H   0  0  0  0  0  0  0  0  0  0  0  0
   -4.4409   21.6206  -30.4271 H   0  0  0  0  0  0  0  0  0  0  0  0
   -2.9807   20.5744  -30.4271 H   0  0  0  0  0  0  0  0  0  0  0  0
   -2.7283   23.1951  -28.2915 H   0  0  0  0  0  0  0  0  0  0  0  0
   -1.8313   24.3537  -29.3652 H   0  0  0  0  0  0  0  0  0  0  0  0
   -4.8329   23.9940  -29.0304 H   0  0  0  0  0  0  0  0  0  0  0  0
   -3.8324   25.4877  -28.8766 H   0  0  0  0  0  0  0  0  0  0  0  0
   -3.6770   24.1840  -31.4430 H   0  0  0  0  0  0  0  0  0  0  0  0
   -6.2105   25.3504  -30.4351 H   0  0  0  0  0  0  0  0  0  0  0  0
   -5.7528   25.2602  -32.1937 H   0  0  0  0  0  0  0  0  0  0  0  0
   -5.5122   22.7009  -30.6967 H   0  0  0  0  0  0  0  0  0  0  0  0
   -7.1919   23.3393  -30.8735 H   0  0  0  0  0  0  0  0  0  0  0  0
   -5.5030   23.4370  -33.2310 H   0  0  0  0  0  0  0  0  0  0  0  0
   -7.1310   23.1060  -33.1150 H   0  0  0  0  0  0  0  0  0  0  0  0
   -4.8526   16.7180  -32.5318 H   0  0  0  0  0  0  0  0  0  0  0  0
   -5.8219   16.9637  -34.0240 H   0  0  0  0  0  0  0  0  0  0  0  0
   -4.0639   17.3326  -34.0240 H   0  0  0  0  0  0  0  0  0  0  0  0
   -7.2238   17.0573  -32.2239 H   0  0  0  0  0  0  0  0  0  0  0  0
   -9.4868   17.7232  -31.4516 H   0  0  0  0  0  0  0  0  0  0  0  0
  -10.1104   20.1229  -31.3125 H   0  0  0  0  0  0  0  0  0  0  0  0
   -8.4638   21.8844  -31.9018 H   0  0  0  0  0  0  0  0  0  0  0  0
   -2.4003   17.4668  -33.1333 H   0  0  0  0  0  0  0  0  0  0  0  0
    0.0523   17.8258  -33.5413 H   0  0  0  0  0  0  0  0  0  0  0  0
    0.9361   20.1277  -33.9460 H   0  0  0  0  0  0  0  0  0  0  0  0
   -0.6163   22.1009  -33.8839 H   0  0  0  0  0  0  0  0  0  0  0  0
   -3.1864   22.5785  -32.5371 H   0  0  0  0  0  0  0  0  0  0  0  0
   -3.5507   22.5654  -34.2366 H   0  0  0  0  0  0  0  0  0  0  0  0
  1  2  1  0
  2  3  1  0
  3  4  1  0
  3  5  1  0
  5  6  1  0
  6  7  1  0
  7  8  1  0
  8  9  1  0
  9 10  1  0
 10 11  1  0
 11 12  2  0
 12 13  1  0
 13 14  2  0
 14 15  1  0
 14 16  1  0
 16 17  2  0
 17 18  1  0
 18 19  2  0
 19 20  1  0
 20 21  2  0
 13 22  1  0
 22 23  2  0
 23 24  1  0
 24 25  2  0
 25 26  1  0
 26 27  2  0
 27 28  1  0
 21 11  1  0
 27 22  1  0
 28 12  1  0
 21 16  1  0
  1 29  1  0
  1 30  1  0
  1 31  1  0
  2 32  1  0
  2 33  1  0
  4 34  1  0
  4 35  1  0
  4 36  1  0
  5 37  1  0
  5 38  1  0
  6 39  1  0
  6 40  1  0
  7 41  1  0
  8 42  1  0
  8 43  1  0
  9 44  1  0
  9 45  1  0
 10 46  1  0
 10 47  1  0
 15 48  1  0
 15 49  1  0
 15 50  1  0
 17 51  1  0
 18 52  1  0
 19 53  1  0
 20 54  1  0
 23 55  1  0
 24 56  1  0
 25 57  1  0
 26 58  1  0
 28 59  1  0
 28 60  1  0
M  CHG  2  10   1  14   1
M  END
>  <UniqueID>  (2) 
2

>  <SMILES>  (2) 
CCN(C)CCNCC[NH2+]c1c2c([n+](C)c3ccccc13)-c1ccccc1C2

>  <Energy>  (2) 
102.22210391643426

>  <Genealogy>  (2) 
CCN(C)CCNCC[NH2+]c1c2c([n+](C)c3ccccc13)-c1ccccc1C2 (protonated)
CCN(C)CCNCC[NH2+]c1c2c([n+](C)c3ccccc13)-c1ccccc1C2 (3D coordinates assigned)
CCN(C)CCNCC[NH2+]c1c2c([n+](C)c3ccccc13)-c1ccccc1C2 (nonaromatic ring conformer: 102.22210391643426 kcal/mol)

>  <smiles>  (2) 
CCN(C)CCNCCNc1c2c([n+](C)c3ccccc13)-c1ccccc1C2

>  <score_type>  (2) 
oracle

>  <origin>  (2) 
adg

>  <m_score__min__energy>  (2) 
-8.1999999999999993

>  <m_primary>  (2) 
energy

$$$$
2:0
     RDKit          3D

 78 81  0  0  0  0  0  0  0  0999 V2000
   -0.8190   22.5980  -26.4420 C   0  0  0  0  0  0  0  0  0  0  0  0
   -0.4950   23.4260  -25.2010 C   0  0  0  0  0  0  0  0  0  0  0  0
   -0.3890   24.8640  -25.5370 N   0  0  0  0  0  0  0  0  0  0  0  0
   -0.1050   25.7380  -24.3770 C   0  0  0  0  0  0  0  0  0  0  0  0
   -1.1780   26.8010  -24.1290 C   0  0  0  0  0  0  0  0  0  0  0  0
   -1.3860   25.4050  -26.4960 C   0  0  0  0  0  0  0  0  0  0  0  0
   -0.7900   26.1320  -27.7130 C   0  0  0  0  0  0  0  0  0  0  0  0
   -1.6240   25.9070  -28.8320 O   0  0  0  0  0  0  0  0  0  0  0  0
   -1.8450   24.5210  -29.0210 C   0  0  0  0  0  0  0  0  0  0  0  0
   -3.3450   24.1740  -29.0170 C   0  0  0  0  0  0  0  0  0  0  0  0
   -3.7230   23.0380  -29.9850 C   0  0  0  0  0  0  0  0  0  0  0  0
   -2.9850   21.7180  -29.7080 C   0  0  0  0  0  0  0  0  0  0  0  0
   -1.8640   21.5120  -30.6520 N   0  0  0  0  0  0  0  0  0  0  0  0
   -0.5510   21.6150  -29.9890 C   0  0  0  0  0  0  0  0  0  0  0  0
   -2.0010   20.2650  -31.4360 C   0  0  0  0  0  0  0  0  0  0  0  0
   -1.6150   20.4130  -32.9210 C   0  0  0  0  0  0  0  0  0  0  0  0
   -2.8010   20.6470  -33.7410 N   0  0  0  0  0  0  0  0  0  0  0  0
   -3.9910   19.8830  -33.5200 C   0  0  0  0  0  0  0  0  0  0  0  0
   -5.1280   20.5100  -33.0250 C   0  0  0  0  0  0  0  0  0  0  0  0
   -6.3010   19.8060  -32.8370 C   0  0  0  0  0  0  0  0  0  0  0  0
   -6.3690   18.4470  -33.0150 N   0  0  0  0  0  0  0  0  0  0  0  0
   -7.5310   17.6950  -32.5110 C   0  0  0  0  0  0  0  0  0  0  0  0
   -5.2940   17.8040  -33.6090 C   0  0  0  0  0  0  0  0  0  0  0  0
   -5.3660   16.4500  -34.0180 C   0  0  0  0  0  0  0  0  0  0  0  0
   -4.2580   15.8050  -34.5700 C   0  0  0  0  0  0  0  0  0  0  0  0
   -3.0560   16.4880  -34.7340 C   0  0  0  0  0  0  0  0  0  0  0  0
   -2.9590   17.8320  -34.3770 C   0  0  0  0  0  0  0  0  0  0  0  0
   -4.0700   18.5120  -33.8410 C   0  0  0  0  0  0  0  0  0  0  0  0
   -7.3300   20.7670  -32.4150 C   0  0  0  0  0  0  0  0  0  0  0  0
   -8.7230   20.6460  -32.2920 C   0  0  0  0  0  0  0  0  0  0  0  0
   -9.4700   21.7830  -31.9490 C   0  0  0  0  0  0  0  0  0  0  0  0
   -8.8380   23.0270  -31.7760 C   0  0  0  0  0  0  0  0  0  0  0  0
   -7.4540   23.1480  -31.9680 C   0  0  0  0  0  0  0  0  0  0  0  0
   -6.7210   22.0080  -32.2980 C   0  0  0  0  0  0  0  0  0  0  0  0
   -5.2730   21.9580  -32.6630 C   0  0  0  0  0  0  0  0  0  0  0  0
   -1.2040   21.6141  -26.1360 H   0  0  0  0  0  0  0  0  0  0  0  0
   -1.5796   23.1190  -27.0421 H   0  0  0  0  0  0  0  0  0  0  0  0
    0.0932   22.4644  -27.0421 H   0  0  0  0  0  0  0  0  0  0  0  0
   -1.2939   23.2880  -24.4575 H   0  0  0  0  0  0  0  0  0  0  0  0
    0.4702   23.0881  -24.7958 H   0  0  0  0  0  0  0  0  0  0  0  0
   -0.0264   25.1080  -23.4787 H   0  0  0  0  0  0  0  0  0  0  0  0
    0.8307   26.2720  -24.5989 H   0  0  0  0  0  0  0  0  0  0  0  0
   -1.3157   26.9374  -23.0462 H   0  0  0  0  0  0  0  0  0  0  0  0
   -0.8626   27.7528  -24.5813 H   0  0  0  0  0  0  0  0  0  0  0  0
   -2.1268   26.4767  -24.5813 H   0  0  0  0  0  0  0  0  0  0  0  0
   -1.9951   24.5663  -26.8643 H   0  0  0  0  0  0  0  0  0  0  0  0
   -1.9672   26.1575  -25.9430 H   0  0  0  0  0  0  0  0  0  0  0  0
   -0.7313   27.2109  -27.5068 H   0  0  0  0  0  0  0  0  0  0  0  0
    0.2211   25.7503  -27.9179 H   0  0  0  0  0  0  0  0  0  0  0  0
   -1.4128   24.2202  -29.9868 H   0  0  0  0  0  0  0  0  0  0  0  0
   -1.3679   23.9827  -28.1888 H   0  0  0  0  0  0  0  0  0  0  0  0
   -3.6279   23.8701  -27.9984 H   0  0  0  0  0  0  0  0  0  0  0  0
   -3.8825   25.0730  -29.3529 H   0  0  0  0  0  0  0  0  0  0  0  0
   -4.8045   22.8554  -29.9006 H   0  0  0  0  0  0  0  0  0  0  0  0
   -3.4296   23.3645  -30.9936 H   0  0  0  0  0  0  0  0  0  0  0  0
   -2.5885   21.7392  -28.6822 H   0  0  0  0  0  0  0  0  0  0  0  0
   -3.6991   20.8912  -29.8362 H   0  0  0  0  0  0  0  0  0  0  0  0
   -0.6894   21.6041  -28.8978 H   0  0  0  0  0  0  0  0  0  0  0  0
    0.0782   20.7635  -30.2873 H   0  0  0  0  0  0  0  0  0  0  0  0
   -0.0623   22.5542  -30.2873 H   0  0  0  0  0  0  0  0  0  0  0  0
   -1.3527   19.4995  -30.9846 H   0  0  0  0  0  0  0  0  0  0  0  0
   -3.0651   19.9876  -31.4097 H   0  0  0  0  0  0  0  0  0  0  0  0
   -0.9256   21.2629  -33.0321 H   0  0  0  0  0  0  0  0  0  0  0  0
   -1.1312   19.4834  -33.2554 H   0  0  0  0  0  0  0  0  0  0  0  0
   -2.7330   21.2030  -34.6250 H   0  0  0  0  0  0  0  0  0  0  0  0
   -7.5223   17.7006  -31.4110 H   0  0  0  0  0  0  0  0  0  0  0  0
   -8.4572   18.1654  -32.8728 H   0  0  0  0  0  0  0  0  0  0  0  0
   -7.4812   16.6574  -32.8728 H   0  0  0  0  0  0  0  0  0  0  0  0
   -6.3099   15.8980  -33.8988 H   0  0  0  0  0  0  0  0  0  0  0  0
   -4.3350   14.7515  -34.8770 H   0  0  0  0  0  0  0  0  0  0  0  0
   -2.1803   15.9656  -35.1465 H   0  0  0  0  0  0  0  0  0  0  0  0
   -2.0072   18.3658  -34.5150 H   0  0  0  0  0  0  0  0  0  0  0  0
   -9.2191   19.6789  -32.4612 H   0  0  0  0  0  0  0  0  0  0  0  0
  -10.5586   21.7006  -31.8144 H   0  0  0  0  0  0  0  0  0  0  0  0
   -9.4309   23.9080  -31.4892 H   0  0  0  0  0  0  0  0  0  0  0  0
   -6.9562   24.1230  -31.8604 H   0  0  0  0  0  0  0  0  0  0  0  0
   -5.0472   22.6139  -33.5167 H   0  0  0  0  0  0  0  0  0  0  0  0
   -4.5904   22.3016  -31.8719 H   0  0  0  0  0  0  0  0  0  0  0  0
  1  2  1  0
  2  3  1  0
  3  4  1  0
  4  5  1  0
  3  6  1  0
  6  7  1  0
  7  8  1  0
  8  9  1  0
  9 10  1  0
 10 11  1  0
 11 12  1  0
 12 13  1  0
 13 14  1  0
 13 15  1  0
 15 16  1  0
 16 17  1  0
 17 18  1  0
 18 19  2  0
 19 20  1  0
 20 21  2  0
 21 22  1  0
 21 23  1  0
 23 24  2  0
 24 25  1  0
 25 26  2  0
 26 27  1  0
 27 28  2  0
 20 29  1  0
 29 30  2  0
 30 31  1  0
 31 32  2  0
 32 33  1  0
 33 34  2  0
 34 35  1  0
 28 18  1  0
 34 29  1  0
 35 19  1  0
 28 23  1  0
  1 36  1  0
  1 37  1  0
  1 38  1  0
  2 39  1  0
  2 40  1  0
  4 41  1  0
  4 42  1  0
  5 43  1  0
  5 44  1  0
  5 45  1  0
  6 46  1  0
  6 47  1  0
  7 48  1  0
  7 49  1  0
  9 50  1  0
  9 51  1  0
 10 52  1  0
 10 53  1  0
 11 54  1  0
 11 55  1  0
 12 56  1  0
 12 57  1  0
 14 58  1  0
 14 59  1  0
 14 60  1  0
 15 61  1  0
 15 62  1  0
 16 63  1  0
 16 64  1  0
 17 65  1  0
 22 66  1  0
 22 67  1  0
 22 68  1  0
 24 69  1  0
 25 70  1  0
 26 71  1  0
 27 72  1  0
 30 73  1  0
 31 74  1  0
 32 75  1  0
 33 76  1  0
 35 77  1  0
 35 78  1  0
M  CHG  1  21   1
M  END
>  <UniqueID>  (3) 
3

>  <SMILES>  (3) 
CCN(CC)CCOCCCCN(C)CCNc1c2c([n+](C)c3ccccc13)-c1ccccc1C2

>  <Energy>  (3) 
127.08460317079015

>  <Genealogy>  (3) 
CCN(CC)CCOCCCCN(C)CCNc1c2c([n+](C)c3ccccc13)-c1ccccc1C2 (3D coordinates assigned)
CCN(CC)CCOCCCCN(C)CCNc1c2c([n+](C)c3ccccc13)-c1ccccc1C2 (nonaromatic ring conformer: 127.08460317079015 kcal/mol)

>  <smiles>  (3) 
CCN(CC)CCOCCCCN(C)CCNc1c2c([n+](C)c3ccccc13)-c1ccccc1C2

>  <score_type>  (3) 
oracle

>  <origin>  (3) 
adg

>  <m_score__min__energy>  (3) 
-9.8599999999999994

>  <m_primary>  (3) 
energy

$$$$
3:0
     RDKit          3D

 44 46  0  0  0  0  0  0  0  0999 V2000
   -6.4620   24.4670  -30.3980 C   0  0  0  0  0  0  0  0  0  0  0  0
   -5.4660   25.6340  -30.3650 C   0  0  0  0  0  0  0  0  0  0  0  0
   -4.0920   25.2160  -30.6920 N   0  0  0  0  0  0  0  0  0  0  0  0
   -3.5110   24.3620  -29.6450 C   0  0  0  0  0  0  0  0  0  0  0  0
   -3.1930   22.9840  -30.2190 C   0  0  0  0  0  0  0  0  0  0  0  0
   -3.5780   22.9270  -31.6290 N   0  0  0  0  0  0  0  0  0  0  0  0
   -3.8150   21.6810  -32.3030 C   0  0  0  0  0  0  0  0  0  0  0  0
   -5.0290   21.0150  -32.3990 C   0  0  0  0  0  0  0  0  0  0  0  0
   -6.3260   21.4220  -31.7740 C   0  0  0  0  0  0  0  0  0  0  0  0
   -7.3500   20.3480  -31.9700 C   0  0  0  0  0  0  0  0  0  0  0  0
   -8.6630   20.5330  -32.3890 C   0  0  0  0  0  0  0  0  0  0  0  0
   -9.4130   19.3490  -32.3830 C   0  0  0  0  0  0  0  0  0  0  0  0
   -8.6980   18.2370  -31.9500 C   0  0  0  0  0  0  0  0  0  0  0  0
   -7.1360   18.7270  -31.5700 S   0  0  0  0  0  0  0  0  0  0  0  0
   -4.8560   19.8460  -33.0620 N   0  0  0  0  0  0  0  0  0  0  0  0
   -3.5420   19.8510  -33.3820 C   0  0  0  0  0  0  0  0  0  0  0  0
   -2.8720   18.8560  -34.1040 C   0  0  0  0  0  0  0  0  0  0  0  0
   -3.5870   17.6250  -34.5730 C   0  0  0  0  0  0  0  0  0  0  0  0
   -1.5040   19.0630  -34.3750 C   0  0  0  0  0  0  0  0  0  0  0  0
   -0.8580   20.2340  -33.9380 C   0  0  0  0  0  0  0  0  0  0  0  0
   -1.5780   21.1930  -33.2130 C   0  0  0  0  0  0  0  0  0  0  0  0
   -2.8900   20.9470  -32.9450 N   0  0  0  0  0  0  0  0  0  0  0  0
   -6.7145   24.1712  -29.3690 H   0  0  0  0  0  0  0  0  0  0  0  0
   -7.3759   24.7797  -30.9243 H   0  0  0  0  0  0  0  0  0  0  0  0
   -6.0096   23.6136  -30.9243 H   0  0  0  0  0  0  0  0  0  0  0  0
   -5.7868   26.3916  -31.0951 H   0  0  0  0  0  0  0  0  0  0  0  0
   -5.4571   26.0353  -29.3409 H   0  0  0  0  0  0  0  0  0  0  0  0
   -3.4900   26.0660  -30.8140 H   0  0  0  0  0  0  0  0  0  0  0  0
   -2.5859   24.8234  -29.2691 H   0  0  0  0  0  0  0  0  0  0  0  0
   -4.2328   24.2548  -28.8219 H   0  0  0  0  0  0  0  0  0  0  0  0
   -2.1137   22.7921  -30.1283 H   0  0  0  0  0  0  0  0  0  0  0  0
   -3.7563   22.2220  -29.6604 H   0  0  0  0  0  0  0  0  0  0  0  0
   -3.9690   23.7990  -32.0520 H   0  0  0  0  0  0  0  0  0  0  0  0
   -6.1747   21.5885  -30.6972 H   0  0  0  0  0  0  0  0  0  0  0  0
   -6.6801   22.3486  -32.2495 H   0  0  0  0  0  0  0  0  0  0  0  0
   -9.0709   21.5081  -32.6937 H   0  0  0  0  0  0  0  0  0  0  0  0
  -10.4678   19.3033  -32.6917 H   0  0  0  0  0  0  0  0  0  0  0  0
   -9.0885   17.2118  -31.8700 H   0  0  0  0  0  0  0  0  0  0  0  0
   -3.9249   17.0432  -33.7027 H   0  0  0  0  0  0  0  0  0  0  0  0
   -4.4571   17.9153  -35.1802 H   0  0  0  0  0  0  0  0  0  0  0  0
   -2.9038   17.0131  -35.1802 H   0  0  0  0  0  0  0  0  0  0  0  0
   -0.9372   18.3029  -34.9326 H   0  0  0  0  0  0  0  0  0  0  0  0
    0.2063   20.3958  -34.1642 H   0  0  0  0  0  0  0  0  0  0  0  0
   -1.0959   22.1201  -32.8695 H   0  0  0  0  0  0  0  0  0  0  0  0
  1  2  1  0
  2  3  1  0
  3  4  1  0
  4  5  1  0
  5  6  1  0
  6  7  1  0
  7  8  2  0
  8  9  1  0
  9 10  1  0
 10 11  2  0
 11 12  1  0
 12 13  2  0
 13 14  1  0
  8 15  1  0
 15 16  2  0
 16 17  1  0
 17 18  1  0
 17 19  2  0
 19 20  1  0
 20 21  2  0
 21 22  1  0
 22  7  1  0
 14 10  1  0
 22 16  1  0
  1 23  1  0
  1 24  1  0
  1 25  1  0
  2 26  1  0
  2 27  1  0
  3 28  1  0
  4 29  1  0
  4 30  1  0
  5 31  1  0
  5 32  1  0
  6 33  1  0
  9 34  1  0
  9 35  1  0
 11 36  1  0
 12 37  1  0
 13 38  1  0
 18 39  1  0
 18 40  1  0
 18 41  1  0
 19 42  1  0
 20 43  1  0
 21 44  1  0
M  END
>  <UniqueID>  (4) 
4

>  <SMILES>  (4) 
CCNCCNc1c(Cc2cccs2)nc2c(C)cccn12

>  <Energy>  (4) 
102.04633171945235

>  <Genealogy>  (4) 
CCNCCNc1c(Cc2cccs2)nc2c(C)cccn12 (3D coordinates assigned)
CCNCCNc1c(Cc2cccs2)nc2c(C)cccn12 (optimized conformer: 102.04633171945235 kcal/mol)

>  <smiles>  (4) 
CCNCCNc1c(Cc2cccs2)nc2c(C)cccn12

>  <score_type>  (4) 
oracle

>  <origin>  (4) 
adg

>  <m_score__min__energy>  (4) 
-8.3100000000000005

>  <m_primary>  (4) 
energy

$$$$
4:0
     RDKit          3D

 28 28  0  0  0  0  0  0  0  0999 V2000
   -7.6329   24.3080  -30.8392 H   0  0  0  0  0  0  0  0  0  0  0  0
   -7.3360   23.5550  -31.5840 C   0  0  0  0  0  0  0  0  0  0  0  0
   -8.2210   22.4600  -31.8660 N   0  0  0  0  0  0  0  0  0  0  0  0
   -9.2450   22.6380  -31.7690 H   0  0  0  0  0  0  0  0  0  0  0  0
   -7.7920   21.1370  -32.2320 C   0  0  0  0  0  0  0  0  0  0  0  0
   -8.6560   20.0540  -32.0250 C   0  0  0  0  0  0  0  0  0  0  0  0
   -9.6581   20.2267  -31.6055 H   0  0  0  0  0  0  0  0  0  0  0  0
   -8.2530   18.7560  -32.3480 C   0  0  0  0  0  0  0  0  0  0  0  0
   -8.9445   17.9146  -32.1936 H   0  0  0  0  0  0  0  0  0  0  0  0
   -6.9770   18.5200  -32.8660 C   0  0  0  0  0  0  0  0  0  0  0  0
   -6.4860   16.7140  -33.2870 Br  0  0  0  0  0  0  0  0  0  0  0  0
   -6.0860   19.5960  -33.0590 C   0  0  0  0  0  0  0  0  0  0  0  0
   -4.7020   19.3630  -33.5990 C   0  0  0  0  0  0  0  0  0  0  0  0
   -3.9973   19.2444  -32.7627 H   0  0  0  0  0  0  0  0  0  0  0  0
   -4.6973   18.4514  -34.2146 H   0  0  0  0  0  0  0  0  0  0  0  0
   -4.3991   20.2228  -34.2146 H   0  0  0  0  0  0  0  0  0  0  0  0
   -6.4990   20.8980  -32.7310 C   0  0  0  0  0  0  0  0  0  0  0  0
   -5.8037   21.7396  -32.8659 H   0  0  0  0  0  0  0  0  0  0  0  0
   -6.1880   23.6770  -32.1910 N   0  0  0  0  0  0  0  0  0  0  0  0
   -6.1110   23.4250  -33.2020 H   0  0  0  0  0  0  0  0  0  0  0  0
   -5.0430   24.1640  -31.5810 O   0  0  0  0  0  0  0  0  0  0  0  0
   -4.3530   23.4950  -30.5270 C   0  0  0  0  0  0  0  0  0  0  0  0
   -3.2703   23.5297  -30.7180 H   0  0  0  0  0  0  0  0  0  0  0  0
   -4.6845   22.4472  -30.4799 H   0  0  0  0  0  0  0  0  0  0  0  0
   -4.6560   24.1810  -29.2050 C   0  0  0  0  0  0  0  0  0  0  0  0
   -4.3646   23.5213  -28.3744 H   0  0  0  0  0  0  0  0  0  0  0  0
   -4.0898   25.1220  -29.1419 H   0  0  0  0  0  0  0  0  0  0  0  0
   -5.7329   24.3962  -29.1419 H   0  0  0  0  0  0  0  0  0  0  0  0
  1  2  1  0
  2  3  1  0
  3  4  1  0
  3  5  1  0
  5  6  2  0
  6  7  1  0
  6  8  1  0
  8  9  1  0
  8 10  2  0
 10 11  1  0
 10 12  1  0
 12 13  1  0
 13 14  1  0
 13 15  1  0
 13 16  1  0
 12 17  2  0
 17 18  1  0
  2 19  2  0
 19 20  1  0
 19 21  1  0
 21 22  1  0
 22 23  1  0
 22 24  1  0
 22 25  1  0
 25 26  1  0
 25 27  1  0
 25 28  1  0
 17  5  1  0
M  CHG  1  19   1
M  END
>  <UniqueID>  (5) 
5

>  <SMILES>  (5) 
CCO/[NH+]=C/Nc1ccc(Br)c(C)c1

>  <Energy>  (5) 
27.796781823087194

>  <Genealogy>  (5) 
CCO[NH+]=CNc1ccc(Br)c(C)c1 (protonated)
CCO/[NH+]=C/Nc1ccc(Br)c(C)c1 (cis-trans isomerization)
CCO/[NH+]=C/Nc1ccc(Br)c(C)c1 (3D coordinates assigned)
CCO/[NH+]=C/Nc1ccc(Br)c(C)c1 (optimized conformer: 27.796781823087194 kcal/mol)

>  <smiles>  (5) 
CCON=CNc1ccc(Br)c(C)c1

>  <score_type>  (5) 
oracle

>  <origin>  (5) 
adg

>  <m_score__min__energy>  (5) 
-6.04

>  <m_primary>  (5) 
energy

$$$$
5:0
     RDKit          3D

 51 53  0  0  0  0  0  0  0  0999 V2000
   -3.1140   21.8120  -28.2960 C   0  0  0  0  0  0  0  0  0  0  0  0
   -2.1230   20.7080  -28.6730 C   0  0  0  0  0  0  0  0  0  0  0  0
   -1.9910   20.5380  -30.1290 N   0  0  0  0  0  0  0  0  0  0  0  0
   -0.8710   21.3140  -30.6770 C   0  0  0  0  0  0  0  0  0  0  0  0
   -0.4940   20.7760  -32.0590 C   0  0  0  0  0  0  0  0  0  0  0  0
   -1.3980   19.7570  -32.4490 O   0  0  0  0  0  0  0  0  0  0  0  0
   -2.0230   20.0630  -33.6830 C   0  0  0  0  0  0  0  0  0  0  0  0
   -3.4200   20.6630  -33.4580 C   0  0  0  0  0  0  0  0  0  0  0  0
   -3.7930   20.7320  -32.0310 N   0  0  0  0  0  0  0  0  0  0  0  0
   -5.1970   21.0880  -31.8480 C   0  0  0  0  0  0  0  0  0  0  0  0
   -6.2370   20.1300  -32.0290 C   0  0  0  0  0  0  0  0  0  0  0  0
   -5.9750   18.7860  -32.4090 C   0  0  0  0  0  0  0  0  0  0  0  0
   -7.0000   17.8480  -32.5020 C   0  0  0  0  0  0  0  0  0  0  0  0
   -8.3050   18.2090  -32.2150 C   0  0  0  0  0  0  0  0  0  0  0  0
   -8.6030   19.5240  -31.8750 C   0  0  0  0  0  0  0  0  0  0  0  0
   -7.5930   20.5200  -31.8200 C   0  0  0  0  0  0  0  0  0  0  0  0
   -7.9090   21.8370  -31.5570 N   0  0  0  0  0  0  0  0  0  0  0  0
   -9.3140   22.2960  -31.6610 C   0  0  0  0  0  0  0  0  0  0  0  0
   -6.9170   22.7370  -31.2290 C   0  0  0  0  0  0  0  0  0  0  0  0
   -7.2320   24.0080  -30.6810 C   0  0  0  0  0  0  0  0  0  0  0  0
   -6.2410   24.9490  -30.4230 C   0  0  0  0  0  0  0  0  0  0  0  0
   -4.9150   24.6520  -30.6930 C   0  0  0  0  0  0  0  0  0  0  0  0
   -3.9520   25.5800  -30.4610 F   0  0  0  0  0  0  0  0  0  0  0  0
   -4.5660   23.3950  -31.1820 C   0  0  0  0  0  0  0  0  0  0  0  0
   -5.5490   22.4010  -31.4250 C   0  0  0  0  0  0  0  0  0  0  0  0
   -3.1808   21.8864  -27.2005 H   0  0  0  0  0  0  0  0  0  0  0  0
   -2.7683   22.7715  -28.7083 H   0  0  0  0  0  0  0  0  0  0  0  0
   -4.1051   21.5715  -28.7083 H   0  0  0  0  0  0  0  0  0  0  0  0
   -1.1370   20.9629  -28.2574 H   0  0  0  0  0  0  0  0  0  0  0  0
   -2.5053   19.7625  -28.2608 H   0  0  0  0  0  0  0  0  0  0  0  0
   -1.8500   19.5240  -30.3490 H   0  0  0  0  0  0  0  0  0  0  0  0
   -1.1667   22.3699  -30.7645 H   0  0  0  0  0  0  0  0  0  0  0  0
   -0.0050   21.2258  -30.0046 H   0  0  0  0  0  0  0  0  0  0  0  0
   -0.5323   21.5959  -32.7913 H   0  0  0  0  0  0  0  0  0  0  0  0
    0.5227   20.3581  -32.0172 H   0  0  0  0  0  0  0  0  0  0  0  0
   -1.4034   20.7889  -34.2300 H   0  0  0  0  0  0  0  0  0  0  0  0
   -2.1293   19.1340  -34.2623 H   0  0  0  0  0  0  0  0  0  0  0  0
   -3.4360   21.6810  -33.8745 H   0  0  0  0  0  0  0  0  0  0  0  0
   -4.1462   20.0048  -33.9574 H   0  0  0  0  0  0  0  0  0  0  0  0
   -3.1900   21.4360  -31.5520 H   0  0  0  0  0  0  0  0  0  0  0  0
   -3.5150   19.8590  -31.5380 H   0  0  0  0  0  0  0  0  0  0  0  0
   -4.9425   18.4807  -32.6341 H   0  0  0  0  0  0  0  0  0  0  0  0
   -6.7715   16.8155  -32.8049 H   0  0  0  0  0  0  0  0  0  0  0  0
   -9.1059   17.4561  -32.2558 H   0  0  0  0  0  0  0  0  0  0  0  0
   -9.6429   19.7981  -31.6439 H   0  0  0  0  0  0  0  0  0  0  0  0
   -9.7309   22.4322  -30.6522 H   0  0  0  0  0  0  0  0  0  0  0  0
   -9.3482   23.2520  -32.2040 H   0  0  0  0  0  0  0  0  0  0  0  0
   -9.9060   21.5445  -32.2040 H   0  0  0  0  0  0  0  0  0  0  0  0
   -8.2804   24.2534  -30.4560 H   0  0  0  0  0  0  0  0  0  0  0  0
   -6.5102   25.9299  -30.0042 H   0  0  0  0  0  0  0  0  0  0  0  0
   -3.5085   23.1689  -31.3835 H   0  0  0  0  0  0  0  0  0  0  0  0
  1  2  1  0
  2  3  1  0
  3  4  1  0
  4  5  1  0
  5  6  1  0
  6  7  1  0
  7  8  1  0
  8  9  1  0
  9 10  1  0
 10 11  2  0
 11 12  1  0
 12 13  2  0
 13 14  1  0
 14 15  2  0
 15 16  1  0
 16 17  2  0
 17 18  1  0
 17 19  1  0
 19 20  2  0
 20 21  1  0
 21 22  2  0
 22 23  1  0
 22 24  1  0
 24 25  2  0
 25 10  1  0
 16 11  1  0
 25 19  1  0
  1 26  1  0
  1 27  1  0
  1 28  1  0
  2 29  1  0
  2 30  1  0
  3 31  1  0
  4 32  1  0
  4 33  1  0
  5 34  1  0
  5 35  1  0
  7 36  1  0
  7 37  1  0
  8 38  1  0
  8 39  1  0
  9 40  1  0
  9 41  1  0
 12 42  1  0
 13 43  1  0
 14 44  1  0
 15 45  1  0
 18 46  1  0
 18 47  1  0
 18 48  1  0
 20 49  1  0
 21 50  1  0
 24 51  1  0
M  CHG  2   9   1  17   1
M  END
>  <UniqueID>  (6) 
6

>  <SMILES>  (6) 
CCNCCOCC[NH2+]c1c2ccccc2[n+](C)c2ccc(F)cc12

>  <Energy>  (6) 
81.11395459546071

>  <Genealogy>  (6) 
CCNCCOCC[NH2+]c1c2ccccc2[n+](C)c2ccc(F)cc12 (protonated)
CCNCCOCC[NH2+]c1c2ccccc2[n+](C)c2ccc(F)cc12 (3D coordinates assigned)
CCNCCOCC[NH2+]c1c2ccccc2[n+](C)c2ccc(F)cc12 (optimized conformer: 81.11395459546071 kcal/mol)

>  <smiles>  (6) 
CCNCCOCCNc1c2ccccc2[n+](C)c2ccc(F)cc12

>  <score_type>  (6) 
oracle

>  <origin>  (6) 
adg

>  <m_score__min__energy>  (6) 
-8.6400000000000006

>  <m_primary>  (6) 
energy

$$$$
6:0
     RDKit          3D

 58 61  0  0  0  0  0  0  0  0999 V2000
   -3.0580   21.7760  -27.8830 C   0  0  0  0  0  0  0  0  0  0  0  0
   -3.0660   20.7460  -29.0170 C   0  0  0  0  0  0  0  0  0  0  0  0
   -1.7200   20.5280  -29.6100 N   0  0  0  0  0  0  0  0  0  0  0  0
   -0.6060   20.7370  -28.6380 C   0  0  0  0  0  0  0  0  0  0  0  0
   -0.4720   19.6590  -27.5480 C   0  0  0  0  0  0  0  0  0  0  0  0
   -1.5570   21.3470  -30.8440 C   0  0  0  0  0  0  0  0  0  0  0  0
   -1.8050   20.5520  -32.1420 C   0  0  0  0  0  0  0  0  0  0  0  0
   -2.8830   21.1490  -32.9360 N   0  0  0  0  0  0  0  0  0  0  0  0
   -4.2420   20.7070  -32.8070 C   0  0  0  0  0  0  0  0  0  0  0  0
   -4.6950   19.5150  -33.4240 C   0  0  0  0  0  0  0  0  0  0  0  0
   -3.7890   18.6510  -34.0730 C   0  0  0  0  0  0  0  0  0  0  0  0
   -4.2290   17.4650  -34.6560 C   0  0  0  0  0  0  0  0  0  0  0  0
   -5.5700   17.1070  -34.5880 C   0  0  0  0  0  0  0  0  0  0  0  0
   -6.4900   17.9330  -33.9390 C   0  0  0  0  0  0  0  0  0  0  0  0
   -6.0840   19.1580  -33.3540 C   0  0  0  0  0  0  0  0  0  0  0  0
   -6.9900   19.9870  -32.7090 N   0  0  0  0  0  0  0  0  0  0  0  0
   -8.4380   19.7050  -32.7250 C   0  0  0  0  0  0  0  0  0  0  0  0
   -6.5050   21.0740  -32.0290 C   0  0  0  0  0  0  0  0  0  0  0  0
   -7.2240   21.9240  -31.2520 N   0  0  0  0  0  0  0  0  0  0  0  0
   -6.3330   22.8300  -30.8060 C   0  0  0  0  0  0  0  0  0  0  0  0
   -6.5960   23.9080  -29.9640 C   0  0  0  0  0  0  0  0  0  0  0  0
   -5.5240   24.7400  -29.5980 C   0  0  0  0  0  0  0  0  0  0  0  0
   -4.2100   24.4740  -30.0660 C   0  0  0  0  0  0  0  0  0  0  0  0
   -3.1140   25.2780  -29.7210 O   0  0  0  0  0  0  0  0  0  0  0  0
   -2.1260   24.9220  -28.7590 C   0  0  0  0  0  0  0  0  0  0  0  0
   -3.9800   23.3690  -30.9060 C   0  0  0  0  0  0  0  0  0  0  0  0
   -5.0650   22.5700  -31.2750 C   0  0  0  0  0  0  0  0  0  0  0  0
   -5.1720   21.4350  -32.0630 C   0  0  0  0  0  0  0  0  0  0  0  0
   -3.0620   21.2549  -26.9143 H   0  0  0  0  0  0  0  0  0  0  0  0
   -2.1550   22.3994  -27.9602 H   0  0  0  0  0  0  0  0  0  0  0  0
   -3.9512   22.4133  -27.9602 H   0  0  0  0  0  0  0  0  0  0  0  0
   -3.4335   19.7886  -28.6190 H   0  0  0  0  0  0  0  0  0  0  0  0
   -3.7180   21.1359  -29.8125 H   0  0  0  0  0  0  0  0  0  0  0  0
   -1.6780   19.5210  -29.8940 H   0  0  0  0  0  0  0  0  0  0  0  0
    0.3370   20.7672  -29.2035 H   0  0  0  0  0  0  0  0  0  0  0  0
   -0.8348   21.6750  -28.1110 H   0  0  0  0  0  0  0  0  0  0  0  0
   -0.5307   20.1311  -26.5562 H   0  0  0  0  0  0  0  0  0  0  0  0
   -1.2861   18.9269  -27.6543 H   0  0  0  0  0  0  0  0  0  0  0  0
    0.4965   19.1485  -27.6543 H   0  0  0  0  0  0  0  0  0  0  0  0
   -2.2710   22.1829  -30.8049 H   0  0  0  0  0  0  0  0  0  0  0  0
   -0.5133   21.6936  -30.8690 H   0  0  0  0  0  0  0  0  0  0  0  0
   -0.8816   20.5452  -32.7397 H   0  0  0  0  0  0  0  0  0  0  0  0
   -2.1009   19.5280  -31.8701 H   0  0  0  0  0  0  0  0  0  0  0  0
   -2.6500   21.8690  -33.6560 H   0  0  0  0  0  0  0  0  0  0  0  0
   -2.7226   18.9167  -34.1194 H   0  0  0  0  0  0  0  0  0  0  0  0
   -3.5123   16.8093  -35.1722 H   0  0  0  0  0  0  0  0  0  0  0  0
   -5.9089   16.1671  -35.0483 H   0  0  0  0  0  0  0  0  0  0  0  0
   -7.5453   17.6282  -33.8811 H   0  0  0  0  0  0  0  0  0  0  0  0
   -8.8089   19.6328  -31.6919 H   0  0  0  0  0  0  0  0  0  0  0  0
   -8.9641   20.5176  -33.2475 H   0  0  0  0  0  0  0  0  0  0  0  0
   -8.6207   18.7544  -33.2475 H   0  0  0  0  0  0  0  0  0  0  0  0
   -8.2360   21.8940  -31.0030 H   0  0  0  0  0  0  0  0  0  0  0  0
   -7.6141   24.1027  -29.5959 H   0  0  0  0  0  0  0  0  0  0  0  0
   -5.7045   25.6051  -28.9430 H   0  0  0  0  0  0  0  0  0  0  0  0
   -2.5307   25.0678  -27.7466 H   0  0  0  0  0  0  0  0  0  0  0  0
   -1.8466   23.8666  -28.8937 H   0  0  0  0  0  0  0  0  0  0  0  0
   -1.2376   25.5566  -28.8937 H   0  0  0  0  0  0  0  0  0  0  0  0
   -2.9661   23.1388  -31.2651 H   0  0  0  0  0  0  0  0  0  0  0  0
  1  2  1  0
  2  3  1  0
  3  4  1  0
  4  5  1  0
  3  6  1  0
  6  7  1  0
  7  8  1  0
  8  9  1  0
  9 10  2  0
 10 11  1  0
 11 12  2  0
 12 13  1  0
 13 14  2  0
 14 15  1  0
 15 16  2  0
 16 17  1  0
 16 18  1  0
 18 19  1  0
 19 20  1  0
 20 21  2  0
 21 22  1  0
 22 23  2  0
 23 24  1  0
 24 25  1  0
 23 26  1  0
 26 27  2  0
 27 28  1  0
 28  9  1  0
 15 10  1  0
 28 18  2  0
 27 20  1  0
  1 29  1  0
  1 30  1  0
  1 31  1  0
  2 32  1  0
  2 33  1  0
  3 34  1  0
  4 35  1  0
  4 36  1  0
  5 37  1  0
  5 38  1  0
  5 39  1  0
  6 40  1  0
  6 41  1  0
  7 42  1  0
  7 43  1  0
  8 44  1  0
 11 45  1  0
 12 46  1  0
 13 47  1  0
 14 48  1  0
 17 49  1  0
 17 50  1  0
 17 51  1  0
 19 52  1  0
 21 53  1  0
 22 54  1  0
 25 55  1  0
 25 56  1  0
 25 57  1  0
 26 58  1  0
M  CHG  2   3   1  16   1
M  END
>  <UniqueID>  (7) 
7

>  <SMILES>  (7) 
CC[NH+](CC)CCNc1c2ccccc2[n+](C)c2[nH]c3ccc(OC)cc3c12

>  <Energy>  (7) 
120.48198070237754

>  <Genealogy>  (7) 
CC[NH+](CC)CCNc1c2ccccc2[n+](C)c2[nH]c3ccc(OC)cc3c12 (protonated)
CC[NH+](CC)CCNc1c2ccccc2[n+](C)c2[nH]c3ccc(OC)cc3c12 (3D coordinates assigned)
CC[NH+](CC)CCNc1c2ccccc2[n+](C)c2[nH]c3ccc(OC)cc3c12 (optimized conformer: 120.48198070237754 kcal/mol)

>  <smiles>  (7) 
CCN(CC)CCNc1c2ccccc2[n+](C)c2[nH]c3ccc(OC)cc3c12

>  <score_type>  (7) 
oracle

>  <origin>  (7) 
adg

>  <m_score__min__energy>  (7) 
-8.0999999999999996

>  <m_primary>  (7) 
energy

$$$$
7:0
     RDKit          3D

 47 49  0  0  0  0  0  0  0  0999 V2000
   -5.3890   24.9070  -28.8340 C   0  0  0  0  0  0  0  0  0  0  0  0
   -5.6460   25.3240  -30.2810 C   0  0  0  0  0  0  0  0  0  0  0  0
   -4.5820   24.8370  -31.1700 N   0  0  0  0  0  0  0  0  0  0  0  0
   -3.5500   24.0600  -30.4600 C   0  0  0  0  0  0  0  0  0  0  0  0
   -3.7350   22.5670  -30.7390 C   0  0  0  0  0  0  0  0  0  0  0  0
   -4.7010   22.3460  -31.8160 N   0  0  0  0  0  0  0  0  0  0  0  0
   -4.9360   21.0230  -32.3190 C   0  0  0  0  0  0  0  0  0  0  0  0
   -3.8700   20.3160  -32.9020 C   0  0  0  0  0  0  0  0  0  0  0  0
   -2.5750   20.8790  -32.9540 C   0  0  0  0  0  0  0  0  0  0  0  0
   -1.5330   20.2110  -33.5940 C   0  0  0  0  0  0  0  0  0  0  0  0
    0.0620   20.9380  -33.6670 Cl  0  0  0  0  0  0  0  0  0  0  0  0
   -1.7640   18.9770  -34.1940 C   0  0  0  0  0  0  0  0  0  0  0  0
   -3.0280   18.3930  -34.1310 C   0  0  0  0  0  0  0  0  0  0  0  0
   -4.0980   19.0290  -33.4500 C   0  0  0  0  0  0  0  0  0  0  0  0
   -5.3400   18.4370  -33.3310 N   0  0  0  0  0  0  0  0  0  0  0  0
   -5.5000   16.9970  -33.6360 C   0  0  0  0  0  0  0  0  0  0  0  0
   -6.4250   19.1750  -32.8940 C   0  0  0  0  0  0  0  0  0  0  0  0
   -7.7460   18.6840  -33.0240 C   0  0  0  0  0  0  0  0  0  0  0  0
   -8.8310   19.3910  -32.5230 C   0  0  0  0  0  0  0  0  0  0  0  0
   -8.6390   20.6030  -31.8800 C   0  0  0  0  0  0  0  0  0  0  0  0
   -7.3540   21.1590  -31.7620 C   0  0  0  0  0  0  0  0  0  0  0  0
   -7.1700   22.3830  -31.0960 O   0  0  0  0  0  0  0  0  0  0  0  0
   -7.5930   22.6670  -29.7660 C   0  0  0  0  0  0  0  0  0  0  0  0
   -6.2360   20.4660  -32.3160 C   0  0  0  0  0  0  0  0  0  0  0  0
   -5.8427   25.6432  -28.1542 H   0  0  0  0  0  0  0  0  0  0  0  0
   -5.8342   23.9176  -28.6530 H   0  0  0  0  0  0  0  0  0  0  0  0
   -4.3050   24.8600  -28.6530 H   0  0  0  0  0  0  0  0  0  0  0  0
   -6.6084   24.9050  -30.6099 H   0  0  0  0  0  0  0  0  0  0  0  0
   -5.6653   26.4228  -30.3293 H   0  0  0  0  0  0  0  0  0  0  0  0
   -4.1230   25.6760  -31.5960 H   0  0  0  0  0  0  0  0  0  0  0  0
   -2.5545   24.3747  -30.8062 H   0  0  0  0  0  0  0  0  0  0  0  0
   -3.6428   24.2396  -29.3787 H   0  0  0  0  0  0  0  0  0  0  0  0
   -2.7669   22.1338  -31.0307 H   0  0  0  0  0  0  0  0  0  0  0  0
   -4.1153   22.0863  -29.8256 H   0  0  0  0  0  0  0  0  0  0  0  0
   -5.2850   23.1300  -32.1870 H   0  0  0  0  0  0  0  0  0  0  0  0
   -2.3874   21.8556  -32.4839 H   0  0  0  0  0  0  0  0  0  0  0  0
   -0.9469   18.4610  -34.7194 H   0  0  0  0  0  0  0  0  0  0  0  0
   -3.1991   17.4216  -34.6180 H   0  0  0  0  0  0  0  0  0  0  0  0
   -5.5632   16.4281  -32.6967 H   0  0  0  0  0  0  0  0  0  0  0  0
   -6.4205   16.8457  -34.2190 H   0  0  0  0  0  0  0  0  0  0  0  0
   -4.6352   16.6474  -34.2190 H   0  0  0  0  0  0  0  0  0  0  0  0
   -7.9166   17.7233  -33.5320 H   0  0  0  0  0  0  0  0  0  0  0  0
   -9.8477   18.9869  -32.6372 H   0  0  0  0  0  0  0  0  0  0  0  0
   -9.5029   21.1365  -31.4568 H   0  0  0  0  0  0  0  0  0  0  0  0
   -6.8978   22.2003  -29.0526 H   0  0  0  0  0  0  0  0  0  0  0  0
   -7.6033   23.7557  -29.6091 H   0  0  0  0  0  0  0  0  0  0  0  0
   -8.6046   22.2644  -29.6091 H   0  0  0  0  0  0  0  0  0  0  0  0
  1  2  1  0
  2  3  1  0
  3  4  1  0
  4  5  1  0
  5  6  1  0
  6  7  1  0
  7  8  2  0
  8  9  1  0
  9 10  2  0
 10 11  1  0
 10 12  1  0
 12 13  2  0
 13 14  1  0
 14 15  2  0
 15 16  1  0
 15 17  1  0
 17 18  2  0
 18 19  1  0
 19 20  2  0
 20 21  1  0
 21 22  1  0
 22 23  1  0
 21 24  2  0
 24  7  1  0
 14  8  1  0
 24 17  1  0
  1 25  1  0
  1 26  1  0
  1 27  1  0
  2 28  1  0
  2 29  1  0
  3 30  1  0
  4 31  1  0
  4 32  1  0
  5 33  1  0
  5 34  1  0
  6 35  1  0
  9 36  1  0
 12 37  1  0
 13 38  1  0
 16 39  1  0
 16 40  1  0
 16 41  1  0
 18 42  1  0
 19 43  1  0
 20 44  1  0
 23 45  1  0
 23 46  1  0
 23 47  1  0
M  CHG  1  15   1
M  END
>  <UniqueID>  (8) 
8

>  <SMILES>  (8) 
CCNCCNc1c2cc(Cl)ccc2[n+](C)c2cccc(OC)c12

>  <Energy>  (8) 
73.48502344968553

>  <Genealogy>  (8) 
CCNCCNc1c2cc(Cl)ccc2[n+](C)c2cccc(OC)c12 (3D coordinates assigned)
CCNCCNc1c2cc(Cl)ccc2[n+](C)c2cccc(OC)c12 (optimized conformer: 73.48502344968553 kcal/mol)

>  <smiles>  (8) 
CCNCCNc1c2cc(Cl)ccc2[n+](C)c2cccc(OC)c12

>  <score_type>  (8) 
oracle

>  <origin>  (8) 
adg

>  <m_score__min__energy>  (8) 
-7.8300000000000001

>  <m_primary>  (8) 
energy

$$$$
8:0
     RDKit          3D

 55 58  0  0  0  0  0  0  0  0999 V2000
   -6.4600   24.8830  -30.0900 C   0  0  0  0  0  0  0  0  0  0  0  0
   -5.1260   25.5000  -30.4940 C   0  0  0  0  0  0  0  0  0  0  0  0
   -4.0780   24.4460  -30.5190 N   0  0  0  0  0  0  0  0  0  0  0  0
   -3.1720   24.5450  -29.3520 C   0  0  0  0  0  0  0  0  0  0  0  0
   -3.8980   24.1520  -28.0660 C   0  0  0  0  0  0  0  0  0  0  0  0
   -4.6600   23.0870  -30.6130 C   0  0  0  0  0  0  0  0  0  0  0  0
   -3.5600   22.0340  -30.8110 C   0  0  0  0  0  0  0  0  0  0  0  0
   -3.0660   21.9980  -32.2580 C   0  0  0  0  0  0  0  0  0  0  0  0
   -4.1760   21.7060  -33.1640 N   0  0  0  0  0  0  0  0  0  0  0  0
   -4.7050   20.3770  -33.2790 C   0  0  0  0  0  0  0  0  0  0  0  0
   -3.8920   19.2930  -33.6890 C   0  0  0  0  0  0  0  0  0  0  0  0
   -2.5120   19.4460  -33.9040 C   0  0  0  0  0  0  0  0  0  0  0  0
   -1.7390   18.3600  -34.3100 C   0  0  0  0  0  0  0  0  0  0  0  0
   -2.3410   17.1180  -34.4900 C   0  0  0  0  0  0  0  0  0  0  0  0
   -3.6710   16.9670  -34.2650 N   0  0  0  0  0  0  0  0  0  0  0  0
   -4.4700   17.9980  -33.8670 C   0  0  0  0  0  0  0  0  0  0  0  0
   -5.8140   17.7880  -33.6370 N   0  0  0  0  0  0  0  0  0  0  0  0
   -6.4430   16.4710  -33.8220 C   0  0  0  0  0  0  0  0  0  0  0  0
   -6.5740   18.8400  -33.2080 C   0  0  0  0  0  0  0  0  0  0  0  0
   -7.9010   18.8010  -32.9380 N   0  0  0  0  0  0  0  0  0  0  0  0
   -8.2190   20.0590  -32.5760 C   0  0  0  0  0  0  0  0  0  0  0  0
   -9.4820   20.5230  -32.2100 C   0  0  0  0  0  0  0  0  0  0  0  0
   -9.6120   21.8790  -31.8650 C   0  0  0  0  0  0  0  0  0  0  0  0
   -8.4900   22.7330  -31.8850 C   0  0  0  0  0  0  0  0  0  0  0  0
   -7.2240   22.2410  -32.2530 C   0  0  0  0  0  0  0  0  0  0  0  0
   -7.1180   20.8930  -32.6050 C   0  0  0  0  0  0  0  0  0  0  0  0
   -6.0520   20.1060  -33.0180 C   0  0  0  0  0  0  0  0  0  0  0  0
   -6.5314   24.8500  -28.9928 H   0  0  0  0  0  0  0  0  0  0  0  0
   -7.2827   25.4921  -30.4928 H   0  0  0  0  0  0  0  0  0  0  0  0
   -6.5286   23.8617  -30.4928 H   0  0  0  0  0  0  0  0  0  0  0  0
   -5.2179   25.9491  -31.4940 H   0  0  0  0  0  0  0  0  0  0  0  0
   -4.8467   26.2766  -29.7667 H   0  0  0  0  0  0  0  0  0  0  0  0
   -2.3152   23.8717  -29.5025 H   0  0  0  0  0  0  0  0  0  0  0  0
   -2.8294   25.5861  -29.2592 H   0  0  0  0  0  0  0  0  0  0  0  0
   -3.3047   24.4732  -27.1972 H   0  0  0  0  0  0  0  0  0  0  0  0
   -4.8835   24.6398  -28.0376 H   0  0  0  0  0  0  0  0  0  0  0  0
   -4.0284   23.0601  -28.0376 H   0  0  0  0  0  0  0  0  0  0  0  0
   -5.2088   22.8650  -29.6859 H   0  0  0  0  0  0  0  0  0  0  0  0
   -5.3390   23.0538  -31.4778 H   0  0  0  0  0  0  0  0  0  0  0  0
   -2.7134   22.2743  -30.1511 H   0  0  0  0  0  0  0  0  0  0  0  0
   -3.9815   21.0475  -30.5677 H   0  0  0  0  0  0  0  0  0  0  0  0
   -2.6321   22.9748  -32.5181 H   0  0  0  0  0  0  0  0  0  0  0  0
   -2.3049   21.2101  -32.3577 H   0  0  0  0  0  0  0  0  0  0  0  0
   -4.4390   22.4170  -33.8810 H   0  0  0  0  0  0  0  0  0  0  0  0
   -2.0396   20.4276  -33.7511 H   0  0  0  0  0  0  0  0  0  0  0  0
   -0.6604   18.4834  -34.4870 H   0  0  0  0  0  0  0  0  0  0  0  0
   -1.7379   16.2574  -34.8151 H   0  0  0  0  0  0  0  0  0  0  0  0
   -6.6560   16.0251  -32.8392 H   0  0  0  0  0  0  0  0  0  0  0  0
   -7.3821   16.5887  -34.3825 H   0  0  0  0  0  0  0  0  0  0  0  0
   -5.7612   15.8145  -34.3825 H   0  0  0  0  0  0  0  0  0  0  0  0
   -8.5490   17.9840  -32.9990 H   0  0  0  0  0  0  0  0  0  0  0  0
  -10.3503   19.8480  -32.1919 H   0  0  0  0  0  0  0  0  0  0  0  0
  -10.5962   22.2772  -31.5772 H   0  0  0  0  0  0  0  0  0  0  0  0
   -8.6053   23.7920  -31.6108 H   0  0  0  0  0  0  0  0  0  0  0  0
   -6.3427   22.8991  -32.2632 H   0  0  0  0  0  0  0  0  0  0  0  0
  1  2  1  0
  2  3  1  0
  3  4  1  0
  4  5  1  0
  3  6  1  0
  6  7  1  0
  7  8  1  0
  8  9  1  0
  9 10  1  0
 10 11  2  0
 11 12  1  0
 12 13  2  0
 13 14  1  0
 14 15  2  0
 15 16  1  0
 16 17  2  0
 17 18  1  0
 17 19  1  0
 19 20  1  0
 20 21  1  0
 21 22  2  0
 22 23  1  0
 23 24  2  0
 24 25  1  0
 25 26  2  0
 26 27  1  0
 27 10  1  0
 16 11  1  0
 27 19  2  0
 26 21  1  0
  1 28  1  0
  1 29  1  0
  1 30  1  0
  2 31  1  0
  2 32  1  0
  4 33  1  0
  4 34  1  0
  5 35  1  0
  5 36  1  0
  5 37  1  0
  6 38  1  0
  6 39  1  0
  7 40  1  0
  7 41  1  0
  8 42  1  0
  8 43  1  0
  9 44  1  0
 12 45  1  0
 13 46  1  0
 14 47  1  0
 18 48  1  0
 18 49  1  0
 18 50  1  0
 20 51  1  0
 22 52  1  0
 23 53  1  0
 24 54  1  0
 25 55  1  0
M  CHG  1  17   1
M  END
>  <UniqueID>  (9) 
9

>  <SMILES>  (9) 
CCN(CC)CCCNc1c2cccnc2[n+](C)c2[nH]c3ccccc3c12

>  <Energy>  (9) 
107.1605070990646

>  <Genealogy>  (9) 
CCN(CC)CCCNc1c2cccnc2[n+](C)c2[nH]c3ccccc3c12 (3D coordinates assigned)
CCN(CC)CCCNc1c2cccnc2[n+](C)c2[nH]c3ccccc3c12 (optimized conformer: 107.1605070990646 kcal/mol)

>  <smiles>  (9) 
CCN(CC)CCCNc1c2cccnc2[n+](C)c2[nH]c3ccccc3c12

>  <score_type>  (9) 
oracle

>  <origin>  (9) 
adg

>  <m_score__min__energy>  (9) 
-9.1199999999999992

>  <m_primary>  (9) 
energy

$$$$
9:0
     RDKit          3D

 52 55  0  0  0  0  0  0  0  0999 V2000
   -0.1910   18.9010  -28.2090 C   0  0  0  0  0  0  0  0  0  0  0  0
   -0.0070   20.2530  -28.6190 O   0  0  0  0  0  0  0  0  0  0  0  0
   -1.0200   21.0640  -29.1520 C   0  0  0  0  0  0  0  0  0  0  0  0
   -0.8080   22.4470  -29.1940 C   0  0  0  0  0  0  0  0  0  0  0  0
   -1.7830   23.3040  -29.7120 C   0  0  0  0  0  0  0  0  0  0  0  0
   -2.9940   22.7810  -30.1990 C   0  0  0  0  0  0  0  0  0  0  0  0
   -4.0030   23.5980  -30.7310 C   0  0  0  0  0  0  0  0  0  0  0  0
   -3.8600   24.8480  -30.8010 O   0  0  0  0  0  0  0  0  0  0  0  0
   -5.1830   23.0130  -31.1920 C   0  0  0  0  0  0  0  0  0  0  0  0
   -5.3390   21.6210  -31.1040 C   0  0  0  0  0  0  0  0  0  0  0  0
   -6.5830   20.9570  -31.5490 C   0  0  0  0  0  0  0  0  0  0  0  0
   -7.7500   21.7240  -31.7000 C   0  0  0  0  0  0  0  0  0  0  0  0
   -8.9300   21.1350  -32.1600 C   0  0  0  0  0  0  0  0  0  0  0  0
  -10.0550   21.8820  -32.2900 F   0  0  0  0  0  0  0  0  0  0  0  0
   -8.9540   19.7780  -32.4870 C   0  0  0  0  0  0  0  0  0  0  0  0
   -7.7950   19.0070  -32.3650 C   0  0  0  0  0  0  0  0  0  0  0  0
   -7.8310   17.6900  -32.6880 F   0  0  0  0  0  0  0  0  0  0  0  0
   -6.6030   19.5920  -31.9090 C   0  0  0  0  0  0  0  0  0  0  0  0
   -5.4370   18.8230  -31.8330 O   0  0  0  0  0  0  0  0  0  0  0  0
   -5.1140   17.8340  -32.8060 C   0  0  0  0  0  0  0  0  0  0  0  0
   -3.6770   18.0490  -33.3170 C   0  0  0  0  0  0  0  0  0  0  0  0
   -3.0210   19.2250  -32.6930 N   0  0  0  0  0  0  0  0  0  0  0  0
   -3.1770   20.4110  -33.5760 C   0  0  0  0  0  0  0  0  0  0  0  0
   -2.2260   21.5490  -33.1970 C   0  0  0  0  0  0  0  0  0  0  0  0
   -0.4910   21.1450  -33.6190 S   0  0  0  0  0  0  0  0  0  0  0  0
   -0.6040   19.3270  -33.4270 C   0  0  0  0  0  0  0  0  0  0  0  0
   -1.6020   18.9370  -32.3310 C   0  0  0  0  0  0  0  0  0  0  0  0
   -4.3550   20.8740  -30.6090 O   0  0  0  0  0  0  0  0  0  0  0  0
   -3.2130   21.3870  -30.1590 C   0  0  0  0  0  0  0  0  0  0  0  0
   -2.2310   20.5370  -29.6400 C   0  0  0  0  0  0  0  0  0  0  0  0
   -0.1981   18.8488  -27.1103 H   0  0  0  0  0  0  0  0  0  0  0  0
   -1.1484   18.5263  -28.6001 H   0  0  0  0  0  0  0  0  0  0  0  0
    0.6315   18.2841  -28.6001 H   0  0  0  0  0  0  0  0  0  0  0  0
    0.1367   22.8641  -28.8150 H   0  0  0  0  0  0  0  0  0  0  0  0
   -1.6028   24.3888  -29.7387 H   0  0  0  0  0  0  0  0  0  0  0  0
   -5.9823   23.6361  -31.6197 H   0  0  0  0  0  0  0  0  0  0  0  0
   -7.7345   22.7961  -31.4543 H   0  0  0  0  0  0  0  0  0  0  0  0
   -9.8868   19.3150  -32.8413 H   0  0  0  0  0  0  0  0  0  0  0  0
   -5.1936   16.8356  -32.3512 H   0  0  0  0  0  0  0  0  0  0  0  0
   -5.8141   17.9155  -33.6506 H   0  0  0  0  0  0  0  0  0  0  0  0
   -3.0835   17.1516  -33.0883 H   0  0  0  0  0  0  0  0  0  0  0  0
   -3.7318   18.2330  -34.4001 H   0  0  0  0  0  0  0  0  0  0  0  0
   -3.5290   19.4490  -31.8040 H   0  0  0  0  0  0  0  0  0  0  0  0
   -2.9707   20.1088  -34.6134 H   0  0  0  0  0  0  0  0  0  0  0  0
   -4.2064   20.7816  -33.4616 H   0  0  0  0  0  0  0  0  0  0  0  0
   -2.5231   22.4584  -33.7399 H   0  0  0  0  0  0  0  0  0  0  0  0
   -2.2891   21.7028  -32.1096 H   0  0  0  0  0  0  0  0  0  0  0  0
   -0.9308   18.8868  -34.3806 H   0  0  0  0  0  0  0  0  0  0  0  0
    0.3882   18.9488  -33.1397 H   0  0  0  0  0  0  0  0  0  0  0  0
   -1.5034   17.8587  -32.1370 H   0  0  0  0  0  0  0  0  0  0  0  0
   -1.3635   19.5421  -31.4438 H   0  0  0  0  0  0  0  0  0  0  0  0
   -2.4057   19.4513  -29.6129 H   0  0  0  0  0  0  0  0  0  0  0  0
  1  2  1  0
  2  3  1  0
  3  4  2  0
  4  5  1  0
  5  6  2  0
  6  7  1  0
  7  8  2  0
  7  9  1  0
  9 10  2  0
 10 11  1  0
 11 12  2  0
 12 13  1  0
 13 14  1  0
 13 15  2  0
 15 16  1  0
 16 17  1  0
 16 18  2  0
 18 19  1  0
 19 20  1  0
 20 21  1  0
 21 22  1  0
 22 23  1  0
 23 24  1  0
 24 25  1  0
 25 26  1  0
 26 27  1  0
 10 28  1  0
 28 29  1  0
 29 30  2  0
 30  3  1  0
 29  6  1  0
 18 11  1  0
 27 22  1  0
  1 31  1  0
  1 32  1  0
  1 33  1  0
  4 34  1  0
  5 35  1  0
  9 36  1  0
 12 37  1  0
 15 38  1  0
 20 39  1  0
 20 40  1  0
 21 41  1  0
 21 42  1  0
 22 43  1  0
 23 44  1  0
 23 45  1  0
 24 46  1  0
 24 47  1  0
 26 48  1  0
 26 49  1  0
 27 50  1  0
 27 51  1  0
 30 52  1  0
M  CHG  1  22   1
M  END
>  <UniqueID>  (10) 
10

>  <SMILES>  (10) 
COc1ccc2c(=O)cc(-c3cc(F)cc(F)c3OCC[NH+]3CCSCC3)oc2c1

>  <Energy>  (10) 
75.65376426500622

>  <Genealogy>  (10) 
COc1ccc2c(=O)cc(-c3cc(F)cc(F)c3OCC[NH+]3CCSCC3)oc2c1 (protonated)
COc1ccc2c(=O)cc(-c3cc(F)cc(F)c3OCC[NH+]3CCSCC3)oc2c1 (3D coordinates assigned)
COc1ccc2c(=O)cc(-c3cc(F)cc(F)c3OCC[NH+]3CCSCC3)oc2c1 (nonaromatic ring conformer: 75.65376426500622 kcal/mol)

>  <smiles>  (10) 
COc1ccc2c(=O)cc(-c3cc(F)cc(F)c3OCCN3CCSCC3)oc2c1

>  <score_type>  (10) 
oracle

>  <origin>  (10) 
adg

>  <m_score__min__energy>  (10) 
-7.54

>  <m_primary>  (10) 
energy

$$$$
10:0
     RDKit          3D

 38 40  0  0  0  0  0  0  0  0999 V2000
   -8.4564   23.9456  -31.7981 H   0  0  0  0  0  0  0  0  0  0  0  0
   -8.2210   22.8720  -31.8420 C   0  0  0  0  0  0  0  0  0  0  0  0
   -9.1720   21.9280  -31.3970 C   0  0  0  0  0  0  0  0  0  0  0  0
  -10.1431   22.2709  -31.0105 H   0  0  0  0  0  0  0  0  0  0  0  0
   -8.8850   20.5510  -31.4450 C   0  0  0  0  0  0  0  0  0  0  0  0
   -9.6162   19.8066  -31.0969 H   0  0  0  0  0  0  0  0  0  0  0  0
   -7.6440   20.1600  -31.9480 C   0  0  0  0  0  0  0  0  0  0  0  0
   -6.7220   21.0780  -32.3850 C   0  0  0  0  0  0  0  0  0  0  0  0
   -6.9750   22.4510  -32.3410 C   0  0  0  0  0  0  0  0  0  0  0  0
   -6.2251   23.1786  -32.6850 H   0  0  0  0  0  0  0  0  0  0  0  0
   -5.6120   20.3670  -32.8000 C   0  0  0  0  0  0  0  0  0  0  0  0
   -4.2970   20.9340  -33.2670 C   0  0  2  0  0  0  0  0  0  0  0  0
   -4.5733   21.5473  -34.1373 H   0  0  0  0  0  0  0  0  0  0  0  0
   -3.2860   19.8710  -33.5410 C   0  0  0  0  0  0  0  0  0  0  0  0
   -3.3990   19.0040  -34.4470 O   0  0  0  0  0  0  0  0  0  0  0  0
   -2.1600   19.9350  -32.6750 N   0  0  0  0  0  0  0  0  0  0  0  0
   -2.3240   20.9430  -31.8840 C   0  0  0  0  0  0  0  0  0  0  0  0
   -1.1480   21.2860  -30.6290 Cl  0  0  0  0  0  0  0  0  0  0  0  0
   -3.5940   21.6450  -32.1600 C   0  0  0  0  0  0  0  0  0  0  0  0
   -4.0720   22.7250  -31.6070 N   0  0  0  0  0  0  0  0  0  0  0  0
   -4.4470   22.9370  -30.2120 C   0  0  0  0  0  0  0  0  0  0  0  0
   -4.1673   22.0505  -29.6238 H   0  0  0  0  0  0  0  0  0  0  0  0
   -5.5331   23.1025  -30.1582 H   0  0  0  0  0  0  0  0  0  0  0  0
   -3.7320   24.1650  -29.6420 C   0  0  0  0  0  0  0  0  0  0  0  0
   -2.6548   23.9548  -29.5685 H   0  0  0  0  0  0  0  0  0  0  0  0
   -4.1444   24.3862  -28.6465 H   0  0  0  0  0  0  0  0  0  0  0  0
   -3.9310   25.2880  -30.4790 O   0  0  0  0  0  0  0  0  0  0  0  0
   -5.3010   25.4750  -30.7790 C   0  0  0  0  0  0  0  0  0  0  0  0
   -5.6651   24.6144  -31.3594 H   0  0  0  0  0  0  0  0  0  0  0  0
   -5.4141   26.4011  -31.3618 H   0  0  0  0  0  0  0  0  0  0  0  0
   -6.1180   25.5970  -29.4960 C   0  0  0  0  0  0  0  0  0  0  0  0
   -5.4519   25.4975  -28.6263 H   0  0  0  0  0  0  0  0  0  0  0  0
   -6.6129   26.5790  -29.4684 H   0  0  0  0  0  0  0  0  0  0  0  0
   -6.8782   24.8024  -29.4684 H   0  0  0  0  0  0  0  0  0  0  0  0
   -5.9180   19.0270  -32.5610 C   0  0  0  0  0  0  0  0  0  0  0  0
   -5.2394   18.1841  -32.7588 H   0  0  0  0  0  0  0  0  0  0  0  0
   -7.1660   18.9090  -32.0520 N   0  0  0  0  0  0  0  0  0  0  0  0
   -7.6480   18.0250  -31.7750 H   0  0  0  0  0  0  0  0  0  0  0  0
  1  2  1  0
  2  3  2  0
  3  4  1  0
  3  5  1  0
  5  6  1  0
  5  7  2  0
  7  8  1  0
  8  9  2  0
  9 10  1  0
  8 11  1  0
 11 12  1  0
 12 13  1  6
 12 14  1  0
 14 15  2  0
 14 16  1  0
 16 17  2  0
 17 18  1  0
 17 19  1  0
 19 20  2  0
 20 21  1  0
 21 22  1  0
 21 23  1  0
 21 24  1  0
 24 25  1  0
 24 26  1  0
 24 27  1  0
 27 28  1  0
 28 29  1  0
 28 30  1  0
 28 31  1  0
 31 32  1  0
 31 33  1  0
 31 34  1  0
 11 35  2  0
 35 36  1  0
 35 37  1  0
 37 38  1  0
  9  2  1  0
 19 12  1  0
 37  7  1  0
M  END
>  <UniqueID>  (11) 
11

>  <SMILES>  (11) 
CCOCC/N=C1\C(Cl)=NC(=O)[C@H]1c1c[nH]c2ccccc12

>  <Energy>  (11) 
90.27219350005929

>  <Genealogy>  (11) 
CCOCCN=C1C(Cl)=NC(=O)[C@H]1c1c[nH]c2ccccc12 (chirality)
CCOCC/N=C1\C(Cl)=NC(=O)[C@H]1c1c[nH]c2ccccc12 (cis-trans isomerization)
CCOCC/N=C1\C(Cl)=NC(=O)[C@H]1c1c[nH]c2ccccc12 (3D coordinates assigned)
CCOCC/N=C1\C(Cl)=NC(=O)[C@H]1c1c[nH]c2ccccc12 (nonaromatic ring conformer: 90.27219350005929 kcal/mol)

>  <smiles>  (11) 
CCOCCN=C1C(Cl)=NC(=O)C1c1c[nH]c2ccccc12

>  <score_type>  (11) 
oracle

>  <origin>  (11) 
adg

>  <m_score__min__energy>  (11) 
-8.1999999999999993

>  <m_primary>  (11) 
energy

$$$$
11:0
     RDKit          3D

 46 48  0  0  0  0  0  0  0  0999 V2000
   -6.8850   16.3840  -33.9850 C   0  0  0  0  0  0  0  0  0  0  0  0
   -5.8290   17.4260  -33.7060 C   0  0  0  0  0  0  0  0  0  0  0  0
   -4.5370   17.1530  -34.1810 C   0  0  0  0  0  0  0  0  0  0  0  0
   -3.5660   18.1450  -34.2150 C   0  0  0  0  0  0  0  0  0  0  0  0
   -3.8760   19.4370  -33.8100 C   0  0  0  0  0  0  0  0  0  0  0  0
   -5.1440   19.7390  -33.2770 C   0  0  0  0  0  0  0  0  0  0  0  0
   -5.4770   21.0600  -32.9220 C   0  0  0  0  0  0  0  0  0  0  0  0
   -4.4970   22.1080  -33.0040 N   0  0  0  0  0  0  0  0  0  0  0  0
   -3.5080   22.3160  -31.9460 C   0  0  0  0  0  0  0  0  0  0  0  0
   -4.1770   22.8580  -30.6780 C   0  0  0  0  0  0  0  0  0  0  0  0
   -3.8900   24.2990  -30.5110 N   0  0  0  0  0  0  0  0  0  0  0  0
   -3.1270   24.5470  -29.2740 C   0  0  0  0  0  0  0  0  0  0  0  0
   -5.1450   25.0670  -30.4710 C   0  0  0  0  0  0  0  0  0  0  0  0
   -6.7930   21.3570  -32.5340 C   0  0  0  0  0  0  0  0  0  0  0  0
   -7.2090   22.6900  -32.3350 C   0  0  0  0  0  0  0  0  0  0  0  0
   -8.5120   22.9730  -31.9300 C   0  0  0  0  0  0  0  0  0  0  0  0
   -9.4170   21.9380  -31.7190 C   0  0  0  0  0  0  0  0  0  0  0  0
   -9.0230   20.6130  -31.9040 C   0  0  0  0  0  0  0  0  0  0  0  0
   -7.7020   20.2950  -32.3030 C   0  0  0  0  0  0  0  0  0  0  0  0
   -7.2890   18.9870  -32.4520 N   0  0  0  0  0  0  0  0  0  0  0  0
   -8.0040   17.9300  -31.7100 C   0  0  0  0  0  0  0  0  0  0  0  0
   -6.1140   18.7070  -33.1280 C   0  0  0  0  0  0  0  0  0  0  0  0
   -7.2779   15.9963  -33.0335 H   0  0  0  0  0  0  0  0  0  0  0  0
   -7.7041   16.8375  -34.5624 H   0  0  0  0  0  0  0  0  0  0  0  0
   -6.4425   15.5589  -34.5624 H   0  0  0  0  0  0  0  0  0  0  0  0
   -4.2903   16.1398  -34.5310 H   0  0  0  0  0  0  0  0  0  0  0  0
   -2.5500   17.9074  -34.5631 H   0  0  0  0  0  0  0  0  0  0  0  0
   -3.1229   20.2329  -33.9067 H   0  0  0  0  0  0  0  0  0  0  0  0
   -4.5160   22.7570  -33.8220 H   0  0  0  0  0  0  0  0  0  0  0  0
   -3.0193   21.3579  -31.7151 H   0  0  0  0  0  0  0  0  0  0  0  0
   -2.7656   23.0488  -32.2950 H   0  0  0  0  0  0  0  0  0  0  0  0
   -5.2648   22.7128  -30.7533 H   0  0  0  0  0  0  0  0  0  0  0  0
   -3.7789   22.3149  -29.8082 H   0  0  0  0  0  0  0  0  0  0  0  0
   -3.7647   24.3397  -28.4020 H   0  0  0  0  0  0  0  0  0  0  0  0
   -2.2459   23.8890  -29.2485 H   0  0  0  0  0  0  0  0  0  0  0  0
   -2.8011   25.5973  -29.2485 H   0  0  0  0  0  0  0  0  0  0  0  0
   -5.4336   25.2436  -29.4243 H   0  0  0  0  0  0  0  0  0  0  0  0
   -5.0009   26.0318  -30.9794 H   0  0  0  0  0  0  0  0  0  0  0  0
   -5.9385   24.4996  -30.9794 H   0  0  0  0  0  0  0  0  0  0  0  0
   -6.4987   23.5134  -32.5009 H   0  0  0  0  0  0  0  0  0  0  0  0
   -8.8253   24.0163  -31.7770 H   0  0  0  0  0  0  0  0  0  0  0  0
  -10.4465   22.1652  -31.4053 H   0  0  0  0  0  0  0  0  0  0  0  0
   -9.7488   19.8033  -31.7376 H   0  0  0  0  0  0  0  0  0  0  0  0
   -7.8895   18.0992  -30.6291 H   0  0  0  0  0  0  0  0  0  0  0  0
   -9.0716   17.9548  -31.9740 H   0  0  0  0  0  0  0  0  0  0  0  0
   -7.5837   16.9483  -31.9740 H   0  0  0  0  0  0  0  0  0  0  0  0
  1  2  1  0
  2  3  2  0
  3  4  1  0
  4  5  2  0
  5  6  1  0
  6  7  2  0
  7  8  1  0
  8  9  1  0
  9 10  1  0
 10 11  1  0
 11 12  1  0
 11 13  1  0
  7 14  1  0
 14 15  2  0
 15 16  1  0
 16 17  2  0
 17 18  1  0
 18 19  2  0
 19 20  1  0
 20 21  1  0
 20 22  2  0
 22  2  1  0
 22  6  1  0
 19 14  1  0
  1 23  1  0
  1 24  1  0
  1 25  1  0
  3 26  1  0
  4 27  1  0
  5 28  1  0
  8 29  1  0
  9 30  1  0
  9 31  1  0
 10 32  1  0
 10 33  1  0
 12 34  1  0
 12 35  1  0
 12 36  1  0
 13 37  1  0
 13 38  1  0
 13 39  1  0
 15 40  1  0
 16 41  1  0
 17 42  1  0
 18 43  1  0
 21 44  1  0
 21 45  1  0
 21 46  1  0
M  CHG  1  20   1
M  END
>  <UniqueID>  (12) 
12

>  <SMILES>  (12) 
Cc1cccc2c(NCCN(C)C)c3ccccc3[n+](C)c12

>  <Energy>  (12) 
81.51185042365867

>  <Genealogy>  (12) 
Cc1cccc2c(NCCN(C)C)c3ccccc3[n+](C)c12 (3D coordinates assigned)
Cc1cccc2c(NCCN(C)C)c3ccccc3[n+](C)c12 (optimized conformer: 81.51185042365867 kcal/mol)

>  <smiles>  (12) 
Cc1cccc2c(NCCN(C)C)c3ccccc3[n+](C)c12

>  <score_type>  (12) 
oracle

>  <origin>  (12) 
adg

>  <m_score__min__energy>  (12) 
-8.4100000000000001

>  <m_primary>  (12) 
energy

$$$$
12:0
     RDKit          3D

 40 42  0  0  0  0  0  0  0  0999 V2000
   -6.4400   25.3360  -30.0080 C   0  0  0  0  0  0  0  0  0  0  0  0
   -5.1890   24.8490  -30.6680 C   0  0  0  0  0  0  0  0  0  0  0  0
   -4.2400   25.6580  -30.8460 O   0  0  0  0  0  0  0  0  0  0  0  0
   -5.0610   23.4680  -31.1720 C   0  0  0  0  0  0  0  0  0  0  0  0
   -6.0820   22.8180  -31.8590 C   0  0  0  0  0  0  0  0  0  0  0  0
   -5.5860   21.5710  -32.1520 C   0  0  0  0  0  0  0  0  0  0  0  0
   -6.1780   20.5100  -32.8330 C   0  0  0  0  0  0  0  0  0  0  0  0
   -5.4240   19.3350  -33.0120 C   0  0  0  0  0  0  0  0  0  0  0  0
   -6.1270   17.9560  -33.8490 S   0  0  0  0  0  0  0  0  0  0  0  0
   -5.2190   16.4860  -33.4320 C   0  0  0  0  0  0  0  0  0  0  0  0
   -6.0700   18.1790  -35.3350 O   0  0  0  0  0  0  0  0  0  0  0  0
   -7.5650   17.7910  -33.4410 O   0  0  0  0  0  0  0  0  0  0  0  0
   -4.1080   19.2540  -32.4970 C   0  0  0  0  0  0  0  0  0  0  0  0
   -3.5390   20.3430  -31.8140 C   0  0  0  0  0  0  0  0  0  0  0  0
   -4.3090   21.5010  -31.6560 C   0  0  0  0  0  0  0  0  0  0  0  0
   -3.9670   22.6610  -31.0500 N   0  0  0  0  0  0  0  0  0  0  0  0
   -2.6190   23.0380  -30.6010 C   0  0  0  0  0  0  0  0  0  0  0  0
   -2.6800   23.6750  -29.2370 C   0  0  0  0  0  0  0  0  0  0  0  0
   -3.7220   23.3530  -28.3500 C   0  0  0  0  0  0  0  0  0  0  0  0
   -3.8020   23.9730  -27.0990 C   0  0  0  0  0  0  0  0  0  0  0  0
   -2.8470   24.9220  -26.7260 C   0  0  0  0  0  0  0  0  0  0  0  0
   -1.8100   25.2510  -27.6030 C   0  0  0  0  0  0  0  0  0  0  0  0
   -1.7270   24.6340  -28.8540 C   0  0  0  0  0  0  0  0  0  0  0  0
   -6.3202   25.2894  -28.9155 H   0  0  0  0  0  0  0  0  0  0  0  0
   -6.6340   26.3753  -30.3116 H   0  0  0  0  0  0  0  0  0  0  0  0
   -7.2857   24.7014  -30.3116 H   0  0  0  0  0  0  0  0  0  0  0  0
   -7.0748   23.2177  -32.1132 H   0  0  0  0  0  0  0  0  0  0  0  0
   -7.2048   20.5880  -33.2197 H   0  0  0  0  0  0  0  0  0  0  0  0
   -5.1596   16.3898  -32.3378 H   0  0  0  0  0  0  0  0  0  0  0  0
   -5.7319   15.6073  -33.8500 H   0  0  0  0  0  0  0  0  0  0  0  0
   -4.2036   16.5512  -33.8500 H   0  0  0  0  0  0  0  0  0  0  0  0
   -3.5254   18.3308  -32.6324 H   0  0  0  0  0  0  0  0  0  0  0  0
   -2.5157   20.2865  -31.4143 H   0  0  0  0  0  0  0  0  0  0  0  0
   -1.9878   22.1384  -30.5532 H   0  0  0  0  0  0  0  0  0  0  0  0
   -2.1938   23.7599  -31.3138 H   0  0  0  0  0  0  0  0  0  0  0  0
   -4.4784   22.6094  -28.6415 H   0  0  0  0  0  0  0  0  0  0  0  0
   -4.6176   23.7132  -26.4081 H   0  0  0  0  0  0  0  0  0  0  0  0
   -2.9113   25.4101  -25.7423 H   0  0  0  0  0  0  0  0  0  0  0  0
   -1.0575   25.9972  -27.3080 H   0  0  0  0  0  0  0  0  0  0  0  0
   -0.9115   24.9004  -29.5425 H   0  0  0  0  0  0  0  0  0  0  0  0
  1  2  1  0
  2  3  2  0
  2  4  1  0
  4  5  2  0
  5  6  1  0
  6  7  2  0
  7  8  1  0
  8  9  1  0
  9 10  1  0
  9 11  2  0
  9 12  2  0
  8 13  2  0
 13 14  1  0
 14 15  2  0
 15 16  1  0
 16 17  1  0
 17 18  1  0
 18 19  2  0
 19 20  1  0
 20 21  2  0
 21 22  1  0
 22 23  2  0
 16  4  1  0
 23 18  1  0
 15  6  1  0
  1 24  1  0
  1 25  1  0
  1 26  1  0
  5 27  1  0
  7 28  1  0
 10 29  1  0
 10 30  1  0
 10 31  1  0
 13 32  1  0
 14 33  1  0
 17 34  1  0
 17 35  1  0
 19 36  1  0
 20 37  1  0
 21 38  1  0
 22 39  1  0
 23 40  1  0
M  END
>  <UniqueID>  (13) 
13

>  <SMILES>  (13) 
CC(=O)c1cc2cc(S(C)(=O)=O)ccc2n1Cc1ccccc1

>  <Energy>  (13) 
75.67538723466862

>  <Genealogy>  (13) 
CC(=O)c1cc2cc(S(C)(=O)=O)ccc2n1Cc1ccccc1 (3D coordinates assigned)
CC(=O)c1cc2cc(S(C)(=O)=O)ccc2n1Cc1ccccc1 (optimized conformer: 75.67538723466862 kcal/mol)

>  <smiles>  (13) 
CC(=O)c1cc2cc(S(C)(=O)=O)ccc2n1Cc1ccccc1

>  <score_type>  (13) 
oracle

>  <origin>  (13) 
adg

>  <m_score__min__energy>  (13) 
-8.7200000000000006

>  <m_primary>  (13) 
energy

$$$$
13:0
     RDKit          3D

 46 48  0  0  0  0  0  0  0  0999 V2000
   -1.4030   23.6720  -29.3480 C   0  0  0  0  0  0  0  0  0  0  0  0
   -2.7980   23.7840  -29.8740 C   0  0  0  0  0  0  0  0  0  0  0  0
   -3.5390   24.9060  -29.7830 N   0  0  0  0  0  0  0  0  0  0  0  0
   -4.6870   24.6800  -30.4010 N   0  0  0  0  0  0  0  0  0  0  0  0
   -5.7410   25.6810  -30.5220 C   0  0  0  0  0  0  0  0  0  0  0  0
   -4.7070   23.4210  -30.8920 C   0  0  0  0  0  0  0  0  0  0  0  0
   -5.8110   22.8430  -31.7250 C   0  0  0  0  0  0  0  0  0  0  0  0
   -3.4960   22.8160  -30.5840 C   0  0  0  0  0  0  0  0  0  0  0  0
   -2.9950   21.4620  -31.0130 C   0  0  0  0  0  0  0  0  0  0  0  0
   -2.0350   21.5660  -32.2020 C   0  0  0  0  0  0  0  0  0  0  0  0
   -2.7130   21.1690  -33.4490 N   0  0  0  0  0  0  0  0  0  0  0  0
   -2.4300   19.7760  -33.8290 C   0  0  0  0  0  0  0  0  0  0  0  0
   -3.7070   18.9900  -33.9570 C   0  0  0  0  0  0  0  0  0  0  0  0
   -3.7130   17.7370  -34.5860 C   0  0  0  0  0  0  0  0  0  0  0  0
   -4.8890   16.9870  -34.6460 C   0  0  0  0  0  0  0  0  0  0  0  0
   -6.0660   17.4770  -34.0760 C   0  0  0  0  0  0  0  0  0  0  0  0
   -6.0820   18.7340  -33.4410 C   0  0  0  0  0  0  0  0  0  0  0  0
   -7.2810   19.2470  -32.8230 N   0  0  0  0  0  0  0  0  0  0  0  0
   -8.0770   18.6140  -31.9340 C   0  0  0  0  0  0  0  0  0  0  0  0
   -9.1150   19.4570  -31.5980 C   0  0  0  0  0  0  0  0  0  0  0  0
   -8.8870   20.6040  -32.3290 C   0  0  0  0  0  0  0  0  0  0  0  0
   -7.7710   20.4530  -33.0660 N   0  0  0  0  0  0  0  0  0  0  0  0
   -4.8930   19.4840  -33.3930 C   0  0  0  0  0  0  0  0  0  0  0  0
   -1.4246   23.6737  -28.2482 H   0  0  0  0  0  0  0  0  0  0  0  0
   -0.9509   22.7347  -29.7044 H   0  0  0  0  0  0  0  0  0  0  0  0
   -0.8071   24.5252  -29.7044 H   0  0  0  0  0  0  0  0  0  0  0  0
   -6.0683   25.9919  -29.5189 H   0  0  0  0  0  0  0  0  0  0  0  0
   -5.3563   26.5543  -31.0692 H   0  0  0  0  0  0  0  0  0  0  0  0
   -6.5933   25.2518  -31.0692 H   0  0  0  0  0  0  0  0  0  0  0  0
   -6.5917   22.4343  -31.0666 H   0  0  0  0  0  0  0  0  0  0  0  0
   -6.2423   23.6310  -32.3599 H   0  0  0  0  0  0  0  0  0  0  0  0
   -5.4092   22.0396  -32.3599 H   0  0  0  0  0  0  0  0  0  0  0  0
   -2.4683   20.9926  -30.1691 H   0  0  0  0  0  0  0  0  0  0  0  0
   -3.8604   20.8572  -31.3218 H   0  0  0  0  0  0  0  0  0  0  0  0
   -1.6852   22.6047  -32.2950 H   0  0  0  0  0  0  0  0  0  0  0  0
   -1.1822   20.8926  -32.0307 H   0  0  0  0  0  0  0  0  0  0  0  0
   -2.3600   21.7810  -34.2220 H   0  0  0  0  0  0  0  0  0  0  0  0
   -1.9010   19.7651  -34.7934 H   0  0  0  0  0  0  0  0  0  0  0  0
   -1.8079   19.3155  -33.0474 H   0  0  0  0  0  0  0  0  0  0  0  0
   -2.7883   17.3437  -35.0336 H   0  0  0  0  0  0  0  0  0  0  0  0
   -4.8885   16.0063  -35.1442 H   0  0  0  0  0  0  0  0  0  0  0  0
   -6.9868   16.8771  -34.1233 H   0  0  0  0  0  0  0  0  0  0  0  0
   -7.9230   17.5971  -31.5438 H   0  0  0  0  0  0  0  0  0  0  0  0
   -9.9423   19.2585  -30.9008 H   0  0  0  0  0  0  0  0  0  0  0  0
   -9.5197   21.5036  -32.3123 H   0  0  0  0  0  0  0  0  0  0  0  0
   -4.8930   20.4708  -32.9069 H   0  0  0  0  0  0  0  0  0  0  0  0
  1  2  1  0
  2  3  2  0
  3  4  1  0
  4  5  1  0
  4  6  1  0
  6  7  1  0
  6  8  2  0
  8  9  1  0
  9 10  1  0
 10 11  1  0
 11 12  1  0
 12 13  1  0
 13 14  2  0
 14 15  1  0
 15 16  2  0
 16 17  1  0
 17 18  1  0
 18 19  1  0
 19 20  2  0
 20 21  1  0
 21 22  2  0
 17 23  2  0
  8  2  1  0
 23 13  1  0
 22 18  1  0
  1 24  1  0
  1 25  1  0
  1 26  1  0
  5 27  1  0
  5 28  1  0
  5 29  1  0
  7 30  1  0
  7 31  1  0
  7 32  1  0
  9 33  1  0
  9 34  1  0
 10 35  1  0
 10 36  1  0
 11 37  1  0
 12 38  1  0
 12 39  1  0
 14 40  1  0
 15 41  1  0
 16 42  1  0
 19 43  1  0
 20 44  1  0
 21 45  1  0
 23 46  1  0
M  END
>  <UniqueID>  (14) 
14

>  <SMILES>  (14) 
Cc1nn(C)c(C)c1CCNCc1cccc(-n2cccn2)c1

>  <Energy>  (14) 
102.48993213143368

>  <Genealogy>  (14) 
Cc1nn(C)c(C)c1CCNCc1cccc(-n2cccn2)c1 (3D coordinates assigned)
Cc1nn(C)c(C)c1CCNCc1cccc(-n2cccn2)c1 (optimized conformer: 102.48993213143368 kcal/mol)

>  <smiles>  (14) 
Cc1nn(C)c(C)c1CCNCc1cccc(-n2cccn2)c1

>  <score_type>  (14) 
oracle

>  <origin>  (14) 
adg

>  <m_score__min__energy>  (14) 
-8.2100000000000009

>  <m_primary>  (14) 
energy

$$$$
14:0
     RDKit          3D

 43 44  0  0  0  0  0  0  0  0999 V2000
   -8.8410   20.3010  -31.5380 C   0  0  0  0  0  0  0  0  0  0  0  0
   -7.8620   20.6700  -32.6500 C   0  0  0  0  0  0  0  0  0  0  0  0
   -6.9110   21.7100  -32.1910 N   0  0  0  0  0  0  0  0  0  0  0  0
   -7.3710   22.9850  -31.9020 C   0  0  0  0  0  0  0  0  0  0  0  0
   -8.8210   23.3810  -32.0710 C   0  0  0  0  0  0  0  0  0  0  0  0
   -6.4780   23.9790  -31.4730 C   0  0  0  0  0  0  0  0  0  0  0  0
   -5.1380   23.6780  -31.2920 C   0  0  0  0  0  0  0  0  0  0  0  0
   -4.3370   24.5680  -30.8990 O   0  0  0  0  0  0  0  0  0  0  0  0
   -4.6830   22.3940  -31.5450 C   0  0  0  0  0  0  0  0  0  0  0  0
   -5.5690   21.4080  -32.0080 C   0  0  0  0  0  0  0  0  0  0  0  0
   -4.9530   20.0510  -32.3170 C   0  0  0  0  0  0  0  0  0  0  0  0
   -4.9820   19.7710  -33.7610 N   0  0  0  0  0  0  0  0  0  0  0  0
   -5.8880   18.6650  -34.1120 C   0  0  0  0  0  0  0  0  0  0  0  0
   -5.5410   17.4280  -33.3380 C   0  0  0  0  0  0  0  0  0  0  0  0
   -4.6020   16.4700  -33.6780 C   0  0  0  0  0  0  0  0  0  0  0  0
   -4.5240   15.5800  -32.6700 N   0  0  0  0  0  0  0  0  0  0  0  0
   -3.5630   14.4900  -32.5660 C   0  0  0  0  0  0  0  0  0  0  0  0
   -5.3610   15.9290  -31.7070 N   0  0  0  0  0  0  0  0  0  0  0  0
   -6.0150   17.0410  -32.0920 C   0  0  0  0  0  0  0  0  0  0  0  0
   -6.9790   17.7880  -31.2280 C   0  0  0  0  0  0  0  0  0  0  0  0
   -8.3693   20.4788  -30.5603 H   0  0  0  0  0  0  0  0  0  0  0  0
   -9.7463   20.9196  -31.6263 H   0  0  0  0  0  0  0  0  0  0  0  0
   -9.1127   19.2388  -31.6263 H   0  0  0  0  0  0  0  0  0  0  0  0
   -7.2993   19.7728  -32.9473 H   0  0  0  0  0  0  0  0  0  0  0  0
   -8.4315   21.0655  -33.5039 H   0  0  0  0  0  0  0  0  0  0  0  0
   -9.2843   23.5075  -31.0814 H   0  0  0  0  0  0  0  0  0  0  0  0
   -8.8800   24.3281  -32.6273 H   0  0  0  0  0  0  0  0  0  0  0  0
   -9.3532   22.5953  -32.6273 H   0  0  0  0  0  0  0  0  0  0  0  0
   -6.8427   24.9987  -31.2802 H   0  0  0  0  0  0  0  0  0  0  0  0
   -3.6237   22.1461  -31.3825 H   0  0  0  0  0  0  0  0  0  0  0  0
   -3.9089   20.0435  -31.9708 H   0  0  0  0  0  0  0  0  0  0  0  0
   -5.5382   19.2764  -31.7998 H   0  0  0  0  0  0  0  0  0  0  0  0
   -4.0150   19.4820  -34.0390 H   0  0  0  0  0  0  0  0  0  0  0  0
   -6.9224   18.9581  -33.8792 H   0  0  0  0  0  0  0  0  0  0  0  0
   -5.7840   18.4505  -35.1859 H   0  0  0  0  0  0  0  0  0  0  0  0
   -4.0197   16.4404  -34.6107 H   0  0  0  0  0  0  0  0  0  0  0  0
   -3.3701   14.2712  -31.5054 H   0  0  0  0  0  0  0  0  0  0  0  0
   -3.9703   13.5939  -33.0571 H   0  0  0  0  0  0  0  0  0  0  0  0
   -2.6230   14.7819  -33.0571 H   0  0  0  0  0  0  0  0  0  0  0  0
   -5.4590   15.4350  -30.7910 H   0  0  0  0  0  0  0  0  0  0  0  0
   -6.7416   17.6040  -30.1698 H   0  0  0  0  0  0  0  0  0  0  0  0
   -6.9023   18.8648  -31.4392 H   0  0  0  0  0  0  0  0  0  0  0  0
   -8.0026   17.4449  -31.4392 H   0  0  0  0  0  0  0  0  0  0  0  0
  1  2  1  0
  2  3  1  0
  3  4  1  0
  4  5  1  0
  4  6  2  0
  6  7  1  0
  7  8  2  0
  7  9  1  0
  9 10  2  0
 10 11  1  0
 11 12  1  0
 12 13  1  0
 13 14  1  0
 14 15  2  0
 15 16  1  0
 16 17  1  0
 16 18  1  0
 18 19  2  0
 19 20  1  0
 10  3  1  0
 19 14  1  0
  1 21  1  0
  1 22  1  0
  1 23  1  0
  2 24  1  0
  2 25  1  0
  5 26  1  0
  5 27  1  0
  5 28  1  0
  6 29  1  0
  9 30  1  0
 11 31  1  0
 11 32  1  0
 12 33  1  0
 13 34  1  0
 13 35  1  0
 15 36  1  0
 17 37  1  0
 17 38  1  0
 17 39  1  0
 18 40  1  0
 20 41  1  0
 20 42  1  0
 20 43  1  0
M  CHG  1  18   1
M  END
>  <UniqueID>  (15) 
15

>  <SMILES>  (15) 
CCn1c(C)cc(=O)cc1CNCc1cn(C)[nH+]c1C

>  <Energy>  (15) 
71.67499700062503

>  <Genealogy>  (15) 
CCn1c(C)cc(=O)cc1CNCc1cn(C)[nH+]c1C (protonated)
CCn1c(C)cc(=O)cc1CNCc1cn(C)[nH+]c1C (3D coordinates assigned)
CCn1c(C)cc(=O)cc1CNCc1cn(C)[nH+]c1C (optimized conformer: 71.67499700062503 kcal/mol)

>  <smiles>  (15) 
CCn1c(C)cc(=O)cc1CNCc1cn(C)nc1C

>  <score_type>  (15) 
oracle

>  <origin>  (15) 
adg

>  <m_score__min__energy>  (15) 
-7.1200000000000001

>  <m_primary>  (15) 
energy

$$$$
15:0
     RDKit          3D

 50 52  0  0  0  0  0  0  0  0999 V2000
   -3.8550   24.1960  -27.2480 C   0  0  0  0  0  0  0  0  0  0  0  0
   -4.4680   23.8630  -28.6110 C   0  0  0  0  0  0  0  0  0  0  0  0
   -5.4610   24.8640  -29.0420 N   0  0  0  0  0  0  0  0  0  0  0  0
   -5.9230   24.6330  -30.4230 C   0  0  0  0  0  0  0  0  0  0  0  0
   -6.2870   23.1600  -30.6540 C   0  0  0  0  0  0  0  0  0  0  0  0
   -5.9140   22.7280  -32.0020 N   0  0  0  0  0  0  0  0  0  0  0  0
   -5.7530   21.3330  -32.3060 C   0  0  0  0  0  0  0  0  0  0  0  0
   -6.8790   20.4910  -32.2920 C   0  0  0  0  0  0  0  0  0  0  0  0
   -8.0900   20.9010  -31.6920 C   0  0  0  0  0  0  0  0  0  0  0  0
   -9.1920   20.0510  -31.6570 C   0  0  0  0  0  0  0  0  0  0  0  0
   -9.1040   18.7760  -32.2030 C   0  0  0  0  0  0  0  0  0  0  0  0
   -7.9240   18.3560  -32.8150 C   0  0  0  0  0  0  0  0  0  0  0  0
   -6.8010   19.2170  -32.9050 C   0  0  0  0  0  0  0  0  0  0  0  0
   -5.6570   18.8490  -33.5820 N   0  0  0  0  0  0  0  0  0  0  0  0
   -5.6940   17.7070  -34.5240 C   0  0  0  0  0  0  0  0  0  0  0  0
   -4.4830   19.5570  -33.3920 C   0  0  0  0  0  0  0  0  0  0  0  0
   -3.2420   19.0460  -33.8430 C   0  0  0  0  0  0  0  0  0  0  0  0
   -2.0580   19.7670  -33.6960 C   0  0  0  0  0  0  0  0  0  0  0  0
   -0.7580   19.1910  -34.1790 C   0  0  0  0  0  0  0  0  0  0  0  0
   -2.0720   20.9690  -32.9950 C   0  0  0  0  0  0  0  0  0  0  0  0
   -3.2600   21.4840  -32.4610 C   0  0  0  0  0  0  0  0  0  0  0  0
   -3.1290   22.6850  -31.5540 C   0  0  0  0  0  0  0  0  0  0  0  0
   -4.5000   20.8150  -32.7190 C   0  0  0  0  0  0  0  0  0  0  0  0
   -4.5194   23.8351  -26.4491 H   0  0  0  0  0  0  0  0  0  0  0  0
   -2.8739   23.7069  -27.1579 H   0  0  0  0  0  0  0  0  0  0  0  0
   -3.7313   25.2853  -27.1579 H   0  0  0  0  0  0  0  0  0  0  0  0
   -3.6627   23.8198  -29.3591 H   0  0  0  0  0  0  0  0  0  0  0  0
   -4.9853   22.8967  -28.5183 H   0  0  0  0  0  0  0  0  0  0  0  0
   -5.0110   25.8050  -28.9730 H   0  0  0  0  0  0  0  0  0  0  0  0
   -6.2810   24.8530  -28.3900 H   0  0  0  0  0  0  0  0  0  0  0  0
   -6.8106   25.2546  -30.6119 H   0  0  0  0  0  0  0  0  0  0  0  0
   -5.1060   24.8990  -31.1099 H   0  0  0  0  0  0  0  0  0  0  0  0
   -5.7549   22.5392  -29.9181 H   0  0  0  0  0  0  0  0  0  0  0  0
   -7.3754   23.0481  -30.5409 H   0  0  0  0  0  0  0  0  0  0  0  0
   -5.5670   23.4420  -32.6810 H   0  0  0  0  0  0  0  0  0  0  0  0
   -8.1634   21.9042  -31.2469 H   0  0  0  0  0  0  0  0  0  0  0  0
  -10.1325   20.3886  -31.1971 H   0  0  0  0  0  0  0  0  0  0  0  0
   -9.9676   18.0966  -32.1521 H   0  0  0  0  0  0  0  0  0  0  0  0
   -7.8631   17.3410  -33.2346 H   0  0  0  0  0  0  0  0  0  0  0  0
   -5.7245   16.7649  -33.9570 H   0  0  0  0  0  0  0  0  0  0  0  0
   -6.5902   17.7830  -35.1573 H   0  0  0  0  0  0  0  0  0  0  0  0
   -4.7948   17.7248  -35.1573 H   0  0  0  0  0  0  0  0  0  0  0  0
   -3.2114   18.0558  -34.3211 H   0  0  0  0  0  0  0  0  0  0  0  0
   -0.1356   18.9152  -33.3150 H   0  0  0  0  0  0  0  0  0  0  0  0
   -0.9569   18.2968  -34.7879 H   0  0  0  0  0  0  0  0  0  0  0  0
   -0.2292   19.9391  -34.7879 H   0  0  0  0  0  0  0  0  0  0  0  0
   -1.1328   21.5249  -32.8577 H   0  0  0  0  0  0  0  0  0  0  0  0
   -3.1647   22.3575  -30.5045 H   0  0  0  0  0  0  0  0  0  0  0  0
   -2.1706   23.1886  -31.7485 H   0  0  0  0  0  0  0  0  0  0  0  0
   -3.9563   23.3834  -31.7485 H   0  0  0  0  0  0  0  0  0  0  0  0
  1  2  1  0
  2  3  1  0
  3  4  1  0
  4  5  1  0
  5  6  1  0
  6  7  1  0
  7  8  2  0
  8  9  1  0
  9 10  2  0
 10 11  1  0
 11 12  2  0
 12 13  1  0
 13 14  2  0
 14 15  1  0
 14 16  1  0
 16 17  2  0
 17 18  1  0
 18 19  1  0
 18 20  2  0
 20 21  1  0
 21 22  1  0
 21 23  2  0
 23  7  1  0
 13  8  1  0
 23 16  1  0
  1 24  1  0
  1 25  1  0
  1 26  1  0
  2 27  1  0
  2 28  1  0
  3 29  1  0
  3 30  1  0
  4 31  1  0
  4 32  1  0
  5 33  1  0
  5 34  1  0
  6 35  1  0
  9 36  1  0
 10 37  1  0
 11 38  1  0
 12 39  1  0
 15 40  1  0
 15 41  1  0
 15 42  1  0
 17 43  1  0
 19 44  1  0
 19 45  1  0
 19 46  1  0
 20 47  1  0
 22 48  1  0
 22 49  1  0
 22 50  1  0
M  CHG  2   3   1  14   1
M  END
>  <UniqueID>  (16) 
16

>  <SMILES>  (16) 
CC[NH2+]CCNc1c2ccccc2[n+](C)c2cc(C)cc(C)c12

>  <Energy>  (16) 
80.71001562616104

>  <Genealogy>  (16) 
CC[NH2+]CCNc1c2ccccc2[n+](C)c2cc(C)cc(C)c12 (protonated)
CC[NH2+]CCNc1c2ccccc2[n+](C)c2cc(C)cc(C)c12 (3D coordinates assigned)
CC[NH2+]CCNc1c2ccccc2[n+](C)c2cc(C)cc(C)c12 (optimized conformer: 80.71001562616104 kcal/mol)

>  <smiles>  (16) 
CCNCCNc1c2ccccc2[n+](C)c2cc(C)cc(C)c12

>  <score_type>  (16) 
oracle

>  <origin>  (16) 
adg

>  <m_score__min__energy>  (16) 
-7.4699999999999998

>  <m_primary>  (16) 
energy

$$$$
16:0
     RDKit          3D

 37 39  0  0  0  0  0  0  0  0999 V2000
   -5.6650   25.8560  -30.7380 O   0  0  0  0  0  0  0  0  0  0  0  0
   -4.8520   24.9010  -30.6280 C   0  0  0  0  0  0  0  0  0  0  0  0
   -5.3370   23.4940  -30.8580 C   0  0  0  0  0  0  0  0  0  0  0  0
   -5.6520   23.2840  -32.2890 N   0  0  0  0  0  0  0  0  0  0  0  0
   -6.9910   23.7770  -32.6580 C   0  0  0  0  0  0  0  0  0  0  0  0
   -8.1040   23.0000  -31.9440 C   0  0  0  0  0  0  0  0  0  0  0  0
   -7.8750   21.5120  -31.9890 C   0  0  0  0  0  0  0  0  0  0  0  0
   -8.9320   20.6580  -31.6390 C   0  0  0  0  0  0  0  0  0  0  0  0
   -8.7480   19.2760  -31.6300 C   0  0  0  0  0  0  0  0  0  0  0  0
   -7.5090   18.7330  -31.9650 C   0  0  0  0  0  0  0  0  0  0  0  0
   -6.4390   19.5670  -32.3050 C   0  0  0  0  0  0  0  0  0  0  0  0
   -4.9100   18.8160  -32.7520 Cl  0  0  0  0  0  0  0  0  0  0  0  0
   -6.6060   20.9700  -32.2950 C   0  0  0  0  0  0  0  0  0  0  0  0
   -5.4650   21.8810  -32.7120 C   0  0  0  0  0  0  0  0  0  0  0  0
   -3.4990   25.1830  -30.2470 N   0  0  0  0  0  0  0  0  0  0  0  0
   -2.8060   24.5540  -29.1630 C   0  0  0  0  0  0  0  0  0  0  0  0
   -3.2950   23.3470  -28.6480 C   0  0  0  0  0  0  0  0  0  0  0  0
   -2.6270   22.7070  -27.5990 C   0  0  0  0  0  0  0  0  0  0  0  0
   -1.4770   23.2800  -27.0490 C   0  0  0  0  0  0  0  0  0  0  0  0
   -1.0020   24.5000  -27.5370 C   0  0  0  0  0  0  0  0  0  0  0  0
   -1.6670   25.1430  -28.5860 C   0  0  0  0  0  0  0  0  0  0  0  0
   -1.2280   26.3550  -29.0080 F   0  0  0  0  0  0  0  0  0  0  0  0
   -4.5530   22.7858  -30.5518 H   0  0  0  0  0  0  0  0  0  0  0  0
   -6.2482   23.3292  -30.2642 H   0  0  0  0  0  0  0  0  0  0  0  0
   -7.0668   24.8395  -32.3835 H   0  0  0  0  0  0  0  0  0  0  0  0
   -7.1189   23.6369  -33.7415 H   0  0  0  0  0  0  0  0  0  0  0  0
   -8.1426   23.3213  -30.8927 H   0  0  0  0  0  0  0  0  0  0  0  0
   -9.0511   23.2127  -32.4614 H   0  0  0  0  0  0  0  0  0  0  0  0
   -9.9111   21.0812  -31.3703 H   0  0  0  0  0  0  0  0  0  0  0  0
   -9.5824   18.6129  -31.3579 H   0  0  0  0  0  0  0  0  0  0  0  0
   -7.3717   17.6416  -31.9620 H   0  0  0  0  0  0  0  0  0  0  0  0
   -4.5345   21.5024  -32.2638 H   0  0  0  0  0  0  0  0  0  0  0  0
   -5.4286   21.8746  -33.8114 H   0  0  0  0  0  0  0  0  0  0  0  0
   -4.2076   22.9007  -29.0699 H   0  0  0  0  0  0  0  0  0  0  0  0
   -3.0070   21.7522  -27.2067 H   0  0  0  0  0  0  0  0  0  0  0  0
   -0.9457   22.7704  -26.2317 H   0  0  0  0  0  0  0  0  0  0  0  0
   -0.1034   24.9556  -27.0954 H   0  0  0  0  0  0  0  0  0  0  0  0
  1  2  2  0
  2  3  1  0
  3  4  1  0
  4  5  1  0
  5  6  1  0
  6  7  1  0
  7  8  2  0
  8  9  1  0
  9 10  2  0
 10 11  1  0
 11 12  1  0
 11 13  2  0
 13 14  1  0
  2 15  1  0
 15 16  1  0
 16 17  2  0
 17 18  1  0
 18 19  2  0
 19 20  1  0
 20 21  2  0
 21 22  1  0
 14  4  1  0
 21 16  1  0
 13  7  1  0
  3 23  1  0
  3 24  1  0
  5 25  1  0
  5 26  1  0
  6 27  1  0
  6 28  1  0
  8 29  1  0
  9 30  1  0
 10 31  1  0
 14 32  1  0
 14 33  1  0
 17 34  1  0
 18 35  1  0
 19 36  1  0
 20 37  1  0
M  CHG  1  15  -1
M  END
>  <UniqueID>  (17) 
17

>  <SMILES>  (17) 
O=C(CN1CCc2cccc(Cl)c2C1)[N-]c1ccccc1F

>  <Energy>  (17) 
50.89025641779917

>  <Genealogy>  (17) 
O=C(CN1CCc2cccc(Cl)c2C1)[N-]c1ccccc1F (protonated)
O=C(CN1CCc2cccc(Cl)c2C1)[N-]c1ccccc1F (3D coordinates assigned)
O=C(CN1CCc2cccc(Cl)c2C1)[N-]c1ccccc1F (nonaromatic ring conformer: 50.89025641779917 kcal/mol)

>  <smiles>  (17) 
O=C(CN1CCc2cccc(Cl)c2C1)Nc1ccccc1F

>  <score_type>  (17) 
oracle

>  <origin>  (17) 
adg

>  <m_score__min__energy>  (17) 
-10.74

>  <m_primary>  (17) 
energy

$$$$
17:0
     RDKit          3D

 40 42  0  0  0  0  0  0  0  0999 V2000
   -6.3020   25.1460  -29.7500 C   0  0  0  0  0  0  0  0  0  0  0  0
   -5.0800   25.7130  -30.4710 C   0  0  0  0  0  0  0  0  0  0  0  0
   -4.0330   24.6910  -30.6070 N   0  0  0  0  0  0  0  0  0  0  0  0
   -4.5720   23.3240  -30.7620 C   0  0  0  0  0  0  0  0  0  0  0  0
   -3.7970   22.4870  -31.7930 C   0  0  0  0  0  0  0  0  0  0  0  0
   -4.6520   22.1240  -32.9220 N   0  0  0  0  0  0  0  0  0  0  0  0
   -5.7530   21.2170  -32.7610 C   0  0  0  0  0  0  0  0  0  0  0  0
   -5.6100   19.8240  -32.9410 C   0  0  0  0  0  0  0  0  0  0  0  0
   -4.3880   19.2750  -33.3790 C   0  0  0  0  0  0  0  0  0  0  0  0
   -4.2620   17.9070  -33.5990 C   0  0  0  0  0  0  0  0  0  0  0  0
   -5.3510   17.0630  -33.4050 C   0  0  0  0  0  0  0  0  0  0  0  0
   -5.1750   15.1960  -33.7660 Br  0  0  0  0  0  0  0  0  0  0  0  0
   -6.5750   17.5790  -32.9770 C   0  0  0  0  0  0  0  0  0  0  0  0
   -6.7360   18.9630  -32.7200 C   0  0  0  0  0  0  0  0  0  0  0  0
   -7.9480   19.4910  -32.2940 N   0  0  0  0  0  0  0  0  0  0  0  0
   -9.0700   18.6050  -31.9260 C   0  0  0  0  0  0  0  0  0  0  0  0
   -8.0930   20.8580  -32.2310 C   0  0  0  0  0  0  0  0  0  0  0  0
   -9.2820   21.5680  -31.9490 C   0  0  0  0  0  0  0  0  0  0  0  0
   -9.1040   22.9470  -31.9250 C   0  0  0  0  0  0  0  0  0  0  0  0
   -7.4920   23.3000  -32.2630 S   0  0  0  0  0  0  0  0  0  0  0  0
   -7.0140   21.7000  -32.4490 C   0  0  0  0  0  0  0  0  0  0  0  0
   -6.1513   25.2159  -28.6626 H   0  0  0  0  0  0  0  0  0  0  0  0
   -7.1952   25.7217  -30.0342 H   0  0  0  0  0  0  0  0  0  0  0  0
   -6.4392   24.0922  -30.0342 H   0  0  0  0  0  0  0  0  0  0  0  0
   -5.3796   26.0577  -31.4717 H   0  0  0  0  0  0  0  0  0  0  0  0
   -4.6801   26.5508  -29.8810 H   0  0  0  0  0  0  0  0  0  0  0  0
   -3.4250   24.9470  -31.4210 H   0  0  0  0  0  0  0  0  0  0  0  0
   -4.5222   22.8149  -29.7882 H   0  0  0  0  0  0  0  0  0  0  0  0
   -5.6066   23.4169  -31.1238 H   0  0  0  0  0  0  0  0  0  0  0  0
   -2.9424   23.0727  -32.1626 H   0  0  0  0  0  0  0  0  0  0  0  0
   -3.4495   21.5642  -31.3055 H   0  0  0  0  0  0  0  0  0  0  0  0
   -4.5890   22.6850  -33.8020 H   0  0  0  0  0  0  0  0  0  0  0  0
   -3.5247   19.9352  -33.5487 H   0  0  0  0  0  0  0  0  0  0  0  0
   -3.2980   17.4912  -33.9275 H   0  0  0  0  0  0  0  0  0  0  0  0
   -7.4289   16.8999  -32.8369 H   0  0  0  0  0  0  0  0  0  0  0  0
   -9.1458   18.5452  -30.8302 H   0  0  0  0  0  0  0  0  0  0  0  0
  -10.0067   19.0097  -32.3368 H   0  0  0  0  0  0  0  0  0  0  0  0
   -8.8935   17.6000  -32.3368 H   0  0  0  0  0  0  0  0  0  0  0  0
  -10.2504   21.0792  -31.7669 H   0  0  0  0  0  0  0  0  0  0  0  0
   -9.8899   23.6884  -31.7184 H   0  0  0  0  0  0  0  0  0  0  0  0
  1  2  1  0
  2  3  1  0
  3  4  1  0
  4  5  1  0
  5  6  1  0
  6  7  1  0
  7  8  2  0
  8  9  1  0
  9 10  2  0
 10 11  1  0
 11 12  1  0
 11 13  2  0
 13 14  1  0
 14 15  2  0
 15 16  1  0
 15 17  1  0
 17 18  1  0
 18 19  2  0
 19 20  1  0
 20 21  1  0
 21  7  1  0
 14  8  1  0
 21 17  2  0
  1 22  1  0
  1 23  1  0
  1 24  1  0
  2 25  1  0
  2 26  1  0
  3 27  1  0
  4 28  1  0
  4 29  1  0
  5 30  1  0
  5 31  1  0
  6 32  1  0
  9 33  1  0
 10 34  1  0
 13 35  1  0
 16 36  1  0
 16 37  1  0
 16 38  1  0
 18 39  1  0
 19 40  1  0
M  CHG  1  15   1
M  END
>  <UniqueID>  (18) 
18

>  <SMILES>  (18) 
CCNCCNc1c2ccc(Br)cc2[n+](C)c2ccsc12

>  <Energy>  (18) 
88.13771281075165

>  <Genealogy>  (18) 
CCNCCNc1c2ccc(Br)cc2[n+](C)c2ccsc12 (3D coordinates assigned)
CCNCCNc1c2ccc(Br)cc2[n+](C)c2ccsc12 (optimized conformer: 88.13771281075165 kcal/mol)

>  <smiles>  (18) 
CCNCCNc1c2ccc(Br)cc2[n+](C)c2ccsc12

>  <score_type>  (18) 
oracle

>  <origin>  (18) 
adg

>  <m_score__min__energy>  (18) 
-8.7400000000000002

>  <m_primary>  (18) 
energy

$$$$
18:0
     RDKit          3D

 47 49  0  0  0  0  0  0  0  0999 V2000
   -3.4380   19.6070  -33.4910 C   0  0  0  0  0  0  0  0  0  0  0  0
   -3.5670   18.0790  -33.4020 C   0  0  0  0  0  0  0  0  0  0  0  0
   -4.5460   17.4900  -34.3510 N   0  0  2  0  0  0  0  0  0  0  0  0
   -5.4040   18.5270  -34.9610 C   0  0  0  0  0  0  0  0  0  0  0  0
   -5.3450   16.4090  -33.7190 C   0  0  0  0  0  0  0  0  0  0  0  0
   -6.8660   16.5940  -33.8960 C   0  0  0  0  0  0  0  0  0  0  0  0
   -7.4810   17.1880  -32.7070 N   0  0  0  0  0  0  0  0  0  0  0  0
   -7.5270   18.6000  -32.4240 C   0  0  0  0  0  0  0  0  0  0  0  0
   -8.7250   19.2990  -32.6400 C   0  0  0  0  0  0  0  0  0  0  0  0
   -8.8110   20.6680  -32.3770 C   0  0  0  0  0  0  0  0  0  0  0  0
   -7.6910   21.3680  -31.8960 C   0  0  0  0  0  0  0  0  0  0  0  0
   -7.7330   22.7450  -31.6170 C   0  0  0  0  0  0  0  0  0  0  0  0
   -8.7980   23.4010  -31.7930 O   0  0  0  0  0  0  0  0  0  0  0  0
   -6.5740   23.3840  -31.1420 C   0  0  0  0  0  0  0  0  0  0  0  0
   -6.5470   24.7580  -30.8430 C   0  0  0  0  0  0  0  0  0  0  0  0
   -5.3730   25.3510  -30.3720 C   0  0  0  0  0  0  0  0  0  0  0  0
   -4.2110   24.5930  -30.1920 C   0  0  0  0  0  0  0  0  0  0  0  0
   -3.0610   25.2410  -29.7170 O   0  0  0  0  0  0  0  0  0  0  0  0
   -2.2240   24.7380  -28.6800 C   0  0  0  0  0  0  0  0  0  0  0  0
   -4.2320   23.2170  -30.4900 C   0  0  0  0  0  0  0  0  0  0  0  0
   -5.4040   22.6130  -30.9610 C   0  0  0  0  0  0  0  0  0  0  0  0
   -5.4050   21.3140  -31.2370 O   0  0  0  0  0  0  0  0  0  0  0  0
   -6.4790   20.6730  -31.6870 C   0  0  0  0  0  0  0  0  0  0  0  0
   -6.4010   19.3020  -31.9540 C   0  0  0  0  0  0  0  0  0  0  0  0
   -3.4022   20.0316  -32.4769 H   0  0  0  0  0  0  0  0  0  0  0  0
   -2.5148   19.8663  -34.0299 H   0  0  0  0  0  0  0  0  0  0  0  0
   -4.3047   20.0174  -34.0299 H   0  0  0  0  0  0  0  0  0  0  0  0
   -2.5805   17.6378  -33.6073 H   0  0  0  0  0  0  0  0  0  0  0  0
   -3.9353   17.8533  -32.3904 H   0  0  0  0  0  0  0  0  0  0  0  0
   -3.9730   17.0750  -35.1230 H   0  0  0  0  0  0  0  0  0  0  0  0
   -5.8898   19.1142  -34.1678 H   0  0  0  0  0  0  0  0  0  0  0  0
   -4.7884   19.1919  -35.5847 H   0  0  0  0  0  0  0  0  0  0  0  0
   -6.1724   18.0468  -35.5847 H   0  0  0  0  0  0  0  0  0  0  0  0
   -5.0546   15.4495  -34.1717 H   0  0  0  0  0  0  0  0  0  0  0  0
   -5.1360   16.4369  -32.6394 H   0  0  0  0  0  0  0  0  0  0  0  0
   -7.0471   17.2529  -34.7580 H   0  0  0  0  0  0  0  0  0  0  0  0
   -7.3158   15.6030  -34.0562 H   0  0  0  0  0  0  0  0  0  0  0  0
   -7.8840   16.5270  -32.0030 H   0  0  0  0  0  0  0  0  0  0  0  0
   -9.6064   18.7623  -33.0209 H   0  0  0  0  0  0  0  0  0  0  0  0
   -9.7585   21.2003  -32.5469 H   0  0  0  0  0  0  0  0  0  0  0  0
   -7.4525   25.3673  -30.9803 H   0  0  0  0  0  0  0  0  0  0  0  0
   -5.3622   26.4262  -30.1400 H   0  0  0  0  0  0  0  0  0  0  0  0
   -2.6557   24.9974  -27.7021 H   0  0  0  0  0  0  0  0  0  0  0  0
   -2.1476   23.6442  -28.7686 H   0  0  0  0  0  0  0  0  0  0  0  0
   -1.2223   25.1839  -28.7686 H   0  0  0  0  0  0  0  0  0  0  0  0
   -3.3228   22.6134  -30.3520 H   0  0  0  0  0  0  0  0  0  0  0  0
   -5.4523   18.7683  -31.7954 H   0  0  0  0  0  0  0  0  0  0  0  0
  1  2  1  0
  2  3  1  0
  3  4  1  0
  3  5  1  0
  5  6  1  0
  6  7  1  0
  7  8  1  0
  8  9  2  0
  9 10  1  0
 10 11  2  0
 11 12  1  0
 12 13  2  0
 12 14  1  0
 14 15  2  0
 15 16  1  0
 16 17  2  0
 17 18  1  0
 18 19  1  0
 17 20  1  0
 20 21  2  0
 21 22  1  0
 22 23  1  0
 23 24  2  0
 24  8  1  0
 23 11  1  0
 21 14  1  0
  1 25  1  0
  1 26  1  0
  1 27  1  0
  2 28  1  0
  2 29  1  0
  3 30  1  6
  4 31  1  0
  4 32  1  0
  4 33  1  0
  5 34  1  0
  5 35  1  0
  6 36  1  0
  6 37  1  0
  7 38  1  0
  9 39  1  0
 10 40  1  0
 15 41  1  0
 16 42  1  0
 19 43  1  0
 19 44  1  0
 19 45  1  0
 20 46  1  0
 24 47  1  0
M  CHG  1   3   1
M  END
>  <UniqueID>  (19) 
19

>  <SMILES>  (19) 
CC[N@H+](C)CCNc1ccc2c(=O)c3ccc(OC)cc3oc2c1

>  <Energy>  (19) 
57.8145638715043

>  <Genealogy>  (19) 
CC[NH+](C)CCNc1ccc2c(=O)c3ccc(OC)cc3oc2c1 (protonated)
CC[N@H+](C)CCNc1ccc2c(=O)c3ccc(OC)cc3oc2c1 (chirality)
CC[N@H+](C)CCNc1ccc2c(=O)c3ccc(OC)cc3oc2c1 (3D coordinates assigned)
CC[N@H+](C)CCNc1ccc2c(=O)c3ccc(OC)cc3oc2c1 (optimized conformer: 57.8145638715043 kcal/mol)

>  <smiles>  (19) 
CCN(C)CCNc1ccc2c(=O)c3ccc(OC)cc3oc2c1

>  <score_type>  (19) 
oracle

>  <origin>  (19) 
adg

>  <m_score__min__energy>  (19) 
-7.2199999999999998

>  <m_primary>  (19) 
energy

$$$$
19:0
     RDKit          3D

 64 67  0  0  0  0  0  0  0  0999 V2000
   -5.7060   16.7820  -32.1160 C   0  0  0  0  0  0  0  0  0  0  0  0
   -6.4450   16.3130  -33.3750 C   0  0  0  0  0  0  0  0  0  0  0  0
   -5.6240   16.4040  -34.5940 N   0  0  0  0  0  0  0  0  0  0  0  0
   -4.2270   15.9810  -34.4080 C   0  0  0  0  0  0  0  0  0  0  0  0
   -3.2400   17.1580  -34.5310 C   0  0  0  0  0  0  0  0  0  0  0  0
   -3.9290   18.4530  -34.5990 N   0  0  0  0  0  0  0  0  0  0  0  0
   -3.7020   19.5460  -33.6790 C   0  0  0  0  0  0  0  0  0  0  0  0
   -2.3740   19.9410  -33.4360 C   0  0  0  0  0  0  0  0  0  0  0  0
   -2.0660   20.8990  -32.4860 C   0  0  0  0  0  0  0  0  0  0  0  0
   -3.0700   21.4890  -31.7250 C   0  0  0  0  0  0  0  0  0  0  0  0
   -2.6790   22.4750  -30.6880 C   0  0  0  0  0  0  0  0  0  0  0  0
   -1.5060   22.2940  -29.9390 C   0  0  0  0  0  0  0  0  0  0  0  0
   -1.1420   23.2220  -28.9600 C   0  0  0  0  0  0  0  0  0  0  0  0
   -1.9420   24.3570  -28.7260 C   0  0  0  0  0  0  0  0  0  0  0  0
   -1.6250   25.3160  -27.7520 O   0  0  0  0  0  0  0  0  0  0  0  0
   -2.3360   25.4860  -26.5270 C   0  0  0  0  0  0  0  0  0  0  0  0
   -1.5420   26.4350  -25.6150 C   0  0  0  0  0  0  0  0  0  0  0  0
   -1.1590   25.8510  -24.3080 N   0  0  0  0  0  0  0  0  0  0  0  0
   -0.4240   26.7930  -23.4510 C   0  0  0  0  0  0  0  0  0  0  0  0
   -0.4380   24.5760  -24.4410 C   0  0  0  0  0  0  0  0  0  0  0  0
   -3.1010   24.5450  -29.4900 C   0  0  0  0  0  0  0  0  0  0  0  0
   -3.4680   23.6140  -30.4660 C   0  0  0  0  0  0  0  0  0  0  0  0
   -4.4170   21.1410  -31.9680 C   0  0  0  0  0  0  0  0  0  0  0  0
   -5.6520   21.8990  -31.0960 S   0  0  0  0  0  0  0  0  0  0  0  0
   -7.1800   21.3910  -31.5400 C   0  0  0  0  0  0  0  0  0  0  0  0
   -8.3080   21.9110  -30.8930 C   0  0  0  0  0  0  0  0  0  0  0  0
   -9.5820   21.4960  -31.2730 C   0  0  0  0  0  0  0  0  0  0  0  0
   -9.7310   20.5660  -32.3010 C   0  0  0  0  0  0  0  0  0  0  0  0
   -8.6060   20.0480  -32.9500 C   0  0  0  0  0  0  0  0  0  0  0  0
   -7.2970   20.4480  -32.5820 C   0  0  0  0  0  0  0  0  0  0  0  0
   -6.1640   19.9050  -33.2710 C   0  0  0  0  0  0  0  0  0  0  0  0
   -6.4210   19.1400  -34.2390 O   0  0  0  0  0  0  0  0  0  0  0  0
   -4.7770   20.1850  -32.9650 C   0  0  0  0  0  0  0  0  0  0  0  0
   -6.2483   16.4379  -31.2230 H   0  0  0  0  0  0  0  0  0  0  0  0
   -4.6885   16.3640  -32.1109 H   0  0  0  0  0  0  0  0  0  0  0  0
   -5.6511   17.8806  -32.1109 H   0  0  0  0  0  0  0  0  0  0  0  0
   -6.7470   15.2647  -33.2337 H   0  0  0  0  0  0  0  0  0  0  0  0
   -7.3117   16.9761  -33.5129 H   0  0  0  0  0  0  0  0  0  0  0  0
   -5.6280   17.3970  -34.9290 H   0  0  0  0  0  0  0  0  0  0  0  0
   -4.1225   15.5343  -33.4082 H   0  0  0  0  0  0  0  0  0  0  0  0
   -3.9863   15.2551  -35.1986 H   0  0  0  0  0  0  0  0  0  0  0  0
   -2.5748   17.1559  -33.6549 H   0  0  0  0  0  0  0  0  0  0  0  0
   -2.6723   17.0274  -35.4641 H   0  0  0  0  0  0  0  0  0  0  0  0
   -4.7490   18.5040  -35.2440 H   0  0  0  0  0  0  0  0  0  0  0  0
   -1.5613   19.4776  -34.0146 H   0  0  0  0  0  0  0  0  0  0  0  0
   -1.0184   21.1965  -32.3313 H   0  0  0  0  0  0  0  0  0  0  0  0
   -0.8694   21.4162  -30.1238 H   0  0  0  0  0  0  0  0  0  0  0  0
   -0.2270   23.0654  -28.3698 H   0  0  0  0  0  0  0  0  0  0  0  0
   -3.3275   25.9158  -26.7326 H   0  0  0  0  0  0  0  0  0  0  0  0
   -2.4605   24.5119  -26.0313 H   0  0  0  0  0  0  0  0  0  0  0  0
   -0.6229   26.7300  -26.1425 H   0  0  0  0  0  0  0  0  0  0  0  0
   -2.2034   27.2863  -25.3964 H   0  0  0  0  0  0  0  0  0  0  0  0
   -0.6126   26.5513  -22.3946 H   0  0  0  0  0  0  0  0  0  0  0  0
    0.6533   26.7137  -23.6587 H   0  0  0  0  0  0  0  0  0  0  0  0
   -0.7629   27.8187  -23.6587 H   0  0  0  0  0  0  0  0  0  0  0  0
   -0.2121   24.1765  -23.4413 H   0  0  0  0  0  0  0  0  0  0  0  0
   -1.0631   23.8569  -24.9906 H   0  0  0  0  0  0  0  0  0  0  0  0
    0.5005   24.7411  -24.9906 H   0  0  0  0  0  0  0  0  0  0  0  0
   -3.7277   25.4329  -29.3204 H   0  0  0  0  0  0  0  0  0  0  0  0
   -4.3784   23.7748  -31.0621 H   0  0  0  0  0  0  0  0  0  0  0  0
   -8.1877   22.6473  -30.0846 H   0  0  0  0  0  0  0  0  0  0  0  0
  -10.4686   21.9010  -30.7633 H   0  0  0  0  0  0  0  0  0  0  0  0
  -10.7370   20.2387  -32.6025 H   0  0  0  0  0  0  0  0  0  0  0  0
   -8.7393   19.3168  -33.7609 H   0  0  0  0  0  0  0  0  0  0  0  0
  1  2  1  0
  2  3  1  0
  3  4  1  0
  4  5  1  0
  5  6  1  0
  6  7  1  0
  7  8  2  0
  8  9  1  0
  9 10  2  0
 10 11  1  0
 11 12  2  0
 12 13  1  0
 13 14  2  0
 14 15  1  0
 15 16  1  0
 16 17  1  0
 17 18  1  0
 18 19  1  0
 18 20  1  0
 14 21  1  0
 21 22  2  0
 10 23  1  0
 23 24  1  0
 24 25  1  0
 25 26  2  0
 26 27  1  0
 27 28  2  0
 28 29  1  0
 29 30  2  0
 30 31  1  0
 31 32  2  0
 31 33  1  0
 33  7  1  0
 22 11  1  0
 33 23  2  0
 30 25  1  0
  1 34  1  0
  1 35  1  0
  1 36  1  0
  2 37  1  0
  2 38  1  0
  3 39  1  0
  4 40  1  0
  4 41  1  0
  5 42  1  0
  5 43  1  0
  6 44  1  0
  8 45  1  0
  9 46  1  0
 12 47  1  0
 13 48  1  0
 16 49  1  0
 16 50  1  0
 17 51  1  0
 17 52  1  0
 19 53  1  0
 19 54  1  0
 19 55  1  0
 20 56  1  0
 20 57  1  0
 20 58  1  0
 21 59  1  0
 22 60  1  0
 26 61  1  0
 27 62  1  0
 28 63  1  0
 29 64  1  0
M  END
>  <UniqueID>  (20) 
20

>  <SMILES>  (20) 
CCNCCNc1ccc(-c2ccc(OCCN(C)C)cc2)c2sc3ccccc3c(=O)c12

>  <Energy>  (20) 
96.03840894949349

>  <Genealogy>  (20) 
CCNCCNc1ccc(-c2ccc(OCCN(C)C)cc2)c2sc3ccccc3c(=O)c12 (3D coordinates assigned)
CCNCCNc1ccc(-c2ccc(OCCN(C)C)cc2)c2sc3ccccc3c(=O)c12 (optimized conformer: 96.03840894949349 kcal/mol)

>  <smiles>  (20) 
CCNCCNc1ccc(-c2ccc(OCCN(C)C)cc2)c2sc3ccccc3c(=O)c12

>  <score_type>  (20) 
oracle

>  <origin>  (20) 
adg

>  <m_score__min__energy>  (20) 
-8.9499999999999993

>  <m_primary>  (20) 
energy

$$$$
20:0
     RDKit          3D

 66 68  0  0  0  0  0  0  0  0999 V2000
   -3.8350   21.3210  -33.4550 C   0  0  0  0  0  0  0  0  0  0  0  0
   -4.5590   21.6590  -32.1420 C   0  0  1  0  0  0  0  0  0  0  0  0
   -5.6590   20.6220  -31.8070 C   0  0  0  0  0  0  0  0  0  0  0  0
   -6.7580   20.4710  -32.8930 C   0  0  0  0  0  0  0  0  0  0  0  0
   -6.7320   19.0470  -33.4930 C   0  0  0  0  0  0  0  0  0  0  0  0
   -7.1930   17.9730  -32.4900 C   0  0  0  0  0  0  0  0  0  0  0  0
   -8.3710   18.4260  -31.6010 C   0  0  0  0  0  0  0  0  0  0  0  0
   -9.1150   19.6280  -32.1890 C   0  0  0  0  0  0  0  0  0  0  0  0
   -8.1750   20.8360  -32.3520 C   0  0  0  0  0  0  0  0  0  0  0  0
   -3.5610   21.8300  -30.9660 C   0  0  0  0  0  0  0  0  0  0  0  0
   -3.7610   23.1110  -30.2240 N   0  0  0  0  0  0  0  0  0  0  0  0
   -5.0290   23.7200  -30.7000 C   0  0  0  0  0  0  0  0  0  0  0  0
   -5.2690   25.0780  -30.0590 C   0  0  0  0  0  0  0  0  0  0  0  0
   -5.3680   24.9200  -28.6110 N   0  0  0  0  0  0  0  0  0  0  0  0
   -4.1290   24.3510  -28.0780 C   0  0  0  0  0  0  0  0  0  0  0  0
   -3.7730   22.9740  -28.7250 C   0  0  2  0  0  0  0  0  0  0  0  0
   -2.3880   22.4600  -28.1440 C   0  0  1  0  0  0  0  0  0  0  0  0
   -2.3590   21.0040  -27.6180 C   0  0  0  0  0  0  0  0  0  0  0  0
   -1.2420   22.7220  -29.0530 N   0  0  0  0  0  0  0  0  0  0  0  0
   -0.1770   23.6220  -28.5640 C   0  0  0  0  0  0  0  0  0  0  0  0
   -0.6010   24.3860  -27.3410 C   0  0  0  0  0  0  0  0  0  0  0  0
   -0.3810   23.8570  -26.0570 C   0  0  0  0  0  0  0  0  0  0  0  0
   -0.7390   24.5930  -24.9230 C   0  0  0  0  0  0  0  0  0  0  0  0
   -1.3230   25.8560  -25.0620 C   0  0  0  0  0  0  0  0  0  0  0  0
   -1.5550   26.3820  -26.3350 C   0  0  0  0  0  0  0  0  0  0  0  0
   -1.1980   25.6500  -27.4720 C   0  0  0  0  0  0  0  0  0  0  0  0
   -2.8595   20.8656  -33.2291 H   0  0  0  0  0  0  0  0  0  0  0  0
   -4.4436   20.6139  -34.0378 H   0  0  0  0  0  0  0  0  0  0  0  0
   -3.6837   22.2416  -34.0378 H   0  0  0  0  0  0  0  0  0  0  0  0
   -5.0603   22.6268  -32.2909 H   0  0  0  0  0  0  0  0  0  0  0  0
   -5.1768   19.6431  -31.6686 H   0  0  0  0  0  0  0  0  0  0  0  0
   -6.1648   20.9862  -30.9006 H   0  0  0  0  0  0  0  0  0  0  0  0
   -6.5344   21.1901  -33.6948 H   0  0  0  0  0  0  0  0  0  0  0  0
   -7.3983   19.0211  -34.3679 H   0  0  0  0  0  0  0  0  0  0  0  0
   -5.6914   18.8206  -33.7686 H   0  0  0  0  0  0  0  0  0  0  0  0
   -7.5049   17.0813  -33.0535 H   0  0  0  0  0  0  0  0  0  0  0  0
   -6.3435   17.7682  -31.8219 H   0  0  0  0  0  0  0  0  0  0  0  0
   -9.0775   17.5893  -31.4968 H   0  0  0  0  0  0  0  0  0  0  0  0
   -7.9598   18.7289  -30.6267 H   0  0  0  0  0  0  0  0  0  0  0  0
   -9.5205   19.3529  -33.1738 H   0  0  0  0  0  0  0  0  0  0  0  0
   -9.9266   19.9072  -31.5010 H   0  0  0  0  0  0  0  0  0  0  0  0
   -8.6407   21.5442  -33.0531 H   0  0  0  0  0  0  0  0  0  0  0  0
   -8.0314   21.2642  -31.3490 H   0  0  0  0  0  0  0  0  0  0  0  0
   -3.6952   20.9926  -30.2655 H   0  0  0  0  0  0  0  0  0  0  0  0
   -2.5462   21.8458  -31.3901 H   0  0  0  0  0  0  0  0  0  0  0  0
   -4.9785   23.8438  -31.7918 H   0  0  0  0  0  0  0  0  0  0  0  0
   -5.8586   23.0542  -30.4199 H   0  0  0  0  0  0  0  0  0  0  0  0
   -4.4317   25.7500  -30.2985 H   0  0  0  0  0  0  0  0  0  0  0  0
   -6.2047   25.5071  -30.4466 H   0  0  0  0  0  0  0  0  0  0  0  0
   -5.5240   25.8610  -28.1800 H   0  0  0  0  0  0  0  0  0  0  0  0
   -6.1800   24.3030  -28.3680 H   0  0  0  0  0  0  0  0  0  0  0  0
   -3.3061   25.0547  -28.2721 H   0  0  0  0  0  0  0  0  0  0  0  0
   -4.2752   24.1849  -27.0005 H   0  0  0  0  0  0  0  0  0  0  0  0
   -4.5327   22.2191  -28.4739 H   0  0  0  0  0  0  0  0  0  0  0  0
   -2.2715   23.0812  -27.2437 H   0  0  0  0  0  0  0  0  0  0  0  0
   -2.3591   21.0115  -26.5180 H   0  0  0  0  0  0  0  0  0  0  0  0
   -3.2466   20.4652  -27.9811 H   0  0  0  0  0  0  0  0  0  0  0  0
   -1.4507   20.5010  -27.9811 H   0  0  0  0  0  0  0  0  0  0  0  0
   -1.6220   23.1490  -29.9310 H   0  0  0  0  0  0  0  0  0  0  0  0
    0.7102   23.0205  -28.3168 H   0  0  0  0  0  0  0  0  0  0  0  0
    0.0436   24.3497  -29.3589 H   0  0  0  0  0  0  0  0  0  0  0  0
    0.0738   22.8618  -25.9441 H   0  0  0  0  0  0  0  0  0  0  0  0
   -0.5609   24.1777  -23.9201 H   0  0  0  0  0  0  0  0  0  0  0  0
   -1.5997   26.4353  -24.1688 H   0  0  0  0  0  0  0  0  0  0  0  0
   -2.0191   27.3734  -26.4434 H   0  0  0  0  0  0  0  0  0  0  0  0
   -1.3857   26.0662  -28.4728 H   0  0  0  0  0  0  0  0  0  0  0  0
  1  2  1  0
  2  3  1  0
  3  4  1  0
  4  5  1  0
  5  6  1  0
  6  7  1  0
  7  8  1  0
  8  9  1  0
  2 10  1  0
 10 11  1  0
 11 12  1  0
 12 13  1  0
 13 14  1  0
 14 15  1  0
 15 16  1  0
 16 17  1  0
 17 18  1  0
 17 19  1  0
 19 20  1  0
 20 21  1  0
 21 22  2  0
 22 23  1  0
 23 24  2  0
 24 25  1  0
 25 26  2  0
  9  4  1  0
 16 11  1  0
 26 21  1  0
  1 27  1  0
  1 28  1  0
  1 29  1  0
  2 30  1  6
  3 31  1  0
  3 32  1  0
  4 33  1  0
  5 34  1  0
  5 35  1  0
  6 36  1  0
  6 37  1  0
  7 38  1  0
  7 39  1  0
  8 40  1  0
  8 41  1  0
  9 42  1  0
  9 43  1  0
 10 44  1  0
 10 45  1  0
 12 46  1  0
 12 47  1  0
 13 48  1  0
 13 49  1  0
 14 50  1  0
 14 51  1  0
 15 52  1  0
 15 53  1  0
 16 54  1  6
 17 55  1  1
 18 56  1  0
 18 57  1  0
 18 58  1  0
 19 59  1  0
 20 60  1  0
 20 61  1  0
 22 62  1  0
 23 63  1  0
 24 64  1  0
 25 65  1  0
 26 66  1  0
M  CHG  1  14   1
M  END
>  <UniqueID>  (21) 
21

>  <SMILES>  (21) 
CC(NCc1ccccc1)[C@H]1C[NH2+]CCN1C[C@@H](C)CC1CCCCC1

>  <Energy>  (21) 
80.36976295666041

>  <Genealogy>  (21) 
CC(CC1CCCCC1)CN1CC[NH2+]CC1C(C)NCc1ccccc1 (protonated)
CC(NCc1ccccc1)[C@H]1C[NH2+]CCN1C[C@@H](C)CC1CCCCC1 (chirality)
CC(NCc1ccccc1)[C@H]1C[NH2+]CCN1C[C@@H](C)CC1CCCCC1 (3D coordinates assigned)
CC(NCc1ccccc1)[C@H]1C[NH2+]CCN1C[C@@H](C)CC1CCCCC1 (nonaromatic ring conformer: 80.36976295666041 kcal/mol)

>  <smiles>  (21) 
CC(CC1CCCCC1)CN1CCNCC1C(C)NCc1ccccc1

>  <score_type>  (21) 
oracle

>  <origin>  (21) 
adg

>  <m_score__min__energy>  (21) 
-9.1099999999999994

>  <m_primary>  (21) 
energy

$$$$
21:0
     RDKit          3D

 59 62  0  0  0  0  0  0  0  0999 V2000
   -1.9780   19.6510  -26.0140 C   0  0  0  0  0  0  0  0  0  0  0  0
   -1.7720   20.1410  -27.3760 N   0  0  0  0  0  0  0  0  0  0  0  0
   -0.9350   19.6350  -28.3170 C   0  0  0  0  0  0  0  0  0  0  0  0
   -1.0620   20.3260  -29.5110 C   0  0  0  0  0  0  0  0  0  0  0  0
   -2.0660   21.2460  -29.3110 C   0  0  0  0  0  0  0  0  0  0  0  0
   -2.6750   22.1370  -30.1920 C   0  0  0  0  0  0  0  0  0  0  0  0
   -3.7620   22.8970  -29.7150 C   0  0  0  0  0  0  0  0  0  0  0  0
   -4.6410   23.9740  -30.7980 S   0  0  0  0  0  0  0  0  0  0  0  0
   -4.6420   23.4180  -32.1930 O   0  0  0  0  0  0  0  0  0  0  0  0
   -3.9360   25.2990  -30.8150 O   0  0  0  0  0  0  0  0  0  0  0  0
   -6.3340   24.2200  -30.2500 C   0  0  0  0  0  0  0  0  0  0  0  0
   -7.3930   23.6310  -31.2030 C   0  0  0  0  0  0  0  0  0  0  0  0
   -7.4200   22.1090  -31.2740 C   0  0  0  0  0  0  0  0  0  0  0  0
   -8.1480   21.4900  -30.5100 O   0  0  0  0  0  0  0  0  0  0  0  0
   -6.6120   21.3530  -32.2270 N   0  0  1  0  0  0  0  0  0  0  0  0
   -5.4700   20.6420  -31.6170 C   0  0  0  0  0  0  0  0  0  0  0  0
   -7.4490   20.4590  -33.0640 C   0  0  0  0  0  0  0  0  0  0  0  0
   -6.7880   19.1360  -33.3870 C   0  0  0  0  0  0  0  0  0  0  0  0
   -5.8910   19.0320  -34.4650 C   0  0  0  0  0  0  0  0  0  0  0  0
   -5.2680   17.8120  -34.7490 C   0  0  0  0  0  0  0  0  0  0  0  0
   -5.5450   16.6840  -33.9690 C   0  0  0  0  0  0  0  0  0  0  0  0
   -6.4450   16.7780  -32.9050 C   0  0  0  0  0  0  0  0  0  0  0  0
   -7.0660   17.9980  -32.6180 C   0  0  0  0  0  0  0  0  0  0  0  0
   -4.1710   22.7770  -28.3650 C   0  0  0  0  0  0  0  0  0  0  0  0
   -3.5310   21.8740  -27.4970 C   0  0  0  0  0  0  0  0  0  0  0  0
   -2.4780   21.1100  -28.0050 C   0  0  0  0  0  0  0  0  0  0  0  0
   -0.3770   19.9490  -30.7900 C   0  0  0  0  0  0  0  0  0  0  0  0
    0.8220   19.0210  -30.5080 C   0  0  0  0  0  0  0  0  0  0  0  0
    0.4670   17.9170  -29.4880 C   0  0  0  0  0  0  0  0  0  0  0  0
    0.0400   18.5070  -28.1280 C   0  0  0  0  0  0  0  0  0  0  0  0
   -1.6552   20.4187  -25.2954 H   0  0  0  0  0  0  0  0  0  0  0  0
   -3.0448   19.4309  -25.8609 H   0  0  0  0  0  0  0  0  0  0  0  0
   -1.3889   18.7347  -25.8609 H   0  0  0  0  0  0  0  0  0  0  0  0
   -2.3188   22.2440  -31.2272 H   0  0  0  0  0  0  0  0  0  0  0  0
   -6.4516   23.7438  -29.2654 H   0  0  0  0  0  0  0  0  0  0  0  0
   -6.5036   25.3064  -30.2179 H   0  0  0  0  0  0  0  0  0  0  0  0
   -8.3827   23.9746  -30.8676 H   0  0  0  0  0  0  0  0  0  0  0  0
   -7.1278   23.9812  -32.2115 H   0  0  0  0  0  0  0  0  0  0  0  0
   -6.1900   22.0590  -32.8760 H   0  0  0  0  0  0  0  0  0  0  0  0
   -5.5501   20.6919  -30.5211 H   0  0  0  0  0  0  0  0  0  0  0  0
   -5.4794   19.5899  -31.9378 H   0  0  0  0  0  0  0  0  0  0  0  0
   -4.5300   21.1148  -31.9378 H   0  0  0  0  0  0  0  0  0  0  0  0
   -8.3870   20.2568  -32.5261 H   0  0  0  0  0  0  0  0  0  0  0  0
   -7.6176   20.9769  -34.0197 H   0  0  0  0  0  0  0  0  0  0  0  0
   -5.6783   19.9136  -35.0875 H   0  0  0  0  0  0  0  0  0  0  0  0
   -4.5591   17.7395  -35.5870 H   0  0  0  0  0  0  0  0  0  0  0  0
   -5.0550   15.7250  -34.1932 H   0  0  0  0  0  0  0  0  0  0  0  0
   -6.6656   15.8916  -32.2921 H   0  0  0  0  0  0  0  0  0  0  0  0
   -7.7781   18.0647  -31.7822 H   0  0  0  0  0  0  0  0  0  0  0  0
   -4.9988   23.3971  -27.9906 H   0  0  0  0  0  0  0  0  0  0  0  0
   -3.8503   21.7726  -26.4493 H   0  0  0  0  0  0  0  0  0  0  0  0
   -1.0921   19.4279  -31.4435 H   0  0  0  0  0  0  0  0  0  0  0  0
   -0.0113   20.8633  -31.2803 H   0  0  0  0  0  0  0  0  0  0  0  0
    1.1348   18.5475  -31.4503 H   0  0  0  0  0  0  0  0  0  0  0  0
    1.6329   19.6306  -30.0828 H   0  0  0  0  0  0  0  0  0  0  0  0
   -0.3607   17.3142  -29.8899 H   0  0  0  0  0  0  0  0  0  0  0  0
    1.3638   17.3008  -29.3262 H   0  0  0  0  0  0  0  0  0  0  0  0
   -0.4340   17.7180  -27.5256 H   0  0  0  0  0  0  0  0  0  0  0  0
    0.9331   18.8954  -27.6166 H   0  0  0  0  0  0  0  0  0  0  0  0
  1  2  1  0
  2  3  1  0
  3  4  2  0
  4  5  1  0
  5  6  2  0
  6  7  1  0
  7  8  1  0
  8  9  2  0
  8 10  2  0
  8 11  1  0
 11 12  1  0
 12 13  1  0
 13 14  2  0
 13 15  1  0
 15 16  1  0
 15 17  1  0
 17 18  1  0
 18 19  2  0
 19 20  1  0
 20 21  2  0
 21 22  1  0
 22 23  2  0
  7 24  2  0
 24 25  1  0
 25 26  2  0
  4 27  1  0
 27 28  1  0
 28 29  1  0
 29 30  1  0
 26  2  1  0
 30  3  1  0
 26  5  1  0
 23 18  1  0
  1 31  1  0
  1 32  1  0
  1 33  1  0
  6 34  1  0
 11 35  1  0
 11 36  1  0
 12 37  1  0
 12 38  1  0
 15 39  1  6
 16 40  1  0
 16 41  1  0
 16 42  1  0
 17 43  1  0
 17 44  1  0
 19 45  1  0
 20 46  1  0
 21 47  1  0
 22 48  1  0
 23 49  1  0
 24 50  1  0
 25 51  1  0
 27 52  1  0
 27 53  1  0
 28 54  1  0
 28 55  1  0
 29 56  1  0
 29 57  1  0
 30 58  1  0
 30 59  1  0
M  CHG  1  15   1
M  END
>  <UniqueID>  (22) 
22

>  <SMILES>  (22) 
Cn1c2c(c3cc(S(=O)(=O)CCC(=O)[N@@H+](C)Cc4ccccc4)ccc31)CCCC2

>  <Energy>  (22) 
96.13610927697427

>  <Genealogy>  (22) 
Cn1c2c(c3cc(S(=O)(=O)CCC(=O)[NH+](C)Cc4ccccc4)ccc31)CCCC2 (protonated)
Cn1c2c(c3cc(S(=O)(=O)CCC(=O)[N@@H+](C)Cc4ccccc4)ccc31)CCCC2 (chirality)
Cn1c2c(c3cc(S(=O)(=O)CCC(=O)[N@@H+](C)Cc4ccccc4)ccc31)CCCC2 (3D coordinates assigned)
Cn1c2c(c3cc(S(=O)(=O)CCC(=O)[N@@H+](C)Cc4ccccc4)ccc31)CCCC2 (nonaromatic ring conformer: 96.13610927697427 kcal/mol)

>  <smiles>  (22) 
CN(Cc1ccccc1)C(=O)CCS(=O)(=O)c1ccc2c(c1)c1c(n2C)CCCC1

>  <score_type>  (22) 
oracle

>  <origin>  (22) 
adg

>  <m_score__min__energy>  (22) 
-10.23

>  <m_primary>  (22) 
energy

$$$$
22:0
     RDKit          3D

 43 46  0  0  0  0  0  0  0  0999 V2000
   -0.2010   24.4890  -24.4240 C   0  0  0  0  0  0  0  0  0  0  0  0
   -1.2120   25.4120  -25.0380 C   0  0  0  0  0  0  0  0  0  0  0  0
   -1.5260   26.4570  -24.4100 O   0  0  0  0  0  0  0  0  0  0  0  0
   -1.8440   25.1220  -26.3540 C   0  0  0  0  0  0  0  0  0  0  0  0
   -3.2130   24.8060  -26.4290 C   0  0  0  0  0  0  0  0  0  0  0  0
   -3.8190   24.5520  -27.6660 C   0  0  0  0  0  0  0  0  0  0  0  0
   -3.0870   24.6780  -28.8520 C   0  0  0  0  0  0  0  0  0  0  0  0
   -3.8630   24.4070  -30.4590 S   0  0  0  0  0  0  0  0  0  0  0  0
   -3.9520   22.5930  -30.3760 C   0  0  0  0  0  0  0  0  0  0  0  0
   -3.1000   21.8880  -29.6060 C   0  0  0  0  0  0  0  0  0  0  0  0
   -3.4620   21.4040  -27.9030 S   0  0  0  0  0  0  0  0  0  0  0  0
   -2.0700   20.2790  -27.9730 C   0  0  0  0  0  0  0  0  0  0  0  0
   -1.8670   19.0790  -26.8780 S   0  0  0  0  0  0  0  0  0  0  0  0
   -1.2970   20.3390  -29.1630 N   0  0  0  0  0  0  0  0  0  0  0  0
   -1.8510   21.2670  -30.0730 C   0  0  0  0  0  0  0  0  0  0  0  0
   -1.2760   21.5500  -31.1570 O   0  0  0  0  0  0  0  0  0  0  0  0
   -5.2260   21.9710  -30.8090 C   0  0  0  0  0  0  0  0  0  0  0  0
   -6.7260   22.6770  -30.4620 S   0  0  0  0  0  0  0  0  0  0  0  0
   -7.5800   21.4890  -31.2750 C   0  0  0  0  0  0  0  0  0  0  0  0
   -8.9600   21.3840  -31.4410 C   0  0  0  0  0  0  0  0  0  0  0  0
   -9.4560   20.3070  -32.1810 C   0  0  0  0  0  0  0  0  0  0  0  0
   -8.5720   19.3770  -32.7510 C   0  0  0  0  0  0  0  0  0  0  0  0
   -7.1820   19.5070  -32.5750 C   0  0  0  0  0  0  0  0  0  0  0  0
   -6.6880   20.5730  -31.8070 C   0  0  0  0  0  0  0  0  0  0  0  0
   -5.3700   20.8250  -31.5280 N   0  0  0  0  0  0  0  0  0  0  0  0
   -4.2570   20.0230  -32.0410 C   0  0  0  0  0  0  0  0  0  0  0  0
   -1.7060   24.9040  -28.7780 C   0  0  0  0  0  0  0  0  0  0  0  0
   -1.0910   25.1320  -27.5460 C   0  0  0  0  0  0  0  0  0  0  0  0
   -0.2674   24.5496  -23.3277 H   0  0  0  0  0  0  0  0  0  0  0  0
   -0.4028   23.4571  -24.7471 H   0  0  0  0  0  0  0  0  0  0  0  0
    0.8084   24.7836  -24.7471 H   0  0  0  0  0  0  0  0  0  0  0  0
   -3.8127   24.7580  -25.5081 H   0  0  0  0  0  0  0  0  0  0  0  0
   -4.8765   24.2517  -27.7054 H   0  0  0  0  0  0  0  0  0  0  0  0
   -0.4610   19.7430  -29.3620 H   0  0  0  0  0  0  0  0  0  0  0  0
   -9.6402   22.1285  -31.0016 H   0  0  0  0  0  0  0  0  0  0  0  0
  -10.5410   20.1878  -32.3171 H   0  0  0  0  0  0  0  0  0  0  0  0
   -8.9700   18.5383  -33.3411 H   0  0  0  0  0  0  0  0  0  0  0  0
   -6.4919   18.7831  -33.0330 H   0  0  0  0  0  0  0  0  0  0  0  0
   -3.6837   19.6099  -31.1980 H   0  0  0  0  0  0  0  0  0  0  0  0
   -4.6508   19.1997  -32.6551 H   0  0  0  0  0  0  0  0  0  0  0  0
   -3.6007   20.6571  -32.6551 H   0  0  0  0  0  0  0  0  0  0  0  0
   -1.1023   24.9017  -29.6975 H   0  0  0  0  0  0  0  0  0  0  0  0
   -0.0082   25.3214  -27.5046 H   0  0  0  0  0  0  0  0  0  0  0  0
  1  2  1  0
  2  3  2  0
  2  4  1  0
  4  5  2  0
  5  6  1  0
  6  7  2  0
  7  8  1  0
  8  9  1  0
  9 10  2  3
 10 11  1  0
 11 12  1  0
 12 13  2  0
 12 14  1  0
 14 15  1  0
 15 16  2  0
  9 17  1  0
 17 18  1  0
 18 19  1  0
 19 20  2  0
 20 21  1  0
 21 22  2  0
 22 23  1  0
 23 24  2  0
 24 25  1  0
 25 26  1  0
  7 27  1  0
 27 28  2  0
 28  4  1  0
 15 10  1  0
 25 17  2  0
 24 19  1  0
  1 29  1  0
  1 30  1  0
  1 31  1  0
  5 32  1  0
  6 33  1  0
 14 34  1  0
 20 35  1  0
 21 36  1  0
 22 37  1  0
 23 38  1  0
 26 39  1  0
 26 40  1  0
 26 41  1  0
 27 42  1  0
 28 43  1  0
M  CHG  1  25   1
M  END
>  <UniqueID>  (23) 
23

>  <SMILES>  (23) 
CC(=O)c1ccc(SC(=C2SC(=S)NC2=O)c2sc3ccccc3[n+]2C)cc1

>  <Energy>  (23) 
114.63164369280008

>  <Genealogy>  (23) 
CC(=O)c1ccc(SC(=C2SC(=S)NC2=O)c2sc3ccccc3[n+]2C)cc1 (3D coordinates assigned)
CC(=O)c1ccc(SC(=C2SC(=S)NC2=O)c2sc3ccccc3[n+]2C)cc1 (nonaromatic ring conformer: 114.63164369280008 kcal/mol)

>  <smiles>  (23) 
CC(=O)c1ccc(SC(=C2SC(=S)NC2=O)c2sc3ccccc3[n+]2C)cc1

>  <score_type>  (23) 
oracle

>  <origin>  (23) 
adg

>  <m_score__min__energy>  (23) 
-8.8000000000000007

>  <m_primary>  (23) 
energy

$$$$
23:0
     RDKit          3D

 45 47  0  0  0  0  0  0  0  0999 V2000
    0.4440   21.2180  -36.0910 C   0  0  0  0  0  0  0  0  0  0  0  0
    0.0490   20.7140  -34.7040 C   0  0  0  0  0  0  0  0  0  0  0  0
   -1.2080   21.3340  -34.2590 N   0  0  0  0  0  0  0  0  0  0  0  0
   -1.3060   21.3050  -32.7910 C   0  0  0  0  0  0  0  0  0  0  0  0
   -2.6230   21.9210  -32.2990 C   0  0  0  0  0  0  0  0  0  0  0  0
   -3.7060   21.7010  -33.2580 N   0  0  0  0  0  0  0  0  0  0  0  0
   -4.9880   21.2290  -32.8200 C   0  0  0  0  0  0  0  0  0  0  0  0
   -5.7850   22.0580  -32.0450 C   0  0  0  0  0  0  0  0  0  0  0  0
   -5.3980   23.5630  -31.4050 S   0  0  0  0  0  0  0  0  0  0  0  0
   -6.8780   23.8010  -30.6400 C   0  0  0  0  0  0  0  0  0  0  0  0
   -7.6940   22.7000  -30.8870 C   0  0  0  0  0  0  0  0  0  0  0  0
   -7.0780   21.7200  -31.6960 C   0  0  0  0  0  0  0  0  0  0  0  0
   -7.6440   20.5470  -32.1360 N   0  0  0  0  0  0  0  0  0  0  0  0
   -9.0770   20.2820  -31.8960 C   0  0  0  0  0  0  0  0  0  0  0  0
   -6.8450   19.6200  -32.7930 C   0  0  0  0  0  0  0  0  0  0  0  0
   -7.3290   18.3270  -33.1020 C   0  0  0  0  0  0  0  0  0  0  0  0
   -6.5350   17.3990  -33.7640 C   0  0  0  0  0  0  0  0  0  0  0  0
   -5.2270   17.7100  -34.1070 C   0  0  0  0  0  0  0  0  0  0  0  0
   -4.6770   18.9610  -33.7860 C   0  0  0  0  0  0  0  0  0  0  0  0
   -3.3250   19.2340  -34.0540 O   0  0  0  0  0  0  0  0  0  0  0  0
   -2.2920   18.2570  -34.1410 C   0  0  0  0  0  0  0  0  0  0  0  0
   -5.4900   19.9440  -33.1530 C   0  0  0  0  0  0  0  0  0  0  0  0
    1.1196   22.0801  -35.9892 H   0  0  0  0  0  0  0  0  0  0  0  0
    0.9553   20.4144  -36.6413 H   0  0  0  0  0  0  0  0  0  0  0  0
   -0.4585   21.5224  -36.6413 H   0  0  0  0  0  0  0  0  0  0  0  0
   -0.0812   19.6224  -34.7410 H   0  0  0  0  0  0  0  0  0  0  0  0
    0.8443   20.9821  -33.9929 H   0  0  0  0  0  0  0  0  0  0  0  0
   -2.0100   20.8080  -34.6770 H   0  0  0  0  0  0  0  0  0  0  0  0
   -1.2380   22.3290  -34.5870 H   0  0  0  0  0  0  0  0  0  0  0  0
   -1.2516   20.2605  -32.4504 H   0  0  0  0  0  0  0  0  0  0  0  0
   -0.4751   21.8969  -32.3795 H   0  0  0  0  0  0  0  0  0  0  0  0
   -2.8966   21.4605  -31.3382 H   0  0  0  0  0  0  0  0  0  0  0  0
   -2.4767   23.0052  -32.1845 H   0  0  0  0  0  0  0  0  0  0  0  0
   -3.4490   21.5620  -34.2620 H   0  0  0  0  0  0  0  0  0  0  0  0
   -7.1554   24.6821  -30.0427 H   0  0  0  0  0  0  0  0  0  0  0  0
   -8.7159   22.6033  -30.4916 H   0  0  0  0  0  0  0  0  0  0  0  0
   -9.2670   20.2469  -30.8131 H   0  0  0  0  0  0  0  0  0  0  0  0
   -9.6789   21.0841  -32.3481 H   0  0  0  0  0  0  0  0  0  0  0  0
   -9.3523   19.3177  -32.3481 H   0  0  0  0  0  0  0  0  0  0  0  0
   -8.3537   18.0512  -32.8125 H   0  0  0  0  0  0  0  0  0  0  0  0
   -6.9461   16.4108  -34.0180 H   0  0  0  0  0  0  0  0  0  0  0  0
   -4.6133   16.9669  -34.6372 H   0  0  0  0  0  0  0  0  0  0  0  0
   -1.9801   17.9620  -33.1282 H   0  0  0  0  0  0  0  0  0  0  0  0
   -2.6663   17.3748  -34.6810 H   0  0  0  0  0  0  0  0  0  0  0  0
   -1.4320   18.6798  -34.6810 H   0  0  0  0  0  0  0  0  0  0  0  0
  1  2  1  0
  2  3  1  0
  3  4  1  0
  4  5  1  0
  5  6  1  0
  6  7  1  0
  7  8  2  0
  8  9  1  0
  9 10  1  0
 10 11  2  0
 11 12  1  0
 12 13  2  0
 13 14  1  0
 13 15  1  0
 15 16  2  0
 16 17  1  0
 17 18  2  0
 18 19  1  0
 19 20  1  0
 20 21  1  0
 19 22  2  0
 22  7  1  0
 12  8  1  0
 22 15  1  0
  1 23  1  0
  1 24  1  0
  1 25  1  0
  2 26  1  0
  2 27  1  0
  3 28  1  0
  3 29  1  0
  4 30  1  0
  4 31  1  0
  5 32  1  0
  5 33  1  0
  6 34  1  0
 10 35  1  0
 11 36  1  0
 14 37  1  0
 14 38  1  0
 14 39  1  0
 16 40  1  0
 17 41  1  0
 18 42  1  0
 21 43  1  0
 21 44  1  0
 21 45  1  0
M  CHG  2   3   1  13   1
M  END
>  <UniqueID>  (24) 
24

>  <SMILES>  (24) 
CC[NH2+]CCNc1c2sccc2[n+](C)c2cccc(OC)c12

>  <Energy>  (24) 
91.05934045782423

>  <Genealogy>  (24) 
CC[NH2+]CCNc1c2sccc2[n+](C)c2cccc(OC)c12 (protonated)
CC[NH2+]CCNc1c2sccc2[n+](C)c2cccc(OC)c12 (3D coordinates assigned)
CC[NH2+]CCNc1c2sccc2[n+](C)c2cccc(OC)c12 (optimized conformer: 91.05934045782423 kcal/mol)

>  <smiles>  (24) 
CCNCCNc1c2sccc2[n+](C)c2cccc(OC)c12

>  <score_type>  (24) 
oracle

>  <origin>  (24) 
adg

>  <m_score__min__energy>  (24) 
-6.1299999999999999

>  <m_primary>  (24) 
energy

$$$$
