0:0
     RDKit          3D

 33 34  0  0  0  0  0  0  0  0999 V2000
    0.4280   28.1050  -24.2340 C   0  0  0  0  0  0  0  0  0  0  0  0
   -0.3260   26.8140  -23.9050 C   0  0  0  0  0  0  0  0  0  0  0  0
    0.5840   25.6620  -23.7160 N   0  0  0  0  0  0  0  0  0  0  0  0
    1.5700   25.5130  -24.8020 C   0  0  0  0  0  0  0  0  0  0  0  0
    0.9250   25.1270  -26.1020 C   0  0  0  0  0  0  0  0  0  0  0  0
   -0.3920   24.8780  -26.2380 N   0  0  0  0  0  0  0  0  0  0  0  0
   -0.5200   24.5580  -27.5460 C   0  0  0  0  0  0  0  0  0  0  0  0
   -1.8080   24.1960  -28.1780 C   0  0  0  0  0  0  0  0  0  0  0  0
   -3.0210   24.5130  -27.5370 C   0  0  0  0  0  0  0  0  0  0  0  0
   -4.2430   24.1740  -28.1240 C   0  0  0  0  0  0  0  0  0  0  0  0
   -4.2700   23.5160  -29.3560 C   0  0  0  0  0  0  0  0  0  0  0  0
   -5.9420   23.0550  -30.1570 Br  0  0  0  0  0  0  0  0  0  0  0  0
   -3.0730   23.1950  -30.0030 C   0  0  0  0  0  0  0  0  0  0  0  0
   -1.8460   23.5320  -29.4200 C   0  0  0  0  0  0  0  0  0  0  0  0
   -0.7020   23.2060  -30.0740 F   0  0  0  0  0  0  0  0  0  0  0  0
    0.6280   24.6020  -28.1910 O   0  0  0  0  0  0  0  0  0  0  0  0
    1.5430   24.9510  -27.3230 C   0  0  0  0  0  0  0  0  0  0  0  0
    2.9930   25.1110  -27.6420 C   0  0  0  0  0  0  0  0  0  0  0  0
    0.7210   28.6067  -23.2999 H   0  0  0  0  0  0  0  0  0  0  0  0
    1.3280   27.8650  -24.8192 H   0  0  0  0  0  0  0  0  0  0  0  0
   -0.2232   28.7710  -24.8192 H   0  0  0  0  0  0  0  0  0  0  0  0
   -0.9002   26.9663  -22.9792 H   0  0  0  0  0  0  0  0  0  0  0  0
   -0.9855   26.5847  -24.7550 H   0  0  0  0  0  0  0  0  0  0  0  0
    1.0680   25.7050  -22.7880 H   0  0  0  0  0  0  0  0  0  0  0  0
    0.0000   24.7920  -23.7110 H   0  0  0  0  0  0  0  0  0  0  0  0
    2.0958   26.4697  -24.9373 H   0  0  0  0  0  0  0  0  0  0  0  0
    2.2672   24.7108  -24.5186 H   0  0  0  0  0  0  0  0  0  0  0  0
   -3.0066   25.0314  -26.5669 H   0  0  0  0  0  0  0  0  0  0  0  0
   -5.1852   24.4257  -27.6151 H   0  0  0  0  0  0  0  0  0  0  0  0
   -3.0955   22.6763  -30.9727 H   0  0  0  0  0  0  0  0  0  0  0  0
    3.5692   25.1746  -26.7072 H   0  0  0  0  0  0  0  0  0  0  0  0
    3.3374   24.2454  -28.2269 H   0  0  0  0  0  0  0  0  0  0  0  0
    3.1404   26.0309  -28.2269 H   0  0  0  0  0  0  0  0  0  0  0  0
  1  2  1  0
  2  3  1  0
  3  4  1  0
  4  5  1  0
  5  6  1  0
  6  7  2  0
  7  8  1  0
  8  9  2  0
  9 10  1  0
 10 11  2  0
 11 12  1  0
 11 13  1  0
 13 14  2  0
 14 15  1  0
  7 16  1  0
 16 17  1  0
 17 18  1  0
 17  5  2  0
 14  8  1  0
  1 19  1  0
  1 20  1  0
  1 21  1  0
  2 22  1  0
  2 23  1  0
  3 24  1  0
  3 25  1  0
  4 26  1  0
  4 27  1  0
  9 28  1  0
 10 29  1  0
 13 30  1  0
 18 31  1  0
 18 32  1  0
 18 33  1  0
M  CHG  1   3   1
M  END
>  <UniqueID>  (1) 
1

>  <SMILES>  (1) 
CC[NH2+]Cc1nc(-c2ccc(Br)cc2F)oc1C

>  <Energy>  (1) 
60.91973141309026

>  <Genealogy>  (1) 
CC[NH2+]Cc1nc(-c2ccc(Br)cc2F)oc1C (protonated)
CC[NH2+]Cc1nc(-c2ccc(Br)cc2F)oc1C (3D coordinates assigned)
CC[NH2+]Cc1nc(-c2ccc(Br)cc2F)oc1C (optimized conformer: 60.91973141309026 kcal/mol)

>  <smiles>  (1) 
CCNCc1nc(-c2ccc(Br)cc2F)oc1C

>  <score_type>  (1) 
oracle

>  <origin>  (1) 
adg

>  <m_score__min__energy>  (1) 
-6.2000000000000002

>  <m_primary>  (1) 
energy

$$$$
1:0
     RDKit          3D

 42 45  0  0  0  0  0  0  0  0999 V2000
   -0.8560   27.6500  -24.7360 C   0  0  0  0  0  0  0  0  0  0  0  0
   -0.7840   26.4580  -24.8990 C   0  0  0  0  0  0  0  0  0  0  0  0
   -0.6990   25.0340  -25.0920 C   0  0  0  0  0  0  0  0  0  0  0  0
   -1.3060   24.4450  -26.2080 C   0  0  0  0  0  0  0  0  0  0  0  0
   -1.2220   23.0560  -26.3970 C   0  0  0  0  0  0  0  0  0  0  0  0
   -1.8450   22.4380  -27.5420 N   0  0  0  0  0  0  0  0  0  0  0  0
   -3.2790   22.1580  -27.6670 C   0  0  0  0  0  0  0  0  0  0  0  0
   -3.4230   21.9430  -29.1820 C   0  0  2  0  0  0  0  0  0  0  0  0
   -2.1280   21.2200  -29.4840 C   0  0  0  0  0  0  0  0  0  0  0  0
   -1.2710   22.3190  -28.8860 C   0  0  1  0  0  0  0  0  0  0  0  0
   -1.7560   23.5350  -29.6930 C   0  0  0  0  0  0  0  0  0  0  0  0
   -3.1820   23.2370  -29.8240 N   0  0  0  0  0  0  0  0  0  0  0  0
   -4.1520   24.1020  -30.4340 C   0  0  0  0  0  0  0  0  0  0  0  0
   -3.8490   25.3000  -30.6820 O   0  0  0  0  0  0  0  0  0  0  0  0
   -5.5020   23.5860  -30.8550 C   0  0  0  0  0  0  0  0  0  0  0  0
   -5.6240   22.8340  -32.1880 C   0  0  0  0  0  0  0  0  0  0  0  0
   -4.3410   22.2170  -32.5460 C   0  0  0  0  0  0  0  0  0  0  0  0
   -3.3290   21.7310  -32.8270 N   0  0  0  0  0  0  0  0  0  0  0  0
   -6.7010   24.4410  -30.4530 C   0  0  0  0  0  0  0  0  0  0  0  0
   -6.4210   23.1330  -29.7250 C   0  0  0  0  0  0  0  0  0  0  0  0
   -0.5250   22.2880  -25.4500 C   0  0  0  0  0  0  0  0  0  0  0  0
    0.0680   22.9140  -24.3510 C   0  0  0  0  0  0  0  0  0  0  0  0
   -0.0280   24.2610  -24.1930 N   0  0  0  0  0  0  0  0  0  0  0  0
   -0.9217   28.7379  -24.5872 H   0  0  0  0  0  0  0  0  0  0  0  0
   -1.8472   25.0687  -26.9347 H   0  0  0  0  0  0  0  0  0  0  0  0
   -3.5619   21.2556  -27.1052 H   0  0  0  0  0  0  0  0  0  0  0  0
   -3.9259   22.9517  -27.2649 H   0  0  0  0  0  0  0  0  0  0  0  0
   -4.3741   21.4769  -29.4790 H   0  0  0  0  0  0  0  0  0  0  0  0
   -2.0329   20.2585  -28.9582 H   0  0  0  0  0  0  0  0  0  0  0  0
   -1.9310   20.9031  -30.5188 H   0  0  0  0  0  0  0  0  0  0  0  0
   -0.1783   22.1926  -28.8839 H   0  0  0  0  0  0  0  0  0  0  0  0
   -1.5889   24.4747  -29.1461 H   0  0  0  0  0  0  0  0  0  0  0  0
   -1.2345   23.6790  -30.6508 H   0  0  0  0  0  0  0  0  0  0  0  0
   -6.3895   22.0498  -32.0931 H   0  0  0  0  0  0  0  0  0  0  0  0
   -5.9094   23.5471  -32.9755 H   0  0  0  0  0  0  0  0  0  0  0  0
   -6.5444   25.4009  -29.9391 H   0  0  0  0  0  0  0  0  0  0  0  0
   -7.5658   24.8660  -30.9835 H   0  0  0  0  0  0  0  0  0  0  0  0
   -6.0625   23.1484  -28.6852 H   0  0  0  0  0  0  0  0  0  0  0  0
   -7.0004   22.2225  -29.5121 H   0  0  0  0  0  0  0  0  0  0  0  0
   -0.4464   21.1978  -25.5732 H   0  0  0  0  0  0  0  0  0  0  0  0
    0.6156   22.3139  -23.6094 H   0  0  0  0  0  0  0  0  0  0  0  0
    0.4260   24.7020  -23.3610 H   0  0  0  0  0  0  0  0  0  0  0  0
  1  2  3  0
  2  3  1  0
  3  4  2  0
  4  5  1  0
  5  6  1  0
  6  7  1  0
  7  8  1  0
  8  9  1  0
  9 10  1  0
 10 11  1  0
 11 12  1  0
 12 13  1  0
 13 14  2  0
 13 15  1  0
 15 16  1  0
 16 17  1  0
 17 18  3  0
 15 19  1  0
 19 20  1  0
  5 21  2  0
 21 22  1  0
 22 23  2  0
 23  3  1  0
 10  6  1  0
 20 15  1  0
 12  8  1  0
  1 24  1  0
  4 25  1  0
  7 26  1  0
  7 27  1  0
  8 28  1  1
  9 29  1  0
  9 30  1  0
 10 31  1  1
 11 32  1  0
 11 33  1  0
 16 34  1  0
 16 35  1  0
 19 36  1  0
 19 37  1  0
 20 38  1  0
 20 39  1  0
 21 40  1  0
 22 41  1  0
 23 42  1  0
M  CHG  1  23   1
M  END
>  <UniqueID>  (2) 
2

>  <SMILES>  (2) 
C#Cc1cc(N2C[C@@H]3C[C@H]2CN3C(=O)C2(CC#N)CC2)cc[nH+]1

>  <Energy>  (2) 
342.60982631097943

>  <Genealogy>  (2) 
C#Cc1cc(N2CC3CC2CN3C(=O)C2(CC#N)CC2)cc[nH+]1 (protonated)
C#Cc1cc(N2C[C@@H]3C[C@H]2CN3C(=O)C2(CC#N)CC2)cc[nH+]1 (chirality)
C#Cc1cc(N2C[C@@H]3C[C@H]2CN3C(=O)C2(CC#N)CC2)cc[nH+]1 (3D coordinates assigned)
C#Cc1cc(N2C[C@@H]3C[C@H]2CN3C(=O)C2(CC#N)CC2)cc[nH+]1 (nonaromatic ring conformer: 342.60982631097943 kcal/mol)

>  <smiles>  (2) 
C#Cc1cc(N2CC3CC2CN3C(=O)C2(CC#N)CC2)ccn1

>  <score_type>  (2) 
oracle

>  <origin>  (2) 
adg

>  <m_score__min__energy>  (2) 
-7.6699999999999999

>  <m_primary>  (2) 
energy

$$$$
2:0
     RDKit          3D

 48 49  0  0  0  0  0  0  0  0999 V2000
   -3.2020   19.9640  -32.1870 H   0  0  0  0  0  0  0  0  0  0  0  0
   -3.7860   19.8170  -33.0010 O   0  0  0  0  0  0  0  0  0  0  0  0
   -4.7970   20.7000  -33.3040 N   0  0  0  0  0  0  0  0  0  0  0  0
   -4.5450   21.7040  -33.4590 H   0  0  0  0  0  0  0  0  0  0  0  0
   -6.0190   20.2970  -33.5020 C   0  0  0  0  0  0  0  0  0  0  0  0
   -7.1270   20.9440  -32.7700 C   0  0  0  0  0  0  0  0  0  0  0  0
   -7.0120   22.2500  -32.2370 C   0  0  0  0  0  0  0  0  0  0  0  0
   -5.8050   22.9630  -32.2520 O   0  0  0  0  0  0  0  0  0  0  0  0
   -5.0630   23.3200  -31.1150 C   0  0  0  0  0  0  0  0  0  0  0  0
   -5.7040   24.0650  -30.1180 C   0  0  0  0  0  0  0  0  0  0  0  0
   -6.7669   24.3251  -30.2307 H   0  0  0  0  0  0  0  0  0  0  0  0
   -5.0070   24.4810  -28.9820 C   0  0  0  0  0  0  0  0  0  0  0  0
   -5.5229   25.0668  -28.2070 H   0  0  0  0  0  0  0  0  0  0  0  0
   -3.6550   24.1560  -28.8250 C   0  0  0  0  0  0  0  0  0  0  0  0
   -2.9170   24.5780  -27.5870 C   0  0  0  0  0  0  0  0  0  0  0  0
   -3.4790   24.2567  -26.6977 H   0  0  0  0  0  0  0  0  0  0  0  0
   -1.9199   24.1135  -27.5783 H   0  0  0  0  0  0  0  0  0  0  0  0
   -2.8116   25.6729  -27.5783 H   0  0  0  0  0  0  0  0  0  0  0  0
   -3.0180   23.3670  -29.7940 C   0  0  0  0  0  0  0  0  0  0  0  0
   -1.9646   23.0815  -29.6569 H   0  0  0  0  0  0  0  0  0  0  0  0
   -3.7140   22.9360  -30.9420 C   0  0  0  0  0  0  0  0  0  0  0  0
   -3.1040   22.1230  -31.9100 O   0  0  0  0  0  0  0  0  0  0  0  0
   -1.7320   21.7400  -31.8990 C   0  0  0  0  0  0  0  0  0  0  0  0
   -1.3866   21.6436  -30.8591 H   0  0  0  0  0  0  0  0  0  0  0  0
   -1.6165   20.7753  -32.4147 H   0  0  0  0  0  0  0  0  0  0  0  0
   -1.1335   22.5054  -32.4147 H   0  0  0  0  0  0  0  0  0  0  0  0
   -8.1050   22.8460  -31.6880 N   0  0  0  0  0  0  0  0  0  0  0  0
   -9.3040   22.2130  -31.5930 C   0  0  0  0  0  0  0  0  0  0  0  0
  -10.1647   22.7318  -31.1458 H   0  0  0  0  0  0  0  0  0  0  0  0
   -9.4450   20.9080  -32.0610 C   0  0  0  0  0  0  0  0  0  0  0  0
  -10.4072   20.3837  -31.9645 H   0  0  0  0  0  0  0  0  0  0  0  0
   -8.3530   20.2740  -32.6530 C   0  0  0  0  0  0  0  0  0  0  0  0
   -8.4539   19.2453  -33.0292 H   0  0  0  0  0  0  0  0  0  0  0  0
   -6.3250   19.2840  -34.4750 N   0  0  0  0  0  0  0  0  0  0  0  0
   -7.2370   19.3440  -34.9800 H   0  0  0  0  0  0  0  0  0  0  0  0
   -5.6370   17.9910  -34.5190 C   0  0  0  0  0  0  0  0  0  0  0  0
   -5.5575   17.6606  -35.5652 H   0  0  0  0  0  0  0  0  0  0  0  0
   -4.6368   18.1095  -34.0769 H   0  0  0  0  0  0  0  0  0  0  0  0
   -6.4100   16.9300  -33.7120 C   0  0  0  0  0  0  0  0  0  0  0  0
   -7.4371   16.8862  -34.1034 H   0  0  0  0  0  0  0  0  0  0  0  0
   -5.7530   15.5560  -33.8780 C   0  0  0  0  0  0  0  0  0  0  0  0
   -5.5473   15.1258  -32.8867 H   0  0  0  0  0  0  0  0  0  0  0  0
   -6.4303   14.8904  -34.4332 H   0  0  0  0  0  0  0  0  0  0  0  0
   -4.8097   15.6653  -34.4332 H   0  0  0  0  0  0  0  0  0  0  0  0
   -6.4850   17.3080  -32.2240 C   0  0  0  0  0  0  0  0  0  0  0  0
   -6.3075   16.4134  -31.6090 H   0  0  0  0  0  0  0  0  0  0  0  0
   -5.7196   18.0654  -31.9990 H   0  0  0  0  0  0  0  0  0  0  0  0
   -7.4816   17.7158  -31.9990 H   0  0  0  0  0  0  0  0  0  0  0  0
  1  2  1  0
  2  3  1  0
  3  4  1  0
  3  5  2  0
  5  6  1  0
  6  7  2  0
  7  8  1  0
  8  9  1  0
  9 10  2  0
 10 11  1  0
 10 12  1  0
 12 13  1  0
 12 14  2  0
 14 15  1  0
 15 16  1  0
 15 17  1  0
 15 18  1  0
 14 19  1  0
 19 20  1  0
 19 21  2  0
 21 22  1  0
 22 23  1  0
 23 24  1  0
 23 25  1  0
 23 26  1  0
  7 27  1  0
 27 28  2  0
 28 29  1  0
 28 30  1  0
 30 31  1  0
 30 32  2  0
 32 33  1  0
  5 34  1  0
 34 35  1  0
 34 36  1  0
 36 37  1  0
 36 38  1  0
 36 39  1  0
 39 40  1  0
 39 41  1  0
 41 42  1  0
 41 43  1  0
 41 44  1  0
 39 45  1  0
 45 46  1  0
 45 47  1  0
 45 48  1  0
 32  6  1  0
 21  9  1  0
M  CHG  1   3   1
M  END
>  <UniqueID>  (3) 
3

>  <SMILES>  (3) 
COc1cc(C)ccc1Oc1ncccc1/C(NCC(C)C)=[NH+]/O

>  <Energy>  (3) 
56.45223735417234

>  <Genealogy>  (3) 
COc1cc(C)ccc1Oc1ncccc1C(NCC(C)C)=[NH+]O (protonated)
COc1cc(C)ccc1Oc1ncccc1/C(NCC(C)C)=[NH+]/O (cis-trans isomerization)
COc1cc(C)ccc1Oc1ncccc1/C(NCC(C)C)=[NH+]/O (3D coordinates assigned)
COc1cc(C)ccc1Oc1ncccc1/C(NCC(C)C)=[NH+]/O (optimized conformer: 56.45223735417234 kcal/mol)

>  <smiles>  (3) 
COc1cc(C)ccc1Oc1ncccc1C(=NO)NCC(C)C

>  <score_type>  (3) 
oracle

>  <origin>  (3) 
adg

>  <m_score__min__energy>  (3) 
-7.8499999999999996

>  <m_primary>  (3) 
energy

$$$$
3:0
     RDKit          3D

 37 38  0  0  0  0  0  0  0  0999 V2000
   -2.0970   24.7860  -27.9240 C   0  0  0  0  0  0  0  0  0  0  0  0
   -2.3790   24.8340  -29.3200 O   0  0  0  0  0  0  0  0  0  0  0  0
   -2.9660   23.7870  -30.0480 C   0  0  0  0  0  0  0  0  0  0  0  0
   -2.4560   22.4760  -30.0150 C   0  0  0  0  0  0  0  0  0  0  0  0
   -3.0670   21.4620  -30.7530 C   0  0  0  0  0  0  0  0  0  0  0  0
   -4.1980   21.7320  -31.5350 C   0  0  0  0  0  0  0  0  0  0  0  0
   -4.8370   20.6420  -32.3130 C   0  0  0  0  0  0  0  0  0  0  0  0
   -3.9750   19.8670  -33.4790 S   0  0  0  0  0  0  0  0  0  0  0  0
   -6.1920   20.2340  -32.0290 N   0  0  0  0  0  0  0  0  0  0  0  0
   -7.2090   21.2370  -31.6840 C   0  0  0  0  0  0  0  0  0  0  0  0
   -8.5430   20.8770  -32.3460 C   0  0  0  0  0  0  0  0  0  0  0  0
   -9.0170   19.4500  -31.9950 C   0  0  0  0  0  0  0  0  0  0  0  0
   -7.9100   18.5540  -31.4120 C   0  0  0  0  0  0  0  0  0  0  0  0
   -6.5560   18.8080  -32.0860 C   0  0  0  0  0  0  0  0  0  0  0  0
   -4.7060   23.0420  -31.5730 C   0  0  0  0  0  0  0  0  0  0  0  0
   -4.0960   24.0710  -30.8320 C   0  0  0  0  0  0  0  0  0  0  0  0
   -4.5820   25.3890  -30.8440 O   0  0  0  0  0  0  0  0  0  0  0  0
   -5.7390   25.8290  -30.1400 C   0  0  0  0  0  0  0  0  0  0  0  0
   -3.0260   24.9441  -27.3566 H   0  0  0  0  0  0  0  0  0  0  0  0
   -1.6744   23.8030  -27.6689 H   0  0  0  0  0  0  0  0  0  0  0  0
   -1.3729   25.5738  -27.6689 H   0  0  0  0  0  0  0  0  0  0  0  0
   -1.5701   22.2493  -29.4036 H   0  0  0  0  0  0  0  0  0  0  0  0
   -2.6574   20.4416  -30.7208 H   0  0  0  0  0  0  0  0  0  0  0  0
   -7.3393   21.2635  -30.5921 H   0  0  0  0  0  0  0  0  0  0  0  0
   -6.8811   22.2234  -32.0437 H   0  0  0  0  0  0  0  0  0  0  0  0
   -9.3069   21.5939  -32.0107 H   0  0  0  0  0  0  0  0  0  0  0  0
   -8.3953   20.9193  -33.4352 H   0  0  0  0  0  0  0  0  0  0  0  0
   -9.8274   19.5259  -31.2551 H   0  0  0  0  0  0  0  0  0  0  0  0
   -9.3470   18.9818  -32.9341 H   0  0  0  0  0  0  0  0  0  0  0  0
   -7.8158   18.7597  -30.3355 H   0  0  0  0  0  0  0  0  0  0  0  0
   -8.1895   17.5054  -31.5918 H   0  0  0  0  0  0  0  0  0  0  0  0
   -5.7827   18.2194  -31.5707 H   0  0  0  0  0  0  0  0  0  0  0  0
   -6.6311   18.5096  -33.1421 H   0  0  0  0  0  0  0  0  0  0  0  0
   -5.5899   23.2652  -32.1886 H   0  0  0  0  0  0  0  0  0  0  0  0
   -5.5577   25.7600  -29.0572 H   0  0  0  0  0  0  0  0  0  0  0  0
   -5.9573   26.8729  -30.4095 H   0  0  0  0  0  0  0  0  0  0  0  0
   -6.5958   25.1939  -30.4095 H   0  0  0  0  0  0  0  0  0  0  0  0
  1  2  1  0
  2  3  1  0
  3  4  2  0
  4  5  1  0
  5  6  2  0
  6  7  1  0
  7  8  2  0
  7  9  1  0
  9 10  1  0
 10 11  1  0
 11 12  1  0
 12 13  1  0
 13 14  1  0
  6 15  1  0
 15 16  2  0
 16 17  1  0
 17 18  1  0
 16  3  1  0
 14  9  1  0
  1 19  1  0
  1 20  1  0
  1 21  1  0
  4 22  1  0
  5 23  1  0
 10 24  1  0
 10 25  1  0
 11 26  1  0
 11 27  1  0
 12 28  1  0
 12 29  1  0
 13 30  1  0
 13 31  1  0
 14 32  1  0
 14 33  1  0
 15 34  1  0
 18 35  1  0
 18 36  1  0
 18 37  1  0
M  END
>  <UniqueID>  (4) 
4

>  <SMILES>  (4) 
COc1ccc(C(=S)N2CCCCC2)cc1OC

>  <Energy>  (4) 
41.761457952737686

>  <Genealogy>  (4) 
COc1ccc(C(=S)N2CCCCC2)cc1OC (3D coordinates assigned)
COc1ccc(C(=S)N2CCCCC2)cc1OC (nonaromatic ring conformer: 41.761457952737686 kcal/mol)

>  <smiles>  (4) 
COc1ccc(C(=S)N2CCCCC2)cc1OC

>  <score_type>  (4) 
oracle

>  <origin>  (4) 
adg

>  <m_score__min__energy>  (4) 
-7.6399999999999997

>  <m_primary>  (4) 
energy

$$$$
4:0
     RDKit          3D

 57 60  0  0  0  0  0  0  0  0999 V2000
   -9.1800   18.0900  -31.9640 O   0  0  0  0  0  0  0  0  0  0  0  0
   -8.1620   18.9810  -31.5890 C   0  0  2  0  0  0  0  0  0  0  0  0
   -8.1540   20.2080  -32.5270 C   0  0  0  0  0  0  0  0  0  0  0  0
   -7.1540   21.2720  -32.1410 C   0  0  0  0  0  0  0  0  0  0  0  0
   -5.8710   21.2770  -32.7120 C   0  0  0  0  0  0  0  0  0  0  0  0
   -4.9540   22.2790  -32.3840 C   0  0  0  0  0  0  0  0  0  0  0  0
   -5.3040   23.2820  -31.4770 C   0  0  0  0  0  0  0  0  0  0  0  0
   -6.5870   23.2890  -30.8960 C   0  0  0  0  0  0  0  0  0  0  0  0
   -7.4960   22.2700  -31.2120 C   0  0  0  0  0  0  0  0  0  0  0  0
   -6.9570   24.3560  -29.8960 C   0  0  0  0  0  0  0  0  0  0  0  0
   -6.0970   25.6150  -30.0680 C   0  0  0  0  0  0  0  0  0  0  0  0
   -4.6150   25.2370  -30.1260 C   0  0  0  0  0  0  0  0  0  0  0  0
   -4.3820   24.2910  -31.1690 O   0  0  0  0  0  0  0  0  0  0  0  0
   -6.7960   18.2610  -31.4900 C   0  0  0  0  0  0  0  0  0  0  0  0
   -6.7050   17.1100  -32.4220 N   0  0  0  0  0  0  0  0  0  0  0  0
   -5.4780   16.2960  -32.2340 C   0  0  0  0  0  0  0  0  0  0  0  0
   -4.3200   16.7190  -33.1610 C   0  0  0  0  0  0  0  0  0  0  0  0
   -4.4540   18.1400  -33.5210 N   0  0  0  0  0  0  0  0  0  0  0  0
   -3.2440   18.6190  -34.2200 C   0  0  0  0  0  0  0  0  0  0  0  0
   -2.5160   19.6360  -33.3820 C   0  0  0  0  0  0  0  0  0  0  0  0
   -1.5400   20.4700  -33.9540 C   0  0  0  0  0  0  0  0  0  0  0  0
   -0.8910   21.4300  -33.1740 C   0  0  0  0  0  0  0  0  0  0  0  0
   -1.2130   21.5710  -31.8220 C   0  0  0  0  0  0  0  0  0  0  0  0
   -2.1890   20.7510  -31.2470 C   0  0  0  0  0  0  0  0  0  0  0  0
   -2.8410   19.7880  -32.0240 C   0  0  0  0  0  0  0  0  0  0  0  0
   -5.6700   18.3520  -34.3390 C   0  0  0  0  0  0  0  0  0  0  0  0
   -6.8650   17.5160  -33.8330 C   0  0  0  0  0  0  0  0  0  0  0  0
   -8.7430   17.2250  -32.1800 H   0  0  0  0  0  0  0  0  0  0  0  0
   -8.3653   19.3624  -30.5775 H   0  0  0  0  0  0  0  0  0  0  0  0
   -7.9168   19.8636  -33.5444 H   0  0  0  0  0  0  0  0  0  0  0  0
   -9.1506   20.6683  -32.4562 H   0  0  0  0  0  0  0  0  0  0  0  0
   -5.5860   20.4868  -33.4222 H   0  0  0  0  0  0  0  0  0  0  0  0
   -3.9536   22.2779  -32.8414 H   0  0  0  0  0  0  0  0  0  0  0  0
   -8.4843   22.2511  -30.7295 H   0  0  0  0  0  0  0  0  0  0  0  0
   -8.0146   24.6245  -30.0355 H   0  0  0  0  0  0  0  0  0  0  0  0
   -6.7827   23.9560  -28.8862 H   0  0  0  0  0  0  0  0  0  0  0  0
   -6.3794   26.1235  -31.0016 H   0  0  0  0  0  0  0  0  0  0  0  0
   -6.2641   26.2844  -29.2113 H   0  0  0  0  0  0  0  0  0  0  0  0
   -4.0178   26.1409  -30.3168 H   0  0  0  0  0  0  0  0  0  0  0  0
   -4.3243   24.7869  -29.1653 H   0  0  0  0  0  0  0  0  0  0  0  0
   -5.9981   18.9783  -31.7327 H   0  0  0  0  0  0  0  0  0  0  0  0
   -6.6880   17.8772  -30.4648 H   0  0  0  0  0  0  0  0  0  0  0  0
   -5.1461   16.3998  -31.1904 H   0  0  0  0  0  0  0  0  0  0  0  0
   -5.7341   15.2560  -32.4847 H   0  0  0  0  0  0  0  0  0  0  0  0
   -3.3628   16.5639  -32.6416 H   0  0  0  0  0  0  0  0  0  0  0  0
   -4.3514   16.1108  -34.0771 H   0  0  0  0  0  0  0  0  0  0  0  0
   -2.5770   17.7661  -34.4139 H   0  0  0  0  0  0  0  0  0  0  0  0
   -3.5447   19.0899  -35.1676 H   0  0  0  0  0  0  0  0  0  0  0  0
   -1.2864   20.3664  -35.0193 H   0  0  0  0  0  0  0  0  0  0  0  0
   -0.1243   22.0767  -33.6256 H   0  0  0  0  0  0  0  0  0  0  0  0
   -0.6990   22.3268  -31.2099 H   0  0  0  0  0  0  0  0  0  0  0  0
   -2.4441   20.8634  -30.1829 H   0  0  0  0  0  0  0  0  0  0  0  0
   -3.6112   19.1473  -31.5699 H   0  0  0  0  0  0  0  0  0  0  0  0
   -5.9414   19.4173  -34.3011 H   0  0  0  0  0  0  0  0  0  0  0  0
   -5.4455   18.0329  -35.3675 H   0  0  0  0  0  0  0  0  0  0  0  0
   -7.7821   18.1161  -33.9270 H   0  0  0  0  0  0  0  0  0  0  0  0
   -6.9198   16.6022  -34.4429 H   0  0  0  0  0  0  0  0  0  0  0  0
  1  2  1  0
  2  3  1  0
  3  4  1  0
  4  5  2  0
  5  6  1  0
  6  7  2  0
  7  8  1  0
  8  9  2  0
  8 10  1  0
 10 11  1  0
 11 12  1  0
 12 13  1  0
  2 14  1  0
 14 15  1  0
 15 16  1  0
 16 17  1  0
 17 18  1  0
 18 19  1  0
 19 20  1  0
 20 21  2  0
 21 22  1  0
 22 23  2  0
 23 24  1  0
 24 25  2  0
 18 26  1  0
 26 27  1  0
  9  4  1  0
 27 15  1  0
 13  7  1  0
 25 20  1  0
  1 28  1  0
  2 29  1  1
  3 30  1  0
  3 31  1  0
  5 32  1  0
  6 33  1  0
  9 34  1  0
 10 35  1  0
 10 36  1  0
 11 37  1  0
 11 38  1  0
 12 39  1  0
 12 40  1  0
 14 41  1  0
 14 42  1  0
 16 43  1  0
 16 44  1  0
 17 45  1  0
 17 46  1  0
 19 47  1  0
 19 48  1  0
 21 49  1  0
 22 50  1  0
 23 51  1  0
 24 52  1  0
 25 53  1  0
 26 54  1  0
 26 55  1  0
 27 56  1  0
 27 57  1  0
M  END
>  <UniqueID>  (5) 
5

>  <SMILES>  (5) 
O[C@H](Cc1ccc2c(c1)CCCO2)CN1CCN(Cc2ccccc2)CC1

>  <Energy>  (5) 
67.2640074664784

>  <Genealogy>  (5) 
O[C@H](Cc1ccc2c(c1)CCCO2)CN1CCN(Cc2ccccc2)CC1 (chirality)
O[C@H](Cc1ccc2c(c1)CCCO2)CN1CCN(Cc2ccccc2)CC1 (3D coordinates assigned)
O[C@H](Cc1ccc2c(c1)CCCO2)CN1CCN(Cc2ccccc2)CC1 (nonaromatic ring conformer: 67.2640074664784 kcal/mol)

>  <smiles>  (5) 
OC(Cc1ccc2c(c1)CCCO2)CN1CCN(Cc2ccccc2)CC1

>  <score_type>  (5) 
oracle

>  <origin>  (5) 
adg

>  <m_score__min__energy>  (5) 
-9.9600000000000009

>  <m_primary>  (5) 
energy

$$$$
5:0
     RDKit          3D

 46 48  0  0  0  0  0  0  0  0999 V2000
   -3.5479   21.8325  -33.5645 H   0  0  0  0  0  0  0  0  0  0  0  0
   -3.8070   20.9310  -32.9900 C   0  0  0  0  0  0  0  0  0  0  0  0
   -4.5710   21.0810  -31.7330 C   0  0  0  0  0  0  0  0  0  0  0  0
   -4.0580   20.7650  -30.6240 O   0  0  0  0  0  0  0  0  0  0  0  0
   -5.9730   21.5600  -31.7730 C   0  0  0  0  0  0  0  0  0  0  0  0
   -6.2140   22.9510  -31.7090 C   0  0  0  0  0  0  0  0  0  0  0  0
   -5.1180   23.8270  -31.6050 O   0  0  0  0  0  0  0  0  0  0  0  0
   -4.9890   24.8560  -30.6300 C   0  0  0  0  0  0  0  0  0  0  0  0
   -5.0441   24.4162  -29.6233 H   0  0  0  0  0  0  0  0  0  0  0  0
   -4.0204   25.3618  -30.7566 H   0  0  0  0  0  0  0  0  0  0  0  0
   -5.8028   25.5852  -30.7566 H   0  0  0  0  0  0  0  0  0  0  0  0
   -7.5360   23.4320  -31.7730 C   0  0  0  0  0  0  0  0  0  0  0  0
   -7.7268   24.5129  -31.7000 H   0  0  0  0  0  0  0  0  0  0  0  0
   -8.6050   22.5510  -31.9280 C   0  0  0  0  0  0  0  0  0  0  0  0
   -9.6305   22.9437  -31.9928 H   0  0  0  0  0  0  0  0  0  0  0  0
   -8.3840   21.1690  -32.0020 C   0  0  0  0  0  0  0  0  0  0  0  0
   -9.4710   20.2920  -32.1630 C   0  0  0  0  0  0  0  0  0  0  0  0
  -10.4915   20.6947  -32.2438 H   0  0  0  0  0  0  0  0  0  0  0  0
   -9.2620   18.9110  -32.2210 C   0  0  0  0  0  0  0  0  0  0  0  0
  -10.1157   18.2305  -32.3557 H   0  0  0  0  0  0  0  0  0  0  0  0
   -7.9700   18.3960  -32.1080 C   0  0  0  0  0  0  0  0  0  0  0  0
   -7.8106   17.3081  -32.1417 H   0  0  0  0  0  0  0  0  0  0  0  0
   -6.8750   19.2550  -31.9520 C   0  0  0  0  0  0  0  0  0  0  0  0
   -5.8621   18.8366  -31.8567 H   0  0  0  0  0  0  0  0  0  0  0  0
   -7.0620   20.6580  -31.9160 C   0  0  0  0  0  0  0  0  0  0  0  0
   -3.4190   19.7340  -33.4540 C   0  0  0  0  0  0  0  0  0  0  0  0
   -2.3701   19.6243  -33.7668 H   0  0  0  0  0  0  0  0  0  0  0  0
   -4.3040   18.5420  -33.5770 C   0  0  0  0  0  0  0  0  0  0  0  0
   -5.2480   18.5320  -34.6150 C   0  0  0  0  0  0  0  0  0  0  0  0
   -5.3181   19.3935  -35.2954 H   0  0  0  0  0  0  0  0  0  0  0  0
   -6.0990   17.4400  -34.7930 C   0  0  0  0  0  0  0  0  0  0  0  0
   -6.8323   17.4494  -35.6129 H   0  0  0  0  0  0  0  0  0  0  0  0
   -6.0290   16.3330  -33.9390 C   0  0  0  0  0  0  0  0  0  0  0  0
   -6.9100   15.2680  -34.1690 O   0  0  0  0  0  0  0  0  0  0  0  0
   -6.4730   13.9310  -34.4020 C   0  0  0  0  0  0  0  0  0  0  0  0
   -6.3080   13.4261  -33.4388 H   0  0  0  0  0  0  0  0  0  0  0  0
   -7.2406   13.3887  -34.9735 H   0  0  0  0  0  0  0  0  0  0  0  0
   -5.5332   13.9467  -34.9735 H   0  0  0  0  0  0  0  0  0  0  0  0
   -5.0760   16.3080  -32.8990 C   0  0  0  0  0  0  0  0  0  0  0  0
   -4.9840   15.1680  -32.0820 O   0  0  0  0  0  0  0  0  0  0  0  0
   -3.9660   14.1780  -32.1770 C   0  0  0  0  0  0  0  0  0  0  0  0
   -3.6541   13.8747  -31.1667 H   0  0  0  0  0  0  0  0  0  0  0  0
   -4.3547   13.3032  -32.7189 H   0  0  0  0  0  0  0  0  0  0  0  0
   -3.1024   14.5909  -32.7189 H   0  0  0  0  0  0  0  0  0  0  0  0
   -4.2230   17.4180  -32.7220 C   0  0  0  0  0  0  0  0  0  0  0  0
   -3.4841   17.4091  -31.9071 H   0  0  0  0  0  0  0  0  0  0  0  0
  1  2  1  0
  2  3  1  0
  3  4  2  0
  3  5  1  0
  5  6  2  0
  6  7  1  0
  7  8  1  0
  8  9  1  0
  8 10  1  0
  8 11  1  0
  6 12  1  0
 12 13  1  0
 12 14  2  0
 14 15  1  0
 14 16  1  0
 16 17  2  0
 17 18  1  0
 17 19  1  0
 19 20  1  0
 19 21  2  0
 21 22  1  0
 21 23  1  0
 23 24  1  0
 23 25  2  0
  2 26  2  0
 26 27  1  0
 26 28  1  0
 28 29  2  0
 29 30  1  0
 29 31  1  0
 31 32  1  0
 31 33  2  0
 33 34  1  0
 34 35  1  0
 35 36  1  0
 35 37  1  0
 35 38  1  0
 33 39  1  0
 39 40  1  0
 40 41  1  0
 41 42  1  0
 41 43  1  0
 41 44  1  0
 39 45  2  0
 45 46  1  0
 25  5  1  0
 45 28  1  0
 25 16  1  0
M  END
>  <UniqueID>  (6) 
6

>  <SMILES>  (6) 
COc1ccc(/C=C/C(=O)c2c(OC)ccc3ccccc23)cc1OC

>  <Energy>  (6) 
66.16452853130828

>  <Genealogy>  (6) 
COc1ccc(/C=C/C(=O)c2c(OC)ccc3ccccc23)cc1OC (cis-trans isomerization)
COc1ccc(/C=C/C(=O)c2c(OC)ccc3ccccc23)cc1OC (3D coordinates assigned)
COc1ccc(/C=C/C(=O)c2c(OC)ccc3ccccc23)cc1OC (optimized conformer: 66.16452853130828 kcal/mol)

>  <smiles>  (6) 
COc1ccc(C=CC(=O)c2c(OC)ccc3ccccc23)cc1OC

>  <score_type>  (6) 
oracle

>  <origin>  (6) 
adg

>  <m_score__min__energy>  (6) 
-9.8699999999999992

>  <m_primary>  (6) 
energy

$$$$
6:0
     RDKit          3D

 47 49  0  0  0  0  0  0  0  0999 V2000
   -8.4060   19.6680  -32.4520 C   0  0  0  0  0  0  0  0  0  0  0  0
   -8.6130   20.9890  -31.9670 O   0  0  0  0  0  0  0  0  0  0  0  0
   -7.5610   21.8300  -31.5930 C   0  0  0  0  0  0  0  0  0  0  0  0
   -6.3590   21.7830  -32.3040 C   0  0  0  0  0  0  0  0  0  0  0  0
   -5.3030   22.6110  -31.9210 C   0  0  0  0  0  0  0  0  0  0  0  0
   -5.4450   23.4710  -30.8230 C   0  0  0  0  0  0  0  0  0  0  0  0
   -4.3140   24.3210  -30.3920 C   0  0  0  0  0  0  0  0  0  0  0  0
   -4.2430   25.4970  -30.8440 O   0  0  0  0  0  0  0  0  0  0  0  0
   -3.2750   23.8270  -29.5130 N   0  0  0  0  0  0  0  0  0  0  0  0
   -1.9640   23.4690  -30.0720 C   0  0  0  0  0  0  0  0  0  0  0  0
   -0.8070   24.1250  -29.2850 C   0  0  0  0  0  0  0  0  0  0  0  0
   -0.2970   23.2980  -28.0880 C   0  0  0  0  0  0  0  0  0  0  0  0
   -1.2960   23.1660  -27.0040 N   0  0  0  0  0  0  0  0  0  0  0  0
   -1.5070   21.7680  -26.5660 C   0  0  0  0  0  0  0  0  0  0  0  0
   -1.0250   20.7480  -27.5620 C   0  0  0  0  0  0  0  0  0  0  0  0
   -1.7360   20.1880  -28.6070 C   0  0  0  0  0  0  0  0  0  0  0  0
   -0.9670   19.2710  -29.2260 N   0  0  0  0  0  0  0  0  0  0  0  0
    0.2070   19.2560  -28.6140 N   0  0  0  0  0  0  0  0  0  0  0  0
    1.2780   18.3240  -28.9340 C   0  0  0  0  0  0  0  0  0  0  0  0
    0.2110   20.1370  -27.5970 C   0  0  0  0  0  0  0  0  0  0  0  0
   -2.5330   23.9820  -27.1000 C   0  0  0  0  0  0  0  0  0  0  0  0
   -3.5830   23.4740  -28.1150 C   0  0  0  0  0  0  0  0  0  0  0  0
   -6.6760   23.5030  -30.1500 C   0  0  0  0  0  0  0  0  0  0  0  0
   -7.6910   22.6890  -30.5430 N   0  0  0  0  0  0  0  0  0  0  0  0
   -8.2979   18.9781  -31.6021 H   0  0  0  0  0  0  0  0  0  0  0  0
   -9.2673   19.3631  -33.0645 H   0  0  0  0  0  0  0  0  0  0  0  0
   -7.4927   19.6412  -33.0645 H   0  0  0  0  0  0  0  0  0  0  0  0
   -6.2461   21.0992  -33.1582 H   0  0  0  0  0  0  0  0  0  0  0  0
   -4.3570   22.5888  -32.4819 H   0  0  0  0  0  0  0  0  0  0  0  0
   -1.8466   22.3760  -30.0330 H   0  0  0  0  0  0  0  0  0  0  0  0
   -1.9228   23.8339  -31.1089 H   0  0  0  0  0  0  0  0  0  0  0  0
    0.0335   24.2818  -29.9771 H   0  0  0  0  0  0  0  0  0  0  0  0
   -1.2039   25.0632  -28.8700 H   0  0  0  0  0  0  0  0  0  0  0  0
   -0.0333   22.2916  -28.4451 H   0  0  0  0  0  0  0  0  0  0  0  0
    0.5714   23.8282  -27.6701 H   0  0  0  0  0  0  0  0  0  0  0  0
   -0.9664   21.6140  -25.6205 H   0  0  0  0  0  0  0  0  0  0  0  0
   -2.5918   21.6240  -26.4544 H   0  0  0  0  0  0  0  0  0  0  0  0
   -2.7666   20.4497  -28.8886 H   0  0  0  0  0  0  0  0  0  0  0  0
    1.7198   17.9395  -28.0029 H   0  0  0  0  0  0  0  0  0  0  0  0
    0.8722   17.4865  -29.5205 H   0  0  0  0  0  0  0  0  0  0  0  0
    2.0514   18.8416  -29.5205 H   0  0  0  0  0  0  0  0  0  0  0  0
    1.0509   20.3348  -26.9147 H   0  0  0  0  0  0  0  0  0  0  0  0
   -3.0038   24.0035  -26.1061 H   0  0  0  0  0  0  0  0  0  0  0  0
   -2.2168   24.9723  -27.4596 H   0  0  0  0  0  0  0  0  0  0  0  0
   -3.6389   22.3781  -28.0377 H   0  0  0  0  0  0  0  0  0  0  0  0
   -4.5362   23.9616  -27.8628 H   0  0  0  0  0  0  0  0  0  0  0  0
   -6.8198   24.1888  -29.3021 H   0  0  0  0  0  0  0  0  0  0  0  0
  1  2  1  0
  2  3  1  0
  3  4  2  0
  4  5  1  0
  5  6  2  0
  6  7  1  0
  7  8  2  0
  7  9  1  0
  9 10  1  0
 10 11  1  0
 11 12  1  0
 12 13  1  0
 13 14  1  0
 14 15  1  0
 15 16  1  0
 16 17  2  0
 17 18  1  0
 18 19  1  0
 18 20  1  0
 13 21  1  0
 21 22  1  0
  6 23  1  0
 23 24  2  0
 24  3  1  0
 22  9  1  0
 20 15  2  0
  1 25  1  0
  1 26  1  0
  1 27  1  0
  4 28  1  0
  5 29  1  0
 10 30  1  0
 10 31  1  0
 11 32  1  0
 11 33  1  0
 12 34  1  0
 12 35  1  0
 14 36  1  0
 14 37  1  0
 16 38  1  0
 19 39  1  0
 19 40  1  0
 19 41  1  0
 20 42  1  0
 21 43  1  0
 21 44  1  0
 22 45  1  0
 22 46  1  0
 23 47  1  0
M  END
>  <UniqueID>  (7) 
7

>  <SMILES>  (7) 
COc1ccc(C(=O)N2CCCN(Cc3cnn(C)c3)CC2)cn1

>  <Energy>  (7) 
92.0501580929909

>  <Genealogy>  (7) 
COc1ccc(C(=O)N2CCCN(Cc3cnn(C)c3)CC2)cn1 (3D coordinates assigned)
COc1ccc(C(=O)N2CCCN(Cc3cnn(C)c3)CC2)cn1 (nonaromatic ring conformer: 92.0501580929909 kcal/mol)

>  <smiles>  (7) 
COc1ccc(C(=O)N2CCCN(Cc3cnn(C)c3)CC2)cn1

>  <score_type>  (7) 
oracle

>  <origin>  (7) 
adg

>  <m_score__min__energy>  (7) 
-6.2199999999999998

>  <m_primary>  (7) 
energy

$$$$
7:0
     RDKit          3D

 45 46  0  0  0  0  0  0  0  0999 V2000
   -3.0220   23.4640  -30.3860 C   0  0  0  0  0  0  0  0  0  0  0  0
   -3.5060   24.7850  -30.4670 O   0  0  0  0  0  0  0  0  0  0  0  0
   -4.6830   24.9040  -29.6940 C   0  0  0  0  0  0  0  0  0  0  0  0
   -5.8960   25.0850  -30.6210 C   0  0  0  0  0  0  0  0  0  0  0  0
   -5.8210   24.2870  -31.8600 N   0  0  0  0  0  0  0  0  0  0  0  0
   -6.6870   23.0890  -31.8990 C   0  0  0  0  0  0  0  0  0  0  0  0
   -8.0200   23.4380  -32.6070 C   0  0  0  0  0  0  0  0  0  0  0  0
   -9.2730   22.7810  -31.9890 C   0  0  0  0  0  0  0  0  0  0  0  0
   -9.0290   21.4390  -31.4190 N   0  0  0  0  0  0  0  0  0  0  0  0
   -9.3400   20.3000  -32.3070 C   0  0  0  0  0  0  0  0  0  0  0  0
   -8.7170   18.9720  -31.8390 C   0  0  0  0  0  0  0  0  0  0  0  0
   -7.5200   18.6260  -32.6810 C   0  0  0  0  0  0  0  0  0  0  0  0
   -6.8390   19.6270  -33.3940 C   0  0  0  0  0  0  0  0  0  0  0  0
   -5.7460   19.2990  -34.2010 C   0  0  0  0  0  0  0  0  0  0  0  0
   -5.3330   17.9680  -34.3120 C   0  0  0  0  0  0  0  0  0  0  0  0
   -6.0130   16.9640  -33.6190 C   0  0  0  0  0  0  0  0  0  0  0  0
   -7.1070   17.2890  -32.8100 C   0  0  0  0  0  0  0  0  0  0  0  0
   -7.8130   21.2670  -30.5910 C   0  0  0  0  0  0  0  0  0  0  0  0
   -6.9590   22.5360  -30.4910 C   0  0  0  0  0  0  0  0  0  0  0  0
   -2.9166   23.1763  -29.3295 H   0  0  0  0  0  0  0  0  0  0  0  0
   -3.7291   22.7833  -30.8826 H   0  0  0  0  0  0  0  0  0  0  0  0
   -2.0425   23.4013  -30.8826 H   0  0  0  0  0  0  0  0  0  0  0  0
   -4.8171   23.9946  -29.0898 H   0  0  0  0  0  0  0  0  0  0  0  0
   -4.5970   25.7782  -29.0319 H   0  0  0  0  0  0  0  0  0  0  0  0
   -6.8008   24.7875  -30.0708 H   0  0  0  0  0  0  0  0  0  0  0  0
   -5.9157   26.1431  -30.9212 H   0  0  0  0  0  0  0  0  0  0  0  0
   -4.8250   23.9840  -31.9770 H   0  0  0  0  0  0  0  0  0  0  0  0
   -6.1620   22.3040  -32.4631 H   0  0  0  0  0  0  0  0  0  0  0  0
   -8.1520   24.5294  -32.5691 H   0  0  0  0  0  0  0  0  0  0  0  0
   -7.9383   23.0458  -33.6315 H   0  0  0  0  0  0  0  0  0  0  0  0
   -9.6465   23.4348  -31.1870 H   0  0  0  0  0  0  0  0  0  0  0  0
  -10.0002   22.6531  -32.8043 H   0  0  0  0  0  0  0  0  0  0  0  0
  -10.4324   20.1775  -32.3475 H   0  0  0  0  0  0  0  0  0  0  0  0
   -8.9107   20.5304  -33.2932 H   0  0  0  0  0  0  0  0  0  0  0  0
   -8.4049   19.0689  -30.7887 H   0  0  0  0  0  0  0  0  0  0  0  0
   -9.4659   18.1727  -31.9400 H   0  0  0  0  0  0  0  0  0  0  0  0
   -7.1677   20.6739  -33.3167 H   0  0  0  0  0  0  0  0  0  0  0  0
   -5.2106   20.0884  -34.7490 H   0  0  0  0  0  0  0  0  0  0  0  0
   -4.4715   17.7112  -34.9459 H   0  0  0  0  0  0  0  0  0  0  0  0
   -5.6881   15.9170  -33.7094 H   0  0  0  0  0  0  0  0  0  0  0  0
   -7.6461   16.4948  -32.2727 H   0  0  0  0  0  0  0  0  0  0  0  0
   -8.1208   20.9732  -29.5766 H   0  0  0  0  0  0  0  0  0  0  0  0
   -7.1953   20.4979  -31.0777 H   0  0  0  0  0  0  0  0  0  0  0  0
   -7.4952   23.2919  -29.8984 H   0  0  0  0  0  0  0  0  0  0  0  0
   -6.0031   22.2945  -30.0033 H   0  0  0  0  0  0  0  0  0  0  0  0
  1  2  1  0
  2  3  1  0
  3  4  1  0
  4  5  1  0
  5  6  1  0
  6  7  1  0
  7  8  1  0
  8  9  1  0
  9 10  1  0
 10 11  1  0
 11 12  1  0
 12 13  2  0
 13 14  1  0
 14 15  2  0
 15 16  1  0
 16 17  2  0
  9 18  1  0
 18 19  1  0
 19  6  1  0
 17 12  1  0
  1 20  1  0
  1 21  1  0
  1 22  1  0
  3 23  1  0
  3 24  1  0
  4 25  1  0
  4 26  1  0
  5 27  1  0
  6 28  1  0
  7 29  1  0
  7 30  1  0
  8 31  1  0
  8 32  1  0
 10 33  1  0
 10 34  1  0
 11 35  1  0
 11 36  1  0
 13 37  1  0
 14 38  1  0
 15 39  1  0
 16 40  1  0
 17 41  1  0
 18 42  1  0
 18 43  1  0
 19 44  1  0
 19 45  1  0
M  END
>  <UniqueID>  (8) 
8

>  <SMILES>  (8) 
COCCNC1CCN(CCc2ccccc2)CC1

>  <Energy>  (8) 
57.320558238030806

>  <Genealogy>  (8) 
COCCNC1CCN(CCc2ccccc2)CC1 (3D coordinates assigned)
COCCNC1CCN(CCc2ccccc2)CC1 (nonaromatic ring conformer: 57.320558238030806 kcal/mol)

>  <smiles>  (8) 
COCCNC1CCN(CCc2ccccc2)CC1

>  <score_type>  (8) 
oracle

>  <origin>  (8) 
adg

>  <m_score__min__energy>  (8) 
-8.4100000000000001

>  <m_primary>  (8) 
energy

$$$$
8:0
     RDKit          3D

 18 19  0  0  0  0  0  0  0  0999 V2000
   -9.3190   20.8010  -31.9560 C   0  0  0  0  0  0  0  0  0  0  0  0
   -7.9980   20.9750  -32.4600 O   0  0  0  0  0  0  0  0  0  0  0  0
   -7.0980   21.9450  -31.9980 C   0  0  0  0  0  0  0  0  0  0  0  0
   -5.6980   21.8760  -32.2700 C   0  0  0  0  0  0  0  0  0  0  0  0
   -4.8220   22.8700  -31.7890 C   0  0  0  0  0  0  0  0  0  0  0  0
   -5.3830   23.9050  -31.0510 C   0  0  0  0  0  0  0  0  0  0  0  0
   -6.7140   23.9820  -30.7870 C   0  0  0  0  0  0  0  0  0  0  0  0
   -7.6110   23.0230  -31.2420 C   0  0  0  0  0  0  0  0  0  0  0  0
   -6.9530   25.0890  -30.0560 N   0  0  0  0  0  0  0  0  0  0  0  0
   -5.7670   25.6730  -29.8830 N   0  0  0  0  0  0  0  0  0  0  0  0
   -4.8120   24.9680  -30.4790 N   0  0  0  0  0  0  0  0  0  0  0  0
   -3.4780   25.3000  -30.4870 O   0  0  0  0  0  0  0  0  0  0  0  0
   -9.2952   20.8041  -30.8563 H   0  0  0  0  0  0  0  0  0  0  0  0
   -9.9582   21.6227  -32.3113 H   0  0  0  0  0  0  0  0  0  0  0  0
   -9.7236   19.8418  -32.3113 H   0  0  0  0  0  0  0  0  0  0  0  0
   -5.2990   21.0385  -32.8610 H   0  0  0  0  0  0  0  0  0  0  0  0
   -3.7412   22.8282  -31.9892 H   0  0  0  0  0  0  0  0  0  0  0  0
   -8.6857   23.1006  -31.0208 H   0  0  0  0  0  0  0  0  0  0  0  0
  1  2  1  0
  2  3  1  0
  3  4  2  0
  4  5  1  0
  5  6  2  0
  6  7  1  0
  7  8  2  0
  7  9  1  0
  9 10  2  0
 10 11  1  0
 11 12  1  0
  8  3  1  0
 11  6  1  0
  1 13  1  0
  1 14  1  0
  1 15  1  0
  4 16  1  0
  5 17  1  0
  8 18  1  0
M  CHG  1  12  -1
M  END
>  <UniqueID>  (9) 
9

>  <SMILES>  (9) 
COc1ccc2c(c1)nnn2[O-]

>  <Energy>  (9) 
63.98728561959049

>  <Genealogy>  (9) 
COc1ccc2c(c1)nnn2[O-] (protonated)
COc1ccc2c(c1)nnn2[O-] (3D coordinates assigned)
COc1ccc2c(c1)nnn2[O-] (optimized conformer: 63.98728561959049 kcal/mol)

>  <smiles>  (9) 
COc1ccc2c(c1)nnn2O

>  <score_type>  (9) 
oracle

>  <origin>  (9) 
adg

>  <m_score__min__energy>  (9) 
-8.3200000000000003

>  <m_primary>  (9) 
energy

$$$$
9:0
     RDKit          3D

 55 57  0  0  0  0  0  0  0  0999 V2000
   -3.1850   24.2230  -29.4600 C   0  0  0  0  0  0  0  0  0  0  0  0
   -4.0940   24.6190  -30.4820 O   0  0  0  0  0  0  0  0  0  0  0  0
   -5.2770   23.9340  -30.7990 C   0  0  0  0  0  0  0  0  0  0  0  0
   -6.0170   23.3670  -29.7550 C   0  0  0  0  0  0  0  0  0  0  0  0
   -7.1980   22.6690  -30.0200 C   0  0  0  0  0  0  0  0  0  0  0  0
   -7.6570   22.5280  -31.3380 C   0  0  0  0  0  0  0  0  0  0  0  0
   -8.8970   21.7220  -31.6250 C   0  0  0  0  0  0  0  0  0  0  0  0
   -8.7560   20.2560  -31.1900 C   0  0  0  0  0  0  0  0  0  0  0  0
   -8.4980   19.3770  -32.3570 N   0  0  0  0  0  0  0  0  0  0  0  0
   -7.7570   20.0550  -33.4520 C   0  0  0  0  0  0  0  0  0  0  0  0
   -6.3570   19.4640  -33.7250 C   0  0  0  0  0  0  0  0  0  0  0  0
   -5.6100   19.1540  -32.4810 N   0  0  0  0  0  0  0  0  0  0  0  0
   -5.0760   20.3860  -31.8250 C   0  0  0  0  0  0  0  0  0  0  0  0
   -3.6620   20.2030  -31.2300 C   0  0  0  0  0  0  0  0  0  0  0  0
   -2.6070   20.2920  -32.2510 N   0  0  0  0  0  0  0  0  0  0  0  0
   -1.6760   21.3900  -32.2460 C   0  0  0  0  0  0  0  0  0  0  0  0
   -1.7360   22.2800  -31.3550 O   0  0  0  0  0  0  0  0  0  0  0  0
   -0.5780   21.4510  -33.2720 C   0  0  0  0  0  0  0  0  0  0  0  0
   -0.9720   20.7780  -34.5160 N   0  0  0  0  0  0  0  0  0  0  0  0
   -1.3510   19.3800  -34.2710 C   0  0  0  0  0  0  0  0  0  0  0  0
   -2.4720   19.2870  -33.2740 C   0  0  0  0  0  0  0  0  0  0  0  0
   -3.2630   18.3060  -33.3240 O   0  0  0  0  0  0  0  0  0  0  0  0
   -6.4050   18.3000  -31.5410 C   0  0  0  0  0  0  0  0  0  0  0  0
   -7.8720   18.1000  -31.9670 C   0  0  0  0  0  0  0  0  0  0  0  0
   -6.9190   23.0980  -32.3870 C   0  0  0  0  0  0  0  0  0  0  0  0
   -5.7380   23.7970  -32.1210 C   0  0  0  0  0  0  0  0  0  0  0  0
   -3.6333   24.4183  -28.4747 H   0  0  0  0  0  0  0  0  0  0  0  0
   -2.9684   23.1490  -29.5579 H   0  0  0  0  0  0  0  0  0  0  0  0
   -2.2510   24.7958  -29.5579 H   0  0  0  0  0  0  0  0  0  0  0  0
   -5.6660   23.4717  -28.7178 H   0  0  0  0  0  0  0  0  0  0  0  0
   -7.7707   22.2278  -29.1909 H   0  0  0  0  0  0  0  0  0  0  0  0
   -9.7432   22.1711  -31.0844 H   0  0  0  0  0  0  0  0  0  0  0  0
   -9.0611   21.7348  -32.7126 H   0  0  0  0  0  0  0  0  0  0  0  0
   -7.9180   20.1698  -30.4826 H   0  0  0  0  0  0  0  0  0  0  0  0
   -9.6962   19.9398  -30.7145 H   0  0  0  0  0  0  0  0  0  0  0  0
   -8.3520   19.9741  -34.3737 H   0  0  0  0  0  0  0  0  0  0  0  0
   -7.6053   21.0973  -33.1348 H   0  0  0  0  0  0  0  0  0  0  0  0
   -6.4742   18.5365  -34.3047 H   0  0  0  0  0  0  0  0  0  0  0  0
   -5.7804   20.2208  -34.2771 H   0  0  0  0  0  0  0  0  0  0  0  0
   -4.7900   18.5720  -32.7760 H   0  0  0  0  0  0  0  0  0  0  0  0
   -5.0372   21.1906  -32.5741 H   0  0  0  0  0  0  0  0  0  0  0  0
   -5.7502   20.6263  -30.9897 H   0  0  0  0  0  0  0  0  0  0  0  0
   -3.4917   20.9867  -30.4771 H   0  0  0  0  0  0  0  0  0  0  0  0
   -3.6134   19.1982  -30.7850 H   0  0  0  0  0  0  0  0  0  0  0  0
   -0.3506   22.5047  -33.4912 H   0  0  0  0  0  0  0  0  0  0  0  0
    0.3061   20.9384  -32.8651 H   0  0  0  0  0  0  0  0  0  0  0  0
   -1.7880   21.2840  -34.9350 H   0  0  0  0  0  0  0  0  0  0  0  0
   -1.6750   18.9248  -35.2185 H   0  0  0  0  0  0  0  0  0  0  0  0
   -0.4780   18.8489  -33.8638 H   0  0  0  0  0  0  0  0  0  0  0  0
   -5.9245   17.3124  -31.4801 H   0  0  0  0  0  0  0  0  0  0  0  0
   -6.4224   18.8221  -30.5730 H   0  0  0  0  0  0  0  0  0  0  0  0
   -7.9053   17.4092  -32.8224 H   0  0  0  0  0  0  0  0  0  0  0  0
   -8.4280   17.6890  -31.1114 H   0  0  0  0  0  0  0  0  0  0  0  0
   -7.2717   22.9942  -33.4237 H   0  0  0  0  0  0  0  0  0  0  0  0
   -5.1666   24.2419  -32.9490 H   0  0  0  0  0  0  0  0  0  0  0  0
  1  2  1  0
  2  3  1  0
  3  4  2  0
  4  5  1  0
  5  6  2  0
  6  7  1  0
  7  8  1  0
  8  9  1  0
  9 10  1  0
 10 11  1  0
 11 12  1  0
 12 13  1  0
 13 14  1  0
 14 15  1  0
 15 16  1  0
 16 17  2  0
 16 18  1  0
 18 19  1  0
 19 20  1  0
 20 21  1  0
 21 22  2  0
 12 23  1  0
 23 24  1  0
  6 25  1  0
 25 26  2  0
 26  3  1  0
 24  9  1  0
 21 15  1  0
  1 27  1  0
  1 28  1  0
  1 29  1  0
  4 30  1  0
  5 31  1  0
  7 32  1  0
  7 33  1  0
  8 34  1  0
  8 35  1  0
 10 36  1  0
 10 37  1  0
 11 38  1  0
 11 39  1  0
 12 40  1  0
 13 41  1  0
 13 42  1  0
 14 43  1  0
 14 44  1  0
 18 45  1  0
 18 46  1  0
 19 47  1  0
 20 48  1  0
 20 49  1  0
 23 50  1  0
 23 51  1  0
 24 52  1  0
 24 53  1  0
 25 54  1  0
 26 55  1  0
M  CHG  1  12   1
M  END
>  <UniqueID>  (10) 
10

>  <SMILES>  (10) 
COc1ccc(CCN2CC[NH+](CCN3C(=O)CNCC3=O)CC2)cc1

>  <Energy>  (10) 
71.40069740524697

>  <Genealogy>  (10) 
COc1ccc(CCN2CC[NH+](CCN3C(=O)CNCC3=O)CC2)cc1 (protonated)
COc1ccc(CCN2CC[NH+](CCN3C(=O)CNCC3=O)CC2)cc1 (3D coordinates assigned)
COc1ccc(CCN2CC[NH+](CCN3C(=O)CNCC3=O)CC2)cc1 (nonaromatic ring conformer: 71.40069740524697 kcal/mol)

>  <smiles>  (10) 
COc1ccc(CCN2CCN(CCN3C(=O)CNCC3=O)CC2)cc1

>  <score_type>  (10) 
oracle

>  <origin>  (10) 
adg

>  <m_score__min__energy>  (10) 
-7.7199999999999998

>  <m_primary>  (10) 
energy

$$$$
10:0
     RDKit          3D

 57 60  0  0  0  0  0  0  0  0999 V2000
   -4.2160   24.9230  -26.4450 C   0  0  0  0  0  0  0  0  0  0  0  0
   -4.1960   23.7960  -27.4890 C   0  0  0  0  0  0  0  0  0  0  0  0
   -4.3490   24.2940  -28.8820 N   0  0  0  0  0  0  0  0  0  0  0  0
   -5.7440   24.1210  -29.3680 C   0  0  0  0  0  0  0  0  0  0  0  0
   -6.4240   25.4470  -29.7390 C   0  0  0  0  0  0  0  0  0  0  0  0
   -3.3170   23.7080  -29.7890 C   0  0  0  0  0  0  0  0  0  0  0  0
   -3.7270   22.4180  -30.5520 C   0  0  0  0  0  0  0  0  0  0  0  0
   -3.2320   22.3460  -32.0090 C   0  0  0  0  0  0  0  0  0  0  0  0
   -4.3620   22.2350  -32.9320 N   0  0  0  0  0  0  0  0  0  0  0  0
   -5.3840   21.2490  -32.7320 C   0  0  0  0  0  0  0  0  0  0  0  0
   -6.6890   21.5940  -32.3090 C   0  0  0  0  0  0  0  0  0  0  0  0
   -7.0490   22.9410  -32.1130 C   0  0  0  0  0  0  0  0  0  0  0  0
   -8.3220   23.2750  -31.6550 C   0  0  0  0  0  0  0  0  0  0  0  0
   -9.2470   22.2770  -31.3650 C   0  0  0  0  0  0  0  0  0  0  0  0
   -8.9240   20.9330  -31.5680 C   0  0  0  0  0  0  0  0  0  0  0  0
   -7.6610   20.5580  -32.0880 C   0  0  0  0  0  0  0  0  0  0  0  0
   -7.3510   19.2350  -32.3670 N   0  0  0  0  0  0  0  0  0  0  0  0
   -8.3930   18.1970  -32.4430 C   0  0  0  0  0  0  0  0  0  0  0  0
   -6.0480   18.9280  -32.6610 C   0  0  0  0  0  0  0  0  0  0  0  0
   -5.0890   19.8960  -32.8690 C   0  0  0  0  0  0  0  0  0  0  0  0
   -3.8850   19.3540  -33.1460 N   0  0  0  0  0  0  0  0  0  0  0  0
   -4.0790   18.0210  -33.0970 C   0  0  0  0  0  0  0  0  0  0  0  0
   -3.1050   17.0390  -33.2690 C   0  0  0  0  0  0  0  0  0  0  0  0
   -3.4870   15.6960  -33.1150 C   0  0  0  0  0  0  0  0  0  0  0  0
   -4.8130   15.3660  -32.7720 C   0  0  0  0  0  0  0  0  0  0  0  0
   -5.7790   16.3730  -32.5870 C   0  0  0  0  0  0  0  0  0  0  0  0
   -5.3910   17.7040  -32.7910 C   0  0  0  0  0  0  0  0  0  0  0  0
   -4.2083   24.4874  -25.4350 H   0  0  0  0  0  0  0  0  0  0  0  0
   -3.3290   25.5602  -26.5763 H   0  0  0  0  0  0  0  0  0  0  0  0
   -5.1250   25.5283  -26.5763 H   0  0  0  0  0  0  0  0  0  0  0  0
   -3.2375   23.2620  -27.4106 H   0  0  0  0  0  0  0  0  0  0  0  0
   -5.0508   23.1364  -27.2788 H   0  0  0  0  0  0  0  0  0  0  0  0
   -4.1530   25.3250  -28.8650 H   0  0  0  0  0  0  0  0  0  0  0  0
   -5.7264   23.4759  -30.2588 H   0  0  0  0  0  0  0  0  0  0  0  0
   -6.3236   23.6750  -28.5463 H   0  0  0  0  0  0  0  0  0  0  0  0
   -6.7007   25.9865  -28.8212 H   0  0  0  0  0  0  0  0  0  0  0  0
   -5.7300   26.0620  -30.3308 H   0  0  0  0  0  0  0  0  0  0  0  0
   -7.3284   25.2423  -30.3308 H   0  0  0  0  0  0  0  0  0  0  0  0
   -3.0550   24.4712  -30.5366 H   0  0  0  0  0  0  0  0  0  0  0  0
   -2.4845   23.4107  -29.1344 H   0  0  0  0  0  0  0  0  0  0  0  0
   -3.3178   21.5538  -30.0082 H   0  0  0  0  0  0  0  0  0  0  0  0
   -4.8261   22.4205  -30.5975 H   0  0  0  0  0  0  0  0  0  0  0  0
   -2.6625   23.2576  -32.2428 H   0  0  0  0  0  0  0  0  0  0  0  0
   -2.5926   21.4582  -32.1228 H   0  0  0  0  0  0  0  0  0  0  0  0
   -4.2940   22.6950  -33.8690 H   0  0  0  0  0  0  0  0  0  0  0  0
   -6.3190   23.7366  -32.3232 H   0  0  0  0  0  0  0  0  0  0  0  0
   -8.5966   24.3319  -31.5222 H   0  0  0  0  0  0  0  0  0  0  0  0
  -10.2387   22.5478  -30.9735 H   0  0  0  0  0  0  0  0  0  0  0  0
   -9.6611   20.1549  -31.3205 H   0  0  0  0  0  0  0  0  0  0  0  0
   -8.6903   17.9008  -31.4262 H   0  0  0  0  0  0  0  0  0  0  0  0
   -9.2673   18.5938  -32.9798 H   0  0  0  0  0  0  0  0  0  0  0  0
   -7.9996   17.3212  -32.9798 H   0  0  0  0  0  0  0  0  0  0  0  0
   -2.9810   19.8480  -33.3120 H   0  0  0  0  0  0  0  0  0  0  0  0
   -2.0678   17.3077  -33.5180 H   0  0  0  0  0  0  0  0  0  0  0  0
   -2.7459   14.8967  -33.2632 H   0  0  0  0  0  0  0  0  0  0  0  0
   -5.0964   14.3105  -32.6475 H   0  0  0  0  0  0  0  0  0  0  0  0
   -6.8084   16.1225  -32.2910 H   0  0  0  0  0  0  0  0  0  0  0  0
  1  2  1  0
  2  3  1  0
  3  4  1  0
  4  5  1  0
  3  6  1  0
  6  7  1  0
  7  8  1  0
  8  9  1  0
  9 10  1  0
 10 11  2  0
 11 12  1  0
 12 13  2  0
 13 14  1  0
 14 15  2  0
 15 16  1  0
 16 17  2  0
 17 18  1  0
 17 19  1  0
 19 20  2  0
 20 21  1  0
 21 22  1  0
 22 23  2  0
 23 24  1  0
 24 25  2  0
 25 26  1  0
 26 27  2  0
 20 10  1  0
 27 22  1  0
 16 11  1  0
 27 19  1  0
  1 28  1  0
  1 29  1  0
  1 30  1  0
  2 31  1  0
  2 32  1  0
  3 33  1  0
  4 34  1  0
  4 35  1  0
  5 36  1  0
  5 37  1  0
  5 38  1  0
  6 39  1  0
  6 40  1  0
  7 41  1  0
  7 42  1  0
  8 43  1  0
  8 44  1  0
  9 45  1  0
 12 46  1  0
 13 47  1  0
 14 48  1  0
 15 49  1  0
 18 50  1  0
 18 51  1  0
 18 52  1  0
 21 53  1  0
 23 54  1  0
 24 55  1  0
 25 56  1  0
 26 57  1  0
M  CHG  2   3   1  17   1
M  END
>  <UniqueID>  (11) 
11

>  <SMILES>  (11) 
CC[NH+](CC)CCCNc1c2ccccc2[n+](C)c2c1[nH]c1ccccc12

>  <Energy>  (11) 
127.69897517784229

>  <Genealogy>  (11) 
CC[NH+](CC)CCCNc1c2ccccc2[n+](C)c2c1[nH]c1ccccc12 (protonated)
CC[NH+](CC)CCCNc1c2ccccc2[n+](C)c2c1[nH]c1ccccc12 (3D coordinates assigned)
CC[NH+](CC)CCCNc1c2ccccc2[n+](C)c2c1[nH]c1ccccc12 (optimized conformer: 127.69897517784229 kcal/mol)

>  <smiles>  (11) 
CCN(CC)CCCNc1c2ccccc2[n+](C)c2c1[nH]c1ccccc12

>  <score_type>  (11) 
oracle

>  <origin>  (11) 
adg

>  <m_score__min__energy>  (11) 
-7.4500000000000002

>  <m_primary>  (11) 
energy

$$$$
11:0
     RDKit          3D

 42 43  0  0  0  0  0  0  0  0999 V2000
   -2.4750   20.1450  -27.2790 C   0  0  0  0  0  0  0  0  0  0  0  0
   -3.0080   21.4410  -27.8830 C   0  0  0  0  0  0  0  0  0  0  0  0
   -1.8920   22.3760  -28.1570 N   0  0  0  0  0  0  0  0  0  0  0  0
   -1.4960   22.3680  -29.5910 C   0  0  0  0  0  0  0  0  0  0  0  0
   -2.5480   21.7770  -30.5400 C   0  0  0  0  0  0  0  0  0  0  0  0
   -2.1430   23.7200  -27.5830 C   0  0  0  0  0  0  0  0  0  0  0  0
   -3.2810   24.4840  -28.2900 C   0  0  0  0  0  0  0  0  0  0  0  0
   -2.8100   25.2890  -29.3490 O   0  0  0  0  0  0  0  0  0  0  0  0
   -3.5090   24.9350  -30.4600 N   0  0  0  0  0  0  0  0  0  0  0  0
   -4.9030   25.2210  -30.5730 C   0  0  0  0  0  0  0  0  0  0  0  0
   -5.3120   26.4050  -30.4370 O   0  0  0  0  0  0  0  0  0  0  0  0
   -5.8590   24.1480  -30.8760 C   0  0  0  0  0  0  0  0  0  0  0  0
   -7.1910   24.1700  -30.4690 C   0  0  0  0  0  0  0  0  0  0  0  0
   -7.9020   22.7340  -30.9720 S   0  0  0  0  0  0  0  0  0  0  0  0
   -6.4940   22.1420  -31.6870 C   0  0  0  0  0  0  0  0  0  0  0  0
   -6.3480   20.8330  -32.3640 C   0  0  0  0  0  0  0  0  0  0  0  0
   -7.3680   19.8650  -32.2980 C   0  0  0  0  0  0  0  0  0  0  0  0
   -7.2160   18.6320  -32.9400 C   0  0  0  0  0  0  0  0  0  0  0  0
   -6.0490   18.3520  -33.6540 C   0  0  0  0  0  0  0  0  0  0  0  0
   -5.0300   19.3050  -33.7260 C   0  0  0  0  0  0  0  0  0  0  0  0
   -5.1770   20.5380  -33.0860 C   0  0  0  0  0  0  0  0  0  0  0  0
   -5.4800   23.0260  -31.5470 N   0  0  0  0  0  0  0  0  0  0  0  0
   -2.5031   20.2132  -26.1815 H   0  0  0  0  0  0  0  0  0  0  0  0
   -3.0995   19.3021  -27.6101 H   0  0  0  0  0  0  0  0  0  0  0  0
   -1.4382   19.9854  -27.6101 H   0  0  0  0  0  0  0  0  0  0  0  0
   -3.5316   21.2149  -28.8236 H   0  0  0  0  0  0  0  0  0  0  0  0
   -3.7017   21.9101  -27.1698 H   0  0  0  0  0  0  0  0  0  0  0  0
   -1.3002   23.4057  -29.8989 H   0  0  0  0  0  0  0  0  0  0  0  0
   -0.6092   21.7216  -29.6664 H   0  0  0  0  0  0  0  0  0  0  0  0
   -3.3582   21.3218  -29.9515 H   0  0  0  0  0  0  0  0  0  0  0  0
   -2.9597   22.5759  -31.1743 H   0  0  0  0  0  0  0  0  0  0  0  0
   -2.0799   21.0098  -31.1743 H   0  0  0  0  0  0  0  0  0  0  0  0
   -2.4084   23.6022  -26.5220 H   0  0  0  0  0  0  0  0  0  0  0  0
   -1.2234   24.3083  -27.7181 H   0  0  0  0  0  0  0  0  0  0  0  0
   -3.9994   23.7548  -28.6927 H   0  0  0  0  0  0  0  0  0  0  0  0
   -3.7524   25.1460  -27.5487 H   0  0  0  0  0  0  0  0  0  0  0  0
   -7.6878   24.9818  -29.9174 H   0  0  0  0  0  0  0  0  0  0  0  0
   -8.2901   20.0798  -31.7381 H   0  0  0  0  0  0  0  0  0  0  0  0
   -8.0176   17.8809  -32.8824 H   0  0  0  0  0  0  0  0  0  0  0  0
   -5.9322   17.3819  -34.1593 H   0  0  0  0  0  0  0  0  0  0  0  0
   -4.1103   19.0841  -34.2876 H   0  0  0  0  0  0  0  0  0  0  0  0
   -4.3710   21.2841  -33.1470 H   0  0  0  0  0  0  0  0  0  0  0  0
  1  2  1  0
  2  3  1  0
  3  4  1  0
  4  5  1  0
  3  6  1  0
  6  7  1  0
  7  8  1  0
  8  9  1  0
  9 10  1  0
 10 11  2  0
 10 12  1  0
 12 13  2  0
 13 14  1  0
 14 15  1  0
 15 16  1  0
 16 17  2  0
 17 18  1  0
 18 19  2  0
 19 20  1  0
 20 21  2  0
 15 22  2  0
 22 12  1  0
 21 16  1  0
  1 23  1  0
  1 24  1  0
  1 25  1  0
  2 26  1  0
  2 27  1  0
  4 28  1  0
  4 29  1  0
  5 30  1  0
  5 31  1  0
  5 32  1  0
  6 33  1  0
  6 34  1  0
  7 35  1  0
  7 36  1  0
 13 37  1  0
 17 38  1  0
 18 39  1  0
 19 40  1  0
 20 41  1  0
 21 42  1  0
M  CHG  1   9  -1
M  END
>  <UniqueID>  (12) 
12

>  <SMILES>  (12) 
CCN(CC)CCO[N-]C(=O)c1csc(-c2ccccc2)n1

>  <Energy>  (12) 
71.19286490421185

>  <Genealogy>  (12) 
CCN(CC)CCO[N-]C(=O)c1csc(-c2ccccc2)n1 (protonated)
CCN(CC)CCO[N-]C(=O)c1csc(-c2ccccc2)n1 (3D coordinates assigned)
CCN(CC)CCO[N-]C(=O)c1csc(-c2ccccc2)n1 (optimized conformer: 71.19286490421185 kcal/mol)

>  <smiles>  (12) 
CCN(CC)CCONC(=O)c1csc(-c2ccccc2)n1

>  <score_type>  (12) 
oracle

>  <origin>  (12) 
adg

>  <m_score__min__energy>  (12) 
-9.3499999999999996

>  <m_primary>  (12) 
energy

$$$$
12:0
     RDKit          3D

 30 31  0  0  0  0  0  0  0  0999 V2000
   -4.2030   21.6330  -33.0920 C   0  0  0  0  0  0  0  0  0  0  0  0
   -5.5410   21.9490  -32.7190 O   0  0  0  0  0  0  0  0  0  0  0  0
   -6.5550   20.9990  -32.5060 C   0  0  0  0  0  0  0  0  0  0  0  0
   -6.3790   19.6390  -32.8310 C   0  0  0  0  0  0  0  0  0  0  0  0
   -7.4070   18.7120  -32.6060 C   0  0  0  0  0  0  0  0  0  0  0  0
   -7.2260   17.2740  -32.9930 C   0  0  0  0  0  0  0  0  0  0  0  0
   -8.6300   19.1510  -32.0860 C   0  0  0  0  0  0  0  0  0  0  0  0
   -8.8150   20.4950  -31.7600 C   0  0  0  0  0  0  0  0  0  0  0  0
   -7.7810   21.4260  -31.9540 C   0  0  0  0  0  0  0  0  0  0  0  0
   -7.9970   22.8740  -31.5900 C   0  0  0  0  0  0  0  0  0  0  0  0
   -7.1790   23.2400  -30.4360 N   0  0  0  0  0  0  0  0  0  0  0  0
   -5.9900   23.9830  -30.5550 N   0  0  0  0  0  0  0  0  0  0  0  0
   -4.7200   23.5650  -30.4120 C   0  0  0  0  0  0  0  0  0  0  0  0
   -3.8660   24.5920  -30.5910 N   0  0  0  0  0  0  0  0  0  0  0  0
   -4.5960   25.6700  -30.8470 N   0  0  0  0  0  0  0  0  0  0  0  0
   -5.8890   25.2930  -30.8210 C   0  0  0  0  0  0  0  0  0  0  0  0
   -3.5943   21.4892  -32.1871 H   0  0  0  0  0  0  0  0  0  0  0  0
   -4.1972   20.7088  -33.6885 H   0  0  0  0  0  0  0  0  0  0  0  0
   -3.7843   22.4570  -33.6885 H   0  0  0  0  0  0  0  0  0  0  0  0
   -5.4264   19.3014  -33.2652 H   0  0  0  0  0  0  0  0  0  0  0  0
   -7.1483   16.6571  -32.0856 H   0  0  0  0  0  0  0  0  0  0  0  0
   -8.0896   16.9431  -33.5886 H   0  0  0  0  0  0  0  0  0  0  0  0
   -6.3074   17.1674  -33.5886 H   0  0  0  0  0  0  0  0  0  0  0  0
   -9.4493   18.4330  -31.9336 H   0  0  0  0  0  0  0  0  0  0  0  0
   -9.7787   20.8284  -31.3476 H   0  0  0  0  0  0  0  0  0  0  0  0
   -7.7197   23.5074  -32.4455 H   0  0  0  0  0  0  0  0  0  0  0  0
   -9.0569   23.0222  -31.3356 H   0  0  0  0  0  0  0  0  0  0  0  0
   -7.5050   22.9560  -29.4840 H   0  0  0  0  0  0  0  0  0  0  0  0
   -4.4207   22.5318  -30.1817 H   0  0  0  0  0  0  0  0  0  0  0  0
   -6.7421   25.9656  -30.9938 H   0  0  0  0  0  0  0  0  0  0  0  0
  1  2  1  0
  2  3  1  0
  3  4  2  0
  4  5  1  0
  5  6  1  0
  5  7  2  0
  7  8  1  0
  8  9  2  0
  9 10  1  0
 10 11  1  0
 11 12  1  0
 12 13  1  0
 13 14  2  0
 14 15  1  0
 15 16  2  0
  9  3  1  0
 16 12  1  0
  1 17  1  0
  1 18  1  0
  1 19  1  0
  4 20  1  0
  6 21  1  0
  6 22  1  0
  6 23  1  0
  7 24  1  0
  8 25  1  0
 10 26  1  0
 10 27  1  0
 11 28  1  0
 13 29  1  0
 16 30  1  0
M  END
>  <UniqueID>  (13) 
13

>  <SMILES>  (13) 
COc1cc(C)ccc1CNn1cnnc1

>  <Energy>  (13) 
62.51273851215431

>  <Genealogy>  (13) 
COc1cc(C)ccc1CNn1cnnc1 (3D coordinates assigned)
COc1cc(C)ccc1CNn1cnnc1 (optimized conformer: 62.51273851215431 kcal/mol)

>  <smiles>  (13) 
COc1cc(C)ccc1CNn1cnnc1

>  <score_type>  (13) 
oracle

>  <origin>  (13) 
adg

>  <m_score__min__energy>  (13) 
-6.4299999999999997

>  <m_primary>  (13) 
energy

$$$$
13:0
     RDKit          3D

 47 50  0  0  0  0  0  0  0  0999 V2000
   -0.5840   26.7430  -24.2020 C   0  0  0  0  0  0  0  0  0  0  0  0
   -0.0570   26.2780  -25.4410 O   0  0  0  0  0  0  0  0  0  0  0  0
   -0.8120   25.6230  -26.4250 C   0  0  0  0  0  0  0  0  0  0  0  0
   -2.0970   25.1050  -26.1720 C   0  0  0  0  0  0  0  0  0  0  0  0
   -2.8100   24.4620  -27.1880 C   0  0  0  0  0  0  0  0  0  0  0  0
   -2.2550   24.3290  -28.4710 C   0  0  0  0  0  0  0  0  0  0  0  0
   -2.9930   23.6680  -29.5130 N   0  0  0  0  0  0  0  0  0  0  0  0
   -3.1820   22.3320  -29.6840 C   0  0  0  0  0  0  0  0  0  0  0  0
   -2.5190   21.2620  -28.9070 C   0  0  0  0  0  0  0  0  0  0  0  0
   -3.0980   20.7940  -27.7140 C   0  0  0  0  0  0  0  0  0  0  0  0
   -2.4790   19.7790  -26.9790 C   0  0  0  0  0  0  0  0  0  0  0  0
   -1.2830   19.2150  -27.4320 C   0  0  0  0  0  0  0  0  0  0  0  0
   -0.6840   18.2300  -26.7180 F   0  0  0  0  0  0  0  0  0  0  0  0
   -0.7080   19.6620  -28.6250 C   0  0  0  0  0  0  0  0  0  0  0  0
   -1.3240   20.6770  -29.3630 C   0  0  0  0  0  0  0  0  0  0  0  0
   -4.0650   22.1040  -30.7320 C   0  0  0  0  0  0  0  0  0  0  0  0
   -4.4050   23.3500  -31.2220 C   0  0  0  0  0  0  0  0  0  0  0  0
   -5.3690   23.6200  -32.2510 N   0  0  0  0  0  0  0  0  0  0  0  0
   -6.4910   22.7270  -32.1030 C   0  0  0  0  0  0  0  0  0  0  0  0
   -7.6620   23.1570  -31.4540 C   0  0  0  0  0  0  0  0  0  0  0  0
   -8.7620   22.3010  -31.3410 C   0  0  0  0  0  0  0  0  0  0  0  0
   -8.7050   21.0130  -31.8800 C   0  0  0  0  0  0  0  0  0  0  0  0
   -7.5500   20.5800  -32.5340 C   0  0  0  0  0  0  0  0  0  0  0  0
   -6.4480   21.4320  -32.6500 C   0  0  0  0  0  0  0  0  0  0  0  0
   -3.7480   24.2810  -30.4470 C   0  0  0  0  0  0  0  0  0  0  0  0
   -3.8720   25.6610  -30.5720 O   0  0  0  0  0  0  0  0  0  0  0  0
   -0.9710   24.8370  -28.7180 C   0  0  0  0  0  0  0  0  0  0  0  0
   -0.2590   25.4810  -27.7030 C   0  0  0  0  0  0  0  0  0  0  0  0
   -0.0432   26.2659  -23.3714 H   0  0  0  0  0  0  0  0  0  0  0  0
   -0.4636   27.8346  -24.1389 H   0  0  0  0  0  0  0  0  0  0  0  0
   -1.6521   26.4876  -24.1389 H   0  0  0  0  0  0  0  0  0  0  0  0
   -2.5413   25.2068  -25.1709 H   0  0  0  0  0  0  0  0  0  0  0  0
   -3.8119   24.0578  -26.9812 H   0  0  0  0  0  0  0  0  0  0  0  0
   -4.0432   21.2291  -27.3573 H   0  0  0  0  0  0  0  0  0  0  0  0
   -2.9338   19.4235  -26.0426 H   0  0  0  0  0  0  0  0  0  0  0  0
    0.2306   19.2145  -28.9837 H   0  0  0  0  0  0  0  0  0  0  0  0
   -0.8717   21.0199  -30.3053 H   0  0  0  0  0  0  0  0  0  0  0  0
   -4.4210   21.1294  -31.0973 H   0  0  0  0  0  0  0  0  0  0  0  0
   -4.9240   23.4880  -33.1890 H   0  0  0  0  0  0  0  0  0  0  0  0
   -5.6840   24.6160  -32.1880 H   0  0  0  0  0  0  0  0  0  0  0  0
   -7.7130   24.1720  -31.0330 H   0  0  0  0  0  0  0  0  0  0  0  0
   -9.6730   22.6419  -30.8273 H   0  0  0  0  0  0  0  0  0  0  0  0
   -9.5704   20.3401  -31.7890 H   0  0  0  0  0  0  0  0  0  0  0  0
   -7.5071   19.5663  -32.9589 H   0  0  0  0  0  0  0  0  0  0  0  0
   -5.5427   21.0880  -33.1717 H   0  0  0  0  0  0  0  0  0  0  0  0
   -0.5222   24.7277  -29.7163 H   0  0  0  0  0  0  0  0  0  0  0  0
    0.7450   25.8800  -27.9100 H   0  0  0  0  0  0  0  0  0  0  0  0
  1  2  1  0
  2  3  1  0
  3  4  2  0
  4  5  1  0
  5  6  2  0
  6  7  1  0
  7  8  1  0
  8  9  1  0
  9 10  2  0
 10 11  1  0
 11 12  2  0
 12 13  1  0
 12 14  1  0
 14 15  2  0
  8 16  2  0
 16 17  1  0
 17 18  1  0
 18 19  1  0
 19 20  2  0
 20 21  1  0
 21 22  2  0
 22 23  1  0
 23 24  2  0
 17 25  2  0
 25 26  1  0
  6 27  1  0
 27 28  2  0
 28  3  1  0
 25  7  1  0
 15  9  1  0
 24 19  1  0
  1 29  1  0
  1 30  1  0
  1 31  1  0
  4 32  1  0
  5 33  1  0
 10 34  1  0
 11 35  1  0
 14 36  1  0
 15 37  1  0
 16 38  1  0
 18 39  1  0
 18 40  1  0
 20 41  1  0
 21 42  1  0
 22 43  1  0
 23 44  1  0
 24 45  1  0
 27 46  1  0
 28 47  1  0
M  CHG  2  18   1  26  -1
M  END
>  <UniqueID>  (14) 
14

>  <SMILES>  (14) 
COc1ccc(-n2c(-c3ccc(F)cc3)cc([NH2+]c3ccccc3)c2[O-])cc1

>  <Energy>  (14) 
90.06696117464348

>  <Genealogy>  (14) 
COc1ccc(-n2c(-c3ccc(F)cc3)cc([NH2+]c3ccccc3)c2[O-])cc1 (protonated)
COc1ccc(-n2c(-c3ccc(F)cc3)cc([NH2+]c3ccccc3)c2[O-])cc1 (3D coordinates assigned)
COc1ccc(-n2c(-c3ccc(F)cc3)cc([NH2+]c3ccccc3)c2[O-])cc1 (optimized conformer: 90.06696117464348 kcal/mol)

>  <smiles>  (14) 
COc1ccc(-n2c(-c3ccc(F)cc3)cc(Nc3ccccc3)c2O)cc1

>  <score_type>  (14) 
oracle

>  <origin>  (14) 
adg

>  <m_score__min__energy>  (14) 
-10.73

>  <m_primary>  (14) 
energy

$$$$
14:0
     RDKit          3D

 38 40  0  0  0  0  0  0  0  0999 V2000
   -5.7500   25.7280  -30.0970 C   0  0  0  0  0  0  0  0  0  0  0  0
   -4.9780   24.9900  -31.0370 O   0  0  0  0  0  0  0  0  0  0  0  0
   -5.3070   23.7080  -31.5060 C   0  0  0  0  0  0  0  0  0  0  0  0
   -6.6200   23.3650  -31.8800 C   0  0  0  0  0  0  0  0  0  0  0  0
   -6.9110   22.0800  -32.3410 C   0  0  0  0  0  0  0  0  0  0  0  0
   -5.9000   21.1140  -32.4380 C   0  0  0  0  0  0  0  0  0  0  0  0
   -6.2230   19.7560  -32.9250 C   0  0  0  0  0  0  0  0  0  0  0  0
   -7.1100   19.0000  -32.3750 N   0  0  0  0  0  0  0  0  0  0  0  0
   -7.1760   17.7380  -33.0980 C   0  0  0  0  0  0  0  0  0  0  0  0
   -6.1340   17.8770  -34.2160 C   0  0  0  0  0  0  0  0  0  0  0  0
   -5.6030   19.1730  -34.0110 O   0  0  0  0  0  0  0  0  0  0  0  0
   -4.5880   21.4550  -32.0660 C   0  0  0  0  0  0  0  0  0  0  0  0
   -4.2870   22.7500  -31.5980 C   0  0  0  0  0  0  0  0  0  0  0  0
   -2.9890   23.1280  -31.2170 O   0  0  0  0  0  0  0  0  0  0  0  0
   -2.3170   22.7140  -30.0230 C   0  0  0  0  0  0  0  0  0  0  0  0
   -1.9860   23.9380  -29.1860 C   0  0  0  0  0  0  0  0  0  0  0  0
   -3.2220   24.2010  -28.3410 C   0  0  0  0  0  0  0  0  0  0  0  0
   -3.9490   22.8670  -28.2100 C   0  0  0  0  0  0  0  0  0  0  0  0
   -3.2460   21.8840  -29.1410 C   0  0  0  0  0  0  0  0  0  0  0  0
   -5.4537   25.4447  -29.0762 H   0  0  0  0  0  0  0  0  0  0  0  0
   -5.5760   26.8042  -30.2440 H   0  0  0  0  0  0  0  0  0  0  0  0
   -6.8172   25.5057  -30.2440 H   0  0  0  0  0  0  0  0  0  0  0  0
   -7.4220   24.1145  -31.8085 H   0  0  0  0  0  0  0  0  0  0  0  0
   -7.9409   21.8237  -32.6302 H   0  0  0  0  0  0  0  0  0  0  0  0
   -6.9243   16.8971  -32.4350 H   0  0  0  0  0  0  0  0  0  0  0  0
   -8.1834   17.5341  -33.4899 H   0  0  0  0  0  0  0  0  0  0  0  0
   -5.3502   17.1110  -34.1209 H   0  0  0  0  0  0  0  0  0  0  0  0
   -6.5617   17.7423  -35.2205 H   0  0  0  0  0  0  0  0  0  0  0  0
   -3.7881   20.7036  -32.1409 H   0  0  0  0  0  0  0  0  0  0  0  0
   -1.4270   22.1439  -30.3277 H   0  0  0  0  0  0  0  0  0  0  0  0
   -1.1160   23.7396  -28.5427 H   0  0  0  0  0  0  0  0  0  0  0  0
   -1.7303   24.8040  -29.8142 H   0  0  0  0  0  0  0  0  0  0  0  0
   -2.9311   24.5743  -27.3480 H   0  0  0  0  0  0  0  0  0  0  0  0
   -3.8669   24.9615  -28.8055 H   0  0  0  0  0  0  0  0  0  0  0  0
   -3.8960   22.5080  -27.1716 H   0  0  0  0  0  0  0  0  0  0  0  0
   -5.0111   22.9703  -28.4770 H   0  0  0  0  0  0  0  0  0  0  0  0
   -2.6650   21.1555  -28.5564 H   0  0  0  0  0  0  0  0  0  0  0  0
   -3.9711   21.3199  -29.7459 H   0  0  0  0  0  0  0  0  0  0  0  0
  1  2  1  0
  2  3  1  0
  3  4  2  0
  4  5  1  0
  5  6  2  0
  6  7  1  0
  7  8  2  0
  8  9  1  0
  9 10  1  0
 10 11  1  0
  6 12  1  0
 12 13  2  0
 13 14  1  0
 14 15  1  0
 15 16  1  0
 16 17  1  0
 17 18  1  0
 18 19  1  0
 13  3  1  0
 19 15  1  0
 11  7  1  0
  1 20  1  0
  1 21  1  0
  1 22  1  0
  4 23  1  0
  5 24  1  0
  9 25  1  0
  9 26  1  0
 10 27  1  0
 10 28  1  0
 12 29  1  0
 15 30  1  0
 16 31  1  0
 16 32  1  0
 17 33  1  0
 17 34  1  0
 18 35  1  0
 18 36  1  0
 19 37  1  0
 19 38  1  0
M  END
>  <UniqueID>  (15) 
15

>  <SMILES>  (15) 
COc1ccc(C2=NCCO2)cc1OC1CCCC1

>  <Energy>  (15) 
51.282134899553654

>  <Genealogy>  (15) 
COc1ccc(C2=NCCO2)cc1OC1CCCC1 (3D coordinates assigned)
COc1ccc(C2=NCCO2)cc1OC1CCCC1 (nonaromatic ring conformer: 51.282134899553654 kcal/mol)

>  <smiles>  (15) 
COc1ccc(C2=NCCO2)cc1OC1CCCC1

>  <score_type>  (15) 
oracle

>  <origin>  (15) 
adg

>  <m_score__min__energy>  (15) 
-6.79

>  <m_primary>  (15) 
energy

$$$$
15:0
     RDKit          3D

 32 32  0  0  0  0  0  0  0  0999 V2000
   -2.3350   24.2640  -28.9930 C   0  0  0  0  0  0  0  0  0  0  0  0
   -3.1140   24.9410  -29.9750 O   0  0  0  0  0  0  0  0  0  0  0  0
   -4.3890   24.5310  -30.3920 C   0  0  0  0  0  0  0  0  0  0  0  0
   -4.4880   23.4020  -31.2150 C   0  0  0  0  0  0  0  0  0  0  0  0
   -5.7370   22.9540  -31.6580 C   0  0  0  0  0  0  0  0  0  0  0  0
   -6.9000   23.6390  -31.2900 C   0  0  0  0  0  0  0  0  0  0  0  0
   -8.5030   23.0580  -31.8500 S   0  0  0  0  0  0  0  0  0  0  0  0
   -8.2760   21.3320  -31.2810 C   0  0  0  0  0  0  0  0  0  0  0  0
   -9.0660   20.3000  -32.1100 C   0  0  0  0  0  0  0  0  0  0  0  0
   -8.2130   19.4020  -32.9280 N   0  0  0  0  0  0  0  0  0  0  0  0
   -7.9650   18.1500  -32.1910 C   0  0  0  0  0  0  0  0  0  0  0  0
   -6.9260   20.0350  -33.2740 C   0  0  0  0  0  0  0  0  0  0  0  0
   -6.8110   24.7630  -30.4590 C   0  0  0  0  0  0  0  0  0  0  0  0
   -5.5640   25.2110  -30.0150 C   0  0  0  0  0  0  0  0  0  0  0  0
   -2.6741   24.5587  -27.9889 H   0  0  0  0  0  0  0  0  0  0  0  0
   -2.4539   23.1774  -29.1159 H   0  0  0  0  0  0  0  0  0  0  0  0
   -1.2756   24.5332  -29.1159 H   0  0  0  0  0  0  0  0  0  0  0  0
   -3.5769   22.8636  -31.5152 H   0  0  0  0  0  0  0  0  0  0  0  0
   -5.8048   22.0612  -32.2970 H   0  0  0  0  0  0  0  0  0  0  0  0
   -7.2064   21.0830  -31.3437 H   0  0  0  0  0  0  0  0  0  0  0  0
   -8.6582   21.2790  -30.2509 H   0  0  0  0  0  0  0  0  0  0  0  0
   -9.6571   19.6809  -31.4191 H   0  0  0  0  0  0  0  0  0  0  0  0
   -9.6936   20.8689  -32.8117 H   0  0  0  0  0  0  0  0  0  0  0  0
   -8.7090   19.1470  -33.8140 H   0  0  0  0  0  0  0  0  0  0  0  0
   -8.0041   18.3472  -31.1095 H   0  0  0  0  0  0  0  0  0  0  0  0
   -8.7339   17.4096  -32.4567 H   0  0  0  0  0  0  0  0  0  0  0  0
   -6.9719   17.7587  -32.4567 H   0  0  0  0  0  0  0  0  0  0  0  0
   -6.3879   20.2997  -32.3518 H   0  0  0  0  0  0  0  0  0  0  0  0
   -6.3189   19.3327  -33.8641 H   0  0  0  0  0  0  0  0  0  0  0  0
   -7.1117   20.9446  -33.8641 H   0  0  0  0  0  0  0  0  0  0  0  0
   -7.7249   25.2944  -30.1551 H   0  0  0  0  0  0  0  0  0  0  0  0
   -5.4995   26.0985  -29.3683 H   0  0  0  0  0  0  0  0  0  0  0  0
  1  2  1  0
  2  3  1  0
  3  4  2  0
  4  5  1  0
  5  6  2  0
  6  7  1  0
  7  8  1  0
  8  9  1  0
  9 10  1  0
 10 11  1  0
 10 12  1  0
  6 13  1  0
 13 14  2  0
 14  3  1  0
  1 15  1  0
  1 16  1  0
  1 17  1  0
  4 18  1  0
  5 19  1  0
  8 20  1  0
  8 21  1  0
  9 22  1  0
  9 23  1  0
 10 24  1  0
 11 25  1  0
 11 26  1  0
 11 27  1  0
 12 28  1  0
 12 29  1  0
 12 30  1  0
 13 31  1  0
 14 32  1  0
M  CHG  1  10   1
M  END
>  <UniqueID>  (16) 
16

>  <SMILES>  (16) 
COc1ccc(SCC[NH+](C)C)cc1

>  <Energy>  (16) 
25.423345236122465

>  <Genealogy>  (16) 
COc1ccc(SCC[NH+](C)C)cc1 (protonated)
COc1ccc(SCC[NH+](C)C)cc1 (3D coordinates assigned)
COc1ccc(SCC[NH+](C)C)cc1 (optimized conformer: 25.423345236122465 kcal/mol)

>  <smiles>  (16) 
COc1ccc(SCCN(C)C)cc1

>  <score_type>  (16) 
oracle

>  <origin>  (16) 
adg

>  <m_score__min__energy>  (16) 
-5.8399999999999999

>  <m_primary>  (16) 
energy

$$$$
16:0
     RDKit          3D

 35 37  0  0  0  0  0  0  0  0999 V2000
   -9.0280   21.9210  -30.9900 C   0  0  0  0  0  0  0  0  0  0  0  0
   -7.9580   21.1560  -31.6520 N   0  0  0  0  0  0  0  0  0  0  0  0
   -8.5220   19.9490  -32.2900 C   0  0  0  0  0  0  0  0  0  0  0  0
   -7.4530   18.9160  -32.4780 C   0  0  0  0  0  0  0  0  0  0  0  0
   -7.1290   17.9020  -31.5860 C   0  0  0  0  0  0  0  0  0  0  0  0
   -6.1060   17.0680  -32.0510 C   0  0  0  0  0  0  0  0  0  0  0  0
   -5.6260   17.4200  -33.3060 C   0  0  0  0  0  0  0  0  0  0  0  0
   -6.4760   18.7700  -33.8380 S   0  0  0  0  0  0  0  0  0  0  0  0
   -7.2520   22.0000  -32.6430 C   0  0  0  0  0  0  0  0  0  0  0  0
   -6.1040   22.7380  -31.9840 C   0  0  0  0  0  0  0  0  0  0  0  0
   -6.3810   23.9960  -31.4300 C   0  0  0  0  0  0  0  0  0  0  0  0
   -5.3620   24.7190  -30.8100 C   0  0  0  0  0  0  0  0  0  0  0  0
   -5.6090   25.8440  -30.3040 O   0  0  0  0  0  0  0  0  0  0  0  0
   -4.1310   24.2280  -30.7500 O   0  0  0  0  0  0  0  0  0  0  0  0
   -3.8020   23.0500  -31.2690 C   0  0  0  0  0  0  0  0  0  0  0  0
   -2.4780   22.6120  -31.1690 C   0  0  0  0  0  0  0  0  0  0  0  0
   -2.0980   21.3860  -31.7170 C   0  0  0  0  0  0  0  0  0  0  0  0
   -3.0400   20.5920  -32.3720 C   0  0  0  0  0  0  0  0  0  0  0  0
   -2.5080   18.9210  -33.1330 Br  0  0  0  0  0  0  0  0  0  0  0  0
   -4.3690   21.0140  -32.4770 C   0  0  0  0  0  0  0  0  0  0  0  0
   -4.7740   22.2480  -31.9210 C   0  0  0  0  0  0  0  0  0  0  0  0
   -8.9152   21.8403  -29.8988 H   0  0  0  0  0  0  0  0  0  0  0  0
   -8.9617   22.9777  -31.2883 H   0  0  0  0  0  0  0  0  0  0  0  0
  -10.0064   21.5164  -31.2883 H   0  0  0  0  0  0  0  0  0  0  0  0
   -9.3166   19.5374  -31.6503 H   0  0  0  0  0  0  0  0  0  0  0  0
   -8.9346   20.2217  -33.2726 H   0  0  0  0  0  0  0  0  0  0  0  0
   -7.6256   17.7682  -30.6137 H   0  0  0  0  0  0  0  0  0  0  0  0
   -5.7183   16.2138  -31.4765 H   0  0  0  0  0  0  0  0  0  0  0  0
   -4.8264   16.9039  -33.8577 H   0  0  0  0  0  0  0  0  0  0  0  0
   -6.8585   21.3620  -33.4480 H   0  0  0  0  0  0  0  0  0  0  0  0
   -7.9593   22.7346  -33.0554 H   0  0  0  0  0  0  0  0  0  0  0  0
   -7.3982   24.4112  -31.4842 H   0  0  0  0  0  0  0  0  0  0  0  0
   -1.7321   23.2368  -30.6559 H   0  0  0  0  0  0  0  0  0  0  0  0
   -1.0554   21.0455  -31.6325 H   0  0  0  0  0  0  0  0  0  0  0  0
   -5.1039   20.3810  -32.9959 H   0  0  0  0  0  0  0  0  0  0  0  0
  1  2  1  0
  2  3  1  0
  3  4  1  0
  4  5  2  0
  5  6  1  0
  6  7  2  0
  7  8  1  0
  2  9  1  0
  9 10  1  0
 10 11  2  0
 11 12  1  0
 12 13  2  0
 12 14  1  0
 14 15  1  0
 15 16  2  0
 16 17  1  0
 17 18  2  0
 18 19  1  0
 18 20  1  0
 20 21  2  0
  8  4  1  0
 21 10  1  0
 21 15  1  0
  1 22  1  0
  1 23  1  0
  1 24  1  0
  3 25  1  0
  3 26  1  0
  5 27  1  0
  6 28  1  0
  7 29  1  0
  9 30  1  0
  9 31  1  0
 11 32  1  0
 16 33  1  0
 17 34  1  0
 20 35  1  0
M  END
>  <UniqueID>  (17) 
17

>  <SMILES>  (17) 
CN(Cc1cccs1)Cc1cc(=O)oc2ccc(Br)cc12

>  <Energy>  (17) 
69.95931141273624

>  <Genealogy>  (17) 
CN(Cc1cccs1)Cc1cc(=O)oc2ccc(Br)cc12 (3D coordinates assigned)
CN(Cc1cccs1)Cc1cc(=O)oc2ccc(Br)cc12 (optimized conformer: 69.95931141273624 kcal/mol)

>  <smiles>  (17) 
CN(Cc1cccs1)Cc1cc(=O)oc2ccc(Br)cc12

>  <score_type>  (17) 
oracle

>  <origin>  (17) 
adg

>  <m_score__min__energy>  (17) 
-8.2599999999999998

>  <m_primary>  (17) 
energy

$$$$
17:0
     RDKit          3D

 40 41  0  0  0  0  0  0  0  0999 V2000
   -5.3540   16.0040  -32.2950 C   0  0  0  0  0  0  0  0  0  0  0  0
   -4.4610   16.2950  -33.4980 C   0  0  0  0  0  0  0  0  0  0  0  0
   -4.3240   17.7580  -33.6930 N   0  0  0  0  0  0  0  0  0  0  0  0
   -2.9270   18.1500  -34.0050 C   0  0  0  0  0  0  0  0  0  0  0  0
   -2.5820   19.5970  -33.6280 C   0  0  0  0  0  0  0  0  0  0  0  0
   -5.3280   18.2690  -34.6600 C   0  0  0  0  0  0  0  0  0  0  0  0
   -5.9610   19.5920  -34.2120 C   0  0  0  0  0  0  0  0  0  0  0  0
   -5.7750   19.7970  -32.7750 N   0  0  0  0  0  0  0  0  0  0  0  0
   -6.5320   20.7640  -32.0290 C   0  0  0  0  0  0  0  0  0  0  0  0
   -7.8940   20.5380  -31.7300 C   0  0  0  0  0  0  0  0  0  0  0  0
   -8.7810   18.9330  -32.2820 Br  0  0  0  0  0  0  0  0  0  0  0  0
   -8.6250   21.4830  -30.9870 C   0  0  0  0  0  0  0  0  0  0  0  0
   -8.0230   22.6670  -30.5400 C   0  0  0  0  0  0  0  0  0  0  0  0
   -6.6780   22.9060  -30.8500 C   0  0  0  0  0  0  0  0  0  0  0  0
   -5.9580   21.9670  -31.5870 C   0  0  0  0  0  0  0  0  0  0  0  0
   -4.4040   22.5640  -31.8600 S   0  0  0  0  0  0  0  0  0  0  0  0
   -4.7100   23.9790  -31.0000 C   0  0  0  0  0  0  0  0  0  0  0  0
   -3.8600   24.8950  -30.8360 O   0  0  0  0  0  0  0  0  0  0  0  0
   -5.9750   24.0270  -30.5070 N   0  0  0  0  0  0  0  0  0  0  0  0
   -6.5240   25.1500  -29.7420 C   0  0  0  0  0  0  0  0  0  0  0  0
   -4.7913   16.1874  -31.3678 H   0  0  0  0  0  0  0  0  0  0  0  0
   -6.2354   16.6614  -32.3251 H   0  0  0  0  0  0  0  0  0  0  0  0
   -5.6789   14.9535  -32.3251 H   0  0  0  0  0  0  0  0  0  0  0  0
   -3.4667   15.8568  -33.3267 H   0  0  0  0  0  0  0  0  0  0  0  0
   -4.9162   15.8545  -34.3973 H   0  0  0  0  0  0  0  0  0  0  0  0
   -2.2495   17.4794  -33.4562 H   0  0  0  0  0  0  0  0  0  0  0  0
   -2.8121   18.0710  -35.0961 H   0  0  0  0  0  0  0  0  0  0  0  0
   -2.5587   19.6949  -32.5326 H   0  0  0  0  0  0  0  0  0  0  0  0
   -1.5964   19.8584  -34.0406 H   0  0  0  0  0  0  0  0  0  0  0  0
   -3.3437   20.2750  -34.0406 H   0  0  0  0  0  0  0  0  0  0  0  0
   -4.8341   18.4259  -35.6303 H   0  0  0  0  0  0  0  0  0  0  0  0
   -6.1327   17.5222  -34.7294 H   0  0  0  0  0  0  0  0  0  0  0  0
   -5.4883   20.4213  -34.7587 H   0  0  0  0  0  0  0  0  0  0  0  0
   -7.0393   19.5573  -34.4264 H   0  0  0  0  0  0  0  0  0  0  0  0
   -4.9660   19.3250  -32.3130 H   0  0  0  0  0  0  0  0  0  0  0  0
   -9.6826   21.2901  -30.7540 H   0  0  0  0  0  0  0  0  0  0  0  0
   -8.5987   23.3985  -29.9539 H   0  0  0  0  0  0  0  0  0  0  0  0
   -6.4236   24.9446  -28.6660 H   0  0  0  0  0  0  0  0  0  0  0  0
   -5.9734   26.0686  -29.9929 H   0  0  0  0  0  0  0  0  0  0  0  0
   -7.5871   25.2797  -29.9929 H   0  0  0  0  0  0  0  0  0  0  0  0
  1  2  1  0
  2  3  1  0
  3  4  1  0
  4  5  1  0
  3  6  1  0
  6  7  1  0
  7  8  1  0
  8  9  1  0
  9 10  2  0
 10 11  1  0
 10 12  1  0
 12 13  2  0
 13 14  1  0
 14 15  2  0
 15 16  1  0
 16 17  1  0
 17 18  2  0
 17 19  1  0
 19 20  1  0
 15  9  1  0
 19 14  1  0
  1 21  1  0
  1 22  1  0
  1 23  1  0
  2 24  1  0
  2 25  1  0
  4 26  1  0
  4 27  1  0
  5 28  1  0
  5 29  1  0
  5 30  1  0
  6 31  1  0
  6 32  1  0
  7 33  1  0
  7 34  1  0
  8 35  1  0
 12 36  1  0
 13 37  1  0
 20 38  1  0
 20 39  1  0
 20 40  1  0
M  END
>  <UniqueID>  (18) 
18

>  <SMILES>  (18) 
CCN(CC)CCNc1c(Br)ccc2c1sc(=O)n2C

>  <Energy>  (18) 
78.54719414932946

>  <Genealogy>  (18) 
CCN(CC)CCNc1c(Br)ccc2c1sc(=O)n2C (3D coordinates assigned)
CCN(CC)CCNc1c(Br)ccc2c1sc(=O)n2C (optimized conformer: 78.54719414932946 kcal/mol)

>  <smiles>  (18) 
CCN(CC)CCNc1c(Br)ccc2c1sc(=O)n2C

>  <score_type>  (18) 
oracle

>  <origin>  (18) 
adg

>  <m_score__min__energy>  (18) 
-7.9800000000000004

>  <m_primary>  (18) 
energy

$$$$
18:0
     RDKit          3D

 54 57  0  0  0  0  0  0  0  0999 V2000
   -2.7720   21.1070  -28.9140 C   0  0  0  0  0  0  0  0  0  0  0  0
   -3.4210   22.0370  -27.8810 C   0  0  0  0  0  0  0  0  0  0  0  0
   -4.0490   23.2480  -28.4780 N   0  0  0  0  0  0  0  0  0  0  0  0
   -4.1520   24.3530  -27.4930 C   0  0  0  0  0  0  0  0  0  0  0  0
   -2.8130   24.6890  -26.8240 C   0  0  0  0  0  0  0  0  0  0  0  0
   -5.3690   23.0090  -29.1290 C   0  0  0  0  0  0  0  0  0  0  0  0
   -5.9590   24.2200  -29.8950 C   0  0  0  0  0  0  0  0  0  0  0  0
   -6.2040   23.9180  -31.3090 N   0  0  0  0  0  0  0  0  0  0  0  0
   -6.1170   22.5840  -31.8410 C   0  0  0  0  0  0  0  0  0  0  0  0
   -4.8890   22.0320  -32.2050 C   0  0  0  0  0  0  0  0  0  0  0  0
   -4.8150   20.8130  -32.8620 C   0  0  0  0  0  0  0  0  0  0  0  0
   -5.9440   20.1260  -33.2310 N   0  0  0  0  0  0  0  0  0  0  0  0
   -5.8500   19.0160  -34.1920 C   0  0  0  0  0  0  0  0  0  0  0  0
   -7.1630   20.5350  -32.7160 C   0  0  0  0  0  0  0  0  0  0  0  0
   -8.3280   19.7370  -32.8410 C   0  0  0  0  0  0  0  0  0  0  0  0
   -9.5540   20.1760  -32.3410 C   0  0  0  0  0  0  0  0  0  0  0  0
   -9.6520   21.4000  -31.6900 C   0  0  0  0  0  0  0  0  0  0  0  0
   -8.5210   22.1940  -31.5180 C   0  0  0  0  0  0  0  0  0  0  0  0
   -7.2690   21.7830  -32.0180 C   0  0  0  0  0  0  0  0  0  0  0  0
   -3.3820   20.4640  -33.0320 C   0  0  0  0  0  0  0  0  0  0  0  0
   -2.7490   19.2950  -33.4800 C   0  0  0  0  0  0  0  0  0  0  0  0
   -1.3450   19.2350  -33.4530 C   0  0  0  0  0  0  0  0  0  0  0  0
   -0.5920   20.3100  -32.9450 C   0  0  0  0  0  0  0  0  0  0  0  0
   -1.2360   21.4470  -32.4370 C   0  0  0  0  0  0  0  0  0  0  0  0
   -2.6280   21.4960  -32.4930 C   0  0  0  0  0  0  0  0  0  0  0  0
   -3.5270   22.4910  -31.9340 C   0  0  0  0  0  0  0  0  0  0  0  0
   -3.1880   23.4670  -31.2140 O   0  0  0  0  0  0  0  0  0  0  0  0
   -2.2172   20.3120  -28.3942 H   0  0  0  0  0  0  0  0  0  0  0  0
   -3.5532   20.6571  -29.5443 H   0  0  0  0  0  0  0  0  0  0  0  0
   -2.0802   21.6850  -29.5443 H   0  0  0  0  0  0  0  0  0  0  0  0
   -4.1972   21.4720  -27.3441 H   0  0  0  0  0  0  0  0  0  0  0  0
   -2.6192   22.3861  -27.2137 H   0  0  0  0  0  0  0  0  0  0  0  0
   -3.4110   23.5750  -29.2430 H   0  0  0  0  0  0  0  0  0  0  0  0
   -4.5196   25.2509  -28.0113 H   0  0  0  0  0  0  0  0  0  0  0  0
   -4.8410   24.0237  -26.7012 H   0  0  0  0  0  0  0  0  0  0  0  0
   -2.9316   24.6592  -25.7308 H   0  0  0  0  0  0  0  0  0  0  0  0
   -2.0550   23.9532  -27.1307 H   0  0  0  0  0  0  0  0  0  0  0  0
   -2.4922   25.6955  -27.1307 H   0  0  0  0  0  0  0  0  0  0  0  0
   -5.2508   22.1804  -29.8427 H   0  0  0  0  0  0  0  0  0  0  0  0
   -6.0750   22.7916  -28.3139 H   0  0  0  0  0  0  0  0  0  0  0  0
   -6.9110   24.5066  -29.4243 H   0  0  0  0  0  0  0  0  0  0  0  0
   -5.2253   25.0382  -29.8477 H   0  0  0  0  0  0  0  0  0  0  0  0
   -6.4070   24.7100  -31.9600 H   0  0  0  0  0  0  0  0  0  0  0  0
   -5.7694   18.0643  -33.6462 H   0  0  0  0  0  0  0  0  0  0  0  0
   -6.7501   19.0011  -34.8241 H   0  0  0  0  0  0  0  0  0  0  0  0
   -4.9602   19.1527  -34.8241 H   0  0  0  0  0  0  0  0  0  0  0  0
   -8.2643   18.7583  -33.3391 H   0  0  0  0  0  0  0  0  0  0  0  0
  -10.4496   19.5490  -32.4628 H   0  0  0  0  0  0  0  0  0  0  0  0
  -10.6256   21.7425  -31.3096 H   0  0  0  0  0  0  0  0  0  0  0  0
   -8.6057   23.1530  -30.9858 H   0  0  0  0  0  0  0  0  0  0  0  0
   -3.3398   18.4421  -33.8452 H   0  0  0  0  0  0  0  0  0  0  0  0
   -0.8302   18.3399  -33.8323 H   0  0  0  0  0  0  0  0  0  0  0  0
    0.5068   20.2579  -32.9465 H   0  0  0  0  0  0  0  0  0  0  0  0
   -0.6584   22.2780  -32.0059 H   0  0  0  0  0  0  0  0  0  0  0  0
  1  2  1  0
  2  3  1  0
  3  4  1  0
  4  5  1  0
  3  6  1  0
  6  7  1  0
  7  8  1  0
  8  9  1  0
  9 10  2  0
 10 11  1  0
 11 12  2  0
 12 13  1  0
 12 14  1  0
 14 15  2  0
 15 16  1  0
 16 17  2  0
 17 18  1  0
 18 19  2  0
 11 20  1  0
 20 21  2  0
 21 22  1  0
 22 23  2  0
 23 24  1  0
 24 25  2  0
 25 26  1  0
 26 27  2  0
 19  9  1  0
 25 20  1  0
 26 10  1  0
 19 14  1  0
  1 28  1  0
  1 29  1  0
  1 30  1  0
  2 31  1  0
  2 32  1  0
  3 33  1  0
  4 34  1  0
  4 35  1  0
  5 36  1  0
  5 37  1  0
  5 38  1  0
  6 39  1  0
  6 40  1  0
  7 41  1  0
  7 42  1  0
  8 43  1  0
 13 44  1  0
 13 45  1  0
 13 46  1  0
 15 47  1  0
 16 48  1  0
 17 49  1  0
 18 50  1  0
 21 51  1  0
 22 52  1  0
 23 53  1  0
 24 54  1  0
M  CHG  2   3   1  12   1
M  END
>  <UniqueID>  (19) 
19

>  <SMILES>  (19) 
CC[NH+](CC)CCNc1c2c([n+](C)c3ccccc13)-c1ccccc1C2=O

>  <Energy>  (19) 
117.47744943571972

>  <Genealogy>  (19) 
CC[NH+](CC)CCNc1c2c([n+](C)c3ccccc13)-c1ccccc1C2=O (protonated)
CC[NH+](CC)CCNc1c2c([n+](C)c3ccccc13)-c1ccccc1C2=O (3D coordinates assigned)
CC[NH+](CC)CCNc1c2c([n+](C)c3ccccc13)-c1ccccc1C2=O (nonaromatic ring conformer: 117.47744943571972 kcal/mol)

>  <smiles>  (19) 
CCN(CC)CCNc1c2c([n+](C)c3ccccc13)-c1ccccc1C2=O

>  <score_type>  (19) 
oracle

>  <origin>  (19) 
adg

>  <m_score__min__energy>  (19) 
-7.6699999999999999

>  <m_primary>  (19) 
energy

$$$$
19:0
     RDKit          3D

 37 37  0  0  0  0  0  0  0  0999 V2000
   -2.5780   24.4470  -29.2790 C   0  0  0  0  0  0  0  0  0  0  0  0
   -4.0640   24.1510  -29.4610 C   0  0  0  0  0  0  0  0  0  0  0  0
   -4.5000   24.5170  -30.8290 N   0  0  0  0  0  0  0  0  0  0  0  0
   -5.5270   25.5830  -30.7910 C   0  0  0  0  0  0  0  0  0  0  0  0
   -6.5310   25.3080  -29.6750 C   0  0  0  0  0  0  0  0  0  0  0  0
   -4.9840   23.3300  -31.5730 C   0  0  0  0  0  0  0  0  0  0  0  0
   -4.6520   22.0400  -30.8140 C   0  0  0  0  0  0  0  0  0  0  0  0
   -4.2480   20.6820  -31.9750 S   0  0  0  0  0  0  0  0  0  0  0  0
   -5.6770   20.8900  -33.1010 C   0  0  0  0  0  0  0  0  0  0  0  0
   -6.8660   20.0910  -32.6260 C   0  0  0  0  0  0  0  0  0  0  0  0
   -6.8390   18.6880  -32.7270 C   0  0  0  0  0  0  0  0  0  0  0  0
   -7.9360   17.9250  -32.3240 C   0  0  0  0  0  0  0  0  0  0  0  0
   -9.0730   18.5510  -31.8110 C   0  0  0  0  0  0  0  0  0  0  0  0
   -9.1150   19.9410  -31.6960 C   0  0  0  0  0  0  0  0  0  0  0  0
   -8.0200   20.7180  -32.0990 C   0  0  0  0  0  0  0  0  0  0  0  0
   -8.1080   22.1540  -31.9740 C   0  0  0  0  0  0  0  0  0  0  0  0
   -8.1760   23.3050  -31.8740 N   0  0  0  0  0  0  0  0  0  0  0  0
   -2.3423   24.4940  -28.2056 H   0  0  0  0  0  0  0  0  0  0  0  0
   -1.9849   23.6494  -29.7501 H   0  0  0  0  0  0  0  0  0  0  0  0
   -2.3358   25.4110  -29.7501 H   0  0  0  0  0  0  0  0  0  0  0  0
   -4.2423   23.0777  -29.2988 H   0  0  0  0  0  0  0  0  0  0  0  0
   -4.6376   24.7438  -28.7332 H   0  0  0  0  0  0  0  0  0  0  0  0
   -5.0386   26.5518  -30.6098 H   0  0  0  0  0  0  0  0  0  0  0  0
   -6.0579   25.6044  -31.7542 H   0  0  0  0  0  0  0  0  0  0  0  0
   -6.0408   25.4423  -28.6995 H   0  0  0  0  0  0  0  0  0  0  0  0
   -7.3752   26.0080  -29.7606 H   0  0  0  0  0  0  0  0  0  0  0  0
   -6.9007   24.2755  -29.7606 H   0  0  0  0  0  0  0  0  0  0  0  0
   -6.0742   23.4036  -31.6998 H   0  0  0  0  0  0  0  0  0  0  0  0
   -4.4859   23.3008  -32.5533 H   0  0  0  0  0  0  0  0  0  0  0  0
   -3.7883   22.2210  -30.1573 H   0  0  0  0  0  0  0  0  0  0  0  0
   -5.5308   21.7454  -30.2217 H   0  0  0  0  0  0  0  0  0  0  0  0
   -5.9519   21.9544  -33.1392 H   0  0  0  0  0  0  0  0  0  0  0  0
   -5.3899   20.5279  -34.0992 H   0  0  0  0  0  0  0  0  0  0  0  0
   -5.9449   18.1877  -33.1274 H   0  0  0  0  0  0  0  0  0  0  0  0
   -7.9044   16.8289  -32.4108 H   0  0  0  0  0  0  0  0  0  0  0  0
   -9.9374   17.9477  -31.4968 H   0  0  0  0  0  0  0  0  0  0  0  0
  -10.0118   20.4295  -31.2871 H   0  0  0  0  0  0  0  0  0  0  0  0
  1  2  1  0
  2  3  1  0
  3  4  1  0
  4  5  1  0
  3  6  1  0
  6  7  1  0
  7  8  1  0
  8  9  1  0
  9 10  1  0
 10 11  2  0
 11 12  1  0
 12 13  2  0
 13 14  1  0
 14 15  2  0
 15 16  1  0
 16 17  3  0
 15 10  1  0
  1 18  1  0
  1 19  1  0
  1 20  1  0
  2 21  1  0
  2 22  1  0
  4 23  1  0
  4 24  1  0
  5 25  1  0
  5 26  1  0
  5 27  1  0
  6 28  1  0
  6 29  1  0
  7 30  1  0
  7 31  1  0
  9 32  1  0
  9 33  1  0
 11 34  1  0
 12 35  1  0
 13 36  1  0
 14 37  1  0
M  END
>  <UniqueID>  (20) 
20

>  <SMILES>  (20) 
CCN(CC)CCSCc1ccccc1C#N

>  <Energy>  (20) 
27.574285692661707

>  <Genealogy>  (20) 
CCN(CC)CCSCc1ccccc1C#N (3D coordinates assigned)
CCN(CC)CCSCc1ccccc1C#N (optimized conformer: 27.574285692661707 kcal/mol)

>  <smiles>  (20) 
CCN(CC)CCSCc1ccccc1C#N

>  <score_type>  (20) 
oracle

>  <origin>  (20) 
adg

>  <m_score__min__energy>  (20) 
-6.5499999999999998

>  <m_primary>  (20) 
energy

$$$$
20:0
     RDKit          3D

 46 45  0  0  0  0  0  0  0  0999 V2000
   -7.2201   19.8701  -33.7123 H   0  0  0  0  0  0  0  0  0  0  0  0
   -7.4100   20.1830  -32.6750 C   0  0  0  0  0  0  0  0  0  0  0  0
   -8.6600   20.0160  -32.1870 C   0  0  0  0  0  0  0  0  0  0  0  0
   -9.1140   18.6240  -31.8270 C   0  0  0  0  0  0  0  0  0  0  0  0
   -9.1476   18.5209  -30.7324 H   0  0  0  0  0  0  0  0  0  0  0  0
  -10.1167   18.4463  -32.2430 H   0  0  0  0  0  0  0  0  0  0  0  0
   -8.4089   17.8893  -32.2430 H   0  0  0  0  0  0  0  0  0  0  0  0
   -9.6210   21.1720  -32.0320 C   0  0  0  0  0  0  0  0  0  0  0  0
   -9.7862   21.3707  -30.9628 H   0  0  0  0  0  0  0  0  0  0  0  0
   -9.1975   22.0675  -32.5102 H   0  0  0  0  0  0  0  0  0  0  0  0
  -10.5788   20.9192  -32.5102 H   0  0  0  0  0  0  0  0  0  0  0  0
   -6.2560   20.7690  -31.8960 C   0  0  0  0  0  0  0  0  0  0  0  0
   -5.3817   20.1127  -32.0176 H   0  0  0  0  0  0  0  0  0  0  0  0
   -6.5715   20.8417  -30.8447 H   0  0  0  0  0  0  0  0  0  0  0  0
   -5.8750   22.1840  -32.3610 C   0  0  0  0  0  0  0  0  0  0  0  0
   -6.3343   22.3673  -33.3436 H   0  0  0  0  0  0  0  0  0  0  0  0
   -4.7772   22.2337  -32.4099 H   0  0  0  0  0  0  0  0  0  0  0  0
   -6.3420   23.2640  -31.3960 C   0  0  0  0  0  0  0  0  0  0  0  0
   -5.9330   24.5510  -31.4700 C   0  0  0  0  0  0  0  0  0  0  0  0
   -6.0783   25.0753  -32.4260 H   0  0  0  0  0  0  0  0  0  0  0  0
   -5.2940   25.3220  -30.3450 C   0  0  0  0  0  0  0  0  0  0  0  0
   -5.5880   24.8731  -29.3848 H   0  0  0  0  0  0  0  0  0  0  0  0
   -5.6315   26.3679  -30.3916 H   0  0  0  0  0  0  0  0  0  0  0  0
   -3.8820   25.2880  -30.4640 O   0  0  0  0  0  0  0  0  0  0  0  0
   -3.3820   23.9640  -30.4380 C   0  0  0  0  0  0  0  0  0  0  0  0
   -2.8290   23.7731  -31.3695 H   0  0  0  0  0  0  0  0  0  0  0  0
   -4.2349   23.2764  -30.3390 H   0  0  0  0  0  0  0  0  0  0  0  0
   -2.4410   23.7370  -29.2440 C   0  0  0  0  0  0  0  0  0  0  0  0
   -1.4587   23.4093  -29.6150 H   0  0  0  0  0  0  0  0  0  0  0  0
   -2.8767   22.9672  -28.5901 H   0  0  0  0  0  0  0  0  0  0  0  0
   -2.2760   24.9840  -28.4680 N   0  0  0  0  0  0  0  0  0  0  0  0
   -0.8710   25.4290  -28.4300 C   0  0  0  0  0  0  0  0  0  0  0  0
   -0.5471   25.5316  -27.3838 H   0  0  0  0  0  0  0  0  0  0  0  0
   -0.2376   24.6875  -28.9389 H   0  0  0  0  0  0  0  0  0  0  0  0
   -0.7800   26.3999  -28.9389 H   0  0  0  0  0  0  0  0  0  0  0  0
   -2.8720   24.8970  -27.1150 C   0  0  0  0  0  0  0  0  0  0  0  0
   -2.9766   25.9171  -26.7171 H   0  0  0  0  0  0  0  0  0  0  0  0
   -2.1977   24.2729  -26.5102 H   0  0  0  0  0  0  0  0  0  0  0  0
   -4.2510   24.2220  -27.0810 C   0  0  0  0  0  0  0  0  0  0  0  0
   -4.5596   24.0709  -26.0360 H   0  0  0  0  0  0  0  0  0  0  0  0
   -4.9854   24.8625  -27.5913 H   0  0  0  0  0  0  0  0  0  0  0  0
   -4.1957   23.2491  -27.5913 H   0  0  0  0  0  0  0  0  0  0  0  0
   -7.2560   22.8780  -30.2600 C   0  0  0  0  0  0  0  0  0  0  0  0
   -6.7586   23.0881  -29.3016 H   0  0  0  0  0  0  0  0  0  0  0  0
   -8.1874   23.4596  -30.3249 H   0  0  0  0  0  0  0  0  0  0  0  0
   -7.4886   21.8048  -30.3249 H   0  0  0  0  0  0  0  0  0  0  0  0
  1  2  1  0
  2  3  2  3
  3  4  1  0
  4  5  1  0
  4  6  1  0
  4  7  1  0
  3  8  1  0
  8  9  1  0
  8 10  1  0
  8 11  1  0
  2 12  1  0
 12 13  1  0
 12 14  1  0
 12 15  1  0
 15 16  1  0
 15 17  1  0
 15 18  1  0
 18 19  2  0
 19 20  1  0
 19 21  1  0
 21 22  1  0
 21 23  1  0
 21 24  1  0
 24 25  1  0
 25 26  1  0
 25 27  1  0
 25 28  1  0
 28 29  1  0
 28 30  1  0
 28 31  1  0
 31 32  1  0
 32 33  1  0
 32 34  1  0
 32 35  1  0
 31 36  1  0
 36 37  1  0
 36 38  1  0
 36 39  1  0
 39 40  1  0
 39 41  1  0
 39 42  1  0
 18 43  1  0
 43 44  1  0
 43 45  1  0
 43 46  1  0
M  END
>  <UniqueID>  (21) 
21

>  <SMILES>  (21) 
CCN(C)CCOC/C=C(/C)CCC=C(C)C

>  <Energy>  (21) 
33.38099595042791

>  <Genealogy>  (21) 
CCN(C)CCOC/C=C(/C)CCC=C(C)C (cis-trans isomerization)
CCN(C)CCOC/C=C(/C)CCC=C(C)C (3D coordinates assigned)
CCN(C)CCOC/C=C(/C)CCC=C(C)C (optimized conformer: 33.38099595042791 kcal/mol)

>  <smiles>  (21) 
CCN(C)CCOCC=C(C)CCC=C(C)C

>  <score_type>  (21) 
oracle

>  <origin>  (21) 
adg

>  <m_score__min__energy>  (21) 
-6.6900000000000004

>  <m_primary>  (21) 
energy

$$$$
21:0
     RDKit          3D

 55 58  0  0  0  0  0  0  0  0999 V2000
   -6.7400   23.4170  -32.3320 C   0  0  0  0  0  0  0  0  0  0  0  0
   -7.7250   22.8180  -31.3240 C   0  0  0  0  0  0  0  0  0  0  0  0
   -9.0580   22.6050  -31.9080 N   0  0  0  0  0  0  0  0  0  0  0  0
   -9.5070   21.2120  -31.7920 C   0  0  0  0  0  0  0  0  0  0  0  0
   -8.7920   20.3400  -32.8220 C   0  0  0  0  0  0  0  0  0  0  0  0
   -9.1970   18.9390  -32.6560 N   0  0  0  0  0  0  0  0  0  0  0  0
   -8.0680   18.1300  -32.1890 C   0  0  0  0  0  0  0  0  0  0  0  0
   -6.7700   18.8300  -32.4900 C   0  0  0  0  0  0  0  0  0  0  0  0
   -6.0650   18.5220  -33.6650 C   0  0  0  0  0  0  0  0  0  0  0  0
   -4.8580   19.1620  -33.9520 C   0  0  0  0  0  0  0  0  0  0  0  0
   -4.3330   20.1050  -33.0590 C   0  0  0  0  0  0  0  0  0  0  0  0
   -3.1200   20.7500  -33.3160 C   0  0  0  0  0  0  0  0  0  0  0  0
   -2.6150   21.6740  -32.3980 C   0  0  0  0  0  0  0  0  0  0  0  0
   -3.3330   21.9570  -31.2200 C   0  0  0  0  0  0  0  0  0  0  0  0
   -2.8200   22.9090  -30.1980 C   0  0  0  0  0  0  0  0  0  0  0  0
   -3.7240   23.6640  -29.4310 C   0  0  0  0  0  0  0  0  0  0  0  0
   -3.2660   24.5480  -28.4510 C   0  0  0  0  0  0  0  0  0  0  0  0
   -1.8910   24.7020  -28.2150 C   0  0  0  0  0  0  0  0  0  0  0  0
   -1.4040   25.6260  -27.1600 C   0  0  0  0  0  0  0  0  0  0  0  0
   -1.8890   25.5340  -25.8450 C   0  0  0  0  0  0  0  0  0  0  0  0
   -1.4280   26.4110  -24.8630 C   0  0  0  0  0  0  0  0  0  0  0  0
   -0.4790   27.3760  -25.1990 C   0  0  0  0  0  0  0  0  0  0  0  0
   -0.0130   27.4550  -26.4710 N   0  0  0  0  0  0  0  0  0  0  0  0
   -0.4490   26.6160  -27.4490 C   0  0  0  0  0  0  0  0  0  0  0  0
   -0.9840   23.9630  -28.9930 C   0  0  0  0  0  0  0  0  0  0  0  0
   -1.4410   23.0810  -29.9750 C   0  0  0  0  0  0  0  0  0  0  0  0
   -4.5120   21.3100  -30.9960 N   0  0  0  0  0  0  0  0  0  0  0  0
   -5.0280   20.4090  -31.8710 C   0  0  0  0  0  0  0  0  0  0  0  0
   -6.2430   19.7750  -31.5930 C   0  0  0  0  0  0  0  0  0  0  0  0
   -5.9209   23.9151  -31.7926 H   0  0  0  0  0  0  0  0  0  0  0  0
   -6.3291   22.6157  -32.9637 H   0  0  0  0  0  0  0  0  0  0  0  0
   -7.2625   24.1505  -32.9637 H   0  0  0  0  0  0  0  0  0  0  0  0
   -7.3320   21.8511  -30.9766 H   0  0  0  0  0  0  0  0  0  0  0  0
   -7.8310   23.5298  -30.4921 H   0  0  0  0  0  0  0  0  0  0  0  0
   -9.7550   23.2310  -31.4350 H   0  0  0  0  0  0  0  0  0  0  0  0
   -9.2810   20.8403  -30.7817 H   0  0  0  0  0  0  0  0  0  0  0  0
  -10.5908   21.1678  -31.9747 H   0  0  0  0  0  0  0  0  0  0  0  0
   -9.0572   20.6791  -33.8343 H   0  0  0  0  0  0  0  0  0  0  0  0
   -7.7050   20.4231  -32.6755 H   0  0  0  0  0  0  0  0  0  0  0  0
   -9.4870   18.5740  -33.5960 H   0  0  0  0  0  0  0  0  0  0  0  0
   -8.1551   17.9763  -31.1033 H   0  0  0  0  0  0  0  0  0  0  0  0
   -8.0821   17.1597  -32.7069 H   0  0  0  0  0  0  0  0  0  0  0  0
   -6.4661   17.7724  -34.3630 H   0  0  0  0  0  0  0  0  0  0  0  0
   -4.3183   18.9254  -34.8809 H   0  0  0  0  0  0  0  0  0  0  0  0
   -2.5640   20.5305  -34.2394 H   0  0  0  0  0  0  0  0  0  0  0  0
   -1.6582   22.1797  -32.5949 H   0  0  0  0  0  0  0  0  0  0  0  0
   -4.8050   23.5575  -29.6044 H   0  0  0  0  0  0  0  0  0  0  0  0
   -3.9892   25.1284  -27.8592 H   0  0  0  0  0  0  0  0  0  0  0  0
   -2.6351   24.7675  -25.5886 H   0  0  0  0  0  0  0  0  0  0  0  0
   -1.8094   26.3420  -23.8335 H   0  0  0  0  0  0  0  0  0  0  0  0
   -0.1082   28.0730  -24.4330 H   0  0  0  0  0  0  0  0  0  0  0  0
   -0.0525   26.7128  -28.4705 H   0  0  0  0  0  0  0  0  0  0  0  0
    0.0971   24.0802  -28.8271 H   0  0  0  0  0  0  0  0  0  0  0  0
   -0.7165   22.5157  -30.5796 H   0  0  0  0  0  0  0  0  0  0  0  0
   -6.7883   20.0168  -30.6688 H   0  0  0  0  0  0  0  0  0  0  0  0
  1  2  1  0
  2  3  1  0
  3  4  1  0
  4  5  1  0
  5  6  1  0
  6  7  1  0
  7  8  1  0
  8  9  2  0
  9 10  1  0
 10 11  2  0
 11 12  1  0
 12 13  2  0
 13 14  1  0
 14 15  1  0
 15 16  2  0
 16 17  1  0
 17 18  2  0
 18 19  1  0
 19 20  2  0
 20 21  1  0
 21 22  2  0
 22 23  1  0
 23 24  2  0
 18 25  1  0
 25 26  2  0
 14 27  2  0
 27 28  1  0
 28 29  2  0
 29  8  1  0
 28 11  1  0
 26 15  1  0
 24 19  1  0
  1 30  1  0
  1 31  1  0
  1 32  1  0
  2 33  1  0
  2 34  1  0
  3 35  1  0
  4 36  1  0
  4 37  1  0
  5 38  1  0
  5 39  1  0
  6 40  1  0
  7 41  1  0
  7 42  1  0
  9 43  1  0
 10 44  1  0
 12 45  1  0
 13 46  1  0
 16 47  1  0
 17 48  1  0
 20 49  1  0
 21 50  1  0
 22 51  1  0
 24 52  1  0
 25 53  1  0
 26 54  1  0
 29 55  1  0
M  END
>  <UniqueID>  (22) 
22

>  <SMILES>  (22) 
CCNCCNCc1ccc2ccc(-c3ccc(-c4cccnc4)cc3)nc2c1

>  <Energy>  (22) 
67.98111597201815

>  <Genealogy>  (22) 
CCNCCNCc1ccc2ccc(-c3ccc(-c4cccnc4)cc3)nc2c1 (3D coordinates assigned)
CCNCCNCc1ccc2ccc(-c3ccc(-c4cccnc4)cc3)nc2c1 (optimized conformer: 67.98111597201815 kcal/mol)

>  <smiles>  (22) 
CCNCCNCc1ccc2ccc(-c3ccc(-c4cccnc4)cc3)nc2c1

>  <score_type>  (22) 
oracle

>  <origin>  (22) 
adg

>  <m_score__min__energy>  (22) 
-8.8200000000000003

>  <m_primary>  (22) 
energy

$$$$
22:0
     RDKit          3D

 30 31  0  0  0  0  0  0  0  0999 V2000
   -3.4800   23.5250  -28.5070 C   0  0  0  0  0  0  0  0  0  0  0  0
   -2.7230   24.1790  -29.6580 C   0  0  0  0  0  0  0  0  0  0  0  0
   -3.6020   24.9690  -30.4530 O   0  0  0  0  0  0  0  0  0  0  0  0
   -4.9250   24.5990  -30.7010 C   0  0  0  0  0  0  0  0  0  0  0  0
   -5.5630   23.7080  -31.5460 C   0  0  0  0  0  0  0  0  0  0  0  0
   -5.1250   22.8090  -32.5220 O   0  0  0  0  0  0  0  0  0  0  0  0
   -5.6440   21.5180  -32.6700 C   0  0  0  0  0  0  0  0  0  0  0  0
   -7.0030   21.3130  -32.4060 C   0  0  0  0  0  0  0  0  0  0  0  0
   -7.5640   20.0390  -32.5290 C   0  0  0  0  0  0  0  0  0  0  0  0
   -6.7710   18.9640  -32.9300 C   0  0  0  0  0  0  0  0  0  0  0  0
   -5.4190   19.1590  -33.2240 C   0  0  0  0  0  0  0  0  0  0  0  0
   -4.8440   20.4420  -33.1120 C   0  0  0  0  0  0  0  0  0  0  0  0
   -3.5050   20.6850  -33.4550 O   0  0  0  0  0  0  0  0  0  0  0  0
   -2.5070   21.1350  -32.5450 C   0  0  0  0  0  0  0  0  0  0  0  0
   -6.7860   24.1070  -31.0360 C   0  0  0  0  0  0  0  0  0  0  0  0
   -7.9870   23.8030  -31.2570 O   0  0  0  0  0  0  0  0  0  0  0  0
   -6.1450   24.9820  -30.1830 C   0  0  0  0  0  0  0  0  0  0  0  0
   -6.5200   25.7980  -29.3020 O   0  0  0  0  0  0  0  0  0  0  0  0
   -3.0697   23.8795  -27.5499 H   0  0  0  0  0  0  0  0  0  0  0  0
   -4.5453   23.7915  -28.5704 H   0  0  0  0  0  0  0  0  0  0  0  0
   -3.3710   22.4323  -28.5704 H   0  0  0  0  0  0  0  0  0  0  0  0
   -1.9294   24.8218  -29.2494 H   0  0  0  0  0  0  0  0  0  0  0  0
   -2.2875   23.3902  -30.2890 H   0  0  0  0  0  0  0  0  0  0  0  0
   -7.6339   22.1604  -32.0996 H   0  0  0  0  0  0  0  0  0  0  0  0
   -8.6307   19.8841  -32.3096 H   0  0  0  0  0  0  0  0  0  0  0  0
   -7.2113   17.9596  -33.0151 H   0  0  0  0  0  0  0  0  0  0  0  0
   -4.8002   18.3079  -33.5443 H   0  0  0  0  0  0  0  0  0  0  0  0
   -2.8543   20.9784  -31.5131 H   0  0  0  0  0  0  0  0  0  0  0  0
   -1.5786   20.5684  -32.7094 H   0  0  0  0  0  0  0  0  0  0  0  0
   -2.3170   22.2059  -32.7094 H   0  0  0  0  0  0  0  0  0  0  0  0
  1  2  1  0
  2  3  1  0
  3  4  1  0
  4  5  2  0
  5  6  1  0
  6  7  1  0
  7  8  2  0
  8  9  1  0
  9 10  2  0
 10 11  1  0
 11 12  2  0
 12 13  1  0
 13 14  1  0
  5 15  1  0
 15 16  2  0
 15 17  1  0
 17 18  2  0
 17  4  1  0
 12  7  1  0
  1 19  1  0
  1 20  1  0
  1 21  1  0
  2 22  1  0
  2 23  1  0
  8 24  1  0
  9 25  1  0
 10 26  1  0
 11 27  1  0
 14 28  1  0
 14 29  1  0
 14 30  1  0
M  END
>  <UniqueID>  (23) 
23

>  <SMILES>  (23) 
CCOc1c(Oc2ccccc2OC)c(=O)c1=O

>  <Energy>  (23) 
21.685807221631386

>  <Genealogy>  (23) 
CCOc1c(Oc2ccccc2OC)c(=O)c1=O (3D coordinates assigned)
CCOc1c(Oc2ccccc2OC)c(=O)c1=O (optimized conformer: 21.685807221631386 kcal/mol)

>  <smiles>  (23) 
CCOc1c(Oc2ccccc2OC)c(=O)c1=O

>  <score_type>  (23) 
oracle

>  <origin>  (23) 
adg

>  <m_score__min__energy>  (23) 
-6.1399999999999997

>  <m_primary>  (23) 
energy

$$$$
23:0
     RDKit          3D

 62 65  0  0  0  0  0  0  0  0999 V2000
   -2.7490   19.0760  -26.5710 C   0  0  0  0  0  0  0  0  0  0  0  0
   -1.3620   19.6810  -26.7990 C   0  0  0  0  0  0  0  0  0  0  0  0
   -1.4260   20.8520  -27.7130 N   0  0  0  0  0  0  0  0  0  0  0  0
   -2.1820   20.5650  -28.9570 C   0  0  0  0  0  0  0  0  0  0  0  0
   -1.2850   20.5790  -30.1920 C   0  0  0  0  0  0  0  0  0  0  0  0
   -2.0070   22.0290  -27.0140 C   0  0  0  0  0  0  0  0  0  0  0  0
   -1.6220   23.3260  -27.7350 C   0  0  0  0  0  0  0  0  0  0  0  0
   -2.7960   24.0450  -28.1210 O   0  0  0  0  0  0  0  0  0  0  0  0
   -3.6140   23.6750  -29.1950 C   0  0  0  0  0  0  0  0  0  0  0  0
   -3.0910   23.5070  -30.4960 C   0  0  0  0  0  0  0  0  0  0  0  0
   -3.9090   23.0480  -31.5380 C   0  0  0  0  0  0  0  0  0  0  0  0
   -5.2510   22.7710  -31.2610 C   0  0  0  0  0  0  0  0  0  0  0  0
   -5.7790   22.9990  -30.0090 C   0  0  0  0  0  0  0  0  0  0  0  0
   -4.9820   23.4570  -28.9600 C   0  0  0  0  0  0  0  0  0  0  0  0
   -7.2250   22.6730  -29.9740 C   0  0  0  0  0  0  0  0  0  0  0  0
   -7.4800   22.1810  -31.3280 N   0  0  0  0  0  0  0  0  0  0  0  0
   -8.5790   21.3230  -31.6490 C   0  0  0  0  0  0  0  0  0  0  0  0
   -9.6480   21.3700  -30.9810 O   0  0  0  0  0  0  0  0  0  0  0  0
   -8.4340   20.3650  -32.7910 C   0  0  0  0  0  0  0  0  0  0  0  0
   -7.0420   19.8970  -32.8800 N   0  0  0  0  0  0  0  0  0  0  0  0
   -6.7660   18.4590  -33.0840 C   0  0  0  0  0  0  0  0  0  0  0  0
   -6.1440   18.1890  -34.4800 C   0  0  0  0  0  0  0  0  0  0  0  0
   -5.2090   16.9660  -34.4980 C   0  0  0  0  0  0  0  0  0  0  0  0
   -5.6960   15.8740  -33.5390 C   0  0  0  0  0  0  0  0  0  0  0  0
   -5.7320   16.3600  -32.0730 C   0  0  0  0  0  0  0  0  0  0  0  0
   -5.9030   17.8860  -31.9390 C   0  0  0  0  0  0  0  0  0  0  0  0
   -5.9740   20.8680  -32.7240 C   0  0  0  0  0  0  0  0  0  0  0  0
   -4.7920   20.5840  -33.0540 O   0  0  0  0  0  0  0  0  0  0  0  0
   -6.2940   22.2450  -32.1870 C   0  0  2  0  0  0  0  0  0  0  0  0
   -2.9397   18.9928  -25.4909 H   0  0  0  0  0  0  0  0  0  0  0  0
   -3.5112   19.7234  -27.0291 H   0  0  0  0  0  0  0  0  0  0  0  0
   -2.7931   18.0769  -27.0291 H   0  0  0  0  0  0  0  0  0  0  0  0
   -0.9486   20.0036  -25.8320 H   0  0  0  0  0  0  0  0  0  0  0  0
   -0.7213   18.9153  -27.2607 H   0  0  0  0  0  0  0  0  0  0  0  0
   -2.6471   19.5721  -28.8680 H   0  0  0  0  0  0  0  0  0  0  0  0
   -2.9403   21.3521  -29.0810 H   0  0  0  0  0  0  0  0  0  0  0  0
   -0.2306   20.5955  -29.8791 H   0  0  0  0  0  0  0  0  0  0  0  0
   -1.4750   19.6778  -30.7934 H   0  0  0  0  0  0  0  0  0  0  0  0
   -1.5030   21.4739  -30.7934 H   0  0  0  0  0  0  0  0  0  0  0  0
   -3.1029   21.9356  -26.9976 H   0  0  0  0  0  0  0  0  0  0  0  0
   -1.6137   22.0627  -25.9872 H   0  0  0  0  0  0  0  0  0  0  0  0
   -1.0187   23.9512  -27.0603 H   0  0  0  0  0  0  0  0  0  0  0  0
   -1.0421   23.0767  -28.6358 H   0  0  0  0  0  0  0  0  0  0  0  0
   -2.0338   23.7380  -30.6933 H   0  0  0  0  0  0  0  0  0  0  0  0
   -3.5038   22.9089  -32.5511 H   0  0  0  0  0  0  0  0  0  0  0  0
   -5.4165   23.6441  -27.9669 H   0  0  0  0  0  0  0  0  0  0  0  0
   -7.4381   21.8971  -29.2240 H   0  0  0  0  0  0  0  0  0  0  0  0
   -7.8574   23.5289  -29.6957 H   0  0  0  0  0  0  0  0  0  0  0  0
   -9.0987   19.5033  -32.6306 H   0  0  0  0  0  0  0  0  0  0  0  0
   -8.7046   20.8749  -33.7273 H   0  0  0  0  0  0  0  0  0  0  0  0
   -7.7283   17.9267  -33.0591 H   0  0  0  0  0  0  0  0  0  0  0  0
   -6.9586   18.0176  -35.1990 H   0  0  0  0  0  0  0  0  0  0  0  0
   -5.5389   19.0685  -34.7453 H   0  0  0  0  0  0  0  0  0  0  0  0
   -5.1751   16.5567  -35.5185 H   0  0  0  0  0  0  0  0  0  0  0  0
   -4.2093   17.2904  -34.1734 H   0  0  0  0  0  0  0  0  0  0  0  0
   -6.7100   15.5679  -33.8359 H   0  0  0  0  0  0  0  0  0  0  0  0
   -4.9906   15.0321  -33.5989 H   0  0  0  0  0  0  0  0  0  0  0  0
   -6.5737   15.8685  -31.5631 H   0  0  0  0  0  0  0  0  0  0  0  0
   -4.7636   16.1004  -31.6205 H   0  0  0  0  0  0  0  0  0  0  0  0
   -6.3899   18.1085  -30.9781 H   0  0  0  0  0  0  0  0  0  0  0  0
   -4.9077   18.3516  -31.9894 H   0  0  0  0  0  0  0  0  0  0  0  0
   -6.4013   22.8762  -33.0815 H   0  0  0  0  0  0  0  0  0  0  0  0
  1  2  1  0
  2  3  1  0
  3  4  1  0
  4  5  1  0
  3  6  1  0
  6  7  1  0
  7  8  1  0
  8  9  1  0
  9 10  2  0
 10 11  1  0
 11 12  2  0
 12 13  1  0
 13 14  2  0
 13 15  1  0
 15 16  1  0
 16 17  1  0
 17 18  2  0
 17 19  1  0
 19 20  1  0
 20 21  1  0
 21 22  1  0
 22 23  1  0
 23 24  1  0
 24 25  1  0
 25 26  1  0
 20 27  1  0
 27 28  2  0
 27 29  1  0
 14  9  1  0
 29 16  1  0
 29 12  1  0
 26 21  1  0
  1 30  1  0
  1 31  1  0
  1 32  1  0
  2 33  1  0
  2 34  1  0
  4 35  1  0
  4 36  1  0
  5 37  1  0
  5 38  1  0
  5 39  1  0
  6 40  1  0
  6 41  1  0
  7 42  1  0
  7 43  1  0
 10 44  1  0
 11 45  1  0
 14 46  1  0
 15 47  1  0
 15 48  1  0
 19 49  1  0
 19 50  1  0
 21 51  1  0
 22 52  1  0
 22 53  1  0
 23 54  1  0
 23 55  1  0
 24 56  1  0
 24 57  1  0
 25 58  1  0
 25 59  1  0
 26 60  1  0
 26 61  1  0
 29 62  1  6
M  END
>  <UniqueID>  (24) 
24

>  <SMILES>  (24) 
CCN(CC)CCOc1ccc2c(c1)CN1C(=O)CN(C3CCCCC3)C(=O)[C@H]21

>  <Energy>  (24) 
80.0797227345039

>  <Genealogy>  (24) 
CCN(CC)CCOc1ccc2c(c1)CN1C(=O)CN(C3CCCCC3)C(=O)[C@H]21 (chirality)
CCN(CC)CCOc1ccc2c(c1)CN1C(=O)CN(C3CCCCC3)C(=O)[C@H]21 (3D coordinates assigned)
CCN(CC)CCOc1ccc2c(c1)CN1C(=O)CN(C3CCCCC3)C(=O)[C@H]21 (nonaromatic ring conformer: 80.0797227345039 kcal/mol)

>  <smiles>  (24) 
CCN(CC)CCOc1ccc2c(c1)CN1C(=O)CN(C3CCCCC3)C(=O)C21

>  <score_type>  (24) 
oracle

>  <origin>  (24) 
adg

>  <m_score__min__energy>  (24) 
-8.5299999999999994

>  <m_primary>  (24) 
energy

$$$$
24:0
     RDKit          3D

 44 46  0  0  0  0  0  0  0  0999 V2000
   -3.7100   18.6770  -34.1320 C   0  0  0  0  0  0  0  0  0  0  0  0
   -3.4070   19.4690  -32.8610 C   0  0  0  0  0  0  0  0  0  0  0  0
   -3.0250   20.9250  -33.1560 C   0  0  0  0  0  0  0  0  0  0  0  0
   -3.8250   21.8900  -32.3290 C   0  0  0  0  0  0  0  0  0  0  0  0
   -5.1060   22.2280  -32.5980 N   0  0  0  0  0  0  0  0  0  0  0  0
   -5.4390   23.1110  -31.6380 C   0  0  0  0  0  0  0  0  0  0  0  0
   -6.6900   23.7070  -31.4650 C   0  0  0  0  0  0  0  0  0  0  0  0
   -7.7290   23.4010  -32.3580 O   0  0  0  0  0  0  0  0  0  0  0  0
   -9.0500   22.9950  -31.9900 C   0  0  0  0  0  0  0  0  0  0  0  0
   -9.0190   21.7440  -31.1050 C   0  0  0  0  0  0  0  0  0  0  0  0
   -8.4180   20.5650  -31.8140 C   0  0  0  0  0  0  0  0  0  0  0  0
   -8.7480   19.2560  -31.4340 C   0  0  0  0  0  0  0  0  0  0  0  0
   -8.1180   18.1810  -32.0660 C   0  0  0  0  0  0  0  0  0  0  0  0
   -7.1710   18.4190  -33.0630 C   0  0  0  0  0  0  0  0  0  0  0  0
   -6.8680   19.7350  -33.4180 C   0  0  0  0  0  0  0  0  0  0  0  0
   -7.4890   20.7680  -32.7900 N   0  0  0  0  0  0  0  0  0  0  0  0
   -6.8350   24.5920  -30.3710 C   0  0  0  0  0  0  0  0  0  0  0  0
   -5.7610   24.8180  -29.4910 C   0  0  0  0  0  0  0  0  0  0  0  0
   -4.5380   24.1720  -29.7080 C   0  0  0  0  0  0  0  0  0  0  0  0
   -4.4270   23.3470  -30.7820 N   0  0  0  0  0  0  0  0  0  0  0  0
   -3.3910   22.5990  -31.2110 C   0  0  0  0  0  0  0  0  0  0  0  0
   -2.0660   22.4750  -30.5180 C   0  0  0  0  0  0  0  0  0  0  0  0
   -2.2630   21.3780  -28.9350 Br  0  0  0  0  0  0  0  0  0  0  0  0
   -4.0910   17.6812  -33.8614 H   0  0  0  0  0  0  0  0  0  0  0  0
   -4.4674   19.2107  -34.7248 H   0  0  0  0  0  0  0  0  0  0  0  0
   -2.7897   18.5689  -34.7248 H   0  0  0  0  0  0  0  0  0  0  0  0
   -4.3000   19.4613  -32.2187 H   0  0  0  0  0  0  0  0  0  0  0  0
   -2.5493   18.9913  -32.3648 H   0  0  0  0  0  0  0  0  0  0  0  0
   -1.9570   21.0651  -32.9329 H   0  0  0  0  0  0  0  0  0  0  0  0
   -3.2371   21.1260  -34.2165 H   0  0  0  0  0  0  0  0  0  0  0  0
   -5.7080   21.8670  -33.3720 H   0  0  0  0  0  0  0  0  0  0  0  0
   -9.5361   23.8130  -31.4381 H   0  0  0  0  0  0  0  0  0  0  0  0
   -9.6101   22.7592  -32.9069 H   0  0  0  0  0  0  0  0  0  0  0  0
   -8.4219   21.9598  -30.2067 H   0  0  0  0  0  0  0  0  0  0  0  0
  -10.0564   21.4888  -30.8430 H   0  0  0  0  0  0  0  0  0  0  0  0
   -9.4951   19.0775  -30.6466 H   0  0  0  0  0  0  0  0  0  0  0  0
   -8.3679   17.1491  -31.7783 H   0  0  0  0  0  0  0  0  0  0  0  0
   -6.6684   17.5785  -33.5640 H   0  0  0  0  0  0  0  0  0  0  0  0
   -6.1269   19.9356  -34.2057 H   0  0  0  0  0  0  0  0  0  0  0  0
   -7.7934   25.1066  -30.2074 H   0  0  0  0  0  0  0  0  0  0  0  0
   -5.8816   25.4994  -28.6360 H   0  0  0  0  0  0  0  0  0  0  0  0
   -3.6888   24.3283  -29.0266 H   0  0  0  0  0  0  0  0  0  0  0  0
   -1.3388   22.0085  -31.1988 H   0  0  0  0  0  0  0  0  0  0  0  0
   -1.7097   23.4746  -30.2284 H   0  0  0  0  0  0  0  0  0  0  0  0
  1  2  1  0
  2  3  1  0
  3  4  1  0
  4  5  1  0
  5  6  2  0
  6  7  1  0
  7  8  1  0
  8  9  1  0
  9 10  1  0
 10 11  1  0
 11 12  2  0
 12 13  1  0
 13 14  2  0
 14 15  1  0
 15 16  2  0
  7 17  2  0
 17 18  1  0
 18 19  2  0
 19 20  1  0
 20 21  1  0
 21 22  1  0
 22 23  1  0
 21  4  2  0
 20  6  1  0
 16 11  1  0
  1 24  1  0
  1 25  1  0
  1 26  1  0
  2 27  1  0
  2 28  1  0
  3 29  1  0
  3 30  1  0
  5 31  1  0
  9 32  1  0
  9 33  1  0
 10 34  1  0
 10 35  1  0
 12 36  1  0
 13 37  1  0
 14 38  1  0
 15 39  1  0
 17 40  1  0
 18 41  1  0
 19 42  1  0
 22 43  1  0
 22 44  1  0
M  CHG  1   5   1
M  END
>  <UniqueID>  (25) 
25

>  <SMILES>  (25) 
CCCc1[nH+]c2c(OCCc3ccccn3)cccn2c1CBr

>  <Energy>  (25) 
72.53122563023788

>  <Genealogy>  (25) 
CCCc1[nH+]c2c(OCCc3ccccn3)cccn2c1CBr (protonated)
CCCc1[nH+]c2c(OCCc3ccccn3)cccn2c1CBr (3D coordinates assigned)
CCCc1[nH+]c2c(OCCc3ccccn3)cccn2c1CBr (optimized conformer: 72.53122563023788 kcal/mol)

>  <smiles>  (25) 
CCCc1nc2c(OCCc3ccccn3)cccn2c1CBr

>  <score_type>  (25) 
oracle

>  <origin>  (25) 
adg

>  <m_score__min__energy>  (25) 
-7.0599999999999996

>  <m_primary>  (25) 
energy

$$$$
25:0
     RDKit          3D

 34 35  0  0  0  0  0  0  0  0999 V2000
   -9.0930   18.3110  -32.0100 C   0  0  0  0  0  0  0  0  0  0  0  0
   -8.7620   19.5730  -32.5770 O   0  0  0  0  0  0  0  0  0  0  0  0
   -8.1220   20.6180  -31.8900 C   0  0  0  0  0  0  0  0  0  0  0  0
   -8.7120   21.2260  -30.7710 C   0  0  0  0  0  0  0  0  0  0  0  0
   -8.0870   22.2960  -30.1390 C   0  0  0  0  0  0  0  0  0  0  0  0
   -6.8640   22.7870  -30.6080 C   0  0  0  0  0  0  0  0  0  0  0  0
   -6.2440   23.9530  -29.9370 C   0  0  0  0  0  0  0  0  0  0  0  0
   -6.9320   24.9950  -29.7580 O   0  0  0  0  0  0  0  0  0  0  0  0
   -4.8500   23.9250  -29.4480 C   0  0  0  0  0  0  0  0  0  0  0  0
   -4.3590   23.1330  -28.4210 C   0  0  0  0  0  0  0  0  0  0  0  0
   -3.0780   23.3800  -28.2370 O   0  0  0  0  0  0  0  0  0  0  0  0
   -2.7070   24.3080  -29.0870 C   0  0  0  0  0  0  0  0  0  0  0  0
   -1.4140   24.8170  -29.1660 O   0  0  0  0  0  0  0  0  0  0  0  0
   -3.7760   24.6890  -29.8630 C   0  0  0  0  0  0  0  0  0  0  0  0
   -3.7720   25.6750  -30.8430 O   0  0  0  0  0  0  0  0  0  0  0  0
   -6.2490   22.1910  -31.7300 C   0  0  0  0  0  0  0  0  0  0  0  0
   -5.0140   22.7260  -32.1490 O   0  0  0  0  0  0  0  0  0  0  0  0
   -3.8440   21.9980  -32.5030 C   0  0  0  0  0  0  0  0  0  0  0  0
   -6.8750   21.0800  -32.3570 C   0  0  0  0  0  0  0  0  0  0  0  0
   -6.2720   20.4610  -33.4580 O   0  0  0  0  0  0  0  0  0  0  0  0
   -5.9110   19.0820  -33.4680 C   0  0  0  0  0  0  0  0  0  0  0  0
   -9.0734   18.3856  -30.9127 H   0  0  0  0  0  0  0  0  0  0  0  0
  -10.0995   18.0137  -32.3394 H   0  0  0  0  0  0  0  0  0  0  0  0
   -8.3620   17.5579  -32.3394 H   0  0  0  0  0  0  0  0  0  0  0  0
   -9.6750   20.8539  -30.3913 H   0  0  0  0  0  0  0  0  0  0  0  0
   -8.5595   22.7609  -29.2612 H   0  0  0  0  0  0  0  0  0  0  0  0
   -4.9512   22.4064  -27.8454 H   0  0  0  0  0  0  0  0  0  0  0  0
   -0.8500   24.6820  -29.9960 H   0  0  0  0  0  0  0  0  0  0  0  0
   -3.3234   21.6741  -31.5898 H   0  0  0  0  0  0  0  0  0  0  0  0
   -4.1265   21.1160  -33.0965 H   0  0  0  0  0  0  0  0  0  0  0  0
   -3.1775   22.6411  -33.0965 H   0  0  0  0  0  0  0  0  0  0  0  0
   -5.8163   18.7203  -32.4335 H   0  0  0  0  0  0  0  0  0  0  0  0
   -6.6879   18.5034  -33.9891 H   0  0  0  0  0  0  0  0  0  0  0  0
   -4.9502   18.9583  -33.9891 H   0  0  0  0  0  0  0  0  0  0  0  0
  1  2  1  0
  2  3  1  0
  3  4  2  0
  4  5  1  0
  5  6  2  0
  6  7  1  0
  7  8  2  0
  7  9  1  0
  9 10  2  0
 10 11  1  0
 11 12  1  0
 12 13  1  0
 12 14  2  0
 14 15  1  0
  6 16  1  0
 16 17  1  0
 17 18  1  0
 16 19  2  0
 19 20  1  0
 20 21  1  0
 19  3  1  0
 14  9  1  0
  1 22  1  0
  1 23  1  0
  1 24  1  0
  4 25  1  0
  5 26  1  0
 10 27  1  0
 13 28  1  0
 18 29  1  0
 18 30  1  0
 18 31  1  0
 21 32  1  0
 21 33  1  0
 21 34  1  0
M  CHG  1  15  -1
M  END
>  <UniqueID>  (26) 
26

>  <SMILES>  (26) 
COc1ccc(C(=O)c2coc(O)c2[O-])c(OC)c1OC

>  <Energy>  (26) 
76.7556896414549

>  <Genealogy>  (26) 
COc1ccc(C(=O)c2coc(O)c2[O-])c(OC)c1OC (protonated)
COc1ccc(C(=O)c2coc(O)c2[O-])c(OC)c1OC (3D coordinates assigned)
COc1ccc(C(=O)c2coc(O)c2[O-])c(OC)c1OC (optimized conformer: 76.7556896414549 kcal/mol)

>  <smiles>  (26) 
COc1ccc(C(=O)c2coc(O)c2O)c(OC)c1OC

>  <score_type>  (26) 
oracle

>  <origin>  (26) 
adg

>  <m_score__min__energy>  (26) 
-8.9399999999999995

>  <m_primary>  (26) 
energy

$$$$
26:0
     RDKit          3D

 54 57  0  0  0  0  0  0  0  0999 V2000
   -4.5380   14.0030  -31.8200 C   0  0  0  0  0  0  0  0  0  0  0  0
   -3.8320   14.7220  -32.9640 C   0  0  0  0  0  0  0  0  0  0  0  0
   -4.4190   16.0470  -33.1730 N   0  0  0  0  0  0  0  0  0  0  0  0
   -5.6340   16.4410  -32.7480 C   0  0  0  0  0  0  0  0  0  0  0  0
   -5.8200   17.7620  -33.1200 C   0  0  0  0  0  0  0  0  0  0  0  0
   -6.9700   18.6250  -32.7520 C   0  0  0  0  0  0  0  0  0  0  0  0
   -6.9870   19.9880  -33.1090 C   0  0  0  0  0  0  0  0  0  0  0  0
   -8.0390   20.8130  -32.7020 C   0  0  0  0  0  0  0  0  0  0  0  0
   -9.0890   20.2910  -31.9460 C   0  0  0  0  0  0  0  0  0  0  0  0
   -9.0930   18.9390  -31.5980 C   0  0  0  0  0  0  0  0  0  0  0  0
   -8.0410   18.1090  -31.9970 C   0  0  0  0  0  0  0  0  0  0  0  0
   -4.7270   18.1730  -33.7960 N   0  0  0  0  0  0  0  0  0  0  0  0
   -3.8870   17.1180  -33.8090 C   0  0  0  0  0  0  0  0  0  0  0  0
   -2.5010   17.1830  -34.3970 C   0  0  0  0  0  0  0  0  0  0  0  0
   -2.0050   18.5680  -34.4430 N   0  0  0  0  0  0  0  0  0  0  0  0
   -1.4450   19.0170  -33.1560 C   0  0  0  0  0  0  0  0  0  0  0  0
   -2.2390   20.1770  -32.6130 C   0  0  0  0  0  0  0  0  0  0  0  0
   -2.2250   20.4740  -31.2420 C   0  0  0  0  0  0  0  0  0  0  0  0
   -3.0740   21.4570  -30.7250 C   0  0  0  0  0  0  0  0  0  0  0  0
   -3.9470   22.1650  -31.5710 C   0  0  0  0  0  0  0  0  0  0  0  0
   -4.9310   23.1280  -31.0120 C   0  0  0  0  0  0  0  0  0  0  0  0
   -4.5130   24.3760  -30.5140 C   0  0  0  0  0  0  0  0  0  0  0  0
   -5.4490   25.2960  -30.0310 C   0  0  0  0  0  0  0  0  0  0  0  0
   -6.8090   24.9820  -30.0400 C   0  0  0  0  0  0  0  0  0  0  0  0
   -7.2370   23.7460  -30.5260 C   0  0  0  0  0  0  0  0  0  0  0  0
   -6.3050   22.8210  -31.0090 C   0  0  0  0  0  0  0  0  0  0  0  0
   -3.9100   21.9050  -32.9530 C   0  0  0  0  0  0  0  0  0  0  0  0
   -3.0640   20.9210  -33.4680 C   0  0  0  0  0  0  0  0  0  0  0  0
   -4.1625   14.3854  -30.8594 H   0  0  0  0  0  0  0  0  0  0  0  0
   -5.6213   14.1817  -31.8876 H   0  0  0  0  0  0  0  0  0  0  0  0
   -4.3396   12.9232  -31.8876 H   0  0  0  0  0  0  0  0  0  0  0  0
   -2.7653   14.8325  -32.7193 H   0  0  0  0  0  0  0  0  0  0  0  0
   -3.9492   14.1304  -33.8839 H   0  0  0  0  0  0  0  0  0  0  0  0
   -6.3563   15.8194  -32.1986 H   0  0  0  0  0  0  0  0  0  0  0  0
   -6.1670   20.4053  -33.7119 H   0  0  0  0  0  0  0  0  0  0  0  0
   -8.0392   21.8776  -32.9787 H   0  0  0  0  0  0  0  0  0  0  0  0
   -9.9133   20.9444  -31.6243 H   0  0  0  0  0  0  0  0  0  0  0  0
   -9.9252   18.5261  -31.0089 H   0  0  0  0  0  0  0  0  0  0  0  0
   -8.0499   17.0447  -31.7191 H   0  0  0  0  0  0  0  0  0  0  0  0
   -4.5400   19.1160  -34.2030 H   0  0  0  0  0  0  0  0  0  0  0  0
   -1.8206   16.5789  -33.7788 H   0  0  0  0  0  0  0  0  0  0  0  0
   -2.5410   16.7938  -35.4251 H   0  0  0  0  0  0  0  0  0  0  0  0
   -1.2310   18.5930  -35.1460 H   0  0  0  0  0  0  0  0  0  0  0  0
   -1.4793   18.1859  -32.4362 H   0  0  0  0  0  0  0  0  0  0  0  0
   -0.4049   19.3391  -33.3127 H   0  0  0  0  0  0  0  0  0  0  0  0
   -1.5431   19.9311  -30.5710 H   0  0  0  0  0  0  0  0  0  0  0  0
   -3.0593   21.6787  -29.6477 H   0  0  0  0  0  0  0  0  0  0  0  0
   -3.4427   24.6297  -30.5046 H   0  0  0  0  0  0  0  0  0  0  0  0
   -5.1128   26.2689  -29.6433 H   0  0  0  0  0  0  0  0  0  0  0  0
   -7.5437   25.7092  -29.6638 H   0  0  0  0  0  0  0  0  0  0  0  0
   -8.3088   23.4985  -30.5294 H   0  0  0  0  0  0  0  0  0  0  0  0
   -6.6481   21.8474  -31.3889 H   0  0  0  0  0  0  0  0  0  0  0  0
   -4.5532   22.4820  -33.6338 H   0  0  0  0  0  0  0  0  0  0  0  0
   -3.0447   20.7284  -34.5508 H   0  0  0  0  0  0  0  0  0  0  0  0
  1  2  1  0
  2  3  1  0
  3  4  1  0
  4  5  2  0
  5  6  1  0
  6  7  2  0
  7  8  1  0
  8  9  2  0
  9 10  1  0
 10 11  2  0
  5 12  1  0
 12 13  2  0
 13 14  1  0
 14 15  1  0
 15 16  1  0
 16 17  1  0
 17 18  2  0
 18 19  1  0
 19 20  2  0
 20 21  1  0
 21 22  2  0
 22 23  1  0
 23 24  2  0
 24 25  1  0
 25 26  2  0
 20 27  1  0
 27 28  2  0
 13  3  1  0
 28 17  1  0
 11  6  1  0
 26 21  1  0
  1 29  1  0
  1 30  1  0
  1 31  1  0
  2 32  1  0
  2 33  1  0
  4 34  1  0
  7 35  1  0
  8 36  1  0
  9 37  1  0
 10 38  1  0
 11 39  1  0
 12 40  1  0
 14 41  1  0
 14 42  1  0
 15 43  1  0
 16 44  1  0
 16 45  1  0
 18 46  1  0
 19 47  1  0
 22 48  1  0
 23 49  1  0
 24 50  1  0
 25 51  1  0
 26 52  1  0
 27 53  1  0
 28 54  1  0
M  CHG  1  12   1
M  END
>  <UniqueID>  (27) 
27

>  <SMILES>  (27) 
CCn1cc(-c2ccccc2)[nH+]c1CNCc1ccc(-c2ccccc2)cc1

>  <Energy>  (27) 
84.05168492631412

>  <Genealogy>  (27) 
CCn1cc(-c2ccccc2)[nH+]c1CNCc1ccc(-c2ccccc2)cc1 (protonated)
CCn1cc(-c2ccccc2)[nH+]c1CNCc1ccc(-c2ccccc2)cc1 (3D coordinates assigned)
CCn1cc(-c2ccccc2)[nH+]c1CNCc1ccc(-c2ccccc2)cc1 (optimized conformer: 84.05168492631412 kcal/mol)

>  <smiles>  (27) 
CCn1cc(-c2ccccc2)nc1CNCc1ccc(-c2ccccc2)cc1

>  <score_type>  (27) 
oracle

>  <origin>  (27) 
adg

>  <m_score__min__energy>  (27) 
-9.5099999999999998

>  <m_primary>  (27) 
energy

$$$$
27:0
     RDKit          3D

 35 37  0  0  0  0  0  0  0  0999 V2000
   -6.0970   18.9980  -33.9140 C   0  0  0  0  0  0  0  0  0  0  0  0
   -5.9460   20.4110  -33.8410 O   0  0  0  0  0  0  0  0  0  0  0  0
   -5.8170   21.1380  -32.6460 C   0  0  0  0  0  0  0  0  0  0  0  0
   -4.5610   21.4090  -32.0690 C   0  0  0  0  0  0  0  0  0  0  0  0
   -4.4760   22.1350  -30.8790 C   0  0  0  0  0  0  0  0  0  0  0  0
   -3.2670   22.3950  -30.3190 N   0  0  0  0  0  0  0  0  0  0  0  0
   -3.1500   23.0970  -29.1600 C   0  0  0  0  0  0  0  0  0  0  0  0
   -1.8010   23.3330  -28.6040 C   0  0  0  0  0  0  0  0  0  0  0  0
   -1.0860   22.2800  -28.0060 C   0  0  0  0  0  0  0  0  0  0  0  0
    0.2020   22.4940  -27.5070 C   0  0  0  0  0  0  0  0  0  0  0  0
    0.7930   23.7540  -27.6120 C   0  0  0  0  0  0  0  0  0  0  0  0
    0.0990   24.8050  -28.2190 C   0  0  0  0  0  0  0  0  0  0  0  0
   -1.1920   24.6000  -28.7190 C   0  0  0  0  0  0  0  0  0  0  0  0
   -1.8670   25.6590  -29.3150 O   0  0  0  0  0  0  0  0  0  0  0  0
   -4.3200   23.5780  -28.5330 C   0  0  0  0  0  0  0  0  0  0  0  0
   -4.2530   24.5760  -27.0830 Cl  0  0  0  0  0  0  0  0  0  0  0  0
   -5.5350   23.3150  -29.0930 N   0  0  0  0  0  0  0  0  0  0  0  0
   -5.6420   22.6020  -30.2490 C   0  0  0  0  0  0  0  0  0  0  0  0
   -6.8940   22.3360  -30.8210 C   0  0  0  0  0  0  0  0  0  0  0  0
   -6.9860   21.6020  -32.0210 C   0  0  0  0  0  0  0  0  0  0  0  0
   -8.2220   21.3160  -32.6230 O   0  0  0  0  0  0  0  0  0  0  0  0
   -9.0230   20.1770  -32.3230 C   0  0  0  0  0  0  0  0  0  0  0  0
   -6.1416   18.5810  -32.8971 H   0  0  0  0  0  0  0  0  0  0  0  0
   -7.0261   18.7558  -34.4507 H   0  0  0  0  0  0  0  0  0  0  0  0
   -5.2400   18.5649  -34.4507 H   0  0  0  0  0  0  0  0  0  0  0  0
   -3.6440   21.0476  -32.5573 H   0  0  0  0  0  0  0  0  0  0  0  0
   -1.5429   21.2823  -27.9305 H   0  0  0  0  0  0  0  0  0  0  0  0
    0.7507   21.6681  -27.0308 H   0  0  0  0  0  0  0  0  0  0  0  0
    1.8060   23.9203  -27.2167 H   0  0  0  0  0  0  0  0  0  0  0  0
    0.5690   25.7959  -28.3038 H   0  0  0  0  0  0  0  0  0  0  0  0
   -6.3950   23.6800  -28.6230 H   0  0  0  0  0  0  0  0  0  0  0  0
   -7.8086   22.7017  -30.3313 H   0  0  0  0  0  0  0  0  0  0  0  0
   -9.1035   20.0625  -31.2319 H   0  0  0  0  0  0  0  0  0  0  0  0
  -10.0267   20.3111  -32.7527 H   0  0  0  0  0  0  0  0  0  0  0  0
   -8.5574   19.2778  -32.7527 H   0  0  0  0  0  0  0  0  0  0  0  0
  1  2  1  0
  2  3  1  0
  3  4  2  0
  4  5  1  0
  5  6  2  0
  6  7  1  0
  7  8  1  0
  8  9  2  0
  9 10  1  0
 10 11  2  0
 11 12  1  0
 12 13  2  0
 13 14  1  0
  7 15  2  0
 15 16  1  0
 15 17  1  0
 17 18  2  0
 18 19  1  0
 19 20  2  0
 20 21  1  0
 21 22  1  0
 20  3  1  0
 18  5  1  0
 13  8  1  0
  1 23  1  0
  1 24  1  0
  1 25  1  0
  4 26  1  0
  9 27  1  0
 10 28  1  0
 11 29  1  0
 12 30  1  0
 17 31  1  0
 19 32  1  0
 22 33  1  0
 22 34  1  0
 22 35  1  0
M  CHG  2  14  -1  17   1
M  END
>  <UniqueID>  (28) 
28

>  <SMILES>  (28) 
COc1cc2nc(-c3ccccc3[O-])c(Cl)[nH+]c2cc1OC

>  <Energy>  (28) 
48.07240292921424

>  <Genealogy>  (28) 
COc1cc2nc(-c3ccccc3[O-])c(Cl)[nH+]c2cc1OC (protonated)
COc1cc2nc(-c3ccccc3[O-])c(Cl)[nH+]c2cc1OC (3D coordinates assigned)
COc1cc2nc(-c3ccccc3[O-])c(Cl)[nH+]c2cc1OC (optimized conformer: 48.07240292921424 kcal/mol)

>  <smiles>  (28) 
COc1cc2nc(Cl)c(-c3ccccc3O)nc2cc1OC

>  <score_type>  (28) 
oracle

>  <origin>  (28) 
adg

>  <m_score__min__energy>  (28) 
-8.6799999999999997

>  <m_primary>  (28) 
energy

$$$$
28:0
     RDKit          3D

 39 41  0  0  0  0  0  0  0  0999 V2000
   -3.7940   15.3580  -34.6630 C   0  0  0  0  0  0  0  0  0  0  0  0
   -4.5680   16.4680  -34.0530 N   0  0  0  0  0  0  0  0  0  0  0  0
   -3.9690   16.7570  -32.7230 C   0  0  0  0  0  0  0  0  0  0  0  0
   -4.4680   17.6790  -34.9360 C   0  0  0  0  0  0  0  0  0  0  0  0
   -5.7410   18.5520  -34.9680 C   0  0  0  0  0  0  0  0  0  0  0  0
   -6.4930   18.4340  -33.7170 N   0  0  0  0  0  0  0  0  0  0  0  0
   -7.0060   19.5940  -33.0350 C   0  0  0  0  0  0  0  0  0  0  0  0
   -6.2570   20.6100  -32.5510 N   0  0  0  0  0  0  0  0  0  0  0  0
   -7.0160   21.5490  -31.8930 C   0  0  0  0  0  0  0  0  0  0  0  0
   -6.4250   22.7580  -31.2680 C   0  0  0  0  0  0  0  0  0  0  0  0
   -7.2380   23.7870  -30.7560 C   0  0  0  0  0  0  0  0  0  0  0  0
   -6.6630   24.9180  -30.1670 C   0  0  0  0  0  0  0  0  0  0  0  0
   -5.2750   25.0330  -30.0770 C   0  0  0  0  0  0  0  0  0  0  0  0
   -4.4580   24.0150  -30.5720 C   0  0  0  0  0  0  0  0  0  0  0  0
   -5.0270   22.8810  -31.1610 C   0  0  0  0  0  0  0  0  0  0  0  0
   -8.3570   21.3040  -31.8170 N   0  0  0  0  0  0  0  0  0  0  0  0
   -8.5910   19.8640  -32.6110 S   0  0  0  0  0  0  0  0  0  0  0  0
   -6.8710   17.0960  -33.2530 C   0  0  0  0  0  0  0  0  0  0  0  0
   -5.9810   16.0180  -33.8980 C   0  0  0  0  0  0  0  0  0  0  0  0
   -3.3590   14.7342  -33.8682 H   0  0  0  0  0  0  0  0  0  0  0  0
   -4.4614   14.7449  -35.2864 H   0  0  0  0  0  0  0  0  0  0  0  0
   -2.9880   15.7723  -35.2864 H   0  0  0  0  0  0  0  0  0  0  0  0
   -4.6567   16.4252  -31.9312 H   0  0  0  0  0  0  0  0  0  0  0  0
   -3.0133   16.2209  -32.6270 H   0  0  0  0  0  0  0  0  0  0  0  0
   -3.7939   17.8387  -32.6270 H   0  0  0  0  0  0  0  0  0  0  0  0
   -3.6343   18.2996  -34.5757 H   0  0  0  0  0  0  0  0  0  0  0  0
   -4.3155   17.3087  -35.9605 H   0  0  0  0  0  0  0  0  0  0  0  0
   -5.4522   19.6031  -35.1157 H   0  0  0  0  0  0  0  0  0  0  0  0
   -6.3805   18.2069  -35.7938 H   0  0  0  0  0  0  0  0  0  0  0  0
   -5.2160   20.6390  -32.6090 H   0  0  0  0  0  0  0  0  0  0  0  0
   -8.3328   23.7010  -30.8196 H   0  0  0  0  0  0  0  0  0  0  0  0
   -7.3065   25.7188  -29.7737 H   0  0  0  0  0  0  0  0  0  0  0  0
   -4.8252   25.9250  -29.6165 H   0  0  0  0  0  0  0  0  0  0  0  0
   -3.3641   24.1048  -30.4987 H   0  0  0  0  0  0  0  0  0  0  0  0
   -4.3774   22.0798  -31.5432 H   0  0  0  0  0  0  0  0  0  0  0  0
   -6.7584   17.0490  -32.1598 H   0  0  0  0  0  0  0  0  0  0  0  0
   -7.9158   16.9069  -33.5406 H   0  0  0  0  0  0  0  0  0  0  0  0
   -5.9983   15.1193  -33.2639 H   0  0  0  0  0  0  0  0  0  0  0  0
   -6.3795   15.8096  -34.9019 H   0  0  0  0  0  0  0  0  0  0  0  0
  1  2  1  0
  2  3  1  0
  2  4  1  0
  4  5  1  0
  5  6  1  0
  6  7  1  0
  7  8  2  0
  8  9  1  0
  9 10  1  0
 10 11  2  0
 11 12  1  0
 12 13  2  0
 13 14  1  0
 14 15  2  0
  9 16  2  0
 16 17  1  0
  6 18  1  0
 18 19  1  0
 19  2  1  0
 17  7  1  0
 15 10  1  0
  1 20  1  0
  1 21  1  0
  1 22  1  0
  3 23  1  0
  3 24  1  0
  3 25  1  0
  4 26  1  0
  4 27  1  0
  5 28  1  0
  5 29  1  0
  8 30  1  0
 11 31  1  0
 12 32  1  0
 13 33  1  0
 14 34  1  0
 15 35  1  0
 18 36  1  0
 18 37  1  0
 19 38  1  0
 19 39  1  0
M  CHG  2   2   1   8   1
M  END
>  <UniqueID>  (29) 
29

>  <SMILES>  (29) 
C[N+]1(C)CCN(c2[nH+]c(-c3ccccc3)ns2)CC1

>  <Energy>  (29) 
93.15194419514881

>  <Genealogy>  (29) 
C[N+]1(C)CCN(c2[nH+]c(-c3ccccc3)ns2)CC1 (protonated)
C[N+]1(C)CCN(c2[nH+]c(-c3ccccc3)ns2)CC1 (3D coordinates assigned)
C[N+]1(C)CCN(c2[nH+]c(-c3ccccc3)ns2)CC1 (nonaromatic ring conformer: 93.15194419514881 kcal/mol)

>  <smiles>  (29) 
C[N+]1(C)CCN(c2nc(-c3ccccc3)ns2)CC1

>  <score_type>  (29) 
oracle

>  <origin>  (29) 
adg

>  <m_score__min__energy>  (29) 
-6.0199999999999996

>  <m_primary>  (29) 
energy

$$$$
29:0
     RDKit          3D

 61 64  0  0  0  0  0  0  0  0999 V2000
   -2.4890   25.1620  -26.4750 C   0  0  0  0  0  0  0  0  0  0  0  0
   -3.9500   24.6990  -26.5690 C   0  0  0  0  0  0  0  0  0  0  0  0
   -4.2440   23.8140  -27.7330 N   0  0  0  0  0  0  0  0  0  0  0  0
   -3.8610   22.3950  -27.5050 C   0  0  0  0  0  0  0  0  0  0  0  0
   -3.0860   21.7890  -28.6810 C   0  0  0  0  0  0  0  0  0  0  0  0
   -3.6150   24.3420  -28.9760 C   0  0  0  0  0  0  0  0  0  0  0  0
   -4.6430   24.9200  -29.9590 C   0  0  0  0  0  0  0  0  0  0  0  0
   -5.9490   24.6880  -29.4720 O   0  0  0  0  0  0  0  0  0  0  0  0
   -6.9030   24.8540  -30.5010 C   0  0  0  0  0  0  0  0  0  0  0  0
   -6.8780   23.6440  -31.4390 C   0  0  0  0  0  0  0  0  0  0  0  0
   -6.0080   22.6010  -30.9010 N   0  0  0  0  0  0  0  0  0  0  0  0
   -5.7760   21.3880  -31.6320 C   0  0  0  0  0  0  0  0  0  0  0  0
   -4.5220   21.1220  -32.1700 C   0  0  0  0  0  0  0  0  0  0  0  0
   -4.2560   19.9330  -32.8270 C   0  0  0  0  0  0  0  0  0  0  0  0
   -5.1810   18.9220  -32.8810 N   0  0  0  0  0  0  0  0  0  0  0  0
   -4.7660   17.5650  -33.2700 C   0  0  0  0  0  0  0  0  0  0  0  0
   -6.4850   19.1980  -32.4990 C   0  0  0  0  0  0  0  0  0  0  0  0
   -7.5410   18.2920  -32.7540 C   0  0  0  0  0  0  0  0  0  0  0  0
   -8.8480   18.5830  -32.3640 C   0  0  0  0  0  0  0  0  0  0  0  0
   -9.1420   19.7860  -31.7310 C   0  0  0  0  0  0  0  0  0  0  0  0
   -8.1320   20.7130  -31.4860 C   0  0  0  0  0  0  0  0  0  0  0  0
   -6.8000   20.4390  -31.8550 C   0  0  0  0  0  0  0  0  0  0  0  0
   -2.8560   19.9790  -33.3120 C   0  0  0  0  0  0  0  0  0  0  0  0
   -2.1490   19.1520  -34.1960 C   0  0  0  0  0  0  0  0  0  0  0  0
   -0.8330   19.5040  -34.5440 C   0  0  0  0  0  0  0  0  0  0  0  0
   -0.2540   20.6860  -34.0450 C   0  0  0  0  0  0  0  0  0  0  0  0
   -0.9930   21.5410  -33.2160 C   0  0  0  0  0  0  0  0  0  0  0  0
   -2.2920   21.1670  -32.8720 C   0  0  0  0  0  0  0  0  0  0  0  0
   -3.2970   21.9190  -32.1420 C   0  0  0  0  0  0  0  0  0  0  0  0
   -3.1390   23.0490  -31.6100 O   0  0  0  0  0  0  0  0  0  0  0  0
   -2.2006   25.2534  -25.4174 H   0  0  0  0  0  0  0  0  0  0  0  0
   -1.8385   24.4260  -26.9701 H   0  0  0  0  0  0  0  0  0  0  0  0
   -2.3812   26.1383  -26.9701 H   0  0  0  0  0  0  0  0  0  0  0  0
   -4.1963   24.1494  -25.6485 H   0  0  0  0  0  0  0  0  0  0  0  0
   -4.5578   25.6059  -26.7037 H   0  0  0  0  0  0  0  0  0  0  0  0
   -5.2850   23.8420  -27.8530 H   0  0  0  0  0  0  0  0  0  0  0  0
   -3.2308   22.3420  -26.6050 H   0  0  0  0  0  0  0  0  0  0  0  0
   -4.7899   21.8172  -27.3895 H   0  0  0  0  0  0  0  0  0  0  0  0
   -2.2740   21.1541  -28.2968 H   0  0  0  0  0  0  0  0  0  0  0  0
   -3.7672   21.1815  -29.2950 H   0  0  0  0  0  0  0  0  0  0  0  0
   -2.6607   22.5966  -29.2950 H   0  0  0  0  0  0  0  0  0  0  0  0
   -2.9050   25.1361  -28.7015 H   0  0  0  0  0  0  0  0  0  0  0  0
   -3.1111   23.5022  -29.4768 H   0  0  0  0  0  0  0  0  0  0  0  0
   -4.4791   26.0025  -30.0652 H   0  0  0  0  0  0  0  0  0  0  0  0
   -4.5266   24.4315  -30.9377 H   0  0  0  0  0  0  0  0  0  0  0  0
   -7.9048   24.9499  -30.0569 H   0  0  0  0  0  0  0  0  0  0  0  0
   -6.6608   25.7606  -31.0749 H   0  0  0  0  0  0  0  0  0  0  0  0
   -7.8981   23.2463  -31.5449 H   0  0  0  0  0  0  0  0  0  0  0  0
   -6.4921   23.9602  -32.4194 H   0  0  0  0  0  0  0  0  0  0  0  0
   -5.8610   22.5880  -29.8670 H   0  0  0  0  0  0  0  0  0  0  0  0
   -4.5824   16.9646  -32.3667 H   0  0  0  0  0  0  0  0  0  0  0  0
   -5.5616   17.0953  -33.8670 H   0  0  0  0  0  0  0  0  0  0  0  0
   -3.8438   17.6206  -33.8670 H   0  0  0  0  0  0  0  0  0  0  0  0
   -7.3280   17.3431  -33.2680 H   0  0  0  0  0  0  0  0  0  0  0  0
   -9.6511   17.8568  -32.5582 H   0  0  0  0  0  0  0  0  0  0  0  0
  -10.1749   20.0058  -31.4231 H   0  0  0  0  0  0  0  0  0  0  0  0
   -8.3766   21.6688  -30.9995 H   0  0  0  0  0  0  0  0  0  0  0  0
   -2.6148   18.2453  -34.6094 H   0  0  0  0  0  0  0  0  0  0  0  0
   -0.2515   18.8508  -35.2112 H   0  0  0  0  0  0  0  0  0  0  0  0
    0.7837   20.9399  -34.3070 H   0  0  0  0  0  0  0  0  0  0  0  0
   -0.5600   22.4822  -32.8464 H   0  0  0  0  0  0  0  0  0  0  0  0
  1  2  1  0
  2  3  1  0
  3  4  1  0
  4  5  1  0
  3  6  1  0
  6  7  1  0
  7  8  1  0
  8  9  1  0
  9 10  1  0
 10 11  1  0
 11 12  1  0
 12 13  2  0
 13 14  1  0
 14 15  2  0
 15 16  1  0
 15 17  1  0
 17 18  2  0
 18 19  1  0
 19 20  2  0
 20 21  1  0
 21 22  2  0
 14 23  1  0
 23 24  2  0
 24 25  1  0
 25 26  2  0
 26 27  1  0
 27 28  2  0
 28 29  1  0
 29 30  2  0
 22 12  1  0
 28 23  1  0
 29 13  1  0
 22 17  1  0
  1 31  1  0
  1 32  1  0
  1 33  1  0
  2 34  1  0
  2 35  1  0
  3 36  1  0
  4 37  1  0
  4 38  1  0
  5 39  1  0
  5 40  1  0
  5 41  1  0
  6 42  1  0
  6 43  1  0
  7 44  1  0
  7 45  1  0
  9 46  1  0
  9 47  1  0
 10 48  1  0
 10 49  1  0
 11 50  1  0
 16 51  1  0
 16 52  1  0
 16 53  1  0
 18 54  1  0
 19 55  1  0
 20 56  1  0
 21 57  1  0
 24 58  1  0
 25 59  1  0
 26 60  1  0
 27 61  1  0
M  CHG  2   3   1  15   1
M  END
>  <UniqueID>  (30) 
30

>  <SMILES>  (30) 
CC[NH+](CC)CCOCCNc1c2c([n+](C)c3ccccc13)-c1ccccc1C2=O

>  <Energy>  (30) 
119.21007172808572

>  <Genealogy>  (30) 
CC[NH+](CC)CCOCCNc1c2c([n+](C)c3ccccc13)-c1ccccc1C2=O (protonated)
CC[NH+](CC)CCOCCNc1c2c([n+](C)c3ccccc13)-c1ccccc1C2=O (3D coordinates assigned)
CC[NH+](CC)CCOCCNc1c2c([n+](C)c3ccccc13)-c1ccccc1C2=O (nonaromatic ring conformer: 119.21007172808572 kcal/mol)

>  <smiles>  (30) 
CCN(CC)CCOCCNc1c2c([n+](C)c3ccccc13)-c1ccccc1C2=O

>  <score_type>  (30) 
oracle

>  <origin>  (30) 
adg

>  <m_score__min__energy>  (30) 
-8.0500000000000007

>  <m_primary>  (30) 
energy

$$$$
30:0
     RDKit          3D

 50 52  0  0  0  0  0  0  0  0999 V2000
   -8.6330   18.1210  -31.6560 O   0  0  0  0  0  0  0  0  0  0  0  0
   -7.7600   18.8330  -32.2290 C   0  0  0  0  0  0  0  0  0  0  0  0
   -7.6590   20.1950  -31.9050 C   0  0  0  0  0  0  0  0  0  0  0  0
   -8.5130   20.8050  -30.9690 C   0  0  0  0  0  0  0  0  0  0  0  0
   -8.3640   22.1580  -30.6570 C   0  0  0  0  0  0  0  0  0  0  0  0
   -7.3590   22.9240  -31.2640 C   0  0  0  0  0  0  0  0  0  0  0  0
   -7.1920   24.2990  -30.8730 N   0  0  0  0  0  0  0  0  0  0  0  0
   -5.9160   25.0180  -30.9200 C   0  0  0  0  0  0  0  0  0  0  0  0
   -4.9630   24.5380  -29.8190 C   0  0  0  0  0  0  0  0  0  0  0  0
   -3.5680   24.6450  -30.2760 N   0  0  0  0  0  0  0  0  0  0  0  0
   -2.8400   23.3800  -30.1130 C   0  0  0  0  0  0  0  0  0  0  0  0
   -3.6950   22.2080  -30.6170 C   0  0  0  0  0  0  0  0  0  0  0  0
   -3.1280   21.5830  -31.8930 C   0  0  0  0  0  0  0  0  0  0  0  0
   -1.7580   21.7740  -31.9530 F   0  0  0  0  0  0  0  0  0  0  0  0
   -3.3890   20.2250  -31.8920 F   0  0  0  0  0  0  0  0  0  0  0  0
   -3.7190   22.1500  -33.0080 F   0  0  0  0  0  0  0  0  0  0  0  0
   -6.5250   22.3230  -32.2240 C   0  0  0  0  0  0  0  0  0  0  0  0
   -6.6650   20.9620  -32.5380 C   0  0  0  0  0  0  0  0  0  0  0  0
   -5.8300   20.3740  -33.4350 N   0  0  0  0  0  0  0  0  0  0  0  0
   -5.9370   19.0510  -33.7450 C   0  0  0  0  0  0  0  0  0  0  0  0
   -6.9110   18.2780  -33.1540 N   0  0  0  0  0  0  0  0  0  0  0  0
   -6.9990   16.8370  -33.4820 C   0  0  0  0  0  0  0  0  0  0  0  0
   -5.8570   16.0290  -32.8380 C   0  0  0  0  0  0  0  0  0  0  0  0
   -4.5230   16.7850  -32.7070 C   0  0  0  0  0  0  0  0  0  0  0  0
   -4.0050   17.3870  -34.0290 C   0  0  0  0  0  0  0  0  0  0  0  0
   -4.9280   18.4340  -34.6950 C   0  0  0  0  0  0  0  0  0  0  0  0
   -9.3017   20.2139  -30.4805 H   0  0  0  0  0  0  0  0  0  0  0  0
   -9.0415   22.6270  -29.9282 H   0  0  0  0  0  0  0  0  0  0  0  0
   -7.9940   24.7830  -30.4090 H   0  0  0  0  0  0  0  0  0  0  0  0
   -5.4455   24.8485  -31.8997 H   0  0  0  0  0  0  0  0  0  0  0  0
   -6.1155   26.0883  -30.7630 H   0  0  0  0  0  0  0  0  0  0  0  0
   -5.1008   25.1596  -28.9220 H   0  0  0  0  0  0  0  0  0  0  0  0
   -5.1852   23.4868  -29.5834 H   0  0  0  0  0  0  0  0  0  0  0  0
   -3.5830   24.8890  -31.2950 H   0  0  0  0  0  0  0  0  0  0  0  0
   -1.9045   23.4220  -30.6902 H   0  0  0  0  0  0  0  0  0  0  0  0
   -2.6165   23.2290  -29.0466 H   0  0  0  0  0  0  0  0  0  0  0  0
   -3.7359   21.4371  -29.8334 H   0  0  0  0  0  0  0  0  0  0  0  0
   -4.6971   22.5977  -30.8494 H   0  0  0  0  0  0  0  0  0  0  0  0
   -5.7570   22.9242  -32.7327 H   0  0  0  0  0  0  0  0  0  0  0  0
   -5.0800   20.9490  -33.8850 H   0  0  0  0  0  0  0  0  0  0  0  0
   -7.9603   16.4473  -33.1159 H   0  0  0  0  0  0  0  0  0  0  0  0
   -6.9171   16.7310  -34.5738 H   0  0  0  0  0  0  0  0  0  0  0  0
   -6.1785   15.7260  -31.8306 H   0  0  0  0  0  0  0  0  0  0  0  0
   -5.6651   15.1779  -33.5079 H   0  0  0  0  0  0  0  0  0  0  0  0
   -4.6600   17.6038  -31.9854 H   0  0  0  0  0  0  0  0  0  0  0  0
   -3.7736   16.0493  -32.3797 H   0  0  0  0  0  0  0  0  0  0  0  0
   -3.0380   17.8699  -33.8247 H   0  0  0  0  0  0  0  0  0  0  0  0
   -3.9430   16.5476  -34.7372 H   0  0  0  0  0  0  0  0  0  0  0  0
   -4.3005   19.2388  -35.1054 H   0  0  0  0  0  0  0  0  0  0  0  0
   -5.5000   17.9085  -35.4738 H   0  0  0  0  0  0  0  0  0  0  0  0
  1  2  2  0
  2  3  1  0
  3  4  2  0
  4  5  1  0
  5  6  2  0
  6  7  1  0
  7  8  1  0
  8  9  1  0
  9 10  1  0
 10 11  1  0
 11 12  1  0
 12 13  1  0
 13 14  1  0
 13 15  1  0
 13 16  1  0
  6 17  1  0
 17 18  2  0
 18 19  1  0
 19 20  2  0
 20 21  1  0
 21 22  1  0
 22 23  1  0
 23 24  1  0
 24 25  1  0
 25 26  1  0
 21  2  1  0
 18  3  1  0
 26 20  1  0
  4 27  1  0
  5 28  1  0
  7 29  1  0
  8 30  1  0
  8 31  1  0
  9 32  1  0
  9 33  1  0
 10 34  1  0
 11 35  1  0
 11 36  1  0
 12 37  1  0
 12 38  1  0
 17 39  1  0
 19 40  1  0
 22 41  1  0
 22 42  1  0
 23 43  1  0
 23 44  1  0
 24 45  1  0
 24 46  1  0
 25 47  1  0
 25 48  1  0
 26 49  1  0
 26 50  1  0
M  CHG  1  19   1
M  END
>  <UniqueID>  (31) 
31

>  <SMILES>  (31) 
O=c1c2ccc(NCCNCCC(F)(F)F)cc2[nH+]c2n1CCCCC2

>  <Energy>  (31) 
56.509019417680676

>  <Genealogy>  (31) 
O=c1c2ccc(NCCNCCC(F)(F)F)cc2[nH+]c2n1CCCCC2 (protonated)
O=c1c2ccc(NCCNCCC(F)(F)F)cc2[nH+]c2n1CCCCC2 (3D coordinates assigned)
O=c1c2ccc(NCCNCCC(F)(F)F)cc2[nH+]c2n1CCCCC2 (nonaromatic ring conformer: 56.509019417680676 kcal/mol)

>  <smiles>  (31) 
O=c1c2ccc(NCCNCCC(F)(F)F)cc2nc2n1CCCCC2

>  <score_type>  (31) 
oracle

>  <origin>  (31) 
adg

>  <m_score__min__energy>  (31) 
-5.8399999999999999

>  <m_primary>  (31) 
energy

$$$$
31:0
     RDKit          3D

 39 39  0  0  0  0  0  0  0  0999 V2000
   -8.9530   18.5260  -31.6250 C   0  0  0  0  0  0  0  0  0  0  0  0
   -8.9620   20.0380  -31.8240 C   0  0  0  0  0  0  0  0  0  0  0  0
   -7.8390   20.5110  -32.7600 C   0  0  0  0  0  0  0  0  0  0  0  0
   -6.5810   20.7620  -32.0420 N   0  0  0  0  0  0  0  0  0  0  0  0
   -5.7410   19.6340  -31.6150 C   0  0  0  0  0  0  0  0  0  0  0  0
   -5.7090   18.5410  -32.6780 C   0  0  0  0  0  0  0  0  0  0  0  0
   -6.4330   22.0150  -31.3540 C   0  0  0  0  0  0  0  0  0  0  0  0
   -7.3560   22.3770  -30.3750 C   0  0  0  0  0  0  0  0  0  0  0  0
   -7.2220   23.5570  -29.7190 N   0  0  0  0  0  0  0  0  0  0  0  0
   -6.2170   24.4010  -29.9840 N   0  0  0  0  0  0  0  0  0  0  0  0
   -6.1250   25.6670  -29.2450 C   0  0  0  0  0  0  0  0  0  0  0  0
   -5.2840   24.1010  -30.9440 C   0  0  0  0  0  0  0  0  0  0  0  0
   -4.3530   24.9160  -31.1860 O   0  0  0  0  0  0  0  0  0  0  0  0
   -5.3760   22.8830  -31.6550 C   0  0  0  0  0  0  0  0  0  0  0  0
   -4.4690   22.4870  -32.6550 O   0  0  0  0  0  0  0  0  0  0  0  0
   -3.1850   21.9040  -32.4480 C   0  0  0  0  0  0  0  0  0  0  0  0
   -2.9630   20.7990  -33.4670 C   0  0  0  0  0  0  0  0  0  0  0  0
   -8.9516   18.2978  -30.5489 H   0  0  0  0  0  0  0  0  0  0  0  0
   -9.8486   18.0895  -32.0913 H   0  0  0  0  0  0  0  0  0  0  0  0
   -8.0523   18.1002  -32.0913 H   0  0  0  0  0  0  0  0  0  0  0  0
   -9.9298   20.3319  -32.2564 H   0  0  0  0  0  0  0  0  0  0  0  0
   -8.8009   20.5070  -30.8421 H   0  0  0  0  0  0  0  0  0  0  0  0
   -7.6632   19.7363  -33.5209 H   0  0  0  0  0  0  0  0  0  0  0  0
   -8.1597   21.4587  -33.2172 H   0  0  0  0  0  0  0  0  0  0  0  0
   -4.7168   19.9948  -31.4396 H   0  0  0  0  0  0  0  0  0  0  0  0
   -6.1652   19.2119  -30.6920 H   0  0  0  0  0  0  0  0  0  0  0  0
   -5.6802   17.5556  -32.1900 H   0  0  0  0  0  0  0  0  0  0  0  0
   -6.6096   18.6132  -33.3054 H   0  0  0  0  0  0  0  0  0  0  0  0
   -4.8141   18.6658  -33.3054 H   0  0  0  0  0  0  0  0  0  0  0  0
   -8.1935   21.7059  -30.1339 H   0  0  0  0  0  0  0  0  0  0  0  0
   -7.9350   23.7920  -28.9900 H   0  0  0  0  0  0  0  0  0  0  0  0
   -6.1399   25.4626  -28.1643 H   0  0  0  0  0  0  0  0  0  0  0  0
   -5.1873   26.1782  -29.5086 H   0  0  0  0  0  0  0  0  0  0  0  0
   -6.9789   26.3084  -29.5086 H   0  0  0  0  0  0  0  0  0  0  0  0
   -2.4087   22.6742  -32.5667 H   0  0  0  0  0  0  0  0  0  0  0  0
   -3.1311   21.4842  -31.4327 H   0  0  0  0  0  0  0  0  0  0  0  0
   -2.7724   19.8505  -32.9436 H   0  0  0  0  0  0  0  0  0  0  0  0
   -3.8585   20.6964  -34.0975 H   0  0  0  0  0  0  0  0  0  0  0  0
   -2.0974   21.0502  -34.0975 H   0  0  0  0  0  0  0  0  0  0  0  0
  1  2  1  0
  2  3  1  0
  3  4  1  0
  4  5  1  0
  5  6  1  0
  4  7  1  0
  7  8  1  0
  8  9  2  0
  9 10  1  0
 10 11  1  0
 10 12  1  0
 12 13  2  0
 12 14  1  0
 14 15  1  0
 15 16  1  0
 16 17  1  0
 14  7  2  0
  1 18  1  0
  1 19  1  0
  1 20  1  0
  2 21  1  0
  2 22  1  0
  3 23  1  0
  3 24  1  0
  5 25  1  0
  5 26  1  0
  6 27  1  0
  6 28  1  0
  6 29  1  0
  8 30  1  0
  9 31  1  0
 11 32  1  0
 11 33  1  0
 11 34  1  0
 16 35  1  0
 16 36  1  0
 17 37  1  0
 17 38  1  0
 17 39  1  0
M  CHG  1   9   1
M  END
>  <UniqueID>  (32) 
32

>  <SMILES>  (32) 
CCCN(CC)c1c[nH+]n(C)c(=O)c1OCC

>  <Energy>  (32) 
33.878231710541534

>  <Genealogy>  (32) 
CCCN(CC)c1c[nH+]n(C)c(=O)c1OCC (protonated)
CCCN(CC)c1c[nH+]n(C)c(=O)c1OCC (3D coordinates assigned)
CCCN(CC)c1c[nH+]n(C)c(=O)c1OCC (optimized conformer: 33.878231710541534 kcal/mol)

>  <smiles>  (32) 
CCCN(CC)c1cnn(C)c(=O)c1OCC

>  <score_type>  (32) 
oracle

>  <origin>  (32) 
adg

>  <m_score__min__energy>  (32) 
-5.0499999999999998

>  <m_primary>  (32) 
energy

$$$$
32:0
     RDKit          3D

 44 47  0  0  0  0  0  0  0  0999 V2000
   -2.5860   21.4690  -33.5310 C   0  0  0  0  0  0  0  0  0  0  0  0
   -3.4110   21.4530  -32.2350 C   0  0  1  0  0  0  0  0  0  0  0  0
   -2.8740   20.4470  -31.3890 O   0  0  0  0  0  0  0  0  0  0  0  0
   -3.4530   20.4690  -30.1010 C   0  0  0  0  0  0  0  0  0  0  0  0
   -3.3780   21.8590  -29.4370 C   0  0  0  0  0  0  0  0  0  0  0  0
   -2.8090   22.8440  -30.2740 O   0  0  0  0  0  0  0  0  0  0  0  0
   -3.3960   22.8540  -31.5630 C   0  0  2  0  0  0  0  0  0  0  0  0
   -4.8290   23.3160  -31.5720 C   0  0  0  0  0  0  0  0  0  0  0  0
   -5.1750   24.4050  -31.1390 O   0  0  0  0  0  0  0  0  0  0  0  0
   -5.7450   22.4080  -32.3340 C   0  0  1  0  0  0  0  0  0  0  0  0
   -4.8710   21.2220  -32.5740 C   0  0  0  0  0  0  0  0  0  0  0  0
   -5.3770   20.1090  -33.1160 C   0  0  0  0  0  0  0  0  0  0  0  0
   -6.8410   20.0960  -33.4550 C   0  0  0  0  0  0  0  0  0  0  0  0
   -7.6890   20.6120  -32.2470 C   0  0  2  0  0  0  0  0  0  0  0  0
   -7.7260   19.4670  -31.1950 C   0  0  0  0  0  0  0  0  0  0  0  0
   -9.1400   20.8940  -32.7190 C   0  0  0  0  0  0  0  0  0  0  0  0
   -9.5150   22.2660  -32.1920 C   0  0  0  0  0  0  0  0  0  0  0  0
   -8.2120   23.0330  -32.1230 C   0  0  0  0  0  0  0  0  0  0  0  0
   -7.1370   22.0100  -31.6860 C   0  0  2  0  0  0  0  0  0  0  0  0
   -7.0770   22.0460  -30.1300 C   0  0  0  0  0  0  0  0  0  0  0  0
   -1.5145   21.4898  -33.2833 H   0  0  0  0  0  0  0  0  0  0  0  0
   -2.8090   20.5664  -34.1188 H   0  0  0  0  0  0  0  0  0  0  0  0
   -2.8439   22.3623  -34.1188 H   0  0  0  0  0  0  0  0  0  0  0  0
   -2.9220   19.7460  -29.4643 H   0  0  0  0  0  0  0  0  0  0  0  0
   -4.5166   20.2109  -30.2110 H   0  0  0  0  0  0  0  0  0  0  0  0
   -2.7672   21.7789  -28.5257 H   0  0  0  0  0  0  0  0  0  0  0  0
   -4.4090   22.1726  -29.2163 H   0  0  0  0  0  0  0  0  0  0  0  0
   -2.7560   23.5582  -32.1148 H   0  0  0  0  0  0  0  0  0  0  0  0
   -6.1223   22.9270  -33.2275 H   0  0  0  0  0  0  0  0  0  0  0  0
   -4.7421   19.2314  -33.3075 H   0  0  0  0  0  0  0  0  0  0  0  0
   -7.1468   19.0678  -33.6986 H   0  0  0  0  0  0  0  0  0  0  0  0
   -7.0118   20.7575  -34.3171 H   0  0  0  0  0  0  0  0  0  0  0  0
   -7.7121   19.8982  -30.1831 H   0  0  0  0  0  0  0  0  0  0  0  0
   -8.6437   18.8755  -31.3289 H   0  0  0  0  0  0  0  0  0  0  0  0
   -6.8484   18.8175  -31.3289 H   0  0  0  0  0  0  0  0  0  0  0  0
   -9.8240   20.1333  -32.3147 H   0  0  0  0  0  0  0  0  0  0  0  0
   -9.2111   20.8603  -33.8162 H   0  0  0  0  0  0  0  0  0  0  0  0
   -9.9686   22.1850  -31.1931 H   0  0  0  0  0  0  0  0  0  0  0  0
  -10.2536   22.7664  -32.8355 H   0  0  0  0  0  0  0  0  0  0  0  0
   -8.2863   23.8471  -31.3870 H   0  0  0  0  0  0  0  0  0  0  0  0
   -7.9623   23.4905  -33.0917 H   0  0  0  0  0  0  0  0  0  0  0  0
   -7.9513   21.5214  -29.7171 H   0  0  0  0  0  0  0  0  0  0  0  0
   -6.1566   21.5508  -29.7870 H   0  0  0  0  0  0  0  0  0  0  0  0
   -7.0808   23.0911  -29.7870 H   0  0  0  0  0  0  0  0  0  0  0  0
  2  1  1  6
  2  3  1  0
  3  4  1  0
  4  5  1  0
  5  6  1  0
  6  7  1  0
  7  8  1  0
  8  9  2  0
  8 10  1  0
 10 11  1  0
 11 12  2  0
 12 13  1  0
 13 14  1  0
 14 15  1  1
 14 16  1  0
 16 17  1  0
 17 18  1  0
 18 19  1  0
 19 20  1  1
  7  2  1  0
 19 10  1  0
 11  2  1  0
 19 14  1  0
  1 21  1  0
  1 22  1  0
  1 23  1  0
  4 24  1  0
  4 25  1  0
  5 26  1  0
  5 27  1  0
  7 28  1  6
 10 29  1  6
 12 30  1  0
 13 31  1  0
 13 32  1  0
 15 33  1  0
 15 34  1  0
 15 35  1  0
 16 36  1  0
 16 37  1  0
 17 38  1  0
 17 39  1  0
 18 40  1  0
 18 41  1  0
 20 42  1  0
 20 43  1  0
 20 44  1  0
M  END
>  <UniqueID>  (33) 
33

>  <SMILES>  (33) 
CC12CC=C3C(C(=O)[C@H]4OCCO[C@@]34C)C1(C)CCC2

>  <Energy>  (33) 
77.79061495430796

>  <Genealogy>  (33) 
CC12CC=C3C(C(=O)[C@H]4OCCO[C@@]34C)C1(C)CCC2 (chirality)
CC12CC=C3C(C(=O)[C@H]4OCCO[C@@]34C)C1(C)CCC2 (3D coordinates assigned)
CC12CC=C3C(C(=O)[C@H]4OCCO[C@@]34C)C1(C)CCC2 (nonaromatic ring conformer: 77.79061495430796 kcal/mol)

>  <smiles>  (33) 
CC12OCCOC1C(=O)C1C2=CCC2(C)CCCC12C

>  <score_type>  (33) 
oracle

>  <origin>  (33) 
adg

>  <m_score__min__energy>  (33) 
-7.4100000000000001

>  <m_primary>  (33) 
energy

$$$$
33:0
     RDKit          3D

 53 56  0  0  0  0  0  0  0  0999 V2000
   -6.1810   25.6760  -29.8340 C   0  0  0  0  0  0  0  0  0  0  0  0
   -5.0450   25.2250  -30.7640 C   0  0  0  0  0  0  0  0  0  0  0  0
   -4.9470   23.7570  -30.9290 N   0  0  0  0  0  0  0  0  0  0  0  0
   -5.6320   23.0290  -29.8460 C   0  0  0  0  0  0  0  0  0  0  0  0
   -3.5540   23.2960  -31.1210 C   0  0  0  0  0  0  0  0  0  0  0  0
   -3.4800   22.1780  -32.1720 C   0  0  0  0  0  0  0  0  0  0  0  0
   -4.6350   22.2190  -33.0830 N   0  0  0  0  0  0  0  0  0  0  0  0
   -5.5240   21.0940  -32.8290 C   0  0  0  0  0  0  0  0  0  0  0  0
   -6.8870   21.3080  -32.4900 C   0  0  0  0  0  0  0  0  0  0  0  0
   -7.4230   22.6090  -32.3130 C   0  0  0  0  0  0  0  0  0  0  0  0
   -8.7620   22.7980  -31.9840 C   0  0  0  0  0  0  0  0  0  0  0  0
   -9.6000   21.7040  -31.8160 C   0  0  0  0  0  0  0  0  0  0  0  0
   -9.0970   20.4140  -31.9520 C   0  0  0  0  0  0  0  0  0  0  0  0
   -7.7350   20.1870  -32.2710 C   0  0  0  0  0  0  0  0  0  0  0  0
   -7.2320   18.9060  -32.3540 N   0  0  0  0  0  0  0  0  0  0  0  0
   -7.9310   17.8280  -31.6200 C   0  0  0  0  0  0  0  0  0  0  0  0
   -5.9840   18.6850  -32.9020 C   0  0  0  0  0  0  0  0  0  0  0  0
   -5.0570   19.7600  -32.9610 C   0  0  0  0  0  0  0  0  0  0  0  0
   -3.6850   19.4660  -33.1330 C   0  0  0  0  0  0  0  0  0  0  0  0
   -3.2530   18.1680  -33.3750 C   0  0  0  0  0  0  0  0  0  0  0  0
   -4.1780   17.1430  -33.5550 C   0  0  0  0  0  0  0  0  0  0  0  0
   -3.7380   15.8700  -33.9540 C   0  0  0  0  0  0  0  0  0  0  0  0
   -4.6610   14.8720  -34.2620 C   0  0  0  0  0  0  0  0  0  0  0  0
   -6.0270   15.1460  -34.2060 C   0  0  0  0  0  0  0  0  0  0  0  0
   -7.2880   13.8070  -34.7240 Br  0  0  0  0  0  0  0  0  0  0  0  0
   -6.4740   16.4040  -33.7910 C   0  0  0  0  0  0  0  0  0  0  0  0
   -5.5620   17.4010  -33.3790 C   0  0  0  0  0  0  0  0  0  0  0  0
   -5.8685   25.5519  -28.7866 H   0  0  0  0  0  0  0  0  0  0  0  0
   -6.4126   26.7343  -30.0246 H   0  0  0  0  0  0  0  0  0  0  0  0
   -7.0755   25.0648  -30.0246 H   0  0  0  0  0  0  0  0  0  0  0  0
   -5.2104   25.6739  -31.7545 H   0  0  0  0  0  0  0  0  0  0  0  0
   -4.1042   25.5560  -30.2999 H   0  0  0  0  0  0  0  0  0  0  0  0
   -5.2802   23.4029  -28.8732 H   0  0  0  0  0  0  0  0  0  0  0  0
   -6.7176   23.1858  -29.9283 H   0  0  0  0  0  0  0  0  0  0  0  0
   -5.4094   21.9549  -29.9283 H   0  0  0  0  0  0  0  0  0  0  0  0
   -2.9380   24.1440  -31.4549 H   0  0  0  0  0  0  0  0  0  0  0  0
   -3.1824   22.9005  -30.1642 H   0  0  0  0  0  0  0  0  0  0  0  0
   -2.5573   22.2989  -32.7585 H   0  0  0  0  0  0  0  0  0  0  0  0
   -3.4865   21.2105  -31.6487 H   0  0  0  0  0  0  0  0  0  0  0  0
   -5.1490   23.1230  -32.9940 H   0  0  0  0  0  0  0  0  0  0  0  0
   -4.3140   22.2290  -34.0760 H   0  0  0  0  0  0  0  0  0  0  0  0
   -6.7687   23.4844  -32.4380 H   0  0  0  0  0  0  0  0  0  0  0  0
   -9.1573   23.8166  -31.8568 H   0  0  0  0  0  0  0  0  0  0  0  0
  -10.6623   21.8572  -31.5752 H   0  0  0  0  0  0  0  0  0  0  0  0
   -9.7687   19.5547  -31.8093 H   0  0  0  0  0  0  0  0  0  0  0  0
   -7.8243   17.9925  -30.5376 H   0  0  0  0  0  0  0  0  0  0  0  0
   -8.9977   17.8337  -31.8884 H   0  0  0  0  0  0  0  0  0  0  0  0
   -7.4906   16.8564  -31.8884 H   0  0  0  0  0  0  0  0  0  0  0  0
   -2.9466   20.2792  -33.0742 H   0  0  0  0  0  0  0  0  0  0  0  0
   -2.1761   17.9492  -33.4246 H   0  0  0  0  0  0  0  0  0  0  0  0
   -2.6605   15.6599  -34.0237 H   0  0  0  0  0  0  0  0  0  0  0  0
   -4.3121   13.8691  -34.5490 H   0  0  0  0  0  0  0  0  0  0  0  0
   -7.5524   16.6208  -33.7852 H   0  0  0  0  0  0  0  0  0  0  0  0
  1  2  1  0
  2  3  1  0
  3  4  1  0
  3  5  1  0
  5  6  1  0
  6  7  1  0
  7  8  1  0
  8  9  2  0
  9 10  1  0
 10 11  2  0
 11 12  1  0
 12 13  2  0
 13 14  1  0
 14 15  2  0
 15 16  1  0
 15 17  1  0
 17 18  2  0
 18 19  1  0
 19 20  2  0
 20 21  1  0
 21 22  2  0
 22 23  1  0
 23 24  2  0
 24 25  1  0
 24 26  1  0
 26 27  2  0
 18  8  1  0
 27 21  1  0
 14  9  1  0
 27 17  1  0
  1 28  1  0
  1 29  1  0
  1 30  1  0
  2 31  1  0
  2 32  1  0
  4 33  1  0
  4 34  1  0
  4 35  1  0
  5 36  1  0
  5 37  1  0
  6 38  1  0
  6 39  1  0
  7 40  1  0
  7 41  1  0
 10 42  1  0
 11 43  1  0
 12 44  1  0
 13 45  1  0
 16 46  1  0
 16 47  1  0
 16 48  1  0
 19 49  1  0
 20 50  1  0
 22 51  1  0
 23 52  1  0
 26 53  1  0
M  CHG  2   7   1  15   1
M  END
>  <UniqueID>  (34) 
34

>  <SMILES>  (34) 
CCN(C)CC[NH2+]c1c2ccccc2[n+](C)c2c1ccc1ccc(Br)cc12

>  <Energy>  (34) 
99.5302452930915

>  <Genealogy>  (34) 
CCN(C)CC[NH2+]c1c2ccccc2[n+](C)c2c1ccc1ccc(Br)cc12 (protonated)
CCN(C)CC[NH2+]c1c2ccccc2[n+](C)c2c1ccc1ccc(Br)cc12 (3D coordinates assigned)
CCN(C)CC[NH2+]c1c2ccccc2[n+](C)c2c1ccc1ccc(Br)cc12 (optimized conformer: 99.5302452930915 kcal/mol)

>  <smiles>  (34) 
CCN(C)CCNc1c2ccccc2[n+](C)c2c1ccc1ccc(Br)cc12

>  <score_type>  (34) 
oracle

>  <origin>  (34) 
adg

>  <m_score__min__energy>  (34) 
-8.8599999999999994

>  <m_primary>  (34) 
energy

$$$$
34:0
     RDKit          3D

 64 69  0  0  0  0  0  0  0  0999 V2000
   -3.2330   19.1390  -33.8080 C   0  0  0  0  0  0  0  0  0  0  0  0
   -4.5350   18.6520  -34.1110 O   0  0  0  0  0  0  0  0  0  0  0  0
   -5.6910   19.1390  -33.4950 C   0  0  0  0  0  0  0  0  0  0  0  0
   -6.7350   18.2580  -33.2020 C   0  0  0  0  0  0  0  0  0  0  0  0
   -7.8910   18.7390  -32.5840 C   0  0  0  0  0  0  0  0  0  0  0  0
   -7.9920   20.0930  -32.2610 C   0  0  0  0  0  0  0  0  0  0  0  0
   -9.1080   20.5720  -31.6520 N   0  0  0  0  0  0  0  0  0  0  0  0
   -9.2290   21.8820  -31.3190 C   0  0  0  0  0  0  0  0  0  0  0  0
   -8.1990   22.7830  -31.6030 C   0  0  0  0  0  0  0  0  0  0  0  0
   -8.3320   24.0790  -31.2250 F   0  0  0  0  0  0  0  0  0  0  0  0
   -7.0330   22.3330  -32.2550 C   0  0  0  0  0  0  0  0  0  0  0  0
   -5.9170   23.3110  -32.5640 C   0  0  0  0  0  0  0  0  0  0  0  0
   -5.7450   24.4320  -31.5100 C   0  0  0  0  0  0  0  0  0  0  0  0
   -4.8870   24.1310  -30.2500 C   0  0  1  0  0  0  0  0  0  0  0  0
   -5.4740   24.7770  -28.9710 C   0  0  0  0  0  0  0  0  0  0  0  0
   -4.5240   24.5300  -27.7800 C   0  0  0  0  0  0  0  0  0  0  0  0
   -3.2850   23.7050  -28.2290 C   0  0  1  0  0  0  0  0  0  0  0  0
   -2.3740   23.5170  -27.0640 N   0  0  0  0  0  0  0  0  0  0  0  0
   -0.9490   23.2580  -27.3470 C   0  0  0  0  0  0  0  0  0  0  0  0
   -0.7640   22.0670  -28.2390 C   0  0  0  0  0  0  0  0  0  0  0  0
   -0.6830   20.7720  -27.7010 C   0  0  0  0  0  0  0  0  0  0  0  0
   -0.5000   19.6850  -28.5570 C   0  0  0  0  0  0  0  0  0  0  0  0
   -0.3980   19.8950  -29.9330 C   0  0  0  0  0  0  0  0  0  0  0  0
   -0.5020   21.1980  -30.4360 C   0  0  0  0  0  0  0  0  0  0  0  0
   -0.6850   22.2440  -29.5860 N   0  0  0  0  0  0  0  0  0  0  0  0
   -0.4580   21.4110  -31.8470 N   0  0  0  0  0  0  0  0  0  0  0  0
   -0.2200   20.3070  -32.7280 C   0  0  0  0  0  0  0  0  0  0  0  0
   -0.2970   20.4680  -33.9740 O   0  0  0  0  0  0  0  0  0  0  0  0
    0.2020   18.9780  -32.1660 C   0  0  0  0  0  0  0  0  0  0  0  0
   -0.2190   18.8160  -30.8070 O   0  0  0  0  0  0  0  0  0  0  0  0
   -3.8020   22.3540  -28.7850 C   0  0  0  0  0  0  0  0  0  0  0  0
   -4.7250   22.6040  -30.0000 C   0  0  0  0  0  0  0  0  0  0  0  0
   -2.6620   24.4710  -29.4290 C   0  0  0  0  0  0  0  0  0  0  0  0
   -3.5960   24.7020  -30.4860 O   0  0  0  0  0  0  0  0  0  0  0  0
   -6.9230   20.9610  -32.5690 C   0  0  0  0  0  0  0  0  0  0  0  0
   -5.8090   20.4590  -33.1750 N   0  0  0  0  0  0  0  0  0  0  0  0
   -3.1043   19.1871  -32.7166 H   0  0  0  0  0  0  0  0  0  0  0  0
   -2.4794   18.4620  -34.2366 H   0  0  0  0  0  0  0  0  0  0  0  0
   -3.1087   20.1444  -34.2366 H   0  0  0  0  0  0  0  0  0  0  0  0
   -6.6468   17.1915  -33.4567 H   0  0  0  0  0  0  0  0  0  0  0  0
   -8.7192   18.0531  -32.3525 H   0  0  0  0  0  0  0  0  0  0  0  0
  -10.1439   22.2371  -30.8222 H   0  0  0  0  0  0  0  0  0  0  0  0
   -4.9735   22.7490  -32.6269 H   0  0  0  0  0  0  0  0  0  0  0  0
   -6.1829   23.8051  -33.5101 H   0  0  0  0  0  0  0  0  0  0  0  0
   -5.2849   25.2912  -32.0200 H   0  0  0  0  0  0  0  0  0  0  0  0
   -6.7594   24.5933  -31.1163 H   0  0  0  0  0  0  0  0  0  0  0  0
   -6.4559   24.3313  -28.7539 H   0  0  0  0  0  0  0  0  0  0  0  0
   -5.5864   25.8598  -29.1287 H   0  0  0  0  0  0  0  0  0  0  0  0
   -5.0626   23.9760  -26.9971 H   0  0  0  0  0  0  0  0  0  0  0  0
   -4.1816   25.5010  -27.3927 H   0  0  0  0  0  0  0  0  0  0  0  0
   -2.3960   24.3830  -26.4750 H   0  0  0  0  0  0  0  0  0  0  0  0
   -0.5179   24.1419  -27.8398 H   0  0  0  0  0  0  0  0  0  0  0  0
   -0.4438   23.0507  -26.3921 H   0  0  0  0  0  0  0  0  0  0  0  0
   -0.7631   20.6161  -26.6151 H   0  0  0  0  0  0  0  0  0  0  0  0
   -0.4363   18.6657  -28.1484 H   0  0  0  0  0  0  0  0  0  0  0  0
   -0.6290   22.3640  -32.2390 H   0  0  0  0  0  0  0  0  0  0  0  0
   -0.2432   18.1769  -32.7743 H   0  0  0  0  0  0  0  0  0  0  0  0
    1.3007   18.9302  -32.1910 H   0  0  0  0  0  0  0  0  0  0  0  0
   -4.3661   21.8285  -28.0004 H   0  0  0  0  0  0  0  0  0  0  0  0
   -2.9453   21.7406  -29.1010 H   0  0  0  0  0  0  0  0  0  0  0  0
   -5.7127   22.1619  -29.8024 H   0  0  0  0  0  0  0  0  0  0  0  0
   -4.2764   22.1412  -30.8913 H   0  0  0  0  0  0  0  0  0  0  0  0
   -2.2901   25.4422  -29.0706 H   0  0  0  0  0  0  0  0  0  0  0  0
   -1.8519   23.8471  -29.8345 H   0  0  0  0  0  0  0  0  0  0  0  0
  1  2  1  0
  2  3  1  0
  3  4  2  0
  4  5  1  0
  5  6  2  0
  6  7  1  0
  7  8  2  0
  8  9  1  0
  9 10  1  0
  9 11  2  0
 11 12  1  0
 12 13  1  0
 14 13  1  6
 14 15  1  0
 15 16  1  0
 16 17  1  0
 17 18  1  1
 18 19  1  0
 19 20  1  0
 20 21  2  0
 21 22  1  0
 22 23  2  0
 23 24  1  0
 24 25  2  0
 24 26  1  0
 26 27  1  0
 27 28  2  0
 27 29  1  0
 29 30  1  0
 17 31  1  0
 31 32  1  0
 17 33  1  0
 33 34  1  0
 11 35  1  0
 35 36  2  0
 36  3  1  0
 35  6  1  0
 32 14  1  0
 34 14  1  0
 25 20  1  0
 30 23  1  0
  1 37  1  0
  1 38  1  0
  1 39  1  0
  4 40  1  0
  5 41  1  0
  8 42  1  0
 12 43  1  0
 12 44  1  0
 13 45  1  0
 13 46  1  0
 15 47  1  0
 15 48  1  0
 16 49  1  0
 16 50  1  0
 18 51  1  0
 19 52  1  0
 19 53  1  0
 21 54  1  0
 22 55  1  0
 26 56  1  0
 29 57  1  0
 29 58  1  0
 31 59  1  0
 31 60  1  0
 32 61  1  0
 32 62  1  0
 33 63  1  0
 33 64  1  0
M  END
>  <UniqueID>  (35) 
35

>  <SMILES>  (35) 
COc1ccc2ncc(F)c(CCC34CCC(NCc5ccc6c(n5)NC(=O)CO6)(CC3)CO4)c2n1

>  <Energy>  (35) 
97.07639653841107

>  <Genealogy>  (35) 
COc1ccc2ncc(F)c(CCC34CCC(NCc5ccc6c(n5)NC(=O)CO6)(CC3)CO4)c2n1 (3D coordinates assigned)
COc1ccc2ncc(F)c(CCC34CCC(NCc5ccc6c(n5)NC(=O)CO6)(CC3)CO4)c2n1 (nonaromatic ring conformer: 97.07639653841107 kcal/mol)

>  <smiles>  (35) 
COc1ccc2ncc(F)c(CCC34CCC(NCc5ccc6c(n5)NC(=O)CO6)(CC3)CO4)c2n1

>  <score_type>  (35) 
oracle

>  <origin>  (35) 
adg

>  <m_score__min__energy>  (35) 
-10.91

>  <m_primary>  (35) 
energy

$$$$
35:0
     RDKit          3D

 45 47  0  0  0  0  0  0  0  0999 V2000
   -8.2990   21.8320  -30.5440 C   0  0  0  0  0  0  0  0  0  0  0  0
   -9.5190   21.6260  -31.4350 C   0  0  0  0  0  0  0  0  0  0  0  0
   -9.1520   20.9360  -32.6150 O   0  0  0  0  0  0  0  0  0  0  0  0
   -9.1150   19.5440  -32.3830 C   0  0  0  0  0  0  0  0  0  0  0  0
   -7.7500   19.0370  -32.7090 C   0  0  0  0  0  0  0  0  0  0  0  0
   -6.7240   19.8260  -33.0960 N   0  0  0  0  0  0  0  0  0  0  0  0
   -5.5670   19.1290  -33.2630 C   0  0  0  0  0  0  0  0  0  0  0  0
   -4.2970   19.7800  -33.7340 C   0  0  0  0  0  0  0  0  0  0  0  0
   -3.4610   20.1890  -32.5850 N   0  0  0  0  0  0  0  0  0  0  0  0
   -2.7770   21.4880  -32.8320 C   0  0  0  0  0  0  0  0  0  0  0  0
   -2.6350   22.3480  -31.5730 C   0  0  0  0  0  0  0  0  0  0  0  0
   -3.9640   22.5680  -30.9870 N   0  0  0  0  0  0  0  0  0  0  0  0
   -4.3290   23.8590  -30.4500 C   0  0  0  0  0  0  0  0  0  0  0  0
   -3.4950   24.8060  -30.4590 O   0  0  0  0  0  0  0  0  0  0  0  0
   -5.7170   24.1150  -29.9250 C   0  0  0  0  0  0  0  0  0  0  0  0
   -6.1600   25.5680  -30.0140 C   0  0  0  0  0  0  0  0  0  0  0  0
   -6.7540   24.5400  -30.9580 C   0  0  0  0  0  0  0  0  0  0  0  0
   -4.9160   21.4490  -30.9660 C   0  0  0  0  0  0  0  0  0  0  0  0
   -4.2190   20.1250  -31.3120 C   0  0  0  0  0  0  0  0  0  0  0  0
   -5.6640   17.7640  -33.0020 C   0  0  0  0  0  0  0  0  0  0  0  0
   -7.2500   17.4410  -32.5370 S   0  0  0  0  0  0  0  0  0  0  0  0
   -8.6032   21.7806  -29.4881 H   0  0  0  0  0  0  0  0  0  0  0  0
   -7.5573   21.0464  -30.7505 H   0  0  0  0  0  0  0  0  0  0  0  0
   -7.8563   22.8176  -30.7505 H   0  0  0  0  0  0  0  0  0  0  0  0
  -10.2720   21.0381  -30.8897 H   0  0  0  0  0  0  0  0  0  0  0  0
   -9.9339   22.6076  -31.7077 H   0  0  0  0  0  0  0  0  0  0  0  0
   -9.3426   19.3394  -31.3264 H   0  0  0  0  0  0  0  0  0  0  0  0
   -9.8610   19.0403  -33.0152 H   0  0  0  0  0  0  0  0  0  0  0  0
   -6.8120   20.8560  -33.2490 H   0  0  0  0  0  0  0  0  0  0  0  0
   -3.7342   19.0667  -34.3540 H   0  0  0  0  0  0  0  0  0  0  0  0
   -4.5548   20.6748  -34.3195 H   0  0  0  0  0  0  0  0  0  0  0  0
   -1.7721   21.2831  -33.2298 H   0  0  0  0  0  0  0  0  0  0  0  0
   -3.3978   22.0525  -33.5433 H   0  0  0  0  0  0  0  0  0  0  0  0
   -1.9926   21.8313  -30.8448 H   0  0  0  0  0  0  0  0  0  0  0  0
   -2.1814   23.3153  -31.8349 H   0  0  0  0  0  0  0  0  0  0  0  0
   -5.6810   23.3453  -29.1400 H   0  0  0  0  0  0  0  0  0  0  0  0
   -6.7791   26.0035  -29.2159 H   0  0  0  0  0  0  0  0  0  0  0  0
   -5.6435   26.5310  -30.1399 H   0  0  0  0  0  0  0  0  0  0  0  0
   -7.8032   24.2299  -30.8437 H   0  0  0  0  0  0  0  0  0  0  0  0
   -6.8459   24.4490  -32.0504 H   0  0  0  0  0  0  0  0  0  0  0  0
   -5.3571   21.3712  -29.9613 H   0  0  0  0  0  0  0  0  0  0  0  0
   -5.6969   21.6399  -31.7168 H   0  0  0  0  0  0  0  0  0  0  0  0
   -3.5212   19.8727  -30.5000 H   0  0  0  0  0  0  0  0  0  0  0  0
   -5.0011   19.3607  -31.4308 H   0  0  0  0  0  0  0  0  0  0  0  0
   -4.8501   17.0286  -33.0848 H   0  0  0  0  0  0  0  0  0  0  0  0
  1  2  1  0
  2  3  1  0
  3  4  1  0
  4  5  1  0
  5  6  2  0
  6  7  1  0
  7  8  1  0
  8  9  1  0
  9 10  1  0
 10 11  1  0
 11 12  1  0
 12 13  1  0
 13 14  2  0
 13 15  1  0
 15 16  1  0
 16 17  1  0
 12 18  1  0
 18 19  1  0
  7 20  2  0
 20 21  1  0
 21  5  1  0
 19  9  1  0
 17 15  1  0
  1 22  1  0
  1 23  1  0
  1 24  1  0
  2 25  1  0
  2 26  1  0
  4 27  1  0
  4 28  1  0
  6 29  1  0
  8 30  1  0
  8 31  1  0
 10 32  1  0
 10 33  1  0
 11 34  1  0
 11 35  1  0
 15 36  1  0
 16 37  1  0
 16 38  1  0
 17 39  1  0
 17 40  1  0
 18 41  1  0
 18 42  1  0
 19 43  1  0
 19 44  1  0
 20 45  1  0
M  CHG  1   6   1
M  END
>  <UniqueID>  (36) 
36

>  <SMILES>  (36) 
CCOCc1[nH+]c(CN2CCN(C(=O)C3CC3)CC2)cs1

>  <Energy>  (36) 
342.1562036420595

>  <Genealogy>  (36) 
CCOCc1[nH+]c(CN2CCN(C(=O)C3CC3)CC2)cs1 (protonated)
CCOCc1[nH+]c(CN2CCN(C(=O)C3CC3)CC2)cs1 (3D coordinates assigned)
CCOCc1[nH+]c(CN2CCN(C(=O)C3CC3)CC2)cs1 (nonaromatic ring conformer: 342.1562036420595 kcal/mol)

>  <smiles>  (36) 
CCOCc1nc(CN2CCN(C(=O)C3CC3)CC2)cs1

>  <score_type>  (36) 
oracle

>  <origin>  (36) 
adg

>  <m_score__min__energy>  (36) 
-7.3300000000000001

>  <m_primary>  (36) 
energy

$$$$
36:0
     RDKit          3D

 48 50  0  0  0  0  0  0  0  0999 V2000
   -2.4540   20.1540  -27.5500 C   0  0  0  0  0  0  0  0  0  0  0  0
   -2.2890   21.4030  -28.2140 O   0  0  0  0  0  0  0  0  0  0  0  0
   -3.0210   21.8080  -29.3430 C   0  0  0  0  0  0  0  0  0  0  0  0
   -3.5070   20.8820  -30.2800 C   0  0  0  0  0  0  0  0  0  0  0  0
   -4.2160   21.3130  -31.4040 C   0  0  0  0  0  0  0  0  0  0  0  0
   -4.6860   20.3570  -32.3730 N   0  0  0  0  0  0  0  0  0  0  0  0
   -5.9510   20.2040  -32.8390 C   0  0  0  0  0  0  0  0  0  0  0  0
   -7.1410   20.9270  -32.3390 C   0  0  0  0  0  0  0  0  0  0  0  0
   -8.2060   20.2130  -31.7630 C   0  0  0  0  0  0  0  0  0  0  0  0
   -9.3360   20.8880  -31.2930 C   0  0  0  0  0  0  0  0  0  0  0  0
   -9.4100   22.2800  -31.3830 C   0  0  0  0  0  0  0  0  0  0  0  0
   -8.3490   23.0000  -31.9390 C   0  0  0  0  0  0  0  0  0  0  0  0
   -7.2170   22.3300  -32.4090 C   0  0  0  0  0  0  0  0  0  0  0  0
   -6.0180   19.2780  -33.8200 N   0  0  0  0  0  0  0  0  0  0  0  0
   -4.7610   18.8200  -33.9710 C   0  0  0  0  0  0  0  0  0  0  0  0
   -4.3560   17.7940  -34.9820 C   0  0  0  0  0  0  0  0  0  0  0  0
   -3.9300   19.4990  -33.0980 C   0  0  0  0  0  0  0  0  0  0  0  0
   -2.4460   19.3220  -32.9670 C   0  0  0  0  0  0  0  0  0  0  0  0
   -4.4500   22.6780  -31.5900 C   0  0  0  0  0  0  0  0  0  0  0  0
   -3.9850   23.6270  -30.6590 C   0  0  0  0  0  0  0  0  0  0  0  0
   -4.2270   24.9960  -30.8460 O   0  0  0  0  0  0  0  0  0  0  0  0
   -5.4230   25.6730  -30.4710 C   0  0  0  0  0  0  0  0  0  0  0  0
   -3.2600   23.1820  -29.5220 C   0  0  0  0  0  0  0  0  0  0  0  0
   -2.7460   24.0450  -28.5360 O   0  0  0  0  0  0  0  0  0  0  0  0
   -3.3000   24.2860  -27.2470 C   0  0  0  0  0  0  0  0  0  0  0  0
   -2.4332   20.3118  -26.4616 H   0  0  0  0  0  0  0  0  0  0  0  0
   -3.4186   19.7104  -27.8378 H   0  0  0  0  0  0  0  0  0  0  0  0
   -1.6377   19.4751  -27.8378 H   0  0  0  0  0  0  0  0  0  0  0  0
   -3.3279   19.8074  -30.1277 H   0  0  0  0  0  0  0  0  0  0  0  0
   -8.1498   19.1174  -31.6817 H   0  0  0  0  0  0  0  0  0  0  0  0
  -10.1691   20.3217  -30.8511 H   0  0  0  0  0  0  0  0  0  0  0  0
  -10.3023   22.8088  -31.0167 H   0  0  0  0  0  0  0  0  0  0  0  0
   -8.4055   24.0965  -32.0066 H   0  0  0  0  0  0  0  0  0  0  0  0
   -6.3805   22.9025  -32.8362 H   0  0  0  0  0  0  0  0  0  0  0  0
   -6.8670   18.9660  -34.3410 H   0  0  0  0  0  0  0  0  0  0  0  0
   -3.9995   16.8908  -34.4652 H   0  0  0  0  0  0  0  0  0  0  0  0
   -5.2208   17.5387  -35.6120 H   0  0  0  0  0  0  0  0  0  0  0  0
   -3.5500   18.1982  -35.6120 H   0  0  0  0  0  0  0  0  0  0  0  0
   -2.1732   19.2895  -31.9019 H   0  0  0  0  0  0  0  0  0  0  0  0
   -2.1447   18.3816  -33.4515 H   0  0  0  0  0  0  0  0  0  0  0  0
   -1.9320   20.1652  -33.4515 H   0  0  0  0  0  0  0  0  0  0  0  0
   -5.0057   23.0164  -32.4769 H   0  0  0  0  0  0  0  0  0  0  0  0
   -5.4933   25.7128  -29.3740 H   0  0  0  0  0  0  0  0  0  0  0  0
   -5.4072   26.6961  -30.8747 H   0  0  0  0  0  0  0  0  0  0  0  0
   -6.2921   25.1329  -30.8747 H   0  0  0  0  0  0  0  0  0  0  0  0
   -2.5816   23.9735  -26.4749 H   0  0  0  0  0  0  0  0  0  0  0  0
   -3.5150   25.3590  -27.1351 H   0  0  0  0  0  0  0  0  0  0  0  0
   -4.2315   23.7118  -27.1351 H   0  0  0  0  0  0  0  0  0  0  0  0
  1  2  1  0
  2  3  1  0
  3  4  2  0
  4  5  1  0
  5  6  1  0
  6  7  1  0
  7  8  1  0
  8  9  2  0
  9 10  1  0
 10 11  2  0
 11 12  1  0
 12 13  2  0
  7 14  2  0
 14 15  1  0
 15 16  1  0
 15 17  2  0
 17 18  1  0
  5 19  2  0
 19 20  1  0
 20 21  1  0
 21 22  1  0
 20 23  2  0
 23 24  1  0
 24 25  1  0
 23  3  1  0
 17  6  1  0
 13  8  1  0
  1 26  1  0
  1 27  1  0
  1 28  1  0
  4 29  1  0
  9 30  1  0
 10 31  1  0
 11 32  1  0
 12 33  1  0
 13 34  1  0
 14 35  1  0
 16 36  1  0
 16 37  1  0
 16 38  1  0
 18 39  1  0
 18 40  1  0
 18 41  1  0
 19 42  1  0
 22 43  1  0
 22 44  1  0
 22 45  1  0
 25 46  1  0
 25 47  1  0
 25 48  1  0
M  CHG  1  14   1
M  END
>  <UniqueID>  (37) 
37

>  <SMILES>  (37) 
COc1cc(-n2c(-c3ccccc3)[nH+]c(C)c2C)cc(OC)c1OC

>  <Energy>  (37) 
89.28510751637128

>  <Genealogy>  (37) 
COc1cc(-n2c(-c3ccccc3)[nH+]c(C)c2C)cc(OC)c1OC (protonated)
COc1cc(-n2c(-c3ccccc3)[nH+]c(C)c2C)cc(OC)c1OC (3D coordinates assigned)
COc1cc(-n2c(-c3ccccc3)[nH+]c(C)c2C)cc(OC)c1OC (optimized conformer: 89.28510751637128 kcal/mol)

>  <smiles>  (37) 
COc1cc(-n2c(-c3ccccc3)nc(C)c2C)cc(OC)c1OC

>  <score_type>  (37) 
oracle

>  <origin>  (37) 
adg

>  <m_score__min__energy>  (37) 
-7.7400000000000002

>  <m_primary>  (37) 
energy

$$$$
37:0
     RDKit          3D

 38 39  0  0  0  0  0  0  0  0999 V2000
   -2.6820   19.3440  -26.8180 C   0  0  0  0  0  0  0  0  0  0  0  0
   -2.1580   20.0720  -27.9230 O   0  0  0  0  0  0  0  0  0  0  0  0
   -2.8400   21.1020  -28.5870 C   0  0  0  0  0  0  0  0  0  0  0  0
   -3.5380   22.0420  -27.8180 C   0  0  0  0  0  0  0  0  0  0  0  0
   -4.2330   23.0870  -28.4320 C   0  0  0  0  0  0  0  0  0  0  0  0
   -4.2370   23.2070  -29.8290 C   0  0  0  0  0  0  0  0  0  0  0  0
   -5.1370   24.5030  -30.6140 S   0  0  0  0  0  0  0  0  0  0  0  0
   -6.2710   24.9500  -29.7320 O   0  0  0  0  0  0  0  0  0  0  0  0
   -4.2200   25.6720  -30.8390 O   0  0  0  0  0  0  0  0  0  0  0  0
   -5.7640   23.9650  -32.1420 N   0  0  0  0  0  0  0  0  0  0  0  0
   -6.7970   22.9480  -31.9250 C   0  0  0  0  0  0  0  0  0  0  0  0
   -6.3420   21.6070  -32.4350 C   0  0  0  0  0  0  0  0  0  0  0  0
   -5.2360   21.5130  -33.0340 O   0  0  0  0  0  0  0  0  0  0  0  0
   -7.1790   20.4450  -32.3070 N   0  0  0  0  0  0  0  0  0  0  0  0
   -6.7800   19.1290  -32.7770 C   0  0  0  0  0  0  0  0  0  0  0  0
   -7.8900   18.1830  -32.3370 C   0  0  0  0  0  0  0  0  0  0  0  0
   -9.0870   19.0700  -32.0010 C   0  0  0  0  0  0  0  0  0  0  0  0
   -8.5160   20.4570  -31.7390 C   0  0  0  0  0  0  0  0  0  0  0  0
   -3.5460   22.2670  -30.6030 C   0  0  0  0  0  0  0  0  0  0  0  0
   -2.8500   21.2220  -29.9910 C   0  0  0  0  0  0  0  0  0  0  0  0
   -2.3466   19.8100  -25.8797 H   0  0  0  0  0  0  0  0  0  0  0  0
   -3.7811   19.3544  -26.8601 H   0  0  0  0  0  0  0  0  0  0  0  0
   -2.3232   18.3050  -26.8601 H   0  0  0  0  0  0  0  0  0  0  0  0
   -3.5390   21.9567  -26.7213 H   0  0  0  0  0  0  0  0  0  0  0  0
   -4.7788   23.8180  -27.8174 H   0  0  0  0  0  0  0  0  0  0  0  0
   -4.9690   23.5160  -32.6530 H   0  0  0  0  0  0  0  0  0  0  0  0
   -7.0075   22.8718  -30.8480 H   0  0  0  0  0  0  0  0  0  0  0  0
   -7.7040   23.2442  -32.4723 H   0  0  0  0  0  0  0  0  0  0  0  0
   -6.6843   19.1254  -33.8728 H   0  0  0  0  0  0  0  0  0  0  0  0
   -5.8038   18.8294  -32.3679 H   0  0  0  0  0  0  0  0  0  0  0  0
   -8.1452   17.4879  -33.1505 H   0  0  0  0  0  0  0  0  0  0  0  0
   -7.5833   17.5743  -31.4736 H   0  0  0  0  0  0  0  0  0  0  0  0
   -9.7911   19.0991  -32.8456 H   0  0  0  0  0  0  0  0  0  0  0  0
   -9.6407   18.6894  -31.1301 H   0  0  0  0  0  0  0  0  0  0  0  0
   -9.1336   21.2247  -32.2280 H   0  0  0  0  0  0  0  0  0  0  0  0
   -8.4988   20.6929  -30.6647 H   0  0  0  0  0  0  0  0  0  0  0  0
   -3.5512   22.3519  -31.6997 H   0  0  0  0  0  0  0  0  0  0  0  0
   -2.3076   20.4899  -30.6074 H   0  0  0  0  0  0  0  0  0  0  0  0
  1  2  1  0
  2  3  1  0
  3  4  2  0
  4  5  1  0
  5  6  2  0
  6  7  1  0
  7  8  2  0
  7  9  2  0
  7 10  1  0
 10 11  1  0
 11 12  1  0
 12 13  2  0
 12 14  1  0
 14 15  1  0
 15 16  1  0
 16 17  1  0
 17 18  1  0
  6 19  1  0
 19 20  2  0
 20  3  1  0
 18 14  1  0
  1 21  1  0
  1 22  1  0
  1 23  1  0
  4 24  1  0
  5 25  1  0
 10 26  1  0
 11 27  1  0
 11 28  1  0
 15 29  1  0
 15 30  1  0
 16 31  1  0
 16 32  1  0
 17 33  1  0
 17 34  1  0
 18 35  1  0
 18 36  1  0
 19 37  1  0
 20 38  1  0
M  END
>  <UniqueID>  (38) 
38

>  <SMILES>  (38) 
COc1ccc(S(=O)(=O)NCC(=O)N2CCCC2)cc1

>  <Energy>  (38) 
32.06000184295274

>  <Genealogy>  (38) 
COc1ccc(S(=O)(=O)NCC(=O)N2CCCC2)cc1 (3D coordinates assigned)
COc1ccc(S(=O)(=O)NCC(=O)N2CCCC2)cc1 (nonaromatic ring conformer: 32.06000184295274 kcal/mol)

>  <smiles>  (38) 
COc1ccc(S(=O)(=O)NCC(=O)N2CCCC2)cc1

>  <score_type>  (38) 
oracle

>  <origin>  (38) 
adg

>  <m_score__min__energy>  (38) 
-7.3200000000000003

>  <m_primary>  (38) 
energy

$$$$
38:0
     RDKit          3D

 30 31  0  0  0  0  0  0  0  0999 V2000
   -3.5200   23.9210  -30.6080 C   0  0  0  0  0  0  0  0  0  0  0  0
   -4.0370   25.2960  -30.5900 N   0  0  0  0  0  0  0  0  0  0  0  0
   -5.3740   25.2990  -30.0030 C   0  0  0  0  0  0  0  0  0  0  0  0
   -6.2670   24.3000  -30.6420 C   0  0  0  0  0  0  0  0  0  0  0  0
   -7.0530   23.4310  -29.9200 C   0  0  0  0  0  0  0  0  0  0  0  0
   -7.8490   22.5410  -30.4940 N   0  0  0  0  0  0  0  0  0  0  0  0
   -7.9340   22.4320  -31.8640 C   0  0  0  0  0  0  0  0  0  0  0  0
   -8.7070   21.5680  -32.2840 N   0  0  0  0  0  0  0  0  0  0  0  0
   -8.9820   20.2300  -32.1550 C   0  0  0  0  0  0  0  0  0  0  0  0
   -7.8250   19.2750  -32.3440 C   0  0  0  0  0  0  0  0  0  0  0  0
   -7.5560   18.1160  -31.6250 C   0  0  0  0  0  0  0  0  0  0  0  0
   -6.4660   17.4330  -31.9380 C   0  0  0  0  0  0  0  0  0  0  0  0
   -5.6530   17.8690  -32.9330 C   0  0  0  0  0  0  0  0  0  0  0  0
   -6.5080   19.4410  -33.5190 S   0  0  0  0  0  0  0  0  0  0  0  0
   -7.1620   23.2840  -32.5510 N   0  0  0  0  0  0  0  0  0  0  0  0
   -6.3440   24.2000  -32.0130 C   0  0  0  0  0  0  0  0  0  0  0  0
   -3.3865   23.5659  -29.5755 H   0  0  0  0  0  0  0  0  0  0  0  0
   -4.2339   23.2677  -31.1310 H   0  0  0  0  0  0  0  0  0  0  0  0
   -2.5525   23.8999  -31.1310 H   0  0  0  0  0  0  0  0  0  0  0  0
   -4.1770   25.5820  -31.5900 H   0  0  0  0  0  0  0  0  0  0  0  0
   -5.2912   25.0663  -28.9311 H   0  0  0  0  0  0  0  0  0  0  0  0
   -5.8116   26.2955  -30.1626 H   0  0  0  0  0  0  0  0  0  0  0  0
   -7.0189   23.4773  -28.8215 H   0  0  0  0  0  0  0  0  0  0  0  0
   -9.3847   20.0690  -31.1441 H   0  0  0  0  0  0  0  0  0  0  0  0
   -9.6817   19.9998  -32.9720 H   0  0  0  0  0  0  0  0  0  0  0  0
   -8.2272   17.7774  -30.8220 H   0  0  0  0  0  0  0  0  0  0  0  0
   -6.2192   16.5112  -31.3909 H   0  0  0  0  0  0  0  0  0  0  0  0
   -4.7228   17.4155  -33.3058 H   0  0  0  0  0  0  0  0  0  0  0  0
   -7.1900   23.2430  -33.5830 H   0  0  0  0  0  0  0  0  0  0  0  0
   -5.7443   24.8607  -32.6563 H   0  0  0  0  0  0  0  0  0  0  0  0
  1  2  1  0
  2  3  1  0
  3  4  1  0
  4  5  1  0
  5  6  2  0
  6  7  1  0
  7  8  2  3
  8  9  1  0
  9 10  1  0
 10 11  2  0
 11 12  1  0
 12 13  2  0
 13 14  1  0
  7 15  1  0
 15 16  1  0
 16  4  2  0
 14 10  1  0
  1 17  1  0
  1 18  1  0
  1 19  1  0
  2 20  1  0
  3 21  1  0
  3 22  1  0
  5 23  1  0
  9 24  1  0
  9 25  1  0
 11 26  1  0
 12 27  1  0
 13 28  1  0
 15 29  1  0
 16 30  1  0
M  END
>  <smiles>  (39) 
CNCc1cnc(=NCc2cccs2)[nH]c1

>  <score_type>  (39) 
oracle

>  <origin>  (39) 
adg

>  <m_score__min__energy>  (39) 
-7.1699999999999999

>  <m_primary>  (39) 
energy

$$$$
39:0
     RDKit          3D

 69 74  0  0  0  0  0  0  0  0999 V2000
   -8.9190   20.9517  -31.7365 H   0  0  0  0  0  0  0  0  0  0  0  0
   -7.8330   20.9670  -31.9110 C   0  0  0  0  0  0  0  0  0  0  0  0
   -7.1540   22.0950  -31.6430 C   0  0  0  0  0  0  0  0  0  0  0  0
   -5.7840   22.2220  -31.1820 C   0  0  0  0  0  0  0  0  0  0  0  0
   -4.9040   21.2150  -30.9710 N   0  0  0  0  0  0  0  0  0  0  0  0
   -3.6410   21.4900  -30.5570 C   0  0  0  0  0  0  0  0  0  0  0  0
   -2.7530   20.4410  -30.3140 C   0  0  0  0  0  0  0  0  0  0  0  0
   -3.0856   19.4013  -30.4501 H   0  0  0  0  0  0  0  0  0  0  0  0
   -1.4350   20.7040  -29.8960 C   0  0  0  0  0  0  0  0  0  0  0  0
   -0.4930   19.6380  -29.6680 N   0  0  0  0  0  0  0  0  0  0  0  0
   -0.2780   19.3560  -28.6840 H   0  0  0  0  0  0  0  0  0  0  0  0
    0.2430   18.9460  -30.7290 C   0  0  0  0  0  0  0  0  0  0  0  0
    0.9635   19.6431  -31.1818 H   0  0  0  0  0  0  0  0  0  0  0  0
    0.7676   18.0846  -30.2900 H   0  0  0  0  0  0  0  0  0  0  0  0
   -0.7120   18.4390  -31.8110 C   0  0  0  0  0  0  0  0  0  0  0  0
   -0.7131   17.3390  -31.8115 H   0  0  0  0  0  0  0  0  0  0  0  0
   -1.7268   18.8094  -31.6037 H   0  0  0  0  0  0  0  0  0  0  0  0
   -0.2710   18.9320  -33.1380 N   0  0  0  0  0  0  0  0  0  0  0  0
   -1.1910   18.5340  -34.2190 C   0  0  0  0  0  0  0  0  0  0  0  0
   -0.7035   18.7206  -35.1872 H   0  0  0  0  0  0  0  0  0  0  0  0
   -1.4248   17.4668  -34.0911 H   0  0  0  0  0  0  0  0  0  0  0  0
   -2.5190   19.3240  -34.1680 C   0  0  0  0  0  0  0  0  0  0  0  0
   -2.7038   19.7654  -35.1585 H   0  0  0  0  0  0  0  0  0  0  0  0
   -3.3133   18.6192  -33.8812 H   0  0  0  0  0  0  0  0  0  0  0  0
   -2.5020   20.3600  -33.2080 O   0  0  0  0  0  0  0  0  0  0  0  0
   -1.3690   21.1770  -33.4000 C   0  0  0  0  0  0  0  0  0  0  0  0
   -1.3685   21.5504  -34.4347 H   0  0  0  0  0  0  0  0  0  0  0  0
   -1.4183   22.0104  -32.6837 H   0  0  0  0  0  0  0  0  0  0  0  0
   -0.0600   20.3960  -33.1470 C   0  0  0  0  0  0  0  0  0  0  0  0
    0.6591   20.6446  -33.9414 H   0  0  0  0  0  0  0  0  0  0  0  0
    0.3185   20.6869  -32.1560 H   0  0  0  0  0  0  0  0  0  0  0  0
   -1.0360   22.0380  -29.6940 C   0  0  0  0  0  0  0  0  0  0  0  0
    0.2250   22.3210  -29.2830 F   0  0  0  0  0  0  0  0  0  0  0  0
   -1.9250   23.0920  -29.9300 C   0  0  0  0  0  0  0  0  0  0  0  0
   -1.5969   24.1304  -29.7748 H   0  0  0  0  0  0  0  0  0  0  0  0
   -3.2340   22.8300  -30.3640 C   0  0  0  0  0  0  0  0  0  0  0  0
   -4.1720   23.8520  -30.6210 C   0  0  0  0  0  0  0  0  0  0  0  0
   -3.8670   25.0690  -30.4810 O   0  0  0  0  0  0  0  0  0  0  0  0
   -5.4250   23.5030  -31.0290 N   0  0  0  0  0  0  0  0  0  0  0  0
   -6.5230   24.4020  -31.3700 C   0  0  0  0  0  0  0  0  0  0  0  0
   -6.8210   24.9947  -30.4925 H   0  0  0  0  0  0  0  0  0  0  0  0
   -6.2365   25.1153  -32.1568 H   0  0  0  0  0  0  0  0  0  0  0  0
   -7.6880   23.4820  -31.8240 C   0  0  0  0  0  0  0  0  0  0  0  0
   -8.5780   23.6420  -31.1977 H   0  0  0  0  0  0  0  0  0  0  0  0
   -8.0020   23.6804  -32.8594 H   0  0  0  0  0  0  0  0  0  0  0  0
   -7.1840   19.7490  -32.4290 C   0  0  0  0  0  0  0  0  0  0  0  0
   -7.2070   18.5620  -31.6880 C   0  0  0  0  0  0  0  0  0  0  0  0
   -7.8261   18.4956  -30.7812 H   0  0  0  0  0  0  0  0  0  0  0  0
   -6.4500   17.4630  -32.0920 C   0  0  0  0  0  0  0  0  0  0  0  0
   -6.4581   16.5465  -31.4837 H   0  0  0  0  0  0  0  0  0  0  0  0
   -5.6700   17.5090  -33.2750 C   0  0  0  0  0  0  0  0  0  0  0  0
   -4.8070   16.3950  -33.6500 N   0  0  0  0  0  0  0  0  0  0  0  0
   -4.5580   15.3070  -32.6820 C   0  0  0  0  0  0  0  0  0  0  0  0
   -4.0589   15.7348  -31.8000 H   0  0  0  0  0  0  0  0  0  0  0  0
   -5.5352   14.8642  -32.4390 H   0  0  0  0  0  0  0  0  0  0  0  0
   -3.6800   14.1770  -33.2340 C   0  0  0  0  0  0  0  0  0  0  0  0
   -3.1832   13.6681  -32.3949 H   0  0  0  0  0  0  0  0  0  0  0  0
   -4.3243   13.4795  -33.7892 H   0  0  0  0  0  0  0  0  0  0  0  0
   -2.6990   14.6690  -34.1160 O   0  0  0  0  0  0  0  0  0  0  0  0
   -3.3480   15.1530  -35.2670 C   0  0  0  0  0  0  0  0  0  0  0  0
   -2.5984   15.3601  -36.0450 H   0  0  0  0  0  0  0  0  0  0  0  0
   -4.0607   14.3928  -35.6194 H   0  0  0  0  0  0  0  0  0  0  0  0
   -4.1120   16.4370  -34.9510 C   0  0  0  0  0  0  0  0  0  0  0  0
   -3.3987   17.2743  -34.9394 H   0  0  0  0  0  0  0  0  0  0  0  0
   -4.8807   16.5596  -35.7283 H   0  0  0  0  0  0  0  0  0  0  0  0
   -5.7420   18.6840  -34.0640 C   0  0  0  0  0  0  0  0  0  0  0  0
   -5.2009   18.7289  -35.0206 H   0  0  0  0  0  0  0  0  0  0  0  0
   -6.4920   19.7880  -33.6430 C   0  0  0  0  0  0  0  0  0  0  0  0
   -6.5372   20.6905  -34.2702 H   0  0  0  0  0  0  0  0  0  0  0  0
  1  2  1  0
  2  3  2  0
  3  4  1  0
  4  5  2  0
  5  6  1  0
  6  7  2  0
  7  8  1  0
  7  9  1  0
  9 10  1  0
 10 11  1  0
 10 12  1  0
 12 13  1  0
 12 14  1  0
 12 15  1  0
 15 16  1  0
 15 17  1  0
 15 18  1  0
 18 19  1  0
 19 20  1  0
 19 21  1  0
 19 22  1  0
 22 23  1  0
 22 24  1  0
 22 25  1  0
 25 26  1  0
 26 27  1  0
 26 28  1  0
 26 29  1  0
 29 30  1  0
 29 31  1  0
  9 32  2  0
 32 33  1  0
 32 34  1  0
 34 35  1  0
 34 36  2  0
 36 37  1  0
 37 38  2  0
 37 39  1  0
 39 40  1  0
 40 41  1  0
 40 42  1  0
 40 43  1  0
 43 44  1  0
 43 45  1  0
  2 46  1  0
 46 47  2  0
 47 48  1  0
 47 49  1  0
 49 50  1  0
 49 51  2  0
 51 52  1  0
 52 53  1  0
 53 54  1  0
 53 55  1  0
 53 56  1  0
 56 57  1  0
 56 58  1  0
 56 59  1  0
 59 60  1  0
 60 61  1  0
 60 62  1  0
 60 63  1  0
 63 64  1  0
 63 65  1  0
 51 66  1  0
 66 67  1  0
 66 68  2  0
 68 69  1  0
 43  3  1  0
 68 46  1  0
 39  4  1  0
 63 52  1  0
 36  6  1  0
 29 18  1  0
M  END
>  <UniqueID>  (40) 
39

>  <SMILES>  (40) 
O=c1c2cc(F)c(NCCN3CCOCC3)cc2nc2n1CC/C2=C/c1ccc(N2CCOCC2)cc1

>  <Energy>  (40) 
115.55947193225377

>  <Genealogy>  (40) 
O=c1c2cc(F)c(NCCN3CCOCC3)cc2nc2n1CC/C2=C/c1ccc(N2CCOCC2)cc1 (cis-trans isomerization)
O=c1c2cc(F)c(NCCN3CCOCC3)cc2nc2n1CC/C2=C/c1ccc(N2CCOCC2)cc1 (3D coordinates assigned)
O=c1c2cc(F)c(NCCN3CCOCC3)cc2nc2n1CC/C2=C/c1ccc(N2CCOCC2)cc1 (nonaromatic ring conformer: 115.55947193225377 kcal/mol)

>  <smiles>  (40) 
O=c1c2cc(F)c(NCCN3CCOCC3)cc2nc2n1CCC2=Cc1ccc(N2CCOCC2)cc1

>  <score_type>  (40) 
oracle

>  <origin>  (40) 
adg

>  <m_score__min__energy>  (40) 
-11.01

>  <m_primary>  (40) 
energy

$$$$
40:0
     RDKit          3D

 39 41  0  0  0  0  0  0  0  0999 V2000
   -1.6180   25.0490  -27.9490 C   0  0  0  0  0  0  0  0  0  0  0  0
   -2.3540   25.2940  -29.1420 O   0  0  0  0  0  0  0  0  0  0  0  0
   -3.1480   24.3380  -29.7930 C   0  0  0  0  0  0  0  0  0  0  0  0
   -4.3000   24.7720  -30.4580 C   0  0  0  0  0  0  0  0  0  0  0  0
   -5.1250   23.8580  -31.1200 C   0  0  0  0  0  0  0  0  0  0  0  0
   -4.8160   22.4870  -31.1150 C   0  0  0  0  0  0  0  0  0  0  0  0
   -5.6700   21.5060  -31.8190 C   0  0  0  0  0  0  0  0  0  0  0  0
   -7.0150   21.5030  -31.7180 N   0  0  0  0  0  0  0  0  0  0  0  0
   -7.4070   20.4500  -32.4640 C   0  0  0  0  0  0  0  0  0  0  0  0
   -9.1310   19.9850  -32.6440 S   0  0  0  0  0  0  0  0  0  0  0  0
   -8.9550   18.5050  -31.6030 C   0  0  0  0  0  0  0  0  0  0  0  0
   -6.3750   19.8000  -33.0440 N   0  0  0  0  0  0  0  0  0  0  0  0
   -6.4530   18.6270  -33.9150 C   0  0  0  0  0  0  0  0  0  0  0  0
   -5.2680   20.4510  -32.6310 C   0  0  0  0  0  0  0  0  0  0  0  0
   -3.8900   20.1410  -33.0720 C   0  0  0  0  0  0  0  0  0  0  0  0
   -3.0230   21.1690  -33.4660 C   0  0  0  0  0  0  0  0  0  0  0  0
   -1.7230   20.8560  -33.8690 C   0  0  0  0  0  0  0  0  0  0  0  0
   -1.3050   19.5620  -33.8780 N   0  0  0  0  0  0  0  0  0  0  0  0
   -2.1240   18.5460  -33.5000 C   0  0  0  0  0  0  0  0  0  0  0  0
   -3.4320   18.8160  -33.0890 C   0  0  0  0  0  0  0  0  0  0  0  0
   -3.6490   22.0540  -30.4660 C   0  0  0  0  0  0  0  0  0  0  0  0
   -2.8240   22.9680  -29.8050 C   0  0  0  0  0  0  0  0  0  0  0  0
   -2.2533   25.2605  -27.0763 H   0  0  0  0  0  0  0  0  0  0  0  0
   -1.2996   23.9964  -27.9243 H   0  0  0  0  0  0  0  0  0  0  0  0
   -0.7322   25.7007  -27.9243 H   0  0  0  0  0  0  0  0  0  0  0  0
   -4.5586   25.8412  -30.4599 H   0  0  0  0  0  0  0  0  0  0  0  0
   -6.0217   24.2142  -31.6482 H   0  0  0  0  0  0  0  0  0  0  0  0
   -8.9896   18.7962  -30.5428 H   0  0  0  0  0  0  0  0  0  0  0  0
   -9.7763   17.8056  -31.8182 H   0  0  0  0  0  0  0  0  0  0  0  0
   -7.9926   18.0177  -31.8182 H   0  0  0  0  0  0  0  0  0  0  0  0
   -6.5135   17.7170  -33.3000 H   0  0  0  0  0  0  0  0  0  0  0  0
   -7.3482   18.7006  -34.5499 H   0  0  0  0  0  0  0  0  0  0  0  0
   -5.5559   18.5815  -34.5499 H   0  0  0  0  0  0  0  0  0  0  0  0
   -3.3639   22.2148  -33.4579 H   0  0  0  0  0  0  0  0  0  0  0  0
   -1.0363   21.6572  -34.1795 H   0  0  0  0  0  0  0  0  0  0  0  0
   -1.7569   17.5092  -33.5175 H   0  0  0  0  0  0  0  0  0  0  0  0
   -4.0970   17.9956  -32.7813 H   0  0  0  0  0  0  0  0  0  0  0  0
   -3.3819   20.9870  -30.4778 H   0  0  0  0  0  0  0  0  0  0  0  0
   -1.9173   22.6154  -29.2917 H   0  0  0  0  0  0  0  0  0  0  0  0
  1  2  1  0
  2  3  1  0
  3  4  2  0
  4  5  1  0
  5  6  2  0
  6  7  1  0
  7  8  1  0
  8  9  2  0
  9 10  1  0
 10 11  1  0
  9 12  1  0
 12 13  1  0
 12 14  1  0
 14 15  1  0
 15 16  2  0
 16 17  1  0
 17 18  2  0
 18 19  1  0
 19 20  2  0
  6 21  1  0
 21 22  2  0
 22  3  1  0
 14  7  2  0
 20 15  1  0
  1 23  1  0
  1 24  1  0
  1 25  1  0
  4 26  1  0
  5 27  1  0
 11 28  1  0
 11 29  1  0
 11 30  1  0
 13 31  1  0
 13 32  1  0
 13 33  1  0
 16 34  1  0
 17 35  1  0
 19 36  1  0
 20 37  1  0
 21 38  1  0
 22 39  1  0
M  END
>  <UniqueID>  (41) 
40

>  <SMILES>  (41) 
COc1ccc(-c2nc(SC)n(C)c2-c2ccncc2)cc1

>  <Energy>  (41) 
75.84452748364039

>  <Genealogy>  (41) 
COc1ccc(-c2nc(SC)n(C)c2-c2ccncc2)cc1 (3D coordinates assigned)
COc1ccc(-c2nc(SC)n(C)c2-c2ccncc2)cc1 (optimized conformer: 75.84452748364039 kcal/mol)

>  <smiles>  (41) 
COc1ccc(-c2nc(SC)n(C)c2-c2ccncc2)cc1

>  <score_type>  (41) 
oracle

>  <origin>  (41) 
adg

>  <m_score__min__energy>  (41) 
-7.6600000000000001

>  <m_primary>  (41) 
energy

$$$$
