0:0
     RDKit          3D

 37 39  0  0  0  0  0  0  0  0999 V2000
    2.4920   25.4202  -27.2585 H   0  0  0  0  0  0  0  0  0  0  0  0
    1.4070   25.5040  -27.0980 C   0  0  0  0  0  0  0  0  0  0  0  0
    0.5440   24.9200  -27.9710 N   0  0  0  0  0  0  0  0  0  0  0  0
   -0.8080   24.9970  -27.8130 C   0  0  0  0  0  0  0  0  0  0  0  0
   -1.7000   24.3410  -28.7920 C   0  0  0  0  0  0  0  0  0  0  0  0
   -2.7560   24.9880  -29.3570 N   0  0  0  0  0  0  0  0  0  0  0  0
   -3.4300   24.1890  -30.2130 C   0  0  0  0  0  0  0  0  0  0  0  0
   -4.4620   24.5640  -30.9070 N   0  0  0  0  0  0  0  0  0  0  0  0
   -5.8080   24.6850  -30.4210 C   0  0  0  0  0  0  0  0  0  0  0  0
   -6.2970   25.8090  -30.1220 O   0  0  0  0  0  0  0  0  0  0  0  0
   -6.6590   23.4600  -30.3200 C   0  0  0  0  0  0  0  0  0  0  0  0
   -7.1750   23.4586  -29.3485 H   0  0  0  0  0  0  0  0  0  0  0  0
   -6.0134   22.5742  -30.4125 H   0  0  0  0  0  0  0  0  0  0  0  0
   -7.9030   23.4200  -31.6590 S   0  0  0  0  0  0  0  0  0  0  0  0
   -7.7180   21.6670  -32.0040 C   0  0  0  0  0  0  0  0  0  0  0  0
   -8.7760   20.7840  -31.7580 C   0  0  0  0  0  0  0  0  0  0  0  0
   -9.7327   21.1672  -31.3735 H   0  0  0  0  0  0  0  0  0  0  0  0
   -8.6190   19.4160  -32.0000 C   0  0  0  0  0  0  0  0  0  0  0  0
   -9.4551   18.7266  -31.8113 H   0  0  0  0  0  0  0  0  0  0  0  0
   -7.3980   18.9190  -32.4830 C   0  0  0  0  0  0  0  0  0  0  0  0
   -7.2350   17.4560  -32.7700 C   0  0  0  0  0  0  0  0  0  0  0  0
   -7.1732   16.9011  -31.8222 H   0  0  0  0  0  0  0  0  0  0  0  0
   -8.0988   17.0975  -33.3491 H   0  0  0  0  0  0  0  0  0  0  0  0
   -6.3135   17.2964  -33.3491 H   0  0  0  0  0  0  0  0  0  0  0  0
   -6.3500   19.8110  -32.7560 C   0  0  0  0  0  0  0  0  0  0  0  0
   -5.3988   19.4328  -33.1586 H   0  0  0  0  0  0  0  0  0  0  0  0
   -6.5110   21.1780  -32.5180 C   0  0  0  0  0  0  0  0  0  0  0  0
   -5.6864   21.8729  -32.7352 H   0  0  0  0  0  0  0  0  0  0  0  0
   -2.7500   22.6610  -30.3190 S   0  0  0  0  0  0  0  0  0  0  0  0
   -1.5350   23.0180  -29.2110 C   0  0  0  0  0  0  0  0  0  0  0  0
   -0.7466   22.3287  -28.8744 H   0  0  0  0  0  0  0  0  0  0  0  0
   -1.3330   25.7020  -26.7170 C   0  0  0  0  0  0  0  0  0  0  0  0
   -2.4213   25.7752  -26.5746 H   0  0  0  0  0  0  0  0  0  0  0  0
   -0.4620   26.3090  -25.8100 C   0  0  0  0  0  0  0  0  0  0  0  0
   -0.8623   26.8642  -24.9489 H   0  0  0  0  0  0  0  0  0  0  0  0
    0.9170   26.2100  -25.9980 C   0  0  0  0  0  0  0  0  0  0  0  0
    1.6105   26.6831  -25.2872 H   0  0  0  0  0  0  0  0  0  0  0  0
  1  2  1  0
  2  3  2  0
  3  4  1  0
  4  5  1  0
  5  6  1  0
  6  7  1  0
  7  8  2  0
  8  9  1  0
  9 10  2  0
  9 11  1  0
 11 12  1  0
 11 13  1  0
 11 14  1  0
 14 15  1  0
 15 16  2  0
 16 17  1  0
 16 18  1  0
 18 19  1  0
 18 20  2  0
 20 21  1  0
 21 22  1  0
 21 23  1  0
 21 24  1  0
 20 25  1  0
 25 26  1  0
 25 27  2  0
 27 28  1  0
  7 29  1  0
 29 30  1  0
 30 31  1  0
  4 32  2  0
 32 33  1  0
 32 34  1  0
 34 35  1  0
 34 36  2  0
 36 37  1  0
 36  2  1  0
 30  5  2  0
 27 15  1  0
M  CHG  1   6  -1
M  END
>  <UniqueID>  (1) 
1

>  <SMILES>  (1) 
Cc1ccc(SCC(=O)/N=c2\[n-]c(-c3ccccn3)cs2)cc1

>  <Energy>  (1) 
64.98961100346469

>  <Genealogy>  (1) 
Cc1ccc(SCC(=O)N=c2[n-]c(-c3ccccn3)cs2)cc1 (protonated)
Cc1ccc(SCC(=O)/N=c2\[n-]c(-c3ccccn3)cs2)cc1 (cis-trans isomerization)
Cc1ccc(SCC(=O)/N=c2\[n-]c(-c3ccccn3)cs2)cc1 (3D coordinates assigned)
Cc1ccc(SCC(=O)/N=c2\[n-]c(-c3ccccn3)cs2)cc1 (optimized conformer: 64.98961100346469 kcal/mol)

>  <smiles>  (1) 
Cc1ccc(SCC(=O)N=c2[nH]c(-c3ccccn3)cs2)cc1

>  <score_type>  (1) 
oracle

>  <origin>  (1) 
adg

>  <m_score__min__energy>  (1) 
-10.369999999999999

>  <m_primary>  (1) 
energy

$$$$
1:0
     RDKit          3D

 42 42  0  0  0  0  0  0  0  0999 V2000
   -7.9780   18.3920  -32.2900 C   0  0  0  0  0  0  0  0  0  0  0  0
   -9.0030   19.5260  -32.3240 C   0  0  0  0  0  0  0  0  0  0  0  0
   -8.7370   20.5990  -31.2570 C   0  0  0  0  0  0  0  0  0  0  0  0
   -8.3810   21.9640  -31.8610 C   0  0  0  0  0  0  0  0  0  0  0  0
   -7.0740   22.4230  -31.3170 N   0  0  0  0  0  0  0  0  0  0  0  0
   -5.9650   21.5240  -31.7110 C   0  0  0  0  0  0  0  0  0  0  0  0
   -4.8200   22.3040  -32.3560 C   0  0  0  0  0  0  0  0  0  0  0  0
   -6.7760   23.8200  -31.7120 C   0  0  0  0  0  0  0  0  0  0  0  0
   -6.5970   24.7200  -30.4810 C   0  0  0  0  0  0  0  0  0  0  0  0
   -5.1570   24.7910  -30.0670 C   0  0  0  0  0  0  0  0  0  0  0  0
   -4.3200   25.3380  -30.8350 O   0  0  0  0  0  0  0  0  0  0  0  0
   -4.7590   24.3170  -28.7710 N   0  0  0  0  0  0  0  0  0  0  0  0
   -3.3930   24.2150  -28.3350 C   0  0  0  0  0  0  0  0  0  0  0  0
   -2.3880   23.7070  -29.1780 C   0  0  0  0  0  0  0  0  0  0  0  0
   -1.0710   23.6000  -28.7200 C   0  0  0  0  0  0  0  0  0  0  0  0
   -0.7480   23.9840  -27.4150 C   0  0  0  0  0  0  0  0  0  0  0  0
    1.0510   23.8330  -26.7910 Br  0  0  0  0  0  0  0  0  0  0  0  0
   -1.7450   24.4690  -26.5640 C   0  0  0  0  0  0  0  0  0  0  0  0
   -3.0630   24.5770  -27.0190 C   0  0  0  0  0  0  0  0  0  0  0  0
   -7.7477   18.1372  -31.2450 H   0  0  0  0  0  0  0  0  0  0  0  0
   -8.3908   17.5092  -32.8003 H   0  0  0  0  0  0  0  0  0  0  0  0
   -7.0582   18.7138  -32.8003 H   0  0  0  0  0  0  0  0  0  0  0  0
   -8.9699   20.0004  -33.3159 H   0  0  0  0  0  0  0  0  0  0  0  0
   -9.9900   19.0876  -32.1150 H   0  0  0  0  0  0  0  0  0  0  0  0
   -9.6407   20.7127  -30.6402 H   0  0  0  0  0  0  0  0  0  0  0  0
   -7.8747   20.2660  -30.6607 H   0  0  0  0  0  0  0  0  0  0  0  0
   -8.3111   21.8736  -32.9551 H   0  0  0  0  0  0  0  0  0  0  0  0
   -9.1621   22.6939  -31.6019 H   0  0  0  0  0  0  0  0  0  0  0  0
   -5.5873   21.0075  -30.8162 H   0  0  0  0  0  0  0  0  0  0  0  0
   -6.3489   20.8004  -32.4452 H   0  0  0  0  0  0  0  0  0  0  0  0
   -4.1835   22.7376  -31.5706 H   0  0  0  0  0  0  0  0  0  0  0  0
   -4.2205   21.6257  -32.9809 H   0  0  0  0  0  0  0  0  0  0  0  0
   -5.2318   23.1102  -32.9809 H   0  0  0  0  0  0  0  0  0  0  0  0
   -5.8497   23.8352  -32.3051 H   0  0  0  0  0  0  0  0  0  0  0  0
   -7.6216   24.2024  -32.3026 H   0  0  0  0  0  0  0  0  0  0  0  0
   -6.9515   25.7330  -30.7223 H   0  0  0  0  0  0  0  0  0  0  0  0
   -7.1782   24.2939  -29.6500 H   0  0  0  0  0  0  0  0  0  0  0  0
   -5.5120   24.1210  -28.0730 H   0  0  0  0  0  0  0  0  0  0  0  0
   -2.6391   23.3926  -30.2018 H   0  0  0  0  0  0  0  0  0  0  0  0
   -0.2874   23.2129  -29.3880 H   0  0  0  0  0  0  0  0  0  0  0  0
   -1.4927   24.7661  -25.5353 H   0  0  0  0  0  0  0  0  0  0  0  0
   -3.8463   24.9479  -26.3416 H   0  0  0  0  0  0  0  0  0  0  0  0
  1  2  1  0
  2  3  1  0
  3  4  1  0
  4  5  1  0
  5  6  1  0
  6  7  1  0
  5  8  1  0
  8  9  1  0
  9 10  1  0
 10 11  2  0
 10 12  1  0
 12 13  1  0
 13 14  2  0
 14 15  1  0
 15 16  2  0
 16 17  1  0
 16 18  1  0
 18 19  2  0
 19 13  1  0
  1 20  1  0
  1 21  1  0
  1 22  1  0
  2 23  1  0
  2 24  1  0
  3 25  1  0
  3 26  1  0
  4 27  1  0
  4 28  1  0
  6 29  1  0
  6 30  1  0
  7 31  1  0
  7 32  1  0
  7 33  1  0
  8 34  1  0
  8 35  1  0
  9 36  1  0
  9 37  1  0
 12 38  1  0
 14 39  1  0
 15 40  1  0
 18 41  1  0
 19 42  1  0
M  END
>  <UniqueID>  (2) 
2

>  <SMILES>  (2) 
CCCCN(CC)CCC(=O)Nc1ccc(Br)cc1

>  <Energy>  (2) 
35.714115077975094

>  <Genealogy>  (2) 
CCCCN(CC)CCC(=O)Nc1ccc(Br)cc1 (3D coordinates assigned)
CCCCN(CC)CCC(=O)Nc1ccc(Br)cc1 (optimized conformer: 35.714115077975094 kcal/mol)

>  <smiles>  (2) 
CCCCN(CC)CCC(=O)Nc1ccc(Br)cc1

>  <score_type>  (2) 
oracle

>  <origin>  (2) 
adg

>  <m_score__min__energy>  (2) 
-7.4400000000000004

>  <m_primary>  (2) 
energy

$$$$
2:0
     RDKit          3D

 58 60  0  0  0  0  0  0  0  0999 V2000
    1.1390   22.1340  -35.6600 C   0  0  0  0  0  0  0  0  0  0  0  0
   -0.0960   22.1490  -34.8730 N   0  0  0  0  0  0  0  0  0  0  0  0
    0.0720   21.4510  -33.5890 C   0  0  0  0  0  0  0  0  0  0  0  0
   -0.2170   19.9420  -33.7150 C   0  0  0  0  0  0  0  0  0  0  0  0
   -0.5060   19.5120  -35.0940 N   0  0  0  0  0  0  0  0  0  0  0  0
   -0.1170   18.1180  -35.3410 C   0  0  0  0  0  0  0  0  0  0  0  0
   -1.1990   17.2030  -34.8370 C   0  0  0  0  0  0  0  0  0  0  0  0
   -1.0180   15.8140  -34.8630 C   0  0  0  0  0  0  0  0  0  0  0  0
   -2.0380   14.9620  -34.4330 C   0  0  0  0  0  0  0  0  0  0  0  0
   -3.2650   15.4850  -33.9810 C   0  0  0  0  0  0  0  0  0  0  0  0
   -4.3180   14.6470  -33.5770 O   0  0  0  0  0  0  0  0  0  0  0  0
   -4.2910   13.8120  -32.4230 C   0  0  0  0  0  0  0  0  0  0  0  0
   -3.4520   16.8840  -33.9540 C   0  0  0  0  0  0  0  0  0  0  0  0
   -4.7240   17.4780  -33.4780 C   0  0  0  0  0  0  0  0  0  0  0  0
   -5.3780   18.4670  -34.2320 C   0  0  0  0  0  0  0  0  0  0  0  0
   -6.5840   19.0160  -33.7870 C   0  0  0  0  0  0  0  0  0  0  0  0
   -7.1540   18.5800  -32.5830 C   0  0  0  0  0  0  0  0  0  0  0  0
   -8.6840   19.2450  -32.0170 S   0  0  0  0  0  0  0  0  0  0  0  0
   -9.4500   18.2030  -31.2490 O   0  0  0  0  0  0  0  0  0  0  0  0
   -9.5000   19.6590  -33.2130 O   0  0  0  0  0  0  0  0  0  0  0  0
   -8.3750   20.6300  -30.9990 N   0  0  0  0  0  0  0  0  0  0  0  0
   -7.0370   21.1780  -31.2920 C   0  0  0  0  0  0  0  0  0  0  0  0
   -6.9400   22.6400  -30.8260 C   0  0  0  0  0  0  0  0  0  0  0  0
   -7.8720   23.5120  -31.4550 O   0  0  0  0  0  0  0  0  0  0  0  0
   -9.0200   22.8510  -31.9680 C   0  0  0  0  0  0  0  0  0  0  0  0
   -9.4530   21.6370  -31.1250 C   0  0  0  0  0  0  0  0  0  0  0  0
   -6.5130   17.5860  -31.8340 C   0  0  0  0  0  0  0  0  0  0  0  0
   -5.3070   17.0380  -32.2780 C   0  0  0  0  0  0  0  0  0  0  0  0
   -2.4200   17.7300  -34.3970 C   0  0  0  0  0  0  0  0  0  0  0  0
    2.0055   22.1235  -34.9824 H   0  0  0  0  0  0  0  0  0  0  0  0
    1.1587   21.2356  -36.2944 H   0  0  0  0  0  0  0  0  0  0  0  0
    1.1805   23.0317  -36.2944 H   0  0  0  0  0  0  0  0  0  0  0  0
   -0.8200   21.6320  -35.4240 H   0  0  0  0  0  0  0  0  0  0  0  0
    1.1070   21.5875  -33.2424 H   0  0  0  0  0  0  0  0  0  0  0  0
   -0.6449   21.8775  -32.8719 H   0  0  0  0  0  0  0  0  0  0  0  0
    0.6622   19.3879  -33.3546 H   0  0  0  0  0  0  0  0  0  0  0  0
   -1.1159   19.7337  -33.1161 H   0  0  0  0  0  0  0  0  0  0  0  0
   -0.0100   20.1350  -35.7720 H   0  0  0  0  0  0  0  0  0  0  0  0
    0.0231   17.9615  -36.4208 H   0  0  0  0  0  0  0  0  0  0  0  0
    0.8244   17.8996  -34.8156 H   0  0  0  0  0  0  0  0  0  0  0  0
   -0.0682   15.3924  -35.2237 H   0  0  0  0  0  0  0  0  0  0  0  0
   -1.8815   13.8733  -34.4475 H   0  0  0  0  0  0  0  0  0  0  0  0
   -4.3112   14.4367  -31.5178 H   0  0  0  0  0  0  0  0  0  0  0  0
   -5.1682   13.1483  -32.4301 H   0  0  0  0  0  0  0  0  0  0  0  0
   -3.3728   13.2063  -32.4301 H   0  0  0  0  0  0  0  0  0  0  0  0
   -4.9378   18.8117  -35.1793 H   0  0  0  0  0  0  0  0  0  0  0  0
   -7.0868   19.7919  -34.3830 H   0  0  0  0  0  0  0  0  0  0  0  0
   -6.2778   20.5796  -30.7670 H   0  0  0  0  0  0  0  0  0  0  0  0
   -6.8665   21.1387  -32.3780 H   0  0  0  0  0  0  0  0  0  0  0  0
   -7.1171   22.6694  -29.7408 H   0  0  0  0  0  0  0  0  0  0  0  0
   -5.9362   22.9955  -31.1017 H   0  0  0  0  0  0  0  0  0  0  0  0
   -9.8522   23.5697  -31.9979 H   0  0  0  0  0  0  0  0  0  0  0  0
   -8.7593   22.4758  -32.9687 H   0  0  0  0  0  0  0  0  0  0  0  0
   -9.7316   21.9853  -30.1195 H   0  0  0  0  0  0  0  0  0  0  0  0
  -10.3035   21.1592  -31.6333 H   0  0  0  0  0  0  0  0  0  0  0  0
   -6.9606   17.2351  -30.8924 H   0  0  0  0  0  0  0  0  0  0  0  0
   -4.8105   16.2566  -31.6839 H   0  0  0  0  0  0  0  0  0  0  0  0
   -2.5734   18.8193  -34.3981 H   0  0  0  0  0  0  0  0  0  0  0  0
  1  2  1  0
  2  3  1  0
  3  4  1  0
  4  5  1  0
  5  6  1  0
  6  7  1  0
  7  8  2  0
  8  9  1  0
  9 10  2  0
 10 11  1  0
 11 12  1  0
 10 13  1  0
 13 14  1  0
 14 15  2  0
 15 16  1  0
 16 17  2  0
 17 18  1  0
 18 19  2  0
 18 20  2  0
 18 21  1  0
 21 22  1  0
 22 23  1  0
 23 24  1  0
 24 25  1  0
 25 26  1  0
 17 27  1  0
 27 28  2  0
 13 29  2  0
 29  7  1  0
 28 14  1  0
 26 21  1  0
  1 30  1  0
  1 31  1  0
  1 32  1  0
  2 33  1  0
  3 34  1  0
  3 35  1  0
  4 36  1  0
  4 37  1  0
  5 38  1  0
  6 39  1  0
  6 40  1  0
  8 41  1  0
  9 42  1  0
 12 43  1  0
 12 44  1  0
 12 45  1  0
 15 46  1  0
 16 47  1  0
 22 48  1  0
 22 49  1  0
 23 50  1  0
 23 51  1  0
 25 52  1  0
 25 53  1  0
 26 54  1  0
 26 55  1  0
 27 56  1  0
 28 57  1  0
 29 58  1  0
M  END
>  <UniqueID>  (3) 
3

>  <SMILES>  (3) 
CNCCNCc1ccc(OC)c(-c2ccc(S(=O)(=O)N3CCOCC3)cc2)c1

>  <Energy>  (3) 
74.39177984959005

>  <Genealogy>  (3) 
CNCCNCc1ccc(OC)c(-c2ccc(S(=O)(=O)N3CCOCC3)cc2)c1 (3D coordinates assigned)
CNCCNCc1ccc(OC)c(-c2ccc(S(=O)(=O)N3CCOCC3)cc2)c1 (nonaromatic ring conformer: 74.39177984959005 kcal/mol)

>  <smiles>  (3) 
CNCCNCc1ccc(OC)c(-c2ccc(S(=O)(=O)N3CCOCC3)cc2)c1

>  <score_type>  (3) 
oracle

>  <origin>  (3) 
adg

>  <m_score__min__energy>  (3) 
-8.7899999999999991

>  <m_primary>  (3) 
energy

$$$$
3:0
     RDKit          3D

 43 46  0  0  1  0  0  0  0  0999 V2000
   -0.4480   20.8020  -30.7050 C   0  0  0  0  0  0  0  0  0  0  0  0
   -1.6500   21.5490  -31.0340 N   0  0  0  0  0  0  0  0  0  0  0  0
   -2.5030   21.2930  -32.0040 N   0  0  0  0  0  0  0  0  0  0  0  0
   -3.5060   22.1950  -32.0160 C   0  0  0  0  0  0  0  0  0  0  0  0
   -3.2470   23.0640  -30.9810 C   0  0  0  0  0  0  0  0  0  0  0  0
   -3.8780   24.1950  -30.4620 C   0  0  0  0  0  0  0  0  0  0  0  0
   -4.9620   24.5590  -31.0470 N   0  0  0  0  0  0  0  0  0  0  0  0
   -6.1090   23.7260  -30.9390 C   0  0  0  0  0  0  0  0  0  0  0  0
   -6.8590   23.5340  -32.1030 C   0  0  0  0  0  0  0  0  0  0  0  0
   -7.9890   22.7430  -32.0970 C   0  0  0  0  0  0  0  0  0  0  0  0
   -8.3710   22.1370  -30.9130 C   0  0  0  0  0  0  0  0  0  0  0  0
   -7.6140   22.3410  -29.7690 C   0  0  0  0  0  0  0  0  0  0  0  0
   -6.4850   23.1230  -29.7450 C   0  0  0  0  0  0  0  0  0  0  0  0
   -3.3480   24.8390  -29.4040 N   0  0  0  0  0  0  0  0  0  0  0  0
   -2.2090   24.4380  -28.8050 C   0  0  0  0  0  0  0  0  0  0  0  0
   -1.6410   25.1110  -27.6870 N   0  0  0  0  0  0  0  0  0  0  0  0
   -2.1770   24.8150  -26.3510 C   0  0  0  0  0  0  0  0  0  0  0  0
   -2.3430   26.0330  -25.5070 C   0  0  0  0  0  0  0  0  0  0  0  0
   -0.9650   26.6650  -25.3690 C   0  0  0  0  0  0  0  0  0  0  0  0
   -0.5970   27.1490  -26.7550 C   0  0  0  0  0  0  0  0  0  0  0  0
   -0.5740   26.0620  -27.7800 C   0  0  0  0  0  0  0  0  0  0  0  0
   -1.6160   23.3470  -29.3200 N   0  0  0  0  0  0  0  0  0  0  0  0
   -2.0800   22.6530  -30.3680 C   0  0  0  0  0  0  0  0  0  0  0  0
   -0.3441   20.7374  -29.6118 H   0  0  0  0  0  0  0  0  0  0  0  0
   -0.5190   19.7887  -31.1270 H   0  0  0  0  0  0  0  0  0  0  0  0
    0.4291   21.3143  -31.1270 H   0  0  0  0  0  0  0  0  0  0  0  0
   -4.3575   22.2289  -32.7115 H   0  0  0  0  0  0  0  0  0  0  0  0
   -6.5433   24.0209  -33.0375 H   0  0  0  0  0  0  0  0  0  0  0  0
   -8.5755   22.5967  -33.0161 H   0  0  0  0  0  0  0  0  0  0  0  0
   -9.2667   21.4994  -30.8795 H   0  0  0  0  0  0  0  0  0  0  0  0
   -7.9330   21.8532  -28.8361 H   0  0  0  0  0  0  0  0  0  0  0  0
   -5.9044   23.2655  -28.8216 H   0  0  0  0  0  0  0  0  0  0  0  0
   -3.8600   25.6740  -29.0610 H   0  0  0  0  0  0  0  0  0  0  0  0
   -3.1585   24.3319  -26.4662 H   0  0  0  0  0  0  0  0  0  0  0  0
   -1.4537   24.1594  -25.8440 H   0  0  0  0  0  0  0  0  0  0  0  0
   -3.0357   26.7373  -25.9909 H   0  0  0  0  0  0  0  0  0  0  0  0
   -2.7594   25.7762  -24.5218 H   0  0  0  0  0  0  0  0  0  0  0  0
   -0.9987   27.5089  -24.6642 H   0  0  0  0  0  0  0  0  0  0  0  0
   -0.2266   25.9489  -24.9792 H   0  0  0  0  0  0  0  0  0  0  0  0
   -1.3325   27.9054  -27.0662 H   0  0  0  0  0  0  0  0  0  0  0  0
    0.4224   27.5580  -26.6946 H   0  0  0  0  0  0  0  0  0  0  0  0
   -0.6222   26.5309  -28.7739 H   0  0  0  0  0  0  0  0  0  0  0  0
    0.3534   25.4972  -27.6040 H   0  0  0  0  0  0  0  0  0  0  0  0
  1  2  1  0
  2  3  1  0
  3  4  2  0
  4  5  1  0
  5  6  1  0
  6  7  2  0
  7  8  1  0
  8  9  2  0
  9 10  1  0
 10 11  2  0
 11 12  1  0
 12 13  2  0
  6 14  1  0
 14 15  1  0
 15 16  1  0
 16 17  1  0
 17 18  1  0
 18 19  1  0
 19 20  1  0
 20 21  1  0
 15 22  2  0
 22 23  1  0
 23  2  1  0
 23  5  2  0
 13  8  1  0
 21 16  1  0
  1 24  1  0
  1 25  1  0
  1 26  1  0
  4 27  1  0
  9 28  1  0
 10 29  1  0
 11 30  1  0
 12 31  1  0
 13 32  1  0
 14 33  1  0
 17 34  1  0
 17 35  1  0
 18 36  1  0
 18 37  1  0
 19 38  1  0
 19 39  1  0
 20 40  1  0
 20 41  1  0
 21 42  1  0
 21 43  1  0
M  END
>  <smiles>  (4) 
Cn1ncc2c(=Nc3ccccc3)[nH]c(N3CCCCC3)nc21

>  <score_type>  (4) 
oracle

>  <origin>  (4) 
adg

>  <m_score__min__energy>  (4) 
-7.7300000000000004

>  <m_primary>  (4) 
energy

$$$$
4:0
     RDKit          3D

 32 33  0  0  0  0  0  0  0  0999 V2000
   -5.0460   25.4110  -30.8310 C   0  0  0  0  0  0  0  0  0  0  0  0
   -3.6910   25.2960  -30.4060 O   0  0  0  0  0  0  0  0  0  0  0  0
   -3.2610   24.4940  -29.3390 C   0  0  0  0  0  0  0  0  0  0  0  0
   -3.9260   23.3100  -28.9730 C   0  0  0  0  0  0  0  0  0  0  0  0
   -3.4570   22.5470  -27.9020 C   0  0  0  0  0  0  0  0  0  0  0  0
   -2.3290   22.9550  -27.1890 C   0  0  0  0  0  0  0  0  0  0  0  0
   -1.6450   24.1370  -27.5360 C   0  0  0  0  0  0  0  0  0  0  0  0
   -0.4160   24.5510  -26.7320 C   0  0  0  0  0  0  0  0  0  0  0  0
    0.1690   23.4070  -25.8720 C   0  0  0  0  0  0  0  0  0  0  0  0
   -0.4100   23.3420  -24.4510 C   0  0  0  0  0  0  0  0  0  0  0  0
   -0.3530   24.6530  -23.7900 N   0  0  0  0  0  0  0  0  0  0  0  0
   -1.1460   25.6530  -24.5150 C   0  0  0  0  0  0  0  0  0  0  0  0
   -0.6160   25.8640  -25.9410 C   0  0  0  0  0  0  0  0  0  0  0  0
   -2.1300   24.8970  -28.6190 C   0  0  0  0  0  0  0  0  0  0  0  0
   -5.7030   25.4668  -29.9505 H   0  0  0  0  0  0  0  0  0  0  0  0
   -5.1646   26.3224  -31.4353 H   0  0  0  0  0  0  0  0  0  0  0  0
   -5.3165   24.5326  -31.4353 H   0  0  0  0  0  0  0  0  0  0  0  0
   -4.8164   22.9848  -29.5311 H   0  0  0  0  0  0  0  0  0  0  0  0
   -3.9786   21.6208  -27.6192 H   0  0  0  0  0  0  0  0  0  0  0  0
   -1.9695   22.3466  -26.3460 H   0  0  0  0  0  0  0  0  0  0  0  0
    0.3561   24.7756  -27.4826 H   0  0  0  0  0  0  0  0  0  0  0  0
   -0.0407   22.4520  -26.3760 H   0  0  0  0  0  0  0  0  0  0  0  0
    1.2469   23.6014  -25.7704 H   0  0  0  0  0  0  0  0  0  0  0  0
   -1.4585   23.0139  -24.5061 H   0  0  0  0  0  0  0  0  0  0  0  0
    0.1902   22.6312  -23.8641 H   0  0  0  0  0  0  0  0  0  0  0  0
   -0.7390   24.5560  -22.8220 H   0  0  0  0  0  0  0  0  0  0  0  0
    0.6420   24.9720  -23.7160 H   0  0  0  0  0  0  0  0  0  0  0  0
   -2.1902   25.3112  -24.5685 H   0  0  0  0  0  0  0  0  0  0  0  0
   -1.0746   26.6086  -23.9748 H   0  0  0  0  0  0  0  0  0  0  0  0
   -1.3335   26.4929  -26.4883 H   0  0  0  0  0  0  0  0  0  0  0  0
    0.3729   26.3368  -25.8489 H   0  0  0  0  0  0  0  0  0  0  0  0
   -1.6105   25.8238  -28.9039 H   0  0  0  0  0  0  0  0  0  0  0  0
  1  2  1  0
  2  3  1  0
  3  4  2  0
  4  5  1  0
  5  6  2  0
  6  7  1  0
  7  8  1  0
  8  9  1  0
  9 10  1  0
 10 11  1  0
 11 12  1  0
 12 13  1  0
  7 14  2  0
 14  3  1  0
 13  8  1  0
  1 15  1  0
  1 16  1  0
  1 17  1  0
  4 18  1  0
  5 19  1  0
  6 20  1  0
  8 21  1  0
  9 22  1  0
  9 23  1  0
 10 24  1  0
 10 25  1  0
 11 26  1  0
 11 27  1  0
 12 28  1  0
 12 29  1  0
 13 30  1  0
 13 31  1  0
 14 32  1  0
M  CHG  1  11   1
M  END
>  <UniqueID>  (5) 
4

>  <SMILES>  (5) 
COc1cccc(C2CC[NH2+]CC2)c1

>  <Energy>  (5) 
33.14436049281176

>  <Genealogy>  (5) 
COc1cccc(C2CC[NH2+]CC2)c1 (protonated)
COc1cccc(C2CC[NH2+]CC2)c1 (3D coordinates assigned)
COc1cccc(C2CC[NH2+]CC2)c1 (nonaromatic ring conformer: 33.14436049281176 kcal/mol)

>  <smiles>  (5) 
COc1cccc(C2CCNCC2)c1

>  <score_type>  (5) 
oracle

>  <origin>  (5) 
adg

>  <m_score__min__energy>  (5) 
-6.1699999999999999

>  <m_primary>  (5) 
energy

$$$$
5:0
     RDKit          3D

 40 41  0  0  0  0  0  0  0  0999 V2000
   -8.0218   25.1431  -29.9532 H   0  0  0  0  0  0  0  0  0  0  0  0
   -7.2280   24.5430  -30.4220 C   0  0  0  0  0  0  0  0  0  0  0  0
   -7.5620   23.4520  -31.2240 C   0  0  0  0  0  0  0  0  0  0  0  0
   -8.6185   23.1912  -31.3844 H   0  0  0  0  0  0  0  0  0  0  0  0
   -6.5580   22.6910  -31.8230 C   0  0  0  0  0  0  0  0  0  0  0  0
   -6.8271   21.8269  -32.4482 H   0  0  0  0  0  0  0  0  0  0  0  0
   -5.2040   23.0210  -31.6330 C   0  0  0  0  0  0  0  0  0  0  0  0
   -4.1310   22.1840  -32.2900 C   0  0  0  0  0  0  0  0  0  0  0  0
   -4.2633   22.2238  -33.3813 H   0  0  0  0  0  0  0  0  0  0  0  0
   -3.1495   22.5889  -32.0024 H   0  0  0  0  0  0  0  0  0  0  0  0
   -4.2020   20.8010  -31.8550 N   0  0  0  0  0  0  0  0  0  0  0  0
   -4.9070   19.8630  -32.4040 C   0  0  0  0  0  0  0  0  0  0  0  0
   -4.5740   19.3070  -33.7790 C   0  0  0  0  0  0  0  0  0  0  0  0
   -4.4664   20.1524  -34.4745 H   0  0  0  0  0  0  0  0  0  0  0  0
   -3.6486   18.7234  -33.6645 H   0  0  0  0  0  0  0  0  0  0  0  0
   -5.6100   18.3630  -34.3410 C   0  0  0  0  0  0  0  0  0  0  0  0
   -5.4540   17.9390  -35.4760 O   0  0  0  0  0  0  0  0  0  0  0  0
   -6.7870   17.8700  -33.5410 C   0  0  0  0  0  0  0  0  0  0  0  0
   -7.6290   17.6965  -34.2272 H   0  0  0  0  0  0  0  0  0  0  0  0
   -6.4745   16.9464  -33.0318 H   0  0  0  0  0  0  0  0  0  0  0  0
   -7.2380   18.8680  -32.4510 C   0  0  0  0  0  0  0  0  0  0  0  0
   -7.8800   20.1200  -33.0930 C   0  0  0  0  0  0  0  0  0  0  0  0
   -8.2286   20.7999  -32.3017 H   0  0  0  0  0  0  0  0  0  0  0  0
   -7.1348   20.6351  -33.7170 H   0  0  0  0  0  0  0  0  0  0  0  0
   -8.7332   19.8155  -33.7170 H   0  0  0  0  0  0  0  0  0  0  0  0
   -8.2900   18.1870  -31.5530 C   0  0  0  0  0  0  0  0  0  0  0  0
   -8.0331   18.3533  -30.4964 H   0  0  0  0  0  0  0  0  0  0  0  0
   -9.2818   18.6149  -31.7609 H   0  0  0  0  0  0  0  0  0  0  0  0
   -8.3057   17.1069  -31.7609 H   0  0  0  0  0  0  0  0  0  0  0  0
   -6.0210   19.2620  -31.5860 C   0  0  0  0  0  0  0  0  0  0  0  0
   -6.3445   19.9975  -30.8348 H   0  0  0  0  0  0  0  0  0  0  0  0
   -5.6347   18.3471  -31.1130 H   0  0  0  0  0  0  0  0  0  0  0  0
   -4.8620   24.1160  -30.8110 C   0  0  0  0  0  0  0  0  0  0  0  0
   -3.5050   24.4190  -30.6130 O   0  0  0  0  0  0  0  0  0  0  0  0
   -2.6560   23.7570  -29.6810 C   0  0  0  0  0  0  0  0  0  0  0  0
   -2.9727   24.0039  -28.6569 H   0  0  0  0  0  0  0  0  0  0  0  0
   -2.7220   22.6696  -29.8331 H   0  0  0  0  0  0  0  0  0  0  0  0
   -1.6175   24.0861  -29.8331 H   0  0  0  0  0  0  0  0  0  0  0  0
   -5.8880   24.8750  -30.2130 C   0  0  0  0  0  0  0  0  0  0  0  0
   -5.6313   25.7351  -29.5771 H   0  0  0  0  0  0  0  0  0  0  0  0
  1  2  1  0
  2  3  2  0
  3  4  1  0
  3  5  1  0
  5  6  1  0
  5  7  2  0
  7  8  1  0
  8  9  1  0
  8 10  1  0
  8 11  1  0
 11 12  2  0
 12 13  1  0
 13 14  1  0
 13 15  1  0
 13 16  1  0
 16 17  2  0
 16 18  1  0
 18 19  1  0
 18 20  1  0
 18 21  1  0
 21 22  1  0
 22 23  1  0
 22 24  1  0
 22 25  1  0
 21 26  1  0
 26 27  1  0
 26 28  1  0
 26 29  1  0
 21 30  1  0
 30 31  1  0
 30 32  1  0
  7 33  1  0
 33 34  1  0
 34 35  1  0
 35 36  1  0
 35 37  1  0
 35 38  1  0
 33 39  2  0
 39 40  1  0
 39  2  1  0
 30 12  1  0
M  END
>  <UniqueID>  (6) 
5

>  <SMILES>  (6) 
COc1ccccc1C/N=C1\CC(=O)CC(C)(C)C1

>  <Energy>  (6) 
36.00164122018215

>  <Genealogy>  (6) 
COc1ccccc1C/N=C1\CC(=O)CC(C)(C)C1 (cis-trans isomerization)
COc1ccccc1C/N=C1\CC(=O)CC(C)(C)C1 (3D coordinates assigned)
COc1ccccc1C/N=C1\CC(=O)CC(C)(C)C1 (nonaromatic ring conformer: 36.00164122018215 kcal/mol)

>  <smiles>  (6) 
COc1ccccc1CN=C1CC(=O)CC(C)(C)C1

>  <score_type>  (6) 
oracle

>  <origin>  (6) 
adg

>  <m_score__min__energy>  (6) 
-7.8499999999999996

>  <m_primary>  (6) 
energy

$$$$
6:0
     RDKit          3D

 36 38  0  0  0  0  0  0  0  0999 V2000
   -4.6160   22.6050  -31.8560 C   0  0  0  0  0  0  0  0  0  0  0  0
   -5.2160   23.7400  -31.0860 C   0  0  0  0  0  0  0  0  0  0  0  0
   -4.5670   24.9040  -30.8720 N   0  0  0  0  0  0  0  0  0  0  0  0
   -5.4380   25.6420  -30.1530 C   0  0  0  0  0  0  0  0  0  0  0  0
   -6.5940   24.9210  -29.9450 C   0  0  0  0  0  0  0  0  0  0  0  0
   -6.4530   23.7270  -30.5440 N   0  0  0  0  0  0  0  0  0  0  0  0
   -7.4220   22.6320  -30.5170 C   0  0  0  0  0  0  0  0  0  0  0  0
   -7.9730   22.3740  -31.9220 C   0  0  0  0  0  0  0  0  0  0  0  0
   -9.4430   22.4920  -31.9120 N   0  0  0  0  0  0  0  0  0  0  0  0
  -10.1140   21.1860  -31.9910 C   0  0  0  0  0  0  0  0  0  0  0  0
   -9.1130   20.0730  -32.0020 C   0  0  0  0  0  0  0  0  0  0  0  0
   -8.4250   19.6780  -33.0870 N   0  0  0  0  0  0  0  0  0  0  0  0
   -7.6190   18.7180  -32.5910 C   0  0  0  0  0  0  0  0  0  0  0  0
   -6.6190   17.9750  -33.3790 C   0  0  0  0  0  0  0  0  0  0  0  0
   -6.4600   16.5820  -33.2930 C   0  0  0  0  0  0  0  0  0  0  0  0
   -5.4560   16.0830  -34.1110 C   0  0  0  0  0  0  0  0  0  0  0  0
   -4.7680   17.3730  -34.9360 S   0  0  0  0  0  0  0  0  0  0  0  0
   -5.7340   18.5760  -34.2700 C   0  0  0  0  0  0  0  0  0  0  0  0
   -7.8180   18.5390  -31.2680 N   0  0  0  0  0  0  0  0  0  0  0  0
   -8.7440   19.3930  -30.9430 O   0  0  0  0  0  0  0  0  0  0  0  0
   -4.2197   21.8554  -31.1552 H   0  0  0  0  0  0  0  0  0  0  0  0
   -5.3877   22.1430  -32.4893 H   0  0  0  0  0  0  0  0  0  0  0  0
   -3.7997   22.9825  -32.4893 H   0  0  0  0  0  0  0  0  0  0  0  0
   -5.2536   26.6633  -29.7884 H   0  0  0  0  0  0  0  0  0  0  0  0
   -7.4775   25.2634  -29.3862 H   0  0  0  0  0  0  0  0  0  0  0  0
   -6.9292   21.7206  -30.1477 H   0  0  0  0  0  0  0  0  0  0  0  0
   -8.2538   22.9071  -29.8518 H   0  0  0  0  0  0  0  0  0  0  0  0
   -7.5522   23.1123  -32.6205 H   0  0  0  0  0  0  0  0  0  0  0  0
   -7.6924   21.3595  -32.2413 H   0  0  0  0  0  0  0  0  0  0  0  0
   -9.7310   23.0370  -32.7590 H   0  0  0  0  0  0  0  0  0  0  0  0
  -10.7755   21.0673  -31.1202 H   0  0  0  0  0  0  0  0  0  0  0  0
  -10.6965   21.1451  -32.9232 H   0  0  0  0  0  0  0  0  0  0  0  0
   -8.4890   20.0480  -34.0610 H   0  0  0  0  0  0  0  0  0  0  0  0
   -7.0740   15.9460  -32.6384 H   0  0  0  0  0  0  0  0  0  0  0  0
   -5.1624   15.0269  -34.2027 H   0  0  0  0  0  0  0  0  0  0  0  0
   -5.6770   19.6506  -34.4982 H   0  0  0  0  0  0  0  0  0  0  0  0
  1  2  1  0
  2  3  2  0
  3  4  1  0
  4  5  2  0
  5  6  1  0
  6  7  1  0
  7  8  1  0
  8  9  1  0
  9 10  1  0
 10 11  1  0
 11 12  2  0
 12 13  1  0
 13 14  1  0
 14 15  1  0
 15 16  2  0
 16 17  1  0
 17 18  1  0
 13 19  2  0
 19 20  1  0
  6  2  1  0
 20 11  1  0
 18 14  2  0
  1 21  1  0
  1 22  1  0
  1 23  1  0
  4 24  1  0
  5 25  1  0
  7 26  1  0
  7 27  1  0
  8 28  1  0
  8 29  1  0
  9 30  1  0
 10 31  1  0
 10 32  1  0
 12 33  1  0
 15 34  1  0
 16 35  1  0
 18 36  1  0
M  CHG  1  12   1
M  END
>  <UniqueID>  (7) 
6

>  <SMILES>  (7) 
Cc1nccn1CCNCc1[nH+]c(-c2ccsc2)no1

>  <Energy>  (7) 
121.54801457252539

>  <Genealogy>  (7) 
Cc1nccn1CCNCc1[nH+]c(-c2ccsc2)no1 (protonated)
Cc1nccn1CCNCc1[nH+]c(-c2ccsc2)no1 (3D coordinates assigned)
Cc1nccn1CCNCc1[nH+]c(-c2ccsc2)no1 (optimized conformer: 121.54801457252539 kcal/mol)

>  <smiles>  (7) 
Cc1nccn1CCNCc1nc(-c2ccsc2)no1

>  <score_type>  (7) 
oracle

>  <origin>  (7) 
adg

>  <m_score__min__energy>  (7) 
-7.1299999999999999

>  <m_primary>  (7) 
energy

$$$$
7:0
     RDKit          3D

 37 39  0  0  0  0  0  0  0  0999 V2000
   -2.9100   21.7400  -31.3430 O   0  0  0  0  0  0  0  0  0  0  0  0
   -3.8740   21.8680  -32.1440 C   0  0  0  0  0  0  0  0  0  0  0  0
   -3.7790   21.3240  -33.4710 N   0  0  0  0  0  0  0  0  0  0  0  0
   -2.6230   20.5540  -33.9220 C   0  0  0  0  0  0  0  0  0  0  0  0
   -2.6570   19.1420  -33.3300 C   0  0  0  0  0  0  0  0  0  0  0  0
   -4.0190   18.5290  -33.5030 C   0  0  0  0  0  0  0  0  0  0  0  0
   -4.8340   18.2830  -32.3840 C   0  0  0  0  0  0  0  0  0  0  0  0
   -6.0870   17.6840  -32.5430 C   0  0  0  0  0  0  0  0  0  0  0  0
   -6.5320   17.3170  -33.8160 C   0  0  0  0  0  0  0  0  0  0  0  0
   -5.7220   17.5450  -34.9320 C   0  0  0  0  0  0  0  0  0  0  0  0
   -4.4680   18.1440  -34.7780 C   0  0  0  0  0  0  0  0  0  0  0  0
   -5.0710   22.6420  -31.7490 C   0  0  0  0  0  0  0  0  0  0  0  0
   -4.8700   23.8860  -31.2320 N   0  0  0  0  0  0  0  0  0  0  0  0
   -5.8840   24.6670  -30.7840 C   0  0  0  0  0  0  0  0  0  0  0  0
   -7.1960   24.2060  -30.8310 C   0  0  0  0  0  0  0  0  0  0  0  0
   -7.4630   22.9430  -31.3700 C   0  0  0  0  0  0  0  0  0  0  0  0
   -8.7860   22.4780  -31.4470 C   0  0  0  0  0  0  0  0  0  0  0  0
   -9.0620   21.2370  -32.0200 C   0  0  0  0  0  0  0  0  0  0  0  0
   -8.0260   20.4560  -32.5300 C   0  0  0  0  0  0  0  0  0  0  0  0
   -6.7030   20.9020  -32.4580 C   0  0  0  0  0  0  0  0  0  0  0  0
   -6.3970   22.1410  -31.8550 C   0  0  0  0  0  0  0  0  0  0  0  0
   -4.5500   21.5050  -34.1530 H   0  0  0  0  0  0  0  0  0  0  0  0
   -2.6383   20.4870  -35.0199 H   0  0  0  0  0  0  0  0  0  0  0  0
   -1.7053   21.0592  -33.5864 H   0  0  0  0  0  0  0  0  0  0  0  0
   -1.9113   18.5168  -33.8428 H   0  0  0  0  0  0  0  0  0  0  0  0
   -2.4287   19.2020  -32.2556 H   0  0  0  0  0  0  0  0  0  0  0  0
   -4.4842   18.5630  -31.3794 H   0  0  0  0  0  0  0  0  0  0  0  0
   -6.7237   17.5012  -31.6648 H   0  0  0  0  0  0  0  0  0  0  0  0
   -7.5196   16.8487  -33.9396 H   0  0  0  0  0  0  0  0  0  0  0  0
   -6.0716   17.2527  -35.9332 H   0  0  0  0  0  0  0  0  0  0  0  0
   -3.8305   18.3146  -35.6580 H   0  0  0  0  0  0  0  0  0  0  0  0
   -5.6687   25.6681  -30.3822 H   0  0  0  0  0  0  0  0  0  0  0  0
   -8.0168   24.8298  -30.4473 H   0  0  0  0  0  0  0  0  0  0  0  0
   -9.6075   23.0950  -31.0539 H   0  0  0  0  0  0  0  0  0  0  0  0
  -10.0991   20.8737  -32.0697 H   0  0  0  0  0  0  0  0  0  0  0  0
   -8.2508   19.4832  -32.9917 H   0  0  0  0  0  0  0  0  0  0  0  0
   -5.8947   20.2829  -32.8743 H   0  0  0  0  0  0  0  0  0  0  0  0
  1  2  2  0
  2  3  1  0
  3  4  1  0
  4  5  1  0
  5  6  1  0
  6  7  2  0
  7  8  1  0
  8  9  2  0
  9 10  1  0
 10 11  2  0
  2 12  1  0
 12 13  2  0
 13 14  1  0
 14 15  2  0
 15 16  1  0
 16 17  2  0
 17 18  1  0
 18 19  2  0
 19 20  1  0
 20 21  2  0
 11  6  1  0
 21 12  1  0
 21 16  1  0
  3 22  1  0
  4 23  1  0
  4 24  1  0
  5 25  1  0
  5 26  1  0
  7 27  1  0
  8 28  1  0
  9 29  1  0
 10 30  1  0
 11 31  1  0
 14 32  1  0
 15 33  1  0
 17 34  1  0
 18 35  1  0
 19 36  1  0
 20 37  1  0
M  END
>  <UniqueID>  (8) 
7

>  <SMILES>  (8) 
O=C(NCCc1ccccc1)c1nccc2ccccc12

>  <Energy>  (8) 
44.914133271949694

>  <Genealogy>  (8) 
O=C(NCCc1ccccc1)c1nccc2ccccc12 (3D coordinates assigned)
O=C(NCCc1ccccc1)c1nccc2ccccc12 (optimized conformer: 44.914133271949694 kcal/mol)

>  <smiles>  (8) 
O=C(NCCc1ccccc1)c1nccc2ccccc12

>  <score_type>  (8) 
oracle

>  <origin>  (8) 
adg

>  <m_score__min__energy>  (8) 
-8.5500000000000007

>  <m_primary>  (8) 
energy

$$$$
8:0
     RDKit          3D

 55 57  0  0  0  0  0  0  0  0999 V2000
   -2.1820   20.8140  -32.6010 C   0  0  0  0  0  0  0  0  0  0  0  0
   -1.5280   21.5970  -31.4610 C   0  0  0  0  0  0  0  0  0  0  0  0
   -2.4860   22.0750  -30.4410 N   0  0  0  0  0  0  0  0  0  0  0  0
   -3.1070   21.0030  -29.6200 C   0  0  0  0  0  0  0  0  0  0  0  0
   -2.7260   21.0210  -28.1310 C   0  0  0  0  0  0  0  0  0  0  0  0
   -2.0520   23.2990  -29.7310 C   0  0  0  0  0  0  0  0  0  0  0  0
   -3.2410   24.2310  -29.4740 C   0  0  0  0  0  0  0  0  0  0  0  0
   -3.9230   24.5200  -30.6930 O   0  0  0  0  0  0  0  0  0  0  0  0
   -5.3150   24.4490  -30.8380 C   0  0  0  0  0  0  0  0  0  0  0  0
   -6.0450   25.3890  -30.4180 O   0  0  0  0  0  0  0  0  0  0  0  0
   -5.9270   23.2700  -31.4890 C   0  0  0  0  0  0  0  0  0  0  0  0
   -7.3150   23.0540  -31.4240 C   0  0  0  0  0  0  0  0  0  0  0  0
   -7.8870   21.9380  -32.0410 C   0  0  0  0  0  0  0  0  0  0  0  0
   -7.0840   21.0120  -32.7270 C   0  0  0  0  0  0  0  0  0  0  0  0
   -7.6790   19.8780  -33.3880 N   0  0  0  0  0  0  0  0  0  0  0  0
   -7.5540   18.6810  -32.5460 C   0  0  0  0  0  0  0  0  0  0  0  0
   -6.5050   17.8080  -33.0670 N   0  0  0  0  0  0  0  0  0  0  0  0
   -5.7620   18.0070  -34.2710 C   0  0  0  0  0  0  0  0  0  0  0  0
   -6.1000   18.8000  -35.1890 O   0  0  0  0  0  0  0  0  0  0  0  0
   -4.5550   17.1890  -34.2570 C   0  0  0  0  0  0  0  0  0  0  0  0
   -3.5380   17.0470  -35.2020 C   0  0  0  0  0  0  0  0  0  0  0  0
   -2.4700   16.1850  -34.8970 C   0  0  0  0  0  0  0  0  0  0  0  0
   -2.4380   15.4920  -33.6670 C   0  0  0  0  0  0  0  0  0  0  0  0
   -3.4720   15.6570  -32.7280 C   0  0  0  0  0  0  0  0  0  0  0  0
   -4.5220   16.5130  -33.0560 C   0  0  0  0  0  0  0  0  0  0  0  0
   -5.7090   16.8990  -32.3010 C   0  0  0  0  0  0  0  0  0  0  0  0
   -5.9920   16.5180  -31.1340 O   0  0  0  0  0  0  0  0  0  0  0  0
   -5.7000   21.2350  -32.8030 C   0  0  0  0  0  0  0  0  0  0  0  0
   -5.1260   22.3500  -32.1870 C   0  0  0  0  0  0  0  0  0  0  0  0
   -2.8342   20.0332  -32.1826 H   0  0  0  0  0  0  0  0  0  0  0  0
   -2.7804   21.4987  -33.2200 H   0  0  0  0  0  0  0  0  0  0  0  0
   -1.4017   20.3471  -33.2200 H   0  0  0  0  0  0  0  0  0  0  0  0
   -0.7932   20.9436  -30.9679 H   0  0  0  0  0  0  0  0  0  0  0  0
   -1.0640   22.4883  -31.9085 H   0  0  0  0  0  0  0  0  0  0  0  0
   -4.1996   21.1066  -29.6938 H   0  0  0  0  0  0  0  0  0  0  0  0
   -2.7300   20.0510  -30.0220 H   0  0  0  0  0  0  0  0  0  0  0  0
   -3.6386   20.9779  -27.5185 H   0  0  0  0  0  0  0  0  0  0  0  0
   -2.0910   20.1519  -27.9045 H   0  0  0  0  0  0  0  0  0  0  0  0
   -2.1757   21.9461  -27.9045 H   0  0  0  0  0  0  0  0  0  0  0  0
   -1.6009   23.0165  -28.7684 H   0  0  0  0  0  0  0  0  0  0  0  0
   -1.3189   23.8282  -30.3575 H   0  0  0  0  0  0  0  0  0  0  0  0
   -3.9381   23.7442  -28.7761 H   0  0  0  0  0  0  0  0  0  0  0  0
   -2.8682   25.1722  -29.0436 H   0  0  0  0  0  0  0  0  0  0  0  0
   -7.9545   23.7678  -30.8842 H   0  0  0  0  0  0  0  0  0  0  0  0
   -8.9749   21.7836  -31.9890 H   0  0  0  0  0  0  0  0  0  0  0  0
   -7.2040   19.7110  -34.3060 H   0  0  0  0  0  0  0  0  0  0  0  0
   -8.6910   20.0690  -33.5790 H   0  0  0  0  0  0  0  0  0  0  0  0
   -7.2993   18.9833  -31.5195 H   0  0  0  0  0  0  0  0  0  0  0  0
   -8.5100   18.1369  -32.5496 H   0  0  0  0  0  0  0  0  0  0  0  0
   -3.5710   17.5929  -36.1564 H   0  0  0  0  0  0  0  0  0  0  0  0
   -1.6536   16.0494  -35.6216 H   0  0  0  0  0  0  0  0  0  0  0  0
   -1.5982   14.8182  -33.4416 H   0  0  0  0  0  0  0  0  0  0  0  0
   -3.4527   15.1268  -31.7644 H   0  0  0  0  0  0  0  0  0  0  0  0
   -5.0625   20.5263  -33.3519 H   0  0  0  0  0  0  0  0  0  0  0  0
   -4.0393   22.5089  -32.2488 H   0  0  0  0  0  0  0  0  0  0  0  0
  1  2  1  0
  2  3  1  0
  3  4  1  0
  4  5  1  0
  3  6  1  0
  6  7  1  0
  7  8  1  0
  8  9  1  0
  9 10  2  0
  9 11  1  0
 11 12  2  0
 12 13  1  0
 13 14  2  0
 14 15  1  0
 15 16  1  0
 16 17  1  0
 17 18  1  0
 18 19  2  0
 18 20  1  0
 20 21  2  0
 21 22  1  0
 22 23  2  0
 23 24  1  0
 24 25  2  0
 25 26  1  0
 26 27  2  0
 14 28  1  0
 28 29  2  0
 29 11  1  0
 26 17  1  0
 25 20  1  0
  1 30  1  0
  1 31  1  0
  1 32  1  0
  2 33  1  0
  2 34  1  0
  4 35  1  0
  4 36  1  0
  5 37  1  0
  5 38  1  0
  5 39  1  0
  6 40  1  0
  6 41  1  0
  7 42  1  0
  7 43  1  0
 12 44  1  0
 13 45  1  0
 15 46  1  0
 15 47  1  0
 16 48  1  0
 16 49  1  0
 21 50  1  0
 22 51  1  0
 23 52  1  0
 24 53  1  0
 28 54  1  0
 29 55  1  0
M  CHG  1  15   1
M  END
>  <UniqueID>  (9) 
8

>  <SMILES>  (9) 
CCN(CC)CCOC(=O)c1ccc([NH2+]CN2C(=O)c3ccccc3C2=O)cc1

>  <Energy>  (9) 
91.81974689062848

>  <Genealogy>  (9) 
CCN(CC)CCOC(=O)c1ccc([NH2+]CN2C(=O)c3ccccc3C2=O)cc1 (protonated)
CCN(CC)CCOC(=O)c1ccc([NH2+]CN2C(=O)c3ccccc3C2=O)cc1 (3D coordinates assigned)
CCN(CC)CCOC(=O)c1ccc([NH2+]CN2C(=O)c3ccccc3C2=O)cc1 (nonaromatic ring conformer: 91.81974689062848 kcal/mol)

>  <smiles>  (9) 
CCN(CC)CCOC(=O)c1ccc(NCN2C(=O)c3ccccc3C2=O)cc1

>  <score_type>  (9) 
oracle

>  <origin>  (9) 
adg

>  <m_score__min__energy>  (9) 
-7.96

>  <m_primary>  (9) 
energy

$$$$
9:0
     RDKit          3D

 33 35  0  0  0  0  0  0  0  0999 V2000
   -4.1130   16.5720  -33.1140 C   0  0  0  0  0  0  0  0  0  0  0  0
   -4.6790   17.5070  -34.5680 S   0  0  0  0  0  0  0  0  0  0  0  0
   -4.2970   19.0980  -33.8300 C   0  0  0  0  0  0  0  0  0  0  0  0
   -3.1510   19.7630  -34.0470 N   0  0  0  0  0  0  0  0  0  0  0  0
   -3.2280   20.9310  -33.4280 N   0  0  0  0  0  0  0  0  0  0  0  0
   -4.4420   20.9670  -32.8380 C   0  0  0  0  0  0  0  0  0  0  0  0
   -4.8990   22.0910  -31.9930 C   0  0  0  0  0  0  0  0  0  0  0  0
   -6.0080   22.8520  -32.4010 C   0  0  0  0  0  0  0  0  0  0  0  0
   -6.4660   23.9140  -31.6170 C   0  0  0  0  0  0  0  0  0  0  0  0
   -5.8270   24.2250  -30.4150 C   0  0  0  0  0  0  0  0  0  0  0  0
   -6.4540   25.6770  -29.3470 Br  0  0  0  0  0  0  0  0  0  0  0  0
   -4.7260   23.4720  -29.9960 C   0  0  0  0  0  0  0  0  0  0  0  0
   -4.2570   22.4070  -30.7750 C   0  0  0  0  0  0  0  0  0  0  0  0
   -2.7000   21.4650  -30.1650 Br  0  0  0  0  0  0  0  0  0  0  0  0
   -5.1350   19.8250  -33.0630 N   0  0  0  0  0  0  0  0  0  0  0  0
   -6.4900   19.5100  -32.6970 C   0  0  0  0  0  0  0  0  0  0  0  0
   -7.5440   20.3550  -33.0830 C   0  0  0  0  0  0  0  0  0  0  0  0
   -8.8590   20.0520  -32.7200 C   0  0  0  0  0  0  0  0  0  0  0  0
   -9.1320   18.9040  -31.9710 C   0  0  0  0  0  0  0  0  0  0  0  0
   -8.0890   18.0580  -31.5840 C   0  0  0  0  0  0  0  0  0  0  0  0
   -6.7720   18.3590  -31.9450 C   0  0  0  0  0  0  0  0  0  0  0  0
   -4.4282   17.0927  -32.1978 H   0  0  0  0  0  0  0  0  0  0  0  0
   -4.5526   15.5638  -33.1325 H   0  0  0  0  0  0  0  0  0  0  0  0
   -3.0159   16.4940  -33.1325 H   0  0  0  0  0  0  0  0  0  0  0  0
   -2.3370   19.4440  -34.6160 H   0  0  0  0  0  0  0  0  0  0  0  0
   -6.5191   22.6097  -33.3444 H   0  0  0  0  0  0  0  0  0  0  0  0
   -7.3319   24.5064  -31.9474 H   0  0  0  0  0  0  0  0  0  0  0  0
   -4.2248   23.7178  -29.0481 H   0  0  0  0  0  0  0  0  0  0  0  0
   -7.3332   21.2589  -33.6734 H   0  0  0  0  0  0  0  0  0  0  0  0
   -9.6802   20.7177  -33.0241 H   0  0  0  0  0  0  0  0  0  0  0  0
  -10.1676   18.6664  -31.6862 H   0  0  0  0  0  0  0  0  0  0  0  0
   -8.3043   17.1544  -30.9948 H   0  0  0  0  0  0  0  0  0  0  0  0
   -5.9537   17.6909  -31.6383 H   0  0  0  0  0  0  0  0  0  0  0  0
  1  2  1  0
  2  3  1  0
  3  4  2  0
  4  5  1  0
  5  6  2  0
  6  7  1  0
  7  8  2  0
  8  9  1  0
  9 10  2  0
 10 11  1  0
 10 12  1  0
 12 13  2  0
 13 14  1  0
  6 15  1  0
 15 16  1  0
 16 17  2  0
 17 18  1  0
 18 19  2  0
 19 20  1  0
 20 21  2  0
 15  3  1  0
 21 16  1  0
 13  7  1  0
  1 22  1  0
  1 23  1  0
  1 24  1  0
  4 25  1  0
  8 26  1  0
  9 27  1  0
 12 28  1  0
 17 29  1  0
 18 30  1  0
 19 31  1  0
 20 32  1  0
 21 33  1  0
M  CHG  1   4   1
M  END
>  <UniqueID>  (10) 
9

>  <SMILES>  (10) 
CSc1[nH+]nc(-c2ccc(Br)cc2Br)n1-c1ccccc1

>  <Energy>  (10) 
77.4993127745663

>  <Genealogy>  (10) 
CSc1[nH+]nc(-c2ccc(Br)cc2Br)n1-c1ccccc1 (protonated)
CSc1[nH+]nc(-c2ccc(Br)cc2Br)n1-c1ccccc1 (3D coordinates assigned)
CSc1[nH+]nc(-c2ccc(Br)cc2Br)n1-c1ccccc1 (optimized conformer: 77.4993127745663 kcal/mol)

>  <smiles>  (10) 
CSc1nnc(-c2ccc(Br)cc2Br)n1-c1ccccc1

>  <score_type>  (10) 
oracle

>  <origin>  (10) 
adg

>  <m_score__min__energy>  (10) 
-7.9199999999999999

>  <m_primary>  (10) 
energy

$$$$
10:0
     RDKit          3D

 39 41  0  0  0  0  0  0  0  0999 V2000
   -1.5610   21.4550  -34.1970 N   0  0  0  0  0  0  0  0  0  0  0  0
   -1.0260   21.0220  -32.9450 C   0  0  0  0  0  0  0  0  0  0  0  0
    0.1800   21.2550  -32.6690 O   0  0  0  0  0  0  0  0  0  0  0  0
   -1.8920   20.3140  -31.9480 C   0  0  0  0  0  0  0  0  0  0  0  0
   -3.2340   20.2140  -32.4270 O   0  0  0  0  0  0  0  0  0  0  0  0
   -4.2920   21.0810  -32.0940 C   0  0  0  0  0  0  0  0  0  0  0  0
   -4.0650   22.3300  -31.4820 C   0  0  0  0  0  0  0  0  0  0  0  0
   -5.1300   23.2100  -31.2050 C   0  0  0  0  0  0  0  0  0  0  0  0
   -4.8740   24.5620  -30.5310 C   0  0  0  0  0  0  0  0  0  0  0  0
   -3.5780   25.0650  -30.7510 O   0  0  0  0  0  0  0  0  0  0  0  0
   -5.2120   24.5730  -29.0380 C   0  0  0  0  0  0  0  0  0  0  0  0
   -6.2810   25.6310  -29.2860 C   0  0  0  0  0  0  0  0  0  0  0  0
   -5.9450   25.6350  -30.7730 C   0  0  0  0  0  0  0  0  0  0  0  0
   -6.4380   22.7990  -31.5190 C   0  0  0  0  0  0  0  0  0  0  0  0
   -6.6730   21.5600  -32.1130 C   0  0  0  0  0  0  0  0  0  0  0  0
   -5.6120   20.6910  -32.4010 C   0  0  0  0  0  0  0  0  0  0  0  0
   -5.8980   19.3760  -33.0280 C   0  0  0  0  0  0  0  0  0  0  0  0
   -5.3390   19.0200  -34.2630 C   0  0  0  0  0  0  0  0  0  0  0  0
   -5.6090   17.8060  -34.8090 N   0  0  0  0  0  0  0  0  0  0  0  0
   -6.4170   16.9190  -34.1730 C   0  0  0  0  0  0  0  0  0  0  0  0
   -6.9640   17.2350  -32.9720 N   0  0  0  0  0  0  0  0  0  0  0  0
   -6.7200   18.4370  -32.3880 C   0  0  0  0  0  0  0  0  0  0  0  0
   -0.9520   21.9490  -34.8860 H   0  0  0  0  0  0  0  0  0  0  0  0
   -2.5600   21.2810  -34.4400 H   0  0  0  0  0  0  0  0  0  0  0  0
   -1.4934   19.3032  -31.7766 H   0  0  0  0  0  0  0  0  0  0  0  0
   -1.8930   20.8877  -31.0094 H   0  0  0  0  0  0  0  0  0  0  0  0
   -3.0386   22.6230  -31.2160 H   0  0  0  0  0  0  0  0  0  0  0  0
   -3.6130   25.5870  -31.5950 H   0  0  0  0  0  0  0  0  0  0  0  0
   -5.6051   23.6178  -28.6598 H   0  0  0  0  0  0  0  0  0  0  0  0
   -4.4233   24.7438  -28.2905 H   0  0  0  0  0  0  0  0  0  0  0  0
   -7.3038   25.2959  -29.0590 H   0  0  0  0  0  0  0  0  0  0  0  0
   -6.2733   26.5706  -28.7141 H   0  0  0  0  0  0  0  0  0  0  0  0
   -6.7710   25.3074  -31.4213 H   0  0  0  0  0  0  0  0  0  0  0  0
   -5.6877   26.5745  -31.2841 H   0  0  0  0  0  0  0  0  0  0  0  0
   -7.2854   23.4630  -31.2932 H   0  0  0  0  0  0  0  0  0  0  0  0
   -7.7028   21.2611  -32.3584 H   0  0  0  0  0  0  0  0  0  0  0  0
   -4.6803   19.7252  -34.7911 H   0  0  0  0  0  0  0  0  0  0  0  0
   -6.6286   15.9422  -34.6324 H   0  0  0  0  0  0  0  0  0  0  0  0
   -7.1678   18.6742  -31.4117 H   0  0  0  0  0  0  0  0  0  0  0  0
  1  2  1  0
  2  3  2  0
  2  4  1  0
  4  5  1  0
  5  6  1  0
  6  7  2  0
  7  8  1  0
  8  9  1  0
  9 10  1  0
  9 11  1  0
 11 12  1  0
 12 13  1  0
  8 14  2  0
 14 15  1  0
 15 16  2  0
 16 17  1  0
 17 18  2  0
 18 19  1  0
 19 20  2  0
 20 21  1  0
 21 22  2  0
 16  6  1  0
 22 17  1  0
 13  9  1  0
  1 23  1  0
  1 24  1  0
  4 25  1  0
  4 26  1  0
  7 27  1  0
 10 28  1  0
 11 29  1  0
 11 30  1  0
 12 31  1  0
 12 32  1  0
 13 33  1  0
 13 34  1  0
 14 35  1  0
 15 36  1  0
 18 37  1  0
 20 38  1  0
 22 39  1  0
M  END
>  <UniqueID>  (11) 
10

>  <SMILES>  (11) 
NC(=O)COc1cc(C2(O)CCC2)ccc1-c1cncnc1

>  <Energy>  (11) 
110.23692769411048

>  <Genealogy>  (11) 
NC(=O)COc1cc(C2(O)CCC2)ccc1-c1cncnc1 (3D coordinates assigned)
NC(=O)COc1cc(C2(O)CCC2)ccc1-c1cncnc1 (nonaromatic ring conformer: 110.23692769411048 kcal/mol)

>  <smiles>  (11) 
NC(=O)COc1cc(C2(O)CCC2)ccc1-c1cncnc1

>  <score_type>  (11) 
oracle

>  <origin>  (11) 
adg

>  <m_score__min__energy>  (11) 
-8.5800000000000001

>  <m_primary>  (11) 
energy

$$$$
11:0
     RDKit          3D

 40 41  0  0  0  0  0  0  0  0999 V2000
   -2.7490   20.1070  -27.4710 C   0  0  0  0  0  0  0  0  0  0  0  0
   -2.1390   21.4730  -27.8280 C   0  0  0  0  0  0  0  0  0  0  0  0
   -2.7160   22.1000  -29.0410 N   0  0  0  0  0  0  0  0  0  0  0  0
   -1.6910   22.4930  -30.0320 C   0  0  0  0  0  0  0  0  0  0  0  0
   -1.5850   21.4490  -31.1410 C   0  0  0  0  0  0  0  0  0  0  0  0
   -3.6800   23.1820  -28.7300 C   0  0  0  0  0  0  0  0  0  0  0  0
   -3.0810   24.5400  -29.1030 C   0  0  0  0  0  0  0  0  0  0  0  0
   -3.4940   24.9320  -30.4110 O   0  0  0  0  0  0  0  0  0  0  0  0
   -4.8280   24.9260  -30.8350 C   0  0  0  0  0  0  0  0  0  0  0  0
   -5.4970   25.9960  -30.8140 O   0  0  0  0  0  0  0  0  0  0  0  0
   -5.4570   23.6680  -31.3160 C   0  0  0  0  0  0  0  0  0  0  0  0
   -4.6780   22.6990  -31.9680 C   0  0  0  0  0  0  0  0  0  0  0  0
   -5.2650   21.5120  -32.4100 C   0  0  0  0  0  0  0  0  0  0  0  0
   -4.5150   20.5250  -33.0660 C   0  0  0  0  0  0  0  0  0  0  0  0
   -5.1350   19.3470  -33.4940 C   0  0  0  0  0  0  0  0  0  0  0  0
   -4.1140   18.0020  -34.3870 Br  0  0  0  0  0  0  0  0  0  0  0  0
   -6.5030   19.1520  -33.2720 C   0  0  0  0  0  0  0  0  0  0  0  0
   -7.2580   20.1320  -32.6180 C   0  0  0  0  0  0  0  0  0  0  0  0
   -9.1260   19.8380  -32.3260 Br  0  0  0  0  0  0  0  0  0  0  0  0
   -6.6430   21.3160  -32.1850 C   0  0  0  0  0  0  0  0  0  0  0  0
   -7.3550   22.2500  -31.5620 O   0  0  0  0  0  0  0  0  0  0  0  0
   -6.8300   23.3920  -31.1270 C   0  0  0  0  0  0  0  0  0  0  0  0
   -7.5810   24.2180  -30.5420 O   0  0  0  0  0  0  0  0  0  0  0  0
   -2.7963   20.0012  -26.3771 H   0  0  0  0  0  0  0  0  0  0  0  0
   -3.7636   20.0377  -27.8903 H   0  0  0  0  0  0  0  0  0  0  0  0
   -2.1234   19.3052  -27.8903 H   0  0  0  0  0  0  0  0  0  0  0  0
   -2.2984   22.1540  -26.9790 H   0  0  0  0  0  0  0  0  0  0  0  0
   -1.0742   21.2969  -28.0404 H   0  0  0  0  0  0  0  0  0  0  0  0
   -1.9680   23.4618  -30.4733 H   0  0  0  0  0  0  0  0  0  0  0  0
   -0.7184   22.5694  -29.5238 H   0  0  0  0  0  0  0  0  0  0  0  0
   -1.4834   20.4488  -30.6945 H   0  0  0  0  0  0  0  0  0  0  0  0
   -2.4911   21.4823  -31.7637 H   0  0  0  0  0  0  0  0  0  0  0  0
   -0.7040   21.6637  -31.7637 H   0  0  0  0  0  0  0  0  0  0  0  0
   -4.6048   23.0219  -29.3036 H   0  0  0  0  0  0  0  0  0  0  0  0
   -3.9021   23.1690  -27.6527 H   0  0  0  0  0  0  0  0  0  0  0  0
   -3.4176   25.2947  -28.3769 H   0  0  0  0  0  0  0  0  0  0  0  0
   -1.9841   24.4583  -29.0885 H   0  0  0  0  0  0  0  0  0  0  0  0
   -3.6045   22.8752  -32.1307 H   0  0  0  0  0  0  0  0  0  0  0  0
   -3.4402   20.6774  -33.2436 H   0  0  0  0  0  0  0  0  0  0  0  0
   -6.9866   18.2247  -33.6130 H   0  0  0  0  0  0  0  0  0  0  0  0
  1  2  1  0
  2  3  1  0
  3  4  1  0
  4  5  1  0
  3  6  1  0
  6  7  1  0
  7  8  1  0
  8  9  1  0
  9 10  2  0
  9 11  1  0
 11 12  2  0
 12 13  1  0
 13 14  2  0
 14 15  1  0
 15 16  1  0
 15 17  2  0
 17 18  1  0
 18 19  1  0
 18 20  2  0
 20 21  1  0
 21 22  1  0
 22 23  2  0
 22 11  1  0
 20 13  1  0
  1 24  1  0
  1 25  1  0
  1 26  1  0
  2 27  1  0
  2 28  1  0
  4 29  1  0
  4 30  1  0
  5 31  1  0
  5 32  1  0
  5 33  1  0
  6 34  1  0
  6 35  1  0
  7 36  1  0
  7 37  1  0
 12 38  1  0
 14 39  1  0
 17 40  1  0
M  END
>  <UniqueID>  (12) 
11

>  <SMILES>  (12) 
CCN(CC)CCOC(=O)c1cc2cc(Br)cc(Br)c2oc1=O

>  <Energy>  (12) 
43.527214754693325

>  <Genealogy>  (12) 
CCN(CC)CCOC(=O)c1cc2cc(Br)cc(Br)c2oc1=O (3D coordinates assigned)
CCN(CC)CCOC(=O)c1cc2cc(Br)cc(Br)c2oc1=O (optimized conformer: 43.527214754693325 kcal/mol)

>  <smiles>  (12) 
CCN(CC)CCOC(=O)c1cc2cc(Br)cc(Br)c2oc1=O

>  <score_type>  (12) 
oracle

>  <origin>  (12) 
adg

>  <m_score__min__energy>  (12) 
-8.3599999999999994

>  <m_primary>  (12) 
energy

$$$$
12:0
     RDKit          3D

 42 45  0  0  0  0  0  0  0  0999 V2000
   -8.6870   23.3230  -31.7130 O   0  0  0  0  0  0  0  0  0  0  0  0
   -7.4890   22.4920  -31.2790 S   0  0  0  0  0  0  0  0  0  0  0  0
   -7.3950   22.6360  -29.7700 O   0  0  0  0  0  0  0  0  0  0  0  0
   -7.7450   20.8480  -31.7170 C   0  0  0  0  0  0  0  0  0  0  0  0
   -6.6480   19.9830  -31.7010 C   0  0  0  0  0  0  0  0  0  0  0  0
   -6.7680   18.6420  -31.9960 C   0  0  0  0  0  0  0  0  0  0  0  0
   -7.9900   18.0860  -32.3240 C   0  0  0  0  0  0  0  0  0  0  0  0
   -9.0850   18.9210  -32.3460 C   0  0  0  0  0  0  0  0  0  0  0  0
   -8.9470   20.2770  -32.0470 C   0  0  0  0  0  0  0  0  0  0  0  0
  -10.0620   21.0230  -32.1380 F   0  0  0  0  0  0  0  0  0  0  0  0
   -6.0970   23.1500  -31.9430 N   0  0  0  0  0  0  0  0  0  0  0  0
   -4.8620   22.4960  -31.8320 C   0  0  0  0  0  0  0  0  0  0  0  0
   -4.2130   22.6430  -30.4680 C   0  0  0  0  0  0  0  0  0  0  0  0
   -4.0160   24.1420  -30.3080 C   0  0  0  0  0  0  0  0  0  0  0  0
   -3.0960   24.4920  -29.2270 C   0  0  0  0  0  0  0  0  0  0  0  0
   -3.3770   24.5550  -27.9250 N   0  0  0  0  0  0  0  0  0  0  0  0
   -2.2970   24.9080  -27.2040 C   0  0  0  0  0  0  0  0  0  0  0  0
   -2.0220   25.1190  -25.8650 C   0  0  0  0  0  0  0  0  0  0  0  0
   -0.7390   25.4900  -25.4790 C   0  0  0  0  0  0  0  0  0  0  0  0
    0.2660   25.6500  -26.4300 C   0  0  0  0  0  0  0  0  0  0  0  0
   -0.0230   25.4400  -27.7300 N   0  0  0  0  0  0  0  0  0  0  0  0
   -1.2770   25.0760  -28.1220 C   0  0  0  0  0  0  0  0  0  0  0  0
   -1.7760   24.8200  -29.3430 N   0  0  0  0  0  0  0  0  0  0  0  0
   -5.3750   24.7590  -30.2230 C   0  0  0  0  0  0  0  0  0  0  0  0
   -6.0360   24.5580  -31.5710 C   0  0  0  0  0  0  0  0  0  0  0  0
   -5.6567   20.3851  -31.4447 H   0  0  0  0  0  0  0  0  0  0  0  0
   -5.8738   18.0019  -31.9699 H   0  0  0  0  0  0  0  0  0  0  0  0
   -8.0846   17.0156  -32.5589 H   0  0  0  0  0  0  0  0  0  0  0  0
  -10.0754   18.5161  -32.6011 H   0  0  0  0  0  0  0  0  0  0  0  0
   -5.0175   21.4250  -32.0287 H   0  0  0  0  0  0  0  0  0  0  0  0
   -4.1846   22.9634  -32.5618 H   0  0  0  0  0  0  0  0  0  0  0  0
   -4.8705   22.2495  -29.6787 H   0  0  0  0  0  0  0  0  0  0  0  0
   -3.2695   22.0832  -30.3879 H   0  0  0  0  0  0  0  0  0  0  0  0
   -3.4983   24.5642  -31.1819 H   0  0  0  0  0  0  0  0  0  0  0  0
   -2.8129   24.9941  -25.1108 H   0  0  0  0  0  0  0  0  0  0  0  0
   -0.5160   25.6584  -24.4151 H   0  0  0  0  0  0  0  0  0  0  0  0
    1.2812   25.9436  -26.1247 H   0  0  0  0  0  0  0  0  0  0  0  0
   -1.2320   24.8670  -30.2360 H   0  0  0  0  0  0  0  0  0  0  0  0
   -5.9649   24.2671  -29.4356 H   0  0  0  0  0  0  0  0  0  0  0  0
   -5.3065   25.8283  -29.9742 H   0  0  0  0  0  0  0  0  0  0  0  0
   -7.0594   24.9590  -31.5284 H   0  0  0  0  0  0  0  0  0  0  0  0
   -5.4345   25.0841  -32.3269 H   0  0  0  0  0  0  0  0  0  0  0  0
  1  2  2  0
  2  3  2  0
  2  4  1  0
  4  5  2  0
  5  6  1  0
  6  7  2  0
  7  8  1  0
  8  9  2  0
  9 10  1  0
  2 11  1  0
 11 12  1  0
 12 13  1  0
 13 14  1  0
 14 15  1  0
 15 16  2  0
 16 17  1  0
 17 18  2  0
 18 19  1  0
 19 20  2  0
 20 21  1  0
 21 22  2  0
 22 23  1  0
 14 24  1  0
 24 25  1  0
  9  4  1  0
 25 11  1  0
 23 15  1  0
 22 17  1  0
  5 26  1  0
  6 27  1  0
  7 28  1  0
  8 29  1  0
 12 30  1  0
 12 31  1  0
 13 32  1  0
 13 33  1  0
 14 34  1  0
 18 35  1  0
 19 36  1  0
 20 37  1  0
 23 38  1  0
 24 39  1  0
 24 40  1  0
 25 41  1  0
 25 42  1  0
M  END
>  <smiles>  (13) 
O=S(=O)(c1ccccc1F)N1CCC(c2nc3cccnc3[nH]2)CC1

>  <score_type>  (13) 
oracle

>  <origin>  (13) 
adg

>  <m_score__min__energy>  (13) 
-9.4900000000000002

>  <m_primary>  (13) 
energy

$$$$
13:0
     RDKit          3D

 56 58  0  0  0  0  0  0  0  0999 V2000
   -1.2800   19.1230  -27.1130 C   0  0  0  0  0  0  0  0  0  0  0  0
   -1.0290   20.4350  -27.7270 N   0  0  0  0  0  0  0  0  0  0  0  0
   -1.1210   20.3470  -29.2070 C   0  0  0  0  0  0  0  0  0  0  0  0
   -1.5430   21.6700  -29.8500 C   0  0  0  0  0  0  0  0  0  0  0  0
   -2.8290   22.0880  -29.2840 N   0  0  0  0  0  0  0  0  0  0  0  0
   -3.8230   22.6920  -30.1210 C   0  0  0  0  0  0  0  0  0  0  0  0
   -4.5510   21.8810  -31.0020 C   0  0  0  0  0  0  0  0  0  0  0  0
   -5.5260   22.4360  -31.8300 C   0  0  0  0  0  0  0  0  0  0  0  0
   -5.7780   23.8060  -31.7900 C   0  0  0  0  0  0  0  0  0  0  0  0
   -5.0610   24.6250  -30.9150 C   0  0  0  0  0  0  0  0  0  0  0  0
   -4.0800   24.0810  -30.0600 C   0  0  0  0  0  0  0  0  0  0  0  0
   -3.3580   24.9100  -29.1240 N   0  0  0  0  0  0  0  0  0  0  0  0
   -1.9090   24.8680  -28.9260 C   0  0  0  0  0  0  0  0  0  0  0  0
   -1.5390   25.4310  -27.5780 C   0  0  0  0  0  0  0  0  0  0  0  0
   -0.7620   26.5970  -27.4830 C   0  0  0  0  0  0  0  0  0  0  0  0
   -0.4170   27.1150  -26.2320 C   0  0  0  0  0  0  0  0  0  0  0  0
   -0.8300   26.4640  -25.0570 C   0  0  0  0  0  0  0  0  0  0  0  0
   -0.4770   27.0310  -23.7010 C   0  0  0  0  0  0  0  0  0  0  0  0
    0.9380   26.7740  -23.3450 N   0  0  0  0  0  0  0  0  0  0  0  0
    1.4850   25.7040  -24.1970 C   0  0  0  0  0  0  0  0  0  0  0  0
    1.7580   27.9910  -23.4860 C   0  0  0  0  0  0  0  0  0  0  0  0
   -1.5950   25.2890  -25.1510 C   0  0  0  0  0  0  0  0  0  0  0  0
   -1.9440   24.7730  -26.4020 C   0  0  0  0  0  0  0  0  0  0  0  0
   -3.1480   21.7860  -27.8880 C   0  0  0  0  0  0  0  0  0  0  0  0
   -1.8660   21.4900  -27.1010 C   0  0  0  0  0  0  0  0  0  0  0  0
   -1.2612   19.2212  -26.0176 H   0  0  0  0  0  0  0  0  0  0  0  0
   -2.2654   18.7518  -27.4310 H   0  0  0  0  0  0  0  0  0  0  0  0
   -0.5011   18.4143  -27.4310 H   0  0  0  0  0  0  0  0  0  0  0  0
   -0.1364   20.0602  -29.6048 H   0  0  0  0  0  0  0  0  0  0  0  0
   -1.8900   19.5986  -29.4491 H   0  0  0  0  0  0  0  0  0  0  0  0
   -0.7829   22.4384  -29.6452 H   0  0  0  0  0  0  0  0  0  0  0  0
   -1.6410   21.5394  -30.9378 H   0  0  0  0  0  0  0  0  0  0  0  0
   -4.3520   20.7998  -31.0406 H   0  0  0  0  0  0  0  0  0  0  0  0
   -6.0967   21.7920  -32.5153 H   0  0  0  0  0  0  0  0  0  0  0  0
   -6.5429   24.2431  -32.4487 H   0  0  0  0  0  0  0  0  0  0  0  0
   -5.2635   25.7060  -30.8924 H   0  0  0  0  0  0  0  0  0  0  0  0
   -3.8780   25.6290  -28.5710 H   0  0  0  0  0  0  0  0  0  0  0  0
   -1.5662   23.8246  -28.9880 H   0  0  0  0  0  0  0  0  0  0  0  0
   -1.4276   25.4749  -29.7070 H   0  0  0  0  0  0  0  0  0  0  0  0
   -0.4233   27.1050  -28.3980 H   0  0  0  0  0  0  0  0  0  0  0  0
    0.1804   28.0363  -26.1666 H   0  0  0  0  0  0  0  0  0  0  0  0
   -0.6484   28.1175  -23.7144 H   0  0  0  0  0  0  0  0  0  0  0  0
   -1.1119   26.5381  -22.9501 H   0  0  0  0  0  0  0  0  0  0  0  0
    0.9950   26.4490  -22.3510 H   0  0  0  0  0  0  0  0  0  0  0  0
    1.8942   24.9036  -23.5630 H   0  0  0  0  0  0  0  0  0  0  0  0
    0.6849   25.2959  -24.8321 H   0  0  0  0  0  0  0  0  0  0  0  0
    2.2843   26.1135  -24.8321 H   0  0  0  0  0  0  0  0  0  0  0  0
    2.0174   28.3759  -22.4887 H   0  0  0  0  0  0  0  0  0  0  0  0
    2.6791   27.7507  -24.0372 H   0  0  0  0  0  0  0  0  0  0  0  0
    1.1894   28.7544  -24.0372 H   0  0  0  0  0  0  0  0  0  0  0  0
   -1.9206   24.7730  -24.2357 H   0  0  0  0  0  0  0  0  0  0  0  0
   -2.5374   23.8491  -26.4676 H   0  0  0  0  0  0  0  0  0  0  0  0
   -3.6590   22.6497  -27.4376 H   0  0  0  0  0  0  0  0  0  0  0  0
   -3.8011   20.9015  -27.8536 H   0  0  0  0  0  0  0  0  0  0  0  0
   -1.2735   22.4145  -27.0363 H   0  0  0  0  0  0  0  0  0  0  0  0
   -2.1674   21.1239  -26.1085 H   0  0  0  0  0  0  0  0  0  0  0  0
  1  2  1  0
  2  3  1  0
  3  4  1  0
  4  5  1  0
  5  6  1  0
  6  7  2  0
  7  8  1  0
  8  9  2  0
  9 10  1  0
 10 11  2  0
 11 12  1  0
 12 13  1  0
 13 14  1  0
 14 15  2  0
 15 16  1  0
 16 17  2  0
 17 18  1  0
 18 19  1  0
 19 20  1  0
 19 21  1  0
 17 22  1  0
 22 23  2  0
  5 24  1  0
 24 25  1  0
 25  2  1  0
 11  6  1  0
 23 14  1  0
  1 26  1  0
  1 27  1  0
  1 28  1  0
  3 29  1  0
  3 30  1  0
  4 31  1  0
  4 32  1  0
  7 33  1  0
  8 34  1  0
  9 35  1  0
 10 36  1  0
 12 37  1  0
 13 38  1  0
 13 39  1  0
 15 40  1  0
 16 41  1  0
 18 42  1  0
 18 43  1  0
 19 44  1  0
 20 45  1  0
 20 46  1  0
 20 47  1  0
 21 48  1  0
 21 49  1  0
 21 50  1  0
 22 51  1  0
 23 52  1  0
 24 53  1  0
 24 54  1  0
 25 55  1  0
 25 56  1  0
M  CHG  1  19   1
M  END
>  <UniqueID>  (14) 
12

>  <SMILES>  (14) 
CN1CCN(c2ccccc2NCc2ccc(C[NH+](C)C)cc2)CC1

>  <Energy>  (14) 
68.319352023247

>  <Genealogy>  (14) 
CN1CCN(c2ccccc2NCc2ccc(C[NH+](C)C)cc2)CC1 (protonated)
CN1CCN(c2ccccc2NCc2ccc(C[NH+](C)C)cc2)CC1 (3D coordinates assigned)
CN1CCN(c2ccccc2NCc2ccc(C[NH+](C)C)cc2)CC1 (nonaromatic ring conformer: 68.319352023247 kcal/mol)

>  <smiles>  (14) 
CN(C)Cc1ccc(CNc2ccccc2N2CCN(C)CC2)cc1

>  <score_type>  (14) 
oracle

>  <origin>  (14) 
adg

>  <m_score__min__energy>  (14) 
-8.1300000000000008

>  <m_primary>  (14) 
energy

$$$$
14:0
     RDKit          3D

 43 45  0  0  0  0  0  0  0  0999 V2000
   -9.4880   19.9810  -32.4310 C   0  0  0  0  0  0  0  0  0  0  0  0
   -9.1300   21.1660  -31.9220 C   0  0  0  0  0  0  0  0  0  0  0  0
   -8.0050   21.2930  -30.9280 C   0  0  0  0  0  0  0  0  0  0  0  0
   -6.7760   21.7620  -31.5800 N   0  0  0  0  0  0  0  0  0  0  0  0
   -5.9310   21.0960  -32.4110 C   0  0  0  0  0  0  0  0  0  0  0  0
   -6.1170   19.7260  -32.9210 C   0  0  0  0  0  0  0  0  0  0  0  0
   -5.9250   19.2820  -34.2270 C   0  0  0  0  0  0  0  0  0  0  0  0
   -6.1130   17.9010  -34.3740 C   0  0  0  0  0  0  0  0  0  0  0  0
   -6.4510   17.2520  -33.1940 C   0  0  0  0  0  0  0  0  0  0  0  0
   -6.4920   18.3970  -31.9580 S   0  0  0  0  0  0  0  0  0  0  0  0
   -4.8240   21.8230  -32.6790 N   0  0  0  0  0  0  0  0  0  0  0  0
   -4.9750   22.9790  -32.0460 N   0  0  0  0  0  0  0  0  0  0  0  0
   -6.1450   22.9410  -31.3830 C   0  0  0  0  0  0  0  0  0  0  0  0
   -6.7600   24.3030  -30.3840 S   0  0  0  0  0  0  0  0  0  0  0  0
   -5.2520   24.4110  -29.3590 C   0  0  0  0  0  0  0  0  0  0  0  0
   -4.1280   25.0130  -30.1400 C   0  0  0  0  0  0  0  0  0  0  0  0
   -4.3760   25.6340  -31.2110 O   0  0  0  0  0  0  0  0  0  0  0  0
   -2.7850   24.9210  -29.6480 N   0  0  0  0  0  0  0  0  0  0  0  0
   -2.4210   24.2420  -28.4110 C   0  0  0  0  0  0  0  0  0  0  0  0
   -1.8590   25.2350  -27.4280 C   0  0  0  0  0  0  0  0  0  0  0  0
   -2.3790   25.3060  -26.1210 C   0  0  0  0  0  0  0  0  0  0  0  0
   -1.9290   26.2970  -25.2320 C   0  0  0  0  0  0  0  0  0  0  0  0
   -0.9560   27.2180  -25.6440 C   0  0  0  0  0  0  0  0  0  0  0  0
   -0.4350   27.1520  -26.9440 C   0  0  0  0  0  0  0  0  0  0  0  0
   -0.8770   26.1600  -27.8280 C   0  0  0  0  0  0  0  0  0  0  0  0
  -10.3138   19.9203  -33.1552 H   0  0  0  0  0  0  0  0  0  0  0  0
   -8.9564   19.0678  -32.1252 H   0  0  0  0  0  0  0  0  0  0  0  0
   -9.6710   22.0703  -32.2375 H   0  0  0  0  0  0  0  0  0  0  0  0
   -8.2945   22.0117  -30.1472 H   0  0  0  0  0  0  0  0  0  0  0  0
   -7.8124   20.3030  -30.4889 H   0  0  0  0  0  0  0  0  0  0  0  0
   -5.6532   19.9480  -35.0592 H   0  0  0  0  0  0  0  0  0  0  0  0
   -6.0029   17.3791  -35.3360 H   0  0  0  0  0  0  0  0  0  0  0  0
   -6.6564   16.1769  -33.0848 H   0  0  0  0  0  0  0  0  0  0  0  0
   -4.2680   23.7480  -32.0250 H   0  0  0  0  0  0  0  0  0  0  0  0
   -5.4572   25.0378  -28.4787 H   0  0  0  0  0  0  0  0  0  0  0  0
   -4.9630   23.3973  -29.0447 H   0  0  0  0  0  0  0  0  0  0  0  0
   -3.3142   23.7668  -27.9792 H   0  0  0  0  0  0  0  0  0  0  0  0
   -1.6610   23.4769  -28.6277 H   0  0  0  0  0  0  0  0  0  0  0  0
   -3.1407   24.5826  -25.7947 H   0  0  0  0  0  0  0  0  0  0  0  0
   -2.3402   26.3499  -24.2131 H   0  0  0  0  0  0  0  0  0  0  0  0
   -0.6013   27.9922  -24.9477 H   0  0  0  0  0  0  0  0  0  0  0  0
    0.3220   27.8805  -27.2700 H   0  0  0  0  0  0  0  0  0  0  0  0
   -0.4538   26.1035  -28.8417 H   0  0  0  0  0  0  0  0  0  0  0  0
  1  2  2  0
  2  3  1  0
  3  4  1  0
  4  5  1  0
  5  6  1  0
  6  7  2  0
  7  8  1  0
  8  9  2  0
  9 10  1  0
  5 11  2  0
 11 12  1  0
 12 13  2  0
 13 14  1  0
 14 15  1  0
 15 16  1  0
 16 17  2  0
 16 18  1  0
 18 19  1  0
 19 20  1  0
 20 21  2  0
 21 22  1  0
 22 23  2  0
 23 24  1  0
 24 25  2  0
 13  4  1  0
 25 20  1  0
 10  6  1  0
  1 26  1  0
  1 27  1  0
  2 28  1  0
  3 29  1  0
  3 30  1  0
  7 31  1  0
  8 32  1  0
  9 33  1  0
 12 34  1  0
 15 35  1  0
 15 36  1  0
 19 37  1  0
 19 38  1  0
 21 39  1  0
 22 40  1  0
 23 41  1  0
 24 42  1  0
 25 43  1  0
M  CHG  2  12   1  18  -1
M  END
>  <UniqueID>  (15) 
13

>  <SMILES>  (15) 
C=CCn1c(-c2cccs2)n[nH+]c1SCC(=O)[N-]Cc1ccccc1

>  <Energy>  (15) 
97.43925114050106

>  <Genealogy>  (15) 
C=CCn1c(-c2cccs2)n[nH+]c1SCC(=O)[N-]Cc1ccccc1 (protonated)
C=CCn1c(-c2cccs2)n[nH+]c1SCC(=O)[N-]Cc1ccccc1 (3D coordinates assigned)
C=CCn1c(-c2cccs2)n[nH+]c1SCC(=O)[N-]Cc1ccccc1 (optimized conformer: 97.43925114050106 kcal/mol)

>  <smiles>  (15) 
C=CCn1c(SCC(=O)NCc2ccccc2)nnc1-c1cccs1

>  <score_type>  (15) 
oracle

>  <origin>  (15) 
adg

>  <m_score__min__energy>  (15) 
-10.24

>  <m_primary>  (15) 
energy

$$$$
15:0
     RDKit          3D

 66 67  0  0  0  0  0  0  0  0999 V2000
   -2.7220   21.5930  -34.2580 H   0  0  0  0  0  0  0  0  0  0  0  0
   -3.3360   21.5690  -33.4770 O   0  0  0  0  0  0  0  0  0  0  0  0
   -2.7640   20.6950  -32.5400 C   0  0  2  0  0  0  0  0  0  0  0  0
   -1.6894   20.5749  -32.7419 H   0  0  0  0  0  0  0  0  0  0  0  0
   -3.3970   19.3250  -32.6510 C   0  0  0  0  0  0  0  0  0  0  0  0
   -2.8538   18.5306  -33.1837 H   0  0  0  0  0  0  0  0  0  0  0  0
   -4.5980   19.0460  -32.1220 C   0  0  0  0  0  0  0  0  0  0  0  0
   -4.8853   19.5040  -31.1640 H   0  0  0  0  0  0  0  0  0  0  0  0
   -5.5630   18.1150  -32.8170 C   0  0  2  0  0  0  0  0  0  0  0  0
   -4.8410   17.6870  -33.5280 H   0  0  0  0  0  0  0  0  0  0  0  0
   -6.8690   18.7370  -33.3500 C   0  0  2  0  0  0  0  0  0  0  0  0
   -7.1499   18.7007  -34.4129 H   0  0  0  0  0  0  0  0  0  0  0  0
   -6.9910   20.2860  -33.4750 C   0  0  0  0  0  0  0  0  0  0  0  0
   -6.1509   20.6257  -34.0985 H   0  0  0  0  0  0  0  0  0  0  0  0
   -8.0010   20.4378  -33.8834 H   0  0  0  0  0  0  0  0  0  0  0  0
   -6.9790   21.1260  -32.2230 C   0  0  0  0  0  0  0  0  0  0  0  0
   -7.6702   20.8665  -31.4076 H   0  0  0  0  0  0  0  0  0  0  0  0
   -6.1610   22.1760  -32.0620 C   0  0  0  0  0  0  0  0  0  0  0  0
   -5.0882   22.0562  -32.2735 H   0  0  0  0  0  0  0  0  0  0  0  0
   -6.6720   23.5160  -31.5990 C   0  0  0  0  0  0  0  0  0  0  0  0
   -6.0299   24.3008  -32.0254 H   0  0  0  0  0  0  0  0  0  0  0  0
   -7.7143   23.6025  -31.9397 H   0  0  0  0  0  0  0  0  0  0  0  0
   -6.6790   23.6690  -30.0690 C   0  0  0  0  0  0  0  0  0  0  0  0
   -7.7222   23.7249  -29.7247 H   0  0  0  0  0  0  0  0  0  0  0  0
   -6.1591   22.7981  -29.6433 H   0  0  0  0  0  0  0  0  0  0  0  0
   -5.9370   24.9310  -29.6010 C   0  0  0  0  0  0  0  0  0  0  0  0
   -6.3032   25.7896  -30.1829 H   0  0  0  0  0  0  0  0  0  0  0  0
   -6.1352   25.0509  -28.5257 H   0  0  0  0  0  0  0  0  0  0  0  0
   -4.4390   24.8320  -29.7780 C   0  0  0  0  0  0  0  0  0  0  0  0
   -3.9080   25.2560  -30.8430 O   0  0  0  0  0  0  0  0  0  0  0  0
   -3.6070   24.2330  -28.7610 N   0  0  0  0  0  0  0  0  0  0  0  0
   -4.1980   23.6650  -27.5450 C   0  0  0  0  0  0  0  0  0  0  0  0
   -3.7257   24.1189  -26.6613 H   0  0  0  0  0  0  0  0  0  0  0  0
   -5.2781   23.8726  -27.5308 H   0  0  0  0  0  0  0  0  0  0  0  0
   -4.0334   22.5775  -27.5308 H   0  0  0  0  0  0  0  0  0  0  0  0
   -2.1540   24.1890  -28.9630 C   0  0  0  0  0  0  0  0  0  0  0  0
   -1.6483   24.1737  -27.9862 H   0  0  0  0  0  0  0  0  0  0  0  0
   -1.8895   23.2824  -29.5271 H   0  0  0  0  0  0  0  0  0  0  0  0
   -1.8351   25.0779  -29.5271 H   0  0  0  0  0  0  0  0  0  0  0  0
   -7.6890   17.8720  -32.3650 C   0  0  2  0  0  0  0  0  0  0  0  0
   -8.5293   17.2861  -32.7657 H   0  0  0  0  0  0  0  0  0  0  0  0
   -8.5310   18.5480  -31.2760 C   0  0  0  0  0  0  0  0  0  0  0  0
   -8.1580   18.2486  -30.2854 H   0  0  0  0  0  0  0  0  0  0  0  0
   -8.4572   19.6405  -31.3807 H   0  0  0  0  0  0  0  0  0  0  0  0
   -9.5817   18.2398  -31.3807 H   0  0  0  0  0  0  0  0  0  0  0  0
   -6.3840   17.2210  -31.8690 C   0  0  2  0  0  0  0  0  0  0  0  0
   -6.2724   16.1270  -31.8973 H   0  0  0  0  0  0  0  0  0  0  0  0
   -6.1090   17.4460  -30.5080 O   0  0  0  0  0  0  0  0  0  0  0  0
   -6.0210   16.5490  -30.0930 H   0  0  0  0  0  0  0  0  0  0  0  0
   -2.9270   21.2900  -31.1300 C   0  0  0  0  0  0  0  0  0  0  0  0
   -3.2869   22.3254  -31.2225 H   0  0  0  0  0  0  0  0  0  0  0  0
   -3.6446   20.6626  -30.5811 H   0  0  0  0  0  0  0  0  0  0  0  0
   -1.6090   21.2940  -30.3430 C   0  0  0  0  0  0  0  0  0  0  0  0
   -0.8196   20.8366  -30.9575 H   0  0  0  0  0  0  0  0  0  0  0  0
   -1.3456   22.3334  -30.0974 H   0  0  0  0  0  0  0  0  0  0  0  0
   -1.7540   20.5150  -29.0640 C   0  0  0  0  0  0  0  0  0  0  0  0
   -0.7360   19.6410  -28.6470 C   0  0  0  0  0  0  0  0  0  0  0  0
    0.1825   19.5442  -29.2445 H   0  0  0  0  0  0  0  0  0  0  0  0
   -0.8870   18.8940  -27.4750 C   0  0  0  0  0  0  0  0  0  0  0  0
   -0.0841   18.2164  -27.1491 H   0  0  0  0  0  0  0  0  0  0  0  0
   -2.0560   19.0060  -26.7160 C   0  0  0  0  0  0  0  0  0  0  0  0
   -2.1719   18.4187  -25.7931 H   0  0  0  0  0  0  0  0  0  0  0  0
   -3.0780   19.8660  -27.1320 C   0  0  0  0  0  0  0  0  0  0  0  0
   -3.9989   19.9520  -26.5366 H   0  0  0  0  0  0  0  0  0  0  0  0
   -2.9320   20.6160  -28.3020 C   0  0  0  0  0  0  0  0  0  0  0  0
   -3.7404   21.2871  -28.6279 H   0  0  0  0  0  0  0  0  0  0  0  0
  1  2  1  0
  2  3  1  0
  3  4  1  6
  3  5  1  0
  5  6  1  0
  5  7  2  3
  7  8  1  0
  7  9  1  0
  9 10  1  6
  9 11  1  0
 11 12  1  6
 11 13  1  0
 13 14  1  0
 13 15  1  0
 13 16  1  0
 16 17  1  0
 16 18  2  0
 18 19  1  0
 18 20  1  0
 20 21  1  0
 20 22  1  0
 20 23  1  0
 23 24  1  0
 23 25  1  0
 23 26  1  0
 26 27  1  0
 26 28  1  0
 26 29  1  0
 29 30  2  0
 29 31  1  0
 31 32  1  0
 32 33  1  0
 32 34  1  0
 32 35  1  0
 31 36  1  0
 36 37  1  0
 36 38  1  0
 36 39  1  0
 11 40  1  0
 40 41  1  6
 40 42  1  0
 42 43  1  0
 42 44  1  0
 42 45  1  0
 40 46  1  0
 46 47  1  6
 46 48  1  0
 48 49  1  0
  3 50  1  0
 50 51  1  0
 50 52  1  0
 50 53  1  0
 53 54  1  0
 53 55  1  0
 53 56  1  0
 56 57  2  0
 57 58  1  0
 57 59  1  0
 59 60  1  0
 59 61  2  0
 61 62  1  0
 61 63  1  0
 63 64  1  0
 63 65  2  0
 65 66  1  0
 46  9  1  0
 65 56  1  0
M  END
>  <UniqueID>  (16) 
14

>  <SMILES>  (16) 
C[C@H]1C(C/C=C/CCCC(=O)N(C)C)C(C=CC(O)CCc2ccccc2)[C@H]1O

>  <Energy>  (16) 
120.61764321458678

>  <Genealogy>  (16) 
C[C@H]1C(CC=CCCCC(=O)N(C)C)C(C=CC(O)CCc2ccccc2)[C@H]1O (chirality)
C[C@H]1C(C/C=C/CCCC(=O)N(C)C)C(C=CC(O)CCc2ccccc2)[C@H]1O (cis-trans isomerization)
C[C@H]1C(C/C=C/CCCC(=O)N(C)C)C(C=CC(O)CCc2ccccc2)[C@H]1O (3D coordinates assigned)
C[C@H]1C(C/C=C/CCCC(=O)N(C)C)C(C=CC(O)CCc2ccccc2)[C@H]1O (nonaromatic ring conformer: 120.61764321458678 kcal/mol)

>  <smiles>  (16) 
CC1C(O)C(C=CC(O)CCc2ccccc2)C1CC=CCCCC(=O)N(C)C

>  <score_type>  (16) 
oracle

>  <origin>  (16) 
adg

>  <m_score__min__energy>  (16) 
-9.9399999999999995

>  <m_primary>  (16) 
energy

$$$$
16:0
     RDKit          3D

 47 47  0  0  0  0  0  0  0  0999 V2000
   -0.7260   29.2990  -25.5310 C   0  0  0  0  0  0  0  0  0  0  0  0
   -0.4890   28.4960  -26.8060 C   0  0  0  0  0  0  0  0  0  0  0  0
   -0.1240   27.0930  -26.4940 N   0  0  0  0  0  0  0  0  0  0  0  0
   -0.7000   26.7080  -25.1820 C   0  0  0  0  0  0  0  0  0  0  0  0
   -2.0600   26.0290  -25.3330 C   0  0  0  0  0  0  0  0  0  0  0  0
    1.3500   26.8920  -26.5320 C   0  0  0  0  0  0  0  0  0  0  0  0
    1.6900   25.5360  -27.1630 C   0  0  0  0  0  0  0  0  0  0  0  0
    0.4860   24.7390  -27.3860 N   0  0  0  0  0  0  0  0  0  0  0  0
    0.4830   23.3070  -27.2990 C   0  0  0  0  0  0  0  0  0  0  0  0
    1.5660   22.6740  -27.1730 O   0  0  0  0  0  0  0  0  0  0  0  0
   -0.8080   22.5540  -27.3880 C   0  0  0  0  0  0  0  0  0  0  0  0
   -1.9350   23.4910  -27.2890 N   0  0  0  0  0  0  0  0  0  0  0  0
   -2.7890   23.4530  -28.4840 C   0  0  0  0  0  0  0  0  0  0  0  0
   -2.6820   24.7150  -29.2890 C   0  0  0  0  0  0  0  0  0  0  0  0
   -1.8350   25.5890  -28.9630 O   0  0  0  0  0  0  0  0  0  0  0  0
   -3.5500   24.9110  -30.4120 N   0  0  0  0  0  0  0  0  0  0  0  0
   -4.5870   24.0340  -30.8810 C   0  0  0  0  0  0  0  0  0  0  0  0
   -4.3060   22.9010  -31.6690 C   0  0  0  0  0  0  0  0  0  0  0  0
   -5.3410   22.0610  -32.0950 C   0  0  0  0  0  0  0  0  0  0  0  0
   -4.9820   20.6600  -33.0880 Cl  0  0  0  0  0  0  0  0  0  0  0  0
   -6.6590   22.3320  -31.7210 C   0  0  0  0  0  0  0  0  0  0  0  0
   -6.9450   23.4350  -30.9140 C   0  0  0  0  0  0  0  0  0  0  0  0
   -5.9150   24.2810  -30.4890 C   0  0  0  0  0  0  0  0  0  0  0  0
   -6.3100   25.6560  -29.4640 Cl  0  0  0  0  0  0  0  0  0  0  0  0
   -0.5376   28.6606  -24.6553 H   0  0  0  0  0  0  0  0  0  0  0  0
   -0.0443   30.1620  -25.5091 H   0  0  0  0  0  0  0  0  0  0  0  0
   -1.7671   29.6535  -25.5091 H   0  0  0  0  0  0  0  0  0  0  0  0
   -1.4081   28.5021  -27.4103 H   0  0  0  0  0  0  0  0  0  0  0  0
    0.3415   28.9578  -27.3601 H   0  0  0  0  0  0  0  0  0  0  0  0
   -0.0097   26.0135  -24.6808 H   0  0  0  0  0  0  0  0  0  0  0  0
   -0.8408   27.6243  -24.5899 H   0  0  0  0  0  0  0  0  0  0  0  0
   -2.4782   25.8202  -24.3372 H   0  0  0  0  0  0  0  0  0  0  0  0
   -2.7418   26.6925  -25.8853 H   0  0  0  0  0  0  0  0  0  0  0  0
   -1.9394   25.0854  -25.8853 H   0  0  0  0  0  0  0  0  0  0  0  0
    1.8097   27.6942  -27.1279 H   0  0  0  0  0  0  0  0  0  0  0  0
    1.7392   26.9139  -25.5034 H   0  0  0  0  0  0  0  0  0  0  0  0
    2.1919   25.7049  -28.1271 H   0  0  0  0  0  0  0  0  0  0  0  0
    2.3480   24.9867  -26.4735 H   0  0  0  0  0  0  0  0  0  0  0  0
   -0.4250   25.2380  -27.5020 H   0  0  0  0  0  0  0  0  0  0  0  0
   -0.8566   22.0239  -28.3506 H   0  0  0  0  0  0  0  0  0  0  0  0
   -0.8641   21.8280  -26.5635 H   0  0  0  0  0  0  0  0  0  0  0  0
   -1.5600   24.4630  -27.1660 H   0  0  0  0  0  0  0  0  0  0  0  0
   -2.4836   22.6034  -29.1124 H   0  0  0  0  0  0  0  0  0  0  0  0
   -3.8329   23.3470  -28.1536 H   0  0  0  0  0  0  0  0  0  0  0  0
   -3.2671   22.6751  -31.9512 H   0  0  0  0  0  0  0  0  0  0  0  0
   -7.4729   21.6756  -32.0626 H   0  0  0  0  0  0  0  0  0  0  0  0
   -7.9827   23.6393  -30.6117 H   0  0  0  0  0  0  0  0  0  0  0  0
  1  2  1  0
  2  3  1  0
  3  4  1  0
  4  5  1  0
  3  6  1  0
  6  7  1  0
  7  8  1  0
  8  9  1  0
  9 10  2  0
  9 11  1  0
 11 12  1  0
 12 13  1  0
 13 14  1  0
 14 15  2  0
 14 16  1  0
 16 17  1  0
 17 18  2  0
 18 19  1  0
 19 20  1  0
 19 21  2  0
 21 22  1  0
 22 23  2  0
 23 24  1  0
 23 17  1  0
  1 25  1  0
  1 26  1  0
  1 27  1  0
  2 28  1  0
  2 29  1  0
  4 30  1  0
  4 31  1  0
  5 32  1  0
  5 33  1  0
  5 34  1  0
  6 35  1  0
  6 36  1  0
  7 37  1  0
  7 38  1  0
  8 39  1  0
 11 40  1  0
 11 41  1  0
 12 42  1  0
 13 43  1  0
 13 44  1  0
 18 45  1  0
 21 46  1  0
 22 47  1  0
M  CHG  1  16  -1
M  END
>  <UniqueID>  (17) 
15

>  <SMILES>  (17) 
CCN(CC)CCNC(=O)CNCC(=O)[N-]c1cc(Cl)ccc1Cl

>  <Energy>  (17) 
40.95692779186143

>  <Genealogy>  (17) 
CCN(CC)CCNC(=O)CNCC(=O)[N-]c1cc(Cl)ccc1Cl (protonated)
CCN(CC)CCNC(=O)CNCC(=O)[N-]c1cc(Cl)ccc1Cl (3D coordinates assigned)
CCN(CC)CCNC(=O)CNCC(=O)[N-]c1cc(Cl)ccc1Cl (optimized conformer: 40.95692779186143 kcal/mol)

>  <smiles>  (17) 
CCN(CC)CCNC(=O)CNCC(=O)Nc1cc(Cl)ccc1Cl

>  <score_type>  (17) 
oracle

>  <origin>  (17) 
adg

>  <m_score__min__energy>  (17) 
-8.8499999999999996

>  <m_primary>  (17) 
energy

$$$$
17:0
     RDKit          3D

 61 63  0  0  0  0  0  0  0  0999 V2000
   -0.4310   24.0700  -24.5920 C   0  0  0  0  0  0  0  0  0  0  0  0
   -0.9930   25.4820  -24.7430 C   0  0  0  0  0  0  0  0  0  0  0  0
   -1.4760   25.7020  -26.1220 N   0  0  0  0  0  0  0  0  0  0  0  0
   -0.8450   26.8700  -26.7810 C   0  0  0  0  0  0  0  0  0  0  0  0
   -0.7620   28.1270  -25.8980 C   0  0  0  0  0  0  0  0  0  0  0  0
   -1.4500   24.4790  -26.9560 C   0  0  0  0  0  0  0  0  0  0  0  0
   -0.9030   24.7810  -28.3560 C   0  0  0  0  0  0  0  0  0  0  0  0
   -1.9360   25.2630  -29.2190 O   0  0  0  0  0  0  0  0  0  0  0  0
   -3.0280   24.5200  -29.6940 C   0  0  0  0  0  0  0  0  0  0  0  0
   -4.3120   24.9270  -29.3180 C   0  0  0  0  0  0  0  0  0  0  0  0
   -5.4410   24.2410  -29.7750 C   0  0  0  0  0  0  0  0  0  0  0  0
   -5.3010   23.1270  -30.6200 C   0  0  0  0  0  0  0  0  0  0  0  0
   -6.4950   22.3920  -31.1010 C   0  0  0  0  0  0  0  0  0  0  0  0
   -7.6330   22.2720  -30.2880 C   0  0  0  0  0  0  0  0  0  0  0  0
   -8.7340   21.5250  -30.7150 C   0  0  0  0  0  0  0  0  0  0  0  0
   -8.7150   20.8890  -31.9650 C   0  0  0  0  0  0  0  0  0  0  0  0
   -9.8510   19.9840  -32.3660 C   0  0  0  0  0  0  0  0  0  0  0  0
   -9.3810   18.6010  -32.5530 N   0  0  0  0  0  0  0  0  0  0  0  0
   -8.3420   18.2150  -31.5810 C   0  0  0  0  0  0  0  0  0  0  0  0
   -7.0020   18.0540  -32.2530 C   0  0  0  0  0  0  0  0  0  0  0  0
   -5.8530   18.6430  -31.6940 C   0  0  0  0  0  0  0  0  0  0  0  0
   -4.6210   18.5410  -32.3470 C   0  0  0  0  0  0  0  0  0  0  0  0
   -4.5210   17.8390  -33.5510 C   0  0  0  0  0  0  0  0  0  0  0  0
   -3.3290   17.7520  -34.1900 F   0  0  0  0  0  0  0  0  0  0  0  0
   -5.6520   17.2260  -34.0980 C   0  0  0  0  0  0  0  0  0  0  0  0
   -6.8870   17.3260  -33.4490 C   0  0  0  0  0  0  0  0  0  0  0  0
   -7.5990   21.0450  -32.8000 C   0  0  0  0  0  0  0  0  0  0  0  0
   -6.4940   21.7830  -32.3680 C   0  0  0  0  0  0  0  0  0  0  0  0
   -4.0120   22.7060  -30.9850 C   0  0  0  0  0  0  0  0  0  0  0  0
   -2.8850   23.3910  -30.5210 C   0  0  0  0  0  0  0  0  0  0  0  0
   -0.3340   23.8263  -23.5237 H   0  0  0  0  0  0  0  0  0  0  0  0
   -1.1116   23.3512  -25.0718 H   0  0  0  0  0  0  0  0  0  0  0  0
    0.5574   24.0155  -25.0718 H   0  0  0  0  0  0  0  0  0  0  0  0
   -1.8292   25.6158  -24.0409 H   0  0  0  0  0  0  0  0  0  0  0  0
   -0.1953   26.2075  -24.5254 H   0  0  0  0  0  0  0  0  0  0  0  0
    0.1765   26.5885  -27.0764 H   0  0  0  0  0  0  0  0  0  0  0  0
   -1.4822   27.1296  -27.6392 H   0  0  0  0  0  0  0  0  0  0  0  0
   -0.7814   27.8326  -24.8383 H   0  0  0  0  0  0  0  0  0  0  0  0
    0.1736   28.6644  -26.1122 H   0  0  0  0  0  0  0  0  0  0  0  0
   -1.6188   28.7828  -26.1122 H   0  0  0  0  0  0  0  0  0  0  0  0
   -0.8078   23.7277  -26.4731 H   0  0  0  0  0  0  0  0  0  0  0  0
   -2.4780   24.1003  -27.0553 H   0  0  0  0  0  0  0  0  0  0  0  0
   -0.1153   25.5448  -28.2770 H   0  0  0  0  0  0  0  0  0  0  0  0
   -0.4981   23.8508  -28.7812 H   0  0  0  0  0  0  0  0  0  0  0  0
   -4.4349   25.7964  -28.6554 H   0  0  0  0  0  0  0  0  0  0  0  0
   -6.4442   24.5750  -29.4716 H   0  0  0  0  0  0  0  0  0  0  0  0
   -7.6582   22.7698  -29.3074 H   0  0  0  0  0  0  0  0  0  0  0  0
   -9.6192   21.4354  -30.0682 H   0  0  0  0  0  0  0  0  0  0  0  0
  -10.6191   19.9999  -31.5787 H   0  0  0  0  0  0  0  0  0  0  0  0
  -10.2683   20.3448  -33.3177 H   0  0  0  0  0  0  0  0  0  0  0  0
   -8.9520   18.5470  -33.5080 H   0  0  0  0  0  0  0  0  0  0  0  0
   -8.2652   18.9947  -30.8088 H   0  0  0  0  0  0  0  0  0  0  0  0
   -8.6251   17.2518  -31.1315 H   0  0  0  0  0  0  0  0  0  0  0  0
   -5.9243   19.1857  -30.7398 H   0  0  0  0  0  0  0  0  0  0  0  0
   -3.7285   19.0144  -31.9120 H   0  0  0  0  0  0  0  0  0  0  0  0
   -5.5706   16.6642  -35.0402 H   0  0  0  0  0  0  0  0  0  0  0  0
   -7.7720   16.8325  -33.8769 H   0  0  0  0  0  0  0  0  0  0  0  0
   -7.5936   20.5845  -33.7990 H   0  0  0  0  0  0  0  0  0  0  0  0
   -5.6172   21.8882  -33.0239 H   0  0  0  0  0  0  0  0  0  0  0  0
   -3.8882   21.8313  -31.6404 H   0  0  0  0  0  0  0  0  0  0  0  0
   -1.8800   23.0449  -30.8044 H   0  0  0  0  0  0  0  0  0  0  0  0
  1  2  1  0
  2  3  1  0
  3  4  1  0
  4  5  1  0
  3  6  1  0
  6  7  1  0
  7  8  1  0
  8  9  1  0
  9 10  2  0
 10 11  1  0
 11 12  2  0
 12 13  1  0
 13 14  2  0
 14 15  1  0
 15 16  2  0
 16 17  1  0
 17 18  1  0
 18 19  1  0
 19 20  1  0
 20 21  2  0
 21 22  1  0
 22 23  2  0
 23 24  1  0
 23 25  1  0
 25 26  2  0
 16 27  1  0
 27 28  2  0
 12 29  1  0
 29 30  2  0
 30  9  1  0
 28 13  1  0
 26 20  1  0
  1 31  1  0
  1 32  1  0
  1 33  1  0
  2 34  1  0
  2 35  1  0
  4 36  1  0
  4 37  1  0
  5 38  1  0
  5 39  1  0
  5 40  1  0
  6 41  1  0
  6 42  1  0
  7 43  1  0
  7 44  1  0
 10 45  1  0
 11 46  1  0
 14 47  1  0
 15 48  1  0
 17 49  1  0
 17 50  1  0
 18 51  1  0
 19 52  1  0
 19 53  1  0
 21 54  1  0
 22 55  1  0
 25 56  1  0
 26 57  1  0
 27 58  1  0
 28 59  1  0
 29 60  1  0
 30 61  1  0
M  END
>  <UniqueID>  (18) 
16

>  <SMILES>  (18) 
CCN(CC)CCOc1ccc(-c2ccc(CNCc3ccc(F)cc3)cc2)cc1

>  <Energy>  (18) 
63.469803431282884

>  <Genealogy>  (18) 
CCN(CC)CCOc1ccc(-c2ccc(CNCc3ccc(F)cc3)cc2)cc1 (3D coordinates assigned)
CCN(CC)CCOc1ccc(-c2ccc(CNCc3ccc(F)cc3)cc2)cc1 (optimized conformer: 63.469803431282884 kcal/mol)

>  <smiles>  (18) 
CCN(CC)CCOc1ccc(-c2ccc(CNCc3ccc(F)cc3)cc2)cc1

>  <score_type>  (18) 
oracle

>  <origin>  (18) 
adg

>  <m_score__min__energy>  (18) 
-8.8699999999999992

>  <m_primary>  (18) 
energy

$$$$
18:0
     RDKit          3D

 45 47  0  0  0  0  0  0  0  0999 V2000
   -2.9040   22.2430  -27.7910 H   0  0  0  0  0  0  0  0  0  0  0  0
   -3.5550   23.0580  -27.7720 N   0  0  0  0  0  0  0  0  0  0  0  0
   -3.8280   23.7720  -28.8190 C   0  0  0  0  0  0  0  0  0  0  0  0
   -4.9320   23.6310  -29.6140 C   0  0  0  0  0  0  0  0  0  0  0  0
   -5.9850   22.7840  -29.5410 N   0  0  0  0  0  0  0  0  0  0  0  0
   -6.9550   22.8530  -30.5050 C   0  0  0  0  0  0  0  0  0  0  0  0
   -8.1190   21.9520  -30.3990 C   0  0  0  0  0  0  0  0  0  0  0  0
   -8.6158   21.8837  -29.4199 H   0  0  0  0  0  0  0  0  0  0  0  0
   -8.6230   21.2080  -31.3980 C   0  0  0  0  0  0  0  0  0  0  0  0
   -9.6603   21.4110  -31.7025 H   0  0  0  0  0  0  0  0  0  0  0  0
   -7.9030   20.1410  -32.1220 C   0  0  0  0  0  0  0  0  0  0  0  0
   -8.1800   18.8430  -31.8190 N   0  0  0  0  0  0  0  0  0  0  0  0
   -7.5350   17.8080  -32.4190 C   0  0  0  0  0  0  0  0  0  0  0  0
   -7.7960   16.7720  -32.1570 H   0  0  0  0  0  0  0  0  0  0  0  0
   -6.5420   18.0580  -33.3670 C   0  0  0  0  0  0  0  0  0  0  0  0
   -6.0237   17.2240  -33.8627 H   0  0  0  0  0  0  0  0  0  0  0  0
   -6.2140   19.3780  -33.6790 C   0  0  0  0  0  0  0  0  0  0  0  0
   -5.4288   19.5905  -34.4194 H   0  0  0  0  0  0  0  0  0  0  0  0
   -6.8850   20.4290  -33.0490 C   0  0  0  0  0  0  0  0  0  0  0  0
   -6.6197   21.4722  -33.2758 H   0  0  0  0  0  0  0  0  0  0  0  0
   -6.8620   23.8330  -31.5360 C   0  0  0  0  0  0  0  0  0  0  0  0
   -7.6583   23.9133  -32.2906 H   0  0  0  0  0  0  0  0  0  0  0  0
   -5.7530   24.6980  -31.5900 C   0  0  0  0  0  0  0  0  0  0  0  0
   -5.6514   25.4504  -32.3860 H   0  0  0  0  0  0  0  0  0  0  0  0
   -4.7930   24.5620  -30.5970 C   0  0  0  0  0  0  0  0  0  0  0  0
   -3.6510   25.2580  -30.4270 N   0  0  0  0  0  0  0  0  0  0  0  0
   -3.0630   24.7730  -29.3330 N   0  0  0  0  0  0  0  0  0  0  0  0
   -1.7710   25.2640  -28.8490 C   0  0  0  0  0  0  0  0  0  0  0  0
   -1.3203   25.9082  -29.6184 H   0  0  0  0  0  0  0  0  0  0  0  0
   -1.9377   25.8296  -27.9204 H   0  0  0  0  0  0  0  0  0  0  0  0
   -0.8170   24.1020  -28.5470 C   0  0  0  0  0  0  0  0  0  0  0  0
    0.1961   24.5040  -28.3987 H   0  0  0  0  0  0  0  0  0  0  0  0
   -1.1798   23.5917  -27.6426 H   0  0  0  0  0  0  0  0  0  0  0  0
   -0.7800   23.0690  -29.6940 C   0  0  0  0  0  0  0  0  0  0  0  0
   -1.2046   23.5380  -30.5938 H   0  0  0  0  0  0  0  0  0  0  0  0
    0.2728   22.7765  -29.8206 H   0  0  0  0  0  0  0  0  0  0  0  0
   -1.5350   21.8260  -29.4190 N   0  0  0  0  0  0  0  0  0  0  0  0
   -2.2280   21.3000  -30.6060 C   0  0  0  0  0  0  0  0  0  0  0  0
   -3.0669   20.6632  -30.2886 H   0  0  0  0  0  0  0  0  0  0  0  0
   -2.6105   22.1372  -31.2083 H   0  0  0  0  0  0  0  0  0  0  0  0
   -1.5245   20.7064  -31.2083 H   0  0  0  0  0  0  0  0  0  0  0  0
   -0.7180   20.7860  -28.7750 C   0  0  0  0  0  0  0  0  0  0  0  0
   -0.7948   20.8838  -27.6821 H   0  0  0  0  0  0  0  0  0  0  0  0
   -1.0804   19.7934  -29.0807 H   0  0  0  0  0  0  0  0  0  0  0  0
    0.3322   20.9031  -29.0807 H   0  0  0  0  0  0  0  0  0  0  0  0
  1  2  1  0
  2  3  2  0
  3  4  1  0
  4  5  2  0
  5  6  1  0
  6  7  1  0
  7  8  1  0
  7  9  2  0
  9 10  1  0
  9 11  1  0
 11 12  2  0
 12 13  1  0
 13 14  1  0
 13 15  2  0
 15 16  1  0
 15 17  1  0
 17 18  1  0
 17 19  2  0
 19 20  1  0
  6 21  2  0
 21 22  1  0
 21 23  1  0
 23 24  1  0
 23 25  2  0
 25 26  1  0
 26 27  1  0
 27 28  1  0
 28 29  1  0
 28 30  1  0
 28 31  1  0
 31 32  1  0
 31 33  1  0
 31 34  1  0
 34 35  1  0
 34 36  1  0
 34 37  1  0
 37 38  1  0
 38 39  1  0
 38 40  1  0
 38 41  1  0
 37 42  1  0
 42 43  1  0
 42 44  1  0
 42 45  1  0
 27  3  1  0
 25  4  1  0
 19 11  1  0
M  CHG  1  26  -1
M  END
>  <UniqueID>  (19) 
17

>  <SMILES>  (19) 
[H]/N=c1/c2nc(/C=C\c3ccccn3)ccc2[n-]n1CCCN(C)C

>  <Energy>  (19) 
100.00956063574019

>  <Genealogy>  (19) 
CN(C)CCCn1[n-]c2ccc(C=Cc3ccccn3)nc2c1=N (protonated)
[H]/N=c1/c2nc(/C=C\c3ccccn3)ccc2[n-]n1CCCN(C)C (cis-trans isomerization)
[H]/N=c1/c2nc(/C=C\c3ccccn3)ccc2[n-]n1CCCN(C)C (3D coordinates assigned)
[H]/N=c1/c2nc(/C=C\c3ccccn3)ccc2[n-]n1CCCN(C)C (optimized conformer: 100.00956063574019 kcal/mol)

>  <smiles>  (19) 
CN(C)CCCn1[nH]c2ccc(C=Cc3ccccn3)nc2c1=N

>  <score_type>  (19) 
oracle

>  <origin>  (19) 
adg

>  <m_score__min__energy>  (19) 
-9.3699999999999992

>  <m_primary>  (19) 
energy

$$$$
19:0
     RDKit          3D

 41 42  0  0  0  0  0  0  0  0999 V2000
   -5.0300   17.4810  -34.7930 C   0  0  0  0  0  0  0  0  0  0  0  0
   -5.9770   18.6270  -34.4450 C   0  0  0  0  0  0  0  0  0  0  0  0
   -5.9030   18.9710  -33.0160 N   0  0  0  0  0  0  0  0  0  0  0  0
   -6.8350   18.3240  -32.0730 C   0  0  0  0  0  0  0  0  0  0  0  0
   -8.2930   18.7480  -32.3170 C   0  0  0  0  0  0  0  0  0  0  0  0
   -8.3750   20.0700  -32.9570 N   0  0  0  0  0  0  0  0  0  0  0  0
   -8.9810   21.0660  -32.0580 C   0  0  0  0  0  0  0  0  0  0  0  0
   -7.9630   22.0740  -31.5720 C   0  0  0  0  0  0  0  0  0  0  0  0
   -7.7760   22.2970  -30.1970 C   0  0  0  0  0  0  0  0  0  0  0  0
   -6.8750   23.2710  -29.7570 C   0  0  0  0  0  0  0  0  0  0  0  0
   -6.1510   24.0250  -30.6840 C   0  0  0  0  0  0  0  0  0  0  0  0
   -6.3280   23.8090  -32.0530 C   0  0  0  0  0  0  0  0  0  0  0  0
   -7.2330   22.8400  -32.4980 C   0  0  0  0  0  0  0  0  0  0  0  0
   -4.9820   19.9930  -32.5670 C   0  0  0  0  0  0  0  0  0  0  0  0
   -4.0720   20.5770  -33.4670 C   0  0  0  0  0  0  0  0  0  0  0  0
   -3.1540   21.5340  -33.0260 C   0  0  0  0  0  0  0  0  0  0  0  0
   -3.1320   21.9170  -31.6840 C   0  0  0  0  0  0  0  0  0  0  0  0
   -4.0350   21.3510  -30.7820 C   0  0  0  0  0  0  0  0  0  0  0  0
   -4.9590   20.3970  -31.2190 C   0  0  0  0  0  0  0  0  0  0  0  0
   -4.6520   17.0236  -33.8668 H   0  0  0  0  0  0  0  0  0  0  0  0
   -5.5702   16.7248  -35.3815 H   0  0  0  0  0  0  0  0  0  0  0  0
   -4.1855   17.8690  -35.3815 H   0  0  0  0  0  0  0  0  0  0  0  0
   -5.7032   19.5106  -35.0403 H   0  0  0  0  0  0  0  0  0  0  0  0
   -7.0049   18.3068  -34.6707 H   0  0  0  0  0  0  0  0  0  0  0  0
   -6.7585   17.2330  -32.1912 H   0  0  0  0  0  0  0  0  0  0  0  0
   -6.5576   18.6360  -31.0553 H   0  0  0  0  0  0  0  0  0  0  0  0
   -8.7758   18.0055  -32.9694 H   0  0  0  0  0  0  0  0  0  0  0  0
   -8.8009   18.8063  -31.3430 H   0  0  0  0  0  0  0  0  0  0  0  0
   -8.9540   20.0150  -33.8270 H   0  0  0  0  0  0  0  0  0  0  0  0
   -9.7778   21.5969  -32.5995 H   0  0  0  0  0  0  0  0  0  0  0  0
   -9.3845   20.5367  -31.1822 H   0  0  0  0  0  0  0  0  0  0  0  0
   -8.3411   21.7026  -29.4640 H   0  0  0  0  0  0  0  0  0  0  0  0
   -6.7359   23.4440  -28.6796 H   0  0  0  0  0  0  0  0  0  0  0  0
   -5.4409   24.7895  -30.3357 H   0  0  0  0  0  0  0  0  0  0  0  0
   -5.7551   24.4016  -32.7814 H   0  0  0  0  0  0  0  0  0  0  0  0
   -7.3743   22.6765  -33.5766 H   0  0  0  0  0  0  0  0  0  0  0  0
   -4.0831   20.2782  -34.5256 H   0  0  0  0  0  0  0  0  0  0  0  0
   -2.4476   21.9862  -33.7377 H   0  0  0  0  0  0  0  0  0  0  0  0
   -2.4034   22.6646  -31.3371 H   0  0  0  0  0  0  0  0  0  0  0  0
   -4.0194   21.6563  -29.7253 H   0  0  0  0  0  0  0  0  0  0  0  0
   -5.6723   19.9596  -30.5049 H   0  0  0  0  0  0  0  0  0  0  0  0
  1  2  1  0
  2  3  1  0
  3  4  1  0
  4  5  1  0
  5  6  1  0
  6  7  1  0
  7  8  1  0
  8  9  2  0
  9 10  1  0
 10 11  2  0
 11 12  1  0
 12 13  2  0
  3 14  1  0
 14 15  2  0
 15 16  1  0
 16 17  2  0
 17 18  1  0
 18 19  2  0
 13  8  1  0
 19 14  1  0
  1 20  1  0
  1 21  1  0
  1 22  1  0
  2 23  1  0
  2 24  1  0
  4 25  1  0
  4 26  1  0
  5 27  1  0
  5 28  1  0
  6 29  1  0
  7 30  1  0
  7 31  1  0
  9 32  1  0
 10 33  1  0
 11 34  1  0
 12 35  1  0
 13 36  1  0
 15 37  1  0
 16 38  1  0
 17 39  1  0
 18 40  1  0
 19 41  1  0
M  END
>  <UniqueID>  (20) 
18

>  <SMILES>  (20) 
CCN(CCNCc1ccccc1)c1ccccc1

>  <Energy>  (20) 
36.20366868085924

>  <Genealogy>  (20) 
CCN(CCNCc1ccccc1)c1ccccc1 (3D coordinates assigned)
CCN(CCNCc1ccccc1)c1ccccc1 (optimized conformer: 36.20366868085924 kcal/mol)

>  <smiles>  (20) 
CCN(CCNCc1ccccc1)c1ccccc1

>  <score_type>  (20) 
oracle

>  <origin>  (20) 
adg

>  <m_score__min__energy>  (20) 
-6.8600000000000003

>  <m_primary>  (20) 
energy

$$$$
20:0
     RDKit          3D

 31 31  0  0  0  0  0  0  0  0999 V2000
  -10.3171   20.3878  -32.5540 H   0  0  0  0  0  0  0  0  0  0  0  0
   -9.2900   20.6240  -32.2390 C   0  0  0  0  0  0  0  0  0  0  0  0
   -9.0950   21.7620  -31.5550 C   0  0  0  0  0  0  0  0  0  0  0  0
   -9.7854   22.5952  -31.7525 H   0  0  0  0  0  0  0  0  0  0  0  0
   -8.0000   21.9920  -30.5320 C   0  0  0  0  0  0  0  0  0  0  0  0
   -7.5949   21.0142  -30.2324 H   0  0  0  0  0  0  0  0  0  0  0  0
   -8.4568   22.5350  -29.6915 H   0  0  0  0  0  0  0  0  0  0  0  0
   -6.8730   22.8350  -31.0320 N   0  0  0  0  0  0  0  0  0  0  0  0
   -6.5850   23.9490  -30.0970 C   0  0  0  0  0  0  0  0  0  0  0  0
   -6.6775   23.5913  -29.0609 H   0  0  0  0  0  0  0  0  0  0  0  0
   -5.5624   24.3163  -30.2682 H   0  0  0  0  0  0  0  0  0  0  0  0
   -7.3015   24.7659  -30.2682 H   0  0  0  0  0  0  0  0  0  0  0  0
   -7.2660   23.4100  -32.3410 C   0  0  0  0  0  0  0  0  0  0  0  0
   -7.8798   24.3081  -32.1776 H   0  0  0  0  0  0  0  0  0  0  0  0
   -6.3634   23.6810  -32.9083 H   0  0  0  0  0  0  0  0  0  0  0  0
   -7.8464   22.6675  -32.9083 H   0  0  0  0  0  0  0  0  0  0  0  0
   -5.6500   22.0210  -31.2260 C   0  0  0  0  0  0  0  0  0  0  0  0
   -5.2344   21.7444  -30.2458 H   0  0  0  0  0  0  0  0  0  0  0  0
   -5.9015   21.1095  -31.7881 H   0  0  0  0  0  0  0  0  0  0  0  0
   -4.9063   22.6049  -31.7881 H   0  0  0  0  0  0  0  0  0  0  0  0
   -8.2270   19.6670  -32.5990 C   0  0  0  0  0  0  0  0  0  0  0  0
   -7.2050   20.0690  -33.4720 C   0  0  0  0  0  0  0  0  0  0  0  0
   -7.2168   21.0818  -33.9012 H   0  0  0  0  0  0  0  0  0  0  0  0
   -6.1710   19.1850  -33.7980 C   0  0  0  0  0  0  0  0  0  0  0  0
   -5.3808   19.4974  -34.4965 H   0  0  0  0  0  0  0  0  0  0  0  0
   -6.1410   17.9050  -33.2370 C   0  0  0  0  0  0  0  0  0  0  0  0
   -5.3317   17.2080  -33.5001 H   0  0  0  0  0  0  0  0  0  0  0  0
   -7.1390   17.5110  -32.3420 C   0  0  0  0  0  0  0  0  0  0  0  0
   -7.1099   16.5067  -31.8942 H   0  0  0  0  0  0  0  0  0  0  0  0
   -8.1740   18.3910  -32.0150 C   0  0  0  0  0  0  0  0  0  0  0  0
   -8.9495   18.0834  -31.2981 H   0  0  0  0  0  0  0  0  0  0  0  0
  1  2  1  0
  2  3  2  0
  3  4  1  0
  3  5  1  0
  5  6  1  0
  5  7  1  0
  5  8  1  0
  8  9  1  0
  9 10  1  0
  9 11  1  0
  9 12  1  0
  8 13  1  0
 13 14  1  0
 13 15  1  0
 13 16  1  0
  8 17  1  0
 17 18  1  0
 17 19  1  0
 17 20  1  0
  2 21  1  0
 21 22  2  0
 22 23  1  0
 22 24  1  0
 24 25  1  0
 24 26  2  0
 26 27  1  0
 26 28  1  0
 28 29  1  0
 28 30  2  0
 30 31  1  0
 30 21  1  0
M  CHG  1   8   1
M  END
>  <UniqueID>  (21) 
19

>  <SMILES>  (21) 
C[N+](C)(C)C/C=C\c1ccccc1

>  <Energy>  (21) 
40.04833092803486

>  <Genealogy>  (21) 
C[N+](C)(C)C/C=C\c1ccccc1 (cis-trans isomerization)
C[N+](C)(C)C/C=C\c1ccccc1 (3D coordinates assigned)
C[N+](C)(C)C/C=C\c1ccccc1 (optimized conformer: 40.04833092803486 kcal/mol)

>  <smiles>  (21) 
C[N+](C)(C)CC=Cc1ccccc1

>  <score_type>  (21) 
oracle

>  <origin>  (21) 
adg

>  <m_score__min__energy>  (21) 
-4.6900000000000004

>  <m_primary>  (21) 
energy

$$$$
21:0
     RDKit          3D

 36 38  0  0  0  0  0  0  0  0999 V2000
   -4.1180   25.1110  -30.8290 O   0  0  0  0  0  0  0  0  0  0  0  0
   -3.7500   24.1950  -30.0450 C   0  0  0  0  0  0  0  0  0  0  0  0
   -3.5210   22.8670  -30.5560 N   0  0  0  0  0  0  0  0  0  0  0  0
   -3.9310   21.6960  -29.7710 C   0  0  0  0  0  0  0  0  0  0  0  0
   -4.2430   20.5060  -30.6970 C   0  0  0  0  0  0  0  0  0  0  0  0
   -4.9610   20.9400  -31.9160 N   0  0  0  0  0  0  0  0  0  0  0  0
   -6.3280   21.4130  -31.6080 C   0  0  0  0  0  0  0  0  0  0  0  0
   -7.3170   20.3090  -31.8150 C   0  0  0  0  0  0  0  0  0  0  0  0
   -8.6550   20.4610  -32.1510 C   0  0  0  0  0  0  0  0  0  0  0  0
   -9.3220   19.2420  -32.3190 C   0  0  0  0  0  0  0  0  0  0  0  0
   -8.5110   18.1310  -32.1220 C   0  0  0  0  0  0  0  0  0  0  0  0
   -6.9630   18.6670  -31.7400 S   0  0  0  0  0  0  0  0  0  0  0  0
   -4.1890   21.9210  -32.7290 C   0  0  0  0  0  0  0  0  0  0  0  0
   -3.0940   22.6630  -31.9400 C   0  0  0  0  0  0  0  0  0  0  0  0
   -3.5850   24.4810  -28.6480 N   0  0  0  0  0  0  0  0  0  0  0  0
   -4.5820   24.5730  -27.7810 N   0  0  0  0  0  0  0  0  0  0  0  0
   -4.0750   24.8330  -26.5600 C   0  0  0  0  0  0  0  0  0  0  0  0
   -2.6990   24.9060  -26.6610 C   0  0  0  0  0  0  0  0  0  0  0  0
   -1.4620   25.2540  -25.2490 Br  0  0  0  0  0  0  0  0  0  0  0  0
   -2.4210   24.6740  -27.9940 C   0  0  0  0  0  0  0  0  0  0  0  0
   -0.8230   24.6870  -28.7240 Cl  0  0  0  0  0  0  0  0  0  0  0  0
   -3.1172   21.4172  -29.0855 H   0  0  0  0  0  0  0  0  0  0  0  0
   -4.8373   21.9499  -29.2017 H   0  0  0  0  0  0  0  0  0  0  0  0
   -3.2985   20.0248  -30.9909 H   0  0  0  0  0  0  0  0  0  0  0  0
   -4.8875   19.8027  -30.1493 H   0  0  0  0  0  0  0  0  0  0  0  0
   -6.3696   21.7461  -30.5605 H   0  0  0  0  0  0  0  0  0  0  0  0
   -6.5778   22.2484  -32.2786 H   0  0  0  0  0  0  0  0  0  0  0  0
   -9.1417   21.4399  -32.2729 H   0  0  0  0  0  0  0  0  0  0  0  0
  -10.3876   19.1703  -32.5821 H   0  0  0  0  0  0  0  0  0  0  0  0
   -8.8273   17.0805  -32.2022 H   0  0  0  0  0  0  0  0  0  0  0  0
   -3.7114   21.3817  -33.5603 H   0  0  0  0  0  0  0  0  0  0  0  0
   -4.9044   22.6821  -33.0739 H   0  0  0  0  0  0  0  0  0  0  0  0
   -2.1700   22.0662  -31.9513 H   0  0  0  0  0  0  0  0  0  0  0  0
   -2.9138   23.6417  -32.4087 H   0  0  0  0  0  0  0  0  0  0  0  0
   -5.5900   24.4210  -28.0030 H   0  0  0  0  0  0  0  0  0  0  0  0
   -4.6589   24.9650  -25.6372 H   0  0  0  0  0  0  0  0  0  0  0  0
  1  2  2  0
  2  3  1  0
  3  4  1  0
  4  5  1  0
  5  6  1  0
  6  7  1  0
  7  8  1  0
  8  9  2  0
  9 10  1  0
 10 11  2  0
 11 12  1  0
  6 13  1  0
 13 14  1  0
  2 15  1  0
 15 16  1  0
 16 17  2  0
 17 18  1  0
 18 19  1  0
 18 20  2  0
 20 21  1  0
 14  3  1  0
 20 15  1  0
 12  8  1  0
  4 22  1  0
  4 23  1  0
  5 24  1  0
  5 25  1  0
  7 26  1  0
  7 27  1  0
  9 28  1  0
 10 29  1  0
 11 30  1  0
 13 31  1  0
 13 32  1  0
 14 33  1  0
 14 34  1  0
 16 35  1  0
 17 36  1  0
M  CHG  1  16   1
M  END
>  <UniqueID>  (22) 
20

>  <SMILES>  (22) 
O=C(N1CCN(Cc2cccs2)CC1)n1[nH+]cc(Br)c1Cl

>  <Energy>  (22) 
106.43136571625729

>  <Genealogy>  (22) 
O=C(N1CCN(Cc2cccs2)CC1)n1[nH+]cc(Br)c1Cl (protonated)
O=C(N1CCN(Cc2cccs2)CC1)n1[nH+]cc(Br)c1Cl (3D coordinates assigned)
O=C(N1CCN(Cc2cccs2)CC1)n1[nH+]cc(Br)c1Cl (nonaromatic ring conformer: 106.43136571625729 kcal/mol)

>  <smiles>  (22) 
O=C(N1CCN(Cc2cccs2)CC1)n1ncc(Br)c1Cl

>  <score_type>  (22) 
oracle

>  <origin>  (22) 
adg

>  <m_score__min__energy>  (22) 
-7.46

>  <m_primary>  (22) 
energy

$$$$
22:0
     RDKit          3D

 54 58  0  0  0  0  0  0  0  0999 V2000
   -0.5190   15.0680  -31.8910 C   0  0  0  0  0  0  0  0  0  0  0  0
   -1.4550   14.3730  -32.8210 C   0  0  0  0  0  0  0  0  0  0  0  0
   -1.0930   13.4550  -33.7870 C   0  0  0  0  0  0  0  0  0  0  0  0
   -2.2700   13.0640  -34.3910 C   0  0  0  0  0  0  0  0  0  0  0  0
   -3.2710   13.7690  -33.7490 C   0  0  0  0  0  0  0  0  0  0  0  0
   -4.7390   13.6680  -34.0340 C   0  0  0  0  0  0  0  0  0  0  0  0
   -5.2710   14.9560  -34.5240 N   0  0  0  0  0  0  0  0  0  0  0  0
   -4.1780   15.8530  -34.9910 C   0  0  0  0  0  0  0  0  0  0  0  0
   -4.5620   17.3340  -34.9260 C   0  0  0  0  0  0  0  0  0  0  0  0
   -4.9310   17.6850  -33.5520 N   0  0  0  0  0  0  0  0  0  0  0  0
   -4.7440   19.0270  -33.0660 C   0  0  0  0  0  0  0  0  0  0  0  0
   -3.4540   19.5540  -32.9400 C   0  0  0  0  0  0  0  0  0  0  0  0
   -2.3700   18.8240  -33.3040 F   0  0  0  0  0  0  0  0  0  0  0  0
   -3.2670   20.8390  -32.4420 C   0  0  0  0  0  0  0  0  0  0  0  0
   -4.3660   21.6410  -32.0830 C   0  0  0  0  0  0  0  0  0  0  0  0
   -4.1670   22.9210  -31.5350 C   0  0  0  0  0  0  0  0  0  0  0  0
   -2.9940   23.3650  -31.3830 O   0  0  0  0  0  0  0  0  0  0  0  0
   -5.2710   23.6980  -31.1440 C   0  0  0  0  0  0  0  0  0  0  0  0
   -5.1180   25.0390  -30.5180 C   0  0  0  0  0  0  0  0  0  0  0  0
   -6.1070   25.6410  -30.0220 O   0  0  0  0  0  0  0  0  0  0  0  0
   -3.8720   25.6550  -30.4710 O   0  0  0  0  0  0  0  0  0  0  0  0
   -6.5560   23.1870  -31.3640 C   0  0  0  0  0  0  0  0  0  0  0  0
   -6.7590   21.9770  -31.9710 N   0  0  0  0  0  0  0  0  0  0  0  0
   -8.1570   21.5890  -32.2450 C   0  0  0  0  0  0  0  0  0  0  0  0
   -9.0530   21.4770  -31.0110 C   0  0  0  0  0  0  0  0  0  0  0  0
   -9.1810   22.6750  -31.9260 C   0  0  0  0  0  0  0  0  0  0  0  0
   -5.6890   21.1510  -32.2580 C   0  0  0  0  0  0  0  0  0  0  0  0
   -5.8540   19.8110  -32.7090 C   0  0  0  0  0  0  0  0  0  0  0  0
   -7.0730   19.2170  -32.7240 F   0  0  0  0  0  0  0  0  0  0  0  0
   -5.5180   16.6590  -32.6830 C   0  0  0  0  0  0  0  0  0  0  0  0
   -6.1920   15.5740  -33.5340 C   0  0  0  0  0  0  0  0  0  0  0  0
   -2.7570   14.5380  -32.8160 O   0  0  0  0  0  0  0  0  0  0  0  0
   -0.8081   14.8533  -30.8516 H   0  0  0  0  0  0  0  0  0  0  0  0
    0.5062   14.7106  -32.0677 H   0  0  0  0  0  0  0  0  0  0  0  0
   -0.5647   16.1528  -32.0677 H   0  0  0  0  0  0  0  0  0  0  0  0
   -0.0769   13.1076  -34.0254 H   0  0  0  0  0  0  0  0  0  0  0  0
   -2.3876   12.3418  -35.2123 H   0  0  0  0  0  0  0  0  0  0  0  0
   -4.9049   12.8954  -34.7992 H   0  0  0  0  0  0  0  0  0  0  0  0
   -5.2605   13.4042  -33.1021 H   0  0  0  0  0  0  0  0  0  0  0  0
   -3.2939   15.6903  -34.3570 H   0  0  0  0  0  0  0  0  0  0  0  0
   -3.9736   15.6082  -36.0437 H   0  0  0  0  0  0  0  0  0  0  0  0
   -3.7068   17.9485  -35.2440 H   0  0  0  0  0  0  0  0  0  0  0  0
   -5.4166   17.5200  -35.5932 H   0  0  0  0  0  0  0  0  0  0  0  0
   -2.2466   21.2335  -32.3273 H   0  0  0  0  0  0  0  0  0  0  0  0
   -7.4274   23.7748  -31.0397 H   0  0  0  0  0  0  0  0  0  0  0  0
   -7.9346   20.9427  -33.1069 H   0  0  0  0  0  0  0  0  0  0  0  0
   -9.8524   20.7221  -30.9792 H   0  0  0  0  0  0  0  0  0  0  0  0
   -8.8775   21.3377  -29.9341 H   0  0  0  0  0  0  0  0  0  0  0  0
  -10.0740   22.7900  -32.5580 H   0  0  0  0  0  0  0  0  0  0  0  0
   -9.1371   23.7653  -31.7867 H   0  0  0  0  0  0  0  0  0  0  0  0
   -4.7257   16.2026  -32.0715 H   0  0  0  0  0  0  0  0  0  0  0  0
   -6.2705   17.1257  -32.0303 H   0  0  0  0  0  0  0  0  0  0  0  0
   -6.5668   14.7859  -32.8644 H   0  0  0  0  0  0  0  0  0  0  0  0
   -7.0050   16.0556  -34.0971 H   0  0  0  0  0  0  0  0  0  0  0  0
  1  2  1  0
  2  3  2  0
  3  4  1  0
  4  5  2  0
  5  6  1  0
  6  7  1  0
  7  8  1  0
  8  9  1  0
  9 10  1  0
 10 11  1  0
 11 12  2  0
 12 13  1  0
 12 14  1  0
 14 15  2  0
 15 16  1  0
 16 17  2  0
 16 18  1  0
 18 19  1  0
 19 20  2  0
 19 21  1  0
 18 22  2  0
 22 23  1  0
 23 24  1  0
 24 25  1  0
 25 26  1  0
 23 27  1  0
 27 28  2  0
 28 29  1  0
 10 30  1  0
 30 31  1  0
  5 32  1  0
 32  2  1  0
 31  7  1  0
 28 11  1  0
 27 15  1  0
 26 24  1  0
  1 33  1  0
  1 34  1  0
  1 35  1  0
  3 36  1  0
  4 37  1  0
  6 38  1  0
  6 39  1  0
  8 40  1  0
  8 41  1  0
  9 42  1  0
  9 43  1  0
 14 44  1  0
 22 45  1  0
 24 46  1  0
 25 47  1  0
 25 48  1  0
 26 49  1  0
 26 50  1  0
 30 51  1  0
 30 52  1  0
 31 53  1  0
 31 54  1  0
M  CHG  1  21  -1
M  END
>  <UniqueID>  (23) 
21

>  <SMILES>  (23) 
Cc1ccc(CN2CCN(c3c(F)cc4c(=O)c(C(=O)[O-])cn(C5CC5)c4c3F)CC2)o1

>  <Energy>  (23) 
375.1256614985811

>  <Genealogy>  (23) 
Cc1ccc(CN2CCN(c3c(F)cc4c(=O)c(C(=O)[O-])cn(C5CC5)c4c3F)CC2)o1 (protonated)
Cc1ccc(CN2CCN(c3c(F)cc4c(=O)c(C(=O)[O-])cn(C5CC5)c4c3F)CC2)o1 (3D coordinates assigned)
Cc1ccc(CN2CCN(c3c(F)cc4c(=O)c(C(=O)[O-])cn(C5CC5)c4c3F)CC2)o1 (nonaromatic ring conformer: 375.1256614985811 kcal/mol)

>  <smiles>  (23) 
Cc1ccc(CN2CCN(c3c(F)cc4c(=O)c(C(=O)O)cn(C5CC5)c4c3F)CC2)o1

>  <score_type>  (23) 
oracle

>  <origin>  (23) 
adg

>  <m_score__min__energy>  (23) 
-10.380000000000001

>  <m_primary>  (23) 
energy

$$$$
23:0
     RDKit          3D

 42 45  0  0  0  0  0  0  0  0999 V2000
   -1.6040   26.4320  -25.8930 C   0  0  0  0  0  0  0  0  0  0  0  0
   -1.0140   25.4760  -26.8950 C   0  0  0  0  0  0  0  0  0  0  0  0
    0.3820   25.4180  -27.0460 C   0  0  0  0  0  0  0  0  0  0  0  0
    0.9460   24.5530  -27.9270 N   0  0  0  0  0  0  0  0  0  0  0  0
    0.1950   23.7170  -28.6890 C   0  0  0  0  0  0  0  0  0  0  0  0
   -1.1950   23.7340  -28.5800 C   0  0  0  0  0  0  0  0  0  0  0  0
   -1.8200   24.6210  -27.6900 C   0  0  0  0  0  0  0  0  0  0  0  0
   -3.3310   24.6040  -27.6060 C   0  0  0  0  0  0  0  0  0  0  0  0
   -3.8820   23.5720  -28.4830 N   0  0  0  0  0  0  0  0  0  0  0  0
   -4.0800   23.7840  -29.8900 C   0  0  0  0  0  0  0  0  0  0  0  0
   -3.8260   24.9090  -30.3980 O   0  0  0  0  0  0  0  0  0  0  0  0
   -4.5760   22.6990  -30.7540 C   0  0  0  0  0  0  0  0  0  0  0  0
   -5.9150   22.3350  -30.9050 C   0  0  0  0  0  0  0  0  0  0  0  0
   -6.0930   21.2700  -31.7970 C   0  0  0  0  0  0  0  0  0  0  0  0
   -4.9090   20.7830  -32.3210 C   0  0  0  0  0  0  0  0  0  0  0  0
   -3.6240   21.6810  -31.7100 S   0  0  0  0  0  0  0  0  0  0  0  0
   -4.8750   19.6500  -33.2570 C   0  0  0  0  0  0  0  0  0  0  0  0
   -3.6740   19.0230  -33.6190 C   0  0  0  0  0  0  0  0  0  0  0  0
   -3.6930   17.9300  -34.4920 C   0  0  0  0  0  0  0  0  0  0  0  0
   -4.9050   17.4650  -35.0080 C   0  0  0  0  0  0  0  0  0  0  0  0
   -6.1050   18.0890  -34.6560 C   0  0  0  0  0  0  0  0  0  0  0  0
   -6.1040   19.1750  -33.7670 C   0  0  0  0  0  0  0  0  0  0  0  0
   -7.3960   19.9170  -33.4680 C   0  0  0  0  0  0  0  0  0  0  0  0
   -7.4010   20.5870  -32.0780 C   0  0  0  0  0  0  0  0  0  0  0  0
   -1.3852   26.0774  -24.8750 H   0  0  0  0  0  0  0  0  0  0  0  0
   -1.1647   27.4303  -26.0359 H   0  0  0  0  0  0  0  0  0  0  0  0
   -2.6933   26.4869  -26.0359 H   0  0  0  0  0  0  0  0  0  0  0  0
    1.0233   26.0794  -26.4449 H   0  0  0  0  0  0  0  0  0  0  0  0
    0.6831   23.0263  -29.3923 H   0  0  0  0  0  0  0  0  0  0  0  0
   -1.8024   23.0513  -29.1924 H   0  0  0  0  0  0  0  0  0  0  0  0
   -3.6334   24.3967  -26.5689 H   0  0  0  0  0  0  0  0  0  0  0  0
   -3.7157   25.5839  -27.9250 H   0  0  0  0  0  0  0  0  0  0  0  0
   -4.1370   22.6540  -28.0560 H   0  0  0  0  0  0  0  0  0  0  0  0
   -6.7432   22.8322  -30.3788 H   0  0  0  0  0  0  0  0  0  0  0  0
   -2.7182   19.3901  -33.2170 H   0  0  0  0  0  0  0  0  0  0  0  0
   -2.7513   17.4356  -34.7728 H   0  0  0  0  0  0  0  0  0  0  0  0
   -4.9149   16.6049  -35.6936 H   0  0  0  0  0  0  0  0  0  0  0  0
   -7.0545   17.7274  -35.0776 H   0  0  0  0  0  0  0  0  0  0  0  0
   -7.5378   20.6952  -34.2323 H   0  0  0  0  0  0  0  0  0  0  0  0
   -8.2095   19.1767  -33.4784 H   0  0  0  0  0  0  0  0  0  0  0  0
   -8.2094   21.3322  -32.0422 H   0  0  0  0  0  0  0  0  0  0  0  0
   -7.5564   19.8077  -31.3174 H   0  0  0  0  0  0  0  0  0  0  0  0
  1  2  1  0
  2  3  2  0
  3  4  1  0
  4  5  2  0
  5  6  1  0
  6  7  2  0
  7  8  1  0
  8  9  1  0
  9 10  1  0
 10 11  2  0
 10 12  1  0
 12 13  2  0
 13 14  1  0
 14 15  2  0
 15 16  1  0
 15 17  1  0
 17 18  2  0
 18 19  1  0
 19 20  2  0
 20 21  1  0
 21 22  2  0
 22 23  1  0
 23 24  1  0
  7  2  1  0
 16 12  1  0
 22 17  1  0
 24 14  1  0
  1 25  1  0
  1 26  1  0
  1 27  1  0
  3 28  1  0
  5 29  1  0
  6 30  1  0
  8 31  1  0
  8 32  1  0
  9 33  1  0
 13 34  1  0
 18 35  1  0
 19 36  1  0
 20 37  1  0
 21 38  1  0
 23 39  1  0
 23 40  1  0
 24 41  1  0
 24 42  1  0
M  END
>  <UniqueID>  (24) 
22

>  <SMILES>  (24) 
Cc1cnccc1CNC(=O)c1cc2c(s1)-c1ccccc1CC2

>  <Energy>  (24) 
76.01550356993714

>  <Genealogy>  (24) 
Cc1cnccc1CNC(=O)c1cc2c(s1)-c1ccccc1CC2 (3D coordinates assigned)
Cc1cnccc1CNC(=O)c1cc2c(s1)-c1ccccc1CC2 (nonaromatic ring conformer: 76.01550356993714 kcal/mol)

>  <smiles>  (24) 
Cc1cnccc1CNC(=O)c1cc2c(s1)-c1ccccc1CC2

>  <score_type>  (24) 
oracle

>  <origin>  (24) 
adg

>  <m_score__min__energy>  (24) 
-9.0500000000000007

>  <m_primary>  (24) 
energy

$$$$
24:0
     RDKit          3D

 53 56  0  0  0  0  0  0  0  0999 V2000
   -7.2477   25.5976  -31.4448 H   0  0  0  0  0  0  0  0  0  0  0  0
   -6.3980   24.9210  -31.2710 C   0  0  0  0  0  0  0  0  0  0  0  0
   -6.3770   23.6620  -31.8610 C   0  0  0  0  0  0  0  0  0  0  0  0
   -7.1990   23.3558  -32.5248 H   0  0  0  0  0  0  0  0  0  0  0  0
   -5.3180   22.7830  -31.6160 C   0  0  0  0  0  0  0  0  0  0  0  0
   -5.3038   21.8026  -32.1146 H   0  0  0  0  0  0  0  0  0  0  0  0
   -4.2610   23.1320  -30.7360 C   0  0  0  0  0  0  0  0  0  0  0  0
   -3.1640   22.2740  -30.3810 C   0  0  0  0  0  0  0  0  0  0  0  0
   -3.1180   20.9810  -30.5980 N   0  0  0  0  0  0  0  0  0  0  0  0
   -2.8130   20.1780  -31.7760 C   0  0  0  0  0  0  0  0  0  0  0  0
   -2.4843   19.1757  -31.4641 H   0  0  0  0  0  0  0  0  0  0  0  0
   -2.0098   20.6574  -32.3548 H   0  0  0  0  0  0  0  0  0  0  0  0
   -4.0720   20.0600  -32.6380 C   0  0  0  0  0  0  0  0  0  0  0  0
   -3.7863   19.6993  -33.6371 H   0  0  0  0  0  0  0  0  0  0  0  0
   -4.5410   21.0534  -32.6941 H   0  0  0  0  0  0  0  0  0  0  0  0
   -5.0930   19.0850  -32.0310 C   0  0  0  0  0  0  0  0  0  0  0  0
   -5.3034   19.3869  -30.9944 H   0  0  0  0  0  0  0  0  0  0  0  0
   -4.6656   18.0720  -32.0640 H   0  0  0  0  0  0  0  0  0  0  0  0
   -6.3600   19.0810  -32.7980 N   0  0  0  0  0  0  0  0  0  0  0  0
   -7.5450   19.1920  -31.9080 C   0  0  0  0  0  0  0  0  0  0  0  0
   -7.2286   19.5640  -30.9224 H   0  0  0  0  0  0  0  0  0  0  0  0
   -8.0112   18.2019  -31.7967 H   0  0  0  0  0  0  0  0  0  0  0  0
   -8.5540   20.1600  -32.5150 C   0  0  0  0  0  0  0  0  0  0  0  0
   -9.0947   20.6787  -31.7097 H   0  0  0  0  0  0  0  0  0  0  0  0
   -8.0259   20.8980  -33.1367 H   0  0  0  0  0  0  0  0  0  0  0  0
   -9.2695   19.6018  -33.1367 H   0  0  0  0  0  0  0  0  0  0  0  0
   -6.4360   17.8870  -33.6720 C   0  0  0  0  0  0  0  0  0  0  0  0
   -5.9707   17.0341  -33.1561 H   0  0  0  0  0  0  0  0  0  0  0  0
   -7.4945   17.6786  -33.8870 H   0  0  0  0  0  0  0  0  0  0  0  0
   -5.7100   18.1260  -34.9960 C   0  0  0  0  0  0  0  0  0  0  0  0
   -4.6827   18.4642  -34.7950 H   0  0  0  0  0  0  0  0  0  0  0  0
   -5.6816   17.1898  -35.5728 H   0  0  0  0  0  0  0  0  0  0  0  0
   -6.2433   18.8960  -35.5728 H   0  0  0  0  0  0  0  0  0  0  0  0
   -2.0710   22.8320  -29.6590 C   0  0  0  0  0  0  0  0  0  0  0  0
   -0.9250   22.0660  -29.3500 C   0  0  0  0  0  0  0  0  0  0  0  0
   -0.8636   21.0216  -29.6897 H   0  0  0  0  0  0  0  0  0  0  0  0
    0.1290   22.6140  -28.6210 C   0  0  0  0  0  0  0  0  0  0  0  0
    1.0141   22.0008  -28.3964 H   0  0  0  0  0  0  0  0  0  0  0  0
    0.0700   23.9370  -28.1730 C   0  0  0  0  0  0  0  0  0  0  0  0
    1.1340   24.4810  -27.4360 C   0  0  0  0  0  0  0  0  0  0  0  0
    2.0175   23.8651  -27.2123 H   0  0  0  0  0  0  0  0  0  0  0  0
    1.0740   25.8020  -26.9860 C   0  0  0  0  0  0  0  0  0  0  0  0
    1.9101   26.2242  -26.4092 H   0  0  0  0  0  0  0  0  0  0  0  0
   -0.0450   26.5870  -27.2670 C   0  0  0  0  0  0  0  0  0  0  0  0
   -0.0880   27.6268  -26.9106 H   0  0  0  0  0  0  0  0  0  0  0  0
   -1.1110   26.0580  -27.9990 C   0  0  0  0  0  0  0  0  0  0  0  0
   -1.9890   26.6842  -28.2155 H   0  0  0  0  0  0  0  0  0  0  0  0
   -1.0690   24.7270  -28.4620 C   0  0  0  0  0  0  0  0  0  0  0  0
   -2.1340   24.1700  -29.2070 C   0  0  0  0  0  0  0  0  0  0  0  0
   -3.2320   24.9150  -29.4790 N   0  0  0  0  0  0  0  0  0  0  0  0
   -4.2720   24.4550  -30.2110 C   0  0  0  0  0  0  0  0  0  0  0  0
   -5.3420   25.3220  -30.4610 C   0  0  0  0  0  0  0  0  0  0  0  0
   -5.3472   26.3269  -30.0137 H   0  0  0  0  0  0  0  0  0  0  0  0
  1  2  1  0
  2  3  2  0
  3  4  1  0
  3  5  1  0
  5  6  1  0
  5  7  2  0
  7  8  1  0
  8  9  2  0
  9 10  1  0
 10 11  1  0
 10 12  1  0
 10 13  1  0
 13 14  1  0
 13 15  1  0
 13 16  1  0
 16 17  1  0
 16 18  1  0
 16 19  1  0
 19 20  1  0
 20 21  1  0
 20 22  1  0
 20 23  1  0
 23 24  1  0
 23 25  1  0
 23 26  1  0
 19 27  1  0
 27 28  1  0
 27 29  1  0
 27 30  1  0
 30 31  1  0
 30 32  1  0
 30 33  1  0
  8 34  1  0
 34 35  2  0
 35 36  1  0
 35 37  1  0
 37 38  1  0
 37 39  2  0
 39 40  1  0
 40 41  1  0
 40 42  2  0
 42 43  1  0
 42 44  1  0
 44 45  1  0
 44 46  2  0
 46 47  1  0
 46 48  1  0
 48 49  2  0
 49 50  1  0
 50 51  1  0
 51 52  2  0
 52 53  1  0
 52  2  1  0
 51  7  1  0
 49 34  1  0
 48 39  1  0
M  CHG  1  50  -1
M  END
>  <UniqueID>  (25) 
23

>  <SMILES>  (25) 
CCN(CC)CCC/N=c1\c2ccccc2[n-]c2c1ccc1ccccc12

>  <Energy>  (25) 
80.31332129202798

>  <Genealogy>  (25) 
CCN(CC)CCCN=c1c2ccccc2[n-]c2c1ccc1ccccc12 (protonated)
CCN(CC)CCC/N=c1\c2ccccc2[n-]c2c1ccc1ccccc12 (cis-trans isomerization)
CCN(CC)CCC/N=c1\c2ccccc2[n-]c2c1ccc1ccccc12 (3D coordinates assigned)
CCN(CC)CCC/N=c1\c2ccccc2[n-]c2c1ccc1ccccc12 (optimized conformer: 80.31332129202798 kcal/mol)

>  <smiles>  (25) 
CCN(CC)CCCN=c1c2ccccc2[nH]c2c1ccc1ccccc12

>  <score_type>  (25) 
oracle

>  <origin>  (25) 
adg

>  <m_score__min__energy>  (25) 
-9.1300000000000008

>  <m_primary>  (25) 
energy

$$$$
25:0
     RDKit          3D

 59 59  0  0  0  0  0  0  0  0999 V2000
   -2.7550   25.6570  -25.8850 C   0  0  0  0  0  0  0  0  0  0  0  0
   -1.2570   25.4890  -25.5920 C   0  0  0  0  0  0  0  0  0  0  0  0
   -0.3600   26.2310  -26.5200 N   0  0  0  0  0  0  0  0  0  0  0  0
   -0.5730   27.7020  -26.4850 C   0  0  0  0  0  0  0  0  0  0  0  0
   -0.6170   28.2630  -25.0590 C   0  0  0  0  0  0  0  0  0  0  0  0
    1.0740   25.8910  -26.2740 C   0  0  0  0  0  0  0  0  0  0  0  0
    1.6060   24.8230  -27.2480 C   0  0  0  0  0  0  0  0  0  0  0  0
    0.6400   24.5210  -28.2370 O   0  0  0  0  0  0  0  0  0  0  0  0
    0.2780   23.1520  -28.1880 C   0  0  0  0  0  0  0  0  0  0  0  0
   -0.7710   22.8510  -29.2700 C   0  0  0  0  0  0  0  0  0  0  0  0
   -2.0840   22.4940  -28.6850 N   0  0  0  0  0  0  0  0  0  0  0  0
   -2.7440   21.4540  -29.4950 C   0  0  0  0  0  0  0  0  0  0  0  0
   -2.9900   23.6470  -28.4360 C   0  0  0  0  0  0  0  0  0  0  0  0
   -2.7090   24.8590  -29.2890 C   0  0  0  0  0  0  0  0  0  0  0  0
   -1.8150   25.6770  -28.9430 O   0  0  0  0  0  0  0  0  0  0  0  0
   -3.5110   25.0960  -30.4560 N   0  0  0  0  0  0  0  0  0  0  0  0
   -4.7760   24.4840  -30.7510 C   0  0  0  0  0  0  0  0  0  0  0  0
   -5.9220   25.0290  -30.1630 C   0  0  0  0  0  0  0  0  0  0  0  0
   -7.1850   24.5090  -30.4460 C   0  0  0  0  0  0  0  0  0  0  0  0
   -7.3200   23.4140  -31.3150 C   0  0  0  0  0  0  0  0  0  0  0  0
   -8.5690   22.8700  -31.6510 O   0  0  0  0  0  0  0  0  0  0  0  0
   -8.9160   21.4960  -31.4960 C   0  0  0  0  0  0  0  0  0  0  0  0
   -6.1720   22.8340  -31.8660 C   0  0  0  0  0  0  0  0  0  0  0  0
   -4.8890   23.3430  -31.5750 C   0  0  0  0  0  0  0  0  0  0  0  0
   -3.7250   22.7240  -32.0610 O   0  0  0  0  0  0  0  0  0  0  0  0
   -3.7110   21.6280  -32.9710 C   0  0  0  0  0  0  0  0  0  0  0  0
   -3.3093   25.7192  -24.9369 H   0  0  0  0  0  0  0  0  0  0  0  0
   -2.9143   26.5786  -26.4640 H   0  0  0  0  0  0  0  0  0  0  0  0
   -3.1145   24.7935  -26.4640 H   0  0  0  0  0  0  0  0  0  0  0  0
   -1.0647   25.8459  -24.5694 H   0  0  0  0  0  0  0  0  0  0  0  0
   -1.0300   24.4208  -25.7243 H   0  0  0  0  0  0  0  0  0  0  0  0
   -0.6190   25.8980  -27.4790 H   0  0  0  0  0  0  0  0  0  0  0  0
    0.2497   28.1891  -27.0289 H   0  0  0  0  0  0  0  0  0  0  0  0
   -1.5482   27.9062  -26.9511 H   0  0  0  0  0  0  0  0  0  0  0  0
   -0.5521   27.4354  -24.3372 H   0  0  0  0  0  0  0  0  0  0  0  0
    0.2302   28.9483  -24.9083 H   0  0  0  0  0  0  0  0  0  0  0  0
   -1.5606   28.8078  -24.9083 H   0  0  0  0  0  0  0  0  0  0  0  0
    1.6770   26.8038  -26.3887 H   0  0  0  0  0  0  0  0  0  0  0  0
    1.1487   25.4800  -25.2564 H   0  0  0  0  0  0  0  0  0  0  0  0
    2.5163   25.2012  -27.7362 H   0  0  0  0  0  0  0  0  0  0  0  0
    1.8289   23.9073  -26.6807 H   0  0  0  0  0  0  0  0  0  0  0  0
    1.1699   22.5321  -28.3618 H   0  0  0  0  0  0  0  0  0  0  0  0
   -0.1454   22.9238  -27.1987 H   0  0  0  0  0  0  0  0  0  0  0  0
   -0.8945   23.7423  -29.9027 H   0  0  0  0  0  0  0  0  0  0  0  0
   -0.4159   21.9919  -29.8582 H   0  0  0  0  0  0  0  0  0  0  0  0
   -3.2135   20.7142  -28.8299 H   0  0  0  0  0  0  0  0  0  0  0  0
   -3.5138   21.9171  -30.1297 H   0  0  0  0  0  0  0  0  0  0  0  0
   -1.9972   20.9546  -30.1297 H   0  0  0  0  0  0  0  0  0  0  0  0
   -4.0223   23.3212  -28.6314 H   0  0  0  0  0  0  0  0  0  0  0  0
   -2.8260   23.9540  -27.3925 H   0  0  0  0  0  0  0  0  0  0  0  0
   -5.8262   25.8774  -29.4694 H   0  0  0  0  0  0  0  0  0  0  0  0
   -8.0782   24.9580  -29.9871 H   0  0  0  0  0  0  0  0  0  0  0  0
   -8.9776   21.2519  -30.4252 H   0  0  0  0  0  0  0  0  0  0  0  0
   -9.8899   21.3079  -31.9716 H   0  0  0  0  0  0  0  0  0  0  0  0
   -8.1483   20.8680  -31.9716 H   0  0  0  0  0  0  0  0  0  0  0  0
   -6.2715   21.9677  -32.5365 H   0  0  0  0  0  0  0  0  0  0  0  0
   -3.6989   20.6835  -32.4073 H   0  0  0  0  0  0  0  0  0  0  0  0
   -4.6097   21.6656  -33.6042 H   0  0  0  0  0  0  0  0  0  0  0  0
   -2.8136   21.6886  -33.6042 H   0  0  0  0  0  0  0  0  0  0  0  0
  1  2  1  0
  2  3  1  0
  3  4  1  0
  4  5  1  0
  3  6  1  0
  6  7  1  0
  7  8  1  0
  8  9  1  0
  9 10  1  0
 10 11  1  0
 11 12  1  0
 11 13  1  0
 13 14  1  0
 14 15  2  0
 14 16  1  0
 16 17  1  0
 17 18  2  0
 18 19  1  0
 19 20  2  0
 20 21  1  0
 21 22  1  0
 20 23  1  0
 23 24  2  0
 24 25  1  0
 25 26  1  0
 24 17  1  0
  1 27  1  0
  1 28  1  0
  1 29  1  0
  2 30  1  0
  2 31  1  0
  3 32  1  0
  4 33  1  0
  4 34  1  0
  5 35  1  0
  5 36  1  0
  5 37  1  0
  6 38  1  0
  6 39  1  0
  7 40  1  0
  7 41  1  0
  9 42  1  0
  9 43  1  0
 10 44  1  0
 10 45  1  0
 12 46  1  0
 12 47  1  0
 12 48  1  0
 13 49  1  0
 13 50  1  0
 18 51  1  0
 19 52  1  0
 22 53  1  0
 22 54  1  0
 22 55  1  0
 23 56  1  0
 26 57  1  0
 26 58  1  0
 26 59  1  0
M  CHG  2   3   1  16  -1
M  END
>  <UniqueID>  (26) 
24

>  <SMILES>  (26) 
CC[NH+](CC)CCOCCN(C)CC(=O)[N-]c1ccc(OC)cc1OC

>  <Energy>  (26) 
66.45363512364489

>  <Genealogy>  (26) 
CC[NH+](CC)CCOCCN(C)CC(=O)[N-]c1ccc(OC)cc1OC (protonated)
CC[NH+](CC)CCOCCN(C)CC(=O)[N-]c1ccc(OC)cc1OC (3D coordinates assigned)
CC[NH+](CC)CCOCCN(C)CC(=O)[N-]c1ccc(OC)cc1OC (optimized conformer: 66.45363512364489 kcal/mol)

>  <smiles>  (26) 
CCN(CC)CCOCCN(C)CC(=O)Nc1ccc(OC)cc1OC

>  <score_type>  (26) 
oracle

>  <origin>  (26) 
adg

>  <m_score__min__energy>  (26) 
-8.1099999999999994

>  <m_primary>  (26) 
energy

$$$$
26:0
     RDKit          3D

 45 48  0  0  1  0  0  0  0  0999 V2000
   -0.8650   26.4520  -24.2680 C   0  0  0  0  0  0  0  0  0  0  0  0
   -1.9400   26.5440  -25.1640 O   0  0  0  0  0  0  0  0  0  0  0  0
   -2.0730   25.7450  -26.2910 C   0  0  0  0  0  0  0  0  0  0  0  0
   -3.1950   24.9500  -26.4060 C   0  0  0  0  0  0  0  0  0  0  0  0
   -3.2900   24.1720  -27.5410 C   0  0  0  0  0  0  0  0  0  0  0  0
   -2.3070   24.1890  -28.5150 C   0  0  0  0  0  0  0  0  0  0  0  0
   -2.5220   23.3390  -29.6410 N   0  0  0  0  0  0  0  0  0  0  0  0
   -1.7530   22.3280  -30.0040 N   0  0  0  0  0  0  0  0  0  0  0  0
   -2.2350   21.7140  -31.1290 C   0  0  0  0  0  0  0  0  0  0  0  0
   -3.3600   22.4150  -31.4400 C   0  0  0  0  0  0  0  0  0  0  0  0
   -4.2670   22.2900  -32.4400 C   0  0  0  0  0  0  0  0  0  0  0  0
   -4.2200   21.4120  -33.3460 N   0  0  0  0  0  0  0  0  0  0  0  0
   -4.3270   20.0100  -33.0460 C   0  0  0  0  0  0  0  0  0  0  0  0
   -5.5520   19.5460  -33.8860 C   0  0  0  0  0  0  0  0  0  0  0  0
   -6.7930   19.5910  -33.0690 C   0  0  0  0  0  0  0  0  0  0  0  0
   -7.3130   20.8240  -32.7220 C   0  0  0  0  0  0  0  0  0  0  0  0
   -8.4620   20.9380  -31.9650 C   0  0  0  0  0  0  0  0  0  0  0  0
   -9.1030   19.7670  -31.5500 C   0  0  0  0  0  0  0  0  0  0  0  0
   -8.5820   18.5380  -31.8990 C   0  0  0  0  0  0  0  0  0  0  0  0
   -7.4270   18.4150  -32.6590 C   0  0  0  0  0  0  0  0  0  0  0  0
   -5.3060   23.1680  -32.4790 N   0  0  0  0  0  0  0  0  0  0  0  0
   -5.4600   24.1450  -31.5680 C   0  0  0  0  0  0  0  0  0  0  0  0
   -4.5700   24.2910  -30.5610 N   0  0  0  0  0  0  0  0  0  0  0  0
   -3.5370   23.4230  -30.5180 C   0  0  0  0  0  0  0  0  0  0  0  0
   -1.1870   24.9910  -28.3890 C   0  0  0  0  0  0  0  0  0  0  0  0
   -1.0750   25.7870  -27.2430 C   0  0  0  0  0  0  0  0  0  0  0  0
   -1.2441   26.4844  -23.2359 H   0  0  0  0  0  0  0  0  0  0  0  0
   -0.3305   25.5048  -24.4327 H   0  0  0  0  0  0  0  0  0  0  0  0
   -0.1773   27.2946  -24.4327 H   0  0  0  0  0  0  0  0  0  0  0  0
   -3.9752   24.9373  -25.6307 H   0  0  0  0  0  0  0  0  0  0  0  0
   -4.1678   23.5227  -27.6751 H   0  0  0  0  0  0  0  0  0  0  0  0
   -1.8097   20.8502  -31.6609 H   0  0  0  0  0  0  0  0  0  0  0  0
   -3.4165   19.4730  -33.3504 H   0  0  0  0  0  0  0  0  0  0  0  0
   -4.4476   19.8119  -31.9707 H   0  0  0  0  0  0  0  0  0  0  0  0
   -5.6670   20.2103  -34.7552 H   0  0  0  0  0  0  0  0  0  0  0  0
   -5.3831   18.5110  -34.2182 H   0  0  0  0  0  0  0  0  0  0  0  0
   -6.7987   21.7367  -33.0573 H   0  0  0  0  0  0  0  0  0  0  0  0
   -8.8632   21.9260  -31.6950 H   0  0  0  0  0  0  0  0  0  0  0  0
  -10.0208   19.8253  -30.9465 H   0  0  0  0  0  0  0  0  0  0  0  0
   -9.0985   17.6263  -31.5642 H   0  0  0  0  0  0  0  0  0  0  0  0
   -7.0251   17.4272  -32.9289 H   0  0  0  0  0  0  0  0  0  0  0  0
   -6.0100   23.0890  -33.2350 H   0  0  0  0  0  0  0  0  0  0  0  0
   -6.3168   24.8307  -31.6428 H   0  0  0  0  0  0  0  0  0  0  0  0
   -0.4081   25.0029  -29.1657 H   0  0  0  0  0  0  0  0  0  0  0  0
   -0.2004   26.4393  -27.1028 H   0  0  0  0  0  0  0  0  0  0  0  0
  1  2  1  0
  2  3  1  0
  3  4  2  0
  4  5  1  0
  5  6  2  0
  6  7  1  0
  7  8  1  0
  8  9  2  0
  9 10  1  0
 10 11  1  0
 11 12  2  0
 12 13  1  0
 13 14  1  0
 14 15  1  0
 15 16  2  0
 16 17  1  0
 17 18  2  0
 18 19  1  0
 19 20  2  0
 11 21  1  0
 21 22  1  0
 22 23  2  0
 23 24  1  0
  6 25  1  0
 25 26  2  0
 26  3  1  0
 24  7  1  0
 24 10  2  0
 20 15  1  0
  1 27  1  0
  1 28  1  0
  1 29  1  0
  4 30  1  0
  5 31  1  0
  9 32  1  0
 13 33  1  0
 13 34  1  0
 14 35  1  0
 14 36  1  0
 16 37  1  0
 17 38  1  0
 18 39  1  0
 19 40  1  0
 20 41  1  0
 21 42  1  0
 22 43  1  0
 25 44  1  0
 26 45  1  0
M  END
>  <smiles>  (27) 
COc1ccc(-n2ncc3c(=NCCc4ccccc4)[nH]cnc32)cc1

>  <score_type>  (27) 
oracle

>  <origin>  (27) 
adg

>  <m_score__min__energy>  (27) 
-8.3599999999999994

>  <m_primary>  (27) 
energy

$$$$
27:0
     RDKit          3D

 42 44  0  0  0  0  0  0  0  0999 V2000
    1.0590   16.1440  -27.3510 C   0  0  0  0  0  0  0  0  0  0  0  0
   -0.1400   16.8210  -26.9890 O   0  0  0  0  0  0  0  0  0  0  0  0
   -0.3880   18.1790  -27.2370 C   0  0  0  0  0  0  0  0  0  0  0  0
    0.5780   18.9150  -27.9300 C   0  0  0  0  0  0  0  0  0  0  0  0
    0.3790   20.2720  -28.2020 C   0  0  0  0  0  0  0  0  0  0  0  0
   -0.7970   20.9190  -27.7840 C   0  0  0  0  0  0  0  0  0  0  0  0
   -1.0100   22.3600  -28.0720 C   0  0  0  0  0  0  0  0  0  0  0  0
   -1.1720   22.8040  -29.3950 C   0  0  0  0  0  0  0  0  0  0  0  0
   -1.3690   24.1580  -29.6650 C   0  0  0  0  0  0  0  0  0  0  0  0
   -1.4090   25.0910  -28.6270 C   0  0  0  0  0  0  0  0  0  0  0  0
   -1.6020   26.4310  -28.9440 O   0  0  0  0  0  0  0  0  0  0  0  0
   -1.2520   24.6700  -27.2860 C   0  0  0  0  0  0  0  0  0  0  0  0
   -1.2980   25.6440  -26.1150 C   0  0  0  0  0  0  0  0  0  0  0  0
   -0.4850   26.9220  -26.3910 C   0  0  0  0  0  0  0  0  0  0  0  0
   -0.6310   27.9400  -25.2380 C   0  0  0  0  0  0  0  0  0  0  0  0
   -0.9560   27.3160  -23.9380 N   0  0  0  0  0  0  0  0  0  0  0  0
   -0.3190   26.0010  -23.7730 C   0  0  0  0  0  0  0  0  0  0  0  0
   -0.8760   24.9780  -24.7830 C   0  0  0  0  0  0  0  0  0  0  0  0
   -1.0530   23.3000  -27.0270 C   0  0  0  0  0  0  0  0  0  0  0  0
   -1.7690   20.1780  -27.0880 C   0  0  0  0  0  0  0  0  0  0  0  0
   -1.5680   18.8210  -26.8160 C   0  0  0  0  0  0  0  0  0  0  0  0
    1.5974   15.8400  -26.4412 H   0  0  0  0  0  0  0  0  0  0  0  0
    0.8114   15.2524  -27.9457 H   0  0  0  0  0  0  0  0  0  0  0  0
    1.6946   16.8166  -27.9457 H   0  0  0  0  0  0  0  0  0  0  0  0
    1.5028   18.4220  -28.2642 H   0  0  0  0  0  0  0  0  0  0  0  0
    1.1487   20.8378  -28.7474 H   0  0  0  0  0  0  0  0  0  0  0  0
   -1.1433   22.0798  -30.2224 H   0  0  0  0  0  0  0  0  0  0  0  0
   -1.4940   24.4939  -30.7050 H   0  0  0  0  0  0  0  0  0  0  0  0
   -2.3497   25.9470  -26.0046 H   0  0  0  0  0  0  0  0  0  0  0  0
    0.5764   26.6548  -26.5009 H   0  0  0  0  0  0  0  0  0  0  0  0
   -0.8673   27.3844  -27.3130 H   0  0  0  0  0  0  0  0  0  0  0  0
    0.3178   28.4869  -25.1342 H   0  0  0  0  0  0  0  0  0  0  0  0
   -1.4691   28.6038  -25.4967 H   0  0  0  0  0  0  0  0  0  0  0  0
   -0.6300   27.9460  -23.1690 H   0  0  0  0  0  0  0  0  0  0  0  0
   -1.9950   27.2130  -23.8420 H   0  0  0  0  0  0  0  0  0  0  0  0
    0.7647   26.1056  -23.9297 H   0  0  0  0  0  0  0  0  0  0  0  0
   -0.5320   25.6371  -22.7570 H   0  0  0  0  0  0  0  0  0  0  0  0
   -0.0995   24.2275  -24.9923 H   0  0  0  0  0  0  0  0  0  0  0  0
   -1.7693   24.5153  -24.3382 H   0  0  0  0  0  0  0  0  0  0  0  0
   -0.9290   22.9591  -25.9885 H   0  0  0  0  0  0  0  0  0  0  0  0
   -2.6948   20.6698  -26.7549 H   0  0  0  0  0  0  0  0  0  0  0  0
   -2.3356   18.2526  -26.2705 H   0  0  0  0  0  0  0  0  0  0  0  0
  1  2  1  0
  2  3  1  0
  3  4  2  0
  4  5  1  0
  5  6  2  0
  6  7  1  0
  7  8  2  0
  8  9  1  0
  9 10  2  0
 10 11  1  0
 10 12  1  0
 12 13  1  0
 13 14  1  0
 14 15  1  0
 15 16  1  0
 16 17  1  0
 17 18  1  0
 12 19  2  0
  6 20  1  0
 20 21  2  0
 21  3  1  0
 19  7  1  0
 18 13  1  0
  1 22  1  0
  1 23  1  0
  1 24  1  0
  4 25  1  0
  5 26  1  0
  8 27  1  0
  9 28  1  0
 13 29  1  0
 14 30  1  0
 14 31  1  0
 15 32  1  0
 15 33  1  0
 16 34  1  0
 16 35  1  0
 17 36  1  0
 17 37  1  0
 18 38  1  0
 18 39  1  0
 19 40  1  0
 20 41  1  0
 21 42  1  0
M  CHG  2  11  -1  16   1
M  END
>  <UniqueID>  (28) 
25

>  <SMILES>  (28) 
COc1ccc(-c2ccc([O-])c(C3CC[NH2+]CC3)c2)cc1

>  <Energy>  (28) 
55.256219785213844

>  <Genealogy>  (28) 
COc1ccc(-c2ccc([O-])c(C3CC[NH2+]CC3)c2)cc1 (protonated)
COc1ccc(-c2ccc([O-])c(C3CC[NH2+]CC3)c2)cc1 (3D coordinates assigned)
COc1ccc(-c2ccc([O-])c(C3CC[NH2+]CC3)c2)cc1 (nonaromatic ring conformer: 55.256219785213844 kcal/mol)

>  <smiles>  (28) 
COc1ccc(-c2ccc(O)c(C3CCNCC3)c2)cc1

>  <score_type>  (28) 
oracle

>  <origin>  (28) 
adg

>  <m_score__min__energy>  (28) 
-9.4399999999999995

>  <m_primary>  (28) 
energy

$$$$
28:0
     RDKit          3D

 54 55  0  0  0  0  0  0  0  0999 V2000
   -8.2140   18.1840  -31.8540 C   0  0  0  0  0  0  0  0  0  0  0  0
   -6.7570   18.5060  -32.2000 C   0  0  0  0  0  0  0  0  0  0  0  0
   -6.5460   19.1410  -33.5310 N   0  0  0  0  0  0  0  0  0  0  0  0
   -6.1050   18.1760  -34.5800 C   0  0  0  0  0  0  0  0  0  0  0  0
   -6.1500   16.6910  -34.1770 C   0  0  0  0  0  0  0  0  0  0  0  0
   -5.7360   20.3870  -33.4860 C   0  0  0  0  0  0  0  0  0  0  0  0
   -6.0520   21.2380  -32.2700 C   0  0  0  0  0  0  0  0  0  0  0  0
   -4.9920   21.7440  -31.4990 C   0  0  0  0  0  0  0  0  0  0  0  0
   -5.2330   22.5560  -30.3780 C   0  0  0  0  0  0  0  0  0  0  0  0
   -4.1350   23.0700  -29.5920 N   0  0  0  0  0  0  0  0  0  0  0  0
   -4.2990   23.3110  -28.1530 C   0  0  0  0  0  0  0  0  0  0  0  0
   -3.2970   24.3640  -27.6750 C   0  0  0  0  0  0  0  0  0  0  0  0
   -1.9000   23.9640  -27.9530 N   0  0  0  0  0  0  0  0  0  0  0  0
   -0.8540   25.3620  -27.8810 S   0  0  0  0  0  0  0  0  0  0  0  0
   -0.9920   26.1680  -26.2990 C   0  0  0  0  0  0  0  0  0  0  0  0
   -1.2220   26.3360  -28.9670 O   0  0  0  0  0  0  0  0  0  0  0  0
    0.5730   24.9290  -28.0700 O   0  0  0  0  0  0  0  0  0  0  0  0
   -1.7060   23.2230  -29.2240 C   0  0  0  0  0  0  0  0  0  0  0  0
   -2.8540   23.4120  -30.2240 C   0  0  0  0  0  0  0  0  0  0  0  0
   -6.5600   22.8580  -30.0360 C   0  0  0  0  0  0  0  0  0  0  0  0
   -7.6220   22.3640  -30.7950 C   0  0  0  0  0  0  0  0  0  0  0  0
   -7.3810   21.5520  -31.9190 C   0  0  0  0  0  0  0  0  0  0  0  0
   -8.4320   21.0490  -32.7030 O   0  0  0  0  0  0  0  0  0  0  0  0
   -9.8060   21.0760  -32.3310 C   0  0  0  0  0  0  0  0  0  0  0  0
   -8.3340   18.1575  -30.7609 H   0  0  0  0  0  0  0  0  0  0  0  0
   -8.8710   18.9586  -32.2763 H   0  0  0  0  0  0  0  0  0  0  0  0
   -8.4833   17.2047  -32.2763 H   0  0  0  0  0  0  0  0  0  0  0  0
   -6.3680   19.1899  -31.4313 H   0  0  0  0  0  0  0  0  0  0  0  0
   -6.2315   17.5403  -32.2360 H   0  0  0  0  0  0  0  0  0  0  0  0
   -7.5070   19.4340  -33.8320 H   0  0  0  0  0  0  0  0  0  0  0  0
   -6.7553   18.3087  -35.4572 H   0  0  0  0  0  0  0  0  0  0  0  0
   -5.0464   18.4039  -34.7735 H   0  0  0  0  0  0  0  0  0  0  0  0
   -6.1525   16.6087  -33.0801 H   0  0  0  0  0  0  0  0  0  0  0  0
   -7.0626   16.2288  -34.5815 H   0  0  0  0  0  0  0  0  0  0  0  0
   -5.2671   16.1744  -34.5815 H   0  0  0  0  0  0  0  0  0  0  0  0
   -4.6705   20.1151  -33.4598 H   0  0  0  0  0  0  0  0  0  0  0  0
   -5.9789   20.9778  -34.3815 H   0  0  0  0  0  0  0  0  0  0  0  0
   -3.9562   21.5004  -31.7777 H   0  0  0  0  0  0  0  0  0  0  0  0
   -5.3212   23.6678  -27.9587 H   0  0  0  0  0  0  0  0  0  0  0  0
   -4.1188   22.3718  -27.6094 H   0  0  0  0  0  0  0  0  0  0  0  0
   -3.5046   25.3126  -28.1917 H   0  0  0  0  0  0  0  0  0  0  0  0
   -3.4100   24.4719  -26.5862 H   0  0  0  0  0  0  0  0  0  0  0  0
   -0.8649   25.4259  -25.4971 H   0  0  0  0  0  0  0  0  0  0  0  0
   -0.2129   26.9396  -26.2114 H   0  0  0  0  0  0  0  0  0  0  0  0
   -1.9834   26.6364  -26.2114 H   0  0  0  0  0  0  0  0  0  0  0  0
   -0.7747   23.5736  -29.6928 H   0  0  0  0  0  0  0  0  0  0  0  0
   -1.6692   22.1528  -28.9722 H   0  0  0  0  0  0  0  0  0  0  0  0
   -2.8798   24.4609  -30.5544 H   0  0  0  0  0  0  0  0  0  0  0  0
   -2.6911   22.7514  -31.0883 H   0  0  0  0  0  0  0  0  0  0  0  0
   -6.7655   23.4910  -29.1601 H   0  0  0  0  0  0  0  0  0  0  0  0
   -8.6559   22.6113  -30.5124 H   0  0  0  0  0  0  0  0  0  0  0  0
   -9.8889   21.0776  -31.2341 H   0  0  0  0  0  0  0  0  0  0  0  0
  -10.2777   21.9836  -32.7357 H   0  0  0  0  0  0  0  0  0  0  0  0
  -10.3130   20.1876  -32.7357 H   0  0  0  0  0  0  0  0  0  0  0  0
  1  2  1  0
  2  3  1  0
  3  4  1  0
  4  5  1  0
  3  6  1  0
  6  7  1  0
  7  8  2  0
  8  9  1  0
  9 10  1  0
 10 11  1  0
 11 12  1  0
 12 13  1  0
 13 14  1  0
 14 15  1  0
 14 16  2  0
 14 17  2  0
 13 18  1  0
 18 19  1  0
  9 20  2  0
 20 21  1  0
 21 22  2  0
 22 23  1  0
 23 24  1  0
 22  7  1  0
 19 10  1  0
  1 25  1  0
  1 26  1  0
  1 27  1  0
  2 28  1  0
  2 29  1  0
  3 30  1  0
  4 31  1  0
  4 32  1  0
  5 33  1  0
  5 34  1  0
  5 35  1  0
  6 36  1  0
  6 37  1  0
  8 38  1  0
 11 39  1  0
 11 40  1  0
 12 41  1  0
 12 42  1  0
 15 43  1  0
 15 44  1  0
 15 45  1  0
 18 46  1  0
 18 47  1  0
 19 48  1  0
 19 49  1  0
 20 50  1  0
 21 51  1  0
 24 52  1  0
 24 53  1  0
 24 54  1  0
M  CHG  1   3   1
M  END
>  <UniqueID>  (29) 
26

>  <SMILES>  (29) 
CC[NH+](CC)Cc1cc(N2CCN(S(C)(=O)=O)CC2)ccc1OC

>  <Energy>  (29) 
63.20918206136278

>  <Genealogy>  (29) 
CC[NH+](CC)Cc1cc(N2CCN(S(C)(=O)=O)CC2)ccc1OC (protonated)
CC[NH+](CC)Cc1cc(N2CCN(S(C)(=O)=O)CC2)ccc1OC (3D coordinates assigned)
CC[NH+](CC)Cc1cc(N2CCN(S(C)(=O)=O)CC2)ccc1OC (nonaromatic ring conformer: 63.20918206136278 kcal/mol)

>  <smiles>  (29) 
CCN(CC)Cc1cc(N2CCN(S(C)(=O)=O)CC2)ccc1OC

>  <score_type>  (29) 
oracle

>  <origin>  (29) 
adg

>  <m_score__min__energy>  (29) 
-7.25

>  <m_primary>  (29) 
energy

$$$$
29:0
     RDKit          3D

 44 46  0  0  0  0  0  0  0  0999 V2000
   -5.5050   26.0640  -30.9740 O   0  0  0  0  0  0  0  0  0  0  0  0
   -4.9180   25.0790  -30.4490 C   0  0  0  0  0  0  0  0  0  0  0  0
   -5.7100   23.8880  -30.0120 C   0  0  0  0  0  0  0  0  0  0  0  0
   -5.8680   22.9280  -31.1510 C   0  0  0  0  0  0  0  0  0  0  0  0
   -4.9340   22.6710  -32.1500 C   0  0  0  0  0  0  0  0  0  0  0  0
   -5.3890   21.7120  -32.9880 N   0  0  0  0  0  0  0  0  0  0  0  0
   -6.5990   21.3550  -32.5230 C   0  0  0  0  0  0  0  0  0  0  0  0
   -7.4540   20.3860  -33.0490 C   0  0  0  0  0  0  0  0  0  0  0  0
   -8.6750   20.1590  -32.3880 C   0  0  0  0  0  0  0  0  0  0  0  0
   -9.0110   20.8960  -31.2320 C   0  0  0  0  0  0  0  0  0  0  0  0
   -8.1290   21.8670  -30.7230 C   0  0  0  0  0  0  0  0  0  0  0  0
   -6.9250   22.0720  -31.3990 C   0  0  0  0  0  0  0  0  0  0  0  0
   -3.4960   25.0820  -30.2980 N   0  0  0  0  0  0  0  0  0  0  0  0
   -2.7650   23.9550  -29.7330 C   0  0  0  0  0  0  0  0  0  0  0  0
   -3.0500   23.8220  -28.2340 C   0  0  0  0  0  0  0  0  0  0  0  0
   -2.3590   24.9110  -27.4010 C   0  0  0  0  0  0  0  0  0  0  0  0
   -1.3570   24.3160  -26.4860 N   0  0  0  0  0  0  0  0  0  0  0  0
   -0.7090   23.1260  -27.0720 C   0  0  0  0  0  0  0  0  0  0  0  0
    0.2520   23.5070  -28.2220 C   0  0  0  0  0  0  0  0  0  0  0  0
    0.6290   24.8740  -28.2070 O   0  0  0  0  0  0  0  0  0  0  0  0
    0.9300   25.2810  -26.8900 C   0  0  0  0  0  0  0  0  0  0  0  0
   -0.3500   25.3050  -26.0310 C   0  0  0  0  0  0  0  0  0  0  0  0
   -5.1868   23.3871  -29.1841 H   0  0  0  0  0  0  0  0  0  0  0  0
   -6.7050   24.2196  -29.6803 H   0  0  0  0  0  0  0  0  0  0  0  0
   -3.9619   23.1769  -32.2448 H   0  0  0  0  0  0  0  0  0  0  0  0
   -4.8930   21.3220  -33.8200 H   0  0  0  0  0  0  0  0  0  0  0  0
   -7.1823   19.8181  -33.9510 H   0  0  0  0  0  0  0  0  0  0  0  0
   -9.3728   19.4018  -32.7748 H   0  0  0  0  0  0  0  0  0  0  0  0
   -9.9694   20.7099  -30.7253 H   0  0  0  0  0  0  0  0  0  0  0  0
   -8.3800   22.4457  -29.8218 H   0  0  0  0  0  0  0  0  0  0  0  0
   -3.0753   23.0311  -30.2430 H   0  0  0  0  0  0  0  0  0  0  0  0
   -1.6875   24.1255  -29.8745 H   0  0  0  0  0  0  0  0  0  0  0  0
   -4.1361   23.8929  -28.0745 H   0  0  0  0  0  0  0  0  0  0  0  0
   -2.6534   22.8501  -27.9052 H   0  0  0  0  0  0  0  0  0  0  0  0
   -1.8554   25.6174  -28.0773 H   0  0  0  0  0  0  0  0  0  0  0  0
   -3.1195   25.4321  -26.8009 H   0  0  0  0  0  0  0  0  0  0  0  0
   -0.1383   22.6079  -26.2872 H   0  0  0  0  0  0  0  0  0  0  0  0
   -1.4946   22.4747  -27.4827 H   0  0  0  0  0  0  0  0  0  0  0  0
    1.1607   22.8931  -28.1358 H   0  0  0  0  0  0  0  0  0  0  0  0
   -0.2817   23.3261  -29.1667 H   0  0  0  0  0  0  0  0  0  0  0  0
    1.6502   24.5766  -26.4483 H   0  0  0  0  0  0  0  0  0  0  0  0
    1.3608   26.2927  -26.9181 H   0  0  0  0  0  0  0  0  0  0  0  0
   -0.0799   25.0796  -24.9888 H   0  0  0  0  0  0  0  0  0  0  0  0
   -0.7974   26.3055  -26.1251 H   0  0  0  0  0  0  0  0  0  0  0  0
  1  2  2  0
  2  3  1  0
  3  4  1  0
  4  5  2  0
  5  6  1  0
  6  7  1  0
  7  8  2  0
  8  9  1  0
  9 10  2  0
 10 11  1  0
 11 12  2  0
  2 13  1  0
 13 14  1  0
 14 15  1  0
 15 16  1  0
 16 17  1  0
 17 18  1  0
 18 19  1  0
 19 20  1  0
 20 21  1  0
 21 22  1  0
 12  4  1  0
 22 17  1  0
 12  7  1  0
  3 23  1  0
  3 24  1  0
  5 25  1  0
  6 26  1  0
  8 27  1  0
  9 28  1  0
 10 29  1  0
 11 30  1  0
 14 31  1  0
 14 32  1  0
 15 33  1  0
 15 34  1  0
 16 35  1  0
 16 36  1  0
 18 37  1  0
 18 38  1  0
 19 39  1  0
 19 40  1  0
 21 41  1  0
 21 42  1  0
 22 43  1  0
 22 44  1  0
M  CHG  1  13  -1
M  END
>  <UniqueID>  (30) 
27

>  <SMILES>  (30) 
O=C(Cc1c[nH]c2ccccc12)[N-]CCCN1CCOCC1

>  <Energy>  (30) 
77.86369335624975

>  <Genealogy>  (30) 
O=C(Cc1c[nH]c2ccccc12)[N-]CCCN1CCOCC1 (protonated)
O=C(Cc1c[nH]c2ccccc12)[N-]CCCN1CCOCC1 (3D coordinates assigned)
O=C(Cc1c[nH]c2ccccc12)[N-]CCCN1CCOCC1 (nonaromatic ring conformer: 77.86369335624975 kcal/mol)

>  <smiles>  (30) 
O=C(Cc1c[nH]c2ccccc12)NCCCN1CCOCC1

>  <score_type>  (30) 
oracle

>  <origin>  (30) 
adg

>  <m_score__min__energy>  (30) 
-9.4800000000000004

>  <m_primary>  (30) 
energy

$$$$
30:0
     RDKit          3D

 42 44  0  0  0  0  0  0  0  0999 V2000
   -3.3026   19.9470  -28.1027 H   0  0  0  0  0  0  0  0  0  0  0  0
   -2.7310   20.8280  -28.4300 C   0  0  0  0  0  0  0  0  0  0  0  0
   -3.3710   22.0650  -28.5580 C   0  0  0  0  0  0  0  0  0  0  0  0
   -4.4398   22.1558  -28.3140 H   0  0  0  0  0  0  0  0  0  0  0  0
   -2.6570   23.1910  -28.9960 C   0  0  0  0  0  0  0  0  0  0  0  0
   -3.3400   24.5250  -29.0970 C   0  0  0  0  0  0  0  0  0  0  0  0
   -4.3089   24.4821  -28.5780 H   0  0  0  0  0  0  0  0  0  0  0  0
   -2.7109   25.2976  -28.6308 H   0  0  0  0  0  0  0  0  0  0  0  0
   -3.5480   24.8420  -30.4630 O   0  0  0  0  0  0  0  0  0  0  0  0
   -4.8220   25.0470  -30.9460 N   0  0  0  0  0  0  0  0  0  0  0  0
   -5.6260   24.0630  -31.2130 C   0  0  0  0  0  0  0  0  0  0  0  0
   -5.0780   22.7860  -31.7510 C   0  0  0  0  0  0  0  0  0  0  0  0
   -5.9000   21.6960  -31.9240 N   0  0  0  0  0  0  0  0  0  0  0  0
   -5.3750   20.5140  -32.3840 C   0  0  0  0  0  0  0  0  0  0  0  0
   -6.1060   19.4910  -32.4960 O   0  0  0  0  0  0  0  0  0  0  0  0
   -4.0240   20.4230  -32.7290 C   0  0  0  0  0  0  0  0  0  0  0  0
   -3.3140   18.7600  -33.3890 Br  0  0  0  0  0  0  0  0  0  0  0  0
   -3.2150   21.5550  -32.5770 C   0  0  0  0  0  0  0  0  0  0  0  0
   -1.7530   21.5080  -32.9330 C   0  0  0  0  0  0  0  0  0  0  0  0
   -1.1518   21.4887  -32.0120 H   0  0  0  0  0  0  0  0  0  0  0  0
   -1.5483   20.6028  -33.5235 H   0  0  0  0  0  0  0  0  0  0  0  0
   -1.4906   22.3982  -33.5235 H   0  0  0  0  0  0  0  0  0  0  0  0
   -3.7560   22.7040  -32.0870 N   0  0  0  0  0  0  0  0  0  0  0  0
   -3.1390   23.5380  -31.9690 H   0  0  0  0  0  0  0  0  0  0  0  0
   -7.3220   21.7550  -31.5240 C   0  0  0  0  0  0  0  0  0  0  0  0
   -7.4074   21.4662  -30.4660 H   0  0  0  0  0  0  0  0  0  0  0  0
   -7.8888   21.0654  -32.1668 H   0  0  0  0  0  0  0  0  0  0  0  0
   -7.9000   23.1590  -31.7030 C   0  0  0  0  0  0  0  0  0  0  0  0
   -8.9443   23.1683  -31.3576 H   0  0  0  0  0  0  0  0  0  0  0  0
   -7.8527   23.4324  -32.7674 H   0  0  0  0  0  0  0  0  0  0  0  0
   -7.0940   24.1700  -30.8950 C   0  0  0  0  0  0  0  0  0  0  0  0
   -7.2454   23.9770  -29.8227 H   0  0  0  0  0  0  0  0  0  0  0  0
   -7.4374   25.1821  -31.1551 H   0  0  0  0  0  0  0  0  0  0  0  0
   -1.2870   23.0690  -29.2840 C   0  0  0  0  0  0  0  0  0  0  0  0
   -0.5680   24.1470  -29.6900 F   0  0  0  0  0  0  0  0  0  0  0  0
   -0.6490   21.8310  -29.1560 C   0  0  0  0  0  0  0  0  0  0  0  0
    0.4194   21.7385  -29.4008 H   0  0  0  0  0  0  0  0  0  0  0  0
   -1.3640   20.7060  -28.7170 C   0  0  0  0  0  0  0  0  0  0  0  0
   -0.6860   19.3720  -28.6170 C   0  0  0  0  0  0  0  0  0  0  0  0
   -0.5516   19.1075  -27.5578 H   0  0  0  0  0  0  0  0  0  0  0  0
   -1.3052   18.6081  -29.1099 H   0  0  0  0  0  0  0  0  0  0  0  0
    0.2961   19.4220  -29.1099 H   0  0  0  0  0  0  0  0  0  0  0  0
  1  2  1  0
  2  3  2  0
  3  4  1  0
  3  5  1  0
  5  6  1  0
  6  7  1  0
  6  8  1  0
  6  9  1  0
  9 10  1  0
 10 11  2  0
 11 12  1  0
 12 13  1  0
 13 14  1  0
 14 15  2  0
 14 16  1  0
 16 17  1  0
 16 18  2  0
 18 19  1  0
 19 20  1  0
 19 21  1  0
 19 22  1  0
 18 23  1  0
 23 24  1  0
 13 25  1  0
 25 26  1  0
 25 27  1  0
 25 28  1  0
 28 29  1  0
 28 30  1  0
 28 31  1  0
 31 32  1  0
 31 33  1  0
  5 34  2  0
 34 35  1  0
 34 36  1  0
 36 37  1  0
 36 38  2  0
 38 39  1  0
 39 40  1  0
 39 41  1  0
 39 42  1  0
 38  2  1  0
 31 11  1  0
 23 12  2  0
M  CHG  1  23   1
M  END
>  <UniqueID>  (31) 
28

>  <SMILES>  (31) 
Cc1ccc(CO/N=C2\CCCn3c2[nH+]c(C)c(Br)c3=O)c(F)c1

>  <Energy>  (31) 
43.29744824310269

>  <Genealogy>  (31) 
Cc1ccc(CON=C2CCCn3c2[nH+]c(C)c(Br)c3=O)c(F)c1 (protonated)
Cc1ccc(CO/N=C2\CCCn3c2[nH+]c(C)c(Br)c3=O)c(F)c1 (cis-trans isomerization)
Cc1ccc(CO/N=C2\CCCn3c2[nH+]c(C)c(Br)c3=O)c(F)c1 (3D coordinates assigned)
Cc1ccc(CO/N=C2\CCCn3c2[nH+]c(C)c(Br)c3=O)c(F)c1 (nonaromatic ring conformer: 43.29744824310269 kcal/mol)

>  <smiles>  (31) 
Cc1ccc(CON=C2CCCn3c2nc(C)c(Br)c3=O)c(F)c1

>  <score_type>  (31) 
oracle

>  <origin>  (31) 
adg

>  <m_score__min__energy>  (31) 
-8.9299999999999997

>  <m_primary>  (31) 
energy

$$$$
31:0
     RDKit          3D

 53 55  0  0  0  0  0  0  0  0999 V2000
   -3.0760   19.6640  -27.1380 C   0  0  0  0  0  0  0  0  0  0  0  0
   -2.3460   21.0190  -27.2390 C   0  0  2  0  0  0  0  0  0  0  0  0
   -2.8720   21.8350  -28.4310 C   0  0  0  0  0  0  0  0  0  0  0  0
   -2.1190   23.0850  -28.5500 N   0  0  0  0  0  0  0  0  0  0  0  0
   -2.7810   24.2400  -29.0830 C   0  0  0  0  0  0  0  0  0  0  0  0
   -2.1130   25.2850  -29.3380 O   0  0  0  0  0  0  0  0  0  0  0  0
   -4.2400   24.1870  -29.4360 C   0  0  0  0  0  0  0  0  0  0  0  0
   -4.4160   24.5700  -30.8470 N   0  0  0  0  0  0  0  0  0  0  0  0
   -4.7810   23.4130  -31.6800 C   0  0  0  0  0  0  0  0  0  0  0  0
   -6.1730   23.6010  -32.2910 C   0  0  0  0  0  0  0  0  0  0  0  0
   -7.4800   23.1250  -31.1030 S   0  0  0  0  0  0  0  0  0  0  0  0
   -7.6780   21.4550  -31.7360 C   0  0  0  0  0  0  0  0  0  0  0  0
   -6.6410   20.8450  -32.4550 C   0  0  0  0  0  0  0  0  0  0  0  0
   -6.7900   19.5350  -32.9330 C   0  0  0  0  0  0  0  0  0  0  0  0
   -7.9830   18.8420  -32.7040 C   0  0  0  0  0  0  0  0  0  0  0  0
   -9.0220   19.4520  -31.9970 C   0  0  0  0  0  0  0  0  0  0  0  0
   -8.8740   20.7600  -31.5200 C   0  0  0  0  0  0  0  0  0  0  0  0
   -0.6530   23.0310  -28.5490 C   0  0  0  0  0  0  0  0  0  0  0  0
   -0.1380   22.1640  -27.3900 C   0  0  0  0  0  0  0  0  0  0  0  0
   -0.8580   20.8750  -27.2290 N   0  0  2  0  0  0  0  0  0  0  0  0
   -0.3180   19.8070  -28.0690 C   0  0  0  0  0  0  0  0  0  0  0  0
   -0.1620   19.9280  -29.4690 C   0  0  0  0  0  0  0  0  0  0  0  0
    0.3080   18.8410  -30.2140 C   0  0  0  0  0  0  0  0  0  0  0  0
    0.6310   17.6460  -29.5750 C   0  0  0  0  0  0  0  0  0  0  0  0
    0.4930   17.5570  -28.1870 C   0  0  0  0  0  0  0  0  0  0  0  0
    0.0220   18.6200  -27.4800 N   0  0  0  0  0  0  0  0  0  0  0  0
   -3.2173   19.4017  -26.0791 H   0  0  0  0  0  0  0  0  0  0  0  0
   -4.0563   19.7380  -27.6314 H   0  0  0  0  0  0  0  0  0  0  0  0
   -2.4749   18.8860  -27.6314 H   0  0  0  0  0  0  0  0  0  0  0  0
   -2.5786   21.5930  -26.3299 H   0  0  0  0  0  0  0  0  0  0  0  0
   -2.7544   21.2490  -29.3545 H   0  0  0  0  0  0  0  0  0  0  0  0
   -3.9353   22.0665  -28.2705 H   0  0  0  0  0  0  0  0  0  0  0  0
   -4.6177   23.1652  -29.2832 H   0  0  0  0  0  0  0  0  0  0  0  0
   -4.7990   24.8834  -28.7937 H   0  0  0  0  0  0  0  0  0  0  0  0
   -3.4890   24.9150  -31.1950 H   0  0  0  0  0  0  0  0  0  0  0  0
   -4.0437   23.3040  -32.4890 H   0  0  0  0  0  0  0  0  0  0  0  0
   -4.7916   22.5126  -31.0482 H   0  0  0  0  0  0  0  0  0  0  0  0
   -6.3051   24.6576  -32.5668 H   0  0  0  0  0  0  0  0  0  0  0  0
   -6.2556   22.9576  -33.1794 H   0  0  0  0  0  0  0  0  0  0  0  0
   -5.7077   21.3953  -32.6449 H   0  0  0  0  0  0  0  0  0  0  0  0
   -5.9704   19.0537  -33.4868 H   0  0  0  0  0  0  0  0  0  0  0  0
   -8.1033   17.8156  -33.0810 H   0  0  0  0  0  0  0  0  0  0  0  0
   -9.9580   18.9037  -31.8147 H   0  0  0  0  0  0  0  0  0  0  0  0
   -9.6987   21.2423  -30.9747 H   0  0  0  0  0  0  0  0  0  0  0  0
   -0.3076   22.6018  -29.5011 H   0  0  0  0  0  0  0  0  0  0  0  0
   -0.2634   24.0521  -28.4246 H   0  0  0  0  0  0  0  0  0  0  0  0
    0.9253   21.9456  -27.5682 H   0  0  0  0  0  0  0  0  0  0  0  0
   -0.3055   22.7378  -26.4666 H   0  0  0  0  0  0  0  0  0  0  0  0
   -0.6340   20.5880  -26.2430 H   0  0  0  0  0  0  0  0  0  0  0  0
   -0.4096   20.8747  -29.9714 H   0  0  0  0  0  0  0  0  0  0  0  0
    0.4225   18.9300  -31.3044 H   0  0  0  0  0  0  0  0  0  0  0  0
    0.9901   16.7834  -30.1555 H   0  0  0  0  0  0  0  0  0  0  0  0
    0.7652   16.6273  -27.6659 H   0  0  0  0  0  0  0  0  0  0  0  0
  1  2  1  0
  2  3  1  0
  3  4  1  0
  4  5  1  0
  5  6  2  0
  5  7  1  0
  7  8  1  0
  8  9  1  0
  9 10  1  0
 10 11  1  0
 11 12  1  0
 12 13  2  0
 13 14  1  0
 14 15  2  0
 15 16  1  0
 16 17  2  0
  4 18  1  0
 18 19  1  0
 19 20  1  0
 20 21  1  0
 21 22  2  0
 22 23  1  0
 23 24  2  0
 24 25  1  0
 25 26  2  0
 20  2  1  0
 26 21  1  0
 17 12  1  0
  1 27  1  0
  1 28  1  0
  1 29  1  0
  2 30  1  1
  3 31  1  0
  3 32  1  0
  7 33  1  0
  7 34  1  0
  8 35  1  0
  9 36  1  0
  9 37  1  0
 10 38  1  0
 10 39  1  0
 13 40  1  0
 14 41  1  0
 15 42  1  0
 16 43  1  0
 17 44  1  0
 18 45  1  0
 18 46  1  0
 19 47  1  0
 19 48  1  0
 20 49  1  1
 22 50  1  0
 23 51  1  0
 24 52  1  0
 25 53  1  0
M  CHG  1  20   1
M  END
>  <UniqueID>  (32) 
29

>  <SMILES>  (32) 
C[C@@H]1CN(C(=O)CNCCSc2ccccc2)CC[N@@H+]1c1ccccn1

>  <Energy>  (32) 
63.20535241700302

>  <Genealogy>  (32) 
CC1CN(C(=O)CNCCSc2ccccc2)CC[NH+]1c1ccccn1 (protonated)
C[C@@H]1CN(C(=O)CNCCSc2ccccc2)CC[N@@H+]1c1ccccn1 (chirality)
C[C@@H]1CN(C(=O)CNCCSc2ccccc2)CC[N@@H+]1c1ccccn1 (3D coordinates assigned)
C[C@@H]1CN(C(=O)CNCCSc2ccccc2)CC[N@@H+]1c1ccccn1 (nonaromatic ring conformer: 63.20535241700302 kcal/mol)

>  <smiles>  (32) 
CC1CN(C(=O)CNCCSc2ccccc2)CCN1c1ccccn1

>  <score_type>  (32) 
oracle

>  <origin>  (32) 
adg

>  <m_score__min__energy>  (32) 
-8.1699999999999999

>  <m_primary>  (32) 
energy

$$$$
32:0
     RDKit          3D

 47 48  0  0  0  0  0  0  0  0999 V2000
   -0.8750   26.7870  -24.1770 C   0  0  0  0  0  0  0  0  0  0  0  0
   -0.6410   26.2910  -25.2510 C   0  0  0  0  0  0  0  0  0  0  0  0
   -0.3550   25.6890  -26.5640 C   0  0  0  0  0  0  0  0  0  0  0  0
   -1.5010   24.7680  -27.0860 C   0  0  1  0  0  0  0  0  0  0  0  0
   -1.2680   23.3280  -26.5810 C   0  0  0  0  0  0  0  0  0  0  0  0
   -2.9000   25.2520  -26.5880 C   0  0  0  0  0  0  0  0  0  0  0  0
   -4.0400   24.2600  -26.8450 C   0  0  0  0  0  0  0  0  0  0  0  0
   -1.4850   24.7240  -28.6080 C   0  0  0  0  0  0  0  0  0  0  0  0
   -0.5690   24.1080  -29.2210 O   0  0  0  0  0  0  0  0  0  0  0  0
   -2.5760   25.2960  -29.3450 N   0  0  0  0  0  0  0  0  0  0  0  0
   -3.6450   24.5740  -29.9710 C   0  0  0  0  0  0  0  0  0  0  0  0
   -4.7960   25.2210  -30.4520 C   0  0  0  0  0  0  0  0  0  0  0  0
   -5.8290   24.4830  -31.0350 C   0  0  0  0  0  0  0  0  0  0  0  0
   -5.7360   23.0820  -31.1400 C   0  0  0  0  0  0  0  0  0  0  0  0
   -6.8510   22.2650  -31.7660 C   0  0  1  0  0  0  0  0  0  0  0  0
   -6.3170   20.9450  -32.3690 C   0  0  0  0  0  0  0  0  0  0  0  0
   -7.3960   19.8500  -32.4320 C   0  0  0  0  0  0  0  0  0  0  0  0
   -8.8000   20.4570  -32.5520 C   0  0  0  0  0  0  0  0  0  0  0  0
   -9.1430   21.3110  -31.3950 N   0  0  0  0  0  0  0  0  0  0  0  0
   -7.9920   21.9890  -30.7640 C   0  0  0  0  0  0  0  0  0  0  0  0
   -4.5960   22.4390  -30.6260 C   0  0  0  0  0  0  0  0  0  0  0  0
   -3.5660   23.1790  -30.0410 C   0  0  0  0  0  0  0  0  0  0  0  0
   -1.0884   27.2394  -23.1973 H   0  0  0  0  0  0  0  0  0  0  0  0
   -0.1991   26.4985  -27.2923 H   0  0  0  0  0  0  0  0  0  0  0  0
    0.5390   25.0593  -26.4448 H   0  0  0  0  0  0  0  0  0  0  0  0
   -1.2668   23.3209  -25.4810 H   0  0  0  0  0  0  0  0  0  0  0  0
   -2.0722   22.6750  -26.9511 H   0  0  0  0  0  0  0  0  0  0  0  0
   -0.2989   22.9620  -26.9511 H   0  0  0  0  0  0  0  0  0  0  0  0
   -2.8368   25.4308  -25.5045 H   0  0  0  0  0  0  0  0  0  0  0  0
   -3.1397   26.1614  -27.1586 H   0  0  0  0  0  0  0  0  0  0  0  0
   -4.4439   23.9086  -25.8841 H   0  0  0  0  0  0  0  0  0  0  0  0
   -4.8367   24.7573  -27.4177 H   0  0  0  0  0  0  0  0  0  0  0  0
   -3.6575   23.4022  -27.4177 H   0  0  0  0  0  0  0  0  0  0  0  0
   -4.8841   26.3143  -30.3690 H   0  0  0  0  0  0  0  0  0  0  0  0
   -6.7221   25.0005  -31.4150 H   0  0  0  0  0  0  0  0  0  0  0  0
   -7.2672   22.8682  -32.5863 H   0  0  0  0  0  0  0  0  0  0  0  0
   -5.9551   21.1434  -33.3886 H   0  0  0  0  0  0  0  0  0  0  0  0
   -5.5083   20.5818  -31.7177 H   0  0  0  0  0  0  0  0  0  0  0  0
   -7.2064   19.2100  -33.3063 H   0  0  0  0  0  0  0  0  0  0  0  0
   -7.3497   19.2632  -31.5028 H   0  0  0  0  0  0  0  0  0  0  0  0
   -8.8450   21.0661  -33.4669 H   0  0  0  0  0  0  0  0  0  0  0  0
   -9.5230   19.6286  -32.5848 H   0  0  0  0  0  0  0  0  0  0  0  0
   -9.8220   22.0380  -31.7220 H   0  0  0  0  0  0  0  0  0  0  0  0
   -8.3329   22.9468  -30.3440 H   0  0  0  0  0  0  0  0  0  0  0  0
   -7.5981   21.3236  -29.9816 H   0  0  0  0  0  0  0  0  0  0  0  0
   -4.5147   21.3436  -30.6852 H   0  0  0  0  0  0  0  0  0  0  0  0
   -2.6859   22.6610  -29.6322 H   0  0  0  0  0  0  0  0  0  0  0  0
  1  2  3  0
  2  3  1  0
  4  3  1  1
  4  5  1  0
  4  6  1  0
  6  7  1  0
  4  8  1  0
  8  9  2  0
  8 10  1  0
 10 11  1  0
 11 12  2  0
 12 13  1  0
 13 14  2  0
 14 15  1  0
 15 16  1  0
 16 17  1  0
 17 18  1  0
 18 19  1  0
 19 20  1  0
 14 21  1  0
 21 22  2  0
 22 11  1  0
 20 15  1  0
  1 23  1  0
  3 24  1  0
  3 25  1  0
  5 26  1  0
  5 27  1  0
  5 28  1  0
  6 29  1  0
  6 30  1  0
  7 31  1  0
  7 32  1  0
  7 33  1  0
 12 34  1  0
 13 35  1  0
 15 36  1  6
 16 37  1  0
 16 38  1  0
 17 39  1  0
 17 40  1  0
 18 41  1  0
 18 42  1  0
 19 43  1  0
 20 44  1  0
 20 45  1  0
 21 46  1  0
 22 47  1  0
M  CHG  1  10  -1
M  END
>  <UniqueID>  (33) 
30

>  <SMILES>  (33) 
C#CC[C@@](C)(CC)C(=O)[N-]c1ccc([C@H]2CCCNC2)cc1

>  <Energy>  (33) 
51.42944077279276

>  <Genealogy>  (33) 
C#CCC(C)(CC)C(=O)[N-]c1ccc(C2CCCNC2)cc1 (protonated)
C#CC[C@@](C)(CC)C(=O)[N-]c1ccc([C@H]2CCCNC2)cc1 (chirality)
C#CC[C@@](C)(CC)C(=O)[N-]c1ccc([C@H]2CCCNC2)cc1 (3D coordinates assigned)
C#CC[C@@](C)(CC)C(=O)[N-]c1ccc([C@H]2CCCNC2)cc1 (nonaromatic ring conformer: 51.42944077279276 kcal/mol)

>  <smiles>  (33) 
C#CCC(C)(CC)C(=O)Nc1ccc(C2CCCNC2)cc1

>  <score_type>  (33) 
oracle

>  <origin>  (33) 
adg

>  <m_score__min__energy>  (33) 
-10.18

>  <m_primary>  (33) 
energy

$$$$
33:0
     RDKit          3D

 44 47  0  0  0  0  0  0  0  0999 V2000
  -10.2717   19.0056  -31.6123 H   0  0  0  0  0  0  0  0  0  0  0  0
   -9.1760   19.0900  -31.6600 C   0  0  0  0  0  0  0  0  0  0  0  0
   -8.3090   18.0650  -31.5320 N   0  0  0  0  0  0  0  0  0  0  0  0
   -7.0830   18.5550  -31.6530 N   0  0  0  0  0  0  0  0  0  0  0  0
   -5.8800   17.7380  -31.5400 C   0  0  0  0  0  0  0  0  0  0  0  0
   -5.6441   17.5778  -30.4776 H   0  0  0  0  0  0  0  0  0  0  0  0
   -6.0489   16.7670  -32.0286 H   0  0  0  0  0  0  0  0  0  0  0  0
   -5.0398   18.2530  -32.0286 H   0  0  0  0  0  0  0  0  0  0  0  0
   -7.1450   19.8890  -31.8480 C   0  0  0  0  0  0  0  0  0  0  0  0
   -5.9780   20.7870  -31.9690 C   0  0  0  0  0  0  0  0  0  0  0  0
   -4.9520   20.5730  -32.8490 N   0  0  0  0  0  0  0  0  0  0  0  0
   -4.7070   19.4260  -33.6820 C   0  0  0  0  0  0  0  0  0  0  0  0
   -5.7260   18.9320  -34.5130 C   0  0  0  0  0  0  0  0  0  0  0  0
   -6.7107   19.4221  -34.5224 H   0  0  0  0  0  0  0  0  0  0  0  0
   -5.4940   17.8190  -35.3290 C   0  0  0  0  0  0  0  0  0  0  0  0
   -6.2986   17.4320  -35.9715 H   0  0  0  0  0  0  0  0  0  0  0  0
   -4.2430   17.1990  -35.3290 C   0  0  0  0  0  0  0  0  0  0  0  0
   -4.0643   16.3204  -35.9664 H   0  0  0  0  0  0  0  0  0  0  0  0
   -3.2180   17.6950  -34.5190 C   0  0  0  0  0  0  0  0  0  0  0  0
   -2.2308   17.2098  -34.5241 H   0  0  0  0  0  0  0  0  0  0  0  0
   -3.4450   18.8070  -33.7020 C   0  0  0  0  0  0  0  0  0  0  0  0
   -2.6327   19.1990  -33.0724 H   0  0  0  0  0  0  0  0  0  0  0  0
   -3.9320   21.8820  -32.7170 S   0  0  0  0  0  0  0  0  0  0  0  0
   -4.8000   22.6650  -31.5370 C   0  0  0  0  0  0  0  0  0  0  0  0
   -4.4860   23.8220  -31.0340 N   0  0  0  0  0  0  0  0  0  0  0  0
   -3.8660   24.0520  -29.7600 C   0  0  0  0  0  0  0  0  0  0  0  0
   -4.6300   24.2240  -28.5940 C   0  0  0  0  0  0  0  0  0  0  0  0
   -5.7284   24.2209  -28.6536 H   0  0  0  0  0  0  0  0  0  0  0  0
   -4.0010   24.3990  -27.3590 C   0  0  0  0  0  0  0  0  0  0  0  0
   -4.6078   24.5505  -26.4541 H   0  0  0  0  0  0  0  0  0  0  0  0
   -2.6040   24.3830  -27.2640 C   0  0  0  0  0  0  0  0  0  0  0  0
   -2.0180   24.5660  -26.0030 O   0  0  0  0  0  0  0  0  0  0  0  0
   -1.8380   25.8320  -25.3770 C   0  0  0  0  0  0  0  0  0  0  0  0
   -1.8558   25.7066  -24.2843 H   0  0  0  0  0  0  0  0  0  0  0  0
   -0.8703   26.2573  -25.6815 H   0  0  0  0  0  0  0  0  0  0  0  0
   -2.6488   26.5102  -25.6815 H   0  0  0  0  0  0  0  0  0  0  0  0
   -1.8390   24.1760  -28.4280 C   0  0  0  0  0  0  0  0  0  0  0  0
   -0.7410   24.1526  -28.3654 H   0  0  0  0  0  0  0  0  0  0  0  0
   -2.4710   24.0000  -29.6640 C   0  0  0  0  0  0  0  0  0  0  0  0
   -1.8674   23.8196  -30.5658 H   0  0  0  0  0  0  0  0  0  0  0  0
   -5.9070   21.9440  -31.2370 N   0  0  0  0  0  0  0  0  0  0  0  0
   -6.6630   22.2540  -30.5880 H   0  0  0  0  0  0  0  0  0  0  0  0
   -8.4750   20.2600  -31.8600 C   0  0  0  0  0  0  0  0  0  0  0  0
   -9.1500   21.8760  -31.9690 Cl  0  0  0  0  0  0  0  0  0  0  0  0
  1  2  1  0
  2  3  2  0
  3  4  1  0
  4  5  1  0
  5  6  1  0
  5  7  1  0
  5  8  1  0
  4  9  1  0
  9 10  1  0
 10 11  1  0
 11 12  1  0
 12 13  2  0
 13 14  1  0
 13 15  1  0
 15 16  1  0
 15 17  2  0
 17 18  1  0
 17 19  1  0
 19 20  1  0
 19 21  2  0
 21 22  1  0
 11 23  1  0
 23 24  1  0
 24 25  2  0
 25 26  1  0
 26 27  2  0
 27 28  1  0
 27 29  1  0
 29 30  1  0
 29 31  2  0
 31 32  1  0
 32 33  1  0
 33 34  1  0
 33 35  1  0
 33 36  1  0
 31 37  1  0
 37 38  1  0
 37 39  2  0
 39 40  1  0
 24 41  1  0
 41 42  1  0
  9 43  2  0
 43 44  1  0
 43  2  1  0
 41 10  2  0
 21 12  1  0
 39 26  1  0
M  CHG  1  41   1
M  END
>  <UniqueID>  (34) 
31

>  <SMILES>  (34) 
COc1ccc(/N=c2\[nH+]c(-c3c(Cl)cnn3C)n(-c3ccccc3)s2)cc1

>  <Energy>  (34) 
132.490002615254

>  <Genealogy>  (34) 
COc1ccc(N=c2[nH+]c(-c3c(Cl)cnn3C)n(-c3ccccc3)s2)cc1 (protonated)
COc1ccc(/N=c2\[nH+]c(-c3c(Cl)cnn3C)n(-c3ccccc3)s2)cc1 (cis-trans isomerization)
COc1ccc(/N=c2\[nH+]c(-c3c(Cl)cnn3C)n(-c3ccccc3)s2)cc1 (3D coordinates assigned)
COc1ccc(/N=c2\[nH+]c(-c3c(Cl)cnn3C)n(-c3ccccc3)s2)cc1 (optimized conformer: 132.490002615254 kcal/mol)

>  <smiles>  (34) 
COc1ccc(N=c2nc(-c3c(Cl)cnn3C)n(-c3ccccc3)s2)cc1

>  <score_type>  (34) 
oracle

>  <origin>  (34) 
adg

>  <m_score__min__energy>  (34) 
-7.75

>  <m_primary>  (34) 
energy

$$$$
34:0
     RDKit          3D

 52 55  0  0  0  0  0  0  0  0999 V2000
   -8.4851   21.4857  -32.5189 H   0  0  0  0  0  0  0  0  0  0  0  0
   -7.7850   22.1980  -32.0580 C   0  0  0  0  0  0  0  0  0  0  0  0
   -8.1490   23.3150  -31.3780 N   0  0  0  0  0  0  0  0  0  0  0  0
   -6.9710   23.8520  -31.0040 C   0  0  0  0  0  0  0  0  0  0  0  0
   -6.7900   25.0060  -30.2500 C   0  0  0  0  0  0  0  0  0  0  0  0
   -7.6460   25.6082  -29.9114 H   0  0  0  0  0  0  0  0  0  0  0  0
   -5.4710   25.3720  -29.9380 C   0  0  0  0  0  0  0  0  0  0  0  0
   -5.2760   26.2794  -29.3476 H   0  0  0  0  0  0  0  0  0  0  0  0
   -4.3960   24.5740  -30.3830 C   0  0  0  0  0  0  0  0  0  0  0  0
   -3.1760   24.9120  -30.0880 N   0  0  0  0  0  0  0  0  0  0  0  0
   -2.1620   23.9710  -29.6180 C   0  0  0  0  0  0  0  0  0  0  0  0
   -1.6933   23.4786  -30.4828 H   0  0  0  0  0  0  0  0  0  0  0  0
   -2.6391   23.2181  -28.9734 H   0  0  0  0  0  0  0  0  0  0  0  0
   -1.0930   24.7120  -28.8170 C   0  0  0  0  0  0  0  0  0  0  0  0
   -0.0983   24.4192  -29.1842 H   0  0  0  0  0  0  0  0  0  0  0  0
   -1.1993   24.4479  -27.7545 H   0  0  0  0  0  0  0  0  0  0  0  0
   -1.2470   26.1130  -28.9570 O   0  0  0  0  0  0  0  0  0  0  0  0
   -0.8250   26.7740  -27.7860 C   0  0  0  0  0  0  0  0  0  0  0  0
   -1.1789   26.2197  -26.9043 H   0  0  0  0  0  0  0  0  0  0  0  0
    0.2737   26.8258  -27.7699 H   0  0  0  0  0  0  0  0  0  0  0  0
   -1.2404   27.7924  -27.7699 H   0  0  0  0  0  0  0  0  0  0  0  0
   -4.6550   23.4510  -31.1190 N   0  0  0  0  0  0  0  0  0  0  0  0
   -5.9150   23.1400  -31.4140 N   0  0  0  0  0  0  0  0  0  0  0  0
   -6.3990   22.0840  -32.0880 C   0  0  0  0  0  0  0  0  0  0  0  0
   -5.6050   21.0000  -32.7150 C   0  0  0  0  0  0  0  0  0  0  0  0
   -6.2460   19.8510  -33.2050 C   0  0  0  0  0  0  0  0  0  0  0  0
   -7.3390   19.7591  -33.1223 H   0  0  0  0  0  0  0  0  0  0  0  0
   -5.5070   18.8230  -33.7970 C   0  0  0  0  0  0  0  0  0  0  0  0
   -6.0228   17.9289  -34.1772 H   0  0  0  0  0  0  0  0  0  0  0  0
   -4.1120   18.9230  -33.9100 C   0  0  0  0  0  0  0  0  0  0  0  0
   -3.3500   17.8710  -34.5350 N   0  0  0  0  0  0  0  0  0  0  0  0
   -1.8940   17.7920  -34.3830 C   0  0  0  0  0  0  0  0  0  0  0  0
   -1.4182   17.9367  -35.3641 H   0  0  0  0  0  0  0  0  0  0  0  0
   -1.5637   18.5756  -33.6852 H   0  0  0  0  0  0  0  0  0  0  0  0
   -1.4900   16.4160  -33.8200 C   0  0  0  0  0  0  0  0  0  0  0  0
   -0.4711   16.1864  -34.1651 H   0  0  0  0  0  0  0  0  0  0  0  0
   -1.5594   16.4868  -32.7245 H   0  0  0  0  0  0  0  0  0  0  0  0
   -2.3870   15.3060  -34.2380 N   0  0  0  0  0  0  0  0  0  0  0  0
   -3.2770   14.8810  -33.1450 C   0  0  0  0  0  0  0  0  0  0  0  0
   -2.8039   15.1069  -32.1780 H   0  0  0  0  0  0  0  0  0  0  0  0
   -4.2331   15.4197  -33.2202 H   0  0  0  0  0  0  0  0  0  0  0  0
   -3.4590   13.7988  -33.2202 H   0  0  0  0  0  0  0  0  0  0  0  0
   -3.1380   15.5950  -35.4780 C   0  0  0  0  0  0  0  0  0  0  0  0
   -2.4225   15.7612  -36.2968 H   0  0  0  0  0  0  0  0  0  0  0  0
   -3.7901   14.7350  -35.6904 H   0  0  0  0  0  0  0  0  0  0  0  0
   -4.0260   16.8430  -35.3320 C   0  0  0  0  0  0  0  0  0  0  0  0
   -4.2466   17.2478  -36.3307 H   0  0  0  0  0  0  0  0  0  0  0  0
   -4.9572   16.5561  -34.8216 H   0  0  0  0  0  0  0  0  0  0  0  0
   -3.4720   20.0810  -33.4400 C   0  0  0  0  0  0  0  0  0  0  0  0
   -2.3809   20.1796  -33.5387 H   0  0  0  0  0  0  0  0  0  0  0  0
   -4.2100   21.1090  -32.8480 C   0  0  0  0  0  0  0  0  0  0  0  0
   -3.6956   22.0103  -32.4833 H   0  0  0  0  0  0  0  0  0  0  0  0
  1  2  1  0
  2  3  1  0
  3  4  2  0
  4  5  1  0
  5  6  1  0
  5  7  2  0
  7  8  1  0
  7  9  1  0
  9 10  2  0
 10 11  1  0
 11 12  1  0
 11 13  1  0
 11 14  1  0
 14 15  1  0
 14 16  1  0
 14 17  1  0
 17 18  1  0
 18 19  1  0
 18 20  1  0
 18 21  1  0
  9 22  1  0
 22 23  1  0
 23 24  1  0
 24 25  1  0
 25 26  2  0
 26 27  1  0
 26 28  1  0
 28 29  1  0
 28 30  2  0
 30 31  1  0
 31 32  1  0
 32 33  1  0
 32 34  1  0
 32 35  1  0
 35 36  1  0
 35 37  1  0
 35 38  1  0
 38 39  1  0
 39 40  1  0
 39 41  1  0
 39 42  1  0
 38 43  1  0
 43 44  1  0
 43 45  1  0
 43 46  1  0
 46 47  1  0
 46 48  1  0
 30 49  1  0
 49 50  1  0
 49 51  2  0
 51 52  1  0
 24  2  2  0
 51 25  1  0
 23  4  1  0
 46 31  1  0
M  CHG  1  22  -1
M  END
>  <UniqueID>  (35) 
32

>  <SMILES>  (35) 
COCC/N=c1/ccc2ncc(-c3ccc(N4CCN(C)CC4)cc3)n2[n-]1

>  <Energy>  (35) 
105.20394922930501

>  <Genealogy>  (35) 
COCCN=c1ccc2ncc(-c3ccc(N4CCN(C)CC4)cc3)n2[n-]1 (protonated)
COCC/N=c1/ccc2ncc(-c3ccc(N4CCN(C)CC4)cc3)n2[n-]1 (cis-trans isomerization)
COCC/N=c1/ccc2ncc(-c3ccc(N4CCN(C)CC4)cc3)n2[n-]1 (3D coordinates assigned)
COCC/N=c1/ccc2ncc(-c3ccc(N4CCN(C)CC4)cc3)n2[n-]1 (nonaromatic ring conformer: 105.20394922930501 kcal/mol)

>  <smiles>  (35) 
COCCN=c1ccc2ncc(-c3ccc(N4CCN(C)CC4)cc3)n2[nH]1

>  <score_type>  (35) 
oracle

>  <origin>  (35) 
adg

>  <m_score__min__energy>  (35) 
-9.5700000000000003

>  <m_primary>  (35) 
energy

$$$$
35:0
     RDKit          3D

 52 54  0  0  0  0  0  0  0  0999 V2000
   -2.0600   24.9130  -28.1890 C   0  0  0  0  0  0  0  0  0  0  0  0
   -2.7740   25.2980  -29.3570 O   0  0  0  0  0  0  0  0  0  0  0  0
   -3.8460   24.5750  -29.9020 C   0  0  0  0  0  0  0  0  0  0  0  0
   -4.9050   25.1990  -30.5920 C   0  0  0  0  0  0  0  0  0  0  0  0
   -5.9580   24.4350  -31.1040 C   0  0  0  0  0  0  0  0  0  0  0  0
   -5.9690   23.0420  -30.9400 C   0  0  0  0  0  0  0  0  0  0  0  0
   -7.0520   22.2520  -31.4630 N   0  0  0  0  0  0  0  0  0  0  0  0
   -8.3790   22.8780  -31.5910 C   0  0  0  0  0  0  0  0  0  0  0  0
   -9.4700   21.9230  -31.0840 C   0  0  0  0  0  0  0  0  0  0  0  0
   -9.4390   20.5470  -31.7910 C   0  0  0  0  0  0  0  0  0  0  0  0
   -8.0880   20.2520  -32.4770 C   0  0  2  0  0  0  0  0  0  0  0  0
   -7.9070   18.7580  -32.8570 C   0  0  0  0  0  0  0  0  0  0  0  0
   -6.6730   18.1120  -32.1990 C   0  0  0  0  0  0  0  0  0  0  0  0
   -5.4240   18.9120  -32.3480 N   0  0  1  0  0  0  0  0  0  0  0  0
   -4.5280   18.4340  -33.7730 S   0  0  0  0  0  0  0  0  0  0  0  0
   -3.3760   19.3830  -33.9660 O   0  0  0  0  0  0  0  0  0  0  0  0
   -5.4310   18.5520  -34.9720 O   0  0  0  0  0  0  0  0  0  0  0  0
   -3.9530   16.7860  -33.5880 N   0  0  0  0  0  0  0  0  0  0  0  0
   -4.9540   15.8300  -34.0770 C   0  0  0  0  0  0  0  0  0  0  0  0
   -2.6860   16.5980  -34.3100 C   0  0  0  0  0  0  0  0  0  0  0  0
   -5.6110   20.3860  -32.3270 C   0  0  0  0  0  0  0  0  0  0  0  0
   -6.9200   20.7900  -31.6250 C   0  0  1  0  0  0  0  0  0  0  0  0
   -4.9090   22.4190  -30.2650 C   0  0  0  0  0  0  0  0  0  0  0  0
   -3.8590   23.1830  -29.7460 C   0  0  0  0  0  0  0  0  0  0  0  0
   -2.6257   25.2180  -27.2963 H   0  0  0  0  0  0  0  0  0  0  0  0
   -1.9273   23.8210  -28.1836 H   0  0  0  0  0  0  0  0  0  0  0  0
   -1.0747   25.4021  -28.1836 H   0  0  0  0  0  0  0  0  0  0  0  0
   -4.9029   26.2906  -30.7281 H   0  0  0  0  0  0  0  0  0  0  0  0
   -6.7826   24.9292  -31.6385 H   0  0  0  0  0  0  0  0  0  0  0  0
   -8.4024   23.8036  -30.9972 H   0  0  0  0  0  0  0  0  0  0  0  0
   -8.5667   23.1054  -32.6508 H   0  0  0  0  0  0  0  0  0  0  0  0
   -9.3263   21.7668  -30.0047 H   0  0  0  0  0  0  0  0  0  0  0  0
  -10.4433   22.3861  -31.3036 H   0  0  0  0  0  0  0  0  0  0  0  0
   -9.6305   19.7639  -31.0426 H   0  0  0  0  0  0  0  0  0  0  0  0
  -10.2100   20.5625  -32.5754 H   0  0  0  0  0  0  0  0  0  0  0  0
   -8.0862   20.7910  -33.4359 H   0  0  0  0  0  0  0  0  0  0  0  0
   -8.8031   18.2049  -32.5390 H   0  0  0  0  0  0  0  0  0  0  0  0
   -7.7595   18.7123  -33.9461 H   0  0  0  0  0  0  0  0  0  0  0  0
   -6.8783   17.9860  -31.1257 H   0  0  0  0  0  0  0  0  0  0  0  0
   -6.5023   17.1531  -32.7102 H   0  0  0  0  0  0  0  0  0  0  0  0
   -4.8100   18.6640  -31.5350 H   0  0  0  0  0  0  0  0  0  0  0  0
   -5.4538   15.3526  -33.2213 H   0  0  0  0  0  0  0  0  0  0  0  0
   -5.6994   16.3600  -34.6881 H   0  0  0  0  0  0  0  0  0  0  0  0
   -4.4588   15.0610  -34.6881 H   0  0  0  0  0  0  0  0  0  0  0  0
   -1.8663   16.4764  -33.5866 H   0  0  0  0  0  0  0  0  0  0  0  0
   -2.7537   15.7001  -34.9418 H   0  0  0  0  0  0  0  0  0  0  0  0
   -2.4901   17.4769  -34.9418 H   0  0  0  0  0  0  0  0  0  0  0  0
   -4.7654   20.8439  -31.7929 H   0  0  0  0  0  0  0  0  0  0  0  0
   -5.6606   20.7376  -33.3681 H   0  0  0  0  0  0  0  0  0  0  0  0
   -6.9243   20.3628  -30.6113 H   0  0  0  0  0  0  0  0  0  0  0  0
   -4.9036   21.3257  -30.1435 H   0  0  0  0  0  0  0  0  0  0  0  0
   -3.0362   22.6866  -29.2107 H   0  0  0  0  0  0  0  0  0  0  0  0
  1  2  1  0
  2  3  1  0
  3  4  2  0
  4  5  1  0
  5  6  2  0
  6  7  1  0
  7  8  1  0
  8  9  1  0
  9 10  1  0
 10 11  1  0
 11 12  1  0
 12 13  1  0
 13 14  1  0
 14 15  1  0
 15 16  2  0
 15 17  2  0
 15 18  1  0
 18 19  1  0
 18 20  1  0
 14 21  1  0
 21 22  1  0
  6 23  1  0
 23 24  2  0
 24  3  1  0
 22  7  1  0
 22 11  1  0
  1 25  1  0
  1 26  1  0
  1 27  1  0
  4 28  1  0
  5 29  1  0
  8 30  1  0
  8 31  1  0
  9 32  1  0
  9 33  1  0
 10 34  1  0
 10 35  1  0
 11 36  1  6
 12 37  1  0
 12 38  1  0
 13 39  1  0
 13 40  1  0
 14 41  1  1
 19 42  1  0
 19 43  1  0
 19 44  1  0
 20 45  1  0
 20 46  1  0
 20 47  1  0
 21 48  1  0
 21 49  1  0
 22 50  1  1
 23 51  1  0
 24 52  1  0
M  CHG  1  14   1
M  END
>  <UniqueID>  (36) 
33

>  <SMILES>  (36) 
COc1ccc(N2CCC[C@@H]3CC[N@@H+](S(=O)(=O)N(C)C)CC32)cc1

>  <Energy>  (36) 
67.34210137068287

>  <Genealogy>  (36) 
COc1ccc(N2CCCC3CC[NH+](S(=O)(=O)N(C)C)CC32)cc1 (protonated)
COc1ccc(N2CCC[C@@H]3CC[N@@H+](S(=O)(=O)N(C)C)CC32)cc1 (chirality)
COc1ccc(N2CCC[C@@H]3CC[N@@H+](S(=O)(=O)N(C)C)CC32)cc1 (3D coordinates assigned)
COc1ccc(N2CCC[C@@H]3CC[N@@H+](S(=O)(=O)N(C)C)CC32)cc1 (nonaromatic ring conformer: 67.34210137068287 kcal/mol)

>  <smiles>  (36) 
COc1ccc(N2CCCC3CCN(S(=O)(=O)N(C)C)CC32)cc1

>  <score_type>  (36) 
oracle

>  <origin>  (36) 
adg

>  <m_score__min__energy>  (36) 
-8.7699999999999996

>  <m_primary>  (36) 
energy

$$$$
36:0
     RDKit          3D

 44 46  0  0  0  0  0  0  0  0999 V2000
   -9.9190   21.2410  -32.2760 C   0  0  0  0  0  0  0  0  0  0  0  0
   -8.4980   20.7600  -32.2520 C   0  0  0  0  0  0  0  0  0  0  0  0
   -8.1000   19.6740  -32.9720 N   0  0  0  0  0  0  0  0  0  0  0  0
   -6.8020   19.3450  -32.7630 C   0  0  0  0  0  0  0  0  0  0  0  0
   -6.0790   18.2300  -33.4120 C   0  0  0  0  0  0  0  0  0  0  0  0
   -4.8770   18.4270  -34.1170 C   0  0  0  0  0  0  0  0  0  0  0  0
   -4.2350   17.3330  -34.7000 C   0  0  0  0  0  0  0  0  0  0  0  0
   -4.7860   16.0560  -34.5800 C   0  0  0  0  0  0  0  0  0  0  0  0
   -5.9770   15.8940  -33.8730 C   0  0  0  0  0  0  0  0  0  0  0  0
   -6.5880   16.9700  -33.3120 N   0  0  0  0  0  0  0  0  0  0  0  0
   -6.1040   20.3940  -31.6480 S   0  0  0  0  0  0  0  0  0  0  0  0
   -7.4950   21.3280  -31.4570 C   0  0  0  0  0  0  0  0  0  0  0  0
   -7.6090   22.5270  -30.5490 C   0  0  0  0  0  0  0  0  0  0  0  0
   -6.9450   23.7440  -31.0710 N   0  0  0  0  0  0  0  0  0  0  0  0
   -6.8900   24.8970  -30.1410 C   0  0  0  0  0  0  0  0  0  0  0  0
   -5.4690   25.1840  -29.6260 C   0  0  0  0  0  0  0  0  0  0  0  0
   -4.7030   23.9350  -29.5800 N   0  0  0  0  0  0  0  0  0  0  0  0
   -3.2090   24.1490  -28.7030 S   0  0  0  0  0  0  0  0  0  0  0  0
   -3.4920   24.5510  -26.9880 C   0  0  0  0  0  0  0  0  0  0  0  0
   -2.4130   22.8750  -28.7750 O   0  0  0  0  0  0  0  0  0  0  0  0
   -2.4080   25.2520  -29.3370 O   0  0  0  0  0  0  0  0  0  0  0  0
   -4.4460   23.4270  -30.9370 C   0  0  0  0  0  0  0  0  0  0  0  0
   -5.7020   23.5120  -31.8350 C   0  0  0  0  0  0  0  0  0  0  0  0
  -10.2820   21.3639  -31.2449 H   0  0  0  0  0  0  0  0  0  0  0  0
   -9.9704   22.2066  -32.8003 H   0  0  0  0  0  0  0  0  0  0  0  0
  -10.5464   20.5052  -32.8003 H   0  0  0  0  0  0  0  0  0  0  0  0
   -8.7470   19.1510  -33.6010 H   0  0  0  0  0  0  0  0  0  0  0  0
   -4.4467   19.4352  -34.2080 H   0  0  0  0  0  0  0  0  0  0  0  0
   -3.2955   17.4772  -35.2536 H   0  0  0  0  0  0  0  0  0  0  0  0
   -4.2871   15.1888  -35.0372 H   0  0  0  0  0  0  0  0  0  0  0  0
   -6.4224   14.8936  -33.7694 H   0  0  0  0  0  0  0  0  0  0  0  0
   -8.6762   22.7506  -30.4038 H   0  0  0  0  0  0  0  0  0  0  0  0
   -7.0994   22.2645  -29.6101 H   0  0  0  0  0  0  0  0  0  0  0  0
   -7.2597   25.7898  -30.6666 H   0  0  0  0  0  0  0  0  0  0  0  0
   -7.5128   24.6477  -29.2692 H   0  0  0  0  0  0  0  0  0  0  0  0
   -4.9709   25.8947  -30.3019 H   0  0  0  0  0  0  0  0  0  0  0  0
   -5.5259   25.6160  -28.6160 H   0  0  0  0  0  0  0  0  0  0  0  0
   -2.9763   23.8184  -26.3498 H   0  0  0  0  0  0  0  0  0  0  0  0
   -3.1027   25.5582  -26.7784 H   0  0  0  0  0  0  0  0  0  0  0  0
   -4.5715   24.5242  -26.7784 H   0  0  0  0  0  0  0  0  0  0  0  0
   -3.6423   24.0236  -31.3932 H   0  0  0  0  0  0  0  0  0  0  0  0
   -4.1583   22.3685  -30.8547 H   0  0  0  0  0  0  0  0  0  0  0  0
   -5.5685   24.3402  -32.5465 H   0  0  0  0  0  0  0  0  0  0  0  0
   -5.8065   22.5435  -32.3459 H   0  0  0  0  0  0  0  0  0  0  0  0
  1  2  1  0
  2  3  1  0
  3  4  2  0
  4  5  1  0
  5  6  2  0
  6  7  1  0
  7  8  2  0
  8  9  1  0
  9 10  2  0
  4 11  1  0
 11 12  1  0
 12 13  1  0
 13 14  1  0
 14 15  1  0
 15 16  1  0
 16 17  1  0
 17 18  1  0
 18 19  1  0
 18 20  2  0
 18 21  2  0
 17 22  1  0
 22 23  1  0
 12  2  2  0
 23 14  1  0
 10  5  1  0
  1 24  1  0
  1 25  1  0
  1 26  1  0
  3 27  1  0
  6 28  1  0
  7 29  1  0
  8 30  1  0
  9 31  1  0
 13 32  1  0
 13 33  1  0
 15 34  1  0
 15 35  1  0
 16 36  1  0
 16 37  1  0
 19 38  1  0
 19 39  1  0
 19 40  1  0
 22 41  1  0
 22 42  1  0
 23 43  1  0
 23 44  1  0
M  CHG  1   3   1
M  END
>  <UniqueID>  (37) 
34

>  <SMILES>  (37) 
Cc1[nH+]c(-c2ccccn2)sc1CN1CCN(S(C)(=O)=O)CC1

>  <Energy>  (37) 
81.43068018865364

>  <Genealogy>  (37) 
Cc1[nH+]c(-c2ccccn2)sc1CN1CCN(S(C)(=O)=O)CC1 (protonated)
Cc1[nH+]c(-c2ccccn2)sc1CN1CCN(S(C)(=O)=O)CC1 (3D coordinates assigned)
Cc1[nH+]c(-c2ccccn2)sc1CN1CCN(S(C)(=O)=O)CC1 (nonaromatic ring conformer: 81.43068018865364 kcal/mol)

>  <smiles>  (37) 
Cc1nc(-c2ccccn2)sc1CN1CCN(S(C)(=O)=O)CC1

>  <score_type>  (37) 
oracle

>  <origin>  (37) 
adg

>  <m_score__min__energy>  (37) 
-8.2100000000000009

>  <m_primary>  (37) 
energy

$$$$
37:0
     RDKit          3D

 50 52  0  0  0  0  0  0  0  0999 V2000
   -9.4570   19.5120  -32.3430 C   0  0  0  0  0  0  0  0  0  0  0  0
   -8.6930   18.2510  -31.9390 C   0  0  0  0  0  0  0  0  0  0  0  0
   -7.3500   18.1840  -32.5610 N   0  0  0  0  0  0  0  0  0  0  0  0
   -7.1220   16.8610  -33.1860 C   0  0  0  0  0  0  0  0  0  0  0  0
   -5.6910   16.7020  -33.6420 C   0  0  0  0  0  0  0  0  0  0  0  0
   -4.7300   16.1670  -32.7670 C   0  0  0  0  0  0  0  0  0  0  0  0
   -3.3950   16.0540  -33.1690 C   0  0  0  0  0  0  0  0  0  0  0  0
   -3.0050   16.4940  -34.4360 C   0  0  0  0  0  0  0  0  0  0  0  0
   -3.9470   17.0570  -35.3010 C   0  0  0  0  0  0  0  0  0  0  0  0
   -5.2830   17.1710  -34.9040 C   0  0  0  0  0  0  0  0  0  0  0  0
   -7.0460   19.3080  -33.4860 C   0  0  0  0  0  0  0  0  0  0  0  0
   -5.8640   20.1460  -33.0670 C   0  0  0  0  0  0  0  0  0  0  0  0
   -4.5990   19.9400  -33.4970 N   0  0  0  0  0  0  0  0  0  0  0  0
   -3.8350   20.8880  -32.9730 N   0  0  0  0  0  0  0  0  0  0  0  0
   -2.4170   21.0420  -33.2710 C   0  0  0  0  0  0  0  0  0  0  0  0
   -4.5960   21.7190  -32.2360 C   0  0  0  0  0  0  0  0  0  0  0  0
   -5.8860   21.2720  -32.2610 C   0  0  0  0  0  0  0  0  0  0  0  0
   -7.0280   22.0500  -31.7040 C   0  0  0  0  0  0  0  0  0  0  0  0
   -6.5240   22.9260  -30.5480 C   0  0  0  0  0  0  0  0  0  0  0  0
   -5.3060   23.6830  -30.9260 N   0  0  0  0  0  0  0  0  0  0  0  0
   -5.1260   25.0290  -30.4240 C   0  0  0  0  0  0  0  0  0  0  0  0
   -6.1580   25.6890  -29.5580 C   0  0  0  0  0  0  0  0  0  0  0  0
   -4.0780   25.6740  -30.7010 O   0  0  0  0  0  0  0  0  0  0  0  0
   -4.1650   22.9880  -31.5660 C   0  0  0  0  0  0  0  0  0  0  0  0
   -9.7823   20.0489  -31.4397 H   0  0  0  0  0  0  0  0  0  0  0  0
   -8.8011   20.1627  -32.9400 H   0  0  0  0  0  0  0  0  0  0  0  0
  -10.3374   19.2318  -32.9400 H   0  0  0  0  0  0  0  0  0  0  0  0
   -8.5771   18.2428  -30.8452 H   0  0  0  0  0  0  0  0  0  0  0  0
   -9.2695   17.3817  -32.2883 H   0  0  0  0  0  0  0  0  0  0  0  0
   -7.3525   16.0747  -32.4520 H   0  0  0  0  0  0  0  0  0  0  0  0
   -7.7755   16.7789  -34.0670 H   0  0  0  0  0  0  0  0  0  0  0  0
   -5.0290   15.8357  -31.7616 H   0  0  0  0  0  0  0  0  0  0  0  0
   -2.6510   15.6179  -32.4862 H   0  0  0  0  0  0  0  0  0  0  0  0
   -1.9561   16.3973  -34.7529 H   0  0  0  0  0  0  0  0  0  0  0  0
   -3.6373   17.4109  -36.2954 H   0  0  0  0  0  0  0  0  0  0  0  0
   -6.0183   17.6295  -35.5816 H   0  0  0  0  0  0  0  0  0  0  0  0
   -6.8375   18.8896  -34.4817 H   0  0  0  0  0  0  0  0  0  0  0  0
   -7.9238   19.9710  -33.4799 H   0  0  0  0  0  0  0  0  0  0  0  0
   -1.8493   21.1037  -32.3308 H   0  0  0  0  0  0  0  0  0  0  0  0
   -2.0686   20.1764  -33.8536 H   0  0  0  0  0  0  0  0  0  0  0  0
   -2.2626   21.9622  -33.8536 H   0  0  0  0  0  0  0  0  0  0  0  0
   -7.4566   22.6888  -32.4903 H   0  0  0  0  0  0  0  0  0  0  0  0
   -7.8014   21.3600  -31.3357 H   0  0  0  0  0  0  0  0  0  0  0  0
   -7.3145   23.6383  -30.2692 H   0  0  0  0  0  0  0  0  0  0  0  0
   -6.2713   22.2682  -29.7033 H   0  0  0  0  0  0  0  0  0  0  0  0
   -5.9059   25.5278  -28.4995 H   0  0  0  0  0  0  0  0  0  0  0  0
   -6.1785   26.7682  -29.7698 H   0  0  0  0  0  0  0  0  0  0  0  0
   -7.1463   25.2549  -29.7698 H   0  0  0  0  0  0  0  0  0  0  0  0
   -3.7178   23.6545  -32.3182 H   0  0  0  0  0  0  0  0  0  0  0  0
   -3.4356   22.7326  -30.7832 H   0  0  0  0  0  0  0  0  0  0  0  0
  1  2  1  0
  2  3  1  0
  3  4  1  0
  4  5  1  0
  5  6  2  0
  6  7  1  0
  7  8  2  0
  8  9  1  0
  9 10  2  0
  3 11  1  0
 11 12  1  0
 12 13  2  0
 13 14  1  0
 14 15  1  0
 14 16  1  0
 16 17  2  0
 17 18  1  0
 18 19  1  0
 19 20  1  0
 20 21  1  0
 21 22  1  0
 21 23  2  0
 20 24  1  0
 10  5  1  0
 17 12  1  0
 24 16  1  0
  1 25  1  0
  1 26  1  0
  1 27  1  0
  2 28  1  0
  2 29  1  0
  4 30  1  0
  4 31  1  0
  6 32  1  0
  7 33  1  0
  8 34  1  0
  9 35  1  0
 10 36  1  0
 11 37  1  0
 11 38  1  0
 15 39  1  0
 15 40  1  0
 15 41  1  0
 18 42  1  0
 18 43  1  0
 19 44  1  0
 19 45  1  0
 22 46  1  0
 22 47  1  0
 22 48  1  0
 24 49  1  0
 24 50  1  0
M  END
>  <UniqueID>  (38) 
35

>  <SMILES>  (38) 
CCN(Cc1ccccc1)Cc1nn(C)c2c1CCN(C(C)=O)C2

>  <Energy>  (38) 
85.13274501377623

>  <Genealogy>  (38) 
CCN(Cc1ccccc1)Cc1nn(C)c2c1CCN(C(C)=O)C2 (3D coordinates assigned)
CCN(Cc1ccccc1)Cc1nn(C)c2c1CCN(C(C)=O)C2 (nonaromatic ring conformer: 85.13274501377623 kcal/mol)

>  <smiles>  (38) 
CCN(Cc1ccccc1)Cc1nn(C)c2c1CCN(C(C)=O)C2

>  <score_type>  (38) 
oracle

>  <origin>  (38) 
adg

>  <m_score__min__energy>  (38) 
-8.4000000000000004

>  <m_primary>  (38) 
energy

$$$$
38:0
     RDKit          3D

 40 41  0  0  0  0  0  0  0  0999 V2000
   -2.1080   24.6150  -28.1940 C   0  0  0  0  0  0  0  0  0  0  0  0
   -2.6720   25.2380  -29.3400 O   0  0  0  0  0  0  0  0  0  0  0  0
   -3.8670   24.8070  -29.9210 C   0  0  0  0  0  0  0  0  0  0  0  0
   -4.2790   25.3190  -30.9970 O   0  0  0  0  0  0  0  0  0  0  0  0
   -4.6890   23.7540  -29.2400 C   0  0  0  0  0  0  0  0  0  0  0  0
   -4.6030   22.3780  -29.9360 C   0  0  2  0  0  0  0  0  0  0  0  0
   -3.3590   21.6180  -29.5180 C   0  0  0  0  0  0  0  0  0  0  0  0
   -3.1010   21.4660  -28.2930 O   0  0  0  0  0  0  0  0  0  0  0  0
   -2.4830   21.0460  -30.4910 N   0  0  0  0  0  0  0  0  0  0  0  0
   -2.8590   21.0050  -31.8950 C   0  0  0  0  0  0  0  0  0  0  0  0
   -3.5530   22.3040  -32.2740 C   0  0  0  0  0  0  0  0  0  0  0  0
   -4.7270   22.5200  -31.4080 N   0  0  0  0  0  0  0  0  0  0  0  0
   -6.0230   22.8410  -31.9750 C   0  0  0  0  0  0  0  0  0  0  0  0
   -6.2640   24.0220  -32.3480 O   0  0  0  0  0  0  0  0  0  0  0  0
   -7.1110   21.8430  -32.0920 C   0  0  0  0  0  0  0  0  0  0  0  0
   -8.3860   22.1760  -31.6040 C   0  0  0  0  0  0  0  0  0  0  0  0
   -9.4300   21.2530  -31.6610 C   0  0  0  0  0  0  0  0  0  0  0  0
   -9.2160   19.9920  -32.2160 C   0  0  0  0  0  0  0  0  0  0  0  0
   -7.9630   19.6560  -32.7310 C   0  0  0  0  0  0  0  0  0  0  0  0
   -6.8990   20.5800  -32.6860 C   0  0  0  0  0  0  0  0  0  0  0  0
   -5.6380   20.2780  -33.2250 O   0  0  0  0  0  0  0  0  0  0  0  0
   -5.3050   19.0430  -33.8480 C   0  0  0  0  0  0  0  0  0  0  0  0
   -2.5238   25.0743  -27.2850 H   0  0  0  0  0  0  0  0  0  0  0  0
   -2.3477   23.5415  -28.2050 H   0  0  0  0  0  0  0  0  0  0  0  0
   -1.0160   24.7470  -28.2050 H   0  0  0  0  0  0  0  0  0  0  0  0
   -4.3328   23.6462  -28.2049 H   0  0  0  0  0  0  0  0  0  0  0  0
   -5.7392   24.0786  -29.2810 H   0  0  0  0  0  0  0  0  0  0  0  0
   -5.4567   21.7694  -29.6031 H   0  0  0  0  0  0  0  0  0  0  0  0
   -1.5760   20.6250  -30.1900 H   0  0  0  0  0  0  0  0  0  0  0  0
   -1.9574   20.8778  -32.5121 H   0  0  0  0  0  0  0  0  0  0  0  0
   -3.5435   20.1611  -32.0660 H   0  0  0  0  0  0  0  0  0  0  0  0
   -2.8506   23.1416  -32.1510 H   0  0  0  0  0  0  0  0  0  0  0  0
   -3.8831   22.2447  -33.3216 H   0  0  0  0  0  0  0  0  0  0  0  0
   -8.5621   23.1728  -31.1735 H   0  0  0  0  0  0  0  0  0  0  0  0
  -10.4222   21.5199  -31.2681 H   0  0  0  0  0  0  0  0  0  0  0  0
  -10.0366   19.2602  -32.2481 H   0  0  0  0  0  0  0  0  0  0  0  0
   -7.8044   18.6624  -33.1755 H   0  0  0  0  0  0  0  0  0  0  0  0
   -5.1010   18.2863  -33.0762 H   0  0  0  0  0  0  0  0  0  0  0  0
   -6.1455   18.7101  -34.4747 H   0  0  0  0  0  0  0  0  0  0  0  0
   -4.4111   19.1778  -34.4747 H   0  0  0  0  0  0  0  0  0  0  0  0
  1  2  1  0
  2  3  1  0
  3  4  2  0
  3  5  1  0
  5  6  1  0
  6  7  1  0
  7  8  2  0
  7  9  1  0
  9 10  1  0
 10 11  1  0
 11 12  1  0
 12 13  1  0
 13 14  2  0
 13 15  1  0
 15 16  2  0
 16 17  1  0
 17 18  2  0
 18 19  1  0
 19 20  2  0
 20 21  1  0
 21 22  1  0
 12  6  1  0
 20 15  1  0
  1 23  1  0
  1 24  1  0
  1 25  1  0
  5 26  1  0
  5 27  1  0
  6 28  1  1
  9 29  1  0
 10 30  1  0
 10 31  1  0
 11 32  1  0
 11 33  1  0
 16 34  1  0
 17 35  1  0
 18 36  1  0
 19 37  1  0
 22 38  1  0
 22 39  1  0
 22 40  1  0
M  END
>  <UniqueID>  (39) 
36

>  <SMILES>  (39) 
COC(=O)C[C@@H]1C(=O)NCCN1C(=O)c1ccccc1OC

>  <Energy>  (39) 
39.85577275574149

>  <Genealogy>  (39) 
COC(=O)C[C@@H]1C(=O)NCCN1C(=O)c1ccccc1OC (chirality)
COC(=O)C[C@@H]1C(=O)NCCN1C(=O)c1ccccc1OC (3D coordinates assigned)
COC(=O)C[C@@H]1C(=O)NCCN1C(=O)c1ccccc1OC (nonaromatic ring conformer: 39.85577275574149 kcal/mol)

>  <smiles>  (39) 
COC(=O)CC1C(=O)NCCN1C(=O)c1ccccc1OC

>  <score_type>  (39) 
oracle

>  <origin>  (39) 
adg

>  <m_score__min__energy>  (39) 
-7.2300000000000004

>  <m_primary>  (39) 
energy

$$$$
39:0
     RDKit          3D

 26 28  0  0  0  0  0  0  0  0999 V2000
   -8.6250   18.7430  -31.8640 O   0  0  0  0  0  0  0  0  0  0  0  0
   -7.5650   19.3990  -32.0510 C   0  0  0  0  0  0  0  0  0  0  0  0
   -7.4580   20.6860  -31.5240 C   0  0  0  0  0  0  0  0  0  0  0  0
   -6.2770   21.4260  -31.7280 C   0  0  0  0  0  0  0  0  0  0  0  0
   -6.0810   22.8100  -31.1970 C   0  0  0  0  0  0  0  0  0  0  0  0
   -7.1090   23.5480  -30.5690 C   0  0  0  0  0  0  0  0  0  0  0  0
   -6.8630   24.8360  -30.0930 C   0  0  0  0  0  0  0  0  0  0  0  0
   -5.5960   25.3930  -30.2440 C   0  0  0  0  0  0  0  0  0  0  0  0
   -4.6100   24.6830  -30.8480 N   0  0  0  0  0  0  0  0  0  0  0  0
   -4.8190   23.4260  -31.3210 C   0  0  0  0  0  0  0  0  0  0  0  0
   -5.2840   20.8760  -32.4260 O   0  0  0  0  0  0  0  0  0  0  0  0
   -5.3380   19.6550  -32.9480 C   0  0  0  0  0  0  0  0  0  0  0  0
   -4.2420   19.1620  -33.6660 C   0  0  0  0  0  0  0  0  0  0  0  0
   -3.1350   19.9290  -33.8250 F   0  0  0  0  0  0  0  0  0  0  0  0
   -4.2850   17.8800  -34.2210 C   0  0  0  0  0  0  0  0  0  0  0  0
   -3.2200   17.4080  -34.9150 F   0  0  0  0  0  0  0  0  0  0  0  0
   -5.4220   17.0840  -34.0600 C   0  0  0  0  0  0  0  0  0  0  0  0
   -5.4560   15.8400  -34.6020 F   0  0  0  0  0  0  0  0  0  0  0  0
   -6.5260   17.5630  -33.3460 C   0  0  0  0  0  0  0  0  0  0  0  0
   -7.6140   16.7610  -33.2100 F   0  0  0  0  0  0  0  0  0  0  0  0
   -6.4930   18.8560  -32.7810 C   0  0  0  0  0  0  0  0  0  0  0  0
   -8.2912   21.1206  -30.9523 H   0  0  0  0  0  0  0  0  0  0  0  0
   -8.1091   23.1045  -30.4547 H   0  0  0  0  0  0  0  0  0  0  0  0
   -7.6644   25.4075  -29.6019 H   0  0  0  0  0  0  0  0  0  0  0  0
   -5.3942   26.4089  -29.8736 H   0  0  0  0  0  0  0  0  0  0  0  0
   -3.9942   22.8833  -31.8060 H   0  0  0  0  0  0  0  0  0  0  0  0
  1  2  2  0
  2  3  1  0
  3  4  2  0
  4  5  1  0
  5  6  2  0
  6  7  1  0
  7  8  2  0
  8  9  1  0
  9 10  2  0
  4 11  1  0
 11 12  1  0
 12 13  2  0
 13 14  1  0
 13 15  1  0
 15 16  1  0
 15 17  2  0
 17 18  1  0
 17 19  1  0
 19 20  1  0
 19 21  2  0
 21  2  1  0
 10  5  1  0
 21 12  1  0
  3 22  1  0
  6 23  1  0
  7 24  1  0
  8 25  1  0
 10 26  1  0
M  END
>  <UniqueID>  (40) 
37

>  <SMILES>  (40) 
O=c1cc(-c2cccnc2)oc2c(F)c(F)c(F)c(F)c12

>  <Energy>  (40) 
40.69944823005904

>  <Genealogy>  (40) 
O=c1cc(-c2cccnc2)oc2c(F)c(F)c(F)c(F)c12 (3D coordinates assigned)
O=c1cc(-c2cccnc2)oc2c(F)c(F)c(F)c(F)c12 (optimized conformer: 40.69944823005904 kcal/mol)

>  <smiles>  (40) 
O=c1cc(-c2cccnc2)oc2c(F)c(F)c(F)c(F)c12

>  <score_type>  (40) 
oracle

>  <origin>  (40) 
adg

>  <m_score__min__energy>  (40) 
-7.0599999999999996

>  <m_primary>  (40) 
energy

$$$$
40:0
     RDKit          3D

 56 57  0  0  0  0  0  0  0  0999 V2000
   -7.2950   17.9630  -32.0100 C   0  0  0  0  0  0  0  0  0  0  0  0
   -8.6250   18.6330  -31.7810 C   0  0  0  0  0  0  0  0  0  0  0  0
   -8.7240   19.8630  -32.7160 C   0  0  0  0  0  0  0  0  0  0  0  0
   -9.4590   20.9290  -31.9670 C   0  0  0  0  0  0  0  0  0  0  0  0
   -8.5480   21.9310  -31.3750 C   0  0  0  0  0  0  0  0  0  0  0  0
   -8.5610   23.2860  -32.0200 C   0  0  0  0  0  0  0  0  0  0  0  0
   -7.2320   23.6750  -32.3840 N   0  0  0  0  0  0  0  0  0  0  0  0
   -6.3100   23.7230  -31.5060 C   0  0  0  0  0  0  0  0  0  0  0  0
   -5.1630   22.9700  -31.4920 C   0  0  0  0  0  0  0  0  0  0  0  0
   -4.1990   23.0800  -30.4940 C   0  0  0  0  0  0  0  0  0  0  0  0
   -4.3760   23.9540  -29.4880 N   0  0  0  0  0  0  0  0  0  0  0  0
   -3.4280   24.1370  -28.4080 C   0  0  0  0  0  0  0  0  0  0  0  0
   -2.0840   24.5480  -28.9410 C   0  0  0  0  0  0  0  0  0  0  0  0
   -1.3790   25.3850  -27.9160 C   0  0  0  0  0  0  0  0  0  0  0  0
   -1.5400   24.8240  -26.5120 C   0  0  0  0  0  0  0  0  0  0  0  0
   -2.2130   25.8100  -25.5860 C   0  0  0  0  0  0  0  0  0  0  0  0
   -1.2200   26.5720  -24.8520 N   0  0  0  0  0  0  0  0  0  0  0  0
   -0.6470   26.1010  -23.7070 C   0  0  0  0  0  0  0  0  0  0  0  0
    0.2520   27.0670  -23.2630 C   0  0  0  0  0  0  0  0  0  0  0  0
    0.1880   28.0730  -24.1490 N   0  0  0  0  0  0  0  0  0  0  0  0
    0.9720   29.3100  -24.0760 C   0  0  0  0  0  0  0  0  0  0  0  0
   -0.6940   27.7440  -25.0760 N   0  0  0  0  0  0  0  0  0  0  0  0
   -5.4950   24.7240  -29.4550 C   0  0  0  0  0  0  0  0  0  0  0  0
   -6.4700   24.6220  -30.4500 C   0  0  0  0  0  0  0  0  0  0  0  0
   -6.8306   17.7290  -31.0407 H   0  0  0  0  0  0  0  0  0  0  0  0
   -7.4458   17.0333  -32.5782 H   0  0  0  0  0  0  0  0  0  0  0  0
   -6.6377   18.6375  -32.5782 H   0  0  0  0  0  0  0  0  0  0  0  0
   -9.4390   17.9286  -32.0074 H   0  0  0  0  0  0  0  0  0  0  0  0
   -8.7110   18.9502  -30.7312 H   0  0  0  0  0  0  0  0  0  0  0  0
   -7.7168   20.2158  -32.9828 H   0  0  0  0  0  0  0  0  0  0  0  0
   -9.2509   19.6051  -33.6465 H   0  0  0  0  0  0  0  0  0  0  0  0
  -10.1437   21.4398  -32.6601 H   0  0  0  0  0  0  0  0  0  0  0  0
  -10.0057   20.4450  -31.1443 H   0  0  0  0  0  0  0  0  0  0  0  0
   -8.8259   22.0574  -30.3182 H   0  0  0  0  0  0  0  0  0  0  0  0
   -7.5319   21.5376  -31.5259 H   0  0  0  0  0  0  0  0  0  0  0  0
   -9.1894   23.2526  -32.9222 H   0  0  0  0  0  0  0  0  0  0  0  0
   -8.9658   24.0186  -31.3062 H   0  0  0  0  0  0  0  0  0  0  0  0
   -4.9981   22.2478  -32.3051 H   0  0  0  0  0  0  0  0  0  0  0  0
   -3.2953   22.4538  -30.5283 H   0  0  0  0  0  0  0  0  0  0  0  0
   -3.8010   24.9182  -27.7293 H   0  0  0  0  0  0  0  0  0  0  0  0
   -3.3175   23.1835  -27.8707 H   0  0  0  0  0  0  0  0  0  0  0  0
   -1.4850   23.6513  -29.1582 H   0  0  0  0  0  0  0  0  0  0  0  0
   -2.2164   25.1306  -29.8646 H   0  0  0  0  0  0  0  0  0  0  0  0
   -0.3077   25.4210  -28.1631 H   0  0  0  0  0  0  0  0  0  0  0  0
   -1.8260   26.3900  -27.9330 H   0  0  0  0  0  0  0  0  0  0  0  0
   -2.1495   23.9097  -26.5619 H   0  0  0  0  0  0  0  0  0  0  0  0
   -0.5375   24.6104  -26.1128 H   0  0  0  0  0  0  0  0  0  0  0  0
   -2.8334   26.4986  -26.1784 H   0  0  0  0  0  0  0  0  0  0  0  0
   -2.8400   25.2576  -24.8706 H   0  0  0  0  0  0  0  0  0  0  0  0
   -0.8567   25.1355  -23.2235 H   0  0  0  0  0  0  0  0  0  0  0  0
    0.8871   27.0159  -22.3663 H   0  0  0  0  0  0  0  0  0  0  0  0
    1.1404   29.5757  -23.0219 H   0  0  0  0  0  0  0  0  0  0  0  0
    1.9405   29.1603  -24.5756 H   0  0  0  0  0  0  0  0  0  0  0  0
    0.4233   30.1219  -24.5756 H   0  0  0  0  0  0  0  0  0  0  0  0
   -5.6354   25.4394  -28.6313 H   0  0  0  0  0  0  0  0  0  0  0  0
   -7.3692   25.2537  -30.4012 H   0  0  0  0  0  0  0  0  0  0  0  0
  1  2  1  0
  2  3  1  0
  3  4  1  0
  4  5  1  0
  5  6  1  0
  6  7  1  0
  7  8  2  3
  8  9  1  0
  9 10  2  0
 10 11  1  0
 11 12  1  0
 12 13  1  0
 13 14  1  0
 14 15  1  0
 15 16  1  0
 16 17  1  0
 17 18  1  0
 18 19  2  0
 19 20  1  0
 20 21  1  0
 20 22  2  0
 11 23  1  0
 23 24  2  0
 24  8  1  0
 22 17  1  0
  1 25  1  0
  1 26  1  0
  1 27  1  0
  2 28  1  0
  2 29  1  0
  3 30  1  0
  3 31  1  0
  4 32  1  0
  4 33  1  0
  5 34  1  0
  5 35  1  0
  6 36  1  0
  6 37  1  0
  9 38  1  0
 10 39  1  0
 12 40  1  0
 12 41  1  0
 13 42  1  0
 13 43  1  0
 14 44  1  0
 14 45  1  0
 15 46  1  0
 15 47  1  0
 16 48  1  0
 16 49  1  0
 18 50  1  0
 19 51  1  0
 21 52  1  0
 21 53  1  0
 21 54  1  0
 23 55  1  0
 24 56  1  0
M  CHG  1  20   1
M  END
>  <smiles>  (41) 
CCCCCCN=c1ccn(CCCCCn2cc[n+](C)n2)cc1

>  <score_type>  (41) 
oracle

>  <origin>  (41) 
adg

>  <m_score__min__energy>  (41) 
-7.21

>  <m_primary>  (41) 
energy

$$$$
41:0
     RDKit          3D

 42 45  0  0  0  0  0  0  0  0999 V2000
   -7.8110   22.1490  -32.0320 C   0  0  0  0  0  0  0  0  0  0  0  0
   -6.4120   21.9400  -31.6560 N   0  0  0  0  0  0  0  0  0  0  0  0
   -5.6160   20.8600  -31.8970 C   0  0  0  0  0  0  0  0  0  0  0  0
   -6.0480   19.6170  -32.5720 C   0  0  0  0  0  0  0  0  0  0  0  0
   -5.5020   19.2770  -33.8200 C   0  0  0  0  0  0  0  0  0  0  0  0
   -5.8830   18.0950  -34.4600 C   0  0  0  0  0  0  0  0  0  0  0  0
   -6.8020   17.2350  -33.8520 C   0  0  0  0  0  0  0  0  0  0  0  0
   -7.3330   17.5530  -32.6000 C   0  0  0  0  0  0  0  0  0  0  0  0
   -6.9550   18.7350  -31.9580 C   0  0  0  0  0  0  0  0  0  0  0  0
   -4.3400   21.0290  -31.4550 N   0  0  0  0  0  0  0  0  0  0  0  0
   -4.3670   22.2510  -30.8970 C   0  0  0  0  0  0  0  0  0  0  0  0
   -3.3140   22.9250  -30.2850 C   0  0  0  0  0  0  0  0  0  0  0  0
   -3.5660   24.2120  -29.7530 C   0  0  0  0  0  0  0  0  0  0  0  0
   -2.5220   24.9820  -29.1320 N   0  0  0  0  0  0  0  0  0  0  0  0
   -2.1850   24.8930  -27.7340 C   0  0  0  0  0  0  0  0  0  0  0  0
   -2.8860   24.1840  -26.9610 O   0  0  0  0  0  0  0  0  0  0  0  0
   -1.0260   25.6300  -27.1740 C   0  0  0  0  0  0  0  0  0  0  0  0
    0.2970   25.2150  -27.4180 C   0  0  0  0  0  0  0  0  0  0  0  0
    1.3730   25.9310  -26.8830 C   0  0  0  0  0  0  0  0  0  0  0  0
    1.1440   27.0680  -26.1070 C   0  0  0  0  0  0  0  0  0  0  0  0
   -0.1640   27.4970  -25.8680 C   0  0  0  0  0  0  0  0  0  0  0  0
   -1.2430   26.7870  -26.4020 C   0  0  0  0  0  0  0  0  0  0  0  0
   -4.8560   24.7850  -29.8920 C   0  0  0  0  0  0  0  0  0  0  0  0
   -5.8970   24.0760  -30.5180 C   0  0  0  0  0  0  0  0  0  0  0  0
   -5.6100   22.8010  -31.0080 C   0  0  0  0  0  0  0  0  0  0  0  0
   -8.4250   22.2407  -31.1239 H   0  0  0  0  0  0  0  0  0  0  0  0
   -7.8970   23.0700  -32.6273 H   0  0  0  0  0  0  0  0  0  0  0  0
   -8.1624   21.2934  -32.6273 H   0  0  0  0  0  0  0  0  0  0  0  0
   -4.7698   19.9453  -34.2968 H   0  0  0  0  0  0  0  0  0  0  0  0
   -5.4595   17.8410  -35.4429 H   0  0  0  0  0  0  0  0  0  0  0  0
   -7.1069   16.3079  -34.3595 H   0  0  0  0  0  0  0  0  0  0  0  0
   -8.0500   16.8717  -32.1185 H   0  0  0  0  0  0  0  0  0  0  0  0
   -7.3687   18.9767  -30.9679 H   0  0  0  0  0  0  0  0  0  0  0  0
   -2.3147   22.4703  -30.2168 H   0  0  0  0  0  0  0  0  0  0  0  0
   -2.0240   25.6710  -29.7350 H   0  0  0  0  0  0  0  0  0  0  0  0
    0.4856   24.3226  -28.0329 H   0  0  0  0  0  0  0  0  0  0  0  0
    2.4033   25.5966  -27.0746 H   0  0  0  0  0  0  0  0  0  0  0  0
    1.9924   27.6259  -25.6839 H   0  0  0  0  0  0  0  0  0  0  0  0
   -0.3449   28.3948  -25.2587 H   0  0  0  0  0  0  0  0  0  0  0  0
   -2.2700   27.1351  -26.2175 H   0  0  0  0  0  0  0  0  0  0  0  0
   -5.0448   25.7973  -29.5051 H   0  0  0  0  0  0  0  0  0  0  0  0
   -6.9023   24.5112  -30.6179 H   0  0  0  0  0  0  0  0  0  0  0  0
  1  2  1  0
  2  3  1  0
  3  4  1  0
  4  5  2  0
  5  6  1  0
  6  7  2  0
  7  8  1  0
  8  9  2  0
  3 10  2  0
 10 11  1  0
 11 12  2  0
 12 13  1  0
 13 14  1  0
 14 15  1  0
 15 16  2  0
 15 17  1  0
 17 18  2  0
 18 19  1  0
 19 20  2  0
 20 21  1  0
 21 22  2  0
 13 23  2  0
 23 24  1  0
 24 25  2  0
 25  2  1  0
  9  4  1  0
 25 11  1  0
 22 17  1  0
  1 26  1  0
  1 27  1  0
  1 28  1  0
  5 29  1  0
  6 30  1  0
  7 31  1  0
  8 32  1  0
  9 33  1  0
 12 34  1  0
 14 35  1  0
 18 36  1  0
 19 37  1  0
 20 38  1  0
 21 39  1  0
 22 40  1  0
 23 41  1  0
 24 42  1  0
M  END
>  <UniqueID>  (42) 
38

>  <SMILES>  (42) 
Cn1c(-c2ccccc2)nc2cc(NC(=O)c3ccccc3)ccc21

>  <Energy>  (42) 
95.86525484656134

>  <Genealogy>  (42) 
Cn1c(-c2ccccc2)nc2cc(NC(=O)c3ccccc3)ccc21 (3D coordinates assigned)
Cn1c(-c2ccccc2)nc2cc(NC(=O)c3ccccc3)ccc21 (optimized conformer: 95.86525484656134 kcal/mol)

>  <smiles>  (42) 
Cn1c(-c2ccccc2)nc2cc(NC(=O)c3ccccc3)ccc21

>  <score_type>  (42) 
oracle

>  <origin>  (42) 
adg

>  <m_score__min__energy>  (42) 
-8.4600000000000009

>  <m_primary>  (42) 
energy

$$$$
42:0
     RDKit          3D

 50 53  0  0  0  0  0  0  0  0999 V2000
   -4.6060   24.9700  -31.1640 O   0  0  0  0  0  0  0  0  0  0  0  0
   -4.6230   23.8410  -30.6020 C   0  0  0  0  0  0  0  0  0  0  0  0
   -5.5740   22.8220  -31.0640 C   0  0  0  0  0  0  0  0  0  0  0  0
   -5.2110   21.5950  -31.5180 N   0  0  0  0  0  0  0  0  0  0  0  0
   -6.2910   20.8610  -31.8870 C   0  0  0  0  0  0  0  0  0  0  0  0
   -6.2390   19.5630  -32.3940 C   0  0  0  0  0  0  0  0  0  0  0  0
   -7.4410   18.9160  -32.7230 C   0  0  0  0  0  0  0  0  0  0  0  0
   -7.4060   17.6500  -33.2000 F   0  0  0  0  0  0  0  0  0  0  0  0
   -8.6760   19.5740  -32.5520 C   0  0  0  0  0  0  0  0  0  0  0  0
   -9.8290   18.9300  -32.8470 F   0  0  0  0  0  0  0  0  0  0  0  0
   -8.7190   20.8830  -32.0470 C   0  0  0  0  0  0  0  0  0  0  0  0
   -7.5140   21.4980  -31.7260 C   0  0  0  0  0  0  0  0  0  0  0  0
   -7.2580   23.0340  -31.0940 S   0  0  0  0  0  0  0  0  0  0  0  0
   -3.6970   23.5590  -29.5360 N   0  0  0  0  0  0  0  0  0  0  0  0
   -2.9470   22.2950  -29.5470 C   0  0  0  0  0  0  0  0  0  0  0  0
   -1.8150   22.3020  -28.5140 C   0  0  0  0  0  0  0  0  0  0  0  0
   -1.0120   23.6210  -28.6100 C   0  0  0  0  0  0  0  0  0  0  0  0
    0.1590   23.6720  -27.6890 N   0  0  0  0  0  0  0  0  0  0  0  0
    0.3060   24.9360  -26.9150 C   0  0  0  0  0  0  0  0  0  0  0  0
   -0.7660   25.1860  -25.8220 C   0  0  0  0  0  0  0  0  0  0  0  0
   -0.4960   24.5780  -24.4250 C   0  0  0  0  0  0  0  0  0  0  0  0
   -0.0820   23.1020  -24.4370 C   0  0  0  0  0  0  0  0  0  0  0  0
   -0.5580   22.3200  -25.6860 C   0  0  0  0  0  0  0  0  0  0  0  0
    0.3450   22.4140  -26.9310 C   0  0  0  0  0  0  0  0  0  0  0  0
   -1.9110   24.8790  -28.4330 C   0  0  0  0  0  0  0  0  0  0  0  0
   -3.4160   24.5750  -28.5130 C   0  0  0  0  0  0  0  0  0  0  0  0
   -4.2250   21.2560  -31.5720 H   0  0  0  0  0  0  0  0  0  0  0  0
   -5.2734   19.0549  -32.5337 H   0  0  0  0  0  0  0  0  0  0  0  0
   -9.6767   21.4063  -31.9094 H   0  0  0  0  0  0  0  0  0  0  0  0
   -3.6359   21.4691  -29.3162 H   0  0  0  0  0  0  0  0  0  0  0  0
   -2.5017   22.1677  -30.5447 H   0  0  0  0  0  0  0  0  0  0  0  0
   -2.2433   22.2100  -27.5050 H   0  0  0  0  0  0  0  0  0  0  0  0
   -1.1410   21.4561  -28.7145 H   0  0  0  0  0  0  0  0  0  0  0  0
   -0.6106   23.6339  -29.6341 H   0  0  0  0  0  0  0  0  0  0  0  0
    1.2905   24.9191  -26.4247 H   0  0  0  0  0  0  0  0  0  0  0  0
    0.1841   25.7497  -27.6451 H   0  0  0  0  0  0  0  0  0  0  0  0
   -0.8659   26.2743  -25.6972 H   0  0  0  0  0  0  0  0  0  0  0  0
   -1.6709   24.6776  -26.1861 H   0  0  0  0  0  0  0  0  0  0  0  0
    0.3104   25.1560  -23.9499 H   0  0  0  0  0  0  0  0  0  0  0  0
   -1.4474   24.6290  -23.8752 H   0  0  0  0  0  0  0  0  0  0  0  0
    1.0161   23.0512  -24.3958 H   0  0  0  0  0  0  0  0  0  0  0  0
   -0.5630   22.6314  -23.5668 H   0  0  0  0  0  0  0  0  0  0  0  0
   -0.6370   21.2587  -25.4078 H   0  0  0  0  0  0  0  0  0  0  0  0
   -1.5121   22.7831  -25.9780 H   0  0  0  0  0  0  0  0  0  0  0  0
    1.3946   22.3518  -26.6078 H   0  0  0  0  0  0  0  0  0  0  0  0
    0.0702   21.5845  -27.5992 H   0  0  0  0  0  0  0  0  0  0  0  0
   -1.6976   25.3236  -27.4497 H   0  0  0  0  0  0  0  0  0  0  0  0
   -1.6753   25.5636  -29.2611 H   0  0  0  0  0  0  0  0  0  0  0  0
   -3.7603   24.2056  -27.5358 H   0  0  0  0  0  0  0  0  0  0  0  0
   -3.9452   25.5002  -28.7851 H   0  0  0  0  0  0  0  0  0  0  0  0
  1  2  2  0
  2  3  1  0
  3  4  2  0
  4  5  1  0
  5  6  2  0
  6  7  1  0
  7  8  1  0
  7  9  2  0
  9 10  1  0
  9 11  1  0
 11 12  2  0
 12 13  1  0
  2 14  1  0
 14 15  1  0
 15 16  1  0
 16 17  1  0
 17 18  1  0
 18 19  1  0
 19 20  1  0
 20 21  1  0
 21 22  1  0
 22 23  1  0
 23 24  1  0
 17 25  1  0
 25 26  1  0
 13  3  1  0
 26 14  1  0
 12  5  1  0
 24 18  1  0
  4 27  1  0
  6 28  1  0
 11 29  1  0
 15 30  1  0
 15 31  1  0
 16 32  1  0
 16 33  1  0
 17 34  1  0
 19 35  1  0
 19 36  1  0
 20 37  1  0
 20 38  1  0
 21 39  1  0
 21 40  1  0
 22 41  1  0
 22 42  1  0
 23 43  1  0
 23 44  1  0
 24 45  1  0
 24 46  1  0
 25 47  1  0
 25 48  1  0
 26 49  1  0
 26 50  1  0
M  CHG  1   4   1
M  END
>  <UniqueID>  (43) 
39

>  <SMILES>  (43) 
O=C(c1[nH+]c2cc(F)c(F)cc2s1)N1CCC(N2CCCCCC2)CC1

>  <Energy>  (43) 
112.6032785027794

>  <Genealogy>  (43) 
O=C(c1[nH+]c2cc(F)c(F)cc2s1)N1CCC(N2CCCCCC2)CC1 (protonated)
O=C(c1[nH+]c2cc(F)c(F)cc2s1)N1CCC(N2CCCCCC2)CC1 (3D coordinates assigned)
O=C(c1[nH+]c2cc(F)c(F)cc2s1)N1CCC(N2CCCCCC2)CC1 (nonaromatic ring conformer: 112.6032785027794 kcal/mol)

>  <smiles>  (43) 
O=C(c1nc2cc(F)c(F)cc2s1)N1CCC(N2CCCCCC2)CC1

>  <score_type>  (43) 
oracle

>  <origin>  (43) 
adg

>  <m_score__min__energy>  (43) 
-6.2599999999999998

>  <m_primary>  (43) 
energy

$$$$
43:0
     RDKit          3D

 18 19  0  0  0  0  0  0  0  0999 V2000
   -7.6340   21.0410  -31.9800 C   0  0  0  0  0  0  0  0  0  0  0  0
   -6.8930   22.2350  -31.5480 N   0  0  0  0  0  0  0  0  0  0  0  0
   -7.6050   23.3750  -31.2330 C   0  0  0  0  0  0  0  0  0  0  0  0
   -6.9560   24.5490  -30.8130 C   0  0  0  0  0  0  0  0  0  0  0  0
   -5.5730   24.5110  -30.7310 C   0  0  0  0  0  0  0  0  0  0  0  0
   -4.7350   25.4960  -30.3590 N   0  0  0  0  0  0  0  0  0  0  0  0
   -3.4900   25.0400  -30.4200 N   0  0  0  0  0  0  0  0  0  0  0  0
   -3.5520   23.7540  -30.8360 C   0  0  0  0  0  0  0  0  0  0  0  0
   -2.5400   23.0230  -31.0010 O   0  0  0  0  0  0  0  0  0  0  0  0
   -4.8680   23.3890  -31.0420 C   0  0  0  0  0  0  0  0  0  0  0  0
   -5.5120   22.2200  -31.4590 C   0  0  0  0  0  0  0  0  0  0  0  0
   -4.6280   20.8790  -31.8280 S   0  0  0  0  0  0  0  0  0  0  0  0
   -7.9795   20.4843  -31.0964 H   0  0  0  0  0  0  0  0  0  0  0  0
   -8.5016   21.3463  -32.5834 H   0  0  0  0  0  0  0  0  0  0  0  0
   -6.9753   20.3991  -32.5834 H   0  0  0  0  0  0  0  0  0  0  0  0
   -8.7021   23.3644  -31.3123 H   0  0  0  0  0  0  0  0  0  0  0  0
   -7.5212   25.4583  -30.5604 H   0  0  0  0  0  0  0  0  0  0  0  0
   -4.9970   26.4640  -30.0680 H   0  0  0  0  0  0  0  0  0  0  0  0
  1  2  1  0
  2  3  1  0
  3  4  2  0
  4  5  1  0
  5  6  1  0
  6  7  1  0
  7  8  1  0
  8  9  2  0
  8 10  1  0
 10 11  1  0
 11 12  2  0
 11  2  1  0
 10  5  2  0
  1 13  1  0
  1 14  1  0
  1 15  1  0
  3 16  1  0
  4 17  1  0
  6 18  1  0
M  CHG  1   7  -1
M  END
>  <UniqueID>  (44) 
40

>  <SMILES>  (44) 
Cn1ccc2[nH][n-]c(=O)c2c1=S

>  <Energy>  (44) 
64.3554943582406

>  <Genealogy>  (44) 
Cn1ccc2[nH][n-]c(=O)c2c1=S (protonated)
Cn1ccc2[nH][n-]c(=O)c2c1=S (3D coordinates assigned)
Cn1ccc2[nH][n-]c(=O)c2c1=S (optimized conformer: 64.3554943582406 kcal/mol)

>  <smiles>  (44) 
Cn1ccc2[nH][nH]c(=O)c2c1=S

>  <score_type>  (44) 
oracle

>  <origin>  (44) 
adg

>  <m_score__min__energy>  (44) 
-6.8899999999999997

>  <m_primary>  (44) 
energy

$$$$
44:0
     RDKit          3D

 25 26  0  0  0  0  0  0  0  0999 V2000
   -5.7480   17.6310  -34.6000 Br  0  0  0  0  0  0  0  0  0  0  0  0
   -5.4200   19.2250  -33.6000 C   0  0  0  0  0  0  0  0  0  0  0  0
   -6.4870   19.9530  -33.0750 C   0  0  0  0  0  0  0  0  0  0  0  0
   -6.2510   21.1200  -32.3430 C   0  0  0  0  0  0  0  0  0  0  0  0
   -4.9340   21.5870  -32.1140 C   0  0  0  0  0  0  0  0  0  0  0  0
   -4.6830   22.8060  -31.3490 N   0  0  0  0  0  0  0  0  0  0  0  0
   -5.5840   23.9660  -31.5180 C   0  0  0  0  0  0  0  0  0  0  0  0
   -5.2510   25.1420  -30.5960 C   0  0  0  0  0  0  0  0  0  0  0  0
   -3.8590   25.2980  -30.4600 O   0  0  0  0  0  0  0  0  0  0  0  0
   -3.3610   24.2060  -29.7240 C   0  0  0  0  0  0  0  0  0  0  0  0
   -3.4530   22.9100  -30.5340 C   0  0  0  0  0  0  0  0  0  0  0  0
   -3.8690   20.8320  -32.6650 C   0  0  0  0  0  0  0  0  0  0  0  0
   -4.1130   19.6660  -33.3960 C   0  0  0  0  0  0  0  0  0  0  0  0
   -7.5186   19.6075  -33.2376 H   0  0  0  0  0  0  0  0  0  0  0  0
   -7.1031   21.6855  -31.9378 H   0  0  0  0  0  0  0  0  0  0  0  0
   -5.5145   24.3110  -32.5602 H   0  0  0  0  0  0  0  0  0  0  0  0
   -6.5971   23.6277  -31.2552 H   0  0  0  0  0  0  0  0  0  0  0  0
   -5.6764   26.0634  -31.0203 H   0  0  0  0  0  0  0  0  0  0  0  0
   -5.6797   24.9411  -29.6031 H   0  0  0  0  0  0  0  0  0  0  0  0
   -2.3084   24.3956  -29.4671 H   0  0  0  0  0  0  0  0  0  0  0  0
   -3.9661   24.0929  -28.8124 H   0  0  0  0  0  0  0  0  0  0  0  0
   -2.5846   22.8585  -31.2072 H   0  0  0  0  0  0  0  0  0  0  0  0
   -3.4735   22.0799  -29.8125 H   0  0  0  0  0  0  0  0  0  0  0  0
   -2.8328   21.1692  -32.5149 H   0  0  0  0  0  0  0  0  0  0  0  0
   -3.2706   19.0939  -33.8121 H   0  0  0  0  0  0  0  0  0  0  0  0
  1  2  1  0
  2  3  2  0
  3  4  1  0
  4  5  2  0
  5  6  1  0
  6  7  1  0
  7  8  1  0
  8  9  1  0
  9 10  1  0
 10 11  1  0
  5 12  1  0
 12 13  2  0
 13  2  1  0
 11  6  1  0
  3 14  1  0
  4 15  1  0
  7 16  1  0
  7 17  1  0
  8 18  1  0
  8 19  1  0
 10 20  1  0
 10 21  1  0
 11 22  1  0
 11 23  1  0
 12 24  1  0
 13 25  1  0
M  END
>  <UniqueID>  (45) 
41

>  <SMILES>  (45) 
Brc1ccc(N2CCOCC2)cc1

>  <Energy>  (45) 
32.17056461454479

>  <Genealogy>  (45) 
Brc1ccc(N2CCOCC2)cc1 (3D coordinates assigned)
Brc1ccc(N2CCOCC2)cc1 (nonaromatic ring conformer: 32.17056461454479 kcal/mol)

>  <smiles>  (45) 
Brc1ccc(N2CCOCC2)cc1

>  <score_type>  (45) 
oracle

>  <origin>  (45) 
adg

>  <m_score__min__energy>  (45) 
-6.4199999999999999

>  <m_primary>  (45) 
energy

$$$$
45:0
     RDKit          3D

 45 46  0  0  0  0  0  0  0  0999 V2000
   -6.5740   18.0280  -33.4830 C   0  0  0  0  0  0  0  0  0  0  0  0
   -5.9730   19.3690  -33.2070 C   0  0  0  0  0  0  0  0  0  0  0  0
   -4.6000   19.5780  -33.3680 C   0  0  0  0  0  0  0  0  0  0  0  0
   -4.0780   20.8410  -33.0760 C   0  0  0  0  0  0  0  0  0  0  0  0
   -2.6150   21.1110  -33.2330 C   0  0  0  0  0  0  0  0  0  0  0  0
   -4.9040   21.8250  -32.6340 N   0  0  0  0  0  0  0  0  0  0  0  0
   -6.2400   21.6100  -32.4700 C   0  0  0  0  0  0  0  0  0  0  0  0
   -7.0940   22.6720  -32.0000 N   0  0  0  0  0  0  0  0  0  0  0  0
   -8.4510   22.3550  -31.5410 C   0  0  0  0  0  0  0  0  0  0  0  0
   -6.6010   24.0570  -31.9380 C   0  0  0  0  0  0  0  0  0  0  0  0
   -6.2690   24.4690  -30.4970 C   0  0  0  0  0  0  0  0  0  0  0  0
   -5.1650   25.5300  -30.4400 C   0  0  0  0  0  0  0  0  0  0  0  0
   -3.8720   24.9250  -30.8120 N   0  0  0  0  0  0  0  0  0  0  0  0
   -3.4470   23.8770  -29.8720 C   0  0  0  0  0  0  0  0  0  0  0  0
   -2.9190   24.4820  -28.5970 C   0  0  0  0  0  0  0  0  0  0  0  0
   -1.6450   25.0750  -28.5620 C   0  0  0  0  0  0  0  0  0  0  0  0
   -1.1800   25.6710  -27.3870 C   0  0  0  0  0  0  0  0  0  0  0  0
   -1.9820   25.6840  -26.2410 C   0  0  0  0  0  0  0  0  0  0  0  0
   -3.2510   25.1010  -26.2720 C   0  0  0  0  0  0  0  0  0  0  0  0
   -3.7220   24.5040  -27.4450 C   0  0  0  0  0  0  0  0  0  0  0  0
   -6.7580   20.3840  -32.7580 N   0  0  0  0  0  0  0  0  0  0  0  0
   -6.7997   17.5245  -32.5314 H   0  0  0  0  0  0  0  0  0  0  0  0
   -7.5018   18.1538  -34.0603 H   0  0  0  0  0  0  0  0  0  0  0  0
   -5.8626   17.4192  -34.0603 H   0  0  0  0  0  0  0  0  0  0  0  0
   -3.9450   18.7661  -33.7169 H   0  0  0  0  0  0  0  0  0  0  0  0
   -2.1494   21.1969  -32.2401 H   0  0  0  0  0  0  0  0  0  0  0  0
   -2.1469   20.2841  -33.7872 H   0  0  0  0  0  0  0  0  0  0  0  0
   -2.4729   22.0505  -33.7872 H   0  0  0  0  0  0  0  0  0  0  0  0
   -8.4742   22.3496  -30.4413 H   0  0  0  0  0  0  0  0  0  0  0  0
   -9.1524   23.1135  -31.9188 H   0  0  0  0  0  0  0  0  0  0  0  0
   -8.7438   21.3643  -31.9188 H   0  0  0  0  0  0  0  0  0  0  0  0
   -5.6927   24.1415  -32.5527 H   0  0  0  0  0  0  0  0  0  0  0  0
   -7.3909   24.7230  -32.3154 H   0  0  0  0  0  0  0  0  0  0  0  0
   -7.1763   24.8758  -30.0265 H   0  0  0  0  0  0  0  0  0  0  0  0
   -5.9086   23.5766  -29.9643 H   0  0  0  0  0  0  0  0  0  0  0  0
   -5.4032   26.3431  -31.1415 H   0  0  0  0  0  0  0  0  0  0  0  0
   -5.0982   25.9307  -29.4177 H   0  0  0  0  0  0  0  0  0  0  0  0
   -3.1420   25.6760  -30.7860 H   0  0  0  0  0  0  0  0  0  0  0  0
   -4.3076   23.2337  -29.6363 H   0  0  0  0  0  0  0  0  0  0  0  0
   -2.6449   23.2880  -30.3407 H   0  0  0  0  0  0  0  0  0  0  0  0
   -1.0125   25.0698  -29.4620 H   0  0  0  0  0  0  0  0  0  0  0  0
   -0.1811   26.1310  -27.3630 H   0  0  0  0  0  0  0  0  0  0  0  0
   -1.6138   26.1528  -25.3165 H   0  0  0  0  0  0  0  0  0  0  0  0
   -3.8816   25.1117  -25.3707 H   0  0  0  0  0  0  0  0  0  0  0  0
   -4.7239   24.0504  -27.4658 H   0  0  0  0  0  0  0  0  0  0  0  0
  1  2  1  0
  2  3  2  0
  3  4  1  0
  4  5  1  0
  4  6  2  0
  6  7  1  0
  7  8  1  0
  8  9  1  0
  8 10  1  0
 10 11  1  0
 11 12  1  0
 12 13  1  0
 13 14  1  0
 14 15  1  0
 15 16  2  0
 16 17  1  0
 17 18  2  0
 18 19  1  0
 19 20  2  0
  7 21  2  0
 21  2  1  0
 20 15  1  0
  1 22  1  0
  1 23  1  0
  1 24  1  0
  3 25  1  0
  5 26  1  0
  5 27  1  0
  5 28  1  0
  9 29  1  0
  9 30  1  0
  9 31  1  0
 10 32  1  0
 10 33  1  0
 11 34  1  0
 11 35  1  0
 12 36  1  0
 12 37  1  0
 13 38  1  0
 14 39  1  0
 14 40  1  0
 16 41  1  0
 17 42  1  0
 18 43  1  0
 19 44  1  0
 20 45  1  0
M  END
>  <UniqueID>  (46) 
42

>  <SMILES>  (46) 
Cc1cc(C)nc(N(C)CCCNCc2ccccc2)n1

>  <Energy>  (46) 
36.292139038494824

>  <Genealogy>  (46) 
Cc1cc(C)nc(N(C)CCCNCc2ccccc2)n1 (3D coordinates assigned)
Cc1cc(C)nc(N(C)CCCNCc2ccccc2)n1 (optimized conformer: 36.292139038494824 kcal/mol)

>  <smiles>  (46) 
Cc1cc(C)nc(N(C)CCCNCc2ccccc2)n1

>  <score_type>  (46) 
oracle

>  <origin>  (46) 
adg

>  <m_score__min__energy>  (46) 
-7.5999999999999996

>  <m_primary>  (46) 
energy

$$$$
46:0
     RDKit          3D

 31 33  0  0  0  0  0  0  0  0999 V2000
   -9.0620   20.7030  -32.1120 C   0  0  0  0  0  0  0  0  0  0  0  0
   -7.7890   21.4400  -31.7740 C   0  0  0  0  0  0  0  0  0  0  0  0
   -7.8730   22.7140  -31.2940 N   0  0  0  0  0  0  0  0  0  0  0  0
   -6.7590   23.4230  -30.9680 C   0  0  0  0  0  0  0  0  0  0  0  0
   -6.8680   24.7310  -30.4690 C   0  0  0  0  0  0  0  0  0  0  0  0
   -5.7210   25.4540  -30.1330 C   0  0  0  0  0  0  0  0  0  0  0  0
   -4.4580   24.8790  -30.2930 C   0  0  0  0  0  0  0  0  0  0  0  0
   -4.3360   23.5790  -30.7910 C   0  0  0  0  0  0  0  0  0  0  0  0
   -5.4870   22.8410  -31.1310 C   0  0  0  0  0  0  0  0  0  0  0  0
   -5.4130   21.5350  -31.6390 C   0  0  0  0  0  0  0  0  0  0  0  0
   -4.2860   20.9890  -31.8060 O   0  0  0  0  0  0  0  0  0  0  0  0
   -6.5590   20.8540  -31.9570 N   0  0  0  0  0  0  0  0  0  0  0  0
   -6.4570   19.5190  -32.4880 C   0  0  0  0  0  0  0  0  0  0  0  0
   -6.5950   18.4120  -31.6370 C   0  0  0  0  0  0  0  0  0  0  0  0
   -6.4940   17.1150  -32.1520 C   0  0  0  0  0  0  0  0  0  0  0  0
   -6.2520   16.9180  -33.5160 C   0  0  0  0  0  0  0  0  0  0  0  0
   -6.1150   15.1470  -34.2160 Br  0  0  0  0  0  0  0  0  0  0  0  0
   -6.1080   18.0200  -34.3660 C   0  0  0  0  0  0  0  0  0  0  0  0
   -6.2090   19.3170  -33.8540 C   0  0  0  0  0  0  0  0  0  0  0  0
   -9.5723   20.4076  -31.1834 H   0  0  0  0  0  0  0  0  0  0  0  0
   -9.7208   21.3594  -32.6995 H   0  0  0  0  0  0  0  0  0  0  0  0
   -8.8208   19.8049  -32.6995 H   0  0  0  0  0  0  0  0  0  0  0  0
   -8.8130   23.1560  -31.1710 H   0  0  0  0  0  0  0  0  0  0  0  0
   -7.8605   25.1881  -30.3422 H   0  0  0  0  0  0  0  0  0  0  0  0
   -5.8125   26.4780  -29.7417 H   0  0  0  0  0  0  0  0  0  0  0  0
   -3.5571   25.4510  -30.0263 H   0  0  0  0  0  0  0  0  0  0  0  0
   -3.3394   23.1310  -30.9178 H   0  0  0  0  0  0  0  0  0  0  0  0
   -6.7828   18.5640  -30.5639 H   0  0  0  0  0  0  0  0  0  0  0  0
   -6.6050   16.2486  -31.4834 H   0  0  0  0  0  0  0  0  0  0  0  0
   -5.9152   17.8658  -35.4379 H   0  0  0  0  0  0  0  0  0  0  0  0
   -6.0937   20.1816  -34.5241 H   0  0  0  0  0  0  0  0  0  0  0  0
  1  2  1  0
  2  3  2  0
  3  4  1  0
  4  5  2  0
  5  6  1  0
  6  7  2  0
  7  8  1  0
  8  9  2  0
  9 10  1  0
 10 11  2  0
 10 12  1  0
 12 13  1  0
 13 14  2  0
 14 15  1  0
 15 16  2  0
 16 17  1  0
 16 18  1  0
 18 19  2  0
 12  2  1  0
 19 13  1  0
  9  4  1  0
  1 20  1  0
  1 21  1  0
  1 22  1  0
  3 23  1  0
  5 24  1  0
  6 25  1  0
  7 26  1  0
  8 27  1  0
 14 28  1  0
 15 29  1  0
 18 30  1  0
 19 31  1  0
M  CHG  1   3   1
M  END
>  <UniqueID>  (47) 
43

>  <SMILES>  (47) 
Cc1[nH+]c2ccccc2c(=O)n1-c1ccc(Br)cc1

>  <Energy>  (47) 
48.01521802009795

>  <Genealogy>  (47) 
Cc1[nH+]c2ccccc2c(=O)n1-c1ccc(Br)cc1 (protonated)
Cc1[nH+]c2ccccc2c(=O)n1-c1ccc(Br)cc1 (3D coordinates assigned)
Cc1[nH+]c2ccccc2c(=O)n1-c1ccc(Br)cc1 (optimized conformer: 48.01521802009795 kcal/mol)

>  <smiles>  (47) 
Cc1nc2ccccc2c(=O)n1-c1ccc(Br)cc1

>  <score_type>  (47) 
oracle

>  <origin>  (47) 
adg

>  <m_score__min__energy>  (47) 
-7.1100000000000003

>  <m_primary>  (47) 
energy

$$$$
47:0
     RDKit          3D

 48 51  0  0  0  0  0  0  0  0999 V2000
   -2.0540   24.8230  -28.1970 C   0  0  0  0  0  0  0  0  0  0  0  0
   -2.7600   25.2970  -29.3390 O   0  0  0  0  0  0  0  0  0  0  0  0
   -3.8050   24.6050  -29.9710 C   0  0  0  0  0  0  0  0  0  0  0  0
   -5.0390   25.2500  -30.1090 C   0  0  0  0  0  0  0  0  0  0  0  0
   -6.1120   24.6070  -30.7300 C   0  0  0  0  0  0  0  0  0  0  0  0
   -5.9580   23.3070  -31.2210 C   0  0  0  0  0  0  0  0  0  0  0  0
   -6.9940   22.6790  -31.8200 N   0  0  0  0  0  0  0  0  0  0  0  0
   -6.8730   21.4410  -32.2980 N   0  0  0  0  0  0  0  0  0  0  0  0
   -5.7200   20.7590  -32.2080 N   0  0  0  0  0  0  0  0  0  0  0  0
   -5.6480   19.3870  -32.7630 C   0  0  0  0  0  0  0  0  0  0  0  0
   -6.1170   19.3640  -34.2240 C   0  0  0  0  0  0  0  0  0  0  0  0
   -5.9650   17.9480  -34.7940 C   0  0  0  0  0  0  0  0  0  0  0  0
   -6.5570   16.9000  -33.9280 N   0  0  0  0  0  0  0  0  0  0  0  0
   -5.7340   15.6810  -33.7770 C   0  0  0  0  0  0  0  0  0  0  0  0
   -4.2550   15.9470  -33.9100 C   0  0  0  0  0  0  0  0  0  0  0  0
   -3.5060   15.3380  -34.9290 C   0  0  0  0  0  0  0  0  0  0  0  0
   -2.1350   15.5890  -35.0150 C   0  0  0  0  0  0  0  0  0  0  0  0
   -1.5260   16.4430  -34.0940 C   0  0  0  0  0  0  0  0  0  0  0  0
   -2.3030   17.0400  -33.1000 C   0  0  0  0  0  0  0  0  0  0  0  0
   -3.6360   16.7840  -33.0310 N   0  0  0  0  0  0  0  0  0  0  0  0
   -7.2450   17.3540  -32.6980 C   0  0  0  0  0  0  0  0  0  0  0  0
   -6.4370   18.3880  -31.8850 C   0  0  0  0  0  0  0  0  0  0  0  0
   -4.6310   21.3400  -31.6050 C   0  0  0  0  0  0  0  0  0  0  0  0
   -3.5400   20.7120  -31.5060 O   0  0  0  0  0  0  0  0  0  0  0  0
   -4.7310   22.6420  -31.0950 C   0  0  0  0  0  0  0  0  0  0  0  0
   -3.6510   23.2950  -30.4670 C   0  0  0  0  0  0  0  0  0  0  0  0
   -2.5628   25.1646  -27.2835 H   0  0  0  0  0  0  0  0  0  0  0  0
   -2.0275   23.7234  -28.2126 H   0  0  0  0  0  0  0  0  0  0  0  0
   -1.0263   25.2148  -28.2126 H   0  0  0  0  0  0  0  0  0  0  0  0
   -5.1651   26.2730  -29.7248 H   0  0  0  0  0  0  0  0  0  0  0  0
   -7.0779   25.1231  -30.8328 H   0  0  0  0  0  0  0  0  0  0  0  0
   -7.7130   21.0080  -32.7410 H   0  0  0  0  0  0  0  0  0  0  0  0
   -4.5963   19.0647  -32.7512 H   0  0  0  0  0  0  0  0  0  0  0  0
   -7.1734   19.6666  -34.2736 H   0  0  0  0  0  0  0  0  0  0  0  0
   -5.5046   20.0617  -34.8140 H   0  0  0  0  0  0  0  0  0  0  0  0
   -6.4612   17.9115  -35.7750 H   0  0  0  0  0  0  0  0  0  0  0  0
   -4.8873   17.7401  -34.8664 H   0  0  0  0  0  0  0  0  0  0  0  0
   -5.9245   15.2506  -32.7828 H   0  0  0  0  0  0  0  0  0  0  0  0
   -6.0177   14.9907  -34.5851 H   0  0  0  0  0  0  0  0  0  0  0  0
   -3.9944   14.6693  -35.6531 H   0  0  0  0  0  0  0  0  0  0  0  0
   -1.5363   15.1148  -35.8067 H   0  0  0  0  0  0  0  0  0  0  0  0
   -0.4459   16.6432  -34.1509 H   0  0  0  0  0  0  0  0  0  0  0  0
   -1.8357   17.7188  -32.3713 H   0  0  0  0  0  0  0  0  0  0  0  0
   -8.2046   17.8093  -32.9840 H   0  0  0  0  0  0  0  0  0  0  0  0
   -7.3766   16.4702  -32.0565 H   0  0  0  0  0  0  0  0  0  0  0  0
   -7.1357   18.9566  -31.2537 H   0  0  0  0  0  0  0  0  0  0  0  0
   -5.6992   17.8269  -31.2927 H   0  0  0  0  0  0  0  0  0  0  0  0
   -2.6845   22.7801  -30.3637 H   0  0  0  0  0  0  0  0  0  0  0  0
  1  2  1  0
  2  3  1  0
  3  4  2  0
  4  5  1  0
  5  6  2  0
  6  7  1  0
  7  8  2  0
  8  9  1  0
  9 10  1  0
 10 11  1  0
 11 12  1  0
 12 13  1  0
 13 14  1  0
 14 15  1  0
 15 16  2  0
 16 17  1  0
 17 18  2  0
 18 19  1  0
 19 20  2  0
 13 21  1  0
 21 22  1  0
  9 23  1  0
 23 24  2  0
 23 25  1  0
 25 26  2  0
 26  3  1  0
 25  6  1  0
 22 10  1  0
 20 15  1  0
  1 27  1  0
  1 28  1  0
  1 29  1  0
  4 30  1  0
  5 31  1  0
  8 32  1  0
 10 33  1  0
 11 34  1  0
 11 35  1  0
 12 36  1  0
 12 37  1  0
 14 38  1  0
 14 39  1  0
 16 40  1  0
 17 41  1  0
 18 42  1  0
 19 43  1  0
 21 44  1  0
 21 45  1  0
 22 46  1  0
 22 47  1  0
 26 48  1  0
M  CHG  1   8   1
M  END
>  <UniqueID>  (48) 
44

>  <SMILES>  (48) 
COc1ccc2n[nH+]n(C3CCN(Cc4ccccn4)CC3)c(=O)c2c1

>  <Energy>  (48) 
70.2237538281029

>  <Genealogy>  (48) 
COc1ccc2n[nH+]n(C3CCN(Cc4ccccn4)CC3)c(=O)c2c1 (protonated)
COc1ccc2n[nH+]n(C3CCN(Cc4ccccn4)CC3)c(=O)c2c1 (3D coordinates assigned)
COc1ccc2n[nH+]n(C3CCN(Cc4ccccn4)CC3)c(=O)c2c1 (nonaromatic ring conformer: 70.2237538281029 kcal/mol)

>  <smiles>  (48) 
COc1ccc2nnn(C3CCN(Cc4ccccn4)CC3)c(=O)c2c1

>  <score_type>  (48) 
oracle

>  <origin>  (48) 
adg

>  <m_score__min__energy>  (48) 
-8.5700000000000003

>  <m_primary>  (48) 
energy

$$$$
