0:0
     RDKit          3D

 57 60  0  0  0  0  0  0  0  0999 V2000
   -0.3040   20.5050  -31.4100 C   0  0  0  0  0  0  0  0  0  0  0  0
   -1.0200   21.1070  -30.2360 C   0  0  0  0  0  0  0  0  0  0  0  0
   -1.2360   22.4890  -30.1830 C   0  0  0  0  0  0  0  0  0  0  0  0
   -1.9130   23.0450  -29.0900 C   0  0  0  0  0  0  0  0  0  0  0  0
   -2.1340   24.5320  -29.0000 C   0  0  0  0  0  0  0  0  0  0  0  0
   -3.1110   24.9590  -29.9510 O   0  0  0  0  0  0  0  0  0  0  0  0
   -4.3180   24.2940  -30.2280 C   0  0  0  0  0  0  0  0  0  0  0  0
   -5.4760   24.7270  -29.5750 C   0  0  0  0  0  0  0  0  0  0  0  0
   -6.7020   24.1060  -29.8180 C   0  0  0  0  0  0  0  0  0  0  0  0
   -6.7880   23.0330  -30.7170 C   0  0  0  0  0  0  0  0  0  0  0  0
   -5.6370   22.6060  -31.3970 C   0  0  0  0  0  0  0  0  0  0  0  0
   -4.4030   23.2190  -31.1300 C   0  0  0  0  0  0  0  0  0  0  0  0
   -5.6880   21.4030  -32.2950 C   0  0  0  0  0  0  0  0  0  0  0  0
   -7.0360   21.1890  -32.8700 N   0  0  0  0  0  0  0  0  0  0  0  0
   -7.0200   20.0590  -33.8410 C   0  0  0  0  0  0  0  0  0  0  0  0
   -6.3660   18.7890  -33.3200 C   0  0  0  0  0  0  0  0  0  0  0  0
   -5.3770   18.1460  -34.0870 C   0  0  0  0  0  0  0  0  0  0  0  0
   -4.7590   16.9840  -33.6160 C   0  0  0  0  0  0  0  0  0  0  0  0
   -5.1240   16.4490  -32.3800 C   0  0  0  0  0  0  0  0  0  0  0  0
   -6.1100   17.0730  -31.6130 C   0  0  0  0  0  0  0  0  0  0  0  0
   -6.7320   18.2370  -32.0800 C   0  0  0  0  0  0  0  0  0  0  0  0
   -8.0710   21.1030  -31.8030 C   0  0  2  0  0  0  0  0  0  0  0  0
   -9.4860   20.8400  -32.3650 C   0  0  0  0  0  0  0  0  0  0  0  0
   -8.1340   22.4410  -31.0280 C   0  0  0  0  0  0  0  0  0  0  0  0
   -2.3980   22.2000  -28.0850 C   0  0  0  0  0  0  0  0  0  0  0  0
   -2.1990   20.8170  -28.1840 C   0  0  0  0  0  0  0  0  0  0  0  0
   -2.6840   19.9100  -27.0930 C   0  0  0  0  0  0  0  0  0  0  0  0
   -1.5090   20.3050  -29.2450 N   0  0  0  0  0  0  0  0  0  0  0  0
    0.4917   19.8360  -31.0505 H   0  0  0  0  0  0  0  0  0  0  0  0
   -1.0175   19.9315  -32.0199 H   0  0  0  0  0  0  0  0  0  0  0  0
    0.1385   21.3064  -32.0199 H   0  0  0  0  0  0  0  0  0  0  0  0
   -0.8755   23.1358  -30.9964 H   0  0  0  0  0  0  0  0  0  0  0  0
   -2.4823   24.7840  -27.9875 H   0  0  0  0  0  0  0  0  0  0  0  0
   -1.1844   25.0430  -29.2170 H   0  0  0  0  0  0  0  0  0  0  0  0
   -5.4203   25.5642  -28.8637 H   0  0  0  0  0  0  0  0  0  0  0  0
   -7.6062   24.4602  -29.3014 H   0  0  0  0  0  0  0  0  0  0  0  0
   -3.4940   22.8550  -31.6311 H   0  0  0  0  0  0  0  0  0  0  0  0
   -4.9709   21.5443  -33.1171 H   0  0  0  0  0  0  0  0  0  0  0  0
   -5.4356   20.5198  -31.6899 H   0  0  0  0  0  0  0  0  0  0  0  0
   -8.0599   19.8238  -34.1116 H   0  0  0  0  0  0  0  0  0  0  0  0
   -6.4171   20.3921  -34.6987 H   0  0  0  0  0  0  0  0  0  0  0  0
   -5.0881   18.5606  -35.0641 H   0  0  0  0  0  0  0  0  0  0  0  0
   -3.9838   16.4906  -34.2206 H   0  0  0  0  0  0  0  0  0  0  0  0
   -4.6351   15.5358  -32.0099 H   0  0  0  0  0  0  0  0  0  0  0  0
   -6.3986   16.6491  -30.6399 H   0  0  0  0  0  0  0  0  0  0  0  0
   -7.5111   18.7221  -31.4736 H   0  0  0  0  0  0  0  0  0  0  0  0
   -7.7790   20.2629  -31.1557 H   0  0  0  0  0  0  0  0  0  0  0  0
  -10.1927   20.7087  -31.5323 H   0  0  0  0  0  0  0  0  0  0  0  0
   -9.8005   21.6951  -32.9814 H   0  0  0  0  0  0  0  0  0  0  0  0
   -9.4722   19.9290  -32.9814 H   0  0  0  0  0  0  0  0  0  0  0  0
   -8.6984   23.1651  -31.6339 H   0  0  0  0  0  0  0  0  0  0  0  0
   -8.6173   22.2268  -30.0633 H   0  0  0  0  0  0  0  0  0  0  0  0
   -2.9333   22.6204  -27.2209 H   0  0  0  0  0  0  0  0  0  0  0  0
   -2.4468   20.3537  -26.1148 H   0  0  0  0  0  0  0  0  0  0  0  0
   -3.7725   19.7790  -27.1819 H   0  0  0  0  0  0  0  0  0  0  0  0
   -2.1885   18.9320  -27.1819 H   0  0  0  0  0  0  0  0  0  0  0  0
   -1.3520   19.2730  -29.3010 H   0  0  0  0  0  0  0  0  0  0  0  0
  1  2  1  0
  2  3  2  0
  3  4  1  0
  4  5  1  0
  5  6  1  0
  6  7  1  0
  7  8  2  0
  8  9  1  0
  9 10  2  0
 10 11  1  0
 11 12  2  0
 11 13  1  0
 13 14  1  0
 14 15  1  0
 15 16  1  0
 16 17  2  0
 17 18  1  0
 18 19  2  0
 19 20  1  0
 20 21  2  0
 14 22  1  0
 22 23  1  0
 22 24  1  0
  4 25  2  0
 25 26  1  0
 26 27  1  0
 26 28  2  0
 28  2  1  0
 12  7  1  0
 21 16  1  0
 24 10  1  0
  1 29  1  0
  1 30  1  0
  1 31  1  0
  3 32  1  0
  5 33  1  0
  5 34  1  0
  8 35  1  0
  9 36  1  0
 12 37  1  0
 13 38  1  0
 13 39  1  0
 15 40  1  0
 15 41  1  0
 17 42  1  0
 18 43  1  0
 19 44  1  0
 20 45  1  0
 21 46  1  0
 22 47  1  1
 23 48  1  0
 23 49  1  0
 23 50  1  0
 24 51  1  0
 24 52  1  0
 25 53  1  0
 27 54  1  0
 27 55  1  0
 27 56  1  0
 28 57  1  0
M  CHG  1  28   1
M  END
>  <UniqueID>  (1) 
1

>  <SMILES>  (1) 
Cc1cc(COc2ccc3c(c2)CN(Cc2ccccc2)[C@H](C)C3)cc(C)[nH+]1

>  <Energy>  (1) 
67.93032475392035

>  <Genealogy>  (1) 
Cc1cc(COc2ccc3c(c2)CN(Cc2ccccc2)C(C)C3)cc(C)[nH+]1 (protonated)
Cc1cc(COc2ccc3c(c2)CN(Cc2ccccc2)[C@H](C)C3)cc(C)[nH+]1 (chirality)
Cc1cc(COc2ccc3c(c2)CN(Cc2ccccc2)[C@H](C)C3)cc(C)[nH+]1 (3D coordinates assigned)
Cc1cc(COc2ccc3c(c2)CN(Cc2ccccc2)[C@H](C)C3)cc(C)[nH+]1 (nonaromatic ring conformer: 67.93032475392035 kcal/mol)

>  <smiles>  (1) 
Cc1cc(COc2ccc3c(c2)CN(Cc2ccccc2)C(C)C3)cc(C)n1

>  <score_type>  (1) 
oracle

>  <origin>  (1) 
adg

>  <m_score__min__energy>  (1) 
-9.8100000000000005

>  <m_primary>  (1) 
energy

$$$$
1:0
     RDKit          3D

 25 26  0  0  0  0  0  0  0  0999 V2000
   -8.2642   23.6697  -32.6500 H   0  0  0  0  0  0  0  0  0  0  0  0
   -7.7330   23.0640  -31.9010 C   0  0  0  0  0  0  0  0  0  0  0  0
   -8.2430   21.9070  -31.5810 N   0  0  0  0  0  0  0  0  0  0  0  0
   -7.8650   20.6160  -32.0850 C   0  0  0  0  0  0  0  0  0  0  0  0
   -8.5030   19.4770  -31.5770 C   0  0  0  0  0  0  0  0  0  0  0  0
   -9.2954   19.5838  -30.8216 H   0  0  0  0  0  0  0  0  0  0  0  0
   -8.1360   18.2040  -32.0270 C   0  0  0  0  0  0  0  0  0  0  0  0
   -8.6523   17.3139  -31.6382 H   0  0  0  0  0  0  0  0  0  0  0  0
   -7.1140   18.0620  -32.9700 C   0  0  0  0  0  0  0  0  0  0  0  0
   -6.8343   17.0612  -33.3308 H   0  0  0  0  0  0  0  0  0  0  0  0
   -6.4470   19.1910  -33.4550 C   0  0  0  0  0  0  0  0  0  0  0  0
   -5.4190   19.0480  -34.3780 O   0  0  0  0  0  0  0  0  0  0  0  0
   -6.8130   20.4650  -33.0060 C   0  0  0  0  0  0  0  0  0  0  0  0
   -6.2759   21.3513  -33.3748 H   0  0  0  0  0  0  0  0  0  0  0  0
   -6.4880   23.6160  -31.3240 C   0  0  0  0  0  0  0  0  0  0  0  0
   -6.4940   24.9180  -30.8010 C   0  0  0  0  0  0  0  0  0  0  0  0
   -7.4233   25.5065  -30.8091 H   0  0  0  0  0  0  0  0  0  0  0  0
   -5.3260   25.4710  -30.2700 C   0  0  0  0  0  0  0  0  0  0  0  0
   -5.3421   26.4873  -29.8493 H   0  0  0  0  0  0  0  0  0  0  0  0
   -4.1370   24.7360  -30.2720 C   0  0  0  0  0  0  0  0  0  0  0  0
   -2.9820   25.2950  -29.7360 O   0  0  0  0  0  0  0  0  0  0  0  0
   -4.1130   23.4460  -30.8180 C   0  0  0  0  0  0  0  0  0  0  0  0
   -2.6250   22.5130  -30.8440 Cl  0  0  0  0  0  0  0  0  0  0  0  0
   -5.2820   22.8930  -31.3530 C   0  0  0  0  0  0  0  0  0  0  0  0
   -5.2575   21.8876  -31.7985 H   0  0  0  0  0  0  0  0  0  0  0  0
  1  2  1  0
  2  3  2  0
  3  4  1  0
  4  5  2  0
  5  6  1  0
  5  7  1  0
  7  8  1  0
  7  9  2  0
  9 10  1  0
  9 11  1  0
 11 12  1  0
 11 13  2  0
 13 14  1  0
  2 15  1  0
 15 16  2  0
 16 17  1  0
 16 18  1  0
 18 19  1  0
 18 20  2  0
 20 21  1  0
 20 22  1  0
 22 23  1  0
 22 24  2  0
 24 25  1  0
 13  4  1  0
 24 15  1  0
M  CHG  2  12  -1  21  -1
M  END
>  <UniqueID>  (2) 
2

>  <SMILES>  (2) 
[O-]c1cccc(/N=C\c2ccc([O-])c(Cl)c2)c1

>  <Energy>  (2) 
37.30463791385329

>  <Genealogy>  (2) 
[O-]c1cccc(N=Cc2ccc([O-])c(Cl)c2)c1 (protonated)
[O-]c1cccc(/N=C\c2ccc([O-])c(Cl)c2)c1 (cis-trans isomerization)
[O-]c1cccc(/N=C\c2ccc([O-])c(Cl)c2)c1 (3D coordinates assigned)
[O-]c1cccc(/N=C\c2ccc([O-])c(Cl)c2)c1 (optimized conformer: 37.30463791385329 kcal/mol)

>  <smiles>  (2) 
Oc1cccc(N=Cc2ccc(O)c(Cl)c2)c1

>  <score_type>  (2) 
oracle

>  <origin>  (2) 
adg

>  <m_score__min__energy>  (2) 
-10.380000000000001

>  <m_primary>  (2) 
energy

$$$$
2:0
     RDKit          3D

 37 40  0  0  0  0  0  0  0  0999 V2000
   -4.6130   17.1620  -34.9010 C   0  0  0  0  0  0  0  0  0  0  0  0
   -3.5930   17.4620  -33.9940 C   0  0  0  0  0  0  0  0  0  0  0  0
   -3.6340   18.6540  -33.2630 C   0  0  0  0  0  0  0  0  0  0  0  0
   -4.7030   19.5490  -33.4290 C   0  0  0  0  0  0  0  0  0  0  0  0
   -4.7390   20.8090  -32.6490 C   0  0  0  0  0  0  0  0  0  0  0  0
   -3.6180   21.5840  -32.6040 N   0  0  0  0  0  0  0  0  0  0  0  0
   -3.5890   22.7390  -31.9420 N   0  0  0  0  0  0  0  0  0  0  0  0
   -4.6670   23.2030  -31.2650 C   0  0  0  0  0  0  0  0  0  0  0  0
   -4.5840   24.4180  -30.5750 C   0  0  0  0  0  0  0  0  0  0  0  0
   -5.6810   24.8900  -29.8530 C   0  0  0  0  0  0  0  0  0  0  0  0
   -6.8610   24.1470  -29.8090 C   0  0  0  0  0  0  0  0  0  0  0  0
   -6.9550   22.9320  -30.4950 C   0  0  0  0  0  0  0  0  0  0  0  0
   -5.8610   22.4480  -31.2450 C   0  0  0  0  0  0  0  0  0  0  0  0
   -5.9010   21.2270  -31.9560 C   0  0  0  0  0  0  0  0  0  0  0  0
   -7.1160   20.3740  -31.9490 C   0  0  0  0  0  0  0  0  0  0  0  0
   -7.0290   19.0260  -31.5650 C   0  0  0  0  0  0  0  0  0  0  0  0
   -8.1670   18.2160  -31.5860 C   0  0  0  0  0  0  0  0  0  0  0  0
   -9.3960   18.7450  -31.9890 C   0  0  0  0  0  0  0  0  0  0  0  0
   -9.4890   20.0850  -32.3740 C   0  0  0  0  0  0  0  0  0  0  0  0
   -8.3530   20.8990  -32.3560 C   0  0  0  0  0  0  0  0  0  0  0  0
   -5.7160   19.2470  -34.3560 C   0  0  0  0  0  0  0  0  0  0  0  0
   -5.6710   18.0550  -35.0840 C   0  0  0  0  0  0  0  0  0  0  0  0
   -4.5825   16.2218  -35.4712 H   0  0  0  0  0  0  0  0  0  0  0  0
   -2.7573   16.7604  -33.8548 H   0  0  0  0  0  0  0  0  0  0  0  0
   -2.8257   18.8910  -32.5555 H   0  0  0  0  0  0  0  0  0  0  0  0
   -2.7570   21.2840  -33.1140 H   0  0  0  0  0  0  0  0  0  0  0  0
   -3.6522   25.0020  -30.6019 H   0  0  0  0  0  0  0  0  0  0  0  0
   -5.6152   25.8489  -29.3180 H   0  0  0  0  0  0  0  0  0  0  0  0
   -7.7210   24.5184  -29.2323 H   0  0  0  0  0  0  0  0  0  0  0  0
   -7.8871   22.3497  -30.4500 H   0  0  0  0  0  0  0  0  0  0  0  0
   -6.0629   18.6071  -31.2470 H   0  0  0  0  0  0  0  0  0  0  0  0
   -8.0955   17.1604  -31.2849 H   0  0  0  0  0  0  0  0  0  0  0  0
  -10.2912   18.1059  -32.0032 H   0  0  0  0  0  0  0  0  0  0  0  0
  -10.4571   20.4996  -32.6915 H   0  0  0  0  0  0  0  0  0  0  0  0
   -8.4282   21.9531  -32.6613 H   0  0  0  0  0  0  0  0  0  0  0  0
   -6.5469   19.9515  -34.5088 H   0  0  0  0  0  0  0  0  0  0  0  0
   -6.4702   17.8197  -35.8023 H   0  0  0  0  0  0  0  0  0  0  0  0
  1  2  2  0
  2  3  1  0
  3  4  2  0
  4  5  1  0
  5  6  2  0
  6  7  1  0
  7  8  2  0
  8  9  1  0
  9 10  2  0
 10 11  1  0
 11 12  2  0
 12 13  1  0
 13 14  2  0
 14 15  1  0
 15 16  2  0
 16 17  1  0
 17 18  2  0
 18 19  1  0
 19 20  2  0
  4 21  1  0
 21 22  2  0
 22  1  1  0
 14  5  1  0
 20 15  1  0
 13  8  1  0
  1 23  1  0
  2 24  1  0
  3 25  1  0
  6 26  1  0
  9 27  1  0
 10 28  1  0
 11 29  1  0
 12 30  1  0
 16 31  1  0
 17 32  1  0
 18 33  1  0
 19 34  1  0
 20 35  1  0
 21 36  1  0
 22 37  1  0
M  CHG  1   6   1
M  END
>  <UniqueID>  (3) 
3

>  <SMILES>  (3) 
c1ccc(-c2[nH+]nc3ccccc3c2-c2ccccc2)cc1

>  <Energy>  (3) 
60.289966460073465

>  <Genealogy>  (3) 
c1ccc(-c2[nH+]nc3ccccc3c2-c2ccccc2)cc1 (protonated)
c1ccc(-c2[nH+]nc3ccccc3c2-c2ccccc2)cc1 (3D coordinates assigned)
c1ccc(-c2[nH+]nc3ccccc3c2-c2ccccc2)cc1 (optimized conformer: 60.289966460073465 kcal/mol)

>  <smiles>  (3) 
c1ccc(-c2nnc3ccccc3c2-c2ccccc2)cc1

>  <score_type>  (3) 
oracle

>  <origin>  (3) 
adg

>  <m_score__min__energy>  (3) 
-8.3499999999999996

>  <m_primary>  (3) 
energy

$$$$
3:0
     RDKit          3D

 37 39  0  0  0  0  0  0  0  0999 V2000
   -5.7935   21.5655  -33.1028 H   0  0  0  0  0  0  0  0  0  0  0  0
   -5.0040   21.8880  -32.4080 C   0  0  0  0  0  0  0  0  0  0  0  0
   -3.9620   20.9850  -32.0570 C   0  0  0  0  0  0  0  0  0  0  0  0
   -3.9140   19.6540  -32.5920 N   0  0  0  0  0  0  0  0  0  0  0  0
   -4.9940   18.9680  -33.2380 C   0  0  0  0  0  0  0  0  0  0  0  0
   -4.7560   18.3120  -34.2860 O   0  0  0  0  0  0  0  0  0  0  0  0
   -6.3580   18.9650  -32.6830 C   0  0  0  0  0  0  0  0  0  0  0  0
   -7.0090   17.8140  -31.6610 S   0  0  0  0  0  0  0  0  0  0  0  0
   -8.5290   18.4490  -31.4670 N   0  0  0  0  0  0  0  0  0  0  0  0
   -9.3080   18.0420  -30.9070 H   0  0  0  0  0  0  0  0  0  0  0  0
   -8.5600   19.5970  -32.1920 C   0  0  0  0  0  0  0  0  0  0  0  0
   -9.8010   20.4280  -32.3140 C   0  0  0  0  0  0  0  0  0  0  0  0
  -10.5771   20.0208  -31.6494 H   0  0  0  0  0  0  0  0  0  0  0  0
  -10.1473   20.4027  -33.3578 H   0  0  0  0  0  0  0  0  0  0  0  0
   -9.5100   21.8790  -31.9210 C   0  0  0  0  0  0  0  0  0  0  0  0
  -10.4550   22.3749  -31.6542 H   0  0  0  0  0  0  0  0  0  0  0  0
   -9.0354   22.3829  -32.7759 H   0  0  0  0  0  0  0  0  0  0  0  0
   -8.5580   21.9480  -30.7300 C   0  0  0  0  0  0  0  0  0  0  0  0
   -9.1365   21.9061  -29.7953 H   0  0  0  0  0  0  0  0  0  0  0  0
   -7.8608   21.0980  -30.7682 H   0  0  0  0  0  0  0  0  0  0  0  0
   -7.9906   22.8896  -30.7682 H   0  0  0  0  0  0  0  0  0  0  0  0
   -7.3640   19.9100  -32.8770 C   0  0  0  0  0  0  0  0  0  0  0  0
   -7.2397   20.8081  -33.4999 H   0  0  0  0  0  0  0  0  0  0  0  0
   -2.9270   21.4130  -31.2030 C   0  0  0  0  0  0  0  0  0  0  0  0
   -2.0937   20.7435  -30.9434 H   0  0  0  0  0  0  0  0  0  0  0  0
   -2.9900   22.7090  -30.6970 C   0  0  0  0  0  0  0  0  0  0  0  0
   -2.1260   23.3060  -29.8640 N   0  0  0  0  0  0  0  0  0  0  0  0
   -2.6790   24.5400  -29.7140 C   0  0  0  0  0  0  0  0  0  0  0  0
   -2.1570   25.4670  -28.9700 N   0  0  0  0  0  0  0  0  0  0  0  0
   -0.8990   25.3070  -28.2500 C   0  0  0  0  0  0  0  0  0  0  0  0
   -1.0906   25.3314  -27.1671 H   0  0  0  0  0  0  0  0  0  0  0  0
   -0.4420   24.3435  -28.5199 H   0  0  0  0  0  0  0  0  0  0  0  0
   -0.2154   26.1254  -28.5199 H   0  0  0  0  0  0  0  0  0  0  0  0
   -3.8320   24.7400  -30.4030 N   0  0  0  0  0  0  0  0  0  0  0  0
   -4.0030   23.5590  -31.0170 C   0  0  0  0  0  0  0  0  0  0  0  0
   -5.0340   23.1890  -31.8750 C   0  0  0  0  0  0  0  0  0  0  0  0
   -5.8438   23.8893  -32.1274 H   0  0  0  0  0  0  0  0  0  0  0  0
  1  2  1  0
  2  3  2  0
  3  4  1  0
  4  5  1  0
  5  6  2  0
  5  7  1  0
  7  8  1  0
  8  9  1  0
  9 10  1  0
  9 11  2  0
 11 12  1  0
 12 13  1  0
 12 14  1  0
 12 15  1  0
 15 16  1  0
 15 17  1  0
 15 18  1  0
 18 19  1  0
 18 20  1  0
 18 21  1  0
 11 22  1  0
 22 23  1  0
  3 24  1  0
 24 25  1  0
 24 26  2  0
 26 27  1  0
 27 28  1  0
 28 29  2  0
 29 30  1  0
 30 31  1  0
 30 32  1  0
 30 33  1  0
 28 34  1  0
 34 35  1  0
 35 36  2  0
 36 37  1  0
 36  2  1  0
 22  7  2  0
 35 26  1  0
M  CHG  4   4  -1   9   1  27  -1  34  -1
M  END
>  <UniqueID>  (4) 
4

>  <SMILES>  (4) 
CCCc1cc(C(=O)[N-]c2ccc3[n-]/c(=N/C)[n-]c3c2)s[nH+]1

>  <Energy>  (4) 
103.26054335595566

>  <Genealogy>  (4) 
CCCc1cc(C(=O)[N-]c2ccc3[n-]c(=NC)[n-]c3c2)s[nH+]1 (protonated)
CCCc1cc(C(=O)[N-]c2ccc3[n-]/c(=N/C)[n-]c3c2)s[nH+]1 (cis-trans isomerization)
CCCc1cc(C(=O)[N-]c2ccc3[n-]/c(=N/C)[n-]c3c2)s[nH+]1 (3D coordinates assigned)
CCCc1cc(C(=O)[N-]c2ccc3[n-]/c(=N/C)[n-]c3c2)s[nH+]1 (optimized conformer: 103.26054335595566 kcal/mol)

>  <smiles>  (4) 
CCCc1cc(C(=O)Nc2ccc3[nH]c(=NC)[nH]c3c2)sn1

>  <score_type>  (4) 
oracle

>  <origin>  (4) 
adg

>  <m_score__min__energy>  (4) 
-10.15

>  <m_primary>  (4) 
energy

$$$$
4:0
     RDKit          3D

 32 34  0  0  0  0  0  0  0  0999 V2000
   -8.2580   18.6610  -32.3190 C   0  0  0  0  0  0  0  0  0  0  0  0
   -7.6080   19.6370  -33.1250 O   0  0  0  0  0  0  0  0  0  0  0  0
   -6.2150   19.7950  -33.2230 C   0  0  0  0  0  0  0  0  0  0  0  0
   -5.4060   18.8340  -33.8610 C   0  0  0  0  0  0  0  0  0  0  0  0
   -4.0320   19.0420  -33.9970 C   0  0  0  0  0  0  0  0  0  0  0  0
   -3.4470   20.2110  -33.5040 C   0  0  0  0  0  0  0  0  0  0  0  0
   -1.6830   20.4780  -33.6880 S   0  0  0  0  0  0  0  0  0  0  0  0
   -1.5710   21.5470  -32.2190 C   0  0  0  0  0  0  0  0  0  0  0  0
   -4.2370   21.1650  -32.8570 C   0  0  0  0  0  0  0  0  0  0  0  0
   -5.6160   20.9590  -32.6960 C   0  0  0  0  0  0  0  0  0  0  0  0
   -6.4150   21.9870  -31.9980 C   0  0  0  0  0  0  0  0  0  0  0  0
   -7.7620   21.9770  -31.9080 N   0  0  0  0  0  0  0  0  0  0  0  0
   -8.1460   23.0440  -31.2160 N   0  0  0  0  0  0  0  0  0  0  0  0
   -7.0140   23.7020  -30.8970 C   0  0  0  0  0  0  0  0  0  0  0  0
   -5.9320   23.0720  -31.3700 N   0  0  0  0  0  0  0  0  0  0  0  0
   -4.6030   23.4820  -31.1950 N   0  0  0  0  0  0  0  0  0  0  0  0
   -4.2970   24.4740  -30.2110 C   0  0  0  0  0  0  0  0  0  0  0  0
   -3.1250   24.9270  -30.1260 O   0  0  0  0  0  0  0  0  0  0  0  0
   -5.3520   24.9140  -29.2280 C   0  0  0  0  0  0  0  0  0  0  0  0
   -6.9310   25.2910  -30.0740 S   0  0  0  0  0  0  0  0  0  0  0  0
   -8.0999   18.8984  -31.2566 H   0  0  0  0  0  0  0  0  0  0  0  0
   -9.3358   18.6629  -32.5386 H   0  0  0  0  0  0  0  0  0  0  0  0
   -7.8408   17.6672  -32.5386 H   0  0  0  0  0  0  0  0  0  0  0  0
   -5.8603   17.9129  -34.2549 H   0  0  0  0  0  0  0  0  0  0  0  0
   -3.4087   18.2837  -34.4935 H   0  0  0  0  0  0  0  0  0  0  0  0
   -1.6357   20.9299  -31.3107 H   0  0  0  0  0  0  0  0  0  0  0  0
   -0.6116   22.0850  -32.2293 H   0  0  0  0  0  0  0  0  0  0  0  0
   -2.3981   22.2721  -32.2293 H   0  0  0  0  0  0  0  0  0  0  0  0
   -3.7742   22.0851  -32.4706 H   0  0  0  0  0  0  0  0  0  0  0  0
   -8.4120   21.2580  -32.2970 H   0  0  0  0  0  0  0  0  0  0  0  0
   -5.5198   24.1087  -28.4977 H   0  0  0  0  0  0  0  0  0  0  0  0
   -5.0000   25.8270  -28.7255 H   0  0  0  0  0  0  0  0  0  0  0  0
  1  2  1  0
  2  3  1  0
  3  4  2  0
  4  5  1  0
  5  6  2  0
  6  7  1  0
  7  8  1  0
  6  9  1  0
  9 10  2  0
 10 11  1  0
 11 12  2  0
 12 13  1  0
 13 14  2  0
 14 15  1  0
 15 16  1  0
 16 17  1  0
 17 18  2  0
 17 19  1  0
 19 20  1  0
 10  3  1  0
 15 11  1  0
 20 14  1  0
  1 21  1  0
  1 22  1  0
  1 23  1  0
  4 24  1  0
  5 25  1  0
  8 26  1  0
  8 27  1  0
  8 28  1  0
  9 29  1  0
 12 30  1  0
 19 31  1  0
 19 32  1  0
M  CHG  2  12   1  16  -1
M  END
>  <UniqueID>  (5) 
5

>  <SMILES>  (5) 
COc1ccc(SC)cc1-c1[nH+]nc2n1[N-]C(=O)CS2

>  <Energy>  (5) 
76.5554506424442

>  <Genealogy>  (5) 
COc1ccc(SC)cc1-c1[nH+]nc2n1[N-]C(=O)CS2 (protonated)
COc1ccc(SC)cc1-c1[nH+]nc2n1[N-]C(=O)CS2 (3D coordinates assigned)
COc1ccc(SC)cc1-c1[nH+]nc2n1[N-]C(=O)CS2 (nonaromatic ring conformer: 76.5554506424442 kcal/mol)

>  <smiles>  (5) 
COc1ccc(SC)cc1-c1nnc2n1NC(=O)CS2

>  <score_type>  (5) 
oracle

>  <origin>  (5) 
adg

>  <m_score__min__energy>  (5) 
-7.5700000000000003

>  <m_primary>  (5) 
energy

$$$$
5:0
     RDKit          3D

 32 32  0  0  0  0  0  0  0  0999 V2000
   -3.2520   23.4170  -30.5200 C   0  0  0  0  0  0  0  0  0  0  0  0
   -4.1050   24.4980  -30.8280 O   0  0  0  0  0  0  0  0  0  0  0  0
   -5.1410   24.6000  -29.8710 C   0  0  0  0  0  0  0  0  0  0  0  0
   -6.4750   24.8890  -30.5700 C   0  0  0  0  0  0  0  0  0  0  0  0
   -7.0800   23.6440  -31.2410 C   0  0  0  0  0  0  0  0  0  0  0  0
   -6.2350   23.1450  -32.3390 N   0  0  0  0  0  0  0  0  0  0  0  0
   -6.3670   21.7110  -32.4500 C   0  0  0  0  0  0  0  0  0  0  0  0
   -7.6380   21.1150  -32.3440 C   0  0  0  0  0  0  0  0  0  0  0  0
   -7.7880   19.7340  -32.4740 C   0  0  0  0  0  0  0  0  0  0  0  0
   -6.6750   18.9290  -32.7210 C   0  0  0  0  0  0  0  0  0  0  0  0
   -6.8690   17.1940  -32.8860 Cl  0  0  0  0  0  0  0  0  0  0  0  0
   -5.4080   19.5060  -32.8440 C   0  0  0  0  0  0  0  0  0  0  0  0
   -5.2410   20.8990  -32.7160 C   0  0  0  0  0  0  0  0  0  0  0  0
   -3.9830   21.5090  -32.8480 O   0  0  0  0  0  0  0  0  0  0  0  0
   -2.8470   20.8970  -33.4500 C   0  0  0  0  0  0  0  0  0  0  0  0
   -3.1706   23.3138  -29.4279 H   0  0  0  0  0  0  0  0  0  0  0  0
   -3.6653   22.4909  -30.9460 H   0  0  0  0  0  0  0  0  0  0  0  0
   -2.2552   23.6036  -30.9460 H   0  0  0  0  0  0  0  0  0  0  0  0
   -5.2183   23.6536  -29.3158 H   0  0  0  0  0  0  0  0  0  0  0  0
   -4.9116   25.4222  -29.1772 H   0  0  0  0  0  0  0  0  0  0  0  0
   -7.1884   25.2669  -29.8228 H   0  0  0  0  0  0  0  0  0  0  0  0
   -6.2806   25.6289  -31.3604 H   0  0  0  0  0  0  0  0  0  0  0  0
   -7.1876   22.8507  -30.4867 H   0  0  0  0  0  0  0  0  0  0  0  0
   -8.0558   23.9255  -31.6635 H   0  0  0  0  0  0  0  0  0  0  0  0
   -6.5130   23.5900  -33.2430 H   0  0  0  0  0  0  0  0  0  0  0  0
   -5.2350   23.3950  -32.1570 H   0  0  0  0  0  0  0  0  0  0  0  0
   -8.5209   21.7439  -32.1570 H   0  0  0  0  0  0  0  0  0  0  0  0
   -8.7852   19.2789  -32.3817 H   0  0  0  0  0  0  0  0  0  0  0  0
   -4.5345   18.8675  -33.0423 H   0  0  0  0  0  0  0  0  0  0  0  0
   -2.1685   20.5314  -32.6652 H   0  0  0  0  0  0  0  0  0  0  0  0
   -3.1735   20.0527  -34.0749 H   0  0  0  0  0  0  0  0  0  0  0  0
   -2.3215   21.6341  -34.0749 H   0  0  0  0  0  0  0  0  0  0  0  0
  1  2  1  0
  2  3  1  0
  3  4  1  0
  4  5  1  0
  5  6  1  0
  6  7  1  0
  7  8  2  0
  8  9  1  0
  9 10  2  0
 10 11  1  0
 10 12  1  0
 12 13  2  0
 13 14  1  0
 14 15  1  0
 13  7  1  0
  1 16  1  0
  1 17  1  0
  1 18  1  0
  3 19  1  0
  3 20  1  0
  4 21  1  0
  4 22  1  0
  5 23  1  0
  5 24  1  0
  6 25  1  0
  6 26  1  0
  8 27  1  0
  9 28  1  0
 12 29  1  0
 15 30  1  0
 15 31  1  0
 15 32  1  0
M  CHG  1   6   1
M  END
>  <UniqueID>  (6) 
6

>  <SMILES>  (6) 
COCCC[NH2+]c1ccc(Cl)cc1OC

>  <Energy>  (6) 
28.999473437509923

>  <Genealogy>  (6) 
COCCC[NH2+]c1ccc(Cl)cc1OC (protonated)
COCCC[NH2+]c1ccc(Cl)cc1OC (3D coordinates assigned)
COCCC[NH2+]c1ccc(Cl)cc1OC (optimized conformer: 28.999473437509923 kcal/mol)

>  <smiles>  (6) 
COCCCNc1ccc(Cl)cc1OC

>  <score_type>  (6) 
oracle

>  <origin>  (6) 
adg

>  <m_score__min__energy>  (6) 
-5.0199999999999996

>  <m_primary>  (6) 
energy

$$$$
6:0
     RDKit          3D

 37 38  0  0  0  0  0  0  0  0999 V2000
   -1.1150   26.1780  -28.5730 N   0  0  0  0  0  0  0  0  0  0  0  0
   -0.9110   24.7860  -28.8080 C   0  0  0  0  0  0  0  0  0  0  0  0
    0.2070   24.2740  -28.5310 O   0  0  0  0  0  0  0  0  0  0  0  0
   -2.0000   23.9480  -29.3640 C   0  0  0  0  0  0  0  0  0  0  0  0
   -1.8550   22.5510  -29.4510 C   0  0  0  0  0  0  0  0  0  0  0  0
   -2.8850   21.7660  -29.9750 C   0  0  0  0  0  0  0  0  0  0  0  0
   -4.0610   22.3630  -30.4320 C   0  0  0  0  0  0  0  0  0  0  0  0
   -4.2080   23.7590  -30.3860 C   0  0  0  0  0  0  0  0  0  0  0  0
   -5.4080   24.4020  -30.8310 N   0  0  0  0  0  0  0  0  0  0  0  0
   -6.5160   23.7820  -31.4970 C   0  0  0  0  0  0  0  0  0  0  0  0
   -6.5530   23.7960  -32.7550 O   0  0  0  0  0  0  0  0  0  0  0  0
   -7.5690   23.0070  -30.7520 C   0  0  0  0  0  0  0  0  0  0  0  0
   -8.6660   22.6650  -31.6520 N   0  0  0  0  0  0  0  0  0  0  0  0
   -9.0700   21.3330  -31.9980 C   0  0  0  0  0  0  0  0  0  0  0  0
  -10.3000   21.0760  -32.0790 O   0  0  0  0  0  0  0  0  0  0  0  0
   -8.0940   20.2560  -32.2650 C   0  0  0  0  0  0  0  0  0  0  0  0
   -8.4800   18.9150  -32.1280 C   0  0  0  0  0  0  0  0  0  0  0  0
   -7.5520   17.8900  -32.3230 C   0  0  0  0  0  0  0  0  0  0  0  0
   -6.2290   18.1950  -32.6540 C   0  0  0  0  0  0  0  0  0  0  0  0
   -5.8260   19.5330  -32.8100 C   0  0  0  0  0  0  0  0  0  0  0  0
   -4.3910   19.8720  -33.1240 C   0  0  0  0  0  0  0  0  0  0  0  0
   -3.9350   19.1430  -34.2090 F   0  0  0  0  0  0  0  0  0  0  0  0
   -3.6040   19.5830  -32.0250 F   0  0  0  0  0  0  0  0  0  0  0  0
   -4.2690   21.2170  -33.4240 F   0  0  0  0  0  0  0  0  0  0  0  0
   -6.7600   20.5590  -32.5790 C   0  0  0  0  0  0  0  0  0  0  0  0
   -3.1920   24.5390  -29.8220 C   0  0  0  0  0  0  0  0  0  0  0  0
   -1.2050   26.8490  -29.3680 H   0  0  0  0  0  0  0  0  0  0  0  0
   -0.9259   22.0747  -29.1047 H   0  0  0  0  0  0  0  0  0  0  0  0
   -2.7688   20.6734  -30.0276 H   0  0  0  0  0  0  0  0  0  0  0  0
   -4.8748   21.7385  -30.8292 H   0  0  0  0  0  0  0  0  0  0  0  0
   -7.1260   22.0838  -30.3501 H   0  0  0  0  0  0  0  0  0  0  0  0
   -7.9565   23.6239  -29.9278 H   0  0  0  0  0  0  0  0  0  0  0  0
   -9.5195   18.6691  -31.8655 H   0  0  0  0  0  0  0  0  0  0  0  0
   -7.8630   16.8403  -32.2159 H   0  0  0  0  0  0  0  0  0  0  0  0
   -5.4990   17.3840  -32.7932 H   0  0  0  0  0  0  0  0  0  0  0  0
   -6.4416   21.6098  -32.6451 H   0  0  0  0  0  0  0  0  0  0  0  0
   -3.3269   25.6273  -29.7357 H   0  0  0  0  0  0  0  0  0  0  0  0
  1  2  1  0
  2  3  2  0
  2  4  1  0
  4  5  2  0
  5  6  1  0
  6  7  2  0
  7  8  1  0
  8  9  1  0
  9 10  1  0
 10 11  2  0
 10 12  1  0
 12 13  1  0
 13 14  1  0
 14 15  2  0
 14 16  1  0
 16 17  2  0
 17 18  1  0
 18 19  2  0
 19 20  1  0
 20 21  1  0
 21 22  1  0
 21 23  1  0
 21 24  1  0
 20 25  2  0
  8 26  2  0
 26  4  1  0
 25 16  1  0
  1 27  1  0
  5 28  1  0
  6 29  1  0
  7 30  1  0
 12 31  1  0
 12 32  1  0
 17 33  1  0
 18 34  1  0
 19 35  1  0
 25 36  1  0
 26 37  1  0
M  CHG  3   1  -1   9  -1  13  -1
M  END
>  <UniqueID>  (7) 
7

>  <SMILES>  (7) 
[NH-]C(=O)c1cccc([N-]C(=O)C[N-]C(=O)c2cccc(C(F)(F)F)c2)c1

>  <Energy>  (7) 
41.174198910658355

>  <Genealogy>  (7) 
[NH-]C(=O)c1cccc([N-]C(=O)C[N-]C(=O)c2cccc(C(F)(F)F)c2)c1 (protonated)
[NH-]C(=O)c1cccc([N-]C(=O)C[N-]C(=O)c2cccc(C(F)(F)F)c2)c1 (3D coordinates assigned)
[NH-]C(=O)c1cccc([N-]C(=O)C[N-]C(=O)c2cccc(C(F)(F)F)c2)c1 (optimized conformer: 41.174198910658355 kcal/mol)

>  <smiles>  (7) 
NC(=O)c1cccc(NC(=O)CNC(=O)c2cccc(C(F)(F)F)c2)c1

>  <score_type>  (7) 
oracle

>  <origin>  (7) 
adg

>  <m_score__min__energy>  (7) 
-10.99

>  <m_primary>  (7) 
energy

$$$$
7:0
     RDKit          3D

 70 74  0  0  0  0  0  0  0  0999 V2000
   -0.0220   25.4960  -25.7330 C   0  0  0  0  0  0  0  0  0  0  0  0
    0.2170   24.3360  -26.6450 C   0  0  0  0  0  0  0  0  0  0  0  0
    0.7210   24.5350  -27.7860 O   0  0  0  0  0  0  0  0  0  0  0  0
   -0.2140   23.0590  -26.2650 O   0  0  0  0  0  0  0  0  0  0  0  0
   -1.2290   22.3370  -26.9700 C   0  0  2  0  0  0  0  0  0  0  0  0
   -0.5790   21.3610  -27.9720 C   0  0  0  0  0  0  0  0  0  0  0  0
   -1.5940   21.2870  -29.1250 C   0  0  2  0  0  0  0  0  0  0  0  0
   -2.7010   20.2670  -28.6930 C   0  0  0  0  0  0  0  0  0  0  0  0
   -1.1600   20.8070  -30.4930 C   0  0  0  0  0  0  0  0  0  0  0  0
   -0.0420   20.0860  -30.6730 C   0  0  0  0  0  0  0  0  0  0  0  0
    0.2090   19.4320  -31.9580 C   0  0  0  0  0  0  0  0  0  0  0  0
    1.3570   18.9950  -32.2380 O   0  0  0  0  0  0  0  0  0  0  0  0
   -0.9480   19.1890  -32.8830 C   0  0  1  0  0  0  0  0  0  0  0  0
   -1.7380   17.9770  -32.3330 C   0  0  0  0  0  0  0  0  0  0  0  0
   -3.0340   17.8140  -33.0550 C   0  0  0  0  0  0  0  0  0  0  0  0
   -3.3390   16.7380  -33.5500 O   0  0  0  0  0  0  0  0  0  0  0  0
   -3.9360   19.0170  -33.1540 C   0  0  2  0  0  0  0  0  0  0  0  0
   -5.2290   18.7070  -33.8900 C   0  0  0  0  0  0  0  0  0  0  0  0
   -5.1750   18.2100  -35.0510 O   0  0  0  0  0  0  0  0  0  0  0  0
   -6.5650   18.9450  -33.2670 C   0  0  0  0  0  0  0  0  0  0  0  0
   -7.2200   17.8910  -32.6000 C   0  0  0  0  0  0  0  0  0  0  0  0
   -8.4550   18.1010  -31.9770 C   0  0  0  0  0  0  0  0  0  0  0  0
   -9.0650   19.3550  -32.0290 C   0  0  0  0  0  0  0  0  0  0  0  0
   -8.4350   20.4080  -32.6980 C   0  0  0  0  0  0  0  0  0  0  0  0
   -7.1950   20.2070  -33.3160 C   0  0  0  0  0  0  0  0  0  0  0  0
   -3.1210   20.1430  -33.8200 C   0  0  0  0  0  0  0  0  0  0  0  0
   -1.8200   20.4930  -33.0210 C   0  0  2  0  0  0  0  0  0  0  0  0
   -1.0300   21.5350  -33.8400 C   0  0  0  0  0  0  0  0  0  0  0  0
   -2.1030   21.1040  -31.6340 C   0  0  0  0  0  0  0  0  0  0  0  0
   -3.0560   22.0700  -31.4770 C   0  0  0  0  0  0  0  0  0  0  0  0
   -3.2890   22.8360  -30.1790 C   0  0  0  0  0  0  0  0  0  0  0  0
   -2.0270   22.7770  -29.2780 C   0  0  2  0  0  0  0  0  0  0  0  0
   -0.9000   23.6340  -30.0050 C   0  0  0  0  0  0  0  0  0  0  0  0
   -2.1370   23.2900  -27.8000 C   0  0  1  0  0  0  0  0  0  0  0  0
   -3.5680   23.4680  -27.2350 C   0  0  0  0  0  0  0  0  0  0  0  0
   -3.7840   24.7470  -26.7120 O   0  0  0  0  0  0  0  0  0  0  0  0
    0.0471   25.1608  -24.6876 H   0  0  0  0  0  0  0  0  0  0  0  0
    0.7352   26.2716  -25.9201 H   0  0  0  0  0  0  0  0  0  0  0  0
   -1.0241   25.9092  -25.9201 H   0  0  0  0  0  0  0  0  0  0  0  0
   -1.8277   21.8072  -26.2144 H   0  0  0  0  0  0  0  0  0  0  0  0
    0.3877   21.7488  -28.3255 H   0  0  0  0  0  0  0  0  0  0  0  0
   -0.3663   20.3767  -27.5293 H   0  0  0  0  0  0  0  0  0  0  0  0
   -2.7498   20.2220  -27.5950 H   0  0  0  0  0  0  0  0  0  0  0  0
   -3.6740   20.5918  -29.0903 H   0  0  0  0  0  0  0  0  0  0  0  0
   -2.4568   19.2707  -29.0903 H   0  0  0  0  0  0  0  0  0  0  0  0
    0.6858   19.9867  -29.8542 H   0  0  0  0  0  0  0  0  0  0  0  0
   -0.6097   18.9505  -33.9022 H   0  0  0  0  0  0  0  0  0  0  0  0
   -1.1360   17.0656  -32.4633 H   0  0  0  0  0  0  0  0  0  0  0  0
   -1.9487   18.1492  -31.2672 H   0  0  0  0  0  0  0  0  0  0  0  0
   -4.2614   19.3368  -32.1531 H   0  0  0  0  0  0  0  0  0  0  0  0
   -6.7563   16.8940  -32.5688 H   0  0  0  0  0  0  0  0  0  0  0  0
   -8.9472   17.2742  -31.4440 H   0  0  0  0  0  0  0  0  0  0  0  0
  -10.0396   19.5144  -31.5445 H   0  0  0  0  0  0  0  0  0  0  0  0
   -8.9146   21.3971  -32.7391 H   0  0  0  0  0  0  0  0  0  0  0  0
   -6.7076   21.0397  -33.8442 H   0  0  0  0  0  0  0  0  0  0  0  0
   -2.8374   19.8218  -34.8331 H   0  0  0  0  0  0  0  0  0  0  0  0
   -3.7518   21.0438  -33.8439 H   0  0  0  0  0  0  0  0  0  0  0  0
   -0.5097   22.2213  -33.1557 H   0  0  0  0  0  0  0  0  0  0  0  0
   -0.2928   21.0207  -34.4741 H   0  0  0  0  0  0  0  0  0  0  0  0
   -1.7243   22.1059  -34.4741 H   0  0  0  0  0  0  0  0  0  0  0  0
   -3.6946   22.3101  -32.3398 H   0  0  0  0  0  0  0  0  0  0  0  0
   -3.5167   23.8861  -30.4145 H   0  0  0  0  0  0  0  0  0  0  0  0
   -4.1313   22.3762  -29.6413 H   0  0  0  0  0  0  0  0  0  0  0  0
   -0.2633   24.1182  -29.2499 H   0  0  0  0  0  0  0  0  0  0  0  0
   -0.2853   22.9731  -30.6338 H   0  0  0  0  0  0  0  0  0  0  0  0
   -1.3725   24.4030  -30.6338 H   0  0  0  0  0  0  0  0  0  0  0  0
   -1.7948   24.3339  -27.7440 H   0  0  0  0  0  0  0  0  0  0  0  0
   -4.2911   23.2917  -28.0450 H   0  0  0  0  0  0  0  0  0  0  0  0
   -3.6946   22.7465  -26.4144 H   0  0  0  0  0  0  0  0  0  0  0  0
   -4.2330   25.2660  -27.4290 H   0  0  0  0  0  0  0  0  0  0  0  0
  1  2  1  0
  2  3  2  0
  2  4  1  0
  4  5  1  0
  5  6  1  0
  6  7  1  0
  7  8  1  1
  7  9  1  0
  9 10  2  0
 10 11  1  0
 11 12  2  0
 11 13  1  0
 13 14  1  0
 14 15  1  0
 15 16  2  0
 15 17  1  0
 17 18  1  0
 18 19  2  0
 18 20  1  0
 20 21  2  0
 21 22  1  0
 22 23  2  0
 23 24  1  0
 24 25  2  0
 17 26  1  0
 26 27  1  0
 27 28  1  6
 27 29  1  0
 29 30  2  0
 30 31  1  0
 31 32  1  0
 32 33  1  6
 32 34  1  0
 34 35  1  0
 35 36  1  0
 34  5  1  0
 32  7  1  0
 29  9  1  0
 27 13  1  0
 25 20  1  0
  1 37  1  0
  1 38  1  0
  1 39  1  0
  5 40  1  1
  6 41  1  0
  6 42  1  0
  8 43  1  0
  8 44  1  0
  8 45  1  0
 10 46  1  0
 13 47  1  6
 14 48  1  0
 14 49  1  0
 17 50  1  1
 21 51  1  0
 22 52  1  0
 23 53  1  0
 24 54  1  0
 25 55  1  0
 26 56  1  0
 26 57  1  0
 28 58  1  0
 28 59  1  0
 28 60  1  0
 30 61  1  0
 31 62  1  0
 31 63  1  0
 33 64  1  0
 33 65  1  0
 33 66  1  0
 34 67  1  6
 35 68  1  0
 35 69  1  0
 36 70  1  0
M  END
>  <UniqueID>  (8) 
8

>  <SMILES>  (8) 
CC(=O)O[C@@H]1C[C@]2(C)C3=CC(=O)C4CC(=O)C(C(=O)c5ccccc5)CC4(C)C3=CCC2(C)C1CO

>  <Energy>  (8) 
115.47573091830776

>  <Genealogy>  (8) 
CC(=O)O[C@@H]1C[C@]2(C)C3=CC(=O)C4CC(=O)C(C(=O)c5ccccc5)CC4(C)C3=CCC2(C)C1CO (chirality)
CC(=O)O[C@@H]1C[C@]2(C)C3=CC(=O)C4CC(=O)C(C(=O)c5ccccc5)CC4(C)C3=CCC2(C)C1CO (3D coordinates assigned)
CC(=O)O[C@@H]1C[C@]2(C)C3=CC(=O)C4CC(=O)C(C(=O)c5ccccc5)CC4(C)C3=CCC2(C)C1CO (nonaromatic ring conformer: 115.47573091830776 kcal/mol)

>  <smiles>  (8) 
CC(=O)OC1CC2(C)C3=CC(=O)C4CC(=O)C(C(=O)c5ccccc5)CC4(C)C3=CCC2(C)C1CO

>  <score_type>  (8) 
oracle

>  <origin>  (8) 
adg

>  <m_score__min__energy>  (8) 
-10.01

>  <m_primary>  (8) 
energy

$$$$
8:0
     RDKit          3D

 35 37  0  0  0  0  0  0  0  0999 V2000
   -3.9770   25.6730  -31.5810 H   0  0  0  0  0  0  0  0  0  0  0  0
   -3.8270   25.2140  -30.6710 N   0  0  0  0  0  0  0  0  0  0  0  0
   -4.6740   24.3820  -30.1750 C   0  0  0  0  0  0  0  0  0  0  0  0
   -6.0340   24.8930  -29.7750 C   0  0  0  0  0  0  0  0  0  0  0  0
   -6.5440   25.6790  -30.7920 F   0  0  0  0  0  0  0  0  0  0  0  0
   -5.9200   25.6550  -28.6270 F   0  0  0  0  0  0  0  0  0  0  0  0
   -6.9110   23.8530  -29.5300 F   0  0  0  0  0  0  0  0  0  0  0  0
   -4.3120   22.9200  -30.0220 C   0  0  0  0  0  0  0  0  0  0  0  0
   -3.3857   22.8376  -29.4345 H   0  0  0  0  0  0  0  0  0  0  0  0
   -5.1379   22.4045  -29.5100 H   0  0  0  0  0  0  0  0  0  0  0  0
   -4.1020   22.2760  -31.3680 C   0  0  0  0  0  0  0  0  0  0  0  0
   -5.0820   21.8400  -32.2710 C   0  0  0  0  0  0  0  0  0  0  0  0
   -6.5400   22.0110  -32.1350 C   0  0  0  0  0  0  0  0  0  0  0  0
   -7.3450   20.9090  -31.8080 C   0  0  0  0  0  0  0  0  0  0  0  0
   -6.8851   19.9222  -31.6509 H   0  0  0  0  0  0  0  0  0  0  0  0
   -8.7290   21.0600  -31.6810 C   0  0  0  0  0  0  0  0  0  0  0  0
   -9.3542   20.1949  -31.4149 H   0  0  0  0  0  0  0  0  0  0  0  0
   -9.3190   22.3100  -31.8920 C   0  0  0  0  0  0  0  0  0  0  0  0
  -10.4072   22.4298  -31.7849 H   0  0  0  0  0  0  0  0  0  0  0  0
   -8.5260   23.4070  -32.2390 C   0  0  0  0  0  0  0  0  0  0  0  0
   -8.9917   24.3883  -32.4125 H   0  0  0  0  0  0  0  0  0  0  0  0
   -7.1410   23.2590  -32.3660 C   0  0  0  0  0  0  0  0  0  0  0  0
   -6.5207   24.1227  -32.6476 H   0  0  0  0  0  0  0  0  0  0  0  0
   -4.5140   21.1720  -33.3030 N   0  0  0  0  0  0  0  0  0  0  0  0
   -5.0050   20.7300  -34.1140 H   0  0  0  0  0  0  0  0  0  0  0  0
   -3.1910   21.1900  -33.0750 C   0  0  0  0  0  0  0  0  0  0  0  0
   -2.1950   20.6160  -33.8640 C   0  0  0  0  0  0  0  0  0  0  0  0
   -2.4437   20.0903  -34.7977 H   0  0  0  0  0  0  0  0  0  0  0  0
   -0.8630   20.7300  -33.4290 C   0  0  0  0  0  0  0  0  0  0  0  0
   -0.0524   20.2903  -34.0286 H   0  0  0  0  0  0  0  0  0  0  0  0
   -0.5600   21.4050  -32.2280 C   0  0  0  0  0  0  0  0  0  0  0  0
    0.4860   21.4893  -31.8982 H   0  0  0  0  0  0  0  0  0  0  0  0
   -1.5850   21.9710  -31.4490 C   0  0  0  0  0  0  0  0  0  0  0  0
   -1.3589   22.4937  -30.5079 H   0  0  0  0  0  0  0  0  0  0  0  0
   -2.8990   21.8490  -31.9070 C   0  0  0  0  0  0  0  0  0  0  0  0
  1  2  1  0
  2  3  2  0
  3  4  1  0
  4  5  1  0
  4  6  1  0
  4  7  1  0
  3  8  1  0
  8  9  1  0
  8 10  1  0
  8 11  1  0
 11 12  2  0
 12 13  1  0
 13 14  2  0
 14 15  1  0
 14 16  1  0
 16 17  1  0
 16 18  2  0
 18 19  1  0
 18 20  1  0
 20 21  1  0
 20 22  2  0
 22 23  1  0
 12 24  1  0
 24 25  1  0
 24 26  1  0
 26 27  2  0
 27 28  1  0
 27 29  1  0
 29 30  1  0
 29 31  2  0
 31 32  1  0
 31 33  1  0
 33 34  1  0
 33 35  2  0
 35 11  1  0
 22 13  1  0
 35 26  1  0
M  END
>  <UniqueID>  (9) 
9

>  <SMILES>  (9) 
[H]/N=C(\Cc1c(-c2ccccc2)[nH]c2ccccc12)C(F)(F)F

>  <Energy>  (9) 
71.74187910499386

>  <Genealogy>  (9) 
[H]/N=C(\Cc1c(-c2ccccc2)[nH]c2ccccc12)C(F)(F)F (cis-trans isomerization)
[H]/N=C(\Cc1c(-c2ccccc2)[nH]c2ccccc12)C(F)(F)F (3D coordinates assigned)
[H]/N=C(\Cc1c(-c2ccccc2)[nH]c2ccccc12)C(F)(F)F (optimized conformer: 71.74187910499386 kcal/mol)

>  <smiles>  (9) 
N=C(Cc1c(-c2ccccc2)[nH]c2ccccc12)C(F)(F)F

>  <score_type>  (9) 
oracle

>  <origin>  (9) 
adg

>  <m_score__min__energy>  (9) 
-7.71

>  <m_primary>  (9) 
energy

$$$$
9:0
     RDKit          3D

 54 57  0  0  0  0  0  0  0  0999 V2000
    0.3480   21.4610  -36.0520 C   0  0  0  0  0  0  0  0  0  0  0  0
    0.4170   21.4880  -34.5160 C   0  0  0  0  0  0  0  0  0  0  0  0
   -0.8950   21.3490  -33.8330 N   0  0  0  0  0  0  0  0  0  0  0  0
   -1.6600   20.1700  -34.2970 C   0  0  0  0  0  0  0  0  0  0  0  0
   -3.1130   20.2600  -33.8050 C   0  0  0  0  0  0  0  0  0  0  0  0
   -3.1660   20.7910  -32.4370 N   0  0  0  0  0  0  0  0  0  0  0  0
   -4.4220   21.2370  -31.8910 C   0  0  0  0  0  0  0  0  0  0  0  0
   -5.5120   20.6210  -32.2620 N   0  0  0  0  0  0  0  0  0  0  0  0
   -6.8810   21.0190  -32.0730 C   0  0  0  0  0  0  0  0  0  0  0  0
   -7.8280   20.0360  -31.7360 C   0  0  0  0  0  0  0  0  0  0  0  0
   -7.3220   18.1930  -31.5990 Br  0  0  0  0  0  0  0  0  0  0  0  0
   -9.1620   20.3880  -31.5140 C   0  0  0  0  0  0  0  0  0  0  0  0
   -9.5610   21.7210  -31.6070 C   0  0  0  0  0  0  0  0  0  0  0  0
   -8.6260   22.7110  -31.9120 C   0  0  0  0  0  0  0  0  0  0  0  0
   -7.2810   22.3740  -32.1360 C   0  0  0  0  0  0  0  0  0  0  0  0
   -6.2760   23.4510  -32.4220 C   0  0  0  0  0  0  0  0  0  0  0  0
   -5.2760   23.4950  -31.3160 C   0  0  0  0  0  0  0  0  0  0  0  0
   -4.4440   22.4730  -31.0530 C   0  0  0  0  0  0  0  0  0  0  0  0
   -3.5400   22.5460  -29.8750 C   0  0  0  0  0  0  0  0  0  0  0  0
   -2.6750   23.6430  -29.7220 C   0  0  0  0  0  0  0  0  0  0  0  0
   -1.7800   23.6960  -28.6510 C   0  0  0  0  0  0  0  0  0  0  0  0
   -1.7420   22.6590  -27.7080 C   0  0  0  0  0  0  0  0  0  0  0  0
   -0.7450   22.6950  -26.5880 C   0  0  0  0  0  0  0  0  0  0  0  0
   -2.5940   21.5560  -27.8630 C   0  0  0  0  0  0  0  0  0  0  0  0
   -3.4900   21.5010  -28.9340 C   0  0  0  0  0  0  0  0  0  0  0  0
   -1.9530   20.7510  -31.6120 C   0  0  0  0  0  0  0  0  0  0  0  0
   -0.7630   21.3980  -32.3520 C   0  0  0  0  0  0  0  0  0  0  0  0
   -0.6331   21.0771  -36.3683 H   0  0  0  0  0  0  0  0  0  0  0  0
    0.4866   22.4797  -36.4432 H   0  0  0  0  0  0  0  0  0  0  0  0
    1.1412   20.8069  -36.4432 H   0  0  0  0  0  0  0  0  0  0  0  0
    1.0636   20.6610  -34.1875 H   0  0  0  0  0  0  0  0  0  0  0  0
    0.8075   22.4786  -34.2400 H   0  0  0  0  0  0  0  0  0  0  0  0
   -1.4440   22.1970  -34.1160 H   0  0  0  0  0  0  0  0  0  0  0  0
   -1.6489   20.1381  -35.3965 H   0  0  0  0  0  0  0  0  0  0  0  0
   -1.1976   19.2574  -33.8929 H   0  0  0  0  0  0  0  0  0  0  0  0
   -3.6798   20.9254  -34.4728 H   0  0  0  0  0  0  0  0  0  0  0  0
   -3.5511   19.2510  -33.8098 H   0  0  0  0  0  0  0  0  0  0  0  0
   -9.8998   19.6110  -31.2651 H   0  0  0  0  0  0  0  0  0  0  0  0
  -10.6138   21.9924  -31.4398 H   0  0  0  0  0  0  0  0  0  0  0  0
   -8.9443   23.7619  -31.9774 H   0  0  0  0  0  0  0  0  0  0  0  0
   -5.7649   23.2345  -33.3717 H   0  0  0  0  0  0  0  0  0  0  0  0
   -6.7866   24.4224  -32.4974 H   0  0  0  0  0  0  0  0  0  0  0  0
   -5.2174   24.3988  -30.6917 H   0  0  0  0  0  0  0  0  0  0  0  0
   -2.7030   24.4661  -30.4512 H   0  0  0  0  0  0  0  0  0  0  0  0
   -1.1016   24.5556  -28.5468 H   0  0  0  0  0  0  0  0  0  0  0  0
   -1.2752   22.6759  -25.6244 H   0  0  0  0  0  0  0  0  0  0  0  0
   -0.0819   21.8202  -26.6591 H   0  0  0  0  0  0  0  0  0  0  0  0
   -0.1467   23.6153  -26.6591 H   0  0  0  0  0  0  0  0  0  0  0  0
   -2.5568   20.7298  -27.1378 H   0  0  0  0  0  0  0  0  0  0  0  0
   -4.1603   20.6355  -29.0421 H   0  0  0  0  0  0  0  0  0  0  0  0
   -2.1358   21.2987  -30.6757 H   0  0  0  0  0  0  0  0  0  0  0  0
   -1.7062   19.7002  -31.4001 H   0  0  0  0  0  0  0  0  0  0  0  0
   -0.6900   22.4510  -32.0425 H   0  0  0  0  0  0  0  0  0  0  0  0
    0.1373   20.8248  -32.0857 H   0  0  0  0  0  0  0  0  0  0  0  0
  1  2  1  0
  2  3  1  0
  3  4  1  0
  4  5  1  0
  5  6  1  0
  6  7  1  0
  7  8  2  0
  8  9  1  0
  9 10  2  0
 10 11  1  0
 10 12  1  0
 12 13  2  0
 13 14  1  0
 14 15  2  0
 15 16  1  0
 16 17  1  0
 17 18  2  0
 18 19  1  0
 19 20  2  0
 20 21  1  0
 21 22  2  0
 22 23  1  0
 22 24  1  0
 24 25  2  0
  6 26  1  0
 26 27  1  0
 27  3  1  0
 18  7  1  0
 25 19  1  0
 15  9  1  0
  1 28  1  0
  1 29  1  0
  1 30  1  0
  2 31  1  0
  2 32  1  0
  3 33  1  0
  4 34  1  0
  4 35  1  0
  5 36  1  0
  5 37  1  0
 12 38  1  0
 13 39  1  0
 14 40  1  0
 16 41  1  0
 16 42  1  0
 17 43  1  0
 20 44  1  0
 21 45  1  0
 23 46  1  0
 23 47  1  0
 23 48  1  0
 24 49  1  0
 25 50  1  0
 26 51  1  0
 26 52  1  0
 27 53  1  0
 27 54  1  0
M  CHG  1   3   1
M  END
>  <UniqueID>  (10) 
10

>  <SMILES>  (10) 
CC[NH+]1CCN(C2=Nc3c(Br)cccc3CC=C2c2ccc(C)cc2)CC1

>  <Energy>  (10) 
79.2277852529466

>  <Genealogy>  (10) 
CC[NH+]1CCN(C2=Nc3c(Br)cccc3CC=C2c2ccc(C)cc2)CC1 (protonated)
CC[NH+]1CCN(C2=Nc3c(Br)cccc3CC=C2c2ccc(C)cc2)CC1 (3D coordinates assigned)
CC[NH+]1CCN(C2=Nc3c(Br)cccc3CC=C2c2ccc(C)cc2)CC1 (nonaromatic ring conformer: 79.2277852529466 kcal/mol)

>  <smiles>  (10) 
CCN1CCN(C2=Nc3c(Br)cccc3CC=C2c2ccc(C)cc2)CC1

>  <score_type>  (10) 
oracle

>  <origin>  (10) 
adg

>  <m_score__min__energy>  (10) 
-7.1399999999999997

>  <m_primary>  (10) 
energy

$$$$
10:0
     RDKit          3D

 44 46  0  0  0  0  0  0  0  0999 V2000
   -1.2320   25.7490  -28.1970 C   0  0  0  0  0  0  0  0  0  0  0  0
   -1.9880   25.2930  -29.3150 O   0  0  0  0  0  0  0  0  0  0  0  0
   -2.2460   23.9440  -29.6040 C   0  0  0  0  0  0  0  0  0  0  0  0
   -1.4090   22.9070  -29.1470 C   0  0  0  0  0  0  0  0  0  0  0  0
   -1.6920   21.5790  -29.4730 C   0  0  0  0  0  0  0  0  0  0  0  0
   -2.8080   21.2710  -30.2500 C   0  0  0  0  0  0  0  0  0  0  0  0
   -3.6470   22.2900  -30.7070 C   0  0  0  0  0  0  0  0  0  0  0  0
   -3.3700   23.6350  -30.3900 C   0  0  0  0  0  0  0  0  0  0  0  0
   -4.1770   24.6920  -30.8370 O   0  0  0  0  0  0  0  0  0  0  0  0
   -5.2460   25.2930  -30.1030 C   0  0  0  0  0  0  0  0  0  0  0  0
   -6.6090   24.8210  -30.6220 C   0  0  0  0  0  0  0  0  0  0  0  0
   -6.4600   23.5930  -31.4030 N   0  0  0  0  0  0  0  0  0  0  0  0
   -7.5890   22.7850  -31.7790 C   0  0  0  0  0  0  0  0  0  0  0  0
   -8.7520   23.2700  -31.7190 O   0  0  0  0  0  0  0  0  0  0  0  0
   -7.4210   21.3730  -32.1960 C   0  0  0  0  0  0  0  0  0  0  0  0
   -8.5100   20.4800  -32.0880 C   0  0  0  0  0  0  0  0  0  0  0  0
   -8.3690   19.1360  -32.4540 C   0  0  0  0  0  0  0  0  0  0  0  0
   -7.1390   18.6910  -32.9350 C   0  0  0  0  0  0  0  0  0  0  0  0
   -6.0750   19.5480  -33.0610 C   0  0  0  0  0  0  0  0  0  0  0  0
   -6.1920   20.8980  -32.7000 C   0  0  0  0  0  0  0  0  0  0  0  0
   -4.9010   18.9380  -33.5830 N   0  0  0  0  0  0  0  0  0  0  0  0
   -3.6410   19.6420  -33.8090 C   0  0  0  0  0  0  0  0  0  0  0  0
   -5.0700   17.5170  -33.8790 C   0  0  0  0  0  0  0  0  0  0  0  0
   -6.7900   17.0200  -33.4470 S   0  0  0  0  0  0  0  0  0  0  0  0
   -1.7344   25.4460  -27.2665 H   0  0  0  0  0  0  0  0  0  0  0  0
   -0.2251   25.3075  -28.2306 H   0  0  0  0  0  0  0  0  0  0  0  0
   -1.1528   26.8456  -28.2306 H   0  0  0  0  0  0  0  0  0  0  0  0
   -0.5291   23.1444  -28.5310 H   0  0  0  0  0  0  0  0  0  0  0  0
   -1.0329   20.7739  -29.1159 H   0  0  0  0  0  0  0  0  0  0  0  0
   -3.0282   20.2235  -30.5036 H   0  0  0  0  0  0  0  0  0  0  0  0
   -4.5279   22.0415  -31.3171 H   0  0  0  0  0  0  0  0  0  0  0  0
   -5.1515   25.0186  -29.0420 H   0  0  0  0  0  0  0  0  0  0  0  0
   -5.1844   26.3841  -30.2285 H   0  0  0  0  0  0  0  0  0  0  0  0
   -7.2752   24.6288  -29.7681 H   0  0  0  0  0  0  0  0  0  0  0  0
   -7.0361   25.6038  -31.2660 H   0  0  0  0  0  0  0  0  0  0  0  0
   -5.4960   23.1990  -31.4730 H   0  0  0  0  0  0  0  0  0  0  0  0
   -9.4779   20.8439  -31.7128 H   0  0  0  0  0  0  0  0  0  0  0  0
   -9.2169   18.4412  -32.3632 H   0  0  0  0  0  0  0  0  0  0  0  0
   -5.3350   21.5790  -32.8086 H   0  0  0  0  0  0  0  0  0  0  0  0
   -3.1847   19.8969  -32.8411 H   0  0  0  0  0  0  0  0  0  0  0  0
   -2.9567   18.9955  -34.3780 H   0  0  0  0  0  0  0  0  0  0  0  0
   -3.8329   20.5636  -34.3780 H   0  0  0  0  0  0  0  0  0  0  0  0
   -4.8918   17.3388  -34.9497 H   0  0  0  0  0  0  0  0  0  0  0  0
   -4.3519   16.9254  -33.2922 H   0  0  0  0  0  0  0  0  0  0  0  0
  1  2  1  0
  2  3  1  0
  3  4  2  0
  4  5  1  0
  5  6  2  0
  6  7  1  0
  7  8  2  0
  8  9  1  0
  9 10  1  0
 10 11  1  0
 11 12  1  0
 12 13  1  0
 13 14  2  0
 13 15  1  0
 15 16  2  0
 16 17  1  0
 17 18  2  0
 18 19  1  0
 19 20  2  0
 19 21  1  0
 21 22  1  0
 21 23  1  0
 23 24  1  0
  8  3  1  0
 20 15  1  0
 24 18  1  0
  1 25  1  0
  1 26  1  0
  1 27  1  0
  4 28  1  0
  5 29  1  0
  6 30  1  0
  7 31  1  0
 10 32  1  0
 10 33  1  0
 11 34  1  0
 11 35  1  0
 12 36  1  0
 16 37  1  0
 17 38  1  0
 20 39  1  0
 22 40  1  0
 22 41  1  0
 22 42  1  0
 23 43  1  0
 23 44  1  0
M  END
>  <UniqueID>  (11) 
11

>  <SMILES>  (11) 
COc1ccccc1OCCNC(=O)c1ccc2c(c1)N(C)CS2

>  <Energy>  (11) 
51.936125992443685

>  <Genealogy>  (11) 
COc1ccccc1OCCNC(=O)c1ccc2c(c1)N(C)CS2 (3D coordinates assigned)
COc1ccccc1OCCNC(=O)c1ccc2c(c1)N(C)CS2 (nonaromatic ring conformer: 51.936125992443685 kcal/mol)

>  <smiles>  (11) 
COc1ccccc1OCCNC(=O)c1ccc2c(c1)N(C)CS2

>  <score_type>  (11) 
oracle

>  <origin>  (11) 
adg

>  <m_score__min__energy>  (11) 
-8.8399999999999999

>  <m_primary>  (11) 
energy

$$$$
11:0
     RDKit          3D

 32 34  0  0  1  0  0  0  0  0999 V2000
   -6.0120   18.0220  -34.8100 N   0  0  0  0  0  0  0  0  0  0  0  0
   -5.5320   18.9900  -34.1110 C   0  0  0  0  0  0  0  0  0  0  0  0
   -4.2010   19.1650  -34.1410 N   0  0  0  0  0  0  0  0  0  0  0  0
   -3.6910   20.1750  -33.4110 C   0  0  0  0  0  0  0  0  0  0  0  0
   -4.4740   21.0000  -32.6650 N   0  0  0  0  0  0  0  0  0  0  0  0
   -5.8060   20.8070  -32.6480 C   0  0  0  0  0  0  0  0  0  0  0  0
   -6.3830   19.7770  -33.3850 C   0  0  0  0  0  0  0  0  0  0  0  0
   -7.7030   19.8330  -33.1740 N   0  0  0  0  0  0  0  0  0  0  0  0
   -7.9510   20.8570  -32.3380 C   0  0  0  0  0  0  0  0  0  0  0  0
   -6.7820   21.4690  -32.0050 N   0  0  0  0  0  0  0  0  0  0  0  0
   -6.7190   22.5990  -31.1250 C   0  0  2  0  0  0  0  0  0  0  0  0
   -6.4440   23.9110  -31.8190 C   0  0  0  0  0  0  0  0  0  0  0  0
   -6.2260   24.7980  -30.5870 C   0  0  0  0  0  0  0  0  0  0  0  0
   -5.2610   23.9480  -29.7880 C   0  0  2  0  0  0  0  0  0  0  0  0
   -3.8530   24.4420  -30.0970 C   0  0  0  0  0  0  0  0  0  0  0  0
   -3.8810   25.6290  -30.8440 O   0  0  0  0  0  0  0  0  0  0  0  0
   -5.4640   22.5190  -30.2450 C   0  0  0  0  0  0  0  0  0  0  0  0
   -6.8740   18.0910  -35.3710 H   0  0  0  0  0  0  0  0  0  0  0  0
   -3.5980   18.5400  -34.7080 H   0  0  0  0  0  0  0  0  0  0  0  0
   -2.6033   20.3386  -33.4182 H   0  0  0  0  0  0  0  0  0  0  0  0
   -8.9470   21.1545  -31.9782 H   0  0  0  0  0  0  0  0  0  0  0  0
   -7.6933   22.5696  -30.6151 H   0  0  0  0  0  0  0  0  0  0  0  0
   -5.5473   23.8608  -32.4541 H   0  0  0  0  0  0  0  0  0  0  0  0
   -7.2276   24.2511  -32.5121 H   0  0  0  0  0  0  0  0  0  0  0  0
   -5.7813   25.7664  -30.8597 H   0  0  0  0  0  0  0  0  0  0  0  0
   -7.1485   25.0640  -30.0501 H   0  0  0  0  0  0  0  0  0  0  0  0
   -5.4215   24.0093  -28.7015 H   0  0  0  0  0  0  0  0  0  0  0  0
   -3.3225   24.6264  -29.1512 H   0  0  0  0  0  0  0  0  0  0  0  0
   -3.3373   23.6716  -30.6891 H   0  0  0  0  0  0  0  0  0  0  0  0
   -3.2540   25.5990  -31.5900 H   0  0  0  0  0  0  0  0  0  0  0  0
   -4.5990   22.1651  -30.8251 H   0  0  0  0  0  0  0  0  0  0  0  0
   -5.5717   21.8129  -29.4084 H   0  0  0  0  0  0  0  0  0  0  0  0
  1  2  2  3
  2  3  1  0
  3  4  1  0
  4  5  2  0
  5  6  1  0
  6  7  2  0
  7  8  1  0
  8  9  2  0
  9 10  1  0
 10 11  1  0
 11 12  1  0
 12 13  1  0
 13 14  1  0
 14 15  1  0
 15 16  1  0
 14 17  1  0
  7  2  1  0
 17 11  1  0
 10  6  1  0
  1 18  1  0
  3 19  1  0
  4 20  1  0
  9 21  1  0
 11 22  1  1
 12 23  1  0
 12 24  1  0
 13 25  1  0
 13 26  1  0
 14 27  1  1
 15 28  1  0
 15 29  1  0
 16 30  1  0
 17 31  1  0
 17 32  1  0
M  END
>  <smiles>  (12) 
N=c1[nH]cnc2c1ncn2C1CCC(CO)C1

>  <score_type>  (12) 
oracle

>  <origin>  (12) 
adg

>  <m_score__min__energy>  (12) 
-7.3600000000000003

>  <m_primary>  (12) 
energy

$$$$
12:0
     RDKit          3D

 50 54  0  0  0  0  0  0  0  0999 V2000
   -2.6310   21.8460  -31.1680 O   0  0  0  0  0  0  0  0  0  0  0  0
   -3.0990   21.8640  -32.3420 C   0  0  0  0  0  0  0  0  0  0  0  0
   -2.3430   21.1840  -33.4490 C   0  0  0  0  0  0  0  0  0  0  0  0
   -2.7580   19.7730  -33.5840 N   0  0  0  0  0  0  0  0  0  0  0  0
   -4.0990   19.5170  -33.6850 C   0  0  0  0  0  0  0  0  0  0  0  0
   -4.5930   18.2140  -33.8230 C   0  0  0  0  0  0  0  0  0  0  0  0
   -6.0570   17.9910  -33.9430 C   0  0  0  0  0  0  0  0  0  0  0  0
   -6.4800   17.2000  -34.8280 O   0  0  0  0  0  0  0  0  0  0  0  0
   -7.0330   18.6780  -33.0580 C   0  0  0  0  0  0  0  0  0  0  0  0
   -7.8020   17.9540  -32.1260 C   0  0  0  0  0  0  0  0  0  0  0  0
   -8.7310   18.6110  -31.3140 C   0  0  0  0  0  0  0  0  0  0  0  0
   -8.9080   19.9930  -31.4250 C   0  0  0  0  0  0  0  0  0  0  0  0
   -8.1580   20.7210  -32.3530 C   0  0  0  0  0  0  0  0  0  0  0  0
   -7.2280   20.0690  -33.1700 C   0  0  0  0  0  0  0  0  0  0  0  0
   -3.6890   17.1450  -33.8860 C   0  0  0  0  0  0  0  0  0  0  0  0
   -4.1200   15.9640  -34.0110 O   0  0  0  0  0  0  0  0  0  0  0  0
   -2.3090   17.3900  -33.8010 C   0  0  0  0  0  0  0  0  0  0  0  0
   -1.3820   16.3210  -33.8670 C   0  0  0  0  0  0  0  0  0  0  0  0
   -0.0290   16.6180  -33.7880 C   0  0  0  0  0  0  0  0  0  0  0  0
    0.4210   17.8850  -33.6480 C   0  0  0  0  0  0  0  0  0  0  0  0
   -0.4410   18.9720  -33.5750 C   0  0  0  0  0  0  0  0  0  0  0  0
   -1.8440   18.7390  -33.6470 C   0  0  0  0  0  0  0  0  0  0  0  0
    1.8020   17.8800  -33.5990 O   0  0  0  0  0  0  0  0  0  0  0  0
    2.2460   16.5220  -33.7130 C   0  0  0  0  0  0  0  0  0  0  0  0
    1.0450   15.7480  -33.8330 O   0  0  0  0  0  0  0  0  0  0  0  0
   -4.3400   22.5310  -32.6260 N   0  0  0  0  0  0  0  0  0  0  0  0
   -5.0650   23.3310  -31.6770 C   0  0  0  0  0  0  0  0  0  0  0  0
   -6.4680   23.3650  -31.7370 C   0  0  0  0  0  0  0  0  0  0  0  0
   -7.1950   24.1510  -30.8410 C   0  0  0  0  0  0  0  0  0  0  0  0
   -6.5310   24.9210  -29.8830 C   0  0  0  0  0  0  0  0  0  0  0  0
   -7.2360   25.6840  -29.0150 F   0  0  0  0  0  0  0  0  0  0  0  0
   -5.1350   24.9130  -29.8290 C   0  0  0  0  0  0  0  0  0  0  0  0
   -4.4020   24.1320  -30.7270 C   0  0  0  0  0  0  0  0  0  0  0  0
   -2.5406   21.7092  -34.3951 H   0  0  0  0  0  0  0  0  0  0  0  0
   -1.2698   21.2124  -33.2095 H   0  0  0  0  0  0  0  0  0  0  0  0
   -4.8078   20.3577  -33.6570 H   0  0  0  0  0  0  0  0  0  0  0  0
   -7.6707   16.8655  -32.0367 H   0  0  0  0  0  0  0  0  0  0  0  0
   -9.3244   18.0388  -30.5857 H   0  0  0  0  0  0  0  0  0  0  0  0
   -9.6374   20.5076  -30.7822 H   0  0  0  0  0  0  0  0  0  0  0  0
   -8.2992   21.8083  -32.4411 H   0  0  0  0  0  0  0  0  0  0  0  0
   -6.6458   20.6455  -33.9039 H   0  0  0  0  0  0  0  0  0  0  0  0
   -1.7260   15.2821  -33.9780 H   0  0  0  0  0  0  0  0  0  0  0  0
   -0.0473   19.9931  -33.4637 H   0  0  0  0  0  0  0  0  0  0  0  0
    2.8782   16.3954  -34.6042 H   0  0  0  0  0  0  0  0  0  0  0  0
    2.8531   16.2118  -32.8497 H   0  0  0  0  0  0  0  0  0  0  0  0
   -4.7940   22.3410  -33.5490 H   0  0  0  0  0  0  0  0  0  0  0  0
   -6.9972   22.7686  -32.4947 H   0  0  0  0  0  0  0  0  0  0  0  0
   -8.2939   24.1640  -30.8895 H   0  0  0  0  0  0  0  0  0  0  0  0
   -4.6115   25.5228  -29.0780 H   0  0  0  0  0  0  0  0  0  0  0  0
   -3.3026   24.1430  -30.6916 H   0  0  0  0  0  0  0  0  0  0  0  0
  1  2  2  0
  2  3  1  0
  3  4  1  0
  4  5  1  0
  5  6  2  0
  6  7  1  0
  7  8  2  0
  7  9  1  0
  9 10  2  0
 10 11  1  0
 11 12  2  0
 12 13  1  0
 13 14  2  0
  6 15  1  0
 15 16  2  0
 15 17  1  0
 17 18  2  0
 18 19  1  0
 19 20  2  0
 20 21  1  0
 21 22  2  0
 20 23  1  0
 23 24  1  0
 24 25  1  0
  2 26  1  0
 26 27  1  0
 27 28  2  0
 28 29  1  0
 29 30  2  0
 30 31  1  0
 30 32  1  0
 32 33  2  0
 22  4  1  0
 33 27  1  0
 14  9  1  0
 22 17  1  0
 25 19  1  0
  3 34  1  0
  3 35  1  0
  5 36  1  0
 10 37  1  0
 11 38  1  0
 12 39  1  0
 13 40  1  0
 14 41  1  0
 18 42  1  0
 21 43  1  0
 24 44  1  0
 24 45  1  0
 26 46  1  0
 28 47  1  0
 29 48  1  0
 32 49  1  0
 33 50  1  0
M  END
>  <UniqueID>  (13) 
12

>  <SMILES>  (13) 
O=C(Cn1cc(C(=O)c2ccccc2)c(=O)c2cc3c(cc21)OCO3)Nc1ccc(F)cc1

>  <Energy>  (13) 
103.47416047761713

>  <Genealogy>  (13) 
O=C(Cn1cc(C(=O)c2ccccc2)c(=O)c2cc3c(cc21)OCO3)Nc1ccc(F)cc1 (3D coordinates assigned)
O=C(Cn1cc(C(=O)c2ccccc2)c(=O)c2cc3c(cc21)OCO3)Nc1ccc(F)cc1 (nonaromatic ring conformer: 103.47416047761713 kcal/mol)

>  <smiles>  (13) 
O=C(Cn1cc(C(=O)c2ccccc2)c(=O)c2cc3c(cc21)OCO3)Nc1ccc(F)cc1

>  <score_type>  (13) 
oracle

>  <origin>  (13) 
adg

>  <m_score__min__energy>  (13) 
-9.4399999999999995

>  <m_primary>  (13) 
energy

$$$$
13:0
     RDKit          3D

 44 47  0  0  0  0  0  0  0  0999 V2000
   -0.4510   20.4430  -34.6460 C   0  0  0  0  0  0  0  0  0  0  0  0
   -1.5890   20.2660  -33.8090 O   0  0  0  0  0  0  0  0  0  0  0  0
   -1.8760   21.0550  -32.6850 C   0  0  0  0  0  0  0  0  0  0  0  0
   -0.9080   21.1560  -31.6810 C   0  0  0  0  0  0  0  0  0  0  0  0
   -1.1440   21.9320  -30.5450 C   0  0  0  0  0  0  0  0  0  0  0  0
   -2.3530   22.6140  -30.4000 C   0  0  0  0  0  0  0  0  0  0  0  0
   -3.3490   22.5140  -31.3880 C   0  0  0  0  0  0  0  0  0  0  0  0
   -4.6330   23.2430  -31.2510 C   0  0  0  0  0  0  0  0  0  0  0  0
   -4.6120   24.4370  -30.8440 O   0  0  0  0  0  0  0  0  0  0  0  0
   -5.9380   22.6210  -31.5780 C   0  0  0  0  0  0  0  0  0  0  0  0
   -7.1450   23.3100  -31.3000 C   0  0  0  0  0  0  0  0  0  0  0  0
   -8.3890   22.7290  -31.6000 C   0  0  0  0  0  0  0  0  0  0  0  0
   -8.3850   21.4750  -32.1970 C   0  0  0  0  0  0  0  0  0  0  0  0
   -9.4650   20.7410  -32.5340 N   0  0  0  0  0  0  0  0  0  0  0  0
   -8.9820   19.6170  -33.0520 N   0  0  0  0  0  0  0  0  0  0  0  0
   -7.6340   19.6870  -33.0320 C   0  0  0  0  0  0  0  0  0  0  0  0
   -6.7660   18.6690  -33.5470 N   0  0  0  0  0  0  0  0  0  0  0  0
   -6.6140   17.3700  -32.9130 C   0  0  0  0  0  0  0  0  0  0  0  0
   -5.5260   16.6540  -33.7020 C   0  0  0  0  0  0  0  0  0  0  0  0
   -4.7800   17.7490  -34.4750 C   0  0  2  0  0  0  0  0  0  0  0  0
   -3.5770   18.0930  -33.8310 O   0  0  0  0  0  0  0  0  0  0  0  0
   -5.7360   18.9440  -34.5330 C   0  0  0  0  0  0  0  0  0  0  0  0
   -7.2330   20.8500  -32.4900 N   0  0  0  0  0  0  0  0  0  0  0  0
   -6.0080   21.3540  -32.1970 C   0  0  0  0  0  0  0  0  0  0  0  0
   -3.0970   21.7430  -32.5370 C   0  0  0  0  0  0  0  0  0  0  0  0
    0.4445   20.5823  -34.0226 H   0  0  0  0  0  0  0  0  0  0  0  0
   -0.3211   19.5543  -35.2810 H   0  0  0  0  0  0  0  0  0  0  0  0
   -0.5972   21.3292  -35.2810 H   0  0  0  0  0  0  0  0  0  0  0  0
    0.0466   20.6199  -31.7872 H   0  0  0  0  0  0  0  0  0  0  0  0
   -0.3750   22.0062  -29.7619 H   0  0  0  0  0  0  0  0  0  0  0  0
   -2.5279   23.2333  -29.5079 H   0  0  0  0  0  0  0  0  0  0  0  0
   -7.1077   24.3105  -30.8444 H   0  0  0  0  0  0  0  0  0  0  0  0
   -9.3311   23.2483  -31.3704 H   0  0  0  0  0  0  0  0  0  0  0  0
   -9.5680   18.8400  -33.4290 H   0  0  0  0  0  0  0  0  0  0  0  0
   -6.3113   17.4887  -31.8622 H   0  0  0  0  0  0  0  0  0  0  0  0
   -7.5571   16.8037  -32.9140 H   0  0  0  0  0  0  0  0  0  0  0  0
   -4.8393   16.1313  -33.0199 H   0  0  0  0  0  0  0  0  0  0  0  0
   -5.9488   15.8973  -34.3792 H   0  0  0  0  0  0  0  0  0  0  0  0
   -4.5009   17.4096  -35.4834 H   0  0  0  0  0  0  0  0  0  0  0  0
   -3.2430   18.9350  -34.2380 H   0  0  0  0  0  0  0  0  0  0  0  0
   -5.2039   19.8738  -34.2832 H   0  0  0  0  0  0  0  0  0  0  0  0
   -6.1609   19.0766  -35.5389 H   0  0  0  0  0  0  0  0  0  0  0  0
   -5.0938   20.7906  -32.4353 H   0  0  0  0  0  0  0  0  0  0  0  0
   -3.8596   21.6764  -33.3270 H   0  0  0  0  0  0  0  0  0  0  0  0
  1  2  1  0
  2  3  1  0
  3  4  2  0
  4  5  1  0
  5  6  2  0
  6  7  1  0
  7  8  1  0
  8  9  2  0
  8 10  1  0
 10 11  1  0
 11 12  2  0
 12 13  1  0
 13 14  2  0
 14 15  1  0
 15 16  2  0
 16 17  1  0
 17 18  1  0
 18 19  1  0
 19 20  1  0
 20 21  1  0
 20 22  1  0
 16 23  1  0
 23 24  1  0
  7 25  2  0
 25  3  1  0
 24 10  2  0
 23 13  1  0
 22 17  1  0
  1 26  1  0
  1 27  1  0
  1 28  1  0
  4 29  1  0
  5 30  1  0
  6 31  1  0
 11 32  1  0
 12 33  1  0
 15 34  1  0
 18 35  1  0
 18 36  1  0
 19 37  1  0
 19 38  1  0
 20 39  1  6
 21 40  1  0
 22 41  1  0
 22 42  1  0
 24 43  1  0
 25 44  1  0
M  CHG  1  15   1
M  END
>  <UniqueID>  (14) 
13

>  <SMILES>  (14) 
COc1cccc(C(=O)c2ccc3n[nH+]c(N4CC[C@H](O)C4)n3c2)c1

>  <Energy>  (14) 
100.78155678766113

>  <Genealogy>  (14) 
COc1cccc(C(=O)c2ccc3n[nH+]c(N4CCC(O)C4)n3c2)c1 (protonated)
COc1cccc(C(=O)c2ccc3n[nH+]c(N4CC[C@H](O)C4)n3c2)c1 (chirality)
COc1cccc(C(=O)c2ccc3n[nH+]c(N4CC[C@H](O)C4)n3c2)c1 (3D coordinates assigned)
COc1cccc(C(=O)c2ccc3n[nH+]c(N4CC[C@H](O)C4)n3c2)c1 (nonaromatic ring conformer: 100.78155678766113 kcal/mol)

>  <smiles>  (14) 
COc1cccc(C(=O)c2ccc3nnc(N4CCC(O)C4)n3c2)c1

>  <score_type>  (14) 
oracle

>  <origin>  (14) 
adg

>  <m_score__min__energy>  (14) 
-8.2200000000000006

>  <m_primary>  (14) 
energy

$$$$
14:0
     RDKit          3D

 28 29  0  0  0  0  0  0  0  0999 V2000
   -6.5010   25.5824  -31.1824 H   0  0  0  0  0  0  0  0  0  0  0  0
   -6.1370   24.5510  -31.3000 C   0  0  0  0  0  0  0  0  0  0  0  0
   -6.7070   23.8020  -32.2580 C   0  0  0  0  0  0  0  0  0  0  0  0
   -6.7566   24.2287  -33.2706 H   0  0  0  0  0  0  0  0  0  0  0  0
   -7.2730   22.4510  -32.0620 C   0  0  0  0  0  0  0  0  0  0  0  0
   -8.5880   22.2710  -31.5950 C   0  0  0  0  0  0  0  0  0  0  0  0
   -9.2031   23.1463  -31.3390 H   0  0  0  0  0  0  0  0  0  0  0  0
   -9.1160   20.9840  -31.4550 C   0  0  0  0  0  0  0  0  0  0  0  0
  -10.1422   20.8511  -31.0818 H   0  0  0  0  0  0  0  0  0  0  0  0
   -8.3440   19.8620  -31.7880 C   0  0  0  0  0  0  0  0  0  0  0  0
   -8.9250   18.4850  -31.6750 C   0  0  0  0  0  0  0  0  0  0  0  0
   -9.0367   18.2202  -30.6132 H   0  0  0  0  0  0  0  0  0  0  0  0
   -9.9098   18.4613  -32.1644 H   0  0  0  0  0  0  0  0  0  0  0  0
   -8.2548   17.7630  -32.1644 H   0  0  0  0  0  0  0  0  0  0  0  0
   -7.0510   20.0440  -32.3030 C   0  0  0  0  0  0  0  0  0  0  0  0
   -6.4519   19.1704  -32.5994 H   0  0  0  0  0  0  0  0  0  0  0  0
   -6.5210   21.3300  -32.4410 C   0  0  0  0  0  0  0  0  0  0  0  0
   -5.5083   21.4633  -32.8492 H   0  0  0  0  0  0  0  0  0  0  0  0
   -5.0590   24.1030  -30.3890 C   0  0  0  0  0  0  0  0  0  0  0  0
   -3.8060   24.6340  -30.4730 N   0  0  0  0  0  0  0  0  0  0  0  0
   -2.8090   24.2670  -29.6260 C   0  0  0  0  0  0  0  0  0  0  0  0
   -1.8068   24.7076  -29.7330 H   0  0  0  0  0  0  0  0  0  0  0  0
   -3.0560   23.3310  -28.6200 C   0  0  0  0  0  0  0  0  0  0  0  0
   -2.2523   23.0261  -27.9336 H   0  0  0  0  0  0  0  0  0  0  0  0
   -4.3350   22.7870  -28.4960 C   0  0  0  0  0  0  0  0  0  0  0  0
   -4.5466   22.0525  -27.7050 H   0  0  0  0  0  0  0  0  0  0  0  0
   -5.3460   23.1760  -29.3770 C   0  0  0  0  0  0  0  0  0  0  0  0
   -6.3590   22.7588  -29.2779 H   0  0  0  0  0  0  0  0  0  0  0  0
  1  2  1  0
  2  3  2  0
  3  4  1  0
  3  5  1  0
  5  6  2  0
  6  7  1  0
  6  8  1  0
  8  9  1  0
  8 10  2  0
 10 11  1  0
 11 12  1  0
 11 13  1  0
 11 14  1  0
 10 15  1  0
 15 16  1  0
 15 17  2  0
 17 18  1  0
  2 19  1  0
 19 20  2  0
 20 21  1  0
 21 22  1  0
 21 23  2  0
 23 24  1  0
 23 25  1  0
 25 26  1  0
 25 27  2  0
 27 28  1  0
 17  5  1  0
 27 19  1  0
M  END
>  <UniqueID>  (15) 
14

>  <SMILES>  (15) 
Cc1ccc(/C=C\c2ccccn2)cc1

>  <Energy>  (15) 
36.33042453629376

>  <Genealogy>  (15) 
Cc1ccc(/C=C\c2ccccn2)cc1 (cis-trans isomerization)
Cc1ccc(/C=C\c2ccccn2)cc1 (3D coordinates assigned)
Cc1ccc(/C=C\c2ccccn2)cc1 (optimized conformer: 36.33042453629376 kcal/mol)

>  <smiles>  (15) 
Cc1ccc(C=Cc2ccccn2)cc1

>  <score_type>  (15) 
oracle

>  <origin>  (15) 
adg

>  <m_score__min__energy>  (15) 
-6.9299999999999997

>  <m_primary>  (15) 
energy

$$$$
15:0
     RDKit          3D

 26 27  0  0  0  0  0  0  0  0999 V2000
   -4.9813   25.9069  -30.1926 H   0  0  0  0  0  0  0  0  0  0  0  0
   -4.8350   24.8550  -30.4790 C   0  0  0  0  0  0  0  0  0  0  0  0
   -5.3620   24.4310  -31.5910 N   0  0  0  0  0  0  0  0  0  0  0  0
   -6.1320   23.2350  -31.7650 C   0  0  0  0  0  0  0  0  0  0  0  0
   -7.4060   22.7950  -30.7430 S   0  0  0  0  0  0  0  0  0  0  0  0
   -7.6230   21.3260  -31.5320 C   0  0  0  0  0  0  0  0  0  0  0  0
   -8.5520   20.3250  -31.2630 C   0  0  0  0  0  0  0  0  0  0  0  0
   -9.2858   20.4377  -30.4513 H   0  0  0  0  0  0  0  0  0  0  0  0
   -8.5260   19.1660  -32.0580 C   0  0  0  0  0  0  0  0  0  0  0  0
   -9.4140   18.1700  -31.8270 F   0  0  0  0  0  0  0  0  0  0  0  0
   -7.5780   19.0350  -33.0930 C   0  0  0  0  0  0  0  0  0  0  0  0
   -7.5656   18.1246  -33.7102 H   0  0  0  0  0  0  0  0  0  0  0  0
   -6.6480   20.0600  -33.3420 C   0  0  0  0  0  0  0  0  0  0  0  0
   -5.9043   19.9591  -34.1462 H   0  0  0  0  0  0  0  0  0  0  0  0
   -6.6870   21.2090  -32.5480 C   0  0  0  0  0  0  0  0  0  0  0  0
   -5.8450   22.2670  -32.6710 N   0  0  0  0  0  0  0  0  0  0  0  0
   -5.0580   22.3050  -33.3560 H   0  0  0  0  0  0  0  0  0  0  0  0
   -4.0700   24.0040  -29.6110 N   0  0  0  0  0  0  0  0  0  0  0  0
   -4.2880   24.1080  -28.1700 C   0  0  0  0  0  0  0  0  0  0  0  0
   -3.4196   23.6937  -27.6369 H   0  0  0  0  0  0  0  0  0  0  0  0
   -4.4176   25.1649  -27.8941 H   0  0  0  0  0  0  0  0  0  0  0  0
   -5.1910   23.5437  -27.8941 H   0  0  0  0  0  0  0  0  0  0  0  0
   -2.8210   23.4160  -30.1040 C   0  0  0  0  0  0  0  0  0  0  0  0
   -2.1930   23.1204  -29.2506 H   0  0  0  0  0  0  0  0  0  0  0  0
   -3.0489   22.5306  -30.7157 H   0  0  0  0  0  0  0  0  0  0  0  0
   -2.2838   24.1558  -30.7157 H   0  0  0  0  0  0  0  0  0  0  0  0
  1  2  1  0
  2  3  2  0
  3  4  1  0
  4  5  1  0
  5  6  1  0
  6  7  2  0
  7  8  1  0
  7  9  1  0
  9 10  1  0
  9 11  2  0
 11 12  1  0
 11 13  1  0
 13 14  1  0
 13 15  2  0
 15 16  1  0
 16 17  1  0
  2 18  1  0
 18 19  1  0
 19 20  1  0
 19 21  1  0
 19 22  1  0
 18 23  1  0
 23 24  1  0
 23 25  1  0
 23 26  1  0
 16  4  2  0
 15  6  1  0
M  CHG  1  16   1
M  END
>  <UniqueID>  (16) 
15

>  <SMILES>  (16) 
CN(C)/C=N\c1[nH+]c2ccc(F)cc2s1

>  <Energy>  (16) 
67.02882898104032

>  <Genealogy>  (16) 
CN(C)C=Nc1[nH+]c2ccc(F)cc2s1 (protonated)
CN(C)/C=N\c1[nH+]c2ccc(F)cc2s1 (cis-trans isomerization)
CN(C)/C=N\c1[nH+]c2ccc(F)cc2s1 (3D coordinates assigned)
CN(C)/C=N\c1[nH+]c2ccc(F)cc2s1 (optimized conformer: 67.02882898104032 kcal/mol)

>  <smiles>  (16) 
CN(C)C=Nc1nc2ccc(F)cc2s1

>  <score_type>  (16) 
oracle

>  <origin>  (16) 
adg

>  <m_score__min__energy>  (16) 
-5.5700000000000003

>  <m_primary>  (16) 
energy

$$$$
16:0
     RDKit          3D

 71 75  0  0  0  0  0  0  0  0999 V2000
   -4.7124   21.3676  -34.2789 H   0  0  0  0  0  0  0  0  0  0  0  0
   -4.4050   21.6700  -33.2670 C   0  0  0  0  0  0  0  0  0  0  0  0
   -5.1340   22.5290  -32.6150 N   0  0  0  0  0  0  0  0  0  0  0  0
   -4.7760   23.0990  -31.3520 C   0  0  0  0  0  0  0  0  0  0  0  0
   -3.2040   23.4030  -30.8340 S   0  0  0  0  0  0  0  0  0  0  0  0
   -3.6540   24.1780  -29.4090 C   0  0  0  0  0  0  0  0  0  0  0  0
   -2.7240   24.7960  -28.4600 C   0  0  0  0  0  0  0  0  0  0  0  0
   -2.8290   24.6250  -27.1140 N   0  0  0  0  0  0  0  0  0  0  0  0
   -1.8530   25.4180  -26.6470 C   0  0  0  0  0  0  0  0  0  0  0  0
   -1.5380   25.6880  -25.3180 C   0  0  0  0  0  0  0  0  0  0  0  0
   -2.0721   25.1913  -24.4946 H   0  0  0  0  0  0  0  0  0  0  0  0
   -0.5120   26.6190  -25.0640 C   0  0  0  0  0  0  0  0  0  0  0  0
   -0.2301   26.8537  -24.0269 H   0  0  0  0  0  0  0  0  0  0  0  0
    0.1580   27.2540  -26.1370 C   0  0  0  0  0  0  0  0  0  0  0  0
    0.9526   27.9860  -25.9302 H   0  0  0  0  0  0  0  0  0  0  0  0
   -0.1880   26.9530  -27.4660 C   0  0  0  0  0  0  0  0  0  0  0  0
    0.3272   27.4343  -28.3103 H   0  0  0  0  0  0  0  0  0  0  0  0
   -1.2050   26.0250  -27.6780 C   0  0  0  0  0  0  0  0  0  0  0  0
   -1.7420   25.6540  -28.8490 N   0  0  0  0  0  0  0  0  0  0  0  0
   -5.0460   24.2230  -29.3300 C   0  0  0  0  0  0  0  0  0  0  0  0
   -5.5948   24.6746  -28.4904 H   0  0  0  0  0  0  0  0  0  0  0  0
   -5.6720   23.6280  -30.4410 C   0  0  0  0  0  0  0  0  0  0  0  0
   -7.0560   23.5410  -30.6300 O   0  0  0  0  0  0  0  0  0  0  0  0
   -7.6710   23.1610  -31.8620 C   0  0  0  0  0  0  0  0  0  0  0  0
   -6.9567   23.3036  -32.6862 H   0  0  0  0  0  0  0  0  0  0  0  0
   -8.5612   23.7846  -32.0317 H   0  0  0  0  0  0  0  0  0  0  0  0
   -8.0790   21.7220  -31.8010 C   0  0  0  0  0  0  0  0  0  0  0  0
   -9.3270   21.2810  -32.0520 N   0  0  0  0  0  0  0  0  0  0  0  0
   -9.2730   19.9560  -32.0300 N   0  0  0  0  0  0  0  0  0  0  0  0
   -8.0370   19.5530  -31.7750 N   0  0  0  0  0  0  0  0  0  0  0  0
   -7.5990   18.1620  -31.8260 C   0  0  0  0  0  0  0  0  0  0  0  0
   -8.4386   17.5049  -31.5554 H   0  0  0  0  0  0  0  0  0  0  0  0
   -6.7703   18.0166  -31.1174 H   0  0  0  0  0  0  0  0  0  0  0  0
   -7.1220   17.8200  -33.2350 C   0  0  0  0  0  0  0  0  0  0  0  0
   -7.9915   17.6844  -33.8950 H   0  0  0  0  0  0  0  0  0  0  0  0
   -6.5354   16.8898  -33.2109 H   0  0  0  0  0  0  0  0  0  0  0  0
   -6.3180   18.8760  -33.7230 O   0  0  0  0  0  0  0  0  0  0  0  0
   -5.7290   18.5340  -34.9660 C   0  0  0  0  0  0  0  0  0  0  0  0
   -5.5839   19.4534  -35.5521 H   0  0  0  0  0  0  0  0  0  0  0  0
   -6.4065   17.8321  -35.4743 H   0  0  0  0  0  0  0  0  0  0  0  0
   -4.3750   17.8370  -34.8030 C   0  0  0  0  0  0  0  0  0  0  0  0
   -3.6169   18.3640  -35.4010 H   0  0  0  0  0  0  0  0  0  0  0  0
   -4.4548   16.7955  -35.1478 H   0  0  0  0  0  0  0  0  0  0  0  0
   -3.9970   17.8550  -33.4410 O   0  0  0  0  0  0  0  0  0  0  0  0
   -3.4790   16.5980  -33.0430 C   0  0  0  0  0  0  0  0  0  0  0  0
   -2.7287   16.7531  -32.2537 H   0  0  0  0  0  0  0  0  0  0  0  0
   -3.0253   16.1152  -33.9211 H   0  0  0  0  0  0  0  0  0  0  0  0
   -4.5840   15.6870  -32.5080 C   0  0  0  0  0  0  0  0  0  0  0  0
   -5.4419   16.2988  -32.1922 H   0  0  0  0  0  0  0  0  0  0  0  0
   -4.2025   15.1161  -31.6486 H   0  0  0  0  0  0  0  0  0  0  0  0
   -5.0050   14.7650  -33.5520 N   0  0  0  0  0  0  0  0  0  0  0  0
   -6.1230   14.8590  -34.0600 N   0  0  0  0  0  0  0  0  0  0  0  0
   -7.2390   14.9510  -34.5690 N   0  0  0  0  0  0  0  0  0  0  0  0
   -7.2520   20.6320  -31.6330 C   0  0  0  0  0  0  0  0  0  0  0  0
   -6.1718   20.6442  -31.4254 H   0  0  0  0  0  0  0  0  0  0  0  0
   -3.2090   21.1050  -32.7020 N   0  0  0  0  0  0  0  0  0  0  0  0
   -3.3100   20.2310  -31.5260 C   0  0  0  0  0  0  0  0  0  0  0  0
   -4.2499   20.4479  -30.9972 H   0  0  0  0  0  0  0  0  0  0  0  0
   -3.2893   19.1851  -31.8660 H   0  0  0  0  0  0  0  0  0  0  0  0
   -2.1290   20.4550  -30.5640 C   0  0  0  0  0  0  0  0  0  0  0  0
   -2.3932   21.2700  -29.8741 H   0  0  0  0  0  0  0  0  0  0  0  0
   -1.9550   19.5023  -30.0423 H   0  0  0  0  0  0  0  0  0  0  0  0
   -0.8090   20.8270  -31.2750 C   0  0  0  0  0  0  0  0  0  0  0  0
   -0.6511   21.9114  -31.1788 H   0  0  0  0  0  0  0  0  0  0  0  0
   -0.0013   20.2538  -30.7964 H   0  0  0  0  0  0  0  0  0  0  0  0
   -0.8150   20.4630  -32.7630 C   0  0  0  0  0  0  0  0  0  0  0  0
    0.1392   20.7712  -33.2153 H   0  0  0  0  0  0  0  0  0  0  0  0
   -0.9475   19.3756  -32.8636 H   0  0  0  0  0  0  0  0  0  0  0  0
   -1.9680   21.1730  -33.4830 C   0  0  0  0  0  0  0  0  0  0  0  0
   -1.6987   22.2285  -33.6361 H   0  0  0  0  0  0  0  0  0  0  0  0
   -2.1370   20.6700  -34.4465 H   0  0  0  0  0  0  0  0  0  0  0  0
  1  2  1  0
  2  3  2  0
  3  4  1  0
  4  5  1  0
  5  6  1  0
  6  7  1  0
  7  8  2  0
  8  9  1  0
  9 10  2  0
 10 11  1  0
 10 12  1  0
 12 13  1  0
 12 14  2  0
 14 15  1  0
 14 16  1  0
 16 17  1  0
 16 18  2  0
 18 19  1  0
  6 20  2  0
 20 21  1  0
 20 22  1  0
 22 23  1  0
 23 24  1  0
 24 25  1  0
 24 26  1  0
 24 27  1  0
 27 28  1  0
 28 29  2  0
 29 30  1  0
 30 31  1  0
 31 32  1  0
 31 33  1  0
 31 34  1  0
 34 35  1  0
 34 36  1  0
 34 37  1  0
 37 38  1  0
 38 39  1  0
 38 40  1  0
 38 41  1  0
 41 42  1  0
 41 43  1  0
 41 44  1  0
 44 45  1  0
 45 46  1  0
 45 47  1  0
 45 48  1  0
 48 49  1  0
 48 50  1  0
 48 51  1  0
 51 52  2  0
 52 53  2  0
 30 54  1  0
 54 55  1  0
  2 56  1  0
 56 57  1  0
 57 58  1  0
 57 59  1  0
 57 60  1  0
 60 61  1  0
 60 62  1  0
 60 63  1  0
 63 64  1  0
 63 65  1  0
 63 66  1  0
 66 67  1  0
 66 68  1  0
 66 69  1  0
 69 70  1  0
 69 71  1  0
 22  4  2  0
 54 27  2  0
 69 56  1  0
 19  7  1  0
 18  9  1  0
M  CHG  3  19  -1  52   1  53  -1
M  END
>  <UniqueID>  (17) 
16

>  <SMILES>  (17) 
[N-]=[N+]=NCCOCCOCCn1cc(COc2cc(-c3nc4ccccc4[n-]3)sc2/N=C\N2CCCCC2)nn1

>  <Energy>  (17) 
170.62056962312033

>  <Genealogy>  (17) 
[N-]=[N+]=NCCOCCOCCn1cc(COc2cc(-c3nc4ccccc4[n-]3)sc2N=CN2CCCCC2)nn1 (protonated)
[N-]=[N+]=NCCOCCOCCn1cc(COc2cc(-c3nc4ccccc4[n-]3)sc2/N=C\N2CCCCC2)nn1 (cis-trans isomerization)
[N-]=[N+]=NCCOCCOCCn1cc(COc2cc(-c3nc4ccccc4[n-]3)sc2/N=C\N2CCCCC2)nn1 (3D coordinates assigned)
[N-]=[N+]=NCCOCCOCCn1cc(COc2cc(-c3nc4ccccc4[n-]3)sc2/N=C\N2CCCCC2)nn1 (nonaromatic ring conformer: 170.62056962312033 kcal/mol)

>  <smiles>  (17) 
[N-]=[N+]=NCCOCCOCCn1cc(COc2cc(-c3nc4ccccc4[nH]3)sc2N=CN2CCCCC2)nn1

>  <score_type>  (17) 
oracle

>  <origin>  (17) 
adg

>  <m_score__min__energy>  (17) 
-11.34

>  <m_primary>  (17) 
energy

$$$$
17:0
     RDKit          3D

 34 36  0  0  0  0  0  0  0  0999 V2000
   -6.3060   25.6877  -29.7658 H   0  0  0  0  0  0  0  0  0  0  0  0
   -6.2760   24.7980  -30.4120 C   0  0  0  0  0  0  0  0  0  0  0  0
   -7.4670   24.1660  -30.7840 C   0  0  0  0  0  0  0  0  0  0  0  0
   -8.4304   24.5649  -30.4335 H   0  0  0  0  0  0  0  0  0  0  0  0
   -7.4400   23.0270  -31.6010 C   0  0  0  0  0  0  0  0  0  0  0  0
   -8.7160   22.3270  -31.9640 C   0  0  0  0  0  0  0  0  0  0  0  0
   -9.2480   22.0352  -31.0465 H   0  0  0  0  0  0  0  0  0  0  0  0
   -9.3499   23.0037  -32.5559 H   0  0  0  0  0  0  0  0  0  0  0  0
   -8.4859   21.4288  -32.5559 H   0  0  0  0  0  0  0  0  0  0  0  0
   -6.2050   22.5010  -32.0060 C   0  0  0  0  0  0  0  0  0  0  0  0
   -6.1729   21.5881  -32.6189 H   0  0  0  0  0  0  0  0  0  0  0  0
   -5.0140   23.1320  -31.6340 C   0  0  0  0  0  0  0  0  0  0  0  0
   -4.0498   22.7078  -31.9507 H   0  0  0  0  0  0  0  0  0  0  0  0
   -5.0390   24.2990  -30.8620 C   0  0  0  0  0  0  0  0  0  0  0  0
   -3.7890   24.8970  -30.4750 N   0  0  0  0  0  0  0  0  0  0  0  0
   -2.9650   24.4630  -29.5660 C   0  0  0  0  0  0  0  0  0  0  0  0
   -3.0810   23.2100  -29.0460 N   0  0  0  0  0  0  0  0  0  0  0  0
   -2.2350   22.7660  -28.0800 C   0  0  0  0  0  0  0  0  0  0  0  0
   -2.3680   21.4710  -27.5660 C   0  0  0  0  0  0  0  0  0  0  0  0
   -3.1605   20.8087  -27.9445 H   0  0  0  0  0  0  0  0  0  0  0  0
   -1.4880   21.0140  -26.5640 C   0  0  0  0  0  0  0  0  0  0  0  0
   -1.5780   19.7260  -26.0160 O   0  0  0  0  0  0  0  0  0  0  0  0
   -2.7750   18.9560  -25.9640 C   0  0  0  0  0  0  0  0  0  0  0  0
   -3.0513   18.7783  -24.9142 H   0  0  0  0  0  0  0  0  0  0  0  0
   -3.5850   19.5029  -26.4688 H   0  0  0  0  0  0  0  0  0  0  0  0
   -2.6132   17.9922  -26.4688 H   0  0  0  0  0  0  0  0  0  0  0  0
   -0.4830   21.8700  -26.0890 C   0  0  0  0  0  0  0  0  0  0  0  0
    0.2058   21.5192  -25.3064 H   0  0  0  0  0  0  0  0  0  0  0  0
   -0.3480   23.1640  -26.6000 C   0  0  0  0  0  0  0  0  0  0  0  0
    0.4441   23.8263  -26.2206 H   0  0  0  0  0  0  0  0  0  0  0  0
   -1.2230   23.6160  -27.5960 C   0  0  0  0  0  0  0  0  0  0  0  0
   -1.1270   24.9030  -28.1340 C   0  0  0  0  0  0  0  0  0  0  0  0
   -0.3493   25.5941  -27.7767 H   0  0  0  0  0  0  0  0  0  0  0  0
   -1.9980   25.2970  -29.1000 N   0  0  0  0  0  0  0  0  0  0  0  0
  1  2  1  0
  2  3  2  0
  3  4  1  0
  3  5  1  0
  5  6  1  0
  6  7  1  0
  6  8  1  0
  6  9  1  0
  5 10  2  0
 10 11  1  0
 10 12  1  0
 12 13  1  0
 12 14  2  0
 14 15  1  0
 15 16  2  0
 16 17  1  0
 17 18  2  0
 18 19  1  0
 19 20  1  0
 19 21  2  0
 21 22  1  0
 22 23  1  0
 23 24  1  0
 23 25  1  0
 23 26  1  0
 21 27  1  0
 27 28  1  0
 27 29  2  0
 29 30  1  0
 29 31  1  0
 31 32  2  0
 32 33  1  0
 32 34  1  0
 14  2  1  0
 34 16  1  0
 31 18  1  0
M  CHG  1  34  -1
M  END
>  <UniqueID>  (18) 
17

>  <SMILES>  (18) 
COc1ccc2c[n-]/c(=N/c3ccc(C)cc3)nc2c1

>  <Energy>  (18) 
44.78560837129058

>  <Genealogy>  (18) 
COc1ccc2c[n-]c(=Nc3ccc(C)cc3)nc2c1 (protonated)
COc1ccc2c[n-]/c(=N/c3ccc(C)cc3)nc2c1 (cis-trans isomerization)
COc1ccc2c[n-]/c(=N/c3ccc(C)cc3)nc2c1 (3D coordinates assigned)
COc1ccc2c[n-]/c(=N/c3ccc(C)cc3)nc2c1 (optimized conformer: 44.78560837129058 kcal/mol)

>  <smiles>  (18) 
COc1ccc2c[nH]c(=Nc3ccc(C)cc3)nc2c1

>  <score_type>  (18) 
oracle

>  <origin>  (18) 
adg

>  <m_score__min__energy>  (18) 
-8.5399999999999991

>  <m_primary>  (18) 
energy

$$$$
18:0
     RDKit          3D

 53 56  0  0  0  0  0  0  0  0999 V2000
   -7.1920   25.2990  -29.7090 C   0  0  0  0  0  0  0  0  0  0  0  0
   -5.7370   25.6240  -30.0250 C   0  0  0  0  0  0  0  0  0  0  0  0
   -4.8420   24.4520  -29.7320 C   0  0  0  0  0  0  0  0  0  0  0  0
   -4.1850   24.1690  -28.2030 S   0  0  0  0  0  0  0  0  0  0  0  0
   -3.4490   22.7320  -28.6310 C   0  0  0  0  0  0  0  0  0  0  0  0
   -2.7350   21.9330  -27.8070 N   0  0  0  0  0  0  0  0  0  0  0  0
   -2.2220   20.7710  -28.2910 C   0  0  0  0  0  0  0  0  0  0  0  0
   -1.4120   19.8900  -27.3950 C   0  0  0  0  0  0  0  0  0  0  0  0
   -2.4190   20.4270  -29.6000 N   0  0  0  0  0  0  0  0  0  0  0  0
   -3.1380   21.2190  -30.4510 C   0  0  0  0  0  0  0  0  0  0  0  0
   -3.2650   20.8160  -31.8160 N   0  0  0  0  0  0  0  0  0  0  0  0
   -3.3550   19.5070  -32.4940 C   0  0  0  0  0  0  0  0  0  0  0  0
   -2.7210   19.9360  -33.7730 C   0  0  0  0  0  0  0  0  0  0  0  0
   -2.6030   21.2420  -33.0660 C   0  0  0  0  0  0  0  0  0  0  0  0
   -3.6880   22.4220  -29.9600 C   0  0  0  0  0  0  0  0  0  0  0  0
   -4.4920   23.4010  -30.6050 C   0  0  0  0  0  0  0  0  0  0  0  0
   -5.0350   23.2900  -32.0080 C   0  0  0  0  0  0  0  0  0  0  0  0
   -5.7800   22.0350  -32.1640 N   0  0  0  0  0  0  0  0  0  0  0  0
   -7.1120   22.1580  -31.5620 C   0  0  0  0  0  0  0  0  0  0  0  0
   -8.0970   21.2320  -32.2770 C   0  0  0  0  0  0  0  0  0  0  0  0
   -7.4460   19.9130  -32.5990 C   0  0  0  0  0  0  0  0  0  0  0  0
   -6.7340   19.7470  -33.7970 C   0  0  0  0  0  0  0  0  0  0  0  0
   -6.1000   18.5320  -34.0770 C   0  0  0  0  0  0  0  0  0  0  0  0
   -6.1650   17.4790  -33.1590 C   0  0  0  0  0  0  0  0  0  0  0  0
   -5.3670   15.9570  -33.5100 Cl  0  0  0  0  0  0  0  0  0  0  0  0
   -6.8610   17.6430  -31.9570 C   0  0  0  0  0  0  0  0  0  0  0  0
   -7.4960   18.8570  -31.6750 C   0  0  0  0  0  0  0  0  0  0  0  0
   -7.3322   25.2677  -28.6184 H   0  0  0  0  0  0  0  0  0  0  0  0
   -7.8428   26.0739  -30.1402 H   0  0  0  0  0  0  0  0  0  0  0  0
   -7.4512   24.3208  -30.1402 H   0  0  0  0  0  0  0  0  0  0  0  0
   -5.6506   25.8839  -31.0904 H   0  0  0  0  0  0  0  0  0  0  0  0
   -5.4235   26.4681  -29.3932 H   0  0  0  0  0  0  0  0  0  0  0  0
   -1.6340   20.1315  -26.3451 H   0  0  0  0  0  0  0  0  0  0  0  0
   -1.6642   18.8373  -27.5903 H   0  0  0  0  0  0  0  0  0  0  0  0
   -0.3418   20.0530  -27.5903 H   0  0  0  0  0  0  0  0  0  0  0  0
   -2.0010   19.5410  -29.9630 H   0  0  0  0  0  0  0  0  0  0  0  0
   -2.7800   18.7234  -31.9789 H   0  0  0  0  0  0  0  0  0  0  0  0
   -4.3533   19.0501  -32.5626 H   0  0  0  0  0  0  0  0  0  0  0  0
   -1.7700   19.4421  -34.0214 H   0  0  0  0  0  0  0  0  0  0  0  0
   -3.1846   19.8109  -34.7627 H   0  0  0  0  0  0  0  0  0  0  0  0
   -1.5572   21.5448  -32.9087 H   0  0  0  0  0  0  0  0  0  0  0  0
   -3.0219   22.1225  -33.5752 H   0  0  0  0  0  0  0  0  0  0  0  0
   -5.7064   24.1385  -32.2062 H   0  0  0  0  0  0  0  0  0  0  0  0
   -4.1965   23.3012  -32.7199 H   0  0  0  0  0  0  0  0  0  0  0  0
   -5.8990   21.8430  -33.1850 H   0  0  0  0  0  0  0  0  0  0  0  0
   -7.0581   21.8812  -30.4987 H   0  0  0  0  0  0  0  0  0  0  0  0
   -7.4578   23.1976  -31.6600 H   0  0  0  0  0  0  0  0  0  0  0  0
   -8.9662   21.0568  -31.6260 H   0  0  0  0  0  0  0  0  0  0  0  0
   -8.4148   21.7092  -33.2158 H   0  0  0  0  0  0  0  0  0  0  0  0
   -6.6743   20.5753  -34.5183 H   0  0  0  0  0  0  0  0  0  0  0  0
   -5.5494   18.4046  -35.0207 H   0  0  0  0  0  0  0  0  0  0  0  0
   -6.9091   16.8165  -31.2327 H   0  0  0  0  0  0  0  0  0  0  0  0
   -8.0367   18.9849  -30.7256 H   0  0  0  0  0  0  0  0  0  0  0  0
  1  2  1  0
  2  3  1  0
  3  4  1  0
  4  5  1  0
  5  6  2  0
  6  7  1  0
  7  8  1  0
  7  9  2  0
  9 10  1  0
 10 11  1  0
 11 12  1  0
 12 13  1  0
 13 14  1  0
 10 15  2  0
 15 16  1  0
 16 17  1  0
 17 18  1  0
 18 19  1  0
 19 20  1  0
 20 21  1  0
 21 22  2  0
 22 23  1  0
 23 24  2  0
 24 25  1  0
 24 26  1  0
 26 27  2  0
 16  3  2  0
 27 21  1  0
 15  5  1  0
 14 11  1  0
  1 28  1  0
  1 29  1  0
  1 30  1  0
  2 31  1  0
  2 32  1  0
  8 33  1  0
  8 34  1  0
  8 35  1  0
  9 36  1  0
 12 37  1  0
 12 38  1  0
 13 39  1  0
 13 40  1  0
 14 41  1  0
 14 42  1  0
 17 43  1  0
 17 44  1  0
 18 45  1  0
 19 46  1  0
 19 47  1  0
 20 48  1  0
 20 49  1  0
 22 50  1  0
 23 51  1  0
 26 52  1  0
 27 53  1  0
M  CHG  1   9   1
M  END
>  <UniqueID>  (19) 
18

>  <SMILES>  (19) 
CCc1sc2nc(C)[nH+]c(N3CCC3)c2c1CNCCc1ccc(Cl)cc1

>  <Energy>  (19) 
131.70754817865574

>  <Genealogy>  (19) 
CCc1sc2nc(C)[nH+]c(N3CCC3)c2c1CNCCc1ccc(Cl)cc1 (protonated)
CCc1sc2nc(C)[nH+]c(N3CCC3)c2c1CNCCc1ccc(Cl)cc1 (3D coordinates assigned)
CCc1sc2nc(C)[nH+]c(N3CCC3)c2c1CNCCc1ccc(Cl)cc1 (nonaromatic ring conformer: 131.70754817865574 kcal/mol)

>  <smiles>  (19) 
CCc1sc2nc(C)nc(N3CCC3)c2c1CNCCc1ccc(Cl)cc1

>  <score_type>  (19) 
oracle

>  <origin>  (19) 
adg

>  <m_score__min__energy>  (19) 
-8.4499999999999993

>  <m_primary>  (19) 
energy

$$$$
19:0
     RDKit          3D

 51 54  0  0  0  0  0  0  0  0999 V2000
    0.6280   18.1680  -27.8530 C   0  0  0  0  0  0  0  0  0  0  0  0
   -0.5220   18.4760  -28.6360 O   0  0  0  0  0  0  0  0  0  0  0  0
   -1.1830   19.7140  -28.6230 C   0  0  0  0  0  0  0  0  0  0  0  0
   -1.0210   20.6580  -29.6530 C   0  0  0  0  0  0  0  0  0  0  0  0
   -1.6960   21.8790  -29.6060 C   0  0  0  0  0  0  0  0  0  0  0  0
   -2.5360   22.1820  -28.5260 C   0  0  0  0  0  0  0  0  0  0  0  0
   -3.2940   23.4820  -28.5000 C   0  0  0  0  0  0  0  0  0  0  0  0
   -2.5730   24.5410  -29.3420 C   0  0  0  0  0  0  0  0  0  0  0  0
   -3.5240   25.2890  -30.1610 N   0  0  0  0  0  0  0  0  0  0  0  0
   -4.8030   24.8300  -30.6230 C   0  0  0  0  0  0  0  0  0  0  0  0
   -5.7940   25.5970  -30.4970 O   0  0  0  0  0  0  0  0  0  0  0  0
   -5.0010   23.4930  -31.2260 C   0  0  0  0  0  0  0  0  0  0  0  0
   -4.0460   22.8140  -31.8950 N   0  0  0  0  0  0  0  0  0  0  0  0
   -4.5530   21.6520  -32.2830 N   0  0  0  0  0  0  0  0  0  0  0  0
   -3.8020   20.7040  -33.0980 C   0  0  0  0  0  0  0  0  0  0  0  0
   -5.8310   21.5570  -31.8480 C   0  0  0  0  0  0  0  0  0  0  0  0
   -6.1540   22.7250  -31.1930 C   0  0  0  0  0  0  0  0  0  0  0  0
   -7.5180   23.0320  -30.6530 C   0  0  0  0  0  0  0  0  0  0  0  0
   -8.7600   22.4640  -31.8670 S   0  0  0  0  0  0  0  0  0  0  0  0
   -8.1800   20.7500  -31.9270 C   0  0  0  0  0  0  0  0  0  0  0  0
   -9.1220   19.7170  -31.9010 C   0  0  0  0  0  0  0  0  0  0  0  0
   -8.7090   18.3860  -31.9900 C   0  0  0  0  0  0  0  0  0  0  0  0
   -7.3500   18.0810  -32.0840 C   0  0  0  0  0  0  0  0  0  0  0  0
   -6.3980   19.1030  -32.0840 C   0  0  0  0  0  0  0  0  0  0  0  0
   -6.8010   20.4510  -32.0250 C   0  0  0  0  0  0  0  0  0  0  0  0
   -2.7090   21.2400  -27.5010 C   0  0  0  0  0  0  0  0  0  0  0  0
   -2.0320   20.0050  -27.5430 C   0  0  0  0  0  0  0  0  0  0  0  0
   -2.1790   19.0410  -26.5320 O   0  0  0  0  0  0  0  0  0  0  0  0
   -3.4270   18.6290  -25.9850 C   0  0  0  0  0  0  0  0  0  0  0  0
    0.3734   18.2362  -26.7850 H   0  0  0  0  0  0  0  0  0  0  0  0
    0.9668   17.1475  -28.0848 H   0  0  0  0  0  0  0  0  0  0  0  0
    1.4315   18.8826  -28.0848 H   0  0  0  0  0  0  0  0  0  0  0  0
   -0.3580   20.4326  -30.5013 H   0  0  0  0  0  0  0  0  0  0  0  0
   -1.5679   22.6069  -30.4207 H   0  0  0  0  0  0  0  0  0  0  0  0
   -4.3030   23.3209  -28.9075 H   0  0  0  0  0  0  0  0  0  0  0  0
   -3.3569   23.8364  -27.4605 H   0  0  0  0  0  0  0  0  0  0  0  0
   -2.0478   25.2378  -28.6723 H   0  0  0  0  0  0  0  0  0  0  0  0
   -1.8570   24.0353  -30.0066 H   0  0  0  0  0  0  0  0  0  0  0  0
   -3.2533   20.0114  -32.4429 H   0  0  0  0  0  0  0  0  0  0  0  0
   -4.4971   20.1351  -33.7329 H   0  0  0  0  0  0  0  0  0  0  0  0
   -3.0891   21.2505  -33.7329 H   0  0  0  0  0  0  0  0  0  0  0  0
   -7.6659   22.5078  -29.6973 H   0  0  0  0  0  0  0  0  0  0  0  0
   -7.6226   24.1138  -30.4831 H   0  0  0  0  0  0  0  0  0  0  0  0
  -10.1924   19.9537  -31.8101 H   0  0  0  0  0  0  0  0  0  0  0  0
   -9.4549   17.5775  -31.9860 H   0  0  0  0  0  0  0  0  0  0  0  0
   -7.0277   17.0319  -32.1583 H   0  0  0  0  0  0  0  0  0  0  0  0
   -5.3277   18.8536  -32.1303 H   0  0  0  0  0  0  0  0  0  0  0  0
   -3.3782   21.4672  -26.6581 H   0  0  0  0  0  0  0  0  0  0  0  0
   -3.3700   18.6478  -24.8866 H   0  0  0  0  0  0  0  0  0  0  0  0
   -4.2192   19.3133  -26.3228 H   0  0  0  0  0  0  0  0  0  0  0  0
   -3.6561   17.6075  -26.3228 H   0  0  0  0  0  0  0  0  0  0  0  0
  1  2  1  0
  2  3  1  0
  3  4  2  0
  4  5  1  0
  5  6  2  0
  6  7  1  0
  7  8  1  0
  8  9  1  0
  9 10  1  0
 10 11  2  0
 10 12  1  0
 12 13  2  0
 13 14  1  0
 14 15  1  0
 14 16  1  0
 16 17  2  0
 17 18  1  0
 18 19  1  0
 19 20  1  0
 20 21  2  0
 21 22  1  0
 22 23  2  0
 23 24  1  0
 24 25  2  0
  6 26  1  0
 26 27  2  0
 27 28  1  0
 28 29  1  0
 27  3  1  0
 17 12  1  0
 25 20  1  0
 25 16  1  0
  1 30  1  0
  1 31  1  0
  1 32  1  0
  4 33  1  0
  5 34  1  0
  7 35  1  0
  7 36  1  0
  8 37  1  0
  8 38  1  0
 15 39  1  0
 15 40  1  0
 15 41  1  0
 18 42  1  0
 18 43  1  0
 21 44  1  0
 22 45  1  0
 23 46  1  0
 24 47  1  0
 26 48  1  0
 29 49  1  0
 29 50  1  0
 29 51  1  0
M  CHG  1   9  -1
M  END
>  <UniqueID>  (20) 
19

>  <SMILES>  (20) 
COc1ccc(CC[N-]C(=O)c2nn(C)c3c2CSc2ccccc2-3)cc1OC

>  <Energy>  (20) 
92.80376300689302

>  <Genealogy>  (20) 
COc1ccc(CC[N-]C(=O)c2nn(C)c3c2CSc2ccccc2-3)cc1OC (protonated)
COc1ccc(CC[N-]C(=O)c2nn(C)c3c2CSc2ccccc2-3)cc1OC (3D coordinates assigned)
COc1ccc(CC[N-]C(=O)c2nn(C)c3c2CSc2ccccc2-3)cc1OC (nonaromatic ring conformer: 92.80376300689302 kcal/mol)

>  <smiles>  (20) 
COc1ccc(CCNC(=O)c2nn(C)c3c2CSc2ccccc2-3)cc1OC

>  <score_type>  (20) 
oracle

>  <origin>  (20) 
adg

>  <m_score__min__energy>  (20) 
-11.470000000000001

>  <m_primary>  (20) 
energy

$$$$
20:0
     RDKit          3D

 41 43  0  0  0  0  0  0  0  0999 V2000
   -6.5850   25.2340  -29.9590 C   0  0  0  0  0  0  0  0  0  0  0  0
   -5.9310   24.0780  -30.6550 C   0  0  0  0  0  0  0  0  0  0  0  0
   -4.5710   23.8920  -30.8590 C   0  0  0  0  0  0  0  0  0  0  0  0
   -3.4950   24.7580  -30.4880 N   0  0  0  0  0  0  0  0  0  0  0  0
   -2.6560   24.5530  -29.3450 C   0  0  0  0  0  0  0  0  0  0  0  0
   -1.9970   25.5250  -28.8900 O   0  0  0  0  0  0  0  0  0  0  0  0
   -2.6170   23.2380  -28.6240 C   0  0  0  0  0  0  0  0  0  0  0  0
   -1.0240   22.4080  -28.9620 S   0  0  0  0  0  0  0  0  0  0  0  0
   -1.4470   20.8960  -28.1030 C   0  0  0  0  0  0  0  0  0  0  0  0
   -0.5480   19.8780  -28.0410 N   0  0  0  0  0  0  0  0  0  0  0  0
   -0.8400   18.7270  -27.3840 C   0  0  0  0  0  0  0  0  0  0  0  0
   -2.0800   18.5780  -26.7630 C   0  0  0  0  0  0  0  0  0  0  0  0
   -2.9920   19.6310  -26.8400 C   0  0  0  0  0  0  0  0  0  0  0  0
   -2.6620   20.7680  -27.5060 N   0  0  0  0  0  0  0  0  0  0  0  0
   -4.4590   22.6550  -31.4450 C   0  0  0  0  0  0  0  0  0  0  0  0
   -3.3820   22.0880  -31.7680 O   0  0  0  0  0  0  0  0  0  0  0  0
   -5.6890   22.1280  -31.6170 N   0  0  0  0  0  0  0  0  0  0  0  0
   -5.9810   20.8530  -32.2160 C   0  0  0  0  0  0  0  0  0  0  0  0
   -6.8970   19.9780  -31.6140 C   0  0  0  0  0  0  0  0  0  0  0  0
   -7.1770   18.7390  -32.2000 C   0  0  0  0  0  0  0  0  0  0  0  0
   -6.5410   18.3670  -33.3860 C   0  0  0  0  0  0  0  0  0  0  0  0
   -5.6200   19.2290  -33.9870 C   0  0  0  0  0  0  0  0  0  0  0  0
   -5.3360   20.4670  -33.4030 C   0  0  0  0  0  0  0  0  0  0  0  0
   -6.5850   22.9970  -31.1520 N   0  0  0  0  0  0  0  0  0  0  0  0
   -8.0370   22.8050  -31.1640 C   0  0  0  0  0  0  0  0  0  0  0  0
   -6.5079   25.0977  -28.8702 H   0  0  0  0  0  0  0  0  0  0  0  0
   -6.0817   26.1684  -30.2481 H   0  0  0  0  0  0  0  0  0  0  0  0
   -7.6452   25.2839  -30.2481 H   0  0  0  0  0  0  0  0  0  0  0  0
   -2.7194   23.4093  -27.5423 H   0  0  0  0  0  0  0  0  0  0  0  0
   -3.4441   22.6025  -28.9734 H   0  0  0  0  0  0  0  0  0  0  0  0
   -0.1007   17.9136  -27.3413 H   0  0  0  0  0  0  0  0  0  0  0  0
   -2.3329   17.6523  -26.2253 H   0  0  0  0  0  0  0  0  0  0  0  0
   -3.9783   19.5405  -26.3614 H   0  0  0  0  0  0  0  0  0  0  0  0
   -7.3970   20.2670  -30.6778 H   0  0  0  0  0  0  0  0  0  0  0  0
   -7.8987   18.0574  -31.7261 H   0  0  0  0  0  0  0  0  0  0  0  0
   -6.7652   17.3941  -33.8478 H   0  0  0  0  0  0  0  0  0  0  0  0
   -5.1182   18.9333  -34.9201 H   0  0  0  0  0  0  0  0  0  0  0  0
   -4.6054   21.1409  -33.8742 H   0  0  0  0  0  0  0  0  0  0  0  0
   -8.4089   22.7558  -30.1299 H   0  0  0  0  0  0  0  0  0  0  0  0
   -8.5140   23.6479  -31.6855 H   0  0  0  0  0  0  0  0  0  0  0  0
   -8.2785   21.8671  -31.6855 H   0  0  0  0  0  0  0  0  0  0  0  0
  1  2  1  0
  2  3  2  0
  3  4  1  0
  4  5  1  0
  5  6  2  0
  5  7  1  0
  7  8  1  0
  8  9  1  0
  9 10  2  0
 10 11  1  0
 11 12  2  0
 12 13  1  0
 13 14  2  0
  3 15  1  0
 15 16  2  0
 15 17  1  0
 17 18  1  0
 18 19  2  0
 19 20  1  0
 20 21  2  0
 21 22  1  0
 22 23  2  0
 17 24  1  0
 24 25  1  0
 24  2  1  0
 14  9  1  0
 23 18  1  0
  1 26  1  0
  1 27  1  0
  1 28  1  0
  7 29  1  0
  7 30  1  0
 11 31  1  0
 12 32  1  0
 13 33  1  0
 19 34  1  0
 20 35  1  0
 21 36  1  0
 22 37  1  0
 23 38  1  0
 25 39  1  0
 25 40  1  0
 25 41  1  0
M  CHG  1   4  -1
M  END
>  <UniqueID>  (21) 
20

>  <SMILES>  (21) 
Cc1c([N-]C(=O)CSc2ncccn2)c(=O)n(-c2ccccc2)n1C

>  <Energy>  (21) 
84.57061390888862

>  <Genealogy>  (21) 
Cc1c([N-]C(=O)CSc2ncccn2)c(=O)n(-c2ccccc2)n1C (protonated)
Cc1c([N-]C(=O)CSc2ncccn2)c(=O)n(-c2ccccc2)n1C (3D coordinates assigned)
Cc1c([N-]C(=O)CSc2ncccn2)c(=O)n(-c2ccccc2)n1C (optimized conformer: 84.57061390888862 kcal/mol)

>  <smiles>  (21) 
Cc1c(NC(=O)CSc2ncccn2)c(=O)n(-c2ccccc2)n1C

>  <score_type>  (21) 
oracle

>  <origin>  (21) 
adg

>  <m_score__min__energy>  (21) 
-10.050000000000001

>  <m_primary>  (21) 
energy

$$$$
21:0
     RDKit          3D

 28 29  0  0  0  0  0  0  0  0999 V2000
   -2.4090   24.2060  -28.1150 C   0  0  0  0  0  0  0  0  0  0  0  0
   -2.7370   23.0490  -28.6980 C   0  0  0  0  0  0  0  0  0  0  0  0
   -2.7930   22.9040  -30.1940 C   0  0  0  0  0  0  0  0  0  0  0  0
   -4.1900   23.1570  -30.7040 C   0  0  0  0  0  0  0  0  0  0  0  0
   -5.0080   22.0660  -31.0430 C   0  0  0  0  0  0  0  0  0  0  0  0
   -6.3220   22.2650  -31.4960 C   0  0  0  0  0  0  0  0  0  0  0  0
   -7.1650   21.1040  -31.8500 C   0  0  0  0  0  0  0  0  0  0  0  0
   -6.6880   19.9950  -32.2990 N   0  0  0  0  0  0  0  0  0  0  0  0
   -7.7820   19.0670  -32.5450 C   0  0  0  0  0  0  0  0  0  0  0  0
   -9.0450   19.8450  -32.1490 C   0  0  0  0  0  0  0  0  0  0  0  0
   -8.5410   21.1010  -31.7310 O   0  0  0  0  0  0  0  0  0  0  0  0
   -6.8170   23.5750  -31.6050 C   0  0  0  0  0  0  0  0  0  0  0  0
   -6.0140   24.6640  -31.2630 C   0  0  0  0  0  0  0  0  0  0  0  0
   -4.7030   24.4650  -30.8090 C   0  0  0  0  0  0  0  0  0  0  0  0
   -3.9140   25.5620  -30.4650 O   0  0  0  0  0  0  0  0  0  0  0  0
   -2.3771   24.2795  -27.0179 H   0  0  0  0  0  0  0  0  0  0  0  0
   -2.1710   25.0848  -28.7322 H   0  0  0  0  0  0  0  0  0  0  0  0
   -2.9723   22.1794  -28.0668 H   0  0  0  0  0  0  0  0  0  0  0  0
   -2.1046   23.6290  -30.6528 H   0  0  0  0  0  0  0  0  0  0  0  0
   -2.5006   21.8776  -30.4603 H   0  0  0  0  0  0  0  0  0  0  0  0
   -4.6139   21.0430  -30.9523 H   0  0  0  0  0  0  0  0  0  0  0  0
   -7.8183   18.7819  -33.6068 H   0  0  0  0  0  0  0  0  0  0  0  0
   -7.6722   18.1319  -31.9763 H   0  0  0  0  0  0  0  0  0  0  0  0
   -9.7223   19.9591  -33.0082 H   0  0  0  0  0  0  0  0  0  0  0  0
   -9.6341   19.3386  -31.3702 H   0  0  0  0  0  0  0  0  0  0  0  0
   -7.8437   23.7436  -31.9621 H   0  0  0  0  0  0  0  0  0  0  0  0
   -6.4127   25.6855  -31.3503 H   0  0  0  0  0  0  0  0  0  0  0  0
   -2.9700   25.6700  -30.8160 H   0  0  0  0  0  0  0  0  0  0  0  0
  1  2  2  0
  2  3  1  0
  3  4  1  0
  4  5  2  0
  5  6  1  0
  6  7  1  0
  7  8  2  0
  8  9  1  0
  9 10  1  0
 10 11  1  0
  6 12  2  0
 12 13  1  0
 13 14  2  0
 14 15  1  0
 14  4  1  0
 11  7  1  0
  1 16  1  0
  1 17  1  0
  2 18  1  0
  3 19  1  0
  3 20  1  0
  5 21  1  0
  9 22  1  0
  9 23  1  0
 10 24  1  0
 10 25  1  0
 12 26  1  0
 13 27  1  0
 15 28  1  0
M  END
>  <UniqueID>  (22) 
21

>  <SMILES>  (22) 
C=CCc1cc(C2=NCCO2)ccc1O

>  <Energy>  (22) 
38.01920423883906

>  <Genealogy>  (22) 
C=CCc1cc(C2=NCCO2)ccc1O (3D coordinates assigned)
C=CCc1cc(C2=NCCO2)ccc1O (nonaromatic ring conformer: 38.01920423883906 kcal/mol)

>  <smiles>  (22) 
C=CCc1cc(C2=NCCO2)ccc1O

>  <score_type>  (22) 
oracle

>  <origin>  (22) 
adg

>  <m_score__min__energy>  (22) 
-6.6699999999999999

>  <m_primary>  (22) 
energy

$$$$
22:0
     RDKit          3D

 36 38  0  0  0  0  0  0  0  0999 V2000
   -2.2390   24.2550  -29.3350 C   0  0  0  0  0  0  0  0  0  0  0  0
   -3.1510   24.7890  -30.2910 O   0  0  0  0  0  0  0  0  0  0  0  0
   -4.5240   24.4930  -30.3380 C   0  0  0  0  0  0  0  0  0  0  0  0
   -5.4720   25.3020  -29.6860 C   0  0  0  0  0  0  0  0  0  0  0  0
   -6.8280   24.9880  -29.7400 C   0  0  0  0  0  0  0  0  0  0  0  0
   -7.2570   23.8530  -30.4250 C   0  0  0  0  0  0  0  0  0  0  0  0
   -6.3350   23.0170  -31.0720 C   0  0  0  0  0  0  0  0  0  0  0  0
   -6.8410   21.7950  -31.7380 C   0  0  0  0  0  0  0  0  0  0  0  0
   -8.1950   21.5710  -31.9800 C   0  0  0  0  0  0  0  0  0  0  0  0
   -8.3410   20.0670  -32.7200 S   0  0  0  0  0  0  0  0  0  0  0  0
   -6.6880   19.7500  -32.6960 C   0  0  0  0  0  0  0  0  0  0  0  0
   -6.0410   18.5290  -33.2240 C   0  0  0  0  0  0  0  0  0  0  0  0
   -4.7490   18.5870  -33.7870 C   0  0  0  0  0  0  0  0  0  0  0  0
   -4.0840   19.7650  -33.8890 F   0  0  0  0  0  0  0  0  0  0  0  0
   -4.1450   17.4280  -34.2860 C   0  0  0  0  0  0  0  0  0  0  0  0
   -4.8150   16.2050  -34.2260 C   0  0  0  0  0  0  0  0  0  0  0  0
   -6.0910   16.1340  -33.6660 C   0  0  0  0  0  0  0  0  0  0  0  0
   -6.7050   17.2860  -33.1650 C   0  0  0  0  0  0  0  0  0  0  0  0
   -7.9270   17.1750  -32.5870 F   0  0  0  0  0  0  0  0  0  0  0  0
   -6.0180   20.7800  -32.1260 N   0  0  0  0  0  0  0  0  0  0  0  0
   -4.9560   23.3590  -31.0620 C   0  0  0  0  0  0  0  0  0  0  0  0
   -3.9340   22.5250  -31.8000 C   0  0  0  0  0  0  0  0  0  0  0  0
   -2.6047   24.4691  -28.3199 H   0  0  0  0  0  0  0  0  0  0  0  0
   -2.1580   23.1668  -29.4736 H   0  0  0  0  0  0  0  0  0  0  0  0
   -1.2503   24.7169  -29.4736 H   0  0  0  0  0  0  0  0  0  0  0  0
   -5.1397   26.1903  -29.1287 H   0  0  0  0  0  0  0  0  0  0  0  0
   -7.5619   25.6376  -29.2407 H   0  0  0  0  0  0  0  0  0  0  0  0
   -8.3293   23.6102  -30.4587 H   0  0  0  0  0  0  0  0  0  0  0  0
   -9.0202   22.2547  -31.7318 H   0  0  0  0  0  0  0  0  0  0  0  0
   -3.1387   17.4807  -34.7271 H   0  0  0  0  0  0  0  0  0  0  0  0
   -4.3367   15.2964  -34.6205 H   0  0  0  0  0  0  0  0  0  0  0  0
   -6.6157   15.1684  -33.6185 H   0  0  0  0  0  0  0  0  0  0  0  0
   -4.9880   20.7780  -31.9560 H   0  0  0  0  0  0  0  0  0  0  0  0
   -3.2938   22.0025  -31.0739 H   0  0  0  0  0  0  0  0  0  0  0  0
   -4.4501   21.7869  -32.4316 H   0  0  0  0  0  0  0  0  0  0  0  0
   -3.3144   23.1786  -32.4316 H   0  0  0  0  0  0  0  0  0  0  0  0
  1  2  1  0
  2  3  1  0
  3  4  2  0
  4  5  1  0
  5  6  2  0
  6  7  1  0
  7  8  1  0
  8  9  2  0
  9 10  1  0
 10 11  1  0
 11 12  1  0
 12 13  2  0
 13 14  1  0
 13 15  1  0
 15 16  2  0
 16 17  1  0
 17 18  2  0
 18 19  1  0
 11 20  2  0
  7 21  2  0
 21 22  1  0
 21  3  1  0
 20  8  1  0
 18 12  1  0
  1 23  1  0
  1 24  1  0
  1 25  1  0
  4 26  1  0
  5 27  1  0
  6 28  1  0
  9 29  1  0
 15 30  1  0
 16 31  1  0
 17 32  1  0
 20 33  1  0
 22 34  1  0
 22 35  1  0
 22 36  1  0
M  CHG  1  20   1
M  END
>  <UniqueID>  (23) 
22

>  <SMILES>  (23) 
COc1cccc(-c2csc(-c3c(F)cccc3F)[nH+]2)c1C

>  <Energy>  (23) 
79.0724835010303

>  <Genealogy>  (23) 
COc1cccc(-c2csc(-c3c(F)cccc3F)[nH+]2)c1C (protonated)
COc1cccc(-c2csc(-c3c(F)cccc3F)[nH+]2)c1C (3D coordinates assigned)
COc1cccc(-c2csc(-c3c(F)cccc3F)[nH+]2)c1C (optimized conformer: 79.0724835010303 kcal/mol)

>  <smiles>  (23) 
COc1cccc(-c2csc(-c3c(F)cccc3F)n2)c1C

>  <score_type>  (23) 
oracle

>  <origin>  (23) 
adg

>  <m_score__min__energy>  (23) 
-7.79

>  <m_primary>  (23) 
energy

$$$$
23:0
     RDKit          3D

 46 48  0  0  0  0  0  0  0  0999 V2000
   -8.1430   19.4790  -31.7120 C   0  0  0  0  0  0  0  0  0  0  0  0
   -8.1940   20.9670  -31.7860 C   0  0  0  0  0  0  0  0  0  0  0  0
   -9.3330   21.7270  -31.9650 C   0  0  0  0  0  0  0  0  0  0  0  0
   -8.9140   23.0400  -31.9370 C   0  0  0  0  0  0  0  0  0  0  0  0
   -7.5470   22.9920  -31.7410 C   0  0  0  0  0  0  0  0  0  0  0  0
   -6.6370   24.1740  -31.5950 C   0  0  0  0  0  0  0  0  0  0  0  0
   -5.7610   24.0590  -30.3290 C   0  0  2  0  0  0  0  0  0  0  0  0
   -5.9270   25.2190  -29.4520 N   0  0  0  0  0  0  0  0  0  0  0  0
   -4.2960   23.8440  -30.6420 C   0  0  0  0  0  0  0  0  0  0  0  0
   -3.4990   24.8080  -30.4840 O   0  0  0  0  0  0  0  0  0  0  0  0
   -3.7830   22.5760  -31.0890 N   0  0  0  0  0  0  0  0  0  0  0  0
   -4.3340   21.9380  -32.2960 C   0  0  0  0  0  0  0  0  0  0  0  0
   -3.4360   20.7990  -32.7990 C   0  0  0  0  0  0  0  0  0  0  0  0
   -2.0210   21.1990  -32.7630 N   0  0  0  0  0  0  0  0  0  0  0  0
   -1.1120   20.6870  -33.7540 C   0  0  0  0  0  0  0  0  0  0  0  0
   -0.3060   21.5690  -34.4960 C   0  0  0  0  0  0  0  0  0  0  0  0
    0.5730   21.0800  -35.4670 C   0  0  0  0  0  0  0  0  0  0  0  0
    0.6570   19.7060  -35.7040 C   0  0  0  0  0  0  0  0  0  0  0  0
   -0.1340   18.8200  -34.9700 C   0  0  0  0  0  0  0  0  0  0  0  0
   -1.0160   19.3030  -33.9970 C   0  0  0  0  0  0  0  0  0  0  0  0
   -1.7440   18.4190  -33.2710 F   0  0  0  0  0  0  0  0  0  0  0  0
   -1.4830   21.9000  -31.5860 C   0  0  0  0  0  0  0  0  0  0  0  0
   -2.5450   22.0540  -30.4970 C   0  0  0  0  0  0  0  0  0  0  0  0
   -7.1460   21.7450  -31.6510 O   0  0  0  0  0  0  0  0  0  0  0  0
   -8.1322   19.1645  -30.6580 H   0  0  0  0  0  0  0  0  0  0  0  0
   -9.0272   19.0565  -32.2117 H   0  0  0  0  0  0  0  0  0  0  0  0
   -7.2320   19.1180  -32.2117 H   0  0  0  0  0  0  0  0  0  0  0  0
  -10.3612   21.3607  -32.1016 H   0  0  0  0  0  0  0  0  0  0  0  0
   -9.5381   23.9390  -32.0477 H   0  0  0  0  0  0  0  0  0  0  0  0
   -5.9836   24.2335  -32.4779 H   0  0  0  0  0  0  0  0  0  0  0  0
   -7.2567   25.0784  -31.5056 H   0  0  0  0  0  0  0  0  0  0  0  0
   -6.1162   23.1623  -29.8000 H   0  0  0  0  0  0  0  0  0  0  0  0
   -6.2250   24.9100  -28.5000 H   0  0  0  0  0  0  0  0  0  0  0  0
   -4.9970   25.6820  -29.3350 H   0  0  0  0  0  0  0  0  0  0  0  0
   -5.3282   21.5303  -32.0610 H   0  0  0  0  0  0  0  0  0  0  0  0
   -4.3961   22.6995  -33.0874 H   0  0  0  0  0  0  0  0  0  0  0  0
   -3.5784   19.9167  -32.1577 H   0  0  0  0  0  0  0  0  0  0  0  0
   -3.7110   20.5638  -33.8378 H   0  0  0  0  0  0  0  0  0  0  0  0
   -0.3677   22.6516  -34.3110 H   0  0  0  0  0  0  0  0  0  0  0  0
    1.1983   21.7771  -36.0442 H   0  0  0  0  0  0  0  0  0  0  0  0
    1.3470   19.3216  -36.4696 H   0  0  0  0  0  0  0  0  0  0  0  0
   -0.0636   17.7384  -35.1573 H   0  0  0  0  0  0  0  0  0  0  0  0
   -0.6367   21.3248  -31.1823 H   0  0  0  0  0  0  0  0  0  0  0  0
   -1.1582   22.9035  -31.8983 H   0  0  0  0  0  0  0  0  0  0  0  0
   -2.7433   21.0745  -30.0374 H   0  0  0  0  0  0  0  0  0  0  0  0
   -2.1831   22.7536  -29.7291 H   0  0  0  0  0  0  0  0  0  0  0  0
  1  2  1  0
  2  3  2  0
  3  4  1  0
  4  5  2  0
  5  6  1  0
  6  7  1  0
  7  8  1  0
  7  9  1  0
  9 10  2  0
  9 11  1  0
 11 12  1  0
 12 13  1  0
 13 14  1  0
 14 15  1  0
 15 16  2  0
 16 17  1  0
 17 18  2  0
 18 19  1  0
 19 20  2  0
 20 21  1  0
 14 22  1  0
 22 23  1  0
  5 24  1  0
 24  2  1  0
 23 11  1  0
 20 15  1  0
  1 25  1  0
  1 26  1  0
  1 27  1  0
  3 28  1  0
  4 29  1  0
  6 30  1  0
  6 31  1  0
  7 32  1  1
  8 33  1  0
  8 34  1  0
 12 35  1  0
 12 36  1  0
 13 37  1  0
 13 38  1  0
 16 39  1  0
 17 40  1  0
 18 41  1  0
 19 42  1  0
 22 43  1  0
 22 44  1  0
 23 45  1  0
 23 46  1  0
M  END
>  <UniqueID>  (24) 
23

>  <SMILES>  (24) 
Cc1ccc(C[C@H](N)C(=O)N2CCN(c3ccccc3F)CC2)o1

>  <Energy>  (24) 
76.74948214305337

>  <Genealogy>  (24) 
Cc1ccc(C[C@H](N)C(=O)N2CCN(c3ccccc3F)CC2)o1 (chirality)
Cc1ccc(C[C@H](N)C(=O)N2CCN(c3ccccc3F)CC2)o1 (3D coordinates assigned)
Cc1ccc(C[C@H](N)C(=O)N2CCN(c3ccccc3F)CC2)o1 (nonaromatic ring conformer: 76.74948214305337 kcal/mol)

>  <smiles>  (24) 
Cc1ccc(CC(N)C(=O)N2CCN(c3ccccc3F)CC2)o1

>  <score_type>  (24) 
oracle

>  <origin>  (24) 
adg

>  <m_score__min__energy>  (24) 
-8.8599999999999994

>  <m_primary>  (24) 
energy

$$$$
24:0
     RDKit          3D

 52 54  0  0  0  0  0  0  0  0999 V2000
   -1.5990   25.8680  -28.8160 N   0  0  0  0  0  0  0  0  0  0  0  0
   -1.3160   25.7460  -27.3870 C   0  0  0  0  0  0  0  0  0  0  0  0
   -2.0230   24.5370  -26.7510 C   0  0  0  0  0  0  0  0  0  0  0  0
   -3.0280   23.8670  -27.7150 C   0  0  0  0  0  0  0  0  0  0  0  0
   -2.4300   22.8600  -28.6270 N   0  0  0  0  0  0  0  0  0  0  0  0
   -2.4750   23.1660  -30.0720 C   0  0  0  0  0  0  0  0  0  0  0  0
   -3.6890   23.9930  -30.4120 C   0  0  0  0  0  0  0  0  0  0  0  0
   -3.5580   25.2470  -30.4690 O   0  0  0  0  0  0  0  0  0  0  0  0
   -4.9770   23.3880  -30.6760 N   0  0  0  0  0  0  0  0  0  0  0  0
   -6.1780   23.9450  -30.0350 C   0  0  0  0  0  0  0  0  0  0  0  0
   -7.3650   23.8850  -30.9900 C   0  0  0  0  0  0  0  0  0  0  0  0
   -7.5710   22.4780  -31.4680 C   0  0  0  0  0  0  0  0  0  0  0  0
   -8.8630   22.0210  -31.7770 C   0  0  0  0  0  0  0  0  0  0  0  0
   -9.0540   20.7210  -32.2530 C   0  0  0  0  0  0  0  0  0  0  0  0
   -7.9580   19.8760  -32.4360 C   0  0  0  0  0  0  0  0  0  0  0  0
   -6.6680   20.3280  -32.1460 C   0  0  0  0  0  0  0  0  0  0  0  0
   -6.4640   21.6290  -31.6590 C   0  0  0  0  0  0  0  0  0  0  0  0
   -5.0520   22.1020  -31.3980 C   0  0  0  0  0  0  0  0  0  0  0  0
   -1.1540   22.2710  -28.1650 C   0  0  0  0  0  0  0  0  0  0  0  0
   -1.2920   20.8500  -27.6730 C   0  0  0  0  0  0  0  0  0  0  0  0
   -2.4110   20.4700  -26.9090 C   0  0  0  0  0  0  0  0  0  0  0  0
   -2.5280   19.1610  -26.4340 C   0  0  0  0  0  0  0  0  0  0  0  0
   -1.5360   18.2200  -26.7220 C   0  0  0  0  0  0  0  0  0  0  0  0
   -0.4250   18.5870  -27.4880 C   0  0  0  0  0  0  0  0  0  0  0  0
   -0.3030   19.8960  -27.9640 C   0  0  0  0  0  0  0  0  0  0  0  0
   -2.4680   26.4340  -28.9480 H   0  0  0  0  0  0  0  0  0  0  0  0
   -1.7670   24.9160  -29.2180 H   0  0  0  0  0  0  0  0  0  0  0  0
   -0.2304   25.6328  -27.2502 H   0  0  0  0  0  0  0  0  0  0  0  0
   -1.6919   26.6534  -26.8917 H   0  0  0  0  0  0  0  0  0  0  0  0
   -1.2635   23.7958  -26.4616 H   0  0  0  0  0  0  0  0  0  0  0  0
   -2.5863   24.8992  -25.8784 H   0  0  0  0  0  0  0  0  0  0  0  0
   -3.8014   23.3682  -27.1125 H   0  0  0  0  0  0  0  0  0  0  0  0
   -3.4294   24.6676  -28.3537 H   0  0  0  0  0  0  0  0  0  0  0  0
   -1.5695   23.7255  -30.3495 H   0  0  0  0  0  0  0  0  0  0  0  0
   -2.5290   22.2190  -30.6291 H   0  0  0  0  0  0  0  0  0  0  0  0
   -6.4099   23.3625  -29.1312 H   0  0  0  0  0  0  0  0  0  0  0  0
   -5.9865   24.9949  -29.7685 H   0  0  0  0  0  0  0  0  0  0  0  0
   -8.2702   24.2280  -30.4675 H   0  0  0  0  0  0  0  0  0  0  0  0
   -7.1642   24.5336  -31.8554 H   0  0  0  0  0  0  0  0  0  0  0  0
   -9.7271   22.6886  -31.6439 H   0  0  0  0  0  0  0  0  0  0  0  0
  -10.0684   20.3635  -32.4836 H   0  0  0  0  0  0  0  0  0  0  0  0
   -8.1102   18.8525  -32.8092 H   0  0  0  0  0  0  0  0  0  0  0  0
   -5.8073   19.6606  -32.3001 H   0  0  0  0  0  0  0  0  0  0  0  0
   -4.5355   21.3375  -30.7989 H   0  0  0  0  0  0  0  0  0  0  0  0
   -4.5804   22.2582  -32.3794 H   0  0  0  0  0  0  0  0  0  0  0  0
   -0.4414   22.2821  -29.0029 H   0  0  0  0  0  0  0  0  0  0  0  0
   -0.8062   22.8763  -27.3149 H   0  0  0  0  0  0  0  0  0  0  0  0
   -3.1968   21.2064  -26.6848 H   0  0  0  0  0  0  0  0  0  0  0  0
   -3.4022   18.8710  -25.8326 H   0  0  0  0  0  0  0  0  0  0  0  0
   -1.6290   17.1904  -26.3462 H   0  0  0  0  0  0  0  0  0  0  0  0
    0.3540   17.8447  -27.7164 H   0  0  0  0  0  0  0  0  0  0  0  0
    0.5709   20.1798  -28.5687 H   0  0  0  0  0  0  0  0  0  0  0  0
  1  2  1  0
  2  3  1  0
  3  4  1  0
  4  5  1  0
  5  6  1  0
  6  7  1  0
  7  8  2  0
  7  9  1  0
  9 10  1  0
 10 11  1  0
 11 12  1  0
 12 13  2  0
 13 14  1  0
 14 15  2  0
 15 16  1  0
 16 17  2  0
 17 18  1  0
  5 19  1  0
 19 20  1  0
 20 21  2  0
 21 22  1  0
 22 23  2  0
 23 24  1  0
 24 25  2  0
 18  9  1  0
 25 20  1  0
 17 12  1  0
  1 26  1  0
  1 27  1  0
  2 28  1  0
  2 29  1  0
  3 30  1  0
  3 31  1  0
  4 32  1  0
  4 33  1  0
  6 34  1  0
  6 35  1  0
 10 36  1  0
 10 37  1  0
 11 38  1  0
 11 39  1  0
 13 40  1  0
 14 41  1  0
 15 42  1  0
 16 43  1  0
 18 44  1  0
 18 45  1  0
 19 46  1  0
 19 47  1  0
 21 48  1  0
 22 49  1  0
 23 50  1  0
 24 51  1  0
 25 52  1  0
M  END
>  <UniqueID>  (25) 
24

>  <SMILES>  (25) 
NCCCN(CC(=O)N1CCc2ccccc2C1)Cc1ccccc1

>  <Energy>  (25) 
59.303958596716036

>  <Genealogy>  (25) 
NCCCN(CC(=O)N1CCc2ccccc2C1)Cc1ccccc1 (3D coordinates assigned)
NCCCN(CC(=O)N1CCc2ccccc2C1)Cc1ccccc1 (nonaromatic ring conformer: 59.303958596716036 kcal/mol)

>  <smiles>  (25) 
NCCCN(CC(=O)N1CCc2ccccc2C1)Cc1ccccc1

>  <score_type>  (25) 
oracle

>  <origin>  (25) 
adg

>  <m_score__min__energy>  (25) 
-9.0500000000000007

>  <m_primary>  (25) 
energy

$$$$
25:0
     RDKit          3D

 33 34  0  0  0  0  0  0  0  0999 V2000
   -8.1240   19.4910  -31.6230 C   0  0  0  0  0  0  0  0  0  0  0  0
   -8.4960   20.7880  -32.3310 C   0  0  0  0  0  0  0  0  0  0  0  0
   -7.6120   21.8680  -31.9010 N   0  0  0  0  0  0  0  0  0  0  0  0
   -6.2650   21.8550  -31.9490 C   0  0  0  0  0  0  0  0  0  0  0  0
   -5.8200   23.0890  -31.5240 C   0  0  0  0  0  0  0  0  0  0  0  0
   -4.4460   23.4940  -31.4670 N   0  0  0  0  0  0  0  0  0  0  0  0
   -3.8360   24.3170  -30.4620 C   0  0  0  0  0  0  0  0  0  0  0  0
   -3.9090   25.5710  -30.5510 O   0  0  0  0  0  0  0  0  0  0  0  0
   -3.1390   23.6840  -29.3090 C   0  0  0  0  0  0  0  0  0  0  0  0
   -3.4980   22.3760  -28.9210 C   0  0  0  0  0  0  0  0  0  0  0  0
   -2.8670   21.7500  -27.8450 C   0  0  0  0  0  0  0  0  0  0  0  0
   -1.8680   22.4120  -27.1390 C   0  0  0  0  0  0  0  0  0  0  0  0
   -1.4940   23.7060  -27.5020 C   0  0  0  0  0  0  0  0  0  0  0  0
   -2.1190   24.3570  -28.5860 C   0  0  0  0  0  0  0  0  0  0  0  0
   -1.7500   25.6600  -28.9600 O   0  0  0  0  0  0  0  0  0  0  0  0
   -0.8690   26.5000  -28.2200 C   0  0  0  0  0  0  0  0  0  0  0  0
   -6.9540   23.8340  -31.2460 C   0  0  0  0  0  0  0  0  0  0  0  0
   -8.0260   23.0560  -31.4900 N   0  0  0  0  0  0  0  0  0  0  0  0
   -8.1673   19.6421  -30.5343 H   0  0  0  0  0  0  0  0  0  0  0  0
   -8.8314   18.6997  -31.9118 H   0  0  0  0  0  0  0  0  0  0  0  0
   -7.1047   19.1949  -31.9118 H   0  0  0  0  0  0  0  0  0  0  0  0
   -8.3987   20.6496  -33.4179 H   0  0  0  0  0  0  0  0  0  0  0  0
   -9.5337   21.0507  -32.0776 H   0  0  0  0  0  0  0  0  0  0  0  0
   -5.6347   21.0123  -32.2693 H   0  0  0  0  0  0  0  0  0  0  0  0
   -4.2854   21.8426  -29.4737 H   0  0  0  0  0  0  0  0  0  0  0  0
   -3.1605   20.7304  -27.5545 H   0  0  0  0  0  0  0  0  0  0  0  0
   -1.3719   21.9142  -26.2928 H   0  0  0  0  0  0  0  0  0  0  0  0
   -0.7043   24.2235  -26.9376 H   0  0  0  0  0  0  0  0  0  0  0  0
   -1.0321   26.3444  -27.1433 H   0  0  0  0  0  0  0  0  0  0  0  0
    0.1725   26.2521  -28.4726 H   0  0  0  0  0  0  0  0  0  0  0  0
   -1.0671   27.5521  -28.4726 H   0  0  0  0  0  0  0  0  0  0  0  0
   -6.9753   24.8745  -30.8898 H   0  0  0  0  0  0  0  0  0  0  0  0
   -9.0270   23.3410  -31.3950 H   0  0  0  0  0  0  0  0  0  0  0  0
  1  2  1  0
  2  3  1  0
  3  4  1  0
  4  5  2  0
  5  6  1  0
  6  7  1  0
  7  8  2  0
  7  9  1  0
  9 10  2  0
 10 11  1  0
 11 12  2  0
 12 13  1  0
 13 14  2  0
 14 15  1  0
 15 16  1  0
  5 17  1  0
 17 18  2  0
 18  3  1  0
 14  9  1  0
  1 19  1  0
  1 20  1  0
  1 21  1  0
  2 22  1  0
  2 23  1  0
  4 24  1  0
 10 25  1  0
 11 26  1  0
 12 27  1  0
 13 28  1  0
 16 29  1  0
 16 30  1  0
 16 31  1  0
 17 32  1  0
 18 33  1  0
M  CHG  2   6  -1  18   1
M  END
>  <UniqueID>  (26) 
25

>  <SMILES>  (26) 
CCn1cc([N-]C(=O)c2ccccc2OC)c[nH+]1

>  <Energy>  (26) 
64.5948497253271

>  <Genealogy>  (26) 
CCn1cc([N-]C(=O)c2ccccc2OC)c[nH+]1 (protonated)
CCn1cc([N-]C(=O)c2ccccc2OC)c[nH+]1 (3D coordinates assigned)
CCn1cc([N-]C(=O)c2ccccc2OC)c[nH+]1 (optimized conformer: 64.5948497253271 kcal/mol)

>  <smiles>  (26) 
CCn1cc(NC(=O)c2ccccc2OC)cn1

>  <score_type>  (26) 
oracle

>  <origin>  (26) 
adg

>  <m_score__min__energy>  (26) 
-7.75

>  <m_primary>  (26) 
energy

$$$$
26:0
     RDKit          3D

 13 13  0  0  0  0  0  0  0  0999 V2000
   -9.4880   17.8210  -31.2150 F   0  0  0  0  0  0  0  0  0  0  0  0
   -8.6440   18.6960  -31.8150 C   0  0  0  0  0  0  0  0  0  0  0  0
   -7.7170   18.2390  -32.7580 C   0  0  0  0  0  0  0  0  0  0  0  0
   -6.8460   19.1420  -33.3790 C   0  0  0  0  0  0  0  0  0  0  0  0
   -5.6620   18.5570  -34.5870 S   0  0  0  0  0  0  0  0  0  0  0  0
   -6.9020   20.5020  -33.0540 C   0  0  0  0  0  0  0  0  0  0  0  0
   -7.8280   20.9600  -32.1090 C   0  0  0  0  0  0  0  0  0  0  0  0
   -7.8980   22.6650  -31.7030 Cl  0  0  0  0  0  0  0  0  0  0  0  0
   -8.6990   20.0550  -31.4910 C   0  0  0  0  0  0  0  0  0  0  0  0
   -7.6725   17.1696  -33.0116 H   0  0  0  0  0  0  0  0  0  0  0  0
   -6.5140   18.8790  -35.6600 H   0  0  0  0  0  0  0  0  0  0  0  0
   -6.2177   21.2120  -33.5415 H   0  0  0  0  0  0  0  0  0  0  0  0
   -9.4279   20.4136  -30.7493 H   0  0  0  0  0  0  0  0  0  0  0  0
  1  2  1  0
  2  3  2  0
  3  4  1  0
  4  5  1  0
  4  6  2  0
  6  7  1  0
  7  8  1  0
  7  9  2  0
  9  2  1  0
  3 10  1  0
  5 11  1  0
  6 12  1  0
  9 13  1  0
M  END
>  <UniqueID>  (27) 
26

>  <SMILES>  (27) 
Fc1cc(S)cc(Cl)c1

>  <Energy>  (27) 
10.275141625209086

>  <Genealogy>  (27) 
Fc1cc(S)cc(Cl)c1 (3D coordinates assigned)
Fc1cc(S)cc(Cl)c1 (optimized conformer: 10.275141625209086 kcal/mol)

>  <smiles>  (27) 
Fc1cc(S)cc(Cl)c1

>  <score_type>  (27) 
oracle

>  <origin>  (27) 
adg

>  <m_score__min__energy>  (27) 
-4.75

>  <m_primary>  (27) 
energy

$$$$
27:0
     RDKit          3D

 49 52  0  0  0  0  0  0  0  0999 V2000
    2.1550   24.5240  -27.4680 C   0  0  0  0  0  0  0  0  0  0  0  0
    0.9910   25.2540  -27.8380 O   0  0  0  0  0  0  0  0  0  0  0  0
   -0.0190   25.6550  -26.9480 C   0  0  0  0  0  0  0  0  0  0  0  0
    0.1780   26.6980  -26.0220 C   0  0  0  0  0  0  0  0  0  0  0  0
   -0.8380   27.0520  -25.1310 C   0  0  0  0  0  0  0  0  0  0  0  0
   -2.0550   26.3720  -25.1510 C   0  0  0  0  0  0  0  0  0  0  0  0
   -2.2650   25.3390  -26.0660 C   0  0  0  0  0  0  0  0  0  0  0  0
   -1.2570   24.9800  -26.9760 C   0  0  0  0  0  0  0  0  0  0  0  0
   -1.4860   23.9090  -27.9100 N   0  0  0  0  0  0  0  0  0  0  0  0
   -1.9020   22.5840  -27.4490 C   0  0  0  0  0  0  0  0  0  0  0  0
   -3.1580   22.1320  -28.2130 C   0  0  0  0  0  0  0  0  0  0  0  0
   -3.1950   22.5700  -29.6310 N   0  0  0  0  0  0  0  0  0  0  0  0
   -4.4340   23.7760  -29.9090 S   0  0  0  0  0  0  0  0  0  0  0  0
   -4.8310   24.4220  -28.6120 O   0  0  0  0  0  0  0  0  0  0  0  0
   -3.9260   24.8350  -30.8460 O   0  0  0  0  0  0  0  0  0  0  0  0
   -5.8380   23.0040  -30.6430 C   0  0  0  0  0  0  0  0  0  0  0  0
   -7.0240   23.7230  -30.8480 C   0  0  0  0  0  0  0  0  0  0  0  0
   -8.1390   23.0990  -31.4120 C   0  0  0  0  0  0  0  0  0  0  0  0
   -8.0800   21.7460  -31.7770 C   0  0  0  0  0  0  0  0  0  0  0  0
   -9.1950   21.1080  -32.3430 C   0  0  0  0  0  0  0  0  0  0  0  0
   -9.1240   19.7580  -32.7010 C   0  0  0  0  0  0  0  0  0  0  0  0
   -7.9440   19.0380  -32.4980 C   0  0  0  0  0  0  0  0  0  0  0  0
   -6.8270   19.6610  -31.9350 C   0  0  0  0  0  0  0  0  0  0  0  0
   -6.8850   21.0160  -31.5720 C   0  0  0  0  0  0  0  0  0  0  0  0
   -5.7700   21.6520  -31.0040 C   0  0  0  0  0  0  0  0  0  0  0  0
   -1.8860   22.9920  -30.1720 C   0  0  0  0  0  0  0  0  0  0  0  0
   -1.2460   24.1170  -29.3410 C   0  0  0  0  0  0  0  0  0  0  0  0
    2.2265   24.4792  -26.3712 H   0  0  0  0  0  0  0  0  0  0  0  0
    2.0920   23.5034  -27.8734 H   0  0  0  0  0  0  0  0  0  0  0  0
    3.0464   25.0251  -27.8734 H   0  0  0  0  0  0  0  0  0  0  0  0
    1.1369   27.2366  -26.0004 H   0  0  0  0  0  0  0  0  0  0  0  0
   -0.6775   27.8690  -24.4121 H   0  0  0  0  0  0  0  0  0  0  0  0
   -2.8510   26.6500  -24.4445 H   0  0  0  0  0  0  0  0  0  0  0  0
   -3.2255   24.8029  -26.0745 H   0  0  0  0  0  0  0  0  0  0  0  0
   -1.0890   21.8646  -27.6265 H   0  0  0  0  0  0  0  0  0  0  0  0
   -2.1304   22.6308  -26.3740 H   0  0  0  0  0  0  0  0  0  0  0  0
   -3.1998   21.0330  -28.1897 H   0  0  0  0  0  0  0  0  0  0  0  0
   -4.0189   22.6005  -27.7136 H   0  0  0  0  0  0  0  0  0  0  0  0
   -7.0767   24.7842  -30.5631 H   0  0  0  0  0  0  0  0  0  0  0  0
   -9.0657   23.6701  -31.5703 H   0  0  0  0  0  0  0  0  0  0  0  0
  -10.1261   21.6709  -32.5052 H   0  0  0  0  0  0  0  0  0  0  0  0
  -10.0000   19.2614  -33.1438 H   0  0  0  0  0  0  0  0  0  0  0  0
   -7.8940   17.9766  -32.7825 H   0  0  0  0  0  0  0  0  0  0  0  0
   -5.9010   19.0890  -31.7760 H   0  0  0  0  0  0  0  0  0  0  0  0
   -4.8401   21.0872  -30.8418 H   0  0  0  0  0  0  0  0  0  0  0  0
   -1.2086   22.1254  -30.1752 H   0  0  0  0  0  0  0  0  0  0  0  0
   -2.0507   23.3770  -31.1892 H   0  0  0  0  0  0  0  0  0  0  0  0
   -0.1618   24.1302  -29.5265 H   0  0  0  0  0  0  0  0  0  0  0  0
   -1.6973   25.0751  -29.6383 H   0  0  0  0  0  0  0  0  0  0  0  0
  1  2  1  0
  2  3  1  0
  3  4  2  0
  4  5  1  0
  5  6  2  0
  6  7  1  0
  7  8  2  0
  8  9  1  0
  9 10  1  0
 10 11  1  0
 11 12  1  0
 12 13  1  0
 13 14  2  0
 13 15  2  0
 13 16  1  0
 16 17  2  0
 17 18  1  0
 18 19  2  0
 19 20  1  0
 20 21  2  0
 21 22  1  0
 22 23  2  0
 23 24  1  0
 24 25  2  0
 12 26  1  0
 26 27  1  0
  8  3  1  0
 27  9  1  0
 25 16  1  0
 24 19  1  0
  1 28  1  0
  1 29  1  0
  1 30  1  0
  4 31  1  0
  5 32  1  0
  6 33  1  0
  7 34  1  0
 10 35  1  0
 10 36  1  0
 11 37  1  0
 11 38  1  0
 17 39  1  0
 18 40  1  0
 20 41  1  0
 21 42  1  0
 22 43  1  0
 23 44  1  0
 25 45  1  0
 26 46  1  0
 26 47  1  0
 27 48  1  0
 27 49  1  0
M  END
>  <UniqueID>  (28) 
27

>  <SMILES>  (28) 
COc1ccccc1N1CCN(S(=O)(=O)c2ccc3ccccc3c2)CC1

>  <Energy>  (28) 
65.14806898498675

>  <Genealogy>  (28) 
COc1ccccc1N1CCN(S(=O)(=O)c2ccc3ccccc3c2)CC1 (3D coordinates assigned)
COc1ccccc1N1CCN(S(=O)(=O)c2ccc3ccccc3c2)CC1 (nonaromatic ring conformer: 65.14806898498675 kcal/mol)

>  <smiles>  (28) 
COc1ccccc1N1CCN(S(=O)(=O)c2ccc3ccccc3c2)CC1

>  <score_type>  (28) 
oracle

>  <origin>  (28) 
adg

>  <m_score__min__energy>  (28) 
-9.6400000000000006

>  <m_primary>  (28) 
energy

$$$$
28:0
     RDKit          3D

 42 45  0  0  0  0  0  0  0  0999 V2000
   -1.8600   25.6730  -28.9480 O   0  0  0  0  0  0  0  0  0  0  0  0
   -1.9660   25.1010  -27.8440 N   0  0  0  0  0  0  0  0  0  0  0  0
   -2.3690   25.8370  -26.7540 O   0  0  0  0  0  0  0  0  0  0  0  0
   -1.8390   23.6700  -27.7550 C   0  0  0  0  0  0  0  0  0  0  0  0
   -0.7810   23.1180  -27.0090 C   0  0  0  0  0  0  0  0  0  0  0  0
   -0.5910   21.7360  -26.9550 C   0  0  0  0  0  0  0  0  0  0  0  0
   -1.4560   20.8840  -27.6410 C   0  0  0  0  0  0  0  0  0  0  0  0
   -2.5200   21.4100  -28.3720 C   0  0  0  0  0  0  0  0  0  0  0  0
   -2.7320   22.8000  -28.4330 C   0  0  0  0  0  0  0  0  0  0  0  0
   -3.9280   23.3070  -29.1420 C   0  0  0  0  0  0  0  0  0  0  0  0
   -4.4250   24.5580  -28.8780 N   0  0  0  0  0  0  0  0  0  0  0  0
   -5.5540   25.0250  -29.5040 C   0  0  0  0  0  0  0  0  0  0  0  0
   -6.2160   24.2510  -30.4130 N   0  0  0  0  0  0  0  0  0  0  0  0
   -5.7200   23.0190  -30.6790 C   0  0  0  0  0  0  0  0  0  0  0  0
   -4.6150   22.5300  -30.0720 C   0  0  0  0  0  0  0  0  0  0  0  0
   -4.3720   21.2710  -30.4840 N   0  0  0  0  0  0  0  0  0  0  0  0
   -5.3910   21.0350  -31.3550 C   0  0  0  0  0  0  0  0  0  0  0  0
   -6.2300   22.0920  -31.4980 N   0  0  0  0  0  0  0  0  0  0  0  0
   -7.4850   22.1380  -32.2460 C   0  0  0  0  0  0  0  0  0  0  0  0
   -8.2940   20.8500  -32.0390 C   0  0  0  0  0  0  0  0  0  0  0  0
   -7.6030   19.6590  -32.6490 C   0  0  0  0  0  0  0  0  0  0  0  0
   -7.6900   18.3990  -32.0340 C   0  0  0  0  0  0  0  0  0  0  0  0
   -6.9920   17.3070  -32.5610 C   0  0  0  0  0  0  0  0  0  0  0  0
   -6.1980   17.4680  -33.7000 C   0  0  0  0  0  0  0  0  0  0  0  0
   -6.1010   18.7180  -34.3150 C   0  0  0  0  0  0  0  0  0  0  0  0
   -6.8000   19.8110  -33.7930 C   0  0  0  0  0  0  0  0  0  0  0  0
   -0.0961   23.7829  -26.4624 H   0  0  0  0  0  0  0  0  0  0  0  0
    0.2422   21.3185  -26.3705 H   0  0  0  0  0  0  0  0  0  0  0  0
   -1.2985   19.7959  -27.6052 H   0  0  0  0  0  0  0  0  0  0  0  0
   -3.2010   20.7316  -28.9067 H   0  0  0  0  0  0  0  0  0  0  0  0
   -3.9530   25.1700  -28.1740 H   0  0  0  0  0  0  0  0  0  0  0  0
   -5.9288   26.0326  -29.2709 H   0  0  0  0  0  0  0  0  0  0  0  0
   -5.5214   20.0825  -31.8896 H   0  0  0  0  0  0  0  0  0  0  0  0
   -8.0795   22.9962  -31.8995 H   0  0  0  0  0  0  0  0  0  0  0  0
   -7.2525   22.2386  -33.3164 H   0  0  0  0  0  0  0  0  0  0  0  0
   -8.4194   20.6764  -30.9600 H   0  0  0  0  0  0  0  0  0  0  0  0
   -9.2695   20.9726  -32.5324 H   0  0  0  0  0  0  0  0  0  0  0  0
   -8.3096   18.2704  -31.1342 H   0  0  0  0  0  0  0  0  0  0  0  0
   -7.0681   16.3213  -32.0788 H   0  0  0  0  0  0  0  0  0  0  0  0
   -5.6488   16.6088  -34.1125 H   0  0  0  0  0  0  0  0  0  0  0  0
   -5.4745   18.8430  -35.2105 H   0  0  0  0  0  0  0  0  0  0  0  0
   -6.7212   20.7943  -34.2798 H   0  0  0  0  0  0  0  0  0  0  0  0
  1  2  2  0
  2  3  1  0
  2  4  1  0
  4  5  2  0
  5  6  1  0
  6  7  2  0
  7  8  1  0
  8  9  2  0
  9 10  1  0
 10 11  2  0
 11 12  1  0
 12 13  2  0
 13 14  1  0
 14 15  2  0
 15 16  1  0
 16 17  2  0
 17 18  1  0
 18 19  1  0
 19 20  1  0
 20 21  1  0
 21 22  2  0
 22 23  1  0
 23 24  2  0
 24 25  1  0
 25 26  2  0
  9  4  1  0
 15 10  1  0
 26 21  1  0
 18 14  1  0
  5 27  1  0
  6 28  1  0
  7 29  1  0
  8 30  1  0
 11 31  1  0
 12 32  1  0
 17 33  1  0
 19 34  1  0
 19 35  1  0
 20 36  1  0
 20 37  1  0
 22 38  1  0
 23 39  1  0
 24 40  1  0
 25 41  1  0
 26 42  1  0
M  CHG  3   2   1   3  -1  11   1
M  END
>  <UniqueID>  (29) 
28

>  <SMILES>  (29) 
O=[N+]([O-])c1ccccc1-c1[nH+]cnc2c1ncn2CCc1ccccc1

>  <Energy>  (29) 
92.04444369627608

>  <Genealogy>  (29) 
O=[N+]([O-])c1ccccc1-c1[nH+]cnc2c1ncn2CCc1ccccc1 (protonated)
O=[N+]([O-])c1ccccc1-c1[nH+]cnc2c1ncn2CCc1ccccc1 (3D coordinates assigned)
O=[N+]([O-])c1ccccc1-c1[nH+]cnc2c1ncn2CCc1ccccc1 (optimized conformer: 92.04444369627608 kcal/mol)

>  <smiles>  (29) 
O=[N+]([O-])c1ccccc1-c1ncnc2c1ncn2CCc1ccccc1

>  <score_type>  (29) 
oracle

>  <origin>  (29) 
adg

>  <m_score__min__energy>  (29) 
-8.6099999999999994

>  <m_primary>  (29) 
energy

$$$$
29:0
     RDKit          3D

 53 56  0  0  0  0  0  0  0  0999 V2000
    0.6400   16.1110  -31.5940 C   0  0  0  0  0  0  0  0  0  0  0  0
    0.6340   17.5250  -31.7610 O   0  0  0  0  0  0  0  0  0  0  0  0
    0.2910   18.4410  -30.7550 C   0  0  0  0  0  0  0  0  0  0  0  0
    0.8210   18.2490  -29.4740 C   0  0  0  0  0  0  0  0  0  0  0  0
    0.5130   19.1330  -28.4390 C   0  0  0  0  0  0  0  0  0  0  0  0
   -0.3320   20.2200  -28.6740 C   0  0  0  0  0  0  0  0  0  0  0  0
   -0.8780   20.4350  -29.9520 C   0  0  0  0  0  0  0  0  0  0  0  0
   -1.7770   21.5900  -30.2020 C   0  0  0  0  0  0  0  0  0  0  0  0
   -2.7980   21.4990  -31.1600 C   0  0  0  0  0  0  0  0  0  0  0  0
   -3.6610   22.5790  -31.4130 C   0  0  0  0  0  0  0  0  0  0  0  0
   -3.4760   23.7840  -30.6920 C   0  0  0  0  0  0  0  0  0  0  0  0
   -2.4740   23.8770  -29.7150 C   0  0  0  0  0  0  0  0  0  0  0  0
   -2.3460   25.0840  -29.0080 O   0  0  0  0  0  0  0  0  0  0  0  0
   -1.4370   25.2980  -27.9320 C   0  0  0  0  0  0  0  0  0  0  0  0
   -1.6270   22.7810  -29.4780 C   0  0  0  0  0  0  0  0  0  0  0  0
   -4.2770   24.9080  -30.9130 O   0  0  0  0  0  0  0  0  0  0  0  0
   -5.6980   24.8800  -30.8130 C   0  0  0  0  0  0  0  0  0  0  0  0
   -6.3350   24.1810  -32.0100 C   0  0  0  0  0  0  0  0  0  0  0  0
   -6.1390   22.7200  -31.8850 N   0  0  0  0  0  0  0  0  0  0  0  0
   -7.2030   21.9790  -32.5950 C   0  0  0  0  0  0  0  0  0  0  0  0
   -7.1700   20.5150  -32.2360 C   0  0  0  0  0  0  0  0  0  0  0  0
   -6.0720   19.7230  -32.5970 C   0  0  0  0  0  0  0  0  0  0  0  0
   -6.0550   18.3650  -32.2760 C   0  0  0  0  0  0  0  0  0  0  0  0
   -7.1400   17.8110  -31.5940 C   0  0  0  0  0  0  0  0  0  0  0  0
   -8.2020   18.5890  -31.2500 N   0  0  0  0  0  0  0  0  0  0  0  0
   -8.2400   19.9160  -31.5540 C   0  0  0  0  0  0  0  0  0  0  0  0
   -4.8010   22.3300  -32.3880 C   0  0  0  0  0  0  0  0  0  0  0  0
   -0.5600   19.5390  -30.9900 C   0  0  0  0  0  0  0  0  0  0  0  0
    0.6410   15.8685  -30.5211 H   0  0  0  0  0  0  0  0  0  0  0  0
   -0.2563   15.6822  -32.0660 H   0  0  0  0  0  0  0  0  0  0  0  0
    1.5399   15.6899  -32.0660 H   0  0  0  0  0  0  0  0  0  0  0  0
    1.4859   17.3941  -29.2814 H   0  0  0  0  0  0  0  0  0  0  0  0
    0.9364   18.9734  -27.4364 H   0  0  0  0  0  0  0  0  0  0  0  0
   -0.5720   20.9126  -27.8538 H   0  0  0  0  0  0  0  0  0  0  0  0
   -2.9256   20.5635  -31.7244 H   0  0  0  0  0  0  0  0  0  0  0  0
   -1.9655   25.1736  -26.9753 H   0  0  0  0  0  0  0  0  0  0  0  0
   -0.6160   24.5686  -27.9950 H   0  0  0  0  0  0  0  0  0  0  0  0
   -1.0277   26.3171  -27.9950 H   0  0  0  0  0  0  0  0  0  0  0  0
   -0.8375   22.8585  -28.7159 H   0  0  0  0  0  0  0  0  0  0  0  0
   -5.9801   24.3432  -29.8953 H   0  0  0  0  0  0  0  0  0  0  0  0
   -6.0603   25.9184  -30.7900 H   0  0  0  0  0  0  0  0  0  0  0  0
   -7.4114   24.4063  -32.0369 H   0  0  0  0  0  0  0  0  0  0  0  0
   -5.8643   24.5376  -32.9380 H   0  0  0  0  0  0  0  0  0  0  0  0
   -8.1813   22.3966  -32.3148 H   0  0  0  0  0  0  0  0  0  0  0  0
   -7.0386   22.0792  -33.6780 H   0  0  0  0  0  0  0  0  0  0  0  0
   -5.2231   20.1718  -33.1336 H   0  0  0  0  0  0  0  0  0  0  0  0
   -5.1961   17.7379  -32.5572 H   0  0  0  0  0  0  0  0  0  0  0  0
   -7.1363   16.7422  -31.3339 H   0  0  0  0  0  0  0  0  0  0  0  0
   -9.0070   18.1590  -30.7430 H   0  0  0  0  0  0  0  0  0  0  0  0
   -9.1123   20.5201  -31.2640 H   0  0  0  0  0  0  0  0  0  0  0  0
   -4.8227   21.2557  -32.6234 H   0  0  0  0  0  0  0  0  0  0  0  0
   -4.6025   22.9604  -33.2673 H   0  0  0  0  0  0  0  0  0  0  0  0
   -0.9799   19.6976  -31.9942 H   0  0  0  0  0  0  0  0  0  0  0  0
  1  2  1  0
  2  3  1  0
  3  4  2  0
  4  5  1  0
  5  6  2  0
  6  7  1  0
  7  8  1  0
  8  9  2  0
  9 10  1  0
 10 11  2  0
 11 12  1  0
 12 13  1  0
 13 14  1  0
 12 15  2  0
 11 16  1  0
 16 17  1  0
 17 18  1  0
 18 19  1  0
 19 20  1  0
 20 21  1  0
 21 22  2  0
 22 23  1  0
 23 24  2  0
 24 25  1  0
 25 26  2  0
 19 27  1  0
  7 28  2  0
 28  3  1  0
 15  8  1  0
 26 21  1  0
 27 10  1  0
  1 29  1  0
  1 30  1  0
  1 31  1  0
  4 32  1  0
  5 33  1  0
  6 34  1  0
  9 35  1  0
 14 36  1  0
 14 37  1  0
 14 38  1  0
 15 39  1  0
 17 40  1  0
 17 41  1  0
 18 42  1  0
 18 43  1  0
 20 44  1  0
 20 45  1  0
 22 46  1  0
 23 47  1  0
 24 48  1  0
 25 49  1  0
 26 50  1  0
 27 51  1  0
 27 52  1  0
 28 53  1  0
M  CHG  1  25   1
M  END
>  <UniqueID>  (30) 
29

>  <SMILES>  (30) 
COc1cccc(-c2cc3c(c(OC)c2)OCCN(Cc2ccc[nH+]c2)C3)c1

>  <Energy>  (30) 
76.30189606996895

>  <Genealogy>  (30) 
COc1cccc(-c2cc3c(c(OC)c2)OCCN(Cc2ccc[nH+]c2)C3)c1 (protonated)
COc1cccc(-c2cc3c(c(OC)c2)OCCN(Cc2ccc[nH+]c2)C3)c1 (3D coordinates assigned)
COc1cccc(-c2cc3c(c(OC)c2)OCCN(Cc2ccc[nH+]c2)C3)c1 (nonaromatic ring conformer: 76.30189606996895 kcal/mol)

>  <smiles>  (30) 
COc1cccc(-c2cc3c(c(OC)c2)OCCN(Cc2cccnc2)C3)c1

>  <score_type>  (30) 
oracle

>  <origin>  (30) 
adg

>  <m_score__min__energy>  (30) 
-7.0700000000000003

>  <m_primary>  (30) 
energy

$$$$
30:0
     RDKit          3D

 46 49  0  0  0  0  0  0  0  0999 V2000
   -5.3760   25.5790  -30.1340 C   0  0  0  0  0  0  0  0  0  0  0  0
   -5.8340   24.3470  -30.8460 C   0  0  0  0  0  0  0  0  0  0  0  0
   -7.2130   24.0890  -30.9990 C   0  0  0  0  0  0  0  0  0  0  0  0
   -7.6600   22.9360  -31.6860 C   0  0  0  0  0  0  0  0  0  0  0  0
   -9.1300   22.8000  -31.9650 C   0  0  0  0  0  0  0  0  0  0  0  0
   -6.6690   22.0300  -32.1420 C   0  0  0  0  0  0  0  0  0  0  0  0
   -5.3380   22.3740  -32.0080 C   0  0  0  0  0  0  0  0  0  0  0  0
   -4.9130   23.4930  -31.3770 N   0  0  0  0  0  0  0  0  0  0  0  0
   -4.5900   21.4120  -32.6260 C   0  0  0  0  0  0  0  0  0  0  0  0
   -3.2150   21.2890  -32.8070 C   0  0  0  0  0  0  0  0  0  0  0  0
   -2.7490   20.1720  -33.5220 C   0  0  0  0  0  0  0  0  0  0  0  0
   -3.6590   19.2240  -34.0370 C   0  0  0  0  0  0  0  0  0  0  0  0
   -5.0440   19.3780  -33.8360 C   0  0  0  0  0  0  0  0  0  0  0  0
   -5.4890   20.4880  -33.1080 C   0  0  0  0  0  0  0  0  0  0  0  0
   -6.7720   20.8230  -32.7860 N   0  0  0  0  0  0  0  0  0  0  0  0
   -7.9330   19.9270  -32.9320 C   0  0  0  0  0  0  0  0  0  0  0  0
   -8.1280   19.0050  -31.7100 C   0  0  0  0  0  0  0  0  0  0  0  0
   -6.8730   18.2290  -31.2680 C   0  0  0  0  0  0  0  0  0  0  0  0
   -6.4900   17.1030  -32.1950 C   0  0  0  0  0  0  0  0  0  0  0  0
   -7.1970   16.8830  -33.3920 C   0  0  0  0  0  0  0  0  0  0  0  0
   -6.8120   15.8560  -34.2610 C   0  0  0  0  0  0  0  0  0  0  0  0
   -5.7120   15.0520  -33.9530 C   0  0  0  0  0  0  0  0  0  0  0  0
   -4.9860   15.2820  -32.7820 C   0  0  0  0  0  0  0  0  0  0  0  0
   -5.3640   16.3080  -31.9120 C   0  0  0  0  0  0  0  0  0  0  0  0
   -5.4358   25.4182  -29.0475 H   0  0  0  0  0  0  0  0  0  0  0  0
   -4.3357   25.7997  -30.4153 H   0  0  0  0  0  0  0  0  0  0  0  0
   -6.0194   26.4257  -30.4153 H   0  0  0  0  0  0  0  0  0  0  0  0
   -7.9480   24.7918  -30.5797 H   0  0  0  0  0  0  0  0  0  0  0  0
   -9.6805   22.7491  -31.0140 H   0  0  0  0  0  0  0  0  0  0  0  0
   -9.4756   23.6700  -32.5426 H   0  0  0  0  0  0  0  0  0  0  0  0
   -9.3101   21.8814  -32.5426 H   0  0  0  0  0  0  0  0  0  0  0  0
   -2.5182   22.0391  -32.4048 H   0  0  0  0  0  0  0  0  0  0  0  0
   -1.6691   20.0360  -33.6810 H   0  0  0  0  0  0  0  0  0  0  0  0
   -3.2829   18.3573  -34.6003 H   0  0  0  0  0  0  0  0  0  0  0  0
   -5.7578   18.6453  -34.2404 H   0  0  0  0  0  0  0  0  0  0  0  0
   -8.8375   20.5401  -33.0588 H   0  0  0  0  0  0  0  0  0  0  0  0
   -7.7515   19.2862  -33.8074 H   0  0  0  0  0  0  0  0  0  0  0  0
   -8.4597   19.6258  -30.8647 H   0  0  0  0  0  0  0  0  0  0  0  0
   -8.8649   18.2469  -32.0137 H   0  0  0  0  0  0  0  0  0  0  0  0
   -6.0309   18.9347  -31.2146 H   0  0  0  0  0  0  0  0  0  0  0  0
   -7.1067   17.7740  -30.2942 H   0  0  0  0  0  0  0  0  0  0  0  0
   -8.0562   17.5214  -33.6456 H   0  0  0  0  0  0  0  0  0  0  0  0
   -7.3768   15.6814  -35.1887 H   0  0  0  0  0  0  0  0  0  0  0  0
   -5.4177   14.2383  -34.6322 H   0  0  0  0  0  0  0  0  0  0  0  0
   -4.1147   14.6540  -32.5442 H   0  0  0  0  0  0  0  0  0  0  0  0
   -4.7777   16.4954  -31.0003 H   0  0  0  0  0  0  0  0  0  0  0  0
  1  2  1  0
  2  3  2  0
  3  4  1  0
  4  5  1  0
  4  6  2  0
  6  7  1  0
  7  8  2  0
  7  9  1  0
  9 10  2  0
 10 11  1  0
 11 12  2  0
 12 13  1  0
 13 14  2  0
 14 15  1  0
 15 16  1  0
 16 17  1  0
 17 18  1  0
 18 19  1  0
 19 20  2  0
 20 21  1  0
 21 22  2  0
 22 23  1  0
 23 24  2  0
  8  2  1  0
 14  9  1  0
 24 19  1  0
 15  6  1  0
  1 25  1  0
  1 26  1  0
  1 27  1  0
  3 28  1  0
  5 29  1  0
  5 30  1  0
  5 31  1  0
 10 32  1  0
 11 33  1  0
 12 34  1  0
 13 35  1  0
 16 36  1  0
 16 37  1  0
 17 38  1  0
 17 39  1  0
 18 40  1  0
 18 41  1  0
 20 42  1  0
 21 43  1  0
 22 44  1  0
 23 45  1  0
 24 46  1  0
M  END
>  <UniqueID>  (31) 
30

>  <SMILES>  (31) 
Cc1cc(C)c2c(n1)c1ccccc1n2CCCc1ccccc1

>  <Energy>  (31) 
94.45311600470092

>  <Genealogy>  (31) 
Cc1cc(C)c2c(n1)c1ccccc1n2CCCc1ccccc1 (3D coordinates assigned)
Cc1cc(C)c2c(n1)c1ccccc1n2CCCc1ccccc1 (optimized conformer: 94.45311600470092 kcal/mol)

>  <smiles>  (31) 
Cc1cc(C)c2c(n1)c1ccccc1n2CCCc1ccccc1

>  <score_type>  (31) 
oracle

>  <origin>  (31) 
adg

>  <m_score__min__energy>  (31) 
-8.9800000000000004

>  <m_primary>  (31) 
energy

$$$$
31:0
     RDKit          3D

 38 40  0  0  0  0  0  0  0  0999 V2000
   -0.5727   26.9695  -24.5571 H   0  0  0  0  0  0  0  0  0  0  0  0
   -0.9370   26.4370  -25.4480 C   0  0  0  0  0  0  0  0  0  0  0  0
   -2.1130   25.6840  -25.3790 C   0  0  0  0  0  0  0  0  0  0  0  0
   -2.6757   25.6279  -24.4355 H   0  0  0  0  0  0  0  0  0  0  0  0
   -2.5740   25.0020  -26.5100 C   0  0  0  0  0  0  0  0  0  0  0  0
   -3.5039   24.4170  -26.4556 H   0  0  0  0  0  0  0  0  0  0  0  0
   -1.8550   25.0610  -27.7140 C   0  0  0  0  0  0  0  0  0  0  0  0
   -2.3610   24.3530  -28.9130 C   0  0  0  0  0  0  0  0  0  0  0  0
   -1.7190   23.2020  -29.4280 C   0  0  0  0  0  0  0  0  0  0  0  0
   -0.5000   22.6010  -28.7680 C   0  0  0  0  0  0  0  0  0  0  0  0
   -0.6105   22.6555  -27.6749 H   0  0  0  0  0  0  0  0  0  0  0  0
   -0.3982   21.5494  -29.0743 H   0  0  0  0  0  0  0  0  0  0  0  0
    0.3962   23.1605  -29.0743 H   0  0  0  0  0  0  0  0  0  0  0  0
   -2.2410   22.6340  -30.6040 C   0  0  0  0  0  0  0  0  0  0  0  0
   -1.6910   21.6340  -31.1370 O   0  0  0  0  0  0  0  0  0  0  0  0
   -3.3500   23.1600  -31.1770 N   0  0  0  0  0  0  0  0  0  0  0  0
   -3.9810   24.2420  -30.6490 C   0  0  0  0  0  0  0  0  0  0  0  0
   -5.0500   24.7340  -31.2100 N   0  0  0  0  0  0  0  0  0  0  0  0
   -6.4390   24.2780  -31.0410 C   0  0  0  0  0  0  0  0  0  0  0  0
   -7.0205   25.2068  -30.9447 H   0  0  0  0  0  0  0  0  0  0  0  0
   -6.9490   23.4670  -32.2410 C   0  0  0  0  0  0  0  0  0  0  0  0
   -7.8148   23.9679  -32.6986 H   0  0  0  0  0  0  0  0  0  0  0  0
   -6.1747   23.3718  -33.0165 H   0  0  0  0  0  0  0  0  0  0  0  0
   -7.3560   22.1040  -31.6960 C   0  0  0  0  0  0  0  0  0  0  0  0
   -8.2855   21.7630  -32.1753 H   0  0  0  0  0  0  0  0  0  0  0  0
   -6.5866   21.3441  -31.8974 H   0  0  0  0  0  0  0  0  0  0  0  0
   -7.5710   22.2950  -30.2050 C   0  0  0  0  0  0  0  0  0  0  0  0
   -8.6130   22.5830  -30.0016 H   0  0  0  0  0  0  0  0  0  0  0  0
   -7.3770   21.3684  -29.6449 H   0  0  0  0  0  0  0  0  0  0  0  0
   -6.6230   23.4090  -29.7920 C   0  0  0  0  0  0  0  0  0  0  0  0
   -7.0591   24.0005  -28.9735 H   0  0  0  0  0  0  0  0  0  0  0  0
   -5.6639   23.0128  -29.4270 H   0  0  0  0  0  0  0  0  0  0  0  0
   -3.4840   24.8260  -29.5270 N   0  0  0  0  0  0  0  0  0  0  0  0
   -3.9660   25.6710  -29.1390 H   0  0  0  0  0  0  0  0  0  0  0  0
   -0.6820   25.8330  -27.7790 C   0  0  0  0  0  0  0  0  0  0  0  0
   -0.1226   25.9016  -28.7236 H   0  0  0  0  0  0  0  0  0  0  0  0
   -0.2240   26.5140  -26.6470 C   0  0  0  0  0  0  0  0  0  0  0  0
    0.6984   27.1109  -26.7005 H   0  0  0  0  0  0  0  0  0  0  0  0
  1  2  1  0
  2  3  2  0
  3  4  1  0
  3  5  1  0
  5  6  1  0
  5  7  2  0
  7  8  1  0
  8  9  2  0
  9 10  1  0
 10 11  1  0
 10 12  1  0
 10 13  1  0
  9 14  1  0
 14 15  2  0
 14 16  1  0
 16 17  1  0
 17 18  2  0
 18 19  1  0
 19 20  1  0
 19 21  1  0
 21 22  1  0
 21 23  1  0
 21 24  1  0
 24 25  1  0
 24 26  1  0
 24 27  1  0
 27 28  1  0
 27 29  1  0
 27 30  1  0
 30 31  1  0
 30 32  1  0
 17 33  1  0
 33 34  1  0
  7 35  1  0
 35 36  1  0
 35 37  2  0
 37 38  1  0
 37  2  1  0
 33  8  1  0
 30 19  1  0
M  CHG  1  16  -1
M  END
>  <UniqueID>  (32) 
31

>  <SMILES>  (32) 
Cc1c(-c2ccccc2)[nH]/c(=N/C2CCCC2)[n-]c1=O

>  <Energy>  (32) 
50.25254609861422

>  <Genealogy>  (32) 
Cc1c(-c2ccccc2)[nH]c(=NC2CCCC2)[n-]c1=O (protonated)
Cc1c(-c2ccccc2)[nH]/c(=N/C2CCCC2)[n-]c1=O (cis-trans isomerization)
Cc1c(-c2ccccc2)[nH]/c(=N/C2CCCC2)[n-]c1=O (3D coordinates assigned)
Cc1c(-c2ccccc2)[nH]/c(=N/C2CCCC2)[n-]c1=O (nonaromatic ring conformer: 50.25254609861422 kcal/mol)

>  <smiles>  (32) 
Cc1c(-c2ccccc2)[nH]c(=NC2CCCC2)[nH]c1=O

>  <score_type>  (32) 
oracle

>  <origin>  (32) 
adg

>  <m_score__min__energy>  (32) 
-8.8000000000000007

>  <m_primary>  (32) 
energy

$$$$
32:0
     RDKit          3D

 42 44  0  0  0  0  0  0  0  0999 V2000
   -6.1190   17.3980  -34.5360 C   0  0  0  0  0  0  0  0  0  0  0  0
   -5.7520   17.4380  -32.7520 S   0  0  0  0  0  0  0  0  0  0  0  0
   -5.9370   19.2240  -32.6220 C   0  0  0  0  0  0  0  0  0  0  0  0
   -7.2030   19.7320  -32.2810 C   0  0  0  0  0  0  0  0  0  0  0  0
   -7.3680   21.1100  -32.1620 C   0  0  0  0  0  0  0  0  0  0  0  0
   -6.3340   21.9750  -32.3630 C   0  0  0  0  0  0  0  0  0  0  0  0
   -5.0670   21.5080  -32.7280 C   0  0  0  0  0  0  0  0  0  0  0  0
   -4.8530   20.1160  -32.8690 C   0  0  0  0  0  0  0  0  0  0  0  0
   -3.4940   19.5970  -33.2920 C   0  0  0  0  0  0  0  0  0  0  0  0
   -3.6010   18.9490  -34.5090 F   0  0  0  0  0  0  0  0  0  0  0  0
   -2.5730   20.6220  -33.4310 F   0  0  0  0  0  0  0  0  0  0  0  0
   -3.0150   18.7130  -32.3450 F   0  0  0  0  0  0  0  0  0  0  0  0
   -6.6900   23.3490  -32.1900 N   0  0  2  0  0  0  0  0  0  0  0  0
   -5.9920   23.9050  -31.0560 C   0  0  0  0  0  0  0  0  0  0  0  0
   -6.5510   23.9480  -29.9240 O   0  0  0  0  0  0  0  0  0  0  0  0
   -4.6360   24.3430  -31.2090 N   0  0  0  0  0  0  0  0  0  0  0  0
   -3.5000   23.8770  -30.4670 C   0  0  0  0  0  0  0  0  0  0  0  0
   -3.1540   24.5400  -29.2840 C   0  0  0  0  0  0  0  0  0  0  0  0
   -2.0570   24.1170  -28.5320 C   0  0  0  0  0  0  0  0  0  0  0  0
   -1.3110   23.0090  -28.9410 C   0  0  0  0  0  0  0  0  0  0  0  0
   -1.6730   22.2950  -30.0950 C   0  0  0  0  0  0  0  0  0  0  0  0
   -0.8540   21.1140  -30.5550 C   0  0  0  0  0  0  0  0  0  0  0  0
    0.2040   20.9290  -29.6850 F   0  0  0  0  0  0  0  0  0  0  0  0
   -0.3580   21.3340  -31.8290 F   0  0  0  0  0  0  0  0  0  0  0  0
   -1.6220   19.9630  -30.5840 F   0  0  0  0  0  0  0  0  0  0  0  0
   -2.7620   22.7450  -30.8640 C   0  0  0  0  0  0  0  0  0  0  0  0
   -8.1590   23.3190  -31.9750 C   0  0  0  0  0  0  0  0  0  0  0  0
   -8.5960   21.8470  -31.8150 C   0  0  0  0  0  0  0  0  0  0  0  0
   -7.2025   17.2799  -34.6849 H   0  0  0  0  0  0  0  0  0  0  0  0
   -5.7854   18.3378  -35.0001 H   0  0  0  0  0  0  0  0  0  0  0  0
   -5.5908   16.5521  -35.0001 H   0  0  0  0  0  0  0  0  0  0  0  0
   -8.0503   19.0515  -32.1108 H   0  0  0  0  0  0  0  0  0  0  0  0
   -4.2441   22.2164  -32.9039 H   0  0  0  0  0  0  0  0  0  0  0  0
   -6.4590   23.8820  -33.0620 H   0  0  0  0  0  0  0  0  0  0  0  0
   -3.7504   25.3998  -28.9448 H   0  0  0  0  0  0  0  0  0  0  0  0
   -1.7791   24.6574  -27.6151 H   0  0  0  0  0  0  0  0  0  0  0  0
   -0.4347   22.6938  -28.3556 H   0  0  0  0  0  0  0  0  0  0  0  0
   -3.0393   22.2081  -31.7831 H   0  0  0  0  0  0  0  0  0  0  0  0
   -8.4134   23.8834  -31.0657 H   0  0  0  0  0  0  0  0  0  0  0  0
   -8.6765   23.7769  -32.8309 H   0  0  0  0  0  0  0  0  0  0  0  0
   -8.9082   21.6351  -30.7817 H   0  0  0  0  0  0  0  0  0  0  0  0
   -9.4608   21.5762  -32.4385 H   0  0  0  0  0  0  0  0  0  0  0  0
  1  2  1  0
  2  3  1  0
  3  4  2  0
  4  5  1  0
  5  6  2  0
  6  7  1  0
  7  8  2  0
  8  9  1  0
  9 10  1  0
  9 11  1  0
  9 12  1  0
  6 13  1  0
 13 14  1  0
 14 15  2  0
 14 16  1  0
 16 17  1  0
 17 18  2  0
 18 19  1  0
 19 20  2  0
 20 21  1  0
 21 22  1  0
 22 23  1  0
 22 24  1  0
 22 25  1  0
 21 26  2  0
 13 27  1  0
 27 28  1  0
  8  3  1  0
 26 17  1  0
 28  5  1  0
  1 29  1  0
  1 30  1  0
  1 31  1  0
  4 32  1  0
  7 33  1  0
 13 34  1  6
 18 35  1  0
 19 36  1  0
 20 37  1  0
 26 38  1  0
 27 39  1  0
 27 40  1  0
 28 41  1  0
 28 42  1  0
M  CHG  2  13   1  16  -1
M  END
>  <UniqueID>  (33) 
32

>  <SMILES>  (33) 
CSc1cc2c(cc1C(F)(F)F)[N@H+](C(=O)[N-]c1cccc(C(F)(F)F)c1)CC2

>  <Energy>  (33) 
58.80567516105011

>  <Genealogy>  (33) 
CSc1cc2c(cc1C(F)(F)F)[NH+](C(=O)[N-]c1cccc(C(F)(F)F)c1)CC2 (protonated)
CSc1cc2c(cc1C(F)(F)F)[N@H+](C(=O)[N-]c1cccc(C(F)(F)F)c1)CC2 (chirality)
CSc1cc2c(cc1C(F)(F)F)[N@H+](C(=O)[N-]c1cccc(C(F)(F)F)c1)CC2 (3D coordinates assigned)
CSc1cc2c(cc1C(F)(F)F)[N@H+](C(=O)[N-]c1cccc(C(F)(F)F)c1)CC2 (nonaromatic ring conformer: 58.80567516105011 kcal/mol)

>  <smiles>  (33) 
CSc1cc2c(cc1C(F)(F)F)N(C(=O)Nc1cccc(C(F)(F)F)c1)CC2

>  <score_type>  (33) 
oracle

>  <origin>  (33) 
adg

>  <m_score__min__energy>  (33) 
-8.0899999999999999

>  <m_primary>  (33) 
energy

$$$$
33:0
     RDKit          3D

 36 38  0  0  0  0  0  0  0  0999 V2000
   -1.5690   25.7410  -29.7570 H   0  0  0  0  0  0  0  0  0  0  0  0
   -2.0770   24.9340  -29.3270 N   0  0  0  0  0  0  0  0  0  0  0  0
   -3.2610   24.5770  -29.7070 C   0  0  0  0  0  0  0  0  0  0  0  0
   -3.8980   25.2950  -30.6710 N   0  0  0  0  0  0  0  0  0  0  0  0
   -5.1430   24.9680  -31.1100 C   0  0  0  0  0  0  0  0  0  0  0  0
   -5.6228   25.5689  -31.8966 H   0  0  0  0  0  0  0  0  0  0  0  0
   -5.8170   23.8660  -30.5620 C   0  0  0  0  0  0  0  0  0  0  0  0
   -7.1930   23.4850  -31.0410 C   0  0  0  0  0  0  0  0  0  0  0  0
   -7.7051   22.9158  -30.2512 H   0  0  0  0  0  0  0  0  0  0  0  0
   -7.7520   24.4031  -31.2747 H   0  0  0  0  0  0  0  0  0  0  0  0
   -7.1130   22.6640  -32.2490 N   0  0  0  0  0  0  0  0  0  0  0  0
   -6.6940   23.1070  -33.0990 H   0  0  0  0  0  0  0  0  0  0  0  0
   -7.5160   21.2820  -32.3240 C   0  0  0  0  0  0  0  0  0  0  0  0
   -8.7550   20.8410  -31.8230 C   0  0  0  0  0  0  0  0  0  0  0  0
   -9.4479   21.5619  -31.3646 H   0  0  0  0  0  0  0  0  0  0  0  0
   -9.1090   19.4930  -31.9050 C   0  0  0  0  0  0  0  0  0  0  0  0
  -10.0785   19.1567  -31.5089 H   0  0  0  0  0  0  0  0  0  0  0  0
   -8.2390   18.5700  -32.4870 C   0  0  0  0  0  0  0  0  0  0  0  0
   -8.5252   17.5094  -32.5436 H   0  0  0  0  0  0  0  0  0  0  0  0
   -7.0000   18.9870  -33.0010 C   0  0  0  0  0  0  0  0  0  0  0  0
   -6.0740   18.0080  -33.6250 C   0  0  0  0  0  0  0  0  0  0  0  0
   -6.3640   16.6320  -33.6070 C   0  0  0  0  0  0  0  0  0  0  0  0
   -7.2846   16.2684  -33.1271 H   0  0  0  0  0  0  0  0  0  0  0  0
   -5.4800   15.7290  -34.2000 C   0  0  0  0  0  0  0  0  0  0  0  0
   -5.7046   14.6523  -34.1867 H   0  0  0  0  0  0  0  0  0  0  0  0
   -4.3420   16.1770  -34.7940 N   0  0  0  0  0  0  0  0  0  0  0  0
   -4.0320   17.4990  -34.8300 C   0  0  0  0  0  0  0  0  0  0  0  0
   -3.1047   17.8322  -35.3189 H   0  0  0  0  0  0  0  0  0  0  0  0
   -4.8890   18.4370  -34.2470 C   0  0  0  0  0  0  0  0  0  0  0  0
   -4.6367   19.5073  -34.2750 H   0  0  0  0  0  0  0  0  0  0  0  0
   -6.6490   20.3480  -32.9160 C   0  0  0  0  0  0  0  0  0  0  0  0
   -5.6824   20.6848  -33.3187 H   0  0  0  0  0  0  0  0  0  0  0  0
   -5.1730   23.1060  -29.5750 C   0  0  0  0  0  0  0  0  0  0  0  0
   -5.6759   22.2287  -29.1422 H   0  0  0  0  0  0  0  0  0  0  0  0
   -3.8950   23.4610  -29.1410 C   0  0  0  0  0  0  0  0  0  0  0  0
   -3.3895   22.8711  -28.3622 H   0  0  0  0  0  0  0  0  0  0  0  0
  1  2  1  0
  2  3  2  0
  3  4  1  0
  4  5  1  0
  5  6  1  0
  5  7  2  0
  7  8  1  0
  8  9  1  0
  8 10  1  0
  8 11  1  0
 11 12  1  0
 11 13  1  0
 13 14  2  0
 14 15  1  0
 14 16  1  0
 16 17  1  0
 16 18  2  0
 18 19  1  0
 18 20  1  0
 20 21  1  0
 21 22  2  0
 22 23  1  0
 22 24  1  0
 24 25  1  0
 24 26  2  0
 26 27  1  0
 27 28  1  0
 27 29  2  0
 29 30  1  0
 20 31  2  0
 31 32  1  0
  7 33  1  0
 33 34  1  0
 33 35  2  0
 35 36  1  0
 35  3  1  0
 31 13  1  0
 29 21  1  0
M  CHG  1   4  -1
M  END
>  <UniqueID>  (34) 
33

>  <SMILES>  (34) 
[H]/N=c1\ccc(CNc2cccc(-c3ccncc3)c2)c[n-]1

>  <Energy>  (34) 
45.17981871819086

>  <Genealogy>  (34) 
N=c1ccc(CNc2cccc(-c3ccncc3)c2)c[n-]1 (protonated)
[H]/N=c1\ccc(CNc2cccc(-c3ccncc3)c2)c[n-]1 (cis-trans isomerization)
[H]/N=c1\ccc(CNc2cccc(-c3ccncc3)c2)c[n-]1 (3D coordinates assigned)
[H]/N=c1\ccc(CNc2cccc(-c3ccncc3)c2)c[n-]1 (optimized conformer: 45.17981871819086 kcal/mol)

>  <smiles>  (34) 
N=c1ccc(CNc2cccc(-c3ccncc3)c2)c[nH]1

>  <score_type>  (34) 
oracle

>  <origin>  (34) 
adg

>  <m_score__min__energy>  (34) 
-10.92

>  <m_primary>  (34) 
energy

$$$$
34:0
     RDKit          3D

 49 51  0  0  0  0  0  0  0  0999 V2000
   -6.0327   25.1330  -28.6272 H   0  0  0  0  0  0  0  0  0  0  0  0
   -5.1470   24.6160  -29.0250 C   0  0  0  0  0  0  0  0  0  0  0  0
   -5.0540   24.4490  -30.4960 C   0  0  0  0  0  0  0  0  0  0  0  0
   -4.6800   25.4260  -31.2070 O   0  0  0  0  0  0  0  0  0  0  0  0
   -5.3350   23.1410  -31.1490 C   0  0  0  0  0  0  0  0  0  0  0  0
   -4.2970   22.4260  -31.7680 C   0  0  0  0  0  0  0  0  0  0  0  0
   -3.2770   22.8378  -31.7638 H   0  0  0  0  0  0  0  0  0  0  0  0
   -4.5420   21.1990  -32.3890 C   0  0  0  0  0  0  0  0  0  0  0  0
   -3.7126   20.6642  -32.8749 H   0  0  0  0  0  0  0  0  0  0  0  0
   -5.8380   20.6320  -32.4040 C   0  0  0  0  0  0  0  0  0  0  0  0
   -6.0930   19.3340  -33.0250 N   0  0  0  0  0  0  0  0  0  0  0  0
   -5.3340   18.9500  -34.2360 C   0  0  0  0  0  0  0  0  0  0  0  0
   -5.4531   19.7435  -34.9884 H   0  0  0  0  0  0  0  0  0  0  0  0
   -4.2847   18.8181  -33.9334 H   0  0  0  0  0  0  0  0  0  0  0  0
   -5.7970   17.6270  -34.8490 C   0  0  0  0  0  0  0  0  0  0  0  0
   -6.7070   17.8027  -35.4416 H   0  0  0  0  0  0  0  0  0  0  0  0
   -4.9937   17.2342  -35.4897 H   0  0  0  0  0  0  0  0  0  0  0  0
   -6.0760   16.6820  -33.8430 O   0  0  0  0  0  0  0  0  0  0  0  0
   -7.2370   17.0910  -33.1600 C   0  0  0  0  0  0  0  0  0  0  0  0
   -8.0347   17.2836  -33.8925 H   0  0  0  0  0  0  0  0  0  0  0  0
   -7.5317   16.2905  -32.4655 H   0  0  0  0  0  0  0  0  0  0  0  0
   -6.9850   18.3670  -32.3490 C   0  0  0  0  0  0  0  0  0  0  0  0
   -7.9520   18.8574  -32.1635 H   0  0  0  0  0  0  0  0  0  0  0  0
   -6.4836   18.0629  -31.4183 H   0  0  0  0  0  0  0  0  0  0  0  0
   -6.8790   21.3740  -31.8000 C   0  0  0  0  0  0  0  0  0  0  0  0
   -7.9029   20.9720  -31.8088 H   0  0  0  0  0  0  0  0  0  0  0  0
   -6.6330   22.6080  -31.1920 C   0  0  0  0  0  0  0  0  0  0  0  0
   -7.4659   23.1681  -30.7420 H   0  0  0  0  0  0  0  0  0  0  0  0
   -4.2320   24.1840  -28.1420 C   0  0  0  0  0  0  0  0  0  0  0  0
   -4.3489   24.4997  -27.0948 H   0  0  0  0  0  0  0  0  0  0  0  0
   -3.0770   23.3150  -28.4690 C   0  0  0  0  0  0  0  0  0  0  0  0
   -3.1750   21.9170  -28.3510 C   0  0  0  0  0  0  0  0  0  0  0  0
   -4.1143   21.4639  -28.0013 H   0  0  0  0  0  0  0  0  0  0  0  0
   -2.0900   21.0990  -28.6740 C   0  0  0  0  0  0  0  0  0  0  0  0
   -2.1732   20.0082  -28.5594 H   0  0  0  0  0  0  0  0  0  0  0  0
   -0.8920   21.6640  -29.1450 C   0  0  0  0  0  0  0  0  0  0  0  0
    0.2270   20.8840  -29.4760 O   0  0  0  0  0  0  0  0  0  0  0  0
    0.4990   19.5960  -28.9340 C   0  0  0  0  0  0  0  0  0  0  0  0
    0.4875   19.6506  -27.8354 H   0  0  0  0  0  0  0  0  0  0  0  0
   -0.2689   18.8855  -29.2739 H   0  0  0  0  0  0  0  0  0  0  0  0
    1.4886   19.2567  -29.2739 H   0  0  0  0  0  0  0  0  0  0  0  0
   -0.8030   23.0530  -29.2950 C   0  0  0  0  0  0  0  0  0  0  0  0
    0.1293   23.4992  -29.6714 H   0  0  0  0  0  0  0  0  0  0  0  0
   -1.8930   23.8890  -28.9700 C   0  0  0  0  0  0  0  0  0  0  0  0
   -1.8300   25.2850  -29.1230 O   0  0  0  0  0  0  0  0  0  0  0  0
   -1.2050   26.1730  -28.1990 C   0  0  0  0  0  0  0  0  0  0  0  0
   -1.4311   25.8518  -27.1715 H   0  0  0  0  0  0  0  0  0  0  0  0
   -0.1164   26.1592  -28.3563 H   0  0  0  0  0  0  0  0  0  0  0  0
   -1.5853   27.1931  -28.3563 H   0  0  0  0  0  0  0  0  0  0  0  0
  1  2  1  0
  2  3  1  0
  3  4  2  0
  3  5  1  0
  5  6  2  0
  6  7  1  0
  6  8  1  0
  8  9  1  0
  8 10  2  0
 10 11  1  0
 11 12  1  0
 12 13  1  0
 12 14  1  0
 12 15  1  0
 15 16  1  0
 15 17  1  0
 15 18  1  0
 18 19  1  0
 19 20  1  0
 19 21  1  0
 19 22  1  0
 22 23  1  0
 22 24  1  0
 10 25  1  0
 25 26  1  0
 25 27  2  0
 27 28  1  0
  2 29  2  0
 29 30  1  0
 29 31  1  0
 31 32  2  0
 32 33  1  0
 32 34  1  0
 34 35  1  0
 34 36  2  0
 36 37  1  0
 37 38  1  0
 38 39  1  0
 38 40  1  0
 38 41  1  0
 36 42  1  0
 42 43  1  0
 42 44  2  0
 44 45  1  0
 45 46  1  0
 46 47  1  0
 46 48  1  0
 46 49  1  0
 27  5  1  0
 44 31  1  0
 22 11  1  0
M  END
>  <UniqueID>  (35) 
34

>  <SMILES>  (35) 
COc1ccc(/C=C\C(=O)c2ccc(N3CCOCC3)cc2)c(OC)c1

>  <Energy>  (35) 
67.921981698549

>  <Genealogy>  (35) 
COc1ccc(/C=C\C(=O)c2ccc(N3CCOCC3)cc2)c(OC)c1 (cis-trans isomerization)
COc1ccc(/C=C\C(=O)c2ccc(N3CCOCC3)cc2)c(OC)c1 (3D coordinates assigned)
COc1ccc(/C=C\C(=O)c2ccc(N3CCOCC3)cc2)c(OC)c1 (nonaromatic ring conformer: 67.921981698549 kcal/mol)

>  <smiles>  (35) 
COc1ccc(C=CC(=O)c2ccc(N3CCOCC3)cc2)c(OC)c1

>  <score_type>  (35) 
oracle

>  <origin>  (35) 
adg

>  <m_score__min__energy>  (35) 
-8.8399999999999999

>  <m_primary>  (35) 
energy

$$$$
35:0
     RDKit          3D

 68 72  0  0  0  0  0  0  0  0999 V2000
   -4.6090   15.5690  -32.3810 C   0  0  0  0  0  0  0  0  0  0  0  0
   -5.9770   16.1360  -32.7780 C   0  0  0  0  0  0  0  0  0  0  0  0
   -6.4340   15.5900  -34.1340 C   0  0  0  0  0  0  0  0  0  0  0  0
   -5.9620   17.6090  -32.7990 N   0  0  0  0  0  0  0  0  0  0  0  0
   -4.9870   18.4330  -33.2700 C   0  0  0  0  0  0  0  0  0  0  0  0
   -3.8960   18.0200  -33.7480 O   0  0  0  0  0  0  0  0  0  0  0  0
   -5.3150   19.7480  -33.2020 N   0  0  0  0  0  0  0  0  0  0  0  0
   -4.4940   20.8830  -33.6330 C   0  0  0  0  0  0  0  0  0  0  0  0
   -3.5850   21.3260  -32.5180 C   0  0  0  0  0  0  0  0  0  0  0  0
   -2.4580   20.6480  -32.1890 N   0  0  0  0  0  0  0  0  0  0  0  0
   -1.9890   21.2820  -31.1030 C   0  0  0  0  0  0  0  0  0  0  0  0
   -0.8490   20.9850  -30.3640 C   0  0  0  0  0  0  0  0  0  0  0  0
   -0.5580   21.7980  -29.2550 C   0  0  0  0  0  0  0  0  0  0  0  0
   -1.4090   22.8810  -28.9070 C   0  0  0  0  0  0  0  0  0  0  0  0
   -1.0810   23.7510  -27.7510 C   0  0  0  0  0  0  0  0  0  0  0  0
   -0.6880   23.1700  -26.5380 C   0  0  0  0  0  0  0  0  0  0  0  0
   -0.3860   23.9740  -25.4430 C   0  0  0  0  0  0  0  0  0  0  0  0
   -0.4800   25.3590  -25.5620 C   0  0  0  0  0  0  0  0  0  0  0  0
   -0.8670   25.9350  -26.7400 N   0  0  0  0  0  0  0  0  0  0  0  0
   -0.9190   27.3990  -26.8400 C   0  0  0  0  0  0  0  0  0  0  0  0
   -1.1500   25.1580  -27.8380 C   0  0  0  0  0  0  0  0  0  0  0  0
   -1.4530   25.7030  -28.9360 O   0  0  0  0  0  0  0  0  0  0  0  0
   -2.5590   23.1460  -29.6850 C   0  0  0  0  0  0  0  0  0  0  0  0
   -2.8170   22.3180  -30.7810 C   0  0  0  0  0  0  0  0  0  0  0  0
   -3.8350   22.3640  -31.6680 N   0  0  0  0  0  0  0  0  0  0  0  0
   -4.9560   23.3090  -31.6970 C   0  0  0  0  0  0  0  0  0  0  0  0
   -5.7010   23.3700  -30.3530 C   0  0  0  0  0  0  0  0  0  0  0  0
   -6.3470   24.7400  -30.0610 C   0  0  0  0  0  0  0  0  0  0  0  0
   -5.3650   25.9090  -30.1920 C   0  0  0  0  0  0  0  0  0  0  0  0
   -4.0500   25.4280  -30.2650 O   0  0  0  0  0  0  0  0  0  0  0  0
   -6.5680   19.7490  -32.7000 C   0  0  0  0  0  0  0  0  0  0  0  0
   -7.4230   20.8310  -32.4690 C   0  0  0  0  0  0  0  0  0  0  0  0
   -8.7060   20.5590  -31.9640 C   0  0  0  0  0  0  0  0  0  0  0  0
   -9.1110   19.2300  -31.7150 C   0  0  0  0  0  0  0  0  0  0  0  0
   -8.2370   18.1590  -31.9680 C   0  0  0  0  0  0  0  0  0  0  0  0
   -6.9610   18.4550  -32.4590 C   0  0  0  0  0  0  0  0  0  0  0  0
   -4.5299   15.5362  -31.2843 H   0  0  0  0  0  0  0  0  0  0  0  0
   -4.5017   14.5523  -32.7869 H   0  0  0  0  0  0  0  0  0  0  0  0
   -3.8139   16.2117  -32.7869 H   0  0  0  0  0  0  0  0  0  0  0  0
   -6.6977   15.8097  -32.0137 H   0  0  0  0  0  0  0  0  0  0  0  0
   -7.1327   14.7552  -33.9765 H   0  0  0  0  0  0  0  0  0  0  0  0
   -6.9375   16.3878  -34.6997 H   0  0  0  0  0  0  0  0  0  0  0  0
   -5.5600   15.2349  -34.6997 H   0  0  0  0  0  0  0  0  0  0  0  0
   -3.8857   20.5823  -34.4988 H   0  0  0  0  0  0  0  0  0  0  0  0
   -5.1553   21.7180  -33.9075 H   0  0  0  0  0  0  0  0  0  0  0  0
   -2.0540   19.8070  -32.6600 H   0  0  0  0  0  0  0  0  0  0  0  0
   -0.1971   20.1424  -30.6381 H   0  0  0  0  0  0  0  0  0  0  0  0
    0.3379   21.5936  -28.6503 H   0  0  0  0  0  0  0  0  0  0  0  0
   -0.6180   22.0757  -26.4511 H   0  0  0  0  0  0  0  0  0  0  0  0
   -0.0754   23.5195  -24.4907 H   0  0  0  0  0  0  0  0  0  0  0  0
   -0.2401   25.9964  -24.6982 H   0  0  0  0  0  0  0  0  0  0  0  0
   -0.9345   27.8352  -25.8303 H   0  0  0  0  0  0  0  0  0  0  0  0
   -0.0332   27.7612  -27.3823 H   0  0  0  0  0  0  0  0  0  0  0  0
   -1.8283   27.6974  -27.3823 H   0  0  0  0  0  0  0  0  0  0  0  0
   -3.2315   23.9798  -29.4350 H   0  0  0  0  0  0  0  0  0  0  0  0
   -4.5683   24.3111  -31.9326 H   0  0  0  0  0  0  0  0  0  0  0  0
   -5.6677   22.9644  -32.4616 H   0  0  0  0  0  0  0  0  0  0  0  0
   -6.4937   22.6074  -30.3609 H   0  0  0  0  0  0  0  0  0  0  0  0
   -4.9546   23.1931  -29.5646 H   0  0  0  0  0  0  0  0  0  0  0  0
   -7.1730   24.8957  -30.7706 H   0  0  0  0  0  0  0  0  0  0  0  0
   -6.6970   24.7215  -29.0183 H   0  0  0  0  0  0  0  0  0  0  0  0
   -5.5957   26.4773  -31.1051 H   0  0  0  0  0  0  0  0  0  0  0  0
   -5.4615   26.5606  -29.3110 H   0  0  0  0  0  0  0  0  0  0  0  0
   -3.5000   26.0470  -29.7200 H   0  0  0  0  0  0  0  0  0  0  0  0
   -7.1016   21.8624  -32.6760 H   0  0  0  0  0  0  0  0  0  0  0  0
   -9.3999   21.3881  -31.7612 H   0  0  0  0  0  0  0  0  0  0  0  0
  -10.1182   19.0311  -31.3200 H   0  0  0  0  0  0  0  0  0  0  0  0
   -8.5469   17.1194  -31.7855 H   0  0  0  0  0  0  0  0  0  0  0  0
  1  2  1  0
  2  3  1  0
  2  4  1  0
  4  5  1  0
  5  6  2  0
  5  7  1  0
  7  8  1  0
  8  9  1  0
  9 10  2  0
 10 11  1  0
 11 12  2  0
 12 13  1  0
 13 14  2  0
 14 15  1  0
 15 16  2  0
 16 17  1  0
 17 18  2  0
 18 19  1  0
 19 20  1  0
 19 21  1  0
 21 22  2  0
 14 23  1  0
 23 24  2  0
 24 25  1  0
 25 26  1  0
 26 27  1  0
 27 28  1  0
 28 29  1  0
 29 30  1  0
  7 31  1  0
 31 32  2  0
 32 33  1  0
 33 34  2  0
 34 35  1  0
 35 36  2  0
 36  4  1  0
 25  9  1  0
 36 31  1  0
 24 11  1  0
 21 15  1  0
  1 37  1  0
  1 38  1  0
  1 39  1  0
  2 40  1  0
  3 41  1  0
  3 42  1  0
  3 43  1  0
  8 44  1  0
  8 45  1  0
 10 46  1  0
 12 47  1  0
 13 48  1  0
 16 49  1  0
 17 50  1  0
 18 51  1  0
 20 52  1  0
 20 53  1  0
 20 54  1  0
 23 55  1  0
 26 56  1  0
 26 57  1  0
 27 58  1  0
 27 59  1  0
 28 60  1  0
 28 61  1  0
 29 62  1  0
 29 63  1  0
 30 64  1  0
 32 65  1  0
 33 66  1  0
 34 67  1  0
 35 68  1  0
M  CHG  1  10   1
M  END
>  <UniqueID>  (36) 
35

>  <SMILES>  (36) 
CC(C)n1c(=O)n(Cc2[nH+]c3ccc(-c4cccn(C)c4=O)cc3n2CCCCO)c2ccccc21

>  <Energy>  (36) 
152.39509930821518

>  <Genealogy>  (36) 
CC(C)n1c(=O)n(Cc2[nH+]c3ccc(-c4cccn(C)c4=O)cc3n2CCCCO)c2ccccc21 (protonated)
CC(C)n1c(=O)n(Cc2[nH+]c3ccc(-c4cccn(C)c4=O)cc3n2CCCCO)c2ccccc21 (3D coordinates assigned)
CC(C)n1c(=O)n(Cc2[nH+]c3ccc(-c4cccn(C)c4=O)cc3n2CCCCO)c2ccccc21 (optimized conformer: 152.39509930821518 kcal/mol)

>  <smiles>  (36) 
CC(C)n1c(=O)n(Cc2nc3ccc(-c4cccn(C)c4=O)cc3n2CCCCO)c2ccccc21

>  <score_type>  (36) 
oracle

>  <origin>  (36) 
adg

>  <m_score__min__energy>  (36) 
-10.710000000000001

>  <m_primary>  (36) 
energy

$$$$
36:0
     RDKit          3D

 33 35  0  0  0  0  0  0  0  0999 V2000
   -4.9500   17.5880  -32.4290 O   0  0  0  0  0  0  0  0  0  0  0  0
   -5.5170   18.7130  -32.4680 C   0  0  0  0  0  0  0  0  0  0  0  0
   -4.8810   19.8900  -32.6720 N   0  0  0  0  0  0  0  0  0  0  0  0
   -3.4500   20.0980  -32.9100 C   0  0  0  0  0  0  0  0  0  0  0  0
   -3.0600   21.5930  -32.9460 C   0  0  1  0  0  0  0  0  0  0  0  0
   -3.8690   22.3080  -33.8440 O   0  0  0  0  0  0  0  0  0  0  0  0
   -3.0670   22.2700  -31.5600 C   0  0  0  0  0  0  0  0  0  0  0  0
   -4.3690   22.8340  -31.2000 N   0  0  0  0  0  0  0  0  0  0  0  0
   -5.1380   22.4760  -30.1530 C   0  0  0  0  0  0  0  0  0  0  0  0
   -6.3070   23.2040  -30.2030 C   0  0  0  0  0  0  0  0  0  0  0  0
   -6.1870   23.9830  -31.3380 C   0  0  0  0  0  0  0  0  0  0  0  0
   -5.0050   23.7340  -31.9340 N   0  0  0  0  0  0  0  0  0  0  0  0
   -5.8050   20.8460  -32.6650 N   0  0  0  0  0  0  0  0  0  0  0  0
   -6.9830   20.2370  -32.4280 C   0  0  0  0  0  0  0  0  0  0  0  0
   -8.2350   20.8340  -32.3000 C   0  0  0  0  0  0  0  0  0  0  0  0
   -8.3950   22.1750  -32.4200 F   0  0  0  0  0  0  0  0  0  0  0  0
   -9.3300   19.9910  -32.0340 C   0  0  0  0  0  0  0  0  0  0  0  0
   -9.1450   18.5990  -31.9060 C   0  0  0  0  0  0  0  0  0  0  0  0
   -7.8580   18.0550  -32.0460 C   0  0  0  0  0  0  0  0  0  0  0  0
   -6.8360   18.9080  -32.3020 N   0  0  0  0  0  0  0  0  0  0  0  0
   -2.8847   19.6066  -32.1044 H   0  0  0  0  0  0  0  0  0  0  0  0
   -3.2124   19.6699  -33.8950 H   0  0  0  0  0  0  0  0  0  0  0  0
   -2.0185   21.6172  -33.2991 H   0  0  0  0  0  0  0  0  0  0  0  0
   -4.3400   23.0050  -33.3160 H   0  0  0  0  0  0  0  0  0  0  0  0
   -2.7893   21.5210  -30.8037 H   0  0  0  0  0  0  0  0  0  0  0  0
   -2.3497   23.1030  -31.5996 H   0  0  0  0  0  0  0  0  0  0  0  0
   -4.8770   21.7295  -29.3884 H   0  0  0  0  0  0  0  0  0  0  0  0
   -7.1491   23.1721  -29.4960 H   0  0  0  0  0  0  0  0  0  0  0  0
   -6.9414   24.6973  -31.6995 H   0  0  0  0  0  0  0  0  0  0  0  0
   -5.6370   21.8650  -32.8200 H   0  0  0  0  0  0  0  0  0  0  0  0
  -10.3367   20.4207  -31.9252 H   0  0  0  0  0  0  0  0  0  0  0  0
  -10.0034   17.9434  -31.6978 H   0  0  0  0  0  0  0  0  0  0  0  0
   -7.6849   16.9729  -31.9511 H   0  0  0  0  0  0  0  0  0  0  0  0
  1  2  2  0
  2  3  1  0
  3  4  1  0
  4  5  1  0
  5  6  1  0
  5  7  1  0
  7  8  1  0
  8  9  1  0
  9 10  2  0
 10 11  1  0
 11 12  2  0
  3 13  1  0
 13 14  2  0
 14 15  1  0
 15 16  1  0
 15 17  2  0
 17 18  1  0
 18 19  2  0
 19 20  1  0
 20  2  1  0
 12  8  1  0
 20 14  1  0
  4 21  1  0
  4 22  1  0
  5 23  1  6
  6 24  1  0
  7 25  1  0
  7 26  1  0
  9 27  1  0
 10 28  1  0
 11 29  1  0
 13 30  1  0
 17 31  1  0
 18 32  1  0
 19 33  1  0
M  CHG  1  13   1
M  END
>  <UniqueID>  (37) 
36

>  <SMILES>  (37) 
O=c1n(C[C@@H](O)Cn2cccn2)[nH+]c2c(F)cccn12

>  <Energy>  (37) 
105.28392824189808

>  <Genealogy>  (37) 
O=c1n(CC(O)Cn2cccn2)[nH+]c2c(F)cccn12 (protonated)
O=c1n(C[C@@H](O)Cn2cccn2)[nH+]c2c(F)cccn12 (chirality)
O=c1n(C[C@@H](O)Cn2cccn2)[nH+]c2c(F)cccn12 (3D coordinates assigned)
O=c1n(C[C@@H](O)Cn2cccn2)[nH+]c2c(F)cccn12 (optimized conformer: 105.28392824189808 kcal/mol)

>  <smiles>  (37) 
O=c1n(CC(O)Cn2cccn2)nc2c(F)cccn12

>  <score_type>  (37) 
oracle

>  <origin>  (37) 
adg

>  <m_score__min__energy>  (37) 
-7.1900000000000004

>  <m_primary>  (37) 
energy

$$$$
37:0
     RDKit          3D

 45 48  0  0  0  0  0  0  0  0999 V2000
   -2.2594   19.8558  -34.7527 H   0  0  0  0  0  0  0  0  0  0  0  0
   -2.3670   20.4480  -33.8320 C   0  0  0  0  0  0  0  0  0  0  0  0
   -3.8150   20.8140  -33.0590 S   0  0  0  0  0  0  0  0  0  0  0  0
   -3.1370   21.7000  -31.7980 C   0  0  0  0  0  0  0  0  0  0  0  0
   -3.8830   22.3470  -30.7030 C   0  0  0  0  0  0  0  0  0  0  0  0
   -5.1840   22.4120  -30.7700 N   0  0  0  0  0  0  0  0  0  0  0  0
   -5.9730   22.7700  -31.9510 C   0  0  0  0  0  0  0  0  0  0  0  0
   -6.2818   23.8227  -31.8711 H   0  0  0  0  0  0  0  0  0  0  0  0
   -5.3520   22.6160  -32.8458 H   0  0  0  0  0  0  0  0  0  0  0  0
   -7.2000   21.9050  -32.0660 C   0  0  0  0  0  0  0  0  0  0  0  0
   -8.3440   22.1760  -31.3010 C   0  0  0  0  0  0  0  0  0  0  0  0
   -8.3447   23.0156  -30.5903 H   0  0  0  0  0  0  0  0  0  0  0  0
   -9.4810   21.3800  -31.4420 C   0  0  0  0  0  0  0  0  0  0  0  0
  -10.3840   21.5922  -30.8508 H   0  0  0  0  0  0  0  0  0  0  0  0
   -9.4620   20.3120  -32.3400 C   0  0  0  0  0  0  0  0  0  0  0  0
  -10.3539   19.6791  -32.4580 H   0  0  0  0  0  0  0  0  0  0  0  0
   -8.3440   20.0510  -33.0700 N   0  0  0  0  0  0  0  0  0  0  0  0
   -8.3460   19.2500  -33.7380 H   0  0  0  0  0  0  0  0  0  0  0  0
   -7.2230   20.8160  -32.9510 C   0  0  0  0  0  0  0  0  0  0  0  0
   -6.3321   20.5791  -33.5511 H   0  0  0  0  0  0  0  0  0  0  0  0
   -3.1350   22.9310  -29.5610 C   0  0  0  0  0  0  0  0  0  0  0  0
   -3.0310   24.3350  -29.4710 C   0  0  0  0  0  0  0  0  0  0  0  0
   -3.6300   25.1210  -30.4700 O   0  0  0  0  0  0  0  0  0  0  0  0
   -5.0030   25.4970  -30.4880 C   0  0  0  0  0  0  0  0  0  0  0  0
   -5.3693   25.5973  -29.4556 H   0  0  0  0  0  0  0  0  0  0  0  0
   -5.1131   26.4584  -31.0111 H   0  0  0  0  0  0  0  0  0  0  0  0
   -5.5875   24.7259  -31.0111 H   0  0  0  0  0  0  0  0  0  0  0  0
   -2.3490   24.9120  -28.3860 C   0  0  0  0  0  0  0  0  0  0  0  0
   -2.2667   26.0066  -28.3144 H   0  0  0  0  0  0  0  0  0  0  0  0
   -1.7760   24.1110  -27.4000 C   0  0  0  0  0  0  0  0  0  0  0  0
   -1.2536   24.5778  -26.5519 H   0  0  0  0  0  0  0  0  0  0  0  0
   -1.8610   22.7160  -27.4820 C   0  0  0  0  0  0  0  0  0  0  0  0
   -1.2720   21.9160  -26.4890 C   0  0  0  0  0  0  0  0  0  0  0  0
   -0.7503   22.3879  -25.6433 H   0  0  0  0  0  0  0  0  0  0  0  0
   -1.3460   20.5250  -26.5710 C   0  0  0  0  0  0  0  0  0  0  0  0
   -0.8869   19.9037  -25.7879 H   0  0  0  0  0  0  0  0  0  0  0  0
   -2.0010   19.9210  -27.6440 C   0  0  0  0  0  0  0  0  0  0  0  0
   -2.0516   18.8240  -27.7069 H   0  0  0  0  0  0  0  0  0  0  0  0
   -2.5930   20.7020  -28.6390 C   0  0  0  0  0  0  0  0  0  0  0  0
   -3.1059   20.2157  -29.4819 H   0  0  0  0  0  0  0  0  0  0  0  0
   -2.5380   22.1110  -28.5710 C   0  0  0  0  0  0  0  0  0  0  0  0
   -1.7570   21.7220  -31.9720 C   0  0  0  0  0  0  0  0  0  0  0  0
   -1.0690   22.2377  -31.2859 H   0  0  0  0  0  0  0  0  0  0  0  0
   -1.3310   21.0220  -33.1080 C   0  0  0  0  0  0  0  0  0  0  0  0
   -0.2738   20.9352  -33.3993 H   0  0  0  0  0  0  0  0  0  0  0  0
  1  2  1  0
  2  3  1  0
  3  4  1  0
  4  5  1  0
  5  6  2  0
  6  7  1  0
  7  8  1  0
  7  9  1  0
  7 10  1  0
 10 11  2  0
 11 12  1  0
 11 13  1  0
 13 14  1  0
 13 15  2  0
 15 16  1  0
 15 17  1  0
 17 18  1  0
 17 19  2  0
 19 20  1  0
  5 21  1  0
 21 22  2  0
 22 23  1  0
 23 24  1  0
 24 25  1  0
 24 26  1  0
 24 27  1  0
 22 28  1  0
 28 29  1  0
 28 30  2  0
 30 31  1  0
 30 32  1  0
 32 33  2  0
 33 34  1  0
 33 35  1  0
 35 36  1  0
 35 37  2  0
 37 38  1  0
 37 39  1  0
 39 40  1  0
 39 41  2  0
  4 42  2  0
 42 43  1  0
 42 44  1  0
 44 45  1  0
 44  2  2  0
 19 10  1  0
 41 21  1  0
 41 32  1  0
M  CHG  1  17   1
M  END
>  <UniqueID>  (38) 
37

>  <SMILES>  (38) 
COc1ccc2ccccc2c1/C(=N\Cc1ccc[nH+]c1)c1cccs1

>  <Energy>  (38) 
81.7691128992015

>  <Genealogy>  (38) 
COc1ccc2ccccc2c1C(=NCc1ccc[nH+]c1)c1cccs1 (protonated)
COc1ccc2ccccc2c1/C(=N\Cc1ccc[nH+]c1)c1cccs1 (cis-trans isomerization)
COc1ccc2ccccc2c1/C(=N\Cc1ccc[nH+]c1)c1cccs1 (3D coordinates assigned)
COc1ccc2ccccc2c1/C(=N\Cc1ccc[nH+]c1)c1cccs1 (optimized conformer: 81.7691128992015 kcal/mol)

>  <smiles>  (38) 
COc1ccc2ccccc2c1C(=NCc1cccnc1)c1cccs1

>  <score_type>  (38) 
oracle

>  <origin>  (38) 
adg

>  <m_score__min__energy>  (38) 
-8.4900000000000002

>  <m_primary>  (38) 
energy

$$$$
38:0
     RDKit          3D

 39 40  0  0  0  0  0  0  0  0999 V2000
   -9.0290   23.4210  -32.3180 C   0  0  0  0  0  0  0  0  0  0  0  0
   -8.4400   22.1220  -31.9550 N   0  0  0  0  0  0  0  0  0  0  0  0
   -9.4880   21.0880  -31.9540 C   0  0  0  0  0  0  0  0  0  0  0  0
   -7.7860   22.2150  -30.6320 C   0  0  0  0  0  0  0  0  0  0  0  0
   -6.6550   23.2210  -30.6540 C   0  0  0  0  0  0  0  0  0  0  0  0
   -6.8610   24.4980  -30.1090 C   0  0  0  0  0  0  0  0  0  0  0  0
   -5.8180   25.4230  -30.0610 C   0  0  0  0  0  0  0  0  0  0  0  0
   -4.5620   25.0580  -30.5400 C   0  0  0  0  0  0  0  0  0  0  0  0
   -4.3630   23.8150  -31.0470 N   0  0  0  0  0  0  0  0  0  0  0  0
   -5.3620   22.8930  -31.1220 C   0  0  0  0  0  0  0  0  0  0  0  0
   -5.0710   21.5960  -31.6640 N   0  0  0  0  0  0  0  0  0  0  0  0
   -3.9120   20.8720  -31.1460 C   0  0  0  0  0  0  0  0  0  0  0  0
   -5.6110   21.2410  -32.9810 C   0  0  0  0  0  0  0  0  0  0  0  0
   -6.0120   19.7900  -33.0120 C   0  0  0  0  0  0  0  0  0  0  0  0
   -6.7590   19.2390  -31.9610 C   0  0  0  0  0  0  0  0  0  0  0  0
   -7.1550   17.9010  -32.0270 C   0  0  0  0  0  0  0  0  0  0  0  0
   -6.8230   17.1440  -33.1060 N   0  0  0  0  0  0  0  0  0  0  0  0
   -6.1070   17.6560  -34.1430 C   0  0  0  0  0  0  0  0  0  0  0  0
   -5.6920   18.9890  -34.1180 C   0  0  0  0  0  0  0  0  0  0  0  0
   -9.2814   23.9776  -31.4034 H   0  0  0  0  0  0  0  0  0  0  0  0
   -8.3049   23.9990  -32.9110 H   0  0  0  0  0  0  0  0  0  0  0  0
   -9.9409   23.2572  -32.9110 H   0  0  0  0  0  0  0  0  0  0  0  0
   -9.7485   20.8310  -30.9167 H   0  0  0  0  0  0  0  0  0  0  0  0
  -10.3801   21.4696  -32.4723 H   0  0  0  0  0  0  0  0  0  0  0  0
   -9.1185   20.1909  -32.4723 H   0  0  0  0  0  0  0  0  0  0  0  0
   -8.5301   22.5269  -29.8843 H   0  0  0  0  0  0  0  0  0  0  0  0
   -7.3719   21.2285  -30.3763 H   0  0  0  0  0  0  0  0  0  0  0  0
   -7.8518   24.7712  -29.7170 H   0  0  0  0  0  0  0  0  0  0  0  0
   -5.9855   26.4293  -29.6495 H   0  0  0  0  0  0  0  0  0  0  0  0
   -3.7308   25.7778  -30.5073 H   0  0  0  0  0  0  0  0  0  0  0  0
   -3.9330   20.8851  -30.0463 H   0  0  0  0  0  0  0  0  0  0  0  0
   -3.9412   19.8312  -31.5009 H   0  0  0  0  0  0  0  0  0  0  0  0
   -2.9895   21.3547  -31.5009 H   0  0  0  0  0  0  0  0  0  0  0  0
   -6.4923   21.8648  -33.1912 H   0  0  0  0  0  0  0  0  0  0  0  0
   -4.8353   21.4124  -33.7419 H   0  0  0  0  0  0  0  0  0  0  0  0
   -7.0310   19.8554  -31.0915 H   0  0  0  0  0  0  0  0  0  0  0  0
   -7.7365   17.4593  -31.2044 H   0  0  0  0  0  0  0  0  0  0  0  0
   -5.8544   17.0186  -35.0032 H   0  0  0  0  0  0  0  0  0  0  0  0
   -5.1190   19.4074  -34.9586 H   0  0  0  0  0  0  0  0  0  0  0  0
  1  2  1  0
  2  3  1  0
  2  4  1  0
  4  5  1  0
  5  6  2  0
  6  7  1  0
  7  8  2  0
  8  9  1  0
  9 10  2  0
 10 11  1  0
 11 12  1  0
 11 13  1  0
 13 14  1  0
 14 15  2  0
 15 16  1  0
 16 17  2  0
 17 18  1  0
 18 19  2  0
 10  5  1  0
 19 14  1  0
  1 20  1  0
  1 21  1  0
  1 22  1  0
  3 23  1  0
  3 24  1  0
  3 25  1  0
  4 26  1  0
  4 27  1  0
  6 28  1  0
  7 29  1  0
  8 30  1  0
 12 31  1  0
 12 32  1  0
 12 33  1  0
 13 34  1  0
 13 35  1  0
 15 36  1  0
 16 37  1  0
 18 38  1  0
 19 39  1  0
M  END
>  <UniqueID>  (39) 
38

>  <SMILES>  (39) 
CN(C)Cc1cccnc1N(C)Cc1ccncc1

>  <Energy>  (39) 
43.515248851828005

>  <Genealogy>  (39) 
CN(C)Cc1cccnc1N(C)Cc1ccncc1 (3D coordinates assigned)
CN(C)Cc1cccnc1N(C)Cc1ccncc1 (optimized conformer: 43.515248851828005 kcal/mol)

>  <smiles>  (39) 
CN(C)Cc1cccnc1N(C)Cc1ccncc1

>  <score_type>  (39) 
oracle

>  <origin>  (39) 
adg

>  <m_score__min__energy>  (39) 
-6.9400000000000004

>  <m_primary>  (39) 
energy

$$$$
39:0
     RDKit          3D

 32 34  0  0  0  0  0  0  0  0999 V2000
   -4.4610   17.2280  -34.3950 C   0  0  0  0  0  0  0  0  0  0  0  0
   -4.6390   18.6820  -34.5410 N   0  0  0  0  0  0  0  0  0  0  0  0
   -6.0670   19.0680  -34.4080 C   0  0  0  0  0  0  0  0  0  0  0  0
   -6.4060   19.6990  -33.0490 C   0  0  0  0  0  0  0  0  0  0  0  0
   -5.5120   20.8340  -32.7770 N   0  0  0  0  0  0  0  0  0  0  0  0
   -5.9350   21.9440  -31.9560 C   0  0  0  0  0  0  0  0  0  0  0  0
   -7.0880   21.8470  -31.1260 C   0  0  0  0  0  0  0  0  0  0  0  0
   -7.4780   22.9380  -30.3300 C   0  0  0  0  0  0  0  0  0  0  0  0
   -6.6980   24.0850  -30.3910 C   0  0  0  0  0  0  0  0  0  0  0  0
   -6.8030   25.2990  -29.7480 C   0  0  0  0  0  0  0  0  0  0  0  0
   -5.7230   26.0490  -30.2120 C   0  0  0  0  0  0  0  0  0  0  0  0
   -4.9850   25.3360  -31.0960 N   0  0  0  0  0  0  0  0  0  0  0  0
   -5.5960   24.1450  -31.1900 C   0  0  0  0  0  0  0  0  0  0  0  0
   -5.2050   23.1040  -31.9630 N   0  0  0  0  0  0  0  0  0  0  0  0
   -4.1720   20.8420  -33.3740 C   0  0  0  0  0  0  0  0  0  0  0  0
   -3.7110   19.4060  -33.6420 C   0  0  0  0  0  0  0  0  0  0  0  0
   -4.4292   16.9679  -33.3267 H   0  0  0  0  0  0  0  0  0  0  0  0
   -5.3019   16.7057  -34.8746 H   0  0  0  0  0  0  0  0  0  0  0  0
   -3.5189   16.9239  -34.8746 H   0  0  0  0  0  0  0  0  0  0  0  0
   -6.3067   19.7941  -35.1988 H   0  0  0  0  0  0  0  0  0  0  0  0
   -6.6612   18.1464  -34.4946 H   0  0  0  0  0  0  0  0  0  0  0  0
   -7.4476   20.0525  -33.0626 H   0  0  0  0  0  0  0  0  0  0  0  0
   -6.2752   18.9431  -32.2606 H   0  0  0  0  0  0  0  0  0  0  0  0
   -7.6746   20.9166  -31.1077 H   0  0  0  0  0  0  0  0  0  0  0  0
   -8.3667   22.8851  -29.6839 H   0  0  0  0  0  0  0  0  0  0  0  0
   -7.5721   25.6093  -29.0253 H   0  0  0  0  0  0  0  0  0  0  0  0
   -5.5004   27.0806  -29.9019 H   0  0  0  0  0  0  0  0  0  0  0  0
   -4.1240   25.6480  -31.5960 H   0  0  0  0  0  0  0  0  0  0  0  0
   -4.1986   21.3993  -34.3220 H   0  0  0  0  0  0  0  0  0  0  0  0
   -3.4690   21.3238  -32.6785 H   0  0  0  0  0  0  0  0  0  0  0  0
   -2.7151   19.4343  -34.1083 H   0  0  0  0  0  0  0  0  0  0  0  0
   -3.6861   18.8730  -32.6801 H   0  0  0  0  0  0  0  0  0  0  0  0
  1  2  1  0
  2  3  1  0
  3  4  1  0
  4  5  1  0
  5  6  1  0
  6  7  2  0
  7  8  1  0
  8  9  2  0
  9 10  1  0
 10 11  2  0
 11 12  1  0
 12 13  1  0
 13 14  2  0
  5 15  1  0
 15 16  1  0
 16  2  1  0
 14  6  1  0
 13  9  1  0
  1 17  1  0
  1 18  1  0
  1 19  1  0
  3 20  1  0
  3 21  1  0
  4 22  1  0
  4 23  1  0
  7 24  1  0
  8 25  1  0
 10 26  1  0
 11 27  1  0
 12 28  1  0
 15 29  1  0
 15 30  1  0
 16 31  1  0
 16 32  1  0
M  END
>  <UniqueID>  (40) 
39

>  <SMILES>  (40) 
CN1CCN(c2ccc3cc[nH]c3n2)CC1

>  <Energy>  (40) 
75.85121971703876

>  <Genealogy>  (40) 
CN1CCN(c2ccc3cc[nH]c3n2)CC1 (3D coordinates assigned)
CN1CCN(c2ccc3cc[nH]c3n2)CC1 (nonaromatic ring conformer: 75.85121971703876 kcal/mol)

>  <smiles>  (40) 
CN1CCN(c2ccc3cc[nH]c3n2)CC1

>  <score_type>  (40) 
oracle

>  <origin>  (40) 
adg

>  <m_score__min__energy>  (40) 
-6.5599999999999996

>  <m_primary>  (40) 
energy

$$$$
40:0
     RDKit          3D

 46 49  0  0  0  0  0  0  0  0999 V2000
    0.3120   21.5210  -35.2240 C   0  0  0  0  0  0  0  0  0  0  0  0
   -0.3000   21.6070  -33.9410 O   0  0  0  0  0  0  0  0  0  0  0  0
   -1.5590   21.0770  -33.6250 C   0  0  0  0  0  0  0  0  0  0  0  0
   -1.9420   19.8710  -34.2220 C   0  0  0  0  0  0  0  0  0  0  0  0
   -3.1860   19.3000  -33.9350 C   0  0  0  0  0  0  0  0  0  0  0  0
   -4.0710   19.9250  -33.0390 C   0  0  0  0  0  0  0  0  0  0  0  0
   -5.3980   19.3190  -32.7680 C   0  0  0  0  0  0  0  0  0  0  0  0
   -6.4610   20.0490  -32.9610 N   0  0  0  0  0  0  0  0  0  0  0  0
   -7.7530   19.5630  -32.7200 N   0  0  0  0  0  0  0  0  0  0  0  0
   -8.8660   20.2480  -32.4070 C   0  0  0  0  0  0  0  0  0  0  0  0
   -8.9790   21.7440  -32.3260 C   0  0  0  0  0  0  0  0  0  0  0  0
   -7.7610   22.3580  -31.6860 C   0  0  0  0  0  0  0  0  0  0  0  0
   -7.5460   22.2390  -30.3020 C   0  0  0  0  0  0  0  0  0  0  0  0
   -6.3820   22.7500  -29.7230 C   0  0  0  0  0  0  0  0  0  0  0  0
   -5.4240   23.3980  -30.5170 C   0  0  0  0  0  0  0  0  0  0  0  0
   -3.9380   24.0010  -29.7940 S   0  0  0  0  0  0  0  0  0  0  0  0
   -4.1950   24.2660  -28.0510 C   0  0  0  0  0  0  0  0  0  0  0  0
   -3.5440   25.2970  -30.4480 O   0  0  0  0  0  0  0  0  0  0  0  0
   -2.8330   23.0010  -29.9980 O   0  0  0  0  0  0  0  0  0  0  0  0
   -5.6360   23.5220  -31.8970 C   0  0  0  0  0  0  0  0  0  0  0  0
   -6.7980   23.0040  -32.4790 C   0  0  0  0  0  0  0  0  0  0  0  0
   -9.8360   19.3990  -32.0030 N   0  0  0  0  0  0  0  0  0  0  0  0
   -9.3410   18.1670  -32.0770 N   0  0  0  0  0  0  0  0  0  0  0  0
   -8.0760   18.2890  -32.5180 C   0  0  0  0  0  0  0  0  0  0  0  0
   -6.9150   16.9650  -32.7810 S   0  0  0  0  0  0  0  0  0  0  0  0
   -5.5130   17.9440  -32.1210 C   0  0  0  0  0  0  0  0  0  0  0  0
   -3.6880   21.1400  -32.4450 C   0  0  0  0  0  0  0  0  0  0  0  0
   -2.4430   21.7110  -32.7320 C   0  0  0  0  0  0  0  0  0  0  0  0
    1.3948   21.3688  -35.1043 H   0  0  0  0  0  0  0  0  0  0  0  0
   -0.1180   20.6745  -35.7794 H   0  0  0  0  0  0  0  0  0  0  0  0
    0.1319   22.4533  -35.7794 H   0  0  0  0  0  0  0  0  0  0  0  0
   -1.2593   19.3680  -34.9226 H   0  0  0  0  0  0  0  0  0  0  0  0
   -3.4747   18.3531  -34.4147 H   0  0  0  0  0  0  0  0  0  0  0  0
   -9.0908   22.1492  -33.3425 H   0  0  0  0  0  0  0  0  0  0  0  0
   -9.8542   21.9901  -31.7068 H   0  0  0  0  0  0  0  0  0  0  0  0
   -8.2978   21.7412  -29.6720 H   0  0  0  0  0  0  0  0  0  0  0  0
   -6.2160   22.6439  -28.6408 H   0  0  0  0  0  0  0  0  0  0  0  0
   -3.5415   23.5922  -27.4774 H   0  0  0  0  0  0  0  0  0  0  0  0
   -3.9563   25.3100  -27.7997 H   0  0  0  0  0  0  0  0  0  0  0  0
   -5.2458   24.0594  -27.7997 H   0  0  0  0  0  0  0  0  0  0  0  0
   -4.8869   24.0278  -32.5239 H   0  0  0  0  0  0  0  0  0  0  0  0
   -6.9584   23.1030  -33.5627 H   0  0  0  0  0  0  0  0  0  0  0  0
   -5.6549   18.0756  -31.0382 H   0  0  0  0  0  0  0  0  0  0  0  0
   -4.5882   17.3928  -32.3467 H   0  0  0  0  0  0  0  0  0  0  0  0
   -4.3727   21.6463  -31.7487 H   0  0  0  0  0  0  0  0  0  0  0  0
   -2.1538   22.6602  -32.2572 H   0  0  0  0  0  0  0  0  0  0  0  0
  1  2  1  0
  2  3  1  0
  3  4  2  0
  4  5  1  0
  5  6  2  0
  6  7  1  0
  7  8  2  0
  8  9  1  0
  9 10  1  0
 10 11  1  0
 11 12  1  0
 12 13  2  0
 13 14  1  0
 14 15  2  0
 15 16  1  0
 16 17  1  0
 16 18  2  0
 16 19  2  0
 15 20  1  0
 20 21  2  0
 10 22  2  0
 22 23  1  0
 23 24  2  0
 24 25  1  0
 25 26  1  0
  6 27  1  0
 27 28  2  0
 28  3  1  0
 26  7  1  0
 24  9  1  0
 21 12  1  0
  1 29  1  0
  1 30  1  0
  1 31  1  0
  4 32  1  0
  5 33  1  0
 11 34  1  0
 11 35  1  0
 13 36  1  0
 14 37  1  0
 17 38  1  0
 17 39  1  0
 17 40  1  0
 20 41  1  0
 21 42  1  0
 26 43  1  0
 26 44  1  0
 27 45  1  0
 28 46  1  0
M  END
>  <UniqueID>  (41) 
40

>  <SMILES>  (41) 
COc1ccc(C2=Nn3c(Cc4ccc(S(C)(=O)=O)cc4)nnc3SC2)cc1

>  <Energy>  (41) 
89.88394514454349

>  <Genealogy>  (41) 
COc1ccc(C2=Nn3c(Cc4ccc(S(C)(=O)=O)cc4)nnc3SC2)cc1 (3D coordinates assigned)
COc1ccc(C2=Nn3c(Cc4ccc(S(C)(=O)=O)cc4)nnc3SC2)cc1 (nonaromatic ring conformer: 89.88394514454349 kcal/mol)

>  <smiles>  (41) 
COc1ccc(C2=Nn3c(Cc4ccc(S(C)(=O)=O)cc4)nnc3SC2)cc1

>  <score_type>  (41) 
oracle

>  <origin>  (41) 
adg

>  <m_score__min__energy>  (41) 
-9.8800000000000008

>  <m_primary>  (41) 
energy

$$$$
41:0
     RDKit          3D

 31 33  0  0  0  0  0  0  0  0999 V2000
   -9.5610   18.3290  -31.9610 F   0  0  0  0  0  0  0  0  0  0  0  0
   -8.3670   18.9390  -32.1030 C   0  0  0  0  0  0  0  0  0  0  0  0
   -7.2520   18.3070  -31.6070 C   0  0  0  0  0  0  0  0  0  0  0  0
   -6.0290   18.9350  -31.7540 C   0  0  0  0  0  0  0  0  0  0  0  0
   -5.9350   20.1790  -32.3890 C   0  0  0  0  0  0  0  0  0  0  0  0
   -4.5910   20.7380  -32.4820 C   0  0  0  0  0  0  0  0  0  0  0  0
   -3.5460   20.1270  -33.1050 N   0  0  0  0  0  0  0  0  0  0  0  0
   -2.4790   20.9370  -32.9840 C   0  0  0  0  0  0  0  0  0  0  0  0
   -1.1420   20.6260  -33.5320 C   0  0  0  0  0  0  0  0  0  0  0  0
   -0.5040   21.8110  -33.9240 F   0  0  0  0  0  0  0  0  0  0  0  0
   -1.2370   19.8180  -34.6510 F   0  0  0  0  0  0  0  0  0  0  0  0
   -2.8170   22.0580  -32.2950 N   0  0  0  0  0  0  0  0  0  0  0  0
   -4.1380   21.9380  -31.9780 C   0  0  0  0  0  0  0  0  0  0  0  0
   -4.9380   22.9110  -31.2350 C   0  0  0  0  0  0  0  0  0  0  0  0
   -6.0330   22.4710  -30.5200 C   0  0  0  0  0  0  0  0  0  0  0  0
   -6.8480   23.3090  -29.7870 C   0  0  0  0  0  0  0  0  0  0  0  0
   -6.4990   24.6650  -29.8080 C   0  0  0  0  0  0  0  0  0  0  0  0
   -5.4030   25.1120  -30.5230 C   0  0  0  0  0  0  0  0  0  0  0  0
   -4.6450   24.2310  -31.2220 N   0  0  0  0  0  0  0  0  0  0  0  0
   -7.0520   20.8140  -32.8860 C   0  0  0  0  0  0  0  0  0  0  0  0
   -8.2710   20.1780  -32.7350 C   0  0  0  0  0  0  0  0  0  0  0  0
   -7.3302   17.3300  -31.1076 H   0  0  0  0  0  0  0  0  0  0  0  0
   -5.1196   18.4516  -31.3676 H   0  0  0  0  0  0  0  0  0  0  0  0
   -0.5738   20.1086  -32.7449 H   0  0  0  0  0  0  0  0  0  0  0  0
   -2.1850   22.8730  -32.0460 H   0  0  0  0  0  0  0  0  0  0  0  0
   -6.2684   21.3966  -30.5351 H   0  0  0  0  0  0  0  0  0  0  0  0
   -7.7155   22.9361  -29.2228 H   0  0  0  0  0  0  0  0  0  0  0  0
   -7.1079   25.3879  -29.2454 H   0  0  0  0  0  0  0  0  0  0  0  0
   -5.1461   26.1816  -30.5248 H   0  0  0  0  0  0  0  0  0  0  0  0
   -6.9772   21.7915  -33.3849 H   0  0  0  0  0  0  0  0  0  0  0  0
   -9.1820   20.6589  -33.1209 H   0  0  0  0  0  0  0  0  0  0  0  0
  1  2  1  0
  2  3  2  0
  3  4  1  0
  4  5  2  0
  5  6  1  0
  6  7  1  0
  7  8  2  0
  8  9  1  0
  9 10  1  0
  9 11  1  0
  8 12  1  0
 12 13  1  0
 13 14  1  0
 14 15  2  0
 15 16  1  0
 16 17  2  0
 17 18  1  0
 18 19  2  0
  5 20  1  0
 20 21  2  0
 21  2  1  0
 13  6  2  0
 19 14  1  0
  3 22  1  0
  4 23  1  0
  9 24  1  0
 12 25  1  0
 15 26  1  0
 16 27  1  0
 17 28  1  0
 18 29  1  0
 20 30  1  0
 21 31  1  0
M  END
>  <smiles>  (42) 
Fc1ccc(-c2nc(C(F)F)[nH]c2-c2ccccn2)cc1

>  <score_type>  (42) 
oracle

>  <origin>  (42) 
adg

>  <m_score__min__energy>  (42) 
-6.8799999999999999

>  <m_primary>  (42) 
energy

$$$$
42:0
     RDKit          3D

 44 46  0  0  0  0  0  0  0  0999 V2000
   -2.1841   20.3936  -28.0670 H   0  0  0  0  0  0  0  0  0  0  0  0
   -2.5600   20.9990  -28.9050 C   0  0  0  0  0  0  0  0  0  0  0  0
   -3.6365   21.2072  -28.9937 H   0  0  0  0  0  0  0  0  0  0  0  0
   -1.7100   21.4810  -29.8140 C   0  0  0  0  0  0  0  0  0  0  0  0
   -0.6352   21.2677  -29.7171 H   0  0  0  0  0  0  0  0  0  0  0  0
   -2.1980   22.3100  -30.9670 C   0  0  0  0  0  0  0  0  0  0  0  0
   -1.4412   23.0699  -31.2113 H   0  0  0  0  0  0  0  0  0  0  0  0
   -2.3683   21.6500  -31.8304 H   0  0  0  0  0  0  0  0  0  0  0  0
   -3.4650   22.9810  -30.6260 N   0  0  0  0  0  0  0  0  0  0  0  0
   -3.6200   24.1900  -29.9850 C   0  0  0  0  0  0  0  0  0  0  0  0
   -2.6940   24.9080  -29.4120 N   0  0  0  0  0  0  0  0  0  0  0  0
   -1.7500   24.5300  -28.4090 C   0  0  0  0  0  0  0  0  0  0  0  0
   -0.5230   24.7480  -28.5950 O   0  0  0  0  0  0  0  0  0  0  0  0
   -2.2290   24.0240  -27.0850 C   0  0  0  0  0  0  0  0  0  0  0  0
   -2.8371   24.8015  -26.5995 H   0  0  0  0  0  0  0  0  0  0  0  0
   -2.8299   23.1173  -27.2485 H   0  0  0  0  0  0  0  0  0  0  0  0
   -0.8170   23.6070  -26.0070 S   0  0  0  0  0  0  0  0  0  0  0  0
   -0.6990   25.2350  -25.2600 C   0  0  0  0  0  0  0  0  0  0  0  0
   -1.2120   26.3510  -25.9310 C   0  0  0  0  0  0  0  0  0  0  0  0
   -1.6911   26.2357  -26.9144 H   0  0  0  0  0  0  0  0  0  0  0  0
   -1.1100   27.6110  -25.3410 C   0  0  0  0  0  0  0  0  0  0  0  0
   -1.5130   28.4955  -25.8560 H   0  0  0  0  0  0  0  0  0  0  0  0
   -0.4950   27.7460  -24.0950 C   0  0  0  0  0  0  0  0  0  0  0  0
   -0.4122   28.7347  -23.6201 H   0  0  0  0  0  0  0  0  0  0  0  0
    0.0140   26.6120  -23.4580 C   0  0  0  0  0  0  0  0  0  0  0  0
    0.5026   26.7067  -22.4770 H   0  0  0  0  0  0  0  0  0  0  0  0
   -0.0930   25.3900  -24.0480 N   0  0  0  0  0  0  0  0  0  0  0  0
    0.2960   24.5550  -23.5560 H   0  0  0  0  0  0  0  0  0  0  0  0
   -5.2350   24.6770  -29.9320 S   0  0  0  0  0  0  0  0  0  0  0  0
   -5.7730   23.2920  -30.6960 C   0  0  0  0  0  0  0  0  0  0  0  0
   -7.0860   22.9440  -30.9980 C   0  0  0  0  0  0  0  0  0  0  0  0
   -7.9157   23.6235  -30.7534 H   0  0  0  0  0  0  0  0  0  0  0  0
   -7.3340   21.7030  -31.6240 C   0  0  0  0  0  0  0  0  0  0  0  0
   -8.7170   21.2710  -31.9700 C   0  0  0  0  0  0  0  0  0  0  0  0
   -9.6920   22.0110  -31.6660 O   0  0  0  0  0  0  0  0  0  0  0  0
   -9.0030   19.9910  -32.7000 C   0  0  0  0  0  0  0  0  0  0  0  0
  -10.0445   19.9989  -33.0537 H   0  0  0  0  0  0  0  0  0  0  0  0
   -8.3176   19.9039  -33.5559 H   0  0  0  0  0  0  0  0  0  0  0  0
   -8.7600   18.6000  -31.6150 Cl  0  0  0  0  0  0  0  0  0  0  0  0
   -6.2380   20.8530  -31.9120 C   0  0  0  0  0  0  0  0  0  0  0  0
   -6.4207   19.8799  -32.3912 H   0  0  0  0  0  0  0  0  0  0  0  0
   -4.9230   21.2300  -31.5970 C   0  0  0  0  0  0  0  0  0  0  0  0
   -4.0827   20.5574  -31.8239 H   0  0  0  0  0  0  0  0  0  0  0  0
   -4.6910   22.4750  -30.9890 C   0  0  0  0  0  0  0  0  0  0  0  0
  1  2  1  0
  2  3  1  0
  2  4  2  0
  4  5  1  0
  4  6  1  0
  6  7  1  0
  6  8  1  0
  6  9  1  0
  9 10  1  0
 10 11  2  0
 11 12  1  0
 12 13  2  0
 12 14  1  0
 14 15  1  0
 14 16  1  0
 14 17  1  0
 17 18  1  0
 18 19  2  0
 19 20  1  0
 19 21  1  0
 21 22  1  0
 21 23  2  0
 23 24  1  0
 23 25  1  0
 25 26  1  0
 25 27  2  0
 27 28  1  0
 10 29  1  0
 29 30  1  0
 30 31  2  0
 31 32  1  0
 31 33  1  0
 33 34  1  0
 34 35  2  0
 34 36  1  0
 36 37  1  0
 36 38  1  0
 36 39  1  0
 33 40  2  0
 40 41  1  0
 40 42  1  0
 42 43  1  0
 42 44  2  0
 44  9  1  0
 27 18  1  0
 44 30  1  0
M  CHG  1  27   1
M  END
>  <UniqueID>  (43) 
41

>  <SMILES>  (43) 
C=CCn1/c(=N\C(=O)CSc2cccc[nH+]2)sc2cc(C(=O)CCl)ccc21

>  <Energy>  (43) 
91.76680140753261

>  <Genealogy>  (43) 
C=CCn1c(=NC(=O)CSc2cccc[nH+]2)sc2cc(C(=O)CCl)ccc21 (protonated)
C=CCn1/c(=N\C(=O)CSc2cccc[nH+]2)sc2cc(C(=O)CCl)ccc21 (cis-trans isomerization)
C=CCn1/c(=N\C(=O)CSc2cccc[nH+]2)sc2cc(C(=O)CCl)ccc21 (3D coordinates assigned)
C=CCn1/c(=N\C(=O)CSc2cccc[nH+]2)sc2cc(C(=O)CCl)ccc21 (optimized conformer: 91.76680140753261 kcal/mol)

>  <smiles>  (43) 
C=CCn1c(=NC(=O)CSc2ccccn2)sc2cc(C(=O)CCl)ccc21

>  <score_type>  (43) 
oracle

>  <origin>  (43) 
adg

>  <m_score__min__energy>  (43) 
-9.1899999999999995

>  <m_primary>  (43) 
energy

$$$$
43:0
     RDKit          3D

 41 42  0  0  0  0  0  0  0  0999 V2000
   -3.9750   21.8220  -33.0220 C   0  0  0  0  0  0  0  0  0  0  0  0
   -3.9520   22.0680  -31.5170 C   0  0  0  0  0  0  0  0  0  0  0  0
   -4.7340   23.2670  -31.1780 N   0  0  0  0  0  0  0  0  0  0  0  0
   -5.8960   23.6130  -32.0150 C   0  0  0  0  0  0  0  0  0  0  0  0
   -7.2140   23.4160  -31.2560 C   0  0  0  0  0  0  0  0  0  0  0  0
   -7.8320   22.0820  -31.5470 C   0  0  0  0  0  0  0  0  0  0  0  0
   -9.1740   21.8390  -31.8190 C   0  0  0  0  0  0  0  0  0  0  0  0
   -9.4490   20.4920  -32.0810 C   0  0  0  0  0  0  0  0  0  0  0  0
   -8.3260   19.6780  -31.9920 C   0  0  0  0  0  0  0  0  0  0  0  0
   -8.2860   18.2150  -32.2860 C   0  0  0  0  0  0  0  0  0  0  0  0
   -6.9910   20.6270  -31.6150 S   0  0  0  0  0  0  0  0  0  0  0  0
   -4.3010   24.1910  -30.1500 C   0  0  0  0  0  0  0  0  0  0  0  0
   -3.8630   25.3250  -30.4850 O   0  0  0  0  0  0  0  0  0  0  0  0
   -4.3650   23.8600  -28.6770 C   0  0  0  0  0  0  0  0  0  0  0  0
   -3.2410   22.9400  -28.2570 C   0  0  0  0  0  0  0  0  0  0  0  0
   -3.4840   21.5560  -28.1460 C   0  0  0  0  0  0  0  0  0  0  0  0
   -2.4640   20.6810  -27.7660 C   0  0  0  0  0  0  0  0  0  0  0  0
   -1.1850   21.1690  -27.5020 C   0  0  0  0  0  0  0  0  0  0  0  0
   -0.9200   22.5330  -27.6270 C   0  0  0  0  0  0  0  0  0  0  0  0
   -1.9340   23.4230  -28.0050 C   0  0  0  0  0  0  0  0  0  0  0  0
   -1.4600   25.2710  -28.2030 Br  0  0  0  0  0  0  0  0  0  0  0  0
   -4.0758   20.7439  -33.2158 H   0  0  0  0  0  0  0  0  0  0  0  0
   -4.8271   22.3559  -33.4678 H   0  0  0  0  0  0  0  0  0  0  0  0
   -3.0387   22.1887  -33.4678 H   0  0  0  0  0  0  0  0  0  0  0  0
   -4.3831   21.1972  -31.0014 H   0  0  0  0  0  0  0  0  0  0  0  0
   -2.9105   22.2210  -31.1978 H   0  0  0  0  0  0  0  0  0  0  0  0
   -5.8144   24.6661  -32.3221 H   0  0  0  0  0  0  0  0  0  0  0  0
   -5.8999   22.9486  -32.8917 H   0  0  0  0  0  0  0  0  0  0  0  0
   -7.0170   23.4888  -30.1762 H   0  0  0  0  0  0  0  0  0  0  0  0
   -7.9165   24.1962  -31.5842 H   0  0  0  0  0  0  0  0  0  0  0  0
   -9.9421   22.6263  -31.8274 H   0  0  0  0  0  0  0  0  0  0  0  0
  -10.4518   20.1159  -32.3318 H   0  0  0  0  0  0  0  0  0  0  0  0
   -8.2706   17.6515  -31.3414 H   0  0  0  0  0  0  0  0  0  0  0  0
   -9.1768   17.9332  -32.8666 H   0  0  0  0  0  0  0  0  0  0  0  0
   -7.3812   17.9823  -32.8666 H   0  0  0  0  0  0  0  0  0  0  0  0
   -4.2953   24.7935  -28.0993 H   0  0  0  0  0  0  0  0  0  0  0  0
   -5.3176   23.3448  -28.4842 H   0  0  0  0  0  0  0  0  0  0  0  0
   -4.4878   21.1609  -28.3610 H   0  0  0  0  0  0  0  0  0  0  0  0
   -2.6702   19.6044  -27.6748 H   0  0  0  0  0  0  0  0  0  0  0  0
   -0.3852   20.4789  -27.1953 H   0  0  0  0  0  0  0  0  0  0  0  0
    0.0929   22.9127  -27.4272 H   0  0  0  0  0  0  0  0  0  0  0  0
  1  2  1  0
  2  3  1  0
  3  4  1  0
  4  5  1  0
  5  6  1  0
  6  7  2  0
  7  8  1  0
  8  9  2  0
  9 10  1  0
  9 11  1  0
  3 12  1  0
 12 13  2  0
 12 14  1  0
 14 15  1  0
 15 16  2  0
 16 17  1  0
 17 18  2  0
 18 19  1  0
 19 20  2  0
 20 21  1  0
 11  6  1  0
 20 15  1  0
  1 22  1  0
  1 23  1  0
  1 24  1  0
  2 25  1  0
  2 26  1  0
  4 27  1  0
  4 28  1  0
  5 29  1  0
  5 30  1  0
  7 31  1  0
  8 32  1  0
 10 33  1  0
 10 34  1  0
 10 35  1  0
 14 36  1  0
 14 37  1  0
 16 38  1  0
 17 39  1  0
 18 40  1  0
 19 41  1  0
M  END
>  <UniqueID>  (44) 
42

>  <SMILES>  (44) 
CCN(CCc1ccc(C)s1)C(=O)Cc1ccccc1Br

>  <Energy>  (44) 
55.593150255080154

>  <Genealogy>  (44) 
CCN(CCc1ccc(C)s1)C(=O)Cc1ccccc1Br (3D coordinates assigned)
CCN(CCc1ccc(C)s1)C(=O)Cc1ccccc1Br (optimized conformer: 55.593150255080154 kcal/mol)

>  <smiles>  (44) 
CCN(CCc1ccc(C)s1)C(=O)Cc1ccccc1Br

>  <score_type>  (44) 
oracle

>  <origin>  (44) 
adg

>  <m_score__min__energy>  (44) 
-8.3800000000000008

>  <m_primary>  (44) 
energy

$$$$
44:0
     RDKit          3D

 34 36  0  0  0  0  0  0  0  0999 V2000
   -7.8940   18.0630  -32.3240 C   0  0  0  0  0  0  0  0  0  0  0  0
   -9.0990   18.9970  -32.3050 C   0  0  0  0  0  0  0  0  0  0  0  0
   -8.6850   20.3830  -31.9290 C   0  0  0  0  0  0  0  0  0  0  0  0
   -9.5030   21.5080  -31.9460 C   0  0  0  0  0  0  0  0  0  0  0  0
   -8.8230   22.6890  -31.6280 C   0  0  0  0  0  0  0  0  0  0  0  0
   -7.4670   22.4940  -31.3880 C   0  0  0  0  0  0  0  0  0  0  0  0
   -6.4760   23.5260  -31.0420 C   0  0  0  0  0  0  0  0  0  0  0  0
   -6.7080   24.5000  -30.1410 N   0  0  0  0  0  0  0  0  0  0  0  0
   -5.5620   25.1630  -30.0670 N   0  0  0  0  0  0  0  0  0  0  0  0
   -4.6510   24.6230  -30.8580 N   0  0  0  0  0  0  0  0  0  0  0  0
   -5.2000   23.5970  -31.4840 N   0  0  0  0  0  0  0  0  0  0  0  0
   -4.4550   22.6700  -32.3380 C   0  0  0  0  0  0  0  0  0  0  0  0
   -3.3630   21.9810  -31.5590 C   0  0  0  0  0  0  0  0  0  0  0  0
   -2.2070   21.5270  -32.2130 C   0  0  0  0  0  0  0  0  0  0  0  0
   -1.1830   20.9070  -31.4890 C   0  0  0  0  0  0  0  0  0  0  0  0
   -1.3110   20.7290  -30.1090 C   0  0  0  0  0  0  0  0  0  0  0  0
   -2.4650   21.1630  -29.4520 C   0  0  0  0  0  0  0  0  0  0  0  0
   -3.4920   21.7810  -30.1730 C   0  0  0  0  0  0  0  0  0  0  0  0
   -7.1180   20.8560  -31.5420 S   0  0  0  0  0  0  0  0  0  0  0  0
   -7.5940   17.8305  -31.2916 H   0  0  0  0  0  0  0  0  0  0  0  0
   -8.1595   17.1325  -32.8471 H   0  0  0  0  0  0  0  0  0  0  0  0
   -7.0591   18.5522  -32.8471 H   0  0  0  0  0  0  0  0  0  0  0  0
   -9.5578   19.0155  -33.3046 H   0  0  0  0  0  0  0  0  0  0  0  0
   -9.8211   18.6288  -31.5614 H   0  0  0  0  0  0  0  0  0  0  0  0
  -10.5761   21.4728  -32.1853 H   0  0  0  0  0  0  0  0  0  0  0  0
   -9.3119   23.6729  -31.5733 H   0  0  0  0  0  0  0  0  0  0  0  0
   -5.3970   25.9890  -29.4510 H   0  0  0  0  0  0  0  0  0  0  0  0
   -5.1461   21.9126  -32.7364 H   0  0  0  0  0  0  0  0  0  0  0  0
   -3.9954   23.2401  -33.1589 H   0  0  0  0  0  0  0  0  0  0  0  0
   -2.1057   21.6594  -33.3003 H   0  0  0  0  0  0  0  0  0  0  0  0
   -0.2766   20.5594  -32.0064 H   0  0  0  0  0  0  0  0  0  0  0  0
   -0.5027   20.2469  -29.5396 H   0  0  0  0  0  0  0  0  0  0  0  0
   -2.5661   21.0185  -28.3662 H   0  0  0  0  0  0  0  0  0  0  0  0
   -4.4038   22.1117  -29.6541 H   0  0  0  0  0  0  0  0  0  0  0  0
  1  2  1  0
  2  3  1  0
  3  4  2  0
  4  5  1  0
  5  6  2  0
  6  7  1  0
  7  8  2  0
  8  9  1  0
  9 10  2  0
 10 11  1  0
 11 12  1  0
 12 13  1  0
 13 14  2  0
 14 15  1  0
 15 16  2  0
 16 17  1  0
 17 18  2  0
  6 19  1  0
 19  3  1  0
 11  7  1  0
 18 13  1  0
  1 20  1  0
  1 21  1  0
  1 22  1  0
  2 23  1  0
  2 24  1  0
  4 25  1  0
  5 26  1  0
  9 27  1  0
 12 28  1  0
 12 29  1  0
 14 30  1  0
 15 31  1  0
 16 32  1  0
 17 33  1  0
 18 34  1  0
M  CHG  1   9   1
M  END
>  <UniqueID>  (45) 
43

>  <SMILES>  (45) 
CCc1ccc(-c2n[nH+]nn2Cc2ccccc2)s1

>  <Energy>  (45) 
99.56853245513099

>  <Genealogy>  (45) 
CCc1ccc(-c2n[nH+]nn2Cc2ccccc2)s1 (protonated)
CCc1ccc(-c2n[nH+]nn2Cc2ccccc2)s1 (3D coordinates assigned)
CCc1ccc(-c2n[nH+]nn2Cc2ccccc2)s1 (optimized conformer: 99.56853245513099 kcal/mol)

>  <smiles>  (45) 
CCc1ccc(-c2nnnn2Cc2ccccc2)s1

>  <score_type>  (45) 
oracle

>  <origin>  (45) 
adg

>  <m_score__min__energy>  (45) 
-7.3700000000000001

>  <m_primary>  (45) 
energy

$$$$
45:0
     RDKit          3D

 40 43  0  0  0  0  0  0  0  0999 V2000
   -4.6180   25.4790  -30.8400 O   0  0  0  0  0  0  0  0  0  0  0  0
   -4.5750   24.3020  -30.3900 C   0  0  0  0  0  0  0  0  0  0  0  0
   -3.7980   24.0320  -29.1590 C   0  0  0  0  0  0  0  0  0  0  0  0
   -4.2630   24.5420  -27.9360 C   0  0  0  0  0  0  0  0  0  0  0  0
   -3.5660   24.2920  -26.7540 C   0  0  0  0  0  0  0  0  0  0  0  0
   -2.4000   23.5270  -26.7760 C   0  0  0  0  0  0  0  0  0  0  0  0
   -1.9210   23.0080  -27.9830 C   0  0  0  0  0  0  0  0  0  0  0  0
   -0.4430   22.0550  -27.9610 Cl  0  0  0  0  0  0  0  0  0  0  0  0
   -2.6170   23.2550  -29.1820 C   0  0  0  0  0  0  0  0  0  0  0  0
   -1.9710   22.6360  -30.7060 Cl  0  0  0  0  0  0  0  0  0  0  0  0
   -5.2510   23.2440  -31.1030 N   0  0  0  0  0  0  0  0  0  0  0  0
   -4.6540   22.6720  -32.3320 C   0  0  0  0  0  0  0  0  0  0  0  0
   -4.8180   21.1440  -32.3790 C   0  0  0  0  0  0  0  0  0  0  0  0
   -6.2300   20.7850  -32.0420 C   0  0  0  0  0  0  0  0  0  0  0  0
   -7.0180   21.5570  -31.2360 C   0  0  0  0  0  0  0  0  0  0  0  0
   -8.1020   20.8360  -30.9030 N   0  0  0  0  0  0  0  0  0  0  0  0
   -7.9740   19.6430  -31.4660 N   0  0  0  0  0  0  0  0  0  0  0  0
   -6.8440   19.5880  -32.1610 N   0  0  0  0  0  0  0  0  0  0  0  0
   -6.3720   18.4120  -32.8350 C   0  0  0  0  0  0  0  0  0  0  0  0
   -6.3280   17.1780  -32.1650 C   0  0  0  0  0  0  0  0  0  0  0  0
   -5.8540   16.0380  -32.8170 C   0  0  0  0  0  0  0  0  0  0  0  0
   -5.4090   16.1210  -34.1400 C   0  0  0  0  0  0  0  0  0  0  0  0
   -5.4330   17.3480  -34.8090 C   0  0  0  0  0  0  0  0  0  0  0  0
   -4.9970   17.4250  -36.0910 F   0  0  0  0  0  0  0  0  0  0  0  0
   -5.9080   18.4930  -34.1590 C   0  0  0  0  0  0  0  0  0  0  0  0
   -5.9350   19.6750  -34.8250 F   0  0  0  0  0  0  0  0  0  0  0  0
   -6.6350   22.9040  -30.7130 C   0  0  0  0  0  0  0  0  0  0  0  0
   -5.1838   25.1432  -27.9100 H   0  0  0  0  0  0  0  0  0  0  0  0
   -3.9369   24.6993  -25.8019 H   0  0  0  0  0  0  0  0  0  0  0  0
   -1.8552   23.3312  -25.8406 H   0  0  0  0  0  0  0  0  0  0  0  0
   -5.1510   23.1121  -33.2091 H   0  0  0  0  0  0  0  0  0  0  0  0
   -3.5788   22.9041  -32.3340 H   0  0  0  0  0  0  0  0  0  0  0  0
   -4.5779   20.7801  -33.3889 H   0  0  0  0  0  0  0  0  0  0  0  0
   -4.1371   20.6790  -31.6509 H   0  0  0  0  0  0  0  0  0  0  0  0
   -8.8860   21.1230  -30.2770 H   0  0  0  0  0  0  0  0  0  0  0  0
   -6.6687   17.1096  -31.1213 H   0  0  0  0  0  0  0  0  0  0  0  0
   -5.8306   15.0732  -32.2892 H   0  0  0  0  0  0  0  0  0  0  0  0
   -5.0402   15.2211  -34.6540 H   0  0  0  0  0  0  0  0  0  0  0  0
   -7.3213   23.6590  -31.1240 H   0  0  0  0  0  0  0  0  0  0  0  0
   -6.6979   22.8869  -29.6149 H   0  0  0  0  0  0  0  0  0  0  0  0
  1  2  2  0
  2  3  1  0
  3  4  2  0
  4  5  1  0
  5  6  2  0
  6  7  1  0
  7  8  1  0
  7  9  2  0
  9 10  1  0
  2 11  1  0
 11 12  1  0
 12 13  1  0
 13 14  1  0
 14 15  2  0
 15 16  1  0
 16 17  2  0
 17 18  1  0
 18 19  1  0
 19 20  2  0
 20 21  1  0
 21 22  2  0
 22 23  1  0
 23 24  1  0
 23 25  2  0
 25 26  1  0
 15 27  1  0
  9  3  1  0
 27 11  1  0
 18 14  1  0
 25 19  1  0
  4 28  1  0
  5 29  1  0
  6 30  1  0
 12 31  1  0
 12 32  1  0
 13 33  1  0
 13 34  1  0
 16 35  1  0
 20 36  1  0
 21 37  1  0
 22 38  1  0
 27 39  1  0
 27 40  1  0
M  CHG  1  16   1
M  END
>  <UniqueID>  (46) 
44

>  <SMILES>  (46) 
O=C(c1cccc(Cl)c1Cl)N1CCc2c([nH+]nn2-c2cccc(F)c2F)C1

>  <Energy>  (46) 
98.38387149099147

>  <Genealogy>  (46) 
O=C(c1cccc(Cl)c1Cl)N1CCc2c([nH+]nn2-c2cccc(F)c2F)C1 (protonated)
O=C(c1cccc(Cl)c1Cl)N1CCc2c([nH+]nn2-c2cccc(F)c2F)C1 (3D coordinates assigned)
O=C(c1cccc(Cl)c1Cl)N1CCc2c([nH+]nn2-c2cccc(F)c2F)C1 (nonaromatic ring conformer: 98.38387149099147 kcal/mol)

>  <smiles>  (46) 
O=C(c1cccc(Cl)c1Cl)N1CCc2c(nnn2-c2cccc(F)c2F)C1

>  <score_type>  (46) 
oracle

>  <origin>  (46) 
adg

>  <m_score__min__energy>  (46) 
-8.4900000000000002

>  <m_primary>  (46) 
energy

$$$$
46:0
     RDKit          3D

 52 55  0  0  0  0  0  0  0  0999 V2000
   -6.6130   24.7180  -30.3350 C   0  0  0  0  0  0  0  0  0  0  0  0
   -5.2690   24.9100  -29.6370 C   0  0  0  0  0  0  0  0  0  0  0  0
   -4.3340   23.8240  -29.9940 N   0  0  0  0  0  0  0  0  0  0  0  0
   -4.7880   22.8790  -30.8740 C   0  0  0  0  0  0  0  0  0  0  0  0
   -3.9840   21.8130  -31.2830 C   0  0  0  0  0  0  0  0  0  0  0  0
   -4.6020   20.6380  -32.4480 S   0  0  0  0  0  0  0  0  0  0  0  0
   -4.3390   21.1290  -33.8450 O   0  0  0  0  0  0  0  0  0  0  0  0
   -3.9110   19.3140  -32.2810 O   0  0  0  0  0  0  0  0  0  0  0  0
   -6.3300   20.4250  -32.1850 C   0  0  0  0  0  0  0  0  0  0  0  0
   -6.8700   19.1480  -31.9810 C   0  0  0  0  0  0  0  0  0  0  0  0
   -8.2470   18.9900  -31.7920 C   0  0  0  0  0  0  0  0  0  0  0  0
   -9.0890   20.1060  -31.8100 C   0  0  0  0  0  0  0  0  0  0  0  0
   -8.5540   21.3800  -32.0200 C   0  0  0  0  0  0  0  0  0  0  0  0
   -7.1780   21.5410  -32.2090 C   0  0  0  0  0  0  0  0  0  0  0  0
   -2.6820   21.7100  -30.7850 C   0  0  0  0  0  0  0  0  0  0  0  0
   -1.9380   20.7650  -31.1660 O   0  0  0  0  0  0  0  0  0  0  0  0
   -2.2110   22.6590  -29.8610 C   0  0  0  0  0  0  0  0  0  0  0  0
   -0.9120   22.5590  -29.3290 C   0  0  0  0  0  0  0  0  0  0  0  0
   -0.4490   23.4880  -28.4010 C   0  0  0  0  0  0  0  0  0  0  0  0
    0.7960   23.3450  -27.8820 F   0  0  0  0  0  0  0  0  0  0  0  0
   -1.2770   24.5360  -27.9810 C   0  0  0  0  0  0  0  0  0  0  0  0
   -0.8050   25.4850  -27.0080 N   0  0  0  0  0  0  0  0  0  0  0  0
   -0.8810   25.1760  -25.5750 C   0  0  0  0  0  0  0  0  0  0  0  0
   -1.5310   26.3350  -24.8020 C   0  0  0  0  0  0  0  0  0  0  0  0
   -1.1760   27.7310  -25.3600 C   0  0  0  0  0  0  0  0  0  0  0  0
    0.0460   27.7040  -26.2860 C   0  0  0  0  0  0  0  0  0  0  0  0
   -0.1980   26.7460  -27.4590 C   0  0  0  0  0  0  0  0  0  0  0  0
   -2.5730   24.6480  -28.5040 C   0  0  0  0  0  0  0  0  0  0  0  0
   -3.0630   23.7230  -29.4570 C   0  0  0  0  0  0  0  0  0  0  0  0
   -7.4052   24.6048  -29.5803 H   0  0  0  0  0  0  0  0  0  0  0  0
   -6.8281   25.5945  -30.9638 H   0  0  0  0  0  0  0  0  0  0  0  0
   -6.5741   23.8163  -30.9638 H   0  0  0  0  0  0  0  0  0  0  0  0
   -4.8370   25.8737  -29.9447 H   0  0  0  0  0  0  0  0  0  0  0  0
   -5.4306   24.8933  -28.5491 H   0  0  0  0  0  0  0  0  0  0  0  0
   -5.8114   22.9613  -31.2688 H   0  0  0  0  0  0  0  0  0  0  0  0
   -6.2098   18.2682  -31.9695 H   0  0  0  0  0  0  0  0  0  0  0  0
   -8.6677   17.9868  -31.6291 H   0  0  0  0  0  0  0  0  0  0  0  0
  -10.1715   19.9815  -31.6590 H   0  0  0  0  0  0  0  0  0  0  0  0
   -9.2168   22.2578  -32.0366 H   0  0  0  0  0  0  0  0  0  0  0  0
   -6.7603   22.5447  -32.3767 H   0  0  0  0  0  0  0  0  0  0  0  0
   -0.2548   21.7374  -29.6500 H   0  0  0  0  0  0  0  0  0  0  0  0
   -1.4821   24.2657  -25.4335 H   0  0  0  0  0  0  0  0  0  0  0  0
    0.1388   25.0238  -25.1919 H   0  0  0  0  0  0  0  0  0  0  0  0
   -2.6232   26.2115  -24.8449 H   0  0  0  0  0  0  0  0  0  0  0  0
   -1.1434   26.2923  -23.7734 H   0  0  0  0  0  0  0  0  0  0  0  0
   -2.0382   28.1136  -25.9259 H   0  0  0  0  0  0  0  0  0  0  0  0
   -0.9313   28.3785  -24.5051 H   0  0  0  0  0  0  0  0  0  0  0  0
    0.2287   28.7163  -26.6758 H   0  0  0  0  0  0  0  0  0  0  0  0
    0.9203   27.3571  -25.7157 H   0  0  0  0  0  0  0  0  0  0  0  0
   -0.8728   27.2294  -28.1808 H   0  0  0  0  0  0  0  0  0  0  0  0
    0.7721   26.5152  -27.9235 H   0  0  0  0  0  0  0  0  0  0  0  0
   -3.2214   25.4703  -28.1674 H   0  0  0  0  0  0  0  0  0  0  0  0
  1  2  1  0
  2  3  1  0
  3  4  1  0
  4  5  2  0
  5  6  1  0
  6  7  2  0
  6  8  2  0
  6  9  1  0
  9 10  2  0
 10 11  1  0
 11 12  2  0
 12 13  1  0
 13 14  2  0
  5 15  1  0
 15 16  2  0
 15 17  1  0
 17 18  2  0
 18 19  1  0
 19 20  1  0
 19 21  2  0
 21 22  1  0
 22 23  1  0
 23 24  1  0
 24 25  1  0
 25 26  1  0
 26 27  1  0
 21 28  1  0
 28 29  2  0
 29  3  1  0
 14  9  1  0
 29 17  1  0
 27 22  1  0
  1 30  1  0
  1 31  1  0
  1 32  1  0
  2 33  1  0
  2 34  1  0
  4 35  1  0
 10 36  1  0
 11 37  1  0
 12 38  1  0
 13 39  1  0
 14 40  1  0
 18 41  1  0
 23 42  1  0
 23 43  1  0
 24 44  1  0
 24 45  1  0
 25 46  1  0
 25 47  1  0
 26 48  1  0
 26 49  1  0
 27 50  1  0
 27 51  1  0
 28 52  1  0
M  END
>  <UniqueID>  (47) 
45

>  <SMILES>  (47) 
CCn1cc(S(=O)(=O)c2ccccc2)c(=O)c2cc(F)c(N3CCCCC3)cc21

>  <Energy>  (47) 
70.78159759716812

>  <Genealogy>  (47) 
CCn1cc(S(=O)(=O)c2ccccc2)c(=O)c2cc(F)c(N3CCCCC3)cc21 (3D coordinates assigned)
CCn1cc(S(=O)(=O)c2ccccc2)c(=O)c2cc(F)c(N3CCCCC3)cc21 (nonaromatic ring conformer: 70.78159759716812 kcal/mol)

>  <smiles>  (47) 
CCn1cc(S(=O)(=O)c2ccccc2)c(=O)c2cc(F)c(N3CCCCC3)cc21

>  <score_type>  (47) 
oracle

>  <origin>  (47) 
adg

>  <m_score__min__energy>  (47) 
-9.3399999999999999

>  <m_primary>  (47) 
energy

$$$$
47:0
     RDKit          3D

 34 36  0  0  0  0  0  0  0  0999 V2000
   -7.2540   19.1530  -33.0540 C   0  0  0  0  0  0  0  0  0  0  0  0
   -7.2280   20.4720  -32.4190 N   0  0  0  0  0  0  0  0  0  0  0  0
   -8.3960   21.0420  -31.9950 C   0  0  0  0  0  0  0  0  0  0  0  0
   -8.3940   22.2820  -31.3550 C   0  0  0  0  0  0  0  0  0  0  0  0
   -7.1810   22.9420  -31.1340 C   0  0  0  0  0  0  0  0  0  0  0  0
   -7.1440   24.1860  -30.4880 C   0  0  0  0  0  0  0  0  0  0  0  0
   -5.9220   24.8290  -30.2740 C   0  0  0  0  0  0  0  0  0  0  0  0
   -4.7250   24.2490  -30.7120 C   0  0  0  0  0  0  0  0  0  0  0  0
   -3.4910   24.9370  -30.4660 N   0  0  0  0  0  0  0  0  0  0  0  0
   -2.5490   24.6420  -29.4240 C   0  0  0  0  0  0  0  0  0  0  0  0
   -1.8460   25.5810  -28.9660 O   0  0  0  0  0  0  0  0  0  0  0  0
   -2.3470   23.2660  -28.9110 C   0  0  0  0  0  0  0  0  0  0  0  0
   -1.2150   22.5280  -29.3020 C   0  0  0  0  0  0  0  0  0  0  0  0
   -1.0180   21.2300  -28.8220 C   0  0  0  0  0  0  0  0  0  0  0  0
   -1.9520   20.6530  -27.9570 C   0  0  0  0  0  0  0  0  0  0  0  0
   -3.0880   21.3710  -27.5760 C   0  0  0  0  0  0  0  0  0  0  0  0
   -3.2900   22.6700  -28.0540 C   0  0  0  0  0  0  0  0  0  0  0  0
   -4.7550   22.9870  -31.3340 C   0  0  0  0  0  0  0  0  0  0  0  0
   -5.9780   22.3390  -31.5590 C   0  0  0  0  0  0  0  0  0  0  0  0
   -6.0280   21.0900  -32.1950 C   0  0  0  0  0  0  0  0  0  0  0  0
   -7.2694   18.3730  -32.2785 H   0  0  0  0  0  0  0  0  0  0  0  0
   -8.1540   19.0652  -33.6803 H   0  0  0  0  0  0  0  0  0  0  0  0
   -6.3581   19.0298  -33.6803 H   0  0  0  0  0  0  0  0  0  0  0  0
   -9.3484   20.5171  -32.1603 H   0  0  0  0  0  0  0  0  0  0  0  0
   -9.3400   22.7372  -31.0266 H   0  0  0  0  0  0  0  0  0  0  0  0
   -8.0787   24.6566  -30.1491 H   0  0  0  0  0  0  0  0  0  0  0  0
   -5.9001   25.7996  -29.7568 H   0  0  0  0  0  0  0  0  0  0  0  0
   -0.4811   22.9746  -29.9890 H   0  0  0  0  0  0  0  0  0  0  0  0
   -0.1264   20.6617  -29.1256 H   0  0  0  0  0  0  0  0  0  0  0  0
   -1.7925   19.6334  -27.5762 H   0  0  0  0  0  0  0  0  0  0  0  0
   -3.8249   20.9142  -26.8990 H   0  0  0  0  0  0  0  0  0  0  0  0
   -4.1906   23.2282  -27.7583 H   0  0  0  0  0  0  0  0  0  0  0  0
   -3.8154   22.5070  -31.6449 H   0  0  0  0  0  0  0  0  0  0  0  0
   -5.0952   20.6034  -32.5162 H   0  0  0  0  0  0  0  0  0  0  0  0
  1  2  1  0
  2  3  2  0
  3  4  1  0
  4  5  2  0
  5  6  1  0
  6  7  2  0
  7  8  1  0
  8  9  1  0
  9 10  1  0
 10 11  2  0
 10 12  1  0
 12 13  2  0
 13 14  1  0
 14 15  2  0
 15 16  1  0
 16 17  2  0
  8 18  2  0
 18 19  1  0
 19 20  2  0
 20  2  1  0
 19  5  1  0
 17 12  1  0
  1 21  1  0
  1 22  1  0
  1 23  1  0
  3 24  1  0
  4 25  1  0
  6 26  1  0
  7 27  1  0
 13 28  1  0
 14 29  1  0
 15 30  1  0
 16 31  1  0
 17 32  1  0
 18 33  1  0
 20 34  1  0
M  CHG  2   2   1   9  -1
M  END
>  <UniqueID>  (48) 
46

>  <SMILES>  (48) 
C[n+]1ccc2ccc([N-]C(=O)c3ccccc3)cc2c1

>  <Energy>  (48) 
46.6475054824903

>  <Genealogy>  (48) 
C[n+]1ccc2ccc([N-]C(=O)c3ccccc3)cc2c1 (protonated)
C[n+]1ccc2ccc([N-]C(=O)c3ccccc3)cc2c1 (3D coordinates assigned)
C[n+]1ccc2ccc([N-]C(=O)c3ccccc3)cc2c1 (optimized conformer: 46.6475054824903 kcal/mol)

>  <smiles>  (48) 
C[n+]1ccc2ccc(NC(=O)c3ccccc3)cc2c1

>  <score_type>  (48) 
oracle

>  <origin>  (48) 
adg

>  <m_score__min__energy>  (48) 
-9.0700000000000003

>  <m_primary>  (48) 
energy

$$$$
