0:0
     RDKit          3D

 41 43  0  0  0  0  0  0  0  0999 V2000
   -1.8370   24.9280  -28.2420 C   0  0  0  0  0  0  0  0  0  0  0  0
   -2.6600   25.2970  -29.3430 O   0  0  0  0  0  0  0  0  0  0  0  0
   -3.7960   24.5870  -29.7570 C   0  0  0  0  0  0  0  0  0  0  0  0
   -3.8600   23.1820  -29.7290 C   0  0  0  0  0  0  0  0  0  0  0  0
   -5.0150   22.5190  -30.1520 C   0  0  0  0  0  0  0  0  0  0  0  0
   -6.1280   23.2450  -30.6110 C   0  0  0  0  0  0  0  0  0  0  0  0
   -7.3560   22.5670  -31.0880 C   0  0  0  0  0  0  0  0  0  0  0  0
   -7.5650   21.2330  -31.0630 N   0  0  0  0  0  0  0  0  0  0  0  0
   -8.7690   21.0700  -31.6360 C   0  0  0  0  0  0  0  0  0  0  0  0
   -9.4000   19.7390  -31.9350 C   0  0  0  0  0  0  0  0  0  0  0  0
   -8.6190   18.6200  -31.3810 N   0  0  0  0  0  0  0  0  0  0  0  0
   -7.9800   17.7750  -32.4070 C   0  0  0  0  0  0  0  0  0  0  0  0
   -6.6100   18.2730  -32.8050 C   0  0  0  0  0  0  0  0  0  0  0  0
   -6.1240   18.0590  -34.1070 C   0  0  0  0  0  0  0  0  0  0  0  0
   -4.8750   18.5610  -34.4840 C   0  0  0  0  0  0  0  0  0  0  0  0
   -4.0950   19.2640  -33.5630 C   0  0  0  0  0  0  0  0  0  0  0  0
   -4.5580   19.4590  -32.2600 C   0  0  0  0  0  0  0  0  0  0  0  0
   -5.8080   18.9620  -31.8780 C   0  0  0  0  0  0  0  0  0  0  0  0
   -9.2700   22.3100  -31.9700 C   0  0  0  0  0  0  0  0  0  0  0  0
   -8.3770   23.2070  -31.6190 O   0  0  0  0  0  0  0  0  0  0  0  0
   -6.0590   24.6490  -30.6380 C   0  0  0  0  0  0  0  0  0  0  0  0
   -4.9040   25.3090  -30.2130 C   0  0  0  0  0  0  0  0  0  0  0  0
   -2.3570   25.1612  -27.3011 H   0  0  0  0  0  0  0  0  0  0  0  0
   -1.6264   23.8493  -28.2870 H   0  0  0  0  0  0  0  0  0  0  0  0
   -0.8915   25.4884  -28.2870 H   0  0  0  0  0  0  0  0  0  0  0  0
   -2.9961   22.6021  -29.3722 H   0  0  0  0  0  0  0  0  0  0  0  0
   -5.0537   21.4200  -30.1256 H   0  0  0  0  0  0  0  0  0  0  0  0
   -6.9380   20.4790  -30.7090 H   0  0  0  0  0  0  0  0  0  0  0  0
  -10.4091   19.7184  -31.4976 H   0  0  0  0  0  0  0  0  0  0  0  0
   -9.4368   19.6188  -33.0278 H   0  0  0  0  0  0  0  0  0  0  0  0
   -9.1970   18.0400  -30.7300 H   0  0  0  0  0  0  0  0  0  0  0  0
   -7.8812   16.7540  -32.0099 H   0  0  0  0  0  0  0  0  0  0  0  0
   -8.6165   17.8040  -33.3037 H   0  0  0  0  0  0  0  0  0  0  0  0
   -6.7290   17.4944  -34.8317 H   0  0  0  0  0  0  0  0  0  0  0  0
   -4.5058   18.4021  -35.5079 H   0  0  0  0  0  0  0  0  0  0  0  0
   -3.1156   19.6642  -33.8641 H   0  0  0  0  0  0  0  0  0  0  0  0
   -3.9384   20.0044  -31.5330 H   0  0  0  0  0  0  0  0  0  0  0  0
   -6.1653   19.1106  -30.8483 H   0  0  0  0  0  0  0  0  0  0  0  0
  -10.2417   22.5118  -32.4445 H   0  0  0  0  0  0  0  0  0  0  0  0
   -6.9206   25.2315  -30.9963 H   0  0  0  0  0  0  0  0  0  0  0  0
   -4.8651   26.4080  -30.2371 H   0  0  0  0  0  0  0  0  0  0  0  0
  1  2  1  0
  2  3  1  0
  3  4  2  0
  4  5  1  0
  5  6  2  0
  6  7  1  0
  7  8  2  0
  8  9  1  0
  9 10  1  0
 10 11  1  0
 11 12  1  0
 12 13  1  0
 13 14  2  0
 14 15  1  0
 15 16  2  0
 16 17  1  0
 17 18  2  0
  9 19  2  0
 19 20  1  0
  6 21  1  0
 21 22  2  0
 22  3  1  0
 20  7  1  0
 18 13  1  0
  1 23  1  0
  1 24  1  0
  1 25  1  0
  4 26  1  0
  5 27  1  0
  8 28  1  0
 10 29  1  0
 10 30  1  0
 11 31  1  0
 12 32  1  0
 12 33  1  0
 14 34  1  0
 15 35  1  0
 16 36  1  0
 17 37  1  0
 18 38  1  0
 19 39  1  0
 21 40  1  0
 22 41  1  0
M  CHG  1   8   1
M  END
>  <UniqueID>  (1) 
1

>  <SMILES>  (1) 
COc1ccc(-c2[nH+]c(CNCc3ccccc3)co2)cc1

>  <Energy>  (1) 
72.03184928653128

>  <Genealogy>  (1) 
COc1ccc(-c2[nH+]c(CNCc3ccccc3)co2)cc1 (protonated)
COc1ccc(-c2[nH+]c(CNCc3ccccc3)co2)cc1 (3D coordinates assigned)
COc1ccc(-c2[nH+]c(CNCc3ccccc3)co2)cc1 (optimized conformer: 72.03184928653128 kcal/mol)

>  <smiles>  (1) 
COc1ccc(-c2nc(CNCc3ccccc3)co2)cc1

>  <score_type>  (1) 
oracle

>  <origin>  (1) 
adg

>  <m_score__min__energy>  (1) 
-7.46

>  <m_primary>  (1) 
energy

$$$$
1:0
     RDKit          3D

 51 53  0  0  0  0  0  0  0  0999 V2000
   -0.4500   22.4780  -25.2400 C   0  0  0  0  0  0  0  0  0  0  0  0
   -0.0890   23.5020  -26.1620 O   0  0  0  0  0  0  0  0  0  0  0  0
   -0.2290   24.8820  -25.9280 C   0  0  0  0  0  0  0  0  0  0  0  0
    0.0740   25.4390  -24.6680 C   0  0  0  0  0  0  0  0  0  0  0  0
   -0.0590   26.8140  -24.4350 C   0  0  0  0  0  0  0  0  0  0  0  0
    0.2600   27.3400  -23.1400 N   0  0  0  0  0  0  0  0  0  0  0  0
   -0.5010   27.6490  -25.4740 C   0  0  0  0  0  0  0  0  0  0  0  0
   -0.6900   29.3860  -25.2500 Cl  0  0  0  0  0  0  0  0  0  0  0  0
   -0.8040   27.1070  -26.7250 C   0  0  0  0  0  0  0  0  0  0  0  0
   -0.6760   25.7260  -26.9730 C   0  0  0  0  0  0  0  0  0  0  0  0
   -1.0140   25.1950  -28.3230 C   0  0  0  0  0  0  0  0  0  0  0  0
   -1.9830   25.6730  -28.9660 O   0  0  0  0  0  0  0  0  0  0  0  0
   -0.2250   24.1400  -28.8900 N   0  0  0  0  0  0  0  0  0  0  0  0
   -0.5030   22.7010  -28.9580 C   0  0  0  0  0  0  0  0  0  0  0  0
   -0.3460   22.1230  -30.3810 C   0  0  0  0  0  0  0  0  0  0  0  0
   -1.6590   21.9980  -31.1640 C   0  0  0  0  0  0  0  0  0  0  0  0
   -2.6970   21.3470  -30.3440 N   0  0  0  0  0  0  0  0  0  0  0  0
   -3.9060   21.0750  -31.1570 C   0  0  0  0  0  0  0  0  0  0  0  0
   -4.2090   22.2450  -32.1050 C   0  0  0  0  0  0  0  0  0  0  0  0
   -5.0030   23.3160  -31.4130 C   0  0  0  0  0  0  0  0  0  0  0  0
   -6.3750   23.1490  -31.1730 C   0  0  0  0  0  0  0  0  0  0  0  0
   -7.0760   24.1420  -30.4870 C   0  0  0  0  0  0  0  0  0  0  0  0
   -6.4060   25.2830  -30.0410 C   0  0  0  0  0  0  0  0  0  0  0  0
   -5.0380   25.4110  -30.2860 C   0  0  0  0  0  0  0  0  0  0  0  0
   -4.3720   24.4320  -30.9570 N   0  0  0  0  0  0  0  0  0  0  0  0
   -3.0220   22.1990  -29.1840 C   0  0  0  0  0  0  0  0  0  0  0  0
   -1.8170   22.3110  -28.2470 C   0  0  0  0  0  0  0  0  0  0  0  0
   -0.3197   22.8475  -24.2121 H   0  0  0  0  0  0  0  0  0  0  0  0
   -1.5016   22.1965  -25.3979 H   0  0  0  0  0  0  0  0  0  0  0  0
    0.1925   21.5992  -25.3979 H   0  0  0  0  0  0  0  0  0  0  0  0
    0.4202   24.7833  -23.8555 H   0  0  0  0  0  0  0  0  0  0  0  0
    0.0270   28.3270  -22.8960 H   0  0  0  0  0  0  0  0  0  0  0  0
    0.7280   26.7610  -22.4090 H   0  0  0  0  0  0  0  0  0  0  0  0
   -1.1490   27.7706  -27.5316 H   0  0  0  0  0  0  0  0  0  0  0  0
    0.2850   22.2029  -28.3740 H   0  0  0  0  0  0  0  0  0  0  0  0
    0.3303   22.7809  -30.9466 H   0  0  0  0  0  0  0  0  0  0  0  0
    0.0469   21.1023  -30.2630 H   0  0  0  0  0  0  0  0  0  0  0  0
   -2.0040   23.0019  -31.4523 H   0  0  0  0  0  0  0  0  0  0  0  0
   -1.4792   21.3836  -32.0585 H   0  0  0  0  0  0  0  0  0  0  0  0
   -3.7419   20.1641  -31.7514 H   0  0  0  0  0  0  0  0  0  0  0  0
   -4.7617   20.9444  -30.4782 H   0  0  0  0  0  0  0  0  0  0  0  0
   -3.2602   22.6745  -32.4590 H   0  0  0  0  0  0  0  0  0  0  0  0
   -4.8021   21.8635  -32.9492 H   0  0  0  0  0  0  0  0  0  0  0  0
   -6.8935   22.2439  -31.5222 H   0  0  0  0  0  0  0  0  0  0  0  0
   -8.1535   24.0260  -30.2982 H   0  0  0  0  0  0  0  0  0  0  0  0
   -6.9505   26.0725  -29.5023 H   0  0  0  0  0  0  0  0  0  0  0  0
   -4.4980   26.3034  -29.9367 H   0  0  0  0  0  0  0  0  0  0  0  0
   -3.2995   23.2027  -29.5384 H   0  0  0  0  0  0  0  0  0  0  0  0
   -3.8599   21.7462  -28.6336 H   0  0  0  0  0  0  0  0  0  0  0  0
   -2.0393   23.0750  -27.4874 H   0  0  0  0  0  0  0  0  0  0  0  0
   -1.6591   21.3136  -27.8109 H   0  0  0  0  0  0  0  0  0  0  0  0
  1  2  1  0
  2  3  1  0
  3  4  2  0
  4  5  1  0
  5  6  1  0
  5  7  2  0
  7  8  1  0
  7  9  1  0
  9 10  2  0
 10 11  1  0
 11 12  2  0
 11 13  1  0
 13 14  1  0
 14 15  1  0
 15 16  1  0
 16 17  1  0
 17 18  1  0
 18 19  1  0
 19 20  1  0
 20 21  2  0
 21 22  1  0
 22 23  2  0
 23 24  1  0
 24 25  2  0
 17 26  1  0
 26 27  1  0
 10  3  1  0
 27 14  1  0
 25 20  1  0
  1 28  1  0
  1 29  1  0
  1 30  1  0
  4 31  1  0
  6 32  1  0
  6 33  1  0
  9 34  1  0
 14 35  1  0
 15 36  1  0
 15 37  1  0
 16 38  1  0
 16 39  1  0
 18 40  1  0
 18 41  1  0
 19 42  1  0
 19 43  1  0
 21 44  1  0
 22 45  1  0
 23 46  1  0
 24 47  1  0
 26 48  1  0
 26 49  1  0
 27 50  1  0
 27 51  1  0
M  CHG  1  13  -1
M  END
>  <UniqueID>  (2) 
2

>  <SMILES>  (2) 
COc1cc(N)c(Cl)cc1C(=O)[N-]C1CCN(CCc2ccccn2)CC1

>  <Energy>  (2) 
58.222785493173944

>  <Genealogy>  (2) 
COc1cc(N)c(Cl)cc1C(=O)[N-]C1CCN(CCc2ccccn2)CC1 (protonated)
COc1cc(N)c(Cl)cc1C(=O)[N-]C1CCN(CCc2ccccn2)CC1 (3D coordinates assigned)
COc1cc(N)c(Cl)cc1C(=O)[N-]C1CCN(CCc2ccccn2)CC1 (nonaromatic ring conformer: 58.222785493173944 kcal/mol)

>  <smiles>  (2) 
COc1cc(N)c(Cl)cc1C(=O)NC1CCN(CCc2ccccn2)CC1

>  <score_type>  (2) 
oracle

>  <origin>  (2) 
adg

>  <m_score__min__energy>  (2) 
-10.720000000000001

>  <m_primary>  (2) 
energy

$$$$
2:0
     RDKit          3D

 38 40  0  0  0  0  0  0  0  0999 V2000
   -1.6630   25.0380  -28.1390 C   0  0  0  0  0  0  0  0  0  0  0  0
   -2.3600   25.3020  -29.3520 O   0  0  0  0  0  0  0  0  0  0  0  0
   -3.3400   24.4600  -29.9000 C   0  0  0  0  0  0  0  0  0  0  0  0
   -4.6400   24.9070  -30.1990 C   0  0  0  0  0  0  0  0  0  0  0  0
   -5.5820   24.0290  -30.7440 C   0  0  0  0  0  0  0  0  0  0  0  0
   -5.2470   22.6850  -30.9930 C   0  0  0  0  0  0  0  0  0  0  0  0
   -6.2300   21.7370  -31.5780 C   0  0  0  0  0  0  0  0  0  0  0  0
   -7.6140   21.9610  -31.4980 C   0  0  0  0  0  0  0  0  0  0  0  0
   -8.4820   21.0260  -32.0710 C   0  0  0  0  0  0  0  0  0  0  0  0
   -9.9630   21.2180  -31.9900 C   0  0  0  0  0  0  0  0  0  0  0  0
   -7.9760   19.9180  -32.6740 N   0  0  0  0  0  0  0  0  0  0  0  0
   -6.6370   19.7030  -32.7410 C   0  0  0  0  0  0  0  0  0  0  0  0
   -6.1270   18.5250  -33.3810 N   0  0  0  0  0  0  0  0  0  0  0  0
   -5.5650   17.4630  -32.7660 C   0  0  0  0  0  0  0  0  0  0  0  0
   -5.2070   16.5490  -33.7380 C   0  0  0  0  0  0  0  0  0  0  0  0
   -4.4730   15.2650  -33.5350 C   0  0  0  0  0  0  0  0  0  0  0  0
   -5.5610   17.1240  -34.9430 C   0  0  0  0  0  0  0  0  0  0  0  0
   -6.1260   18.3200  -34.6900 N   0  0  0  0  0  0  0  0  0  0  0  0
   -5.7820   20.6080  -32.1940 N   0  0  0  0  0  0  0  0  0  0  0  0
   -3.9420   22.2490  -30.7030 C   0  0  0  0  0  0  0  0  0  0  0  0
   -3.0030   23.1280  -30.1590 C   0  0  0  0  0  0  0  0  0  0  0  0
   -2.3098   25.2830  -27.2837 H   0  0  0  0  0  0  0  0  0  0  0  0
   -1.3885   23.9736  -28.0981 H   0  0  0  0  0  0  0  0  0  0  0  0
   -0.7522   25.6534  -28.0981 H   0  0  0  0  0  0  0  0  0  0  0  0
   -4.9170   25.9533  -30.0029 H   0  0  0  0  0  0  0  0  0  0  0  0
   -6.5933   24.3918  -30.9801 H   0  0  0  0  0  0  0  0  0  0  0  0
   -8.0083   22.8556  -30.9938 H   0  0  0  0  0  0  0  0  0  0  0  0
  -10.2704   21.2579  -30.9346 H   0  0  0  0  0  0  0  0  0  0  0  0
  -10.2385   22.1594  -32.4879 H   0  0  0  0  0  0  0  0  0  0  0  0
  -10.4694   20.3780  -32.4879 H   0  0  0  0  0  0  0  0  0  0  0  0
   -5.4180   17.3460  -31.6822 H   0  0  0  0  0  0  0  0  0  0  0  0
   -4.3627   15.0721  -32.4577 H   0  0  0  0  0  0  0  0  0  0  0  0
   -5.0375   14.4427  -33.9989 H   0  0  0  0  0  0  0  0  0  0  0  0
   -3.4780   15.3341  -33.9989 H   0  0  0  0  0  0  0  0  0  0  0  0
   -5.4078   16.6811  -35.9382 H   0  0  0  0  0  0  0  0  0  0  0  0
   -6.4910   18.9870  -35.4060 H   0  0  0  0  0  0  0  0  0  0  0  0
   -3.6581   21.2059  -30.9065 H   0  0  0  0  0  0  0  0  0  0  0  0
   -1.9883   22.7689  -29.9321 H   0  0  0  0  0  0  0  0  0  0  0  0
  1  2  1  0
  2  3  1  0
  3  4  2  0
  4  5  1  0
  5  6  2  0
  6  7  1  0
  7  8  2  0
  8  9  1  0
  9 10  1  0
  9 11  2  0
 11 12  1  0
 12 13  1  0
 13 14  1  0
 14 15  2  0
 15 16  1  0
 15 17  1  0
 17 18  2  0
 12 19  2  0
  6 20  1  0
 20 21  2  0
 21  3  1  0
 19  7  1  0
 18 13  1  0
  1 22  1  0
  1 23  1  0
  1 24  1  0
  4 25  1  0
  5 26  1  0
  8 27  1  0
 10 28  1  0
 10 29  1  0
 10 30  1  0
 14 31  1  0
 16 32  1  0
 16 33  1  0
 16 34  1  0
 17 35  1  0
 18 36  1  0
 20 37  1  0
 21 38  1  0
M  CHG  1  18   1
M  END
>  <UniqueID>  (3) 
3

>  <SMILES>  (3) 
COc1ccc(-c2cc(C)nc(-n3cc(C)c[nH+]3)n2)cc1

>  <Energy>  (3) 
72.25807030273955

>  <Genealogy>  (3) 
COc1ccc(-c2cc(C)nc(-n3cc(C)c[nH+]3)n2)cc1 (protonated)
COc1ccc(-c2cc(C)nc(-n3cc(C)c[nH+]3)n2)cc1 (3D coordinates assigned)
COc1ccc(-c2cc(C)nc(-n3cc(C)c[nH+]3)n2)cc1 (optimized conformer: 72.25807030273955 kcal/mol)

>  <smiles>  (3) 
COc1ccc(-c2cc(C)nc(-n3cc(C)cn3)n2)cc1

>  <score_type>  (3) 
oracle

>  <origin>  (3) 
adg

>  <m_score__min__energy>  (3) 
-7.8799999999999999

>  <m_primary>  (3) 
energy

$$$$
3:0
     RDKit          3D

 42 45  0  0  0  0  0  0  0  0999 V2000
    0.4012   22.5263  -25.7238 H   0  0  0  0  0  0  0  0  0  0  0  0
   -0.2390   23.0120  -26.4750 C   0  0  0  0  0  0  0  0  0  0  0  0
   -1.2100   23.9340  -26.0740 C   0  0  0  0  0  0  0  0  0  0  0  0
   -1.3277   24.1799  -25.0083 H   0  0  0  0  0  0  0  0  0  0  0  0
   -2.0320   24.5440  -27.0270 C   0  0  0  0  0  0  0  0  0  0  0  0
   -2.7825   25.2831  -26.7100 H   0  0  0  0  0  0  0  0  0  0  0  0
   -1.9040   24.2180  -28.3840 C   0  0  0  0  0  0  0  0  0  0  0  0
   -2.7200   24.9000  -29.3480 N   0  0  0  0  0  0  0  0  0  0  0  0
   -3.7020   24.4080  -30.0550 C   0  0  0  0  0  0  0  0  0  0  0  0
   -3.6150   23.1560  -30.6970 C   0  0  0  0  0  0  0  0  0  0  0  0
   -2.6951   22.5578  -30.6200 H   0  0  0  0  0  0  0  0  0  0  0  0
   -4.7010   22.6800  -31.4300 C   0  0  0  0  0  0  0  0  0  0  0  0
   -4.6358   21.7038  -31.9327 H   0  0  0  0  0  0  0  0  0  0  0  0
   -5.8750   23.4380  -31.5300 C   0  0  0  0  0  0  0  0  0  0  0  0
   -7.0340   22.9370  -32.3060 C   0  0  0  0  0  0  0  0  0  0  0  0
   -7.6600   23.7240  -33.0670 O   0  0  0  0  0  0  0  0  0  0  0  0
   -7.4480   21.5630  -32.2260 N   0  0  0  0  0  0  0  0  0  0  0  0
   -8.5380   21.0810  -31.5750 C   0  0  0  0  0  0  0  0  0  0  0  0
   -9.5220   21.9240  -30.8230 C   0  0  0  0  0  0  0  0  0  0  0  0
   -9.3675   21.7916  -29.7420 H   0  0  0  0  0  0  0  0  0  0  0  0
   -9.3762   22.9817  -31.0874 H   0  0  0  0  0  0  0  0  0  0  0  0
  -10.5448   21.6176  -31.0874 H   0  0  0  0  0  0  0  0  0  0  0  0
   -8.6030   19.6940  -31.6770 C   0  0  0  0  0  0  0  0  0  0  0  0
   -9.3696   19.0277  -31.2547 H   0  0  0  0  0  0  0  0  0  0  0  0
   -7.5000   19.3360  -32.4210 C   0  0  0  0  0  0  0  0  0  0  0  0
   -7.0480   18.0760  -32.8100 C   0  0  0  0  0  0  0  0  0  0  0  0
   -7.6102   17.1665  -32.5515 H   0  0  0  0  0  0  0  0  0  0  0  0
   -5.8510   18.0050  -33.5430 C   0  0  0  0  0  0  0  0  0  0  0  0
   -5.4713   17.0278  -33.8760 H   0  0  0  0  0  0  0  0  0  0  0  0
   -5.1320   19.1810  -33.8550 C   0  0  0  0  0  0  0  0  0  0  0  0
   -4.1925   19.1126  -34.4230 H   0  0  0  0  0  0  0  0  0  0  0  0
   -5.6100   20.4380  -33.4440 C   0  0  0  0  0  0  0  0  0  0  0  0
   -5.0522   21.3581  -33.6724 H   0  0  0  0  0  0  0  0  0  0  0  0
   -6.8160   20.4840  -32.7360 C   0  0  0  0  0  0  0  0  0  0  0  0
   -5.9350   24.6640  -30.8510 C   0  0  0  0  0  0  0  0  0  0  0  0
   -6.8531   25.2682  -30.8962 H   0  0  0  0  0  0  0  0  0  0  0  0
   -4.8670   25.1120  -30.1370 N   0  0  0  0  0  0  0  0  0  0  0  0
   -4.9500   26.0320  -29.6450 H   0  0  0  0  0  0  0  0  0  0  0  0
   -0.9020   23.3160  -28.7840 C   0  0  0  0  0  0  0  0  0  0  0  0
   -0.7634   23.0886  -29.8513 H   0  0  0  0  0  0  0  0  0  0  0  0
   -0.0810   22.7070  -27.8290 C   0  0  0  0  0  0  0  0  0  0  0  0
    0.6892   21.9878  -28.1444 H   0  0  0  0  0  0  0  0  0  0  0  0
  1  2  1  0
  2  3  2  0
  3  4  1  0
  3  5  1  0
  5  6  1  0
  5  7  2  0
  7  8  1  0
  8  9  2  0
  9 10  1  0
 10 11  1  0
 10 12  2  0
 12 13  1  0
 12 14  1  0
 14 15  1  0
 15 16  2  0
 15 17  1  0
 17 18  1  0
 18 19  1  0
 19 20  1  0
 19 21  1  0
 19 22  1  0
 18 23  2  0
 23 24  1  0
 23 25  1  0
 25 26  2  0
 26 27  1  0
 26 28  1  0
 28 29  1  0
 28 30  2  0
 30 31  1  0
 30 32  1  0
 32 33  1  0
 32 34  2  0
 14 35  2  0
 35 36  1  0
 35 37  1  0
 37 38  1  0
  7 39  1  0
 39 40  1  0
 39 41  2  0
 41 42  1  0
 41  2  1  0
 37  9  1  0
 34 17  1  0
 34 25  1  0
M  END
>  <UniqueID>  (4) 
4

>  <SMILES>  (4) 
Cc1cc2ccccc2n1C(=O)c1cc/c(=N\c2ccccc2)[nH]c1

>  <Energy>  (4) 
95.88782625802631

>  <Genealogy>  (4) 
Cc1cc2ccccc2n1C(=O)c1cc/c(=N\c2ccccc2)[nH]c1 (cis-trans isomerization)
Cc1cc2ccccc2n1C(=O)c1cc/c(=N\c2ccccc2)[nH]c1 (3D coordinates assigned)
Cc1cc2ccccc2n1C(=O)c1cc/c(=N\c2ccccc2)[nH]c1 (optimized conformer: 95.88782625802631 kcal/mol)

>  <smiles>  (4) 
Cc1cc2ccccc2n1C(=O)c1ccc(=Nc2ccccc2)[nH]c1

>  <score_type>  (4) 
oracle

>  <origin>  (4) 
adg

>  <m_score__min__energy>  (4) 
-9.5600000000000005

>  <m_primary>  (4) 
energy

$$$$
4:0
     RDKit          3D

 56 59  0  0  0  0  0  0  0  0999 V2000
   -1.3200   19.8220  -27.3120 C   0  0  0  0  0  0  0  0  0  0  0  0
   -2.2870   20.9910  -27.1430 C   0  0  0  0  0  0  0  0  0  0  0  0
   -1.8050   22.2560  -27.8680 C   0  0  0  0  0  0  0  0  0  0  0  0
   -2.6250   22.5520  -29.0630 N   0  0  0  0  0  0  0  0  0  0  0  0
   -3.7690   23.4340  -28.9760 C   0  0  0  0  0  0  0  0  0  0  0  0
   -3.7030   24.5420  -28.2880 N   0  0  0  0  0  0  0  0  0  0  0  0
   -5.0130   23.0420  -29.7680 C   0  0  1  0  0  0  0  0  0  0  0  0
   -6.0820   24.0620  -29.7480 C   0  0  0  0  0  0  0  0  0  0  0  0
   -6.9180   24.8620  -29.7360 N   0  0  0  0  0  0  0  0  0  0  0  0
   -4.6620   22.6570  -31.2480 C   0  0  2  0  0  0  0  0  0  0  0  0
   -5.5040   21.4770  -31.7550 C   0  0  0  0  0  0  0  0  0  0  0  0
   -4.8850   20.2130  -31.8480 C   0  0  0  0  0  0  0  0  0  0  0  0
   -5.5980   19.0910  -32.2810 C   0  0  0  0  0  0  0  0  0  0  0  0
   -4.9910   17.8280  -32.3650 C   0  0  0  0  0  0  0  0  0  0  0  0
   -5.7330   16.7230  -32.7980 C   0  0  0  0  0  0  0  0  0  0  0  0
   -4.9060   15.0050  -32.9120 Br  0  0  0  0  0  0  0  0  0  0  0  0
   -7.0790   16.8770  -33.1490 C   0  0  0  0  0  0  0  0  0  0  0  0
   -7.6880   18.1320  -33.0680 C   0  0  0  0  0  0  0  0  0  0  0  0
   -6.9510   19.2410  -32.6350 C   0  0  0  0  0  0  0  0  0  0  0  0
   -7.5370   20.4610  -32.5560 N   0  0  0  0  0  0  0  0  0  0  0  0
   -6.8710   21.5690  -32.1380 C   0  0  0  0  0  0  0  0  0  0  0  0
   -7.7870   23.0660  -32.1280 Cl  0  0  0  0  0  0  0  0  0  0  0  0
   -3.1260   22.5420  -31.5350 C   0  0  2  0  0  0  0  0  0  0  0  0
   -2.7700   21.9250  -32.8700 C   0  0  0  0  0  0  0  0  0  0  0  0
   -3.4810   22.0970  -33.8480 O   0  0  0  0  0  0  0  0  0  0  0  0
   -1.4270   21.2820  -33.0350 C   0  0  0  0  0  0  0  0  0  0  0  0
   -1.1360   20.3160  -31.8660 C   0  0  0  0  0  0  0  0  0  0  0  0
   -1.9600   19.0240  -32.0310 C   0  0  0  0  0  0  0  0  0  0  0  0
    0.3610   19.9500  -31.8870 C   0  0  0  0  0  0  0  0  0  0  0  0
   -1.4630   20.9590  -30.5270 C   0  0  0  0  0  0  0  0  0  0  0  0
   -2.3750   21.9450  -30.3590 C   0  0  0  0  0  0  0  0  0  0  0  0
   -1.0145   19.4527  -26.3219 H   0  0  0  0  0  0  0  0  0  0  0  0
   -1.8164   19.0130  -27.8680 H   0  0  0  0  0  0  0  0  0  0  0  0
   -0.4323   20.1579  -27.8680 H   0  0  0  0  0  0  0  0  0  0  0  0
   -3.2667   20.7013  -27.5507 H   0  0  0  0  0  0  0  0  0  0  0  0
   -2.3508   21.2222  -26.0695 H   0  0  0  0  0  0  0  0  0  0  0  0
   -1.8655   23.1081  -27.1750 H   0  0  0  0  0  0  0  0  0  0  0  0
   -0.7694   22.0866  -28.1980 H   0  0  0  0  0  0  0  0  0  0  0  0
   -2.9560   24.7260  -27.5850 H   0  0  0  0  0  0  0  0  0  0  0  0
   -4.4320   25.2810  -28.3710 H   0  0  0  0  0  0  0  0  0  0  0  0
   -5.4109   22.1569  -29.2500 H   0  0  0  0  0  0  0  0  0  0  0  0
   -4.9619   23.5155  -31.8669 H   0  0  0  0  0  0  0  0  0  0  0  0
   -3.8244   20.1083  -31.5755 H   0  0  0  0  0  0  0  0  0  0  0  0
   -3.9327   17.7068  -32.0906 H   0  0  0  0  0  0  0  0  0  0  0  0
   -7.6595   16.0070  -33.4898 H   0  0  0  0  0  0  0  0  0  0  0  0
   -8.7463   18.2487  -33.3444 H   0  0  0  0  0  0  0  0  0  0  0  0
   -2.7700   23.5772  -31.6428 H   0  0  0  0  0  0  0  0  0  0  0  0
   -1.4096   20.7200  -33.9805 H   0  0  0  0  0  0  0  0  0  0  0  0
   -0.6576   22.0681  -33.0435 H   0  0  0  0  0  0  0  0  0  0  0  0
   -2.2157   18.6230  -31.0391 H   0  0  0  0  0  0  0  0  0  0  0  0
   -2.8834   19.2464  -32.5858 H   0  0  0  0  0  0  0  0  0  0  0  0
   -1.3689   18.2805  -32.5858 H   0  0  0  0  0  0  0  0  0  0  0  0
    0.7309   19.8596  -30.8550 H   0  0  0  0  0  0  0  0  0  0  0  0
    0.4970   18.9922  -32.4105 H   0  0  0  0  0  0  0  0  0  0  0  0
    0.9236   20.7371  -32.4105 H   0  0  0  0  0  0  0  0  0  0  0  0
   -0.9238   20.5997  -29.6381 H   0  0  0  0  0  0  0  0  0  0  0  0
  1  2  1  0
  2  3  1  0
  3  4  1  0
  4  5  1  0
  5  6  2  0
  5  7  1  0
  7  8  1  0
  8  9  3  0
  7 10  1  0
 10 11  1  0
 11 12  2  0
 12 13  1  0
 13 14  2  0
 14 15  1  0
 15 16  1  0
 15 17  2  0
 17 18  1  0
 18 19  2  0
 19 20  1  0
 20 21  2  0
 21 22  1  0
 10 23  1  0
 23 24  1  0
 24 25  2  0
 24 26  1  0
 26 27  1  0
 27 28  1  0
 27 29  1  0
 27 30  1  0
 30 31  2  0
 31  4  1  0
 21 11  1  0
 31 23  1  0
 19 13  1  0
  1 32  1  0
  1 33  1  0
  1 34  1  0
  2 35  1  0
  2 36  1  0
  3 37  1  0
  3 38  1  0
  6 39  1  0
  6 40  1  0
  7 41  1  1
 10 42  1  6
 12 43  1  0
 14 44  1  0
 17 45  1  0
 18 46  1  0
 23 47  1  6
 26 48  1  0
 26 49  1  0
 28 50  1  0
 28 51  1  0
 28 52  1  0
 29 53  1  0
 29 54  1  0
 29 55  1  0
 30 56  1  0
M  CHG  1   6   1
M  END
>  <UniqueID>  (5) 
5

>  <SMILES>  (5) 
CCCN1C(=[NH2+])[C@@H](C#N)[C@H](c2cc3cc(Br)ccc3nc2Cl)C2C(=O)CC(C)(C)C=C21

>  <Energy>  (5) 
81.31349313941004

>  <Genealogy>  (5) 
CCCN1C(=[NH2+])C(C#N)C(c2cc3cc(Br)ccc3nc2Cl)C2C(=O)CC(C)(C)C=C21 (protonated)
CCCN1C(=[NH2+])[C@@H](C#N)[C@H](c2cc3cc(Br)ccc3nc2Cl)C2C(=O)CC(C)(C)C=C21 (chirality)
CCCN1C(=[NH2+])[C@@H](C#N)[C@H](c2cc3cc(Br)ccc3nc2Cl)C2C(=O)CC(C)(C)C=C21 (3D coordinates assigned)
CCCN1C(=[NH2+])[C@@H](C#N)[C@H](c2cc3cc(Br)ccc3nc2Cl)C2C(=O)CC(C)(C)C=C21 (nonaromatic ring conformer: 81.31349313941004 kcal/mol)

>  <smiles>  (5) 
CCCN1C(=N)C(C#N)C(c2cc3cc(Br)ccc3nc2Cl)C2C(=O)CC(C)(C)C=C21

>  <score_type>  (5) 
oracle

>  <origin>  (5) 
adg

>  <m_score__min__energy>  (5) 
-8.4199999999999999

>  <m_primary>  (5) 
energy

$$$$
5:0
     RDKit          3D

 67 69  0  0  0  0  0  0  0  0999 V2000
   -6.7760   17.4460  -32.5730 C   0  0  0  0  0  0  0  0  0  0  0  0
   -7.8080   17.9300  -32.1810 C   0  0  0  0  0  0  0  0  0  0  0  0
   -9.0660   18.5130  -31.7080 C   0  0  0  0  0  0  0  0  0  0  0  0
   -9.6190   19.3880  -32.7470 N   0  0  0  0  0  0  0  0  0  0  0  0
   -9.6250   20.7990  -32.3310 C   0  0  0  0  0  0  0  0  0  0  0  0
   -8.2650   21.2640  -31.8650 C   0  0  0  0  0  0  0  0  0  0  0  0
   -7.1230   21.0040  -32.6370 C   0  0  0  0  0  0  0  0  0  0  0  0
   -5.8660   21.4430  -32.2120 C   0  0  0  0  0  0  0  0  0  0  0  0
   -5.7310   22.1560  -31.0070 C   0  0  0  0  0  0  0  0  0  0  0  0
   -4.3940   22.6110  -30.5480 C   0  0  0  0  0  0  0  0  0  0  0  0
   -4.2540   23.8000  -29.8100 C   0  0  0  0  0  0  0  0  0  0  0  0
   -2.9930   24.2300  -29.3880 C   0  0  0  0  0  0  0  0  0  0  0  0
   -1.8480   23.4830  -29.7010 C   0  0  0  0  0  0  0  0  0  0  0  0
   -0.4880   23.9590  -29.2610 C   0  0  0  0  0  0  0  0  0  0  0  0
   -0.4700   24.2080  -27.8100 N   0  0  0  0  0  0  0  0  0  0  0  0
    0.2140   23.2420  -26.9320 C   0  0  0  0  0  0  0  0  0  0  0  0
   -0.3090   21.8430  -27.1500 C   0  0  0  0  0  0  0  0  0  0  0  0
   -1.5780   21.4750  -26.6700 C   0  0  0  0  0  0  0  0  0  0  0  0
   -2.0570   20.1770  -26.8610 C   0  0  0  0  0  0  0  0  0  0  0  0
   -1.2830   19.2400  -27.5470 C   0  0  0  0  0  0  0  0  0  0  0  0
   -0.0380   19.6060  -28.0630 C   0  0  0  0  0  0  0  0  0  0  0  0
    0.4470   20.9020  -27.8710 C   0  0  0  0  0  0  0  0  0  0  0  0
   -1.1110   25.4020  -27.2910 C   0  0  0  0  0  0  0  0  0  0  0  0
   -0.8720   26.5170  -27.8320 O   0  0  0  0  0  0  0  0  0  0  0  0
   -2.1110   25.3680  -26.1580 C   0  0  0  0  0  0  0  0  0  0  0  0
   -1.7970   26.3870  -25.0470 C   0  0  0  0  0  0  0  0  0  0  0  0
   -0.7040   25.9200  -24.0660 C   0  0  0  0  0  0  0  0  0  0  0  0
    0.2310   27.0560  -23.6220 C   0  0  0  0  0  0  0  0  0  0  0  0
    0.0330   28.2990  -24.4840 C   0  0  0  0  0  0  0  0  0  0  0  0
   -1.9820   22.2940  -30.4330 C   0  0  0  0  0  0  0  0  0  0  0  0
   -3.2440   21.8610  -30.8510 C   0  0  0  0  0  0  0  0  0  0  0  0
   -6.8790   22.4220  -30.2410 C   0  0  0  0  0  0  0  0  0  0  0  0
   -8.1350   21.9810  -30.6680 C   0  0  0  0  0  0  0  0  0  0  0  0
   -5.8342   17.0043  -32.9307 H   0  0  0  0  0  0  0  0  0  0  0  0
   -9.7827   17.7085  -31.4861 H   0  0  0  0  0  0  0  0  0  0  0  0
   -8.8792   19.0987  -30.7958 H   0  0  0  0  0  0  0  0  0  0  0  0
   -9.0450   19.2910  -33.6190 H   0  0  0  0  0  0  0  0  0  0  0  0
   -9.9375   21.4184  -33.1846 H   0  0  0  0  0  0  0  0  0  0  0  0
  -10.3228   20.8984  -31.4865 H   0  0  0  0  0  0  0  0  0  0  0  0
   -7.2174   20.4509  -33.5832 H   0  0  0  0  0  0  0  0  0  0  0  0
   -4.9769   21.2297  -32.8235 H   0  0  0  0  0  0  0  0  0  0  0  0
   -5.1445   24.3965  -29.5629 H   0  0  0  0  0  0  0  0  0  0  0  0
   -2.8980   25.1593  -28.8072 H   0  0  0  0  0  0  0  0  0  0  0  0
    0.2603   23.1906  -29.5051 H   0  0  0  0  0  0  0  0  0  0  0  0
   -0.2546   24.8978  -29.7846 H   0  0  0  0  0  0  0  0  0  0  0  0
    1.2922   23.2602  -27.1492 H   0  0  0  0  0  0  0  0  0  0  0  0
    0.0249   23.5262  -25.8863 H   0  0  0  0  0  0  0  0  0  0  0  0
   -2.1976   22.2139  -26.1407 H   0  0  0  0  0  0  0  0  0  0  0  0
   -3.0453   19.8930  -26.4703 H   0  0  0  0  0  0  0  0  0  0  0  0
   -1.6536   18.2131  -27.6813 H   0  0  0  0  0  0  0  0  0  0  0  0
    0.5619   18.8725  -28.6217 H   0  0  0  0  0  0  0  0  0  0  0  0
    1.4249   21.1876  -28.2858 H   0  0  0  0  0  0  0  0  0  0  0  0
   -3.1089   25.5892  -26.5646 H   0  0  0  0  0  0  0  0  0  0  0  0
   -2.0638   24.3655  -25.7077 H   0  0  0  0  0  0  0  0  0  0  0  0
   -1.4627   27.3227  -25.5189 H   0  0  0  0  0  0  0  0  0  0  0  0
   -2.7190   26.5170  -24.4614 H   0  0  0  0  0  0  0  0  0  0  0  0
   -1.1906   25.4981  -23.1743 H   0  0  0  0  0  0  0  0  0  0  0  0
   -0.0887   25.1740  -24.5904 H   0  0  0  0  0  0  0  0  0  0  0  0
    0.0167   27.3084  -22.5730 H   0  0  0  0  0  0  0  0  0  0  0  0
    1.2712   26.7159  -23.7331 H   0  0  0  0  0  0  0  0  0  0  0  0
   -0.1068   29.1765  -23.8355 H   0  0  0  0  0  0  0  0  0  0  0  0
    0.9185   28.4497  -25.1190 H   0  0  0  0  0  0  0  0  0  0  0  0
   -0.8555   28.1671  -25.1190 H   0  0  0  0  0  0  0  0  0  0  0  0
   -1.0900   21.6994  -30.6794 H   0  0  0  0  0  0  0  0  0  0  0  0
   -3.3380   20.9254  -31.4219 H   0  0  0  0  0  0  0  0  0  0  0  0
   -6.7885   22.9815  -29.2982 H   0  0  0  0  0  0  0  0  0  0  0  0
   -9.0263   22.1980  -30.0610 H   0  0  0  0  0  0  0  0  0  0  0  0
  1  2  3  0
  2  3  1  0
  3  4  1  0
  4  5  1  0
  5  6  1  0
  6  7  2  0
  7  8  1  0
  8  9  2  0
  9 10  1  0
 10 11  2  0
 11 12  1  0
 12 13  2  0
 13 14  1  0
 14 15  1  0
 15 16  1  0
 16 17  1  0
 17 18  2  0
 18 19  1  0
 19 20  2  0
 20 21  1  0
 21 22  2  0
 15 23  1  0
 23 24  2  0
 23 25  1  0
 25 26  1  0
 26 27  1  0
 27 28  1  0
 28 29  1  0
 13 30  1  0
 30 31  2  0
  9 32  1  0
 32 33  2  0
 33  6  1  0
 31 10  1  0
 22 17  1  0
  1 34  1  0
  3 35  1  0
  3 36  1  0
  4 37  1  0
  5 38  1  0
  5 39  1  0
  7 40  1  0
  8 41  1  0
 11 42  1  0
 12 43  1  0
 14 44  1  0
 14 45  1  0
 16 46  1  0
 16 47  1  0
 18 48  1  0
 19 49  1  0
 20 50  1  0
 21 51  1  0
 22 52  1  0
 25 53  1  0
 25 54  1  0
 26 55  1  0
 26 56  1  0
 27 57  1  0
 27 58  1  0
 28 59  1  0
 28 60  1  0
 29 61  1  0
 29 62  1  0
 29 63  1  0
 30 64  1  0
 31 65  1  0
 32 66  1  0
 33 67  1  0
M  END
>  <UniqueID>  (6) 
6

>  <SMILES>  (6) 
C#CCNCc1ccc(-c2ccc(CN(Cc3ccccc3)C(=O)CCCCC)cc2)cc1

>  <Energy>  (6) 
59.934199056866845

>  <Genealogy>  (6) 
C#CCNCc1ccc(-c2ccc(CN(Cc3ccccc3)C(=O)CCCCC)cc2)cc1 (3D coordinates assigned)
C#CCNCc1ccc(-c2ccc(CN(Cc3ccccc3)C(=O)CCCCC)cc2)cc1 (optimized conformer: 59.934199056866845 kcal/mol)

>  <smiles>  (6) 
C#CCNCc1ccc(-c2ccc(CN(Cc3ccccc3)C(=O)CCCCC)cc2)cc1

>  <score_type>  (6) 
oracle

>  <origin>  (6) 
adg

>  <m_score__min__energy>  (6) 
-9.5299999999999994

>  <m_primary>  (6) 
energy

$$$$
6:0
     RDKit          3D

 30 30  0  0  0  0  0  0  0  0999 V2000
   -6.0330   19.0720  -31.6330 C   0  0  0  0  0  0  0  0  0  0  0  0
   -6.8650   18.9260  -32.8520 N   0  0  0  0  0  0  0  0  0  0  0  0
   -7.2330   17.4970  -32.9990 C   0  0  0  0  0  0  0  0  0  0  0  0
   -6.0550   19.3550  -34.0180 C   0  0  0  0  0  0  0  0  0  0  0  0
   -8.0750   19.7870  -32.6910 C   0  0  0  0  0  0  0  0  0  0  0  0
   -7.9090   20.9800  -31.7220 C   0  0  0  0  0  0  0  0  0  0  0  0
   -6.8190   21.8040  -32.1350 O   0  0  0  0  0  0  0  0  0  0  0  0
   -6.3850   22.9680  -31.4810 C   0  0  0  0  0  0  0  0  0  0  0  0
   -7.2420   23.7870  -30.7210 C   0  0  0  0  0  0  0  0  0  0  0  0
   -6.7430   24.9300  -30.0960 C   0  0  0  0  0  0  0  0  0  0  0  0
   -5.3900   25.2470  -30.2300 C   0  0  0  0  0  0  0  0  0  0  0  0
   -4.5730   24.4470  -30.9630 N   0  0  0  0  0  0  0  0  0  0  0  0
   -5.0360   23.3280  -31.5820 C   0  0  0  0  0  0  0  0  0  0  0  0
   -6.6669   18.9608  -30.7409 H   0  0  0  0  0  0  0  0  0  0  0  0
   -5.2523   18.2971  -31.6270 H   0  0  0  0  0  0  0  0  0  0  0  0
   -5.5627   20.0664  -31.6270 H   0  0  0  0  0  0  0  0  0  0  0  0
   -7.3496   17.0441  -32.0034 H   0  0  0  0  0  0  0  0  0  0  0  0
   -8.1809   17.4174  -33.5513 H   0  0  0  0  0  0  0  0  0  0  0  0
   -6.4414   16.9695  -33.5513 H   0  0  0  0  0  0  0  0  0  0  0  0
   -5.1342   19.8427  -33.6653 H   0  0  0  0  0  0  0  0  0  0  0  0
   -5.7946   18.4766  -34.6267 H   0  0  0  0  0  0  0  0  0  0  0  0
   -6.6354   20.0640  -34.6267 H   0  0  0  0  0  0  0  0  0  0  0  0
   -8.3425   20.1867  -33.6803 H   0  0  0  0  0  0  0  0  0  0  0  0
   -8.8519   19.1433  -32.2528 H   0  0  0  0  0  0  0  0  0  0  0  0
   -8.8336   21.5760  -31.7180 H   0  0  0  0  0  0  0  0  0  0  0  0
   -7.7050   20.5955  -30.7118 H   0  0  0  0  0  0  0  0  0  0  0  0
   -8.3056   23.5253  -30.6201 H   0  0  0  0  0  0  0  0  0  0  0  0
   -7.4088   25.5749  -29.5037 H   0  0  0  0  0  0  0  0  0  0  0  0
   -4.9852   26.1456  -29.7414 H   0  0  0  0  0  0  0  0  0  0  0  0
   -4.3457   22.7015  -32.1660 H   0  0  0  0  0  0  0  0  0  0  0  0
  1  2  1  0
  2  3  1  0
  2  4  1  0
  2  5  1  0
  5  6  1  0
  6  7  1  0
  7  8  1  0
  8  9  2  0
  9 10  1  0
 10 11  2  0
 11 12  1  0
 12 13  2  0
 13  8  1  0
  1 14  1  0
  1 15  1  0
  1 16  1  0
  3 17  1  0
  3 18  1  0
  3 19  1  0
  4 20  1  0
  4 21  1  0
  4 22  1  0
  5 23  1  0
  5 24  1  0
  6 25  1  0
  6 26  1  0
  9 27  1  0
 10 28  1  0
 11 29  1  0
 13 30  1  0
M  CHG  1   2   1
M  END
>  <UniqueID>  (7) 
7

>  <SMILES>  (7) 
C[N+](C)(C)CCOc1cccnc1

>  <Energy>  (7) 
34.041029606880606

>  <Genealogy>  (7) 
C[N+](C)(C)CCOc1cccnc1 (3D coordinates assigned)
C[N+](C)(C)CCOc1cccnc1 (optimized conformer: 34.041029606880606 kcal/mol)

>  <smiles>  (7) 
C[N+](C)(C)CCOc1cccnc1

>  <score_type>  (7) 
oracle

>  <origin>  (7) 
adg

>  <m_score__min__energy>  (7) 
-4.0899999999999999

>  <m_primary>  (7) 
energy

$$$$
7:0
     RDKit          3D

 42 45  0  0  0  0  0  0  0  0999 V2000
    0.9700   27.9400  -22.6190 N   0  0  0  0  0  0  0  0  0  0  0  0
   -0.0280   27.1740  -23.3580 C   0  0  0  0  0  0  0  0  0  0  0  0
   -0.4700   27.9450  -24.6030 C   0  0  0  0  0  0  0  0  0  0  0  0
   -0.9890   27.0010  -25.6550 C   0  0  0  0  0  0  0  0  0  0  0  0
   -2.0000   26.0810  -25.3440 C   0  0  0  0  0  0  0  0  0  0  0  0
   -2.4600   25.1820  -26.3110 C   0  0  0  0  0  0  0  0  0  0  0  0
   -1.9130   25.1810  -27.6080 C   0  0  0  0  0  0  0  0  0  0  0  0
   -2.4090   24.2220  -28.6290 C   0  0  0  0  0  0  0  0  0  0  0  0
   -1.6400   23.4690  -29.5180 C   0  0  0  0  0  0  0  0  0  0  0  0
   -2.3940   22.6490  -30.3670 C   0  0  0  0  0  0  0  0  0  0  0  0
   -3.7710   22.7400  -30.1630 C   0  0  0  0  0  0  0  0  0  0  0  0
   -4.8310   22.0030  -30.8950 C   0  0  0  0  0  0  0  0  0  0  0  0
   -4.4880   21.0430  -31.8640 C   0  0  0  0  0  0  0  0  0  0  0  0
   -5.4630   20.3730  -32.5320 N   0  0  0  0  0  0  0  0  0  0  0  0
   -6.7750   20.6070  -32.2830 C   0  0  0  0  0  0  0  0  0  0  0  0
   -7.7650   19.9080  -32.9810 C   0  0  0  0  0  0  0  0  0  0  0  0
   -9.1150   20.1570  -32.7130 C   0  0  0  0  0  0  0  0  0  0  0  0
   -9.4780   21.1030  -31.7490 C   0  0  0  0  0  0  0  0  0  0  0  0
   -8.4920   21.8060  -31.0480 C   0  0  0  0  0  0  0  0  0  0  0  0
   -7.1340   21.5640  -31.3110 C   0  0  0  0  0  0  0  0  0  0  0  0
   -6.1550   22.2370  -30.6410 N   0  0  0  0  0  0  0  0  0  0  0  0
   -4.0260   23.8480  -28.9190 S   0  0  0  0  0  0  0  0  0  0  0  0
   -0.8860   26.0960  -27.9090 C   0  0  0  0  0  0  0  0  0  0  0  0
   -0.4280   26.9940  -26.9400 C   0  0  0  0  0  0  0  0  0  0  0  0
    0.4700   28.6540  -22.0390 H   0  0  0  0  0  0  0  0  0  0  0  0
    1.4400   27.2900  -21.9500 H   0  0  0  0  0  0  0  0  0  0  0  0
    0.4060   26.2102  -23.6625 H   0  0  0  0  0  0  0  0  0  0  0  0
   -0.9017   27.0049  -22.7115 H   0  0  0  0  0  0  0  0  0  0  0  0
   -1.2665   28.6515  -24.3267 H   0  0  0  0  0  0  0  0  0  0  0  0
    0.3960   28.4877  -25.0099 H   0  0  0  0  0  0  0  0  0  0  0  0
   -2.4339   26.0663  -24.3333 H   0  0  0  0  0  0  0  0  0  0  0  0
   -3.2573   24.4684  -26.0557 H   0  0  0  0  0  0  0  0  0  0  0  0
   -0.5414   23.5154  -29.5489 H   0  0  0  0  0  0  0  0  0  0  0  0
   -1.9417   21.9931  -31.1254 H   0  0  0  0  0  0  0  0  0  0  0  0
   -3.4300   20.8346  -32.0811 H   0  0  0  0  0  0  0  0  0  0  0  0
   -7.4823   19.1634  -33.7397 H   0  0  0  0  0  0  0  0  0  0  0  0
   -9.8935   19.6071  -33.2621 H   0  0  0  0  0  0  0  0  0  0  0  0
  -10.5411   21.2948  -31.5414 H   0  0  0  0  0  0  0  0  0  0  0  0
   -8.7809   22.5490  -30.2901 H   0  0  0  0  0  0  0  0  0  0  0  0
   -6.4340   22.9310  -29.9130 H   0  0  0  0  0  0  0  0  0  0  0  0
   -0.4404   26.1044  -28.9146 H   0  0  0  0  0  0  0  0  0  0  0  0
    0.3783   27.7001  -27.1876 H   0  0  0  0  0  0  0  0  0  0  0  0
  1  2  1  0
  2  3  1  0
  3  4  1  0
  4  5  2  0
  5  6  1  0
  6  7  2  0
  7  8  1  0
  8  9  2  0
  9 10  1  0
 10 11  2  0
 11 12  1  0
 12 13  2  0
 13 14  1  0
 14 15  2  0
 15 16  1  0
 16 17  2  0
 17 18  1  0
 18 19  2  0
 19 20  1  0
 20 21  2  0
 11 22  1  0
  7 23  1  0
 23 24  2  0
 24  4  1  0
 22  8  1  0
 21 12  1  0
 20 15  1  0
  1 25  1  0
  1 26  1  0
  2 27  1  0
  2 28  1  0
  3 29  1  0
  3 30  1  0
  5 31  1  0
  6 32  1  0
  9 33  1  0
 10 34  1  0
 13 35  1  0
 16 36  1  0
 17 37  1  0
 18 38  1  0
 19 39  1  0
 21 40  1  0
 23 41  1  0
 24 42  1  0
M  CHG  1  21   1
M  END
>  <UniqueID>  (8) 
8

>  <SMILES>  (8) 
NCCc1ccc(-c2ccc(-c3cnc4ccccc4[nH+]3)s2)cc1

>  <Energy>  (8) 
76.77721630931441

>  <Genealogy>  (8) 
NCCc1ccc(-c2ccc(-c3cnc4ccccc4[nH+]3)s2)cc1 (protonated)
NCCc1ccc(-c2ccc(-c3cnc4ccccc4[nH+]3)s2)cc1 (3D coordinates assigned)
NCCc1ccc(-c2ccc(-c3cnc4ccccc4[nH+]3)s2)cc1 (optimized conformer: 76.77721630931441 kcal/mol)

>  <smiles>  (8) 
NCCc1ccc(-c2ccc(-c3cnc4ccccc4n3)s2)cc1

>  <score_type>  (8) 
oracle

>  <origin>  (8) 
adg

>  <m_score__min__energy>  (8) 
-7.8600000000000003

>  <m_primary>  (8) 
energy

$$$$
8:0
     RDKit          3D

 38 40  0  0  0  0  0  0  0  0999 V2000
   -5.3370   24.8070  -30.2650 C   0  0  0  0  0  0  0  0  0  0  0  0
   -4.4690   23.6290  -30.2940 N   0  0  0  0  0  0  0  0  0  0  0  0
   -3.4820   23.3130  -29.4200 C   0  0  0  0  0  0  0  0  0  0  0  0
   -2.9650   24.1890  -28.3500 C   0  0  0  0  0  0  0  0  0  0  0  0
   -3.7320   24.4440  -27.2040 C   0  0  0  0  0  0  0  0  0  0  0  0
   -3.2500   25.2960  -26.2060 C   0  0  0  0  0  0  0  0  0  0  0  0
   -1.9960   25.9190  -26.3450 C   0  0  0  0  0  0  0  0  0  0  0  0
   -1.4950   26.7960  -25.3200 N   0  0  0  0  0  0  0  0  0  0  0  0
   -1.2610   27.9980  -25.5670 O   0  0  0  0  0  0  0  0  0  0  0  0
   -1.2660   26.3260  -24.0470 O   0  0  0  0  0  0  0  0  0  0  0  0
   -1.2410   25.6760  -27.5050 C   0  0  0  0  0  0  0  0  0  0  0  0
   -1.7250   24.8240  -28.5020 C   0  0  0  0  0  0  0  0  0  0  0  0
   -3.0250   22.0300  -29.6580 C   0  0  0  0  0  0  0  0  0  0  0  0
   -3.7590   21.5400  -30.7190 C   0  0  0  0  0  0  0  0  0  0  0  0
   -4.6410   22.5380  -31.0730 C   0  0  0  0  0  0  0  0  0  0  0  0
   -5.8470   22.3680  -32.3420 S   0  0  0  0  0  0  0  0  0  0  0  0
   -6.6390   23.8010  -32.7150 O   0  0  0  0  0  0  0  0  0  0  0  0
   -6.9220   20.9930  -32.1710 C   0  0  0  0  0  0  0  0  0  0  0  0
   -8.2830   21.1820  -31.8980 C   0  0  0  0  0  0  0  0  0  0  0  0
   -9.1310   20.0780  -31.7620 C   0  0  0  0  0  0  0  0  0  0  0  0
   -8.6210   18.7830  -31.9030 C   0  0  0  0  0  0  0  0  0  0  0  0
   -7.2650   18.5920  -32.1840 C   0  0  0  0  0  0  0  0  0  0  0  0
   -6.4170   19.6960  -32.3210 C   0  0  0  0  0  0  0  0  0  0  0  0
   -5.5423   25.0856  -29.2208 H   0  0  0  0  0  0  0  0  0  0  0  0
   -4.8375   25.6432  -30.7762 H   0  0  0  0  0  0  0  0  0  0  0  0
   -6.2836   24.5776  -30.7762 H   0  0  0  0  0  0  0  0  0  0  0  0
   -4.7185   23.9709  -27.0897 H   0  0  0  0  0  0  0  0  0  0  0  0
   -3.8550   25.4806  -25.3061 H   0  0  0  0  0  0  0  0  0  0  0  0
   -0.2612   26.1602  -27.6295 H   0  0  0  0  0  0  0  0  0  0  0  0
   -1.1295   24.6511  -29.4105 H   0  0  0  0  0  0  0  0  0  0  0  0
   -2.2311   21.5026  -29.1088 H   0  0  0  0  0  0  0  0  0  0  0  0
   -3.6598   20.5502  -31.1885 H   0  0  0  0  0  0  0  0  0  0  0  0
   -6.7310   23.7830  -33.7010 H   0  0  0  0  0  0  0  0  0  0  0  0
   -8.6853   22.2001  -31.7904 H   0  0  0  0  0  0  0  0  0  0  0  0
  -10.1987   20.2280  -31.5442 H   0  0  0  0  0  0  0  0  0  0  0  0
   -9.2872   17.9147  -31.7927 H   0  0  0  0  0  0  0  0  0  0  0  0
   -6.8649   17.5736  -32.2974 H   0  0  0  0  0  0  0  0  0  0  0  0
   -5.3512   19.5447  -32.5471 H   0  0  0  0  0  0  0  0  0  0  0  0
  1  2  1  0
  2  3  1  0
  3  4  1  0
  4  5  2  0
  5  6  1  0
  6  7  2  0
  7  8  1  0
  8  9  2  0
  8 10  1  0
  7 11  1  0
 11 12  2  0
  3 13  2  0
 13 14  1  0
 14 15  2  0
 15 16  1  0
 16 17  1  1
 16 18  1  0
 18 19  2  0
 19 20  1  0
 20 21  2  0
 21 22  1  0
 22 23  2  0
 15  2  1  0
 23 18  1  0
 12  4  1  0
  1 24  1  0
  1 25  1  0
  1 26  1  0
  5 27  1  0
  6 28  1  0
 11 29  1  0
 12 30  1  0
 13 31  1  0
 14 32  1  0
 17 33  1  0
 19 34  1  0
 20 35  1  0
 21 36  1  0
 22 37  1  0
 23 38  1  0
M  CHG  3   8   1  10  -1  16   1
M  END
>  <UniqueID>  (9) 
9

>  <SMILES>  (9) 
Cn1c(-c2ccc([N+](=O)[O-])cc2)ccc1[S@+](O)c1ccccc1

>  <Energy>  (9) 
72.28812071275631

>  <Genealogy>  (9) 
Cn1c(-c2ccc([N+](=O)[O-])cc2)ccc1[S+](O)c1ccccc1 (protonated)
Cn1c(-c2ccc([N+](=O)[O-])cc2)ccc1[S@+](O)c1ccccc1 (chirality)
Cn1c(-c2ccc([N+](=O)[O-])cc2)ccc1[S@+](O)c1ccccc1 (3D coordinates assigned)
Cn1c(-c2ccc([N+](=O)[O-])cc2)ccc1[S@+](O)c1ccccc1 (optimized conformer: 72.28812071275631 kcal/mol)

>  <smiles>  (9) 
Cn1c(-c2ccc([N+](=O)[O-])cc2)ccc1[S+]([O-])c1ccccc1

>  <score_type>  (9) 
oracle

>  <origin>  (9) 
adg

>  <m_score__min__energy>  (9) 
-7.7199999999999998

>  <m_primary>  (9) 
energy

$$$$
9:0
     RDKit          3D

 32 33  0  0  0  0  0  0  0  0999 V2000
   -9.4800   19.3110  -32.5130 C   0  0  0  0  0  0  0  0  0  0  0  0
   -8.5940   18.1970  -31.9630 C   0  0  0  0  0  0  0  0  0  0  0  0
   -7.2020   18.3780  -32.3990 N   0  0  0  0  0  0  0  0  0  0  0  0
   -6.4370   17.2320  -32.9130 C   0  0  0  0  0  0  0  0  0  0  0  0
   -6.0940   17.4340  -34.3870 C   0  0  0  0  0  0  0  0  0  0  0  0
   -6.6280   19.7000  -32.3780 C   0  0  0  0  0  0  0  0  0  0  0  0
   -6.8660   20.6330  -31.4370 N   0  0  0  0  0  0  0  0  0  0  0  0
   -6.1080   21.6710  -31.8530 C   0  0  0  0  0  0  0  0  0  0  0  0
   -6.0000   22.9810  -31.1620 C   0  0  0  0  0  0  0  0  0  0  0  0
   -7.1440   23.6900  -30.7480 C   0  0  0  0  0  0  0  0  0  0  0  0
   -7.0180   24.9230  -30.1010 C   0  0  0  0  0  0  0  0  0  0  0  0
   -5.7520   25.4630  -29.8590 C   0  0  0  0  0  0  0  0  0  0  0  0
   -4.6110   24.7710  -30.2650 C   0  0  0  0  0  0  0  0  0  0  0  0
   -3.3830   25.2960  -30.0290 F   0  0  0  0  0  0  0  0  0  0  0  0
   -4.7310   23.5370  -30.9130 C   0  0  0  0  0  0  0  0  0  0  0  0
   -5.4450   21.3710  -32.9900 N   0  0  0  0  0  0  0  0  0  0  0  0
   -5.7900   20.1510  -33.2820 O   0  0  0  0  0  0  0  0  0  0  0  0
   -9.9256   19.8712  -31.6778 H   0  0  0  0  0  0  0  0  0  0  0  0
   -8.8736   19.9915  -33.1289 H   0  0  0  0  0  0  0  0  0  0  0  0
  -10.2795   18.8733  -33.1289 H   0  0  0  0  0  0  0  0  0  0  0  0
   -8.6333   18.2137  -30.8638 H   0  0  0  0  0  0  0  0  0  0  0  0
   -8.9614   17.2324  -32.3431 H   0  0  0  0  0  0  0  0  0  0  0  0
   -5.5062   17.1302  -32.3357 H   0  0  0  0  0  0  0  0  0  0  0  0
   -7.0481   16.3230  -32.8119 H   0  0  0  0  0  0  0  0  0  0  0  0
   -5.1489   17.9906  -34.4706 H   0  0  0  0  0  0  0  0  0  0  0  0
   -5.9872   16.4546  -34.8762 H   0  0  0  0  0  0  0  0  0  0  0  0
   -6.8988   18.0024  -34.8762 H   0  0  0  0  0  0  0  0  0  0  0  0
   -7.4750   20.5630  -30.5940 H   0  0  0  0  0  0  0  0  0  0  0  0
   -8.1437   23.2709  -30.9349 H   0  0  0  0  0  0  0  0  0  0  0  0
   -7.9177   25.4694  -29.7816 H   0  0  0  0  0  0  0  0  0  0  0  0
   -5.6554   26.4328  -29.3489 H   0  0  0  0  0  0  0  0  0  0  0  0
   -3.8267   22.9970  -31.2304 H   0  0  0  0  0  0  0  0  0  0  0  0
  1  2  1  0
  2  3  1  0
  3  4  1  0
  4  5  1  0
  3  6  1  0
  6  7  2  0
  7  8  1  0
  8  9  1  0
  9 10  2  0
 10 11  1  0
 11 12  2  0
 12 13  1  0
 13 14  1  0
 13 15  2  0
  8 16  2  0
 16 17  1  0
 17  6  1  0
 15  9  1  0
  1 18  1  0
  1 19  1  0
  1 20  1  0
  2 21  1  0
  2 22  1  0
  4 23  1  0
  4 24  1  0
  5 25  1  0
  5 26  1  0
  5 27  1  0
  7 28  1  0
 10 29  1  0
 11 30  1  0
 12 31  1  0
 15 32  1  0
M  CHG  1   7   1
M  END
>  <UniqueID>  (10) 
10

>  <SMILES>  (10) 
CCN(CC)c1[nH+]c(-c2cccc(F)c2)no1

>  <Energy>  (10) 
61.15330049970516

>  <Genealogy>  (10) 
CCN(CC)c1[nH+]c(-c2cccc(F)c2)no1 (protonated)
CCN(CC)c1[nH+]c(-c2cccc(F)c2)no1 (3D coordinates assigned)
CCN(CC)c1[nH+]c(-c2cccc(F)c2)no1 (optimized conformer: 61.15330049970516 kcal/mol)

>  <smiles>  (10) 
CCN(CC)c1nc(-c2cccc(F)c2)no1

>  <score_type>  (10) 
oracle

>  <origin>  (10) 
adg

>  <m_score__min__energy>  (10) 
-5.7400000000000002

>  <m_primary>  (10) 
energy

$$$$
10:0
     RDKit          3D

 38 39  0  0  0  0  0  0  0  0999 V2000
   -3.3750   17.4410  -34.7140 C   0  0  0  0  0  0  0  0  0  0  0  0
   -3.5980   18.8300  -34.4860 O   0  0  0  0  0  0  0  0  0  0  0  0
   -2.7150   19.6780  -33.7990 C   0  0  0  0  0  0  0  0  0  0  0  0
   -1.3510   19.3600  -33.6450 C   0  0  0  0  0  0  0  0  0  0  0  0
   -0.4940   20.2170  -32.9450 C   0  0  0  0  0  0  0  0  0  0  0  0
    0.8980   19.8830  -32.7960 C   0  0  0  0  0  0  0  0  0  0  0  0
    2.0170   19.6160  -32.6760 N   0  0  0  0  0  0  0  0  0  0  0  0
   -0.9940   21.3960  -32.3860 C   0  0  0  0  0  0  0  0  0  0  0  0
   -2.3430   21.7230  -32.5320 C   0  0  0  0  0  0  0  0  0  0  0  0
   -3.2140   20.8800  -33.2480 C   0  0  0  0  0  0  0  0  0  0  0  0
   -4.6120   21.2280  -33.3620 N   0  0  0  0  0  0  0  0  0  0  0  0
   -5.2240   21.3230  -32.0260 C   0  0  0  0  0  0  0  0  0  0  0  0
   -6.7260   21.1410  -32.1010 C   0  0  0  0  0  0  0  0  0  0  0  0
   -7.5420   22.1440  -31.5490 C   0  0  0  0  0  0  0  0  0  0  0  0
   -8.9300   22.0360  -31.6000 C   0  0  0  0  0  0  0  0  0  0  0  0
   -9.5050   20.9220  -32.2050 C   0  0  0  0  0  0  0  0  0  0  0  0
   -8.7140   19.9550  -32.7380 N   0  0  0  0  0  0  0  0  0  0  0  0
   -7.3560   20.0270  -32.7100 C   0  0  0  0  0  0  0  0  0  0  0  0
   -6.4650   18.6870  -33.4250 S   0  0  0  0  0  0  0  0  0  0  0  0
   -7.1800   17.0890  -33.1160 C   0  0  0  0  0  0  0  0  0  0  0  0
   -6.1100   18.9460  -35.0470 O   0  0  0  0  0  0  0  0  0  0  0  0
   -3.2913   16.9198  -33.7489 H   0  0  0  0  0  0  0  0  0  0  0  0
   -4.2176   17.0232  -35.2845 H   0  0  0  0  0  0  0  0  0  0  0  0
   -2.4440   17.3079  -35.2845 H   0  0  0  0  0  0  0  0  0  0  0  0
   -0.9560   18.4296  -34.0790 H   0  0  0  0  0  0  0  0  0  0  0  0
   -0.3233   22.0675  -31.8299 H   0  0  0  0  0  0  0  0  0  0  0  0
   -2.7299   22.6495  -32.0827 H   0  0  0  0  0  0  0  0  0  0  0  0
   -4.7010   22.1420  -33.8650 H   0  0  0  0  0  0  0  0  0  0  0  0
   -5.1180   20.5130  -33.9320 H   0  0  0  0  0  0  0  0  0  0  0  0
   -4.7990   20.5410  -31.3796 H   0  0  0  0  0  0  0  0  0  0  0  0
   -5.0127   22.3211  -31.6147 H   0  0  0  0  0  0  0  0  0  0  0  0
   -7.0805   23.0216  -31.0727 H   0  0  0  0  0  0  0  0  0  0  0  0
   -9.5649   22.8228  -31.1667 H   0  0  0  0  0  0  0  0  0  0  0  0
  -10.5997   20.8248  -32.2514 H   0  0  0  0  0  0  0  0  0  0  0  0
   -7.2538   16.9240  -32.0310 H   0  0  0  0  0  0  0  0  0  0  0  0
   -8.1841   17.0439  -33.5629 H   0  0  0  0  0  0  0  0  0  0  0  0
   -6.5445   16.3103  -33.5629 H   0  0  0  0  0  0  0  0  0  0  0  0
   -5.1330   18.7980  -35.1130 H   0  0  0  0  0  0  0  0  0  0  0  0
  1  2  1  0
  2  3  1  0
  3  4  2  0
  4  5  1  0
  5  6  1  0
  6  7  3  0
  5  8  2  0
  8  9  1  0
  9 10  2  0
 10 11  1  0
 11 12  1  0
 12 13  1  0
 13 14  2  0
 14 15  1  0
 15 16  2  0
 16 17  1  0
 17 18  2  0
 18 19  1  0
 19 20  1  0
 19 21  1  6
 10  3  1  0
 18 13  1  0
  1 22  1  0
  1 23  1  0
  1 24  1  0
  4 25  1  0
  8 26  1  0
  9 27  1  0
 11 28  1  0
 11 29  1  0
 12 30  1  0
 12 31  1  0
 14 32  1  0
 15 33  1  0
 16 34  1  0
 20 35  1  0
 20 36  1  0
 20 37  1  0
 21 38  1  0
M  CHG  2  11   1  19   1
M  END
>  <UniqueID>  (11) 
11

>  <SMILES>  (11) 
COc1cc(C#N)ccc1[NH2+]Cc1cccnc1[S@@+](C)O

>  <Energy>  (11) 
36.15954837294617

>  <Genealogy>  (11) 
COc1cc(C#N)ccc1[NH2+]Cc1cccnc1[S+](C)O (protonated)
COc1cc(C#N)ccc1[NH2+]Cc1cccnc1[S@@+](C)O (chirality)
COc1cc(C#N)ccc1[NH2+]Cc1cccnc1[S@@+](C)O (3D coordinates assigned)
COc1cc(C#N)ccc1[NH2+]Cc1cccnc1[S@@+](C)O (optimized conformer: 36.15954837294617 kcal/mol)

>  <smiles>  (11) 
COc1cc(C#N)ccc1NCc1cccnc1[S+](C)[O-]

>  <score_type>  (11) 
oracle

>  <origin>  (11) 
adg

>  <m_score__min__energy>  (11) 
-6.1600000000000001

>  <m_primary>  (11) 
energy

$$$$
11:0
     RDKit          3D

 40 42  0  0  0  0  0  0  0  0999 V2000
   -0.2980   23.2195  -26.4675 H   0  0  0  0  0  0  0  0  0  0  0  0
   -0.2340   24.2870  -26.2100 C   0  0  0  0  0  0  0  0  0  0  0  0
    0.1310   24.6670  -24.9150 C   0  0  0  0  0  0  0  0  0  0  0  0
    0.3539   23.8967  -24.1620 H   0  0  0  0  0  0  0  0  0  0  0  0
    0.2150   26.0260  -24.5690 C   0  0  0  0  0  0  0  0  0  0  0  0
    0.5740   26.4190  -23.2270 N   0  0  0  0  0  0  0  0  0  0  0  0
   -0.1230   26.0560  -22.5350 H   0  0  0  0  0  0  0  0  0  0  0  0
    1.4970   25.9900  -22.9840 H   0  0  0  0  0  0  0  0  0  0  0  0
    0.6910   27.8820  -23.1040 C   0  0  0  0  0  0  0  0  0  0  0  0
    0.0639   28.2180  -22.2650 H   0  0  0  0  0  0  0  0  0  0  0  0
    0.3618   28.3275  -24.0543 H   0  0  0  0  0  0  0  0  0  0  0  0
    2.1330   28.3290  -22.8510 C   0  0  0  0  0  0  0  0  0  0  0  0
    2.3147   28.3853  -21.7676 H   0  0  0  0  0  0  0  0  0  0  0  0
    2.8262   27.6036  -23.3018 H   0  0  0  0  0  0  0  0  0  0  0  0
    2.2943   29.3193  -23.3018 H   0  0  0  0  0  0  0  0  0  0  0  0
   -0.0710   26.9970  -25.5410 C   0  0  0  0  0  0  0  0  0  0  0  0
   -0.0099   28.0641  -25.2812 H   0  0  0  0  0  0  0  0  0  0  0  0
   -0.4330   26.6180  -26.8370 C   0  0  0  0  0  0  0  0  0  0  0  0
   -0.6516   27.3895  -27.5900 H   0  0  0  0  0  0  0  0  0  0  0  0
   -0.5200   25.2580  -27.1860 C   0  0  0  0  0  0  0  0  0  0  0  0
   -0.9090   24.8580  -28.5600 C   0  0  0  0  0  0  0  0  0  0  0  0
   -0.1350   24.1280  -29.2380 O   0  0  0  0  0  0  0  0  0  0  0  0
   -2.1660   25.3000  -29.1020 N   0  0  0  0  0  0  0  0  0  0  0  0
   -3.0820   24.5810  -29.6830 C   0  0  0  0  0  0  0  0  0  0  0  0
   -4.1230   25.1530  -30.3340 N   0  0  0  0  0  0  0  0  0  0  0  0
   -4.9420   24.2100  -30.8680 C   0  0  0  0  0  0  0  0  0  0  0  0
   -6.0950   24.4900  -31.5990 C   0  0  0  0  0  0  0  0  0  0  0  0
   -6.4054   25.5299  -31.7783 H   0  0  0  0  0  0  0  0  0  0  0  0
   -6.8540   23.4200  -32.1030 C   0  0  0  0  0  0  0  0  0  0  0  0
   -7.7678   23.6271  -32.6793 H   0  0  0  0  0  0  0  0  0  0  0  0
   -6.4600   22.0840  -31.8800 C   0  0  0  0  0  0  0  0  0  0  0  0
   -7.2570   21.0590  -32.4100 O   0  0  0  0  0  0  0  0  0  0  0  0
   -7.1180   19.6820  -32.0780 C   0  0  0  0  0  0  0  0  0  0  0  0
   -7.1065   19.5680  -30.9840 H   0  0  0  0  0  0  0  0  0  0  0  0
   -7.9636   19.1167  -32.4967 H   0  0  0  0  0  0  0  0  0  0  0  0
   -6.1764   19.2971  -32.4967 H   0  0  0  0  0  0  0  0  0  0  0  0
   -5.2870   21.8180  -31.1360 C   0  0  0  0  0  0  0  0  0  0  0  0
   -4.9601   20.7847  -30.9479 H   0  0  0  0  0  0  0  0  0  0  0  0
   -4.5570   22.8980  -30.6480 C   0  0  0  0  0  0  0  0  0  0  0  0
   -3.1380   22.8820  -29.7500 S   0  0  0  0  0  0  0  0  0  0  0  0
  1  2  1  0
  2  3  2  0
  3  4  1  0
  3  5  1  0
  5  6  1  0
  6  7  1  0
  6  8  1  0
  6  9  1  0
  9 10  1  0
  9 11  1  0
  9 12  1  0
 12 13  1  0
 12 14  1  0
 12 15  1  0
  5 16  2  0
 16 17  1  0
 16 18  1  0
 18 19  1  0
 18 20  2  0
 20 21  1  0
 21 22  2  0
 21 23  1  0
 23 24  2  0
 24 25  1  0
 25 26  1  0
 26 27  2  0
 27 28  1  0
 27 29  1  0
 29 30  1  0
 29 31  2  0
 31 32  1  0
 32 33  1  0
 33 34  1  0
 33 35  1  0
 33 36  1  0
 31 37  1  0
 37 38  1  0
 37 39  2  0
 39 40  1  0
 20  2  1  0
 40 24  1  0
 39 26  1  0
M  CHG  2   6   1  25  -1
M  END
>  <UniqueID>  (12) 
12

>  <SMILES>  (12) 
CC[NH2+]c1ccc(C(=O)/N=c2/[n-]c3ccc(OC)cc3s2)cc1

>  <Energy>  (12) 
79.6713662142614

>  <Genealogy>  (12) 
CC[NH2+]c1ccc(C(=O)N=c2[n-]c3ccc(OC)cc3s2)cc1 (protonated)
CC[NH2+]c1ccc(C(=O)/N=c2/[n-]c3ccc(OC)cc3s2)cc1 (cis-trans isomerization)
CC[NH2+]c1ccc(C(=O)/N=c2/[n-]c3ccc(OC)cc3s2)cc1 (3D coordinates assigned)
CC[NH2+]c1ccc(C(=O)/N=c2/[n-]c3ccc(OC)cc3s2)cc1 (optimized conformer: 79.6713662142614 kcal/mol)

>  <smiles>  (12) 
CCNc1ccc(C(=O)N=c2[nH]c3ccc(OC)cc3s2)cc1

>  <score_type>  (12) 
oracle

>  <origin>  (12) 
adg

>  <m_score__min__energy>  (12) 
-9.6899999999999995

>  <m_primary>  (12) 
energy

$$$$
12:0
     RDKit          3D

 49 51  0  0  0  0  0  0  0  0999 V2000
    0.2290   21.5550  -35.7780 C   0  0  0  0  0  0  0  0  0  0  0  0
   -0.1660   20.1660  -35.2590 C   0  0  0  0  0  0  0  0  0  0  0  0
   -1.3170   20.2140  -34.3180 N   0  0  0  0  0  0  0  0  0  0  0  0
   -1.4000   18.9880  -33.4780 C   0  0  0  0  0  0  0  0  0  0  0  0
   -2.5040   18.0330  -33.9470 C   0  0  0  0  0  0  0  0  0  0  0  0
   -1.3320   21.4760  -33.5180 C   0  0  0  0  0  0  0  0  0  0  0  0
   -2.2470   21.4930  -32.2610 C   0  0  0  0  0  0  0  0  0  0  0  0
   -3.6740   21.0760  -32.5250 C   0  0  0  0  0  0  0  0  0  0  0  0
   -3.9770   20.6440  -33.6660 O   0  0  0  0  0  0  0  0  0  0  0  0
   -4.7130   21.2520  -31.5300 N   0  0  0  0  0  0  0  0  0  0  0  0
   -4.5980   22.2170  -30.4820 C   0  0  0  0  0  0  0  0  0  0  0  0
   -3.8620   21.9110  -29.3260 C   0  0  0  0  0  0  0  0  0  0  0  0
   -3.6880   22.8710  -28.3260 C   0  0  0  0  0  0  0  0  0  0  0  0
   -4.2630   24.1360  -28.4660 C   0  0  0  0  0  0  0  0  0  0  0  0
   -5.0420   24.4300  -29.5900 C   0  0  0  0  0  0  0  0  0  0  0  0
   -5.2470   23.4650  -30.5900 C   0  0  0  0  0  0  0  0  0  0  0  0
   -6.1100   23.8150  -31.7430 C   0  0  0  0  0  0  0  0  0  0  0  0
   -6.9260   22.9750  -32.4000 C   0  0  0  0  0  0  0  0  0  0  0  0
   -7.0880   21.5230  -32.1420 C   0  0  0  0  0  0  0  0  0  0  0  0
   -8.3430   20.9370  -32.3870 C   0  0  0  0  0  0  0  0  0  0  0  0
   -8.5280   19.5600  -32.2320 C   0  0  0  0  0  0  0  0  0  0  0  0
   -7.4570   18.7520  -31.8530 C   0  0  0  0  0  0  0  0  0  0  0  0
   -6.2000   19.3190  -31.6230 C   0  0  0  0  0  0  0  0  0  0  0  0
   -6.0100   20.6980  -31.7640 C   0  0  0  0  0  0  0  0  0  0  0  0
    0.4193   22.2243  -34.9260 H   0  0  0  0  0  0  0  0  0  0  0  0
    1.1393   21.4725  -36.3900 H   0  0  0  0  0  0  0  0  0  0  0  0
   -0.5885   21.9639  -36.3900 H   0  0  0  0  0  0  0  0  0  0  0  0
   -0.4382   19.5335  -36.1168 H   0  0  0  0  0  0  0  0  0  0  0  0
    0.6958   19.7571  -34.7113 H   0  0  0  0  0  0  0  0  0  0  0  0
   -2.1870   20.2490  -34.9060 H   0  0  0  0  0  0  0  0  0  0  0  0
   -0.4349   18.4622  -33.5237 H   0  0  0  0  0  0  0  0  0  0  0  0
   -1.6400   19.3002  -32.4509 H   0  0  0  0  0  0  0  0  0  0  0  0
   -3.0079   17.5971  -33.0718 H   0  0  0  0  0  0  0  0  0  0  0  0
   -3.2356   18.5877  -34.5528 H   0  0  0  0  0  0  0  0  0  0  0  0
   -2.0605   17.2291  -34.5528 H   0  0  0  0  0  0  0  0  0  0  0  0
   -0.3024   21.6715  -33.1839 H   0  0  0  0  0  0  0  0  0  0  0  0
   -1.7488   22.2404  -34.1903 H   0  0  0  0  0  0  0  0  0  0  0  0
   -1.8200   20.8067  -31.5149 H   0  0  0  0  0  0  0  0  0  0  0  0
   -2.2831   22.5355  -31.9120 H   0  0  0  0  0  0  0  0  0  0  0  0
   -3.4203   20.9106  -29.2072 H   0  0  0  0  0  0  0  0  0  0  0  0
   -3.0985   22.6306  -27.4289 H   0  0  0  0  0  0  0  0  0  0  0  0
   -4.1033   24.9013  -27.6922 H   0  0  0  0  0  0  0  0  0  0  0  0
   -5.4981   25.4258  -29.6917 H   0  0  0  0  0  0  0  0  0  0  0  0
   -6.0793   24.8576  -32.0923 H   0  0  0  0  0  0  0  0  0  0  0  0
   -7.5341   23.4058  -33.2091 H   0  0  0  0  0  0  0  0  0  0  0  0
   -9.1866   21.5680  -32.7035 H   0  0  0  0  0  0  0  0  0  0  0  0
   -9.5180   19.1143  -32.4090 H   0  0  0  0  0  0  0  0  0  0  0  0
   -7.6011   17.6679  -31.7349 H   0  0  0  0  0  0  0  0  0  0  0  0
   -5.3559   18.6776  -31.3296 H   0  0  0  0  0  0  0  0  0  0  0  0
  1  2  1  0
  2  3  1  0
  3  4  1  0
  4  5  1  0
  3  6  1  0
  6  7  1  0
  7  8  1  0
  8  9  2  0
  8 10  1  0
 10 11  1  0
 11 12  2  0
 12 13  1  0
 13 14  2  0
 14 15  1  0
 15 16  2  0
 16 17  1  0
 17 18  2  0
 18 19  1  0
 19 20  2  0
 20 21  1  0
 21 22  2  0
 22 23  1  0
 23 24  2  0
 24 10  1  0
 16 11  1  0
 24 19  1  0
  1 25  1  0
  1 26  1  0
  1 27  1  0
  2 28  1  0
  2 29  1  0
  3 30  1  0
  4 31  1  0
  4 32  1  0
  5 33  1  0
  5 34  1  0
  5 35  1  0
  6 36  1  0
  6 37  1  0
  7 38  1  0
  7 39  1  0
 12 40  1  0
 13 41  1  0
 14 42  1  0
 15 43  1  0
 17 44  1  0
 18 45  1  0
 20 46  1  0
 21 47  1  0
 22 48  1  0
 23 49  1  0
M  CHG  1   3   1
M  END
>  <UniqueID>  (13) 
13

>  <SMILES>  (13) 
CC[NH+](CC)CCC(=O)N1c2ccccc2C=Cc2ccccc21

>  <Energy>  (13) 
81.23959377252754

>  <Genealogy>  (13) 
CC[NH+](CC)CCC(=O)N1c2ccccc2C=Cc2ccccc21 (protonated)
CC[NH+](CC)CCC(=O)N1c2ccccc2C=Cc2ccccc21 (3D coordinates assigned)
CC[NH+](CC)CCC(=O)N1c2ccccc2C=Cc2ccccc21 (nonaromatic ring conformer: 81.23959377252754 kcal/mol)

>  <smiles>  (13) 
CCN(CC)CCC(=O)N1c2ccccc2C=Cc2ccccc21

>  <score_type>  (13) 
oracle

>  <origin>  (13) 
adg

>  <m_score__min__energy>  (13) 
-5.5999999999999996

>  <m_primary>  (13) 
energy

$$$$
13:0
     RDKit          3D

 49 52  0  0  0  0  0  0  0  0999 V2000
    0.6310   17.0610  -27.4870 C   0  0  0  0  0  0  0  0  0  0  0  0
    1.4550   17.7540  -28.5680 C   0  0  0  0  0  0  0  0  0  0  0  0
    1.3770   19.2170  -28.4300 N   0  0  0  0  0  0  0  0  0  0  0  0
    2.5810   19.9390  -28.0010 C   0  0  0  0  0  0  0  0  0  0  0  0
    0.1400   19.9380  -28.6700 C   0  0  0  0  0  0  0  0  0  0  0  0
   -0.8270   20.0640  -27.6520 C   0  0  0  0  0  0  0  0  0  0  0  0
   -2.0220   20.7510  -27.8820 C   0  0  0  0  0  0  0  0  0  0  0  0
   -2.2880   21.3130  -29.1380 C   0  0  0  0  0  0  0  0  0  0  0  0
   -3.5090   22.0330  -29.3800 N   0  0  0  0  0  0  0  0  0  0  0  0
   -4.5070   21.5380  -30.0890 N   0  0  0  0  0  0  0  0  0  0  0  0
   -5.4220   22.5240  -30.1840 C   0  0  0  0  0  0  0  0  0  0  0  0
   -6.7040   22.3890  -30.9080 C   0  0  0  0  0  0  0  0  0  0  0  0
   -7.4320   23.5310  -31.2870 C   0  0  0  0  0  0  0  0  0  0  0  0
   -8.6440   23.4000  -31.9720 C   0  0  0  0  0  0  0  0  0  0  0  0
   -9.1410   22.1330  -32.2830 C   0  0  0  0  0  0  0  0  0  0  0  0
   -8.4250   20.9910  -31.9100 C   0  0  0  0  0  0  0  0  0  0  0  0
   -9.1080   19.2580  -32.3360 Br  0  0  0  0  0  0  0  0  0  0  0  0
   -7.2120   21.1170  -31.2250 C   0  0  0  0  0  0  0  0  0  0  0  0
   -5.0330   23.6510  -29.5470 N   0  0  0  0  0  0  0  0  0  0  0  0
   -3.8290   23.3040  -29.0470 C   0  0  0  0  0  0  0  0  0  0  0  0
   -3.0390   24.2040  -28.1800 C   0  0  0  0  0  0  0  0  0  0  0  0
   -1.8110   24.7330  -28.6120 C   0  0  0  0  0  0  0  0  0  0  0  0
   -1.0700   25.5710  -27.7730 C   0  0  0  0  0  0  0  0  0  0  0  0
   -1.5400   25.8750  -26.4920 C   0  0  0  0  0  0  0  0  0  0  0  0
   -0.6090   26.9260  -25.4410 Cl  0  0  0  0  0  0  0  0  0  0  0  0
   -2.7490   25.3330  -26.0460 C   0  0  0  0  0  0  0  0  0  0  0  0
   -3.4930   24.4950  -26.8830 C   0  0  0  0  0  0  0  0  0  0  0  0
   -1.3260   21.2110  -30.1490 C   0  0  0  0  0  0  0  0  0  0  0  0
   -0.1290   20.5260  -29.9230 C   0  0  0  0  0  0  0  0  0  0  0  0
    0.9953   17.3674  -26.4953 H   0  0  0  0  0  0  0  0  0  0  0  0
   -0.4263   17.3453  -27.5931 H   0  0  0  0  0  0  0  0  0  0  0  0
    0.7299   15.9706  -27.5931 H   0  0  0  0  0  0  0  0  0  0  0  0
    2.5051   17.4391  -28.4778 H   0  0  0  0  0  0  0  0  0  0  0  0
    1.0526   17.4716  -29.5521 H   0  0  0  0  0  0  0  0  0  0  0  0
    2.6218   19.9635  -26.9020 H   0  0  0  0  0  0  0  0  0  0  0  0
    3.4736   19.4270  -28.3898 H   0  0  0  0  0  0  0  0  0  0  0  0
    2.5498   20.9675  -28.3898 H   0  0  0  0  0  0  0  0  0  0  0  0
   -0.6387   19.6163  -26.6650 H   0  0  0  0  0  0  0  0  0  0  0  0
   -2.7590   20.8514  -27.0716 H   0  0  0  0  0  0  0  0  0  0  0  0
   -7.0462   24.5319  -31.0435 H   0  0  0  0  0  0  0  0  0  0  0  0
   -9.2074   24.2977  -32.2666 H   0  0  0  0  0  0  0  0  0  0  0  0
  -10.0952   22.0330  -32.8211 H   0  0  0  0  0  0  0  0  0  0  0  0
   -6.6526   20.2161  -30.9328 H   0  0  0  0  0  0  0  0  0  0  0  0
   -1.4310   24.4868  -29.6145 H   0  0  0  0  0  0  0  0  0  0  0  0
   -0.1154   25.9919  -28.1216 H   0  0  0  0  0  0  0  0  0  0  0  0
   -3.1157   25.5659  -25.0354 H   0  0  0  0  0  0  0  0  0  0  0  0
   -4.4382   24.0618  -26.5238 H   0  0  0  0  0  0  0  0  0  0  0  0
   -1.5134   21.6736  -31.1293 H   0  0  0  0  0  0  0  0  0  0  0  0
    0.6119   20.4446  -30.7320 H   0  0  0  0  0  0  0  0  0  0  0  0
  1  2  1  0
  2  3  1  0
  3  4  1  0
  3  5  1  0
  5  6  2  0
  6  7  1  0
  7  8  2  0
  8  9  1  0
  9 10  1  0
 10 11  2  0
 11 12  1  0
 12 13  2  0
 13 14  1  0
 14 15  2  0
 15 16  1  0
 16 17  1  0
 16 18  2  0
 11 19  1  0
 19 20  2  0
 20 21  1  0
 21 22  2  0
 22 23  1  0
 23 24  2  0
 24 25  1  0
 24 26  1  0
 26 27  2  0
  8 28  1  0
 28 29  2  0
 29  5  1  0
 20  9  1  0
 27 21  1  0
 18 12  1  0
  1 30  1  0
  1 31  1  0
  1 32  1  0
  2 33  1  0
  2 34  1  0
  4 35  1  0
  4 36  1  0
  4 37  1  0
  6 38  1  0
  7 39  1  0
 13 40  1  0
 14 41  1  0
 15 42  1  0
 18 43  1  0
 22 44  1  0
 23 45  1  0
 26 46  1  0
 27 47  1  0
 28 48  1  0
 29 49  1  0
M  END
>  <UniqueID>  (14) 
14

>  <SMILES>  (14) 
CCN(C)c1ccc(-n2nc(-c3cccc(Br)c3)nc2-c2ccc(Cl)cc2)cc1

>  <Energy>  (14) 
95.03801381131099

>  <Genealogy>  (14) 
CCN(C)c1ccc(-n2nc(-c3cccc(Br)c3)nc2-c2ccc(Cl)cc2)cc1 (3D coordinates assigned)
CCN(C)c1ccc(-n2nc(-c3cccc(Br)c3)nc2-c2ccc(Cl)cc2)cc1 (optimized conformer: 95.03801381131099 kcal/mol)

>  <smiles>  (14) 
CCN(C)c1ccc(-n2nc(-c3cccc(Br)c3)nc2-c2ccc(Cl)cc2)cc1

>  <score_type>  (14) 
oracle

>  <origin>  (14) 
adg

>  <m_score__min__energy>  (14) 
-8.6300000000000008

>  <m_primary>  (14) 
energy

$$$$
14:0
     RDKit          3D

 51 54  0  0  0  0  0  0  0  0999 V2000
   -3.3508   20.2457  -33.5318 H   0  0  0  0  0  0  0  0  0  0  0  0
   -4.1490   20.7440  -32.9620 C   0  0  0  0  0  0  0  0  0  0  0  0
   -5.3940   20.7030  -33.4540 C   0  0  0  0  0  0  0  0  0  0  0  0
   -5.5209   20.8395  -34.5381 H   0  0  0  0  0  0  0  0  0  0  0  0
   -6.6090   20.4870  -32.6410 C   0  0  0  0  0  0  0  0  0  0  0  0
   -7.0990   19.2490  -32.2590 C   0  0  0  0  0  0  0  0  0  0  0  0
   -6.6416   18.2697  -32.4634 H   0  0  0  0  0  0  0  0  0  0  0  0
   -8.2710   19.4830  -31.5730 C   0  0  0  0  0  0  0  0  0  0  0  0
   -8.9249   18.7285  -31.1112 H   0  0  0  0  0  0  0  0  0  0  0  0
   -8.4640   20.8530  -31.5790 C   0  0  0  0  0  0  0  0  0  0  0  0
   -9.5820   21.5500  -30.8670 C   0  0  0  0  0  0  0  0  0  0  0  0
   -9.4373   21.4598  -29.7803 H   0  0  0  0  0  0  0  0  0  0  0  0
   -9.5898   22.6132  -31.1489 H   0  0  0  0  0  0  0  0  0  0  0  0
  -10.5401   21.0889  -31.1489 H   0  0  0  0  0  0  0  0  0  0  0  0
   -7.4510   21.4680  -32.2360 N   0  0  0  0  0  0  0  0  0  0  0  0
   -7.2260   22.9140  -32.3420 C   0  0  0  0  0  0  0  0  0  0  0  0
   -8.1870   23.4394  -32.2400 H   0  0  0  0  0  0  0  0  0  0  0  0
   -6.7778   23.1359  -33.3218 H   0  0  0  0  0  0  0  0  0  0  0  0
   -6.2890   23.3770  -31.2580 C   0  0  0  0  0  0  0  0  0  0  0  0
   -5.4890   24.5140  -31.4540 C   0  0  0  0  0  0  0  0  0  0  0  0
   -5.5708   25.0850  -32.3906 H   0  0  0  0  0  0  0  0  0  0  0  0
   -4.5890   24.9250  -30.4660 C   0  0  0  0  0  0  0  0  0  0  0  0
   -3.9672   25.8176  -30.6290 H   0  0  0  0  0  0  0  0  0  0  0  0
   -4.4750   24.2020  -29.2640 C   0  0  0  0  0  0  0  0  0  0  0  0
   -3.5810   24.5680  -28.2480 O   0  0  0  0  0  0  0  0  0  0  0  0
   -3.8840   24.5250  -26.8570 C   0  0  0  0  0  0  0  0  0  0  0  0
   -2.9592   24.6562  -26.2761 H   0  0  0  0  0  0  0  0  0  0  0  0
   -4.5896   25.3320  -26.6103 H   0  0  0  0  0  0  0  0  0  0  0  0
   -4.3372   23.5535  -26.6103 H   0  0  0  0  0  0  0  0  0  0  0  0
   -5.2790   23.0730  -29.0690 C   0  0  0  0  0  0  0  0  0  0  0  0
   -5.2034   22.5057  -28.1296 H   0  0  0  0  0  0  0  0  0  0  0  0
   -6.1770   22.6600  -30.0570 C   0  0  0  0  0  0  0  0  0  0  0  0
   -6.7994   21.7681  -29.8923 H   0  0  0  0  0  0  0  0  0  0  0  0
   -3.7840   21.4190  -31.6990 C   0  0  0  0  0  0  0  0  0  0  0  0
   -4.0064   22.4883  -31.5680 H   0  0  0  0  0  0  0  0  0  0  0  0
   -3.1850   20.7400  -30.7130 C   0  0  0  0  0  0  0  0  0  0  0  0
   -3.2699   19.6433  -30.7245 H   0  0  0  0  0  0  0  0  0  0  0  0
   -2.4130   21.3600  -29.6030 C   0  0  0  0  0  0  0  0  0  0  0  0
   -2.4270   20.8590  -28.2680 C   0  0  0  0  0  0  0  0  0  0  0  0
   -3.0299   19.9715  -28.0255 H   0  0  0  0  0  0  0  0  0  0  0  0
   -1.6770   21.4890  -27.2580 C   0  0  0  0  0  0  0  0  0  0  0  0
   -1.6865   21.1104  -26.2252 H   0  0  0  0  0  0  0  0  0  0  0  0
   -0.9240   22.6040  -27.6050 C   0  0  0  0  0  0  0  0  0  0  0  0
   -0.8970   23.0860  -28.8700 C   0  0  0  0  0  0  0  0  0  0  0  0
   -1.6240   22.4970  -29.8990 C   0  0  0  0  0  0  0  0  0  0  0  0
   -1.5866   22.9056  -30.9196 H   0  0  0  0  0  0  0  0  0  0  0  0
   -0.0710   24.1930  -28.9250 O   0  0  0  0  0  0  0  0  0  0  0  0
    0.4560   24.4160  -27.6100 C   0  0  0  0  0  0  0  0  0  0  0  0
    1.5534   24.3408  -27.6161 H   0  0  0  0  0  0  0  0  0  0  0  0
    0.2096   25.4193  -27.2324 H   0  0  0  0  0  0  0  0  0  0  0  0
   -0.1150   23.3810  -26.7970 O   0  0  0  0  0  0  0  0  0  0  0  0
  1  2  1  0
  2  3  2  0
  3  4  1  0
  3  5  1  0
  5  6  2  0
  6  7  1  0
  6  8  1  0
  8  9  1  0
  8 10  2  0
 10 11  1  0
 11 12  1  0
 11 13  1  0
 11 14  1  0
 10 15  1  0
 15 16  1  0
 16 17  1  0
 16 18  1  0
 16 19  1  0
 19 20  2  0
 20 21  1  0
 20 22  1  0
 22 23  1  0
 22 24  2  0
 24 25  1  0
 25 26  1  0
 26 27  1  0
 26 28  1  0
 26 29  1  0
 24 30  1  0
 30 31  1  0
 30 32  2  0
 32 33  1  0
  2 34  1  0
 34 35  1  0
 34 36  2  0
 36 37  1  0
 36 38  1  0
 38 39  2  0
 39 40  1  0
 39 41  1  0
 41 42  1  0
 41 43  2  0
 43 44  1  0
 44 45  2  0
 45 46  1  0
 44 47  1  0
 47 48  1  0
 48 49  1  0
 48 50  1  0
 48 51  1  0
 15  5  1  0
 32 19  1  0
 45 38  1  0
 51 43  1  0
M  END
>  <UniqueID>  (15) 
15

>  <SMILES>  (15) 
COc1ccc(Cn2c(C)ccc2/C=C\C=C\c2ccc3c(c2)OCO3)cc1

>  <Energy>  (15) 
111.34041040198201

>  <Genealogy>  (15) 
COc1ccc(Cn2c(C)ccc2/C=C\C=C\c2ccc3c(c2)OCO3)cc1 (cis-trans isomerization)
COc1ccc(Cn2c(C)ccc2/C=C\C=C\c2ccc3c(c2)OCO3)cc1 (3D coordinates assigned)
COc1ccc(Cn2c(C)ccc2/C=C\C=C\c2ccc3c(c2)OCO3)cc1 (nonaromatic ring conformer: 111.34041040198201 kcal/mol)

>  <smiles>  (15) 
COc1ccc(Cn2c(C)ccc2C=CC=Cc2ccc3c(c2)OCO3)cc1

>  <score_type>  (15) 
oracle

>  <origin>  (15) 
adg

>  <m_score__min__energy>  (15) 
-8.7400000000000002

>  <m_primary>  (15) 
energy

$$$$
15:0
     RDKit          3D

 29 29  0  0  0  0  0  0  0  0999 V2000
   -6.8120   25.2440  -30.0710 C   0  0  0  0  0  0  0  0  0  0  0  0
   -5.7100   24.9270  -29.7010 C   0  0  0  0  0  0  0  0  0  0  0  0
   -4.3670   24.5430  -29.2590 C   0  0  0  0  0  0  0  0  0  0  0  0
   -3.4640   24.5140  -30.4140 N   0  0  0  0  0  0  0  0  0  0  0  0
   -2.9920   23.1540  -30.7090 C   0  0  0  0  0  0  0  0  0  0  0  0
   -4.1580   22.1610  -30.8170 C   0  0  0  0  0  0  0  0  0  0  0  0
   -5.0830   22.3510  -32.3380 S   0  0  0  0  0  0  0  0  0  0  0  0
   -5.3900   23.8100  -32.5330 O   0  0  0  0  0  0  0  0  0  0  0  0
   -4.2440   21.8950  -33.4990 O   0  0  0  0  0  0  0  0  0  0  0  0
   -6.6140   21.4610  -32.2420 C   0  0  0  0  0  0  0  0  0  0  0  0
   -7.6610   22.0410  -31.5080 C   0  0  0  0  0  0  0  0  0  0  0  0
   -8.8850   21.3820  -31.3680 C   0  0  0  0  0  0  0  0  0  0  0  0
   -9.0780   20.1330  -31.9570 C   0  0  0  0  0  0  0  0  0  0  0  0
   -8.0450   19.5370  -32.6840 C   0  0  0  0  0  0  0  0  0  0  0  0
   -6.8120   20.1870  -32.8310 C   0  0  0  0  0  0  0  0  0  0  0  0
   -5.7700   19.5070  -33.5610 C   0  0  0  0  0  0  0  0  0  0  0  0
   -4.9300   18.9670  -34.1440 N   0  0  0  0  0  0  0  0  0  0  0  0
   -7.8181   25.5334  -30.4088 H   0  0  0  0  0  0  0  0  0  0  0  0
   -3.9994   25.2742  -28.5240 H   0  0  0  0  0  0  0  0  0  0  0  0
   -4.4036   23.5459  -28.7960 H   0  0  0  0  0  0  0  0  0  0  0  0
   -4.0020   24.8520  -31.2470 H   0  0  0  0  0  0  0  0  0  0  0  0
   -2.4437   23.1656  -31.6626 H   0  0  0  0  0  0  0  0  0  0  0  0
   -2.3401   22.8301  -29.8843 H   0  0  0  0  0  0  0  0  0  0  0  0
   -3.7552   21.1383  -30.7747 H   0  0  0  0  0  0  0  0  0  0  0  0
   -4.8449   22.3605  -29.9813 H   0  0  0  0  0  0  0  0  0  0  0  0
   -7.5160   23.0249  -31.0381 H   0  0  0  0  0  0  0  0  0  0  0  0
   -9.6976   21.8492  -30.7923 H   0  0  0  0  0  0  0  0  0  0  0  0
  -10.0436   19.6172  -31.8491 H   0  0  0  0  0  0  0  0  0  0  0  0
   -8.2003   18.5502  -33.1446 H   0  0  0  0  0  0  0  0  0  0  0  0
  1  2  3  0
  2  3  1  0
  3  4  1  0
  4  5  1  0
  5  6  1  0
  6  7  1  0
  7  8  2  0
  7  9  2  0
  7 10  1  0
 10 11  2  0
 11 12  1  0
 12 13  2  0
 13 14  1  0
 14 15  2  0
 15 16  1  0
 16 17  3  0
 15 10  1  0
  1 18  1  0
  3 19  1  0
  3 20  1  0
  4 21  1  0
  5 22  1  0
  5 23  1  0
  6 24  1  0
  6 25  1  0
 11 26  1  0
 12 27  1  0
 13 28  1  0
 14 29  1  0
M  END
>  <UniqueID>  (16) 
16

>  <SMILES>  (16) 
C#CCNCCS(=O)(=O)c1ccccc1C#N

>  <Energy>  (16) 
19.646939080935

>  <Genealogy>  (16) 
C#CCNCCS(=O)(=O)c1ccccc1C#N (3D coordinates assigned)
C#CCNCCS(=O)(=O)c1ccccc1C#N (optimized conformer: 19.646939080935 kcal/mol)

>  <smiles>  (16) 
C#CCNCCS(=O)(=O)c1ccccc1C#N

>  <score_type>  (16) 
oracle

>  <origin>  (16) 
adg

>  <m_score__min__energy>  (16) 
-6.5099999999999998

>  <m_primary>  (16) 
energy

$$$$
16:0
     RDKit          3D

 50 52  0  0  0  0  0  0  0  0999 V2000
   -6.8760   17.0690  -32.3190 C   0  0  0  0  0  0  0  0  0  0  0  0
   -5.4460   16.5500  -32.1390 C   0  0  0  0  0  0  0  0  0  0  0  0
   -4.7960   16.2030  -33.4230 N   0  0  2  0  0  0  0  0  0  0  0  0
   -3.4060   15.7830  -33.1810 C   0  0  0  0  0  0  0  0  0  0  0  0
   -4.8130   17.5420  -34.5550 S   0  0  0  0  0  0  0  0  0  0  0  0
   -3.6820   17.3960  -35.5350 O   0  0  0  0  0  0  0  0  0  0  0  0
   -6.0960   17.5240  -35.3410 O   0  0  0  0  0  0  0  0  0  0  0  0
   -4.6490   19.0960  -33.7320 C   0  0  0  0  0  0  0  0  0  0  0  0
   -3.3830   19.6760  -33.5790 C   0  0  0  0  0  0  0  0  0  0  0  0
   -3.2390   20.8970  -32.9140 C   0  0  0  0  0  0  0  0  0  0  0  0
   -4.3640   21.5560  -32.3980 C   0  0  0  0  0  0  0  0  0  0  0  0
   -4.2300   22.7790  -31.7250 C   0  0  0  0  0  0  0  0  0  0  0  0
   -5.3590   23.4270  -31.2060 C   0  0  0  0  0  0  0  0  0  0  0  0
   -5.1760   24.9540  -30.3460 S   0  0  0  0  0  0  0  0  0  0  0  0
   -5.9580   24.9100  -29.0620 O   0  0  0  0  0  0  0  0  0  0  0  0
   -5.7170   26.0580  -31.2080 O   0  0  0  0  0  0  0  0  0  0  0  0
   -3.4790   25.2500  -30.0460 N   0  0  0  0  0  0  0  0  0  0  0  0
   -2.8230   24.3420  -29.0880 C   0  0  0  0  0  0  0  0  0  0  0  0
   -3.8070   23.4720  -28.2980 C   0  0  0  0  0  0  0  0  0  0  0  0
   -3.2610   22.0480  -28.3590 C   0  0  0  0  0  0  0  0  0  0  0  0
   -1.8180   22.1610  -28.8320 C   0  0  0  0  0  0  0  0  0  0  0  0
   -1.7690   23.4090  -29.6940 C   0  0  0  0  0  0  0  0  0  0  0  0
   -6.6270   22.8530  -31.3680 C   0  0  0  0  0  0  0  0  0  0  0  0
   -6.7700   21.6340  -32.0350 C   0  0  0  0  0  0  0  0  0  0  0  0
   -5.6450   20.9770  -32.5540 C   0  0  0  0  0  0  0  0  0  0  0  0
   -5.7790   19.7500  -33.2210 C   0  0  0  0  0  0  0  0  0  0  0  0
   -7.3328   17.2348  -31.3322 H   0  0  0  0  0  0  0  0  0  0  0  0
   -6.8546   18.0167  -32.8770 H   0  0  0  0  0  0  0  0  0  0  0  0
   -7.4674   16.3282  -32.8770 H   0  0  0  0  0  0  0  0  0  0  0  0
   -4.8492   17.3291  -31.6422 H   0  0  0  0  0  0  0  0  0  0  0  0
   -5.5004   15.6314  -31.5363 H   0  0  0  0  0  0  0  0  0  0  0  0
   -5.2980   15.3980  -33.8640 H   0  0  0  0  0  0  0  0  0  0  0  0
   -3.2230   15.7277  -32.0977 H   0  0  0  0  0  0  0  0  0  0  0  0
   -3.2380   14.7940  -33.6322 H   0  0  0  0  0  0  0  0  0  0  0  0
   -2.7184   16.5135  -33.6322 H   0  0  0  0  0  0  0  0  0  0  0  0
   -2.4963   19.1671  -33.9849 H   0  0  0  0  0  0  0  0  0  0  0  0
   -2.2402   21.3422  -32.7951 H   0  0  0  0  0  0  0  0  0  0  0  0
   -3.2347   23.2315  -31.6040 H   0  0  0  0  0  0  0  0  0  0  0  0
   -2.3173   25.0517  -28.4168 H   0  0  0  0  0  0  0  0  0  0  0  0
   -3.8648   23.8137  -27.2540 H   0  0  0  0  0  0  0  0  0  0  0  0
   -4.8213   23.5306  -28.7196 H   0  0  0  0  0  0  0  0  0  0  0  0
   -3.2996   21.5827  -27.3630 H   0  0  0  0  0  0  0  0  0  0  0  0
   -3.8560   21.4215  -29.0398 H   0  0  0  0  0  0  0  0  0  0  0  0
   -1.1387   22.2607  -27.9726 H   0  0  0  0  0  0  0  0  0  0  0  0
   -1.5009   21.2676  -29.3899 H   0  0  0  0  0  0  0  0  0  0  0  0
   -0.7716   23.8709  -29.6514 H   0  0  0  0  0  0  0  0  0  0  0  0
   -1.9664   23.1908  -30.7539 H   0  0  0  0  0  0  0  0  0  0  0  0
   -7.5145   23.3650  -30.9678 H   0  0  0  0  0  0  0  0  0  0  0  0
   -7.7685   21.1879  -32.1535 H   0  0  0  0  0  0  0  0  0  0  0  0
   -6.7749   19.2992  -33.3436 H   0  0  0  0  0  0  0  0  0  0  0  0
  1  2  1  0
  2  3  1  0
  3  4  1  0
  3  5  1  0
  5  6  2  0
  5  7  2  0
  5  8  1  0
  8  9  2  0
  9 10  1  0
 10 11  2  0
 11 12  1  0
 12 13  2  0
 13 14  1  0
 14 15  2  0
 14 16  2  0
 14 17  1  0
 17 18  1  0
 18 19  1  0
 19 20  1  0
 20 21  1  0
 21 22  1  0
 13 23  1  0
 23 24  2  0
 24 25  1  0
 25 26  2  0
 26  8  1  0
 25 11  1  0
 22 18  1  0
  1 27  1  0
  1 28  1  0
  1 29  1  0
  2 30  1  0
  2 31  1  0
  3 32  1  6
  4 33  1  0
  4 34  1  0
  4 35  1  0
  9 36  1  0
 10 37  1  0
 12 38  1  0
 18 39  1  0
 19 40  1  0
 19 41  1  0
 20 42  1  0
 20 43  1  0
 21 44  1  0
 21 45  1  0
 22 46  1  0
 22 47  1  0
 23 48  1  0
 24 49  1  0
 26 50  1  0
M  CHG  2   3   1  17  -1
M  END
>  <UniqueID>  (17) 
17

>  <SMILES>  (17) 
CC[N@H+](C)S(=O)(=O)c1ccc2cc(S(=O)(=O)[N-]C3CCCC3)ccc2c1

>  <Energy>  (17) 
57.29506758271245

>  <Genealogy>  (17) 
CC[NH+](C)S(=O)(=O)c1ccc2cc(S(=O)(=O)[N-]C3CCCC3)ccc2c1 (protonated)
CC[N@H+](C)S(=O)(=O)c1ccc2cc(S(=O)(=O)[N-]C3CCCC3)ccc2c1 (chirality)
CC[N@H+](C)S(=O)(=O)c1ccc2cc(S(=O)(=O)[N-]C3CCCC3)ccc2c1 (3D coordinates assigned)
CC[N@H+](C)S(=O)(=O)c1ccc2cc(S(=O)(=O)[N-]C3CCCC3)ccc2c1 (nonaromatic ring conformer: 57.29506758271245 kcal/mol)

>  <smiles>  (17) 
CCN(C)S(=O)(=O)c1ccc2cc(S(=O)(=O)NC3CCCC3)ccc2c1

>  <score_type>  (17) 
oracle

>  <origin>  (17) 
adg

>  <m_score__min__energy>  (17) 
-9.7599999999999998

>  <m_primary>  (17) 
energy

$$$$
17:0
     RDKit          3D

 45 46  0  0  0  0  0  0  0  0999 V2000
   -2.4290   23.8670  -29.1660 C   0  0  0  0  0  0  0  0  0  0  0  0
   -3.7370   24.5520  -29.5470 C   0  0  0  0  0  0  0  0  0  0  0  0
   -4.2060   24.1060  -30.8850 N   0  0  0  0  0  0  0  0  0  0  0  0
   -5.6340   24.4570  -31.0680 C   0  0  0  0  0  0  0  0  0  0  0  0
   -6.1280   25.2930  -29.8890 C   0  0  0  0  0  0  0  0  0  0  0  0
   -3.9810   22.6480  -31.0390 C   0  0  0  0  0  0  0  0  0  0  0  0
   -3.0700   22.2810  -32.2350 C   0  0  0  0  0  0  0  0  0  0  0  0
   -3.8030   21.9130  -33.4610 N   0  0  0  0  0  0  0  0  0  0  0  0
   -4.8400   20.9360  -33.2110 C   0  0  0  0  0  0  0  0  0  0  0  0
   -6.0880   21.3550  -32.7210 C   0  0  0  0  0  0  0  0  0  0  0  0
   -7.1180   20.4340  -32.4960 C   0  0  0  0  0  0  0  0  0  0  0  0
   -8.3700   20.8620  -32.0260 C   0  0  0  0  0  0  0  0  0  0  0  0
   -9.3930   19.9340  -31.8120 C   0  0  0  0  0  0  0  0  0  0  0  0
   -9.1750   18.5780  -32.0620 C   0  0  0  0  0  0  0  0  0  0  0  0
   -7.9320   18.1390  -32.5270 C   0  0  0  0  0  0  0  0  0  0  0  0
   -6.8960   19.0620  -32.7480 C   0  0  0  0  0  0  0  0  0  0  0  0
   -5.6450   18.6330  -33.2090 C   0  0  0  0  0  0  0  0  0  0  0  0
   -4.6070   19.5590  -33.4330 C   0  0  0  0  0  0  0  0  0  0  0  0
   -3.3360   19.1500  -33.8690 O   0  0  0  0  0  0  0  0  0  0  0  0
   -2.8710   17.8040  -33.8630 C   0  0  0  0  0  0  0  0  0  0  0  0
   -2.3440   23.8225  -28.0702 H   0  0  0  0  0  0  0  0  0  0  0  0
   -2.4164   22.8465  -29.5765 H   0  0  0  0  0  0  0  0  0  0  0  0
   -1.5830   24.4378  -29.5765 H   0  0  0  0  0  0  0  0  0  0  0  0
   -4.5032   24.3052  -28.7973 H   0  0  0  0  0  0  0  0  0  0  0  0
   -3.5649   25.6379  -29.5818 H   0  0  0  0  0  0  0  0  0  0  0  0
   -5.7498   25.0349  -31.9968 H   0  0  0  0  0  0  0  0  0  0  0  0
   -6.2262   23.5317  -31.1245 H   0  0  0  0  0  0  0  0  0  0  0  0
   -5.8393   24.8045  -28.9466 H   0  0  0  0  0  0  0  0  0  0  0  0
   -5.6770   26.2952  -29.9356 H   0  0  0  0  0  0  0  0  0  0  0  0
   -7.2235   25.3814  -29.9356 H   0  0  0  0  0  0  0  0  0  0  0  0
   -3.5137   22.2697  -30.1178 H   0  0  0  0  0  0  0  0  0  0  0  0
   -4.9626   22.1902  -31.2308 H   0  0  0  0  0  0  0  0  0  0  0  0
   -2.4316   23.1477  -32.4614 H   0  0  0  0  0  0  0  0  0  0  0  0
   -2.4926   21.3947  -31.9331 H   0  0  0  0  0  0  0  0  0  0  0  0
   -3.1280   21.5700  -34.1830 H   0  0  0  0  0  0  0  0  0  0  0  0
   -4.2450   22.7750  -33.8570 H   0  0  0  0  0  0  0  0  0  0  0  0
   -6.2583   22.4213  -32.5112 H   0  0  0  0  0  0  0  0  0  0  0  0
   -8.5460   21.9292  -31.8259 H   0  0  0  0  0  0  0  0  0  0  0  0
  -10.3731   20.2732  -31.4454 H   0  0  0  0  0  0  0  0  0  0  0  0
   -9.9842   17.8524  -31.8925 H   0  0  0  0  0  0  0  0  0  0  0  0
   -7.7647   17.0691  -32.7202 H   0  0  0  0  0  0  0  0  0  0  0  0
   -5.4713   17.5634  -33.3979 H   0  0  0  0  0  0  0  0  0  0  0  0
   -2.7527   17.4616  -32.8244 H   0  0  0  0  0  0  0  0  0  0  0  0
   -3.5995   17.1621  -34.3800 H   0  0  0  0  0  0  0  0  0  0  0  0
   -1.9016   17.7486  -34.3800 H   0  0  0  0  0  0  0  0  0  0  0  0
  1  2  1  0
  2  3  1  0
  3  4  1  0
  4  5  1  0
  3  6  1  0
  6  7  1  0
  7  8  1  0
  8  9  1  0
  9 10  2  0
 10 11  1  0
 11 12  2  0
 12 13  1  0
 13 14  2  0
 14 15  1  0
 15 16  2  0
 16 17  1  0
 17 18  2  0
 18 19  1  0
 19 20  1  0
 18  9  1  0
 16 11  1  0
  1 21  1  0
  1 22  1  0
  1 23  1  0
  2 24  1  0
  2 25  1  0
  4 26  1  0
  4 27  1  0
  5 28  1  0
  5 29  1  0
  5 30  1  0
  6 31  1  0
  6 32  1  0
  7 33  1  0
  7 34  1  0
  8 35  1  0
  8 36  1  0
 10 37  1  0
 12 38  1  0
 13 39  1  0
 14 40  1  0
 15 41  1  0
 17 42  1  0
 20 43  1  0
 20 44  1  0
 20 45  1  0
M  CHG  1   8   1
M  END
>  <UniqueID>  (18) 
18

>  <SMILES>  (18) 
CCN(CC)CC[NH2+]c1cc2ccccc2cc1OC

>  <Energy>  (18) 
46.28852166994103

>  <Genealogy>  (18) 
CCN(CC)CC[NH2+]c1cc2ccccc2cc1OC (protonated)
CCN(CC)CC[NH2+]c1cc2ccccc2cc1OC (3D coordinates assigned)
CCN(CC)CC[NH2+]c1cc2ccccc2cc1OC (optimized conformer: 46.28852166994103 kcal/mol)

>  <smiles>  (18) 
CCN(CC)CCNc1cc2ccccc2cc1OC

>  <score_type>  (18) 
oracle

>  <origin>  (18) 
adg

>  <m_score__min__energy>  (18) 
-6.8600000000000003

>  <m_primary>  (18) 
energy

$$$$
18:0
     RDKit          3D

 42 45  0  0  0  0  0  0  0  0999 V2000
   -2.7020   20.6910  -28.2210 C   0  0  0  0  0  0  0  0  0  0  0  0
   -3.2770   20.7830  -29.5200 O   0  0  0  0  0  0  0  0  0  0  0  0
   -2.5410   20.7960  -30.7170 C   0  0  0  0  0  0  0  0  0  0  0  0
   -1.1860   21.1810  -30.7560 C   0  0  0  0  0  0  0  0  0  0  0  0
   -0.4830   21.1690  -31.9630 C   0  0  0  0  0  0  0  0  0  0  0  0
   -1.1160   20.7670  -33.1400 C   0  0  0  0  0  0  0  0  0  0  0  0
   -0.4300   20.7560  -34.3090 F   0  0  0  0  0  0  0  0  0  0  0  0
   -2.4570   20.3780  -33.1130 C   0  0  0  0  0  0  0  0  0  0  0  0
   -3.1770   20.4030  -31.9110 C   0  0  0  0  0  0  0  0  0  0  0  0
   -4.6000   20.0280  -31.9200 C   0  0  0  0  0  0  0  0  0  0  0  0
   -5.0160   18.7600  -31.6690 N   0  0  0  0  0  0  0  0  0  0  0  0
   -6.3460   18.8370  -31.8460 C   0  0  0  0  0  0  0  0  0  0  0  0
   -7.2740   17.8050  -31.7320 C   0  0  0  0  0  0  0  0  0  0  0  0
   -8.6220   18.1020  -32.0010 C   0  0  0  0  0  0  0  0  0  0  0  0
   -9.0050   19.4080  -32.3790 C   0  0  0  0  0  0  0  0  0  0  0  0
   -8.0420   20.4290  -32.4910 C   0  0  0  0  0  0  0  0  0  0  0  0
   -6.7130   20.1030  -32.2070 C   0  0  0  0  0  0  0  0  0  0  0  0
   -5.6120   20.8760  -32.2570 N   0  0  0  0  0  0  0  0  0  0  0  0
   -5.4970   22.2670  -32.7190 C   0  0  0  0  0  0  0  0  0  0  0  0
   -5.6090   23.2240  -31.5540 C   0  0  0  0  0  0  0  0  0  0  0  0
   -4.4380   23.5930  -30.8670 C   0  0  0  0  0  0  0  0  0  0  0  0
   -4.4980   24.4490  -29.7650 C   0  0  0  0  0  0  0  0  0  0  0  0
   -5.7260   24.9580  -29.3420 C   0  0  0  0  0  0  0  0  0  0  0  0
   -6.8950   24.6200  -30.0260 C   0  0  0  0  0  0  0  0  0  0  0  0
   -6.8490   23.7650  -31.1330 C   0  0  0  0  0  0  0  0  0  0  0  0
   -8.3640   23.4170  -31.9630 Cl  0  0  0  0  0  0  0  0  0  0  0  0
   -3.4884   20.8168  -27.4622 H   0  0  0  0  0  0  0  0  0  0  0  0
   -2.2286   19.7057  -28.0985 H   0  0  0  0  0  0  0  0  0  0  0  0
   -1.9448   21.4794  -28.0985 H   0  0  0  0  0  0  0  0  0  0  0  0
   -0.6791   21.4927  -29.8309 H   0  0  0  0  0  0  0  0  0  0  0  0
    0.5727   21.4773  -31.9858 H   0  0  0  0  0  0  0  0  0  0  0  0
   -2.9505   20.0503  -34.0399 H   0  0  0  0  0  0  0  0  0  0  0  0
   -6.9629   16.7908  -31.4411 H   0  0  0  0  0  0  0  0  0  0  0  0
   -9.3830   17.3122  -31.9165 H   0  0  0  0  0  0  0  0  0  0  0  0
  -10.0623   19.6288  -32.5872 H   0  0  0  0  0  0  0  0  0  0  0  0
   -8.3259   21.4483  -32.7917 H   0  0  0  0  0  0  0  0  0  0  0  0
   -4.5220   22.4060  -33.2090 H   0  0  0  0  0  0  0  0  0  0  0  0
   -6.3116   22.4742  -33.4286 H   0  0  0  0  0  0  0  0  0  0  0  0
   -3.4651   23.2033  -31.2012 H   0  0  0  0  0  0  0  0  0  0  0  0
   -3.5763   24.7220  -29.2303 H   0  0  0  0  0  0  0  0  0  0  0  0
   -5.7732   25.6259  -28.4692 H   0  0  0  0  0  0  0  0  0  0  0  0
   -7.8601   25.0290  -29.6922 H   0  0  0  0  0  0  0  0  0  0  0  0
  1  2  1  0
  2  3  1  0
  3  4  2  0
  4  5  1  0
  5  6  2  0
  6  7  1  0
  6  8  1  0
  8  9  2  0
  9 10  1  0
 10 11  2  0
 11 12  1  0
 12 13  2  0
 13 14  1  0
 14 15  2  0
 15 16  1  0
 16 17  2  0
 17 18  1  0
 18 19  1  0
 19 20  1  0
 20 21  2  0
 21 22  1  0
 22 23  2  0
 23 24  1  0
 24 25  2  0
 25 26  1  0
  9  3  1  0
 18 10  1  0
 25 20  1  0
 17 12  1  0
  1 27  1  0
  1 28  1  0
  1 29  1  0
  4 30  1  0
  5 31  1  0
  8 32  1  0
 13 33  1  0
 14 34  1  0
 15 35  1  0
 16 36  1  0
 19 37  1  0
 19 38  1  0
 21 39  1  0
 22 40  1  0
 23 41  1  0
 24 42  1  0
M  END
>  <UniqueID>  (19) 
19

>  <SMILES>  (19) 
COc1ccc(F)cc1-c1nc2ccccc2n1Cc1ccccc1Cl

>  <Energy>  (19) 
89.21702146960357

>  <Genealogy>  (19) 
COc1ccc(F)cc1-c1nc2ccccc2n1Cc1ccccc1Cl (3D coordinates assigned)
COc1ccc(F)cc1-c1nc2ccccc2n1Cc1ccccc1Cl (optimized conformer: 89.21702146960357 kcal/mol)

>  <smiles>  (19) 
COc1ccc(F)cc1-c1nc2ccccc2n1Cc1ccccc1Cl

>  <score_type>  (19) 
oracle

>  <origin>  (19) 
adg

>  <m_score__min__energy>  (19) 
-8.1400000000000006

>  <m_primary>  (19) 
energy

$$$$
19:0
     RDKit          3D

 62 64  0  0  0  0  0  0  0  0999 V2000
   -6.6139   23.5539  -32.1372 H   0  0  0  0  0  0  0  0  0  0  0  0
   -5.8760   22.8730  -31.6880 C   0  0  0  0  0  0  0  0  0  0  0  0
   -5.1230   21.9550  -32.5640 C   0  0  0  0  0  0  0  0  0  0  0  0
   -4.1610   22.3830  -33.2580 O   0  0  0  0  0  0  0  0  0  0  0  0
   -5.4600   20.5150  -32.6070 C   0  0  0  0  0  0  0  0  0  0  0  0
   -6.8110   20.1120  -32.6700 C   0  0  0  0  0  0  0  0  0  0  0  0
   -7.8140   21.0960  -32.6610 O   0  0  0  0  0  0  0  0  0  0  0  0
   -9.0500   20.9910  -31.9620 C   0  0  0  0  0  0  0  0  0  0  0  0
   -8.8610   21.0071  -30.8785 H   0  0  0  0  0  0  0  0  0  0  0  0
   -9.6980   21.8373  -32.2338 H   0  0  0  0  0  0  0  0  0  0  0  0
   -9.5459   20.0475  -32.2338 H   0  0  0  0  0  0  0  0  0  0  0  0
   -7.1230   18.7420  -32.7580 C   0  0  0  0  0  0  0  0  0  0  0  0
   -8.1757   18.4253  -32.7959 H   0  0  0  0  0  0  0  0  0  0  0  0
   -6.1050   17.7750  -32.7980 C   0  0  0  0  0  0  0  0  0  0  0  0
   -6.3760   16.4020  -32.8930 O   0  0  0  0  0  0  0  0  0  0  0  0
   -5.3900   15.3970  -33.0980 C   0  0  0  0  0  0  0  0  0  0  0  0
   -5.0312   15.0313  -32.1246 H   0  0  0  0  0  0  0  0  0  0  0  0
   -5.8293   14.5623  -33.6640 H   0  0  0  0  0  0  0  0  0  0  0  0
   -4.5471   15.8203  -33.6640 H   0  0  0  0  0  0  0  0  0  0  0  0
   -4.7720   18.1830  -32.7380 C   0  0  0  0  0  0  0  0  0  0  0  0
   -3.9729   17.4277  -32.7689 H   0  0  0  0  0  0  0  0  0  0  0  0
   -4.4350   19.5400  -32.6390 C   0  0  0  0  0  0  0  0  0  0  0  0
   -3.0060   19.9130  -32.5250 C   0  0  0  0  0  0  0  0  0  0  0  0
   -2.5840   20.7180  -31.4550 C   0  0  0  0  0  0  0  0  0  0  0  0
   -3.3125   21.0500  -30.7006 H   0  0  0  0  0  0  0  0  0  0  0  0
   -1.2460   21.1000  -31.3420 C   0  0  0  0  0  0  0  0  0  0  0  0
   -0.9237   21.7333  -30.5023 H   0  0  0  0  0  0  0  0  0  0  0  0
   -0.3170   20.6780  -32.2950 C   0  0  0  0  0  0  0  0  0  0  0  0
    0.7366   20.9809  -32.2050 H   0  0  0  0  0  0  0  0  0  0  0  0
   -0.7210   19.8720  -33.3630 C   0  0  0  0  0  0  0  0  0  0  0  0
    0.0171   19.5409  -34.1084 H   0  0  0  0  0  0  0  0  0  0  0  0
   -2.0700   19.4810  -33.4900 C   0  0  0  0  0  0  0  0  0  0  0  0
   -2.5140   18.6830  -34.5570 O   0  0  0  0  0  0  0  0  0  0  0  0
   -2.2120   17.2990  -34.7130 C   0  0  0  0  0  0  0  0  0  0  0  0
   -2.1101   16.8320  -33.7223 H   0  0  0  0  0  0  0  0  0  0  0  0
   -3.0239   16.8069  -35.2686 H   0  0  0  0  0  0  0  0  0  0  0  0
   -1.2689   17.1898  -35.2686 H   0  0  0  0  0  0  0  0  0  0  0  0
   -5.6880   22.9020  -30.3630 C   0  0  0  0  0  0  0  0  0  0  0  0
   -6.5653   22.8317  -29.7031 H   0  0  0  0  0  0  0  0  0  0  0  0
   -4.3460   23.0250  -29.7510 C   0  0  0  0  0  0  0  0  0  0  0  0
   -3.8220   21.9860  -28.9590 C   0  0  0  0  0  0  0  0  0  0  0  0
   -4.3836   21.0461  -28.8532 H   0  0  0  0  0  0  0  0  0  0  0  0
   -2.5870   22.1370  -28.3010 C   0  0  0  0  0  0  0  0  0  0  0  0
   -2.0420   21.1210  -27.4980 O   0  0  0  0  0  0  0  0  0  0  0  0
   -2.7420   19.9490  -27.0920 C   0  0  0  0  0  0  0  0  0  0  0  0
   -2.7706   19.9011  -25.9934 H   0  0  0  0  0  0  0  0  0  0  0  0
   -3.7691   19.9809  -27.4845 H   0  0  0  0  0  0  0  0  0  0  0  0
   -2.2269   19.0598  -27.4845 H   0  0  0  0  0  0  0  0  0  0  0  0
   -1.8710   23.3360  -28.4320 C   0  0  0  0  0  0  0  0  0  0  0  0
   -0.6430   23.4570  -27.7630 O   0  0  0  0  0  0  0  0  0  0  0  0
   -0.4970   23.5380  -26.3500 C   0  0  0  0  0  0  0  0  0  0  0  0
   -1.3600   23.0592  -25.8642 H   0  0  0  0  0  0  0  0  0  0  0  0
    0.4266   23.0233  -26.0467 H   0  0  0  0  0  0  0  0  0  0  0  0
   -0.4448   24.5941  -26.0467 H   0  0  0  0  0  0  0  0  0  0  0  0
   -2.3970   24.3760  -29.2200 C   0  0  0  0  0  0  0  0  0  0  0  0
   -1.8420   25.3211  -29.3130 H   0  0  0  0  0  0  0  0  0  0  0  0
   -3.6160   24.2230  -29.8860 C   0  0  0  0  0  0  0  0  0  0  0  0
   -4.0830   25.2800  -30.6730 O   0  0  0  0  0  0  0  0  0  0  0  0
   -5.3430   25.9000  -30.4350 C   0  0  0  0  0  0  0  0  0  0  0  0
   -5.5119   25.9831  -29.3512 H   0  0  0  0  0  0  0  0  0  0  0  0
   -5.3486   26.9037  -30.8850 H   0  0  0  0  0  0  0  0  0  0  0  0
   -6.1417   25.2920  -30.8850 H   0  0  0  0  0  0  0  0  0  0  0  0
  1  2  1  0
  2  3  1  0
  3  4  2  0
  3  5  1  0
  5  6  2  0
  6  7  1  0
  7  8  1  0
  8  9  1  0
  8 10  1  0
  8 11  1  0
  6 12  1  0
 12 13  1  0
 12 14  2  0
 14 15  1  0
 15 16  1  0
 16 17  1  0
 16 18  1  0
 16 19  1  0
 14 20  1  0
 20 21  1  0
 20 22  2  0
 22 23  1  0
 23 24  2  0
 24 25  1  0
 24 26  1  0
 26 27  1  0
 26 28  2  0
 28 29  1  0
 28 30  1  0
 30 31  1  0
 30 32  2  0
 32 33  1  0
 33 34  1  0
 34 35  1  0
 34 36  1  0
 34 37  1  0
  2 38  2  0
 38 39  1  0
 38 40  1  0
 40 41  2  0
 41 42  1  0
 41 43  1  0
 43 44  1  0
 44 45  1  0
 45 46  1  0
 45 47  1  0
 45 48  1  0
 43 49  2  0
 49 50  1  0
 50 51  1  0
 51 52  1  0
 51 53  1  0
 51 54  1  0
 49 55  1  0
 55 56  1  0
 55 57  2  0
 57 58  1  0
 58 59  1  0
 59 60  1  0
 59 61  1  0
 59 62  1  0
 22  5  1  0
 32 23  1  0
 57 40  1  0
M  END
>  <UniqueID>  (20) 
20

>  <SMILES>  (20) 
COc1cc(OC)c(C(=O)/C=C/c2cc(OC)c(OC)cc2OC)c(-c2ccccc2OC)c1

>  <Energy>  (20) 
82.58207050850618

>  <Genealogy>  (20) 
COc1cc(OC)c(C(=O)/C=C/c2cc(OC)c(OC)cc2OC)c(-c2ccccc2OC)c1 (cis-trans isomerization)
COc1cc(OC)c(C(=O)/C=C/c2cc(OC)c(OC)cc2OC)c(-c2ccccc2OC)c1 (3D coordinates assigned)
COc1cc(OC)c(C(=O)/C=C/c2cc(OC)c(OC)cc2OC)c(-c2ccccc2OC)c1 (optimized conformer: 82.58207050850618 kcal/mol)

>  <smiles>  (20) 
COc1cc(OC)c(C(=O)C=Cc2cc(OC)c(OC)cc2OC)c(-c2ccccc2OC)c1

>  <score_type>  (20) 
oracle

>  <origin>  (20) 
adg

>  <m_score__min__energy>  (20) 
-9.1199999999999992

>  <m_primary>  (20) 
energy

$$$$
20:0
     RDKit          3D

 50 52  0  0  0  0  0  0  0  0999 V2000
   -4.2480   23.7430  -28.5620 C   0  0  0  0  0  0  0  0  0  0  0  0
   -3.3030   24.5210  -29.4710 C   0  0  0  0  0  0  0  0  0  0  0  0
   -4.0200   25.0990  -30.5440 O   0  0  0  0  0  0  0  0  0  0  0  0
   -5.3640   24.6650  -30.5330 C   0  0  0  0  0  0  0  0  0  0  0  0
   -5.7450   24.1780  -31.9290 C   0  0  0  0  0  0  0  0  0  0  0  0
   -6.1200   22.7500  -31.8960 N   0  0  0  0  0  0  0  0  0  0  0  0
   -5.1540   21.7670  -31.8780 C   0  0  0  0  0  0  0  0  0  0  0  0
   -3.3930   22.1470  -31.8650 S   0  0  0  0  0  0  0  0  0  0  0  0
   -2.8940   20.3950  -31.8320 C   0  0  0  0  0  0  0  0  0  0  0  0
   -3.1370   19.7800  -33.1830 C   0  0  0  0  0  0  0  0  0  0  0  0
   -2.5340   20.2310  -34.1490 O   0  0  0  0  0  0  0  0  0  0  0  0
   -4.0580   18.6710  -33.3470 N   0  0  0  0  0  0  0  0  0  0  0  0
   -4.9700   18.9200  -34.4840 C   0  0  0  0  0  0  0  0  0  0  0  0
   -5.7490   17.6440  -34.8700 C   0  0  0  0  0  0  0  0  0  0  0  0
   -5.6430   16.6560  -33.8640 O   0  0  0  0  0  0  0  0  0  0  0  0
   -4.2960   16.2290  -33.7520 C   0  0  0  0  0  0  0  0  0  0  0  0
   -3.3200   17.4080  -33.5370 C   0  0  0  0  0  0  0  0  0  0  0  0
   -5.5090   20.4570  -31.8830 N   0  0  0  0  0  0  0  0  0  0  0  0
   -6.8030   20.0700  -31.9080 C   0  0  0  0  0  0  0  0  0  0  0  0
   -7.1280   18.7070  -31.9070 C   0  0  0  0  0  0  0  0  0  0  0  0
   -8.4650   18.3060  -31.9400 C   0  0  0  0  0  0  0  0  0  0  0  0
   -9.4830   19.2640  -31.9760 C   0  0  0  0  0  0  0  0  0  0  0  0
   -9.1680   20.6260  -31.9780 C   0  0  0  0  0  0  0  0  0  0  0  0
   -7.8210   21.0390  -31.9430 C   0  0  0  0  0  0  0  0  0  0  0  0
   -7.4480   22.3940  -31.9460 C   0  0  0  0  0  0  0  0  0  0  0  0
   -8.3440   23.2840  -31.9990 O   0  0  0  0  0  0  0  0  0  0  0  0
   -3.9979   23.9489  -27.5108 H   0  0  0  0  0  0  0  0  0  0  0  0
   -5.2848   24.0528  -28.7597 H   0  0  0  0  0  0  0  0  0  0  0  0
   -4.1431   22.6660  -28.7597 H   0  0  0  0  0  0  0  0  0  0  0  0
   -2.8143   25.3172  -28.8903 H   0  0  0  0  0  0  0  0  0  0  0  0
   -2.5471   23.8318  -29.8755 H   0  0  0  0  0  0  0  0  0  0  0  0
   -5.4792   23.8422  -29.8120 H   0  0  0  0  0  0  0  0  0  0  0  0
   -6.0194   25.4985  -30.2404 H   0  0  0  0  0  0  0  0  0  0  0  0
   -6.5975   24.7674  -32.2975 H   0  0  0  0  0  0  0  0  0  0  0  0
   -4.8799   24.3025  -32.5968 H   0  0  0  0  0  0  0  0  0  0  0  0
   -1.8250   20.3226  -31.5829 H   0  0  0  0  0  0  0  0  0  0  0  0
   -3.4838   19.8595  -31.0734 H   0  0  0  0  0  0  0  0  0  0  0  0
   -4.6410   18.5770  -32.4810 H   0  0  0  0  0  0  0  0  0  0  0  0
   -5.6866   19.7057  -34.2028 H   0  0  0  0  0  0  0  0  0  0  0  0
   -4.3676   19.2334  -35.3494 H   0  0  0  0  0  0  0  0  0  0  0  0
   -6.8095   17.9000  -35.0111 H   0  0  0  0  0  0  0  0  0  0  0  0
   -5.3199   17.2419  -35.7996 H   0  0  0  0  0  0  0  0  0  0  0  0
   -4.2133   15.5416  -32.8973 H   0  0  0  0  0  0  0  0  0  0  0  0
   -4.0215   15.7342  -34.6953 H   0  0  0  0  0  0  0  0  0  0  0  0
   -2.7071   17.2108  -32.6451 H   0  0  0  0  0  0  0  0  0  0  0  0
   -2.6810   17.5035  -34.4272 H   0  0  0  0  0  0  0  0  0  0  0  0
   -6.3286   17.9518  -31.8802 H   0  0  0  0  0  0  0  0  0  0  0  0
   -8.7178   17.2354  -31.9377 H   0  0  0  0  0  0  0  0  0  0  0  0
  -10.5353   18.9448  -32.0028 H   0  0  0  0  0  0  0  0  0  0  0  0
   -9.9722   21.3760  -32.0069 H   0  0  0  0  0  0  0  0  0  0  0  0
  1  2  1  0
  2  3  1  0
  3  4  1  0
  4  5  1  0
  5  6  1  0
  6  7  1  0
  7  8  1  0
  8  9  1  0
  9 10  1  0
 10 11  2  0
 10 12  1  0
 12 13  1  0
 13 14  1  0
 14 15  1  0
 15 16  1  0
 16 17  1  0
  7 18  2  0
 18 19  1  0
 19 20  2  0
 20 21  1  0
 21 22  2  0
 22 23  1  0
 23 24  2  0
 24 25  1  0
 25 26  2  0
 25  6  1  0
 17 12  1  0
 24 19  1  0
  1 27  1  0
  1 28  1  0
  1 29  1  0
  2 30  1  0
  2 31  1  0
  4 32  1  0
  4 33  1  0
  5 34  1  0
  5 35  1  0
  9 36  1  0
  9 37  1  0
 12 38  1  0
 13 39  1  0
 13 40  1  0
 14 41  1  0
 14 42  1  0
 16 43  1  0
 16 44  1  0
 17 45  1  0
 17 46  1  0
 20 47  1  0
 21 48  1  0
 22 49  1  0
 23 50  1  0
M  CHG  1  12   1
M  END
>  <UniqueID>  (21) 
21

>  <SMILES>  (21) 
CCOCCn1c(SCC(=O)[NH+]2CCOCC2)nc2ccccc2c1=O

>  <Energy>  (21) 
60.786184143309264

>  <Genealogy>  (21) 
CCOCCn1c(SCC(=O)[NH+]2CCOCC2)nc2ccccc2c1=O (protonated)
CCOCCn1c(SCC(=O)[NH+]2CCOCC2)nc2ccccc2c1=O (3D coordinates assigned)
CCOCCn1c(SCC(=O)[NH+]2CCOCC2)nc2ccccc2c1=O (nonaromatic ring conformer: 60.786184143309264 kcal/mol)

>  <smiles>  (21) 
CCOCCn1c(SCC(=O)N2CCOCC2)nc2ccccc2c1=O

>  <score_type>  (21) 
oracle

>  <origin>  (21) 
adg

>  <m_score__min__energy>  (21) 
-7.2300000000000004

>  <m_primary>  (21) 
energy

$$$$
21:0
     RDKit          3D

 35 37  0  0  0  0  0  0  0  0999 V2000
   -1.3540   23.4430  -29.4880 O   0  0  0  0  0  0  0  0  0  0  0  0
   -2.0280   24.4990  -29.3370 C   0  0  0  0  0  0  0  0  0  0  0  0
   -3.5160   24.4470  -29.4450 C   0  0  0  0  0  0  0  0  0  0  0  0
   -3.9220   25.2760  -30.5130 O   0  0  0  0  0  0  0  0  0  0  0  0
   -5.3090   25.1220  -30.7270 C   0  0  0  0  0  0  0  0  0  0  0  0
   -5.5660   23.7460  -31.2460 C   0  0  0  0  0  0  0  0  0  0  0  0
   -6.7470   23.0440  -31.1250 C   0  0  0  0  0  0  0  0  0  0  0  0
   -6.5070   21.8790  -31.8260 C   0  0  0  0  0  0  0  0  0  0  0  0
   -7.4510   20.7690  -32.0240 C   0  0  0  0  0  0  0  0  0  0  0  0
   -8.8200   20.8750  -32.2460 C   0  0  0  0  0  0  0  0  0  0  0  0
   -9.4510   19.6350  -32.4160 C   0  0  0  0  0  0  0  0  0  0  0  0
   -8.5840   18.5530  -32.3260 C   0  0  0  0  0  0  0  0  0  0  0  0
   -7.0340   19.1390  -32.0370 S   0  0  0  0  0  0  0  0  0  0  0  0
   -5.2600   21.9020  -32.3370 N   0  0  0  0  0  0  0  0  0  0  0  0
   -4.6870   23.0460  -31.9890 N   0  0  0  0  0  0  0  0  0  0  0  0
   -1.3930   25.7290  -28.9630 N   0  0  0  0  0  0  0  0  0  0  0  0
   -1.2370   26.2310  -27.6270 C   0  0  0  0  0  0  0  0  0  0  0  0
   -0.4730   27.3890  -27.4290 C   0  0  0  0  0  0  0  0  0  0  0  0
   -0.2930   27.9080  -26.1430 C   0  0  0  0  0  0  0  0  0  0  0  0
   -0.8660   27.2640  -25.0430 C   0  0  0  0  0  0  0  0  0  0  0  0
   -1.6060   26.0920  -25.2270 C   0  0  0  0  0  0  0  0  0  0  0  0
   -1.7870   25.5720  -26.5120 C   0  0  0  0  0  0  0  0  0  0  0  0
   -3.8372   23.4126  -29.6367 H   0  0  0  0  0  0  0  0  0  0  0  0
   -3.9721   24.7950  -28.5064 H   0  0  0  0  0  0  0  0  0  0  0  0
   -5.8476   25.2660  -29.7787 H   0  0  0  0  0  0  0  0  0  0  0  0
   -5.6598   25.8678  -31.4556 H   0  0  0  0  0  0  0  0  0  0  0  0
   -7.6637   23.3420  -30.5951 H   0  0  0  0  0  0  0  0  0  0  0  0
   -9.3541   21.8359  -32.2843 H   0  0  0  0  0  0  0  0  0  0  0  0
  -10.5298   19.5286  -32.6029 H   0  0  0  0  0  0  0  0  0  0  0  0
   -8.8635   17.4939  -32.4266 H   0  0  0  0  0  0  0  0  0  0  0  0
   -0.0118   27.8931  -28.2910 H   0  0  0  0  0  0  0  0  0  0  0  0
    0.2996   28.8232  -25.9972 H   0  0  0  0  0  0  0  0  0  0  0  0
   -0.7349   27.6790  -24.0328 H   0  0  0  0  0  0  0  0  0  0  0  0
   -2.0463   25.5785  -24.3596 H   0  0  0  0  0  0  0  0  0  0  0  0
   -2.3614   24.6444  -26.6520 H   0  0  0  0  0  0  0  0  0  0  0  0
  1  2  2  0
  2  3  1  0
  3  4  1  0
  4  5  1  0
  5  6  1  0
  6  7  1  0
  7  8  2  0
  8  9  1  0
  9 10  2  0
 10 11  1  0
 11 12  2  0
 12 13  1  0
  8 14  1  0
 14 15  1  0
  2 16  1  0
 16 17  1  0
 17 18  2  0
 18 19  1  0
 19 20  2  0
 20 21  1  0
 21 22  2  0
 15  6  2  0
 22 17  1  0
 13  9  1  0
  3 23  1  0
  3 24  1  0
  5 25  1  0
  5 26  1  0
  7 27  1  0
 10 28  1  0
 11 29  1  0
 12 30  1  0
 18 31  1  0
 19 32  1  0
 20 33  1  0
 21 34  1  0
 22 35  1  0
M  CHG  2  14  -1  16  -1
M  END
>  <UniqueID>  (22) 
22

>  <SMILES>  (22) 
O=C(COCc1cc(-c2cccs2)[n-]n1)[N-]c1ccccc1

>  <Energy>  (22) 
94.18440174136748

>  <Genealogy>  (22) 
O=C(COCc1cc(-c2cccs2)[n-]n1)[N-]c1ccccc1 (protonated)
O=C(COCc1cc(-c2cccs2)[n-]n1)[N-]c1ccccc1 (3D coordinates assigned)
O=C(COCc1cc(-c2cccs2)[n-]n1)[N-]c1ccccc1 (optimized conformer: 94.18440174136748 kcal/mol)

>  <smiles>  (22) 
O=C(COCc1cc(-c2cccs2)[nH]n1)Nc1ccccc1

>  <score_type>  (22) 
oracle

>  <origin>  (22) 
adg

>  <m_score__min__energy>  (22) 
-9.8800000000000008

>  <m_primary>  (22) 
energy

$$$$
22:0
     RDKit          3D

 42 43  0  0  0  0  0  0  0  0999 V2000
   -1.1660   25.9600  -27.6290 C   0  0  0  0  0  0  0  0  0  0  0  0
   -1.8750   25.6670  -28.8300 O   0  0  0  0  0  0  0  0  0  0  0  0
   -2.0650   24.3750  -29.3470 C   0  0  0  0  0  0  0  0  0  0  0  0
   -1.2540   23.2920  -28.9630 C   0  0  0  0  0  0  0  0  0  0  0  0
   -1.4720   22.0210  -29.4990 C   0  0  0  0  0  0  0  0  0  0  0  0
   -2.5000   21.8040  -30.4260 C   0  0  0  0  0  0  0  0  0  0  0  0
   -2.6990   20.4800  -30.9580 N   0  0  0  0  0  0  0  0  0  0  0  0
   -3.0250   20.2160  -32.3600 C   0  0  0  0  0  0  0  0  0  0  0  0
   -4.4650   20.5310  -32.6350 C   0  0  0  0  0  0  0  0  0  0  0  0
   -4.8700   20.5920  -33.8270 O   0  0  0  0  0  0  0  0  0  0  0  0
   -5.3840   20.6790  -31.5420 N   0  0  0  0  0  0  0  0  0  0  0  0
   -6.7610   21.0610  -31.7150 C   0  0  0  0  0  0  0  0  0  0  0  0
   -7.1370   22.4050  -31.5440 C   0  0  0  0  0  0  0  0  0  0  0  0
   -8.4720   22.7900  -31.6590 C   0  0  0  0  0  0  0  0  0  0  0  0
   -9.4530   21.8380  -31.9290 C   0  0  0  0  0  0  0  0  0  0  0  0
   -9.1010   20.4960  -32.0920 C   0  0  0  0  0  0  0  0  0  0  0  0
   -7.7540   20.0900  -32.0010 C   0  0  0  0  0  0  0  0  0  0  0  0
   -7.3920   18.6290  -32.1810 C   0  0  0  0  0  0  0  0  0  0  0  0
   -6.8210   18.4310  -33.4270 F   0  0  0  0  0  0  0  0  0  0  0  0
   -6.4930   18.2530  -31.2010 F   0  0  0  0  0  0  0  0  0  0  0  0
   -8.5080   17.8130  -32.0910 F   0  0  0  0  0  0  0  0  0  0  0  0
   -3.3120   22.8880  -30.8110 C   0  0  0  0  0  0  0  0  0  0  0  0
   -3.0970   24.1740  -30.2740 C   0  0  0  0  0  0  0  0  0  0  0  0
   -3.8890   25.2750  -30.6380 O   0  0  0  0  0  0  0  0  0  0  0  0
   -5.2970   25.3570  -30.4450 C   0  0  0  0  0  0  0  0  0  0  0  0
   -1.7913   25.7016  -26.7617 H   0  0  0  0  0  0  0  0  0  0  0  0
   -0.2367   25.3722  -27.5991 H   0  0  0  0  0  0  0  0  0  0  0  0
   -0.9227   27.0323  -27.5991 H   0  0  0  0  0  0  0  0  0  0  0  0
   -0.4431   23.4470  -28.2361 H   0  0  0  0  0  0  0  0  0  0  0  0
   -0.8306   21.1823  -29.1905 H   0  0  0  0  0  0  0  0  0  0  0  0
   -2.6070   19.6700  -30.3020 H   0  0  0  0  0  0  0  0  0  0  0  0
   -2.3888   20.8417  -33.0032 H   0  0  0  0  0  0  0  0  0  0  0  0
   -2.8483   19.1510  -32.5709 H   0  0  0  0  0  0  0  0  0  0  0  0
   -5.0450   20.4360  -30.5850 H   0  0  0  0  0  0  0  0  0  0  0  0
   -6.3701   23.1603  -31.3172 H   0  0  0  0  0  0  0  0  0  0  0  0
   -8.7513   23.8469  -31.5364 H   0  0  0  0  0  0  0  0  0  0  0  0
  -10.5063   22.1437  -32.0139 H   0  0  0  0  0  0  0  0  0  0  0  0
   -9.8826   19.7486  -32.2934 H   0  0  0  0  0  0  0  0  0  0  0  0
   -4.1222   22.7301  -31.5380 H   0  0  0  0  0  0  0  0  0  0  0  0
   -5.5193   25.3699  -29.3678 H   0  0  0  0  0  0  0  0  0  0  0  0
   -5.6776   26.2788  -30.9090 H   0  0  0  0  0  0  0  0  0  0  0  0
   -5.7821   24.4856  -30.9090 H   0  0  0  0  0  0  0  0  0  0  0  0
  1  2  1  0
  2  3  1  0
  3  4  2  0
  4  5  1  0
  5  6  2  0
  6  7  1  0
  7  8  1  0
  8  9  1  0
  9 10  2  0
  9 11  1  0
 11 12  1  0
 12 13  2  0
 13 14  1  0
 14 15  2  0
 15 16  1  0
 16 17  2  0
 17 18  1  0
 18 19  1  0
 18 20  1  0
 18 21  1  0
  6 22  1  0
 22 23  2  0
 23 24  1  0
 24 25  1  0
 23  3  1  0
 17 12  1  0
  1 26  1  0
  1 27  1  0
  1 28  1  0
  4 29  1  0
  5 30  1  0
  7 31  1  0
  8 32  1  0
  8 33  1  0
 11 34  1  0
 13 35  1  0
 14 36  1  0
 15 37  1  0
 16 38  1  0
 22 39  1  0
 25 40  1  0
 25 41  1  0
 25 42  1  0
M  END
>  <UniqueID>  (23) 
23

>  <SMILES>  (23) 
COc1ccc(NCC(=O)Nc2ccccc2C(F)(F)F)cc1OC

>  <Energy>  (23) 
45.64952499491779

>  <Genealogy>  (23) 
COc1ccc(NCC(=O)Nc2ccccc2C(F)(F)F)cc1OC (3D coordinates assigned)
COc1ccc(NCC(=O)Nc2ccccc2C(F)(F)F)cc1OC (optimized conformer: 45.64952499491779 kcal/mol)

>  <smiles>  (23) 
COc1ccc(NCC(=O)Nc2ccccc2C(F)(F)F)cc1OC

>  <score_type>  (23) 
oracle

>  <origin>  (23) 
adg

>  <m_score__min__energy>  (23) 
-7.8399999999999999

>  <m_primary>  (23) 
energy

$$$$
23:0
     RDKit          3D

 62 64  0  0  0  0  0  0  0  0999 V2000
   -1.8160   24.9400  -28.5610 C   0  0  0  0  0  0  0  0  0  0  0  0
   -2.3500   23.8280  -29.4490 C   0  0  0  0  0  0  0  0  0  0  0  0
   -3.1740   24.3890  -30.4670 O   0  0  0  0  0  0  0  0  0  0  0  0
   -4.5620   24.2050  -30.5610 C   0  0  0  0  0  0  0  0  0  0  0  0
   -5.4790   25.1680  -30.0990 C   0  0  0  0  0  0  0  0  0  0  0  0
   -6.8530   24.9440  -30.2150 C   0  0  0  0  0  0  0  0  0  0  0  0
   -7.3260   23.7640  -30.7900 C   0  0  0  0  0  0  0  0  0  0  0  0
   -6.4270   22.7980  -31.2530 C   0  0  0  0  0  0  0  0  0  0  0  0
   -7.1150   21.1930  -32.0380 Br  0  0  0  0  0  0  0  0  0  0  0  0
   -5.0430   23.0170  -31.1380 C   0  0  0  0  0  0  0  0  0  0  0  0
   -4.1160   22.0320  -31.6110 N   0  0  0  0  0  0  0  0  0  0  0  0
   -3.7650   21.9900  -33.0310 C   0  0  0  0  0  0  0  0  0  0  0  0
   -3.0520   20.6720  -33.3670 C   0  0  0  0  0  0  0  0  0  0  0  0
   -1.8980   20.3990  -32.4670 N   0  0  0  0  0  0  0  0  0  0  0  0
   -0.6880   21.1240  -32.9370 C   0  0  0  0  0  0  0  0  0  0  0  0
    0.2150   20.2530  -33.8490 C   0  0  1  0  0  0  0  0  0  0  0  0
   -0.4850   19.1270  -34.3190 O   0  0  0  0  0  0  0  0  0  0  0  0
    0.7740   21.0620  -35.0360 C   0  0  0  0  0  0  0  0  0  0  0  0
    1.3770   22.2640  -34.5910 O   0  0  0  0  0  0  0  0  0  0  0  0
    1.9190   22.9890  -35.6760 C   0  0  0  0  0  0  0  0  0  0  0  0
    0.7790   23.6030  -36.4740 C   0  0  0  0  0  0  0  0  0  0  0  0
    1.2900   24.6030  -37.3510 O   0  0  0  0  0  0  0  0  0  0  0  0
    0.9150   25.9550  -37.3100 C   0  0  0  0  0  0  0  0  0  0  0  0
    1.4830   26.9230  -38.1620 C   0  0  0  0  0  0  0  0  0  0  0  0
    1.0710   28.2570  -38.0830 C   0  0  0  0  0  0  0  0  0  0  0  0
    0.0950   28.6370  -37.1560 C   0  0  0  0  0  0  0  0  0  0  0  0
   -0.4650   30.4600  -37.0510 Br  0  0  0  0  0  0  0  0  0  0  0  0
   -0.4700   27.6810  -36.3070 C   0  0  0  0  0  0  0  0  0  0  0  0
   -0.0610   26.3460  -36.3850 C   0  0  0  0  0  0  0  0  0  0  0  0
   -2.1770   20.6760  -31.0210 C   0  0  0  0  0  0  0  0  0  0  0  0
   -3.6500   20.9750  -30.7150 C   0  0  0  0  0  0  0  0  0  0  0  0
   -1.9495   24.6621  -27.5051 H   0  0  0  0  0  0  0  0  0  0  0  0
   -0.7464   25.0926  -28.7676 H   0  0  0  0  0  0  0  0  0  0  0  0
   -2.3657   25.8701  -28.7676 H   0  0  0  0  0  0  0  0  0  0  0  0
   -1.5083   23.2921  -29.9121 H   0  0  0  0  0  0  0  0  0  0  0  0
   -2.9417   23.1263  -28.8429 H   0  0  0  0  0  0  0  0  0  0  0  0
   -5.1122   26.1004  -29.6449 H   0  0  0  0  0  0  0  0  0  0  0  0
   -7.5643   25.7004  -29.8518 H   0  0  0  0  0  0  0  0  0  0  0  0
   -8.4090   23.5931  -30.8794 H   0  0  0  0  0  0  0  0  0  0  0  0
   -4.6818   22.0701  -33.6336 H   0  0  0  0  0  0  0  0  0  0  0  0
   -3.0900   22.8287  -33.2569 H   0  0  0  0  0  0  0  0  0  0  0  0
   -3.7740   19.8473  -33.2739 H   0  0  0  0  0  0  0  0  0  0  0  0
   -2.6620   20.7565  -34.3921 H   0  0  0  0  0  0  0  0  0  0  0  0
   -1.7040   19.3740  -32.5600 H   0  0  0  0  0  0  0  0  0  0  0  0
   -1.0072   22.0119  -33.5025 H   0  0  0  0  0  0  0  0  0  0  0  0
   -0.0986   21.3973  -32.0493 H   0  0  0  0  0  0  0  0  0  0  0  0
    1.0644   19.9143  -33.2376 H   0  0  0  0  0  0  0  0  0  0  0  0
    0.1720   18.5240  -34.7560 H   0  0  0  0  0  0  0  0  0  0  0  0
    1.5258   20.4557  -35.5625 H   0  0  0  0  0  0  0  0  0  0  0  0
   -0.0573   21.3153  -35.7104 H   0  0  0  0  0  0  0  0  0  0  0  0
    2.5759   23.7857  -35.2969 H   0  0  0  0  0  0  0  0  0  0  0  0
    2.5053   22.3163  -36.3192 H   0  0  0  0  0  0  0  0  0  0  0  0
    0.2819   22.8188  -37.0639 H   0  0  0  0  0  0  0  0  0  0  0  0
    0.0557   24.0602  -35.7828 H   0  0  0  0  0  0  0  0  0  0  0  0
    2.2523   26.6286  -38.8910 H   0  0  0  0  0  0  0  0  0  0  0  0
    1.5155   29.0091  -38.7514 H   0  0  0  0  0  0  0  0  0  0  0  0
   -1.2369   27.9790  -35.5770 H   0  0  0  0  0  0  0  0  0  0  0  0
   -0.5092   25.5976  -35.7149 H   0  0  0  0  0  0  0  0  0  0  0  0
   -1.8741   19.7953  -30.4356 H   0  0  0  0  0  0  0  0  0  0  0  0
   -1.6075   21.5786  -30.7546 H   0  0  0  0  0  0  0  0  0  0  0  0
   -4.2510   20.0671  -30.8714 H   0  0  0  0  0  0  0  0  0  0  0  0
   -3.7542   21.3006  -29.6695 H   0  0  0  0  0  0  0  0  0  0  0  0
  1  2  1  0
  2  3  1  0
  3  4  1  0
  4  5  2  0
  5  6  1  0
  6  7  2  0
  7  8  1  0
  8  9  1  0
  8 10  2  0
 10 11  1  0
 11 12  1  0
 12 13  1  0
 13 14  1  0
 14 15  1  0
 15 16  1  0
 16 17  1  0
 16 18  1  0
 18 19  1  0
 19 20  1  0
 20 21  1  0
 21 22  1  0
 22 23  1  0
 23 24  2  0
 24 25  1  0
 25 26  2  0
 26 27  1  0
 26 28  1  0
 28 29  2  0
 14 30  1  0
 30 31  1  0
 10  4  1  0
 31 11  1  0
 29 23  1  0
  1 32  1  0
  1 33  1  0
  1 34  1  0
  2 35  1  0
  2 36  1  0
  5 37  1  0
  6 38  1  0
  7 39  1  0
 12 40  1  0
 12 41  1  0
 13 42  1  0
 13 43  1  0
 14 44  1  0
 15 45  1  0
 15 46  1  0
 16 47  1  1
 17 48  1  0
 18 49  1  0
 18 50  1  0
 20 51  1  0
 20 52  1  0
 21 53  1  0
 21 54  1  0
 24 55  1  0
 25 56  1  0
 28 57  1  0
 29 58  1  0
 30 59  1  0
 30 60  1  0
 31 61  1  0
 31 62  1  0
M  CHG  1  14   1
M  END
>  <UniqueID>  (24) 
24

>  <SMILES>  (24) 
CCOc1cccc(Br)c1N1CC[NH+](C[C@@H](O)COCCOc2ccc(Br)cc2)CC1

>  <Energy>  (24) 
69.94124795061391

>  <Genealogy>  (24) 
CCOc1cccc(Br)c1N1CC[NH+](CC(O)COCCOc2ccc(Br)cc2)CC1 (protonated)
CCOc1cccc(Br)c1N1CC[NH+](C[C@@H](O)COCCOc2ccc(Br)cc2)CC1 (chirality)
CCOc1cccc(Br)c1N1CC[NH+](C[C@@H](O)COCCOc2ccc(Br)cc2)CC1 (3D coordinates assigned)
CCOc1cccc(Br)c1N1CC[NH+](C[C@@H](O)COCCOc2ccc(Br)cc2)CC1 (nonaromatic ring conformer: 69.94124795061391 kcal/mol)

>  <smiles>  (24) 
CCOc1cccc(Br)c1N1CCN(CC(O)COCCOc2ccc(Br)cc2)CC1

>  <score_type>  (24) 
oracle

>  <origin>  (24) 
adg

>  <m_score__min__energy>  (24) 
-8.2599999999999998

>  <m_primary>  (24) 
energy

$$$$
24:0
     RDKit          3D

 41 42  0  0  0  0  0  0  0  0999 V2000
   -7.2910   18.4920  -32.6880 C   0  0  0  0  0  0  0  0  0  0  0  0
   -8.1710   19.0940  -31.6010 C   0  0  0  0  0  0  0  0  0  0  0  0
   -8.2680   20.5780  -31.7630 C   0  0  0  0  0  0  0  0  0  0  0  0
   -9.4340   21.3190  -31.7550 C   0  0  0  0  0  0  0  0  0  0  0  0
   -9.0470   22.6260  -31.9660 C   0  0  0  0  0  0  0  0  0  0  0  0
   -7.6710   22.5940  -32.0870 C   0  0  0  0  0  0  0  0  0  0  0  0
   -6.7840   23.7770  -32.3280 C   0  0  0  0  0  0  0  0  0  0  0  0
   -6.1020   24.1680  -31.0850 N   0  0  0  0  0  0  0  0  0  0  0  0
   -6.8560   24.8830  -30.0480 C   0  0  0  0  0  0  0  0  0  0  0  0
   -4.7150   23.8420  -30.8390 C   0  0  0  0  0  0  0  0  0  0  0  0
   -3.8620   24.7720  -30.8270 O   0  0  0  0  0  0  0  0  0  0  0  0
   -4.2660   22.3990  -30.6470 C   0  0  0  0  0  0  0  0  0  0  0  0
   -4.5690   21.4730  -31.7680 N   0  0  0  0  0  0  0  0  0  0  0  0
   -4.3030   20.0560  -31.4600 C   0  0  0  0  0  0  0  0  0  0  0  0
   -3.7920   19.4130  -32.7360 C   0  0  0  0  0  0  0  0  0  0  0  0
   -3.1570   20.5490  -33.5080 C   0  0  0  0  0  0  0  0  0  0  0  0
   -3.8790   21.8030  -33.0330 C   0  0  0  0  0  0  0  0  0  0  0  0
   -7.2340   21.3620  -31.9690 O   0  0  0  0  0  0  0  0  0  0  0  0
   -6.4680   17.9290  -32.2235 H   0  0  0  0  0  0  0  0  0  0  0  0
   -7.8917   17.8148  -33.3129 H   0  0  0  0  0  0  0  0  0  0  0  0
   -6.8775   19.2973  -33.3129 H   0  0  0  0  0  0  0  0  0  0  0  0
   -9.1781   18.6566  -31.6678 H   0  0  0  0  0  0  0  0  0  0  0  0
   -7.7241   18.8730  -30.6205 H   0  0  0  0  0  0  0  0  0  0  0  0
  -10.4581   20.9445  -31.6104 H   0  0  0  0  0  0  0  0  0  0  0  0
   -9.6986   23.5102  -32.0256 H   0  0  0  0  0  0  0  0  0  0  0  0
   -6.0321   23.5175  -33.0878 H   0  0  0  0  0  0  0  0  0  0  0  0
   -7.3994   24.6191  -32.6775 H   0  0  0  0  0  0  0  0  0  0  0  0
   -6.5127   24.5575  -29.0549 H   0  0  0  0  0  0  0  0  0  0  0  0
   -6.6921   25.9653  -30.1560 H   0  0  0  0  0  0  0  0  0  0  0  0
   -7.9281   24.6619  -30.1560 H   0  0  0  0  0  0  0  0  0  0  0  0
   -3.1763   22.4018  -30.4967 H   0  0  0  0  0  0  0  0  0  0  0  0
   -4.8356   22.0211  -29.7852 H   0  0  0  0  0  0  0  0  0  0  0  0
   -5.6000   21.5570  -31.9480 H   0  0  0  0  0  0  0  0  0  0  0  0
   -3.5443   19.9777  -30.6674 H   0  0  0  0  0  0  0  0  0  0  0  0
   -5.2149   19.5535  -31.1051 H   0  0  0  0  0  0  0  0  0  0  0  0
   -3.0485   18.6350  -32.5080 H   0  0  0  0  0  0  0  0  0  0  0  0
   -4.5939   18.9192  -33.3045 H   0  0  0  0  0  0  0  0  0  0  0  0
   -2.0819   20.6143  -33.2847 H   0  0  0  0  0  0  0  0  0  0  0  0
   -3.2458   20.4089  -34.5954 H   0  0  0  0  0  0  0  0  0  0  0  0
   -3.1529   22.6118  -32.8637 H   0  0  0  0  0  0  0  0  0  0  0  0
   -4.6026   22.1406  -33.7896 H   0  0  0  0  0  0  0  0  0  0  0  0
  1  2  1  0
  2  3  1  0
  3  4  2  0
  4  5  1  0
  5  6  2  0
  6  7  1  0
  7  8  1  0
  8  9  1  0
  8 10  1  0
 10 11  2  0
 10 12  1  0
 12 13  1  0
 13 14  1  0
 14 15  1  0
 15 16  1  0
 16 17  1  0
  6 18  1  0
 18  3  1  0
 17 13  1  0
  1 19  1  0
  1 20  1  0
  1 21  1  0
  2 22  1  0
  2 23  1  0
  4 24  1  0
  5 25  1  0
  7 26  1  0
  7 27  1  0
  9 28  1  0
  9 29  1  0
  9 30  1  0
 12 31  1  0
 12 32  1  0
 13 33  1  0
 14 34  1  0
 14 35  1  0
 15 36  1  0
 15 37  1  0
 16 38  1  0
 16 39  1  0
 17 40  1  0
 17 41  1  0
M  CHG  1  13   1
M  END
>  <UniqueID>  (25) 
25

>  <SMILES>  (25) 
CCc1ccc(CN(C)C(=O)C[NH+]2CCCC2)o1

>  <Energy>  (25) 
66.16467153684495

>  <Genealogy>  (25) 
CCc1ccc(CN(C)C(=O)C[NH+]2CCCC2)o1 (protonated)
CCc1ccc(CN(C)C(=O)C[NH+]2CCCC2)o1 (3D coordinates assigned)
CCc1ccc(CN(C)C(=O)C[NH+]2CCCC2)o1 (nonaromatic ring conformer: 66.16467153684495 kcal/mol)

>  <smiles>  (25) 
CCc1ccc(CN(C)C(=O)CN2CCCC2)o1

>  <score_type>  (25) 
oracle

>  <origin>  (25) 
adg

>  <m_score__min__energy>  (25) 
-5.4000000000000004

>  <m_primary>  (25) 
energy

$$$$
25:0
     RDKit          3D

 30 31  0  0  0  0  0  0  0  0999 V2000
   -5.7450   25.6170  -30.0530 C   0  0  0  0  0  0  0  0  0  0  0  0
   -5.1630   25.0410  -31.2160 O   0  0  0  0  0  0  0  0  0  0  0  0
   -4.6100   23.7570  -31.2270 C   0  0  0  0  0  0  0  0  0  0  0  0
   -3.4570   23.5610  -30.7530 O   0  0  0  0  0  0  0  0  0  0  0  0
   -5.3620   22.6200  -31.7910 C   0  0  0  0  0  0  0  0  0  0  0  0
   -4.7090   21.5320  -32.9000 S   0  0  0  0  0  0  0  0  0  0  0  0
   -6.0850   20.5890  -33.0650 C   0  0  0  0  0  0  0  0  0  0  0  0
   -6.1860   19.4820  -33.9720 N   0  0  0  0  0  0  0  0  0  0  0  0
   -5.2510   18.3900  -33.9800 C   0  0  0  0  0  0  0  0  0  0  0  0
   -4.1200   18.5370  -33.4440 O   0  0  0  0  0  0  0  0  0  0  0  0
   -5.5510   17.0640  -34.6370 C   0  0  0  0  0  0  0  0  0  0  0  0
   -5.4040   15.8070  -33.7910 C   0  0  0  0  0  0  0  0  0  0  0  0
   -6.7900   16.3400  -34.1330 C   0  0  0  0  0  0  0  0  0  0  0  0
   -7.1060   21.1270  -32.2810 C   0  0  0  0  0  0  0  0  0  0  0  0
   -8.4610   20.6320  -32.3000 C   0  0  0  0  0  0  0  0  0  0  0  0
   -9.5480   20.2330  -32.3150 N   0  0  0  0  0  0  0  0  0  0  0  0
   -6.7000   22.2660  -31.5490 C   0  0  0  0  0  0  0  0  0  0  0  0
   -7.6110   23.0370  -30.6320 C   0  0  0  0  0  0  0  0  0  0  0  0
   -5.2923   25.1690  -29.1561 H   0  0  0  0  0  0  0  0  0  0  0  0
   -5.5646   26.7021  -30.0517 H   0  0  0  0  0  0  0  0  0  0  0  0
   -6.8282   25.4254  -30.0517 H   0  0  0  0  0  0  0  0  0  0  0  0
   -6.8730   19.5750  -34.7530 H   0  0  0  0  0  0  0  0  0  0  0  0
   -5.1656   17.3783  -35.6182 H   0  0  0  0  0  0  0  0  0  0  0  0
   -5.0447   14.8740  -34.2496 H   0  0  0  0  0  0  0  0  0  0  0  0
   -4.8758   15.5525  -32.8603 H   0  0  0  0  0  0  0  0  0  0  0  0
   -7.4316   15.7915  -34.8383 H   0  0  0  0  0  0  0  0  0  0  0  0
   -7.6774   16.6296  -33.5511 H   0  0  0  0  0  0  0  0  0  0  0  0
   -7.3506   22.8166  -29.5862 H   0  0  0  0  0  0  0  0  0  0  0  0
   -7.4939   24.1145  -30.8198 H   0  0  0  0  0  0  0  0  0  0  0  0
   -8.6543   22.7434  -30.8198 H   0  0  0  0  0  0  0  0  0  0  0  0
  1  2  1  0
  2  3  1  0
  3  4  2  0
  3  5  1  0
  5  6  1  0
  6  7  1  0
  7  8  1  0
  8  9  1  0
  9 10  2  0
  9 11  1  0
 11 12  1  0
 12 13  1  0
  7 14  2  0
 14 15  1  0
 15 16  3  0
 14 17  1  0
 17 18  1  0
 17  5  2  0
 13 11  1  0
  1 19  1  0
  1 20  1  0
  1 21  1  0
  8 22  1  0
 11 23  1  0
 12 24  1  0
 12 25  1  0
 13 26  1  0
 13 27  1  0
 18 28  1  0
 18 29  1  0
 18 30  1  0
M  END
>  <UniqueID>  (26) 
26

>  <SMILES>  (26) 
COC(=O)c1sc(NC(=O)C2CC2)c(C#N)c1C

>  <Energy>  (26) 
323.36476779481535

>  <Genealogy>  (26) 
COC(=O)c1sc(NC(=O)C2CC2)c(C#N)c1C (3D coordinates assigned)
COC(=O)c1sc(NC(=O)C2CC2)c(C#N)c1C (nonaromatic ring conformer: 323.36476779481535 kcal/mol)

>  <smiles>  (26) 
COC(=O)c1sc(NC(=O)C2CC2)c(C#N)c1C

>  <score_type>  (26) 
oracle

>  <origin>  (26) 
adg

>  <m_score__min__energy>  (26) 
-6.7699999999999996

>  <m_primary>  (26) 
energy

$$$$
26:0
     RDKit          3D

 49 51  0  0  0  0  0  0  0  0999 V2000
   -2.7980   24.5130  -29.3380 C   0  0  0  0  0  0  0  0  0  0  0  0
   -3.5930   24.9510  -30.4360 O   0  0  0  0  0  0  0  0  0  0  0  0
   -4.8340   24.3970  -30.7830 C   0  0  0  0  0  0  0  0  0  0  0  0
   -5.9870   24.9120  -30.1770 C   0  0  0  0  0  0  0  0  0  0  0  0
   -7.2410   24.3630  -30.4590 C   0  0  0  0  0  0  0  0  0  0  0  0
   -7.3650   23.3080  -31.3760 C   0  0  0  0  0  0  0  0  0  0  0  0
   -8.7120   22.6940  -31.6710 C   0  0  0  0  0  0  0  0  0  0  0  0
   -8.9060   21.3320  -30.9770 C   0  0  0  0  0  0  0  0  0  0  0  0
   -9.2320   20.1850  -31.9490 C   0  0  0  0  0  0  0  0  0  0  0  0
   -8.0040   19.4850  -32.4730 C   0  0  0  0  0  0  0  0  0  0  0  0
   -7.6490   18.2150  -31.9910 C   0  0  0  0  0  0  0  0  0  0  0  0
   -6.5260   17.5550  -32.5000 C   0  0  0  0  0  0  0  0  0  0  0  0
   -5.7440   18.1550  -33.5050 C   0  0  0  0  0  0  0  0  0  0  0  0
   -4.6260   17.5250  -34.0760 O   0  0  0  0  0  0  0  0  0  0  0  0
   -3.3140   17.5020  -33.5140 C   0  0  0  0  0  0  0  0  0  0  0  0
   -2.7910   18.8980  -33.3080 C   0  0  0  0  0  0  0  0  0  0  0  0
   -1.8630   19.4520  -34.2060 C   0  0  0  0  0  0  0  0  0  0  0  0
   -1.4260   20.7690  -34.0430 C   0  0  0  0  0  0  0  0  0  0  0  0
   -1.9200   21.5460  -32.9930 C   0  0  0  0  0  0  0  0  0  0  0  0
   -2.8440   21.0040  -32.0960 C   0  0  0  0  0  0  0  0  0  0  0  0
   -3.2800   19.6840  -32.2520 C   0  0  0  0  0  0  0  0  0  0  0  0
   -6.0950   19.4250  -33.9740 C   0  0  0  0  0  0  0  0  0  0  0  0
   -7.2190   20.0830  -33.4710 C   0  0  0  0  0  0  0  0  0  0  0  0
   -6.2110   22.7990  -31.9920 C   0  0  0  0  0  0  0  0  0  0  0  0
   -4.9560   23.3390  -31.7020 C   0  0  0  0  0  0  0  0  0  0  0  0
   -3.2935   24.7860  -28.3946 H   0  0  0  0  0  0  0  0  0  0  0  0
   -2.6767   23.4208  -29.3858 H   0  0  0  0  0  0  0  0  0  0  0  0
   -1.8099   24.9941  -29.3858 H   0  0  0  0  0  0  0  0  0  0  0  0
   -5.9050   25.7543  -29.4743 H   0  0  0  0  0  0  0  0  0  0  0  0
   -8.1365   24.7605  -29.9589 H   0  0  0  0  0  0  0  0  0  0  0  0
   -9.4967   23.3818  -31.3231 H   0  0  0  0  0  0  0  0  0  0  0  0
   -8.7719   22.5268  -32.7566 H   0  0  0  0  0  0  0  0  0  0  0  0
   -7.9793   21.0802  -30.4406 H   0  0  0  0  0  0  0  0  0  0  0  0
   -9.7670   21.4351  -30.3002 H   0  0  0  0  0  0  0  0  0  0  0  0
   -9.8572   19.4482  -31.4235 H   0  0  0  0  0  0  0  0  0  0  0  0
   -9.7514   20.6256  -32.8128 H   0  0  0  0  0  0  0  0  0  0  0  0
   -8.2572   17.7367  -31.2091 H   0  0  0  0  0  0  0  0  0  0  0  0
   -6.2525   16.5623  -32.1132 H   0  0  0  0  0  0  0  0  0  0  0  0
   -3.3470   16.9835  -32.5444 H   0  0  0  0  0  0  0  0  0  0  0  0
   -2.6439   16.9758  -34.2098 H   0  0  0  0  0  0  0  0  0  0  0  0
   -1.4792   18.8466  -35.0404 H   0  0  0  0  0  0  0  0  0  0  0  0
   -0.6917   21.1945  -34.7428 H   0  0  0  0  0  0  0  0  0  0  0  0
   -1.5814   22.5856  -32.8720 H   0  0  0  0  0  0  0  0  0  0  0  0
   -3.2288   21.6156  -31.2667 H   0  0  0  0  0  0  0  0  0  0  0  0
   -4.0084   19.2602  -31.5450 H   0  0  0  0  0  0  0  0  0  0  0  0
   -5.4798   19.9099  -34.7463 H   0  0  0  0  0  0  0  0  0  0  0  0
   -7.4908   21.0757  -33.8591 H   0  0  0  0  0  0  0  0  0  0  0  0
   -6.2957   21.9686  -32.7085 H   0  0  0  0  0  0  0  0  0  0  0  0
   -4.0591   22.9352  -32.1944 H   0  0  0  0  0  0  0  0  0  0  0  0
  1  2  1  0
  2  3  1  0
  3  4  2  0
  4  5  1  0
  5  6  2  0
  6  7  1  0
  7  8  1  0
  8  9  1  0
  9 10  1  0
 10 11  2  0
 11 12  1  0
 12 13  2  0
 13 14  1  0
 14 15  1  0
 15 16  1  0
 16 17  2  0
 17 18  1  0
 18 19  2  0
 19 20  1  0
 20 21  2  0
 13 22  1  0
 22 23  2  0
  6 24  1  0
 24 25  2  0
 25  3  1  0
 23 10  1  0
 21 16  1  0
  1 26  1  0
  1 27  1  0
  1 28  1  0
  4 29  1  0
  5 30  1  0
  7 31  1  0
  7 32  1  0
  8 33  1  0
  8 34  1  0
  9 35  1  0
  9 36  1  0
 11 37  1  0
 12 38  1  0
 15 39  1  0
 15 40  1  0
 17 41  1  0
 18 42  1  0
 19 43  1  0
 20 44  1  0
 21 45  1  0
 22 46  1  0
 23 47  1  0
 24 48  1  0
 25 49  1  0
M  END
>  <UniqueID>  (27) 
27

>  <SMILES>  (27) 
COc1ccc(CCCc2ccc(OCc3ccccc3)cc2)cc1

>  <Energy>  (27) 
42.94802883786756

>  <Genealogy>  (27) 
COc1ccc(CCCc2ccc(OCc3ccccc3)cc2)cc1 (3D coordinates assigned)
COc1ccc(CCCc2ccc(OCc3ccccc3)cc2)cc1 (optimized conformer: 42.94802883786756 kcal/mol)

>  <smiles>  (27) 
COc1ccc(CCCc2ccc(OCc3ccccc3)cc2)cc1

>  <score_type>  (27) 
oracle

>  <origin>  (27) 
adg

>  <m_score__min__energy>  (27) 
-9.1400000000000006

>  <m_primary>  (27) 
energy

$$$$
27:0
     RDKit          3D

 47 49  0  0  0  0  0  0  0  0999 V2000
   -4.2320   24.5650  -26.6340 C   0  0  0  0  0  0  0  0  0  0  0  0
   -4.2370   24.4880  -27.8380 C   0  0  0  0  0  0  0  0  0  0  0  0
   -4.2440   24.3940  -29.3120 C   0  0  2  0  0  0  0  0  0  0  0  0
   -2.9710   24.8920  -29.7190 O   0  0  0  0  0  0  0  0  0  0  0  0
   -1.8750   24.0770  -29.3520 C   0  0  0  0  0  0  0  0  0  0  0  0
   -1.2210   24.6730  -28.1400 C   0  0  0  0  0  0  0  0  0  0  0  0
   -0.8310   23.8480  -27.0710 C   0  0  0  0  0  0  0  0  0  0  0  0
   -0.2580   24.4050  -25.9250 C   0  0  0  0  0  0  0  0  0  0  0  0
   -0.0820   25.7900  -25.8300 C   0  0  0  0  0  0  0  0  0  0  0  0
   -0.4840   26.6180  -26.8820 C   0  0  0  0  0  0  0  0  0  0  0  0
   -1.0580   26.0650  -28.0310 C   0  0  0  0  0  0  0  0  0  0  0  0
   -5.4480   25.2680  -29.8000 C   0  0  0  0  0  0  0  0  0  0  0  0
   -6.0670   24.8370  -31.1500 C   0  0  0  0  0  0  0  0  0  0  0  0
   -6.1660   23.3600  -31.3490 N   0  0  2  0  0  0  0  0  0  0  0  0
   -7.4600   22.9450  -31.9510 C   0  0  0  0  0  0  0  0  0  0  0  0
   -7.6430   21.4430  -32.0760 C   0  0  0  0  0  0  0  0  0  0  0  0
   -8.7820   20.8120  -31.5450 C   0  0  0  0  0  0  0  0  0  0  0  0
   -8.9500   19.4300  -31.6730 C   0  0  0  0  0  0  0  0  0  0  0  0
   -7.9930   18.6670  -32.3470 C   0  0  0  0  0  0  0  0  0  0  0  0
   -6.8720   19.2870  -32.9020 C   0  0  0  0  0  0  0  0  0  0  0  0
   -6.7000   20.6690  -32.7770 C   0  0  0  0  0  0  0  0  0  0  0  0
   -5.8240   22.5650  -30.1490 C   0  0  0  0  0  0  0  0  0  0  0  0
   -4.4010   22.8880  -29.6820 C   0  0  0  0  0  0  0  0  0  0  0  0
   -4.2274   24.6352  -25.5363 H   0  0  0  0  0  0  0  0  0  0  0  0
   -2.2292   23.0616  -29.1206 H   0  0  0  0  0  0  0  0  0  0  0  0
   -1.1532   24.0220  -30.1802 H   0  0  0  0  0  0  0  0  0  0  0  0
   -0.9775   22.7598  -27.1369 H   0  0  0  0  0  0  0  0  0  0  0  0
    0.0554   23.7536  -25.0958 H   0  0  0  0  0  0  0  0  0  0  0  0
    0.3722   26.2267  -24.9284 H   0  0  0  0  0  0  0  0  0  0  0  0
   -0.3485   27.7070  -26.8059 H   0  0  0  0  0  0  0  0  0  0  0  0
   -1.3829   26.7211  -28.8519 H   0  0  0  0  0  0  0  0  0  0  0  0
   -5.0967   26.3054  -29.9020 H   0  0  0  0  0  0  0  0  0  0  0  0
   -6.2403   25.1457  -29.0468 H   0  0  0  0  0  0  0  0  0  0  0  0
   -5.4467   25.2507  -31.9588 H   0  0  0  0  0  0  0  0  0  0  0  0
   -7.0979   25.2206  -31.1552 H   0  0  0  0  0  0  0  0  0  0  0  0
   -5.4460   23.1120  -32.0710 H   0  0  0  0  0  0  0  0  0  0  0  0
   -8.2730   23.3392  -31.3236 H   0  0  0  0  0  0  0  0  0  0  0  0
   -7.4726   23.3481  -32.9744 H   0  0  0  0  0  0  0  0  0  0  0  0
   -9.5456   21.4096  -31.0256 H   0  0  0  0  0  0  0  0  0  0  0  0
   -9.8371   18.9425  -31.2424 H   0  0  0  0  0  0  0  0  0  0  0  0
   -8.1227   17.5787  -32.4402 H   0  0  0  0  0  0  0  0  0  0  0  0
   -6.1224   18.6870  -33.4388 H   0  0  0  0  0  0  0  0  0  0  0  0
   -5.8224   21.1539  -33.2293 H   0  0  0  0  0  0  0  0  0  0  0  0
   -5.8914   21.4943  -30.3922 H   0  0  0  0  0  0  0  0  0  0  0  0
   -6.5294   22.8146  -29.3427 H   0  0  0  0  0  0  0  0  0  0  0  0
   -3.6964   22.6442  -30.4907 H   0  0  0  0  0  0  0  0  0  0  0  0
   -4.1910   22.2901  -28.7829 H   0  0  0  0  0  0  0  0  0  0  0  0
  1  2  3  0
  3  2  1  1
  3  4  1  0
  4  5  1  0
  5  6  1  0
  6  7  2  0
  7  8  1  0
  8  9  2  0
  9 10  1  0
 10 11  2  0
  3 12  1  0
 12 13  1  0
 13 14  1  0
 14 15  1  0
 15 16  1  0
 16 17  2  0
 17 18  1  0
 18 19  2  0
 19 20  1  0
 20 21  2  0
 14 22  1  0
 22 23  1  0
 23  3  1  0
 11  6  1  0
 21 16  1  0
  1 24  1  0
  5 25  1  0
  5 26  1  0
  7 27  1  0
  8 28  1  0
  9 29  1  0
 10 30  1  0
 11 31  1  0
 12 32  1  0
 12 33  1  0
 13 34  1  0
 13 35  1  0
 14 36  1  6
 15 37  1  0
 15 38  1  0
 17 39  1  0
 18 40  1  0
 19 41  1  0
 20 42  1  0
 21 43  1  0
 22 44  1  0
 22 45  1  0
 23 46  1  0
 23 47  1  0
M  CHG  1  14   1
M  END
>  <UniqueID>  (28) 
28

>  <SMILES>  (28) 
C#CC1(OCc2ccccc2)CC[NH+](Cc2ccccc2)CC1

>  <Energy>  (28) 
69.82971669211048

>  <Genealogy>  (28) 
C#CC1(OCc2ccccc2)CC[NH+](Cc2ccccc2)CC1 (protonated)
C#CC1(OCc2ccccc2)CC[NH+](Cc2ccccc2)CC1 (3D coordinates assigned)
C#CC1(OCc2ccccc2)CC[NH+](Cc2ccccc2)CC1 (nonaromatic ring conformer: 69.82971669211048 kcal/mol)

>  <smiles>  (28) 
C#CC1(OCc2ccccc2)CCN(Cc2ccccc2)CC1

>  <score_type>  (28) 
oracle

>  <origin>  (28) 
adg

>  <m_score__min__energy>  (28) 
-7.7300000000000004

>  <m_primary>  (28) 
energy

$$$$
28:0
     RDKit          3D

 42 45  0  0  0  0  0  0  0  0999 V2000
   -2.4230   20.3850  -32.2060 F   0  0  0  0  0  0  0  0  0  0  0  0
   -2.4680   20.1020  -33.5610 C   0  0  0  0  0  0  0  0  0  0  0  0
   -1.1830   20.0910  -34.0730 F   0  0  0  0  0  0  0  0  0  0  0  0
   -3.1730   21.1230  -34.1740 F   0  0  0  0  0  0  0  0  0  0  0  0
   -3.1230   18.7540  -33.8020 C   0  0  0  0  0  0  0  0  0  0  0  0
   -2.3280   17.6820  -34.2600 C   0  0  0  0  0  0  0  0  0  0  0  0
   -2.8930   16.4380  -34.5390 C   0  0  0  0  0  0  0  0  0  0  0  0
   -4.2570   16.2340  -34.3600 C   0  0  0  0  0  0  0  0  0  0  0  0
   -5.0610   17.2670  -33.8790 C   0  0  0  0  0  0  0  0  0  0  0  0
   -4.5110   18.5260  -33.5710 C   0  0  0  0  0  0  0  0  0  0  0  0
   -5.4170   19.5550  -33.0100 C   0  0  0  0  0  0  0  0  0  0  0  0
   -4.9050   20.7290  -32.5490 N   0  0  0  0  0  0  0  0  0  0  0  0
   -5.7000   21.7120  -32.0540 C   0  0  0  0  0  0  0  0  0  0  0  0
   -5.0900   22.9200  -31.5830 N   0  0  0  0  0  0  0  0  0  0  0  0
   -3.7210   22.8910  -31.0670 C   0  0  0  0  0  0  0  0  0  0  0  0
   -3.5470   23.9850  -30.0100 C   0  0  0  0  0  0  0  0  0  0  0  0
   -3.9860   25.2370  -30.5050 O   0  0  0  0  0  0  0  0  0  0  0  0
   -5.3810   25.1980  -30.7390 C   0  0  0  0  0  0  0  0  0  0  0  0
   -5.7180   24.2110  -31.8610 C   0  0  0  0  0  0  0  0  0  0  0  0
   -7.0950   21.5240  -32.0180 C   0  0  0  0  0  0  0  0  0  0  0  0
   -7.9840   22.4930  -31.5190 C   0  0  0  0  0  0  0  0  0  0  0  0
   -9.3600   22.2460  -31.5150 C   0  0  0  0  0  0  0  0  0  0  0  0
   -9.8610   21.0380  -32.0060 C   0  0  0  0  0  0  0  0  0  0  0  0
   -8.9870   20.0680  -32.5060 C   0  0  0  0  0  0  0  0  0  0  0  0
   -7.6080   20.3050  -32.5130 C   0  0  0  0  0  0  0  0  0  0  0  0
   -6.7620   19.3610  -32.9980 N   0  0  0  0  0  0  0  0  0  0  0  0
   -1.2469   17.8297  -34.3990 H   0  0  0  0  0  0  0  0  0  0  0  0
   -2.2583   15.6160  -34.9016 H   0  0  0  0  0  0  0  0  0  0  0  0
   -4.7022   15.2567  -34.5981 H   0  0  0  0  0  0  0  0  0  0  0  0
   -6.1385   17.0960  -33.7385 H   0  0  0  0  0  0  0  0  0  0  0  0
   -3.5214   21.9089  -30.6136 H   0  0  0  0  0  0  0  0  0  0  0  0
   -3.0157   23.0656  -31.8928 H   0  0  0  0  0  0  0  0  0  0  0  0
   -4.1365   23.7227  -29.1191 H   0  0  0  0  0  0  0  0  0  0  0  0
   -2.4799   24.0616  -29.7542 H   0  0  0  0  0  0  0  0  0  0  0  0
   -5.8925   24.8841  -29.8171 H   0  0  0  0  0  0  0  0  0  0  0  0
   -5.7157   26.2015  -31.0405 H   0  0  0  0  0  0  0  0  0  0  0  0
   -6.8089   24.0824  -31.9202 H   0  0  0  0  0  0  0  0  0  0  0  0
   -5.3412   24.6024  -32.8175 H   0  0  0  0  0  0  0  0  0  0  0  0
   -7.5960   23.4465  -31.1313 H   0  0  0  0  0  0  0  0  0  0  0  0
  -10.0515   23.0065  -31.1233 H   0  0  0  0  0  0  0  0  0  0  0  0
  -10.9447   20.8496  -31.9992 H   0  0  0  0  0  0  0  0  0  0  0  0
   -9.3836   19.1182  -32.8940 H   0  0  0  0  0  0  0  0  0  0  0  0
  1  2  1  0
  2  3  1  0
  2  4  1  0
  2  5  1  0
  5  6  2  0
  6  7  1  0
  7  8  2  0
  8  9  1  0
  9 10  2  0
 10 11  1  0
 11 12  2  0
 12 13  1  0
 13 14  1  0
 14 15  1  0
 15 16  1  0
 16 17  1  0
 17 18  1  0
 18 19  1  0
 13 20  2  0
 20 21  1  0
 21 22  2  0
 22 23  1  0
 23 24  2  0
 24 25  1  0
 25 26  2  0
 10  5  1  0
 26 11  1  0
 19 14  1  0
 25 20  1  0
  6 27  1  0
  7 28  1  0
  8 29  1  0
  9 30  1  0
 15 31  1  0
 15 32  1  0
 16 33  1  0
 16 34  1  0
 18 35  1  0
 18 36  1  0
 19 37  1  0
 19 38  1  0
 21 39  1  0
 22 40  1  0
 23 41  1  0
 24 42  1  0
M  END
>  <UniqueID>  (29) 
29

>  <SMILES>  (29) 
FC(F)(F)c1ccccc1-c1nc(N2CCOCC2)c2ccccc2n1

>  <Energy>  (29) 
64.73150331991826

>  <Genealogy>  (29) 
FC(F)(F)c1ccccc1-c1nc(N2CCOCC2)c2ccccc2n1 (3D coordinates assigned)
FC(F)(F)c1ccccc1-c1nc(N2CCOCC2)c2ccccc2n1 (nonaromatic ring conformer: 64.73150331991826 kcal/mol)

>  <smiles>  (29) 
FC(F)(F)c1ccccc1-c1nc(N2CCOCC2)c2ccccc2n1

>  <score_type>  (29) 
oracle

>  <origin>  (29) 
adg

>  <m_score__min__energy>  (29) 
-8.8300000000000001

>  <m_primary>  (29) 
energy

$$$$
29:0
     RDKit          3D

 37 39  0  0  0  0  0  0  0  0999 V2000
   -9.4800   18.9120  -32.3710 C   0  0  0  0  0  0  0  0  0  0  0  0
   -9.2520   20.2670  -32.7480 O   0  0  0  0  0  0  0  0  0  0  0  0
   -8.1980   21.0570  -32.2670 C   0  0  0  0  0  0  0  0  0  0  0  0
   -6.8840   20.9430  -32.7570 C   0  0  0  0  0  0  0  0  0  0  0  0
   -5.8650   21.7530  -32.2440 C   0  0  0  0  0  0  0  0  0  0  0  0
   -6.1390   22.6930  -31.2350 C   0  0  0  0  0  0  0  0  0  0  0  0
   -5.0710   23.5600  -30.6800 C   0  0  0  0  0  0  0  0  0  0  0  0
   -4.2620   23.2960  -29.5890 C   0  0  0  0  0  0  0  0  0  0  0  0
   -3.4580   24.4120  -29.5030 C   0  0  0  0  0  0  0  0  0  0  0  0
   -2.3980   24.6690  -28.4720 C   0  0  0  0  0  0  0  0  0  0  0  0
   -1.4230   25.6740  -28.9230 N   0  0  0  0  0  0  0  0  0  0  0  0
   -0.4850   26.0410  -27.8520 C   0  0  0  0  0  0  0  0  0  0  0  0
   -0.1490   24.8640  -26.9380 C   0  0  0  0  0  0  0  0  0  0  0  0
   -0.8440   25.5630  -25.7790 C   0  0  0  0  0  0  0  0  0  0  0  0
   -1.1910   26.7340  -26.6870 C   0  0  0  0  0  0  0  0  0  0  0  0
   -3.7810   25.2470  -30.4620 O   0  0  0  0  0  0  0  0  0  0  0  0
   -4.7470   24.7680  -31.1900 N   0  0  0  0  0  0  0  0  0  0  0  0
   -7.4540   22.8020  -30.7500 C   0  0  0  0  0  0  0  0  0  0  0  0
   -8.4710   21.9910  -31.2640 C   0  0  0  0  0  0  0  0  0  0  0  0
   -9.4931   18.8339  -31.2739 H   0  0  0  0  0  0  0  0  0  0  0  0
  -10.4471   18.5770  -32.7740 H   0  0  0  0  0  0  0  0  0  0  0  0
   -8.6757   18.2790  -32.7740 H   0  0  0  0  0  0  0  0  0  0  0  0
   -6.6566   20.2130  -33.5478 H   0  0  0  0  0  0  0  0  0  0  0  0
   -4.8410   21.6536  -32.6333 H   0  0  0  0  0  0  0  0  0  0  0  0
   -4.2608   22.4057  -28.9429 H   0  0  0  0  0  0  0  0  0  0  0  0
   -2.8787   25.0291  -27.5505 H   0  0  0  0  0  0  0  0  0  0  0  0
   -1.8584   23.7265  -28.2971 H   0  0  0  0  0  0  0  0  0  0  0  0
   -0.8780   25.2790  -29.7250 H   0  0  0  0  0  0  0  0  0  0  0  0
    0.3067   26.5508  -28.4207 H   0  0  0  0  0  0  0  0  0  0  0  0
   -0.6189   23.9154  -27.2368 H   0  0  0  0  0  0  0  0  0  0  0  0
    0.8902   24.5180  -26.8362 H   0  0  0  0  0  0  0  0  0  0  0  0
   -1.7195   25.0228  -25.3896 H   0  0  0  0  0  0  0  0  0  0  0  0
   -0.3097   25.7336  -24.8327 H   0  0  0  0  0  0  0  0  0  0  0  0
   -2.2707   26.8797  -26.8390 H   0  0  0  0  0  0  0  0  0  0  0  0
   -0.9166   27.7602  -26.4011 H   0  0  0  0  0  0  0  0  0  0  0  0
   -7.6850   23.5313  -29.9596 H   0  0  0  0  0  0  0  0  0  0  0  0
   -9.4953   22.0893  -30.8751 H   0  0  0  0  0  0  0  0  0  0  0  0
  1  2  1  0
  2  3  1  0
  3  4  2  0
  4  5  1  0
  5  6  2  0
  6  7  1  0
  7  8  1  0
  8  9  2  0
  9 10  1  0
 10 11  1  0
 11 12  1  0
 12 13  1  0
 13 14  1  0
 14 15  1  0
  9 16  1  0
 16 17  1  0
  6 18  1  0
 18 19  2  0
 19  3  1  0
 17  7  2  0
 15 12  1  0
  1 20  1  0
  1 21  1  0
  1 22  1  0
  4 23  1  0
  5 24  1  0
  8 25  1  0
 10 26  1  0
 10 27  1  0
 11 28  1  0
 12 29  1  0
 13 30  1  0
 13 31  1  0
 14 32  1  0
 14 33  1  0
 15 34  1  0
 15 35  1  0
 18 36  1  0
 19 37  1  0
M  END
>  <UniqueID>  (30) 
30

>  <SMILES>  (30) 
COc1ccc(-c2cc(CNC3CCC3)on2)cc1

>  <Energy>  (30) 
127.45077331420444

>  <Genealogy>  (30) 
COc1ccc(-c2cc(CNC3CCC3)on2)cc1 (3D coordinates assigned)
COc1ccc(-c2cc(CNC3CCC3)on2)cc1 (nonaromatic ring conformer: 127.45077331420444 kcal/mol)

>  <smiles>  (30) 
COc1ccc(-c2cc(CNC3CCC3)on2)cc1

>  <score_type>  (30) 
oracle

>  <origin>  (30) 
adg

>  <m_score__min__energy>  (30) 
-8.4199999999999999

>  <m_primary>  (30) 
energy

$$$$
30:0
     RDKit          3D

 48 50  0  0  0  0  0  0  0  0999 V2000
   -3.3150   24.1690  -29.5960 C   0  0  0  0  0  0  0  0  0  0  0  0
   -3.8730   25.1240  -30.4710 O   0  0  0  0  0  0  0  0  0  0  0  0
   -5.2780   24.9920  -30.4730 C   0  0  0  0  0  0  0  0  0  0  0  0
   -5.6370   23.5140  -30.6540 C   0  0  0  0  0  0  0  0  0  0  0  0
   -5.9980   23.1400  -32.1110 C   0  0  2  0  0  0  0  0  0  0  0  0
   -7.4560   23.4470  -32.4980 C   0  0  0  0  0  0  0  0  0  0  0  0
   -8.4370   22.5650  -31.7290 C   0  0  0  0  0  0  0  0  0  0  0  0
   -8.0660   21.1090  -31.8320 C   0  0  0  0  0  0  0  0  0  0  0  0
   -9.0540   20.1420  -31.5880 C   0  0  0  0  0  0  0  0  0  0  0  0
   -8.7470   18.7850  -31.6630 C   0  0  0  0  0  0  0  0  0  0  0  0
   -7.4530   18.3790  -31.9760 C   0  0  0  0  0  0  0  0  0  0  0  0
   -6.4540   19.3280  -32.2060 C   0  0  0  0  0  0  0  0  0  0  0  0
   -6.7350   20.7100  -32.1210 C   0  0  0  0  0  0  0  0  0  0  0  0
   -5.7050   21.7140  -32.3390 N   0  0  0  0  0  0  0  0  0  0  0  0
   -4.0790   21.2760  -32.8100 S   0  0  0  0  0  0  0  0  0  0  0  0
   -3.5240   22.2910  -33.7700 O   0  0  0  0  0  0  0  0  0  0  0  0
   -4.1160   19.9380  -33.4940 O   0  0  0  0  0  0  0  0  0  0  0  0
   -3.0030   21.2070  -31.4130 C   0  0  0  0  0  0  0  0  0  0  0  0
   -3.4820   20.8250  -30.1530 C   0  0  0  0  0  0  0  0  0  0  0  0
   -2.6180   20.7750  -29.0560 C   0  0  0  0  0  0  0  0  0  0  0  0
   -1.2660   21.1090  -29.2000 C   0  0  0  0  0  0  0  0  0  0  0  0
   -0.4390   21.0440  -28.0690 O   0  0  0  0  0  0  0  0  0  0  0  0
   -0.9100   21.0850  -26.7250 C   0  0  0  0  0  0  0  0  0  0  0  0
   -0.7870   21.4980  -30.4660 C   0  0  0  0  0  0  0  0  0  0  0  0
   -1.6530   21.5470  -31.5620 C   0  0  0  0  0  0  0  0  0  0  0  0
   -3.4945   24.4763  -28.5552 H   0  0  0  0  0  0  0  0  0  0  0  0
   -3.7831   23.1898  -29.7752 H   0  0  0  0  0  0  0  0  0  0  0  0
   -2.2321   24.0960  -29.7752 H   0  0  0  0  0  0  0  0  0  0  0  0
   -5.6845   25.3565  -29.5181 H   0  0  0  0  0  0  0  0  0  0  0  0
   -5.7068   25.5832  -31.2956 H   0  0  0  0  0  0  0  0  0  0  0  0
   -4.7753   22.9058  -30.3418 H   0  0  0  0  0  0  0  0  0  0  0  0
   -6.5290   23.3204  -30.0401 H   0  0  0  0  0  0  0  0  0  0  0  0
   -5.3761   23.7760  -32.7581 H   0  0  0  0  0  0  0  0  0  0  0  0
   -7.6711   24.5019  -32.2722 H   0  0  0  0  0  0  0  0  0  0  0  0
   -7.5780   23.2435  -33.5721 H   0  0  0  0  0  0  0  0  0  0  0  0
   -8.4302   22.8617  -30.6698 H   0  0  0  0  0  0  0  0  0  0  0  0
   -9.4376   22.6985  -32.1660 H   0  0  0  0  0  0  0  0  0  0  0  0
  -10.0771   20.4577  -31.3360 H   0  0  0  0  0  0  0  0  0  0  0  0
   -9.5281   18.0337  -31.4746 H   0  0  0  0  0  0  0  0  0  0  0  0
   -7.2161   17.3069  -32.0425 H   0  0  0  0  0  0  0  0  0  0  0  0
   -5.4359   18.9951  -32.4564 H   0  0  0  0  0  0  0  0  0  0  0  0
   -4.5429   20.5633  -30.0268 H   0  0  0  0  0  0  0  0  0  0  0  0
   -3.0031   20.4708  -28.0715 H   0  0  0  0  0  0  0  0  0  0  0  0
   -0.0566   21.0107  -26.0350 H   0  0  0  0  0  0  0  0  0  0  0  0
   -1.4407   22.0327  -26.5512 H   0  0  0  0  0  0  0  0  0  0  0  0
   -1.5964   20.2432  -26.5512 H   0  0  0  0  0  0  0  0  0  0  0  0
    0.2727   21.7643  -30.5927 H   0  0  0  0  0  0  0  0  0  0  0  0
   -1.2718   21.8544  -32.5470 H   0  0  0  0  0  0  0  0  0  0  0  0
  1  2  1  0
  2  3  1  0
  3  4  1  0
  4  5  1  0
  5  6  1  0
  6  7  1  0
  7  8  1  0
  8  9  2  0
  9 10  1  0
 10 11  2  0
 11 12  1  0
 12 13  2  0
 13 14  1  0
 14 15  1  0
 15 16  2  0
 15 17  2  0
 15 18  1  0
 18 19  2  0
 19 20  1  0
 20 21  2  0
 21 22  1  0
 22 23  1  0
 21 24  1  0
 24 25  2  0
 14  5  1  0
 25 18  1  0
 13  8  1  0
  1 26  1  0
  1 27  1  0
  1 28  1  0
  3 29  1  0
  3 30  1  0
  4 31  1  0
  4 32  1  0
  5 33  1  6
  6 34  1  0
  6 35  1  0
  7 36  1  0
  7 37  1  0
  9 38  1  0
 10 39  1  0
 11 40  1  0
 12 41  1  0
 19 42  1  0
 20 43  1  0
 23 44  1  0
 23 45  1  0
 23 46  1  0
 24 47  1  0
 25 48  1  0
M  END
>  <UniqueID>  (31) 
31

>  <SMILES>  (31) 
COCC[C@@H]1CCc2ccccc2N1S(=O)(=O)c1ccc(OC)cc1

>  <Energy>  (31) 
50.840249123832194

>  <Genealogy>  (31) 
COCC[C@@H]1CCc2ccccc2N1S(=O)(=O)c1ccc(OC)cc1 (chirality)
COCC[C@@H]1CCc2ccccc2N1S(=O)(=O)c1ccc(OC)cc1 (3D coordinates assigned)
COCC[C@@H]1CCc2ccccc2N1S(=O)(=O)c1ccc(OC)cc1 (nonaromatic ring conformer: 50.840249123832194 kcal/mol)

>  <smiles>  (31) 
COCCC1CCc2ccccc2N1S(=O)(=O)c1ccc(OC)cc1

>  <score_type>  (31) 
oracle

>  <origin>  (31) 
adg

>  <m_score__min__energy>  (31) 
-8.7400000000000002

>  <m_primary>  (31) 
energy

$$$$
31:0
     RDKit          3D

 48 51  0  0  0  0  0  0  0  0999 V2000
   -7.1590   24.3760  -30.4030 C   0  0  0  0  0  0  0  0  0  0  0  0
   -6.0520   25.2740  -29.8640 C   0  0  0  0  0  0  0  0  0  0  0  0
   -4.7060   24.7100  -30.2020 C   0  0  0  0  0  0  0  0  0  0  0  0
   -3.8820   25.4160  -30.8430 O   0  0  0  0  0  0  0  0  0  0  0  0
   -4.3700   23.3700  -29.8130 N   0  0  0  0  0  0  0  0  0  0  0  0
   -3.1790   22.7020  -30.2550 C   0  0  0  0  0  0  0  0  0  0  0  0
   -3.2040   22.0070  -31.4720 C   0  0  0  0  0  0  0  0  0  0  0  0
   -2.0650   21.3280  -31.9350 C   0  0  0  0  0  0  0  0  0  0  0  0
   -2.0670   20.5860  -33.1360 C   0  0  0  0  0  0  0  0  0  0  0  0
   -3.2200   20.4310  -33.9160 O   0  0  0  0  0  0  0  0  0  0  0  0
   -4.4090   19.8360  -33.4630 C   0  0  0  0  0  0  0  0  0  0  0  0
   -4.5500   18.4400  -33.3470 C   0  0  0  0  0  0  0  0  0  0  0  0
   -5.7470   17.8870  -32.8850 C   0  0  0  0  0  0  0  0  0  0  0  0
   -6.8220   18.7160  -32.5400 C   0  0  0  0  0  0  0  0  0  0  0  0
   -8.0280   18.1700  -32.0740 C   0  0  0  0  0  0  0  0  0  0  0  0
   -9.0930   19.0090  -31.7360 C   0  0  0  0  0  0  0  0  0  0  0  0
   -8.9640   20.3960  -31.8600 C   0  0  0  0  0  0  0  0  0  0  0  0
   -7.7690   20.9520  -32.3220 C   0  0  0  0  0  0  0  0  0  0  0  0
   -6.6900   20.1210  -32.6660 C   0  0  0  0  0  0  0  0  0  0  0  0
   -5.4850   20.6670  -33.1300 C   0  0  0  0  0  0  0  0  0  0  0  0
   -0.8800   19.9950  -33.5790 C   0  0  0  0  0  0  0  0  0  0  0  0
    0.2780   20.1020  -32.8100 C   0  0  0  0  0  0  0  0  0  0  0  0
    0.2590   20.7910  -31.6390 N   0  0  0  0  0  0  0  0  0  0  0  0
   -0.8690   21.4030  -31.1850 C   0  0  0  0  0  0  0  0  0  0  0  0
   -0.8340   22.1190  -29.9860 C   0  0  0  0  0  0  0  0  0  0  0  0
   -1.9830   22.7820  -29.5150 C   0  0  0  0  0  0  0  0  0  0  0  0
   -1.9620   23.5500  -28.3390 O   0  0  0  0  0  0  0  0  0  0  0  0
   -0.7850   24.0800  -27.7370 C   0  0  0  0  0  0  0  0  0  0  0  0
   -7.7102   23.9289  -29.5626 H   0  0  0  0  0  0  0  0  0  0  0  0
   -7.8487   24.9730  -31.0177 H   0  0  0  0  0  0  0  0  0  0  0  0
   -6.7171   23.5780  -31.0177 H   0  0  0  0  0  0  0  0  0  0  0  0
   -6.1477   26.2744  -30.3112 H   0  0  0  0  0  0  0  0  0  0  0  0
   -6.1464   25.3365  -28.7698 H   0  0  0  0  0  0  0  0  0  0  0  0
   -4.9440   22.9140  -29.0670 H   0  0  0  0  0  0  0  0  0  0  0  0
   -4.1263   21.9932  -32.0714 H   0  0  0  0  0  0  0  0  0  0  0  0
   -3.7131   17.7810  -33.6216 H   0  0  0  0  0  0  0  0  0  0  0  0
   -5.8456   16.7954  -32.7918 H   0  0  0  0  0  0  0  0  0  0  0  0
   -8.1350   17.0797  -31.9747 H   0  0  0  0  0  0  0  0  0  0  0  0
  -10.0364   18.5769  -31.3710 H   0  0  0  0  0  0  0  0  0  0  0  0
   -9.8063   21.0511  -31.5928 H   0  0  0  0  0  0  0  0  0  0  0  0
   -7.6725   22.0437  -32.4167 H   0  0  0  0  0  0  0  0  0  0  0  0
   -5.3843   21.7575  -33.2332 H   0  0  0  0  0  0  0  0  0  0  0  0
   -0.8597   19.4467  -34.5324 H   0  0  0  0  0  0  0  0  0  0  0  0
    1.2095   19.6274  -33.1521 H   0  0  0  0  0  0  0  0  0  0  0  0
    0.0990   22.1651  -29.4052 H   0  0  0  0  0  0  0  0  0  0  0  0
   -0.8817   24.0365  -26.6421 H   0  0  0  0  0  0  0  0  0  0  0  0
    0.0866   23.4875  -28.0520 H   0  0  0  0  0  0  0  0  0  0  0  0
   -0.6509   25.1254  -28.0520 H   0  0  0  0  0  0  0  0  0  0  0  0
  1  2  1  0
  2  3  1  0
  3  4  2  0
  3  5  1  0
  5  6  1  0
  6  7  2  0
  7  8  1  0
  8  9  2  0
  9 10  1  0
 10 11  1  0
 11 12  2  0
 12 13  1  0
 13 14  2  0
 14 15  1  0
 15 16  2  0
 16 17  1  0
 17 18  2  0
 18 19  1  0
 19 20  2  0
  9 21  1  0
 21 22  2  0
 22 23  1  0
 23 24  2  0
 24 25  1  0
 25 26  2  0
 26 27  1  0
 27 28  1  0
 26  6  1  0
 24  8  1  0
 20 11  1  0
 19 14  1  0
  1 29  1  0
  1 30  1  0
  1 31  1  0
  2 32  1  0
  2 33  1  0
  5 34  1  0
  7 35  1  0
 12 36  1  0
 13 37  1  0
 15 38  1  0
 16 39  1  0
 17 40  1  0
 18 41  1  0
 20 42  1  0
 21 43  1  0
 22 44  1  0
 25 45  1  0
 28 46  1  0
 28 47  1  0
 28 48  1  0
M  END
>  <UniqueID>  (32) 
32

>  <SMILES>  (32) 
CCC(=O)Nc1cc2c(Oc3ccc4ccccc4c3)ccnc2cc1OC

>  <Energy>  (32) 
67.34338762028284

>  <Genealogy>  (32) 
CCC(=O)Nc1cc2c(Oc3ccc4ccccc4c3)ccnc2cc1OC (3D coordinates assigned)
CCC(=O)Nc1cc2c(Oc3ccc4ccccc4c3)ccnc2cc1OC (optimized conformer: 67.34338762028284 kcal/mol)

>  <smiles>  (32) 
CCC(=O)Nc1cc2c(Oc3ccc4ccccc4c3)ccnc2cc1OC

>  <score_type>  (32) 
oracle

>  <origin>  (32) 
adg

>  <m_score__min__energy>  (32) 
-9.5899999999999999

>  <m_primary>  (32) 
energy

$$$$
32:0
     RDKit          3D

 61 65  0  0  1  0  0  0  0  0999 V2000
   -1.9990   25.2460  -29.3120 O   0  0  0  0  0  0  0  0  0  0  0  0
   -2.4030   24.0720  -29.1740 C   0  0  0  0  0  0  0  0  0  0  0  0
   -1.3390   23.0160  -29.3420 C   0  0  0  0  0  0  0  0  0  0  0  0
   -1.6630   21.9040  -28.4340 C   0  0  0  0  0  0  0  0  0  0  0  0
   -1.0200   21.9150  -27.1900 C   0  0  0  0  0  0  0  0  0  0  0  0
   -1.2330   20.9280  -26.2520 C   0  0  0  0  0  0  0  0  0  0  0  0
   -2.1210   19.9250  -26.6090 C   0  0  0  0  0  0  0  0  0  0  0  0
   -2.7320   19.9530  -27.8410 C   0  0  0  0  0  0  0  0  0  0  0  0
   -2.5200   20.9210  -28.7570 N   0  0  0  0  0  0  0  0  0  0  0  0
   -3.7120   23.6730  -28.8850 N   0  0  0  0  0  0  0  0  0  0  0  0
   -4.8920   24.4290  -28.6490 C   0  0  0  0  0  0  0  0  0  0  0  0
   -6.0270   24.0900  -29.5140 C   0  0  2  0  0  0  0  0  0  0  0  0
   -6.0440   22.6960  -29.8320 O   0  0  0  0  0  0  0  0  0  0  0  0
   -7.0840   22.5870  -30.7470 C   0  0  2  0  0  0  0  0  0  0  0  0
   -6.9440   21.3920  -31.5300 N   0  0  0  0  0  0  0  0  0  0  0  0
   -7.8210   20.3830  -31.7100 C   0  0  0  0  0  0  0  0  0  0  0  0
   -7.2400   19.4520  -32.5600 C   0  0  0  0  0  0  0  0  0  0  0  0
   -5.9900   19.9070  -32.8980 C   0  0  0  0  0  0  0  0  0  0  0  0
   -4.9920   19.3700  -33.7140 C   0  0  0  0  0  0  0  0  0  0  0  0
   -5.1730   18.2550  -34.3050 N   0  0  0  0  0  0  0  0  0  0  0  0
   -5.3640   17.0500  -33.5070 C   0  0  0  0  0  0  0  0  0  0  0  0
   -6.5060   16.2150  -34.0680 C   0  0  0  0  0  0  0  0  0  0  0  0
   -6.0820   14.7680  -33.9230 C   0  0  0  0  0  0  0  0  0  0  0  0
   -4.7940   14.8100  -33.1100 C   0  0  0  0  0  0  0  0  0  0  0  0
   -4.1980   16.1020  -33.6310 C   0  0  0  0  0  0  0  0  0  0  0  0
   -3.8710   20.1110  -33.8170 N   0  0  0  0  0  0  0  0  0  0  0  0
   -3.7150   21.2910  -33.1780 C   0  0  0  0  0  0  0  0  0  0  0  0
   -4.6600   21.8280  -32.3870 N   0  0  0  0  0  0  0  0  0  0  0  0
   -5.8160   21.1130  -32.2520 C   0  0  0  0  0  0  0  0  0  0  0  0
   -7.2040   23.8540  -31.4880 C   0  0  2  0  0  0  0  0  0  0  0  0
   -6.9290   23.7920  -32.8250 O   0  0  0  0  0  0  0  0  0  0  0  0
   -6.1100   24.7480  -30.8380 C   0  0  2  0  0  0  0  0  0  0  0  0
   -4.9890   24.5300  -31.6360 O   0  0  0  0  0  0  0  0  0  0  0  0
   -1.3271   22.6586  -30.3823 H   0  0  0  0  0  0  0  0  0  0  0  0
   -0.3469   23.4286  -29.1063 H   0  0  0  0  0  0  0  0  0  0  0  0
   -0.3252   22.7347  -26.9548 H   0  0  0  0  0  0  0  0  0  0  0  0
   -0.7270   20.9356  -25.2753 H   0  0  0  0  0  0  0  0  0  0  0  0
   -2.3370   19.1064  -25.9067 H   0  0  0  0  0  0  0  0  0  0  0  0
   -3.4314   19.1423  -28.0933 H   0  0  0  0  0  0  0  0  0  0  0  0
   -3.8480   22.5970  -28.8340 H   0  0  0  0  0  0  0  0  0  0  0  0
   -5.1981   24.2673  -27.6049 H   0  0  0  0  0  0  0  0  0  0  0  0
   -4.6370   25.4757  -28.8714 H   0  0  0  0  0  0  0  0  0  0  0  0
   -6.8617   24.4440  -28.8911 H   0  0  0  0  0  0  0  0  0  0  0  0
   -8.0564   22.4518  -30.2508 H   0  0  0  0  0  0  0  0  0  0  0  0
   -8.8226   20.3105  -31.2611 H   0  0  0  0  0  0  0  0  0  0  0  0
   -7.7008   18.5138  -32.9027 H   0  0  0  0  0  0  0  0  0  0  0  0
   -5.5223   17.4109  -32.4800 H   0  0  0  0  0  0  0  0  0  0  0  0
   -7.4292   16.4007  -33.4995 H   0  0  0  0  0  0  0  0  0  0  0  0
   -6.7105   16.4696  -35.1184 H   0  0  0  0  0  0  0  0  0  0  0  0
   -6.8541   14.1908  -33.3933 H   0  0  0  0  0  0  0  0  0  0  0  0
   -5.9371   14.2817  -34.8990 H   0  0  0  0  0  0  0  0  0  0  0  0
   -4.9944   14.8591  -32.0295 H   0  0  0  0  0  0  0  0  0  0  0  0
   -4.1490   13.9254  -33.2167 H   0  0  0  0  0  0  0  0  0  0  0  0
   -3.3483   16.4289  -33.0137 H   0  0  0  0  0  0  0  0  0  0  0  0
   -3.7911   16.0264  -34.6502 H   0  0  0  0  0  0  0  0  0  0  0  0
   -3.0900   19.7820  -34.4030 H   0  0  0  0  0  0  0  0  0  0  0  0
   -2.7701   21.8382  -33.3113 H   0  0  0  0  0  0  0  0  0  0  0  0
   -8.2453   24.2033  -31.4274 H   0  0  0  0  0  0  0  0  0  0  0  0
   -6.1030   23.3460  -33.0630 H   0  0  0  0  0  0  0  0  0  0  0  0
   -6.2553   25.8347  -30.7487 H   0  0  0  0  0  0  0  0  0  0  0  0
   -4.9640   23.5840  -31.8740 H   0  0  0  0  0  0  0  0  0  0  0  0
  1  2  2  0
  2  3  1  0
  3  4  1  0
  4  5  2  0
  5  6  1  0
  6  7  2  0
  7  8  1  0
  8  9  2  0
  2 10  1  0
 10 11  1  0
 11 12  1  0
 12 13  1  0
 13 14  1  0
 14 15  1  0
 15 16  1  0
 16 17  2  0
 17 18  1  0
 18 19  1  0
 19 20  2  0
 20 21  1  0
 21 22  1  0
 22 23  1  0
 23 24  1  0
 24 25  1  0
 19 26  1  0
 26 27  1  0
 27 28  2  0
 28 29  1  0
 14 30  1  0
 30 31  1  0
 30 32  1  0
 32 33  1  0
  9  4  1  0
 32 12  1  0
 29 15  1  0
 29 18  2  0
 25 21  1  0
  3 34  1  0
  3 35  1  0
  5 36  1  0
  6 37  1  0
  7 38  1  0
  8 39  1  0
 10 40  1  0
 11 41  1  0
 11 42  1  0
 12 43  1  1
 14 44  1  1
 16 45  1  0
 17 46  1  0
 21 47  1  0
 22 48  1  0
 22 49  1  0
 23 50  1  0
 23 51  1  0
 24 52  1  0
 24 53  1  0
 25 54  1  0
 25 55  1  0
 26 56  1  0
 27 57  1  0
 30 58  1  6
 31 59  1  0
 32 60  1  1
 33 61  1  0
M  END
>  <smiles>  (33) 
O=C(Cc1ccccn1)NCC1OC(n2ccc3c(=NC4CCCC4)[nH]cnc32)C(O)C1O

>  <score_type>  (33) 
oracle

>  <origin>  (33) 
adg

>  <m_score__min__energy>  (33) 
-10.32

>  <m_primary>  (33) 
energy

$$$$
33:0
     RDKit          3D

 32 34  0  0  0  0  0  0  0  0999 V2000
   -2.6790   24.5350  -29.3520 C   0  0  0  0  0  0  0  0  0  0  0  0
   -3.5320   24.7660  -30.4680 O   0  0  0  0  0  0  0  0  0  0  0  0
   -4.6220   23.9520  -30.8140 C   0  0  0  0  0  0  0  0  0  0  0  0
   -4.5210   22.5490  -30.8920 C   0  0  0  0  0  0  0  0  0  0  0  0
   -5.6360   21.7820  -31.2430 C   0  0  0  0  0  0  0  0  0  0  0  0
   -6.8620   22.4020  -31.5370 C   0  0  0  0  0  0  0  0  0  0  0  0
   -8.0180   21.6230  -31.8850 N   0  0  0  0  0  0  0  0  0  0  0  0
   -9.2590   22.0690  -31.7510 N   0  0  0  0  0  0  0  0  0  0  0  0
  -10.1170   21.1110  -32.0640 N   0  0  0  0  0  0  0  0  0  0  0  0
   -9.4220   20.0130  -32.4090 C   0  0  0  0  0  0  0  0  0  0  0  0
   -8.0820   20.3360  -32.3040 C   0  0  0  0  0  0  0  0  0  0  0  0
   -6.9520   19.4660  -32.6950 C   0  0  0  0  0  0  0  0  0  0  0  0
   -6.6480   18.3240  -31.9390 C   0  0  0  0  0  0  0  0  0  0  0  0
   -5.5860   17.5030  -32.3260 C   0  0  0  0  0  0  0  0  0  0  0  0
   -4.8610   17.8020  -33.4350 N   0  0  0  0  0  0  0  0  0  0  0  0
   -5.1420   18.8930  -34.1970 C   0  0  0  0  0  0  0  0  0  0  0  0
   -6.1960   19.7400  -33.8460 C   0  0  0  0  0  0  0  0  0  0  0  0
   -6.9640   23.7970  -31.4370 C   0  0  0  0  0  0  0  0  0  0  0  0
   -5.8500   24.5650  -31.0850 C   0  0  0  0  0  0  0  0  0  0  0  0
   -3.2441   24.6880  -28.4207 H   0  0  0  0  0  0  0  0  0  0  0  0
   -2.3017   23.5023  -29.3865 H   0  0  0  0  0  0  0  0  0  0  0  0
   -1.8321   25.2362  -29.3865 H   0  0  0  0  0  0  0  0  0  0  0  0
   -3.5619   22.0555  -30.6761 H   0  0  0  0  0  0  0  0  0  0  0  0
   -5.5528   20.6861  -31.2893 H   0  0  0  0  0  0  0  0  0  0  0  0
  -11.1560   21.2140  -32.0470 H   0  0  0  0  0  0  0  0  0  0  0  0
   -9.8399   19.0429  -32.7162 H   0  0  0  0  0  0  0  0  0  0  0  0
   -7.2422   18.0765  -31.0470 H   0  0  0  0  0  0  0  0  0  0  0  0
   -5.3363   16.6121  -31.7311 H   0  0  0  0  0  0  0  0  0  0  0  0
   -4.5384   19.1087  -35.0910 H   0  0  0  0  0  0  0  0  0  0  0  0
   -6.4322   20.6163  -34.4676 H   0  0  0  0  0  0  0  0  0  0  0  0
   -7.9267   24.2902  -31.6368 H   0  0  0  0  0  0  0  0  0  0  0  0
   -5.9398   25.6594  -31.0207 H   0  0  0  0  0  0  0  0  0  0  0  0
  1  2  1  0
  2  3  1  0
  3  4  2  0
  4  5  1  0
  5  6  2  0
  6  7  1  0
  7  8  1  0
  8  9  2  0
  9 10  1  0
 10 11  2  0
 11 12  1  0
 12 13  2  0
 13 14  1  0
 14 15  2  0
 15 16  1  0
 16 17  2  0
  6 18  1  0
 18 19  2  0
 19  3  1  0
 11  7  1  0
 17 12  1  0
  1 20  1  0
  1 21  1  0
  1 22  1  0
  4 23  1  0
  5 24  1  0
  9 25  1  0
 10 26  1  0
 13 27  1  0
 14 28  1  0
 16 29  1  0
 17 30  1  0
 18 31  1  0
 19 32  1  0
M  CHG  1   9   1
M  END
>  <UniqueID>  (34) 
33

>  <SMILES>  (34) 
COc1ccc(-n2n[nH+]cc2-c2ccncc2)cc1

>  <Energy>  (34) 
79.29730237855458

>  <Genealogy>  (34) 
COc1ccc(-n2n[nH+]cc2-c2ccncc2)cc1 (protonated)
COc1ccc(-n2n[nH+]cc2-c2ccncc2)cc1 (3D coordinates assigned)
COc1ccc(-n2n[nH+]cc2-c2ccncc2)cc1 (optimized conformer: 79.29730237855458 kcal/mol)

>  <smiles>  (34) 
COc1ccc(-n2nncc2-c2ccncc2)cc1

>  <score_type>  (34) 
oracle

>  <origin>  (34) 
adg

>  <m_score__min__energy>  (34) 
-7.1399999999999997

>  <m_primary>  (34) 
energy

$$$$
34:0
     RDKit          3D

 26 28  0  0  0  0  0  0  0  0999 V2000
   -4.3960   20.8320  -32.0870 C   0  0  0  0  0  0  0  0  0  0  0  0
   -5.5760   21.5600  -31.6880 N   0  0  0  0  0  0  0  0  0  0  0  0
   -5.4920   22.7640  -31.0870 C   0  0  0  0  0  0  0  0  0  0  0  0
   -4.2880   23.3240  -30.8410 N   0  0  0  0  0  0  0  0  0  0  0  0
   -4.1410   24.5210  -30.2450 C   0  0  0  0  0  0  0  0  0  0  0  0
   -2.9600   24.9230  -30.0780 O   0  0  0  0  0  0  0  0  0  0  0  0
   -5.2220   25.2220  -29.8620 N   0  0  0  0  0  0  0  0  0  0  0  0
   -6.4840   24.7610  -30.0570 C   0  0  0  0  0  0  0  0  0  0  0  0
   -7.4830   25.4340  -29.6910 O   0  0  0  0  0  0  0  0  0  0  0  0
   -6.6640   23.5270  -30.6710 C   0  0  0  0  0  0  0  0  0  0  0  0
   -7.9200   22.9950  -30.9010 C   0  0  0  0  0  0  0  0  0  0  0  0
   -7.9600   21.7610  -31.5190 C   0  0  0  0  0  0  0  0  0  0  0  0
   -9.2310   21.2280  -31.7500 C   0  0  0  0  0  0  0  0  0  0  0  0
   -9.3880   20.0000  -32.3600 C   0  0  0  0  0  0  0  0  0  0  0  0
   -8.2380   19.3350  -32.7270 C   0  0  0  0  0  0  0  0  0  0  0  0
   -6.9750   19.8400  -32.5110 C   0  0  0  0  0  0  0  0  0  0  0  0
   -6.8280   21.0680  -31.8990 C   0  0  0  0  0  0  0  0  0  0  0  0
   -3.8520   20.4964  -31.1918 H   0  0  0  0  0  0  0  0  0  0  0  0
   -4.6897   19.9579  -32.6867 H   0  0  0  0  0  0  0  0  0  0  0  0
   -3.7466   21.4867  -32.6867 H   0  0  0  0  0  0  0  0  0  0  0  0
   -5.0380   26.1470  -29.4040 H   0  0  0  0  0  0  0  0  0  0  0  0
   -8.8373   23.5264  -30.6074 H   0  0  0  0  0  0  0  0  0  0  0  0
  -10.1206   21.7963  -31.4407 H   0  0  0  0  0  0  0  0  0  0  0  0
  -10.3844   19.5720  -32.5446 H   0  0  0  0  0  0  0  0  0  0  0  0
   -8.3334   18.3542  -33.2157 H   0  0  0  0  0  0  0  0  0  0  0  0
   -6.0891   19.2681  -32.8243 H   0  0  0  0  0  0  0  0  0  0  0  0
  1  2  1  0
  2  3  1  0
  3  4  2  0
  4  5  1  0
  5  6  2  0
  5  7  1  0
  7  8  1  0
  8  9  2  0
  8 10  1  0
 10 11  2  0
 11 12  1  0
 12 13  2  0
 13 14  1  0
 14 15  2  0
 15 16  1  0
 16 17  2  0
 17  2  1  0
 10  3  1  0
 17 12  1  0
  1 18  1  0
  1 19  1  0
  1 20  1  0
  7 21  1  0
 11 22  1  0
 13 23  1  0
 14 24  1  0
 15 25  1  0
 16 26  1  0
M  END
>  <smiles>  (35) 
Cn1c2nc(=O)[nH]c(=O)c-2cc2ccccc21

>  <score_type>  (35) 
oracle

>  <origin>  (35) 
adg

>  <m_score__min__energy>  (35) 
-7.6100000000000003

>  <m_primary>  (35) 
energy

$$$$
35:0
     RDKit          3D

 32 34  0  0  0  0  0  0  0  0999 V2000
   -8.7896   19.4847  -33.7273 H   0  0  0  0  0  0  0  0  0  0  0  0
   -8.1630   19.6030  -32.8310 C   0  0  0  0  0  0  0  0  0  0  0  0
   -8.4200   20.6470  -32.0260 C   0  0  0  0  0  0  0  0  0  0  0  0
   -9.4312   20.7208  -31.5993 H   0  0  0  0  0  0  0  0  0  0  0  0
   -7.4510   21.7050  -31.6680 C   0  0  0  0  0  0  0  0  0  0  0  0
   -6.2010   21.8250  -32.3430 C   0  0  0  0  0  0  0  0  0  0  0  0
   -5.9402   21.1070  -33.1345 H   0  0  0  0  0  0  0  0  0  0  0  0
   -5.2950   22.8520  -32.0090 C   0  0  0  0  0  0  0  0  0  0  0  0
   -4.3214   22.9462  -32.5122 H   0  0  0  0  0  0  0  0  0  0  0  0
   -5.6880   23.7400  -31.0150 C   0  0  0  0  0  0  0  0  0  0  0  0
   -6.8890   23.6500  -30.3840 C   0  0  0  0  0  0  0  0  0  0  0  0
   -7.8110   22.6540  -30.6830 C   0  0  0  0  0  0  0  0  0  0  0  0
   -8.7843   22.6056  -30.1727 H   0  0  0  0  0  0  0  0  0  0  0  0
   -6.9710   24.6590  -29.4960 N   0  0  0  0  0  0  0  0  0  0  0  0
   -7.7570   24.8850  -28.8470 H   0  0  0  0  0  0  0  0  0  0  0  0
   -5.8470   25.3220  -29.6030 O   0  0  0  0  0  0  0  0  0  0  0  0
   -5.0550   24.8030  -30.5020 N   0  0  0  0  0  0  0  0  0  0  0  0
   -3.8120   25.2830  -30.8440 O   0  0  0  0  0  0  0  0  0  0  0  0
   -7.0970   18.5980  -32.6010 C   0  0  0  0  0  0  0  0  0  0  0  0
   -7.0840   17.8500  -31.4090 C   0  0  0  0  0  0  0  0  0  0  0  0
   -7.8518   18.0320  -30.6426 H   0  0  0  0  0  0  0  0  0  0  0  0
   -6.1050   16.8790  -31.1910 C   0  0  0  0  0  0  0  0  0  0  0  0
   -6.0947   16.3111  -30.2490 H   0  0  0  0  0  0  0  0  0  0  0  0
   -5.1400   16.6280  -32.1660 C   0  0  0  0  0  0  0  0  0  0  0  0
   -4.3682   15.8640  -31.9910 H   0  0  0  0  0  0  0  0  0  0  0  0
   -5.1520   17.3450  -33.3640 C   0  0  0  0  0  0  0  0  0  0  0  0
   -4.3943   17.1343  -34.1331 H   0  0  0  0  0  0  0  0  0  0  0  0
   -6.1240   18.3340  -33.5960 C   0  0  0  0  0  0  0  0  0  0  0  0
   -6.1130   19.0910  -34.8980 C   0  0  0  0  0  0  0  0  0  0  0  0
   -6.0973   20.1717  -34.6937 H   0  0  0  0  0  0  0  0  0  0  0  0
   -5.2188   18.8140  -35.4756 H   0  0  0  0  0  0  0  0  0  0  0  0
   -7.0149   18.8401  -35.4756 H   0  0  0  0  0  0  0  0  0  0  0  0
  1  2  1  0
  2  3  2  0
  3  4  1  0
  3  5  1  0
  5  6  1  0
  6  7  1  0
  6  8  2  0
  8  9  1  0
  8 10  1  0
 10 11  1  0
 11 12  1  0
 12 13  1  0
 11 14  2  0
 14 15  1  0
 14 16  1  0
 16 17  1  0
 17 18  1  0
  2 19  1  0
 19 20  2  0
 20 21  1  0
 20 22  1  0
 22 23  1  0
 22 24  2  0
 24 25  1  0
 24 26  1  0
 26 27  1  0
 26 28  2  0
 28 29  1  0
 29 30  1  0
 29 31  1  0
 29 32  1  0
 12  5  2  0
 28 19  1  0
 17 10  2  0
M  CHG  3  14   1  17   1  18  -1
M  END
>  <UniqueID>  (36) 
34

>  <SMILES>  (36) 
Cc1ccccc1/C=C\c1ccc2c(c1)[nH+]o[n+]2[O-]

>  <Energy>  (36) 
92.71604150857347

>  <Genealogy>  (36) 
Cc1ccccc1C=Cc1ccc2c(c1)[nH+]o[n+]2[O-] (protonated)
Cc1ccccc1/C=C\c1ccc2c(c1)[nH+]o[n+]2[O-] (cis-trans isomerization)
Cc1ccccc1/C=C\c1ccc2c(c1)[nH+]o[n+]2[O-] (3D coordinates assigned)
Cc1ccccc1/C=C\c1ccc2c(c1)[nH+]o[n+]2[O-] (optimized conformer: 92.71604150857347 kcal/mol)

>  <smiles>  (36) 
Cc1ccccc1C=Cc1ccc2c(c1)no[n+]2[O-]

>  <score_type>  (36) 
oracle

>  <origin>  (36) 
adg

>  <m_score__min__energy>  (36) 
-8.2400000000000002

>  <m_primary>  (36) 
energy

$$$$
36:0
     RDKit          3D

 83 87  0  0  0  0  0  0  0  0999 V2000
   -1.7875   19.9056  -28.4290 H   0  0  0  0  0  0  0  0  0  0  0  0
   -0.8980   20.0010  -29.0690 C   0  0  0  0  0  0  0  0  0  0  0  0
    0.1180   20.6760  -28.6160 N   0  0  0  0  0  0  0  0  0  0  0  0
    0.0620   21.6650  -27.5840 C   0  0  0  0  0  0  0  0  0  0  0  0
    0.8920   22.7890  -27.6490 C   0  0  0  0  0  0  0  0  0  0  0  0
    1.5310   22.9492  -28.5299 H   0  0  0  0  0  0  0  0  0  0  0  0
    0.9110   23.7080  -26.5980 C   0  0  0  0  0  0  0  0  0  0  0  0
    1.5290   24.6146  -26.6764 H   0  0  0  0  0  0  0  0  0  0  0  0
    0.1430   23.4820  -25.4360 C   0  0  0  0  0  0  0  0  0  0  0  0
    0.1710   24.4100  -24.3270 N   0  0  0  0  0  0  0  0  0  0  0  0
   -0.7050   24.9810  -24.3730 H   0  0  0  0  0  0  0  0  0  0  0  0
    0.1540   23.9070  -23.4090 H   0  0  0  0  0  0  0  0  0  0  0  0
    1.3270   25.3310  -24.3610 C   0  0  0  0  0  0  0  0  0  0  0  0
    2.1302   24.8558  -24.9433 H   0  0  0  0  0  0  0  0  0  0  0  0
    1.6136   25.5186  -23.3157 H   0  0  0  0  0  0  0  0  0  0  0  0
    1.0190   26.7090  -24.9930 C   0  0  0  0  0  0  0  0  0  0  0  0
    1.5954   26.8010  -25.9254 H   0  0  0  0  0  0  0  0  0  0  0  0
    1.2974   27.4736  -24.2529 H   0  0  0  0  0  0  0  0  0  0  0  0
   -0.4250   26.9100  -25.3090 N   0  0  0  0  0  0  0  0  0  0  0  0
   -0.6510   26.7260  -26.7700 C   0  0  0  0  0  0  0  0  0  0  0  0
    0.2881   26.3945  -27.2372 H   0  0  0  0  0  0  0  0  0  0  0  0
   -0.9818   27.6873  -27.1900 H   0  0  0  0  0  0  0  0  0  0  0  0
   -1.7340   25.6880  -27.0460 C   0  0  0  0  0  0  0  0  0  0  0  0
   -2.1298   25.3086  -26.0924 H   0  0  0  0  0  0  0  0  0  0  0  0
   -2.5481   26.1518  -27.6223 H   0  0  0  0  0  0  0  0  0  0  0  0
   -1.3051   24.8550  -27.6223 H   0  0  0  0  0  0  0  0  0  0  0  0
   -0.8830   28.2810  -24.9510 C   0  0  0  0  0  0  0  0  0  0  0  0
   -1.9505   28.2338  -24.6900 H   0  0  0  0  0  0  0  0  0  0  0  0
   -0.2607   28.6192  -24.1093 H   0  0  0  0  0  0  0  0  0  0  0  0
   -0.7060   29.2970  -26.0740 C   0  0  0  0  0  0  0  0  0  0  0  0
   -0.5323   30.2939  -25.6426 H   0  0  0  0  0  0  0  0  0  0  0  0
    0.1558   29.0109  -26.6948 H   0  0  0  0  0  0  0  0  0  0  0  0
   -1.6138   29.3192  -26.6948 H   0  0  0  0  0  0  0  0  0  0  0  0
   -0.7410   22.3880  -25.4150 C   0  0  0  0  0  0  0  0  0  0  0  0
   -1.4202   22.2523  -24.5604 H   0  0  0  0  0  0  0  0  0  0  0  0
   -0.7640   21.4740  -26.4680 C   0  0  0  0  0  0  0  0  0  0  0  0
   -1.4319   20.6012  -26.4226 H   0  0  0  0  0  0  0  0  0  0  0  0
   -0.9200   19.3380  -30.4350 C   0  0  1  0  0  0  0  0  0  0  0  0
   -1.5131   18.4151  -30.3539 H   0  0  0  0  0  0  0  0  0  0  0  0
   -1.6110   20.2290  -31.4720 C   0  0  0  0  0  0  0  0  0  0  0  0
   -2.2350   21.5220  -31.1010 C   0  0  0  0  0  0  0  0  0  0  0  0
   -1.5440   22.4620  -30.3190 C   0  0  0  0  0  0  0  0  0  0  0  0
   -0.5215   22.2429  -29.9778 H   0  0  0  0  0  0  0  0  0  0  0  0
   -2.1460   23.6720  -29.9720 C   0  0  0  0  0  0  0  0  0  0  0  0
   -1.5940   24.3981  -29.3571 H   0  0  0  0  0  0  0  0  0  0  0  0
   -3.4440   23.9710  -30.3980 C   0  0  0  0  0  0  0  0  0  0  0  0
   -4.0030   25.2000  -30.0130 O   0  0  0  0  0  0  0  0  0  0  0  0
   -5.3750   25.5390  -30.1550 C   0  0  0  0  0  0  0  0  0  0  0  0
   -5.8298   25.6514  -29.1598 H   0  0  0  0  0  0  0  0  0  0  0  0
   -5.4634   26.4860  -30.7076 H   0  0  0  0  0  0  0  0  0  0  0  0
   -5.8943   24.7422  -30.7076 H   0  0  0  0  0  0  0  0  0  0  0  0
   -4.1360   23.0380  -31.1930 C   0  0  0  0  0  0  0  0  0  0  0  0
   -5.1562   23.2626  -31.5375 H   0  0  0  0  0  0  0  0  0  0  0  0
   -3.5330   21.8270  -31.5470 C   0  0  0  0  0  0  0  0  0  0  0  0
   -4.0773   21.1089  -32.1780 H   0  0  0  0  0  0  0  0  0  0  0  0
   -1.7240   19.8380  -32.7120 N   0  0  0  0  0  0  0  0  0  0  0  0
   -0.6670   19.8630  -33.6820 C   0  0  0  0  0  0  0  0  0  0  0  0
   -0.6800   20.8560  -34.6660 C   0  0  0  0  0  0  0  0  0  0  0  0
   -1.4581   21.6334  -34.6503 H   0  0  0  0  0  0  0  0  0  0  0  0
    0.2940   20.8640  -35.6710 C   0  0  0  0  0  0  0  0  0  0  0  0
    0.2723   21.6407  -36.4496 H   0  0  0  0  0  0  0  0  0  0  0  0
    1.2920   19.8900  -35.6880 C   0  0  0  0  0  0  0  0  0  0  0  0
    2.0464   19.8889  -36.4886 H   0  0  0  0  0  0  0  0  0  0  0  0
    1.3330   18.9160  -34.6880 C   0  0  0  0  0  0  0  0  0  0  0  0
    2.1320   18.1600  -34.6929 H   0  0  0  0  0  0  0  0  0  0  0  0
    0.3600   18.8970  -33.6770 C   0  0  0  0  0  0  0  0  0  0  0  0
    0.5470   17.7450  -32.3000 S   0  0  0  0  0  0  0  0  0  0  0  0
    0.5040   18.9250  -30.8820 C   0  0  2  0  0  0  0  0  0  0  0  0
    0.9655   19.8472  -31.2649 H   0  0  0  0  0  0  0  0  0  0  0  0
    1.3310   18.4260  -29.7120 C   0  0  0  0  0  0  0  0  0  0  0  0
    0.8590   17.4130  -28.8560 C   0  0  0  0  0  0  0  0  0  0  0  0
   -0.0988   16.9181  -29.0743 H   0  0  0  0  0  0  0  0  0  0  0  0
    1.5950   17.0300  -27.7320 C   0  0  0  0  0  0  0  0  0  0  0  0
    1.2229   16.2264  -27.0794 H   0  0  0  0  0  0  0  0  0  0  0  0
    2.8100   17.6700  -27.4340 C   0  0  0  0  0  0  0  0  0  0  0  0
    3.5940   17.3060  -26.2080 C   0  0  0  0  0  0  0  0  0  0  0  0
    3.0168   17.5740  -25.3107 H   0  0  0  0  0  0  0  0  0  0  0  0
    3.7918   16.2239  -26.2071 H   0  0  0  0  0  0  0  0  0  0  0  0
    4.5482   17.8532  -26.2071 H   0  0  0  0  0  0  0  0  0  0  0  0
    3.2700   18.7030  -28.2650 C   0  0  0  0  0  0  0  0  0  0  0  0
    4.2128   19.2178  -28.0282 H   0  0  0  0  0  0  0  0  0  0  0  0
    2.5360   19.0800  -29.3910 C   0  0  0  0  0  0  0  0  0  0  0  0
    2.9020   19.8948  -30.0329 H   0  0  0  0  0  0  0  0  0  0  0  0
  1  2  1  0
  2  3  2  0
  3  4  1  0
  4  5  2  0
  5  6  1  0
  5  7  1  0
  7  8  1  0
  7  9  2  0
  9 10  1  0
 10 11  1  0
 10 12  1  0
 10 13  1  0
 13 14  1  0
 13 15  1  0
 13 16  1  0
 16 17  1  0
 16 18  1  0
 16 19  1  0
 19 20  1  0
 20 21  1  0
 20 22  1  0
 20 23  1  0
 23 24  1  0
 23 25  1  0
 23 26  1  0
 19 27  1  0
 27 28  1  0
 27 29  1  0
 27 30  1  0
 30 31  1  0
 30 32  1  0
 30 33  1  0
  9 34  1  0
 34 35  1  0
 34 36  2  0
 36 37  1  0
  2 38  1  0
 38 39  1  1
 38 40  1  0
 40 41  1  0
 41 42  2  0
 42 43  1  0
 42 44  1  0
 44 45  1  0
 44 46  2  0
 46 47  1  0
 47 48  1  0
 48 49  1  0
 48 50  1  0
 48 51  1  0
 46 52  1  0
 52 53  1  0
 52 54  2  0
 54 55  1  0
 40 56  2  0
 56 57  1  0
 57 58  2  0
 58 59  1  0
 58 60  1  0
 60 61  1  0
 60 62  2  0
 62 63  1  0
 62 64  1  0
 64 65  1  0
 64 66  2  0
 66 67  1  0
 67 68  1  0
 68 69  1  6
 68 70  1  0
 70 71  2  0
 71 72  1  0
 71 73  1  0
 73 74  1  0
 73 75  2  0
 75 76  1  0
 76 77  1  0
 76 78  1  0
 76 79  1  0
 75 80  1  0
 80 81  1  0
 80 82  2  0
 82 83  1  0
 36  4  1  0
 68 38  1  0
 82 70  1  0
 54 41  1  0
 66 57  1  0
M  CHG  1  10   1
M  END
>  <UniqueID>  (37) 
35

>  <SMILES>  (37) 
CCN(CC)CC[NH2+]c1ccc(/N=C\[C@H]2C(c3ccc(OC)cc3)=Nc3ccccc3S[C@@H]2c2ccc(C)cc2)cc1

>  <Energy>  (37) 
115.35422182827882

>  <Genealogy>  (37) 
CCN(CC)CC[NH2+]c1ccc(N=CC2C(c3ccc(OC)cc3)=Nc3ccccc3SC2c2ccc(C)cc2)cc1 (protonated)
CCN(CC)CC[NH2+]c1ccc(N=C[C@H]2C(c3ccc(OC)cc3)=Nc3ccccc3S[C@@H]2c2ccc(C)cc2)cc1 (chirality)
CCN(CC)CC[NH2+]c1ccc(/N=C\[C@H]2C(c3ccc(OC)cc3)=Nc3ccccc3S[C@@H]2c2ccc(C)cc2)cc1 (cis-trans isomerization)
CCN(CC)CC[NH2+]c1ccc(/N=C\[C@H]2C(c3ccc(OC)cc3)=Nc3ccccc3S[C@@H]2c2ccc(C)cc2)cc1 (3D coordinates assigned)
CCN(CC)CC[NH2+]c1ccc(/N=C\[C@H]2C(c3ccc(OC)cc3)=Nc3ccccc3S[C@@H]2c2ccc(C)cc2)cc1 (nonaromatic ring conformer: 115.35422182827882 kcal/mol)

>  <smiles>  (37) 
CCN(CC)CCNc1ccc(N=CC2C(c3ccc(OC)cc3)=Nc3ccccc3SC2c2ccc(C)cc2)cc1

>  <score_type>  (37) 
oracle

>  <origin>  (37) 
adg

>  <m_score__min__energy>  (37) 
-7.3899999999999997

>  <m_primary>  (37) 
energy

$$$$
37:0
     RDKit          3D

 63 66  0  0  0  0  0  0  0  0999 V2000
    0.9660   19.6690  -31.6590 C   0  0  0  0  0  0  0  0  0  0  0  0
    0.6300   21.0510  -31.5800 O   0  0  0  0  0  0  0  0  0  0  0  0
   -0.6780   21.5470  -31.4730 C   0  0  0  0  0  0  0  0  0  0  0  0
   -1.1560   22.1430  -30.2890 C   0  0  0  0  0  0  0  0  0  0  0  0
   -2.4630   22.6290  -30.2220 C   0  0  0  0  0  0  0  0  0  0  0  0
   -3.3100   22.5290  -31.3300 C   0  0  0  0  0  0  0  0  0  0  0  0
   -4.6570   23.0370  -31.2610 N   0  0  0  0  0  0  0  0  0  0  0  0
   -4.8550   24.3240  -30.8280 C   0  0  0  0  0  0  0  0  0  0  0  0
   -3.8780   25.0550  -30.5060 O   0  0  0  0  0  0  0  0  0  0  0  0
   -6.1480   24.8360  -30.7320 C   0  0  0  0  0  0  0  0  0  0  0  0
   -7.2050   24.0590  -31.0690 N   0  0  0  0  0  0  0  0  0  0  0  0
   -7.0360   22.7840  -31.5060 C   0  0  0  0  0  0  0  0  0  0  0  0
   -8.1460   22.0050  -31.8590 C   0  0  0  0  0  0  0  0  0  0  0  0
   -9.3030   22.4990  -31.7390 O   0  0  0  0  0  0  0  0  0  0  0  0
   -7.9810   20.7240  -32.3300 N   0  0  0  0  0  0  0  0  0  0  0  0
   -9.1690   19.9430  -32.7260 C   0  0  0  0  0  0  0  0  0  0  0  0
   -6.7200   20.1710  -32.4040 C   0  0  0  0  0  0  0  0  0  0  0  0
   -6.4990   18.7670  -32.8210 C   0  0  0  0  0  0  0  0  0  0  0  0
   -6.3120   17.7620  -31.8600 C   0  0  0  0  0  0  0  0  0  0  0  0
   -6.0810   16.4410  -32.2540 C   0  0  0  0  0  0  0  0  0  0  0  0
   -6.0200   16.1090  -33.6220 C   0  0  0  0  0  0  0  0  0  0  0  0
   -5.7830   14.8010  -34.0770 O   0  0  0  0  0  0  0  0  0  0  0  0
   -4.5030   14.2410  -34.3700 C   0  0  0  0  0  0  0  0  0  0  0  0
   -3.3780   15.0780  -33.7480 C   0  0  0  0  0  0  0  0  0  0  0  0
   -3.0940   16.2780  -34.5670 N   0  0  0  0  0  0  0  0  0  0  0  0
   -1.9500   16.0470  -35.4660 C   0  0  0  0  0  0  0  0  0  0  0  0
   -2.8120   17.4330  -33.6990 C   0  0  0  0  0  0  0  0  0  0  0  0
   -6.2060   17.1150  -34.5770 C   0  0  0  0  0  0  0  0  0  0  0  0
   -6.4370   18.4360  -34.1820 C   0  0  0  0  0  0  0  0  0  0  0  0
   -5.5920   20.9350  -32.0700 C   0  0  0  0  0  0  0  0  0  0  0  0
   -5.7360   22.2540  -31.6110 C   0  0  0  0  0  0  0  0  0  0  0  0
   -2.8440   21.9310  -32.5090 C   0  0  0  0  0  0  0  0  0  0  0  0
   -1.5260   21.4420  -32.5870 C   0  0  0  0  0  0  0  0  0  0  0  0
   -1.0220   20.8460  -33.7550 O   0  0  0  0  0  0  0  0  0  0  0  0
   -0.1080   21.4700  -34.6500 C   0  0  0  0  0  0  0  0  0  0  0  0
    1.0661   19.2574  -30.6438 H   0  0  0  0  0  0  0  0  0  0  0  0
    0.1730   19.1290  -32.1971 H   0  0  0  0  0  0  0  0  0  0  0  0
    1.9184   19.5534  -32.1971 H   0  0  0  0  0  0  0  0  0  0  0  0
   -0.4959   22.2257  -29.4130 H   0  0  0  0  0  0  0  0  0  0  0  0
   -2.8280   23.0926  -29.2936 H   0  0  0  0  0  0  0  0  0  0  0  0
   -6.3092   25.8670  -30.3839 H   0  0  0  0  0  0  0  0  0  0  0  0
   -9.6967   19.5961  -31.8253 H   0  0  0  0  0  0  0  0  0  0  0  0
   -9.8413   20.5759  -33.3239 H   0  0  0  0  0  0  0  0  0  0  0  0
   -8.8545   19.0749  -33.3239 H   0  0  0  0  0  0  0  0  0  0  0  0
   -6.3474   18.0152  -30.7901 H   0  0  0  0  0  0  0  0  0  0  0  0
   -5.9464   15.6578  -31.4934 H   0  0  0  0  0  0  0  0  0  0  0  0
   -4.4567   13.2194  -33.9649 H   0  0  0  0  0  0  0  0  0  0  0  0
   -4.3679   14.2308  -35.4616 H   0  0  0  0  0  0  0  0  0  0  0  0
   -3.6810   15.3947  -32.7391 H   0  0  0  0  0  0  0  0  0  0  0  0
   -2.4678   14.4621  -33.7017 H   0  0  0  0  0  0  0  0  0  0  0  0
   -1.0449   15.8642  -34.8681 H   0  0  0  0  0  0  0  0  0  0  0  0
   -2.1532   15.1718  -36.1006 H   0  0  0  0  0  0  0  0  0  0  0  0
   -1.7977   16.9325  -36.1006 H   0  0  0  0  0  0  0  0  0  0  0  0
   -2.8868   17.1266  -32.6452 H   0  0  0  0  0  0  0  0  0  0  0  0
   -1.7967   17.8047  -33.9016 H   0  0  0  0  0  0  0  0  0  0  0  0
   -3.5418   18.2308  -33.9016 H   0  0  0  0  0  0  0  0  0  0  0  0
   -6.1701   16.8642  -35.6474 H   0  0  0  0  0  0  0  0  0  0  0  0
   -6.5707   19.2194  -34.9426 H   0  0  0  0  0  0  0  0  0  0  0  0
   -4.5875   20.4976  -32.1684 H   0  0  0  0  0  0  0  0  0  0  0  0
   -3.5120   21.8432  -33.3785 H   0  0  0  0  0  0  0  0  0  0  0  0
    0.6661   21.9985  -34.0742 H   0  0  0  0  0  0  0  0  0  0  0  0
    0.3646   20.7051  -35.2838 H   0  0  0  0  0  0  0  0  0  0  0  0
   -0.6482   22.1887  -35.2838 H   0  0  0  0  0  0  0  0  0  0  0  0
  1  2  1  0
  2  3  1  0
  3  4  2  0
  4  5  1  0
  5  6  2  0
  6  7  1  0
  7  8  1  0
  8  9  2  0
  8 10  1  0
 10 11  2  0
 11 12  1  0
 12 13  1  0
 13 14  2  0
 13 15  1  0
 15 16  1  0
 15 17  1  0
 17 18  1  0
 18 19  2  0
 19 20  1  0
 20 21  2  0
 21 22  1  0
 22 23  1  0
 23 24  1  0
 24 25  1  0
 25 26  1  0
 25 27  1  0
 21 28  1  0
 28 29  2  0
 17 30  2  0
 30 31  1  0
  6 32  1  0
 32 33  2  0
 33 34  1  0
 34 35  1  0
 33  3  1  0
 31  7  1  0
 31 12  2  0
 29 18  1  0
  1 36  1  0
  1 37  1  0
  1 38  1  0
  4 39  1  0
  5 40  1  0
 10 41  1  0
 16 42  1  0
 16 43  1  0
 16 44  1  0
 19 45  1  0
 20 46  1  0
 23 47  1  0
 23 48  1  0
 24 49  1  0
 24 50  1  0
 26 51  1  0
 26 52  1  0
 26 53  1  0
 27 54  1  0
 27 55  1  0
 27 56  1  0
 28 57  1  0
 29 58  1  0
 30 59  1  0
 32 60  1  0
 35 61  1  0
 35 62  1  0
 35 63  1  0
M  END
>  <UniqueID>  (38) 
36

>  <SMILES>  (38) 
COc1ccc(-n2c(=O)cnc3c(=O)n(C)c(-c4ccc(OCCN(C)C)cc4)cc32)cc1OC

>  <Energy>  (38) 
92.4933631568145

>  <Genealogy>  (38) 
COc1ccc(-n2c(=O)cnc3c(=O)n(C)c(-c4ccc(OCCN(C)C)cc4)cc32)cc1OC (3D coordinates assigned)
COc1ccc(-n2c(=O)cnc3c(=O)n(C)c(-c4ccc(OCCN(C)C)cc4)cc32)cc1OC (optimized conformer: 92.4933631568145 kcal/mol)

>  <smiles>  (38) 
COc1ccc(-n2c(=O)cnc3c(=O)n(C)c(-c4ccc(OCCN(C)C)cc4)cc32)cc1OC

>  <score_type>  (38) 
oracle

>  <origin>  (38) 
adg

>  <m_score__min__energy>  (38) 
-8.8800000000000008

>  <m_primary>  (38) 
energy

$$$$
38:0
     RDKit          3D

 55 60  0  0  0  0  0  0  0  0999 V2000
    2.7840   18.1300  -32.2250 C   0  0  0  0  0  0  0  0  0  0  0  0
    1.9610   18.7050  -33.2350 O   0  0  0  0  0  0  0  0  0  0  0  0
    0.5650   18.8190  -33.1470 C   0  0  0  0  0  0  0  0  0  0  0  0
   -0.2190   17.9300  -32.3890 C   0  0  0  0  0  0  0  0  0  0  0  0
   -1.6080   18.0860  -32.3360 C   0  0  0  0  0  0  0  0  0  0  0  0
   -2.2340   19.1210  -33.0490 C   0  0  0  0  0  0  0  0  0  0  0  0
   -3.7060   19.2930  -32.9950 C   0  0  0  0  0  0  0  0  0  0  0  0
   -4.2070   20.4650  -32.4840 N   0  0  0  0  0  0  0  0  0  0  0  0
   -5.5480   20.5890  -32.3540 C   0  0  0  0  0  0  0  0  0  0  0  0
   -6.3820   19.5840  -32.7580 C   0  0  0  0  0  0  0  0  0  0  0  0
   -5.9040   18.4400  -33.2830 N   0  0  0  0  0  0  0  0  0  0  0  0
   -4.5770   18.2880  -33.4100 N   0  0  0  0  0  0  0  0  0  0  0  0
   -4.1110   17.0770  -34.0310 C   0  0  0  0  0  0  0  0  0  0  0  0
   -3.5710   17.0980  -35.3290 C   0  0  0  0  0  0  0  0  0  0  0  0
   -3.1290   15.9140  -35.9270 C   0  0  0  0  0  0  0  0  0  0  0  0
   -3.2370   14.7010  -35.2420 C   0  0  0  0  0  0  0  0  0  0  0  0
   -3.7930   14.6690  -33.9590 C   0  0  0  0  0  0  0  0  0  0  0  0
   -4.2350   15.8520  -33.3580 C   0  0  0  0  0  0  0  0  0  0  0  0
   -7.6600   20.0210  -32.5410 C   0  0  0  0  0  0  0  0  0  0  0  0
   -8.9620   19.5620  -32.6710 C   0  0  0  0  0  0  0  0  0  0  0  0
   -9.8640   20.5330  -32.2020 C   0  0  0  0  0  0  0  0  0  0  0  0
   -9.0220   21.9190  -31.6400 S   0  0  0  0  0  0  0  0  0  0  0  0
   -7.5310   21.2610  -32.0220 C   0  0  0  0  0  0  0  0  0  0  0  0
   -6.2440   21.6580  -31.8770 N   0  0  0  0  0  0  0  0  0  0  0  0
   -5.7560   22.8880  -31.3180 C   0  0  0  0  0  0  0  0  0  0  0  0
   -6.5180   24.0620  -31.4210 C   0  0  0  0  0  0  0  0  0  0  0  0
   -6.0530   25.2550  -30.8620 C   0  0  0  0  0  0  0  0  0  0  0  0
   -4.8260   25.2860  -30.1960 C   0  0  0  0  0  0  0  0  0  0  0  0
   -4.0490   24.1220  -30.0920 C   0  0  0  0  0  0  0  0  0  0  0  0
   -2.7550   24.1440  -29.3350 C   0  0  0  0  0  0  0  0  0  0  0  0
   -4.5280   22.9210  -30.6370 C   0  0  0  0  0  0  0  0  0  0  0  0
   -1.4490   20.0160  -33.7890 C   0  0  0  0  0  0  0  0  0  0  0  0
   -0.0610   19.8610  -33.8410 C   0  0  0  0  0  0  0  0  0  0  0  0
    2.3930   18.4032  -31.2338 H   0  0  0  0  0  0  0  0  0  0  0  0
    2.7830   17.0351  -32.3305 H   0  0  0  0  0  0  0  0  0  0  0  0
    3.8118   18.5076  -32.3305 H   0  0  0  0  0  0  0  0  0  0  0  0
    0.2620   17.1096  -31.8362 H   0  0  0  0  0  0  0  0  0  0  0  0
   -2.2134   17.3939  -31.7323 H   0  0  0  0  0  0  0  0  0  0  0  0
   -3.5680   21.2360  -32.1910 H   0  0  0  0  0  0  0  0  0  0  0  0
   -3.4960   18.0494  -35.8760 H   0  0  0  0  0  0  0  0  0  0  0  0
   -2.6958   15.9375  -36.9378 H   0  0  0  0  0  0  0  0  0  0  0  0
   -2.8846   13.7709  -35.7119 H   0  0  0  0  0  0  0  0  0  0  0  0
   -3.8827   13.7130  -33.4224 H   0  0  0  0  0  0  0  0  0  0  0  0
   -4.6818   15.8220  -32.3533 H   0  0  0  0  0  0  0  0  0  0  0  0
   -9.2472   18.5819  -33.0810 H   0  0  0  0  0  0  0  0  0  0  0  0
  -10.9582   20.4201  -32.1960 H   0  0  0  0  0  0  0  0  0  0  0  0
   -7.4855   24.0428  -31.9441 H   0  0  0  0  0  0  0  0  0  0  0  0
   -6.6548   26.1719  -30.9467 H   0  0  0  0  0  0  0  0  0  0  0  0
   -4.4673   26.2260  -29.7514 H   0  0  0  0  0  0  0  0  0  0  0  0
   -2.9621   24.1405  -28.2547 H   0  0  0  0  0  0  0  0  0  0  0  0
   -2.1615   23.2558  -29.5975 H   0  0  0  0  0  0  0  0  0  0  0  0
   -2.1920   25.0518  -29.5975 H   0  0  0  0  0  0  0  0  0  0  0  0
   -3.9377   21.9990  -30.5302 H   0  0  0  0  0  0  0  0  0  0  0  0
   -1.9278   20.8445  -34.3315 H   0  0  0  0  0  0  0  0  0  0  0  0
    0.5445   20.5637  -34.4322 H   0  0  0  0  0  0  0  0  0  0  0  0
  1  2  1  0
  2  3  1  0
  3  4  2  0
  4  5  1  0
  5  6  2  0
  6  7  1  0
  7  8  2  0
  8  9  1  0
  9 10  2  0
 10 11  1  0
 11 12  2  0
 12 13  1  0
 13 14  2  0
 14 15  1  0
 15 16  2  0
 16 17  1  0
 17 18  2  0
 10 19  1  0
 19 20  1  0
 20 21  2  0
 21 22  1  0
 22 23  1  0
 23 24  1  0
 24 25  1  0
 25 26  2  0
 26 27  1  0
 27 28  2  0
 28 29  1  0
 29 30  1  0
 29 31  2  0
  6 32  1  0
 32 33  2  0
 33  3  1  0
 12  7  1  0
 18 13  1  0
 23 19  2  0
 31 25  1  0
 24  9  1  0
  1 34  1  0
  1 35  1  0
  1 36  1  0
  4 37  1  0
  5 38  1  0
  8 39  1  0
 14 40  1  0
 15 41  1  0
 16 42  1  0
 17 43  1  0
 18 44  1  0
 20 45  1  0
 21 46  1  0
 26 47  1  0
 27 48  1  0
 28 49  1  0
 30 50  1  0
 30 51  1  0
 30 52  1  0
 31 53  1  0
 32 54  1  0
 33 55  1  0
M  CHG  2   8   1  12   1
M  END
>  <UniqueID>  (39) 
37

>  <SMILES>  (39) 
COc1ccc(-c2[nH+]c3c(n[n+]2-c2ccccc2)c2ccsc2n3-c2cccc(C)c2)cc1

>  <Energy>  (39) 
167.98413684570372

>  <Genealogy>  (39) 
COc1ccc(-c2[nH+]c3c(n[n+]2-c2ccccc2)c2ccsc2n3-c2cccc(C)c2)cc1 (protonated)
COc1ccc(-c2[nH+]c3c(n[n+]2-c2ccccc2)c2ccsc2n3-c2cccc(C)c2)cc1 (3D coordinates assigned)
COc1ccc(-c2[nH+]c3c(n[n+]2-c2ccccc2)c2ccsc2n3-c2cccc(C)c2)cc1 (optimized conformer: 167.98413684570372 kcal/mol)

>  <smiles>  (39) 
COc1ccc(-c2nc3c(n[n+]2-c2ccccc2)c2ccsc2n3-c2cccc(C)c2)cc1

>  <score_type>  (39) 
oracle

>  <origin>  (39) 
adg

>  <m_score__min__energy>  (39) 
-8.1199999999999992

>  <m_primary>  (39) 
energy

$$$$
39:0
     RDKit          3D

 42 44  0  0  0  0  0  0  0  0999 V2000
   -1.1390   26.1460  -27.5390 C   0  0  0  0  0  0  0  0  0  0  0  0
   -1.7490   25.7850  -28.7730 O   0  0  0  0  0  0  0  0  0  0  0  0
   -1.9690   24.4630  -29.1920 C   0  0  0  0  0  0  0  0  0  0  0  0
   -1.1530   23.3980  -28.7640 C   0  0  0  0  0  0  0  0  0  0  0  0
   -1.4060   22.0960  -29.1980 C   0  0  0  0  0  0  0  0  0  0  0  0
   -2.4750   21.8340  -30.0660 C   0  0  0  0  0  0  0  0  0  0  0  0
   -2.7220   20.4350  -30.5520 C   0  0  0  0  0  0  0  0  0  0  0  0
   -2.4560   20.3680  -31.9840 N   0  0  0  0  0  0  0  0  0  0  0  0
   -3.4320   20.5090  -33.0240 C   0  0  0  0  0  0  0  0  0  0  0  0
   -3.0400   20.4400  -34.2180 O   0  0  0  0  0  0  0  0  0  0  0  0
   -4.8710   20.7260  -32.7410 C   0  0  0  0  0  0  0  0  0  0  0  0
   -5.3680   21.8740  -32.3170 O   0  0  0  0  0  0  0  0  0  0  0  0
   -6.6600   21.7240  -32.1530 C   0  0  0  0  0  0  0  0  0  0  0  0
   -7.5750   22.6790  -31.7180 C   0  0  0  0  0  0  0  0  0  0  0  0
   -8.9250   22.2970  -31.6160 C   0  0  0  0  0  0  0  0  0  0  0  0
   -9.3240   20.9830  -31.9480 C   0  0  0  0  0  0  0  0  0  0  0  0
   -8.3770   20.0390  -32.3850 C   0  0  0  0  0  0  0  0  0  0  0  0
   -7.0430   20.4480  -32.4750 C   0  0  0  0  0  0  0  0  0  0  0  0
   -5.8980   19.7810  -32.8620 C   0  0  0  0  0  0  0  0  0  0  0  0
   -5.7820   18.3550  -33.3070 C   0  0  0  0  0  0  0  0  0  0  0  0
   -3.2790   22.8950  -30.5090 C   0  0  0  0  0  0  0  0  0  0  0  0
   -3.0390   24.2110  -30.0680 C   0  0  0  0  0  0  0  0  0  0  0  0
   -3.8360   25.2920  -30.4750 O   0  0  0  0  0  0  0  0  0  0  0  0
   -5.2590   25.3110  -30.4160 C   0  0  0  0  0  0  0  0  0  0  0  0
   -1.7558   25.7810  -26.7045 H   0  0  0  0  0  0  0  0  0  0  0  0
   -0.1374   25.6951  -27.4793 H   0  0  0  0  0  0  0  0  0  0  0  0
   -1.0523   27.2410  -27.4793 H   0  0  0  0  0  0  0  0  0  0  0  0
   -0.3112   23.5936  -28.0835 H   0  0  0  0  0  0  0  0  0  0  0  0
   -0.7632   21.2710  -28.8571 H   0  0  0  0  0  0  0  0  0  0  0  0
   -2.0557   19.7388  -30.0216 H   0  0  0  0  0  0  0  0  0  0  0  0
   -3.7686   20.1572  -30.3584 H   0  0  0  0  0  0  0  0  0  0  0  0
   -7.2527   23.6992  -31.4624 H   0  0  0  0  0  0  0  0  0  0  0  0
   -9.6749   23.0262  -31.2755 H   0  0  0  0  0  0  0  0  0  0  0  0
  -10.3826   20.6961  -31.8642 H   0  0  0  0  0  0  0  0  0  0  0  0
   -8.6760   19.0134  -32.6471 H   0  0  0  0  0  0  0  0  0  0  0  0
   -5.7286   17.6990  -32.4256 H   0  0  0  0  0  0  0  0  0  0  0  0
   -6.6613   18.0867  -33.9110 H   0  0  0  0  0  0  0  0  0  0  0  0
   -4.8709   18.2323  -33.9110 H   0  0  0  0  0  0  0  0  0  0  0  0
   -4.1052   22.6971  -31.2078 H   0  0  0  0  0  0  0  0  0  0  0  0
   -5.5824   25.3153  -29.3646 H   0  0  0  0  0  0  0  0  0  0  0  0
   -5.6348   26.2142  -30.9189 H   0  0  0  0  0  0  0  0  0  0  0  0
   -5.6588   24.4181  -30.9189 H   0  0  0  0  0  0  0  0  0  0  0  0
  1  2  1  0
  2  3  1  0
  3  4  2  0
  4  5  1  0
  5  6  2  0
  6  7  1  0
  7  8  1  0
  8  9  1  0
  9 10  2  0
  9 11  1  0
 11 12  1  0
 12 13  1  0
 13 14  2  0
 14 15  1  0
 15 16  2  0
 16 17  1  0
 17 18  2  0
 18 19  1  0
 19 20  1  0
  6 21  1  0
 21 22  2  0
 22 23  1  0
 23 24  1  0
 22  3  1  0
 19 11  2  0
 18 13  1  0
  1 25  1  0
  1 26  1  0
  1 27  1  0
  4 28  1  0
  5 29  1  0
  7 30  1  0
  7 31  1  0
 14 32  1  0
 15 33  1  0
 16 34  1  0
 17 35  1  0
 20 36  1  0
 20 37  1  0
 20 38  1  0
 21 39  1  0
 24 40  1  0
 24 41  1  0
 24 42  1  0
M  CHG  1   8  -1
M  END
>  <UniqueID>  (40) 
38

>  <SMILES>  (40) 
COc1ccc(C[N-]C(=O)c2oc3ccccc3c2C)cc1OC

>  <Energy>  (40) 
75.98164551410555

>  <Genealogy>  (40) 
COc1ccc(C[N-]C(=O)c2oc3ccccc3c2C)cc1OC (protonated)
COc1ccc(C[N-]C(=O)c2oc3ccccc3c2C)cc1OC (3D coordinates assigned)
COc1ccc(C[N-]C(=O)c2oc3ccccc3c2C)cc1OC (optimized conformer: 75.98164551410555 kcal/mol)

>  <smiles>  (40) 
COc1ccc(CNC(=O)c2oc3ccccc3c2C)cc1OC

>  <score_type>  (40) 
oracle

>  <origin>  (40) 
adg

>  <m_score__min__energy>  (40) 
-9.3800000000000008

>  <m_primary>  (40) 
energy

$$$$
40:0
     RDKit          3D

 45 46  0  0  0  0  0  0  0  0999 V2000
   -7.4326   22.3824  -33.3711 H   0  0  0  0  0  0  0  0  0  0  0  0
   -7.7070   22.4500  -32.3080 C   0  0  0  0  0  0  0  0  0  0  0  0
   -8.9500   22.0840  -31.9600 C   0  0  0  0  0  0  0  0  0  0  0  0
   -9.6396   22.8755  -31.6315 H   0  0  0  0  0  0  0  0  0  0  0  0
   -9.4740   20.6690  -31.9850 C   0  0  0  0  0  0  0  0  0  0  0  0
  -10.5441   20.6873  -32.2390 H   0  0  0  0  0  0  0  0  0  0  0  0
   -9.3181   20.2228  -30.9917 H   0  0  0  0  0  0  0  0  0  0  0  0
   -8.7590   19.8530  -32.9790 N   0  0  0  0  0  0  0  0  0  0  0  0
   -7.9040   20.3590  -33.3050 H   0  0  0  0  0  0  0  0  0  0  0  0
   -9.3920   19.6800  -33.7960 H   0  0  0  0  0  0  0  0  0  0  0  0
   -8.3550   18.5630  -32.3950 C   0  0  0  0  0  0  0  0  0  0  0  0
   -8.7911   17.7478  -32.9910 H   0  0  0  0  0  0  0  0  0  0  0  0
   -8.7170   18.5236  -31.3570 H   0  0  0  0  0  0  0  0  0  0  0  0
   -6.8270   18.4100  -32.3810 C   0  0  0  0  0  0  0  0  0  0  0  0
   -6.5480   17.5267  -32.9743 H   0  0  0  0  0  0  0  0  0  0  0  0
   -6.4949   18.2932  -31.3389 H   0  0  0  0  0  0  0  0  0  0  0  0
   -6.1990   19.5560  -32.9310 O   0  0  0  0  0  0  0  0  0  0  0  0
   -5.1570   19.1780  -33.8040 C   0  0  0  0  0  0  0  0  0  0  0  0
   -4.3443   18.7124  -33.2272 H   0  0  0  0  0  0  0  0  0  0  0  0
   -4.7699   20.0664  -34.3245 H   0  0  0  0  0  0  0  0  0  0  0  0
   -5.6940   18.1830  -34.8210 C   0  0  0  0  0  0  0  0  0  0  0  0
   -6.1529   17.3328  -34.2951 H   0  0  0  0  0  0  0  0  0  0  0  0
   -6.4492   18.6748  -35.4517 H   0  0  0  0  0  0  0  0  0  0  0  0
   -4.8684   17.8217  -35.4517 H   0  0  0  0  0  0  0  0  0  0  0  0
   -6.6820   22.9370  -31.3640 C   0  0  0  0  0  0  0  0  0  0  0  0
   -6.7910   24.1990  -30.7610 C   0  0  0  0  0  0  0  0  0  0  0  0
   -7.6565   24.8398  -30.9854 H   0  0  0  0  0  0  0  0  0  0  0  0
   -5.8060   24.6460  -29.8770 C   0  0  0  0  0  0  0  0  0  0  0  0
   -5.9076   25.6320  -29.4000 H   0  0  0  0  0  0  0  0  0  0  0  0
   -4.6850   23.8450  -29.5920 C   0  0  0  0  0  0  0  0  0  0  0  0
   -3.6400   24.3150  -28.6480 C   0  0  0  0  0  0  0  0  0  0  0  0
   -2.3270   24.5570  -29.0940 C   0  0  0  0  0  0  0  0  0  0  0  0
   -2.0709   24.3967  -30.1517 H   0  0  0  0  0  0  0  0  0  0  0  0
   -1.3460   25.0000  -28.2010 C   0  0  0  0  0  0  0  0  0  0  0  0
   -0.3222   25.1857  -28.5579 H   0  0  0  0  0  0  0  0  0  0  0  0
   -1.6640   25.2070  -26.8570 C   0  0  0  0  0  0  0  0  0  0  0  0
   -0.8907   25.5554  -26.1565 H   0  0  0  0  0  0  0  0  0  0  0  0
   -2.9630   24.9720  -26.4020 C   0  0  0  0  0  0  0  0  0  0  0  0
   -3.2122   25.1371  -25.3434 H   0  0  0  0  0  0  0  0  0  0  0  0
   -3.9480   24.5270  -27.2900 C   0  0  0  0  0  0  0  0  0  0  0  0
   -4.9692   24.3415  -26.9256 H   0  0  0  0  0  0  0  0  0  0  0  0
   -4.5660   22.5940  -30.2250 C   0  0  0  0  0  0  0  0  0  0  0  0
   -3.6902   21.9604  -30.0211 H   0  0  0  0  0  0  0  0  0  0  0  0
   -5.5520   22.1500  -31.1110 C   0  0  0  0  0  0  0  0  0  0  0  0
   -5.4395   21.1772  -31.6120 H   0  0  0  0  0  0  0  0  0  0  0  0
  1  2  1  0
  2  3  2  0
  3  4  1  0
  3  5  1  0
  5  6  1  0
  5  7  1  0
  5  8  1  0
  8  9  1  0
  8 10  1  0
  8 11  1  0
 11 12  1  0
 11 13  1  0
 11 14  1  0
 14 15  1  0
 14 16  1  0
 14 17  1  0
 17 18  1  0
 18 19  1  0
 18 20  1  0
 18 21  1  0
 21 22  1  0
 21 23  1  0
 21 24  1  0
  2 25  1  0
 25 26  2  0
 26 27  1  0
 26 28  1  0
 28 29  1  0
 28 30  2  0
 30 31  1  0
 31 32  2  0
 32 33  1  0
 32 34  1  0
 34 35  1  0
 34 36  2  0
 36 37  1  0
 36 38  1  0
 38 39  1  0
 38 40  2  0
 40 41  1  0
 30 42  1  0
 42 43  1  0
 42 44  2  0
 44 45  1  0
 44 25  1  0
 40 31  1  0
M  CHG  1   8   1
M  END
>  <UniqueID>  (41) 
39

>  <SMILES>  (41) 
CCOCC[NH2+]C/C=C\c1ccc(-c2ccccc2)cc1

>  <Energy>  (41) 
51.29317173602068

>  <Genealogy>  (41) 
CCOCC[NH2+]CC=Cc1ccc(-c2ccccc2)cc1 (protonated)
CCOCC[NH2+]C/C=C\c1ccc(-c2ccccc2)cc1 (cis-trans isomerization)
CCOCC[NH2+]C/C=C\c1ccc(-c2ccccc2)cc1 (3D coordinates assigned)
CCOCC[NH2+]C/C=C\c1ccc(-c2ccccc2)cc1 (optimized conformer: 51.29317173602068 kcal/mol)

>  <smiles>  (41) 
CCOCCNCC=Cc1ccc(-c2ccccc2)cc1

>  <score_type>  (41) 
oracle

>  <origin>  (41) 
adg

>  <m_score__min__energy>  (41) 
-7.25

>  <m_primary>  (41) 
energy

$$$$
41:0
     RDKit          3D

 38 40  0  0  0  0  0  0  0  0999 V2000
   -5.6660   25.3390  -30.1110 C   0  0  0  0  0  0  0  0  0  0  0  0
   -4.6170   24.7030  -30.8340 O   0  0  0  0  0  0  0  0  0  0  0  0
   -4.7110   23.4260  -31.4070 C   0  0  0  0  0  0  0  0  0  0  0  0
   -5.8370   23.0080  -32.1410 C   0  0  0  0  0  0  0  0  0  0  0  0
   -5.8820   21.7250  -32.6950 C   0  0  0  0  0  0  0  0  0  0  0  0
   -4.8020   20.8450  -32.5350 C   0  0  0  0  0  0  0  0  0  0  0  0
   -4.8610   19.5240  -33.0990 N   0  0  0  0  0  0  0  0  0  0  0  0
   -3.8270   18.9230  -33.6710 N   0  0  0  0  0  0  0  0  0  0  0  0
   -4.2290   17.7360  -34.1690 C   0  0  0  0  0  0  0  0  0  0  0  0
   -3.3280   16.7630  -34.8710 C   0  0  0  0  0  0  0  0  0  0  0  0
   -3.8540   16.4610  -36.1130 F   0  0  0  0  0  0  0  0  0  0  0  0
   -3.2090   15.5970  -34.1370 F   0  0  0  0  0  0  0  0  0  0  0  0
   -2.0720   17.3190  -35.0290 F   0  0  0  0  0  0  0  0  0  0  0  0
   -5.5760   17.5580  -33.8770 C   0  0  0  0  0  0  0  0  0  0  0  0
   -6.4380   16.3790  -34.2100 C   0  0  0  0  0  0  0  0  0  0  0  0
   -5.9440   18.7200  -33.2140 C   0  0  0  0  0  0  0  0  0  0  0  0
   -7.2320   18.9870  -32.6370 N   0  0  0  0  0  0  0  0  0  0  0  0
   -8.1390   19.8740  -33.0870 C   0  0  0  0  0  0  0  0  0  0  0  0
   -9.2610   19.8400  -32.2840 C   0  0  0  0  0  0  0  0  0  0  0  0
   -9.0220   18.8870  -31.3130 C   0  0  0  0  0  0  0  0  0  0  0  0
   -7.7640   18.3780  -31.5600 C   0  0  0  0  0  0  0  0  0  0  0  0
   -3.6850   21.2580  -31.7890 C   0  0  0  0  0  0  0  0  0  0  0  0
   -3.6420   22.5400  -31.2360 C   0  0  0  0  0  0  0  0  0  0  0  0
   -5.4858   25.2298  -29.0314 H   0  0  0  0  0  0  0  0  0  0  0  0
   -5.6956   26.4073  -30.3716 H   0  0  0  0  0  0  0  0  0  0  0  0
   -6.6269   24.8713  -30.3716 H   0  0  0  0  0  0  0  0  0  0  0  0
   -6.6856   23.6940  -32.2794 H   0  0  0  0  0  0  0  0  0  0  0  0
   -6.7698   21.4041  -33.2597 H   0  0  0  0  0  0  0  0  0  0  0  0
   -2.8680   19.3300  -33.7410 H   0  0  0  0  0  0  0  0  0  0  0  0
   -6.7851   15.9043  -33.2804 H   0  0  0  0  0  0  0  0  0  0  0  0
   -7.3060   16.7136  -34.7971 H   0  0  0  0  0  0  0  0  0  0  0  0
   -5.8559   15.6534  -34.7971 H   0  0  0  0  0  0  0  0  0  0  0  0
   -8.0061   20.5270  -33.9622 H   0  0  0  0  0  0  0  0  0  0  0  0
  -10.1682   20.4521  -32.3954 H   0  0  0  0  0  0  0  0  0  0  0  0
   -9.7025   18.5915  -30.5008 H   0  0  0  0  0  0  0  0  0  0  0  0
   -7.2703   17.5938  -30.9673 H   0  0  0  0  0  0  0  0  0  0  0  0
   -2.8408   20.5687  -31.6399 H   0  0  0  0  0  0  0  0  0  0  0  0
   -2.7593   22.8559  -30.6607 H   0  0  0  0  0  0  0  0  0  0  0  0
  1  2  1  0
  2  3  1  0
  3  4  2  0
  4  5  1  0
  5  6  2  0
  6  7  1  0
  7  8  1  0
  8  9  2  0
  9 10  1  0
 10 11  1  0
 10 12  1  0
 10 13  1  0
  9 14  1  0
 14 15  1  0
 14 16  2  0
 16 17  1  0
 17 18  1  0
 18 19  2  0
 19 20  1  0
 20 21  2  0
  6 22  1  0
 22 23  2  0
 23  3  1  0
 16  7  1  0
 21 17  1  0
  1 24  1  0
  1 25  1  0
  1 26  1  0
  4 27  1  0
  5 28  1  0
  8 29  1  0
 15 30  1  0
 15 31  1  0
 15 32  1  0
 18 33  1  0
 19 34  1  0
 20 35  1  0
 21 36  1  0
 22 37  1  0
 23 38  1  0
M  CHG  1   8   1
M  END
>  <UniqueID>  (42) 
40

>  <SMILES>  (42) 
COc1ccc(-n2[nH+]c(C(F)(F)F)c(C)c2-n2cccc2)cc1

>  <Energy>  (42) 
103.88269677579186

>  <Genealogy>  (42) 
COc1ccc(-n2[nH+]c(C(F)(F)F)c(C)c2-n2cccc2)cc1 (protonated)
COc1ccc(-n2[nH+]c(C(F)(F)F)c(C)c2-n2cccc2)cc1 (3D coordinates assigned)
COc1ccc(-n2[nH+]c(C(F)(F)F)c(C)c2-n2cccc2)cc1 (optimized conformer: 103.88269677579186 kcal/mol)

>  <smiles>  (42) 
COc1ccc(-n2nc(C(F)(F)F)c(C)c2-n2cccc2)cc1

>  <score_type>  (42) 
oracle

>  <origin>  (42) 
adg

>  <m_score__min__energy>  (42) 
-6.7999999999999998

>  <m_primary>  (42) 
energy

$$$$
42:0
     RDKit          3D

 68 70  0  0  0  0  0  0  0  0999 V2000
   -5.7290   23.8210  -31.5490 C   0  0  0  0  0  0  0  0  0  0  0  0
   -5.2360   24.7160  -30.4160 C   0  0  0  0  0  0  0  0  0  0  0  0
   -3.8160   24.6380  -30.2890 O   0  0  0  0  0  0  0  0  0  0  0  0
   -3.0800   23.4810  -29.9800 C   0  0  0  0  0  0  0  0  0  0  0  0
   -2.0950   22.9620  -30.8380 C   0  0  0  0  0  0  0  0  0  0  0  0
   -1.3850   21.8060  -30.4880 C   0  0  0  0  0  0  0  0  0  0  0  0
   -0.3440   21.2500  -31.4280 C   0  0  0  0  0  0  0  0  0  0  0  0
   -0.9520   20.3160  -32.3990 N   0  0  0  0  0  0  0  0  0  0  0  0
   -1.8800   19.3670  -31.7310 C   0  0  0  0  0  0  0  0  0  0  0  0
   -3.3440   19.8120  -31.8580 C   0  0  0  0  0  0  0  0  0  0  0  0
   -3.7820   19.8580  -33.2780 N   0  0  0  0  0  0  0  0  0  0  0  0
   -4.9350   20.7820  -33.4160 C   0  0  0  0  0  0  0  0  0  0  0  0
   -6.2340   20.1510  -32.9590 C   0  0  0  0  0  0  0  0  0  0  0  0
   -7.2180   20.9450  -32.3430 C   0  0  0  0  0  0  0  0  0  0  0  0
   -8.4220   20.3800  -31.9190 C   0  0  0  0  0  0  0  0  0  0  0  0
   -8.6570   19.0170  -32.1010 C   0  0  0  0  0  0  0  0  0  0  0  0
   -7.6860   18.2130  -32.7030 C   0  0  0  0  0  0  0  0  0  0  0  0
   -6.4650   18.7690  -33.1350 C   0  0  0  0  0  0  0  0  0  0  0  0
   -5.4650   17.9840  -33.7320 O   0  0  0  0  0  0  0  0  0  0  0  0
   -5.6630   16.6680  -34.2390 C   0  0  0  0  0  0  0  0  0  0  0  0
   -2.6730   20.2070  -34.2110 C   0  0  0  0  0  0  0  0  0  0  0  0
   -1.5820   21.0460  -33.5290 C   0  0  0  0  0  0  0  0  0  0  0  0
   -1.6690   21.1580  -29.2790 C   0  0  0  0  0  0  0  0  0  0  0  0
   -2.6490   21.6650  -28.4050 C   0  0  0  0  0  0  0  0  0  0  0  0
   -2.9240   21.0680  -27.1650 O   0  0  0  0  0  0  0  0  0  0  0  0
   -3.1280   19.6720  -26.9330 C   0  0  0  0  0  0  0  0  0  0  0  0
   -1.7970   18.9510  -26.7460 C   0  0  0  0  0  0  0  0  0  0  0  0
   -3.3660   22.8200  -28.7760 C   0  0  0  0  0  0  0  0  0  0  0  0
   -4.3640   23.3510  -27.9470 O   0  0  0  0  0  0  0  0  0  0  0  0
   -4.1650   24.4830  -27.1000 C   0  0  0  0  0  0  0  0  0  0  0  0
   -2.6820   24.6840  -26.8100 C   0  0  0  0  0  0  0  0  0  0  0  0
   -6.2191   22.9313  -31.1267 H   0  0  0  0  0  0  0  0  0  0  0  0
   -6.4484   24.3765  -32.1686 H   0  0  0  0  0  0  0  0  0  0  0  0
   -4.8750   23.5099  -32.1686 H   0  0  0  0  0  0  0  0  0  0  0  0
   -5.5224   25.7567  -30.6279 H   0  0  0  0  0  0  0  0  0  0  0  0
   -5.6932   24.3769  -29.4747 H   0  0  0  0  0  0  0  0  0  0  0  0
   -1.8800   23.4671  -31.7912 H   0  0  0  0  0  0  0  0  0  0  0  0
    0.1276   22.0802  -31.9742 H   0  0  0  0  0  0  0  0  0  0  0  0
    0.4052   20.7027  -30.8371 H   0  0  0  0  0  0  0  0  0  0  0  0
   -1.7684   18.3754  -32.1938 H   0  0  0  0  0  0  0  0  0  0  0  0
   -1.6247   19.3367  -30.6615 H   0  0  0  0  0  0  0  0  0  0  0  0
   -3.9815   19.1019  -31.3109 H   0  0  0  0  0  0  0  0  0  0  0  0
   -3.4329   20.8248  -31.4381 H   0  0  0  0  0  0  0  0  0  0  0  0
   -4.1020   18.8900  -33.5240 H   0  0  0  0  0  0  0  0  0  0  0  0
   -4.7443   21.6790  -32.8086 H   0  0  0  0  0  0  0  0  0  0  0  0
   -5.0393   21.0338  -34.4817 H   0  0  0  0  0  0  0  0  0  0  0  0
   -7.0374   22.0198  -32.1941 H   0  0  0  0  0  0  0  0  0  0  0  0
   -9.1863   21.0102  -31.4408 H   0  0  0  0  0  0  0  0  0  0  0  0
   -9.6082   18.5747  -31.7700 H   0  0  0  0  0  0  0  0  0  0  0  0
   -7.8757   17.1383  -32.8408 H   0  0  0  0  0  0  0  0  0  0  0  0
   -5.7689   15.9641  -33.4004 H   0  0  0  0  0  0  0  0  0  0  0  0
   -6.5747   16.6453  -34.8541 H   0  0  0  0  0  0  0  0  0  0  0  0
   -4.7984   16.3781  -34.8541 H   0  0  0  0  0  0  0  0  0  0  0  0
   -2.2212   19.2774  -34.5875 H   0  0  0  0  0  0  0  0  0  0  0  0
   -3.0972   20.8067  -35.0297 H   0  0  0  0  0  0  0  0  0  0  0  0
   -0.8072   21.2930  -34.2698 H   0  0  0  0  0  0  0  0  0  0  0  0
   -2.0506   21.9573  -33.1292 H   0  0  0  0  0  0  0  0  0  0  0  0
   -1.1204   20.2433  -29.0098 H   0  0  0  0  0  0  0  0  0  0  0  0
   -3.7379   19.5429  -26.0267 H   0  0  0  0  0  0  0  0  0  0  0  0
   -3.6410   19.2420  -27.8059 H   0  0  0  0  0  0  0  0  0  0  0  0
   -1.5888   18.8382  -25.6718 H   0  0  0  0  0  0  0  0  0  0  0  0
   -1.8489   17.9577  -27.2157 H   0  0  0  0  0  0  0  0  0  0  0  0
   -0.9933   19.5371  -27.2157 H   0  0  0  0  0  0  0  0  0  0  0  0
   -4.5606   25.3806  -27.5978 H   0  0  0  0  0  0  0  0  0  0  0  0
   -4.6914   24.3108  -26.1496 H   0  0  0  0  0  0  0  0  0  0  0  0
   -2.5208   24.7058  -25.7221 H   0  0  0  0  0  0  0  0  0  0  0  0
   -2.1069   23.8556  -27.2493 H   0  0  0  0  0  0  0  0  0  0  0  0
   -2.3482   25.6356  -27.2493 H   0  0  0  0  0  0  0  0  0  0  0  0
  1  2  1  0
  2  3  1  0
  3  4  1  0
  4  5  2  0
  5  6  1  0
  6  7  1  0
  7  8  1  0
  8  9  1  0
  9 10  1  0
 10 11  1  0
 11 12  1  0
 12 13  1  0
 13 14  2  0
 14 15  1  0
 15 16  2  0
 16 17  1  0
 17 18  2  0
 18 19  1  0
 19 20  1  0
 11 21  1  0
 21 22  1  0
  6 23  2  0
 23 24  1  0
 24 25  1  0
 25 26  1  0
 26 27  1  0
 24 28  2  0
 28 29  1  0
 29 30  1  0
 30 31  1  0
 28  4  1  0
 22  8  1  0
 18 13  1  0
  1 32  1  0
  1 33  1  0
  1 34  1  0
  2 35  1  0
  2 36  1  0
  5 37  1  0
  7 38  1  0
  7 39  1  0
  9 40  1  0
  9 41  1  0
 10 42  1  0
 10 43  1  0
 11 44  1  0
 12 45  1  0
 12 46  1  0
 14 47  1  0
 15 48  1  0
 16 49  1  0
 17 50  1  0
 20 51  1  0
 20 52  1  0
 20 53  1  0
 21 54  1  0
 21 55  1  0
 22 56  1  0
 22 57  1  0
 23 58  1  0
 26 59  1  0
 26 60  1  0
 27 61  1  0
 27 62  1  0
 27 63  1  0
 30 64  1  0
 30 65  1  0
 31 66  1  0
 31 67  1  0
 31 68  1  0
M  CHG  1  11   1
M  END
>  <UniqueID>  (43) 
41

>  <SMILES>  (43) 
CCOc1cc(CN2CC[NH+](Cc3ccccc3OC)CC2)cc(OCC)c1OCC

>  <Energy>  (43) 
80.71731331627154

>  <Genealogy>  (43) 
CCOc1cc(CN2CC[NH+](Cc3ccccc3OC)CC2)cc(OCC)c1OCC (protonated)
CCOc1cc(CN2CC[NH+](Cc3ccccc3OC)CC2)cc(OCC)c1OCC (3D coordinates assigned)
CCOc1cc(CN2CC[NH+](Cc3ccccc3OC)CC2)cc(OCC)c1OCC (nonaromatic ring conformer: 80.71731331627154 kcal/mol)

>  <smiles>  (43) 
CCOc1cc(CN2CCN(Cc3ccccc3OC)CC2)cc(OCC)c1OCC

>  <score_type>  (43) 
oracle

>  <origin>  (43) 
adg

>  <m_score__min__energy>  (43) 
-7.4500000000000002

>  <m_primary>  (43) 
energy

$$$$
43:0
     RDKit          3D

 63 66  0  0  0  0  0  0  0  0999 V2000
   -2.3671   18.9305  -25.6282 H   0  0  0  0  0  0  0  0  0  0  0  0
   -2.1400   19.4310  -26.5810 C   0  0  0  0  0  0  0  0  0  0  0  0
   -0.8900   19.2580  -27.1810 C   0  0  0  0  0  0  0  0  0  0  0  0
   -0.1370   18.6135  -26.7040 H   0  0  0  0  0  0  0  0  0  0  0  0
   -0.5940   19.9020  -28.3860 C   0  0  0  0  0  0  0  0  0  0  0  0
    0.3900   19.7592  -28.8564 H   0  0  0  0  0  0  0  0  0  0  0  0
   -1.5500   20.7320  -28.9990 C   0  0  0  0  0  0  0  0  0  0  0  0
   -1.2330   21.4250  -30.3100 C   0  0  0  0  0  0  0  0  0  0  0  0
   -0.1435   21.4007  -30.4594 H   0  0  0  0  0  0  0  0  0  0  0  0
   -1.6274   22.4489  -30.2320 H   0  0  0  0  0  0  0  0  0  0  0  0
   -1.8790   20.8060  -31.4910 N   0  0  0  0  0  0  0  0  0  0  0  0
   -1.6390   21.5410  -32.7440 C   0  0  0  0  0  0  0  0  0  0  0  0
   -0.6193   21.3308  -33.0990 H   0  0  0  0  0  0  0  0  0  0  0  0
   -1.7567   22.6185  -32.5563 H   0  0  0  0  0  0  0  0  0  0  0  0
   -2.6530   21.1040  -33.8200 C   0  0  0  0  0  0  0  0  0  0  0  0
   -2.1739   21.1908  -34.8064 H   0  0  0  0  0  0  0  0  0  0  0  0
   -3.5306   21.7603  -33.7250 H   0  0  0  0  0  0  0  0  0  0  0  0
   -3.1510   19.6430  -33.6410 C   0  0  0  0  0  0  0  0  0  0  0  0
   -3.3668   19.2040  -34.6262 H   0  0  0  0  0  0  0  0  0  0  0  0
   -4.4270   19.6050  -32.8860 N   0  0  0  0  0  0  0  0  0  0  0  0
   -4.2630   19.8270  -31.8770 H   0  0  0  0  0  0  0  0  0  0  0  0
   -5.0590   20.3420  -33.2780 H   0  0  0  0  0  0  0  0  0  0  0  0
   -5.1100   18.2990  -32.9920 C   0  0  0  0  0  0  0  0  0  0  0  0
   -5.1993   17.8615  -31.9867 H   0  0  0  0  0  0  0  0  0  0  0  0
   -4.5125   17.6539  -33.6529 H   0  0  0  0  0  0  0  0  0  0  0  0
   -6.5160   18.4360  -33.6020 C   0  0  0  0  0  0  0  0  0  0  0  0
   -7.0939   17.5322  -33.3585 H   0  0  0  0  0  0  0  0  0  0  0  0
   -6.3939   18.5635  -34.6877 H   0  0  0  0  0  0  0  0  0  0  0  0
   -7.2650   19.6400  -33.0860 C   0  0  0  0  0  0  0  0  0  0  0  0
   -8.3800   19.4800  -32.5210 O   0  0  0  0  0  0  0  0  0  0  0  0
   -6.7410   20.9700  -33.2050 N   0  0  0  0  0  0  0  0  0  0  0  0
   -6.3440   21.8410  -32.1350 C   0  0  0  0  0  0  0  0  0  0  0  0
   -7.2840   22.1510  -31.1290 C   0  0  0  0  0  0  0  0  0  0  0  0
   -8.2978   21.7275  -31.1835 H   0  0  0  0  0  0  0  0  0  0  0  0
   -6.9410   22.9930  -30.0600 C   0  0  0  0  0  0  0  0  0  0  0  0
   -7.6677   23.2271  -29.2681 H   0  0  0  0  0  0  0  0  0  0  0  0
   -5.6550   23.5230  -30.0310 C   0  0  0  0  0  0  0  0  0  0  0  0
   -4.9570   24.5200  -28.8750 S   0  0  0  0  0  0  0  0  0  0  0  0
   -3.4730   24.5560  -29.7060 C   0  0  0  0  0  0  0  0  0  0  0  0
   -2.4060   25.2060  -29.3440 N   0  0  0  0  0  0  0  0  0  0  0  0
   -1.4400   24.8160  -28.3550 C   0  0  0  0  0  0  0  0  0  0  0  0
   -0.2160   24.8670  -28.6550 O   0  0  0  0  0  0  0  0  0  0  0  0
   -1.8500   24.3020  -26.9990 C   0  0  0  0  0  0  0  0  0  0  0  0
   -0.9451   24.0835  -26.4131 H   0  0  0  0  0  0  0  0  0  0  0  0
   -2.4554   23.3956  -27.1470 H   0  0  0  0  0  0  0  0  0  0  0  0
   -2.6980   25.3180  -26.2370 C   0  0  0  0  0  0  0  0  0  0  0  0
   -2.5700   25.1647  -25.1553 H   0  0  0  0  0  0  0  0  0  0  0  0
   -2.3779   26.3361  -26.5034 H   0  0  0  0  0  0  0  0  0  0  0  0
   -3.7569   25.1851  -26.5034 H   0  0  0  0  0  0  0  0  0  0  0  0
   -3.5130   23.8410  -30.8550 N   0  0  0  0  0  0  0  0  0  0  0  0
   -4.7280   23.2590  -31.0250 C   0  0  0  0  0  0  0  0  0  0  0  0
   -5.0620   22.4330  -32.0980 C   0  0  0  0  0  0  0  0  0  0  0  0
   -4.3374   22.2452  -32.9040 H   0  0  0  0  0  0  0  0  0  0  0  0
   -2.0390   18.7930  -32.9840 C   0  0  0  0  0  0  0  0  0  0  0  0
   -1.1705   18.7658  -33.6585 H   0  0  0  0  0  0  0  0  0  0  0  0
   -2.4463   17.7862  -32.8093 H   0  0  0  0  0  0  0  0  0  0  0  0
   -1.5900   19.3610  -31.6210 C   0  0  0  0  0  0  0  0  0  0  0  0
   -0.5063   19.2061  -31.5131 H   0  0  0  0  0  0  0  0  0  0  0  0
   -2.1519   18.8340  -30.8358 H   0  0  0  0  0  0  0  0  0  0  0  0
   -2.8110   20.8840  -28.3980 C   0  0  0  0  0  0  0  0  0  0  0  0
   -3.5741   21.5133  -28.8793 H   0  0  0  0  0  0  0  0  0  0  0  0
   -3.1010   20.2400  -27.1920 C   0  0  0  0  0  0  0  0  0  0  0  0
   -4.0875   20.3704  -26.7232 H   0  0  0  0  0  0  0  0  0  0  0  0
  1  2  1  0
  2  3  2  0
  3  4  1  0
  3  5  1  0
  5  6  1  0
  5  7  2  0
  7  8  1  0
  8  9  1  0
  8 10  1  0
  8 11  1  0
 11 12  1  0
 12 13  1  0
 12 14  1  0
 12 15  1  0
 15 16  1  0
 15 17  1  0
 15 18  1  0
 18 19  1  0
 18 20  1  0
 20 21  1  0
 20 22  1  0
 20 23  1  0
 23 24  1  0
 23 25  1  0
 23 26  1  0
 26 27  1  0
 26 28  1  0
 26 29  1  0
 29 30  2  0
 29 31  1  0
 31 32  1  0
 32 33  2  0
 33 34  1  0
 33 35  1  0
 35 36  1  0
 35 37  2  0
 37 38  1  0
 38 39  1  0
 39 40  2  0
 40 41  1  0
 41 42  2  0
 41 43  1  0
 43 44  1  0
 43 45  1  0
 43 46  1  0
 46 47  1  0
 46 48  1  0
 46 49  1  0
 39 50  1  0
 50 51  1  0
 51 52  2  0
 52 53  1  0
 18 54  1  0
 54 55  1  0
 54 56  1  0
 54 57  1  0
 57 58  1  0
 57 59  1  0
  7 60  1  0
 60 61  1  0
 60 62  2  0
 62 63  1  0
 62  2  1  0
 57 11  1  0
 52 32  1  0
 51 37  1  0
M  CHG  3  20   1  31  -1  50  -1
M  END
>  <UniqueID>  (44) 
42

>  <SMILES>  (44) 
CCC(=O)/N=c1/[n-]c2cc([N-]C(=O)CC[NH2+]C3CCN(Cc4ccccc4)CC3)ccc2s1

>  <Energy>  (44) 
118.38613808180209

>  <Genealogy>  (44) 
CCC(=O)N=c1[n-]c2cc([N-]C(=O)CC[NH2+]C3CCN(Cc4ccccc4)CC3)ccc2s1 (protonated)
CCC(=O)/N=c1/[n-]c2cc([N-]C(=O)CC[NH2+]C3CCN(Cc4ccccc4)CC3)ccc2s1 (cis-trans isomerization)
CCC(=O)/N=c1/[n-]c2cc([N-]C(=O)CC[NH2+]C3CCN(Cc4ccccc4)CC3)ccc2s1 (3D coordinates assigned)
CCC(=O)/N=c1/[n-]c2cc([N-]C(=O)CC[NH2+]C3CCN(Cc4ccccc4)CC3)ccc2s1 (nonaromatic ring conformer: 118.38613808180209 kcal/mol)

>  <smiles>  (44) 
CCC(=O)N=c1[nH]c2cc(NC(=O)CCNC3CCN(Cc4ccccc4)CC3)ccc2s1

>  <score_type>  (44) 
oracle

>  <origin>  (44) 
adg

>  <m_score__min__energy>  (44) 
-10.460000000000001

>  <m_primary>  (44) 
energy

$$$$
44:0
     RDKit          3D

 32 34  0  0  0  0  0  0  0  0999 V2000
   -3.8690   25.3800  -30.8320 O   0  0  0  0  0  0  0  0  0  0  0  0
   -4.1590   24.1620  -30.1710 C   0  0  2  0  0  0  0  0  0  0  0  0
   -5.2630   23.4250  -30.9640 C   0  0  0  0  0  0  0  0  0  0  0  0
   -6.6380   23.7410  -30.8290 C   0  0  0  0  0  0  0  0  0  0  0  0
   -7.6130   23.0300  -31.5330 C   0  0  0  0  0  0  0  0  0  0  0  0
   -7.2490   21.9800  -32.3710 C   0  0  0  0  0  0  0  0  0  0  0  0
   -5.9070   21.6260  -32.4970 C   0  0  0  0  0  0  0  0  0  0  0  0
   -4.9250   22.3310  -31.7950 C   0  0  0  0  0  0  0  0  0  0  0  0
   -4.5840   24.5500  -28.7060 C   0  0  0  0  0  0  0  0  0  0  0  0
   -3.6360   24.0130  -27.6980 N   0  0  0  0  0  0  0  0  0  0  0  0
   -2.2770   24.5430  -27.9650 C   0  0  0  0  0  0  0  0  0  0  0  0
   -1.7640   24.0970  -29.3580 C   0  0  0  0  0  0  0  0  0  0  0  0
   -2.8670   23.2770  -30.0640 C   0  0  0  0  0  0  0  0  0  0  0  0
   -3.1390   22.0500  -29.1680 C   0  0  0  0  0  0  0  0  0  0  0  0
   -3.6100   22.5330  -27.7730 C   0  0  0  0  0  0  0  0  0  0  0  0
   -3.2440   25.2050  -31.5840 H   0  0  0  0  0  0  0  0  0  0  0  0
   -6.9423   24.5589  -30.1594 H   0  0  0  0  0  0  0  0  0  0  0  0
   -8.6735   23.3013  -31.4245 H   0  0  0  0  0  0  0  0  0  0  0  0
   -8.0190   21.4307  -32.9326 H   0  0  0  0  0  0  0  0  0  0  0  0
   -5.6196   20.7894  -33.1508 H   0  0  0  0  0  0  0  0  0  0  0  0
   -3.8713   22.0300  -31.8903 H   0  0  0  0  0  0  0  0  0  0  0  0
   -4.6108   25.6464  -28.6213 H   0  0  0  0  0  0  0  0  0  0  0  0
   -5.5750   24.1147  -28.5102 H   0  0  0  0  0  0  0  0  0  0  0  0
   -2.3072   25.6420  -27.9289 H   0  0  0  0  0  0  0  0  0  0  0  0
   -1.5929   24.1480  -27.1995 H   0  0  0  0  0  0  0  0  0  0  0  0
   -1.5204   24.9835  -29.9620 H   0  0  0  0  0  0  0  0  0  0  0  0
   -0.8612   23.4797  -29.2403 H   0  0  0  0  0  0  0  0  0  0  0  0
   -2.5690   22.9643  -31.0757 H   0  0  0  0  0  0  0  0  0  0  0  0
   -3.9216   21.4267  -29.6252 H   0  0  0  0  0  0  0  0  0  0  0  0
   -2.2182   21.4575  -29.0628 H   0  0  0  0  0  0  0  0  0  0  0  0
   -4.6220   22.1464  -27.5824 H   0  0  0  0  0  0  0  0  0  0  0  0
   -2.9029   22.1587  -27.0181 H   0  0  0  0  0  0  0  0  0  0  0  0
  2  1  1  6
  2  3  1  0
  3  4  2  0
  4  5  1  0
  5  6  2  0
  6  7  1  0
  7  8  2  0
  2  9  1  0
  9 10  1  0
 10 11  1  0
 11 12  1  0
 12 13  1  0
 13 14  1  0
 14 15  1  0
 13  2  1  0
  8  3  1  0
 15 10  1  0
  1 16  1  0
  4 17  1  0
  5 18  1  0
  6 19  1  0
  7 20  1  0
  8 21  1  0
  9 22  1  0
  9 23  1  0
 11 24  1  0
 11 25  1  0
 12 26  1  0
 12 27  1  0
 13 28  1  0
 14 29  1  0
 14 30  1  0
 15 31  1  0
 15 32  1  0
M  END
>  <UniqueID>  (45) 
43

>  <SMILES>  (45) 
O[C@]1(c2ccccc2)CN2CCC1CC2

>  <Energy>  (45) 
58.14026889588279

>  <Genealogy>  (45) 
O[C@]1(c2ccccc2)CN2CCC1CC2 (chirality)
O[C@]1(c2ccccc2)CN2CCC1CC2 (3D coordinates assigned)
O[C@]1(c2ccccc2)CN2CCC1CC2 (nonaromatic ring conformer: 58.14026889588279 kcal/mol)

>  <smiles>  (45) 
OC1(c2ccccc2)CN2CCC1CC2

>  <score_type>  (45) 
oracle

>  <origin>  (45) 
adg

>  <m_score__min__energy>  (45) 
-7.04

>  <m_primary>  (45) 
energy

$$$$
45:0
     RDKit          3D

 53 55  0  0  0  0  0  0  0  0999 V2000
   -5.0150   18.2800  -34.2220 C   0  0  0  0  0  0  0  0  0  0  0  0
   -3.5680   18.2070  -33.7420 C   0  0  0  0  0  0  0  0  0  0  0  0
   -3.0810   19.5430  -33.3280 N   0  0  0  0  0  0  0  0  0  0  0  0
   -1.9140   19.9430  -34.1340 C   0  0  0  0  0  0  0  0  0  0  0  0
   -4.1500   20.5620  -33.4470 C   0  0  0  0  0  0  0  0  0  0  0  0
   -3.6570   21.9300  -32.9620 C   0  0  0  0  0  0  0  0  0  0  0  0
   -3.3100   21.8820  -31.5400 N   0  0  0  0  0  0  0  0  0  0  0  0
   -2.5480   20.9330  -31.0070 N   0  0  0  0  0  0  0  0  0  0  0  0
   -2.4090   21.2010  -29.7000 C   0  0  0  0  0  0  0  0  0  0  0  0
   -1.6720   20.4950  -28.7520 C   0  0  0  0  0  0  0  0  0  0  0  0
   -1.6470   20.9990  -27.4370 C   0  0  0  0  0  0  0  0  0  0  0  0
   -2.3430   22.1860  -27.1120 C   0  0  0  0  0  0  0  0  0  0  0  0
   -3.0760   22.8780  -28.0950 C   0  0  0  0  0  0  0  0  0  0  0  0
   -3.0960   22.3430  -29.3830 C   0  0  0  0  0  0  0  0  0  0  0  0
   -3.6720   22.7660  -30.5700 C   0  0  0  0  0  0  0  0  0  0  0  0
   -4.4990   23.9750  -30.7670 C   0  0  0  0  0  0  0  0  0  0  0  0
   -3.9370   25.1020  -30.8050 O   0  0  0  0  0  0  0  0  0  0  0  0
   -5.9280   23.8880  -30.9230 N   0  0  0  0  0  0  0  0  0  0  0  0
   -6.8020   24.1190  -29.7680 C   0  0  0  0  0  0  0  0  0  0  0  0
   -6.5040   23.4840  -32.2120 C   0  0  0  0  0  0  0  0  0  0  0  0
   -7.2990   22.2180  -32.0400 C   0  0  0  0  0  0  0  0  0  0  0  0
   -6.6310   20.9960  -31.8510 C   0  0  0  0  0  0  0  0  0  0  0  0
   -7.3560   19.8230  -31.6210 C   0  0  0  0  0  0  0  0  0  0  0  0
   -8.7530   19.8610  -31.5700 C   0  0  0  0  0  0  0  0  0  0  0  0
   -9.4540   18.7230  -31.3440 F   0  0  0  0  0  0  0  0  0  0  0  0
   -9.4250   21.0740  -31.7460 C   0  0  0  0  0  0  0  0  0  0  0  0
   -8.7050   22.2510  -31.9750 C   0  0  0  0  0  0  0  0  0  0  0  0
   -9.3770   23.4200  -32.1250 F   0  0  0  0  0  0  0  0  0  0  0  0
   -5.6884   18.3140  -33.3528 H   0  0  0  0  0  0  0  0  0  0  0  0
   -5.1545   19.1863  -34.8295 H   0  0  0  0  0  0  0  0  0  0  0  0
   -5.2450   17.3923  -34.8295 H   0  0  0  0  0  0  0  0  0  0  0  0
   -3.5069   17.5199  -32.8852 H   0  0  0  0  0  0  0  0  0  0  0  0
   -2.9407   17.8451  -34.5699 H   0  0  0  0  0  0  0  0  0  0  0  0
   -1.0870   20.2265  -33.4663 H   0  0  0  0  0  0  0  0  0  0  0  0
   -1.6007   19.1009  -34.7687 H   0  0  0  0  0  0  0  0  0  0  0  0
   -2.1831   20.8002  -34.7687 H   0  0  0  0  0  0  0  0  0  0  0  0
   -4.4558   20.6420  -34.5006 H   0  0  0  0  0  0  0  0  0  0  0  0
   -5.0014   20.2533  -32.8226 H   0  0  0  0  0  0  0  0  0  0  0  0
   -2.7675   22.2191  -33.5410 H   0  0  0  0  0  0  0  0  0  0  0  0
   -4.4617   22.6663  -33.1045 H   0  0  0  0  0  0  0  0  0  0  0  0
   -2.1310   20.1290  -31.5290 H   0  0  0  0  0  0  0  0  0  0  0  0
   -1.1290   19.5769  -29.0207 H   0  0  0  0  0  0  0  0  0  0  0  0
   -1.0824   20.4658  -26.6580 H   0  0  0  0  0  0  0  0  0  0  0  0
   -2.3116   22.5721  -26.0825 H   0  0  0  0  0  0  0  0  0  0  0  0
   -3.6137   23.8073  -27.8558 H   0  0  0  0  0  0  0  0  0  0  0  0
   -6.2309   23.9681  -28.8401 H   0  0  0  0  0  0  0  0  0  0  0  0
   -7.1858   25.1494  -29.7989 H   0  0  0  0  0  0  0  0  0  0  0  0
   -7.6448   23.4128  -29.7989 H   0  0  0  0  0  0  0  0  0  0  0  0
   -7.1637   24.2820  -32.5835 H   0  0  0  0  0  0  0  0  0  0  0  0
   -5.6926   23.3084  -32.9336 H   0  0  0  0  0  0  0  0  0  0  0  0
   -5.5320   20.9623  -31.8842 H   0  0  0  0  0  0  0  0  0  0  0  0
   -6.8269   18.8690  -31.4800 H   0  0  0  0  0  0  0  0  0  0  0  0
  -10.5238   21.1030  -31.7043 H   0  0  0  0  0  0  0  0  0  0  0  0
  1  2  1  0
  2  3  1  0
  3  4  1  0
  3  5  1  0
  5  6  1  0
  6  7  1  0
  7  8  1  0
  8  9  2  0
  9 10  1  0
 10 11  2  0
 11 12  1  0
 12 13  2  0
 13 14  1  0
 14 15  2  0
 15 16  1  0
 16 17  2  0
 16 18  1  0
 18 19  1  0
 18 20  1  0
 20 21  1  0
 21 22  2  0
 22 23  1  0
 23 24  2  0
 24 25  1  0
 24 26  1  0
 26 27  2  0
 27 28  1  0
 15  7  1  0
 27 21  1  0
 14  9  1  0
  1 29  1  0
  1 30  1  0
  1 31  1  0
  2 32  1  0
  2 33  1  0
  4 34  1  0
  4 35  1  0
  4 36  1  0
  5 37  1  0
  5 38  1  0
  6 39  1  0
  6 40  1  0
  8 41  1  0
 10 42  1  0
 11 43  1  0
 12 44  1  0
 13 45  1  0
 19 46  1  0
 19 47  1  0
 19 48  1  0
 20 49  1  0
 20 50  1  0
 22 51  1  0
 23 52  1  0
 26 53  1  0
M  CHG  1   8   1
M  END
>  <UniqueID>  (46) 
44

>  <SMILES>  (46) 
CCN(C)CCn1[nH+]c2ccccc2c1C(=O)N(C)Cc1ccc(F)cc1F

>  <Energy>  (46) 
93.06670710257546

>  <Genealogy>  (46) 
CCN(C)CCn1[nH+]c2ccccc2c1C(=O)N(C)Cc1ccc(F)cc1F (protonated)
CCN(C)CCn1[nH+]c2ccccc2c1C(=O)N(C)Cc1ccc(F)cc1F (3D coordinates assigned)
CCN(C)CCn1[nH+]c2ccccc2c1C(=O)N(C)Cc1ccc(F)cc1F (optimized conformer: 93.06670710257546 kcal/mol)

>  <smiles>  (46) 
CCN(C)CCn1nc2ccccc2c1C(=O)N(C)Cc1ccc(F)cc1F

>  <score_type>  (46) 
oracle

>  <origin>  (46) 
adg

>  <m_score__min__energy>  (46) 
-7.7000000000000002

>  <m_primary>  (46) 
energy

$$$$
