0:0
     RDKit          3D

 50 52  0  0  0  0  0  0  0  0999 V2000
   -4.1990   25.3590  -30.6830 O   0  0  0  0  0  0  0  0  0  0  0  0
   -5.4210   25.7230  -30.0980 C   0  0  0  0  0  0  0  0  0  0  0  0
   -6.3770   24.5290  -30.0700 C   0  0  0  0  0  0  0  0  0  0  0  0
   -6.6560   24.0300  -31.4210 N   0  0  0  0  0  0  0  0  0  0  0  0
   -6.4040   22.6730  -31.8540 C   0  0  0  0  0  0  0  0  0  0  0  0
   -7.4630   21.8810  -32.3310 C   0  0  0  0  0  0  0  0  0  0  0  0
   -7.2580   20.5590  -32.7200 C   0  0  0  0  0  0  0  0  0  0  0  0
   -5.9790   19.9670  -32.6590 C   0  0  0  0  0  0  0  0  0  0  0  0
   -5.7600   18.5890  -33.0990 N   0  0  0  0  0  0  0  0  0  0  0  0
   -6.1120   17.4730  -32.1920 C   0  0  0  0  0  0  0  0  0  0  0  0
   -5.7200   16.0970  -32.7360 C   0  0  0  0  0  0  0  0  0  0  0  0
   -5.9590   16.0210  -34.1210 O   0  0  0  0  0  0  0  0  0  0  0  0
   -5.0300   16.8520  -34.7780 C   0  0  0  0  0  0  0  0  0  0  0  0
   -5.2960   18.3330  -34.4800 C   0  0  0  0  0  0  0  0  0  0  0  0
   -4.9160   20.7580  -32.1670 C   0  0  0  0  0  0  0  0  0  0  0  0
   -5.1060   22.0960  -31.7660 C   0  0  0  0  0  0  0  0  0  0  0  0
   -3.9400   22.8710  -31.3940 N   0  0  0  0  0  0  0  0  0  0  0  0
   -2.7420   22.0220  -31.4570 C   0  0  0  0  0  0  0  0  0  0  0  0
   -2.2580   21.6670  -30.0720 C   0  0  0  0  0  0  0  0  0  0  0  0
   -3.1140   21.0220  -29.1620 C   0  0  0  0  0  0  0  0  0  0  0  0
   -2.6650   20.7060  -27.8740 C   0  0  0  0  0  0  0  0  0  0  0  0
   -1.3590   21.0260  -27.4900 C   0  0  0  0  0  0  0  0  0  0  0  0
   -0.4990   21.6600  -28.3930 C   0  0  0  0  0  0  0  0  0  0  0  0
   -0.9440   21.9810  -29.6790 C   0  0  0  0  0  0  0  0  0  0  0  0
   -4.2260   25.6860  -31.6170 H   0  0  0  0  0  0  0  0  0  0  0  0
   -5.2415   26.0675  -29.0689 H   0  0  0  0  0  0  0  0  0  0  0  0
   -5.8749   26.5289  -30.6933 H   0  0  0  0  0  0  0  0  0  0  0  0
   -5.9223   23.7212  -29.4777 H   0  0  0  0  0  0  0  0  0  0  0  0
   -7.3260   24.8580  -29.6215 H   0  0  0  0  0  0  0  0  0  0  0  0
   -6.9230   24.7520  -32.1230 H   0  0  0  0  0  0  0  0  0  0  0  0
   -8.4723   22.3131  -32.3984 H   0  0  0  0  0  0  0  0  0  0  0  0
   -8.1103   19.9651  -33.0818 H   0  0  0  0  0  0  0  0  0  0  0  0
   -5.5963   17.6280  -31.2328 H   0  0  0  0  0  0  0  0  0  0  0  0
   -7.2066   17.4778  -32.0828 H   0  0  0  0  0  0  0  0  0  0  0  0
   -4.6506   15.9247  -32.5445 H   0  0  0  0  0  0  0  0  0  0  0  0
   -6.3274   15.3317  -32.2306 H   0  0  0  0  0  0  0  0  0  0  0  0
   -4.0162   16.5948  -34.4375 H   0  0  0  0  0  0  0  0  0  0  0  0
   -5.1294   16.6935  -35.8620 H   0  0  0  0  0  0  0  0  0  0  0  0
   -4.3629   18.8926  -34.6419 H   0  0  0  0  0  0  0  0  0  0  0  0
   -6.1025   18.6562  -35.1546 H   0  0  0  0  0  0  0  0  0  0  0  0
   -3.9110   20.3166  -32.0949 H   0  0  0  0  0  0  0  0  0  0  0  0
   -4.0600   23.2230  -30.4130 H   0  0  0  0  0  0  0  0  0  0  0  0
   -3.8170   23.7120  -31.9950 H   0  0  0  0  0  0  0  0  0  0  0  0
   -2.9844   21.0974  -32.0015 H   0  0  0  0  0  0  0  0  0  0  0  0
   -1.9459   22.5766  -31.9753 H   0  0  0  0  0  0  0  0  0  0  0  0
   -4.1402   20.7647  -29.4631 H   0  0  0  0  0  0  0  0  0  0  0  0
   -3.3399   20.2058  -27.1638 H   0  0  0  0  0  0  0  0  0  0  0  0
   -1.0077   20.7790  -26.4773 H   0  0  0  0  0  0  0  0  0  0  0  0
    0.5295   21.9065  -28.0907 H   0  0  0  0  0  0  0  0  0  0  0  0
   -0.2648   22.4805  -30.3856 H   0  0  0  0  0  0  0  0  0  0  0  0
  1  2  1  0
  2  3  1  0
  3  4  1  0
  4  5  1  0
  5  6  2  0
  6  7  1  0
  7  8  2  0
  8  9  1  0
  9 10  1  0
 10 11  1  0
 11 12  1  0
 12 13  1  0
 13 14  1  0
  8 15  1  0
 15 16  2  0
 16 17  1  0
 17 18  1  0
 18 19  1  0
 19 20  2  0
 20 21  1  0
 21 22  2  0
 22 23  1  0
 23 24  2  0
 16  5  1  0
 24 19  1  0
 14  9  1  0
  1 25  1  0
  2 26  1  0
  2 27  1  0
  3 28  1  0
  3 29  1  0
  4 30  1  0
  6 31  1  0
  7 32  1  0
 10 33  1  0
 10 34  1  0
 11 35  1  0
 11 36  1  0
 13 37  1  0
 13 38  1  0
 14 39  1  0
 14 40  1  0
 15 41  1  0
 17 42  1  0
 17 43  1  0
 18 44  1  0
 18 45  1  0
 20 46  1  0
 21 47  1  0
 22 48  1  0
 23 49  1  0
 24 50  1  0
M  CHG  1  17   1
M  END
>  <UniqueID>  (1) 
1

>  <SMILES>  (1) 
OCCNc1ccc(N2CCOCC2)cc1[NH2+]Cc1ccccc1

>  <Energy>  (1) 
61.307910225445845

>  <Genealogy>  (1) 
OCCNc1ccc(N2CCOCC2)cc1[NH2+]Cc1ccccc1 (protonated)
OCCNc1ccc(N2CCOCC2)cc1[NH2+]Cc1ccccc1 (3D coordinates assigned)
OCCNc1ccc(N2CCOCC2)cc1[NH2+]Cc1ccccc1 (nonaromatic ring conformer: 61.307910225445845 kcal/mol)

>  <smiles>  (1) 
OCCNc1ccc(N2CCOCC2)cc1NCc1ccccc1

>  <score_type>  (1) 
oracle

>  <origin>  (1) 
adg

>  <m_score__min__energy>  (1) 
-7.9299999999999997

>  <m_primary>  (1) 
energy

$$$$
1:0
     RDKit          3D

 25 26  0  0  0  0  0  0  0  0999 V2000
   -9.5010   19.2270  -32.6660 C   0  0  0  0  0  0  0  0  0  0  0  0
   -8.4330   20.2190  -32.3220 C   0  0  0  0  0  0  0  0  0  0  0  0
   -8.6640   21.4440  -31.7040 C   0  0  0  0  0  0  0  0  0  0  0  0
   -7.4230   22.0340  -31.5990 C   0  0  0  0  0  0  0  0  0  0  0  0
   -7.0610   23.2760  -31.0830 C   0  0  0  0  0  0  0  0  0  0  0  0
   -5.6950   23.6450  -31.1230 C   0  0  0  0  0  0  0  0  0  0  0  0
   -5.2580   24.9540  -30.5850 C   0  0  0  0  0  0  0  0  0  0  0  0
   -3.8760   25.3060  -30.5700 N   0  0  0  0  0  0  0  0  0  0  0  0
   -6.1040   25.7730  -30.1350 O   0  0  0  0  0  0  0  0  0  0  0  0
   -4.7480   22.7490  -31.6870 C   0  0  0  0  0  0  0  0  0  0  0  0
   -5.1500   21.5030  -32.2020 C   0  0  0  0  0  0  0  0  0  0  0  0
   -6.5040   21.1710  -32.1370 C   0  0  0  0  0  0  0  0  0  0  0  0
   -7.1080   20.0450  -32.5700 N   0  0  0  0  0  0  0  0  0  0  0  0
   -6.4740   18.9240  -33.2620 C   0  0  0  0  0  0  0  0  0  0  0  0
   -9.9370   18.8220  -31.7409 H   0  0  0  0  0  0  0  0  0  0  0  0
  -10.2864   19.7233  -33.2549 H   0  0  0  0  0  0  0  0  0  0  0  0
   -9.0640   18.4071  -33.2549 H   0  0  0  0  0  0  0  0  0  0  0  0
   -9.6292   21.8533  -31.3710 H   0  0  0  0  0  0  0  0  0  0  0  0
   -7.8163   23.9520  -30.6559 H   0  0  0  0  0  0  0  0  0  0  0  0
   -3.4990   26.0330  -31.2170 H   0  0  0  0  0  0  0  0  0  0  0  0
   -3.6859   23.0332  -31.7216 H   0  0  0  0  0  0  0  0  0  0  0  0
   -4.4181   20.8104  -32.6432 H   0  0  0  0  0  0  0  0  0  0  0  0
   -6.0733   18.2156  -32.5220 H   0  0  0  0  0  0  0  0  0  0  0  0
   -7.2176   18.4143  -33.8923 H   0  0  0  0  0  0  0  0  0  0  0  0
   -5.6540   19.2986  -33.8923 H   0  0  0  0  0  0  0  0  0  0  0  0
  1  2  1  0
  2  3  2  0
  3  4  1  0
  4  5  2  0
  5  6  1  0
  6  7  1  0
  7  8  1  0
  7  9  2  0
  6 10  2  0
 10 11  1  0
 11 12  2  0
 12 13  1  0
 13 14  1  0
 13  2  1  0
 12  4  1  0
  1 15  1  0
  1 16  1  0
  1 17  1  0
  3 18  1  0
  5 19  1  0
  8 20  1  0
 10 21  1  0
 11 22  1  0
 14 23  1  0
 14 24  1  0
 14 25  1  0
M  CHG  1   8  -1
M  END
>  <UniqueID>  (2) 
2

>  <SMILES>  (2) 
Cc1cc2cc(C([NH-])=O)ccc2n1C

>  <Energy>  (2) 
57.73320624577125

>  <Genealogy>  (2) 
Cc1cc2cc(C([NH-])=O)ccc2n1C (protonated)
Cc1cc2cc(C([NH-])=O)ccc2n1C (3D coordinates assigned)
Cc1cc2cc(C([NH-])=O)ccc2n1C (optimized conformer: 57.73320624577125 kcal/mol)

>  <smiles>  (2) 
Cc1cc2cc(C(N)=O)ccc2n1C

>  <score_type>  (2) 
oracle

>  <origin>  (2) 
adg

>  <m_score__min__energy>  (2) 
-9.6799999999999997

>  <m_primary>  (2) 
energy

$$$$
2:0
     RDKit          3D

 35 37  0  0  0  0  0  0  0  0999 V2000
   -2.6390   18.8750  -33.6420 C   0  0  0  0  0  0  0  0  0  0  0  0
   -4.0790   19.2640  -33.6670 C   0  0  0  0  0  0  0  0  0  0  0  0
   -4.9340   18.8800  -34.5870 O   0  0  0  0  0  0  0  0  0  0  0  0
   -6.1130   19.3720  -34.3480 N   0  0  0  0  0  0  0  0  0  0  0  0
   -6.0420   20.1210  -33.2310 C   0  0  0  0  0  0  0  0  0  0  0  0
   -7.1920   20.8390  -32.6420 C   0  0  0  0  0  0  0  0  0  0  0  0
   -8.3790   20.1510  -32.3420 C   0  0  0  0  0  0  0  0  0  0  0  0
   -9.4750   20.8350  -31.8080 C   0  0  0  0  0  0  0  0  0  0  0  0
   -9.3940   22.2090  -31.5690 C   0  0  0  0  0  0  0  0  0  0  0  0
   -8.2150   22.9000  -31.8590 C   0  0  0  0  0  0  0  0  0  0  0  0
   -7.1120   22.2190  -32.3860 C   0  0  0  0  0  0  0  0  0  0  0  0
   -5.9850   22.9150  -32.6830 F   0  0  0  0  0  0  0  0  0  0  0  0
   -4.7410   20.0640  -32.7470 C   0  0  0  0  0  0  0  0  0  0  0  0
   -4.1630   20.7020  -31.5120 C   0  0  0  0  0  0  0  0  0  0  0  0
   -3.6590   22.0040  -31.8000 O   0  0  0  0  0  0  0  0  0  0  0  0
   -3.4000   22.9650  -30.8170 C   0  0  0  0  0  0  0  0  0  0  0  0
   -2.3180   22.9480  -30.1700 O   0  0  0  0  0  0  0  0  0  0  0  0
   -4.4100   23.9830  -30.5180 C   0  0  0  0  0  0  0  0  0  0  0  0
   -5.5940   23.7700  -29.8410 C   0  0  0  0  0  0  0  0  0  0  0  0
   -6.2080   25.0010  -29.7770 C   0  0  0  0  0  0  0  0  0  0  0  0
   -5.3640   25.8860  -30.4200 C   0  0  0  0  0  0  0  0  0  0  0  0
   -4.3000   25.2490  -30.8520 O   0  0  0  0  0  0  0  0  0  0  0  0
   -2.3019   18.7839  -32.5989 H   0  0  0  0  0  0  0  0  0  0  0  0
   -2.5109   17.9101  -34.1543 H   0  0  0  0  0  0  0  0  0  0  0  0
   -2.0425   19.6442  -34.1543 H   0  0  0  0  0  0  0  0  0  0  0  0
   -6.9550   19.2130  -34.9450 H   0  0  0  0  0  0  0  0  0  0  0  0
   -8.4466   19.0690  -32.5281 H   0  0  0  0  0  0  0  0  0  0  0  0
  -10.4022   20.2907  -31.5757 H   0  0  0  0  0  0  0  0  0  0  0  0
  -10.2585   22.7468  -31.1525 H   0  0  0  0  0  0  0  0  0  0  0  0
   -8.1536   23.9823  -31.6726 H   0  0  0  0  0  0  0  0  0  0  0  0
   -4.9487   20.7813  -30.7463 H   0  0  0  0  0  0  0  0  0  0  0  0
   -3.3340   20.0768  -31.1488 H   0  0  0  0  0  0  0  0  0  0  0  0
   -5.9682   22.8175  -29.4376 H   0  0  0  0  0  0  0  0  0  0  0  0
   -7.1757   25.2330  -29.3083 H   0  0  0  0  0  0  0  0  0  0  0  0
   -5.5545   26.9615  -30.5503 H   0  0  0  0  0  0  0  0  0  0  0  0
  1  2  1  0
  2  3  1  0
  3  4  1  0
  4  5  2  0
  5  6  1  0
  6  7  2  0
  7  8  1  0
  8  9  2  0
  9 10  1  0
 10 11  2  0
 11 12  1  0
  5 13  1  0
 13 14  1  0
 14 15  1  0
 15 16  1  0
 16 17  2  0
 16 18  1  0
 18 19  2  0
 19 20  1  0
 20 21  2  0
 21 22  1  0
 13  2  2  0
 22 18  1  0
 11  6  1  0
  1 23  1  0
  1 24  1  0
  1 25  1  0
  4 26  1  0
  7 27  1  0
  8 28  1  0
  9 29  1  0
 10 30  1  0
 14 31  1  0
 14 32  1  0
 19 33  1  0
 20 34  1  0
 21 35  1  0
M  CHG  1   4   1
M  END
>  <UniqueID>  (3) 
3

>  <SMILES>  (3) 
Cc1o[nH+]c(-c2ccccc2F)c1COC(=O)c1ccco1

>  <Energy>  (3) 
93.14816408847467

>  <Genealogy>  (3) 
Cc1o[nH+]c(-c2ccccc2F)c1COC(=O)c1ccco1 (protonated)
Cc1o[nH+]c(-c2ccccc2F)c1COC(=O)c1ccco1 (3D coordinates assigned)
Cc1o[nH+]c(-c2ccccc2F)c1COC(=O)c1ccco1 (optimized conformer: 93.14816408847467 kcal/mol)

>  <smiles>  (3) 
Cc1onc(-c2ccccc2F)c1COC(=O)c1ccco1

>  <score_type>  (3) 
oracle

>  <origin>  (3) 
adg

>  <m_score__min__energy>  (3) 
-7.79

>  <m_primary>  (3) 
energy

$$$$
3:0
     RDKit          3D

 38 40  0  0  0  0  0  0  0  0999 V2000
   -5.9750   16.7050  -34.2320 C   0  0  0  0  0  0  0  0  0  0  0  0
   -7.0010   17.5200  -33.6740 O   0  0  0  0  0  0  0  0  0  0  0  0
   -6.7830   18.7550  -33.0460 C   0  0  0  0  0  0  0  0  0  0  0  0
   -5.6700   19.5620  -33.3490 C   0  0  0  0  0  0  0  0  0  0  0  0
   -5.4810   20.7890  -32.7030 C   0  0  0  0  0  0  0  0  0  0  0  0
   -4.0550   21.7420  -33.1010 Cl  0  0  0  0  0  0  0  0  0  0  0  0
   -6.4090   21.2250  -31.7380 C   0  0  0  0  0  0  0  0  0  0  0  0
   -6.2430   22.5200  -31.0440 C   0  0  0  0  0  0  0  0  0  0  0  0
   -5.1060   22.7330  -30.2590 C   0  0  0  0  0  0  0  0  0  0  0  0
   -4.9290   23.9620  -29.6100 C   0  0  0  0  0  0  0  0  0  0  0  0
   -3.7410   24.2380  -28.7600 C   0  0  0  0  0  0  0  0  0  0  0  0
   -2.4540   24.2290  -29.3330 C   0  0  0  0  0  0  0  0  0  0  0  0
   -1.3260   24.4810  -28.5450 C   0  0  0  0  0  0  0  0  0  0  0  0
   -1.4670   24.7360  -27.1800 C   0  0  0  0  0  0  0  0  0  0  0  0
   -2.7350   24.7360  -26.5970 C   0  0  0  0  0  0  0  0  0  0  0  0
   -3.8670   24.4850  -27.3780 C   0  0  0  0  0  0  0  0  0  0  0  0
   -5.8830   24.9190  -29.7570 N   0  0  0  0  0  0  0  0  0  0  0  0
   -6.9730   24.7280  -30.5020 N   0  0  0  0  0  0  0  0  0  0  0  0
   -7.1970   23.5520  -31.1520 C   0  0  0  0  0  0  0  0  0  0  0  0
   -8.4440   23.3840  -31.9780 C   0  0  0  0  0  0  0  0  0  0  0  0
   -7.5190   20.4220  -31.4370 C   0  0  0  0  0  0  0  0  0  0  0  0
   -7.7040   19.1960  -32.0840 C   0  0  0  0  0  0  0  0  0  0  0  0
   -9.1060   18.2170  -31.6800 Cl  0  0  0  0  0  0  0  0  0  0  0  0
   -5.3927   16.2424  -33.4215 H   0  0  0  0  0  0  0  0  0  0  0  0
   -6.4286   15.9183  -34.8527 H   0  0  0  0  0  0  0  0  0  0  0  0
   -5.3113   17.3248  -34.8527 H   0  0  0  0  0  0  0  0  0  0  0  0
   -4.9416   19.2248  -34.1011 H   0  0  0  0  0  0  0  0  0  0  0  0
   -4.3529   21.9385  -30.1512 H   0  0  0  0  0  0  0  0  0  0  0  0
   -2.3354   24.0225  -30.4069 H   0  0  0  0  0  0  0  0  0  0  0  0
   -0.3255   24.4782  -29.0022 H   0  0  0  0  0  0  0  0  0  0  0  0
   -0.5784   24.9370  -26.5636 H   0  0  0  0  0  0  0  0  0  0  0  0
   -2.8440   24.9340  -25.5205 H   0  0  0  0  0  0  0  0  0  0  0  0
   -4.8629   24.4802  -26.9108 H   0  0  0  0  0  0  0  0  0  0  0  0
   -7.6640   25.5080  -30.5760 H   0  0  0  0  0  0  0  0  0  0  0  0
   -9.3118   23.2671  -31.3122 H   0  0  0  0  0  0  0  0  0  0  0  0
   -8.5857   24.2712  -32.6127 H   0  0  0  0  0  0  0  0  0  0  0  0
   -8.3458   22.4910  -32.6127 H   0  0  0  0  0  0  0  0  0  0  0  0
   -8.2493   20.7590  -30.6866 H   0  0  0  0  0  0  0  0  0  0  0  0
  1  2  1  0
  2  3  1  0
  3  4  2  0
  4  5  1  0
  5  6  1  0
  5  7  2  0
  7  8  1  0
  8  9  2  0
  9 10  1  0
 10 11  1  0
 11 12  2  0
 12 13  1  0
 13 14  2  0
 14 15  1  0
 15 16  2  0
 10 17  2  0
 17 18  1  0
 18 19  2  0
 19 20  1  0
  7 21  1  0
 21 22  2  0
 22 23  1  0
 22  3  1  0
 19  8  1  0
 16 11  1  0
  1 24  1  0
  1 25  1  0
  1 26  1  0
  4 27  1  0
  9 28  1  0
 12 29  1  0
 13 30  1  0
 14 31  1  0
 15 32  1  0
 16 33  1  0
 18 34  1  0
 20 35  1  0
 20 36  1  0
 20 37  1  0
 21 38  1  0
M  CHG  1  18   1
M  END
>  <UniqueID>  (4) 
4

>  <SMILES>  (4) 
COc1cc(Cl)c(-c2cc(-c3ccccc3)n[nH+]c2C)cc1Cl

>  <Energy>  (4) 
52.512035463497895

>  <Genealogy>  (4) 
COc1cc(Cl)c(-c2cc(-c3ccccc3)n[nH+]c2C)cc1Cl (protonated)
COc1cc(Cl)c(-c2cc(-c3ccccc3)n[nH+]c2C)cc1Cl (3D coordinates assigned)
COc1cc(Cl)c(-c2cc(-c3ccccc3)n[nH+]c2C)cc1Cl (optimized conformer: 52.512035463497895 kcal/mol)

>  <smiles>  (4) 
COc1cc(Cl)c(-c2cc(-c3ccccc3)nnc2C)cc1Cl

>  <score_type>  (4) 
oracle

>  <origin>  (4) 
adg

>  <m_score__min__energy>  (4) 
-7.9900000000000002

>  <m_primary>  (4) 
energy

$$$$
4:0
     RDKit          3D

 57 60  0  0  0  0  0  0  0  0999 V2000
   -3.1068   17.7396  -34.5486 H   0  0  0  0  0  0  0  0  0  0  0  0
   -4.0250   18.2210  -34.1810 C   0  0  0  0  0  0  0  0  0  0  0  0
   -5.2730   17.5920  -34.3780 C   0  0  0  0  0  0  0  0  0  0  0  0
   -5.3183   16.6215  -34.8939 H   0  0  0  0  0  0  0  0  0  0  0  0
   -6.4600   18.1940  -33.9210 C   0  0  0  0  0  0  0  0  0  0  0  0
   -7.4351   17.7072  -34.0700 H   0  0  0  0  0  0  0  0  0  0  0  0
   -6.3640   19.4290  -33.2720 C   0  0  0  0  0  0  0  0  0  0  0  0
   -5.1380   20.0340  -33.0770 C   0  0  0  0  0  0  0  0  0  0  0  0
   -3.9470   19.4590  -33.5180 C   0  0  0  0  0  0  0  0  0  0  0  0
   -2.9798   19.9563  -33.3532 H   0  0  0  0  0  0  0  0  0  0  0  0
   -5.3850   21.1990  -32.3880 C   0  0  0  0  0  0  0  0  0  0  0  0
   -4.5270   22.1860  -31.9090 C   0  0  0  0  0  0  0  0  0  0  0  0
   -3.4435   22.1286  -32.0901 H   0  0  0  0  0  0  0  0  0  0  0  0
   -5.0830   23.2590  -31.1870 C   0  0  0  0  0  0  0  0  0  0  0  0
   -4.2060   24.2980  -30.7200 N   0  0  0  0  0  0  0  0  0  0  0  0
   -3.0810   24.1420  -30.0810 C   0  0  0  0  0  0  0  0  0  0  0  0
   -2.3800   22.9810  -30.1700 N   0  0  0  0  0  0  0  0  0  0  0  0
   -1.2010   22.8330  -29.5190 C   0  0  0  0  0  0  0  0  0  0  0  0
   -0.5550   21.7090  -29.6170 N   0  0  0  0  0  0  0  0  0  0  0  0
   -0.8330   20.5090  -28.8260 C   0  0  0  0  0  0  0  0  0  0  0  0
    0.0311   20.3006  -28.1780 H   0  0  0  0  0  0  0  0  0  0  0  0
   -1.0146   19.6745  -29.5193 H   0  0  0  0  0  0  0  0  0  0  0  0
   -2.0830   20.6860  -27.9490 C   0  0  0  0  0  0  0  0  0  0  0  0
   -2.9464   20.2688  -28.4879 H   0  0  0  0  0  0  0  0  0  0  0  0
   -2.1878   21.7637  -27.7550 H   0  0  0  0  0  0  0  0  0  0  0  0
   -1.9850   19.9920  -26.5790 C   0  0  0  0  0  0  0  0  0  0  0  0
   -2.0654   20.7558  -25.7915 H   0  0  0  0  0  0  0  0  0  0  0  0
   -1.0187   19.4677  -26.5416 H   0  0  0  0  0  0  0  0  0  0  0  0
   -3.0830   18.9500  -26.3630 C   0  0  0  0  0  0  0  0  0  0  0  0
   -3.2400   18.8010  -25.2845 H   0  0  0  0  0  0  0  0  0  0  0  0
   -4.0177   19.3012  -26.8245 H   0  0  0  0  0  0  0  0  0  0  0  0
   -2.7812   17.9982  -26.8245 H   0  0  0  0  0  0  0  0  0  0  0  0
   -0.7120   23.8630  -28.7810 N   0  0  0  0  0  0  0  0  0  0  0  0
   -1.3900   25.0330  -28.6890 C   0  0  0  0  0  0  0  0  0  0  0  0
   -0.8820   25.9940  -27.9710 N   0  0  0  0  0  0  0  0  0  0  0  0
   -1.2250   26.2990  -26.5830 C   0  0  0  0  0  0  0  0  0  0  0  0
   -0.3439   26.1384  -25.9444 H   0  0  0  0  0  0  0  0  0  0  0  0
   -1.5475   27.3480  -26.5083 H   0  0  0  0  0  0  0  0  0  0  0  0
   -2.3550   25.3890  -26.1250 C   0  0  0  0  0  0  0  0  0  0  0  0
   -2.3842   25.3655  -25.0256 H   0  0  0  0  0  0  0  0  0  0  0  0
   -3.3122   25.7713  -26.5091 H   0  0  0  0  0  0  0  0  0  0  0  0
   -2.1856   24.3723  -26.5091 H   0  0  0  0  0  0  0  0  0  0  0  0
   -2.5810   25.1730  -29.3470 N   0  0  0  0  0  0  0  0  0  0  0  0
   -3.1250   26.0630  -29.2990 H   0  0  0  0  0  0  0  0  0  0  0  0
   -6.4910   23.3300  -31.0060 C   0  0  0  0  0  0  0  0  0  0  0  0
   -6.9276   24.1879  -30.4737 H   0  0  0  0  0  0  0  0  0  0  0  0
   -7.3330   22.3170  -31.4990 C   0  0  0  0  0  0  0  0  0  0  0  0
   -8.4208   22.3603  -31.3418 H   0  0  0  0  0  0  0  0  0  0  0  0
   -6.7500   21.2540  -32.1940 C   0  0  0  0  0  0  0  0  0  0  0  0
   -7.3670   20.1790  -32.7470 N   0  0  0  0  0  0  0  0  0  0  0  0
   -8.7940   19.8480  -32.6980 C   0  0  0  0  0  0  0  0  0  0  0  0
   -9.3598   20.7295  -32.3620 H   0  0  0  0  0  0  0  0  0  0  0  0
   -9.1267   19.5476  -33.7025 H   0  0  0  0  0  0  0  0  0  0  0  0
   -9.0360   18.6960  -31.7300 C   0  0  0  0  0  0  0  0  0  0  0  0
   -8.9588   19.0635  -30.6961 H   0  0  0  0  0  0  0  0  0  0  0  0
  -10.0409   18.2812  -31.8976 H   0  0  0  0  0  0  0  0  0  0  0  0
   -8.2830   17.9119  -31.8976 H   0  0  0  0  0  0  0  0  0  0  0  0
  1  2  1  0
  2  3  2  0
  3  4  1  0
  3  5  1  0
  5  6  1  0
  5  7  2  0
  7  8  1  0
  8  9  2  0
  9 10  1  0
  8 11  1  0
 11 12  2  0
 12 13  1  0
 12 14  1  0
 14 15  1  0
 15 16  2  0
 16 17  1  0
 17 18  1  0
 18 19  2  3
 19 20  1  0
 20 21  1  0
 20 22  1  0
 20 23  1  0
 23 24  1  0
 23 25  1  0
 23 26  1  0
 26 27  1  0
 26 28  1  0
 26 29  1  0
 29 30  1  0
 29 31  1  0
 29 32  1  0
 18 33  1  0
 33 34  1  0
 34 35  2  0
 35 36  1  0
 36 37  1  0
 36 38  1  0
 36 39  1  0
 39 40  1  0
 39 41  1  0
 39 42  1  0
 34 43  1  0
 43 44  1  0
 14 45  2  0
 45 46  1  0
 45 47  1  0
 47 48  1  0
 47 49  2  0
 49 50  1  0
 50 51  1  0
 51 52  1  0
 51 53  1  0
 51 54  1  0
 54 55  1  0
 54 56  1  0
 54 57  1  0
  9  2  1  0
 49 11  1  0
 50  7  1  0
 43 16  1  0
M  CHG  2  17  -1  33  -1
M  END
>  <UniqueID>  (5) 
5

>  <SMILES>  (5) 
CCCCN=c1[n-]/c(=N/CC)[nH]/c(=N/c2ccc3c(c2)c2ccccc2n3CC)[n-]1

>  <Energy>  (5) 
97.55900156353106

>  <Genealogy>  (5) 
CCCCN=c1[n-]c(=NCC)[nH]c(=Nc2ccc3c(c2)c2ccccc2n3CC)[n-]1 (protonated)
CCCCN=c1[n-]/c(=N/CC)[nH]/c(=N/c2ccc3c(c2)c2ccccc2n3CC)[n-]1 (cis-trans isomerization)
CCCCN=c1[n-]/c(=N/CC)[nH]/c(=N/c2ccc3c(c2)c2ccccc2n3CC)[n-]1 (3D coordinates assigned)
CCCCN=c1[n-]/c(=N/CC)[nH]/c(=N/c2ccc3c(c2)c2ccccc2n3CC)[n-]1 (optimized conformer: 97.55900156353106 kcal/mol)

>  <smiles>  (5) 
CCCCN=c1[nH]c(=NCC)[nH]c(=Nc2ccc3c(c2)c2ccccc2n3CC)[nH]1

>  <score_type>  (5) 
oracle

>  <origin>  (5) 
adg

>  <m_score__min__energy>  (5) 
-12.33

>  <m_primary>  (5) 
energy

$$$$
5:0
     RDKit          3D

 38 40  0  0  0  0  0  0  0  0999 V2000
   -8.8290   19.0510  -31.3360 C   0  0  0  0  0  0  0  0  0  0  0  0
   -7.8870   18.1520  -31.6290 C   0  0  0  0  0  0  0  0  0  0  0  0
   -7.5730   17.7700  -33.0490 C   0  0  0  0  0  0  0  0  0  0  0  0
   -6.1770   18.1020  -33.3780 N   0  0  0  0  0  0  0  0  0  0  0  0
   -5.3780   17.2220  -34.0790 C   0  0  0  0  0  0  0  0  0  0  0  0
   -5.8430   16.0980  -34.4220 O   0  0  0  0  0  0  0  0  0  0  0  0
   -4.0720   17.5570  -34.4100 N   0  0  0  0  0  0  0  0  0  0  0  0
   -3.2220   16.5950  -35.1360 C   0  0  0  0  0  0  0  0  0  0  0  0
   -2.4160   15.7490  -34.1540 C   0  0  0  0  0  0  0  0  0  0  0  0
   -3.5530   18.7710  -34.0190 C   0  0  0  0  0  0  0  0  0  0  0  0
   -2.3620   19.0930  -34.2790 O   0  0  0  0  0  0  0  0  0  0  0  0
   -4.3730   19.6430  -33.3250 C   0  0  0  0  0  0  0  0  0  0  0  0
   -4.0930   20.8700  -32.8610 N   0  0  0  0  0  0  0  0  0  0  0  0
   -5.2660   21.2360  -32.2750 C   0  0  0  0  0  0  0  0  0  0  0  0
   -5.4610   22.5430  -31.6090 C   0  0  0  0  0  0  0  0  0  0  0  0
   -6.7560   23.0320  -31.3640 C   0  0  0  0  0  0  0  0  0  0  0  0
   -6.9370   24.2680  -30.7360 C   0  0  0  0  0  0  0  0  0  0  0  0
   -5.8340   25.0310  -30.3450 C   0  0  0  0  0  0  0  0  0  0  0  0
   -6.0450   26.2600  -29.7200 O   0  0  0  0  0  0  0  0  0  0  0  0
   -4.5370   24.5500  -30.5850 C   0  0  0  0  0  0  0  0  0  0  0  0
   -3.4270   25.2950  -30.2030 O   0  0  0  0  0  0  0  0  0  0  0  0
   -4.3530   23.3150  -31.2140 C   0  0  0  0  0  0  0  0  0  0  0  0
   -6.2460   20.2940  -32.3550 N   0  0  0  0  0  0  0  0  0  0  0  0
   -5.6410   19.3020  -33.0270 C   0  0  0  0  0  0  0  0  0  0  0  0
   -9.0354   19.3093  -30.2869 H   0  0  0  0  0  0  0  0  0  0  0  0
   -9.3989   19.5336  -32.1436 H   0  0  0  0  0  0  0  0  0  0  0  0
   -7.3257   17.6781  -30.8102 H   0  0  0  0  0  0  0  0  0  0  0  0
   -7.7266   16.6881  -33.1748 H   0  0  0  0  0  0  0  0  0  0  0  0
   -8.2389   18.3296  -33.7224 H   0  0  0  0  0  0  0  0  0  0  0  0
   -3.8589   15.9359  -35.7442 H   0  0  0  0  0  0  0  0  0  0  0  0
   -2.5265   17.1507  -35.7821 H   0  0  0  0  0  0  0  0  0  0  0  0
   -2.6826   16.0289  -33.1242 H   0  0  0  0  0  0  0  0  0  0  0  0
   -2.6425   14.6847  -34.3151 H   0  0  0  0  0  0  0  0  0  0  0  0
   -1.3420   15.9237  -34.3151 H   0  0  0  0  0  0  0  0  0  0  0  0
   -7.6314   22.4392  -31.6679 H   0  0  0  0  0  0  0  0  0  0  0  0
   -7.9543   24.6420  -30.5486 H   0  0  0  0  0  0  0  0  0  0  0  0
   -5.3920   26.6380  -29.0440 H   0  0  0  0  0  0  0  0  0  0  0  0
   -3.3345   22.9442  -31.4015 H   0  0  0  0  0  0  0  0  0  0  0  0
  1  2  2  0
  2  3  1  0
  3  4  1  0
  4  5  1  0
  5  6  2  0
  5  7  1  0
  7  8  1  0
  8  9  1  0
  7 10  1  0
 10 11  2  0
 10 12  1  0
 12 13  1  0
 13 14  1  0
 14 15  1  0
 15 16  2  0
 16 17  1  0
 17 18  2  0
 18 19  1  0
 18 20  1  0
 20 21  1  0
 20 22  2  0
 14 23  2  0
 23 24  1  0
 24  4  1  0
 24 12  2  0
 22 15  1  0
  1 25  1  0
  1 26  1  0
  2 27  1  0
  3 28  1  0
  3 29  1  0
  8 30  1  0
  8 31  1  0
  9 32  1  0
  9 33  1  0
  9 34  1  0
 16 35  1  0
 17 36  1  0
 19 37  1  0
 22 38  1  0
M  CHG  2  13  -1  21  -1
M  END
>  <UniqueID>  (6) 
6

>  <SMILES>  (6) 
C=CCn1c(=O)n(CC)c(=O)c2[n-]c(-c3ccc(O)c([O-])c3)nc21

>  <Energy>  (6) 
77.68674514178714

>  <Genealogy>  (6) 
C=CCn1c(=O)n(CC)c(=O)c2[n-]c(-c3ccc(O)c([O-])c3)nc21 (protonated)
C=CCn1c(=O)n(CC)c(=O)c2[n-]c(-c3ccc(O)c([O-])c3)nc21 (3D coordinates assigned)
C=CCn1c(=O)n(CC)c(=O)c2[n-]c(-c3ccc(O)c([O-])c3)nc21 (optimized conformer: 77.68674514178714 kcal/mol)

>  <smiles>  (6) 
C=CCn1c(=O)n(CC)c(=O)c2[nH]c(-c3ccc(O)c(O)c3)nc21

>  <score_type>  (6) 
oracle

>  <origin>  (6) 
adg

>  <m_score__min__energy>  (6) 
-10.49

>  <m_primary>  (6) 
energy

$$$$
6:0
     RDKit          3D

 40 42  0  0  0  0  0  0  0  0999 V2000
   -4.4050   21.0120  -33.1430 C   0  0  0  0  0  0  0  0  0  0  0  0
   -5.5110   20.2510  -33.6170 O   0  0  0  0  0  0  0  0  0  0  0  0
   -5.5210   18.8520  -33.7480 C   0  0  0  0  0  0  0  0  0  0  0  0
   -4.5890   18.1760  -34.5590 C   0  0  0  0  0  0  0  0  0  0  0  0
   -4.6320   16.7840  -34.6760 C   0  0  0  0  0  0  0  0  0  0  0  0
   -5.6040   16.0520  -33.9920 C   0  0  0  0  0  0  0  0  0  0  0  0
   -5.6660   14.1510  -34.1680 Br  0  0  0  0  0  0  0  0  0  0  0  0
   -6.5340   16.7100  -33.1850 C   0  0  0  0  0  0  0  0  0  0  0  0
   -6.4930   18.1080  -33.0460 C   0  0  0  0  0  0  0  0  0  0  0  0
   -7.5300   18.8050  -32.2060 C   0  0  0  0  0  0  0  0  0  0  0  0
   -8.6070   19.2940  -33.0760 N   0  0  0  0  0  0  0  0  0  0  0  0
   -9.5420   20.1530  -32.3390 C   0  0  0  0  0  0  0  0  0  0  0  0
   -8.8850   21.4530  -31.9960 C   0  0  0  0  0  0  0  0  0  0  0  0
   -9.4680   22.6980  -32.0390 C   0  0  0  0  0  0  0  0  0  0  0  0
   -8.5670   23.5660  -31.6530 O   0  0  0  0  0  0  0  0  0  0  0  0
   -7.4670   22.8930  -31.3820 C   0  0  0  0  0  0  0  0  0  0  0  0
   -6.2220   23.5220  -30.9010 C   0  0  0  0  0  0  0  0  0  0  0  0
   -6.0720   24.9200  -30.9180 C   0  0  0  0  0  0  0  0  0  0  0  0
   -4.8850   25.5090  -30.4730 C   0  0  0  0  0  0  0  0  0  0  0  0
   -3.8360   24.7100  -30.0080 C   0  0  0  0  0  0  0  0  0  0  0  0
   -2.6570   25.2960  -29.5670 O   0  0  0  0  0  0  0  0  0  0  0  0
   -3.9770   23.3180  -29.9880 C   0  0  0  0  0  0  0  0  0  0  0  0
   -5.1620   22.7260  -30.4330 C   0  0  0  0  0  0  0  0  0  0  0  0
   -7.6080   21.5660  -31.5830 N   0  0  0  0  0  0  0  0  0  0  0  0
   -4.4046   21.0123  -32.0430 H   0  0  0  0  0  0  0  0  0  0  0  0
   -3.4688   20.5659  -33.5099 H   0  0  0  0  0  0  0  0  0  0  0  0
   -4.4870   22.0458  -33.5099 H   0  0  0  0  0  0  0  0  0  0  0  0
   -3.8226   18.7470  -35.1036 H   0  0  0  0  0  0  0  0  0  0  0  0
   -3.8979   16.2638  -35.3088 H   0  0  0  0  0  0  0  0  0  0  0  0
   -7.3039   16.1305  -32.6545 H   0  0  0  0  0  0  0  0  0  0  0  0
   -7.9431   18.0989  -31.4706 H   0  0  0  0  0  0  0  0  0  0  0  0
   -7.0688   19.6521  -31.6771 H   0  0  0  0  0  0  0  0  0  0  0  0
   -9.1390   18.4630  -33.4250 H   0  0  0  0  0  0  0  0  0  0  0  0
  -10.4273   20.3462  -32.9627 H   0  0  0  0  0  0  0  0  0  0  0  0
   -9.8418   19.6452  -31.4104 H   0  0  0  0  0  0  0  0  0  0  0  0
  -10.5012   22.9231  -32.3420 H   0  0  0  0  0  0  0  0  0  0  0  0
   -6.8934   25.5537  -31.2836 H   0  0  0  0  0  0  0  0  0  0  0  0
   -4.7759   26.6035  -30.4887 H   0  0  0  0  0  0  0  0  0  0  0  0
   -3.1531   22.6882  -29.6211 H   0  0  0  0  0  0  0  0  0  0  0  0
   -5.2660   21.6310  -30.4170 H   0  0  0  0  0  0  0  0  0  0  0  0
  1  2  1  0
  2  3  1  0
  3  4  2  0
  4  5  1  0
  5  6  2  0
  6  7  1  0
  6  8  1  0
  8  9  2  0
  9 10  1  0
 10 11  1  0
 11 12  1  0
 12 13  1  0
 13 14  2  0
 14 15  1  0
 15 16  1  0
 16 17  1  0
 17 18  2  0
 18 19  1  0
 19 20  2  0
 20 21  1  0
 20 22  1  0
 22 23  2  0
 16 24  2  0
  9  3  1  0
 24 13  1  0
 23 17  1  0
  1 25  1  0
  1 26  1  0
  1 27  1  0
  4 28  1  0
  5 29  1  0
  8 30  1  0
 10 31  1  0
 10 32  1  0
 11 33  1  0
 12 34  1  0
 12 35  1  0
 14 36  1  0
 18 37  1  0
 19 38  1  0
 22 39  1  0
 23 40  1  0
M  CHG  1  21  -1
M  END
>  <UniqueID>  (7) 
7

>  <SMILES>  (7) 
COc1ccc(Br)cc1CNCc1coc(-c2ccc([O-])cc2)n1

>  <Energy>  (7) 
67.74790709010668

>  <Genealogy>  (7) 
COc1ccc(Br)cc1CNCc1coc(-c2ccc([O-])cc2)n1 (protonated)
COc1ccc(Br)cc1CNCc1coc(-c2ccc([O-])cc2)n1 (3D coordinates assigned)
COc1ccc(Br)cc1CNCc1coc(-c2ccc([O-])cc2)n1 (optimized conformer: 67.74790709010668 kcal/mol)

>  <smiles>  (7) 
COc1ccc(Br)cc1CNCc1coc(-c2ccc(O)cc2)n1

>  <score_type>  (7) 
oracle

>  <origin>  (7) 
adg

>  <m_score__min__energy>  (7) 
-11.539999999999999

>  <m_primary>  (7) 
energy

$$$$
7:0
     RDKit          3D

 50 52  0  0  0  0  0  0  0  0999 V2000
   -3.3120   18.5140  -25.6090 C   0  0  0  0  0  0  0  0  0  0  0  0
   -2.1350   18.8510  -26.3350 O   0  0  0  0  0  0  0  0  0  0  0  0
   -2.0050   19.9870  -27.1490 C   0  0  0  0  0  0  0  0  0  0  0  0
   -0.7610   20.4250  -27.6400 C   0  0  0  0  0  0  0  0  0  0  0  0
   -0.6830   21.5560  -28.4570 C   0  0  0  0  0  0  0  0  0  0  0  0
   -1.8430   22.2740  -28.7880 C   0  0  0  0  0  0  0  0  0  0  0  0
   -1.7650   23.4570  -29.7200 C   0  0  0  0  0  0  0  0  0  0  0  0
   -2.7050   23.2860  -30.8430 N   0  0  0  0  0  0  0  0  0  0  0  0
   -3.9120   24.0740  -30.8170 C   0  0  0  0  0  0  0  0  0  0  0  0
   -3.8740   25.3000  -30.5240 O   0  0  0  0  0  0  0  0  0  0  0  0
   -5.1980   23.3990  -31.0560 C   0  0  0  0  0  0  0  0  0  0  0  0
   -6.3790   24.0590  -30.9110 N   0  0  0  0  0  0  0  0  0  0  0  0
   -7.5710   23.4200  -31.0570 C   0  0  0  0  0  0  0  0  0  0  0  0
   -7.6060   22.0520  -31.3460 C   0  0  0  0  0  0  0  0  0  0  0  0
   -6.4060   21.3510  -31.4960 C   0  0  0  0  0  0  0  0  0  0  0  0
   -5.1890   22.0280  -31.3610 C   0  0  0  0  0  0  0  0  0  0  0  0
   -3.9350   21.3490  -31.5370 N   0  0  0  0  0  0  0  0  0  0  0  0
   -2.7280   22.1470  -31.7950 C   0  0  2  0  0  0  0  0  0  0  0  0
   -1.4520   21.2500  -31.8430 C   0  0  0  0  0  0  0  0  0  0  0  0
   -1.2470   20.4080  -33.1500 C   0  0  0  0  0  0  0  0  0  0  0  0
   -0.4400   21.2620  -34.1500 C   0  0  0  0  0  0  0  0  0  0  0  0
   -2.5810   20.0100  -33.8180 C   0  0  0  0  0  0  0  0  0  0  0  0
   -0.4350   19.1270  -32.8490 C   0  0  0  0  0  0  0  0  0  0  0  0
   -3.0840   21.8340  -28.2990 C   0  0  0  0  0  0  0  0  0  0  0  0
   -3.1600   20.7020  -27.4840 C   0  0  0  0  0  0  0  0  0  0  0  0
   -3.1067   18.5728  -24.5299 H   0  0  0  0  0  0  0  0  0  0  0  0
   -4.1167   19.2178  -25.8680 H   0  0  0  0  0  0  0  0  0  0  0  0
   -3.6223   17.4909  -25.8680 H   0  0  0  0  0  0  0  0  0  0  0  0
    0.1548   19.8742  -27.3793 H   0  0  0  0  0  0  0  0  0  0  0  0
    0.2929   21.8856  -28.8430 H   0  0  0  0  0  0  0  0  0  0  0  0
   -2.0228   24.3723  -29.1671 H   0  0  0  0  0  0  0  0  0  0  0  0
   -0.7422   23.5327  -30.1176 H   0  0  0  0  0  0  0  0  0  0  0  0
   -8.5107   23.9812  -30.9474 H   0  0  0  0  0  0  0  0  0  0  0  0
   -8.5694   21.5323  -31.4543 H   0  0  0  0  0  0  0  0  0  0  0  0
   -6.4184   20.2739  -31.7188 H   0  0  0  0  0  0  0  0  0  0  0  0
   -3.9210   20.3050  -31.6010 H   0  0  0  0  0  0  0  0  0  0  0  0
   -2.7433   22.5950  -32.7995 H   0  0  0  0  0  0  0  0  0  0  0  0
   -0.5764   21.9053  -31.7250 H   0  0  0  0  0  0  0  0  0  0  0  0
   -1.5787   20.5141  -31.0353 H   0  0  0  0  0  0  0  0  0  0  0  0
    0.2134   21.9535  -33.5979 H   0  0  0  0  0  0  0  0  0  0  0  0
    0.1737   20.6038  -34.7825 H   0  0  0  0  0  0  0  0  0  0  0  0
   -1.1318   21.8375  -34.7825 H   0  0  0  0  0  0  0  0  0  0  0  0
   -3.3277   19.7872  -33.0416 H   0  0  0  0  0  0  0  0  0  0  0  0
   -2.9396   20.8403  -34.4441 H   0  0  0  0  0  0  0  0  0  0  0  0
   -2.4260   19.1190  -34.4441 H   0  0  0  0  0  0  0  0  0  0  0  0
   -0.3505   18.9938  -31.7604 H   0  0  0  0  0  0  0  0  0  0  0  0
   -0.9470   18.2571  -33.2862 H   0  0  0  0  0  0  0  0  0  0  0  0
    0.5702   19.2188  -33.2862 H   0  0  0  0  0  0  0  0  0  0  0  0
   -4.0007   22.3836  -28.5591 H   0  0  0  0  0  0  0  0  0  0  0  0
   -4.1367   20.3698  -27.1022 H   0  0  0  0  0  0  0  0  0  0  0  0
  1  2  1  0
  2  3  1  0
  3  4  2  0
  4  5  1  0
  5  6  2  0
  6  7  1  0
  7  8  1  0
  8  9  1  0
  9 10  2  0
  9 11  1  0
 11 12  2  0
 12 13  1  0
 13 14  2  0
 14 15  1  0
 15 16  2  0
 16 17  1  0
 17 18  1  0
 18 19  1  0
 19 20  1  0
 20 21  1  0
 20 22  1  0
 20 23  1  0
  6 24  1  0
 24 25  2  0
 25  3  1  0
 18  8  1  0
 16 11  1  0
  1 26  1  0
  1 27  1  0
  1 28  1  0
  4 29  1  0
  5 30  1  0
  7 31  1  0
  7 32  1  0
 13 33  1  0
 14 34  1  0
 15 35  1  0
 17 36  1  0
 18 37  1  6
 19 38  1  0
 19 39  1  0
 21 40  1  0
 21 41  1  0
 21 42  1  0
 22 43  1  0
 22 44  1  0
 22 45  1  0
 23 46  1  0
 23 47  1  0
 23 48  1  0
 24 49  1  0
 25 50  1  0
M  END
>  <UniqueID>  (8) 
8

>  <SMILES>  (8) 
COc1ccc(CN2C(=O)c3ncccc3N[C@@H]2CC(C)(C)C)cc1

>  <Energy>  (8) 
59.83946488046293

>  <Genealogy>  (8) 
COc1ccc(CN2C(=O)c3ncccc3N[C@@H]2CC(C)(C)C)cc1 (chirality)
COc1ccc(CN2C(=O)c3ncccc3N[C@@H]2CC(C)(C)C)cc1 (3D coordinates assigned)
COc1ccc(CN2C(=O)c3ncccc3N[C@@H]2CC(C)(C)C)cc1 (nonaromatic ring conformer: 59.83946488046293 kcal/mol)

>  <smiles>  (8) 
COc1ccc(CN2C(=O)c3ncccc3NC2CC(C)(C)C)cc1

>  <score_type>  (8) 
oracle

>  <origin>  (8) 
adg

>  <m_score__min__energy>  (8) 
-7.6600000000000001

>  <m_primary>  (8) 
energy

$$$$
8:0
     RDKit          3D

 73 77  0  0  0  0  0  0  0  0999 V2000
   -1.0230   21.3870  -29.4410 C   0  0  0  0  0  0  0  0  0  0  0  0
   -2.3200   21.7990  -28.8720 N   0  0  0  0  0  0  0  0  0  0  0  0
   -2.7360   20.8230  -27.8510 C   0  0  0  0  0  0  0  0  0  0  0  0
   -2.2360   23.1500  -28.2750 C   0  0  0  0  0  0  0  0  0  0  0  0
   -2.0250   24.2260  -29.3430 C   0  0  0  0  0  0  0  0  0  0  0  0
   -3.2910   24.8930  -29.6360 N   0  0  0  0  0  0  0  0  0  0  0  0
   -4.2110   24.5120  -30.6670 C   0  0  0  0  0  0  0  0  0  0  0  0
   -5.0450   25.3640  -31.0740 O   0  0  0  0  0  0  0  0  0  0  0  0
   -4.2540   23.1440  -31.2250 C   0  0  0  0  0  0  0  0  0  0  0  0
   -5.4450   22.4050  -31.1600 C   0  0  0  0  0  0  0  0  0  0  0  0
   -5.5000   21.1070  -31.6740 C   0  0  0  0  0  0  0  0  0  0  0  0
   -4.3720   20.5280  -32.2810 C   0  0  0  0  0  0  0  0  0  0  0  0
   -4.4410   19.1330  -32.7900 C   0  0  0  0  0  0  0  0  0  0  0  0
   -5.4470   18.2420  -32.3780 C   0  0  0  0  0  0  0  0  0  0  0  0
   -5.4840   16.9480  -32.8990 C   0  0  0  0  0  0  0  0  0  0  0  0
   -4.5180   16.5400  -33.8310 C   0  0  0  0  0  0  0  0  0  0  0  0
   -4.5040   15.2600  -34.4160 C   0  0  0  0  0  0  0  0  0  0  0  0
   -5.5410   14.3040  -34.1400 N   0  0  0  0  0  0  0  0  0  0  0  0
   -5.3410   13.3240  -33.0680 C   0  0  0  0  0  0  0  0  0  0  0  0
   -6.2480   12.1130  -33.3100 C   0  0  0  0  0  0  0  0  0  0  0  0
   -7.5930   12.5200  -33.4850 O   0  0  0  0  0  0  0  0  0  0  0  0
   -7.7110   13.3010  -34.6600 C   0  0  0  0  0  0  0  0  0  0  0  0
   -6.9190   14.6060  -34.5290 C   0  0  0  0  0  0  0  0  0  0  0  0
   -3.4970   14.9300  -35.2760 N   0  0  0  0  0  0  0  0  0  0  0  0
   -2.5030   15.8120  -35.5810 C   0  0  0  0  0  0  0  0  0  0  0  0
   -1.4490   15.4460  -36.4890 N   0  0  0  0  0  0  0  0  0  0  0  0
   -0.0800   15.9340  -36.3150 C   0  0  0  0  0  0  0  0  0  0  0  0
    0.9160   14.7640  -36.4070 C   0  0  0  0  0  0  0  0  0  0  0  0
    0.4930   13.6870  -37.3430 N   0  0  0  0  0  0  0  0  0  0  0  0
    0.0210   12.4910  -36.6220 C   0  0  0  0  0  0  0  0  0  0  0  0
   -0.4880   14.1380  -38.3540 C   0  0  0  0  0  0  0  0  0  0  0  0
   -1.7680   14.6880  -37.7040 C   0  0  0  0  0  0  0  0  0  0  0  0
   -2.5290   17.0650  -35.0510 N   0  0  0  0  0  0  0  0  0  0  0  0
   -3.5050   17.4460  -34.1900 C   0  0  0  0  0  0  0  0  0  0  0  0
   -3.4950   18.7000  -33.6710 N   0  0  0  0  0  0  0  0  0  0  0  0
   -3.1850   21.2820  -32.3620 C   0  0  0  0  0  0  0  0  0  0  0  0
   -3.1320   22.5800  -31.8480 C   0  0  0  0  0  0  0  0  0  0  0  0
   -0.3193   21.1635  -28.6256 H   0  0  0  0  0  0  0  0  0  0  0  0
   -1.1631   20.4891  -30.0609 H   0  0  0  0  0  0  0  0  0  0  0  0
   -0.6193   22.2011  -30.0609 H   0  0  0  0  0  0  0  0  0  0  0  0
   -2.5576   21.2415  -26.8495 H   0  0  0  0  0  0  0  0  0  0  0  0
   -3.8068   20.6013  -27.9704 H   0  0  0  0  0  0  0  0  0  0  0  0
   -2.1544   19.8970  -27.9704 H   0  0  0  0  0  0  0  0  0  0  0  0
   -3.1714   23.3608  -27.7359 H   0  0  0  0  0  0  0  0  0  0  0  0
   -1.3749   23.1708  -27.5909 H   0  0  0  0  0  0  0  0  0  0  0  0
   -1.2993   24.9666  -28.9757 H   0  0  0  0  0  0  0  0  0  0  0  0
   -1.6441   23.7544  -30.2609 H   0  0  0  0  0  0  0  0  0  0  0  0
   -6.3405   22.8501  -30.7018 H   0  0  0  0  0  0  0  0  0  0  0  0
   -6.4353   20.5324  -31.6030 H   0  0  0  0  0  0  0  0  0  0  0  0
   -6.2031   18.5639  -31.6468 H   0  0  0  0  0  0  0  0  0  0  0  0
   -6.2701   16.2482  -32.5791 H   0  0  0  0  0  0  0  0  0  0  0  0
   -4.2900   12.9994  -33.0589 H   0  0  0  0  0  0  0  0  0  0  0  0
   -5.5906   13.7824  -32.0997 H   0  0  0  0  0  0  0  0  0  0  0  0
   -5.9105   11.5844  -34.2137 H   0  0  0  0  0  0  0  0  0  0  0  0
   -6.1912   11.4490  -32.4348 H   0  0  0  0  0  0  0  0  0  0  0  0
   -7.3222   12.7276  -35.5145 H   0  0  0  0  0  0  0  0  0  0  0  0
   -8.7720   13.5470  -34.8142 H   0  0  0  0  0  0  0  0  0  0  0  0
   -6.9201   15.1339  -35.4940 H   0  0  0  0  0  0  0  0  0  0  0  0
   -7.3852   15.2421  -33.7622 H   0  0  0  0  0  0  0  0  0  0  0  0
   -3.5210   13.9970  -35.7420 H   0  0  0  0  0  0  0  0  0  0  0  0
    0.1473   16.6677  -37.1025 H   0  0  0  0  0  0  0  0  0  0  0  0
    0.0103   16.4058  -35.3254 H   0  0  0  0  0  0  0  0  0  0  0  0
    1.8844   15.1590  -36.7478 H   0  0  0  0  0  0  0  0  0  0  0  0
    0.9740   14.3132  -35.4053 H   0  0  0  0  0  0  0  0  0  0  0  0
    0.0898   12.6653  -35.5381 H   0  0  0  0  0  0  0  0  0  0  0  0
   -1.0249   12.2873  -36.8950 H   0  0  0  0  0  0  0  0  0  0  0  0
    0.6459   11.6279  -36.8950 H   0  0  0  0  0  0  0  0  0  0  0  0
   -0.0306   14.9301  -38.9650 H   0  0  0  0  0  0  0  0  0  0  0  0
   -0.7644   13.2709  -38.9719 H   0  0  0  0  0  0  0  0  0  0  0  0
   -2.2799   15.3497  -38.4182 H   0  0  0  0  0  0  0  0  0  0  0  0
   -2.4178   13.8429  -37.4328 H   0  0  0  0  0  0  0  0  0  0  0  0
   -2.2925   20.8453  -32.8338 H   0  0  0  0  0  0  0  0  0  0  0  0
   -2.2034   23.1635  -31.9327 H   0  0  0  0  0  0  0  0  0  0  0  0
  1  2  1  0
  2  3  1  0
  2  4  1  0
  4  5  1  0
  5  6  1  0
  6  7  1  0
  7  8  2  0
  7  9  1  0
  9 10  2  0
 10 11  1  0
 11 12  2  0
 12 13  1  0
 13 14  2  0
 14 15  1  0
 15 16  2  0
 16 17  1  0
 17 18  1  0
 18 19  1  0
 19 20  1  0
 20 21  1  0
 21 22  1  0
 22 23  1  0
 17 24  2  0
 24 25  1  0
 25 26  1  0
 26 27  1  0
 27 28  1  0
 28 29  1  0
 29 30  1  0
 29 31  1  0
 31 32  1  0
 25 33  2  0
 33 34  1  0
 34 35  2  0
 12 36  1  0
 36 37  2  0
 37  9  1  0
 35 13  1  0
 34 16  1  0
 23 18  1  0
 32 26  1  0
  1 38  1  0
  1 39  1  0
  1 40  1  0
  3 41  1  0
  3 42  1  0
  3 43  1  0
  4 44  1  0
  4 45  1  0
  5 46  1  0
  5 47  1  0
 10 48  1  0
 11 49  1  0
 14 50  1  0
 15 51  1  0
 19 52  1  0
 19 53  1  0
 20 54  1  0
 20 55  1  0
 22 56  1  0
 22 57  1  0
 23 58  1  0
 23 59  1  0
 24 60  1  0
 27 61  1  0
 27 62  1  0
 28 63  1  0
 28 64  1  0
 30 65  1  0
 30 66  1  0
 30 67  1  0
 31 68  1  0
 31 69  1  0
 32 70  1  0
 32 71  1  0
 36 72  1  0
 37 73  1  0
M  CHG  2   6  -1  24   1
M  END
>  <UniqueID>  (9) 
9

>  <SMILES>  (9) 
CN(C)CC[N-]C(=O)c1ccc(-c2ccc3c(N4CCOCC4)[nH+]c(N4CCN(C)CC4)nc3n2)cc1

>  <Energy>  (9) 
102.98784975926361

>  <Genealogy>  (9) 
CN(C)CC[N-]C(=O)c1ccc(-c2ccc3c(N4CCOCC4)[nH+]c(N4CCN(C)CC4)nc3n2)cc1 (protonated)
CN(C)CC[N-]C(=O)c1ccc(-c2ccc3c(N4CCOCC4)[nH+]c(N4CCN(C)CC4)nc3n2)cc1 (3D coordinates assigned)
CN(C)CC[N-]C(=O)c1ccc(-c2ccc3c(N4CCOCC4)[nH+]c(N4CCN(C)CC4)nc3n2)cc1 (nonaromatic ring conformer: 102.98784975926361 kcal/mol)

>  <smiles>  (9) 
CN(C)CCNC(=O)c1ccc(-c2ccc3c(N4CCOCC4)nc(N4CCN(C)CC4)nc3n2)cc1

>  <score_type>  (9) 
oracle

>  <origin>  (9) 
adg

>  <m_score__min__energy>  (9) 
-8.8800000000000008

>  <m_primary>  (9) 
energy

$$$$
9:0
     RDKit          3D

 37 39  0  0  0  0  0  0  0  0999 V2000
   -6.5610   25.3070  -29.7090 C   0  0  0  0  0  0  0  0  0  0  0  0
   -5.3960   25.6810  -30.6180 C   0  0  0  0  0  0  0  0  0  0  0  0
   -4.8070   24.5150  -31.1600 O   0  0  0  0  0  0  0  0  0  0  0  0
   -4.9210   23.4300  -30.2590 C   0  0  0  0  0  0  0  0  0  0  0  0
   -4.6400   22.0960  -30.9910 C   0  0  2  0  0  0  0  0  0  0  0  0
   -3.1470   21.8720  -31.0790 C   0  0  0  0  0  0  0  0  0  0  0  0
   -2.0150   21.9710  -29.8360 S   0  0  0  0  0  0  0  0  0  0  0  0
   -0.7500   21.4130  -30.7980 C   0  0  0  0  0  0  0  0  0  0  0  0
   -1.1770   21.1200  -32.0470 N   0  0  0  0  0  0  0  0  0  0  0  0
   -2.5090   21.3540  -32.1940 C   0  0  0  0  0  0  0  0  0  0  0  0
   -3.2420   21.1070  -33.4700 C   0  0  0  0  0  0  0  0  0  0  0  0
   -4.7460   20.9610  -33.1890 C   0  0  0  0  0  0  0  0  0  0  0  0
   -5.2520   22.0820  -32.3590 N   0  0  1  0  0  0  0  0  0  0  0  0
   -6.6990   21.9790  -32.2910 C   0  0  0  0  0  0  0  0  0  0  0  0
   -7.4050   23.0250  -32.3230 O   0  0  0  0  0  0  0  0  0  0  0  0
   -7.3800   20.6690  -32.1620 C   0  0  0  0  0  0  0  0  0  0  0  0
   -6.7930   19.5150  -31.6110 C   0  0  0  0  0  0  0  0  0  0  0  0
   -7.6370   18.4130  -31.5940 C   0  0  0  0  0  0  0  0  0  0  0  0
   -9.1110   18.8730  -32.2550 S   0  0  0  0  0  0  0  0  0  0  0  0
   -8.6980   20.4710  -32.5670 C   0  0  0  0  0  0  0  0  0  0  0  0
   -6.2524   25.4061  -28.6578 H   0  0  0  0  0  0  0  0  0  0  0  0
   -7.4102   25.9777  -29.9066 H   0  0  0  0  0  0  0  0  0  0  0  0
   -6.8611   24.2673  -29.9066 H   0  0  0  0  0  0  0  0  0  0  0  0
   -5.7634   26.3170  -31.4368 H   0  0  0  0  0  0  0  0  0  0  0  0
   -4.6417   26.2248  -30.0303 H   0  0  0  0  0  0  0  0  0  0  0  0
   -4.1940   23.5571  -29.4433 H   0  0  0  0  0  0  0  0  0  0  0  0
   -5.9425   23.4076  -29.8514 H   0  0  0  0  0  0  0  0  0  0  0  0
   -5.1001   21.2800  -30.4144 H   0  0  0  0  0  0  0  0  0  0  0  0
    0.2890   21.3014  -30.4546 H   0  0  0  0  0  0  0  0  0  0  0  0
   -3.0791   21.9530  -34.1539 H   0  0  0  0  0  0  0  0  0  0  0  0
   -2.8676   20.1803  -33.9294 H   0  0  0  0  0  0  0  0  0  0  0  0
   -5.2895   20.9498  -34.1453 H   0  0  0  0  0  0  0  0  0  0  0  0
   -4.9062   20.0223  -32.6385 H   0  0  0  0  0  0  0  0  0  0  0  0
   -4.9870   22.9750  -32.8330 H   0  0  0  0  0  0  0  0  0  0  0  0
   -5.7617   19.4886  -31.2294 H   0  0  0  0  0  0  0  0  0  0  0  0
   -7.3843   17.4122  -31.2137 H   0  0  0  0  0  0  0  0  0  0  0  0
   -9.3556   21.2308  -33.0144 H   0  0  0  0  0  0  0  0  0  0  0  0
  1  2  1  0
  2  3  1  0
  3  4  1  0
  4  5  1  0
  5  6  1  0
  6  7  1  0
  7  8  1  0
  8  9  2  0
  9 10  1  0
 10 11  1  0
 11 12  1  0
 12 13  1  0
 13 14  1  0
 14 15  2  0
 14 16  1  0
 16 17  1  0
 17 18  2  0
 18 19  1  0
 19 20  1  0
 13  5  1  0
 20 16  2  0
 10  6  2  0
  1 21  1  0
  1 22  1  0
  1 23  1  0
  2 24  1  0
  2 25  1  0
  4 26  1  0
  4 27  1  0
  5 28  1  1
  8 29  1  0
 11 30  1  0
 11 31  1  0
 12 32  1  0
 12 33  1  0
 13 34  1  6
 17 35  1  0
 18 36  1  0
 20 37  1  0
M  CHG  1  13   1
M  END
>  <UniqueID>  (10) 
10

>  <SMILES>  (10) 
CCOC[C@@H]1c2scnc2CC[N@H+]1C(=O)c1ccsc1

>  <Energy>  (10) 
100.29221029913393

>  <Genealogy>  (10) 
CCOCC1c2scnc2CC[NH+]1C(=O)c1ccsc1 (protonated)
CCOC[C@@H]1c2scnc2CC[N@H+]1C(=O)c1ccsc1 (chirality)
CCOC[C@@H]1c2scnc2CC[N@H+]1C(=O)c1ccsc1 (3D coordinates assigned)
CCOC[C@@H]1c2scnc2CC[N@H+]1C(=O)c1ccsc1 (nonaromatic ring conformer: 100.29221029913393 kcal/mol)

>  <smiles>  (10) 
CCOCC1c2scnc2CCN1C(=O)c1ccsc1

>  <score_type>  (10) 
oracle

>  <origin>  (10) 
adg

>  <m_score__min__energy>  (10) 
-6.5599999999999996

>  <m_primary>  (10) 
energy

$$$$
10:0
     RDKit          3D

 33 36  0  0  0  0  0  0  0  0999 V2000
   -1.3100   20.6580  -26.7770 C   0  0  0  0  0  0  0  0  0  0  0  0
   -2.5750   20.4420  -27.3150 C   0  0  0  0  0  0  0  0  0  0  0  0
   -3.2120   21.4420  -28.0530 C   0  0  0  0  0  0  0  0  0  0  0  0
   -2.5900   22.6970  -28.2720 C   0  0  0  0  0  0  0  0  0  0  0  0
   -3.1760   23.7740  -29.0180 C   0  0  0  0  0  0  0  0  0  0  0  0
   -4.5190   23.7600  -29.6790 C   0  0  0  0  0  0  0  0  0  0  0  0
   -5.3690   24.8720  -29.6590 C   0  0  0  0  0  0  0  0  0  0  0  0
   -6.7710   24.4850  -30.4970 S   0  0  0  0  0  0  0  0  0  0  0  0
   -6.2620   22.9230  -30.8590 C   0  0  0  0  0  0  0  0  0  0  0  0
   -7.0280   21.9160  -31.6270 C   0  0  0  0  0  0  0  0  0  0  0  0
   -8.4300   21.8630  -31.5590 C   0  0  0  0  0  0  0  0  0  0  0  0
   -9.1240   20.9010  -32.2970 C   0  0  0  0  0  0  0  0  0  0  0  0
   -8.4480   20.0170  -33.0780 N   0  0  0  0  0  0  0  0  0  0  0  0
   -7.0910   20.0430  -33.1650 C   0  0  0  0  0  0  0  0  0  0  0  0
   -6.3580   20.9900  -32.4440 C   0  0  0  0  0  0  0  0  0  0  0  0
   -5.0330   22.6930  -30.3480 N   0  0  0  0  0  0  0  0  0  0  0  0
   -2.4650   24.9300  -29.1510 N   0  0  0  0  0  0  0  0  0  0  0  0
   -1.2350   25.1220  -28.6200 C   0  0  0  0  0  0  0  0  0  0  0  0
   -0.6270   24.1120  -27.8920 C   0  0  0  0  0  0  0  0  0  0  0  0
   -1.2940   22.8960  -27.7120 C   0  0  0  0  0  0  0  0  0  0  0  0
   -0.6700   21.8790  -26.9740 C   0  0  0  0  0  0  0  0  0  0  0  0
   -0.8159   19.8649  -26.1966 H   0  0  0  0  0  0  0  0  0  0  0  0
   -3.0772   19.4760  -27.1578 H   0  0  0  0  0  0  0  0  0  0  0  0
   -4.2118   21.2530  -28.4708 H   0  0  0  0  0  0  0  0  0  0  0  0
   -5.1544   25.8366  -29.1757 H   0  0  0  0  0  0  0  0  0  0  0  0
   -8.9794   22.5763  -30.9270 H   0  0  0  0  0  0  0  0  0  0  0  0
  -10.2220   20.8586  -32.2460 H   0  0  0  0  0  0  0  0  0  0  0  0
   -8.9810   19.3030  -33.6240 H   0  0  0  0  0  0  0  0  0  0  0  0
   -6.5686   19.3165  -33.8048 H   0  0  0  0  0  0  0  0  0  0  0  0
   -5.2605   21.0101  -32.5160 H   0  0  0  0  0  0  0  0  0  0  0  0
   -0.7172   26.0814  -28.7666 H   0  0  0  0  0  0  0  0  0  0  0  0
    0.3725   24.2654  -27.4590 H   0  0  0  0  0  0  0  0  0  0  0  0
    0.3304   22.0470  -26.5486 H   0  0  0  0  0  0  0  0  0  0  0  0
  1  2  2  0
  2  3  1  0
  3  4  2  0
  4  5  1  0
  5  6  1  0
  6  7  2  0
  7  8  1  0
  8  9  1  0
  9 10  1  0
 10 11  2  0
 11 12  1  0
 12 13  2  0
 13 14  1  0
 14 15  2  0
  9 16  2  0
  5 17  2  0
 17 18  1  0
 18 19  2  0
 19 20  1  0
 20 21  2  0
 21  1  1  0
 20  4  1  0
 16  6  1  0
 15 10  1  0
  1 22  1  0
  2 23  1  0
  3 24  1  0
  7 25  1  0
 11 26  1  0
 12 27  1  0
 13 28  1  0
 14 29  1  0
 15 30  1  0
 18 31  1  0
 19 32  1  0
 21 33  1  0
M  CHG  1  13   1
M  END
>  <UniqueID>  (11) 
11

>  <SMILES>  (11) 
c1ccc2c(-c3csc(-c4cc[nH+]cc4)n3)nccc2c1

>  <Energy>  (11) 
80.94992766660211

>  <Genealogy>  (11) 
c1ccc2c(-c3csc(-c4cc[nH+]cc4)n3)nccc2c1 (protonated)
c1ccc2c(-c3csc(-c4cc[nH+]cc4)n3)nccc2c1 (3D coordinates assigned)
c1ccc2c(-c3csc(-c4cc[nH+]cc4)n3)nccc2c1 (optimized conformer: 80.94992766660211 kcal/mol)

>  <smiles>  (11) 
c1ccc2c(-c3csc(-c4ccncc4)n3)nccc2c1

>  <score_type>  (11) 
oracle

>  <origin>  (11) 
adg

>  <m_score__min__energy>  (11) 
-7.6100000000000003

>  <m_primary>  (11) 
energy

$$$$
11:0
     RDKit          3D

 50 53  0  0  0  0  0  0  0  0999 V2000
   -6.4860   25.7280  -29.3590 C   0  0  0  0  0  0  0  0  0  0  0  0
   -6.0610   24.3530  -29.6870 N   0  0  2  0  0  0  0  0  0  0  0  0
   -4.6690   24.3500  -30.1100 C   0  0  0  0  0  0  0  0  0  0  0  0
   -4.2550   25.2400  -30.8410 O   0  0  0  0  0  0  0  0  0  0  0  0
   -3.7030   23.3000  -29.5700 C   0  0  2  0  0  0  0  0  0  0  0  0
   -4.0220   22.8090  -28.1230 C   0  0  1  0  0  0  0  0  0  0  0  0
   -3.1120   21.5980  -27.8040 C   0  0  0  0  0  0  0  0  0  0  0  0
   -1.6270   22.0250  -27.8830 C   0  0  2  0  0  0  0  0  0  0  0  0
   -1.3580   23.1440  -26.8530 C   0  0  0  0  0  0  0  0  0  0  0  0
   -2.2640   24.3560  -27.1620 C   0  0  2  0  0  0  0  0  0  0  0  0
   -3.7420   23.9210  -27.0790 C   0  0  0  0  0  0  0  0  0  0  0  0
   -1.9640   24.8810  -28.5820 C   0  0  0  0  0  0  0  0  0  0  0  0
   -2.2200   23.7630  -29.6220 C   0  0  1  0  0  0  0  0  0  0  0  0
   -1.3090   22.5540  -29.3000 C   0  0  0  0  0  0  0  0  0  0  0  0
   -6.9430   23.6440  -30.6640 C   0  0  0  0  0  0  0  0  0  0  0  0
   -7.6100   22.3510  -30.1080 C   0  0  0  0  0  0  0  0  0  0  0  0
   -8.2180   21.5200  -31.2420 C   0  0  0  0  0  0  0  0  0  0  0  0
   -7.1470   21.0390  -32.2430 C   0  0  0  0  0  0  0  0  0  0  0  0
   -5.8910   21.9310  -32.2760 C   0  0  0  0  0  0  0  0  0  0  0  0
   -6.2360   23.4070  -32.0360 C   0  0  0  0  0  0  0  0  0  0  0  0
   -6.5235   25.8494  -28.2664 H   0  0  0  0  0  0  0  0  0  0  0  0
   -5.7675   26.4449  -29.7831 H   0  0  0  0  0  0  0  0  0  0  0  0
   -7.4837   25.9144  -29.7831 H   0  0  0  0  0  0  0  0  0  0  0  0
   -6.1140   23.8180  -28.7880 H   0  0  0  0  0  0  0  0  0  0  0  0
   -3.8503   22.4502  -30.2527 H   0  0  0  0  0  0  0  0  0  0  0  0
   -5.0864   22.5362  -28.0708 H   0  0  0  0  0  0  0  0  0  0  0  0
   -3.3334   21.2314  -26.7908 H   0  0  0  0  0  0  0  0  0  0  0  0
   -3.3002   20.7988  -28.5360 H   0  0  0  0  0  0  0  0  0  0  0  0
   -0.9895   21.1556  -27.6644 H   0  0  0  0  0  0  0  0  0  0  0  0
   -1.5762   22.7714  -25.8413 H   0  0  0  0  0  0  0  0  0  0  0  0
   -0.3031   23.4502  -26.9110 H   0  0  0  0  0  0  0  0  0  0  0  0
   -2.0697   25.1540  -26.4303 H   0  0  0  0  0  0  0  0  0  0  0  0
   -3.9533   23.5364  -26.0703 H   0  0  0  0  0  0  0  0  0  0  0  0
   -4.3876   24.7866  -27.2886 H   0  0  0  0  0  0  0  0  0  0  0  0
   -2.6179   25.7383  -28.7996 H   0  0  0  0  0  0  0  0  0  0  0  0
   -0.9107   25.1933  -28.6377 H   0  0  0  0  0  0  0  0  0  0  0  0
   -2.0001   24.1553  -30.6259 H   0  0  0  0  0  0  0  0  0  0  0  0
   -1.4862   21.7563  -30.0364 H   0  0  0  0  0  0  0  0  0  0  0  0
   -0.2561   22.8695  -29.3433 H   0  0  0  0  0  0  0  0  0  0  0  0
   -7.7796   24.3353  -30.8435 H   0  0  0  0  0  0  0  0  0  0  0  0
   -6.8507   21.7491  -29.5873 H   0  0  0  0  0  0  0  0  0  0  0  0
   -8.4129   22.6398  -29.4138 H   0  0  0  0  0  0  0  0  0  0  0  0
   -8.7199   20.6420  -30.8094 H   0  0  0  0  0  0  0  0  0  0  0  0
   -8.9307   22.1571  -31.7863 H   0  0  0  0  0  0  0  0  0  0  0  0
   -6.8426   20.0195  -31.9639 H   0  0  0  0  0  0  0  0  0  0  0  0
   -7.5992   21.0802  -33.2449 H   0  0  0  0  0  0  0  0  0  0  0  0
   -5.1951   21.5958  -31.4928 H   0  0  0  0  0  0  0  0  0  0  0  0
   -5.4346   21.8435  -33.2730 H   0  0  0  0  0  0  0  0  0  0  0  0
   -5.3061   23.9942  -32.0590 H   0  0  0  0  0  0  0  0  0  0  0  0
   -6.9330   23.7188  -32.8278 H   0  0  0  0  0  0  0  0  0  0  0  0
  1  2  1  0
  2  3  1  0
  3  4  2  0
  3  5  1  0
  5  6  1  0
  6  7  1  0
  7  8  1  0
  8  9  1  0
  9 10  1  0
 10 11  1  0
 10 12  1  0
 12 13  1  0
 13 14  1  0
  2 15  1  0
 15 16  1  0
 16 17  1  0
 17 18  1  0
 18 19  1  0
 19 20  1  0
 13  5  1  0
 20 15  1  0
 11  6  1  0
 14  8  1  0
  1 21  1  0
  1 22  1  0
  1 23  1  0
  2 24  1  1
  5 25  1  6
  6 26  1  6
  7 27  1  0
  7 28  1  0
  8 29  1  1
  9 30  1  0
  9 31  1  0
 10 32  1  1
 11 33  1  0
 11 34  1  0
 12 35  1  0
 12 36  1  0
 13 37  1  6
 14 38  1  0
 14 39  1  0
 15 40  1  0
 16 41  1  0
 16 42  1  0
 17 43  1  0
 17 44  1  0
 18 45  1  0
 18 46  1  0
 19 47  1  0
 19 48  1  0
 20 49  1  0
 20 50  1  0
M  CHG  1   2   1
M  END
>  <UniqueID>  (12) 
12

>  <SMILES>  (12) 
C[N@H+](C(=O)C1C2CC3CC(C2)CC1C3)C1CCCCC1

>  <Energy>  (12) 
59.972624044332576

>  <Genealogy>  (12) 
C[NH+](C(=O)C1C2CC3CC(C2)CC1C3)C1CCCCC1 (protonated)
C[N@H+](C(=O)C1C2CC3CC(C2)CC1C3)C1CCCCC1 (chirality)
C[N@H+](C(=O)C1C2CC3CC(C2)CC1C3)C1CCCCC1 (3D coordinates assigned)
C[N@H+](C(=O)C1C2CC3CC(C2)CC1C3)C1CCCCC1 (nonaromatic ring conformer: 59.972624044332576 kcal/mol)

>  <smiles>  (12) 
CN(C(=O)C1C2CC3CC(C2)CC1C3)C1CCCCC1

>  <score_type>  (12) 
oracle

>  <origin>  (12) 
adg

>  <m_score__min__energy>  (12) 
-8.3499999999999996

>  <m_primary>  (12) 
energy

$$$$
12:0
     RDKit          3D

 54 58  0  0  0  0  0  0  0  0999 V2000
   -6.5250   25.2360  -29.8240 C   0  0  0  0  0  0  0  0  0  0  0  0
   -5.8890   24.0870  -30.5520 C   0  0  0  0  0  0  0  0  0  0  0  0
   -4.5320   23.9030  -30.7540 C   0  0  0  0  0  0  0  0  0  0  0  0
   -3.4910   24.8240  -30.4150 N   0  0  0  0  0  0  0  0  0  0  0  0
   -2.5460   24.6530  -29.3500 C   0  0  0  0  0  0  0  0  0  0  0  0
   -1.8890   25.6530  -28.9620 O   0  0  0  0  0  0  0  0  0  0  0  0
   -2.3770   23.3590  -28.6540 C   0  0  0  0  0  0  0  0  0  0  0  0
   -2.6590   23.0380  -27.3240 C   0  0  0  0  0  0  0  0  0  0  0  0
   -2.3000   21.7540  -27.0720 N   0  0  0  0  0  0  0  0  0  0  0  0
   -1.8010   21.2630  -28.1970 N   0  0  0  0  0  0  0  0  0  0  0  0
   -1.2690   20.0270  -28.3960 C   0  0  0  0  0  0  0  0  0  0  0  0
   -1.1750   19.0290  -27.2740 C   0  0  0  0  0  0  0  0  0  0  0  0
   -0.4210   17.9470  -27.6860 F   0  0  0  0  0  0  0  0  0  0  0  0
   -2.4340   18.5930  -26.9030 F   0  0  0  0  0  0  0  0  0  0  0  0
   -0.6980   19.7600  -29.6550 C   0  0  0  0  0  0  0  0  0  0  0  0
   -0.7350   20.7600  -30.6620 C   0  0  0  0  0  0  0  0  0  0  0  0
   -0.1150   20.5470  -31.9960 C   0  0  0  0  0  0  0  0  0  0  0  0
    1.0400   19.7530  -32.1550 C   0  0  0  0  0  0  0  0  0  0  0  0
    1.6110   19.5830  -33.4200 C   0  0  0  0  0  0  0  0  0  0  0  0
    1.0390   20.1950  -34.5390 C   0  0  0  0  0  0  0  0  0  0  0  0
   -0.1150   20.9700  -34.3970 C   0  0  0  0  0  0  0  0  0  0  0  0
   -0.6910   21.1430  -33.1380 C   0  0  0  0  0  0  0  0  0  0  0  0
   -1.2990   21.9750  -30.3790 N   0  0  0  0  0  0  0  0  0  0  0  0
   -1.8250   22.1980  -29.1520 C   0  0  0  0  0  0  0  0  0  0  0  0
   -4.4280   22.7030  -31.4260 C   0  0  0  0  0  0  0  0  0  0  0  0
   -3.3620   22.1710  -31.8400 O   0  0  0  0  0  0  0  0  0  0  0  0
   -5.6580   22.1760  -31.5870 N   0  0  0  0  0  0  0  0  0  0  0  0
   -5.9600   20.9260  -32.2280 C   0  0  0  0  0  0  0  0  0  0  0  0
   -6.9450   20.0780  -31.6930 C   0  0  0  0  0  0  0  0  0  0  0  0
   -7.2340   18.8560  -32.3100 C   0  0  0  0  0  0  0  0  0  0  0  0
   -6.5500   18.4820  -33.4700 C   0  0  0  0  0  0  0  0  0  0  0  0
   -5.5770   19.3290  -34.0160 C   0  0  0  0  0  0  0  0  0  0  0  0
   -5.2820   20.5470  -33.3970 C   0  0  0  0  0  0  0  0  0  0  0  0
   -6.5490   23.0180  -31.0640 N   0  0  0  0  0  0  0  0  0  0  0  0
   -7.9970   22.7970  -31.0350 C   0  0  0  0  0  0  0  0  0  0  0  0
   -6.4368   25.0767  -28.7392 H   0  0  0  0  0  0  0  0  0  0  0  0
   -6.0163   26.1715  -30.0998 H   0  0  0  0  0  0  0  0  0  0  0  0
   -7.5879   25.3016  -30.0998 H   0  0  0  0  0  0  0  0  0  0  0  0
   -3.1059   23.7245  -26.5898 H   0  0  0  0  0  0  0  0  0  0  0  0
   -0.6988   19.5141  -26.4091 H   0  0  0  0  0  0  0  0  0  0  0  0
   -0.2279   18.7861  -29.8564 H   0  0  0  0  0  0  0  0  0  0  0  0
    1.4937   19.2652  -31.2796 H   0  0  0  0  0  0  0  0  0  0  0  0
    2.5139   18.9652  -33.5350 H   0  0  0  0  0  0  0  0  0  0  0  0
    1.4971   20.0666  -35.5308 H   0  0  0  0  0  0  0  0  0  0  0  0
   -0.5700   21.4444  -35.2790 H   0  0  0  0  0  0  0  0  0  0  0  0
   -1.6027   21.7497  -33.0347 H   0  0  0  0  0  0  0  0  0  0  0  0
   -7.4908   20.3762  -30.7857 H   0  0  0  0  0  0  0  0  0  0  0  0
   -7.9985   18.1905  -31.8827 H   0  0  0  0  0  0  0  0  0  0  0  0
   -6.7761   17.5209  -33.9550 H   0  0  0  0  0  0  0  0  0  0  0  0
   -5.0446   19.0353  -34.9327 H   0  0  0  0  0  0  0  0  0  0  0  0
   -4.5168   21.2100  -33.8270 H   0  0  0  0  0  0  0  0  0  0  0  0
   -8.3391   22.7448  -29.9909 H   0  0  0  0  0  0  0  0  0  0  0  0
   -8.5051   23.6280  -31.5462 H   0  0  0  0  0  0  0  0  0  0  0  0
   -8.2340   21.8523  -31.5462 H   0  0  0  0  0  0  0  0  0  0  0  0
  1  2  1  0
  2  3  2  0
  3  4  1  0
  4  5  1  0
  5  6  2  0
  5  7  1  0
  7  8  1  0
  8  9  2  0
  9 10  1  0
 10 11  1  0
 11 12  1  0
 12 13  1  0
 12 14  1  0
 11 15  2  0
 15 16  1  0
 16 17  1  0
 17 18  2  0
 18 19  1  0
 19 20  2  0
 20 21  1  0
 21 22  2  0
 16 23  2  0
 23 24  1  0
  3 25  1  0
 25 26  2  0
 25 27  1  0
 27 28  1  0
 28 29  2  0
 29 30  1  0
 30 31  2  0
 31 32  1  0
 32 33  2  0
 27 34  1  0
 34 35  1  0
 34  2  1  0
 24  7  2  0
 33 28  1  0
 24 10  1  0
 22 17  1  0
  1 36  1  0
  1 37  1  0
  1 38  1  0
  8 39  1  0
 12 40  1  0
 15 41  1  0
 18 42  1  0
 19 43  1  0
 20 44  1  0
 21 45  1  0
 22 46  1  0
 29 47  1  0
 30 48  1  0
 31 49  1  0
 32 50  1  0
 33 51  1  0
 35 52  1  0
 35 53  1  0
 35 54  1  0
M  CHG  1   4  -1
M  END
>  <UniqueID>  (13) 
13

>  <SMILES>  (13) 
Cc1c([N-]C(=O)c2cnn3c(C(F)F)cc(-c4ccccc4)nc23)c(=O)n(-c2ccccc2)n1C

>  <Energy>  (13) 
148.2998711403336

>  <Genealogy>  (13) 
Cc1c([N-]C(=O)c2cnn3c(C(F)F)cc(-c4ccccc4)nc23)c(=O)n(-c2ccccc2)n1C (protonated)
Cc1c([N-]C(=O)c2cnn3c(C(F)F)cc(-c4ccccc4)nc23)c(=O)n(-c2ccccc2)n1C (3D coordinates assigned)
Cc1c([N-]C(=O)c2cnn3c(C(F)F)cc(-c4ccccc4)nc23)c(=O)n(-c2ccccc2)n1C (optimized conformer: 148.2998711403336 kcal/mol)

>  <smiles>  (13) 
Cc1c(NC(=O)c2cnn3c(C(F)F)cc(-c4ccccc4)nc23)c(=O)n(-c2ccccc2)n1C

>  <score_type>  (13) 
oracle

>  <origin>  (13) 
adg

>  <m_score__min__energy>  (13) 
-11.359999999999999

>  <m_primary>  (13) 
energy

$$$$
13:0
     RDKit          3D

 37 39  0  0  0  0  0  0  0  0999 V2000
   -5.7400   18.4460  -34.9700 C   0  0  0  0  0  0  0  0  0  0  0  0
   -6.2360   18.8740  -33.6630 N   0  0  0  0  0  0  0  0  0  0  0  0
   -7.0430   17.9410  -32.8800 C   0  0  0  0  0  0  0  0  0  0  0  0
   -5.5720   19.9600  -32.9950 C   0  0  0  0  0  0  0  0  0  0  0  0
   -4.1730   20.0020  -32.9840 C   0  0  0  0  0  0  0  0  0  0  0  0
   -3.5020   21.0540  -32.3680 C   0  0  0  0  0  0  0  0  0  0  0  0
   -4.2160   22.0800  -31.7480 C   0  0  0  0  0  0  0  0  0  0  0  0
   -5.6260   22.0670  -31.7280 C   0  0  0  0  0  0  0  0  0  0  0  0
   -6.3760   23.0910  -31.0900 C   0  0  0  0  0  0  0  0  0  0  0  0
   -5.6070   24.4500  -30.2440 S   0  0  0  0  0  0  0  0  0  0  0  0
   -4.6300   25.1140  -31.1720 O   0  0  0  0  0  0  0  0  0  0  0  0
   -6.6280   25.4680  -29.8200 O   0  0  0  0  0  0  0  0  0  0  0  0
   -4.7650   23.8800  -28.8370 N   0  0  0  0  0  0  0  0  0  0  0  0
   -3.4760   23.9110  -28.6920 C   0  0  0  0  0  0  0  0  0  0  0  0
   -2.7070   24.8810  -29.2310 N   0  0  0  0  0  0  0  0  0  0  0  0
   -1.3880   24.7080  -28.9530 C   0  0  0  0  0  0  0  0  0  0  0  0
   -1.0960   23.5860  -28.1830 C   0  0  0  0  0  0  0  0  0  0  0  0
   -2.5430   22.7930  -27.8410 S   0  0  0  0  0  0  0  0  0  0  0  0
   -7.7770   23.0280  -31.1020 C   0  0  0  0  0  0  0  0  0  0  0  0
   -8.4380   21.9700  -31.7180 C   0  0  0  0  0  0  0  0  0  0  0  0
   -7.7170   20.9560  -32.3400 C   0  0  0  0  0  0  0  0  0  0  0  0
   -6.3100   20.9900  -32.3620 C   0  0  0  0  0  0  0  0  0  0  0  0
   -4.9137   17.7330  -34.8331 H   0  0  0  0  0  0  0  0  0  0  0  0
   -6.5533   17.9615  -35.5302 H   0  0  0  0  0  0  0  0  0  0  0  0
   -5.3798   19.3215  -35.5302 H   0  0  0  0  0  0  0  0  0  0  0  0
   -6.8819   18.1272  -31.8079 H   0  0  0  0  0  0  0  0  0  0  0  0
   -8.1066   18.0842  -33.1213 H   0  0  0  0  0  0  0  0  0  0  0  0
   -6.7480   16.9091  -33.1213 H   0  0  0  0  0  0  0  0  0  0  0  0
   -3.5993   19.1968  -33.4662 H   0  0  0  0  0  0  0  0  0  0  0  0
   -2.4022   21.0769  -32.3699 H   0  0  0  0  0  0  0  0  0  0  0  0
   -3.6729   22.9083  -31.2694 H   0  0  0  0  0  0  0  0  0  0  0  0
   -3.0790   25.6750  -29.7980 H   0  0  0  0  0  0  0  0  0  0  0  0
   -0.6114   25.4010  -29.3089 H   0  0  0  0  0  0  0  0  0  0  0  0
   -0.0944   23.2714  -27.8546 H   0  0  0  0  0  0  0  0  0  0  0  0
   -8.3606   23.8251  -30.6183 H   0  0  0  0  0  0  0  0  0  0  0  0
   -9.5374   21.9352  -31.7131 H   0  0  0  0  0  0  0  0  0  0  0  0
   -8.2504   20.1213  -32.8183 H   0  0  0  0  0  0  0  0  0  0  0  0
  1  2  1  0
  2  3  1  0
  2  4  1  0
  4  5  2  0
  5  6  1  0
  6  7  2  0
  7  8  1  0
  8  9  2  0
  9 10  1  0
 10 11  2  0
 10 12  2  0
 10 13  1  0
 13 14  2  3
 14 15  1  0
 15 16  1  0
 16 17  2  0
 17 18  1  0
  9 19  1  0
 19 20  2  0
 20 21  1  0
 21 22  2  0
 22  4  1  0
 22  8  1  0
 18 14  1  0
  1 23  1  0
  1 24  1  0
  1 25  1  0
  3 26  1  0
  3 27  1  0
  3 28  1  0
  5 29  1  0
  6 30  1  0
  7 31  1  0
 15 32  1  0
 16 33  1  0
 17 34  1  0
 19 35  1  0
 20 36  1  0
 21 37  1  0
M  END
>  <UniqueID>  (14) 
14

>  <SMILES>  (14) 
CN(C)c1cccc2c(S(=O)(=O)N=c3[nH]ccs3)cccc12

>  <Energy>  (14) 
83.0828435842859

>  <Genealogy>  (14) 
CN(C)c1cccc2c(S(=O)(=O)N=c3[nH]ccs3)cccc12 (3D coordinates assigned)
CN(C)c1cccc2c(S(=O)(=O)N=c3[nH]ccs3)cccc12 (optimized conformer: 83.0828435842859 kcal/mol)

>  <smiles>  (14) 
CN(C)c1cccc2c(S(=O)(=O)N=c3[nH]ccs3)cccc12

>  <score_type>  (14) 
oracle

>  <origin>  (14) 
adg

>  <m_score__min__energy>  (14) 
-9.1500000000000004

>  <m_primary>  (14) 
energy

$$$$
14:0
     RDKit          3D

 56 58  0  0  0  0  0  0  0  0999 V2000
   -6.1430   17.0270  -31.6610 C   0  0  0  0  0  0  0  0  0  0  0  0
   -5.3960   16.1950  -32.7030 C   0  0  0  0  0  0  0  0  0  0  0  0
   -6.0030   16.3010  -34.1140 C   0  0  0  0  0  0  0  0  0  0  0  0
   -5.4710   17.4880  -34.9340 C   0  0  0  0  0  0  0  0  0  0  0  0
   -5.3580   18.7430  -34.1260 C   0  0  0  0  0  0  0  0  0  0  0  0
   -6.4020   19.4300  -33.6290 N   0  0  0  0  0  0  0  0  0  0  0  0
   -5.7970   20.4520  -32.9950 C   0  0  0  0  0  0  0  0  0  0  0  0
   -6.5000   21.4800  -32.2810 N   0  0  0  0  0  0  0  0  0  0  0  0
   -5.8610   22.5060  -31.4770 C   0  0  0  0  0  0  0  0  0  0  0  0
   -6.9980   23.4620  -31.0360 C   0  0  2  0  0  0  0  0  0  0  0  0
   -6.8670   23.9270  -29.5720 C   0  0  0  0  0  0  0  0  0  0  0  0
   -6.0600   25.2310  -29.4560 C   0  0  0  0  0  0  0  0  0  0  0  0
   -4.8420   25.2540  -30.3510 C   0  0  0  0  0  0  0  0  0  0  0  0
   -4.9950   25.2890  -31.6020 O   0  0  0  0  0  0  0  0  0  0  0  0
   -3.4990   25.2740  -29.8400 N   0  0  0  0  0  0  0  0  0  0  0  0
   -2.6840   24.2100  -29.2440 C   0  0  0  0  0  0  0  0  0  0  0  0
   -3.1630   23.8040  -27.8250 C   0  0  0  0  0  0  0  0  0  0  0  0
   -3.5930   22.3320  -27.7360 C   0  0  0  0  0  0  0  0  0  0  0  0
   -2.4900   21.3820  -28.2370 C   0  0  0  0  0  0  0  0  0  0  0  0
   -1.7670   21.8730  -29.5120 C   0  0  0  0  0  0  0  0  0  0  0  0
   -2.5020   23.0240  -30.2110 C   0  0  0  0  0  0  0  0  0  0  0  0
   -8.3210   22.7090  -31.2880 C   0  0  0  0  0  0  0  0  0  0  0  0
   -7.9060   21.5930  -32.1610 C   0  0  0  0  0  0  0  0  0  0  0  0
   -8.7170   20.8060  -32.7190 O   0  0  0  0  0  0  0  0  0  0  0  0
   -4.4550   20.3940  -33.1060 N   0  0  0  0  0  0  0  0  0  0  0  0
   -4.2240   19.3250  -33.8120 O   0  0  0  0  0  0  0  0  0  0  0  0
   -5.8498   16.7005  -30.6523 H   0  0  0  0  0  0  0  0  0  0  0  0
   -5.8901   18.0897  -31.7904 H   0  0  0  0  0  0  0  0  0  0  0  0
   -7.2267   16.8896  -31.7904 H   0  0  0  0  0  0  0  0  0  0  0  0
   -4.3529   16.5416  -32.7444 H   0  0  0  0  0  0  0  0  0  0  0  0
   -5.4701   15.1419  -32.3940 H   0  0  0  0  0  0  0  0  0  0  0  0
   -5.7751   15.3734  -34.6596 H   0  0  0  0  0  0  0  0  0  0  0  0
   -7.0837   16.4609  -33.9853 H   0  0  0  0  0  0  0  0  0  0  0  0
   -4.4753   17.2290  -35.3231 H   0  0  0  0  0  0  0  0  0  0  0  0
   -6.1878   17.6789  -35.7463 H   0  0  0  0  0  0  0  0  0  0  0  0
   -7.4210   19.2200  -33.7160 H   0  0  0  0  0  0  0  0  0  0  0  0
   -5.3748   22.0572  -30.5982 H   0  0  0  0  0  0  0  0  0  0  0  0
   -5.0805   23.0368  -32.0418 H   0  0  0  0  0  0  0  0  0  0  0  0
   -6.9531   24.3942  -31.6182 H   0  0  0  0  0  0  0  0  0  0  0  0
   -7.8733   24.0934  -29.1600 H   0  0  0  0  0  0  0  0  0  0  0  0
   -6.3342   23.1447  -29.0116 H   0  0  0  0  0  0  0  0  0  0  0  0
   -6.7127   26.0727  -29.7308 H   0  0  0  0  0  0  0  0  0  0  0  0
   -5.7062   25.3075  -28.4172 H   0  0  0  0  0  0  0  0  0  0  0  0
   -1.6772   24.6227  -29.0830 H   0  0  0  0  0  0  0  0  0  0  0  0
   -2.3395   23.9723  -27.1154 H   0  0  0  0  0  0  0  0  0  0  0  0
   -4.0429   24.4193  -27.5857 H   0  0  0  0  0  0  0  0  0  0  0  0
   -3.8213   22.0907  -26.6874 H   0  0  0  0  0  0  0  0  0  0  0  0
   -4.4777   22.1954  -28.3752 H   0  0  0  0  0  0  0  0  0  0  0  0
   -1.7426   21.2682  -27.4380 H   0  0  0  0  0  0  0  0  0  0  0  0
   -2.9818   20.4328  -28.4962 H   0  0  0  0  0  0  0  0  0  0  0  0
   -0.7601   22.2176  -29.2336 H   0  0  0  0  0  0  0  0  0  0  0  0
   -1.7314   21.0288  -30.2163 H   0  0  0  0  0  0  0  0  0  0  0  0
   -1.9158   23.3528  -31.0818 H   0  0  0  0  0  0  0  0  0  0  0  0
   -3.4926   22.6713  -30.5340 H   0  0  0  0  0  0  0  0  0  0  0  0
   -8.7494   22.3360  -30.3460 H   0  0  0  0  0  0  0  0  0  0  0  0
   -9.1020   23.3418  -31.7347 H   0  0  0  0  0  0  0  0  0  0  0  0
  1  2  1  0
  2  3  1  0
  3  4  1  0
  4  5  1  0
  5  6  2  0
  6  7  1  0
  7  8  1  0
  8  9  1  0
  9 10  1  0
 10 11  1  0
 11 12  1  0
 12 13  1  0
 13 14  2  0
 13 15  1  0
 15 16  1  0
 16 17  1  0
 17 18  1  0
 18 19  1  0
 19 20  1  0
 20 21  1  0
 10 22  1  0
 22 23  1  0
 23 24  2  0
  7 25  2  0
 25 26  1  0
 26  5  1  0
 23  8  1  0
 21 16  1  0
  1 27  1  0
  1 28  1  0
  1 29  1  0
  2 30  1  0
  2 31  1  0
  3 32  1  0
  3 33  1  0
  4 34  1  0
  4 35  1  0
  6 36  1  0
  9 37  1  0
  9 38  1  0
 10 39  1  6
 11 40  1  0
 11 41  1  0
 12 42  1  0
 12 43  1  0
 16 44  1  0
 17 45  1  0
 17 46  1  0
 18 47  1  0
 18 48  1  0
 19 49  1  0
 19 50  1  0
 20 51  1  0
 20 52  1  0
 21 53  1  0
 21 54  1  0
 22 55  1  0
 22 56  1  0
M  CHG  2   6   1  15  -1
M  END
>  <UniqueID>  (15) 
15

>  <SMILES>  (15) 
CCCCc1[nH+]c(N2C[C@H](CCC(=O)[N-]C3CCCCC3)CC2=O)no1

>  <Energy>  (15) 
94.21062280042743

>  <Genealogy>  (15) 
CCCCc1[nH+]c(N2CC(CCC(=O)[N-]C3CCCCC3)CC2=O)no1 (protonated)
CCCCc1[nH+]c(N2C[C@H](CCC(=O)[N-]C3CCCCC3)CC2=O)no1 (chirality)
CCCCc1[nH+]c(N2C[C@H](CCC(=O)[N-]C3CCCCC3)CC2=O)no1 (3D coordinates assigned)
CCCCc1[nH+]c(N2C[C@H](CCC(=O)[N-]C3CCCCC3)CC2=O)no1 (nonaromatic ring conformer: 94.21062280042743 kcal/mol)

>  <smiles>  (15) 
CCCCc1nc(N2CC(CCC(=O)NC3CCCCC3)CC2=O)no1

>  <score_type>  (15) 
oracle

>  <origin>  (15) 
adg

>  <m_score__min__energy>  (15) 
-10.43

>  <m_primary>  (15) 
energy

$$$$
15:0
     RDKit          3D

 43 45  0  0  0  0  0  0  0  0999 V2000
   -6.1080   25.6540  -29.5450 C   0  0  0  0  0  0  0  0  0  0  0  0
   -5.4390   24.7290  -30.5190 C   0  0  0  0  0  0  0  0  0  0  0  0
   -4.2110   24.8970  -30.7550 O   0  0  0  0  0  0  0  0  0  0  0  0
   -6.1660   23.6610  -31.1730 N   0  0  0  0  0  0  0  0  0  0  0  0
   -7.3160   23.0420  -30.4770 C   0  0  0  0  0  0  0  0  0  0  0  0
   -7.8760   21.8400  -31.1890 C   0  0  0  0  0  0  0  0  0  0  0  0
   -9.1980   21.5900  -31.3000 N   0  0  0  0  0  0  0  0  0  0  0  0
   -9.2550   20.4180  -31.9700 C   0  0  0  0  0  0  0  0  0  0  0  0
   -7.9790   19.9760  -32.2440 C   0  0  0  0  0  0  0  0  0  0  0  0
   -7.1170   20.8740  -31.7390 N   0  0  0  0  0  0  0  0  0  0  0  0
   -5.6590   20.8460  -31.8020 C   0  0  0  0  0  0  0  0  0  0  0  0
   -5.1330   21.9570  -32.7390 C   0  0  2  0  0  0  0  0  0  0  0  0
   -3.5930   22.0740  -32.6900 C   0  0  0  0  0  0  0  0  0  0  0  0
   -3.0760   22.4010  -31.3590 N   0  0  0  0  0  0  0  0  0  0  0  0
   -1.7210   22.1020  -31.0000 C   0  0  0  0  0  0  0  0  0  0  0  0
   -0.9030   21.7070  -31.8770 O   0  0  0  0  0  0  0  0  0  0  0  0
   -1.2680   22.2460  -29.5810 C   0  0  0  0  0  0  0  0  0  0  0  0
   -2.3160   22.8580  -28.7710 N   0  0  0  0  0  0  0  0  0  0  0  0
   -2.2450   24.0510  -28.1550 C   0  0  0  0  0  0  0  0  0  0  0  0
   -3.4420   24.2770  -27.5140 C   0  0  0  0  0  0  0  0  0  0  0  0
   -4.2030   23.1560  -27.7830 C   0  0  0  0  0  0  0  0  0  0  0  0
   -3.4980   22.3050  -28.5530 N   0  0  0  0  0  0  0  0  0  0  0  0
   -5.8540   23.3240  -32.5790 C   0  0  0  0  0  0  0  0  0  0  0  0
   -5.8770   25.3346  -28.5181 H   0  0  0  0  0  0  0  0  0  0  0  0
   -5.7410   26.6791  -29.7015 H   0  0  0  0  0  0  0  0  0  0  0  0
   -7.1965   25.6264  -29.7015 H   0  0  0  0  0  0  0  0  0  0  0  0
   -6.9888   22.7307  -29.4740 H   0  0  0  0  0  0  0  0  0  0  0  0
   -8.1154   23.7968  -30.4411 H   0  0  0  0  0  0  0  0  0  0  0  0
  -10.1804   19.8955  -32.2539 H   0  0  0  0  0  0  0  0  0  0  0  0
   -7.7137   19.0530  -32.7803 H   0  0  0  0  0  0  0  0  0  0  0  0
   -5.2506   21.0012  -30.7925 H   0  0  0  0  0  0  0  0  0  0  0  0
   -5.3400   19.8697  -32.1959 H   0  0  0  0  0  0  0  0  0  0  0  0
   -5.3970   21.6320  -33.7562 H   0  0  0  0  0  0  0  0  0  0  0  0
   -3.1602   21.1133  -33.0057 H   0  0  0  0  0  0  0  0  0  0  0  0
   -3.3087   22.8987  -33.3602 H   0  0  0  0  0  0  0  0  0  0  0  0
   -3.6900   22.8360  -30.6370 H   0  0  0  0  0  0  0  0  0  0  0  0
   -1.0296   21.2522  -29.1742 H   0  0  0  0  0  0  0  0  0  0  0  0
   -0.3762   22.8894  -29.5552 H   0  0  0  0  0  0  0  0  0  0  0  0
   -1.3793   24.7296  -28.1621 H   0  0  0  0  0  0  0  0  0  0  0  0
   -3.7292   25.1564  -26.9188 H   0  0  0  0  0  0  0  0  0  0  0  0
   -5.2283   22.9845  -27.4233 H   0  0  0  0  0  0  0  0  0  0  0  0
   -5.2051   24.1110  -32.9907 H   0  0  0  0  0  0  0  0  0  0  0  0
   -6.8111   23.2519  -33.1164 H   0  0  0  0  0  0  0  0  0  0  0  0
  1  2  1  0
  2  3  2  0
  2  4  1  0
  4  5  1  0
  5  6  1  0
  6  7  2  0
  7  8  1  0
  8  9  2  0
  9 10  1  0
 10 11  1  0
 11 12  1  0
 12 13  1  0
 13 14  1  0
 14 15  1  0
 15 16  2  0
 15 17  1  0
 17 18  1  0
 18 19  1  0
 19 20  2  0
 20 21  1  0
 21 22  2  0
 12 23  1  0
 23  4  1  0
 10  6  1  0
 22 18  1  0
  1 24  1  0
  1 25  1  0
  1 26  1  0
  5 27  1  0
  5 28  1  0
  8 29  1  0
  9 30  1  0
 11 31  1  0
 11 32  1  0
 12 33  1  6
 13 34  1  0
 13 35  1  0
 14 36  1  0
 17 37  1  0
 17 38  1  0
 19 39  1  0
 20 40  1  0
 21 41  1  0
 23 42  1  0
 23 43  1  0
M  END
>  <UniqueID>  (16) 
16

>  <SMILES>  (16) 
CC(=O)N1Cc2nccn2C[C@H](CNC(=O)Cn2cccn2)C1

>  <Energy>  (16) 
100.43979555118241

>  <Genealogy>  (16) 
CC(=O)N1Cc2nccn2C[C@H](CNC(=O)Cn2cccn2)C1 (chirality)
CC(=O)N1Cc2nccn2C[C@H](CNC(=O)Cn2cccn2)C1 (3D coordinates assigned)
CC(=O)N1Cc2nccn2C[C@H](CNC(=O)Cn2cccn2)C1 (nonaromatic ring conformer: 100.43979555118241 kcal/mol)

>  <smiles>  (16) 
CC(=O)N1Cc2nccn2CC(CNC(=O)Cn2cccn2)C1

>  <score_type>  (16) 
oracle

>  <origin>  (16) 
adg

>  <m_score__min__energy>  (16) 
-5.4199999999999999

>  <m_primary>  (16) 
energy

$$$$
16:0
     RDKit          3D

 39 41  0  0  0  0  0  0  0  0999 V2000
   -2.6350   24.5090  -29.3310 C   0  0  0  0  0  0  0  0  0  0  0  0
   -3.4870   24.8340  -30.4260 O   0  0  0  0  0  0  0  0  0  0  0  0
   -4.5470   24.0320  -30.8760 C   0  0  0  0  0  0  0  0  0  0  0  0
   -4.3350   22.7560  -31.4310 C   0  0  0  0  0  0  0  0  0  0  0  0
   -5.4190   21.9770  -31.8580 C   0  0  0  0  0  0  0  0  0  0  0  0
   -6.7230   22.4810  -31.7640 C   0  0  0  0  0  0  0  0  0  0  0  0
   -6.9380   23.7550  -31.2150 C   0  0  0  0  0  0  0  0  0  0  0  0
   -5.8530   24.5330  -30.7660 C   0  0  0  0  0  0  0  0  0  0  0  0
   -6.0320   25.8090  -30.2060 O   0  0  0  0  0  0  0  0  0  0  0  0
   -6.4850   26.0520  -28.8780 C   0  0  0  0  0  0  0  0  0  0  0  0
   -7.8470   21.6520  -32.2450 C   0  0  0  0  0  0  0  0  0  0  0  0
   -9.0000   22.1530  -32.3540 O   0  0  0  0  0  0  0  0  0  0  0  0
   -7.6080   20.2190  -32.6810 C   0  0  2  0  0  0  0  0  0  0  0  0
   -8.7650   19.3120  -32.1800 C   0  0  0  0  0  0  0  0  0  0  0  0
   -8.3350   17.8510  -31.9730 C   0  0  0  0  0  0  0  0  0  0  0  0
   -7.2290   17.4610  -32.9500 C   0  0  0  0  0  0  0  0  0  0  0  0
   -5.9910   18.3700  -32.7980 C   0  0  0  0  0  0  0  0  0  0  0  0
   -6.2960   19.7010  -32.2050 N   0  0  1  0  0  0  0  0  0  0  0  0
   -5.1920   20.6380  -32.5100 C   0  0  0  0  0  0  0  0  0  0  0  0
   -3.1604   24.7094  -28.3856 H   0  0  0  0  0  0  0  0  0  0  0  0
   -2.3636   23.4442  -29.3811 H   0  0  0  0  0  0  0  0  0  0  0  0
   -1.7234   25.1225  -29.3811 H   0  0  0  0  0  0  0  0  0  0  0  0
   -3.3108   22.3673  -31.5304 H   0  0  0  0  0  0  0  0  0  0  0  0
   -7.9619   24.1489  -31.1348 H   0  0  0  0  0  0  0  0  0  0  0  0
   -5.7494   25.6574  -28.1617 H   0  0  0  0  0  0  0  0  0  0  0  0
   -6.6032   27.1346  -28.7232 H   0  0  0  0  0  0  0  0  0  0  0  0
   -7.4523   25.5517  -28.7232 H   0  0  0  0  0  0  0  0  0  0  0  0
   -7.5829   20.2038  -33.7806 H   0  0  0  0  0  0  0  0  0  0  0  0
   -9.1319   19.7087  -31.2219 H   0  0  0  0  0  0  0  0  0  0  0  0
   -9.5473   19.3187  -32.9532 H   0  0  0  0  0  0  0  0  0  0  0  0
   -7.9659   17.7273  -30.9442 H   0  0  0  0  0  0  0  0  0  0  0  0
   -9.2047   17.2017  -32.1519 H   0  0  0  0  0  0  0  0  0  0  0  0
   -6.9330   16.4193  -32.7570 H   0  0  0  0  0  0  0  0  0  0  0  0
   -7.6169   17.5757  -33.9729 H   0  0  0  0  0  0  0  0  0  0  0  0
   -5.2628   17.8598  -32.1504 H   0  0  0  0  0  0  0  0  0  0  0  0
   -5.5983   18.5507  -33.8095 H   0  0  0  0  0  0  0  0  0  0  0  0
   -6.3370   19.5890  -31.1620 H   0  0  0  0  0  0  0  0  0  0  0  0
   -4.2478   20.2133  -32.1384 H   0  0  0  0  0  0  0  0  0  0  0  0
   -5.1492   20.7835  -33.5995 H   0  0  0  0  0  0  0  0  0  0  0  0
  1  2  1  0
  2  3  1  0
  3  4  2  0
  4  5  1  0
  5  6  2  0
  6  7  1  0
  7  8  2  0
  8  9  1  0
  9 10  1  0
  6 11  1  0
 11 12  2  0
 11 13  1  0
 13 14  1  0
 14 15  1  0
 15 16  1  0
 16 17  1  0
 17 18  1  0
 18 19  1  0
  8  3  1  0
 18 13  1  0
 19  5  1  0
  1 20  1  0
  1 21  1  0
  1 22  1  0
  4 23  1  0
  7 24  1  0
 10 25  1  0
 10 26  1  0
 10 27  1  0
 13 28  1  6
 14 29  1  0
 14 30  1  0
 15 31  1  0
 15 32  1  0
 16 33  1  0
 16 34  1  0
 17 35  1  0
 17 36  1  0
 18 37  1  1
 19 38  1  0
 19 39  1  0
M  CHG  1  18   1
M  END
>  <UniqueID>  (17) 
17

>  <SMILES>  (17) 
COc1cc2c(cc1OC)C(=O)[C@@H]1CCCC[N@H+]1C2

>  <Energy>  (17) 
49.86865111440016

>  <Genealogy>  (17) 
COc1cc2c(cc1OC)C(=O)C1CCCC[NH+]1C2 (protonated)
COc1cc2c(cc1OC)C(=O)[C@@H]1CCCC[N@H+]1C2 (chirality)
COc1cc2c(cc1OC)C(=O)[C@@H]1CCCC[N@H+]1C2 (3D coordinates assigned)
COc1cc2c(cc1OC)C(=O)[C@@H]1CCCC[N@H+]1C2 (nonaromatic ring conformer: 49.86865111440016 kcal/mol)

>  <smiles>  (17) 
COc1cc2c(cc1OC)C(=O)C1CCCCN1C2

>  <score_type>  (17) 
oracle

>  <origin>  (17) 
adg

>  <m_score__min__energy>  (17) 
-7.04

>  <m_primary>  (17) 
energy

$$$$
17:0
     RDKit          3D

 29 30  0  0  0  0  0  0  0  0999 V2000
   -1.5630   21.4140  -26.7310 C   0  0  0  0  0  0  0  0  0  0  0  0
   -2.0830   22.4460  -27.6880 C   0  0  0  0  0  0  0  0  0  0  0  0
   -1.2460   23.4760  -28.1380 C   0  0  0  0  0  0  0  0  0  0  0  0
   -1.7230   24.4240  -29.0450 C   0  0  0  0  0  0  0  0  0  0  0  0
   -3.0330   24.3410  -29.5280 C   0  0  0  0  0  0  0  0  0  0  0  0
   -3.4870   25.2960  -30.4300 O   0  0  0  0  0  0  0  0  0  0  0  0
   -3.8750   23.2930  -29.1140 C   0  0  0  0  0  0  0  0  0  0  0  0
   -5.2270   23.2230  -29.6020 N   0  0  0  0  0  0  0  0  0  0  0  0
   -5.5630   22.9050  -30.9630 C   0  0  0  0  0  0  0  0  0  0  0  0
   -4.7030   23.0640  -31.8720 O   0  0  0  0  0  0  0  0  0  0  0  0
   -6.9240   22.4390  -31.3230 C   0  0  0  0  0  0  0  0  0  0  0  0
   -7.9300   23.3530  -31.6900 C   0  0  0  0  0  0  0  0  0  0  0  0
   -9.2110   22.9020  -32.0210 C   0  0  0  0  0  0  0  0  0  0  0  0
   -9.5070   21.5380  -31.9830 C   0  0  0  0  0  0  0  0  0  0  0  0
   -8.5220   20.6210  -31.6100 C   0  0  0  0  0  0  0  0  0  0  0  0
   -7.2380   21.0670  -31.2780 C   0  0  0  0  0  0  0  0  0  0  0  0
   -3.3920   22.3520  -28.1850 C   0  0  0  0  0  0  0  0  0  0  0  0
   -1.7336   21.7525  -25.6984 H   0  0  0  0  0  0  0  0  0  0  0  0
   -2.0892   20.4623  -26.8965 H   0  0  0  0  0  0  0  0  0  0  0  0
   -0.4850   21.2706  -26.8965 H   0  0  0  0  0  0  0  0  0  0  0  0
   -0.2094   23.5377  -27.7752 H   0  0  0  0  0  0  0  0  0  0  0  0
   -1.0659   25.2396  -29.3812 H   0  0  0  0  0  0  0  0  0  0  0  0
   -5.9980   23.5200  -28.9640 H   0  0  0  0  0  0  0  0  0  0  0  0
   -7.7063   24.4297  -31.7165 H   0  0  0  0  0  0  0  0  0  0  0  0
   -9.9882   23.6239  -32.3123 H   0  0  0  0  0  0  0  0  0  0  0  0
  -10.5153   21.1860  -32.2467 H   0  0  0  0  0  0  0  0  0  0  0  0
   -8.7559   19.5467  -31.5772 H   0  0  0  0  0  0  0  0  0  0  0  0
   -6.4680   20.3404  -30.9796 H   0  0  0  0  0  0  0  0  0  0  0  0
   -4.0466   21.5357  -27.8456 H   0  0  0  0  0  0  0  0  0  0  0  0
  1  2  1  0
  2  3  2  0
  3  4  1  0
  4  5  2  0
  5  6  1  0
  5  7  1  0
  7  8  1  0
  8  9  1  0
  9 10  2  0
  9 11  1  0
 11 12  2  0
 12 13  1  0
 13 14  2  0
 14 15  1  0
 15 16  2  0
  7 17  2  0
 17  2  1  0
 16 11  1  0
  1 18  1  0
  1 19  1  0
  1 20  1  0
  3 21  1  0
  4 22  1  0
  8 23  1  0
 12 24  1  0
 13 25  1  0
 14 26  1  0
 15 27  1  0
 16 28  1  0
 17 29  1  0
M  CHG  1   6  -1
M  END
>  <UniqueID>  (18) 
18

>  <SMILES>  (18) 
Cc1ccc([O-])c(NC(=O)c2ccccc2)c1

>  <Energy>  (18) 
35.10218838172644

>  <Genealogy>  (18) 
Cc1ccc([O-])c(NC(=O)c2ccccc2)c1 (protonated)
Cc1ccc([O-])c(NC(=O)c2ccccc2)c1 (3D coordinates assigned)
Cc1ccc([O-])c(NC(=O)c2ccccc2)c1 (optimized conformer: 35.10218838172644 kcal/mol)

>  <smiles>  (18) 
Cc1ccc(O)c(NC(=O)c2ccccc2)c1

>  <score_type>  (18) 
oracle

>  <origin>  (18) 
adg

>  <m_score__min__energy>  (18) 
-10.17

>  <m_primary>  (18) 
energy

$$$$
18:0
     RDKit          3D

 38 41  0  0  0  0  0  0  0  0999 V2000
   -5.3600   24.2780  -31.9330 O   0  0  0  0  0  0  0  0  0  0  0  0
   -5.1550   23.1770  -31.3530 C   0  0  0  0  0  0  0  0  0  0  0  0
   -4.5240   23.1470  -30.0110 C   0  0  0  0  0  0  0  0  0  0  0  0
   -3.7280   22.0530  -29.6210 C   0  0  0  0  0  0  0  0  0  0  0  0
   -3.1370   22.0250  -28.3540 C   0  0  0  0  0  0  0  0  0  0  0  0
   -3.3310   23.0840  -27.4660 C   0  0  0  0  0  0  0  0  0  0  0  0
   -4.1160   24.1760  -27.8430 C   0  0  0  0  0  0  0  0  0  0  0  0
   -4.7100   24.2110  -29.1070 C   0  0  0  0  0  0  0  0  0  0  0  0
   -5.5450   21.9600  -32.0110 N   0  0  0  0  0  0  0  0  0  0  0  0
   -6.9370   21.5600  -32.0390 C   0  0  0  0  0  0  0  0  0  0  0  0
   -7.9490   22.3320  -31.4280 C   0  0  0  0  0  0  0  0  0  0  0  0
   -9.2810   21.9110  -31.4700 C   0  0  0  0  0  0  0  0  0  0  0  0
   -9.6210   20.7210  -32.1140 C   0  0  0  0  0  0  0  0  0  0  0  0
   -8.6290   19.9440  -32.7160 C   0  0  0  0  0  0  0  0  0  0  0  0
   -7.2940   20.3570  -32.6780 C   0  0  0  0  0  0  0  0  0  0  0  0
   -6.3120   19.5630  -33.2770 O   0  0  0  0  0  0  0  0  0  0  0  0
   -4.9630   19.9230  -33.2690 C   0  0  0  0  0  0  0  0  0  0  0  0
   -4.0270   19.0840  -33.8760 C   0  0  0  0  0  0  0  0  0  0  0  0
   -2.6740   19.4280  -33.8850 C   0  0  0  0  0  0  0  0  0  0  0  0
   -2.2430   20.6310  -33.3030 C   0  0  0  0  0  0  0  0  0  0  0  0
   -0.7760   20.9830  -33.2690 C   0  0  0  0  0  0  0  0  0  0  0  0
   -0.4770   21.5650  -32.0510 F   0  0  0  0  0  0  0  0  0  0  0  0
    0.0060   19.8530  -33.4320 F   0  0  0  0  0  0  0  0  0  0  0  0
   -0.4650   21.8730  -34.2830 F   0  0  0  0  0  0  0  0  0  0  0  0
   -3.1840   21.4620  -32.6700 C   0  0  0  0  0  0  0  0  0  0  0  0
   -4.5530   21.1190  -32.6500 C   0  0  0  0  0  0  0  0  0  0  0  0
   -3.5702   21.2158  -30.3168 H   0  0  0  0  0  0  0  0  0  0  0  0
   -2.5176   21.1661  -28.0565 H   0  0  0  0  0  0  0  0  0  0  0  0
   -2.8658   23.0587  -26.4695 H   0  0  0  0  0  0  0  0  0  0  0  0
   -4.2670   25.0108  -27.1427 H   0  0  0  0  0  0  0  0  0  0  0  0
   -5.3264   25.0744  -29.3979 H   0  0  0  0  0  0  0  0  0  0  0  0
   -7.6876   23.2699  -30.9161 H   0  0  0  0  0  0  0  0  0  0  0  0
  -10.0637   22.5198  -30.9938 H   0  0  0  0  0  0  0  0  0  0  0  0
  -10.6709   20.3946  -32.1476 H   0  0  0  0  0  0  0  0  0  0  0  0
   -8.8987   19.0049  -33.2212 H   0  0  0  0  0  0  0  0  0  0  0  0
   -4.3570   18.1475  -34.3494 H   0  0  0  0  0  0  0  0  0  0  0  0
   -1.9412   18.7526  -34.3508 H   0  0  0  0  0  0  0  0  0  0  0  0
   -2.8493   22.3906  -32.1845 H   0  0  0  0  0  0  0  0  0  0  0  0
  1  2  2  0
  2  3  1  0
  3  4  2  0
  4  5  1  0
  5  6  2  0
  6  7  1  0
  7  8  2  0
  2  9  1  0
  9 10  1  0
 10 11  2  0
 11 12  1  0
 12 13  2  0
 13 14  1  0
 14 15  2  0
 15 16  1  0
 16 17  1  0
 17 18  2  0
 18 19  1  0
 19 20  2  0
 20 21  1  0
 21 22  1  0
 21 23  1  0
 21 24  1  0
 20 25  1  0
 25 26  2  0
  8  3  1  0
 26  9  1  0
 15 10  1  0
 26 17  1  0
  4 27  1  0
  5 28  1  0
  6 29  1  0
  7 30  1  0
  8 31  1  0
 11 32  1  0
 12 33  1  0
 13 34  1  0
 14 35  1  0
 18 36  1  0
 19 37  1  0
 25 38  1  0
M  END
>  <UniqueID>  (19) 
19

>  <SMILES>  (19) 
O=C(c1ccccc1)N1c2ccccc2Oc2ccc(C(F)(F)F)cc21

>  <Energy>  (19) 
55.73931243088868

>  <Genealogy>  (19) 
O=C(c1ccccc1)N1c2ccccc2Oc2ccc(C(F)(F)F)cc21 (3D coordinates assigned)
O=C(c1ccccc1)N1c2ccccc2Oc2ccc(C(F)(F)F)cc21 (nonaromatic ring conformer: 55.73931243088868 kcal/mol)

>  <smiles>  (19) 
O=C(c1ccccc1)N1c2ccccc2Oc2ccc(C(F)(F)F)cc21

>  <score_type>  (19) 
oracle

>  <origin>  (19) 
adg

>  <m_score__min__energy>  (19) 
-8.1300000000000008

>  <m_primary>  (19) 
energy

$$$$
19:0
     RDKit          3D

 18 19  0  0  0  0  0  0  0  0999 V2000
   -9.1040   18.7440  -32.3330 Cl  0  0  0  0  0  0  0  0  0  0  0  0
   -8.1990   20.1770  -31.8840 C   0  0  0  0  0  0  0  0  0  0  0  0
   -8.7940   21.1600  -31.0910 C   0  0  0  0  0  0  0  0  0  0  0  0
   -8.0740   22.3010  -30.7330 C   0  0  0  0  0  0  0  0  0  0  0  0
   -6.7470   22.4800  -31.1640 C   0  0  0  0  0  0  0  0  0  0  0  0
   -6.0330   23.6750  -30.7950 N   0  0  0  0  0  0  0  0  0  0  0  0
   -6.3100   24.5250  -29.7870 C   0  0  0  0  0  0  0  0  0  0  0  0
   -5.4280   25.5360  -29.8160 N   0  0  0  0  0  0  0  0  0  0  0  0
   -4.6220   25.3070  -30.8410 N   0  0  0  0  0  0  0  0  0  0  0  0
   -4.9910   24.1820  -31.4370 N   0  0  0  0  0  0  0  0  0  0  0  0
   -6.1480   21.4750  -31.9620 C   0  0  0  0  0  0  0  0  0  0  0  0
   -4.4700   21.5670  -32.4860 Cl  0  0  0  0  0  0  0  0  0  0  0  0
   -6.8790   20.3350  -32.3150 C   0  0  0  0  0  0  0  0  0  0  0  0
   -9.8316   21.0352  -30.7478 H   0  0  0  0  0  0  0  0  0  0  0  0
   -8.5501   23.0695  -30.1063 H   0  0  0  0  0  0  0  0  0  0  0  0
   -7.1263   24.4091  -29.0588 H   0  0  0  0  0  0  0  0  0  0  0  0
   -5.3700   26.3540  -29.1700 H   0  0  0  0  0  0  0  0  0  0  0  0
   -6.4110   19.5573  -32.9365 H   0  0  0  0  0  0  0  0  0  0  0  0
  1  2  1  0
  2  3  2  0
  3  4  1  0
  4  5  2  0
  5  6  1  0
  6  7  1  0
  7  8  2  0
  8  9  1  0
  9 10  2  0
  5 11  1  0
 11 12  1  0
 11 13  2  0
 13  2  1  0
 10  6  1  0
  3 14  1  0
  4 15  1  0
  7 16  1  0
  8 17  1  0
 13 18  1  0
M  CHG  1   8   1
M  END
>  <UniqueID>  (20) 
20

>  <SMILES>  (20) 
Clc1ccc(-n2c[nH+]nn2)c(Cl)c1

>  <Energy>  (20) 
64.55219251806308

>  <Genealogy>  (20) 
Clc1ccc(-n2c[nH+]nn2)c(Cl)c1 (protonated)
Clc1ccc(-n2c[nH+]nn2)c(Cl)c1 (3D coordinates assigned)
Clc1ccc(-n2c[nH+]nn2)c(Cl)c1 (optimized conformer: 64.55219251806308 kcal/mol)

>  <smiles>  (20) 
Clc1ccc(-n2cnnn2)c(Cl)c1

>  <score_type>  (20) 
oracle

>  <origin>  (20) 
adg

>  <m_score__min__energy>  (20) 
-6.71

>  <m_primary>  (20) 
energy

$$$$
20:0
     RDKit          3D

 32 33  0  0  0  0  0  0  0  0999 V2000
   -5.3630   25.6670  -30.4610 C   0  0  0  0  0  0  0  0  0  0  0  0
   -4.9310   24.5410  -31.2170 O   0  0  0  0  0  0  0  0  0  0  0  0
   -5.7430   23.4440  -31.5400 C   0  0  0  0  0  0  0  0  0  0  0  0
   -7.0710   23.4500  -31.1010 C   0  0  0  0  0  0  0  0  0  0  0  0
   -7.9260   22.3860  -31.4000 C   0  0  0  0  0  0  0  0  0  0  0  0
   -7.4590   21.2890  -32.1440 C   0  0  0  0  0  0  0  0  0  0  0  0
   -6.1190   21.2690  -32.5760 C   0  0  0  0  0  0  0  0  0  0  0  0
   -5.2710   22.3490  -32.2880 C   0  0  0  0  0  0  0  0  0  0  0  0
   -5.6350   20.1230  -33.4300 C   0  0  0  0  0  0  0  0  0  0  0  0
   -6.3570   18.8050  -33.0460 C   0  0  0  0  0  0  0  0  0  0  0  0
   -6.1140   17.7470  -34.1340 C   0  0  0  0  0  0  0  0  0  0  0  0
   -5.8260   18.2750  -31.7000 C   0  0  0  0  0  0  0  0  0  0  0  0
   -7.8030   19.0320  -32.9330 N   0  0  0  0  0  0  0  0  0  0  0  0
   -8.3330   20.1360  -32.4850 C   0  0  0  0  0  0  0  0  0  0  0  0
   -9.8240   20.2200  -32.3550 C   0  0  0  0  0  0  0  0  0  0  0  0
   -5.2770   25.4428  -29.3875 H   0  0  0  0  0  0  0  0  0  0  0  0
   -4.7344   26.5359  -30.7056 H   0  0  0  0  0  0  0  0  0  0  0  0
   -6.4115   25.8925  -30.7056 H   0  0  0  0  0  0  0  0  0  0  0  0
   -7.4463   24.3013  -30.5142 H   0  0  0  0  0  0  0  0  0  0  0  0
   -8.9691   22.4071  -31.0515 H   0  0  0  0  0  0  0  0  0  0  0  0
   -4.2318   22.3400  -32.6486 H   0  0  0  0  0  0  0  0  0  0  0  0
   -5.8380   20.3504  -34.4869 H   0  0  0  0  0  0  0  0  0  0  0  0
   -4.5550   19.9934  -33.2661 H   0  0  0  0  0  0  0  0  0  0  0  0
   -5.8917   16.7791  -33.6611 H   0  0  0  0  0  0  0  0  0  0  0  0
   -7.0136   17.6513  -34.7598 H   0  0  0  0  0  0  0  0  0  0  0  0
   -5.2628   18.0534  -34.7598 H   0  0  0  0  0  0  0  0  0  0  0  0
   -6.3408   18.7888  -30.8748 H   0  0  0  0  0  0  0  0  0  0  0  0
   -6.0136   17.1932  -31.6322 H   0  0  0  0  0  0  0  0  0  0  0  0
   -4.7446   18.4646  -31.6322 H   0  0  0  0  0  0  0  0  0  0  0  0
  -10.0989   20.2355  -31.2900 H   0  0  0  0  0  0  0  0  0  0  0  0
  -10.1831   21.1398  -32.8398 H   0  0  0  0  0  0  0  0  0  0  0  0
  -10.2841   19.3464  -32.8398 H   0  0  0  0  0  0  0  0  0  0  0  0
  1  2  1  0
  2  3  1  0
  3  4  2  0
  4  5  1  0
  5  6  2  0
  6  7  1  0
  7  8  2  0
  7  9  1  0
  9 10  1  0
 10 11  1  0
 10 12  1  0
 10 13  1  0
 13 14  2  0
 14 15  1  0
  8  3  1  0
 14  6  1  0
  1 16  1  0
  1 17  1  0
  1 18  1  0
  4 19  1  0
  5 20  1  0
  8 21  1  0
  9 22  1  0
  9 23  1  0
 11 24  1  0
 11 25  1  0
 11 26  1  0
 12 27  1  0
 12 28  1  0
 12 29  1  0
 15 30  1  0
 15 31  1  0
 15 32  1  0
M  END
>  <UniqueID>  (21) 
21

>  <SMILES>  (21) 
COc1ccc2c(c1)CC(C)(C)N=C2C

>  <Energy>  (21) 
30.009596177304882

>  <Genealogy>  (21) 
COc1ccc2c(c1)CC(C)(C)N=C2C (3D coordinates assigned)
COc1ccc2c(c1)CC(C)(C)N=C2C (nonaromatic ring conformer: 30.009596177304882 kcal/mol)

>  <smiles>  (21) 
COc1ccc2c(c1)CC(C)(C)N=C2C

>  <score_type>  (21) 
oracle

>  <origin>  (21) 
adg

>  <m_score__min__energy>  (21) 
-7.0899999999999999

>  <m_primary>  (21) 
energy

$$$$
21:0
     RDKit          3D

 38 39  0  0  0  0  0  0  0  0999 V2000
   -2.5630   21.5600  -32.0860 C   0  0  0  0  0  0  0  0  0  0  0  0
   -3.1670   22.4510  -31.1550 O   0  0  0  0  0  0  0  0  0  0  0  0
   -2.5180   23.0030  -30.0390 C   0  0  0  0  0  0  0  0  0  0  0  0
   -1.6300   22.2430  -29.2490 C   0  0  0  0  0  0  0  0  0  0  0  0
   -0.9480   22.8350  -28.1840 C   0  0  0  0  0  0  0  0  0  0  0  0
   -1.1350   24.1870  -27.8970 C   0  0  0  0  0  0  0  0  0  0  0  0
   -2.0170   24.9480  -28.6660 C   0  0  0  0  0  0  0  0  0  0  0  0
   -2.7340   24.3610  -29.7160 C   0  0  0  0  0  0  0  0  0  0  0  0
   -3.6300   25.1840  -30.4740 N   0  0  0  0  0  0  0  0  0  0  0  0
   -5.0370   24.9560  -30.6200 C   0  0  0  0  0  0  0  0  0  0  0  0
   -5.8320   25.9360  -30.6740 O   0  0  0  0  0  0  0  0  0  0  0  0
   -5.5190   23.6070  -30.8170 N   0  0  1  0  0  0  0  0  0  0  0  0
   -6.3240   23.1400  -29.6730 C   0  0  0  0  0  0  0  0  0  0  0  0
   -6.2280   23.4630  -32.1110 C   0  0  0  0  0  0  0  0  0  0  0  0
   -7.2420   22.3370  -32.1330 C   0  0  0  0  0  0  0  0  0  0  0  0
   -8.6060   22.6050  -31.9310 C   0  0  0  0  0  0  0  0  0  0  0  0
   -9.5410   21.5650  -31.9600 C   0  0  0  0  0  0  0  0  0  0  0  0
   -9.1210   20.2520  -32.1880 C   0  0  0  0  0  0  0  0  0  0  0  0
   -7.7650   19.9750  -32.3820 C   0  0  0  0  0  0  0  0  0  0  0  0
   -7.1910   18.1790  -32.6940 Br  0  0  0  0  0  0  0  0  0  0  0  0
   -6.8260   21.0120  -32.3510 C   0  0  0  0  0  0  0  0  0  0  0  0
   -2.0267   20.7689  -31.5415 H   0  0  0  0  0  0  0  0  0  0  0  0
   -3.3412   21.1073  -32.7181 H   0  0  0  0  0  0  0  0  0  0  0  0
   -1.8543   22.1152  -32.7181 H   0  0  0  0  0  0  0  0  0  0  0  0
   -1.4739   21.1775  -29.4734 H   0  0  0  0  0  0  0  0  0  0  0  0
   -0.2616   22.2336  -27.5699 H   0  0  0  0  0  0  0  0  0  0  0  0
   -0.5875   24.6535  -27.0648 H   0  0  0  0  0  0  0  0  0  0  0  0
   -2.1499   26.0174  -28.4455 H   0  0  0  0  0  0  0  0  0  0  0  0
   -4.6780   22.9830  -30.8600 H   0  0  0  0  0  0  0  0  0  0  0  0
   -5.8283   23.4276  -28.7341 H   0  0  0  0  0  0  0  0  0  0  0  0
   -7.3228   23.5989  -29.7158 H   0  0  0  0  0  0  0  0  0  0  0  0
   -6.4214   22.0452  -29.7158 H   0  0  0  0  0  0  0  0  0  0  0  0
   -6.7525   24.4058  -32.3254 H   0  0  0  0  0  0  0  0  0  0  0  0
   -5.4666   23.2221  -32.8675 H   0  0  0  0  0  0  0  0  0  0  0  0
   -8.9403   23.6371  -31.7492 H   0  0  0  0  0  0  0  0  0  0  0  0
  -10.6081   21.7811  -31.8031 H   0  0  0  0  0  0  0  0  0  0  0  0
   -9.8581   19.4359  -32.2148 H   0  0  0  0  0  0  0  0  0  0  0  0
   -5.7587   20.7896  -32.4977 H   0  0  0  0  0  0  0  0  0  0  0  0
  1  2  1  0
  2  3  1  0
  3  4  2  0
  4  5  1  0
  5  6  2  0
  6  7  1  0
  7  8  2  0
  8  9  1  0
  9 10  1  0
 10 11  2  0
 10 12  1  0
 12 13  1  0
 12 14  1  0
 14 15  1  0
 15 16  2  0
 16 17  1  0
 17 18  2  0
 18 19  1  0
 19 20  1  0
 19 21  2  0
  8  3  1  0
 21 15  1  0
  1 22  1  0
  1 23  1  0
  1 24  1  0
  4 25  1  0
  5 26  1  0
  6 27  1  0
  7 28  1  0
 12 29  1  6
 13 30  1  0
 13 31  1  0
 13 32  1  0
 14 33  1  0
 14 34  1  0
 16 35  1  0
 17 36  1  0
 18 37  1  0
 21 38  1  0
M  CHG  2   9  -1  12   1
M  END
>  <UniqueID>  (22) 
22

>  <SMILES>  (22) 
COc1ccccc1[N-]C(=O)[N@@H+](C)Cc1cccc(Br)c1

>  <Energy>  (22) 
46.193699265625625

>  <Genealogy>  (22) 
COc1ccccc1[N-]C(=O)[NH+](C)Cc1cccc(Br)c1 (protonated)
COc1ccccc1[N-]C(=O)[N@@H+](C)Cc1cccc(Br)c1 (chirality)
COc1ccccc1[N-]C(=O)[N@@H+](C)Cc1cccc(Br)c1 (3D coordinates assigned)
COc1ccccc1[N-]C(=O)[N@@H+](C)Cc1cccc(Br)c1 (optimized conformer: 46.193699265625625 kcal/mol)

>  <smiles>  (22) 
COc1ccccc1NC(=O)N(C)Cc1cccc(Br)c1

>  <score_type>  (22) 
oracle

>  <origin>  (22) 
adg

>  <m_score__min__energy>  (22) 
-9.4499999999999993

>  <m_primary>  (22) 
energy

$$$$
22:0
     RDKit          3D

 22 22  0  0  0  0  0  0  0  0999 V2000
   -5.9970   20.1060  -33.3510 C   0  0  0  0  0  0  0  0  0  0  0  0
   -5.5940   21.3770  -32.6760 C   0  0  0  0  0  0  0  0  0  0  0  0
   -6.4400   22.3010  -32.0990 C   0  0  0  0  0  0  0  0  0  0  0  0
   -5.6210   23.3310  -31.6730 C   0  0  0  0  0  0  0  0  0  0  0  0
   -6.0750   24.5870  -30.9990 C   0  0  0  0  0  0  0  0  0  0  0  0
   -4.9980   25.1230  -30.0520 C   0  0  0  0  0  0  0  0  0  0  0  0
   -3.9270   25.6720  -30.7710 O   0  0  0  0  0  0  0  0  0  0  0  0
   -4.3690   23.0750  -31.9810 O   0  0  0  0  0  0  0  0  0  0  0  0
   -4.3210   21.9110  -32.5890 C   0  0  0  0  0  0  0  0  0  0  0  0
   -3.0630   21.2870  -33.0970 C   0  0  0  0  0  0  0  0  0  0  0  0
   -6.2375   19.3477  -32.5913 H   0  0  0  0  0  0  0  0  0  0  0  0
   -6.8812   20.2889  -33.9793 H   0  0  0  0  0  0  0  0  0  0  0  0
   -5.1689   19.7460  -33.9793 H   0  0  0  0  0  0  0  0  0  0  0  0
   -7.5333   22.2332  -31.9989 H   0  0  0  0  0  0  0  0  0  0  0  0
   -6.2919   25.3472  -31.7639 H   0  0  0  0  0  0  0  0  0  0  0  0
   -6.9773   24.3623  -30.4114 H   0  0  0  0  0  0  0  0  0  0  0  0
   -5.4375   25.9011  -29.4105 H   0  0  0  0  0  0  0  0  0  0  0  0
   -4.6206   24.2893  -29.4416 H   0  0  0  0  0  0  0  0  0  0  0  0
   -3.4950   24.9190  -31.2550 H   0  0  0  0  0  0  0  0  0  0  0  0
   -2.4381   20.9770  -32.2465 H   0  0  0  0  0  0  0  0  0  0  0  0
   -3.3112   20.4076  -33.7094 H   0  0  0  0  0  0  0  0  0  0  0  0
   -2.5130   22.0168  -33.7094 H   0  0  0  0  0  0  0  0  0  0  0  0
  1  2  1  0
  2  3  1  0
  3  4  2  0
  4  5  1  0
  5  6  1  0
  6  7  1  0
  4  8  1  0
  8  9  1  0
  9 10  1  0
  9  2  2  0
  1 11  1  0
  1 12  1  0
  1 13  1  0
  3 14  1  0
  5 15  1  0
  5 16  1  0
  6 17  1  0
  6 18  1  0
  7 19  1  0
 10 20  1  0
 10 21  1  0
 10 22  1  0
M  END
>  <UniqueID>  (23) 
23

>  <SMILES>  (23) 
Cc1cc(CCO)oc1C

>  <Energy>  (23) 
40.114398930865434

>  <Genealogy>  (23) 
Cc1cc(CCO)oc1C (3D coordinates assigned)
Cc1cc(CCO)oc1C (optimized conformer: 40.114398930865434 kcal/mol)

>  <smiles>  (23) 
Cc1cc(CCO)oc1C

>  <score_type>  (23) 
oracle

>  <origin>  (23) 
adg

>  <m_score__min__energy>  (23) 
-5.4400000000000004

>  <m_primary>  (23) 
energy

$$$$
23:0
     RDKit          3D

 55 58  0  0  0  0  0  0  0  0999 V2000
   -0.8810   26.4380  -23.5420 C   0  0  0  0  0  0  0  0  0  0  0  0
    0.2570   26.7840  -24.5310 C   0  0  0  0  0  0  0  0  0  0  0  0
    0.7090   28.2320  -24.2270 C   0  0  0  0  0  0  0  0  0  0  0  0
   -0.1820   26.5830  -25.9510 N   0  0  2  0  0  0  0  0  0  0  0  0
   -1.6790   26.4960  -26.0520 C   0  0  0  0  0  0  0  0  0  0  0  0
   -2.1980   25.1000  -26.4370 C   0  0  0  0  0  0  0  0  0  0  0  0
   -1.6210   24.6520  -27.7940 C   0  0  1  0  0  0  0  0  0  0  0  0
   -2.3830   25.2170  -28.8660 O   0  0  0  0  0  0  0  0  0  0  0  0
   -3.5210   24.6440  -29.4560 C   0  0  0  0  0  0  0  0  0  0  0  0
   -3.9160   23.3710  -29.0260 C   0  0  0  0  0  0  0  0  0  0  0  0
   -5.0450   22.7540  -29.5740 C   0  0  0  0  0  0  0  0  0  0  0  0
   -5.8090   23.4180  -30.5410 C   0  0  0  0  0  0  0  0  0  0  0  0
   -7.2670   22.6350  -31.2400 S   0  0  0  0  0  0  0  0  0  0  0  0
   -6.3140   21.3910  -32.1310 C   0  0  0  0  0  0  0  0  0  0  0  0
   -5.0900   21.7840  -32.6840 C   0  0  0  0  0  0  0  0  0  0  0  0
   -4.3010   20.8760  -33.3910 C   0  0  0  0  0  0  0  0  0  0  0  0
   -4.7280   19.5610  -33.5610 C   0  0  0  0  0  0  0  0  0  0  0  0
   -5.9570   19.1430  -33.0300 C   0  0  0  0  0  0  0  0  0  0  0  0
   -6.3860   17.8190  -33.2090 C   0  0  0  0  0  0  0  0  0  0  0  0
   -7.6110   17.4010  -32.6870 C   0  0  0  0  0  0  0  0  0  0  0  0
   -8.4170   18.2970  -31.9830 C   0  0  0  0  0  0  0  0  0  0  0  0
   -8.0050   19.6190  -31.7970 C   0  0  0  0  0  0  0  0  0  0  0  0
   -6.7690   20.0620  -32.3090 C   0  0  0  0  0  0  0  0  0  0  0  0
   -5.4180   24.6870  -30.9810 C   0  0  0  0  0  0  0  0  0  0  0  0
   -4.2780   25.2970  -30.4500 C   0  0  0  0  0  0  0  0  0  0  0  0
   -0.1490   25.0820  -27.9550 C   0  0  0  0  0  0  0  0  0  0  0  0
    0.4990   25.4310  -26.6070 C   0  0  0  0  0  0  0  0  0  0  0  0
   -0.5164   26.5489  -22.5101 H   0  0  0  0  0  0  0  0  0  0  0  0
   -1.7292   27.1188  -23.7063 H   0  0  0  0  0  0  0  0  0  0  0  0
   -1.2067   25.4002  -23.7063 H   0  0  0  0  0  0  0  0  0  0  0  0
    1.1160   26.1092  -24.4016 H   0  0  0  0  0  0  0  0  0  0  0  0
    0.7554   28.3807  -23.1381 H   0  0  0  0  0  0  0  0  0  0  0  0
    1.7038   28.4048  -24.6634 H   0  0  0  0  0  0  0  0  0  0  0  0
   -0.0109   28.9401  -24.6634 H   0  0  0  0  0  0  0  0  0  0  0  0
    0.1130   27.4330  -26.4880 H   0  0  0  0  0  0  0  0  0  0  0  0
   -2.1083   26.7681  -25.0765 H   0  0  0  0  0  0  0  0  0  0  0  0
   -1.9852   27.1829  -26.8548 H   0  0  0  0  0  0  0  0  0  0  0  0
   -1.8983   24.3785  -25.6627 H   0  0  0  0  0  0  0  0  0  0  0  0
   -3.2941   25.1436  -26.5191 H   0  0  0  0  0  0  0  0  0  0  0  0
   -1.6756   23.5538  -27.8250 H   0  0  0  0  0  0  0  0  0  0  0  0
   -3.3333   22.8521  -28.2507 H   0  0  0  0  0  0  0  0  0  0  0  0
   -5.3333   21.7449  -29.2445 H   0  0  0  0  0  0  0  0  0  0  0  0
   -4.7457   22.8213  -32.5598 H   0  0  0  0  0  0  0  0  0  0  0  0
   -3.3391   21.1995  -33.8153 H   0  0  0  0  0  0  0  0  0  0  0  0
   -4.0989   18.8478  -34.1138 H   0  0  0  0  0  0  0  0  0  0  0  0
   -5.7548   17.1083  -33.7625 H   0  0  0  0  0  0  0  0  0  0  0  0
   -7.9424   16.3620  -32.8309 H   0  0  0  0  0  0  0  0  0  0  0  0
   -9.3807   17.9609  -31.5728 H   0  0  0  0  0  0  0  0  0  0  0  0
   -8.6504   20.3195  -31.2467 H   0  0  0  0  0  0  0  0  0  0  0  0
   -6.0103   25.2071  -31.7483 H   0  0  0  0  0  0  0  0  0  0  0  0
   -3.9704   26.2902  -30.8090 H   0  0  0  0  0  0  0  0  0  0  0  0
    0.4136   24.2570  -28.4165 H   0  0  0  0  0  0  0  0  0  0  0  0
   -0.1251   25.9822  -28.5868 H   0  0  0  0  0  0  0  0  0  0  0  0
    0.4369   24.5554  -25.9441 H   0  0  0  0  0  0  0  0  0  0  0  0
    1.5465   25.7113  -26.7919 H   0  0  0  0  0  0  0  0  0  0  0  0
  1  2  1  0
  2  3  1  0
  2  4  1  0
  4  5  1  0
  5  6  1  0
  6  7  1  0
  7  8  1  0
  8  9  1  0
  9 10  2  0
 10 11  1  0
 11 12  2  0
 12 13  1  0
 13 14  1  0
 14 15  2  0
 15 16  1  0
 16 17  2  0
 17 18  1  0
 18 19  2  0
 19 20  1  0
 20 21  2  0
 21 22  1  0
 22 23  2  0
 12 24  1  0
 24 25  2  0
  7 26  1  0
 26 27  1  0
 27  4  1  0
 25  9  1  0
 23 14  1  0
 23 18  1  0
  1 28  1  0
  1 29  1  0
  1 30  1  0
  2 31  1  0
  3 32  1  0
  3 33  1  0
  3 34  1  0
  4 35  1  6
  5 36  1  0
  5 37  1  0
  6 38  1  0
  6 39  1  0
  7 40  1  1
 10 41  1  0
 11 42  1  0
 15 43  1  0
 16 44  1  0
 17 45  1  0
 19 46  1  0
 20 47  1  0
 21 48  1  0
 22 49  1  0
 24 50  1  0
 25 51  1  0
 26 52  1  0
 26 53  1  0
 27 54  1  0
 27 55  1  0
M  CHG  1   4   1
M  END
>  <UniqueID>  (24) 
24

>  <SMILES>  (24) 
CC(C)[NH+]1CCC(Oc2ccc(Sc3cccc4ccccc34)cc2)CC1

>  <Energy>  (24) 
71.44059658002328

>  <Genealogy>  (24) 
CC(C)[NH+]1CCC(Oc2ccc(Sc3cccc4ccccc34)cc2)CC1 (protonated)
CC(C)[NH+]1CCC(Oc2ccc(Sc3cccc4ccccc34)cc2)CC1 (3D coordinates assigned)
CC(C)[NH+]1CCC(Oc2ccc(Sc3cccc4ccccc34)cc2)CC1 (nonaromatic ring conformer: 71.44059658002328 kcal/mol)

>  <smiles>  (24) 
CC(C)N1CCC(Oc2ccc(Sc3cccc4ccccc34)cc2)CC1

>  <score_type>  (24) 
oracle

>  <origin>  (24) 
adg

>  <m_score__min__energy>  (24) 
-9.5099999999999998

>  <m_primary>  (24) 
energy

$$$$
24:0
     RDKit          3D

 39 41  0  0  0  0  0  0  0  0999 V2000
   -9.3770   19.6820  -32.7190 C   0  0  0  0  0  0  0  0  0  0  0  0
   -8.6380   20.7300  -32.3450 C   0  0  0  0  0  0  0  0  0  0  0  0
   -7.4850   20.5810  -31.3930 C   0  0  0  0  0  0  0  0  0  0  0  0
   -6.3130   21.3100  -31.8860 N   0  0  0  0  0  0  0  0  0  0  0  0
   -5.3430   20.8800  -32.7280 C   0  0  0  0  0  0  0  0  0  0  0  0
   -5.1670   19.4910  -33.1870 C   0  0  0  0  0  0  0  0  0  0  0  0
   -6.2540   18.8230  -33.7710 C   0  0  0  0  0  0  0  0  0  0  0  0
   -6.1180   17.5030  -34.2100 C   0  0  0  0  0  0  0  0  0  0  0  0
   -4.8920   16.8460  -34.0830 C   0  0  0  0  0  0  0  0  0  0  0  0
   -3.7970   17.5110  -33.5270 C   0  0  0  0  0  0  0  0  0  0  0  0
   -3.9230   18.8330  -33.0830 C   0  0  0  0  0  0  0  0  0  0  0  0
   -2.4920   19.6520  -32.4620 Cl  0  0  0  0  0  0  0  0  0  0  0  0
   -4.5520   21.8940  -33.1360 N   0  0  0  0  0  0  0  0  0  0  0  0
   -5.0120   22.9830  -32.5420 N   0  0  0  0  0  0  0  0  0  0  0  0
   -6.0710   22.6330  -31.7930 C   0  0  0  0  0  0  0  0  0  0  0  0
   -7.0420   23.7920  -30.8240 S   0  0  0  0  0  0  0  0  0  0  0  0
   -5.7940   23.9740  -29.5010 C   0  0  0  0  0  0  0  0  0  0  0  0
   -4.4010   24.0230  -30.0590 C   0  0  0  0  0  0  0  0  0  0  0  0
   -4.0900   24.9600  -30.8430 O   0  0  0  0  0  0  0  0  0  0  0  0
   -3.4000   22.9910  -29.7390 C   0  0  0  0  0  0  0  0  0  0  0  0
   -2.2360   22.7080  -30.4500 C   0  0  0  0  0  0  0  0  0  0  0  0
   -1.4670   21.6900  -29.8740 C   0  0  0  0  0  0  0  0  0  0  0  0
   -2.0250   21.1740  -28.7140 C   0  0  0  0  0  0  0  0  0  0  0  0
   -1.2820   19.7870  -27.6380 Br  0  0  0  0  0  0  0  0  0  0  0  0
   -3.4660   21.9760  -28.3950 S   0  0  0  0  0  0  0  0  0  0  0  0
  -10.2152   19.8213  -33.4175 H   0  0  0  0  0  0  0  0  0  0  0  0
   -9.1473   18.6796  -32.3285 H   0  0  0  0  0  0  0  0  0  0  0  0
   -8.8794   21.7264  -32.7437 H   0  0  0  0  0  0  0  0  0  0  0  0
   -7.7733   20.9820  -30.4101 H   0  0  0  0  0  0  0  0  0  0  0  0
   -7.2300   19.5143  -31.3082 H   0  0  0  0  0  0  0  0  0  0  0  0
   -7.2180   19.3407  -33.8839 H   0  0  0  0  0  0  0  0  0  0  0  0
   -6.9774   16.9810  -34.6560 H   0  0  0  0  0  0  0  0  0  0  0  0
   -4.7889   15.8043  -34.4211 H   0  0  0  0  0  0  0  0  0  0  0  0
   -2.8305   16.9935  -33.4374 H   0  0  0  0  0  0  0  0  0  0  0  0
   -4.6130   23.9400  -32.6570 H   0  0  0  0  0  0  0  0  0  0  0  0
   -5.9909   24.9055  -28.9500 H   0  0  0  0  0  0  0  0  0  0  0  0
   -5.8679   23.1012  -28.8356 H   0  0  0  0  0  0  0  0  0  0  0  0
   -1.9493   23.2329  -31.3732 H   0  0  0  0  0  0  0  0  0  0  0  0
   -0.5163   21.3352  -30.2985 H   0  0  0  0  0  0  0  0  0  0  0  0
  1  2  2  0
  2  3  1  0
  3  4  1  0
  4  5  1  0
  5  6  1  0
  6  7  2  0
  7  8  1  0
  8  9  2  0
  9 10  1  0
 10 11  2  0
 11 12  1  0
  5 13  2  0
 13 14  1  0
 14 15  2  0
 15 16  1  0
 16 17  1  0
 17 18  1  0
 18 19  2  0
 18 20  1  0
 20 21  2  0
 21 22  1  0
 22 23  2  0
 23 24  1  0
 23 25  1  0
 15  4  1  0
 25 20  1  0
 11  6  1  0
  1 26  1  0
  1 27  1  0
  2 28  1  0
  3 29  1  0
  3 30  1  0
  7 31  1  0
  8 32  1  0
  9 33  1  0
 10 34  1  0
 14 35  1  0
 17 36  1  0
 17 37  1  0
 21 38  1  0
 22 39  1  0
M  CHG  1  14   1
M  END
>  <UniqueID>  (25) 
25

>  <SMILES>  (25) 
C=CCn1c(-c2ccccc2Cl)n[nH+]c1SCC(=O)c1ccc(Br)s1

>  <Energy>  (25) 
99.28678202108807

>  <Genealogy>  (25) 
C=CCn1c(-c2ccccc2Cl)n[nH+]c1SCC(=O)c1ccc(Br)s1 (protonated)
C=CCn1c(-c2ccccc2Cl)n[nH+]c1SCC(=O)c1ccc(Br)s1 (3D coordinates assigned)
C=CCn1c(-c2ccccc2Cl)n[nH+]c1SCC(=O)c1ccc(Br)s1 (optimized conformer: 99.28678202108807 kcal/mol)

>  <smiles>  (25) 
C=CCn1c(SCC(=O)c2ccc(Br)s2)nnc1-c1ccccc1Cl

>  <score_type>  (25) 
oracle

>  <origin>  (25) 
adg

>  <m_score__min__energy>  (25) 
-9.1899999999999995

>  <m_primary>  (25) 
energy

$$$$
25:0
     RDKit          3D

 52 56  0  0  0  0  0  0  0  0999 V2000
   -7.5830   19.2300  -32.8150 C   0  0  0  0  0  0  0  0  0  0  0  0
   -7.3670   17.8390  -32.3840 N   0  0  0  0  0  0  0  0  0  0  0  0
   -6.4550   17.8220  -31.2270 C   0  0  0  0  0  0  0  0  0  0  0  0
   -6.8250   17.0350  -33.5030 C   0  0  0  0  0  0  0  0  0  0  0  0
   -6.1160   17.9190  -34.5390 C   0  0  0  0  0  0  0  0  0  0  0  0
   -4.8440   17.2570  -35.0790 C   0  0  0  0  0  0  0  0  0  0  0  0
   -3.6280   17.9010  -34.4930 C   0  0  0  0  0  0  0  0  0  0  0  0
   -2.4000   17.3140  -34.4170 N   0  0  0  0  0  0  0  0  0  0  0  0
   -1.5940   18.1330  -33.7430 N   0  0  0  0  0  0  0  0  0  0  0  0
   -0.2290   17.8160  -33.3460 C   0  0  0  0  0  0  0  0  0  0  0  0
   -2.3180   19.1990  -33.3770 C   0  0  0  0  0  0  0  0  0  0  0  0
   -2.0770   20.5350  -32.4000 S   0  0  0  0  0  0  0  0  0  0  0  0
   -3.7190   21.0180  -32.5820 C   0  0  0  0  0  0  0  0  0  0  0  0
   -4.2790   22.1840  -31.9570 N   0  0  0  0  0  0  0  0  0  0  0  0
   -5.3960   22.8730  -32.3340 C   0  0  0  0  0  0  0  0  0  0  0  0
   -5.6630   23.9630  -31.5530 N   0  0  0  0  0  0  0  0  0  0  0  0
   -4.6580   23.9140  -30.6650 C   0  0  0  0  0  0  0  0  0  0  0  0
   -4.2910   24.7400  -29.6130 C   0  0  0  0  0  0  0  0  0  0  0  0
   -3.1010   24.2650  -29.0180 C   0  0  0  0  0  0  0  0  0  0  0  0
   -2.3950   24.8910  -27.8690 C   0  0  0  0  0  0  0  0  0  0  0  0
   -3.0430   25.0300  -26.6260 C   0  0  0  0  0  0  0  0  0  0  0  0
   -2.3830   25.6150  -25.5430 C   0  0  0  0  0  0  0  0  0  0  0  0
   -1.0710   26.0720  -25.6820 C   0  0  0  0  0  0  0  0  0  0  0  0
   -0.2450   26.8070  -24.3200 Cl  0  0  0  0  0  0  0  0  0  0  0  0
   -0.4180   25.9460  -26.9110 C   0  0  0  0  0  0  0  0  0  0  0  0
   -1.0730   25.3610  -27.9980 C   0  0  0  0  0  0  0  0  0  0  0  0
   -2.5640   22.8480  -29.8390 S   0  0  0  0  0  0  0  0  0  0  0  0
   -3.8580   22.8820  -30.8970 C   0  0  0  0  0  0  0  0  0  0  0  0
   -4.4280   20.1060  -33.3910 C   0  0  0  0  0  0  0  0  0  0  0  0
   -3.5740   19.0980  -33.8090 C   0  0  0  0  0  0  0  0  0  0  0  0
   -7.6834   19.8765  -31.9307 H   0  0  0  0  0  0  0  0  0  0  0  0
   -6.7260   19.5643  -33.4182 H   0  0  0  0  0  0  0  0  0  0  0  0
   -8.5010   19.2886  -33.4182 H   0  0  0  0  0  0  0  0  0  0  0  0
   -7.0423   17.8329  -30.2970 H   0  0  0  0  0  0  0  0  0  0  0  0
   -5.8376   16.9122  -31.2601 H   0  0  0  0  0  0  0  0  0  0  0  0
   -5.8041   18.7082  -31.2601 H   0  0  0  0  0  0  0  0  0  0  0  0
   -6.1053   16.3054  -33.1032 H   0  0  0  0  0  0  0  0  0  0  0  0
   -7.6637   16.5256  -34.0000 H   0  0  0  0  0  0  0  0  0  0  0  0
   -6.8033   18.1057  -35.3773 H   0  0  0  0  0  0  0  0  0  0  0  0
   -5.8283   18.8591  -34.0457 H   0  0  0  0  0  0  0  0  0  0  0  0
   -4.8513   16.1894  -34.8141 H   0  0  0  0  0  0  0  0  0  0  0  0
   -4.8177   17.3767  -36.1721 H   0  0  0  0  0  0  0  0  0  0  0  0
   -0.1607   17.8001  -32.2482 H   0  0  0  0  0  0  0  0  0  0  0  0
    0.0491   16.8294  -33.7450 H   0  0  0  0  0  0  0  0  0  0  0  0
    0.4555   18.5791  -33.7450 H   0  0  0  0  0  0  0  0  0  0  0  0
   -6.0236   22.5781  -33.1879 H   0  0  0  0  0  0  0  0  0  0  0  0
   -4.8450   25.6335  -29.2895 H   0  0  0  0  0  0  0  0  0  0  0  0
   -4.0773   24.6749  -26.5073 H   0  0  0  0  0  0  0  0  0  0  0  0
   -2.8989   25.7161  -24.5767 H   0  0  0  0  0  0  0  0  0  0  0  0
    0.6145   26.3083  -27.0231 H   0  0  0  0  0  0  0  0  0  0  0  0
   -0.5522   25.2667  -28.9623 H   0  0  0  0  0  0  0  0  0  0  0  0
   -5.4943   20.1830  -33.6502 H   0  0  0  0  0  0  0  0  0  0  0  0
  1  2  1  0
  2  3  1  0
  2  4  1  0
  4  5  1  0
  5  6  1  0
  6  7  1  0
  7  8  2  0
  8  9  1  0
  9 10  1  0
  9 11  1  0
 11 12  1  0
 12 13  1  0
 13 14  1  0
 14 15  1  0
 15 16  2  0
 16 17  1  0
 17 18  1  0
 18 19  2  0
 19 20  1  0
 20 21  2  0
 21 22  1  0
 22 23  2  0
 23 24  1  0
 23 25  1  0
 25 26  2  0
 19 27  1  0
 27 28  1  0
 13 29  2  0
 29 30  1  0
 30  7  1  0
 30 11  2  0
 28 14  1  0
 28 17  2  0
 26 20  1  0
  1 31  1  0
  1 32  1  0
  1 33  1  0
  3 34  1  0
  3 35  1  0
  3 36  1  0
  4 37  1  0
  4 38  1  0
  5 39  1  0
  5 40  1  0
  6 41  1  0
  6 42  1  0
 10 43  1  0
 10 44  1  0
 10 45  1  0
 15 46  1  0
 18 47  1  0
 21 48  1  0
 22 49  1  0
 25 50  1  0
 26 51  1  0
 29 52  1  0
M  END
>  <UniqueID>  (26) 
26

>  <SMILES>  (26) 
CN(C)CCCc1nn(C)c2sc(-n3cnc4cc(-c5ccc(Cl)cc5)sc43)cc12

>  <Energy>  (26) 
218.1194722662233

>  <Genealogy>  (26) 
CN(C)CCCc1nn(C)c2sc(-n3cnc4cc(-c5ccc(Cl)cc5)sc43)cc12 (3D coordinates assigned)
CN(C)CCCc1nn(C)c2sc(-n3cnc4cc(-c5ccc(Cl)cc5)sc43)cc12 (optimized conformer: 218.1194722662233 kcal/mol)

>  <smiles>  (26) 
CN(C)CCCc1nn(C)c2sc(-n3cnc4cc(-c5ccc(Cl)cc5)sc43)cc12

>  <score_type>  (26) 
oracle

>  <origin>  (26) 
adg

>  <m_score__min__energy>  (26) 
-8.8900000000000006

>  <m_primary>  (26) 
energy

$$$$
26:0
     RDKit          3D

 36 39  0  0  0  0  0  0  0  0999 V2000
   -4.2320   24.1610  -26.9000 F   0  0  0  0  0  0  0  0  0  0  0  0
   -3.8780   23.6480  -28.1340 C   0  0  0  0  0  0  0  0  0  0  0  0
   -2.5760   24.0270  -28.4040 F   0  0  0  0  0  0  0  0  0  0  0  0
   -3.9410   22.2680  -28.0990 F   0  0  0  0  0  0  0  0  0  0  0  0
   -4.7940   24.1700  -29.2080 C   0  0  0  0  0  0  0  0  0  0  0  0
   -5.6700   25.1740  -29.0090 N   0  0  0  0  0  0  0  0  0  0  0  0
   -6.3770   25.3370  -30.1170 N   0  0  0  0  0  0  0  0  0  0  0  0
   -5.8990   24.4340  -30.9950 C   0  0  0  0  0  0  0  0  0  0  0  0
   -4.9080   23.6910  -30.4700 N   0  0  0  0  0  0  0  0  0  0  0  0
   -4.1740   22.6570  -31.1560 C   0  0  0  0  0  0  0  0  0  0  0  0
   -2.7740   22.6110  -31.0460 C   0  0  0  0  0  0  0  0  0  0  0  0
   -2.0350   21.6390  -31.7190 C   0  0  0  0  0  0  0  0  0  0  0  0
   -2.6820   20.7090  -32.5320 C   0  0  0  0  0  0  0  0  0  0  0  0
   -1.7500   19.4900  -33.3810 Cl  0  0  0  0  0  0  0  0  0  0  0  0
   -4.0680   20.7580  -32.6820 C   0  0  0  0  0  0  0  0  0  0  0  0
   -4.8340   21.7320  -32.0120 C   0  0  0  0  0  0  0  0  0  0  0  0
   -6.3190   21.7210  -32.2070 C   0  0  0  0  0  0  0  0  0  0  0  0
   -7.0390   20.4240  -32.2310 C   0  0  0  0  0  0  0  0  0  0  0  0
   -6.4820   19.3470  -32.9440 C   0  0  0  0  0  0  0  0  0  0  0  0
   -7.1250   18.1070  -32.9760 C   0  0  0  0  0  0  0  0  0  0  0  0
   -8.3310   17.9270  -32.2990 C   0  0  0  0  0  0  0  0  0  0  0  0
   -8.9010   18.9880  -31.5930 C   0  0  0  0  0  0  0  0  0  0  0  0
   -8.2660   20.2360  -31.5520 C   0  0  0  0  0  0  0  0  0  0  0  0
   -9.0760   21.5470  -30.6990 Cl  0  0  0  0  0  0  0  0  0  0  0  0
   -7.0150   22.8160  -32.3570 N   0  0  0  0  0  0  0  0  0  0  0  0
   -6.4850   24.1730  -32.3390 C   0  0  0  0  0  0  0  0  0  0  0  0
   -5.8100   25.7250  -28.1340 H   0  0  0  0  0  0  0  0  0  0  0  0
   -2.2541   23.3517  -30.4206 H   0  0  0  0  0  0  0  0  0  0  0  0
   -0.9411   21.6057  -31.6086 H   0  0  0  0  0  0  0  0  0  0  0  0
   -4.5696   20.0262  -33.3323 H   0  0  0  0  0  0  0  0  0  0  0  0
   -5.5317   19.4822  -33.4812 H   0  0  0  0  0  0  0  0  0  0  0  0
   -6.6794   17.2716  -33.5359 H   0  0  0  0  0  0  0  0  0  0  0  0
   -8.8333   16.9486  -32.3213 H   0  0  0  0  0  0  0  0  0  0  0  0
   -9.8552   18.8430  -31.0653 H   0  0  0  0  0  0  0  0  0  0  0  0
   -5.7071   24.2777  -33.1096 H   0  0  0  0  0  0  0  0  0  0  0  0
   -7.2893   24.8944  -32.5459 H   0  0  0  0  0  0  0  0  0  0  0  0
  1  2  1  0
  2  3  1  0
  2  4  1  0
  2  5  1  0
  5  6  2  0
  6  7  1  0
  7  8  2  0
  8  9  1  0
  9 10  1  0
 10 11  2  0
 11 12  1  0
 12 13  2  0
 13 14  1  0
 13 15  1  0
 15 16  2  0
 16 17  1  0
 17 18  1  0
 18 19  2  0
 19 20  1  0
 20 21  2  0
 21 22  1  0
 22 23  2  0
 23 24  1  0
 17 25  2  0
 25 26  1  0
  9  5  1  0
 16 10  1  0
 23 18  1  0
 26  8  1  0
  6 27  1  0
 11 28  1  0
 12 29  1  0
 15 30  1  0
 19 31  1  0
 20 32  1  0
 21 33  1  0
 22 34  1  0
 26 35  1  0
 26 36  1  0
M  CHG  1   6   1
M  END
>  <UniqueID>  (27) 
27

>  <SMILES>  (27) 
FC(F)(F)c1[nH+]nc2n1-c1ccc(Cl)cc1C(c1ccccc1Cl)=NC2

>  <Energy>  (27) 
95.0955490551696

>  <Genealogy>  (27) 
FC(F)(F)c1[nH+]nc2n1-c1ccc(Cl)cc1C(c1ccccc1Cl)=NC2 (protonated)
FC(F)(F)c1[nH+]nc2n1-c1ccc(Cl)cc1C(c1ccccc1Cl)=NC2 (3D coordinates assigned)
FC(F)(F)c1[nH+]nc2n1-c1ccc(Cl)cc1C(c1ccccc1Cl)=NC2 (nonaromatic ring conformer: 95.0955490551696 kcal/mol)

>  <smiles>  (27) 
FC(F)(F)c1nnc2n1-c1ccc(Cl)cc1C(c1ccccc1Cl)=NC2

>  <score_type>  (27) 
oracle

>  <origin>  (27) 
adg

>  <m_score__min__energy>  (27) 
-8.5600000000000005

>  <m_primary>  (27) 
energy

$$$$
27:0
     RDKit          3D

 33 35  0  0  0  0  0  0  0  0999 V2000
   -4.2040   25.6800  -30.8310 O   0  0  0  0  0  0  0  0  0  0  0  0
   -4.2830   24.4660  -30.5060 C   0  0  0  0  0  0  0  0  0  0  0  0
   -3.1930   23.8730  -29.7860 N   0  0  0  0  0  0  0  0  0  0  0  0
   -2.3970   22.7630  -30.2250 C   0  0  0  0  0  0  0  0  0  0  0  0
   -1.4840   22.1280  -29.3670 C   0  0  0  0  0  0  0  0  0  0  0  0
   -0.7480   21.0280  -29.8140 C   0  0  0  0  0  0  0  0  0  0  0  0
   -0.9190   20.5520  -31.1160 C   0  0  0  0  0  0  0  0  0  0  0  0
   -1.8250   21.1790  -31.9900 C   0  0  0  0  0  0  0  0  0  0  0  0
   -2.0540   20.6290  -33.3750 C   0  0  0  0  0  0  0  0  0  0  0  0
   -1.1180   21.1670  -34.2390 F   0  0  0  0  0  0  0  0  0  0  0  0
   -3.3220   20.9510  -33.8260 F   0  0  0  0  0  0  0  0  0  0  0  0
   -1.9310   19.2500  -33.3790 F   0  0  0  0  0  0  0  0  0  0  0  0
   -2.5820   22.2680  -31.5210 C   0  0  0  0  0  0  0  0  0  0  0  0
   -5.5130   23.7170  -30.8290 C   0  0  0  0  0  0  0  0  0  0  0  0
   -6.7960   24.2560  -30.7410 C   0  0  0  0  0  0  0  0  0  0  0  0
   -7.8840   23.0740  -31.2320 S   0  0  0  0  0  0  0  0  0  0  0  0
   -6.6870   21.9320  -31.5460 C   0  0  0  0  0  0  0  0  0  0  0  0
   -6.9010   20.5620  -32.0470 C   0  0  0  0  0  0  0  0  0  0  0  0
   -8.0410   19.8200  -31.6930 C   0  0  0  0  0  0  0  0  0  0  0  0
   -8.1990   18.5250  -32.1920 C   0  0  0  0  0  0  0  0  0  0  0  0
   -7.2280   17.9810  -33.0340 C   0  0  0  0  0  0  0  0  0  0  0  0
   -6.1080   18.7440  -33.3660 C   0  0  0  0  0  0  0  0  0  0  0  0
   -5.9710   20.0030  -32.8710 N   0  0  0  0  0  0  0  0  0  0  0  0
   -5.4590   22.4360  -31.2850 N   0  0  0  0  0  0  0  0  0  0  0  0
   -1.3481   22.4980  -28.3400 H   0  0  0  0  0  0  0  0  0  0  0  0
   -0.0323   20.5357  -29.1392 H   0  0  0  0  0  0  0  0  0  0  0  0
   -0.3414   19.6813  -31.4599 H   0  0  0  0  0  0  0  0  0  0  0  0
   -3.3279   22.7359  -32.1804 H   0  0  0  0  0  0  0  0  0  0  0  0
   -7.0503   25.2735  -30.4093 H   0  0  0  0  0  0  0  0  0  0  0  0
   -8.8021   20.2553  -31.0288 H   0  0  0  0  0  0  0  0  0  0  0  0
   -9.0872   17.9350  -31.9218 H   0  0  0  0  0  0  0  0  0  0  0  0
   -7.3444   16.9620  -33.4315 H   0  0  0  0  0  0  0  0  0  0  0  0
   -5.3354   18.3268  -34.0286 H   0  0  0  0  0  0  0  0  0  0  0  0
  1  2  2  0
  2  3  1  0
  3  4  1  0
  4  5  2  0
  5  6  1  0
  6  7  2  0
  7  8  1  0
  8  9  1  0
  9 10  1  0
  9 11  1  0
  9 12  1  0
  8 13  2  0
  2 14  1  0
 14 15  2  0
 15 16  1  0
 16 17  1  0
 17 18  1  0
 18 19  2  0
 19 20  1  0
 20 21  2  0
 21 22  1  0
 22 23  2  0
 17 24  2  0
 13  4  1  0
 24 14  1  0
 23 18  1  0
  5 25  1  0
  6 26  1  0
  7 27  1  0
 13 28  1  0
 15 29  1  0
 19 30  1  0
 20 31  1  0
 21 32  1  0
 22 33  1  0
M  CHG  1   3  -1
M  END
>  <UniqueID>  (28) 
28

>  <SMILES>  (28) 
O=C([N-]c1cccc(C(F)(F)F)c1)c1csc(-c2ccccn2)n1

>  <Energy>  (28) 
72.09933761095107

>  <Genealogy>  (28) 
O=C([N-]c1cccc(C(F)(F)F)c1)c1csc(-c2ccccn2)n1 (protonated)
O=C([N-]c1cccc(C(F)(F)F)c1)c1csc(-c2ccccn2)n1 (3D coordinates assigned)
O=C([N-]c1cccc(C(F)(F)F)c1)c1csc(-c2ccccn2)n1 (optimized conformer: 72.09933761095107 kcal/mol)

>  <smiles>  (28) 
O=C(Nc1cccc(C(F)(F)F)c1)c1csc(-c2ccccn2)n1

>  <score_type>  (28) 
oracle

>  <origin>  (28) 
adg

>  <m_score__min__energy>  (28) 
-8.8399999999999999

>  <m_primary>  (28) 
energy

$$$$
28:0
     RDKit          3D

 51 55  0  0  0  0  0  0  0  0999 V2000
   -1.7290   21.8710  -26.7760 H   0  0  0  0  0  0  0  0  0  0  0  0
   -1.2280   21.0520  -26.3670 N   0  0  0  0  0  0  0  0  0  0  0  0
   -1.6380   19.6750  -27.3300 S   0  0  0  0  0  0  0  0  0  0  0  0
   -0.9610   18.4630  -26.7530 O   0  0  0  0  0  0  0  0  0  0  0  0
   -3.1270   19.4730  -27.3110 O   0  0  0  0  0  0  0  0  0  0  0  0
   -1.1020   19.9280  -28.9870 C   0  0  0  0  0  0  0  0  0  0  0  0
   -1.2760   21.1760  -29.5990 C   0  0  0  0  0  0  0  0  0  0  0  0
   -1.7411   22.0008  -29.0391 H   0  0  0  0  0  0  0  0  0  0  0  0
   -0.8610   21.3770  -30.9180 C   0  0  0  0  0  0  0  0  0  0  0  0
   -1.0043   22.3585  -31.3935 H   0  0  0  0  0  0  0  0  0  0  0  0
   -0.2620   20.3320  -31.6390 C   0  0  0  0  0  0  0  0  0  0  0  0
    0.1540   20.5400  -33.0710 C   0  0  0  0  0  0  0  0  0  0  0  0
    1.1863   20.9190  -33.0968 H   0  0  0  0  0  0  0  0  0  0  0  0
    0.0895   19.5797  -33.6036 H   0  0  0  0  0  0  0  0  0  0  0  0
   -0.7720   21.5510  -33.7570 C   0  0  0  0  0  0  0  0  0  0  0  0
   -0.8787   22.4371  -33.1140 H   0  0  0  0  0  0  0  0  0  0  0  0
   -0.3326   21.8328  -34.7253 H   0  0  0  0  0  0  0  0  0  0  0  0
   -2.0930   20.9660  -33.9920 N   0  0  0  0  0  0  0  0  0  0  0  0
   -3.1110   21.0990  -33.1960 C   0  0  0  0  0  0  0  0  0  0  0  0
   -3.2150   22.1780  -32.3660 N   0  0  0  0  0  0  0  0  0  0  0  0
   -4.2970   22.2670  -31.5590 C   0  0  0  0  0  0  0  0  0  0  0  0
   -4.6110   23.2550  -30.6550 C   0  0  0  0  0  0  0  0  0  0  0  0
   -3.8800   24.3380  -30.3580 C   0  0  0  0  0  0  0  0  0  0  0  0
   -4.1135   25.2774  -30.8804 H   0  0  0  0  0  0  0  0  0  0  0  0
   -2.7830   24.3480  -29.3750 C   0  0  0  0  0  0  0  0  0  0  0  0
   -1.8330   25.2980  -29.3410 N   0  0  0  0  0  0  0  0  0  0  0  0
   -1.0950   24.9670  -28.2590 C   0  0  0  0  0  0  0  0  0  0  0  0
   -0.0840   25.6260  -27.9010 O   0  0  0  0  0  0  0  0  0  0  0  0
   -1.5300   23.8800  -27.5880 N   0  0  0  0  0  0  0  0  0  0  0  0
   -2.6080   23.5060  -28.2970 C   0  0  0  0  0  0  0  0  0  0  0  0
   -3.4380   22.4480  -27.9410 O   0  0  0  0  0  0  0  0  0  0  0  0
   -3.0700   21.6510  -27.4370 H   0  0  0  0  0  0  0  0  0  0  0  0
   -5.8190   22.8210  -30.1050 C   0  0  0  0  0  0  0  0  0  0  0  0
   -6.3869   23.3515  -29.3265 H   0  0  0  0  0  0  0  0  0  0  0  0
   -6.1860   21.6480  -30.6750 N   0  0  0  0  0  0  0  0  0  0  0  0
   -5.2500   21.3310  -31.5570 N   0  0  0  0  0  0  0  0  0  0  0  0
   -5.1700   20.2420  -32.3740 C   0  0  0  0  0  0  0  0  0  0  0  0
   -6.0730   19.3030  -32.4030 N   0  0  0  0  0  0  0  0  0  0  0  0
   -7.3710   19.3660  -33.0670 C   0  0  0  0  0  0  0  0  0  0  0  0
   -7.0094   19.3234  -34.1050 H   0  0  0  0  0  0  0  0  0  0  0  0
   -8.4660   18.6850  -32.2670 C   0  0  0  0  0  0  0  0  0  0  0  0
   -9.2724   18.1461  -32.7858 H   0  0  0  0  0  0  0  0  0  0  0  0
   -8.4902   17.9409  -31.4572 H   0  0  0  0  0  0  0  0  0  0  0  0
   -8.4010   20.2040  -32.3320 C   0  0  0  0  0  0  0  0  0  0  0  0
   -9.1604   20.7636  -32.8979 H   0  0  0  0  0  0  0  0  0  0  0  0
   -8.3587   21.0138  -31.5888 H   0  0  0  0  0  0  0  0  0  0  0  0
   -4.0860   20.1400  -33.1930 N   0  0  0  0  0  0  0  0  0  0  0  0
   -0.1070   19.0760  -31.0310 C   0  0  0  0  0  0  0  0  0  0  0  0
    0.3434   18.2461  -31.5952 H   0  0  0  0  0  0  0  0  0  0  0  0
   -0.5230   18.8760  -29.7110 C   0  0  0  0  0  0  0  0  0  0  0  0
   -0.3956   17.8905  -29.2392 H   0  0  0  0  0  0  0  0  0  0  0  0
  1  2  1  0
  2  3  1  0
  3  4  2  0
  3  5  2  0
  3  6  1  0
  6  7  2  0
  7  8  1  0
  7  9  1  0
  9 10  1  0
  9 11  2  0
 11 12  1  0
 12 13  1  0
 12 14  1  0
 12 15  1  0
 15 16  1  0
 15 17  1  0
 15 18  1  0
 18 19  2  3
 19 20  1  0
 20 21  2  0
 21 22  1  0
 22 23  2  3
 23 24  1  0
 23 25  1  0
 25 26  1  0
 26 27  1  0
 27 28  2  0
 27 29  1  0
 29 30  1  0
 30 31  1  0
 31 32  1  0
 22 33  1  0
 33 34  1  0
 33 35  2  0
 35 36  1  0
 36 37  1  0
 37 38  2  0
 38 39  1  0
 39 40  1  0
 39 41  1  0
 41 42  1  0
 41 43  1  0
 41 44  1  0
 44 45  1  0
 44 46  1  0
 37 47  1  0
 11 48  1  0
 48 49  1  0
 48 50  2  0
 50 51  1  0
 50  6  1  0
 47 19  1  0
 36 21  1  0
 44 39  1  0
 30 25  2  0
M  CHG  4   2  -1  26  -1  29  -1  47  -1
M  END
>  <UniqueID>  (29) 
29

>  <SMILES>  (29) 
[NH-]S(=O)(=O)c1ccc(CCN=c2nc3c(=Cc4[n-]c(=O)[n-]c4O)cnn3/c(=N\C3CC3)[n-]2)cc1

>  <Energy>  (29) 
392.6185571562595

>  <Genealogy>  (29) 
[NH-]S(=O)(=O)c1ccc(CCN=c2nc3c(=Cc4[n-]c(=O)[n-]c4O)cnn3c(=NC3CC3)[n-]2)cc1 (protonated)
[NH-]S(=O)(=O)c1ccc(CCN=c2nc3c(=Cc4[n-]c(=O)[n-]c4O)cnn3/c(=N\C3CC3)[n-]2)cc1 (cis-trans isomerization)
[NH-]S(=O)(=O)c1ccc(CCN=c2nc3c(=Cc4[n-]c(=O)[n-]c4O)cnn3/c(=N\C3CC3)[n-]2)cc1 (3D coordinates assigned)
[NH-]S(=O)(=O)c1ccc(CCN=c2nc3c(=Cc4[n-]c(=O)[n-]c4O)cnn3/c(=N\C3CC3)[n-]2)cc1 (nonaromatic ring conformer: 392.6185571562595 kcal/mol)

>  <smiles>  (29) 
NS(=O)(=O)c1ccc(CCN=c2nc3c(=Cc4[nH]c(=O)[nH]c4O)cnn3c(=NC3CC3)[nH]2)cc1

>  <score_type>  (29) 
oracle

>  <origin>  (29) 
adg

>  <m_score__min__energy>  (29) 
-12.82

>  <m_primary>  (29) 
energy

$$$$
29:0
     RDKit          3D

 34 36  0  0  0  0  0  0  0  0999 V2000
   -2.7600   20.1440  -27.5030 C   0  0  0  0  0  0  0  0  0  0  0  0
   -2.4790   21.2750  -28.3220 O   0  0  0  0  0  0  0  0  0  0  0  0
   -3.4270   21.9300  -29.1210 C   0  0  0  0  0  0  0  0  0  0  0  0
   -4.2800   22.9290  -28.6160 C   0  0  0  0  0  0  0  0  0  0  0  0
   -5.2140   23.5480  -29.4520 C   0  0  0  0  0  0  0  0  0  0  0  0
   -5.3030   23.1890  -30.8050 C   0  0  0  0  0  0  0  0  0  0  0  0
   -4.4500   22.1960  -31.3080 C   0  0  0  0  0  0  0  0  0  0  0  0
   -3.5240   21.5660  -30.4690 C   0  0  0  0  0  0  0  0  0  0  0  0
   -4.6290   21.6710  -33.0090 S   0  0  0  0  0  0  0  0  0  0  0  0
   -6.1240   20.7670  -32.5940 C   0  0  0  0  0  0  0  0  0  0  0  0
   -6.0630   19.3680  -32.6420 C   0  0  0  0  0  0  0  0  0  0  0  0
   -7.1900   18.5890  -32.3730 C   0  0  0  0  0  0  0  0  0  0  0  0
   -7.0680   17.1940  -32.4440 O   0  0  0  0  0  0  0  0  0  0  0  0
   -6.4710   16.4930  -33.5300 C   0  0  0  0  0  0  0  0  0  0  0  0
   -8.3980   19.2250  -32.0440 C   0  0  0  0  0  0  0  0  0  0  0  0
   -8.4660   20.6170  -31.9730 C   0  0  0  0  0  0  0  0  0  0  0  0
   -7.3340   21.4150  -32.2300 C   0  0  0  0  0  0  0  0  0  0  0  0
   -7.4680   22.8970  -32.0650 C   0  0  0  0  0  0  0  0  0  0  0  0
   -8.6020   23.4200  -32.2440 O   0  0  0  0  0  0  0  0  0  0  0  0
   -6.3290   23.8290  -31.7090 C   0  0  0  0  0  0  0  0  0  0  0  0
   -2.6886   20.4316  -26.4437 H   0  0  0  0  0  0  0  0  0  0  0  0
   -3.7759   19.7801  -27.7164 H   0  0  0  0  0  0  0  0  0  0  0  0
   -2.0326   19.3469  -27.7164 H   0  0  0  0  0  0  0  0  0  0  0  0
   -4.2115   23.2242  -27.5586 H   0  0  0  0  0  0  0  0  0  0  0  0
   -5.8831   24.3212  -29.0463 H   0  0  0  0  0  0  0  0  0  0  0  0
   -2.8683   20.7798  -30.8714 H   0  0  0  0  0  0  0  0  0  0  0  0
   -5.1125   18.8758  -32.8955 H   0  0  0  0  0  0  0  0  0  0  0  0
   -5.8044   15.7102  -33.1390 H   0  0  0  0  0  0  0  0  0  0  0  0
   -7.2575   16.0313  -34.1450 H   0  0  0  0  0  0  0  0  0  0  0  0
   -5.8899   17.1959  -34.1450 H   0  0  0  0  0  0  0  0  0  0  0  0
   -9.2957   18.6225  -31.8411 H   0  0  0  0  0  0  0  0  0  0  0  0
   -9.4196   21.0992  -31.7120 H   0  0  0  0  0  0  0  0  0  0  0  0
   -5.8303   24.1435  -32.6376 H   0  0  0  0  0  0  0  0  0  0  0  0
   -6.7601   24.6822  -31.1648 H   0  0  0  0  0  0  0  0  0  0  0  0
  1  2  1  0
  2  3  1  0
  3  4  2  0
  4  5  1  0
  5  6  2  0
  6  7  1  0
  7  8  2  0
  7  9  1  0
  9 10  1  0
 10 11  2  0
 11 12  1  0
 12 13  1  0
 13 14  1  0
 12 15  2  0
 15 16  1  0
 16 17  2  0
 17 18  1  0
 18 19  2  0
 18 20  1  0
  8  3  1  0
 17 10  1  0
 20  6  1  0
  1 21  1  0
  1 22  1  0
  1 23  1  0
  4 24  1  0
  5 25  1  0
  8 26  1  0
 11 27  1  0
 14 28  1  0
 14 29  1  0
 14 30  1  0
 15 31  1  0
 16 32  1  0
 20 33  1  0
 20 34  1  0
M  END
>  <UniqueID>  (30) 
30

>  <SMILES>  (30) 
COc1ccc2c(c1)Sc1cc(OC)ccc1C(=O)C2

>  <Energy>  (30) 
43.191135396581906

>  <Genealogy>  (30) 
COc1ccc2c(c1)Sc1cc(OC)ccc1C(=O)C2 (3D coordinates assigned)
COc1ccc2c(c1)Sc1cc(OC)ccc1C(=O)C2 (nonaromatic ring conformer: 43.191135396581906 kcal/mol)

>  <smiles>  (30) 
COc1ccc2c(c1)Sc1cc(OC)ccc1C(=O)C2

>  <score_type>  (30) 
oracle

>  <origin>  (30) 
adg

>  <m_score__min__energy>  (30) 
-5.6100000000000003

>  <m_primary>  (30) 
energy

$$$$
30:0
     RDKit          3D

 28 30  0  0  1  0  0  0  0  0999 V2000
   -6.6930   25.6710  -29.3450 C   0  0  0  0  0  0  0  0  0  0  0  0
   -5.7960   24.6870  -29.9860 C   0  0  0  0  0  0  0  0  0  0  0  0
   -6.3110   23.8860  -30.9840 C   0  0  0  0  0  0  0  0  0  0  0  0
   -5.4620   22.9720  -31.5750 C   0  0  0  0  0  0  0  0  0  0  0  0
   -5.9300   22.2110  -32.5140 N   0  0  0  0  0  0  0  0  0  0  0  0
   -6.9050   21.2140  -32.3230 C   0  0  0  0  0  0  0  0  0  0  0  0
   -8.2060   21.4610  -31.9290 C   0  0  0  0  0  0  0  0  0  0  0  0
   -9.1150   20.4370  -31.7580 C   0  0  0  0  0  0  0  0  0  0  0  0
   -8.7600   19.1220  -31.9760 C   0  0  0  0  0  0  0  0  0  0  0  0
   -7.4580   18.8550  -32.3720 C   0  0  0  0  0  0  0  0  0  0  0  0
   -7.0200   17.5850  -32.6100 F   0  0  0  0  0  0  0  0  0  0  0  0
   -6.5490   19.8790  -32.5430 C   0  0  0  0  0  0  0  0  0  0  0  0
   -4.1710   22.8280  -31.2240 N   0  0  0  0  0  0  0  0  0  0  0  0
   -3.1990   22.0320  -31.6480 N   0  0  0  0  0  0  0  0  0  0  0  0
   -2.0790   22.3030  -30.9490 C   0  0  0  0  0  0  0  0  0  0  0  0
   -2.3830   23.2910  -30.0760 N   0  0  0  0  0  0  0  0  0  0  0  0
   -3.6970   23.6270  -30.2440 C   0  0  0  0  0  0  0  0  0  0  0  0
   -4.4940   24.5350  -29.6400 N   0  0  0  0  0  0  0  0  0  0  0  0
   -6.6125   25.5827  -28.2515 H   0  0  0  0  0  0  0  0  0  0  0  0
   -6.4034   26.6864  -29.6532 H   0  0  0  0  0  0  0  0  0  0  0  0
   -7.7308   25.4763  -29.6532 H   0  0  0  0  0  0  0  0  0  0  0  0
   -7.3617   23.9726  -31.2980 H   0  0  0  0  0  0  0  0  0  0  0  0
   -8.5246   22.4981  -31.7474 H   0  0  0  0  0  0  0  0  0  0  0  0
  -10.1417   20.6737  -31.4420 H   0  0  0  0  0  0  0  0  0  0  0  0
   -9.4883   18.3090  -31.8397 H   0  0  0  0  0  0  0  0  0  0  0  0
   -5.5227   19.6406  -32.8590 H   0  0  0  0  0  0  0  0  0  0  0  0
   -1.1012   21.8129  -31.0662 H   0  0  0  0  0  0  0  0  0  0  0  0
   -4.1210   25.1630  -28.8690 H   0  0  0  0  0  0  0  0  0  0  0  0
  1  2  1  0
  2  3  2  0
  3  4  1  0
  4  5  2  0
  5  6  1  0
  6  7  2  0
  7  8  1  0
  8  9  2  0
  9 10  1  0
 10 11  1  0
 10 12  2  0
  4 13  1  0
 13 14  1  0
 14 15  2  0
 15 16  1  0
 16 17  2  0
 17 18  1  0
 18  2  1  0
 12  6  1  0
 17 13  1  0
  1 19  1  0
  1 20  1  0
  1 21  1  0
  3 22  1  0
  7 23  1  0
  8 24  1  0
  9 25  1  0
 12 26  1  0
 15 27  1  0
 18 28  1  0
M  END
>  <smiles>  (31) 
Cc1cc(=Nc2cccc(F)c2)n2ncnc2[nH]1

>  <score_type>  (31) 
oracle

>  <origin>  (31) 
adg

>  <m_score__min__energy>  (31) 
-6.6399999999999997

>  <m_primary>  (31) 
energy

$$$$
31:0
     RDKit          3D

 55 57  0  0  0  0  0  0  0  0999 V2000
    1.7670   20.3900  -35.4400 C   0  0  0  0  0  0  0  0  0  0  0  0
    0.2690   20.1480  -35.6550 C   0  0  0  0  0  0  0  0  0  0  0  0
   -0.1400   18.8050  -35.0550 C   0  0  0  0  0  0  0  0  0  0  0  0
   -0.4940   21.1810  -35.0270 O   0  0  0  0  0  0  0  0  0  0  0  0
   -0.9990   21.1500  -33.7170 C   0  0  0  0  0  0  0  0  0  0  0  0
   -2.3740   21.2330  -33.4240 C   0  0  0  0  0  0  0  0  0  0  0  0
   -2.8170   21.1970  -32.0980 C   0  0  0  0  0  0  0  0  0  0  0  0
   -1.8980   21.0700  -31.0470 C   0  0  0  0  0  0  0  0  0  0  0  0
   -2.3810   21.0550  -29.6200 C   0  0  0  0  0  0  0  0  0  0  0  0
   -1.7020   22.0960  -28.8140 N   0  0  0  0  0  0  0  0  0  0  0  0
   -1.5550   23.3800  -29.5480 C   0  0  0  0  0  0  0  0  0  0  0  0
   -2.3940   24.5430  -28.9740 C   0  0  0  0  0  0  0  0  0  0  0  0
   -3.7800   24.0840  -28.4950 C   0  0  0  0  0  0  0  0  0  0  0  0
   -4.6330   23.7270  -29.6360 N   0  0  0  0  0  0  0  0  0  0  0  0
   -4.7040   24.5390  -30.8190 C   0  0  0  0  0  0  0  0  0  0  0  0
   -4.1590   25.6740  -30.8420 O   0  0  0  0  0  0  0  0  0  0  0  0
   -5.4480   24.1070  -31.9650 N   0  0  0  0  0  0  0  0  0  0  0  0
   -6.4310   23.0640  -31.9840 C   0  0  0  0  0  0  0  0  0  0  0  0
   -7.7620   23.2980  -31.5900 C   0  0  0  0  0  0  0  0  0  0  0  0
   -8.6900   22.2510  -31.5940 C   0  0  0  0  0  0  0  0  0  0  0  0
   -8.2940   20.9650  -31.9720 C   0  0  0  0  0  0  0  0  0  0  0  0
   -6.9670   20.7210  -32.3360 C   0  0  0  0  0  0  0  0  0  0  0  0
   -6.0370   21.7650  -32.3340 C   0  0  0  0  0  0  0  0  0  0  0  0
   -3.6770   22.9060  -27.4940 C   0  0  0  0  0  0  0  0  0  0  0  0
   -2.2810   22.2580  -27.4620 C   0  0  0  0  0  0  0  0  0  0  0  0
   -0.5290   20.9840  -31.3370 C   0  0  0  0  0  0  0  0  0  0  0  0
   -0.0860   21.0230  -32.6620 C   0  0  0  0  0  0  0  0  0  0  0  0
    1.9818   20.4247  -34.3617 H   0  0  0  0  0  0  0  0  0  0  0  0
    2.3404   19.5728  -35.9020 H   0  0  0  0  0  0  0  0  0  0  0  0
    2.0540   21.3461  -35.9020 H   0  0  0  0  0  0  0  0  0  0  0  0
    0.0733   20.1471  -36.7375 H   0  0  0  0  0  0  0  0  0  0  0  0
   -0.1195   18.8724  -33.9573 H   0  0  0  0  0  0  0  0  0  0  0  0
   -1.1568   18.5492  -35.3877 H   0  0  0  0  0  0  0  0  0  0  0  0
    0.5616   18.0259  -35.3877 H   0  0  0  0  0  0  0  0  0  0  0  0
   -3.1032   21.3266  -34.2422 H   0  0  0  0  0  0  0  0  0  0  0  0
   -3.8925   21.2687  -31.8785 H   0  0  0  0  0  0  0  0  0  0  0  0
   -3.4651   21.2407  -29.6061 H   0  0  0  0  0  0  0  0  0  0  0  0
   -2.1505   20.0716  -29.1844 H   0  0  0  0  0  0  0  0  0  0  0  0
   -0.4952   23.6734  -29.5191 H   0  0  0  0  0  0  0  0  0  0  0  0
   -1.9230   23.2017  -30.5692 H   0  0  0  0  0  0  0  0  0  0  0  0
   -1.8534   24.9821  -28.1226 H   0  0  0  0  0  0  0  0  0  0  0  0
   -2.5434   25.2781  -29.7786 H   0  0  0  0  0  0  0  0  0  0  0  0
   -4.2445   24.9284  -27.9647 H   0  0  0  0  0  0  0  0  0  0  0  0
   -5.2040   22.8540  -29.5970 H   0  0  0  0  0  0  0  0  0  0  0  0
   -8.0731   24.3060  -31.2784 H   0  0  0  0  0  0  0  0  0  0  0  0
   -9.7327   22.4402  -31.2992 H   0  0  0  0  0  0  0  0  0  0  0  0
   -9.0270   20.1448  -31.9830 H   0  0  0  0  0  0  0  0  0  0  0  0
   -6.6539   19.7067  -32.6243 H   0  0  0  0  0  0  0  0  0  0  0  0
   -4.9906   21.5660  -32.6085 H   0  0  0  0  0  0  0  0  0  0  0  0
   -3.9114   23.2814  -26.4870 H   0  0  0  0  0  0  0  0  0  0  0  0
   -4.3883   22.1341  -27.8231 H   0  0  0  0  0  0  0  0  0  0  0  0
   -1.6105   22.8933  -26.8646 H   0  0  0  0  0  0  0  0  0  0  0  0
   -2.3870   21.2559  -27.0208 H   0  0  0  0  0  0  0  0  0  0  0  0
    0.1993   20.8854  -30.5185 H   0  0  0  0  0  0  0  0  0  0  0  0
    0.9902   20.9533  -32.8786 H   0  0  0  0  0  0  0  0  0  0  0  0
  1  2  1  0
  2  3  1  0
  2  4  1  0
  4  5  1  0
  5  6  2  0
  6  7  1  0
  7  8  2  0
  8  9  1  0
  9 10  1  0
 10 11  1  0
 11 12  1  0
 12 13  1  0
 13 14  1  0
 14 15  1  0
 15 16  2  0
 15 17  1  0
 17 18  1  0
 18 19  2  0
 19 20  1  0
 20 21  2  0
 21 22  1  0
 22 23  2  0
 13 24  1  0
 24 25  1  0
  8 26  1  0
 26 27  2  0
 27  5  1  0
 25 10  1  0
 23 18  1  0
  1 28  1  0
  1 29  1  0
  1 30  1  0
  2 31  1  0
  3 32  1  0
  3 33  1  0
  3 34  1  0
  6 35  1  0
  7 36  1  0
  9 37  1  0
  9 38  1  0
 11 39  1  0
 11 40  1  0
 12 41  1  0
 12 42  1  0
 13 43  1  0
 14 44  1  0
 19 45  1  0
 20 46  1  0
 21 47  1  0
 22 48  1  0
 23 49  1  0
 24 50  1  0
 24 51  1  0
 25 52  1  0
 25 53  1  0
 26 54  1  0
 27 55  1  0
M  CHG  1  17  -1
M  END
>  <UniqueID>  (32) 
31

>  <SMILES>  (32) 
CC(C)Oc1ccc(CN2CCC(NC(=O)[N-]c3ccccc3)CC2)cc1

>  <Energy>  (32) 
64.08341869949828

>  <Genealogy>  (32) 
CC(C)Oc1ccc(CN2CCC(NC(=O)[N-]c3ccccc3)CC2)cc1 (protonated)
CC(C)Oc1ccc(CN2CCC(NC(=O)[N-]c3ccccc3)CC2)cc1 (3D coordinates assigned)
CC(C)Oc1ccc(CN2CCC(NC(=O)[N-]c3ccccc3)CC2)cc1 (nonaromatic ring conformer: 64.08341869949828 kcal/mol)

>  <smiles>  (32) 
CC(C)Oc1ccc(CN2CCC(NC(=O)Nc3ccccc3)CC2)cc1

>  <score_type>  (32) 
oracle

>  <origin>  (32) 
adg

>  <m_score__min__energy>  (32) 
-9.1500000000000004

>  <m_primary>  (32) 
energy

$$$$
32:0
     RDKit          3D

 56 58  0  0  0  0  0  0  0  0999 V2000
    1.7550   26.9120  -23.6750 C   0  0  0  0  0  0  0  0  0  0  0  0
    0.0060   27.1090  -23.9200 S   0  0  0  0  0  0  0  0  0  0  0  0
   -0.2930   28.5320  -24.2980 O   0  0  0  0  0  0  0  0  0  0  0  0
   -0.7190   26.7870  -22.6430 O   0  0  0  0  0  0  0  0  0  0  0  0
   -0.5310   26.0270  -25.2000 C   0  0  0  0  0  0  0  0  0  0  0  0
   -1.0450   26.5480  -26.3930 C   0  0  0  0  0  0  0  0  0  0  0  0
   -1.4850   25.6900  -27.4050 C   0  0  0  0  0  0  0  0  0  0  0  0
   -1.4230   24.2940  -27.2360 C   0  0  0  0  0  0  0  0  0  0  0  0
   -1.8920   23.3820  -28.3090 C   0  0  0  0  0  0  0  0  0  0  0  0
   -1.4400   23.5410  -29.6300 C   0  0  0  0  0  0  0  0  0  0  0  0
   -1.8840   22.6860  -30.6420 C   0  0  0  0  0  0  0  0  0  0  0  0
   -2.7960   21.6520  -30.3600 C   0  0  0  0  0  0  0  0  0  0  0  0
   -3.2630   20.7330  -31.4340 C   0  0  0  0  0  0  0  0  0  0  0  0
   -4.5610   20.3730  -31.5050 C   0  0  0  0  0  0  0  0  0  0  0  0
   -5.5670   20.9800  -32.4520 C   0  0  0  0  0  0  0  0  0  0  0  0
   -5.6260   22.5150  -32.3590 C   0  0  0  0  0  0  0  0  0  0  0  0
   -6.2570   23.0520  -31.0610 C   0  0  0  0  0  0  0  0  0  0  0  0
   -6.1040   24.5700  -30.9100 C   0  0  0  0  0  0  0  0  0  0  0  0
   -4.8250   24.8980  -30.2070 C   0  0  0  0  0  0  0  0  0  0  0  0
   -4.6340   24.5110  -29.0240 O   0  0  0  0  0  0  0  0  0  0  0  0
   -3.8600   25.6720  -30.8420 O   0  0  0  0  0  0  0  0  0  0  0  0
   -2.2880   20.2750  -32.4470 C   0  0  0  0  0  0  0  0  0  0  0  0
   -1.8550   21.1300  -33.4670 C   0  0  0  0  0  0  0  0  0  0  0  0
   -0.9420   20.6740  -34.4170 C   0  0  0  0  0  0  0  0  0  0  0  0
   -0.4730   19.3600  -34.3400 C   0  0  0  0  0  0  0  0  0  0  0  0
   -0.9090   18.5370  -33.3490 N   0  0  0  0  0  0  0  0  0  0  0  0
   -1.8000   18.9610  -32.4110 C   0  0  0  0  0  0  0  0  0  0  0  0
   -3.2370   21.4860  -29.0350 C   0  0  0  0  0  0  0  0  0  0  0  0
   -2.7940   22.3420  -28.0240 C   0  0  0  0  0  0  0  0  0  0  0  0
   -0.9130   23.7790  -26.0300 C   0  0  0  0  0  0  0  0  0  0  0  0
   -0.4730   24.6390  -25.0200 C   0  0  0  0  0  0  0  0  0  0  0  0
    1.9738   26.8874  -22.5973 H   0  0  0  0  0  0  0  0  0  0  0  0
    2.0864   25.9708  -24.1380 H   0  0  0  0  0  0  0  0  0  0  0  0
    2.2875   27.7559  -24.1380 H   0  0  0  0  0  0  0  0  0  0  0  0
   -1.1030   27.6373  -26.5348 H   0  0  0  0  0  0  0  0  0  0  0  0
   -1.8829   26.1091  -28.3410 H   0  0  0  0  0  0  0  0  0  0  0  0
   -0.7299   24.3462  -29.8696 H   0  0  0  0  0  0  0  0  0  0  0  0
   -1.5168   22.8225  -31.6699 H   0  0  0  0  0  0  0  0  0  0  0  0
   -4.9105   19.5819  -30.8253 H   0  0  0  0  0  0  0  0  0  0  0  0
   -5.2940   20.7008  -33.4804 H   0  0  0  0  0  0  0  0  0  0  0  0
   -6.5584   20.5938  -32.1727 H   0  0  0  0  0  0  0  0  0  0  0  0
   -4.5991   22.9032  -32.4280 H   0  0  0  0  0  0  0  0  0  0  0  0
   -6.2702   22.8540  -33.1837 H   0  0  0  0  0  0  0  0  0  0  0  0
   -7.3290   22.8053  -31.0630 H   0  0  0  0  0  0  0  0  0  0  0  0
   -5.7314   22.5806  -30.2175 H   0  0  0  0  0  0  0  0  0  0  0  0
   -6.0990   25.0347  -31.9070 H   0  0  0  0  0  0  0  0  0  0  0  0
   -6.9462   24.9562  -30.3171 H   0  0  0  0  0  0  0  0  0  0  0  0
   -2.2347   22.1611  -33.5191 H   0  0  0  0  0  0  0  0  0  0  0  0
   -0.5944   21.3419  -35.2190 H   0  0  0  0  0  0  0  0  0  0  0  0
    0.2500   18.9907  -35.0822 H   0  0  0  0  0  0  0  0  0  0  0  0
   -0.5520   17.5560  -33.3060 H   0  0  0  0  0  0  0  0  0  0  0  0
   -2.1377   18.2714  -31.6233 H   0  0  0  0  0  0  0  0  0  0  0  0
   -3.9380   20.6738  -28.7923 H   0  0  0  0  0  0  0  0  0  0  0  0
   -3.1546   22.2009  -26.9944 H   0  0  0  0  0  0  0  0  0  0  0  0
   -0.8602   22.6904  -25.8809 H   0  0  0  0  0  0  0  0  0  0  0  0
   -0.0796   24.2244  -24.0801 H   0  0  0  0  0  0  0  0  0  0  0  0
  1  2  1  0
  2  3  2  0
  2  4  2  0
  2  5  1  0
  5  6  2  0
  6  7  1  0
  7  8  2  0
  8  9  1  0
  9 10  2  0
 10 11  1  0
 11 12  2  0
 12 13  1  0
 13 14  2  3
 14 15  1  0
 15 16  1  0
 16 17  1  0
 17 18  1  0
 18 19  1  0
 19 20  2  0
 19 21  1  0
 13 22  1  0
 22 23  2  0
 23 24  1  0
 24 25  2  0
 25 26  1  0
 26 27  2  0
 12 28  1  0
 28 29  2  0
  8 30  1  0
 30 31  2  0
 31  5  1  0
 29  9  1  0
 27 22  1  0
  1 32  1  0
  1 33  1  0
  1 34  1  0
  6 35  1  0
  7 36  1  0
 10 37  1  0
 11 38  1  0
 14 39  1  0
 15 40  1  0
 15 41  1  0
 16 42  1  0
 16 43  1  0
 17 44  1  0
 17 45  1  0
 18 46  1  0
 18 47  1  0
 23 48  1  0
 24 49  1  0
 25 50  1  0
 26 51  1  0
 27 52  1  0
 28 53  1  0
 29 54  1  0
 30 55  1  0
 31 56  1  0
M  CHG  2  21  -1  26   1
M  END
>  <UniqueID>  (33) 
32

>  <SMILES>  (33) 
CS(=O)(=O)c1ccc(-c2ccc(C(=CCCCCC(=O)[O-])c3ccc[nH+]c3)cc2)cc1

>  <Energy>  (33) 
66.25631857122654

>  <Genealogy>  (33) 
CS(=O)(=O)c1ccc(-c2ccc(C(=CCCCCC(=O)[O-])c3ccc[nH+]c3)cc2)cc1 (protonated)
CS(=O)(=O)c1ccc(-c2ccc(C(=CCCCCC(=O)[O-])c3ccc[nH+]c3)cc2)cc1 (3D coordinates assigned)
CS(=O)(=O)c1ccc(-c2ccc(C(=CCCCCC(=O)[O-])c3ccc[nH+]c3)cc2)cc1 (optimized conformer: 66.25631857122654 kcal/mol)

>  <smiles>  (33) 
CS(=O)(=O)c1ccc(-c2ccc(C(=CCCCCC(=O)O)c3cccnc3)cc2)cc1

>  <score_type>  (33) 
oracle

>  <origin>  (33) 
adg

>  <m_score__min__energy>  (33) 
-9.9399999999999995

>  <m_primary>  (33) 
energy

$$$$
33:0
     RDKit          3D

 41 44  0  0  0  0  0  0  0  0999 V2000
   -6.4426   23.5753  -30.8539 H   0  0  0  0  0  0  0  0  0  0  0  0
   -5.7670   22.8190  -31.2800 C   0  0  0  0  0  0  0  0  0  0  0  0
   -6.2940   21.6280  -31.7880 C   0  0  0  0  0  0  0  0  0  0  0  0
   -7.3786   21.4519  -31.7376 H   0  0  0  0  0  0  0  0  0  0  0  0
   -5.4560   20.6450  -32.3660 C   0  0  0  0  0  0  0  0  0  0  0  0
   -6.0030   19.3970  -32.8950 N   0  0  0  0  0  0  0  0  0  0  0  0
   -7.0390   18.6770  -32.1250 C   0  0  0  0  0  0  0  0  0  0  0  0
   -6.6065   18.3730  -31.1604 H   0  0  0  0  0  0  0  0  0  0  0  0
   -7.8880   19.3660  -32.0051 H   0  0  0  0  0  0  0  0  0  0  0  0
   -7.5720   17.4280  -32.8310 C   0  0  0  0  0  0  0  0  0  0  0  0
   -8.0194   16.7556  -32.0842 H   0  0  0  0  0  0  0  0  0  0  0  0
   -8.3255   17.7371  -33.5704 H   0  0  0  0  0  0  0  0  0  0  0  0
   -6.5370   16.7490  -33.5010 O   0  0  0  0  0  0  0  0  0  0  0  0
   -6.1220   17.5370  -34.5900 C   0  0  0  0  0  0  0  0  0  0  0  0
   -5.4349   16.9504  -35.2176 H   0  0  0  0  0  0  0  0  0  0  0  0
   -7.0103   17.8348  -35.1664 H   0  0  0  0  0  0  0  0  0  0  0  0
   -5.4050   18.8020  -34.1090 C   0  0  0  0  0  0  0  0  0  0  0  0
   -4.3576   18.5462  -33.8910 H   0  0  0  0  0  0  0  0  0  0  0  0
   -5.4955   19.5486  -34.9118 H   0  0  0  0  0  0  0  0  0  0  0  0
   -4.0680   20.9160  -32.4120 C   0  0  0  0  0  0  0  0  0  0  0  0
   -3.3871   20.1757  -32.8573 H   0  0  0  0  0  0  0  0  0  0  0  0
   -3.5470   22.1090  -31.9010 C   0  0  0  0  0  0  0  0  0  0  0  0
   -2.4664   22.3046  -31.9645 H   0  0  0  0  0  0  0  0  0  0  0  0
   -4.3930   23.0580  -31.3080 C   0  0  0  0  0  0  0  0  0  0  0  0
   -3.8990   24.3100  -30.8020 N   0  0  0  0  0  0  0  0  0  0  0  0
   -3.5290   24.5690  -29.5800 C   0  0  0  0  0  0  0  0  0  0  0  0
   -2.3050   25.0960  -29.3050 N   0  0  0  0  0  0  0  0  0  0  0  0
   -1.9100   25.3430  -28.0290 C   0  0  0  0  0  0  0  0  0  0  0  0
   -0.6490   25.8930  -27.7700 C   0  0  0  0  0  0  0  0  0  0  0  0
    0.0316   26.1279  -28.6016 H   0  0  0  0  0  0  0  0  0  0  0  0
   -0.2570   26.1430  -26.4510 C   0  0  0  0  0  0  0  0  0  0  0  0
    0.7331   26.5765  -26.2465 H   0  0  0  0  0  0  0  0  0  0  0  0
   -1.1190   25.8440  -25.3910 C   0  0  0  0  0  0  0  0  0  0  0  0
   -0.7320   26.0870  -24.1150 F   0  0  0  0  0  0  0  0  0  0  0  0
   -2.3810   25.2930  -25.6440 C   0  0  0  0  0  0  0  0  0  0  0  0
   -3.0570   25.0594  -24.8083 H   0  0  0  0  0  0  0  0  0  0  0  0
   -2.7830   25.0390  -26.9640 C   0  0  0  0  0  0  0  0  0  0  0  0
   -4.0040   24.5010  -27.2380 N   0  0  0  0  0  0  0  0  0  0  0  0
   -4.6640   24.2650  -26.4620 H   0  0  0  0  0  0  0  0  0  0  0  0
   -4.3910   24.2570  -28.5200 C   0  0  0  0  0  0  0  0  0  0  0  0
   -5.3780   23.8160  -28.7235 H   0  0  0  0  0  0  0  0  0  0  0  0
  1  2  1  0
  2  3  2  0
  3  4  1  0
  3  5  1  0
  5  6  1  0
  6  7  1  0
  7  8  1  0
  7  9  1  0
  7 10  1  0
 10 11  1  0
 10 12  1  0
 10 13  1  0
 13 14  1  0
 14 15  1  0
 14 16  1  0
 14 17  1  0
 17 18  1  0
 17 19  1  0
  5 20  2  0
 20 21  1  0
 20 22  1  0
 22 23  1  0
 22 24  2  0
 24 25  1  0
 25 26  2  0
 26 27  1  0
 27 28  1  0
 28 29  2  0
 29 30  1  0
 29 31  1  0
 31 32  1  0
 31 33  2  0
 33 34  1  0
 33 35  1  0
 35 36  1  0
 35 37  2  0
 37 38  1  0
 38 39  1  0
 38 40  2  0
 40 41  1  0
 24  2  1  0
 40 26  1  0
 17  6  1  0
 37 28  1  0
M  CHG  2  27  -1  38   1
M  END
>  <UniqueID>  (34) 
33

>  <SMILES>  (34) 
Fc1ccc2[n-]/c(=N\c3ccc(N4CCOCC4)cc3)c[nH+]c2c1

>  <Energy>  (34) 
62.454409997498125

>  <Genealogy>  (34) 
Fc1ccc2[n-]c(=Nc3ccc(N4CCOCC4)cc3)c[nH+]c2c1 (protonated)
Fc1ccc2[n-]/c(=N\c3ccc(N4CCOCC4)cc3)c[nH+]c2c1 (cis-trans isomerization)
Fc1ccc2[n-]/c(=N\c3ccc(N4CCOCC4)cc3)c[nH+]c2c1 (3D coordinates assigned)
Fc1ccc2[n-]/c(=N\c3ccc(N4CCOCC4)cc3)c[nH+]c2c1 (nonaromatic ring conformer: 62.454409997498125 kcal/mol)

>  <smiles>  (34) 
Fc1ccc2[nH]c(=Nc3ccc(N4CCOCC4)cc3)cnc2c1

>  <score_type>  (34) 
oracle

>  <origin>  (34) 
adg

>  <m_score__min__energy>  (34) 
-8.8200000000000003

>  <m_primary>  (34) 
energy

$$$$
34:0
     RDKit          3D

 31 33  0  0  0  0  0  0  0  0999 V2000
   -4.1880   22.2630  -32.3570 C   0  0  0  0  0  0  0  0  0  0  0  0
   -4.7470   23.2130  -31.3310 C   0  0  0  0  0  0  0  0  0  0  0  0
   -3.9480   23.5790  -30.2330 C   0  0  0  0  0  0  0  0  0  0  0  0
   -4.4410   24.4410  -29.2510 C   0  0  0  0  0  0  0  0  0  0  0  0
   -5.7370   24.9430  -29.3480 C   0  0  0  0  0  0  0  0  0  0  0  0
   -6.5460   24.5890  -30.4300 C   0  0  0  0  0  0  0  0  0  0  0  0
   -6.0640   23.7320  -31.4350 C   0  0  0  0  0  0  0  0  0  0  0  0
   -6.9890   23.3520  -32.5710 C   0  0  0  0  0  0  0  0  0  0  0  0
   -7.8710   22.2530  -32.1710 N   0  0  0  0  0  0  0  0  0  0  0  0
   -9.0940   22.3690  -31.5960 C   0  0  0  0  0  0  0  0  0  0  0  0
   -9.7020   21.1740  -31.3780 N   0  0  0  0  0  0  0  0  0  0  0  0
   -8.8080   20.2870  -31.8540 C   0  0  0  0  0  0  0  0  0  0  0  0
   -8.9260   18.9000  -31.8850 C   0  0  0  0  0  0  0  0  0  0  0  0
   -7.8630   18.1640  -32.4400 C   0  0  0  0  0  0  0  0  0  0  0  0
   -6.7220   18.8260  -32.9460 C   0  0  0  0  0  0  0  0  0  0  0  0
   -6.6320   20.2300  -32.9000 C   0  0  0  0  0  0  0  0  0  0  0  0
   -7.7050   20.9300  -32.3390 C   0  0  0  0  0  0  0  0  0  0  0  0
   -3.6935   21.4227  -31.8477 H   0  0  0  0  0  0  0  0  0  0  0  0
   -5.0051   21.8807  -32.9864 H   0  0  0  0  0  0  0  0  0  0  0  0
   -3.4570   22.7917  -32.9864 H   0  0  0  0  0  0  0  0  0  0  0  0
   -2.9255   23.1827  -30.1469 H   0  0  0  0  0  0  0  0  0  0  0  0
   -3.8049   24.7241  -28.3994 H   0  0  0  0  0  0  0  0  0  0  0  0
   -6.1236   25.6192  -28.5713 H   0  0  0  0  0  0  0  0  0  0  0  0
   -7.5703   24.9845  -30.4966 H   0  0  0  0  0  0  0  0  0  0  0  0
   -7.6001   24.2240  -32.8469 H   0  0  0  0  0  0  0  0  0  0  0  0
   -6.3824   23.0261  -33.4288 H   0  0  0  0  0  0  0  0  0  0  0  0
   -9.5486   23.3353  -31.3323 H   0  0  0  0  0  0  0  0  0  0  0  0
   -9.8202   18.3965  -31.4889 H   0  0  0  0  0  0  0  0  0  0  0  0
   -7.9207   17.0662  -32.4802 H   0  0  0  0  0  0  0  0  0  0  0  0
   -5.8980   18.2400  -33.3791 H   0  0  0  0  0  0  0  0  0  0  0  0
   -5.7496   20.7576  -33.2912 H   0  0  0  0  0  0  0  0  0  0  0  0
  1  2  1  0
  2  3  2  0
  3  4  1  0
  4  5  2  0
  5  6  1  0
  6  7  2  0
  7  8  1  0
  8  9  1  0
  9 10  1  0
 10 11  2  0
 11 12  1  0
 12 13  2  0
 13 14  1  0
 14 15  2  0
 15 16  1  0
 16 17  2  0
  7  2  1  0
 17  9  1  0
 17 12  1  0
  1 18  1  0
  1 19  1  0
  1 20  1  0
  3 21  1  0
  4 22  1  0
  5 23  1  0
  6 24  1  0
  8 25  1  0
  8 26  1  0
 10 27  1  0
 13 28  1  0
 14 29  1  0
 15 30  1  0
 16 31  1  0
M  END
>  <UniqueID>  (35) 
34

>  <SMILES>  (35) 
Cc1ccccc1Cn1cnc2ccccc21

>  <Energy>  (35) 
70.93532234918406

>  <Genealogy>  (35) 
Cc1ccccc1Cn1cnc2ccccc21 (3D coordinates assigned)
Cc1ccccc1Cn1cnc2ccccc21 (optimized conformer: 70.93532234918406 kcal/mol)

>  <smiles>  (35) 
Cc1ccccc1Cn1cnc2ccccc21

>  <score_type>  (35) 
oracle

>  <origin>  (35) 
adg

>  <m_score__min__energy>  (35) 
-7.1500000000000004

>  <m_primary>  (35) 
energy

$$$$
35:0
     RDKit          3D

 39 39  0  0  0  0  0  0  0  0999 V2000
   -4.3653   22.8284  -27.0201 H   0  0  0  0  0  0  0  0  0  0  0  0
   -3.9060   23.4510  -27.8020 C   0  0  0  0  0  0  0  0  0  0  0  0
   -3.6007   24.4831  -27.5747 H   0  0  0  0  0  0  0  0  0  0  0  0
   -3.7190   22.9540  -29.0270 C   0  0  0  0  0  0  0  0  0  0  0  0
   -4.0295   21.9202  -29.2391 H   0  0  0  0  0  0  0  0  0  0  0  0
   -3.0950   23.7710  -30.1240 C   0  0  0  0  0  0  0  0  0  0  0  0
   -2.7034   24.7071  -29.6994 H   0  0  0  0  0  0  0  0  0  0  0  0
   -2.2801   23.1892  -30.5794 H   0  0  0  0  0  0  0  0  0  0  0  0
   -4.0590   24.0800  -31.1320 O   0  0  0  0  0  0  0  0  0  0  0  0
   -5.2250   23.3360  -31.3560 C   0  0  0  0  0  0  0  0  0  0  0  0
   -6.4280   23.7800  -30.7880 C   0  0  0  0  0  0  0  0  0  0  0  0
   -6.4730   25.3710  -29.7260 Br  0  0  0  0  0  0  0  0  0  0  0  0
   -7.6150   23.0780  -31.0100 C   0  0  0  0  0  0  0  0  0  0  0  0
   -8.5530   23.4335  -30.5586 H   0  0  0  0  0  0  0  0  0  0  0  0
   -7.6180   21.9240  -31.8040 C   0  0  0  0  0  0  0  0  0  0  0  0
   -8.8930   21.1520  -32.0150 C   0  0  0  0  0  0  0  0  0  0  0  0
   -9.2925   20.8385  -31.0392 H   0  0  0  0  0  0  0  0  0  0  0  0
   -9.6191   21.7970  -32.5315 H   0  0  0  0  0  0  0  0  0  0  0  0
   -8.6420   19.9650  -32.8380 N   0  0  0  0  0  0  0  0  0  0  0  0
   -8.7340   20.0430  -33.8770 H   0  0  0  0  0  0  0  0  0  0  0  0
   -8.3690   18.7890  -32.3480 C   0  0  0  0  0  0  0  0  0  0  0  0
   -9.1667   18.2306  -31.8362 H   0  0  0  0  0  0  0  0  0  0  0  0
   -7.0650   18.1940  -32.4510 N   0  0  0  0  0  0  0  0  0  0  0  0
   -6.3840   17.7850  -31.2260 C   0  0  0  0  0  0  0  0  0  0  0  0
   -6.9589   18.1303  -30.3541 H   0  0  0  0  0  0  0  0  0  0  0  0
   -6.3024   16.6883  -31.2005 H   0  0  0  0  0  0  0  0  0  0  0  0
   -5.3776   18.2282  -31.2005 H   0  0  0  0  0  0  0  0  0  0  0  0
   -6.4760   17.8840  -33.7550 C   0  0  0  0  0  0  0  0  0  0  0  0
   -5.5111   17.3761  -33.6101 H   0  0  0  0  0  0  0  0  0  0  0  0
   -7.1555   17.2267  -34.3173 H   0  0  0  0  0  0  0  0  0  0  0  0
   -6.3189   18.8163  -34.3173 H   0  0  0  0  0  0  0  0  0  0  0  0
   -6.4100   21.4520  -32.3390 C   0  0  0  0  0  0  0  0  0  0  0  0
   -6.4037   20.5312  -32.9407 H   0  0  0  0  0  0  0  0  0  0  0  0
   -5.2050   22.1460  -32.1130 C   0  0  0  0  0  0  0  0  0  0  0  0
   -3.9780   21.6680  -32.5990 O   0  0  0  0  0  0  0  0  0  0  0  0
   -3.7840   20.3870  -33.1890 C   0  0  0  0  0  0  0  0  0  0  0  0
   -3.6697   19.6321  -32.3971 H   0  0  0  0  0  0  0  0  0  0  0  0
   -4.6542   20.1351  -33.8129 H   0  0  0  0  0  0  0  0  0  0  0  0
   -2.8782   20.4040  -33.8129 H   0  0  0  0  0  0  0  0  0  0  0  0
  1  2  1  0
  2  3  1  0
  2  4  2  0
  4  5  1  0
  4  6  1  0
  6  7  1  0
  6  8  1  0
  6  9  1  0
  9 10  1  0
 10 11  2  0
 11 12  1  0
 11 13  1  0
 13 14  1  0
 13 15  2  0
 15 16  1  0
 16 17  1  0
 16 18  1  0
 16 19  1  0
 19 20  1  0
 19 21  2  0
 21 22  1  0
 21 23  1  0
 23 24  1  0
 24 25  1  0
 24 26  1  0
 24 27  1  0
 23 28  1  0
 28 29  1  0
 28 30  1  0
 28 31  1  0
 15 32  1  0
 32 33  1  0
 32 34  2  0
 34 35  1  0
 35 36  1  0
 36 37  1  0
 36 38  1  0
 36 39  1  0
 34 10  1  0
M  CHG  1  19   1
M  END
>  <UniqueID>  (36) 
35

>  <SMILES>  (36) 
C=CCOc1c(Br)cc(C/[NH+]=C\N(C)C)cc1OC

>  <Energy>  (36) 
40.380489538871615

>  <Genealogy>  (36) 
C=CCOc1c(Br)cc(C[NH+]=CN(C)C)cc1OC (protonated)
C=CCOc1c(Br)cc(C/[NH+]=C\N(C)C)cc1OC (cis-trans isomerization)
C=CCOc1c(Br)cc(C/[NH+]=C\N(C)C)cc1OC (3D coordinates assigned)
C=CCOc1c(Br)cc(C/[NH+]=C\N(C)C)cc1OC (optimized conformer: 40.380489538871615 kcal/mol)

>  <smiles>  (36) 
C=CCOc1c(Br)cc(CN=CN(C)C)cc1OC

>  <score_type>  (36) 
oracle

>  <origin>  (36) 
adg

>  <m_score__min__energy>  (36) 
-6.46

>  <m_primary>  (36) 
energy

$$$$
36:0
     RDKit          3D

 37 38  0  0  0  0  0  0  0  0999 V2000
   -2.0650   21.7270  -32.3570 C   0  0  0  0  0  0  0  0  0  0  0  0
   -2.4040   22.1490  -30.9930 N   0  0  0  0  0  0  0  0  0  0  0  0
   -3.0730   21.0890  -30.2160 C   0  0  0  0  0  0  0  0  0  0  0  0
   -3.1300   21.3580  -28.6990 C   0  0  0  0  0  0  0  0  0  0  0  0
   -4.1950   22.3910  -28.3110 C   0  0  0  0  0  0  0  0  0  0  0  0
   -4.2080   23.5340  -29.2880 C   0  0  0  0  0  0  0  0  0  0  0  0
   -3.2770   24.5490  -29.3530 C   0  0  0  0  0  0  0  0  0  0  0  0
   -3.4880   25.2750  -30.4670 N   0  0  0  0  0  0  0  0  0  0  0  0
   -4.5120   24.7540  -31.1260 N   0  0  0  0  0  0  0  0  0  0  0  0
   -4.9740   23.6960  -30.4320 C   0  0  0  0  0  0  0  0  0  0  0  0
   -6.0660   22.8290  -30.9150 C   0  0  0  0  0  0  0  0  0  0  0  0
   -7.2550   22.7320  -30.1760 C   0  0  0  0  0  0  0  0  0  0  0  0
   -8.3010   21.9190  -30.6210 C   0  0  0  0  0  0  0  0  0  0  0  0
   -8.1620   21.1700  -31.7990 C   0  0  0  0  0  0  0  0  0  0  0  0
   -9.3020   20.3250  -32.2980 C   0  0  0  0  0  0  0  0  0  0  0  0
   -8.8280   19.0710  -32.7070 O   0  0  0  0  0  0  0  0  0  0  0  0
   -6.9710   21.2580  -32.5350 C   0  0  0  0  0  0  0  0  0  0  0  0
   -5.9260   22.0730  -32.0890 C   0  0  0  0  0  0  0  0  0  0  0  0
   -1.3766   20.8700  -32.3153 H   0  0  0  0  0  0  0  0  0  0  0  0
   -2.9823   21.4348  -32.8891 H   0  0  0  0  0  0  0  0  0  0  0  0
   -1.5819   22.5598  -32.8891 H   0  0  0  0  0  0  0  0  0  0  0  0
   -1.5130   22.3930  -30.5000 H   0  0  0  0  0  0  0  0  0  0  0  0
   -2.9910   23.0140  -31.0250 H   0  0  0  0  0  0  0  0  0  0  0  0
   -4.1034   20.9872  -30.5873 H   0  0  0  0  0  0  0  0  0  0  0  0
   -2.4784   20.1737  -30.3527 H   0  0  0  0  0  0  0  0  0  0  0  0
   -3.3553   20.4125  -28.1840 H   0  0  0  0  0  0  0  0  0  0  0  0
   -2.1530   21.7664  -28.4013 H   0  0  0  0  0  0  0  0  0  0  0  0
   -5.1830   21.9073  -28.3080 H   0  0  0  0  0  0  0  0  0  0  0  0
   -3.9590   22.7835  -27.3109 H   0  0  0  0  0  0  0  0  0  0  0  0
   -2.4864   24.7361  -28.6114 H   0  0  0  0  0  0  0  0  0  0  0  0
   -7.3644   23.2997  -29.2402 H   0  0  0  0  0  0  0  0  0  0  0  0
   -9.2369   21.8662  -30.0454 H   0  0  0  0  0  0  0  0  0  0  0  0
  -10.0364   20.1907  -31.4901 H   0  0  0  0  0  0  0  0  0  0  0  0
   -9.7756   20.8280  -33.1540 H   0  0  0  0  0  0  0  0  0  0  0  0
   -8.8320   19.0770  -33.7000 H   0  0  0  0  0  0  0  0  0  0  0  0
   -6.8588   20.6837  -33.4665 H   0  0  0  0  0  0  0  0  0  0  0  0
   -4.9883   22.1219  -32.6620 H   0  0  0  0  0  0  0  0  0  0  0  0
  1  2  1  0
  2  3  1  0
  3  4  1  0
  4  5  1  0
  5  6  1  0
  6  7  2  0
  7  8  1  0
  8  9  1  0
  9 10  2  0
 10 11  1  0
 11 12  2  0
 12 13  1  0
 13 14  2  0
 14 15  1  0
 15 16  1  0
 14 17  1  0
 17 18  2  0
 10  6  1  0
 18 11  1  0
  1 19  1  0
  1 20  1  0
  1 21  1  0
  2 22  1  0
  2 23  1  0
  3 24  1  0
  3 25  1  0
  4 26  1  0
  4 27  1  0
  5 28  1  0
  5 29  1  0
  7 30  1  0
 12 31  1  0
 13 32  1  0
 15 33  1  0
 15 34  1  0
 16 35  1  0
 17 36  1  0
 18 37  1  0
M  CHG  2   2   1   8  -1
M  END
>  <UniqueID>  (37) 
36

>  <SMILES>  (37) 
C[NH2+]CCCc1c[n-]nc1-c1ccc(CO)cc1

>  <Energy>  (37) 
66.62426247119258

>  <Genealogy>  (37) 
C[NH2+]CCCc1c[n-]nc1-c1ccc(CO)cc1 (protonated)
C[NH2+]CCCc1c[n-]nc1-c1ccc(CO)cc1 (3D coordinates assigned)
C[NH2+]CCCc1c[n-]nc1-c1ccc(CO)cc1 (optimized conformer: 66.62426247119258 kcal/mol)

>  <smiles>  (37) 
CNCCCc1c[nH]nc1-c1ccc(CO)cc1

>  <score_type>  (37) 
oracle

>  <origin>  (37) 
adg

>  <m_score__min__energy>  (37) 
-7.1299999999999999

>  <m_primary>  (37) 
energy

$$$$
37:0
     RDKit          3D

 32 33  0  0  0  0  0  0  0  0999 V2000
   -3.8750   20.4790  -33.0900 C   0  0  0  0  0  0  0  0  0  0  0  0
   -3.0140   21.1430  -32.0560 C   0  0  0  0  0  0  0  0  0  0  0  0
   -1.8150   20.5430  -31.6420 C   0  0  0  0  0  0  0  0  0  0  0  0
   -1.0290   21.1490  -30.6590 C   0  0  0  0  0  0  0  0  0  0  0  0
   -1.4400   22.3490  -30.0720 C   0  0  0  0  0  0  0  0  0  0  0  0
   -2.6460   22.9460  -30.4620 C   0  0  0  0  0  0  0  0  0  0  0  0
   -3.1420   24.4690  -29.7270 S   0  0  0  0  0  0  0  0  0  0  0  0
   -3.9670   24.2080  -28.4970 O   0  0  0  0  0  0  0  0  0  0  0  0
   -1.9120   25.2280  -29.3190 O   0  0  0  0  0  0  0  0  0  0  0  0
   -4.0610   25.4390  -30.8440 N   0  0  0  0  0  0  0  0  0  0  0  0
   -5.4700   25.5270  -30.4530 C   0  0  0  0  0  0  0  0  0  0  0  0
   -6.2140   24.2620  -30.7910 C   0  0  0  0  0  0  0  0  0  0  0  0
   -6.8630   23.5340  -29.7800 C   0  0  0  0  0  0  0  0  0  0  0  0
   -7.5450   22.3540  -30.0910 C   0  0  0  0  0  0  0  0  0  0  0  0
   -7.5860   21.8940  -31.4100 C   0  0  0  0  0  0  0  0  0  0  0  0
   -8.2460   20.7480  -31.7080 F   0  0  0  0  0  0  0  0  0  0  0  0
   -6.9470   22.6160  -32.4220 C   0  0  0  0  0  0  0  0  0  0  0  0
   -6.2660   23.7980  -32.1170 C   0  0  0  0  0  0  0  0  0  0  0  0
   -3.4350   22.3360  -31.4500 C   0  0  0  0  0  0  0  0  0  0  0  0
   -4.6513   19.8803  -32.5912 H   0  0  0  0  0  0  0  0  0  0  0  0
   -4.3509   21.2462  -33.7184 H   0  0  0  0  0  0  0  0  0  0  0  0
   -3.2539   19.8237  -33.7184 H   0  0  0  0  0  0  0  0  0  0  0  0
   -1.4931   19.5927  -32.0928 H   0  0  0  0  0  0  0  0  0  0  0  0
   -0.0842   20.6806  -30.3461 H   0  0  0  0  0  0  0  0  0  0  0  0
   -0.8153   22.8257  -29.3022 H   0  0  0  0  0  0  0  0  0  0  0  0
   -5.5303   25.6987  -29.3682 H   0  0  0  0  0  0  0  0  0  0  0  0
   -5.9315   26.3584  -31.0060 H   0  0  0  0  0  0  0  0  0  0  0  0
   -6.8345   23.8934  -28.7408 H   0  0  0  0  0  0  0  0  0  0  0  0
   -8.0504   21.7864  -29.2958 H   0  0  0  0  0  0  0  0  0  0  0  0
   -6.9801   22.2535  -33.4600 H   0  0  0  0  0  0  0  0  0  0  0  0
   -5.7693   24.3668  -32.9169 H   0  0  0  0  0  0  0  0  0  0  0  0
   -4.3881   22.7958  -31.7504 H   0  0  0  0  0  0  0  0  0  0  0  0
  1  2  1  0
  2  3  2  0
  3  4  1  0
  4  5  2  0
  5  6  1  0
  6  7  1  0
  7  8  2  0
  7  9  2  0
  7 10  1  0
 10 11  1  0
 11 12  1  0
 12 13  2  0
 13 14  1  0
 14 15  2  0
 15 16  1  0
 15 17  1  0
 17 18  2  0
  6 19  2  0
 19  2  1  0
 18 12  1  0
  1 20  1  0
  1 21  1  0
  1 22  1  0
  3 23  1  0
  4 24  1  0
  5 25  1  0
 11 26  1  0
 11 27  1  0
 13 28  1  0
 14 29  1  0
 17 30  1  0
 18 31  1  0
 19 32  1  0
M  CHG  1  10  -1
M  END
>  <UniqueID>  (38) 
37

>  <SMILES>  (38) 
Cc1cccc(S(=O)(=O)[N-]Cc2ccc(F)cc2)c1

>  <Energy>  (38) 
29.86088988181135

>  <Genealogy>  (38) 
Cc1cccc(S(=O)(=O)[N-]Cc2ccc(F)cc2)c1 (protonated)
Cc1cccc(S(=O)(=O)[N-]Cc2ccc(F)cc2)c1 (3D coordinates assigned)
Cc1cccc(S(=O)(=O)[N-]Cc2ccc(F)cc2)c1 (optimized conformer: 29.86088988181135 kcal/mol)

>  <smiles>  (38) 
Cc1cccc(S(=O)(=O)NCc2ccc(F)cc2)c1

>  <score_type>  (38) 
oracle

>  <origin>  (38) 
adg

>  <m_score__min__energy>  (38) 
-8.3800000000000008

>  <m_primary>  (38) 
energy

$$$$
38:0
     RDKit          3D

 59 63  0  0  0  0  0  0  0  0999 V2000
   -8.8860   21.9130  -31.9330 O   0  0  0  0  0  0  0  0  0  0  0  0
   -7.6480   21.6720  -31.9090 C   0  0  0  0  0  0  0  0  0  0  0  0
   -7.1480   20.3660  -32.3890 C   0  0  0  0  0  0  0  0  0  0  0  0
   -6.5810   20.2460  -33.6680 C   0  0  0  0  0  0  0  0  0  0  0  0
   -6.1100   19.0120  -34.1210 C   0  0  0  0  0  0  0  0  0  0  0  0
   -6.2000   17.8730  -33.3080 C   0  0  0  0  0  0  0  0  0  0  0  0
   -5.7410   16.6090  -33.8140 N   0  0  0  0  0  0  0  0  0  0  0  0
   -4.2660   16.4280  -34.7100 S   0  0  0  0  0  0  0  0  0  0  0  0
   -4.3530   17.2480  -35.9670 O   0  0  0  0  0  0  0  0  0  0  0  0
   -4.0810   14.9840  -35.0790 O   0  0  0  0  0  0  0  0  0  0  0  0
   -2.8920   16.9400  -33.7270 C   0  0  0  0  0  0  0  0  0  0  0  0
   -2.0460   15.9860  -33.1270 C   0  0  0  0  0  0  0  0  0  0  0  0
   -0.9330   16.3930  -32.3650 C   0  0  0  0  0  0  0  0  0  0  0  0
   -0.6500   17.7560  -32.1940 C   0  0  0  0  0  0  0  0  0  0  0  0
   -1.5000   18.6810  -32.7910 C   0  0  0  0  0  0  0  0  0  0  0  0
   -1.4100   20.3550  -32.7610 S   0  0  0  0  0  0  0  0  0  0  0  0
   -2.7980   20.5270  -33.7130 C   0  0  0  0  0  0  0  0  0  0  0  0
   -3.3270   19.3270  -34.0510 N   0  0  0  0  0  0  0  0  0  0  0  0
   -2.6020   18.2990  -33.5390 C   0  0  0  0  0  0  0  0  0  0  0  0
   -6.7400   17.9970  -32.0160 C   0  0  0  0  0  0  0  0  0  0  0  0
   -7.2070   19.2330  -31.5600 C   0  0  0  0  0  0  0  0  0  0  0  0
   -6.7480   22.6660  -31.3960 N   0  0  0  0  0  0  0  0  0  0  0  0
   -5.6280   23.1420  -32.2150 C   0  0  0  0  0  0  0  0  0  0  0  0
   -4.4040   23.3540  -31.3240 C   0  0  0  0  0  0  0  0  0  0  0  0
   -4.6680   24.3970  -30.1920 C   0  0  0  0  0  0  0  0  0  0  0  0
   -4.2070   25.6570  -30.6310 O   0  0  0  0  0  0  0  0  0  0  0  0
   -3.8250   24.0610  -28.9240 C   0  0  0  0  0  0  0  0  0  0  0  0
   -2.8540   22.9050  -29.0600 C   0  0  0  0  0  0  0  0  0  0  0  0
   -1.5770   23.1030  -29.6090 C   0  0  0  0  0  0  0  0  0  0  0  0
   -0.6930   22.0300  -29.7330 C   0  0  0  0  0  0  0  0  0  0  0  0
   -1.0990   20.7590  -29.3260 C   0  0  0  0  0  0  0  0  0  0  0  0
   -2.3500   20.5710  -28.8310 N   0  0  0  0  0  0  0  0  0  0  0  0
   -3.2290   21.6000  -28.6980 C   0  0  0  0  0  0  0  0  0  0  0  0
   -6.1900   24.5380  -29.8520 C   0  0  0  0  0  0  0  0  0  0  0  0
   -7.0070   23.2530  -30.0760 C   0  0  0  0  0  0  0  0  0  0  0  0
   -6.5073   21.1305  -34.3178 H   0  0  0  0  0  0  0  0  0  0  0  0
   -5.6648   18.9327  -35.1237 H   0  0  0  0  0  0  0  0  0  0  0  0
   -6.2100   15.7330  -33.4910 H   0  0  0  0  0  0  0  0  0  0  0  0
   -2.2565   14.9139  -33.2547 H   0  0  0  0  0  0  0  0  0  0  0  0
   -0.2820   15.6372  -31.9014 H   0  0  0  0  0  0  0  0  0  0  0  0
    0.2191   18.0840  -31.6048 H   0  0  0  0  0  0  0  0  0  0  0  0
   -3.2194   21.4956  -34.0200 H   0  0  0  0  0  0  0  0  0  0  0  0
   -6.7954   17.1159  -31.3598 H   0  0  0  0  0  0  0  0  0  0  0  0
   -7.6234   19.3193  -30.5455 H   0  0  0  0  0  0  0  0  0  0  0  0
   -5.3947   22.3950  -32.9880 H   0  0  0  0  0  0  0  0  0  0  0  0
   -5.9018   24.0923  -32.6967 H   0  0  0  0  0  0  0  0  0  0  0  0
   -4.1314   22.3932  -30.8631 H   0  0  0  0  0  0  0  0  0  0  0  0
   -3.5912   23.7417  -31.9557 H   0  0  0  0  0  0  0  0  0  0  0  0
   -4.2400   25.6770  -31.6240 H   0  0  0  0  0  0  0  0  0  0  0  0
   -3.2461   24.9575  -28.6572 H   0  0  0  0  0  0  0  0  0  0  0  0
   -4.5511   23.7505  -28.1583 H   0  0  0  0  0  0  0  0  0  0  0  0
   -1.2725   24.1061  -29.9422 H   0  0  0  0  0  0  0  0  0  0  0  0
    0.3140   22.1851  -30.1476 H   0  0  0  0  0  0  0  0  0  0  0  0
   -0.4059   19.9086  -29.4059 H   0  0  0  0  0  0  0  0  0  0  0  0
   -4.2387   21.4099  -28.3051 H   0  0  0  0  0  0  0  0  0  0  0  0
   -6.2822   24.8257  -28.7943 H   0  0  0  0  0  0  0  0  0  0  0  0
   -6.5984   25.2962  -30.5364 H   0  0  0  0  0  0  0  0  0  0  0  0
   -6.7376   22.5201  -29.3012 H   0  0  0  0  0  0  0  0  0  0  0  0
   -8.0745   23.5124  -30.0205 H   0  0  0  0  0  0  0  0  0  0  0  0
  1  2  2  0
  2  3  1  0
  3  4  2  0
  4  5  1  0
  5  6  2  0
  6  7  1  0
  7  8  1  0
  8  9  2  0
  8 10  2  0
  8 11  1  0
 11 12  2  0
 12 13  1  0
 13 14  2  0
 14 15  1  0
 15 16  1  0
 16 17  1  0
 17 18  2  0
 18 19  1  0
  6 20  1  0
 20 21  2  0
  2 22  1  0
 22 23  1  0
 23 24  1  0
 24 25  1  0
 25 26  1  0
 25 27  1  0
 27 28  1  0
 28 29  2  0
 29 30  1  0
 30 31  2  0
 31 32  1  0
 32 33  2  0
 25 34  1  0
 34 35  1  0
 21  3  1  0
 35 22  1  0
 19 11  1  0
 33 28  1  0
 19 15  2  0
  4 36  1  0
  5 37  1  0
  7 38  1  0
 12 39  1  0
 13 40  1  0
 14 41  1  0
 17 42  1  0
 20 43  1  0
 21 44  1  0
 23 45  1  0
 23 46  1  0
 24 47  1  0
 24 48  1  0
 26 49  1  0
 27 50  1  0
 27 51  1  0
 29 52  1  0
 30 53  1  0
 31 54  1  0
 33 55  1  0
 34 56  1  0
 34 57  1  0
 35 58  1  0
 35 59  1  0
M  END
>  <UniqueID>  (39) 
38

>  <SMILES>  (39) 
O=C(c1ccc(NS(=O)(=O)c2cccc3scnc23)cc1)N1CCC(O)(Cc2cccnc2)CC1

>  <Energy>  (39) 
113.20832913636963

>  <Genealogy>  (39) 
O=C(c1ccc(NS(=O)(=O)c2cccc3scnc23)cc1)N1CCC(O)(Cc2cccnc2)CC1 (3D coordinates assigned)
O=C(c1ccc(NS(=O)(=O)c2cccc3scnc23)cc1)N1CCC(O)(Cc2cccnc2)CC1 (nonaromatic ring conformer: 113.20832913636963 kcal/mol)

>  <smiles>  (39) 
O=C(c1ccc(NS(=O)(=O)c2cccc3scnc23)cc1)N1CCC(O)(Cc2cccnc2)CC1

>  <score_type>  (39) 
oracle

>  <origin>  (39) 
adg

>  <m_score__min__energy>  (39) 
-11.73

>  <m_primary>  (39) 
energy

$$$$
39:0
     RDKit          3D

 29 32  0  0  0  0  0  0  0  0999 V2000
   -9.9610   21.2380  -31.7250 N   0  0  0  0  0  0  0  0  0  0  0  0
   -8.9580   21.7950  -31.5780 C   0  0  0  0  0  0  0  0  0  0  0  0
   -7.7100   22.4880  -31.3950 C   0  0  0  0  0  0  0  0  0  0  0  0
   -7.0880   23.1260  -32.4980 C   0  0  0  0  0  0  0  0  0  0  0  0
   -5.8670   23.8060  -32.3310 C   0  0  0  0  0  0  0  0  0  0  0  0
   -5.3080   23.8230  -31.0560 C   0  0  0  0  0  0  0  0  0  0  0  0
   -4.1680   24.3990  -30.6560 N   0  0  0  0  0  0  0  0  0  0  0  0
   -4.1070   24.1100  -29.3310 C   0  0  0  0  0  0  0  0  0  0  0  0
   -3.0080   24.5440  -28.4560 C   0  0  0  0  0  0  0  0  0  0  0  0
   -3.1010   24.7360  -27.0770 C   0  0  0  0  0  0  0  0  0  0  0  0
   -1.8890   25.1520  -26.5150 C   0  0  0  0  0  0  0  0  0  0  0  0
   -1.6580   25.4270  -25.1650 C   0  0  0  0  0  0  0  0  0  0  0  0
   -0.3730   25.8370  -24.7670 C   0  0  0  0  0  0  0  0  0  0  0  0
    0.6590   25.9680  -25.7170 C   0  0  0  0  0  0  0  0  0  0  0  0
    0.4160   25.6900  -27.0720 C   0  0  0  0  0  0  0  0  0  0  0  0
   -0.8650   25.2850  -27.4400 C   0  0  0  0  0  0  0  0  0  0  0  0
   -1.4310   24.8910  -28.9700 S   0  0  0  0  0  0  0  0  0  0  0  0
   -5.1610   23.3760  -28.8830 N   0  0  0  0  0  0  0  0  0  0  0  0
   -5.9020   23.2110  -29.9940 C   0  0  0  0  0  0  0  0  0  0  0  0
   -7.1100   22.5290  -30.1200 C   0  0  0  0  0  0  0  0  0  0  0  0
   -7.5624   23.0893  -33.4898 H   0  0  0  0  0  0  0  0  0  0  0  0
   -5.3725   24.3058  -33.1770 H   0  0  0  0  0  0  0  0  0  0  0  0
   -3.4880   24.9420  -31.2340 H   0  0  0  0  0  0  0  0  0  0  0  0
   -4.0226   24.5782  -26.4975 H   0  0  0  0  0  0  0  0  0  0  0  0
   -2.4668   25.3247  -24.4265 H   0  0  0  0  0  0  0  0  0  0  0  0
   -0.1726   26.0566  -23.7080 H   0  0  0  0  0  0  0  0  0  0  0  0
    1.6606   26.2898  -25.3957 H   0  0  0  0  0  0  0  0  0  0  0  0
    1.2148   25.7893  -27.8217 H   0  0  0  0  0  0  0  0  0  0  0  0
   -7.5797   22.0392  -29.2543 H   0  0  0  0  0  0  0  0  0  0  0  0
  1  2  3  0
  2  3  1  0
  3  4  2  0
  4  5  1  0
  5  6  2  0
  6  7  1  0
  7  8  1  0
  8  9  1  0
  9 10  2  0
 10 11  1  0
 11 12  2  0
 12 13  1  0
 13 14  2  0
 14 15  1  0
 15 16  2  0
 16 17  1  0
  8 18  2  0
 18 19  1  0
 19 20  2  0
 20  3  1  0
 19  6  1  0
 17  9  1  0
 16 11  1  0
  4 21  1  0
  5 22  1  0
  7 23  1  0
 10 24  1  0
 12 25  1  0
 13 26  1  0
 14 27  1  0
 15 28  1  0
 20 29  1  0
M  END
>  <UniqueID>  (40) 
39

>  <SMILES>  (40) 
N#Cc1ccc2[nH]c(-c3cc4ccccc4s3)nc2c1

>  <Energy>  (40) 
99.48898158111597

>  <Genealogy>  (40) 
N#Cc1ccc2[nH]c(-c3cc4ccccc4s3)nc2c1 (3D coordinates assigned)
N#Cc1ccc2[nH]c(-c3cc4ccccc4s3)nc2c1 (optimized conformer: 99.48898158111597 kcal/mol)

>  <smiles>  (40) 
N#Cc1ccc2[nH]c(-c3cc4ccccc4s3)nc2c1

>  <score_type>  (40) 
oracle

>  <origin>  (40) 
adg

>  <m_score__min__energy>  (40) 
-7.2199999999999998

>  <m_primary>  (40) 
energy

$$$$
40:0
     RDKit          3D

 34 36  0  0  0  0  0  0  0  0999 V2000
   -9.1050   18.3300  -33.4160 H   0  0  0  0  0  0  0  0  0  0  0  0
   -8.8640   18.7300  -32.5170 O   0  0  0  0  0  0  0  0  0  0  0  0
   -8.1560   19.9240  -32.4180 C   0  0  0  0  0  0  0  0  0  0  0  0
   -6.8170   19.9710  -32.8240 C   0  0  0  0  0  0  0  0  0  0  0  0
   -6.3320   19.0662  -33.2191 H   0  0  0  0  0  0  0  0  0  0  0  0
   -6.0940   21.1640  -32.7290 C   0  0  0  0  0  0  0  0  0  0  0  0
   -5.0478   21.1983  -33.0670 H   0  0  0  0  0  0  0  0  0  0  0  0
   -6.6960   22.3170  -32.2050 C   0  0  0  0  0  0  0  0  0  0  0  0
   -5.9320   23.5780  -32.1600 C   0  0  0  0  0  0  0  0  0  0  0  0
   -6.1544   24.3402  -32.9213 H   0  0  0  0  0  0  0  0  0  0  0  0
   -4.9790   23.8590  -31.2480 C   0  0  0  0  0  0  0  0  0  0  0  0
   -4.8590   25.0120  -30.4690 C   0  0  0  0  0  0  0  0  0  0  0  0
   -5.6770   26.0660  -30.4430 C   0  0  0  0  0  0  0  0  0  0  0  0
   -6.5608   26.0926  -31.0973 H   0  0  0  0  0  0  0  0  0  0  0  0
   -5.4675   26.9083  -29.7672 H   0  0  0  0  0  0  0  0  0  0  0  0
   -3.7610   24.9270  -29.6880 N   0  0  0  0  0  0  0  0  0  0  0  0
   -3.1600   23.7750  -29.9440 N   0  0  0  0  0  0  0  0  0  0  0  0
   -1.9510   23.3540  -29.2810 C   0  0  0  0  0  0  0  0  0  0  0  0
   -0.9350   24.2740  -28.9610 C   0  0  0  0  0  0  0  0  0  0  0  0
   -1.0535   25.3349  -29.2263 H   0  0  0  0  0  0  0  0  0  0  0  0
    0.2250   23.8450  -28.3070 C   0  0  0  0  0  0  0  0  0  0  0  0
    1.0181   24.5682  -28.0661 H   0  0  0  0  0  0  0  0  0  0  0  0
    0.3790   22.5010  -27.9590 C   0  0  0  0  0  0  0  0  0  0  0  0
    1.2942   22.1658  -27.4491 H   0  0  0  0  0  0  0  0  0  0  0  0
   -0.6300   21.5830  -28.2590 C   0  0  0  0  0  0  0  0  0  0  0  0
   -0.5104   20.5252  -27.9820 H   0  0  0  0  0  0  0  0  0  0  0  0
   -1.7920   22.0070  -28.9110 C   0  0  0  0  0  0  0  0  0  0  0  0
   -2.5875   21.2814  -29.1361 H   0  0  0  0  0  0  0  0  0  0  0  0
   -3.8720   23.1080  -30.8770 C   0  0  0  0  0  0  0  0  0  0  0  0
   -3.5560   21.9750  -31.3320 O   0  0  0  0  0  0  0  0  0  0  0  0
   -8.0480   22.2750  -31.8250 C   0  0  0  0  0  0  0  0  0  0  0  0
   -8.5399   23.1847  -31.4503 H   0  0  0  0  0  0  0  0  0  0  0  0
   -8.7710   21.0820  -31.9210 C   0  0  0  0  0  0  0  0  0  0  0  0
   -9.8245   21.0518  -31.6060 H   0  0  0  0  0  0  0  0  0  0  0  0
  1  2  1  0
  2  3  1  0
  3  4  2  0
  4  5  1  0
  4  6  1  0
  6  7  1  0
  6  8  2  0
  8  9  1  0
  9 10  1  0
  9 11  2  0
 11 12  1  0
 12 13  2  0
 13 14  1  0
 13 15  1  0
 12 16  1  0
 16 17  1  0
 17 18  1  0
 18 19  2  0
 19 20  1  0
 19 21  1  0
 21 22  1  0
 21 23  2  0
 23 24  1  0
 23 25  1  0
 25 26  1  0
 25 27  2  0
 27 28  1  0
 17 29  1  0
 29 30  2  0
  8 31  1  0
 31 32  1  0
 31 33  2  0
 33 34  1  0
 33  3  1  0
 29 11  1  0
 27 18  1  0
M  CHG  1  16  -1
M  END
>  <UniqueID>  (41) 
40

>  <SMILES>  (41) 
C=c1[n-]n(-c2ccccc2)c(=O)/c1=C\c1ccc(O)cc1

>  <Energy>  (41) 
83.15571654452796

>  <Genealogy>  (41) 
C=c1[n-]n(-c2ccccc2)c(=O)c1=Cc1ccc(O)cc1 (protonated)
C=c1[n-]n(-c2ccccc2)c(=O)/c1=C\c1ccc(O)cc1 (cis-trans isomerization)
C=c1[n-]n(-c2ccccc2)c(=O)/c1=C\c1ccc(O)cc1 (3D coordinates assigned)
C=c1[n-]n(-c2ccccc2)c(=O)/c1=C\c1ccc(O)cc1 (optimized conformer: 83.15571654452796 kcal/mol)

>  <smiles>  (41) 
C=c1[nH]n(-c2ccccc2)c(=O)c1=Cc1ccc(O)cc1

>  <score_type>  (41) 
oracle

>  <origin>  (41) 
adg

>  <m_score__min__energy>  (41) 
-8.5500000000000007

>  <m_primary>  (41) 
energy

$$$$
41:0
     RDKit          3D

 32 34  0  0  0  0  0  0  0  0999 V2000
   -1.1970   26.3570  -29.7360 H   0  0  0  0  0  0  0  0  0  0  0  0
   -1.6010   26.0480  -28.8220 N   0  0  0  0  0  0  0  0  0  0  0  0
   -1.6590   24.3220  -28.8530 S   0  0  0  0  0  0  0  0  0  0  0  0
   -1.5140   23.7880  -27.4560 O   0  0  0  0  0  0  0  0  0  0  0  0
   -0.5270   23.7960  -29.6910 O   0  0  0  0  0  0  0  0  0  0  0  0
   -3.1970   23.8020  -29.5350 C   0  0  0  0  0  0  0  0  0  0  0  0
   -3.4960   22.4380  -29.6410 C   0  0  0  0  0  0  0  0  0  0  0  0
   -2.7637   21.6890  -29.3054 H   0  0  0  0  0  0  0  0  0  0  0  0
   -4.7200   22.0250  -30.1710 C   0  0  0  0  0  0  0  0  0  0  0  0
   -4.9446   20.9512  -30.2521 H   0  0  0  0  0  0  0  0  0  0  0  0
   -5.6680   22.9700  -30.6020 C   0  0  0  0  0  0  0  0  0  0  0  0
   -6.9600   22.5070  -31.1600 C   0  0  0  0  0  0  0  0  0  0  0  0
   -7.2380   21.2430  -31.3940 O   0  0  0  0  0  0  0  0  0  0  0  0
   -8.4510   21.1550  -31.8850 C   0  0  0  0  0  0  0  0  0  0  0  0
   -9.0700   19.8690  -32.2570 C   0  0  0  0  0  0  0  0  0  0  0  0
  -10.1418   19.8553  -32.5041 H   0  0  0  0  0  0  0  0  0  0  0  0
   -8.3890   18.7180  -32.3080 C   0  0  0  0  0  0  0  0  0  0  0  0
   -8.7593   17.8621  -31.7246 H   0  0  0  0  0  0  0  0  0  0  0  0
   -7.1650   18.5460  -33.1110 C   0  0  0  0  0  0  0  0  0  0  0  0
   -6.8720   17.4190  -33.7850 N   0  0  0  0  0  0  0  0  0  0  0  0
   -5.7070   17.6610  -34.3690 N   0  0  0  0  0  0  0  0  0  0  0  0
   -5.2970   18.8850  -34.0720 N   0  0  0  0  0  0  0  0  0  0  0  0
   -6.1910   19.4590  -33.2870 N   0  0  0  0  0  0  0  0  0  0  0  0
   -6.1160   20.4250  -32.9050 H   0  0  0  0  0  0  0  0  0  0  0  0
   -9.0070   22.4200  -31.9850 C   0  0  0  0  0  0  0  0  0  0  0  0
  -10.0089   22.6765  -32.3598 H   0  0  0  0  0  0  0  0  0  0  0  0
   -8.0460   23.2910  -31.5180 C   0  0  0  0  0  0  0  0  0  0  0  0
   -8.1248   24.3857  -31.4443 H   0  0  0  0  0  0  0  0  0  0  0  0
   -5.3640   24.3390  -30.4850 C   0  0  0  0  0  0  0  0  0  0  0  0
   -6.0958   25.0914  -30.8143 H   0  0  0  0  0  0  0  0  0  0  0  0
   -4.1380   24.7490  -29.9530 C   0  0  0  0  0  0  0  0  0  0  0  0
   -3.9121   25.8217  -29.8626 H   0  0  0  0  0  0  0  0  0  0  0  0
  1  2  1  0
  2  3  1  0
  3  4  2  0
  3  5  2  0
  3  6  1  0
  6  7  2  0
  7  8  1  0
  7  9  1  0
  9 10  1  0
  9 11  2  0
 11 12  1  0
 12 13  1  0
 13 14  1  0
 14 15  1  0
 15 16  1  0
 15 17  2  0
 17 18  1  0
 17 19  1  0
 19 20  2  0
 20 21  1  0
 21 22  1  0
 22 23  2  0
 23 24  1  0
 14 25  2  0
 25 26  1  0
 25 27  1  0
 27 28  1  0
 11 29  1  0
 29 30  1  0
 29 31  2  0
 31 32  1  0
 31  6  1  0
 27 12  2  0
 23 19  1  0
M  CHG  3   2  -1  21  -1  23   1
M  END
>  <UniqueID>  (42) 
41

>  <SMILES>  (42) 
[NH-]S(=O)(=O)c1ccc(-c2ccc(/C=C/c3n[n-]n[nH+]3)o2)cc1

>  <Energy>  (42) 
100.24635993691905

>  <Genealogy>  (42) 
[NH-]S(=O)(=O)c1ccc(-c2ccc(C=Cc3n[n-]n[nH+]3)o2)cc1 (protonated)
[NH-]S(=O)(=O)c1ccc(-c2ccc(/C=C/c3n[n-]n[nH+]3)o2)cc1 (cis-trans isomerization)
[NH-]S(=O)(=O)c1ccc(-c2ccc(/C=C/c3n[n-]n[nH+]3)o2)cc1 (3D coordinates assigned)
[NH-]S(=O)(=O)c1ccc(-c2ccc(/C=C/c3n[n-]n[nH+]3)o2)cc1 (optimized conformer: 100.24635993691905 kcal/mol)

>  <smiles>  (42) 
NS(=O)(=O)c1ccc(-c2ccc(C=Cc3nn[nH]n3)o2)cc1

>  <score_type>  (42) 
oracle

>  <origin>  (42) 
adg

>  <m_score__min__energy>  (42) 
-10.02

>  <m_primary>  (42) 
energy

$$$$
42:0
     RDKit          3D

 42 44  0  0  0  0  0  0  0  0999 V2000
    0.3720   24.0840  -27.3580 C   0  0  0  0  0  0  0  0  0  0  0  0
   -0.3130   24.2690  -28.5930 O   0  0  0  0  0  0  0  0  0  0  0  0
   -1.1700   23.3230  -29.1770 C   0  0  0  0  0  0  0  0  0  0  0  0
   -0.8440   22.6600  -30.3760 C   0  0  0  0  0  0  0  0  0  0  0  0
   -1.7180   21.7170  -30.9330 C   0  0  0  0  0  0  0  0  0  0  0  0
   -2.9510   21.4530  -30.3040 C   0  0  0  0  0  0  0  0  0  0  0  0
   -3.2680   22.1020  -29.1030 C   0  0  0  0  0  0  0  0  0  0  0  0
   -2.3860   23.0410  -28.5380 C   0  0  0  0  0  0  0  0  0  0  0  0
   -2.6800   23.7140  -27.3410 O   0  0  0  0  0  0  0  0  0  0  0  0
   -3.8450   24.5030  -27.1230 C   0  0  0  0  0  0  0  0  0  0  0  0
   -3.8920   20.4060  -30.8530 C   0  0  0  0  0  0  0  0  0  0  0  0
   -3.6870   20.1490  -32.2950 N   0  0  0  0  0  0  0  0  0  0  0  0
   -4.2400   21.2230  -33.1500 C   0  0  0  0  0  0  0  0  0  0  0  0
   -5.3950   21.8970  -32.4600 C   0  0  0  0  0  0  0  0  0  0  0  0
   -5.2020   23.0860  -31.7380 C   0  0  0  0  0  0  0  0  0  0  0  0
   -6.2770   23.6940  -31.0800 C   0  0  0  0  0  0  0  0  0  0  0  0
   -6.0050   25.3080  -30.0980 Br  0  0  0  0  0  0  0  0  0  0  0  0
   -7.5500   23.1180  -31.1400 C   0  0  0  0  0  0  0  0  0  0  0  0
   -7.7490   21.9320  -31.8530 C   0  0  0  0  0  0  0  0  0  0  0  0
   -9.4860   21.1420  -31.9290 Br  0  0  0  0  0  0  0  0  0  0  0  0
   -6.6750   21.3220  -32.5100 C   0  0  0  0  0  0  0  0  0  0  0  0
   -2.2650   19.8760  -32.5790 C   0  0  0  0  0  0  0  0  0  0  0  0
   -1.3640   21.0770  -32.2500 C   0  0  0  0  0  0  0  0  0  0  0  0
   -0.3198   24.2708  -26.5234 H   0  0  0  0  0  0  0  0  0  0  0  0
    0.7482   23.0521  -27.2984 H   0  0  0  0  0  0  0  0  0  0  0  0
    1.2166   24.7862  -27.2984 H   0  0  0  0  0  0  0  0  0  0  0  0
    0.1071   22.8849  -30.8807 H   0  0  0  0  0  0  0  0  0  0  0  0
   -4.2175   21.8745  -28.5963 H   0  0  0  0  0  0  0  0  0  0  0  0
   -4.0135   24.6171  -26.0420 H   0  0  0  0  0  0  0  0  0  0  0  0
   -3.7071   25.4944  -27.5793 H   0  0  0  0  0  0  0  0  0  0  0  0
   -4.7144   24.0071  -27.5793 H   0  0  0  0  0  0  0  0  0  0  0  0
   -3.7323   19.4670  -30.3027 H   0  0  0  0  0  0  0  0  0  0  0  0
   -4.9172   20.7842  -30.7270 H   0  0  0  0  0  0  0  0  0  0  0  0
   -3.4547   21.9661  -33.3527 H   0  0  0  0  0  0  0  0  0  0  0  0
   -4.5945   20.7825  -34.0936 H   0  0  0  0  0  0  0  0  0  0  0  0
   -4.2018   23.5412  -31.6895 H   0  0  0  0  0  0  0  0  0  0  0  0
   -8.3954   23.5985  -30.6258 H   0  0  0  0  0  0  0  0  0  0  0  0
   -6.8340   20.3876  -33.0683 H   0  0  0  0  0  0  0  0  0  0  0  0
   -1.9423   19.0155  -31.9745 H   0  0  0  0  0  0  0  0  0  0  0  0
   -2.1703   19.6688  -33.6551 H   0  0  0  0  0  0  0  0  0  0  0  0
   -0.3198   20.7338  -32.2066 H   0  0  0  0  0  0  0  0  0  0  0  0
   -1.5083   21.8304  -33.0384 H   0  0  0  0  0  0  0  0  0  0  0  0
  1  2  1  0
  2  3  1  0
  3  4  2  0
  4  5  1  0
  5  6  2  0
  6  7  1  0
  7  8  2  0
  8  9  1  0
  9 10  1  0
  6 11  1  0
 11 12  1  0
 12 13  1  0
 13 14  1  0
 14 15  2  0
 15 16  1  0
 16 17  1  0
 16 18  2  0
 18 19  1  0
 19 20  1  0
 19 21  2  0
 12 22  1  0
 22 23  1  0
  8  3  1  0
 21 14  1  0
 23  5  1  0
  1 24  1  0
  1 25  1  0
  1 26  1  0
  4 27  1  0
  7 28  1  0
 10 29  1  0
 10 30  1  0
 10 31  1  0
 11 32  1  0
 11 33  1  0
 13 34  1  0
 13 35  1  0
 15 36  1  0
 18 37  1  0
 21 38  1  0
 22 39  1  0
 22 40  1  0
 23 41  1  0
 23 42  1  0
M  END
>  <UniqueID>  (43) 
42

>  <SMILES>  (43) 
COc1cc2c(cc1OC)CN(Cc1cc(Br)cc(Br)c1)CC2

>  <Energy>  (43) 
47.179276124672555

>  <Genealogy>  (43) 
COc1cc2c(cc1OC)CN(Cc1cc(Br)cc(Br)c1)CC2 (3D coordinates assigned)
COc1cc2c(cc1OC)CN(Cc1cc(Br)cc(Br)c1)CC2 (nonaromatic ring conformer: 47.179276124672555 kcal/mol)

>  <smiles>  (43) 
COc1cc2c(cc1OC)CN(Cc1cc(Br)cc(Br)c1)CC2

>  <score_type>  (43) 
oracle

>  <origin>  (43) 
adg

>  <m_score__min__energy>  (43) 
-8.0700000000000003

>  <m_primary>  (43) 
energy

$$$$
43:0
     RDKit          3D

 40 44  0  0  0  0  0  0  0  0999 V2000
   -1.9950   15.4660  -35.8470 C   0  0  0  0  0  0  0  0  0  0  0  0
   -3.3060   15.3820  -35.2990 O   0  0  0  0  0  0  0  0  0  0  0  0
   -3.9600   16.4370  -34.6460 C   0  0  0  0  0  0  0  0  0  0  0  0
   -5.3770   16.5400  -34.5990 C   0  0  0  0  0  0  0  0  0  0  0  0
   -5.9960   17.6130  -33.9350 C   0  0  0  0  0  0  0  0  0  0  0  0
   -5.1820   18.5600  -33.3080 C   0  0  0  0  0  0  0  0  0  0  0  0
   -5.4820   19.7270  -32.6180 C   0  0  0  0  0  0  0  0  0  0  0  0
   -4.2470   20.3060  -32.3170 C   0  0  0  0  0  0  0  0  0  0  0  0
   -3.2360   19.5250  -32.7710 N   0  0  0  0  0  0  0  0  0  0  0  0
   -3.8150   18.4750  -33.3720 C   0  0  0  0  0  0  0  0  0  0  0  0
   -3.1710   17.4260  -34.0270 C   0  0  0  0  0  0  0  0  0  0  0  0
   -4.0260   21.5920  -31.6210 C   0  0  0  0  0  0  0  0  0  0  0  0
   -2.8750   21.7550  -30.8280 C   0  0  0  0  0  0  0  0  0  0  0  0
   -2.5950   22.9830  -30.2240 C   0  0  0  0  0  0  0  0  0  0  0  0
   -3.4510   24.0670  -30.4150 C   0  0  0  0  0  0  0  0  0  0  0  0
   -3.1650   25.2910  -29.8230 O   0  0  0  0  0  0  0  0  0  0  0  0
   -4.5960   23.9210  -31.2010 C   0  0  0  0  0  0  0  0  0  0  0  0
   -4.9030   22.6870  -31.7960 C   0  0  0  0  0  0  0  0  0  0  0  0
   -6.0900   22.5850  -32.5950 N   0  0  0  0  0  0  0  0  0  0  0  0
   -7.1030   21.6210  -32.2840 C   0  0  0  0  0  0  0  0  0  0  0  0
   -8.4080   22.0690  -32.0200 C   0  0  0  0  0  0  0  0  0  0  0  0
   -9.4090   21.1650  -31.6650 C   0  0  0  0  0  0  0  0  0  0  0  0
   -9.1180   19.8060  -31.5670 C   0  0  0  0  0  0  0  0  0  0  0  0
   -7.8310   19.3440  -31.8520 C   0  0  0  0  0  0  0  0  0  0  0  0
   -6.8190   20.2390  -32.2430 C   0  0  0  0  0  0  0  0  0  0  0  0
   -1.2588   15.5132  -35.0310 H   0  0  0  0  0  0  0  0  0  0  0  0
   -1.7991   14.5786  -36.4667 H   0  0  0  0  0  0  0  0  0  0  0  0
   -1.9139   16.3712  -36.4667 H   0  0  0  0  0  0  0  0  0  0  0  0
   -5.9952   15.7722  -35.0872 H   0  0  0  0  0  0  0  0  0  0  0  0
   -7.0919   17.7048  -33.9096 H   0  0  0  0  0  0  0  0  0  0  0  0
   -2.2100   19.7150  -32.7100 H   0  0  0  0  0  0  0  0  0  0  0  0
   -2.0728   17.3721  -34.0595 H   0  0  0  0  0  0  0  0  0  0  0  0
   -2.1893   20.9073  -30.6824 H   0  0  0  0  0  0  0  0  0  0  0  0
   -1.6982   23.0950  -29.5970 H   0  0  0  0  0  0  0  0  0  0  0  0
   -5.2639   24.7813  -31.3555 H   0  0  0  0  0  0  0  0  0  0  0  0
   -6.4040   23.4540  -33.0840 H   0  0  0  0  0  0  0  0  0  0  0  0
   -8.6422   23.1412  -32.0938 H   0  0  0  0  0  0  0  0  0  0  0  0
  -10.4285   21.5251  -31.4623 H   0  0  0  0  0  0  0  0  0  0  0  0
   -9.9023   19.0964  -31.2650 H   0  0  0  0  0  0  0  0  0  0  0  0
   -7.6069   18.2702  -31.7699 H   0  0  0  0  0  0  0  0  0  0  0  0
  1  2  1  0
  2  3  1  0
  3  4  2  0
  4  5  1  0
  5  6  2  0
  6  7  1  0
  7  8  2  0
  8  9  1  0
  9 10  1  0
 10 11  2  0
  8 12  1  0
 12 13  2  0
 13 14  1  0
 14 15  2  0
 15 16  1  0
 15 17  1  0
 17 18  2  0
 18 19  1  0
 19 20  1  0
 20 21  2  0
 21 22  1  0
 22 23  2  0
 23 24  1  0
 24 25  2  0
 11  3  1  0
 18 12  1  0
 25 20  1  0
 10  6  1  0
 25  7  1  0
  1 26  1  0
  1 27  1  0
  1 28  1  0
  4 29  1  0
  5 30  1  0
  9 31  1  0
 11 32  1  0
 13 33  1  0
 14 34  1  0
 17 35  1  0
 19 36  1  0
 21 37  1  0
 22 38  1  0
 23 39  1  0
 24 40  1  0
M  CHG  1  16  -1
M  END
>  <UniqueID>  (44) 
43

>  <SMILES>  (44) 
COc1ccc2c3c([nH]c2c1)-c1ccc([O-])cc1Nc1ccccc1-3

>  <Energy>  (44) 
99.5070385266482

>  <Genealogy>  (44) 
COc1ccc2c3c([nH]c2c1)-c1ccc([O-])cc1Nc1ccccc1-3 (protonated)
COc1ccc2c3c([nH]c2c1)-c1ccc([O-])cc1Nc1ccccc1-3 (3D coordinates assigned)
COc1ccc2c3c([nH]c2c1)-c1ccc([O-])cc1Nc1ccccc1-3 (nonaromatic ring conformer: 99.5070385266482 kcal/mol)

>  <smiles>  (44) 
COc1ccc2c3c([nH]c2c1)-c1ccc(O)cc1Nc1ccccc1-3

>  <score_type>  (44) 
oracle

>  <origin>  (44) 
adg

>  <m_score__min__energy>  (44) 
-11.76

>  <m_primary>  (44) 
energy

$$$$
44:0
     RDKit          3D

 33 35  0  0  0  0  0  0  0  0999 V2000
   -6.2860   17.6920  -33.4700 C   0  0  0  0  0  0  0  0  0  0  0  0
   -6.1090   18.9250  -34.1080 C   0  0  0  0  0  0  0  0  0  0  0  0
   -6.8080   20.0510  -33.6630 C   0  0  0  0  0  0  0  0  0  0  0  0
   -7.6850   19.9460  -32.5760 C   0  0  0  0  0  0  0  0  0  0  0  0
   -8.5670   21.3900  -31.9880 S   0  0  0  0  0  0  0  0  0  0  0  0
   -7.2430   22.4780  -32.4370 N   0  0  0  0  0  0  0  0  0  0  0  0
   -6.5120   23.2180  -31.4490 C   0  0  0  0  0  0  0  0  0  0  0  0
   -7.2130   24.1180  -30.6330 C   0  0  0  0  0  0  0  0  0  0  0  0
   -6.5310   24.9420  -29.7350 C   0  0  0  0  0  0  0  0  0  0  0  0
   -5.1410   24.8730  -29.6410 C   0  0  0  0  0  0  0  0  0  0  0  0
   -4.4310   23.9630  -30.4290 C   0  0  0  0  0  0  0  0  0  0  0  0
   -5.1050   23.1150  -31.3240 C   0  0  0  0  0  0  0  0  0  0  0  0
   -4.3570   22.1210  -32.0440 N   0  0  0  0  0  0  0  0  0  0  0  0
   -4.0820   20.8650  -31.6400 C   0  0  0  0  0  0  0  0  0  0  0  0
   -3.4060   20.2240  -32.6560 C   0  0  0  0  0  0  0  0  0  0  0  0
   -3.2760   21.0760  -33.6900 N   0  0  0  0  0  0  0  0  0  0  0  0
   -3.8680   22.2200  -33.2970 C   0  0  0  0  0  0  0  0  0  0  0  0
   -7.8640   18.7100  -31.9390 C   0  0  0  0  0  0  0  0  0  0  0  0
   -7.1630   17.5860  -32.3860 C   0  0  0  0  0  0  0  0  0  0  0  0
   -5.7355   16.8067  -33.8211 H   0  0  0  0  0  0  0  0  0  0  0  0
   -5.4190   19.0083  -34.9607 H   0  0  0  0  0  0  0  0  0  0  0  0
   -6.6693   21.0192  -34.1664 H   0  0  0  0  0  0  0  0  0  0  0  0
   -6.8280   22.3500  -33.3870 H   0  0  0  0  0  0  0  0  0  0  0  0
   -8.3094   24.1753  -30.7009 H   0  0  0  0  0  0  0  0  0  0  0  0
   -7.0904   25.6460  -29.1014 H   0  0  0  0  0  0  0  0  0  0  0  0
   -4.6034   25.5351  -28.9463 H   0  0  0  0  0  0  0  0  0  0  0  0
   -3.3353   23.9101  -30.3479 H   0  0  0  0  0  0  0  0  0  0  0  0
   -4.3506   20.4270  -30.6674 H   0  0  0  0  0  0  0  0  0  0  0  0
   -3.0347   19.1890  -32.6267 H   0  0  0  0  0  0  0  0  0  0  0  0
   -2.8210   20.8860  -34.6110 H   0  0  0  0  0  0  0  0  0  0  0  0
   -3.9434   23.1231  -33.9206 H   0  0  0  0  0  0  0  0  0  0  0  0
   -8.5556   18.6246  -31.0879 H   0  0  0  0  0  0  0  0  0  0  0  0
   -7.3015   16.6169  -31.8843 H   0  0  0  0  0  0  0  0  0  0  0  0
  1  2  2  0
  2  3  1  0
  3  4  2  0
  4  5  1  0
  5  6  1  0
  6  7  1  0
  7  8  2  0
  8  9  1  0
  9 10  2  0
 10 11  1  0
 11 12  2  0
 12 13  1  0
 13 14  1  0
 14 15  2  0
 15 16  1  0
 16 17  2  0
  4 18  1  0
 18 19  2  0
 19  1  1  0
 12  7  1  0
 17 13  1  0
  1 20  1  0
  2 21  1  0
  3 22  1  0
  6 23  1  0
  8 24  1  0
  9 25  1  0
 10 26  1  0
 11 27  1  0
 14 28  1  0
 15 29  1  0
 16 30  1  0
 17 31  1  0
 18 32  1  0
 19 33  1  0
M  CHG  1  16   1
M  END
>  <UniqueID>  (45) 
44

>  <SMILES>  (45) 
c1ccc(SNc2ccccc2-n2cc[nH+]c2)cc1

>  <Energy>  (45) 
70.16637494879485

>  <Genealogy>  (45) 
c1ccc(SNc2ccccc2-n2cc[nH+]c2)cc1 (protonated)
c1ccc(SNc2ccccc2-n2cc[nH+]c2)cc1 (3D coordinates assigned)
c1ccc(SNc2ccccc2-n2cc[nH+]c2)cc1 (optimized conformer: 70.16637494879485 kcal/mol)

>  <smiles>  (45) 
c1ccc(SNc2ccccc2-n2ccnc2)cc1

>  <score_type>  (45) 
oracle

>  <origin>  (45) 
adg

>  <m_score__min__energy>  (45) 
-6.7000000000000002

>  <m_primary>  (45) 
energy

$$$$
