0:0
     RDKit          3D

 49 50  0  0  0  0  0  0  0  0999 V2000
   -6.6970   22.5170  -30.2450 C   0  0  0  0  0  0  0  0  0  0  0  0
   -5.7570   23.2850  -31.0880 N   0  0  2  0  0  0  0  0  0  0  0  0
   -6.1600   24.7080  -31.2290 C   0  0  0  0  0  0  0  0  0  0  0  0
   -5.2510   25.6690  -30.4430 C   0  0  0  0  0  0  0  0  0  0  0  0
   -3.8620   25.2180  -30.5080 N   0  0  0  0  0  0  0  0  0  0  0  0
   -3.5360   24.1210  -29.2020 S   0  0  0  0  0  0  0  0  0  0  0  0
   -4.8270   23.6910  -28.5610 O   0  0  0  0  0  0  0  0  0  0  0  0
   -2.8400   22.9030  -29.7400 O   0  0  0  0  0  0  0  0  0  0  0  0
   -2.4910   24.9040  -28.0210 C   0  0  0  0  0  0  0  0  0  0  0  0
   -2.8940   24.9790  -26.6810 C   0  0  0  0  0  0  0  0  0  0  0  0
   -2.0630   25.5750  -25.7270 C   0  0  0  0  0  0  0  0  0  0  0  0
   -0.8230   26.0970  -26.1080 C   0  0  0  0  0  0  0  0  0  0  0  0
    0.3140   26.9090  -24.8050 Br  0  0  0  0  0  0  0  0  0  0  0  0
   -0.4150   26.0210  -27.4440 C   0  0  0  0  0  0  0  0  0  0  0  0
   -1.2440   25.4250  -28.3990 C   0  0  0  0  0  0  0  0  0  0  0  0
   -5.5490   22.6380  -32.4080 C   0  0  0  0  0  0  0  0  0  0  0  0
   -6.5060   21.4450  -32.6910 C   0  0  0  0  0  0  0  0  0  0  0  0
   -5.8150   20.1580  -32.9260 N   0  0  0  0  0  0  0  0  0  0  0  0
   -4.3590   20.3160  -33.1520 C   0  0  0  0  0  0  0  0  0  0  0  0
   -3.6970   19.0190  -33.6650 C   0  0  0  0  0  0  0  0  0  0  0  0
   -4.5160   17.7850  -33.2750 C   0  0  0  0  0  0  0  0  0  0  0  0
   -5.9460   17.8650  -33.8390 C   0  0  0  0  0  0  0  0  0  0  0  0
   -6.4600   19.3120  -33.9470 C   0  0  0  0  0  0  0  0  0  0  0  0
   -6.4721   22.7007  -29.1840 H   0  0  0  0  0  0  0  0  0  0  0  0
   -7.7275   22.8348  -30.4618 H   0  0  0  0  0  0  0  0  0  0  0  0
   -6.5910   21.4438  -30.4618 H   0  0  0  0  0  0  0  0  0  0  0  0
   -4.8250   23.2570  -30.6090 H   0  0  0  0  0  0  0  0  0  0  0  0
   -6.1205   24.9800  -32.2941 H   0  0  0  0  0  0  0  0  0  0  0  0
   -7.1760   24.8053  -30.8188 H   0  0  0  0  0  0  0  0  0  0  0  0
   -5.3263   26.6769  -30.8772 H   0  0  0  0  0  0  0  0  0  0  0  0
   -5.5731   25.6876  -29.3914 H   0  0  0  0  0  0  0  0  0  0  0  0
   -3.8681   24.5674  -26.3782 H   0  0  0  0  0  0  0  0  0  0  0  0
   -2.3849   25.6331  -24.6768 H   0  0  0  0  0  0  0  0  0  0  0  0
    0.5606   26.4312  -27.7438 H   0  0  0  0  0  0  0  0  0  0  0  0
   -0.9184   25.3644  -29.4480 H   0  0  0  0  0  0  0  0  0  0  0  0
   -5.7008   23.3954  -33.1912 H   0  0  0  0  0  0  0  0  0  0  0  0
   -4.5277   22.2296  -32.4025 H   0  0  0  0  0  0  0  0  0  0  0  0
   -7.1740   21.3253  -31.8253 H   0  0  0  0  0  0  0  0  0  0  0  0
   -7.0488   21.6869  -33.6167 H   0  0  0  0  0  0  0  0  0  0  0  0
   -4.2015   21.1108  -33.8960 H   0  0  0  0  0  0  0  0  0  0  0  0
   -3.8961   20.5688  -32.1867 H   0  0  0  0  0  0  0  0  0  0  0  0
   -3.6191   19.0657  -34.7612 H   0  0  0  0  0  0  0  0  0  0  0  0
   -2.7003   18.9332  -33.2076 H   0  0  0  0  0  0  0  0  0  0  0  0
   -4.0228   16.8863  -33.6738 H   0  0  0  0  0  0  0  0  0  0  0  0
   -4.5764   17.7396  -32.1776 H   0  0  0  0  0  0  0  0  0  0  0  0
   -5.9551   17.4122  -34.8414 H   0  0  0  0  0  0  0  0  0  0  0  0
   -6.6084   17.3272  -33.1447 H   0  0  0  0  0  0  0  0  0  0  0  0
   -6.2266   19.7070  -34.9467 H   0  0  0  0  0  0  0  0  0  0  0  0
   -7.5480   19.3199  -33.7852 H   0  0  0  0  0  0  0  0  0  0  0  0
  1  2  1  0
  2  3  1  0
  3  4  1  0
  4  5  1  0
  5  6  1  0
  6  7  2  0
  6  8  2  0
  6  9  1  0
  9 10  2  0
 10 11  1  0
 11 12  2  0
 12 13  1  0
 12 14  1  0
 14 15  2  0
  2 16  1  0
 16 17  1  0
 17 18  1  0
 18 19  1  0
 19 20  1  0
 20 21  1  0
 21 22  1  0
 22 23  1  0
 15  9  1  0
 23 18  1  0
  1 24  1  0
  1 25  1  0
  1 26  1  0
  2 27  1  1
  3 28  1  0
  3 29  1  0
  4 30  1  0
  4 31  1  0
 10 32  1  0
 11 33  1  0
 14 34  1  0
 15 35  1  0
 16 36  1  0
 16 37  1  0
 17 38  1  0
 17 39  1  0
 19 40  1  0
 19 41  1  0
 20 42  1  0
 20 43  1  0
 21 44  1  0
 21 45  1  0
 22 46  1  0
 22 47  1  0
 23 48  1  0
 23 49  1  0
M  CHG  2   2   1   5  -1
M  END
>  <UniqueID>  (1) 
1

>  <SMILES>  (1) 
C[N@H+](CC[N-]S(=O)(=O)c1ccc(Br)cc1)CCN1CCCCC1

>  <Energy>  (1) 
56.176604388172926

>  <Genealogy>  (1) 
C[NH+](CC[N-]S(=O)(=O)c1ccc(Br)cc1)CCN1CCCCC1 (protonated)
C[N@H+](CC[N-]S(=O)(=O)c1ccc(Br)cc1)CCN1CCCCC1 (chirality)
C[N@H+](CC[N-]S(=O)(=O)c1ccc(Br)cc1)CCN1CCCCC1 (3D coordinates assigned)
C[N@H+](CC[N-]S(=O)(=O)c1ccc(Br)cc1)CCN1CCCCC1 (nonaromatic ring conformer: 56.176604388172926 kcal/mol)

>  <smiles>  (1) 
CN(CCNS(=O)(=O)c1ccc(Br)cc1)CCN1CCCCC1

>  <score_type>  (1) 
oracle

>  <origin>  (1) 
adg

>  <m_score__min__energy>  (1) 
-8.8200000000000003

>  <m_primary>  (1) 
energy

$$$$
1:0
     RDKit          3D

 48 51  0  0  1  0  0  0  0  0999 V2000
   -6.5000   16.6840  -33.8680 C   0  0  0  0  0  0  0  0  0  0  0  0
   -6.0030   17.3850  -32.6260 C   0  0  0  0  0  0  0  0  0  0  0  0
   -6.7880   18.6050  -32.4730 C   0  0  0  0  0  0  0  0  0  0  0  0
   -6.3600   19.9480  -32.4530 C   0  0  0  0  0  0  0  0  0  0  0  0
   -7.2760   20.8790  -32.3020 C   0  0  0  0  0  0  0  0  0  0  0  0
   -7.1450   22.2820  -32.2440 C   0  0  0  0  0  0  0  0  0  0  0  0
   -6.0310   22.8330  -32.3420 N   0  0  0  0  0  0  0  0  0  0  0  0
   -5.0500   23.1500  -31.4630 C   0  0  0  0  0  0  0  0  0  0  0  0
   -3.8900   22.3560  -31.3740 C   0  0  0  0  0  0  0  0  0  0  0  0
   -2.9370   22.6870  -30.4210 C   0  0  0  0  0  0  0  0  0  0  0  0
   -3.0820   23.7570  -29.5670 C   0  0  0  0  0  0  0  0  0  0  0  0
   -2.0470   24.0000  -28.6350 N   0  0  0  0  0  0  0  0  0  0  0  0
   -1.6800   25.3730  -28.3430 C   0  0  0  0  0  0  0  0  0  0  0  0
   -0.3670   25.3190  -27.5910 C   0  0  0  0  0  0  0  0  0  0  0  0
    0.5670   24.4370  -28.2200 N   0  0  0  0  0  0  0  0  0  0  0  0
    1.8660   24.5430  -27.6310 C   0  0  0  0  0  0  0  0  0  0  0  0
    0.1260   23.0940  -28.4170 C   0  0  0  0  0  0  0  0  0  0  0  0
   -1.3150   22.9630  -27.9380 C   0  0  0  0  0  0  0  0  0  0  0  0
   -4.2240   24.5170  -29.6730 C   0  0  0  0  0  0  0  0  0  0  0  0
   -5.2120   24.2450  -30.5970 C   0  0  0  0  0  0  0  0  0  0  0  0
   -8.2300   23.0750  -32.0800 N   0  0  0  0  0  0  0  0  0  0  0  0
   -9.4810   22.6360  -31.9620 C   0  0  0  0  0  0  0  0  0  0  0  0
   -9.6480   21.2970  -32.0120 N   0  0  0  0  0  0  0  0  0  0  0  0
   -8.6080   20.4700  -32.1710 C   0  0  0  0  0  0  0  0  0  0  0  0
   -8.5670   18.6430  -32.2710 S   0  0  0  0  0  0  0  0  0  0  0  0
   -7.1139   15.8181  -33.5795 H   0  0  0  0  0  0  0  0  0  0  0  0
   -7.1067   17.3811  -34.4646 H   0  0  0  0  0  0  0  0  0  0  0  0
   -5.6413   16.3422  -34.4646 H   0  0  0  0  0  0  0  0  0  0  0  0
   -6.1396   16.7369  -31.7478 H   0  0  0  0  0  0  0  0  0  0  0  0
   -4.9318   17.6195  -32.7134 H   0  0  0  0  0  0  0  0  0  0  0  0
   -5.2965   20.2080  -32.5600 H   0  0  0  0  0  0  0  0  0  0  0  0
   -3.7432   21.4953  -32.0430 H   0  0  0  0  0  0  0  0  0  0  0  0
   -2.0296   22.0698  -30.3450 H   0  0  0  0  0  0  0  0  0  0  0  0
   -1.5591   25.9405  -29.2775 H   0  0  0  0  0  0  0  0  0  0  0  0
   -2.4579   25.8736  -27.7478 H   0  0  0  0  0  0  0  0  0  0  0  0
    0.0654   26.3298  -27.5557 H   0  0  0  0  0  0  0  0  0  0  0  0
   -0.5674   24.9404  -26.5779 H   0  0  0  0  0  0  0  0  0  0  0  0
    1.7733   24.5354  -26.5349 H   0  0  0  0  0  0  0  0  0  0  0  0
    2.4849   23.6924  -27.9525 H   0  0  0  0  0  0  0  0  0  0  0  0
    2.3388   25.4827  -27.9525 H   0  0  0  0  0  0  0  0  0  0  0  0
    0.1825   22.8415  -29.4861 H   0  0  0  0  0  0  0  0  0  0  0  0
    0.7684   22.4072  -27.8464 H   0  0  0  0  0  0  0  0  0  0  0  0
   -1.7166   21.9710  -28.1923 H   0  0  0  0  0  0  0  0  0  0  0  0
   -1.3946   23.0691  -26.8460 H   0  0  0  0  0  0  0  0  0  0  0  0
   -4.3543   25.3738  -28.9956 H   0  0  0  0  0  0  0  0  0  0  0  0
   -6.1119   24.8750  -30.6549 H   0  0  0  0  0  0  0  0  0  0  0  0
   -8.1130   24.1310  -32.0390 H   0  0  0  0  0  0  0  0  0  0  0  0
  -10.3294   23.3239  -31.8314 H   0  0  0  0  0  0  0  0  0  0  0  0
  1  2  1  0
  2  3  1  0
  3  4  2  0
  4  5  1  0
  5  6  1  0
  6  7  2  0
  7  8  1  0
  8  9  2  0
  9 10  1  0
 10 11  2  0
 11 12  1  0
 12 13  1  0
 13 14  1  0
 14 15  1  0
 15 16  1  0
 15 17  1  0
 17 18  1  0
 11 19  1  0
 19 20  2  0
  6 21  1  0
 21 22  1  0
 22 23  2  0
 23 24  1  0
 24 25  1  0
 25  3  1  0
 24  5  2  0
 20  8  1  0
 18 12  1  0
  1 26  1  0
  1 27  1  0
  1 28  1  0
  2 29  1  0
  2 30  1  0
  4 31  1  0
  9 32  1  0
 10 33  1  0
 13 34  1  0
 13 35  1  0
 14 36  1  0
 14 37  1  0
 16 38  1  0
 16 39  1  0
 16 40  1  0
 17 41  1  0
 17 42  1  0
 18 43  1  0
 18 44  1  0
 19 45  1  0
 20 46  1  0
 21 47  1  0
 22 48  1  0
M  END
>  <smiles>  (2) 
CCc1cc2c(=Nc3ccc(N4CCN(C)CC4)cc3)[nH]cnc2s1

>  <score_type>  (2) 
oracle

>  <origin>  (2) 
adg

>  <m_score__min__energy>  (2) 
-8.7699999999999996

>  <m_primary>  (2) 
energy

$$$$
2:0
     RDKit          3D

 44 48  0  0  0  0  0  0  0  0999 V2000
   -3.7090   20.9790  -27.9380 H   0  0  0  0  0  0  0  0  0  0  0  0
   -2.8930   21.2330  -28.5230 N   0  0  0  0  0  0  0  0  0  0  0  0
   -2.5690   22.4320  -28.8930 C   0  0  0  0  0  0  0  0  0  0  0  0
   -1.3860   22.9440  -28.4630 N   0  0  0  0  0  0  0  0  0  0  0  0
   -1.0540   24.2510  -28.6880 C   0  0  0  0  0  0  0  0  0  0  0  0
    0.0790   24.7320  -28.2710 N   0  0  0  0  0  0  0  0  0  0  0  0
    0.6940   24.4260  -26.9810 C   0  0  0  0  0  0  0  0  0  0  0  0
    0.4936   23.3751  -26.7254 H   0  0  0  0  0  0  0  0  0  0  0  0
    1.7776   24.6001  -27.0549 H   0  0  0  0  0  0  0  0  0  0  0  0
    0.1330   25.3130  -25.9020 C   0  0  0  0  0  0  0  0  0  0  0  0
   -0.7750   26.3360  -26.2110 C   0  0  0  0  0  0  0  0  0  0  0  0
   -1.1002   26.4876  -27.2508 H   0  0  0  0  0  0  0  0  0  0  0  0
   -1.2660   27.1620  -25.1980 C   0  0  0  0  0  0  0  0  0  0  0  0
   -1.9792   27.9657  -25.4336 H   0  0  0  0  0  0  0  0  0  0  0  0
   -0.8430   26.9580  -23.8830 C   0  0  0  0  0  0  0  0  0  0  0  0
   -1.2253   27.6024  -23.0776 H   0  0  0  0  0  0  0  0  0  0  0  0
    0.0410   25.9640  -23.5950 N   0  0  0  0  0  0  0  0  0  0  0  0
    0.3500   25.8260  -22.6080 H   0  0  0  0  0  0  0  0  0  0  0  0
    0.5340   25.1480  -24.5670 C   0  0  0  0  0  0  0  0  0  0  0  0
    1.2502   24.3554  -24.3048 H   0  0  0  0  0  0  0  0  0  0  0  0
   -1.9240   25.0660  -29.3400 N   0  0  0  0  0  0  0  0  0  0  0  0
   -3.0950   24.5530  -29.7850 C   0  0  0  0  0  0  0  0  0  0  0  0
   -4.0170   25.2710  -30.4640 N   0  0  0  0  0  0  0  0  0  0  0  0
   -4.9480   24.3400  -30.7460 C   0  0  0  0  0  0  0  0  0  0  0  0
   -6.1050   24.5300  -31.4930 C   0  0  0  0  0  0  0  0  0  0  0  0
   -6.3858   25.5298  -31.8559 H   0  0  0  0  0  0  0  0  0  0  0  0
   -6.9040   23.4120  -31.7710 C   0  0  0  0  0  0  0  0  0  0  0  0
   -7.8410   23.5396  -32.3329 H   0  0  0  0  0  0  0  0  0  0  0  0
   -6.5180   22.1180  -31.3360 C   0  0  0  0  0  0  0  0  0  0  0  0
   -7.3430   20.9330  -31.6850 C   0  0  0  0  0  0  0  0  0  0  0  0
   -8.7040   21.0780  -32.0170 C   0  0  0  0  0  0  0  0  0  0  0  0
   -9.1627   22.0778  -32.0183 H   0  0  0  0  0  0  0  0  0  0  0  0
   -9.4760   19.9590  -32.3450 C   0  0  0  0  0  0  0  0  0  0  0  0
  -10.5384   20.0814  -32.6027 H   0  0  0  0  0  0  0  0  0  0  0  0
   -8.9010   18.6870  -32.3460 C   0  0  0  0  0  0  0  0  0  0  0  0
   -9.5104   17.8085  -32.6046 H   0  0  0  0  0  0  0  0  0  0  0  0
   -7.5530   18.5290  -32.0190 C   0  0  0  0  0  0  0  0  0  0  0  0
   -7.1016   17.5259  -32.0199 H   0  0  0  0  0  0  0  0  0  0  0  0
   -6.7750   19.6450  -31.6900 C   0  0  0  0  0  0  0  0  0  0  0  0
   -5.7132   19.5148  -31.4338 H   0  0  0  0  0  0  0  0  0  0  0  0
   -5.3270   21.9600  -30.5860 C   0  0  0  0  0  0  0  0  0  0  0  0
   -4.9919   20.9625  -30.2656 H   0  0  0  0  0  0  0  0  0  0  0  0
   -4.5840   23.1060  -30.2610 C   0  0  0  0  0  0  0  0  0  0  0  0
   -3.4040   23.2480  -29.6100 N   0  0  0  0  0  0  0  0  0  0  0  0
  1  2  1  0
  2  3  2  0
  3  4  1  0
  4  5  1  0
  5  6  2  0
  6  7  1  0
  7  8  1  0
  7  9  1  0
  7 10  1  0
 10 11  2  0
 11 12  1  0
 11 13  1  0
 13 14  1  0
 13 15  2  0
 15 16  1  0
 15 17  1  0
 17 18  1  0
 17 19  2  0
 19 20  1  0
  5 21  1  0
 21 22  2  0
 22 23  1  0
 23 24  1  0
 24 25  2  0
 25 26  1  0
 25 27  1  0
 27 28  1  0
 27 29  2  0
 29 30  1  0
 30 31  2  0
 31 32  1  0
 31 33  1  0
 33 34  1  0
 33 35  2  0
 35 36  1  0
 35 37  1  0
 37 38  1  0
 37 39  2  0
 39 40  1  0
 29 41  1  0
 41 42  1  0
 41 43  2  0
 43 44  1  0
 44  3  1  0
 19 10  1  0
 44 22  1  0
 43 24  1  0
 39 30  1  0
M  CHG  3   4  -1  17   1  23  -1
M  END
>  <UniqueID>  (3) 
2

>  <SMILES>  (3) 
[H]/N=c1/[n-]/c(=N\Cc2ccc[nH+]c2)nc2[n-]c3ccc(-c4ccccc4)cc3n12

>  <Energy>  (3) 
108.00547015447918

>  <Genealogy>  (3) 
N=c1[n-]c(=NCc2ccc[nH+]c2)nc2[n-]c3ccc(-c4ccccc4)cc3n12 (protonated)
[H]/N=c1/[n-]/c(=N\Cc2ccc[nH+]c2)nc2[n-]c3ccc(-c4ccccc4)cc3n12 (cis-trans isomerization)
[H]/N=c1/[n-]/c(=N\Cc2ccc[nH+]c2)nc2[n-]c3ccc(-c4ccccc4)cc3n12 (3D coordinates assigned)
[H]/N=c1/[n-]/c(=N\Cc2ccc[nH+]c2)nc2[n-]c3ccc(-c4ccccc4)cc3n12 (optimized conformer: 108.00547015447918 kcal/mol)

>  <smiles>  (3) 
N=c1[nH]c(=NCc2cccnc2)nc2[nH]c3ccc(-c4ccccc4)cc3n12

>  <score_type>  (3) 
oracle

>  <origin>  (3) 
adg

>  <m_score__min__energy>  (3) 
-12.460000000000001

>  <m_primary>  (3) 
energy

$$$$
3:0
     RDKit          3D

 46 50  0  0  0  0  0  0  0  0999 V2000
   -4.8380   24.1560  -31.5920 O   0  0  0  0  0  0  0  0  0  0  0  0
   -4.6940   22.6940  -31.9120 S   0  0  0  0  0  0  0  0  0  0  0  0
   -4.2410   22.5850  -33.3420 O   0  0  0  0  0  0  0  0  0  0  0  0
   -6.2610   21.8690  -31.7530 C   0  0  0  0  0  0  0  0  0  0  0  0
   -7.3010   22.5400  -31.0860 C   0  0  0  0  0  0  0  0  0  0  0  0
   -8.5380   21.9290  -30.8880 C   0  0  0  0  0  0  0  0  0  0  0  0
   -8.7680   20.6390  -31.3570 C   0  0  0  0  0  0  0  0  0  0  0  0
   -7.7610   19.9530  -32.0480 C   0  0  0  0  0  0  0  0  0  0  0  0
   -7.9960   18.6590  -32.5350 C   0  0  0  0  0  0  0  0  0  0  0  0
   -7.0270   18.0020  -33.2210 N   0  0  0  0  0  0  0  0  0  0  0  0
   -5.8150   18.5640  -33.4600 C   0  0  0  0  0  0  0  0  0  0  0  0
   -5.5310   19.8490  -32.9950 C   0  0  0  0  0  0  0  0  0  0  0  0
   -6.4990   20.5640  -32.2650 C   0  0  0  0  0  0  0  0  0  0  0  0
   -3.5020   22.0090  -30.8290 N   0  0  0  0  0  0  0  0  0  0  0  0
   -2.8140   20.7670  -31.2040 C   0  0  0  0  0  0  0  0  0  0  0  0
   -1.3050   20.9560  -31.0900 C   0  0  0  0  0  0  0  0  0  0  0  0
   -0.9300   21.3030  -29.6480 C   0  0  0  0  0  0  0  0  0  0  0  0
   -1.7840   22.4150  -29.0870 C   0  0  0  0  0  0  0  0  0  0  0  0
   -1.3390   23.0990  -27.9450 C   0  0  0  0  0  0  0  0  0  0  0  0
   -2.1170   24.1130  -27.3630 C   0  0  0  0  0  0  0  0  0  0  0  0
   -1.6360   24.8390  -26.1590 C   0  0  0  0  0  0  0  0  0  0  0  0
   -0.7770   24.2740  -25.1980 C   0  0  0  0  0  0  0  0  0  0  0  0
   -0.4570   25.1340  -24.1560 C   0  0  0  0  0  0  0  0  0  0  0  0
   -1.2390   26.5940  -24.4260 S   0  0  0  0  0  0  0  0  0  0  0  0
   -1.9920   26.1550  -25.8610 C   0  0  0  0  0  0  0  0  0  0  0  0
   -3.3580   24.4260  -27.9370 C   0  0  0  0  0  0  0  0  0  0  0  0
   -3.8170   23.7400  -29.0620 C   0  0  0  0  0  0  0  0  0  0  0  0
   -3.0440   22.7250  -29.6530 C   0  0  0  0  0  0  0  0  0  0  0  0
   -7.1360   23.5623  -30.7149 H   0  0  0  0  0  0  0  0  0  0  0  0
   -9.3366   22.4691  -30.3583 H   0  0  0  0  0  0  0  0  0  0  0  0
   -9.7419   20.1575  -31.1848 H   0  0  0  0  0  0  0  0  0  0  0  0
   -8.9684   18.1754  -32.3604 H   0  0  0  0  0  0  0  0  0  0  0  0
   -5.0532   18.0044  -34.0226 H   0  0  0  0  0  0  0  0  0  0  0  0
   -4.5502   20.3032  -33.1991 H   0  0  0  0  0  0  0  0  0  0  0  0
   -3.1321   19.9564  -30.5319 H   0  0  0  0  0  0  0  0  0  0  0  0
   -3.0698   20.5101  -32.2425 H   0  0  0  0  0  0  0  0  0  0  0  0
   -0.7978   20.0255  -31.3847 H   0  0  0  0  0  0  0  0  0  0  0  0
   -0.9922   21.7765  -31.7525 H   0  0  0  0  0  0  0  0  0  0  0  0
   -1.0600   20.4071  -29.0231 H   0  0  0  0  0  0  0  0  0  0  0  0
    0.1151   21.6461  -29.6447 H   0  0  0  0  0  0  0  0  0  0  0  0
   -0.3677   22.8373  -27.4999 H   0  0  0  0  0  0  0  0  0  0  0  0
   -0.3941   23.2450  -25.2662 H   0  0  0  0  0  0  0  0  0  0  0  0
    0.1955   24.8992  -23.3021 H   0  0  0  0  0  0  0  0  0  0  0  0
   -2.6531   26.7954  -26.4634 H   0  0  0  0  0  0  0  0  0  0  0  0
   -3.9764   25.2213  -27.4952 H   0  0  0  0  0  0  0  0  0  0  0  0
   -4.7964   23.9966  -29.4922 H   0  0  0  0  0  0  0  0  0  0  0  0
  1  2  2  0
  2  3  2  0
  2  4  1  0
  4  5  2  0
  5  6  1  0
  6  7  2  0
  7  8  1  0
  8  9  2  0
  9 10  1  0
 10 11  2  0
 11 12  1  0
 12 13  2  0
  2 14  1  0
 14 15  1  0
 15 16  1  0
 16 17  1  0
 17 18  1  0
 18 19  2  0
 19 20  1  0
 20 21  1  0
 21 22  1  0
 22 23  2  0
 23 24  1  0
 24 25  1  0
 20 26  2  0
 26 27  1  0
 27 28  2  0
 13  4  1  0
 28 14  1  0
 13  8  1  0
 28 18  1  0
 25 21  2  0
  5 29  1  0
  6 30  1  0
  7 31  1  0
  9 32  1  0
 11 33  1  0
 12 34  1  0
 15 35  1  0
 15 36  1  0
 16 37  1  0
 16 38  1  0
 17 39  1  0
 17 40  1  0
 19 41  1  0
 22 42  1  0
 23 43  1  0
 25 44  1  0
 26 45  1  0
 27 46  1  0
M  END
>  <UniqueID>  (4) 
3

>  <SMILES>  (4) 
O=S(=O)(c1cccc2cnccc12)N1CCCc2cc(-c3ccsc3)ccc21

>  <Energy>  (4) 
91.95086138905717

>  <Genealogy>  (4) 
O=S(=O)(c1cccc2cnccc12)N1CCCc2cc(-c3ccsc3)ccc21 (3D coordinates assigned)
O=S(=O)(c1cccc2cnccc12)N1CCCc2cc(-c3ccsc3)ccc21 (nonaromatic ring conformer: 91.95086138905717 kcal/mol)

>  <smiles>  (4) 
O=S(=O)(c1cccc2cnccc12)N1CCCc2cc(-c3ccsc3)ccc21

>  <score_type>  (4) 
oracle

>  <origin>  (4) 
adg

>  <m_score__min__energy>  (4) 
-9.9100000000000001

>  <m_primary>  (4) 
energy

$$$$
4:0
     RDKit          3D

 35 36  0  0  0  0  0  0  0  0999 V2000
   -9.2190   19.3060  -32.5310 C   0  0  0  0  0  0  0  0  0  0  0  0
   -8.3560   19.9940  -33.4280 O   0  0  0  0  0  0  0  0  0  0  0  0
   -6.9600   19.8650  -33.4400 C   0  0  0  0  0  0  0  0  0  0  0  0
   -6.3430   18.8690  -34.1490 N   0  0  0  0  0  0  0  0  0  0  0  0
   -4.9890   18.7660  -34.1880 C   0  0  0  0  0  0  0  0  0  0  0  0
   -4.2070   19.6890  -33.5000 C   0  0  0  0  0  0  0  0  0  0  0  0
   -4.8110   20.6740  -32.7900 N   0  0  0  0  0  0  0  0  0  0  0  0
   -6.1660   20.7890  -32.7290 C   0  0  0  0  0  0  0  0  0  0  0  0
   -6.7520   21.8490  -31.9450 N   0  0  0  0  0  0  0  0  0  0  0  0
   -7.6600   21.5370  -30.8270 C   0  0  0  0  0  0  0  0  0  0  0  0
   -7.5990   22.6160  -29.7340 C   0  0  0  0  0  0  0  0  0  0  0  0
   -6.1500   23.0710  -29.5140 C   0  0  0  0  0  0  0  0  0  0  0  0
   -5.5050   23.6570  -30.8030 C   0  0  2  0  0  0  0  0  0  0  0  0
   -5.4030   25.1950  -30.7190 C   0  0  0  0  0  0  0  0  0  0  0  0
   -4.0160   25.6320  -30.8460 N   0  0  0  0  0  0  0  0  0  0  0  0
   -6.2560   23.2230  -32.0840 C   0  0  0  0  0  0  0  0  0  0  0  0
   -8.9300   19.5364  -31.4949 H   0  0  0  0  0  0  0  0  0  0  0  0
  -10.2571   19.6270  -32.7021 H   0  0  0  0  0  0  0  0  0  0  0  0
   -9.1373   18.2225  -32.7021 H   0  0  0  0  0  0  0  0  0  0  0  0
   -6.9010   18.1670  -34.6820 H   0  0  0  0  0  0  0  0  0  0  0  0
   -4.5128   17.9566  -34.7609 H   0  0  0  0  0  0  0  0  0  0  0  0
   -3.1096   19.6203  -33.5318 H   0  0  0  0  0  0  0  0  0  0  0  0
   -8.6894   21.4735  -31.2096 H   0  0  0  0  0  0  0  0  0  0  0  0
   -7.3469   20.5797  -30.3849 H   0  0  0  0  0  0  0  0  0  0  0  0
   -8.2074   23.4791  -30.0420 H   0  0  0  0  0  0  0  0  0  0  0  0
   -7.9883   22.1959  -28.7949 H   0  0  0  0  0  0  0  0  0  0  0  0
   -6.1383   23.8439  -28.7314 H   0  0  0  0  0  0  0  0  0  0  0  0
   -5.5642   22.1875  -29.2202 H   0  0  0  0  0  0  0  0  0  0  0  0
   -4.4879   23.2433  -30.8699 H   0  0  0  0  0  0  0  0  0  0  0  0
   -5.9968   25.6403  -31.5308 H   0  0  0  0  0  0  0  0  0  0  0  0
   -5.7860   25.5200  -29.7404 H   0  0  0  0  0  0  0  0  0  0  0  0
   -3.8610   26.4290  -30.1860 H   0  0  0  0  0  0  0  0  0  0  0  0
   -3.8910   26.0170  -31.8110 H   0  0  0  0  0  0  0  0  0  0  0  0
   -7.1064   23.9001  -32.2527 H   0  0  0  0  0  0  0  0  0  0  0  0
   -5.5626   23.2677  -32.9368 H   0  0  0  0  0  0  0  0  0  0  0  0
  1  2  1  0
  2  3  1  0
  3  4  2  0
  4  5  1  0
  5  6  2  0
  6  7  1  0
  7  8  2  0
  8  9  1  0
  9 10  1  0
 10 11  1  0
 11 12  1  0
 12 13  1  0
 13 14  1  0
 14 15  1  0
 13 16  1  0
  8  3  1  0
 16  9  1  0
  1 17  1  0
  1 18  1  0
  1 19  1  0
  4 20  1  0
  5 21  1  0
  6 22  1  0
 10 23  1  0
 10 24  1  0
 11 25  1  0
 11 26  1  0
 12 27  1  0
 12 28  1  0
 13 29  1  6
 14 30  1  0
 14 31  1  0
 15 32  1  0
 15 33  1  0
 16 34  1  0
 16 35  1  0
M  CHG  1   4   1
M  END
>  <UniqueID>  (5) 
4

>  <SMILES>  (5) 
COc1[nH+]ccnc1N1CCC[C@H](CN)C1

>  <Energy>  (5) 
38.17846550068594

>  <Genealogy>  (5) 
COc1[nH+]ccnc1N1CCCC(CN)C1 (protonated)
COc1[nH+]ccnc1N1CCC[C@H](CN)C1 (chirality)
COc1[nH+]ccnc1N1CCC[C@H](CN)C1 (3D coordinates assigned)
COc1[nH+]ccnc1N1CCC[C@H](CN)C1 (nonaromatic ring conformer: 38.17846550068594 kcal/mol)

>  <smiles>  (5) 
COc1nccnc1N1CCCC(CN)C1

>  <score_type>  (5) 
oracle

>  <origin>  (5) 
adg

>  <m_score__min__energy>  (5) 
-5.9400000000000004

>  <m_primary>  (5) 
energy

$$$$
5:0
     RDKit          3D

 39 41  0  0  0  0  0  0  0  0999 V2000
    0.1140   21.1750  -34.6110 C   0  0  0  0  0  0  0  0  0  0  0  0
    0.2390   20.8160  -33.1240 C   0  0  0  0  0  0  0  0  0  0  0  0
   -1.1010   21.1870  -32.5440 C   0  0  0  0  0  0  0  0  0  0  0  0
   -1.2420   21.5470  -31.2190 C   0  0  0  0  0  0  0  0  0  0  0  0
   -2.4770   21.8950  -30.6690 C   0  0  0  0  0  0  0  0  0  0  0  0
   -3.5870   21.8810  -31.4710 C   0  0  0  0  0  0  0  0  0  0  0  0
   -4.9050   22.1960  -31.0350 N   0  0  0  0  0  0  0  0  0  0  0  0
   -5.2140   23.5780  -30.9250 C   0  0  0  0  0  0  0  0  0  0  0  0
   -4.2570   24.3690  -31.2170 O   0  0  0  0  0  0  0  0  0  0  0  0
   -6.4860   24.1510  -30.5220 C   0  0  0  0  0  0  0  0  0  0  0  0
   -7.8560   23.4180  -31.4230 S   0  0  0  0  0  0  0  0  0  0  0  0
   -7.4700   21.7570  -31.8760 C   0  0  0  0  0  0  0  0  0  0  0  0
   -7.6630   20.5830  -31.2590 N   0  0  0  0  0  0  0  0  0  0  0  0
   -7.2170   19.5740  -32.0070 C   0  0  0  0  0  0  0  0  0  0  0  0
   -7.1410   18.1920  -31.9100 C   0  0  0  0  0  0  0  0  0  0  0  0
   -6.5790   17.4260  -32.9360 C   0  0  0  0  0  0  0  0  0  0  0  0
   -6.0750   17.9970  -34.0870 C   0  0  0  0  0  0  0  0  0  0  0  0
   -6.1510   19.3670  -34.1830 C   0  0  0  0  0  0  0  0  0  0  0  0
   -6.7060   20.1250  -33.1700 C   0  0  0  0  0  0  0  0  0  0  0  0
   -6.8720   21.4460  -33.0660 N   0  0  0  0  0  0  0  0  0  0  0  0
   -3.4610   21.5200  -32.8060 C   0  0  0  0  0  0  0  0  0  0  0  0
   -2.2270   21.1720  -33.3510 C   0  0  0  0  0  0  0  0  0  0  0  0
   -0.2463   22.2097  -34.7094 H   0  0  0  0  0  0  0  0  0  0  0  0
    1.0975   21.0816  -35.0947 H   0  0  0  0  0  0  0  0  0  0  0  0
   -0.5989   20.4910  -35.0947 H   0  0  0  0  0  0  0  0  0  0  0  0
    0.4358   19.7413  -32.9967 H   0  0  0  0  0  0  0  0  0  0  0  0
    1.0722   21.3387  -32.6315 H   0  0  0  0  0  0  0  0  0  0  0  0
   -0.3508   21.5601  -30.5744 H   0  0  0  0  0  0  0  0  0  0  0  0
   -2.5573   22.1759  -29.6085 H   0  0  0  0  0  0  0  0  0  0  0  0
   -5.6320   21.4950  -30.8000 H   0  0  0  0  0  0  0  0  0  0  0  0
   -6.6317   23.9755  -29.4459 H   0  0  0  0  0  0  0  0  0  0  0  0
   -6.4644   25.2280  -30.7448 H   0  0  0  0  0  0  0  0  0  0  0  0
   -7.5293   17.6907  -31.0112 H   0  0  0  0  0  0  0  0  0  0  0  0
   -6.5372   16.3327  -32.8221 H   0  0  0  0  0  0  0  0  0  0  0  0
   -5.6340   17.3862  -34.8885 H   0  0  0  0  0  0  0  0  0  0  0  0
   -5.7630   19.8680  -35.0822 H   0  0  0  0  0  0  0  0  0  0  0  0
   -6.5750   22.1250  -33.8030 H   0  0  0  0  0  0  0  0  0  0  0  0
   -4.3548   21.5086  -33.4470 H   0  0  0  0  0  0  0  0  0  0  0  0
   -2.1475   20.8883  -34.4108 H   0  0  0  0  0  0  0  0  0  0  0  0
  1  2  1  0
  2  3  1  0
  3  4  2  0
  4  5  1  0
  5  6  2  0
  6  7  1  0
  7  8  1  0
  8  9  2  0
  8 10  1  0
 10 11  1  0
 11 12  1  0
 12 13  2  0
 13 14  1  0
 14 15  2  0
 15 16  1  0
 16 17  2  0
 17 18  1  0
 18 19  2  0
 19 20  1  0
  6 21  1  0
 21 22  2  0
 22  3  1  0
 20 12  1  0
 19 14  1  0
  1 23  1  0
  1 24  1  0
  1 25  1  0
  2 26  1  0
  2 27  1  0
  4 28  1  0
  5 29  1  0
  7 30  1  0
 10 31  1  0
 10 32  1  0
 15 33  1  0
 16 34  1  0
 17 35  1  0
 18 36  1  0
 20 37  1  0
 21 38  1  0
 22 39  1  0
M  END
>  <smiles>  (6) 
CCc1ccc(NC(=O)CSc2nc3ccccc3[nH]2)cc1

>  <score_type>  (6) 
oracle

>  <origin>  (6) 
adg

>  <m_score__min__energy>  (6) 
-8.5299999999999994

>  <m_primary>  (6) 
energy

$$$$
6:0
     RDKit          3D

 43 46  0  0  0  0  0  0  0  0999 V2000
    1.3750   20.7590  -33.5910 C   0  0  0  0  0  0  0  0  0  0  0  0
    0.5270   21.4010  -34.4980 C   0  0  0  0  0  0  0  0  0  0  0  0
   -0.8380   21.5210  -34.2180 C   0  0  0  0  0  0  0  0  0  0  0  0
   -1.3690   20.9980  -33.0240 C   0  0  0  0  0  0  0  0  0  0  0  0
   -2.8180   21.1280  -32.7270 C   0  0  0  0  0  0  0  0  0  0  0  0
   -3.3070   22.2660  -32.0700 C   0  0  0  0  0  0  0  0  0  0  0  0
   -4.6740   22.3480  -31.7800 C   0  0  0  0  0  0  0  0  0  0  0  0
   -5.2440   23.5120  -31.0740 C   0  0  0  0  0  0  0  0  0  0  0  0
   -6.5960   23.7160  -30.8100 C   0  0  0  0  0  0  0  0  0  0  0  0
   -6.8560   24.9090  -30.1240 C   0  0  0  0  0  0  0  0  0  0  0  0
   -5.7180   25.6520  -29.8450 C   0  0  0  0  0  0  0  0  0  0  0  0
   -4.3880   24.8240  -30.4510 S   0  0  0  0  0  0  0  0  0  0  0  0
   -5.4910   21.3290  -32.1530 N   0  0  0  0  0  0  0  0  0  0  0  0
   -5.0190   20.2340  -32.8060 C   0  0  0  0  0  0  0  0  0  0  0  0
   -5.9280   19.1790  -33.1710 N   0  0  0  0  0  0  0  0  0  0  0  0
   -6.8480   18.6470  -32.1550 C   0  0  0  0  0  0  0  0  0  0  0  0
   -7.6100   17.4180  -32.6710 C   0  0  0  0  0  0  0  0  0  0  0  0
   -6.6590   16.4780  -33.4240 C   0  0  0  0  0  0  0  0  0  0  0  0
   -5.9450   17.1710  -34.6060 C   0  0  0  0  0  0  0  0  0  0  0  0
   -6.0290   18.7050  -34.5570 C   0  0  0  0  0  0  0  0  0  0  0  0
   -3.6850   20.1330  -33.0750 N   0  0  0  0  0  0  0  0  0  0  0  0
   -0.5050   20.3530  -32.1190 C   0  0  0  0  0  0  0  0  0  0  0  0
    0.8590   20.2370  -32.4040 C   0  0  0  0  0  0  0  0  0  0  0  0
    2.4483   20.6653  -33.8127 H   0  0  0  0  0  0  0  0  0  0  0  0
    0.9339   21.8125  -35.4335 H   0  0  0  0  0  0  0  0  0  0  0  0
   -1.5007   22.0272  -34.9353 H   0  0  0  0  0  0  0  0  0  0  0  0
   -2.6264   23.0824  -31.7866 H   0  0  0  0  0  0  0  0  0  0  0  0
   -7.3831   23.0090  -31.1110 H   0  0  0  0  0  0  0  0  0  0  0  0
   -7.8681   25.2273  -29.8335 H   0  0  0  0  0  0  0  0  0  0  0  0
   -5.6913   26.6171  -29.3178 H   0  0  0  0  0  0  0  0  0  0  0  0
   -6.2694   18.3604  -31.2645 H   0  0  0  0  0  0  0  0  0  0  0  0
   -7.5817   19.4296  -31.9115 H   0  0  0  0  0  0  0  0  0  0  0  0
   -8.0515   16.8807  -31.8187 H   0  0  0  0  0  0  0  0  0  0  0  0
   -8.4018   17.7509  -33.3582 H   0  0  0  0  0  0  0  0  0  0  0  0
   -5.8978   16.1103  -32.7202 H   0  0  0  0  0  0  0  0  0  0  0  0
   -7.2630   15.6566  -33.8370 H   0  0  0  0  0  0  0  0  0  0  0  0
   -4.8844   16.8795  -34.5917 H   0  0  0  0  0  0  0  0  0  0  0  0
   -6.4534   16.8478  -35.5263 H   0  0  0  0  0  0  0  0  0  0  0  0
   -5.2048   19.1322  -35.1471 H   0  0  0  0  0  0  0  0  0  0  0  0
   -6.9963   19.0229  -34.9733 H   0  0  0  0  0  0  0  0  0  0  0  0
   -3.3210   19.2750  -33.5460 H   0  0  0  0  0  0  0  0  0  0  0  0
   -0.9052   19.9379  -31.1822 H   0  0  0  0  0  0  0  0  0  0  0  0
    1.5273   19.7328  -31.6905 H   0  0  0  0  0  0  0  0  0  0  0  0
  1  2  2  0
  2  3  1  0
  3  4  2  0
  4  5  1  0
  5  6  2  0
  6  7  1  0
  7  8  1  0
  8  9  2  0
  9 10  1  0
 10 11  2  0
 11 12  1  0
  7 13  2  0
 13 14  1  0
 14 15  1  0
 15 16  1  0
 16 17  1  0
 17 18  1  0
 18 19  1  0
 19 20  1  0
 14 21  2  0
  4 22  1  0
 22 23  2  0
 23  1  1  0
 21  5  1  0
 12  8  1  0
 20 15  1  0
  1 24  1  0
  2 25  1  0
  3 26  1  0
  6 27  1  0
  9 28  1  0
 10 29  1  0
 11 30  1  0
 16 31  1  0
 16 32  1  0
 17 33  1  0
 17 34  1  0
 18 35  1  0
 18 36  1  0
 19 37  1  0
 19 38  1  0
 20 39  1  0
 20 40  1  0
 21 41  1  0
 22 42  1  0
 23 43  1  0
M  CHG  1  21   1
M  END
>  <UniqueID>  (7) 
5

>  <SMILES>  (7) 
c1ccc(-c2cc(-c3cccs3)nc(N3CCCCC3)[nH+]2)cc1

>  <Energy>  (7) 
81.49027552360066

>  <Genealogy>  (7) 
c1ccc(-c2cc(-c3cccs3)nc(N3CCCCC3)[nH+]2)cc1 (protonated)
c1ccc(-c2cc(-c3cccs3)nc(N3CCCCC3)[nH+]2)cc1 (3D coordinates assigned)
c1ccc(-c2cc(-c3cccs3)nc(N3CCCCC3)[nH+]2)cc1 (nonaromatic ring conformer: 81.49027552360066 kcal/mol)

>  <smiles>  (7) 
c1ccc(-c2cc(-c3cccs3)nc(N3CCCCC3)n2)cc1

>  <score_type>  (7) 
oracle

>  <origin>  (7) 
adg

>  <m_score__min__energy>  (7) 
-7.2300000000000004

>  <m_primary>  (7) 
energy

$$$$
7:0
     RDKit          3D

 28 29  0  0  0  0  0  0  0  0999 V2000
   -0.2687   26.7984  -27.9097 H   0  0  0  0  0  0  0  0  0  0  0  0
   -1.0850   26.0620  -27.8740 C   0  0  0  0  0  0  0  0  0  0  0  0
   -1.5980   25.4810  -28.9920 N   0  0  0  0  0  0  0  0  0  0  0  0
   -2.5890   24.6110  -28.6990 C   0  0  0  0  0  0  0  0  0  0  0  0
   -3.2150   23.9470  -29.6260 N   0  0  0  0  0  0  0  0  0  0  0  0
   -4.2290   24.4320  -30.5200 C   0  0  0  0  0  0  0  0  0  0  0  0
   -4.2870   25.6490  -30.8450 O   0  0  0  0  0  0  0  0  0  0  0  0
   -5.1890   23.5080  -31.0450 N   0  0  0  0  0  0  0  0  0  0  0  0
   -5.1180   22.5060  -30.7580 H   0  0  0  0  0  0  0  0  0  0  0  0
   -6.2480   23.9390  -31.9580 C   0  0  0  0  0  0  0  0  0  0  0  0
   -6.0340   23.5533  -32.9657 H   0  0  0  0  0  0  0  0  0  0  0  0
   -6.2792   25.0385  -31.9666 H   0  0  0  0  0  0  0  0  0  0  0  0
   -7.6110   23.4140  -31.4990 C   0  0  0  0  0  0  0  0  0  0  0  0
   -8.4042   23.9196  -32.0693 H   0  0  0  0  0  0  0  0  0  0  0  0
   -7.7269   23.6182  -30.4243 H   0  0  0  0  0  0  0  0  0  0  0  0
   -7.7080   21.9360  -31.7240 C   0  0  0  0  0  0  0  0  0  0  0  0
   -6.6110   21.1310  -31.6750 N   0  0  0  0  0  0  0  0  0  0  0  0
   -6.9330   19.8340  -31.8670 C   0  0  0  0  0  0  0  0  0  0  0  0
   -5.9430   18.7220  -31.8000 C   0  0  0  0  0  0  0  0  0  0  0  0
   -5.7304   18.4832  -30.7475 H   0  0  0  0  0  0  0  0  0  0  0  0
   -6.3547   17.8338  -32.3015 H   0  0  0  0  0  0  0  0  0  0  0  0
   -5.0131   19.0282  -32.3015 H   0  0  0  0  0  0  0  0  0  0  0  0
   -8.5910   19.6310  -32.0550 S   0  0  0  0  0  0  0  0  0  0  0  0
   -8.9190   21.2760  -31.9210 C   0  0  0  0  0  0  0  0  0  0  0  0
   -9.9118   21.7461  -31.9786 H   0  0  0  0  0  0  0  0  0  0  0  0
   -2.8710   24.5290  -27.0330 S   0  0  0  0  0  0  0  0  0  0  0  0
   -1.6720   25.6530  -26.6850 C   0  0  0  0  0  0  0  0  0  0  0  0
   -1.2060   26.2580  -24.9380 Br  0  0  0  0  0  0  0  0  0  0  0  0
  1  2  1  0
  2  3  1  0
  3  4  1  0
  4  5  2  0
  5  6  1  0
  6  7  2  0
  6  8  1  0
  8  9  1  0
  8 10  1  0
 10 11  1  0
 10 12  1  0
 10 13  1  0
 13 14  1  0
 13 15  1  0
 13 16  1  0
 16 17  1  0
 17 18  2  0
 18 19  1  0
 19 20  1  0
 19 21  1  0
 19 22  1  0
 18 23  1  0
 23 24  1  0
 24 25  1  0
  4 26  1  0
 26 27  1  0
 27 28  1  0
 27  2  2  0
 24 16  2  0
M  CHG  1   3  -1
M  END
>  <UniqueID>  (8) 
6

>  <SMILES>  (8) 
Cc1nc(CCNC(=O)/N=c2/[n-]cc(Br)s2)cs1

>  <Energy>  (8) 
83.73174618054978

>  <Genealogy>  (8) 
Cc1nc(CCNC(=O)N=c2[n-]cc(Br)s2)cs1 (protonated)
Cc1nc(CCNC(=O)/N=c2/[n-]cc(Br)s2)cs1 (cis-trans isomerization)
Cc1nc(CCNC(=O)/N=c2/[n-]cc(Br)s2)cs1 (3D coordinates assigned)
Cc1nc(CCNC(=O)/N=c2/[n-]cc(Br)s2)cs1 (optimized conformer: 83.73174618054978 kcal/mol)

>  <smiles>  (8) 
Cc1nc(CCNC(=O)N=c2[nH]cc(Br)s2)cs1

>  <score_type>  (8) 
oracle

>  <origin>  (8) 
adg

>  <m_score__min__energy>  (8) 
-9.0399999999999991

>  <m_primary>  (8) 
energy

$$$$
8:0
     RDKit          3D

 30 31  0  0  0  0  0  0  0  0999 V2000
   -2.4820   16.6060  -33.7290 C   0  0  0  0  0  0  0  0  0  0  0  0
   -3.6400   16.4450  -34.7290 C   0  0  0  0  0  0  0  0  0  0  0  0
   -4.9880   16.7810  -34.2110 N   0  0  1  0  0  0  0  0  0  0  0  0
   -5.3190   16.2810  -32.8550 C   0  0  0  0  0  0  0  0  0  0  0  0
   -6.4160   17.1720  -32.2180 C   0  0  0  0  0  0  0  0  0  0  0  0
   -6.2490   18.5250  -32.7290 N   0  0  0  0  0  0  0  0  0  0  0  0
   -7.1700   19.5870  -32.4610 C   0  0  0  0  0  0  0  0  0  0  0  0
   -8.5490   19.3720  -32.6070 C   0  0  0  0  0  0  0  0  0  0  0  0
   -9.4530   20.4070  -32.3620 C   0  0  0  0  0  0  0  0  0  0  0  0
   -8.9880   21.6640  -31.9710 C   0  0  0  0  0  0  0  0  0  0  0  0
   -7.6160   21.8930  -31.8210 C   0  0  0  0  0  0  0  0  0  0  0  0
   -7.0740   23.4900  -31.3210 Cl  0  0  0  0  0  0  0  0  0  0  0  0
   -6.7000   20.8530  -32.0650 C   0  0  0  0  0  0  0  0  0  0  0  0
   -4.9700   21.1220  -31.8530 Cl  0  0  0  0  0  0  0  0  0  0  0  0
   -5.3100   18.4790  -34.1530 S   0  0  0  0  0  0  0  0  0  0  0  0
   -6.1160   18.9100  -35.3460 O   0  0  0  0  0  0  0  0  0  0  0  0
   -4.0670   19.3130  -34.0150 O   0  0  0  0  0  0  0  0  0  0  0  0
   -2.8737   16.5515  -32.7025 H   0  0  0  0  0  0  0  0  0  0  0  0
   -1.7485   15.8012  -33.8847 H   0  0  0  0  0  0  0  0  0  0  0  0
   -1.9959   17.5804  -33.8847 H   0  0  0  0  0  0  0  0  0  0  0  0
   -3.4363   17.0984  -35.5901 H   0  0  0  0  0  0  0  0  0  0  0  0
   -3.6733   15.3744  -34.9795 H   0  0  0  0  0  0  0  0  0  0  0  0
   -5.6890   16.3740  -34.8740 H   0  0  0  0  0  0  0  0  0  0  0  0
   -5.6856   15.2464  -32.9271 H   0  0  0  0  0  0  0  0  0  0  0  0
   -4.4165   16.3125  -32.2268 H   0  0  0  0  0  0  0  0  0  0  0  0
   -7.4113   16.7905  -32.4897 H   0  0  0  0  0  0  0  0  0  0  0  0
   -6.3264   17.1636  -31.1217 H   0  0  0  0  0  0  0  0  0  0  0  0
   -8.9193   18.3833  -32.9159 H   0  0  0  0  0  0  0  0  0  0  0  0
  -10.5329   20.2320  -32.4771 H   0  0  0  0  0  0  0  0  0  0  0  0
   -9.7033   22.4776  -31.7801 H   0  0  0  0  0  0  0  0  0  0  0  0
  1  2  1  0
  2  3  1  0
  3  4  1  0
  4  5  1  0
  5  6  1  0
  6  7  1  0
  7  8  2  0
  8  9  1  0
  9 10  2  0
 10 11  1  0
 11 12  1  0
 11 13  2  0
 13 14  1  0
  6 15  1  0
 15 16  2  0
 15 17  2  0
 15  3  1  0
 13  7  1  0
  1 18  1  0
  1 19  1  0
  1 20  1  0
  2 21  1  0
  2 22  1  0
  3 23  1  6
  4 24  1  0
  4 25  1  0
  5 26  1  0
  5 27  1  0
  8 28  1  0
  9 29  1  0
 10 30  1  0
M  CHG  1   3   1
M  END
>  <UniqueID>  (9) 
7

>  <SMILES>  (9) 
CC[N@H+]1CCN(c2cccc(Cl)c2Cl)S1(=O)=O

>  <Energy>  (9) 
49.822000312178425

>  <Genealogy>  (9) 
CC[NH+]1CCN(c2cccc(Cl)c2Cl)S1(=O)=O (protonated)
CC[N@H+]1CCN(c2cccc(Cl)c2Cl)S1(=O)=O (chirality)
CC[N@H+]1CCN(c2cccc(Cl)c2Cl)S1(=O)=O (3D coordinates assigned)
CC[N@H+]1CCN(c2cccc(Cl)c2Cl)S1(=O)=O (nonaromatic ring conformer: 49.822000312178425 kcal/mol)

>  <smiles>  (9) 
CCN1CCN(c2cccc(Cl)c2Cl)S1(=O)=O

>  <score_type>  (9) 
oracle

>  <origin>  (9) 
adg

>  <m_score__min__energy>  (9) 
-6.3300000000000001

>  <m_primary>  (9) 
energy

$$$$
9:0
     RDKit          3D

 49 52  0  0  0  0  0  0  0  0999 V2000
    2.3550   20.2430  -35.1870 C   0  0  0  0  0  0  0  0  0  0  0  0
    1.0750   20.8650  -35.2010 O   0  0  0  0  0  0  0  0  0  0  0  0
    0.1130   20.7230  -34.1890 C   0  0  0  0  0  0  0  0  0  0  0  0
   -1.2350   20.7470  -34.5500 C   0  0  0  0  0  0  0  0  0  0  0  0
   -2.2340   20.5920  -33.5870 C   0  0  0  0  0  0  0  0  0  0  0  0
   -1.8970   20.4140  -32.2340 C   0  0  0  0  0  0  0  0  0  0  0  0
   -0.5400   20.3960  -31.8640 C   0  0  0  0  0  0  0  0  0  0  0  0
    0.4600   20.5520  -32.8380 C   0  0  0  0  0  0  0  0  0  0  0  0
   -0.2110   20.1920  -30.4390 C   0  0  0  0  0  0  0  0  0  0  0  0
    0.9310   20.4580  -30.0100 O   0  0  0  0  0  0  0  0  0  0  0  0
   -1.2450   19.7020  -29.5510 N   0  0  1  0  0  0  0  0  0  0  0  0
   -0.8740   19.7520  -28.1210 C   0  0  0  0  0  0  0  0  0  0  0  0
   -0.8090   21.1830  -27.5370 C   0  0  0  0  0  0  0  0  0  0  0  0
   -1.5080   22.2390  -28.3660 C   0  0  0  0  0  0  0  0  0  0  0  0
   -1.3240   23.5920  -28.0460 C   0  0  0  0  0  0  0  0  0  0  0  0
   -1.9880   24.6040  -28.7690 C   0  0  0  0  0  0  0  0  0  0  0  0
   -1.7900   25.9690  -28.5030 O   0  0  0  0  0  0  0  0  0  0  0  0
   -0.8530   26.4750  -27.5570 C   0  0  0  0  0  0  0  0  0  0  0  0
   -2.8760   24.2560  -29.7910 C   0  0  0  0  0  0  0  0  0  0  0  0
   -3.5360   25.2880  -30.4870 O   0  0  0  0  0  0  0  0  0  0  0  0
   -4.9450   25.4420  -30.5520 C   0  0  0  0  0  0  0  0  0  0  0  0
   -3.0780   22.8980  -30.0970 C   0  0  0  0  0  0  0  0  0  0  0  0
   -2.3700   21.8880  -29.4180 C   0  0  0  0  0  0  0  0  0  0  0  0
   -2.5150   20.4210  -29.7920 C   0  0  1  0  0  0  0  0  0  0  0  0
   -2.9110   20.2580  -31.2080 N   0  0  0  0  0  0  0  0  0  0  0  0
   -4.2780   19.8680  -31.5510 C   0  0  0  0  0  0  0  0  0  0  0  0
    2.6756   20.0872  -34.1464 H   0  0  0  0  0  0  0  0  0  0  0  0
    2.2968   19.2727  -35.7019 H   0  0  0  0  0  0  0  0  0  0  0  0
    3.0819   20.8883  -35.7019 H   0  0  0  0  0  0  0  0  0  0  0  0
   -1.5133   20.8896  -35.6046 H   0  0  0  0  0  0  0  0  0  0  0  0
   -3.2916   20.6093  -33.8890 H   0  0  0  0  0  0  0  0  0  0  0  0
    1.5194   20.5403  -32.5420 H   0  0  0  0  0  0  0  0  0  0  0  0
   -1.3960   18.6940  -29.7940 H   0  0  0  0  0  0  0  0  0  0  0  0
   -1.6195   19.1791  -27.5501 H   0  0  0  0  0  0  0  0  0  0  0  0
    0.1383   19.3292  -28.0401 H   0  0  0  0  0  0  0  0  0  0  0  0
   -1.2739   21.1673  -26.5402 H   0  0  0  0  0  0  0  0  0  0  0  0
    0.2552   21.4606  -27.5151 H   0  0  0  0  0  0  0  0  0  0  0  0
   -0.6524   23.8674  -27.2195 H   0  0  0  0  0  0  0  0  0  0  0  0
   -1.2179   26.2780  -26.5381 H   0  0  0  0  0  0  0  0  0  0  0  0
    0.1180   25.9786  -27.7011 H   0  0  0  0  0  0  0  0  0  0  0  0
   -0.7355   27.5592  -27.7011 H   0  0  0  0  0  0  0  0  0  0  0  0
   -5.3563   25.4870  -29.5328 H   0  0  0  0  0  0  0  0  0  0  0  0
   -5.1879   26.3720  -31.0868 H   0  0  0  0  0  0  0  0  0  0  0  0
   -5.3831   24.5864  -31.0868 H   0  0  0  0  0  0  0  0  0  0  0  0
   -3.8003   22.6208  -30.8789 H   0  0  0  0  0  0  0  0  0  0  0  0
   -3.3075   19.9956  -29.1588 H   0  0  0  0  0  0  0  0  0  0  0  0
   -4.8547   19.7035  -30.6288 H   0  0  0  0  0  0  0  0  0  0  0  0
   -4.7502   20.6673  -32.1411 H   0  0  0  0  0  0  0  0  0  0  0  0
   -4.2574   18.9399  -32.1411 H   0  0  0  0  0  0  0  0  0  0  0  0
  1  2  1  0
  2  3  1  0
  3  4  2  0
  4  5  1  0
  5  6  2  0
  6  7  1  0
  7  8  2  0
  7  9  1  0
  9 10  2  0
  9 11  1  0
 11 12  1  0
 12 13  1  0
 13 14  1  0
 14 15  2  0
 15 16  1  0
 16 17  1  0
 17 18  1  0
 16 19  2  0
 19 20  1  0
 20 21  1  0
 19 22  1  0
 22 23  2  0
 23 24  1  0
 24 25  1  0
 25 26  1  0
  8  3  1  0
 24 11  1  0
 25  6  1  0
 23 14  1  0
  1 27  1  0
  1 28  1  0
  1 29  1  0
  4 30  1  0
  5 31  1  0
  8 32  1  0
 11 33  1  6
 12 34  1  0
 12 35  1  0
 13 36  1  0
 13 37  1  0
 15 38  1  0
 18 39  1  0
 18 40  1  0
 18 41  1  0
 21 42  1  0
 21 43  1  0
 21 44  1  0
 22 45  1  0
 24 46  1  1
 26 47  1  0
 26 48  1  0
 26 49  1  0
M  CHG  1  11   1
M  END
>  <UniqueID>  (10) 
8

>  <SMILES>  (10) 
COc1ccc2c(c1)C(=O)[N@H+]1CCc3cc(OC)c(OC)cc3[C@H]1N2C

>  <Energy>  (10) 
67.61895648887317

>  <Genealogy>  (10) 
COc1ccc2c(c1)C(=O)[NH+]1CCc3cc(OC)c(OC)cc3C1N2C (protonated)
COc1ccc2c(c1)C(=O)[N@H+]1CCc3cc(OC)c(OC)cc3[C@H]1N2C (chirality)
COc1ccc2c(c1)C(=O)[N@H+]1CCc3cc(OC)c(OC)cc3[C@H]1N2C (3D coordinates assigned)
COc1ccc2c(c1)C(=O)[N@H+]1CCc3cc(OC)c(OC)cc3[C@H]1N2C (nonaromatic ring conformer: 67.61895648887317 kcal/mol)

>  <smiles>  (10) 
COc1ccc2c(c1)C(=O)N1CCc3cc(OC)c(OC)cc3C1N2C

>  <score_type>  (10) 
oracle

>  <origin>  (10) 
adg

>  <m_score__min__energy>  (10) 
-6.4699999999999998

>  <m_primary>  (10) 
energy

$$$$
10:0
     RDKit          3D

 39 40  0  0  0  0  0  0  0  0999 V2000
  -10.8814   21.5618  -31.7198 H   0  0  0  0  0  0  0  0  0  0  0  0
   -9.8560   21.2300  -31.9400 C   0  0  0  0  0  0  0  0  0  0  0  0
   -9.6150   19.9320  -32.2560 N   0  0  0  0  0  0  0  0  0  0  0  0
   -8.3640   19.4840  -32.5430 C   0  0  0  0  0  0  0  0  0  0  0  0
   -8.2117   18.4229  -32.7897 H   0  0  0  0  0  0  0  0  0  0  0  0
   -7.2570   20.3610  -32.5290 C   0  0  0  0  0  0  0  0  0  0  0  0
   -5.8430   19.8230  -32.8400 C   0  0  0  0  0  0  0  0  0  0  0  0
   -5.4570   18.7590  -31.7830 C   0  0  0  0  0  0  0  0  0  0  0  0
   -5.6070   19.1725  -30.7748 H   0  0  0  0  0  0  0  0  0  0  0  0
   -6.0892   17.8681  -31.9117 H   0  0  0  0  0  0  0  0  0  0  0  0
   -4.4006   18.4807  -31.9117 H   0  0  0  0  0  0  0  0  0  0  0  0
   -5.7600   19.1480  -34.2330 C   0  0  0  0  0  0  0  0  0  0  0  0
   -5.6266   18.0634  -34.1075 H   0  0  0  0  0  0  0  0  0  0  0  0
   -6.6887   19.3412  -34.7900 H   0  0  0  0  0  0  0  0  0  0  0  0
   -4.9058   19.5604  -34.7900 H   0  0  0  0  0  0  0  0  0  0  0  0
   -4.8410   21.0070  -32.7940 C   0  0  0  0  0  0  0  0  0  0  0  0
   -5.2347   21.8335  -33.4039 H   0  0  0  0  0  0  0  0  0  0  0  0
   -3.8744   20.6593  -33.1873 H   0  0  0  0  0  0  0  0  0  0  0  0
   -4.6390   21.4800  -31.4230 N   0  0  0  0  0  0  0  0  0  0  0  0
   -4.4190   22.7120  -31.0560 C   0  0  0  0  0  0  0  0  0  0  0  0
   -5.3330   23.7510  -31.3090 C   0  0  0  0  0  0  0  0  0  0  0  0
   -6.2772   23.5437  -31.8339 H   0  0  0  0  0  0  0  0  0  0  0  0
   -5.0320   25.0450  -30.8890 C   0  0  0  0  0  0  0  0  0  0  0  0
   -5.7412   25.8633  -31.0826 H   0  0  0  0  0  0  0  0  0  0  0  0
   -3.8650   25.2990  -30.2410 N   0  0  0  0  0  0  0  0  0  0  0  0
   -2.9540   24.3250  -29.9730 C   0  0  0  0  0  0  0  0  0  0  0  0
   -1.6830   24.6480  -29.2690 C   0  0  0  0  0  0  0  0  0  0  0  0
   -0.9320   23.7040  -28.9020 O   0  0  0  0  0  0  0  0  0  0  0  0
   -1.2600   25.9890  -28.9780 N   0  0  0  0  0  0  0  0  0  0  0  0
   -0.8470   26.5150  -27.6850 C   0  0  0  0  0  0  0  0  0  0  0  0
   -1.3119   25.9230  -26.8829 H   0  0  0  0  0  0  0  0  0  0  0  0
    0.2479   26.4551  -27.5975 H   0  0  0  0  0  0  0  0  0  0  0  0
   -1.1649   27.5644  -27.5975 H   0  0  0  0  0  0  0  0  0  0  0  0
   -3.2240   23.0080  -30.3850 C   0  0  0  0  0  0  0  0  0  0  0  0
   -2.4965   22.2086  -30.1806 H   0  0  0  0  0  0  0  0  0  0  0  0
   -7.5090   21.7100  -32.1840 C   0  0  0  0  0  0  0  0  0  0  0  0
   -6.6755   22.4267  -32.1432 H   0  0  0  0  0  0  0  0  0  0  0  0
   -8.8050   22.1400  -31.8950 C   0  0  0  0  0  0  0  0  0  0  0  0
   -8.9940   23.1916  -31.6334 H   0  0  0  0  0  0  0  0  0  0  0  0
  1  2  1  0
  2  3  2  0
  3  4  1  0
  4  5  1  0
  4  6  2  0
  6  7  1  0
  7  8  1  0
  8  9  1  0
  8 10  1  0
  8 11  1  0
  7 12  1  0
 12 13  1  0
 12 14  1  0
 12 15  1  0
  7 16  1  0
 16 17  1  0
 16 18  1  0
 16 19  1  0
 19 20  2  0
 20 21  1  0
 21 22  1  0
 21 23  2  0
 23 24  1  0
 23 25  1  0
 25 26  1  0
 26 27  1  0
 27 28  2  0
 27 29  1  0
 29 30  1  0
 30 31  1  0
 30 32  1  0
 30 33  1  0
 26 34  2  0
 34 35  1  0
  6 36  1  0
 36 37  1  0
 36 38  2  0
 38 39  1  0
 38  2  1  0
 34 20  1  0
M  CHG  2  25  -1  29  -1
M  END
>  <UniqueID>  (11) 
9

>  <SMILES>  (11) 
C[N-]C(=O)c1c/c(=N/CC(C)(C)c2cccnc2)cc[n-]1

>  <Energy>  (11) 
45.559033463366994

>  <Genealogy>  (11) 
C[N-]C(=O)c1cc(=NCC(C)(C)c2cccnc2)cc[n-]1 (protonated)
C[N-]C(=O)c1c/c(=N/CC(C)(C)c2cccnc2)cc[n-]1 (cis-trans isomerization)
C[N-]C(=O)c1c/c(=N/CC(C)(C)c2cccnc2)cc[n-]1 (3D coordinates assigned)
C[N-]C(=O)c1c/c(=N/CC(C)(C)c2cccnc2)cc[n-]1 (optimized conformer: 45.559033463366994 kcal/mol)

>  <smiles>  (11) 
CNC(=O)c1cc(=NCC(C)(C)c2cccnc2)cc[nH]1

>  <score_type>  (11) 
oracle

>  <origin>  (11) 
adg

>  <m_score__min__energy>  (11) 
-10.800000000000001

>  <m_primary>  (11) 
energy

$$$$
11:0
     RDKit          3D

 51 53  0  0  0  0  0  0  0  0999 V2000
   -3.4990   18.9190  -26.2940 C   0  0  0  0  0  0  0  0  0  0  0  0
   -1.7790   18.5280  -26.7560 S   0  0  0  0  0  0  0  0  0  0  0  0
   -1.2300   20.2640  -26.9500 C   0  0  0  0  0  0  0  0  0  0  0  0
   -1.0400   20.6430  -28.4270 C   0  0  0  0  0  0  0  0  0  0  0  0
   -2.0120   21.7380  -28.9110 C   0  0  2  0  0  0  0  0  0  0  0  0
   -3.2870   21.6180  -28.1620 N   0  0  0  0  0  0  0  0  0  0  0  0
   -3.8680   22.9250  -27.8160 C   0  0  0  0  0  0  0  0  0  0  0  0
   -4.4650   23.5920  -29.0270 C   0  0  0  0  0  0  0  0  0  0  0  0
   -5.7640   23.2720  -29.4450 C   0  0  0  0  0  0  0  0  0  0  0  0
   -6.3220   23.9180  -30.5500 C   0  0  0  0  0  0  0  0  0  0  0  0
   -5.5730   24.8810  -31.2280 C   0  0  0  0  0  0  0  0  0  0  0  0
   -4.3150   25.1840  -30.8120 N   0  0  0  0  0  0  0  0  0  0  0  0
   -3.7510   24.5690  -29.7370 C   0  0  0  0  0  0  0  0  0  0  0  0
   -2.2470   21.5940  -30.3930 C   0  0  0  0  0  0  0  0  0  0  0  0
   -1.2790   21.5550  -31.3250 N   0  0  0  0  0  0  0  0  0  0  0  0
   -1.8620   21.3850  -32.4990 N   0  0  0  0  0  0  0  0  0  0  0  0
   -3.1840   21.3340  -32.2350 C   0  0  0  0  0  0  0  0  0  0  0  0
   -4.2410   21.0930  -33.2660 C   0  0  0  0  0  0  0  0  0  0  0  0
   -4.7350   19.6410  -33.2290 C   0  0  0  0  0  0  0  0  0  0  0  0
   -6.1630   19.5470  -32.7520 C   0  0  0  0  0  0  0  0  0  0  0  0
   -6.7470   18.2940  -32.4990 C   0  0  0  0  0  0  0  0  0  0  0  0
   -8.0540   18.2110  -32.0110 C   0  0  0  0  0  0  0  0  0  0  0  0
   -8.7840   19.3760  -31.7620 C   0  0  0  0  0  0  0  0  0  0  0  0
   -8.2080   20.6280  -32.0030 C   0  0  0  0  0  0  0  0  0  0  0  0
   -9.1230   22.0900  -31.6820 Cl  0  0  0  0  0  0  0  0  0  0  0  0
   -6.9010   20.7140  -32.4950 C   0  0  0  0  0  0  0  0  0  0  0  0
   -3.4270   21.4590  -30.9490 O   0  0  0  0  0  0  0  0  0  0  0  0
   -3.5886   18.9394  -25.1978 H   0  0  0  0  0  0  0  0  0  0  0  0
   -3.7739   19.9026  -26.7027 H   0  0  0  0  0  0  0  0  0  0  0  0
   -4.1721   18.1510  -26.7027 H   0  0  0  0  0  0  0  0  0  0  0  0
   -1.9868   20.9280  -26.5070 H   0  0  0  0  0  0  0  0  0  0  0  0
   -0.2603   20.3738  -26.4423 H   0  0  0  0  0  0  0  0  0  0  0  0
   -0.0106   21.0060  -28.5637 H   0  0  0  0  0  0  0  0  0  0  0  0
   -1.2467   19.7410  -29.0217 H   0  0  0  0  0  0  0  0  0  0  0  0
   -1.5800   22.7327  -28.7265 H   0  0  0  0  0  0  0  0  0  0  0  0
   -4.0060   21.1100  -28.7280 H   0  0  0  0  0  0  0  0  0  0  0  0
   -4.6552   22.7796  -27.0616 H   0  0  0  0  0  0  0  0  0  0  0  0
   -3.0681   23.5690  -27.4218 H   0  0  0  0  0  0  0  0  0  0  0  0
   -6.3443   22.5114  -28.9021 H   0  0  0  0  0  0  0  0  0  0  0  0
   -7.3409   23.6706  -30.8826 H   0  0  0  0  0  0  0  0  0  0  0  0
   -6.0016   25.3957  -32.1006 H   0  0  0  0  0  0  0  0  0  0  0  0
   -2.7317   24.8388  -29.4236 H   0  0  0  0  0  0  0  0  0  0  0  0
   -0.2480   21.6260  -31.1730 H   0  0  0  0  0  0  0  0  0  0  0  0
   -5.0899   21.7653  -33.0728 H   0  0  0  0  0  0  0  0  0  0  0  0
   -3.8086   21.2874  -34.2586 H   0  0  0  0  0  0  0  0  0  0  0  0
   -4.6692   19.2166  -34.2417 H   0  0  0  0  0  0  0  0  0  0  0  0
   -4.1017   19.0823  -32.5242 H   0  0  0  0  0  0  0  0  0  0  0  0
   -6.1729   17.3745  -32.6859 H   0  0  0  0  0  0  0  0  0  0  0  0
   -8.5086   17.2272  -31.8227 H   0  0  0  0  0  0  0  0  0  0  0  0
   -9.8120   19.3088  -31.3763 H   0  0  0  0  0  0  0  0  0  0  0  0
   -6.4496   21.6997  -32.6813 H   0  0  0  0  0  0  0  0  0  0  0  0
  1  2  1  0
  2  3  1  0
  3  4  1  0
  4  5  1  0
  5  6  1  0
  6  7  1  0
  7  8  1  0
  8  9  2  0
  9 10  1  0
 10 11  2  0
 11 12  1  0
 12 13  2  0
  5 14  1  0
 14 15  2  0
 15 16  1  0
 16 17  2  0
 17 18  1  0
 18 19  1  0
 19 20  1  0
 20 21  2  0
 21 22  1  0
 22 23  2  0
 23 24  1  0
 24 25  1  0
 24 26  2  0
 17 27  1  0
 13  8  1  0
 27 14  1  0
 26 20  1  0
  1 28  1  0
  1 29  1  0
  1 30  1  0
  3 31  1  0
  3 32  1  0
  4 33  1  0
  4 34  1  0
  5 35  1  6
  6 36  1  0
  7 37  1  0
  7 38  1  0
  9 39  1  0
 10 40  1  0
 11 41  1  0
 13 42  1  0
 15 43  1  0
 18 44  1  0
 18 45  1  0
 19 46  1  0
 19 47  1  0
 21 48  1  0
 22 49  1  0
 23 50  1  0
 26 51  1  0
M  CHG  1  15   1
M  END
>  <UniqueID>  (12) 
10

>  <SMILES>  (12) 
CSCC[C@H](NCc1cccnc1)c1[nH+]nc(CCc2cccc(Cl)c2)o1

>  <Energy>  (12) 
76.05614289480859

>  <Genealogy>  (12) 
CSCCC(NCc1cccnc1)c1[nH+]nc(CCc2cccc(Cl)c2)o1 (protonated)
CSCC[C@H](NCc1cccnc1)c1[nH+]nc(CCc2cccc(Cl)c2)o1 (chirality)
CSCC[C@H](NCc1cccnc1)c1[nH+]nc(CCc2cccc(Cl)c2)o1 (3D coordinates assigned)
CSCC[C@H](NCc1cccnc1)c1[nH+]nc(CCc2cccc(Cl)c2)o1 (optimized conformer: 76.05614289480859 kcal/mol)

>  <smiles>  (12) 
CSCCC(NCc1cccnc1)c1nnc(CCc2cccc(Cl)c2)o1

>  <score_type>  (12) 
oracle

>  <origin>  (12) 
adg

>  <m_score__min__energy>  (12) 
-9.4700000000000006

>  <m_primary>  (12) 
energy

$$$$
12:0
     RDKit          3D

 43 45  0  0  0  0  0  0  0  0999 V2000
    0.0180   24.7750  -25.9570 C   0  0  0  0  0  0  0  0  0  0  0  0
   -0.9890   24.7880  -27.0580 C   0  0  0  0  0  0  0  0  0  0  0  0
   -2.2410   24.1970  -27.0280 C   0  0  0  0  0  0  0  0  0  0  0  0
   -2.7580   24.5070  -28.2650 C   0  0  0  0  0  0  0  0  0  0  0  0
   -3.9410   24.1630  -28.6790 N   0  0  0  0  0  0  0  0  0  0  0  0
   -4.5020   24.4940  -29.9550 C   0  0  0  0  0  0  0  0  0  0  0  0
   -4.2790   25.6360  -30.4430 O   0  0  0  0  0  0  0  0  0  0  0  0
   -5.4820   23.5650  -30.6330 C   0  0  0  0  0  0  0  0  0  0  0  0
   -4.7730   22.4230  -31.3980 C   0  0  0  0  0  0  0  0  0  0  0  0
   -5.4870   22.0130  -32.7030 C   0  0  0  0  0  0  0  0  0  0  0  0
   -6.9580   22.1470  -32.6560 N   0  0  0  0  0  0  0  0  0  0  0  0
   -7.7560   20.7410  -31.9860 S   0  0  0  0  0  0  0  0  0  0  0  0
   -9.1820   20.7190  -32.4580 O   0  0  0  0  0  0  0  0  0  0  0  0
   -7.7740   20.8430  -30.4860 O   0  0  0  0  0  0  0  0  0  0  0  0
   -6.9680   19.2310  -32.4440 C   0  0  0  0  0  0  0  0  0  0  0  0
   -6.4500   19.0690  -33.7380 C   0  0  0  0  0  0  0  0  0  0  0  0
   -5.8290   17.8700  -34.1020 C   0  0  0  0  0  0  0  0  0  0  0  0
   -5.7340   16.8230  -33.1820 C   0  0  0  0  0  0  0  0  0  0  0  0
   -6.2580   16.9740  -31.8950 C   0  0  0  0  0  0  0  0  0  0  0  0
   -6.8800   18.1720  -31.5280 C   0  0  0  0  0  0  0  0  0  0  0  0
   -7.4850   23.4280  -32.1280 C   0  0  0  0  0  0  0  0  0  0  0  0
   -6.4030   24.3560  -31.5650 C   0  0  0  0  0  0  0  0  0  0  0  0
   -1.8740   25.2510  -28.9590 N   0  0  0  0  0  0  0  0  0  0  0  0
   -0.8260   25.4050  -28.2070 O   0  0  0  0  0  0  0  0  0  0  0  0
   -0.4997   24.7817  -24.9865 H   0  0  0  0  0  0  0  0  0  0  0  0
    0.6365   23.8688  -26.0364 H   0  0  0  0  0  0  0  0  0  0  0  0
    0.6596   25.6649  -26.0364 H   0  0  0  0  0  0  0  0  0  0  0  0
   -2.7076   23.6212  -26.2151 H   0  0  0  0  0  0  0  0  0  0  0  0
   -6.0888   23.0927  -29.8465 H   0  0  0  0  0  0  0  0  0  0  0  0
   -3.7542   22.7533  -31.6487 H   0  0  0  0  0  0  0  0  0  0  0  0
   -4.7788   21.5426  -30.7385 H   0  0  0  0  0  0  0  0  0  0  0  0
   -5.1085   22.6480  -33.5176 H   0  0  0  0  0  0  0  0  0  0  0  0
   -5.2714   20.9458  -32.8596 H   0  0  0  0  0  0  0  0  0  0  0  0
   -6.5326   19.8875  -34.4682 H   0  0  0  0  0  0  0  0  0  0  0  0
   -5.4148   17.7511  -35.1141 H   0  0  0  0  0  0  0  0  0  0  0  0
   -5.2469   15.8799  -33.4704 H   0  0  0  0  0  0  0  0  0  0  0  0
   -6.1812   16.1501  -31.1702 H   0  0  0  0  0  0  0  0  0  0  0  0
   -7.3014   18.2841  -30.5181 H   0  0  0  0  0  0  0  0  0  0  0  0
   -8.0021   23.9533  -32.9445 H   0  0  0  0  0  0  0  0  0  0  0  0
   -8.1588   23.1786  -31.2950 H   0  0  0  0  0  0  0  0  0  0  0  0
   -5.8130   24.7752  -32.3934 H   0  0  0  0  0  0  0  0  0  0  0  0
   -6.8789   25.1723  -31.0017 H   0  0  0  0  0  0  0  0  0  0  0  0
   -1.9900   25.6770  -29.9030 H   0  0  0  0  0  0  0  0  0  0  0  0
  1  2  1  0
  2  3  2  0
  3  4  1  0
  4  5  2  3
  5  6  1  0
  6  7  2  0
  6  8  1  0
  8  9  1  0
  9 10  1  0
 10 11  1  0
 11 12  1  0
 12 13  2  0
 12 14  2  0
 12 15  1  0
 15 16  2  0
 16 17  1  0
 17 18  2  0
 18 19  1  0
 19 20  2  0
 11 21  1  0
 21 22  1  0
  4 23  1  0
 23 24  1  0
 24  2  1  0
 22  8  1  0
 20 15  1  0
  1 25  1  0
  1 26  1  0
  1 27  1  0
  3 28  1  0
  8 29  1  0
  9 30  1  0
  9 31  1  0
 10 32  1  0
 10 33  1  0
 16 34  1  0
 17 35  1  0
 18 36  1  0
 19 37  1  0
 20 38  1  0
 21 39  1  0
 21 40  1  0
 22 41  1  0
 22 42  1  0
 23 43  1  0
M  END
>  <UniqueID>  (13) 
11

>  <SMILES>  (13) 
Cc1cc(=NC(=O)C2CCN(S(=O)(=O)c3ccccc3)CC2)[nH]o1

>  <Energy>  (13) 
87.85745025762628

>  <Genealogy>  (13) 
Cc1cc(=NC(=O)C2CCN(S(=O)(=O)c3ccccc3)CC2)[nH]o1 (3D coordinates assigned)
Cc1cc(=NC(=O)C2CCN(S(=O)(=O)c3ccccc3)CC2)[nH]o1 (nonaromatic ring conformer: 87.85745025762628 kcal/mol)

>  <smiles>  (13) 
Cc1cc(=NC(=O)C2CCN(S(=O)(=O)c3ccccc3)CC2)[nH]o1

>  <score_type>  (13) 
oracle

>  <origin>  (13) 
adg

>  <m_score__min__energy>  (13) 
-9.7699999999999996

>  <m_primary>  (13) 
energy

$$$$
13:0
     RDKit          3D

 29 30  0  0  0  0  0  0  0  0999 V2000
   -6.4620   17.8740  -31.2100 C   0  0  0  0  0  0  0  0  0  0  0  0
   -7.2360   18.0500  -32.4540 N   0  0  0  0  0  0  0  0  0  0  0  0
   -6.4570   18.8010  -33.4810 C   0  0  0  0  0  0  0  0  0  0  0  0
   -6.8560   20.2840  -33.6090 C   0  0  0  0  0  0  0  0  0  0  0  0
   -7.3410   20.7980  -32.3250 N   0  0  0  0  0  0  0  0  0  0  0  0
   -6.7610   21.9710  -31.7200 C   0  0  0  0  0  0  0  0  0  0  0  0
   -7.4360   22.6640  -30.7020 C   0  0  0  0  0  0  0  0  0  0  0  0
   -6.8690   23.8070  -30.1380 C   0  0  0  0  0  0  0  0  0  0  0  0
   -5.6300   24.2550  -30.5990 C   0  0  0  0  0  0  0  0  0  0  0  0
   -4.9890   23.5820  -31.5910 N   0  0  0  0  0  0  0  0  0  0  0  0
   -5.5210   22.4660  -32.1580 C   0  0  0  0  0  0  0  0  0  0  0  0
   -8.4450   20.0950  -31.6640 C   0  0  0  0  0  0  0  0  0  0  0  0
   -8.5640   18.6510  -32.1860 C   0  0  0  0  0  0  0  0  0  0  0  0
   -7.1222   18.0241  -30.3430 H   0  0  0  0  0  0  0  0  0  0  0  0
   -6.0426   16.8576  -31.1798 H   0  0  0  0  0  0  0  0  0  0  0  0
   -5.6443   18.6091  -31.1798 H   0  0  0  0  0  0  0  0  0  0  0  0
   -7.4120   17.0880  -32.8320 H   0  0  0  0  0  0  0  0  0  0  0  0
   -5.3916   18.7513  -33.2118 H   0  0  0  0  0  0  0  0  0  0  0  0
   -6.6709   18.3288  -34.4512 H   0  0  0  0  0  0  0  0  0  0  0  0
   -5.9795   20.8687  -33.9251 H   0  0  0  0  0  0  0  0  0  0  0  0
   -7.6601   20.3729  -34.3543 H   0  0  0  0  0  0  0  0  0  0  0  0
   -8.4138   22.3048  -30.3486 H   0  0  0  0  0  0  0  0  0  0  0  0
   -7.3932   24.3500  -29.3378 H   0  0  0  0  0  0  0  0  0  0  0  0
   -5.1720   25.1533  -30.1593 H   0  0  0  0  0  0  0  0  0  0  0  0
   -4.9782   21.9487  -32.9629 H   0  0  0  0  0  0  0  0  0  0  0  0
   -8.2606   20.0725  -30.5798 H   0  0  0  0  0  0  0  0  0  0  0  0
   -9.3827   20.6272  -31.8818 H   0  0  0  0  0  0  0  0  0  0  0  0
   -9.0846   18.0420  -31.4323 H   0  0  0  0  0  0  0  0  0  0  0  0
   -9.1249   18.6752  -33.1320 H   0  0  0  0  0  0  0  0  0  0  0  0
  1  2  1  0
  2  3  1  0
  3  4  1  0
  4  5  1  0
  5  6  1  0
  6  7  2  0
  7  8  1  0
  8  9  2  0
  9 10  1  0
 10 11  2  0
  5 12  1  0
 12 13  1  0
 13  2  1  0
 11  6  1  0
  1 14  1  0
  1 15  1  0
  1 16  1  0
  2 17  1  0
  3 18  1  0
  3 19  1  0
  4 20  1  0
  4 21  1  0
  7 22  1  0
  8 23  1  0
  9 24  1  0
 11 25  1  0
 12 26  1  0
 12 27  1  0
 13 28  1  0
 13 29  1  0
M  CHG  1   2   1
M  END
>  <UniqueID>  (14) 
12

>  <SMILES>  (14) 
C[NH+]1CCN(c2cccnc2)CC1

>  <Energy>  (14) 
40.53015771921704

>  <Genealogy>  (14) 
C[NH+]1CCN(c2cccnc2)CC1 (protonated)
C[NH+]1CCN(c2cccnc2)CC1 (3D coordinates assigned)
C[NH+]1CCN(c2cccnc2)CC1 (nonaromatic ring conformer: 40.53015771921704 kcal/mol)

>  <smiles>  (14) 
CN1CCN(c2cccnc2)CC1

>  <score_type>  (14) 
oracle

>  <origin>  (14) 
adg

>  <m_score__min__energy>  (14) 
-4.7300000000000004

>  <m_primary>  (14) 
energy

$$$$
14:0
     RDKit          3D

 40 42  0  0  0  0  0  0  0  0999 V2000
   -4.6350   22.9140  -31.6710 C   0  0  0  0  0  0  0  0  0  0  0  0
   -5.3680   24.1210  -31.4240 N   0  0  0  0  0  0  0  0  0  0  0  0
   -4.7040   24.9380  -30.4560 C   0  0  0  0  0  0  0  0  0  0  0  0
   -6.7550   23.8310  -30.9730 C   0  0  0  0  0  0  0  0  0  0  0  0
   -7.5410   23.2270  -32.0720 C   0  0  0  0  0  0  0  0  0  0  0  0
   -8.0990   21.9340  -31.9820 N   0  0  0  0  0  0  0  0  0  0  0  0
   -9.4850   21.9340  -31.3920 C   0  0  0  0  0  0  0  0  0  0  0  0
   -7.6200   20.6670  -32.3290 C   0  0  0  0  0  0  0  0  0  0  0  0
   -8.1640   19.4510  -32.0320 C   0  0  0  0  0  0  0  0  0  0  0  0
   -7.6100   18.2330  -32.4350 C   0  0  0  0  0  0  0  0  0  0  0  0
   -6.4580   18.2370  -33.1700 C   0  0  0  0  0  0  0  0  0  0  0  0
   -5.6420   17.2810  -33.7320 C   0  0  0  0  0  0  0  0  0  0  0  0
   -5.8470   15.8040  -33.6630 C   0  0  0  0  0  0  0  0  0  0  0  0
   -4.9830   14.9860  -32.7800 C   0  0  0  0  0  0  0  0  0  0  0  0
   -4.6900   14.9620  -34.2770 C   0  0  0  0  0  0  0  0  0  0  0  0
   -4.6580   17.9530  -34.3340 N   0  0  0  0  0  0  0  0  0  0  0  0
   -4.7850   19.2620  -34.1990 N   0  0  0  0  0  0  0  0  0  0  0  0
   -5.9060   19.4570  -33.4720 C   0  0  0  0  0  0  0  0  0  0  0  0
   -6.4600   20.6030  -33.0720 N   0  0  0  0  0  0  0  0  0  0  0  0
   -4.3548   22.4526  -30.7126 H   0  0  0  0  0  0  0  0  0  0  0  0
   -5.2616   22.2154  -32.2450 H   0  0  0  0  0  0  0  0  0  0  0  0
   -3.7262   23.1478  -32.2450 H   0  0  0  0  0  0  0  0  0  0  0  0
   -4.9765   24.6027  -29.4444 H   0  0  0  0  0  0  0  0  0  0  0  0
   -3.6154   24.8534  -30.5895 H   0  0  0  0  0  0  0  0  0  0  0  0
   -5.0094   25.9863  -30.5895 H   0  0  0  0  0  0  0  0  0  0  0  0
   -6.7212   23.1313  -30.1249 H   0  0  0  0  0  0  0  0  0  0  0  0
   -7.2346   24.7728  -30.6681 H   0  0  0  0  0  0  0  0  0  0  0  0
   -8.3824   23.9108  -32.2578 H   0  0  0  0  0  0  0  0  0  0  0  0
   -6.7744   23.0888  -32.8487 H   0  0  0  0  0  0  0  0  0  0  0  0
   -9.8224   20.8969  -31.2484 H   0  0  0  0  0  0  0  0  0  0  0  0
   -9.4706   22.4525  -30.4220 H   0  0  0  0  0  0  0  0  0  0  0  0
  -10.1742   22.4525  -32.0748 H   0  0  0  0  0  0  0  0  0  0  0  0
   -9.0918   19.4284  -31.4415 H   0  0  0  0  0  0  0  0  0  0  0  0
   -8.0949   17.2835  -32.1641 H   0  0  0  0  0  0  0  0  0  0  0  0
   -6.9382   15.8811  -33.7789 H   0  0  0  0  0  0  0  0  0  0  0  0
   -4.2791   15.4832  -32.0964 H   0  0  0  0  0  0  0  0  0  0  0  0
   -5.1789   14.2079  -32.0275 H   0  0  0  0  0  0  0  0  0  0  0  0
   -3.7926   15.4567  -34.6769 H   0  0  0  0  0  0  0  0  0  0  0  0
   -4.5984   14.1891  -35.0543 H   0  0  0  0  0  0  0  0  0  0  0  0
   -4.1280   19.9700  -34.5900 H   0  0  0  0  0  0  0  0  0  0  0  0
  1  2  1  0
  2  3  1  0
  2  4  1  0
  4  5  1  0
  5  6  1  0
  6  7  1  0
  6  8  1  0
  8  9  2  0
  9 10  1  0
 10 11  2  0
 11 12  1  0
 12 13  1  0
 13 14  1  0
 14 15  1  0
 12 16  2  0
 16 17  1  0
 17 18  1  0
 18 19  2  0
 19  8  1  0
 18 11  1  0
 15 13  1  0
  1 20  1  0
  1 21  1  0
  1 22  1  0
  3 23  1  0
  3 24  1  0
  3 25  1  0
  4 26  1  0
  4 27  1  0
  5 28  1  0
  5 29  1  0
  7 30  1  0
  7 31  1  0
  7 32  1  0
  9 33  1  0
 10 34  1  0
 13 35  1  0
 14 36  1  0
 14 37  1  0
 15 38  1  0
 15 39  1  0
 17 40  1  0
M  END
>  <smiles>  (15) 
CN(C)CCN(C)c1ccc2c(C3CC3)n[nH]c2n1

>  <score_type>  (15) 
oracle

>  <origin>  (15) 
adg

>  <m_score__min__energy>  (15) 
-6.6399999999999997

>  <m_primary>  (15) 
energy

$$$$
15:0
     RDKit          3D

 36 38  0  0  0  0  0  0  0  0999 V2000
   -5.0973   22.7670  -30.1480 H   0  0  0  0  0  0  0  0  0  0  0  0
   -5.6130   23.6520  -30.5490 C   0  0  0  0  0  0  0  0  0  0  0  0
   -4.9130   24.9550  -30.5370 C   0  0  0  0  0  0  0  0  0  0  0  0
   -5.5740   26.0280  -30.5430 O   0  0  0  0  0  0  0  0  0  0  0  0
   -3.4850   25.0290  -30.4390 N   0  0  0  0  0  0  0  0  0  0  0  0
   -2.6840   24.5510  -29.3490 C   0  0  0  0  0  0  0  0  0  0  0  0
   -3.3140   23.8390  -28.3010 C   0  0  0  0  0  0  0  0  0  0  0  0
   -4.3958   23.6453  -28.3477 H   0  0  0  0  0  0  0  0  0  0  0  0
   -2.5700   23.3760  -27.1990 C   0  0  0  0  0  0  0  0  0  0  0  0
   -3.0491   22.8078  -26.3881 H   0  0  0  0  0  0  0  0  0  0  0  0
   -1.2090   23.6610  -27.1700 C   0  0  0  0  0  0  0  0  0  0  0  0
   -0.6010   24.3640  -28.1590 C   0  0  0  0  0  0  0  0  0  0  0  0
   -1.3000   24.8380  -29.2650 C   0  0  0  0  0  0  0  0  0  0  0  0
   -0.7928   25.4180  -30.0501 H   0  0  0  0  0  0  0  0  0  0  0  0
    0.7400   24.5080  -27.8630 O   0  0  0  0  0  0  0  0  0  0  0  0
    0.9920   23.8510  -26.6130 C   0  0  0  0  0  0  0  0  0  0  0  0
    1.7224   23.0389  -26.7436 H   0  0  0  0  0  0  0  0  0  0  0  0
    1.4138   24.5371  -25.8638 H   0  0  0  0  0  0  0  0  0  0  0  0
   -0.2790   23.3250  -26.2060 O   0  0  0  0  0  0  0  0  0  0  0  0
   -6.8560   23.5150  -31.0330 C   0  0  0  0  0  0  0  0  0  0  0  0
   -7.5186   24.3929  -31.0177 H   0  0  0  0  0  0  0  0  0  0  0  0
   -7.3880   22.2460  -31.5880 C   0  0  0  0  0  0  0  0  0  0  0  0
   -8.6660   21.7540  -31.2570 C   0  0  0  0  0  0  0  0  0  0  0  0
   -9.3043   22.3141  -30.5578 H   0  0  0  0  0  0  0  0  0  0  0  0
   -9.1260   20.5580  -31.8130 C   0  0  0  0  0  0  0  0  0  0  0  0
  -10.1218   20.1763  -31.5434 H   0  0  0  0  0  0  0  0  0  0  0  0
   -8.3280   19.8450  -32.7090 C   0  0  0  0  0  0  0  0  0  0  0  0
   -8.6966   18.9015  -33.1379 H   0  0  0  0  0  0  0  0  0  0  0  0
   -7.0620   20.3230  -33.0650 C   0  0  0  0  0  0  0  0  0  0  0  0
   -6.3020   19.5730  -33.9750 O   0  0  0  0  0  0  0  0  0  0  0  0
   -6.0600   18.1750  -33.8620 C   0  0  0  0  0  0  0  0  0  0  0  0
   -6.0117   17.8960  -32.7991 H   0  0  0  0  0  0  0  0  0  0  0  0
   -6.8756   17.6211  -34.3498 H   0  0  0  0  0  0  0  0  0  0  0  0
   -5.1056   17.9275  -34.3498 H   0  0  0  0  0  0  0  0  0  0  0  0
   -6.5990   21.5290  -32.5040 C   0  0  0  0  0  0  0  0  0  0  0  0
   -5.6081   21.9144  -32.7861 H   0  0  0  0  0  0  0  0  0  0  0  0
  1  2  1  0
  2  3  1  0
  3  4  2  0
  3  5  1  0
  5  6  1  0
  6  7  2  0
  7  8  1  0
  7  9  1  0
  9 10  1  0
  9 11  2  0
 11 12  1  0
 12 13  2  0
 13 14  1  0
 12 15  1  0
 15 16  1  0
 16 17  1  0
 16 18  1  0
 16 19  1  0
  2 20  2  0
 20 21  1  0
 20 22  1  0
 22 23  2  0
 23 24  1  0
 23 25  1  0
 25 26  1  0
 25 27  2  0
 27 28  1  0
 27 29  1  0
 29 30  1  0
 30 31  1  0
 31 32  1  0
 31 33  1  0
 31 34  1  0
 29 35  2  0
 35 36  1  0
 13  6  1  0
 35 22  1  0
 19 11  1  0
M  CHG  1   5  -1
M  END
>  <UniqueID>  (16) 
13

>  <SMILES>  (16) 
COc1cccc(/C=C/C(=O)[N-]c2ccc3c(c2)OCO3)c1

>  <Energy>  (16) 
71.48913191566034

>  <Genealogy>  (16) 
COc1cccc(C=CC(=O)[N-]c2ccc3c(c2)OCO3)c1 (protonated)
COc1cccc(/C=C/C(=O)[N-]c2ccc3c(c2)OCO3)c1 (cis-trans isomerization)
COc1cccc(/C=C/C(=O)[N-]c2ccc3c(c2)OCO3)c1 (3D coordinates assigned)
COc1cccc(/C=C/C(=O)[N-]c2ccc3c(c2)OCO3)c1 (nonaromatic ring conformer: 71.48913191566034 kcal/mol)

>  <smiles>  (16) 
COc1cccc(C=CC(=O)Nc2ccc3c(c2)OCO3)c1

>  <score_type>  (16) 
oracle

>  <origin>  (16) 
adg

>  <m_score__min__energy>  (16) 
-9

>  <m_primary>  (16) 
energy

$$$$
16:0
     RDKit          3D

 40 41  0  0  0  0  0  0  0  0999 V2000
   -5.2820   21.2750  -32.7600 C   0  0  0  0  0  0  0  0  0  0  0  0
   -6.7480   21.3470  -32.5870 N   0  0  1  0  0  0  0  0  0  0  0  0
   -7.2650   19.9590  -32.4140 C   0  0  0  0  0  0  0  0  0  0  0  0
   -8.6550   19.8840  -31.7520 C   0  0  0  0  0  0  0  0  0  0  0  0
   -9.4540   21.1540  -32.0060 C   0  0  0  0  0  0  0  0  0  0  0  0
   -8.7190   22.3810  -31.4490 C   0  0  0  0  0  0  0  0  0  0  0  0
   -7.1680   22.2340  -31.4600 C   0  0  2  0  0  0  0  0  0  0  0  0
   -6.5300   23.6600  -31.5090 C   0  0  0  0  0  0  0  0  0  0  0  0
   -5.8710   24.0750  -30.1810 C   0  0  0  0  0  0  0  0  0  0  0  0
   -4.9040   25.2120  -30.3870 C   0  0  0  0  0  0  0  0  0  0  0  0
   -5.3440   26.3900  -30.4720 O   0  0  0  0  0  0  0  0  0  0  0  0
   -3.4880   24.9990  -30.4500 N   0  0  0  0  0  0  0  0  0  0  0  0
   -2.7980   23.7760  -30.1520 C   0  0  0  0  0  0  0  0  0  0  0  0
   -3.0690   22.5950  -30.8670 C   0  0  0  0  0  0  0  0  0  0  0  0
   -2.3640   21.4220  -30.5840 C   0  0  0  0  0  0  0  0  0  0  0  0
   -1.3740   21.4200  -29.5990 C   0  0  0  0  0  0  0  0  0  0  0  0
   -1.0790   22.5950  -28.9030 C   0  0  0  0  0  0  0  0  0  0  0  0
   -1.7810   23.7740  -29.1820 C   0  0  0  0  0  0  0  0  0  0  0  0
   -1.3470   25.3650  -28.2090 Br  0  0  0  0  0  0  0  0  0  0  0  0
   -4.7970   21.2512  -31.7730 H   0  0  0  0  0  0  0  0  0  0  0  0
   -5.0230   20.3631  -33.3179 H   0  0  0  0  0  0  0  0  0  0  0  0
   -4.9349   22.1572  -33.3179 H   0  0  0  0  0  0  0  0  0  0  0  0
   -7.1420   21.7350  -33.4780 H   0  0  0  0  0  0  0  0  0  0  0  0
   -7.3287   19.4878  -33.4059 H   0  0  0  0  0  0  0  0  0  0  0  0
   -6.5649   19.4408  -31.7422 H   0  0  0  0  0  0  0  0  0  0  0  0
   -9.2041   19.0256  -32.1664 H   0  0  0  0  0  0  0  0  0  0  0  0
   -8.5184   19.7693  -30.6666 H   0  0  0  0  0  0  0  0  0  0  0  0
   -9.5962   21.2799  -33.0895 H   0  0  0  0  0  0  0  0  0  0  0  0
  -10.4266   21.0658  -31.4998 H   0  0  0  0  0  0  0  0  0  0  0  0
   -8.9902   23.2557  -32.0584 H   0  0  0  0  0  0  0  0  0  0  0  0
   -9.0261   22.4930  -30.3987 H   0  0  0  0  0  0  0  0  0  0  0  0
   -6.8069   21.7469  -30.5422 H   0  0  0  0  0  0  0  0  0  0  0  0
   -5.7643   23.6736  -32.2986 H   0  0  0  0  0  0  0  0  0  0  0  0
   -7.3418   24.3749  -31.7087 H   0  0  0  0  0  0  0  0  0  0  0  0
   -6.6532   24.3920  -29.4755 H   0  0  0  0  0  0  0  0  0  0  0  0
   -5.3165   23.2129  -29.7819 H   0  0  0  0  0  0  0  0  0  0  0  0
   -3.8393   22.5949  -31.6523 H   0  0  0  0  0  0  0  0  0  0  0  0
   -2.5892   20.4988  -31.1380 H   0  0  0  0  0  0  0  0  0  0  0  0
   -0.8266   20.4935  -29.3712 H   0  0  0  0  0  0  0  0  0  0  0  0
   -0.2929   22.5939  -28.1335 H   0  0  0  0  0  0  0  0  0  0  0  0
  1  2  1  0
  2  3  1  0
  3  4  1  0
  4  5  1  0
  5  6  1  0
  6  7  1  0
  7  8  1  0
  8  9  1  0
  9 10  1  0
 10 11  2  0
 10 12  1  0
 12 13  1  0
 13 14  2  0
 14 15  1  0
 15 16  2  0
 16 17  1  0
 17 18  2  0
 18 19  1  0
  7  2  1  0
 18 13  1  0
  1 20  1  0
  1 21  1  0
  1 22  1  0
  2 23  1  6
  3 24  1  0
  3 25  1  0
  4 26  1  0
  4 27  1  0
  5 28  1  0
  5 29  1  0
  6 30  1  0
  6 31  1  0
  7 32  1  1
  8 33  1  0
  8 34  1  0
  9 35  1  0
  9 36  1  0
 14 37  1  0
 15 38  1  0
 16 39  1  0
 17 40  1  0
M  CHG  2   2   1  12  -1
M  END
>  <UniqueID>  (17) 
14

>  <SMILES>  (17) 
C[N@H+]1CCCC[C@@H]1CCC(=O)[N-]c1ccccc1Br

>  <Energy>  (17) 
53.37299812875758

>  <Genealogy>  (17) 
C[NH+]1CCCCC1CCC(=O)[N-]c1ccccc1Br (protonated)
C[N@H+]1CCCC[C@@H]1CCC(=O)[N-]c1ccccc1Br (chirality)
C[N@H+]1CCCC[C@@H]1CCC(=O)[N-]c1ccccc1Br (3D coordinates assigned)
C[N@H+]1CCCC[C@@H]1CCC(=O)[N-]c1ccccc1Br (nonaromatic ring conformer: 53.37299812875758 kcal/mol)

>  <smiles>  (17) 
CN1CCCCC1CCC(=O)Nc1ccccc1Br

>  <score_type>  (17) 
oracle

>  <origin>  (17) 
adg

>  <m_score__min__energy>  (17) 
-8.9299999999999997

>  <m_primary>  (17) 
energy

$$$$
17:0
     RDKit          3D

 29 31  0  0  0  0  0  0  0  0999 V2000
   -2.6710   22.8070  -30.9980 C   0  0  0  0  0  0  0  0  0  0  0  0
   -4.0960   23.1200  -31.1200 N   0  0  0  0  0  0  0  0  0  0  0  0
   -4.6090   24.4320  -30.8150 C   0  0  0  0  0  0  0  0  0  0  0  0
   -3.8700   25.2950  -30.2680 O   0  0  0  0  0  0  0  0  0  0  0  0
   -6.0140   24.8160  -31.2260 C   0  0  0  0  0  0  0  0  0  0  0  0
   -6.9760   23.6130  -31.2030 C   0  0  0  0  0  0  0  0  0  0  0  0
   -6.3230   22.4320  -31.7600 N   0  0  0  0  0  0  0  0  0  0  0  0
   -6.9220   21.3720  -32.2660 N   0  0  0  0  0  0  0  0  0  0  0  0
   -5.9260   20.4900  -32.5150 C   0  0  0  0  0  0  0  0  0  0  0  0
   -6.1460   19.1510  -33.1030 C   0  0  0  0  0  0  0  0  0  0  0  0
   -5.4750   18.7690  -34.2790 C   0  0  0  0  0  0  0  0  0  0  0  0
   -5.6840   17.5020  -34.8330 C   0  0  0  0  0  0  0  0  0  0  0  0
   -6.5640   16.6070  -34.2200 C   0  0  0  0  0  0  0  0  0  0  0  0
   -7.2360   16.9750  -33.0520 C   0  0  0  0  0  0  0  0  0  0  0  0
   -7.0290   18.2410  -32.4940 C   0  0  0  0  0  0  0  0  0  0  0  0
   -4.7030   20.9580  -32.1520 N   0  0  0  0  0  0  0  0  0  0  0  0
   -5.0170   22.1780  -31.6770 C   0  0  0  0  0  0  0  0  0  0  0  0
   -2.3985   22.7472  -29.9340 H   0  0  0  0  0  0  0  0  0  0  0  0
   -2.4646   21.8421  -31.4842 H   0  0  0  0  0  0  0  0  0  0  0  0
   -2.0792   23.5966  -31.4842 H   0  0  0  0  0  0  0  0  0  0  0  0
   -6.3890   25.5828  -30.5322 H   0  0  0  0  0  0  0  0  0  0  0  0
   -5.9724   25.1956  -32.2576 H   0  0  0  0  0  0  0  0  0  0  0  0
   -7.2746   23.4068  -30.1646 H   0  0  0  0  0  0  0  0  0  0  0  0
   -7.8622   23.8516  -31.8094 H   0  0  0  0  0  0  0  0  0  0  0  0
   -4.7819   19.4710  -34.7656 H   0  0  0  0  0  0  0  0  0  0  0  0
   -5.1550   17.2100  -35.7522 H   0  0  0  0  0  0  0  0  0  0  0  0
   -6.7280   15.6112  -34.6576 H   0  0  0  0  0  0  0  0  0  0  0  0
   -7.9285   16.2688  -32.5706 H   0  0  0  0  0  0  0  0  0  0  0  0
   -7.5597   18.5265  -31.5738 H   0  0  0  0  0  0  0  0  0  0  0  0
  1  2  1  0
  2  3  1  0
  3  4  2  0
  3  5  1  0
  5  6  1  0
  6  7  1  0
  7  8  1  0
  8  9  2  0
  9 10  1  0
 10 11  2  0
 11 12  1  0
 12 13  2  0
 13 14  1  0
 14 15  2  0
  9 16  1  0
 16 17  2  0
 17  2  1  0
 17  7  1  0
 15 10  1  0
  1 18  1  0
  1 19  1  0
  1 20  1  0
  5 21  1  0
  5 22  1  0
  6 23  1  0
  6 24  1  0
 11 25  1  0
 12 26  1  0
 13 27  1  0
 14 28  1  0
 15 29  1  0
M  END
>  <UniqueID>  (18) 
15

>  <SMILES>  (18) 
CN1C(=O)CCn2nc(-c3ccccc3)nc21

>  <Energy>  (18) 
65.76178161158165

>  <Genealogy>  (18) 
CN1C(=O)CCn2nc(-c3ccccc3)nc21 (3D coordinates assigned)
CN1C(=O)CCn2nc(-c3ccccc3)nc21 (nonaromatic ring conformer: 65.76178161158165 kcal/mol)

>  <smiles>  (18) 
CN1C(=O)CCn2nc(-c3ccccc3)nc21

>  <score_type>  (18) 
oracle

>  <origin>  (18) 
adg

>  <m_score__min__energy>  (18) 
-6.79

>  <m_primary>  (18) 
energy

$$$$
18:0
     RDKit          3D

 42 43  0  0  0  0  0  0  0  0999 V2000
   -2.8890   19.4910  -27.0460 C   0  0  0  0  0  0  0  0  0  0  0  0
   -1.2020   20.1540  -26.8770 S   0  0  0  0  0  0  0  0  0  0  0  0
   -1.6130   21.8480  -27.4370 C   0  0  0  0  0  0  0  0  0  0  0  0
   -0.4040   22.4950  -28.1390 C   0  0  0  0  0  0  0  0  0  0  0  0
   -0.8150   23.3370  -29.3670 C   0  0  1  0  0  0  0  0  0  0  0  0
   -1.8870   22.6480  -30.0950 N   0  0  0  0  0  0  0  0  0  0  0  0
   -1.6840   21.4160  -30.8090 C   0  0  0  0  0  0  0  0  0  0  0  0
   -0.5850   20.8020  -30.7120 O   0  0  0  0  0  0  0  0  0  0  0  0
   -2.7620   20.8350  -31.6380 C   0  0  0  0  0  0  0  0  0  0  0  0
   -2.4850   20.2850  -32.8990 C   0  0  0  0  0  0  0  0  0  0  0  0
   -3.5150   19.7350  -33.6710 C   0  0  0  0  0  0  0  0  0  0  0  0
   -4.8260   19.7310  -33.1970 C   0  0  0  0  0  0  0  0  0  0  0  0
   -6.1110   19.0460  -34.1850 Cl  0  0  0  0  0  0  0  0  0  0  0  0
   -5.1100   20.2660  -31.9330 C   0  0  0  0  0  0  0  0  0  0  0  0
   -4.0830   20.8040  -31.1540 C   0  0  0  0  0  0  0  0  0  0  0  0
   -1.2810   24.7100  -28.9580 C   0  0  0  0  0  0  0  0  0  0  0  0
   -0.4880   25.4940  -28.3580 O   0  0  0  0  0  0  0  0  0  0  0  0
   -2.6030   25.1400  -29.3070 N   0  0  0  0  0  0  0  0  0  0  0  0
   -3.8130   24.5430  -28.7580 C   0  0  0  0  0  0  0  0  0  0  0  0
   -4.7620   24.2190  -29.8680 C   0  0  0  0  0  0  0  0  0  0  0  0
   -6.1000   23.8910  -29.7260 C   0  0  0  0  0  0  0  0  0  0  0  0
   -6.5520   23.6350  -31.0060 C   0  0  0  0  0  0  0  0  0  0  0  0
   -5.4650   23.8210  -31.8430 C   0  0  0  0  0  0  0  0  0  0  0  0
   -4.4140   24.1630  -31.1350 O   0  0  0  0  0  0  0  0  0  0  0  0
   -3.3184   19.3222  -26.0474 H   0  0  0  0  0  0  0  0  0  0  0  0
   -3.5125   20.2110  -27.5963 H   0  0  0  0  0  0  0  0  0  0  0  0
   -2.8555   18.5392  -27.5963 H   0  0  0  0  0  0  0  0  0  0  0  0
   -2.4573   21.8013  -28.1406 H   0  0  0  0  0  0  0  0  0  0  0  0
   -1.8814   22.4560  -26.5605 H   0  0  0  0  0  0  0  0  0  0  0  0
    0.1134   23.1479  -27.4206 H   0  0  0  0  0  0  0  0  0  0  0  0
    0.2505   21.6848  -28.4927 H   0  0  0  0  0  0  0  0  0  0  0  0
    0.0653   23.4544  -30.0161 H   0  0  0  0  0  0  0  0  0  0  0  0
   -2.8270   23.1040  -30.1280 H   0  0  0  0  0  0  0  0  0  0  0  0
   -1.4540   20.2861  -33.2824 H   0  0  0  0  0  0  0  0  0  0  0  0
   -3.2887   19.3035  -34.6572 H   0  0  0  0  0  0  0  0  0  0  0  0
   -6.1427   20.2622  -31.5541 H   0  0  0  0  0  0  0  0  0  0  0  0
   -4.3084   21.2062  -30.1553 H   0  0  0  0  0  0  0  0  0  0  0  0
   -3.5533   23.6207  -28.2177 H   0  0  0  0  0  0  0  0  0  0  0  0
   -4.2892   25.2537  -28.0665 H   0  0  0  0  0  0  0  0  0  0  0  0
   -6.6797   23.8443  -28.7923 H   0  0  0  0  0  0  0  0  0  0  0  0
   -7.5705   23.3423  -31.3009 H   0  0  0  0  0  0  0  0  0  0  0  0
   -5.4799   23.7004  -32.9363 H   0  0  0  0  0  0  0  0  0  0  0  0
  1  2  1  0
  2  3  1  0
  3  4  1  0
  4  5  1  0
  5  6  1  0
  6  7  1  0
  7  8  2  0
  7  9  1  0
  9 10  2  0
 10 11  1  0
 11 12  2  0
 12 13  1  0
 12 14  1  0
 14 15  2  0
  5 16  1  0
 16 17  2  0
 16 18  1  0
 18 19  1  0
 19 20  1  0
 20 21  2  0
 21 22  1  0
 22 23  2  0
 23 24  1  0
 15  9  1  0
 24 20  1  0
  1 25  1  0
  1 26  1  0
  1 27  1  0
  3 28  1  0
  3 29  1  0
  4 30  1  0
  4 31  1  0
  5 32  1  6
  6 33  1  0
 10 34  1  0
 11 35  1  0
 14 36  1  0
 15 37  1  0
 19 38  1  0
 19 39  1  0
 21 40  1  0
 22 41  1  0
 23 42  1  0
M  CHG  1  18  -1
M  END
>  <UniqueID>  (19) 
16

>  <SMILES>  (19) 
CSCC[C@@H](NC(=O)c1ccc(Cl)cc1)C(=O)[N-]Cc1ccco1

>  <Energy>  (19) 
60.18968972118845

>  <Genealogy>  (19) 
CSCCC(NC(=O)c1ccc(Cl)cc1)C(=O)[N-]Cc1ccco1 (protonated)
CSCC[C@@H](NC(=O)c1ccc(Cl)cc1)C(=O)[N-]Cc1ccco1 (chirality)
CSCC[C@@H](NC(=O)c1ccc(Cl)cc1)C(=O)[N-]Cc1ccco1 (3D coordinates assigned)
CSCC[C@@H](NC(=O)c1ccc(Cl)cc1)C(=O)[N-]Cc1ccco1 (optimized conformer: 60.18968972118845 kcal/mol)

>  <smiles>  (19) 
CSCCC(NC(=O)c1ccc(Cl)cc1)C(=O)NCc1ccco1

>  <score_type>  (19) 
oracle

>  <origin>  (19) 
adg

>  <m_score__min__energy>  (19) 
-10.220000000000001

>  <m_primary>  (19) 
energy

$$$$
19:0
     RDKit          3D

 44 46  0  0  0  0  0  0  0  0999 V2000
   -2.6710   22.2590  -30.7670 C   0  0  0  0  0  0  0  0  0  0  0  0
   -3.9360   22.9020  -31.3560 C   0  0  0  0  0  0  0  0  0  0  0  0
   -4.2330   24.2600  -30.8360 N   0  0  0  0  0  0  0  0  0  0  0  0
   -3.5510   24.5400  -29.5550 C   0  0  0  0  0  0  0  0  0  0  0  0
   -4.4510   24.1600  -28.3820 C   0  0  0  0  0  0  0  0  0  0  0  0
   -5.6800   24.5820  -30.7850 C   0  0  0  0  0  0  0  0  0  0  0  0
   -6.5470   23.3180  -30.7970 C   0  0  0  0  0  0  0  0  0  0  0  0
   -7.8800   23.4190  -32.0480 S   0  0  0  0  0  0  0  0  0  0  0  0
   -8.0970   21.6440  -32.2180 C   0  0  0  0  0  0  0  0  0  0  0  0
   -9.2920   21.0660  -31.9040 N   0  0  0  0  0  0  0  0  0  0  0  0
   -9.4920   19.7450  -32.0220 N   0  0  0  0  0  0  0  0  0  0  0  0
   -8.5100   18.9040  -32.4570 C   0  0  0  0  0  0  0  0  0  0  0  0
   -7.2720   19.4580  -32.7750 C   0  0  0  0  0  0  0  0  0  0  0  0
   -7.0680   20.8120  -32.6500 C   0  0  0  0  0  0  0  0  0  0  0  0
   -5.8160   21.1640  -33.0080 N   0  0  0  0  0  0  0  0  0  0  0  0
   -5.2210   20.0060  -33.3650 C   0  0  0  0  0  0  0  0  0  0  0  0
   -3.9130   19.8540  -33.8150 C   0  0  0  0  0  0  0  0  0  0  0  0
   -3.4730   18.5630  -34.1440 C   0  0  0  0  0  0  0  0  0  0  0  0
   -4.3370   17.4560  -34.0200 C   0  0  0  0  0  0  0  0  0  0  0  0
   -5.6640   17.6200  -33.5620 C   0  0  0  0  0  0  0  0  0  0  0  0
   -6.5730   16.4330  -33.4360 C   0  0  0  0  0  0  0  0  0  0  0  0
   -6.0790   18.9250  -33.2390 C   0  0  0  0  0  0  0  0  0  0  0  0
   -2.7235   22.2857  -29.6686 H   0  0  0  0  0  0  0  0  0  0  0  0
   -2.5989   21.2148  -31.1054 H   0  0  0  0  0  0  0  0  0  0  0  0
   -1.7849   22.8161  -31.1054 H   0  0  0  0  0  0  0  0  0  0  0  0
   -3.8108   22.9711  -32.4467 H   0  0  0  0  0  0  0  0  0  0  0  0
   -4.7801   22.2614  -31.0608 H   0  0  0  0  0  0  0  0  0  0  0  0
   -2.6210   23.9548  -29.5034 H   0  0  0  0  0  0  0  0  0  0  0  0
   -3.3233   25.6147  -29.4981 H   0  0  0  0  0  0  0  0  0  0  0  0
   -3.9330   24.3787  -27.4366 H   0  0  0  0  0  0  0  0  0  0  0  0
   -5.3836   24.7412  -28.4321 H   0  0  0  0  0  0  0  0  0  0  0  0
   -4.6849   23.0863  -28.4321 H   0  0  0  0  0  0  0  0  0  0  0  0
   -5.8866   25.1463  -29.8637 H   0  0  0  0  0  0  0  0  0  0  0  0
   -5.9292   25.1751  -31.6773 H   0  0  0  0  0  0  0  0  0  0  0  0
   -5.9094   22.4512  -31.0254 H   0  0  0  0  0  0  0  0  0  0  0  0
   -7.0148   23.2151  -29.8068 H   0  0  0  0  0  0  0  0  0  0  0  0
   -8.6899   17.8231  -32.5536 H   0  0  0  0  0  0  0  0  0  0  0  0
   -5.3960   22.1200  -33.0160 H   0  0  0  0  0  0  0  0  0  0  0  0
   -3.2431   20.7213  -33.9101 H   0  0  0  0  0  0  0  0  0  0  0  0
   -2.4438   18.4132  -34.5022 H   0  0  0  0  0  0  0  0  0  0  0  0
   -3.9737   16.4516  -34.2831 H   0  0  0  0  0  0  0  0  0  0  0  0
   -6.7422   16.2121  -32.3718 H   0  0  0  0  0  0  0  0  0  0  0  0
   -7.5347   16.6544  -33.9219 H   0  0  0  0  0  0  0  0  0  0  0  0
   -6.1085   15.5623  -33.9219 H   0  0  0  0  0  0  0  0  0  0  0  0
  1  2  1  0
  2  3  1  0
  3  4  1  0
  4  5  1  0
  3  6  1  0
  6  7  1  0
  7  8  1  0
  8  9  1  0
  9 10  2  0
 10 11  1  0
 11 12  2  0
 12 13  1  0
 13 14  2  0
 14 15  1  0
 15 16  1  0
 16 17  2  0
 17 18  1  0
 18 19  2  0
 19 20  1  0
 20 21  1  0
 20 22  2  0
 14  9  1  0
 22 16  1  0
 22 13  1  0
  1 23  1  0
  1 24  1  0
  1 25  1  0
  2 26  1  0
  2 27  1  0
  4 28  1  0
  4 29  1  0
  5 30  1  0
  5 31  1  0
  5 32  1  0
  6 33  1  0
  6 34  1  0
  7 35  1  0
  7 36  1  0
 12 37  1  0
 15 38  1  0
 17 39  1  0
 18 40  1  0
 19 41  1  0
 21 42  1  0
 21 43  1  0
 21 44  1  0
M  END
>  <UniqueID>  (20) 
17

>  <SMILES>  (20) 
CCN(CC)CCSc1nncc2c1[nH]c1cccc(C)c12

>  <Energy>  (20) 
85.06377938547388

>  <Genealogy>  (20) 
CCN(CC)CCSc1nncc2c1[nH]c1cccc(C)c12 (3D coordinates assigned)
CCN(CC)CCSc1nncc2c1[nH]c1cccc(C)c12 (optimized conformer: 85.06377938547388 kcal/mol)

>  <smiles>  (20) 
CCN(CC)CCSc1nncc2c1[nH]c1cccc(C)c12

>  <score_type>  (20) 
oracle

>  <origin>  (20) 
adg

>  <m_score__min__energy>  (20) 
-8.1400000000000006

>  <m_primary>  (20) 
energy

$$$$
20:0
     RDKit          3D

 38 40  0  0  0  0  0  0  0  0999 V2000
   -6.0080   25.6820  -29.3780 O   0  0  0  0  0  0  0  0  0  0  0  0
   -5.0710   24.5890  -29.8110 S   0  0  0  0  0  0  0  0  0  0  0  0
   -4.1080   25.1620  -30.8140 O   0  0  0  0  0  0  0  0  0  0  0  0
   -5.9770   23.2950  -30.5940 C   0  0  0  0  0  0  0  0  0  0  0  0
   -7.2360   22.9310  -30.0970 C   0  0  0  0  0  0  0  0  0  0  0  0
   -7.9740   21.9200  -30.7210 C   0  0  0  0  0  0  0  0  0  0  0  0
   -7.4580   21.2690  -31.8460 C   0  0  0  0  0  0  0  0  0  0  0  0
   -8.4660   19.8900  -32.6990 Br  0  0  0  0  0  0  0  0  0  0  0  0
   -6.2040   21.6310  -32.3480 C   0  0  0  0  0  0  0  0  0  0  0  0
   -5.4640   22.6430  -31.7250 C   0  0  0  0  0  0  0  0  0  0  0  0
   -4.1740   23.9810  -28.4350 N   0  0  0  0  0  0  0  0  0  0  0  0
   -2.7890   24.4920  -28.3980 C   0  0  0  0  0  0  0  0  0  0  0  0
   -1.9350   23.9170  -29.5380 C   0  0  0  0  0  0  0  0  0  0  0  0
   -2.2340   22.4950  -29.7610 N   0  0  0  0  0  0  0  0  0  0  0  0
   -1.7850   21.8190  -30.9590 C   0  0  0  0  0  0  0  0  0  0  0  0
   -0.7460   20.8740  -30.9290 C   0  0  0  0  0  0  0  0  0  0  0  0
   -0.3430   20.2590  -32.1120 C   0  0  0  0  0  0  0  0  0  0  0  0
   -0.9790   20.5950  -33.3040 C   0  0  0  0  0  0  0  0  0  0  0  0
   -0.4900   19.8350  -34.8080 Cl  0  0  0  0  0  0  0  0  0  0  0  0
   -1.9810   21.5130  -33.2930 N   0  0  0  0  0  0  0  0  0  0  0  0
   -2.3660   22.1020  -32.1600 N   0  0  0  0  0  0  0  0  0  0  0  0
   -2.9580   21.7690  -28.7100 C   0  0  0  0  0  0  0  0  0  0  0  0
   -4.2630   22.5030  -28.3410 C   0  0  0  0  0  0  0  0  0  0  0  0
   -7.6451   23.4423  -29.2131 H   0  0  0  0  0  0  0  0  0  0  0  0
   -8.9610   21.6367  -30.3266 H   0  0  0  0  0  0  0  0  0  0  0  0
   -5.7985   21.1199  -33.2336 H   0  0  0  0  0  0  0  0  0  0  0  0
   -4.4787   22.9273  -32.1231 H   0  0  0  0  0  0  0  0  0  0  0  0
   -2.8119   25.5880  -28.4889 H   0  0  0  0  0  0  0  0  0  0  0  0
   -2.3370   24.1823  -27.4442 H   0  0  0  0  0  0  0  0  0  0  0  0
   -2.1451   24.4769  -30.4612 H   0  0  0  0  0  0  0  0  0  0  0  0
   -0.8747   24.0107  -29.2604 H   0  0  0  0  0  0  0  0  0  0  0  0
   -0.2542   20.6215  -29.9780 H   0  0  0  0  0  0  0  0  0  0  0  0
    0.4684   19.5164  -32.1045 H   0  0  0  0  0  0  0  0  0  0  0  0
   -2.4610   21.7670  -34.1850 H   0  0  0  0  0  0  0  0  0  0  0  0
   -3.2015   20.7588  -29.0710 H   0  0  0  0  0  0  0  0  0  0  0  0
   -2.3197   21.7111  -27.8160 H   0  0  0  0  0  0  0  0  0  0  0  0
   -5.0563   22.1607  -29.0219 H   0  0  0  0  0  0  0  0  0  0  0  0
   -4.4745   22.2643  -27.2882 H   0  0  0  0  0  0  0  0  0  0  0  0
  1  2  2  0
  2  3  2  0
  2  4  1  0
  4  5  2  0
  5  6  1  0
  6  7  2  0
  7  8  1  0
  7  9  1  0
  9 10  2  0
  2 11  1  0
 11 12  1  0
 12 13  1  0
 13 14  1  0
 14 15  1  0
 15 16  2  0
 16 17  1  0
 17 18  2  0
 18 19  1  0
 18 20  1  0
 20 21  2  0
 14 22  1  0
 22 23  1  0
 10  4  1  0
 23 11  1  0
 21 15  1  0
  5 24  1  0
  6 25  1  0
  9 26  1  0
 10 27  1  0
 12 28  1  0
 12 29  1  0
 13 30  1  0
 13 31  1  0
 16 32  1  0
 17 33  1  0
 20 34  1  0
 22 35  1  0
 22 36  1  0
 23 37  1  0
 23 38  1  0
M  CHG  1  20   1
M  END
>  <UniqueID>  (21) 
18

>  <SMILES>  (21) 
O=S(=O)(c1ccc(Br)cc1)N1CCN(c2ccc(Cl)[nH+]n2)CC1

>  <Energy>  (21) 
48.6027065146125

>  <Genealogy>  (21) 
O=S(=O)(c1ccc(Br)cc1)N1CCN(c2ccc(Cl)[nH+]n2)CC1 (protonated)
O=S(=O)(c1ccc(Br)cc1)N1CCN(c2ccc(Cl)[nH+]n2)CC1 (3D coordinates assigned)
O=S(=O)(c1ccc(Br)cc1)N1CCN(c2ccc(Cl)[nH+]n2)CC1 (nonaromatic ring conformer: 48.6027065146125 kcal/mol)

>  <smiles>  (21) 
O=S(=O)(c1ccc(Br)cc1)N1CCN(c2ccc(Cl)nn2)CC1

>  <score_type>  (21) 
oracle

>  <origin>  (21) 
adg

>  <m_score__min__energy>  (21) 
-9.3599999999999994

>  <m_primary>  (21) 
energy

$$$$
21:0
     RDKit          3D

 34 36  0  0  0  0  0  0  0  0999 V2000
   -5.0769   22.8788  -33.3281 H   0  0  0  0  0  0  0  0  0  0  0  0
   -5.4350   23.2380  -32.3520 C   0  0  0  0  0  0  0  0  0  0  0  0
   -4.5430   23.5710  -31.3810 N   0  0  0  0  0  0  0  0  0  0  0  0
   -4.9380   24.0200  -30.1570 C   0  0  0  0  0  0  0  0  0  0  0  0
   -3.9240   24.3680  -29.1400 C   0  0  0  0  0  0  0  0  0  0  0  0
   -2.7260   24.9250  -29.4720 N   0  0  0  0  0  0  0  0  0  0  0  0
   -1.9660   25.1530  -28.3780 C   0  0  0  0  0  0  0  0  0  0  0  0
   -0.7790   25.6750  -28.4170 N   0  0  0  0  0  0  0  0  0  0  0  0
    0.2930   25.3040  -27.4990 C   0  0  0  0  0  0  0  0  0  0  0  0
    1.2374   25.7564  -27.8357 H   0  0  0  0  0  0  0  0  0  0  0  0
    0.3981   24.2092  -27.4801 H   0  0  0  0  0  0  0  0  0  0  0  0
   -0.0380   25.8020  -26.1150 C   0  0  0  0  0  0  0  0  0  0  0  0
   -0.3630   27.1560  -25.8630 C   0  0  0  0  0  0  0  0  0  0  0  0
   -0.4440   28.1700  -26.9730 C   0  0  0  0  0  0  0  0  0  0  0  0
   -0.5246   29.1791  -26.5426 H   0  0  0  0  0  0  0  0  0  0  0  0
    0.4620   28.1074  -27.5937 H   0  0  0  0  0  0  0  0  0  0  0  0
   -1.3286   27.9643  -27.5937 H   0  0  0  0  0  0  0  0  0  0  0  0
   -0.6470   27.5550  -24.5480 C   0  0  0  0  0  0  0  0  0  0  0  0
   -0.9234   28.5984  -24.3360 H   0  0  0  0  0  0  0  0  0  0  0  0
   -0.5780   26.6250  -23.5100 C   0  0  0  0  0  0  0  0  0  0  0  0
   -0.8012   26.9365  -22.4789 H   0  0  0  0  0  0  0  0  0  0  0  0
   -0.2360   25.3360  -23.7690 N   0  0  0  0  0  0  0  0  0  0  0  0
   -0.1810   24.6550  -22.9790 H   0  0  0  0  0  0  0  0  0  0  0  0
    0.0360   24.9120  -25.0310 C   0  0  0  0  0  0  0  0  0  0  0  0
    0.3166   23.8627  -25.2051 H   0  0  0  0  0  0  0  0  0  0  0  0
   -2.7320   24.6830  -26.9630 S   0  0  0  0  0  0  0  0  0  0  0  0
   -4.1110   24.1550  -27.7720 C   0  0  0  0  0  0  0  0  0  0  0  0
   -5.0052   23.7176  -27.3040 H   0  0  0  0  0  0  0  0  0  0  0  0
   -6.3110   24.1460  -29.8820 C   0  0  0  0  0  0  0  0  0  0  0  0
   -6.6486   24.5075  -28.8995 H   0  0  0  0  0  0  0  0  0  0  0  0
   -7.2420   23.8090  -30.8650 C   0  0  0  0  0  0  0  0  0  0  0  0
   -8.3185   23.9032  -30.6596 H   0  0  0  0  0  0  0  0  0  0  0  0
   -6.8050   23.3520  -32.1100 C   0  0  0  0  0  0  0  0  0  0  0  0
   -7.5320   23.0849  -32.8911 H   0  0  0  0  0  0  0  0  0  0  0  0
  1  2  1  0
  2  3  2  0
  3  4  1  0
  4  5  1  0
  5  6  1  0
  6  7  1  0
  7  8  2  0
  8  9  1  0
  9 10  1  0
  9 11  1  0
  9 12  1  0
 12 13  2  0
 13 14  1  0
 14 15  1  0
 14 16  1  0
 14 17  1  0
 13 18  1  0
 18 19  1  0
 18 20  2  0
 20 21  1  0
 20 22  1  0
 22 23  1  0
 22 24  2  0
 24 25  1  0
  7 26  1  0
 26 27  1  0
 27 28  1  0
  4 29  2  0
 29 30  1  0
 29 31  1  0
 31 32  1  0
 31 33  2  0
 33 34  1  0
 33  2  1  0
 27  5  2  0
 24 12  1  0
M  CHG  2   6  -1  22   1
M  END
>  <UniqueID>  (22) 
19

>  <SMILES>  (22) 
Cc1cc[nH+]cc1C/N=c1\[n-]c(-c2ccccn2)cs1

>  <Energy>  (22) 
66.54672965277011

>  <Genealogy>  (22) 
Cc1cc[nH+]cc1CN=c1[n-]c(-c2ccccn2)cs1 (protonated)
Cc1cc[nH+]cc1C/N=c1\[n-]c(-c2ccccn2)cs1 (cis-trans isomerization)
Cc1cc[nH+]cc1C/N=c1\[n-]c(-c2ccccn2)cs1 (3D coordinates assigned)
Cc1cc[nH+]cc1C/N=c1\[n-]c(-c2ccccn2)cs1 (optimized conformer: 66.54672965277011 kcal/mol)

>  <smiles>  (22) 
Cc1ccncc1CN=c1[nH]c(-c2ccccn2)cs1

>  <score_type>  (22) 
oracle

>  <origin>  (22) 
adg

>  <m_score__min__energy>  (22) 
-9.1699999999999999

>  <m_primary>  (22) 
energy

$$$$
22:0
     RDKit          3D

 29 30  0  0  0  0  0  0  0  0999 V2000
   -5.6470   26.4240  -30.5160 O   0  0  0  0  0  0  0  0  0  0  0  0
   -5.0350   25.3260  -30.4300 C   0  0  0  0  0  0  0  0  0  0  0  0
   -5.8070   24.0560  -30.3030 C   0  0  0  0  0  0  0  0  0  0  0  0
   -6.0130   23.5030  -31.6000 O   0  0  0  0  0  0  0  0  0  0  0  0
   -6.8940   22.4490  -31.8810 C   0  0  0  0  0  0  0  0  0  0  0  0
   -8.2540   22.6210  -31.5880 C   0  0  0  0  0  0  0  0  0  0  0  0
   -9.1710   21.5990  -31.8510 C   0  0  0  0  0  0  0  0  0  0  0  0
   -8.7350   20.3950  -32.4090 C   0  0  0  0  0  0  0  0  0  0  0  0
   -7.3830   20.2110  -32.7050 C   0  0  0  0  0  0  0  0  0  0  0  0
   -6.4620   21.2310  -32.4440 C   0  0  0  0  0  0  0  0  0  0  0  0
   -3.6030   25.2780  -30.4600 N   0  0  0  0  0  0  0  0  0  0  0  0
   -2.7600   24.3910  -29.7100 C   0  0  0  0  0  0  0  0  0  0  0  0
   -1.9890   24.9190  -28.6660 C   0  0  0  0  0  0  0  0  0  0  0  0
   -1.1400   24.0930  -27.9240 C   0  0  0  0  0  0  0  0  0  0  0  0
   -1.0410   22.7330  -28.2320 C   0  0  0  0  0  0  0  0  0  0  0  0
   -0.2150   21.9330  -27.5140 F   0  0  0  0  0  0  0  0  0  0  0  0
   -1.7870   22.2010  -29.2880 C   0  0  0  0  0  0  0  0  0  0  0  0
   -2.6390   23.0250  -30.0300 C   0  0  0  0  0  0  0  0  0  0  0  0
   -5.2432   23.3427  -29.6839 H   0  0  0  0  0  0  0  0  0  0  0  0
   -6.7784   24.2591  -29.8285 H   0  0  0  0  0  0  0  0  0  0  0  0
   -8.6023   23.5671  -31.1479 H   0  0  0  0  0  0  0  0  0  0  0  0
  -10.2364   21.7431  -31.6184 H   0  0  0  0  0  0  0  0  0  0  0  0
   -9.4572   19.5914  -32.6153 H   0  0  0  0  0  0  0  0  0  0  0  0
   -7.0414   19.2621  -33.1443 H   0  0  0  0  0  0  0  0  0  0  0  0
   -5.3977   21.0822  -32.6787 H   0  0  0  0  0  0  0  0  0  0  0  0
   -2.0523   25.9912  -28.4286 H   0  0  0  0  0  0  0  0  0  0  0  0
   -0.5492   24.5135  -27.0969 H   0  0  0  0  0  0  0  0  0  0  0  0
   -1.7036   21.1325  -29.5356 H   0  0  0  0  0  0  0  0  0  0  0  0
   -3.2166   22.6047  -30.8665 H   0  0  0  0  0  0  0  0  0  0  0  0
  1  2  2  0
  2  3  1  0
  3  4  1  0
  4  5  1  0
  5  6  2  0
  6  7  1  0
  7  8  2  0
  8  9  1  0
  9 10  2  0
  2 11  1  0
 11 12  1  0
 12 13  2  0
 13 14  1  0
 14 15  2  0
 15 16  1  0
 15 17  1  0
 17 18  2  0
 10  5  1  0
 18 12  1  0
  3 19  1  0
  3 20  1  0
  6 21  1  0
  7 22  1  0
  8 23  1  0
  9 24  1  0
 10 25  1  0
 13 26  1  0
 14 27  1  0
 17 28  1  0
 18 29  1  0
M  CHG  1  11  -1
M  END
>  <UniqueID>  (23) 
20

>  <SMILES>  (23) 
O=C(COc1ccccc1)[N-]c1ccc(F)cc1

>  <Energy>  (23) 
31.51181994196985

>  <Genealogy>  (23) 
O=C(COc1ccccc1)[N-]c1ccc(F)cc1 (protonated)
O=C(COc1ccccc1)[N-]c1ccc(F)cc1 (3D coordinates assigned)
O=C(COc1ccccc1)[N-]c1ccc(F)cc1 (optimized conformer: 31.51181994196985 kcal/mol)

>  <smiles>  (23) 
O=C(COc1ccccc1)Nc1ccc(F)cc1

>  <score_type>  (23) 
oracle

>  <origin>  (23) 
adg

>  <m_score__min__energy>  (23) 
-7.7699999999999996

>  <m_primary>  (23) 
energy

$$$$
23:0
     RDKit          3D

 55 57  0  0  0  0  0  0  0  0999 V2000
   -6.5640   16.8940  -33.5700 C   0  0  0  0  0  0  0  0  0  0  0  0
   -6.0170   17.1900  -34.8370 O   0  0  0  0  0  0  0  0  0  0  0  0
   -4.7120   16.6520  -34.9430 C   0  0  0  0  0  0  0  0  0  0  0  0
   -3.6950   17.6370  -34.4420 C   0  0  0  0  0  0  0  0  0  0  0  0
   -2.3280   17.3990  -34.6090 C   0  0  0  0  0  0  0  0  0  0  0  0
   -1.4190   18.3300  -34.1000 C   0  0  0  0  0  0  0  0  0  0  0  0
    0.0530   18.1130  -34.2520 C   0  0  0  0  0  0  0  0  0  0  0  0
   -1.8780   19.4310  -33.4490 N   0  0  0  0  0  0  0  0  0  0  0  0
   -3.2120   19.6490  -33.2870 C   0  0  0  0  0  0  0  0  0  0  0  0
   -3.7000   20.8730  -32.5580 C   0  0  0  0  0  0  0  0  0  0  0  0
   -4.2820   20.4910  -31.1860 C   0  0  0  0  0  0  0  0  0  0  0  0
   -4.8690   21.7320  -30.5000 C   0  0  0  0  0  0  0  0  0  0  0  0
   -3.9880   22.9060  -30.6450 N   0  0  0  0  0  0  0  0  0  0  0  0
   -4.4810   24.2380  -30.3770 C   0  0  0  0  0  0  0  0  0  0  0  0
   -3.8640   25.2340  -30.8430 O   0  0  0  0  0  0  0  0  0  0  0  0
   -5.7560   24.4770  -29.5990 C   0  0  0  0  0  0  0  0  0  0  0  0
   -7.0030   24.4520  -30.4940 C   0  0  0  0  0  0  0  0  0  0  0  0
   -6.7000   23.8930  -31.8900 C   0  0  0  0  0  0  0  0  0  0  0  0
   -7.3510   22.5530  -32.0720 C   0  0  0  0  0  0  0  0  0  0  0  0
   -8.5970   22.2760  -31.4880 C   0  0  0  0  0  0  0  0  0  0  0  0
   -9.1940   21.0330  -31.7040 C   0  0  0  0  0  0  0  0  0  0  0  0
   -8.5510   20.0830  -32.5000 C   0  0  0  0  0  0  0  0  0  0  0  0
   -7.3170   20.3960  -33.0740 C   0  0  0  0  0  0  0  0  0  0  0  0
   -6.7520   21.6130  -32.8550 N   0  0  0  0  0  0  0  0  0  0  0  0
   -2.6060   22.7010  -31.1040 C   0  0  0  0  0  0  0  0  0  0  0  0
   -2.5800   21.9420  -32.4410 C   0  0  0  0  0  0  0  0  0  0  0  0
   -4.1060   18.7520  -33.7820 N   0  0  0  0  0  0  0  0  0  0  0  0
   -5.8873   17.2602  -32.7839 H   0  0  0  0  0  0  0  0  0  0  0  0
   -7.5429   17.3855  -33.4694 H   0  0  0  0  0  0  0  0  0  0  0  0
   -6.6880   15.8057  -33.4694 H   0  0  0  0  0  0  0  0  0  0  0  0
   -4.6501   15.7315  -34.3440 H   0  0  0  0  0  0  0  0  0  0  0  0
   -4.5029   16.4312  -36.0001 H   0  0  0  0  0  0  0  0  0  0  0  0
   -1.9749   16.4971  -35.1305 H   0  0  0  0  0  0  0  0  0  0  0  0
    0.5181   18.0444  -33.2575 H   0  0  0  0  0  0  0  0  0  0  0  0
    0.2307   17.1789  -34.8051 H   0  0  0  0  0  0  0  0  0  0  0  0
    0.4927   18.9560  -34.8051 H   0  0  0  0  0  0  0  0  0  0  0  0
   -4.5118   21.3264  -33.1458 H   0  0  0  0  0  0  0  0  0  0  0  0
   -5.0751   19.7412  -31.3229 H   0  0  0  0  0  0  0  0  0  0  0  0
   -3.4806   20.0763  -30.5570 H   0  0  0  0  0  0  0  0  0  0  0  0
   -5.8449   21.9611  -30.9529 H   0  0  0  0  0  0  0  0  0  0  0  0
   -4.9728   21.5127  -29.4271 H   0  0  0  0  0  0  0  0  0  0  0  0
   -5.8549   23.6929  -28.8339 H   0  0  0  0  0  0  0  0  0  0  0  0
   -5.6892   25.4772  -29.1460 H   0  0  0  0  0  0  0  0  0  0  0  0
   -7.7687   23.8218  -30.0180 H   0  0  0  0  0  0  0  0  0  0  0  0
   -7.3556   25.4872  -30.6127 H   0  0  0  0  0  0  0  0  0  0  0  0
   -7.0850   24.5888  -32.6500 H   0  0  0  0  0  0  0  0  0  0  0  0
   -5.6115   23.7775  -31.9986 H   0  0  0  0  0  0  0  0  0  0  0  0
   -9.0985   23.0318  -30.8657 H   0  0  0  0  0  0  0  0  0  0  0  0
  -10.1683   20.8025  -31.2484 H   0  0  0  0  0  0  0  0  0  0  0  0
   -9.0113   19.0990  -32.6730 H   0  0  0  0  0  0  0  0  0  0  0  0
   -6.8013   19.6566  -33.7044 H   0  0  0  0  0  0  0  0  0  0  0  0
   -2.1211   23.6795  -31.2357 H   0  0  0  0  0  0  0  0  0  0  0  0
   -2.0697   22.1053  -30.3507 H   0  0  0  0  0  0  0  0  0  0  0  0
   -2.7029   22.6682  -33.2580 H   0  0  0  0  0  0  0  0  0  0  0  0
   -1.6165   21.4145  -32.4993 H   0  0  0  0  0  0  0  0  0  0  0  0
  1  2  1  0
  2  3  1  0
  3  4  1  0
  4  5  2  0
  5  6  1  0
  6  7  1  0
  6  8  2  0
  8  9  1  0
  9 10  1  0
 10 11  1  0
 11 12  1  0
 12 13  1  0
 13 14  1  0
 14 15  2  0
 14 16  1  0
 16 17  1  0
 17 18  1  0
 18 19  1  0
 19 20  2  0
 20 21  1  0
 21 22  2  0
 22 23  1  0
 23 24  2  0
 13 25  1  0
 25 26  1  0
  9 27  2  0
 27  4  1  0
 26 10  1  0
 24 19  1  0
  1 28  1  0
  1 29  1  0
  1 30  1  0
  3 31  1  0
  3 32  1  0
  5 33  1  0
  7 34  1  0
  7 35  1  0
  7 36  1  0
 10 37  1  0
 11 38  1  0
 11 39  1  0
 12 40  1  0
 12 41  1  0
 16 42  1  0
 16 43  1  0
 17 44  1  0
 17 45  1  0
 18 46  1  0
 18 47  1  0
 20 48  1  0
 21 49  1  0
 22 50  1  0
 23 51  1  0
 25 52  1  0
 25 53  1  0
 26 54  1  0
 26 55  1  0
M  END
>  <UniqueID>  (24) 
21

>  <SMILES>  (24) 
COCc1cc(C)nc(C2CCN(C(=O)CCCc3ccccn3)CC2)n1

>  <Energy>  (24) 
55.289753687772084

>  <Genealogy>  (24) 
COCc1cc(C)nc(C2CCN(C(=O)CCCc3ccccn3)CC2)n1 (3D coordinates assigned)
COCc1cc(C)nc(C2CCN(C(=O)CCCc3ccccn3)CC2)n1 (nonaromatic ring conformer: 55.289753687772084 kcal/mol)

>  <smiles>  (24) 
COCc1cc(C)nc(C2CCN(C(=O)CCCc3ccccn3)CC2)n1

>  <score_type>  (24) 
oracle

>  <origin>  (24) 
adg

>  <m_score__min__energy>  (24) 
-8.4700000000000006

>  <m_primary>  (24) 
energy

$$$$
24:0
     RDKit          3D

 37 39  0  0  0  0  0  0  0  0999 V2000
   -0.0899   27.5252  -26.2394 H   0  0  0  0  0  0  0  0  0  0  0  0
   -0.1340   26.6430  -26.8950 C   0  0  0  0  0  0  0  0  0  0  0  0
   -1.2260   26.1790  -27.5260 N   0  0  0  0  0  0  0  0  0  0  0  0
   -0.8330   25.1090  -28.2030 N   0  0  0  0  0  0  0  0  0  0  0  0
   -1.7130   24.3200  -29.0140 C   0  0  0  0  0  0  0  0  0  0  0  0
   -2.7490   24.9210  -29.6640 N   0  0  0  0  0  0  0  0  0  0  0  0
   -3.6190   24.2230  -30.4500 C   0  0  0  0  0  0  0  0  0  0  0  0
   -4.5970   24.8250  -31.0570 N   0  0  0  0  0  0  0  0  0  0  0  0
   -5.9060   25.0630  -30.4540 C   0  0  0  0  0  0  0  0  0  0  0  0
   -5.7746   25.4334  -29.4266 H   0  0  0  0  0  0  0  0  0  0  0  0
   -6.4521   25.8117  -31.0467 H   0  0  0  0  0  0  0  0  0  0  0  0
   -6.7020   23.7530  -30.4270 C   0  0  0  0  0  0  0  0  0  0  0  0
   -6.0789   22.9783  -29.9562 H   0  0  0  0  0  0  0  0  0  0  0  0
   -7.6255   23.9510  -29.8631 H   0  0  0  0  0  0  0  0  0  0  0  0
   -7.1100   23.2730  -31.7680 N   0  0  0  0  0  0  0  0  0  0  0  0
   -8.5680   23.1400  -31.9650 C   0  0  0  0  0  0  0  0  0  0  0  0
   -9.0772   23.8556  -31.3027 H   0  0  0  0  0  0  0  0  0  0  0  0
   -8.7746   23.3412  -33.0265 H   0  0  0  0  0  0  0  0  0  0  0  0
   -9.0970   21.7190  -31.6540 C   0  0  0  0  0  0  0  0  0  0  0  0
   -9.7330   21.7723  -30.7581 H   0  0  0  0  0  0  0  0  0  0  0  0
   -9.6533   21.3790  -32.5400 H   0  0  0  0  0  0  0  0  0  0  0  0
   -8.0700   20.7750  -31.4190 O   0  0  0  0  0  0  0  0  0  0  0  0
   -7.1090   20.8600  -32.4450 C   0  0  0  0  0  0  0  0  0  0  0  0
   -6.4288   19.9981  -32.3787 H   0  0  0  0  0  0  0  0  0  0  0  0
   -7.6207   20.8588  -33.4187 H   0  0  0  0  0  0  0  0  0  0  0  0
   -6.3010   22.1560  -32.3040 C   0  0  0  0  0  0  0  0  0  0  0  0
   -5.4570   21.9731  -31.6227 H   0  0  0  0  0  0  0  0  0  0  0  0
   -5.9555   22.4452  -33.3075 H   0  0  0  0  0  0  0  0  0  0  0  0
   -3.4550   22.8430  -30.6040 C   0  0  0  0  0  0  0  0  0  0  0  0
   -4.1488   22.2689  -31.2357 H   0  0  0  0  0  0  0  0  0  0  0  0
   -2.4030   22.2000  -29.9490 C   0  0  0  0  0  0  0  0  0  0  0  0
   -2.2660   21.1144  -30.0615 H   0  0  0  0  0  0  0  0  0  0  0  0
   -1.5250   22.9360  -29.1510 C   0  0  0  0  0  0  0  0  0  0  0  0
   -0.6930   22.4354  -28.6341 H   0  0  0  0  0  0  0  0  0  0  0  0
    0.4580   24.8590  -28.0390 N   0  0  0  0  0  0  0  0  0  0  0  0
    0.9210   25.8160  -27.2160 C   0  0  0  0  0  0  0  0  0  0  0  0
    1.9572   25.9204  -26.8619 H   0  0  0  0  0  0  0  0  0  0  0  0
  1  2  1  0
  2  3  2  0
  3  4  1  0
  4  5  1  0
  5  6  1  0
  6  7  1  0
  7  8  2  0
  8  9  1  0
  9 10  1  0
  9 11  1  0
  9 12  1  0
 12 13  1  0
 12 14  1  0
 12 15  1  0
 15 16  1  0
 16 17  1  0
 16 18  1  0
 16 19  1  0
 19 20  1  0
 19 21  1  0
 19 22  1  0
 22 23  1  0
 23 24  1  0
 23 25  1  0
 23 26  1  0
 26 27  1  0
 26 28  1  0
  7 29  1  0
 29 30  1  0
 29 31  2  0
 31 32  1  0
 31 33  1  0
 33 34  1  0
  4 35  1  0
 35 36  2  0
 36 37  1  0
 36  2  1  0
 33  5  2  0
 26 15  1  0
M  CHG  1   6  -1
M  END
>  <UniqueID>  (25) 
22

>  <SMILES>  (25) 
c1cc(-n2nccn2)[n-]/c(=N\CCN2CCOCC2)c1

>  <Energy>  (25) 
85.27118005972588

>  <Genealogy>  (25) 
c1cc(-n2nccn2)[n-]c(=NCCN2CCOCC2)c1 (protonated)
c1cc(-n2nccn2)[n-]/c(=N\CCN2CCOCC2)c1 (cis-trans isomerization)
c1cc(-n2nccn2)[n-]/c(=N\CCN2CCOCC2)c1 (3D coordinates assigned)
c1cc(-n2nccn2)[n-]/c(=N\CCN2CCOCC2)c1 (nonaromatic ring conformer: 85.27118005972588 kcal/mol)

>  <smiles>  (25) 
c1cc(-n2nccn2)[nH]c(=NCCN2CCOCC2)c1

>  <score_type>  (25) 
oracle

>  <origin>  (25) 
adg

>  <m_score__min__energy>  (25) 
-8.3599999999999994

>  <m_primary>  (25) 
energy

$$$$
25:0
     RDKit          3D

 33 34  0  0  0  0  0  0  0  0999 V2000
   -6.1130   18.8180  -34.4500 C   0  0  0  0  0  0  0  0  0  0  0  0
   -6.5670   19.8490  -33.4740 C   0  0  0  0  0  0  0  0  0  0  0  0
   -7.8490   20.0000  -33.0840 N   0  0  0  0  0  0  0  0  0  0  0  0
   -7.7650   20.9950  -32.1720 C   0  0  0  0  0  0  0  0  0  0  0  0
   -8.9690   21.4680  -31.4170 C   0  0  0  0  0  0  0  0  0  0  0  0
   -6.4790   21.4020  -31.9930 N   0  0  0  0  0  0  0  0  0  0  0  0
   -5.9070   22.4630  -31.1430 C   0  0  1  0  0  0  0  0  0  0  0  0
   -4.6160   21.9970  -30.4590 C   0  0  0  0  0  0  0  0  0  0  0  0
   -4.0560   23.1090  -29.5700 C   0  0  0  0  0  0  0  0  0  0  0  0
   -3.8820   24.4150  -30.3620 C   0  0  0  0  0  0  0  0  0  0  0  0
   -5.1240   24.8480  -31.0400 N   0  0  0  0  0  0  0  0  0  0  0  0
   -6.1070   25.4320  -30.1110 C   0  0  0  0  0  0  0  0  0  0  0  0
   -5.6950   23.7910  -31.9020 C   0  0  0  0  0  0  0  0  0  0  0  0
   -5.7410   20.6810  -32.8190 N   0  0  0  0  0  0  0  0  0  0  0  0
   -5.7276   17.9429  -33.9063 H   0  0  0  0  0  0  0  0  0  0  0  0
   -6.9601   18.5132  -35.0820 H   0  0  0  0  0  0  0  0  0  0  0  0
   -5.3162   19.2371  -35.0820 H   0  0  0  0  0  0  0  0  0  0  0  0
   -8.7772   21.3926  -30.3365 H   0  0  0  0  0  0  0  0  0  0  0  0
   -9.1786   22.5153  -31.6800 H   0  0  0  0  0  0  0  0  0  0  0  0
   -9.8354   20.8434  -31.6800 H   0  0  0  0  0  0  0  0  0  0  0  0
   -6.6517   22.6686  -30.3600 H   0  0  0  0  0  0  0  0  0  0  0  0
   -4.8312   21.1124  -29.8417 H   0  0  0  0  0  0  0  0  0  0  0  0
   -3.8726   21.7462  -31.2300 H   0  0  0  0  0  0  0  0  0  0  0  0
   -4.7497   23.2850  -28.7347 H   0  0  0  0  0  0  0  0  0  0  0  0
   -3.0713   22.7939  -29.1945 H   0  0  0  0  0  0  0  0  0  0  0  0
   -3.5671   25.2074  -29.6671 H   0  0  0  0  0  0  0  0  0  0  0  0
   -3.1281   24.2301  -31.1414 H   0  0  0  0  0  0  0  0  0  0  0  0
   -5.7894   25.2433  -29.0749 H   0  0  0  0  0  0  0  0  0  0  0  0
   -6.1740   26.5165  -30.2822 H   0  0  0  0  0  0  0  0  0  0  0  0
   -7.0915   24.9722  -30.2822 H   0  0  0  0  0  0  0  0  0  0  0  0
   -6.6655   24.1360  -32.2881 H   0  0  0  0  0  0  0  0  0  0  0  0
   -4.9813   23.6011  -32.7172 H   0  0  0  0  0  0  0  0  0  0  0  0
   -4.7050   20.7510  -32.9310 H   0  0  0  0  0  0  0  0  0  0  0  0
  1  2  1  0
  2  3  1  0
  3  4  2  0
  4  5  1  0
  4  6  1  0
  6  7  1  0
  7  8  1  0
  8  9  1  0
  9 10  1  0
 10 11  1  0
 11 12  1  0
 11 13  1  0
  6 14  1  0
 14  2  2  0
 13  7  1  0
  1 15  1  0
  1 16  1  0
  1 17  1  0
  5 18  1  0
  5 19  1  0
  5 20  1  0
  7 21  1  1
  8 22  1  0
  8 23  1  0
  9 24  1  0
  9 25  1  0
 10 26  1  0
 10 27  1  0
 12 28  1  0
 12 29  1  0
 12 30  1  0
 13 31  1  0
 13 32  1  0
 14 33  1  0
M  CHG  1  14   1
M  END
>  <UniqueID>  (26) 
23

>  <SMILES>  (26) 
Cc1nc(C)n([C@H]2CCCN(C)C2)[nH+]1

>  <Energy>  (26) 
66.50580089182876

>  <Genealogy>  (26) 
Cc1nc(C)n(C2CCCN(C)C2)[nH+]1 (protonated)
Cc1nc(C)n([C@H]2CCCN(C)C2)[nH+]1 (chirality)
Cc1nc(C)n([C@H]2CCCN(C)C2)[nH+]1 (3D coordinates assigned)
Cc1nc(C)n([C@H]2CCCN(C)C2)[nH+]1 (nonaromatic ring conformer: 66.50580089182876 kcal/mol)

>  <smiles>  (26) 
Cc1nc(C)n(C2CCCN(C)C2)n1

>  <score_type>  (26) 
oracle

>  <origin>  (26) 
adg

>  <m_score__min__energy>  (26) 
-5.6699999999999999

>  <m_primary>  (26) 
energy

$$$$
26:0
     RDKit          3D

 46 48  0  0  0  0  0  0  0  0999 V2000
   -6.4960   15.6980  -34.2140 C   0  0  0  0  0  0  0  0  0  0  0  0
   -6.5240   17.0870  -33.5650 C   0  0  0  0  0  0  0  0  0  0  0  0
   -5.6550   17.1060  -32.2950 C   0  0  0  0  0  0  0  0  0  0  0  0
   -5.7640   18.4720  -31.6060 C   0  0  0  0  0  0  0  0  0  0  0  0
   -5.6340   19.5710  -32.5710 N   0  0  0  0  0  0  0  0  0  0  0  0
   -5.8420   20.9270  -32.1310 C   0  0  0  0  0  0  0  0  0  0  0  0
   -4.7350   21.7550  -31.8740 C   0  0  0  0  0  0  0  0  0  0  0  0
   -3.3510   21.2670  -32.0680 C   0  0  0  0  0  0  0  0  0  0  0  0
   -2.6020   20.8090  -30.9740 C   0  0  0  0  0  0  0  0  0  0  0  0
   -1.2910   20.3580  -31.1580 C   0  0  0  0  0  0  0  0  0  0  0  0
   -0.7270   20.3530  -32.4370 C   0  0  0  0  0  0  0  0  0  0  0  0
   -1.4730   20.7940  -33.5330 C   0  0  0  0  0  0  0  0  0  0  0  0
   -2.7850   21.2460  -33.3520 C   0  0  0  0  0  0  0  0  0  0  0  0
   -4.9650   23.0640  -31.4370 C   0  0  0  0  0  0  0  0  0  0  0  0
   -3.9800   23.8120  -31.1770 O   0  0  0  0  0  0  0  0  0  0  0  0
   -6.2430   23.5350  -31.3060 N   0  0  0  0  0  0  0  0  0  0  0  0
   -6.4740   24.9160  -30.8430 C   0  0  0  0  0  0  0  0  0  0  0  0
   -7.3100   22.7050  -31.5390 C   0  0  0  0  0  0  0  0  0  0  0  0
   -8.4860   23.1430  -31.3900 O   0  0  0  0  0  0  0  0  0  0  0  0
   -7.1130   21.4030  -31.9300 N   0  0  0  0  0  0  0  0  0  0  0  0
   -8.2730   20.5320  -32.1900 C   0  0  0  0  0  0  0  0  0  0  0  0
   -5.2460   19.3060  -33.9610 C   0  0  0  0  0  0  0  0  0  0  0  0
   -6.1040   18.1870  -34.5780 C   0  0  0  0  0  0  0  0  0  0  0  0
   -6.4805   14.9270  -33.4296 H   0  0  0  0  0  0  0  0  0  0  0  0
   -7.3917   15.5672  -34.8390 H   0  0  0  0  0  0  0  0  0  0  0  0
   -5.5958   15.6034  -34.8390 H   0  0  0  0  0  0  0  0  0  0  0  0
   -7.5574   17.3114  -33.2620 H   0  0  0  0  0  0  0  0  0  0  0  0
   -6.0002   16.3215  -31.6055 H   0  0  0  0  0  0  0  0  0  0  0  0
   -4.6062   16.9237  -32.5720 H   0  0  0  0  0  0  0  0  0  0  0  0
   -6.7430   18.5454  -31.1098 H   0  0  0  0  0  0  0  0  0  0  0  0
   -4.9477   18.5563  -30.8735 H   0  0  0  0  0  0  0  0  0  0  0  0
   -3.0472   20.8045  -29.9681 H   0  0  0  0  0  0  0  0  0  0  0  0
   -0.7038   20.0073  -30.2965 H   0  0  0  0  0  0  0  0  0  0  0  0
    0.3053   20.0015  -32.5808 H   0  0  0  0  0  0  0  0  0  0  0  0
   -1.0286   20.7859  -34.5392 H   0  0  0  0  0  0  0  0  0  0  0  0
   -3.3734   21.5853  -34.2173 H   0  0  0  0  0  0  0  0  0  0  0  0
   -6.4777   24.9382  -29.7432 H   0  0  0  0  0  0  0  0  0  0  0  0
   -5.6725   25.5681  -31.2202 H   0  0  0  0  0  0  0  0  0  0  0  0
   -7.4441   25.2718  -31.2202 H   0  0  0  0  0  0  0  0  0  0  0  0
   -8.7079   20.2054  -31.2339 H   0  0  0  0  0  0  0  0  0  0  0  0
   -9.0277   21.0884  -32.7651 H   0  0  0  0  0  0  0  0  0  0  0  0
   -7.9492   19.6520  -32.7651 H   0  0  0  0  0  0  0  0  0  0  0  0
   -5.3776   20.2250  -34.5511 H   0  0  0  0  0  0  0  0  0  0  0  0
   -4.1945   18.9832  -33.9722 H   0  0  0  0  0  0  0  0  0  0  0  0
   -7.0153   18.6395  -34.9960 H   0  0  0  0  0  0  0  0  0  0  0  0
   -5.4868   17.6966  -35.3452 H   0  0  0  0  0  0  0  0  0  0  0  0
  1  2  1  0
  2  3  1  0
  3  4  1  0
  4  5  1  0
  5  6  1  0
  6  7  2  0
  7  8  1  0
  8  9  2  0
  9 10  1  0
 10 11  2  0
 11 12  1  0
 12 13  2  0
  7 14  1  0
 14 15  2  0
 14 16  1  0
 16 17  1  0
 16 18  1  0
 18 19  2  0
 18 20  1  0
 20 21  1  0
  5 22  1  0
 22 23  1  0
 23  2  1  0
 20  6  1  0
 13  8  1  0
  1 24  1  0
  1 25  1  0
  1 26  1  0
  2 27  1  0
  3 28  1  0
  3 29  1  0
  4 30  1  0
  4 31  1  0
  9 32  1  0
 10 33  1  0
 11 34  1  0
 12 35  1  0
 13 36  1  0
 17 37  1  0
 17 38  1  0
 17 39  1  0
 21 40  1  0
 21 41  1  0
 21 42  1  0
 22 43  1  0
 22 44  1  0
 23 45  1  0
 23 46  1  0
M  END
>  <UniqueID>  (27) 
24

>  <SMILES>  (27) 
CC1CCN(c2c(-c3ccccc3)c(=O)n(C)c(=O)n2C)CC1

>  <Energy>  (27) 
66.22836489949

>  <Genealogy>  (27) 
CC1CCN(c2c(-c3ccccc3)c(=O)n(C)c(=O)n2C)CC1 (3D coordinates assigned)
CC1CCN(c2c(-c3ccccc3)c(=O)n(C)c(=O)n2C)CC1 (nonaromatic ring conformer: 66.22836489949 kcal/mol)

>  <smiles>  (27) 
CC1CCN(c2c(-c3ccccc3)c(=O)n(C)c(=O)n2C)CC1

>  <score_type>  (27) 
oracle

>  <origin>  (27) 
adg

>  <m_score__min__energy>  (27) 
-7.8899999999999997

>  <m_primary>  (27) 
energy

$$$$
27:0
     RDKit          3D

 44 47  0  0  0  0  0  0  0  0999 V2000
   -3.6530   25.9960  -31.5680 H   0  0  0  0  0  0  0  0  0  0  0  0
   -4.2380   25.4660  -30.8880 N   0  0  0  0  0  0  0  0  0  0  0  0
   -3.7740   24.6070  -30.0330 C   0  0  0  0  0  0  0  0  0  0  0  0
   -2.6400   24.9230  -29.3530 N   0  0  0  0  0  0  0  0  0  0  0  0
   -2.0470   24.0640  -28.4840 C   0  0  0  0  0  0  0  0  0  0  0  0
   -1.1384   24.3717  -27.9457 H   0  0  0  0  0  0  0  0  0  0  0  0
   -2.5850   22.7890  -28.2690 C   0  0  0  0  0  0  0  0  0  0  0  0
   -1.9190   21.8280  -27.2990 C   0  0  0  0  0  0  0  0  0  0  0  0
   -2.0934   22.2051  -26.2805 H   0  0  0  0  0  0  0  0  0  0  0  0
   -0.3780   21.7860  -27.4770 C   0  0  0  0  0  0  0  0  0  0  0  0
   -0.0788   22.5916  -28.1636 H   0  0  0  0  0  0  0  0  0  0  0  0
    0.0798   21.9142  -26.4850 H   0  0  0  0  0  0  0  0  0  0  0  0
    0.1040   20.4460  -28.0480 C   0  0  0  0  0  0  0  0  0  0  0  0
   -0.3298   20.3072  -29.0493 H   0  0  0  0  0  0  0  0  0  0  0  0
    1.2027   20.4666  -28.0971 H   0  0  0  0  0  0  0  0  0  0  0  0
   -0.3020   19.3120  -27.1860 N   0  0  0  0  0  0  0  0  0  0  0  0
   -0.0650   18.0380  -27.8840 C   0  0  0  0  0  0  0  0  0  0  0  0
    0.0840   17.2371  -27.1448 H   0  0  0  0  0  0  0  0  0  0  0  0
   -0.9339   17.7981  -28.5144 H   0  0  0  0  0  0  0  0  0  0  0  0
    0.8321   18.1266  -28.5144 H   0  0  0  0  0  0  0  0  0  0  0  0
   -1.6930   19.3930  -26.6640 C   0  0  0  0  0  0  0  0  0  0  0  0
   -2.1642   18.4049  -26.7721 H   0  0  0  0  0  0  0  0  0  0  0  0
   -1.6276   19.7093  -25.6125 H   0  0  0  0  0  0  0  0  0  0  0  0
   -2.5590   20.4280  -27.3960 C   0  0  0  0  0  0  0  0  0  0  0  0
   -2.6482   20.1426  -28.4546 H   0  0  0  0  0  0  0  0  0  0  0  0
   -3.5539   20.4567  -26.9277 H   0  0  0  0  0  0  0  0  0  0  0  0
   -3.7640   22.4410  -28.9470 C   0  0  0  0  0  0  0  0  0  0  0  0
   -4.2070   21.4464  -28.7905 H   0  0  0  0  0  0  0  0  0  0  0  0
   -4.3840   23.3450  -29.8210 C   0  0  0  0  0  0  0  0  0  0  0  0
   -5.6490   22.9390  -30.4680 C   0  0  0  0  0  0  0  0  0  0  0  0
   -5.8330   21.6380  -30.8240 N   0  0  0  0  0  0  0  0  0  0  0  0
   -6.9980   21.2180  -31.3810 C   0  0  0  0  0  0  0  0  0  0  0  0
   -7.1800   19.8840  -31.7540 C   0  0  0  0  0  0  0  0  0  0  0  0
   -6.3748   19.1505  -31.6002 H   0  0  0  0  0  0  0  0  0  0  0  0
   -8.3930   19.4890  -32.3240 C   0  0  0  0  0  0  0  0  0  0  0  0
   -8.5498   18.4420  -32.6228 H   0  0  0  0  0  0  0  0  0  0  0  0
   -9.4070   20.4350  -32.5120 C   0  0  0  0  0  0  0  0  0  0  0  0
  -10.3640   20.1310  -32.9613 H   0  0  0  0  0  0  0  0  0  0  0  0
   -9.2130   21.7290  -32.1410 N   0  0  0  0  0  0  0  0  0  0  0  0
   -8.0420   22.1410  -31.5840 C   0  0  0  0  0  0  0  0  0  0  0  0
   -7.8680   23.4380  -31.2120 N   0  0  0  0  0  0  0  0  0  0  0  0
   -8.6410   24.1280  -31.3500 H   0  0  0  0  0  0  0  0  0  0  0  0
   -6.7000   23.8540  -30.6530 C   0  0  0  0  0  0  0  0  0  0  0  0
   -6.5781   24.9034  -30.3465 H   0  0  0  0  0  0  0  0  0  0  0  0
  1  2  1  0
  2  3  2  0
  3  4  1  0
  4  5  1  0
  5  6  1  0
  5  7  2  0
  7  8  1  0
  8  9  1  0
  8 10  1  0
 10 11  1  0
 10 12  1  0
 10 13  1  0
 13 14  1  0
 13 15  1  0
 13 16  1  0
 16 17  1  0
 17 18  1  0
 17 19  1  0
 17 20  1  0
 16 21  1  0
 21 22  1  0
 21 23  1  0
 21 24  1  0
 24 25  1  0
 24 26  1  0
  7 27  1  0
 27 28  1  0
 27 29  2  0
 29 30  1  0
 30 31  2  0
 31 32  1  0
 32 33  2  0
 33 34  1  0
 33 35  1  0
 35 36  1  0
 35 37  2  0
 37 38  1  0
 37 39  1  0
 39 40  2  0
 40 41  1  0
 41 42  1  0
 41 43  2  0
 43 44  1  0
 29  3  1  0
 43 30  1  0
 24  8  1  0
 40 32  1  0
M  CHG  2   4  -1  41   1
M  END
>  <UniqueID>  (28) 
25

>  <SMILES>  (28) 
[H]/N=c1/[n-]cc(C2CCN(C)CC2)cc1-c1c[nH+]c2ncccc2n1

>  <Energy>  (28) 
69.29136918843432

>  <Genealogy>  (28) 
CN1CCC(c2c[n-]c(=N)c(-c3c[nH+]c4ncccc4n3)c2)CC1 (protonated)
[H]/N=c1/[n-]cc(C2CCN(C)CC2)cc1-c1c[nH+]c2ncccc2n1 (cis-trans isomerization)
[H]/N=c1/[n-]cc(C2CCN(C)CC2)cc1-c1c[nH+]c2ncccc2n1 (3D coordinates assigned)
[H]/N=c1/[n-]cc(C2CCN(C)CC2)cc1-c1c[nH+]c2ncccc2n1 (nonaromatic ring conformer: 69.29136918843432 kcal/mol)

>  <smiles>  (28) 
CN1CCC(c2c[nH]c(=N)c(-c3cnc4ncccc4n3)c2)CC1

>  <score_type>  (28) 
oracle

>  <origin>  (28) 
adg

>  <m_score__min__energy>  (28) 
-10.41

>  <m_primary>  (28) 
energy

$$$$
28:0
     RDKit          3D

 43 45  0  0  0  0  0  0  0  0999 V2000
    0.1320   20.0290  -30.5500 C   0  0  0  0  0  0  0  0  0  0  0  0
   -0.5750   20.6100  -31.6410 O   0  0  0  0  0  0  0  0  0  0  0  0
   -1.6000   19.9690  -32.3600 C   0  0  0  0  0  0  0  0  0  0  0  0
   -1.3430   19.2940  -33.5710 C   0  0  0  0  0  0  0  0  0  0  0  0
   -2.3720   18.6480  -34.2580 C   0  0  0  0  0  0  0  0  0  0  0  0
   -3.6740   18.6480  -33.7400 C   0  0  0  0  0  0  0  0  0  0  0  0
   -4.7560   17.9830  -34.4080 N   0  0  0  0  0  0  0  0  0  0  0  0
   -6.0540   17.1570  -33.5980 S   0  0  0  0  0  0  0  0  0  0  0  0
   -6.7830   16.2790  -34.5860 O   0  0  0  0  0  0  0  0  0  0  0  0
   -5.4890   16.2950  -32.5040 O   0  0  0  0  0  0  0  0  0  0  0  0
   -7.1450   18.3440  -32.8790 C   0  0  0  0  0  0  0  0  0  0  0  0
   -8.0220   17.9500  -31.8580 C   0  0  0  0  0  0  0  0  0  0  0  0
   -8.8580   18.8870  -31.2470 C   0  0  0  0  0  0  0  0  0  0  0  0
   -8.8290   20.2210  -31.6580 C   0  0  0  0  0  0  0  0  0  0  0  0
   -7.9670   20.6170  -32.6870 C   0  0  0  0  0  0  0  0  0  0  0  0
   -7.1240   19.6830  -33.2960 C   0  0  0  0  0  0  0  0  0  0  0  0
   -3.9320   19.2990  -32.5300 C   0  0  0  0  0  0  0  0  0  0  0  0
   -2.9140   19.9940  -31.8500 C   0  0  0  0  0  0  0  0  0  0  0  0
   -3.2530   20.7780  -30.5980 C   0  0  0  0  0  0  0  0  0  0  0  0
   -3.9990   22.0140  -30.9300 N   0  0  0  0  0  0  0  0  0  0  0  0
   -5.2160   21.8900  -31.5580 C   0  0  0  0  0  0  0  0  0  0  0  0
   -6.0120   23.0040  -31.8120 C   0  0  0  0  0  0  0  0  0  0  0  0
   -5.5650   24.2650  -31.4370 C   0  0  0  0  0  0  0  0  0  0  0  0
   -4.3180   24.4070  -30.8340 C   0  0  0  0  0  0  0  0  0  0  0  0
   -3.8780   25.6780  -30.4760 O   0  0  0  0  0  0  0  0  0  0  0  0
   -3.5280   23.2680  -30.5890 C   0  0  0  0  0  0  0  0  0  0  0  0
   -2.0460   23.4820  -29.8980 S   0  0  0  0  0  0  0  0  0  0  0  0
   -0.2998   20.3839  -29.6026 H   0  0  0  0  0  0  0  0  0  0  0  0
    0.0508   18.9333  -30.6023 H   0  0  0  0  0  0  0  0  0  0  0  0
    1.1912   20.3210  -30.6023 H   0  0  0  0  0  0  0  0  0  0  0  0
   -0.3214   19.2764  -33.9784 H   0  0  0  0  0  0  0  0  0  0  0  0
   -2.1602   18.1373  -35.2090 H   0  0  0  0  0  0  0  0  0  0  0  0
   -8.0515   16.8983  -31.5370 H   0  0  0  0  0  0  0  0  0  0  0  0
   -9.5393   18.5741  -30.4420 H   0  0  0  0  0  0  0  0  0  0  0  0
   -9.4834   20.9605  -31.1732 H   0  0  0  0  0  0  0  0  0  0  0  0
   -7.9528   21.6661  -33.0174 H   0  0  0  0  0  0  0  0  0  0  0  0
   -6.4446   19.9979  -34.1018 H   0  0  0  0  0  0  0  0  0  0  0  0
   -4.9453   19.2677  -32.1030 H   0  0  0  0  0  0  0  0  0  0  0  0
   -3.8708   20.1516  -29.9378 H   0  0  0  0  0  0  0  0  0  0  0  0
   -2.3152   21.0593  -30.0965 H   0  0  0  0  0  0  0  0  0  0  0  0
   -5.5668   20.8937  -31.8650 H   0  0  0  0  0  0  0  0  0  0  0  0
   -6.9878   22.8865  -32.3060 H   0  0  0  0  0  0  0  0  0  0  0  0
   -6.1947   25.1490  -31.6161 H   0  0  0  0  0  0  0  0  0  0  0  0
  1  2  1  0
  2  3  1  0
  3  4  2  0
  4  5  1  0
  5  6  2  0
  6  7  1  0
  7  8  1  0
  8  9  2  0
  8 10  2  0
  8 11  1  0
 11 12  2  0
 12 13  1  0
 13 14  2  0
 14 15  1  0
 15 16  2  0
  6 17  1  0
 17 18  2  0
 18 19  1  0
 19 20  1  0
 20 21  1  0
 21 22  2  0
 22 23  1  0
 23 24  2  0
 24 25  1  0
 24 26  1  0
 26 27  2  0
 18  3  1  0
 26 20  1  0
 16 11  1  0
  1 28  1  0
  1 29  1  0
  1 30  1  0
  4 31  1  0
  5 32  1  0
 12 33  1  0
 13 34  1  0
 14 35  1  0
 15 36  1  0
 16 37  1  0
 17 38  1  0
 19 39  1  0
 19 40  1  0
 21 41  1  0
 22 42  1  0
 23 43  1  0
M  CHG  2   7  -1  25  -1
M  END
>  <UniqueID>  (29) 
26

>  <SMILES>  (29) 
COc1ccc([N-]S(=O)(=O)c2ccccc2)cc1Cn1cccc([O-])c1=S

>  <Energy>  (29) 
54.51945410893879

>  <Genealogy>  (29) 
COc1ccc([N-]S(=O)(=O)c2ccccc2)cc1Cn1cccc([O-])c1=S (protonated)
COc1ccc([N-]S(=O)(=O)c2ccccc2)cc1Cn1cccc([O-])c1=S (3D coordinates assigned)
COc1ccc([N-]S(=O)(=O)c2ccccc2)cc1Cn1cccc([O-])c1=S (optimized conformer: 54.51945410893879 kcal/mol)

>  <smiles>  (29) 
COc1ccc(NS(=O)(=O)c2ccccc2)cc1Cn1cccc(O)c1=S

>  <score_type>  (29) 
oracle

>  <origin>  (29) 
adg

>  <m_score__min__energy>  (29) 
-11.09

>  <m_primary>  (29) 
energy

$$$$
29:0
     RDKit          3D

 62 65  0  0  0  0  0  0  0  0999 V2000
   -5.6880   18.6730  -34.5380 C   0  0  0  0  0  0  0  0  0  0  0  0
   -4.3720   18.4660  -34.0350 O   0  0  0  0  0  0  0  0  0  0  0  0
   -3.4650   17.5200  -34.5390 C   0  0  0  0  0  0  0  0  0  0  0  0
   -3.8850   16.4460  -35.3510 C   0  0  0  0  0  0  0  0  0  0  0  0
   -2.9510   15.5400  -35.8630 C   0  0  0  0  0  0  0  0  0  0  0  0
   -1.5950   15.6950  -35.5740 C   0  0  0  0  0  0  0  0  0  0  0  0
   -1.1690   16.7510  -34.7670 C   0  0  0  0  0  0  0  0  0  0  0  0
   -2.0960   17.6630  -34.2360 C   0  0  0  0  0  0  0  0  0  0  0  0
   -1.6420   18.7240  -33.3820 N   0  0  0  0  0  0  0  0  0  0  0  0
   -0.9700   18.3840  -32.1170 C   0  0  0  0  0  0  0  0  0  0  0  0
   -0.2540   19.5970  -31.5220 C   0  0  0  0  0  0  0  0  0  0  0  0
   -1.1510   20.7580  -31.5410 N   0  0  0  0  0  0  0  0  0  0  0  0
   -1.3470   21.5490  -30.3560 C   0  0  0  0  0  0  0  0  0  0  0  0
   -0.4560   21.4500  -29.2860 C   0  0  0  0  0  0  0  0  0  0  0  0
   -0.6900   22.1950  -28.1370 C   0  0  0  0  0  0  0  0  0  0  0  0
   -1.8060   23.0280  -28.0750 C   0  0  0  0  0  0  0  0  0  0  0  0
   -2.0270   23.6860  -27.0220 O   0  0  0  0  0  0  0  0  0  0  0  0
   -2.6490   23.1160  -29.1530 N   0  0  0  0  0  0  0  0  0  0  0  0
   -3.8450   23.9730  -29.1070 C   0  0  0  0  0  0  0  0  0  0  0  0
   -4.2270   24.4490  -30.4760 C   0  0  0  0  0  0  0  0  0  0  0  0
   -4.2730   25.6850  -30.7320 O   0  0  0  0  0  0  0  0  0  0  0  0
   -4.6410   23.4850  -31.4520 N   0  0  0  0  0  0  0  0  0  0  0  0
   -5.9540   22.9130  -31.5850 C   0  0  0  0  0  0  0  0  0  0  0  0
   -7.0870   23.7390  -31.6860 C   0  0  0  0  0  0  0  0  0  0  0  0
   -8.3540   23.1850  -31.8580 C   0  0  0  0  0  0  0  0  0  0  0  0
   -8.5070   21.8050  -31.9560 C   0  0  0  0  0  0  0  0  0  0  0  0
   -7.3930   20.9550  -31.8810 C   0  0  0  0  0  0  0  0  0  0  0  0
   -7.6000   19.4670  -32.0070 C   0  0  0  0  0  0  0  0  0  0  0  0
   -6.1010   21.5080  -31.6820 C   0  0  0  0  0  0  0  0  0  0  0  0
   -4.8890   20.6050  -31.6180 C   0  0  0  0  0  0  0  0  0  0  0  0
   -2.4230   22.3810  -30.2520 N   0  0  0  0  0  0  0  0  0  0  0  0
   -1.8900   21.1000  -32.7660 C   0  0  0  0  0  0  0  0  0  0  0  0
   -1.6090   20.1010  -33.8950 C   0  0  0  0  0  0  0  0  0  0  0  0
   -6.3887   18.7832  -33.6973 H   0  0  0  0  0  0  0  0  0  0  0  0
   -5.7064   19.5851  -35.1526 H   0  0  0  0  0  0  0  0  0  0  0  0
   -5.9855   17.8106  -35.1526 H   0  0  0  0  0  0  0  0  0  0  0  0
   -4.9529   16.3204  -35.5828 H   0  0  0  0  0  0  0  0  0  0  0  0
   -3.2859   14.7039  -36.4945 H   0  0  0  0  0  0  0  0  0  0  0  0
   -0.8612   14.9845  -35.9824 H   0  0  0  0  0  0  0  0  0  0  0  0
   -0.0983   16.8701  -34.5449 H   0  0  0  0  0  0  0  0  0  0  0  0
   -1.7209   18.0236  -31.3985 H   0  0  0  0  0  0  0  0  0  0  0  0
   -0.2203   17.6055  -32.3216 H   0  0  0  0  0  0  0  0  0  0  0  0
    0.0377   19.3770  -30.4844 H   0  0  0  0  0  0  0  0  0  0  0  0
    0.6432   19.8196  -32.1182 H   0  0  0  0  0  0  0  0  0  0  0  0
    0.4213   20.7897  -29.3518 H   0  0  0  0  0  0  0  0  0  0  0  0
   -0.0001   22.1281  -27.2829 H   0  0  0  0  0  0  0  0  0  0  0  0
   -4.6810   23.3989  -28.6810 H   0  0  0  0  0  0  0  0  0  0  0  0
   -3.6190   24.8514  -28.4846 H   0  0  0  0  0  0  0  0  0  0  0  0
   -6.9725   24.8315  -31.6288 H   0  0  0  0  0  0  0  0  0  0  0  0
   -9.2357   23.8401  -31.9165 H   0  0  0  0  0  0  0  0  0  0  0  0
   -9.5108   21.3766  -32.0936 H   0  0  0  0  0  0  0  0  0  0  0  0
   -7.6623   19.0193  -31.0042 H   0  0  0  0  0  0  0  0  0  0  0  0
   -8.5340   19.2718  -32.5544 H   0  0  0  0  0  0  0  0  0  0  0  0
   -6.7548   19.0243  -32.5544 H   0  0  0  0  0  0  0  0  0  0  0  0
   -4.6304   20.4123  -30.5663 H   0  0  0  0  0  0  0  0  0  0  0  0
   -5.1142   19.6528  -32.1206 H   0  0  0  0  0  0  0  0  0  0  0  0
   -4.0410   21.0932  -32.1206 H   0  0  0  0  0  0  0  0  0  0  0  0
   -3.0800   22.4530  -31.0620 H   0  0  0  0  0  0  0  0  0  0  0  0
   -2.9677   21.0949  -32.5454 H   0  0  0  0  0  0  0  0  0  0  0  0
   -1.5606   22.0954  -33.0988 H   0  0  0  0  0  0  0  0  0  0  0  0
   -2.3735   20.2144  -34.6777 H   0  0  0  0  0  0  0  0  0  0  0  0
   -0.6103   20.3031  -34.3094 H   0  0  0  0  0  0  0  0  0  0  0  0
  1  2  1  0
  2  3  1  0
  3  4  2  0
  4  5  1  0
  5  6  2  0
  6  7  1  0
  7  8  2  0
  8  9  1  0
  9 10  1  0
 10 11  1  0
 11 12  1  0
 12 13  1  0
 13 14  1  0
 14 15  2  0
 15 16  1  0
 16 17  2  0
 16 18  1  0
 18 19  1  0
 19 20  1  0
 20 21  2  0
 20 22  1  0
 22 23  1  0
 23 24  2  0
 24 25  1  0
 25 26  2  0
 26 27  1  0
 27 28  1  0
 27 29  2  0
 29 30  1  0
 18 31  1  0
 12 32  1  0
 32 33  1  0
  8  3  1  0
 33  9  1  0
 31 13  2  0
 29 23  1  0
  1 34  1  0
  1 35  1  0
  1 36  1  0
  4 37  1  0
  5 38  1  0
  6 39  1  0
  7 40  1  0
 10 41  1  0
 10 42  1  0
 11 43  1  0
 11 44  1  0
 14 45  1  0
 15 46  1  0
 19 47  1  0
 19 48  1  0
 24 49  1  0
 25 50  1  0
 26 51  1  0
 28 52  1  0
 28 53  1  0
 28 54  1  0
 30 55  1  0
 30 56  1  0
 30 57  1  0
 31 58  1  0
 32 59  1  0
 32 60  1  0
 33 61  1  0
 33 62  1  0
M  CHG  2  22  -1  31   1
M  END
>  <UniqueID>  (30) 
27

>  <SMILES>  (30) 
COc1ccccc1N1CCN(c2ccc(=O)n(CC(=O)[N-]c3cccc(C)c3C)[nH+]2)CC1

>  <Energy>  (30) 
80.56445626545617

>  <Genealogy>  (30) 
COc1ccccc1N1CCN(c2ccc(=O)n(CC(=O)[N-]c3cccc(C)c3C)[nH+]2)CC1 (protonated)
COc1ccccc1N1CCN(c2ccc(=O)n(CC(=O)[N-]c3cccc(C)c3C)[nH+]2)CC1 (3D coordinates assigned)
COc1ccccc1N1CCN(c2ccc(=O)n(CC(=O)[N-]c3cccc(C)c3C)[nH+]2)CC1 (nonaromatic ring conformer: 80.56445626545617 kcal/mol)

>  <smiles>  (30) 
COc1ccccc1N1CCN(c2ccc(=O)n(CC(=O)Nc3cccc(C)c3C)n2)CC1

>  <score_type>  (30) 
oracle

>  <origin>  (30) 
adg

>  <m_score__min__energy>  (30) 
-10.140000000000001

>  <m_primary>  (30) 
energy

$$$$
30:0
     RDKit          3D

 24 25  0  0  0  0  0  0  0  0999 V2000
   -7.5930   16.8000  -33.1060 F   0  0  0  0  0  0  0  0  0  0  0  0
   -7.2010   18.0960  -33.0140 C   0  0  0  0  0  0  0  0  0  0  0  0
   -8.0140   19.0190  -32.3550 C   0  0  0  0  0  0  0  0  0  0  0  0
   -7.6270   20.3610  -32.2520 C   0  0  0  0  0  0  0  0  0  0  0  0
   -8.8240   21.5620  -31.3560 Br  0  0  0  0  0  0  0  0  0  0  0  0
   -6.4050   20.7920  -32.8180 C   0  0  0  0  0  0  0  0  0  0  0  0
   -5.9980   22.1740  -32.7130 N   0  0  0  0  0  0  0  0  0  0  0  0
   -4.9260   22.6530  -31.8410 C   0  0  0  0  0  0  0  0  0  0  0  0
   -5.3530   23.8900  -31.1160 C   0  0  0  0  0  0  0  0  0  0  0  0
   -6.4300   23.9920  -30.2580 C   0  0  0  0  0  0  0  0  0  0  0  0
   -6.4470   25.3050  -29.8390 C   0  0  0  0  0  0  0  0  0  0  0  0
   -5.3790   25.9200  -30.4630 C   0  0  0  0  0  0  0  0  0  0  0  0
   -4.7470   25.0510  -31.2180 O   0  0  0  0  0  0  0  0  0  0  0  0
   -5.5930   19.8450  -33.4780 C   0  0  0  0  0  0  0  0  0  0  0  0
   -5.9900   18.5090  -33.5770 C   0  0  0  0  0  0  0  0  0  0  0  0
   -4.9610   17.3560  -34.4080 Cl  0  0  0  0  0  0  0  0  0  0  0  0
   -8.9661   18.6900  -31.9131 H   0  0  0  0  0  0  0  0  0  0  0  0
   -6.4650   22.8940  -33.3070 H   0  0  0  0  0  0  0  0  0  0  0  0
   -4.6791   21.8709  -31.1080 H   0  0  0  0  0  0  0  0  0  0  0  0
   -4.0451   22.8878  -32.4566 H   0  0  0  0  0  0  0  0  0  0  0  0
   -7.1283   23.1926  -29.9693 H   0  0  0  0  0  0  0  0  0  0  0  0
   -7.1656   25.7692  -29.1476 H   0  0  0  0  0  0  0  0  0  0  0  0
   -5.1001   26.9775  -30.3453 H   0  0  0  0  0  0  0  0  0  0  0  0
   -4.6367   20.1623  -33.9195 H   0  0  0  0  0  0  0  0  0  0  0  0
  1  2  1  0
  2  3  2  0
  3  4  1  0
  4  5  1  0
  4  6  2  0
  6  7  1  0
  7  8  1  0
  8  9  1  0
  9 10  2  0
 10 11  1  0
 11 12  2  0
 12 13  1  0
  6 14  1  0
 14 15  2  0
 15 16  1  0
 15  2  1  0
 13  9  1  0
  3 17  1  0
  7 18  1  0
  8 19  1  0
  8 20  1  0
 10 21  1  0
 11 22  1  0
 12 23  1  0
 14 24  1  0
M  END
>  <UniqueID>  (31) 
28

>  <SMILES>  (31) 
Fc1cc(Br)c(NCc2ccco2)cc1Cl

>  <Energy>  (31) 
50.7450478184522

>  <Genealogy>  (31) 
Fc1cc(Br)c(NCc2ccco2)cc1Cl (3D coordinates assigned)
Fc1cc(Br)c(NCc2ccco2)cc1Cl (optimized conformer: 50.7450478184522 kcal/mol)

>  <smiles>  (31) 
Fc1cc(Br)c(NCc2ccco2)cc1Cl

>  <score_type>  (31) 
oracle

>  <origin>  (31) 
adg

>  <m_score__min__energy>  (31) 
-7.4500000000000002

>  <m_primary>  (31) 
energy

$$$$
31:0
     RDKit          3D

 46 49  0  0  0  0  0  0  0  0999 V2000
   -6.8670   14.9830  -34.2370 C   0  0  0  0  0  0  0  0  0  0  0  0
   -5.7040   15.6000  -33.5800 N   0  0  0  0  0  0  0  0  0  0  0  0
   -4.6730   16.0010  -34.5690 C   0  0  0  0  0  0  0  0  0  0  0  0
   -4.6560   17.5170  -34.8140 C   0  0  0  0  0  0  0  0  0  0  0  0
   -4.3550   18.2640  -33.5660 N   0  0  0  0  0  0  0  0  0  0  0  0
   -4.7690   19.6830  -33.7190 C   0  0  0  0  0  0  0  0  0  0  0  0
   -4.3270   20.5620  -32.5630 C   0  0  0  0  0  0  0  0  0  0  0  0
   -3.0970   20.6780  -32.3070 O   0  0  0  0  0  0  0  0  0  0  0  0
   -5.2920   21.2960  -31.7730 N   0  0  0  0  0  0  0  0  0  0  0  0
   -4.8940   22.4290  -30.9740 C   0  0  0  0  0  0  0  0  0  0  0  0
   -3.9020   22.3090  -29.9860 C   0  0  0  0  0  0  0  0  0  0  0  0
   -3.6480   23.3720  -29.1130 C   0  0  0  0  0  0  0  0  0  0  0  0
   -4.4000   24.5480  -29.2000 C   0  0  0  0  0  0  0  0  0  0  0  0
   -5.4020   24.6700  -30.1670 C   0  0  0  0  0  0  0  0  0  0  0  0
   -5.6410   23.6200  -31.0600 C   0  0  0  0  0  0  0  0  0  0  0  0
   -6.8780   23.7880  -32.3540 S   0  0  0  0  0  0  0  0  0  0  0  0
   -7.5760   22.1620  -32.0360 C   0  0  0  0  0  0  0  0  0  0  0  0
   -8.9610   21.9860  -31.9600 C   0  0  0  0  0  0  0  0  0  0  0  0
   -9.4910   20.7090  -31.7570 C   0  0  0  0  0  0  0  0  0  0  0  0
   -8.6380   19.6110  -31.6090 C   0  0  0  0  0  0  0  0  0  0  0  0
   -7.2520   19.7870  -31.6560 C   0  0  0  0  0  0  0  0  0  0  0  0
   -6.7100   21.0620  -31.8880 C   0  0  0  0  0  0  0  0  0  0  0  0
   -4.9690   17.6370  -32.3560 C   0  0  0  0  0  0  0  0  0  0  0  0
   -6.1420   16.7080  -32.7020 C   0  0  0  0  0  0  0  0  0  0  0  0
   -7.5659   14.6122  -33.4728 H   0  0  0  0  0  0  0  0  0  0  0  0
   -7.3732   15.7312  -34.8647 H   0  0  0  0  0  0  0  0  0  0  0  0
   -6.5314   14.1444  -34.8647 H   0  0  0  0  0  0  0  0  0  0  0  0
   -3.6856   15.6924  -34.1950 H   0  0  0  0  0  0  0  0  0  0  0  0
   -4.9139   15.5095  -35.5231 H   0  0  0  0  0  0  0  0  0  0  0  0
   -3.8865   17.7496  -35.5648 H   0  0  0  0  0  0  0  0  0  0  0  0
   -5.6518   17.8217  -35.1684 H   0  0  0  0  0  0  0  0  0  0  0  0
   -3.3130   18.2390  -33.4500 H   0  0  0  0  0  0  0  0  0  0  0  0
   -4.3289   20.0777  -34.6467 H   0  0  0  0  0  0  0  0  0  0  0  0
   -5.8686   19.7023  -33.7430 H   0  0  0  0  0  0  0  0  0  0  0  0
   -3.3240   21.3772  -29.8989 H   0  0  0  0  0  0  0  0  0  0  0  0
   -2.8548   23.2828  -28.3561 H   0  0  0  0  0  0  0  0  0  0  0  0
   -4.2026   25.3785  -28.5062 H   0  0  0  0  0  0  0  0  0  0  0  0
   -6.0017   25.5903  -30.2257 H   0  0  0  0  0  0  0  0  0  0  0  0
   -9.6325   22.8515  -32.0599 H   0  0  0  0  0  0  0  0  0  0  0  0
  -10.5810   20.5674  -31.7136 H   0  0  0  0  0  0  0  0  0  0  0  0
   -9.0586   18.6063  -31.4552 H   0  0  0  0  0  0  0  0  0  0  0  0
   -6.5842   18.9250  -31.5110 H   0  0  0  0  0  0  0  0  0  0  0  0
   -4.1983   17.0514  -31.8334 H   0  0  0  0  0  0  0  0  0  0  0  0
   -5.3615   18.4474  -31.7241 H   0  0  0  0  0  0  0  0  0  0  0  0
   -6.5540   16.2882  -31.7724 H   0  0  0  0  0  0  0  0  0  0  0  0
   -6.9061   17.2938  -33.2340 H   0  0  0  0  0  0  0  0  0  0  0  0
  1  2  1  0
  2  3  1  0
  3  4  1  0
  4  5  1  0
  5  6  1  0
  6  7  1  0
  7  8  2  0
  7  9  1  0
  9 10  1  0
 10 11  2  0
 11 12  1  0
 12 13  2  0
 13 14  1  0
 14 15  2  0
 15 16  1  0
 16 17  1  0
 17 18  2  0
 18 19  1  0
 19 20  2  0
 20 21  1  0
 21 22  2  0
  5 23  1  0
 23 24  1  0
 24  2  1  0
 22  9  1  0
 15 10  1  0
 22 17  1  0
  1 25  1  0
  1 26  1  0
  1 27  1  0
  3 28  1  0
  3 29  1  0
  4 30  1  0
  4 31  1  0
  5 32  1  0
  6 33  1  0
  6 34  1  0
 11 35  1  0
 12 36  1  0
 13 37  1  0
 14 38  1  0
 18 39  1  0
 19 40  1  0
 20 41  1  0
 21 42  1  0
 23 43  1  0
 23 44  1  0
 24 45  1  0
 24 46  1  0
M  CHG  1   5   1
M  END
>  <UniqueID>  (32) 
29

>  <SMILES>  (32) 
CN1CC[NH+](CC(=O)N2c3ccccc3Sc3ccccc32)CC1

>  <Energy>  (32) 
85.59855782477413

>  <Genealogy>  (32) 
CN1CC[NH+](CC(=O)N2c3ccccc3Sc3ccccc32)CC1 (protonated)
CN1CC[NH+](CC(=O)N2c3ccccc3Sc3ccccc32)CC1 (3D coordinates assigned)
CN1CC[NH+](CC(=O)N2c3ccccc3Sc3ccccc32)CC1 (nonaromatic ring conformer: 85.59855782477413 kcal/mol)

>  <smiles>  (32) 
CN1CCN(CC(=O)N2c3ccccc3Sc3ccccc32)CC1

>  <score_type>  (32) 
oracle

>  <origin>  (32) 
adg

>  <m_score__min__energy>  (32) 
-7.6600000000000001

>  <m_primary>  (32) 
energy

$$$$
32:0
     RDKit          3D

 43 45  0  0  0  0  0  0  0  0999 V2000
   -6.2640   21.5150  -32.4830 C   0  0  0  0  0  0  0  0  0  0  0  0
   -6.1640   22.7730  -31.6750 C   0  0  0  0  0  0  0  0  0  0  0  0
   -7.3110   23.3560  -31.1100 C   0  0  0  0  0  0  0  0  0  0  0  0
   -7.2010   24.5170  -30.3430 C   0  0  0  0  0  0  0  0  0  0  0  0
   -5.9490   25.0930  -30.1140 C   0  0  0  0  0  0  0  0  0  0  0  0
   -4.7920   24.5180  -30.6700 C   0  0  0  0  0  0  0  0  0  0  0  0
   -3.4910   25.0850  -30.4720 N   0  0  0  0  0  0  0  0  0  0  0  0
   -2.3680   24.5930  -29.2460 S   0  0  0  0  0  0  0  0  0  0  0  0
   -3.0910   24.4660  -27.9350 O   0  0  0  0  0  0  0  0  0  0  0  0
   -1.2900   25.6310  -29.1020 O   0  0  0  0  0  0  0  0  0  0  0  0
   -1.6880   23.0260  -29.6770 C   0  0  0  0  0  0  0  0  0  0  0  0
   -0.9000   22.3360  -28.7470 C   0  0  0  0  0  0  0  0  0  0  0  0
   -0.4210   21.0590  -29.0450 C   0  0  0  0  0  0  0  0  0  0  0  0
   -0.7450   20.4520  -30.2620 C   0  0  0  0  0  0  0  0  0  0  0  0
   -1.5420   21.1280  -31.2010 C   0  0  0  0  0  0  0  0  0  0  0  0
   -1.9510   20.4840  -32.4680 C   0  0  0  0  0  0  0  0  0  0  0  0
   -1.3360   20.7700  -33.5320 O   0  0  0  0  0  0  0  0  0  0  0  0
   -3.0720   19.5850  -32.5140 N   0  0  0  0  0  0  0  0  0  0  0  0
   -3.6960   19.1970  -33.7770 C   0  0  0  0  0  0  0  0  0  0  0  0
   -4.9640   18.4520  -33.5080 C   0  0  0  0  0  0  0  0  0  0  0  0
   -5.7450   17.8220  -34.4550 C   0  0  0  0  0  0  0  0  0  0  0  0
   -6.7760   17.2350  -33.7550 C   0  0  0  0  0  0  0  0  0  0  0  0
   -6.5600   17.5430  -32.4270 C   0  0  0  0  0  0  0  0  0  0  0  0
   -5.4710   18.2690  -32.3110 O   0  0  0  0  0  0  0  0  0  0  0  0
   -1.9880   22.4300  -30.9090 C   0  0  0  0  0  0  0  0  0  0  0  0
   -4.9070   23.3520  -31.4360 C   0  0  0  0  0  0  0  0  0  0  0  0
   -6.3328   20.6497  -31.8073 H   0  0  0  0  0  0  0  0  0  0  0  0
   -7.1616   21.5571  -33.1174 H   0  0  0  0  0  0  0  0  0  0  0  0
   -5.3710   21.4147  -33.1174 H   0  0  0  0  0  0  0  0  0  0  0  0
   -8.2972   22.8966  -31.2725 H   0  0  0  0  0  0  0  0  0  0  0  0
   -8.1034   24.9801  -29.9173 H   0  0  0  0  0  0  0  0  0  0  0  0
   -5.8677   25.9997  -29.4965 H   0  0  0  0  0  0  0  0  0  0  0  0
   -0.6581   22.8012  -27.7800 H   0  0  0  0  0  0  0  0  0  0  0  0
    0.2135   20.5286  -28.3197 H   0  0  0  0  0  0  0  0  0  0  0  0
   -0.3743   19.4407  -30.4853 H   0  0  0  0  0  0  0  0  0  0  0  0
   -3.5590   19.3130  -31.6330 H   0  0  0  0  0  0  0  0  0  0  0  0
   -3.9202   20.0988  -34.3657 H   0  0  0  0  0  0  0  0  0  0  0  0
   -3.0066   18.5494  -34.3387 H   0  0  0  0  0  0  0  0  0  0  0  0
   -5.5790   17.7943  -35.5421 H   0  0  0  0  0  0  0  0  0  0  0  0
   -7.6036   16.6412  -34.1702 H   0  0  0  0  0  0  0  0  0  0  0  0
   -7.2027   17.2281  -31.5916 H   0  0  0  0  0  0  0  0  0  0  0  0
   -2.5771   22.9847  -31.6542 H   0  0  0  0  0  0  0  0  0  0  0  0
   -4.0037   22.8845  -31.8550 H   0  0  0  0  0  0  0  0  0  0  0  0
  1  2  1  0
  2  3  2  0
  3  4  1  0
  4  5  2  0
  5  6  1  0
  6  7  1  0
  7  8  1  0
  8  9  2  0
  8 10  2  0
  8 11  1  0
 11 12  2  0
 12 13  1  0
 13 14  2  0
 14 15  1  0
 15 16  1  0
 16 17  2  0
 16 18  1  0
 18 19  1  0
 19 20  1  0
 20 21  2  0
 21 22  1  0
 22 23  2  0
 23 24  1  0
 15 25  2  0
  6 26  2  0
 26  2  1  0
 25 11  1  0
 24 20  1  0
  1 27  1  0
  1 28  1  0
  1 29  1  0
  3 30  1  0
  4 31  1  0
  5 32  1  0
 12 33  1  0
 13 34  1  0
 14 35  1  0
 18 36  1  0
 19 37  1  0
 19 38  1  0
 21 39  1  0
 22 40  1  0
 23 41  1  0
 25 42  1  0
 26 43  1  0
M  CHG  1   7  -1
M  END
>  <UniqueID>  (33) 
30

>  <SMILES>  (33) 
Cc1cccc([N-]S(=O)(=O)c2cccc(C(=O)NCc3ccco3)c2)c1

>  <Energy>  (33) 
73.64077124354748

>  <Genealogy>  (33) 
Cc1cccc([N-]S(=O)(=O)c2cccc(C(=O)NCc3ccco3)c2)c1 (protonated)
Cc1cccc([N-]S(=O)(=O)c2cccc(C(=O)NCc3ccco3)c2)c1 (3D coordinates assigned)
Cc1cccc([N-]S(=O)(=O)c2cccc(C(=O)NCc3ccco3)c2)c1 (optimized conformer: 73.64077124354748 kcal/mol)

>  <smiles>  (33) 
Cc1cccc(NS(=O)(=O)c2cccc(C(=O)NCc3ccco3)c2)c1

>  <score_type>  (33) 
oracle

>  <origin>  (33) 
adg

>  <m_score__min__energy>  (33) 
-9.8599999999999994

>  <m_primary>  (33) 
energy

$$$$
33:0
     RDKit          3D

 30 31  0  0  1  0  0  0  0  0999 V2000
   -2.4910   23.4450  -29.7130 C   0  0  0  0  0  0  0  0  0  0  0  0
   -3.8770   23.8540  -30.0580 C   0  0  0  0  0  0  0  0  0  0  0  0
   -4.5300   23.2620  -31.1190 C   0  0  0  0  0  0  0  0  0  0  0  0
   -5.8080   23.6210  -31.4590 C   0  0  0  0  0  0  0  0  0  0  0  0
   -6.3480   23.0220  -32.4600 N   0  0  0  0  0  0  0  0  0  0  0  0
   -7.3280   22.0040  -32.2810 C   0  0  0  0  0  0  0  0  0  0  0  0
   -8.6020   22.2600  -31.8110 C   0  0  0  0  0  0  0  0  0  0  0  0
   -9.4890   21.2120  -31.6680 C   0  0  0  0  0  0  0  0  0  0  0  0
   -9.1130   19.9040  -31.9920 C   0  0  0  0  0  0  0  0  0  0  0  0
   -7.8410   19.6390  -32.4630 C   0  0  0  0  0  0  0  0  0  0  0  0
   -6.9610   20.6920  -32.6030 C   0  0  0  0  0  0  0  0  0  0  0  0
   -5.5940   20.3730  -33.1130 C   0  0  0  0  0  0  0  0  0  0  0  0
   -6.4690   24.5650  -30.7650 N   0  0  0  0  0  0  0  0  0  0  0  0
   -5.8250   25.1450  -29.7220 C   0  0  0  0  0  0  0  0  0  0  0  0
   -6.4920   26.0480  -29.0810 N   0  0  0  0  0  0  0  0  0  0  0  0
   -4.5600   24.7960  -29.3800 N   0  0  0  0  0  0  0  0  0  0  0  0
   -2.3799   23.4122  -28.6191 H   0  0  0  0  0  0  0  0  0  0  0  0
   -2.2876   22.4486  -30.1322 H   0  0  0  0  0  0  0  0  0  0  0  0
   -1.7792   24.1714  -30.1322 H   0  0  0  0  0  0  0  0  0  0  0  0
   -4.0145   22.4861  -31.7040 H   0  0  0  0  0  0  0  0  0  0  0  0
   -8.9054   23.2857  -31.5541 H   0  0  0  0  0  0  0  0  0  0  0  0
  -10.5049   21.4079  -31.2944 H   0  0  0  0  0  0  0  0  0  0  0  0
   -9.8338   19.0819  -31.8712 H   0  0  0  0  0  0  0  0  0  0  0  0
   -7.5377   18.6133  -32.7200 H   0  0  0  0  0  0  0  0  0  0  0  0
   -4.9135   20.2142  -32.2635 H   0  0  0  0  0  0  0  0  0  0  0  0
   -5.6349   19.4603  -33.7256 H   0  0  0  0  0  0  0  0  0  0  0  0
   -5.2267   21.2096  -33.7256 H   0  0  0  0  0  0  0  0  0  0  0  0
   -7.4220   24.8160  -31.0370 H   0  0  0  0  0  0  0  0  0  0  0  0
   -5.9440   26.7910  -28.6110 H   0  0  0  0  0  0  0  0  0  0  0  0
   -4.1100   25.2740  -28.5690 H   0  0  0  0  0  0  0  0  0  0  0  0
  1  2  1  0
  2  3  2  0
  3  4  1  0
  4  5  2  0
  5  6  1  0
  6  7  2  0
  7  8  1  0
  8  9  2  0
  9 10  1  0
 10 11  2  0
 11 12  1  0
  4 13  1  0
 13 14  1  0
 14 15  2  3
 14 16  1  0
 16  2  1  0
 11  6  1  0
  1 17  1  0
  1 18  1  0
  1 19  1  0
  3 20  1  0
  7 21  1  0
  8 22  1  0
  9 23  1  0
 10 24  1  0
 12 25  1  0
 12 26  1  0
 12 27  1  0
 13 28  1  0
 15 29  1  0
 16 30  1  0
M  END
>  <smiles>  (34) 
Cc1cc(=Nc2ccccc2C)[nH]c(=N)[nH]1

>  <score_type>  (34) 
oracle

>  <origin>  (34) 
adg

>  <m_score__min__energy>  (34) 
-6.9500000000000002

>  <m_primary>  (34) 
energy

$$$$
34:0
     RDKit          3D

 58 61  0  0  0  0  0  0  0  0999 V2000
   -4.0020   21.8172  -29.2004 H   0  0  0  0  0  0  0  0  0  0  0  0
   -3.0280   21.3290  -29.0490 C   0  0  0  0  0  0  0  0  0  0  0  0
   -2.6790   20.3940  -29.8870 N   0  0  0  0  0  0  0  0  0  0  0  0
   -2.1660   20.5570  -31.2170 C   0  0  0  0  0  0  0  0  0  0  0  0
   -0.9420   20.7830  -31.4150 O   0  0  0  0  0  0  0  0  0  0  0  0
   -3.0730   20.3460  -32.3930 C   0  0  0  0  0  0  0  0  0  0  0  0
   -2.5302   20.5930  -33.3173 H   0  0  0  0  0  0  0  0  0  0  0  0
   -3.3933   19.2938  -32.4100 H   0  0  0  0  0  0  0  0  0  0  0  0
   -4.2720   21.2090  -32.2870 N   0  0  0  0  0  0  0  0  0  0  0  0
   -5.5420   20.6810  -32.3840 C   0  0  0  0  0  0  0  0  0  0  0  0
   -5.7690   19.2420  -32.6440 C   0  0  0  0  0  0  0  0  0  0  0  0
   -5.8330   18.7650  -33.9610 C   0  0  0  0  0  0  0  0  0  0  0  0
   -5.7092   19.4608  -34.8039 H   0  0  0  0  0  0  0  0  0  0  0  0
   -6.0540   17.4060  -34.2040 C   0  0  0  0  0  0  0  0  0  0  0  0
   -6.1100   17.0353  -35.2381 H   0  0  0  0  0  0  0  0  0  0  0  0
   -6.2040   16.5170  -33.1350 C   0  0  0  0  0  0  0  0  0  0  0  0
   -6.3816   15.4488  -33.3283 H   0  0  0  0  0  0  0  0  0  0  0  0
   -6.1280   16.9870  -31.8200 C   0  0  0  0  0  0  0  0  0  0  0  0
   -6.2414   16.2871  -30.9790 H   0  0  0  0  0  0  0  0  0  0  0  0
   -5.9080   18.3460  -31.5730 C   0  0  0  0  0  0  0  0  0  0  0  0
   -5.8439   18.7129  -30.5380 H   0  0  0  0  0  0  0  0  0  0  0  0
   -6.6540   21.5210  -32.2140 C   0  0  0  0  0  0  0  0  0  0  0  0
   -8.3040   20.9200  -32.3390 Cl  0  0  0  0  0  0  0  0  0  0  0  0
   -6.4660   22.8320  -31.9440 N   0  0  0  0  0  0  0  0  0  0  0  0
   -5.2340   23.3820  -31.8280 C   0  0  0  0  0  0  0  0  0  0  0  0
   -5.1660   24.6560  -31.5460 N   0  0  0  0  0  0  0  0  0  0  0  0
   -4.8280   25.2980  -30.2750 C   0  0  0  0  0  0  0  0  0  0  0  0
   -4.7416   26.3540  -30.5708 H   0  0  0  0  0  0  0  0  0  0  0  0
   -3.6820   24.5720  -29.5770 C   0  0  0  0  0  0  0  0  0  0  0  0
   -3.2746   23.7236  -30.1464 H   0  0  0  0  0  0  0  0  0  0  0  0
   -2.7418   25.0983  -29.3556 H   0  0  0  0  0  0  0  0  0  0  0  0
   -4.6240   24.1700  -28.4510 C   0  0  0  0  0  0  0  0  0  0  0  0
   -4.7720   23.0841  -28.3564 H   0  0  0  0  0  0  0  0  0  0  0  0
   -4.3714   24.4029  -27.4061 H   0  0  0  0  0  0  0  0  0  0  0  0
   -5.7690   24.8940  -29.1440 C   0  0  0  0  0  0  0  0  0  0  0  0
   -6.5922   24.2355  -29.4582 H   0  0  0  0  0  0  0  0  0  0  0  0
   -6.3530   25.6556  -28.6065 H   0  0  0  0  0  0  0  0  0  0  0  0
   -4.1030   22.5470  -32.0050 C   0  0  0  0  0  0  0  0  0  0  0  0
   -2.9370   23.0170  -31.8980 O   0  0  0  0  0  0  0  0  0  0  0  0
   -2.2010   21.7770  -27.9080 C   0  0  0  0  0  0  0  0  0  0  0  0
   -2.0030   20.9590  -26.7830 C   0  0  0  0  0  0  0  0  0  0  0  0
   -2.4930   19.9756  -26.7285 H   0  0  0  0  0  0  0  0  0  0  0  0
   -1.1870   21.3880  -25.7330 C   0  0  0  0  0  0  0  0  0  0  0  0
   -1.0571   20.7497  -24.8466 H   0  0  0  0  0  0  0  0  0  0  0  0
   -0.5310   22.6290  -25.8010 C   0  0  0  0  0  0  0  0  0  0  0  0
    0.3500   23.0890  -24.6540 C   0  0  1  0  0  0  0  0  0  0  0  0
    1.3345   22.6102  -24.7609 H   0  0  0  0  0  0  0  0  0  0  0  0
    0.5300   24.5420  -24.7050 N   0  0  0  0  0  0  0  0  0  0  0  0
    1.4030   24.7470  -25.2420 H   0  0  0  0  0  0  0  0  0  0  0  0
    0.6760   24.9110  -23.7380 H   0  0  0  0  0  0  0  0  0  0  0  0
   -0.2070   22.6750  -23.3590 N   0  0  0  0  0  0  0  0  0  0  0  0
   -0.7940   23.4320  -22.9430 H   0  0  0  0  0  0  0  0  0  0  0  0
    0.5720   22.4520  -22.6970 H   0  0  0  0  0  0  0  0  0  0  0  0
   -0.7900   21.8150  -23.4820 H   0  0  0  0  0  0  0  0  0  0  0  0
   -0.6980   23.4260  -26.9490 C   0  0  0  0  0  0  0  0  0  0  0  0
   -0.1762   24.3914  -27.0246 H   0  0  0  0  0  0  0  0  0  0  0  0
   -1.5220   22.9990  -27.9930 C   0  0  0  0  0  0  0  0  0  0  0  0
   -1.6384   23.6271  -28.8885 H   0  0  0  0  0  0  0  0  0  0  0  0
  1  2  1  0
  2  3  2  0
  3  4  1  0
  4  5  2  0
  4  6  1  0
  6  7  1  0
  6  8  1  0
  6  9  1  0
  9 10  1  0
 10 11  1  0
 11 12  2  0
 12 13  1  0
 12 14  1  0
 14 15  1  0
 14 16  2  0
 16 17  1  0
 16 18  1  0
 18 19  1  0
 18 20  2  0
 20 21  1  0
 10 22  2  0
 22 23  1  0
 22 24  1  0
 24 25  1  0
 25 26  2  3
 26 27  1  0
 27 28  1  0
 27 29  1  0
 29 30  1  0
 29 31  1  0
 29 32  1  0
 32 33  1  0
 32 34  1  0
 32 35  1  0
 35 36  1  0
 35 37  1  0
 25 38  1  0
 38 39  2  0
  2 40  1  0
 40 41  2  0
 41 42  1  0
 41 43  1  0
 43 44  1  0
 43 45  2  0
 45 46  1  0
 46 47  1  6
 46 48  1  0
 48 49  1  0
 48 50  1  0
 46 51  1  0
 51 52  1  0
 51 53  1  0
 51 54  1  0
 45 55  1  0
 55 56  1  0
 55 57  2  0
 57 58  1  0
 38  9  1  0
 57 40  1  0
 20 11  1  0
 35 27  1  0
M  CHG  2  24  -1  51   1
M  END
>  <UniqueID>  (35) 
31

>  <SMILES>  (35) 
N[C@@H]([NH3+])c1ccc(/C=N\C(=O)Cn2c(-c3ccccc3)c(Cl)[n-]c(=NC3CCC3)c2=O)cc1

>  <Energy>  (35) 
146.72716689103456

>  <Genealogy>  (35) 
NC([NH3+])c1ccc(C=NC(=O)Cn2c(-c3ccccc3)c(Cl)[n-]c(=NC3CCC3)c2=O)cc1 (protonated)
N[C@@H]([NH3+])c1ccc(C=NC(=O)Cn2c(-c3ccccc3)c(Cl)[n-]c(=NC3CCC3)c2=O)cc1 (chirality)
N[C@@H]([NH3+])c1ccc(/C=N\C(=O)Cn2c(-c3ccccc3)c(Cl)[n-]c(=NC3CCC3)c2=O)cc1 (cis-trans isomerization)
N[C@@H]([NH3+])c1ccc(/C=N\C(=O)Cn2c(-c3ccccc3)c(Cl)[n-]c(=NC3CCC3)c2=O)cc1 (3D coordinates assigned)
N[C@@H]([NH3+])c1ccc(/C=N\C(=O)Cn2c(-c3ccccc3)c(Cl)[n-]c(=NC3CCC3)c2=O)cc1 (nonaromatic ring conformer: 146.72716689103456 kcal/mol)

>  <smiles>  (35) 
NC(N)c1ccc(C=NC(=O)Cn2c(-c3ccccc3)c(Cl)[nH]c(=NC3CCC3)c2=O)cc1

>  <score_type>  (35) 
oracle

>  <origin>  (35) 
adg

>  <m_score__min__energy>  (35) 
-11.41

>  <m_primary>  (35) 
energy

$$$$
35:0
     RDKit          3D

 54 58  0  0  0  0  0  0  0  0999 V2000
   -3.9140   25.5940  -30.4890 N   0  0  0  0  0  0  0  0  0  0  0  0
   -3.5300   24.2750  -30.1040 C   0  0  0  0  0  0  0  0  0  0  0  0
   -2.6610   24.1250  -29.2040 O   0  0  0  0  0  0  0  0  0  0  0  0
   -4.1890   23.0990  -30.7200 C   0  0  0  0  0  0  0  0  0  0  0  0
   -5.3070   23.3160  -31.5420 C   0  0  0  0  0  0  0  0  0  0  0  0
   -6.0210   22.2460  -32.0760 C   0  0  0  0  0  0  0  0  0  0  0  0
   -5.6430   20.9330  -31.7850 C   0  0  0  0  0  0  0  0  0  0  0  0
   -6.3920   19.8320  -32.3250 N   0  0  0  0  0  0  0  0  0  0  0  0
   -7.7320   19.7870  -32.5340 C   0  0  0  0  0  0  0  0  0  0  0  0
   -8.1280   18.6180  -33.0930 N   0  0  0  0  0  0  0  0  0  0  0  0
   -6.9930   17.9100  -33.2270 C   0  0  0  0  0  0  0  0  0  0  0  0
   -6.8390   16.6210  -33.7290 C   0  0  0  0  0  0  0  0  0  0  0  0
   -5.5380   16.0620  -33.7400 C   0  0  0  0  0  0  0  0  0  0  0  0
   -5.3140   14.6940  -34.2730 C   0  0  0  0  0  0  0  0  0  0  0  0
   -4.0860   14.3520  -34.8720 C   0  0  0  0  0  0  0  0  0  0  0  0
   -3.8770   13.0640  -35.3740 C   0  0  0  0  0  0  0  0  0  0  0  0
   -4.8890   12.1030  -35.2830 C   0  0  0  0  0  0  0  0  0  0  0  0
   -6.1090   12.4300  -34.6900 C   0  0  0  0  0  0  0  0  0  0  0  0
   -6.3240   13.7170  -34.1880 C   0  0  0  0  0  0  0  0  0  0  0  0
   -4.4490   16.8190  -33.2270 C   0  0  0  0  0  0  0  0  0  0  0  0
   -4.6470   18.1170  -32.7210 C   0  0  0  0  0  0  0  0  0  0  0  0
   -5.9390   18.6390  -32.7600 C   0  0  0  0  0  0  0  0  0  0  0  0
   -4.5060   20.7000  -31.0000 C   0  0  0  0  0  0  0  0  0  0  0  0
   -3.7550   21.7680  -30.4690 C   0  0  0  0  0  0  0  0  0  0  0  0
   -2.5110   21.5270  -29.7650 N   0  0  0  0  0  0  0  0  0  0  0  0
   -2.1380   20.3370  -28.9830 C   0  0  0  0  0  0  0  0  0  0  0  0
   -2.8860   20.2560  -27.6550 C   0  0  0  0  0  0  0  0  0  0  0  0
   -1.9190   19.5880  -26.6920 C   0  0  0  0  0  0  0  0  0  0  0  0
   -0.5220   19.9370  -27.1830 C   0  0  0  0  0  0  0  0  0  0  0  0
   -0.6380   20.2260  -28.6780 C   0  0  0  0  0  0  0  0  0  0  0  0
   -3.4930   26.0530  -31.3280 H   0  0  0  0  0  0  0  0  0  0  0  0
   -5.6231   24.3453  -31.7671 H   0  0  0  0  0  0  0  0  0  0  0  0
   -6.8856   22.4355  -32.7292 H   0  0  0  0  0  0  0  0  0  0  0  0
   -8.4192   20.6070  -32.2784 H   0  0  0  0  0  0  0  0  0  0  0  0
   -9.0970   18.3320  -33.3540 H   0  0  0  0  0  0  0  0  0  0  0  0
   -7.7024   16.0533  -34.1061 H   0  0  0  0  0  0  0  0  0  0  0  0
   -3.2860   15.1034  -34.9453 H   0  0  0  0  0  0  0  0  0  0  0  0
   -2.9151   12.8061  -35.8412 H   0  0  0  0  0  0  0  0  0  0  0  0
   -4.7233   11.0901  -35.6786 H   0  0  0  0  0  0  0  0  0  0  0  0
   -6.9038   11.6731  -34.6173 H   0  0  0  0  0  0  0  0  0  0  0  0
   -7.2890   13.9679  -33.7234 H   0  0  0  0  0  0  0  0  0  0  0  0
   -3.4386   16.3842  -33.2257 H   0  0  0  0  0  0  0  0  0  0  0  0
   -3.8104   18.7001  -32.3086 H   0  0  0  0  0  0  0  0  0  0  0  0
   -4.1940   19.6654  -30.7945 H   0  0  0  0  0  0  0  0  0  0  0  0
   -1.7690   22.2580  -29.8300 H   0  0  0  0  0  0  0  0  0  0  0  0
   -2.4239   19.5023  -29.6399 H   0  0  0  0  0  0  0  0  0  0  0  0
   -3.1505   21.2628  -27.2994 H   0  0  0  0  0  0  0  0  0  0  0  0
   -3.8273   19.6944  -27.7474 H   0  0  0  0  0  0  0  0  0  0  0  0
   -2.0713   19.9706  -25.6720 H   0  0  0  0  0  0  0  0  0  0  0  0
   -2.0725   18.4992  -26.6607 H   0  0  0  0  0  0  0  0  0  0  0  0
   -0.1457   20.8250  -26.6539 H   0  0  0  0  0  0  0  0  0  0  0  0
    0.1799   19.1113  -26.9943 H   0  0  0  0  0  0  0  0  0  0  0  0
   -0.1290   21.1697  -28.9236 H   0  0  0  0  0  0  0  0  0  0  0  0
   -0.1674   19.4312  -29.2754 H   0  0  0  0  0  0  0  0  0  0  0  0
  1  2  1  0
  2  3  2  0
  2  4  1  0
  4  5  2  0
  5  6  1  0
  6  7  2  0
  7  8  1  0
  8  9  1  0
  9 10  2  0
 10 11  1  0
 11 12  2  0
 12 13  1  0
 13 14  1  0
 14 15  2  0
 15 16  1  0
 16 17  2  0
 17 18  1  0
 18 19  2  0
 13 20  2  0
 20 21  1  0
 21 22  2  0
  7 23  1  0
 23 24  2  0
 24 25  1  0
 25 26  1  0
 26 27  1  0
 27 28  1  0
 28 29  1  0
 29 30  1  0
 24  4  1  0
 30 26  1  0
 22  8  1  0
 22 11  1  0
 19 14  1  0
  1 31  1  0
  5 32  1  0
  6 33  1  0
  9 34  1  0
 10 35  1  0
 12 36  1  0
 15 37  1  0
 16 38  1  0
 17 39  1  0
 18 40  1  0
 19 41  1  0
 20 42  1  0
 21 43  1  0
 23 44  1  0
 25 45  1  0
 26 46  1  0
 27 47  1  0
 27 48  1  0
 28 49  1  0
 28 50  1  0
 29 51  1  0
 29 52  1  0
 30 53  1  0
 30 54  1  0
M  CHG  2   1  -1  10   1
M  END
>  <UniqueID>  (36) 
32

>  <SMILES>  (36) 
[NH-]C(=O)c1ccc(-n2c[nH+]c3cc(-c4ccccc4)ccc32)cc1NC1CCCC1

>  <Energy>  (36) 
117.08795595586815

>  <Genealogy>  (36) 
[NH-]C(=O)c1ccc(-n2c[nH+]c3cc(-c4ccccc4)ccc32)cc1NC1CCCC1 (protonated)
[NH-]C(=O)c1ccc(-n2c[nH+]c3cc(-c4ccccc4)ccc32)cc1NC1CCCC1 (3D coordinates assigned)
[NH-]C(=O)c1ccc(-n2c[nH+]c3cc(-c4ccccc4)ccc32)cc1NC1CCCC1 (nonaromatic ring conformer: 117.08795595586815 kcal/mol)

>  <smiles>  (36) 
NC(=O)c1ccc(-n2cnc3cc(-c4ccccc4)ccc32)cc1NC1CCCC1

>  <score_type>  (36) 
oracle

>  <origin>  (36) 
adg

>  <m_score__min__energy>  (36) 
-11.41

>  <m_primary>  (36) 
energy

$$$$
36:0
     RDKit          3D

 40 42  0  0  0  0  0  0  0  0999 V2000
   -6.1070   16.1970  -33.1140 C   0  0  0  0  0  0  0  0  0  0  0  0
   -5.9680   17.5250  -32.3670 C   0  0  1  0  0  0  0  0  0  0  0  0
   -5.0540   18.5160  -33.1410 C   0  0  0  0  0  0  0  0  0  0  0  0
   -5.4190   19.9010  -32.8320 N   0  0  0  0  0  0  0  0  0  0  0  0
   -4.4240   20.9320  -32.9420 C   0  0  0  0  0  0  0  0  0  0  0  0
   -3.5610   20.8680  -33.8590 O   0  0  0  0  0  0  0  0  0  0  0  0
   -4.3840   22.0630  -32.0000 C   0  0  0  0  0  0  0  0  0  0  0  0
   -3.6830   22.1250  -30.8100 C   0  0  0  0  0  0  0  0  0  0  0  0
   -3.9330   23.4080  -30.3420 C   0  0  0  0  0  0  0  0  0  0  0  0
   -3.4290   24.0260  -29.0940 C   0  0  0  0  0  0  0  0  0  0  0  0
   -4.2400   24.1240  -27.9460 C   0  0  0  0  0  0  0  0  0  0  0  0
   -3.7420   24.7140  -26.7790 C   0  0  0  0  0  0  0  0  0  0  0  0
   -2.4360   25.2110  -26.7440 C   0  0  0  0  0  0  0  0  0  0  0  0
   -1.8170   25.9490  -25.2790 Cl  0  0  0  0  0  0  0  0  0  0  0  0
   -1.6260   25.1190  -27.8790 C   0  0  0  0  0  0  0  0  0  0  0  0
   -2.1190   24.5310  -29.0480 C   0  0  0  0  0  0  0  0  0  0  0  0
   -4.7070   24.0250  -31.2070 O   0  0  0  0  0  0  0  0  0  0  0  0
   -4.9870   23.2480  -32.2090 N   0  0  0  0  0  0  0  0  0  0  0  0
   -6.8390   20.2680  -32.7940 C   0  0  0  0  0  0  0  0  0  0  0  0
   -7.7130   19.0110  -32.9340 C   0  0  2  0  0  0  0  0  0  0  0  0
   -9.1750   19.3340  -32.6320 C   0  0  0  0  0  0  0  0  0  0  0  0
   -7.2600   18.0250  -32.0290 O   0  0  0  0  0  0  0  0  0  0  0  0
   -6.1930   15.3752  -32.3879 H   0  0  0  0  0  0  0  0  0  0  0  0
   -7.0072   16.2240  -33.7456 H   0  0  0  0  0  0  0  0  0  0  0  0
   -5.2207   16.0370  -33.7456 H   0  0  0  0  0  0  0  0  0  0  0  0
   -5.4461   17.3717  -31.4109 H   0  0  0  0  0  0  0  0  0  0  0  0
   -4.0070   18.3445  -32.8507 H   0  0  0  0  0  0  0  0  0  0  0  0
   -5.1814   18.3475  -34.2205 H   0  0  0  0  0  0  0  0  0  0  0  0
   -3.0698   21.3404  -30.3427 H   0  0  0  0  0  0  0  0  0  0  0  0
   -5.2688   23.7351  -27.9672 H   0  0  0  0  0  0  0  0  0  0  0  0
   -4.3804   24.7869  -25.8862 H   0  0  0  0  0  0  0  0  0  0  0  0
   -0.5982   25.5100  -27.8528 H   0  0  0  0  0  0  0  0  0  0  0  0
   -1.4763   24.4634  -29.9381 H   0  0  0  0  0  0  0  0  0  0  0  0
   -5.5800   23.5160  -33.0270 H   0  0  0  0  0  0  0  0  0  0  0  0
   -7.0618   20.7614  -31.8364 H   0  0  0  0  0  0  0  0  0  0  0  0
   -7.0565   20.9526  -33.6271 H   0  0  0  0  0  0  0  0  0  0  0  0
   -7.6373   18.6425  -33.9677 H   0  0  0  0  0  0  0  0  0  0  0  0
   -9.3257   19.3673  -31.5429 H   0  0  0  0  0  0  0  0  0  0  0  0
   -9.4323   20.3107  -33.0678 H   0  0  0  0  0  0  0  0  0  0  0  0
   -9.8198   18.5567  -33.0678 H   0  0  0  0  0  0  0  0  0  0  0  0
  1  2  1  0
  2  3  1  0
  3  4  1  0
  4  5  1  0
  5  6  2  0
  5  7  1  0
  7  8  1  0
  8  9  2  0
  9 10  1  0
 10 11  2  0
 11 12  1  0
 12 13  2  0
 13 14  1  0
 13 15  1  0
 15 16  2  0
  9 17  1  0
 17 18  1  0
  4 19  1  0
 19 20  1  0
 20 21  1  0
 20 22  1  0
 22  2  1  0
 18  7  2  0
 16 10  1  0
  1 23  1  0
  1 24  1  0
  1 25  1  0
  2 26  1  1
  3 27  1  0
  3 28  1  0
  8 29  1  0
 11 30  1  0
 12 31  1  0
 15 32  1  0
 16 33  1  0
 18 34  1  0
 19 35  1  0
 19 36  1  0
 20 37  1  6
 21 38  1  0
 21 39  1  0
 21 40  1  0
M  CHG  1  18   1
M  END
>  <UniqueID>  (37) 
33

>  <SMILES>  (37) 
C[C@H]1CN(C(=O)c2cc(-c3ccc(Cl)cc3)o[nH+]2)C[C@H](C)O1

>  <Energy>  (37) 
79.15488487622747

>  <Genealogy>  (37) 
CC1CN(C(=O)c2cc(-c3ccc(Cl)cc3)o[nH+]2)CC(C)O1 (protonated)
C[C@H]1CN(C(=O)c2cc(-c3ccc(Cl)cc3)o[nH+]2)C[C@H](C)O1 (chirality)
C[C@H]1CN(C(=O)c2cc(-c3ccc(Cl)cc3)o[nH+]2)C[C@H](C)O1 (3D coordinates assigned)
C[C@H]1CN(C(=O)c2cc(-c3ccc(Cl)cc3)o[nH+]2)C[C@H](C)O1 (nonaromatic ring conformer: 79.15488487622747 kcal/mol)

>  <smiles>  (37) 
CC1CN(C(=O)c2cc(-c3ccc(Cl)cc3)on2)CC(C)O1

>  <score_type>  (37) 
oracle

>  <origin>  (37) 
adg

>  <m_score__min__energy>  (37) 
-7.79

>  <m_primary>  (37) 
energy

$$$$
37:0
     RDKit          3D

 40 41  0  0  0  0  0  0  0  0999 V2000
   -8.4190   18.2800  -31.6450 C   0  0  0  0  0  0  0  0  0  0  0  0
   -9.1470   19.2840  -32.5370 C   0  0  0  0  0  0  0  0  0  0  0  0
   -8.2010   19.9840  -33.4200 N   0  0  0  0  0  0  0  0  0  0  0  0
   -7.4970   21.0070  -32.6800 C   0  0  0  0  0  0  0  0  0  0  0  0
   -8.2290   21.9700  -31.9590 C   0  0  0  0  0  0  0  0  0  0  0  0
   -7.5750   22.9550  -31.2180 C   0  0  0  0  0  0  0  0  0  0  0  0
   -6.1770   22.9890  -31.1690 C   0  0  0  0  0  0  0  0  0  0  0  0
   -5.3630   24.2540  -30.2510 S   0  0  0  0  0  0  0  0  0  0  0  0
   -4.6980   25.1970  -31.2130 O   0  0  0  0  0  0  0  0  0  0  0  0
   -6.3710   25.0260  -29.4430 O   0  0  0  0  0  0  0  0  0  0  0  0
   -4.1650   23.5450  -29.1990 N   0  0  0  0  0  0  0  0  0  0  0  0
   -4.1130   24.2910  -27.9220 C   0  0  0  0  0  0  0  0  0  0  0  0
   -2.8580   23.9510  -27.0870 C   0  0  0  0  0  0  0  0  0  0  0  0
   -2.2010   22.6530  -27.5580 C   0  0  0  0  0  0  0  0  0  0  0  0
   -1.8330   22.7320  -29.0490 C   0  0  0  0  0  0  0  0  0  0  0  0
   -2.8520   23.5490  -29.8650 C   0  0  0  0  0  0  0  0  0  0  0  0
   -5.4360   22.0340  -31.8750 C   0  0  0  0  0  0  0  0  0  0  0  0
   -6.0830   21.0410  -32.6240 C   0  0  0  0  0  0  0  0  0  0  0  0
   -5.2790   20.0670  -33.3200 C   0  0  0  0  0  0  0  0  0  0  0  0
   -4.6330   19.2860  -33.8790 N   0  0  0  0  0  0  0  0  0  0  0  0
   -8.5997   18.5293  -30.5890 H   0  0  0  0  0  0  0  0  0  0  0  0
   -8.7936   17.2667  -31.8519 H   0  0  0  0  0  0  0  0  0  0  0  0
   -7.3394   18.3211  -31.8519 H   0  0  0  0  0  0  0  0  0  0  0  0
   -9.8860   18.7497  -33.1522 H   0  0  0  0  0  0  0  0  0  0  0  0
   -9.6453   20.0266  -31.8965 H   0  0  0  0  0  0  0  0  0  0  0  0
   -8.7270   20.4200  -34.2140 H   0  0  0  0  0  0  0  0  0  0  0  0
   -7.5240   19.3020  -33.8330 H   0  0  0  0  0  0  0  0  0  0  0  0
   -9.3285   21.9455  -31.9802 H   0  0  0  0  0  0  0  0  0  0  0  0
   -8.1608   23.7078  -30.6702 H   0  0  0  0  0  0  0  0  0  0  0  0
   -4.1079   25.3685  -28.1432 H   0  0  0  0  0  0  0  0  0  0  0  0
   -4.9949   24.0028  -27.3311 H   0  0  0  0  0  0  0  0  0  0  0  0
   -2.1329   24.7727  -27.1822 H   0  0  0  0  0  0  0  0  0  0  0  0
   -3.1679   23.8186  -26.0399 H   0  0  0  0  0  0  0  0  0  0  0  0
   -1.2875   22.4783  -26.9706 H   0  0  0  0  0  0  0  0  0  0  0  0
   -2.9138   21.8274  -27.4159 H   0  0  0  0  0  0  0  0  0  0  0  0
   -0.8445   23.2051  -29.1439 H   0  0  0  0  0  0  0  0  0  0  0  0
   -1.8304   21.7068  -29.4476 H   0  0  0  0  0  0  0  0  0  0  0  0
   -2.4953   24.5855  -29.9565 H   0  0  0  0  0  0  0  0  0  0  0  0
   -2.9564   23.0955  -30.8617 H   0  0  0  0  0  0  0  0  0  0  0  0
   -4.3369   22.0629  -31.8418 H   0  0  0  0  0  0  0  0  0  0  0  0
  1  2  1  0
  2  3  1  0
  3  4  1  0
  4  5  2  0
  5  6  1  0
  6  7  2  0
  7  8  1  0
  8  9  2  0
  8 10  2  0
  8 11  1  0
 11 12  1  0
 12 13  1  0
 13 14  1  0
 14 15  1  0
 15 16  1  0
  7 17  1  0
 17 18  2  0
 18 19  1  0
 19 20  3  0
 18  4  1  0
 16 11  1  0
  1 21  1  0
  1 22  1  0
  1 23  1  0
  2 24  1  0
  2 25  1  0
  3 26  1  0
  3 27  1  0
  5 28  1  0
  6 29  1  0
 12 30  1  0
 12 31  1  0
 13 32  1  0
 13 33  1  0
 14 34  1  0
 14 35  1  0
 15 36  1  0
 15 37  1  0
 16 38  1  0
 16 39  1  0
 17 40  1  0
M  CHG  1   3   1
M  END
>  <UniqueID>  (38) 
34

>  <SMILES>  (38) 
CC[NH2+]c1ccc(S(=O)(=O)N2CCCCC2)cc1C#N

>  <Energy>  (38) 
39.557263861826485

>  <Genealogy>  (38) 
CC[NH2+]c1ccc(S(=O)(=O)N2CCCCC2)cc1C#N (protonated)
CC[NH2+]c1ccc(S(=O)(=O)N2CCCCC2)cc1C#N (3D coordinates assigned)
CC[NH2+]c1ccc(S(=O)(=O)N2CCCCC2)cc1C#N (nonaromatic ring conformer: 39.557263861826485 kcal/mol)

>  <smiles>  (38) 
CCNc1ccc(S(=O)(=O)N2CCCCC2)cc1C#N

>  <score_type>  (38) 
oracle

>  <origin>  (38) 
adg

>  <m_score__min__energy>  (38) 
-7.7000000000000002

>  <m_primary>  (38) 
energy

$$$$
38:0
     RDKit          3D

 28 29  0  0  0  0  0  0  0  0999 V2000
   -9.0780   21.5540  -30.8950 C   0  0  0  0  0  0  0  0  0  0  0  0
   -8.0380   22.1480  -30.7620 C   0  0  0  0  0  0  0  0  0  0  0  0
   -6.7950   22.8570  -30.6050 C   0  0  0  0  0  0  0  0  0  0  0  0
   -5.5920   22.2660  -31.0100 C   0  0  0  0  0  0  0  0  0  0  0  0
   -4.3850   22.9560  -30.8570 C   0  0  0  0  0  0  0  0  0  0  0  0
   -4.3670   24.2330  -30.2830 C   0  0  0  0  0  0  0  0  0  0  0  0
   -3.1110   24.9160  -30.1510 N   0  0  0  0  0  0  0  0  0  0  0  0
   -2.2480   24.8910  -29.0050 C   0  0  0  0  0  0  0  0  0  0  0  0
   -1.9060   25.9850  -28.4830 O   0  0  0  0  0  0  0  0  0  0  0  0
   -1.6640   23.6290  -28.4980 C   0  0  0  0  0  0  0  0  0  0  0  0
   -2.5200   22.5470  -28.2230 C   0  0  0  0  0  0  0  0  0  0  0  0
   -2.0030   21.3270  -27.7770 C   0  0  0  0  0  0  0  0  0  0  0  0
   -3.0850   19.9890  -27.4370 Cl  0  0  0  0  0  0  0  0  0  0  0  0
   -0.6260   21.1710  -27.6110 C   0  0  0  0  0  0  0  0  0  0  0  0
    0.2350   22.2370  -27.8780 C   0  0  0  0  0  0  0  0  0  0  0  0
   -0.2700   23.4700  -28.3080 C   0  0  0  0  0  0  0  0  0  0  0  0
    0.6340   24.5160  -28.5060 O   0  0  0  0  0  0  0  0  0  0  0  0
   -5.5800   24.8350  -29.9030 C   0  0  0  0  0  0  0  0  0  0  0  0
   -6.7860   24.1450  -30.0550 C   0  0  0  0  0  0  0  0  0  0  0  0
  -10.0273   21.0118  -31.0164 H   0  0  0  0  0  0  0  0  0  0  0  0
   -5.5962   21.2575  -31.4492 H   0  0  0  0  0  0  0  0  0  0  0  0
   -3.4444   22.4927  -31.1896 H   0  0  0  0  0  0  0  0  0  0  0  0
   -3.6054   22.6618  -28.3601 H   0  0  0  0  0  0  0  0  0  0  0  0
   -0.2190   20.2078  -27.2697 H   0  0  0  0  0  0  0  0  0  0  0  0
    1.3197   22.1071  -27.7494 H   0  0  0  0  0  0  0  0  0  0  0  0
    0.3510   25.4840  -28.5870 H   0  0  0  0  0  0  0  0  0  0  0  0
   -5.5796   25.8524  -29.4847 H   0  0  0  0  0  0  0  0  0  0  0  0
   -7.7302   24.6146  -29.7419 H   0  0  0  0  0  0  0  0  0  0  0  0
  1  2  3  0
  2  3  1  0
  3  4  2  0
  4  5  1  0
  5  6  2  0
  6  7  1  0
  7  8  1  0
  8  9  2  0
  8 10  1  0
 10 11  2  0
 11 12  1  0
 12 13  1  0
 12 14  2  0
 14 15  1  0
 15 16  2  0
 16 17  1  0
  6 18  1  0
 18 19  2  0
 19  3  1  0
 16 10  1  0
  1 20  1  0
  4 21  1  0
  5 22  1  0
 11 23  1  0
 14 24  1  0
 15 25  1  0
 17 26  1  0
 18 27  1  0
 19 28  1  0
M  CHG  1   7  -1
M  END
>  <UniqueID>  (39) 
35

>  <SMILES>  (39) 
C#Cc1ccc([N-]C(=O)c2cc(Cl)ccc2O)cc1

>  <Energy>  (39) 
36.145518624138624

>  <Genealogy>  (39) 
C#Cc1ccc([N-]C(=O)c2cc(Cl)ccc2O)cc1 (protonated)
C#Cc1ccc([N-]C(=O)c2cc(Cl)ccc2O)cc1 (3D coordinates assigned)
C#Cc1ccc([N-]C(=O)c2cc(Cl)ccc2O)cc1 (optimized conformer: 36.145518624138624 kcal/mol)

>  <smiles>  (39) 
C#Cc1ccc(NC(=O)c2cc(Cl)ccc2O)cc1

>  <score_type>  (39) 
oracle

>  <origin>  (39) 
adg

>  <m_score__min__energy>  (39) 
-9.4199999999999999

>  <m_primary>  (39) 
energy

$$$$
39:0
     RDKit          3D

 45 47  0  0  0  0  0  0  0  0999 V2000
   -4.0260   24.8750  -26.9950 N   0  0  0  0  0  0  0  0  0  0  0  0
   -3.0520   25.2980  -25.9900 C   0  0  0  0  0  0  0  0  0  0  0  0
   -1.6550   24.7460  -26.3150 C   0  0  0  0  0  0  0  0  0  0  0  0
   -0.9360   25.5490  -27.4120 C   0  0  0  0  0  0  0  0  0  0  0  0
   -1.2760   25.1180  -28.8490 C   0  0  0  0  0  0  0  0  0  0  0  0
   -2.6660   25.2980  -29.1330 O   0  0  0  0  0  0  0  0  0  0  0  0
   -3.4750   24.4360  -29.8900 C   0  0  0  0  0  0  0  0  0  0  0  0
   -3.0230   23.1710  -30.3590 C   0  0  0  0  0  0  0  0  0  0  0  0
   -3.8510   22.3640  -31.1580 C   0  0  0  0  0  0  0  0  0  0  0  0
   -5.1310   22.8330  -31.4600 C   0  0  0  0  0  0  0  0  0  0  0  0
   -5.5820   24.0340  -30.9800 C   0  0  0  0  0  0  0  0  0  0  0  0
   -6.8580   24.2250  -31.4630 C   0  0  0  0  0  0  0  0  0  0  0  0
   -7.1280   23.1020  -32.2400 C   0  0  0  0  0  0  0  0  0  0  0  0
   -6.0730   22.2510  -32.2290 N   0  0  0  0  0  0  0  0  0  0  0  0
   -5.9530   21.0250  -33.0210 C   0  0  0  0  0  0  0  0  0  0  0  0
   -6.9930   20.0270  -32.5880 C   0  0  0  0  0  0  0  0  0  0  0  0
   -8.3590   20.3340  -32.7190 C   0  0  0  0  0  0  0  0  0  0  0  0
   -9.3310   19.3970  -32.3550 C   0  0  0  0  0  0  0  0  0  0  0  0
   -8.9470   18.1460  -31.8620 C   0  0  0  0  0  0  0  0  0  0  0  0
   -7.5920   17.8320  -31.7300 C   0  0  0  0  0  0  0  0  0  0  0  0
   -6.6170   18.7670  -32.0910 C   0  0  0  0  0  0  0  0  0  0  0  0
   -4.7850   24.8580  -30.1900 C   0  0  0  0  0  0  0  0  0  0  0  0
   -3.6210   24.0880  -27.5530 H   0  0  0  0  0  0  0  0  0  0  0  0
   -4.2470   25.6680  -27.6400 H   0  0  0  0  0  0  0  0  0  0  0  0
   -4.9010   24.5430  -26.5290 H   0  0  0  0  0  0  0  0  0  0  0  0
   -3.0094   26.3970  -25.9697 H   0  0  0  0  0  0  0  0  0  0  0  0
   -3.3653   24.9079  -25.0104 H   0  0  0  0  0  0  0  0  0  0  0  0
   -1.0442   24.7756  -25.4006 H   0  0  0  0  0  0  0  0  0  0  0  0
   -1.7837   23.7190  -26.6875 H   0  0  0  0  0  0  0  0  0  0  0  0
   -1.2105   26.6080  -27.2975 H   0  0  0  0  0  0  0  0  0  0  0  0
    0.1402   25.3649  -27.2780 H   0  0  0  0  0  0  0  0  0  0  0  0
   -0.6857   25.7228  -29.5531 H   0  0  0  0  0  0  0  0  0  0  0  0
   -1.0365   24.0497  -28.9557 H   0  0  0  0  0  0  0  0  0  0  0  0
   -2.0146   22.8209  -30.0934 H   0  0  0  0  0  0  0  0  0  0  0  0
   -3.5009   21.3915  -31.5344 H   0  0  0  0  0  0  0  0  0  0  0  0
   -7.5217   25.0818  -31.2749 H   0  0  0  0  0  0  0  0  0  0  0  0
   -8.0667   22.9293  -32.7868 H   0  0  0  0  0  0  0  0  0  0  0  0
   -6.0979   21.2633  -34.0850 H   0  0  0  0  0  0  0  0  0  0  0  0
   -4.9530   20.5931  -32.8676 H   0  0  0  0  0  0  0  0  0  0  0  0
   -8.6644   21.3159  -33.1097 H   0  0  0  0  0  0  0  0  0  0  0  0
  -10.3981   19.6440  -32.4565 H   0  0  0  0  0  0  0  0  0  0  0  0
   -9.7123   17.4087  -31.5779 H   0  0  0  0  0  0  0  0  0  0  0  0
   -7.2917   16.8477  -31.3415 H   0  0  0  0  0  0  0  0  0  0  0  0
   -5.5513   18.5155  -31.9856 H   0  0  0  0  0  0  0  0  0  0  0  0
   -5.1691   25.8158  -29.8092 H   0  0  0  0  0  0  0  0  0  0  0  0
  1  2  1  0
  2  3  1  0
  3  4  1  0
  4  5  1  0
  5  6  1  0
  6  7  1  0
  7  8  2  0
  8  9  1  0
  9 10  2  0
 10 11  1  0
 11 12  1  0
 12 13  2  0
 13 14  1  0
 14 15  1  0
 15 16  1  0
 16 17  2  0
 17 18  1  0
 18 19  2  0
 19 20  1  0
 20 21  2  0
 11 22  2  0
 22  7  1  0
 14 10  1  0
 21 16  1  0
  1 23  1  0
  1 24  1  0
  1 25  1  0
  2 26  1  0
  2 27  1  0
  3 28  1  0
  3 29  1  0
  4 30  1  0
  4 31  1  0
  5 32  1  0
  5 33  1  0
  8 34  1  0
  9 35  1  0
 12 36  1  0
 13 37  1  0
 15 38  1  0
 15 39  1  0
 17 40  1  0
 18 41  1  0
 19 42  1  0
 20 43  1  0
 21 44  1  0
 22 45  1  0
M  CHG  1   1   1
M  END
>  <UniqueID>  (40) 
36

>  <SMILES>  (40) 
[NH3+]CCCCOc1ccc2c(ccn2Cc2ccccc2)c1

>  <Energy>  (40) 
74.45167680121595

>  <Genealogy>  (40) 
[NH3+]CCCCOc1ccc2c(ccn2Cc2ccccc2)c1 (protonated)
[NH3+]CCCCOc1ccc2c(ccn2Cc2ccccc2)c1 (3D coordinates assigned)
[NH3+]CCCCOc1ccc2c(ccn2Cc2ccccc2)c1 (optimized conformer: 74.45167680121595 kcal/mol)

>  <smiles>  (40) 
NCCCCOc1ccc2c(ccn2Cc2ccccc2)c1

>  <score_type>  (40) 
oracle

>  <origin>  (40) 
adg

>  <m_score__min__energy>  (40) 
-8.5700000000000003

>  <m_primary>  (40) 
energy

$$$$
40:0
     RDKit          3D

 52 56  0  0  1  0  0  0  0  0999 V2000
   -0.5780   24.9980  -25.7220 C   0  0  0  0  0  0  0  0  0  0  0  0
   -1.6600   25.4880  -26.5400 N   0  0  0  0  0  0  0  0  0  0  0  0
   -1.2220   25.9280  -27.8410 C   0  0  0  0  0  0  0  0  0  0  0  0
   -1.0920   24.7440  -28.7840 C   0  0  0  0  0  0  0  0  0  0  0  0
   -2.4280   24.2170  -28.9810 N   0  0  0  0  0  0  0  0  0  0  0  0
   -2.7620   23.4240  -30.0880 C   0  0  0  0  0  0  0  0  0  0  0  0
   -3.9840   23.5150  -30.6890 N   0  0  0  0  0  0  0  0  0  0  0  0
   -4.2960   22.7500  -31.7500 C   0  0  0  0  0  0  0  0  0  0  0  0
   -5.4310   22.7940  -32.3560 N   0  0  0  0  0  0  0  0  0  0  0  0
   -6.6040   22.4440  -31.5940 C   0  0  1  0  0  0  0  0  0  0  0  0
   -7.7810   23.2130  -32.1570 C   0  0  0  0  0  0  0  0  0  0  0  0
   -8.9280   22.3410  -31.6310 C   0  0  0  0  0  0  0  0  0  0  0  0
   -8.4240   20.9820  -31.8780 C   0  0  0  0  0  0  0  0  0  0  0  0
   -9.1170   19.8080  -32.0990 C   0  0  0  0  0  0  0  0  0  0  0  0
   -8.3880   18.6340  -32.3100 C   0  0  0  0  0  0  0  0  0  0  0  0
   -7.0010   18.6630  -32.2940 C   0  0  0  0  0  0  0  0  0  0  0  0
   -6.3400   19.8700  -32.0660 C   0  0  0  0  0  0  0  0  0  0  0  0
   -7.0460   21.0510  -31.8540 C   0  0  0  0  0  0  0  0  0  0  0  0
   -3.3630   21.8410  -32.2610 C   0  0  0  0  0  0  0  0  0  0  0  0
   -3.6770   21.0580  -33.3470 C   0  0  0  0  0  0  0  0  0  0  0  0
   -2.7560   20.1760  -33.8310 C   0  0  0  0  0  0  0  0  0  0  0  0
   -1.5130   20.0600  -33.2470 C   0  0  0  0  0  0  0  0  0  0  0  0
   -1.2170   20.8630  -32.1500 C   0  0  0  0  0  0  0  0  0  0  0  0
   -2.1340   21.7630  -31.6400 C   0  0  0  0  0  0  0  0  0  0  0  0
   -1.8570   22.5520  -30.5710 N   0  0  0  0  0  0  0  0  0  0  0  0
   -3.4170   24.5490  -27.9670 C   0  0  0  0  0  0  0  0  0  0  0  0
   -2.7850   24.6000  -26.5850 C   0  0  0  0  0  0  0  0  0  0  0  0
   -0.8388   25.1161  -24.6599 H   0  0  0  0  0  0  0  0  0  0  0  0
   -0.4055   23.9339  -25.9411 H   0  0  0  0  0  0  0  0  0  0  0  0
    0.3355   25.5702  -25.9411 H   0  0  0  0  0  0  0  0  0  0  0  0
   -1.9560   26.6381  -28.2497 H   0  0  0  0  0  0  0  0  0  0  0  0
   -0.2405   26.4146  -27.7416 H   0  0  0  0  0  0  0  0  0  0  0  0
   -0.6680   25.0701  -29.7452 H   0  0  0  0  0  0  0  0  0  0  0  0
   -0.4231   23.9776  -28.3655 H   0  0  0  0  0  0  0  0  0  0  0  0
   -6.3478   22.6282  -30.5402 H   0  0  0  0  0  0  0  0  0  0  0  0
   -7.8293   24.2378  -31.7601 H   0  0  0  0  0  0  0  0  0  0  0  0
   -7.7662   23.3596  -33.2471 H   0  0  0  0  0  0  0  0  0  0  0  0
   -9.1005   22.5135  -30.5584 H   0  0  0  0  0  0  0  0  0  0  0  0
   -9.8956   22.5471  -32.1120 H   0  0  0  0  0  0  0  0  0  0  0  0
  -10.2169   19.7970  -32.1088 H   0  0  0  0  0  0  0  0  0  0  0  0
   -8.9151   17.6853  -32.4891 H   0  0  0  0  0  0  0  0  0  0  0  0
   -6.4262   17.7400  -32.4601 H   0  0  0  0  0  0  0  0  0  0  0  0
   -5.2402   19.8890  -32.0535 H   0  0  0  0  0  0  0  0  0  0  0  0
   -4.6652   21.1425  -33.8226 H   0  0  0  0  0  0  0  0  0  0  0  0
   -3.0086   19.5490  -34.6988 H   0  0  0  0  0  0  0  0  0  0  0  0
   -0.7715   19.3485  -33.6394 H   0  0  0  0  0  0  0  0  0  0  0  0
   -0.2277   20.7795  -31.6763 H   0  0  0  0  0  0  0  0  0  0  0  0
   -0.9000   22.4260  -30.1630 H   0  0  0  0  0  0  0  0  0  0  0  0
   -3.8542   25.5314  -28.1990 H   0  0  0  0  0  0  0  0  0  0  0  0
   -4.1946   23.7710  -27.9681 H   0  0  0  0  0  0  0  0  0  0  0  0
   -3.5390   24.9455  -25.8624 H   0  0  0  0  0  0  0  0  0  0  0  0
   -2.4293   23.5890  -26.3371 H   0  0  0  0  0  0  0  0  0  0  0  0
  1  2  1  0
  2  3  1  0
  3  4  1  0
  4  5  1  0
  5  6  1  0
  6  7  2  0
  7  8  1  0
  8  9  2  0
  9 10  1  0
 10 11  1  0
 11 12  1  0
 12 13  1  0
 13 14  2  0
 14 15  1  0
 15 16  2  0
 16 17  1  0
 17 18  2  0
  8 19  1  0
 19 20  2  0
 20 21  1  0
 21 22  2  0
 22 23  1  0
 23 24  2  0
 24 25  1  0
  5 26  1  0
 26 27  1  0
 27  2  1  0
 25  6  1  0
 18 10  1  0
 24 19  1  0
 18 13  1  0
  1 28  1  0
  1 29  1  0
  1 30  1  0
  3 31  1  0
  3 32  1  0
  4 33  1  0
  4 34  1  0
 10 35  1  1
 11 36  1  0
 11 37  1  0
 12 38  1  0
 12 39  1  0
 14 40  1  0
 15 41  1  0
 16 42  1  0
 17 43  1  0
 20 44  1  0
 21 45  1  0
 22 46  1  0
 23 47  1  0
 25 48  1  0
 26 49  1  0
 26 50  1  0
 27 51  1  0
 27 52  1  0
M  END
>  <smiles>  (41) 
CN1CCN(c2nc(=NC3CCc4ccccc43)c3ccccc3[nH]2)CC1

>  <score_type>  (41) 
oracle

>  <origin>  (41) 
adg

>  <m_score__min__energy>  (41) 
-9.25

>  <m_primary>  (41) 
energy

$$$$
41:0
     RDKit          3D

 43 46  0  0  0  0  0  0  0  0999 V2000
   -0.8640   26.0790  -28.2270 C   0  0  0  0  0  0  0  0  0  0  0  0
   -0.2140   24.7820  -28.3350 N   0  0  0  0  0  0  0  0  0  0  0  0
   -0.9420   23.5520  -28.3870 C   0  0  0  0  0  0  0  0  0  0  0  0
   -0.4650   22.5190  -27.8460 O   0  0  0  0  0  0  0  0  0  0  0  0
   -2.2680   23.5220  -29.0360 C   0  0  0  0  0  0  0  0  0  0  0  0
   -3.6470   24.1910  -28.3200 S   0  0  0  0  0  0  0  0  0  0  0  0
   -4.6940   23.6970  -29.5260 C   0  0  0  0  0  0  0  0  0  0  0  0
   -6.0320   23.8920  -29.5610 N   0  0  0  0  0  0  0  0  0  0  0  0
   -6.7480   23.3910  -30.6040 C   0  0  0  0  0  0  0  0  0  0  0  0
   -6.1300   22.6850  -31.6060 N   0  0  0  0  0  0  0  0  0  0  0  0
   -6.9500   22.1290  -32.6980 C   0  0  0  0  0  0  0  0  0  0  0  0
   -7.4970   20.7380  -32.3940 C   0  0  0  0  0  0  0  0  0  0  0  0
   -8.6100   20.5720  -31.5420 C   0  0  0  0  0  0  0  0  0  0  0  0
   -9.1130   19.3040  -31.2530 C   0  0  0  0  0  0  0  0  0  0  0  0
   -8.5300   18.1720  -31.8120 C   0  0  0  0  0  0  0  0  0  0  0  0
   -7.4390   18.2950  -32.6800 C   0  0  0  0  0  0  0  0  0  0  0  0
   -6.8680   17.1460  -33.2490 C   0  0  0  0  0  0  0  0  0  0  0  0
   -5.7890   17.2570  -34.1260 C   0  0  0  0  0  0  0  0  0  0  0  0
   -5.2730   18.5110  -34.4450 C   0  0  0  0  0  0  0  0  0  0  0  0
   -5.8260   19.6660  -33.8860 C   0  0  0  0  0  0  0  0  0  0  0  0
   -6.9140   19.5820  -32.9880 C   0  0  0  0  0  0  0  0  0  0  0  0
   -4.7700   22.4680  -31.5680 C   0  0  0  0  0  0  0  0  0  0  0  0
   -4.2140   21.7730  -32.4620 O   0  0  0  0  0  0  0  0  0  0  0  0
   -4.0180   23.0040  -30.5080 C   0  0  0  0  0  0  0  0  0  0  0  0
   -2.6230   22.9230  -30.2650 C   0  0  0  0  0  0  0  0  0  0  0  0
   -1.6390   22.2780  -31.2050 C   0  0  0  0  0  0  0  0  0  0  0  0
   -0.9933   26.3371  -27.1655 H   0  0  0  0  0  0  0  0  0  0  0  0
   -0.2421   26.8427  -28.7169 H   0  0  0  0  0  0  0  0  0  0  0  0
   -1.8480   26.0379  -28.7169 H   0  0  0  0  0  0  0  0  0  0  0  0
   -6.5110   24.4170  -28.7960 H   0  0  0  0  0  0  0  0  0  0  0  0
   -7.8351   23.5537  -30.6447 H   0  0  0  0  0  0  0  0  0  0  0  0
   -7.7981   22.8061  -32.8772 H   0  0  0  0  0  0  0  0  0  0  0  0
   -6.2990   22.0374  -33.5799 H   0  0  0  0  0  0  0  0  0  0  0  0
   -9.0886   21.4577  -31.0986 H   0  0  0  0  0  0  0  0  0  0  0  0
   -9.9759   19.1985  -30.5790 H   0  0  0  0  0  0  0  0  0  0  0  0
   -8.9281   17.1753  -31.5709 H   0  0  0  0  0  0  0  0  0  0  0  0
   -7.2732   16.1536  -33.0022 H   0  0  0  0  0  0  0  0  0  0  0  0
   -5.3446   16.3524  -34.5666 H   0  0  0  0  0  0  0  0  0  0  0  0
   -4.4252   18.5924  -35.1411 H   0  0  0  0  0  0  0  0  0  0  0  0
   -5.4104   20.6503  -34.1475 H   0  0  0  0  0  0  0  0  0  0  0  0
   -0.8580   21.7661  -30.6236 H   0  0  0  0  0  0  0  0  0  0  0  0
   -2.1625   21.5472  -31.8390 H   0  0  0  0  0  0  0  0  0  0  0  0
   -1.1777   23.0496  -31.8390 H   0  0  0  0  0  0  0  0  0  0  0  0
  1  2  1  0
  2  3  1  0
  3  4  2  0
  3  5  1  0
  5  6  1  0
  6  7  1  0
  7  8  1  0
  8  9  2  0
  9 10  1  0
 10 11  1  0
 11 12  1  0
 12 13  2  0
 13 14  1  0
 14 15  2  0
 15 16  1  0
 16 17  2  0
 17 18  1  0
 18 19  2  0
 19 20  1  0
 20 21  2  0
 10 22  1  0
 22 23  2  0
 22 24  1  0
 24 25  1  0
 25 26  1  0
 25  5  2  0
 24  7  2  0
 21 12  1  0
 21 16  1  0
  1 27  1  0
  1 28  1  0
  1 29  1  0
  8 30  1  0
  9 31  1  0
 11 32  1  0
 11 33  1  0
 13 34  1  0
 14 35  1  0
 15 36  1  0
 17 37  1  0
 18 38  1  0
 19 39  1  0
 20 40  1  0
 26 41  1  0
 26 42  1  0
 26 43  1  0
M  CHG  2   2  -1   8   1
M  END
>  <UniqueID>  (42) 
37

>  <SMILES>  (42) 
C[N-]C(=O)c1sc2[nH+]cn(Cc3cccc4ccccc34)c(=O)c2c1C

>  <Energy>  (42) 
90.35613756577804

>  <Genealogy>  (42) 
C[N-]C(=O)c1sc2[nH+]cn(Cc3cccc4ccccc34)c(=O)c2c1C (protonated)
C[N-]C(=O)c1sc2[nH+]cn(Cc3cccc4ccccc34)c(=O)c2c1C (3D coordinates assigned)
C[N-]C(=O)c1sc2[nH+]cn(Cc3cccc4ccccc34)c(=O)c2c1C (optimized conformer: 90.35613756577804 kcal/mol)

>  <smiles>  (42) 
CNC(=O)c1sc2ncn(Cc3cccc4ccccc34)c(=O)c2c1C

>  <score_type>  (42) 
oracle

>  <origin>  (42) 
adg

>  <m_score__min__energy>  (42) 
-9.8900000000000006

>  <m_primary>  (42) 
energy

$$$$
42:0
     RDKit          3D

 52 55  0  0  0  0  0  0  0  0999 V2000
   -3.5620   16.6220  -35.9610 O   0  0  0  0  0  0  0  0  0  0  0  0
   -3.5840   17.4310  -34.9950 C   0  0  0  0  0  0  0  0  0  0  0  0
   -2.3920   18.1160  -34.5920 N   0  0  0  0  0  0  0  0  0  0  0  0
   -2.1440   18.7280  -33.3180 C   0  0  0  0  0  0  0  0  0  0  0  0
   -1.0390   18.3910  -32.5230 C   0  0  0  0  0  0  0  0  0  0  0  0
   -0.8440   19.0260  -31.2970 C   0  0  0  0  0  0  0  0  0  0  0  0
   -1.7430   20.0180  -30.8690 C   0  0  0  0  0  0  0  0  0  0  0  0
   -1.5410   20.6440  -29.4920 C   0  0  1  0  0  0  0  0  0  0  0  0
   -0.4400   21.7400  -29.4380 C   0  0  0  0  0  0  0  0  0  0  0  0
   -0.8930   23.1770  -29.8030 C   0  0  0  0  0  0  0  0  0  0  0  0
   -2.4220   23.3720  -29.7860 C   0  0  2  0  0  0  0  0  0  0  0  0
   -2.7780   24.8330  -29.7010 C   0  0  0  0  0  0  0  0  0  0  0  0
   -3.7800   25.2870  -30.3160 O   0  0  0  0  0  0  0  0  0  0  0  0
   -1.9970   25.6910  -28.9370 O   0  0  0  0  0  0  0  0  0  0  0  0
   -3.0430   22.5840  -28.6280 C   0  0  0  0  0  0  0  0  0  0  0  0
   -2.8990   21.0730  -28.8610 C   0  0  0  0  0  0  0  0  0  0  0  0
   -2.8030   20.3400  -31.6710 N   0  0  0  0  0  0  0  0  0  0  0  0
   -3.0080   19.7320  -32.8720 C   0  0  0  0  0  0  0  0  0  0  0  0
   -4.8230   17.6400  -34.2270 C   0  0  0  0  0  0  0  0  0  0  0  0
   -5.3640   18.8590  -34.0270 N   0  0  0  0  0  0  0  0  0  0  0  0
   -6.4640   18.6010  -33.2850 C   0  0  0  0  0  0  0  0  0  0  0  0
   -7.3960   19.6440  -32.8130 C   0  0  0  0  0  0  0  0  0  0  0  0
   -6.9230   20.9140  -32.4360 C   0  0  0  0  0  0  0  0  0  0  0  0
   -7.8150   21.8980  -31.9970 C   0  0  0  0  0  0  0  0  0  0  0  0
   -9.1830   21.6250  -31.9330 C   0  0  0  0  0  0  0  0  0  0  0  0
   -9.6640   20.3660  -32.3050 C   0  0  0  0  0  0  0  0  0  0  0  0
   -8.7750   19.3780  -32.7450 C   0  0  0  0  0  0  0  0  0  0  0  0
   -6.6140   17.3180  -33.0310 O   0  0  0  0  0  0  0  0  0  0  0  0
   -5.6150   16.6900  -33.5990 C   0  0  0  0  0  0  0  0  0  0  0  0
   -5.4240   15.2040  -33.5470 C   0  0  0  0  0  0  0  0  0  0  0  0
   -4.4440   14.8240  -34.4460 F   0  0  0  0  0  0  0  0  0  0  0  0
   -5.0340   14.8270  -32.2750 F   0  0  0  0  0  0  0  0  0  0  0  0
   -6.6070   14.5680  -33.8790 F   0  0  0  0  0  0  0  0  0  0  0  0
   -0.3267   17.6263  -32.8663 H   0  0  0  0  0  0  0  0  0  0  0  0
    0.0132   18.7506  -30.6650 H   0  0  0  0  0  0  0  0  0  0  0  0
   -1.1298   19.8516  -28.8493 H   0  0  0  0  0  0  0  0  0  0  0  0
    0.3576   21.4506  -30.1380 H   0  0  0  0  0  0  0  0  0  0  0  0
   -0.1206   21.7879  -28.3865 H   0  0  0  0  0  0  0  0  0  0  0  0
   -0.5251   23.4103  -30.8131 H   0  0  0  0  0  0  0  0  0  0  0  0
   -0.4766   23.8478  -29.0371 H   0  0  0  0  0  0  0  0  0  0  0  0
   -2.8343   22.9844  -30.7293 H   0  0  0  0  0  0  0  0  0  0  0  0
   -4.1106   22.8373  -28.5504 H   0  0  0  0  0  0  0  0  0  0  0  0
   -2.5191   22.8500  -27.6981 H   0  0  0  0  0  0  0  0  0  0  0  0
   -3.7076   20.7503  -29.5333 H   0  0  0  0  0  0  0  0  0  0  0  0
   -2.9482   20.5973  -27.8704 H   0  0  0  0  0  0  0  0  0  0  0  0
   -3.4910   21.0670  -31.3870 H   0  0  0  0  0  0  0  0  0  0  0  0
   -3.8614   20.0338  -33.4969 H   0  0  0  0  0  0  0  0  0  0  0  0
   -5.8465   21.1344  -32.4867 H   0  0  0  0  0  0  0  0  0  0  0  0
   -7.4383   22.8884  -31.7017 H   0  0  0  0  0  0  0  0  0  0  0  0
   -9.8828   22.4011  -31.5896 H   0  0  0  0  0  0  0  0  0  0  0  0
  -10.7416   20.1516  -32.2519 H   0  0  0  0  0  0  0  0  0  0  0  0
   -9.1570   18.3892  -33.0388 H   0  0  0  0  0  0  0  0  0  0  0  0
  1  2  2  0
  2  3  1  0
  3  4  1  0
  4  5  2  0
  5  6  1  0
  6  7  2  0
  7  8  1  0
  8  9  1  0
  9 10  1  0
 10 11  1  0
 11 12  1  0
 12 13  2  0
 12 14  1  0
 11 15  1  0
 15 16  1  0
  7 17  1  0
 17 18  2  0
  2 19  1  0
 19 20  1  0
 20 21  2  0
 21 22  1  0
 22 23  2  0
 23 24  1  0
 24 25  2  0
 25 26  1  0
 26 27  2  0
 21 28  1  0
 28 29  1  0
 29 30  1  0
 30 31  1  0
 30 32  1  0
 30 33  1  0
 18  4  1  0
 29 19  2  0
 16  8  1  0
 27 22  1  0
  5 34  1  0
  6 35  1  0
  8 36  1  1
  9 37  1  0
  9 38  1  0
 10 39  1  0
 10 40  1  0
 11 41  1  6
 15 42  1  0
 15 43  1  0
 16 44  1  0
 16 45  1  0
 17 46  1  0
 18 47  1  0
 23 48  1  0
 24 49  1  0
 25 50  1  0
 26 51  1  0
 27 52  1  0
M  CHG  3   3  -1  14  -1  17   1
M  END
>  <UniqueID>  (43) 
38

>  <SMILES>  (43) 
O=C([N-]c1ccc(C2CCC(C(=O)[O-])CC2)[nH+]c1)c1nc(-c2ccccc2)oc1C(F)(F)F

>  <Energy>  (43) 
96.96030112011044

>  <Genealogy>  (43) 
O=C([N-]c1ccc(C2CCC(C(=O)[O-])CC2)[nH+]c1)c1nc(-c2ccccc2)oc1C(F)(F)F (protonated)
O=C([N-]c1ccc(C2CCC(C(=O)[O-])CC2)[nH+]c1)c1nc(-c2ccccc2)oc1C(F)(F)F (3D coordinates assigned)
O=C([N-]c1ccc(C2CCC(C(=O)[O-])CC2)[nH+]c1)c1nc(-c2ccccc2)oc1C(F)(F)F (nonaromatic ring conformer: 96.96030112011044 kcal/mol)

>  <smiles>  (43) 
O=C(Nc1ccc(C2CCC(C(=O)O)CC2)nc1)c1nc(-c2ccccc2)oc1C(F)(F)F

>  <score_type>  (43) 
oracle

>  <origin>  (43) 
adg

>  <m_score__min__energy>  (43) 
-10.4

>  <m_primary>  (43) 
energy

$$$$
43:0
     RDKit          3D

 27 29  0  0  0  0  0  0  0  0999 V2000
   -1.8110   25.6180  -28.9640 O   0  0  0  0  0  0  0  0  0  0  0  0
   -2.5970   24.7070  -29.3370 C   0  0  0  0  0  0  0  0  0  0  0  0
   -3.5010   24.9750  -30.4160 N   0  0  0  0  0  0  0  0  0  0  0  0
   -4.5820   24.1330  -30.8390 C   0  0  0  0  0  0  0  0  0  0  0  0
   -4.2900   22.9300  -31.4910 C   0  0  0  0  0  0  0  0  0  0  0  0
   -5.3200   22.0780  -31.8980 C   0  0  0  0  0  0  0  0  0  0  0  0
   -6.6650   22.4070  -31.6460 C   0  0  0  0  0  0  0  0  0  0  0  0
   -7.7160   21.5170  -32.0750 N   0  0  0  0  0  0  0  0  0  0  0  0
   -7.6260   20.4010  -32.8260 C   0  0  0  0  0  0  0  0  0  0  0  0
   -8.8540   19.8800  -32.9800 N   0  0  0  0  0  0  0  0  0  0  0  0
   -9.6860   20.6740  -32.3270 N   0  0  0  0  0  0  0  0  0  0  0  0
   -8.9990   21.6650  -31.7780 N   0  0  0  0  0  0  0  0  0  0  0  0
   -6.9520   23.6060  -30.9670 C   0  0  0  0  0  0  0  0  0  0  0  0
   -5.9200   24.4560  -30.5610 C   0  0  0  0  0  0  0  0  0  0  0  0
   -2.6050   23.4230  -28.6120 C   0  0  0  0  0  0  0  0  0  0  0  0
   -1.5900   22.4950  -28.5030 C   0  0  0  0  0  0  0  0  0  0  0  0
   -2.0380   21.4430  -27.7920 N   0  0  0  0  0  0  0  0  0  0  0  0
   -3.2770   21.6920  -27.4750 O   0  0  0  0  0  0  0  0  0  0  0  0
   -3.6680   22.8540  -27.9440 C   0  0  0  0  0  0  0  0  0  0  0  0
   -3.2431   22.6532  -31.6844 H   0  0  0  0  0  0  0  0  0  0  0  0
   -5.0772   21.1409  -32.4205 H   0  0  0  0  0  0  0  0  0  0  0  0
   -6.6977   19.9849  -33.2445 H   0  0  0  0  0  0  0  0  0  0  0  0
   -9.1220   19.0190  -33.5060 H   0  0  0  0  0  0  0  0  0  0  0  0
   -7.9969   23.8760  -30.7543 H   0  0  0  0  0  0  0  0  0  0  0  0
   -6.1572   25.3840  -30.0202 H   0  0  0  0  0  0  0  0  0  0  0  0
   -0.5803   22.5977  -28.9273 H   0  0  0  0  0  0  0  0  0  0  0  0
   -4.6682   23.2960  -27.8249 H   0  0  0  0  0  0  0  0  0  0  0  0
  1  2  2  0
  2  3  1  0
  3  4  1  0
  4  5  2  0
  5  6  1  0
  6  7  2  0
  7  8  1  0
  8  9  1  0
  9 10  2  0
 10 11  1  0
 11 12  2  0
  7 13  1  0
 13 14  2  0
  2 15  1  0
 15 16  1  0
 16 17  2  0
 17 18  1  0
 18 19  1  0
 14  4  1  0
 19 15  2  0
 12  8  1  0
  5 20  1  0
  6 21  1  0
  9 22  1  0
 10 23  1  0
 13 24  1  0
 14 25  1  0
 16 26  1  0
 19 27  1  0
M  CHG  2   3  -1  10   1
M  END
>  <UniqueID>  (44) 
39

>  <SMILES>  (44) 
O=C([N-]c1ccc(-n2c[nH+]nn2)cc1)c1cnoc1

>  <Energy>  (44) 
108.15756349262786

>  <Genealogy>  (44) 
O=C([N-]c1ccc(-n2c[nH+]nn2)cc1)c1cnoc1 (protonated)
O=C([N-]c1ccc(-n2c[nH+]nn2)cc1)c1cnoc1 (3D coordinates assigned)
O=C([N-]c1ccc(-n2c[nH+]nn2)cc1)c1cnoc1 (optimized conformer: 108.15756349262786 kcal/mol)

>  <smiles>  (44) 
O=C(Nc1ccc(-n2cnnn2)cc1)c1cnoc1

>  <score_type>  (44) 
oracle

>  <origin>  (44) 
adg

>  <m_score__min__energy>  (44) 
-8.5500000000000007

>  <m_primary>  (44) 
energy

$$$$
44:0
     RDKit          3D

 28 28  0  0  0  0  0  0  0  0999 V2000
   -6.3480   25.6650  -29.3980 C   0  0  0  0  0  0  0  0  0  0  0  0
   -6.0240   25.3500  -30.7460 O   0  0  0  0  0  0  0  0  0  0  0  0
   -5.4480   24.1300  -31.1170 C   0  0  0  0  0  0  0  0  0  0  0  0
   -4.1960   24.0220  -31.2110 O   0  0  0  0  0  0  0  0  0  0  0  0
   -6.3260   22.9950  -31.4640 C   0  0  0  0  0  0  0  0  0  0  0  0
   -7.5920   22.9460  -30.8550 C   0  0  0  0  0  0  0  0  0  0  0  0
   -8.4870   21.9150  -31.1480 C   0  0  0  0  0  0  0  0  0  0  0  0
   -9.7080   21.8910  -30.5600 F   0  0  0  0  0  0  0  0  0  0  0  0
   -8.1260   20.9130  -32.0440 C   0  0  0  0  0  0  0  0  0  0  0  0
   -6.8660   20.9280  -32.6410 C   0  0  0  0  0  0  0  0  0  0  0  0
   -5.9430   21.9560  -32.3620 C   0  0  0  0  0  0  0  0  0  0  0  0
   -4.6110   21.8660  -32.9270 N   0  0  0  0  0  0  0  0  0  0  0  0
   -4.2140   20.4670  -33.1680 C   0  0  0  0  0  0  0  0  0  0  0  0
   -2.7170   20.3280  -33.4690 C   0  0  0  0  0  0  0  0  0  0  0  0
   -2.1190   21.5940  -33.4540 O   0  0  0  0  0  0  0  0  0  0  0  0
   -5.7265   25.0608  -28.7207 H   0  0  0  0  0  0  0  0  0  0  0  0
   -6.1580   26.7329  -29.2152 H   0  0  0  0  0  0  0  0  0  0  0  0
   -7.4102   25.4450  -29.2152 H   0  0  0  0  0  0  0  0  0  0  0  0
   -7.8811   23.7294  -30.1389 H   0  0  0  0  0  0  0  0  0  0  0  0
   -8.8363   20.1074  -32.2817 H   0  0  0  0  0  0  0  0  0  0  0  0
   -6.5882   20.1255  -33.3402 H   0  0  0  0  0  0  0  0  0  0  0  0
   -4.6080   22.3650  -33.8470 H   0  0  0  0  0  0  0  0  0  0  0  0
   -3.8920   22.3440  -32.3450 H   0  0  0  0  0  0  0  0  0  0  0  0
   -4.4510   19.8733  -32.2728 H   0  0  0  0  0  0  0  0  0  0  0  0
   -4.7679   20.1079  -34.0479 H   0  0  0  0  0  0  0  0  0  0  0  0
   -2.2469   19.6912  -32.7051 H   0  0  0  0  0  0  0  0  0  0  0  0
   -2.5830   19.8706  -34.4604 H   0  0  0  0  0  0  0  0  0  0  0  0
   -1.9950   21.8510  -34.4050 H   0  0  0  0  0  0  0  0  0  0  0  0
  1  2  1  0
  2  3  1  0
  3  4  2  0
  3  5  1  0
  5  6  2  0
  6  7  1  0
  7  8  1  0
  7  9  2  0
  9 10  1  0
 10 11  2  0
 11 12  1  0
 12 13  1  0
 13 14  1  0
 14 15  1  0
 11  5  1  0
  1 16  1  0
  1 17  1  0
  1 18  1  0
  6 19  1  0
  9 20  1  0
 10 21  1  0
 12 22  1  0
 12 23  1  0
 13 24  1  0
 13 25  1  0
 14 26  1  0
 14 27  1  0
 15 28  1  0
M  CHG  1  12   1
M  END
>  <UniqueID>  (45) 
40

>  <SMILES>  (45) 
COC(=O)c1cc(F)ccc1[NH2+]CCO

>  <Energy>  (45) 
29.937839934133333

>  <Genealogy>  (45) 
COC(=O)c1cc(F)ccc1[NH2+]CCO (protonated)
COC(=O)c1cc(F)ccc1[NH2+]CCO (3D coordinates assigned)
COC(=O)c1cc(F)ccc1[NH2+]CCO (optimized conformer: 29.937839934133333 kcal/mol)

>  <smiles>  (45) 
COC(=O)c1cc(F)ccc1NCCO

>  <score_type>  (45) 
oracle

>  <origin>  (45) 
adg

>  <m_score__min__energy>  (45) 
-4.9100000000000001

>  <m_primary>  (45) 
energy

$$$$
45:0
     RDKit          3D

 44 46  0  0  0  0  0  0  0  0999 V2000
   -5.7620   19.2860  -34.1290 C   0  0  0  0  0  0  0  0  0  0  0  0
   -6.4320   20.2390  -33.3110 O   0  0  0  0  0  0  0  0  0  0  0  0
   -5.7980   21.2900  -32.6280 C   0  0  0  0  0  0  0  0  0  0  0  0
   -4.4030   21.4720  -32.6820 C   0  0  0  0  0  0  0  0  0  0  0  0
   -3.7950   22.5110  -31.9760 C   0  0  0  0  0  0  0  0  0  0  0  0
   -4.5700   23.3990  -31.2180 C   0  0  0  0  0  0  0  0  0  0  0  0
   -3.9320   24.4780  -30.4360 C   0  0  0  0  0  0  0  0  0  0  0  0
   -4.0480   25.6680  -30.8300 O   0  0  0  0  0  0  0  0  0  0  0  0
   -3.1700   24.2180  -29.2500 N   0  0  0  0  0  0  0  0  0  0  0  0
   -1.8530   23.5880  -29.2240 C   0  0  0  0  0  0  0  0  0  0  0  0
   -1.9050   22.3700  -28.3420 C   0  0  0  0  0  0  0  0  0  0  0  0
   -3.0260   21.5210  -28.3970 C   0  0  0  0  0  0  0  0  0  0  0  0
   -3.0790   20.3660  -27.6120 C   0  0  0  0  0  0  0  0  0  0  0  0
   -2.0130   20.0420  -26.7680 C   0  0  0  0  0  0  0  0  0  0  0  0
   -0.8900   20.8700  -26.7140 C   0  0  0  0  0  0  0  0  0  0  0  0
   -0.8240   22.0280  -27.4990 C   0  0  0  0  0  0  0  0  0  0  0  0
    0.6290   23.0160  -27.4110 Cl  0  0  0  0  0  0  0  0  0  0  0  0
   -5.9550   23.2090  -31.1420 C   0  0  0  0  0  0  0  0  0  0  0  0
   -6.5770   22.1720  -31.8520 C   0  0  0  0  0  0  0  0  0  0  0  0
   -8.3250   21.9550  -31.6960 S   0  0  0  0  0  0  0  0  0  0  0  0
   -8.6940   21.9520  -30.2380 O   0  0  0  0  0  0  0  0  0  0  0  0
   -9.0590   23.0890  -32.3590 O   0  0  0  0  0  0  0  0  0  0  0  0
   -8.7980   20.4420  -32.4030 N   0  0  0  0  0  0  0  0  0  0  0  0
   -8.5450   19.3680  -31.4460 C   0  0  0  0  0  0  0  0  0  0  0  0
   -8.0010   18.1150  -32.1060 C   0  0  0  0  0  0  0  0  0  0  0  0
   -9.4420   18.1560  -31.6280 C   0  0  0  0  0  0  0  0  0  0  0  0
   -5.2467   18.5530  -33.4910 H   0  0  0  0  0  0  0  0  0  0  0  0
   -6.4955   18.7677  -34.7641 H   0  0  0  0  0  0  0  0  0  0  0  0
   -5.0261   19.8008  -34.7641 H   0  0  0  0  0  0  0  0  0  0  0  0
   -3.7870   20.7894  -33.2858 H   0  0  0  0  0  0  0  0  0  0  0  0
   -2.7025   22.6334  -32.0147 H   0  0  0  0  0  0  0  0  0  0  0  0
   -1.5666   23.2918  -30.2439 H   0  0  0  0  0  0  0  0  0  0  0  0
   -1.1111   24.2983  -28.8302 H   0  0  0  0  0  0  0  0  0  0  0  0
   -3.8663   21.7682  -29.0624 H   0  0  0  0  0  0  0  0  0  0  0  0
   -3.9613   19.7107  -27.6584 H   0  0  0  0  0  0  0  0  0  0  0  0
   -2.0587   19.1354  -26.1468 H   0  0  0  0  0  0  0  0  0  0  0  0
   -0.0516   20.6111  -26.0506 H   0  0  0  0  0  0  0  0  0  0  0  0
   -6.5624   23.8811  -30.5180 H   0  0  0  0  0  0  0  0  0  0  0  0
   -8.1680   20.2790  -33.2210 H   0  0  0  0  0  0  0  0  0  0  0  0
   -8.2583   19.9966  -30.5900 H   0  0  0  0  0  0  0  0  0  0  0  0
   -7.7788   18.1131  -33.1833 H   0  0  0  0  0  0  0  0  0  0  0  0
   -7.1410   17.4528  -31.9274 H   0  0  0  0  0  0  0  0  0  0  0  0
  -10.2635   18.1843  -32.3589 H   0  0  0  0  0  0  0  0  0  0  0  0
  -10.0582   17.5365  -30.9598 H   0  0  0  0  0  0  0  0  0  0  0  0
  1  2  1  0
  2  3  1  0
  3  4  2  0
  4  5  1  0
  5  6  2  0
  6  7  1  0
  7  8  2  0
  7  9  1  0
  9 10  1  0
 10 11  1  0
 11 12  2  0
 12 13  1  0
 13 14  2  0
 14 15  1  0
 15 16  2  0
 16 17  1  0
  6 18  1  0
 18 19  2  0
 19 20  1  0
 20 21  2  0
 20 22  2  0
 20 23  1  0
 23 24  1  0
 24 25  1  0
 25 26  1  0
 19  3  1  0
 26 24  1  0
 16 11  1  0
  1 27  1  0
  1 28  1  0
  1 29  1  0
  4 30  1  0
  5 31  1  0
 10 32  1  0
 10 33  1  0
 12 34  1  0
 13 35  1  0
 14 36  1  0
 15 37  1  0
 18 38  1  0
 23 39  1  0
 24 40  1  0
 25 41  1  0
 25 42  1  0
 26 43  1  0
 26 44  1  0
M  CHG  1   9  -1
M  END
>  <UniqueID>  (46) 
41

>  <SMILES>  (46) 
COc1ccc(C(=O)[N-]Cc2ccccc2Cl)cc1S(=O)(=O)NC1CC1

>  <Energy>  (46) 
310.29991463217425

>  <Genealogy>  (46) 
COc1ccc(C(=O)[N-]Cc2ccccc2Cl)cc1S(=O)(=O)NC1CC1 (protonated)
COc1ccc(C(=O)[N-]Cc2ccccc2Cl)cc1S(=O)(=O)NC1CC1 (3D coordinates assigned)
COc1ccc(C(=O)[N-]Cc2ccccc2Cl)cc1S(=O)(=O)NC1CC1 (nonaromatic ring conformer: 310.29991463217425 kcal/mol)

>  <smiles>  (46) 
COc1ccc(C(=O)NCc2ccccc2Cl)cc1S(=O)(=O)NC1CC1

>  <score_type>  (46) 
oracle

>  <origin>  (46) 
adg

>  <m_score__min__energy>  (46) 
-10.41

>  <m_primary>  (46) 
energy

$$$$
46:0
     RDKit          3D

 44 45  0  0  0  0  0  0  0  0999 V2000
   -8.7340   21.9000  -31.7000 C   0  0  0  0  0  0  0  0  0  0  0  0
   -7.5830   21.1630  -32.0970 O   0  0  0  0  0  0  0  0  0  0  0  0
   -6.2600   21.5510  -31.8320 C   0  0  0  0  0  0  0  0  0  0  0  0
   -5.9320   22.4230  -30.7750 C   0  0  0  0  0  0  0  0  0  0  0  0
   -4.5990   22.8020  -30.5510 C   0  0  0  0  0  0  0  0  0  0  0  0
   -4.2520   23.7100  -29.4030 C   0  0  0  0  0  0  0  0  0  0  0  0
   -3.5360   24.9220  -29.9050 C   0  0  0  0  0  0  0  0  0  0  0  0
   -4.0060   25.5810  -30.8700 O   0  0  0  0  0  0  0  0  0  0  0  0
   -2.3250   25.2980  -29.3400 O   0  0  0  0  0  0  0  0  0  0  0  0
   -3.5880   22.2850  -31.3720 C   0  0  0  0  0  0  0  0  0  0  0  0
   -3.9060   21.4190  -32.4190 C   0  0  0  0  0  0  0  0  0  0  0  0
   -5.2420   21.0540  -32.6600 C   0  0  0  0  0  0  0  0  0  0  0  0
   -5.5920   20.1910  -33.7080 O   0  0  0  0  0  0  0  0  0  0  0  0
   -4.9820   18.9540  -33.9450 C   0  0  0  0  0  0  0  0  0  0  0  0
   -3.6110   18.9270  -34.2250 C   0  0  0  0  0  0  0  0  0  0  0  0
   -2.9610   17.7130  -34.4600 C   0  0  0  0  0  0  0  0  0  0  0  0
   -3.6760   16.5150  -34.4050 C   0  0  0  0  0  0  0  0  0  0  0  0
   -2.7830   14.8560  -34.7190 Br  0  0  0  0  0  0  0  0  0  0  0  0
   -5.0420   16.5280  -34.1090 C   0  0  0  0  0  0  0  0  0  0  0  0
   -5.7110   17.7420  -33.8730 C   0  0  0  0  0  0  0  0  0  0  0  0
   -7.1780   17.7190  -33.4870 C   0  0  0  0  0  0  0  0  0  0  0  0
   -7.4430   18.5050  -32.2590 N   0  0  0  0  0  0  0  0  0  0  0  0
   -8.8720   18.4300  -31.9100 C   0  0  0  0  0  0  0  0  0  0  0  0
   -6.6270   18.0220  -31.1300 C   0  0  0  0  0  0  0  0  0  0  0  0
   -8.7869   21.9339  -30.6018 H   0  0  0  0  0  0  0  0  0  0  0  0
   -8.6680   22.9242  -32.0957 H   0  0  0  0  0  0  0  0  0  0  0  0
   -9.6367   21.4115  -32.0957 H   0  0  0  0  0  0  0  0  0  0  0  0
   -6.7267   22.8098  -30.1202 H   0  0  0  0  0  0  0  0  0  0  0  0
   -5.1755   24.0189  -28.8914 H   0  0  0  0  0  0  0  0  0  0  0  0
   -3.5983   23.1703  -28.7020 H   0  0  0  0  0  0  0  0  0  0  0  0
   -2.5393   22.5629  -31.1904 H   0  0  0  0  0  0  0  0  0  0  0  0
   -3.1062   21.0194  -33.0598 H   0  0  0  0  0  0  0  0  0  0  0  0
   -3.0417   19.8676  -34.2602 H   0  0  0  0  0  0  0  0  0  0  0  0
   -1.8851   17.7009  -34.6885 H   0  0  0  0  0  0  0  0  0  0  0  0
   -5.5984   15.5804  -34.0603 H   0  0  0  0  0  0  0  0  0  0  0  0
   -7.7689   18.1414  -34.3131 H   0  0  0  0  0  0  0  0  0  0  0  0
   -7.4600   16.6745  -33.2884 H   0  0  0  0  0  0  0  0  0  0  0  0
   -7.2130   19.5130  -32.4240 H   0  0  0  0  0  0  0  0  0  0  0  0
   -8.9823   18.4242  -30.8156 H   0  0  0  0  0  0  0  0  0  0  0  0
   -9.3975   19.3018  -32.3269 H   0  0  0  0  0  0  0  0  0  0  0  0
   -9.3034   17.5080  -32.3269 H   0  0  0  0  0  0  0  0  0  0  0  0
   -7.1075   18.3064  -30.1822 H   0  0  0  0  0  0  0  0  0  0  0  0
   -6.5399   16.9267  -31.1827 H   0  0  0  0  0  0  0  0  0  0  0  0
   -5.6249   18.4725  -31.1827 H   0  0  0  0  0  0  0  0  0  0  0  0
  1  2  1  0
  2  3  1  0
  3  4  2  0
  4  5  1  0
  5  6  1  0
  6  7  1  0
  7  8  2  0
  7  9  1  0
  5 10  2  0
 10 11  1  0
 11 12  2  0
 12 13  1  0
 13 14  1  0
 14 15  2  0
 15 16  1  0
 16 17  2  0
 17 18  1  0
 17 19  1  0
 19 20  2  0
 20 21  1  0
 21 22  1  0
 22 23  1  0
 22 24  1  0
 12  3  1  0
 20 14  1  0
  1 25  1  0
  1 26  1  0
  1 27  1  0
  4 28  1  0
  6 29  1  0
  6 30  1  0
 10 31  1  0
 11 32  1  0
 15 33  1  0
 16 34  1  0
 19 35  1  0
 21 36  1  0
 21 37  1  0
 22 38  1  0
 23 39  1  0
 23 40  1  0
 23 41  1  0
 24 42  1  0
 24 43  1  0
 24 44  1  0
M  CHG  2   9  -1  22   1
M  END
>  <UniqueID>  (47) 
42

>  <SMILES>  (47) 
COc1cc(CC(=O)[O-])ccc1Oc1ccc(Br)cc1C[NH+](C)C

>  <Energy>  (47) 
49.900730959326516

>  <Genealogy>  (47) 
COc1cc(CC(=O)[O-])ccc1Oc1ccc(Br)cc1C[NH+](C)C (protonated)
COc1cc(CC(=O)[O-])ccc1Oc1ccc(Br)cc1C[NH+](C)C (3D coordinates assigned)
COc1cc(CC(=O)[O-])ccc1Oc1ccc(Br)cc1C[NH+](C)C (optimized conformer: 49.900730959326516 kcal/mol)

>  <smiles>  (47) 
COc1cc(CC(=O)O)ccc1Oc1ccc(Br)cc1CN(C)C

>  <score_type>  (47) 
oracle

>  <origin>  (47) 
adg

>  <m_score__min__energy>  (47) 
-9.6799999999999997

>  <m_primary>  (47) 
energy

$$$$
47:0
     RDKit          3D

 39 42  0  0  0  0  0  0  0  0999 V2000
   -3.7430   20.1790  -32.4280 O   0  0  0  0  0  0  0  0  0  0  0  0
   -5.0040   20.1640  -32.4760 C   0  0  0  0  0  0  0  0  0  0  0  0
   -5.6790   19.1170  -33.1450 C   0  0  0  0  0  0  0  0  0  0  0  0
   -4.9870   18.0350  -33.8110 N   0  0  0  0  0  0  0  0  0  0  0  0
   -3.7580   18.1580  -34.5820 C   0  0  0  0  0  0  0  0  0  0  0  0
   -3.5910   16.8320  -35.3110 C   0  0  0  0  0  0  0  0  0  0  0  0
   -4.4920   15.8430  -34.5810 C   0  0  0  0  0  0  0  0  0  0  0  0
   -5.5350   16.6890  -33.8680 C   0  0  0  0  0  0  0  0  0  0  0  0
   -7.0370   19.1230  -33.1540 N   0  0  0  0  0  0  0  0  0  0  0  0
   -7.7600   20.0970  -32.5550 C   0  0  0  0  0  0  0  0  0  0  0  0
   -9.1580   20.0490  -32.5970 C   0  0  0  0  0  0  0  0  0  0  0  0
   -9.9120   21.0490  -31.9780 C   0  0  0  0  0  0  0  0  0  0  0  0
   -9.2720   22.0970  -31.3140 C   0  0  0  0  0  0  0  0  0  0  0  0
   -7.8760   22.1530  -31.2670 C   0  0  0  0  0  0  0  0  0  0  0  0
   -7.0960   21.1530  -31.8940 C   0  0  0  0  0  0  0  0  0  0  0  0
   -5.7200   21.1670  -31.8700 N   0  0  0  0  0  0  0  0  0  0  0  0
   -5.0020   22.2290  -31.2120 C   0  0  0  0  0  0  0  0  0  0  0  0
   -5.3230   23.5680  -31.4810 C   0  0  0  0  0  0  0  0  0  0  0  0
   -4.6250   24.5970  -30.8430 C   0  0  0  0  0  0  0  0  0  0  0  0
   -3.6030   24.2940  -29.9370 C   0  0  0  0  0  0  0  0  0  0  0  0
   -2.9270   25.2940  -29.3180 F   0  0  0  0  0  0  0  0  0  0  0  0
   -3.2780   22.9610  -29.6690 C   0  0  0  0  0  0  0  0  0  0  0  0
   -3.9740   21.9280  -30.3050 C   0  0  0  0  0  0  0  0  0  0  0  0
   -3.8396   18.9842  -35.3036 H   0  0  0  0  0  0  0  0  0  0  0  0
   -2.8949   18.3762  -33.9359 H   0  0  0  0  0  0  0  0  0  0  0  0
   -3.9016   16.9303  -36.3617 H   0  0  0  0  0  0  0  0  0  0  0  0
   -2.5424   16.4998  -35.3139 H   0  0  0  0  0  0  0  0  0  0  0  0
   -4.9745   15.1620  -35.2976 H   0  0  0  0  0  0  0  0  0  0  0  0
   -3.9236   15.2184  -33.8762 H   0  0  0  0  0  0  0  0  0  0  0  0
   -6.4805   16.6845  -34.4302 H   0  0  0  0  0  0  0  0  0  0  0  0
   -5.7522   16.2990  -32.8627 H   0  0  0  0  0  0  0  0  0  0  0  0
   -9.6638   19.2228  -33.1181 H   0  0  0  0  0  0  0  0  0  0  0  0
  -11.0107   21.0106  -32.0138 H   0  0  0  0  0  0  0  0  0  0  0  0
   -9.8685   22.8818  -30.8259 H   0  0  0  0  0  0  0  0  0  0  0  0
   -7.3803   22.9807  -30.7386 H   0  0  0  0  0  0  0  0  0  0  0  0
   -6.1248   23.8081  -32.1947 H   0  0  0  0  0  0  0  0  0  0  0  0
   -4.8795   25.6463  -31.0534 H   0  0  0  0  0  0  0  0  0  0  0  0
   -2.4737   22.7243  -28.9569 H   0  0  0  0  0  0  0  0  0  0  0  0
   -3.7158   20.8797  -30.0944 H   0  0  0  0  0  0  0  0  0  0  0  0
  1  2  2  0
  2  3  1  0
  3  4  1  0
  4  5  1  0
  5  6  1  0
  6  7  1  0
  7  8  1  0
  3  9  2  0
  9 10  1  0
 10 11  2  0
 11 12  1  0
 12 13  2  0
 13 14  1  0
 14 15  2  0
 15 16  1  0
 16 17  1  0
 17 18  2  0
 18 19  1  0
 19 20  2  0
 20 21  1  0
 20 22  1  0
 22 23  2  0
 16  2  1  0
 23 17  1  0
  8  4  1  0
 15 10  1  0
  5 24  1  0
  5 25  1  0
  6 26  1  0
  6 27  1  0
  7 28  1  0
  7 29  1  0
  8 30  1  0
  8 31  1  0
 11 32  1  0
 12 33  1  0
 13 34  1  0
 14 35  1  0
 18 36  1  0
 19 37  1  0
 22 38  1  0
 23 39  1  0
M  END
>  <UniqueID>  (48) 
43

>  <SMILES>  (48) 
O=c1c(N2CCCC2)nc2ccccc2n1-c1ccc(F)cc1

>  <Energy>  (48) 
60.705427925215545

>  <Genealogy>  (48) 
O=c1c(N2CCCC2)nc2ccccc2n1-c1ccc(F)cc1 (3D coordinates assigned)
O=c1c(N2CCCC2)nc2ccccc2n1-c1ccc(F)cc1 (nonaromatic ring conformer: 60.705427925215545 kcal/mol)

>  <smiles>  (48) 
O=c1c(N2CCCC2)nc2ccccc2n1-c1ccc(F)cc1

>  <score_type>  (48) 
oracle

>  <origin>  (48) 
adg

>  <m_score__min__energy>  (48) 
-7.6299999999999999

>  <m_primary>  (48) 
energy

$$$$
