0:0
     RDKit          3D

 58 60  0  0  0  0  0  0  0  0999 V2000
   -8.8900   21.2570  -30.9960 C   0  0  0  0  0  0  0  0  0  0  0  0
   -8.6350   20.8350  -32.4470 C   0  0  0  0  0  0  0  0  0  0  0  0
   -8.8390   19.3950  -32.6540 N   0  0  0  0  0  0  0  0  0  0  0  0
   -8.6170   18.5870  -31.4370 C   0  0  0  0  0  0  0  0  0  0  0  0
   -7.1180   18.2780  -31.2210 C   0  0  0  0  0  0  0  0  0  0  0  0
   -6.5890   17.1510  -32.1350 C   0  0  0  0  0  0  0  0  0  0  0  0
   -7.2770   17.0570  -33.4350 N   0  0  0  0  0  0  0  0  0  0  0  0
   -6.3610   16.9990  -34.5860 C   0  0  0  0  0  0  0  0  0  0  0  0
   -5.3290   18.1230  -34.4830 C   0  0  0  0  0  0  0  0  0  0  0  0
   -5.9400   19.3550  -33.9580 N   0  0  0  0  0  0  0  0  0  0  0  0
   -4.9870   20.0970  -33.1680 C   0  0  0  0  0  0  0  0  0  0  0  0
   -3.6070   19.9170  -33.3690 C   0  0  0  0  0  0  0  0  0  0  0  0
   -2.6790   20.6590  -32.6320 C   0  0  0  0  0  0  0  0  0  0  0  0
   -3.1190   21.5990  -31.6830 C   0  0  0  0  0  0  0  0  0  0  0  0
   -2.2260   22.3930  -30.9410 C   0  0  0  0  0  0  0  0  0  0  0  0
   -0.9810   22.2380  -31.1010 O   0  0  0  0  0  0  0  0  0  0  0  0
   -2.7020   23.3250  -30.0470 N   0  0  0  0  0  0  0  0  0  0  0  0
   -4.0580   23.4400  -29.8420 C   0  0  0  0  0  0  0  0  0  0  0  0
   -4.9240   22.6680  -30.5520 N   0  0  0  0  0  0  0  0  0  0  0  0
   -4.4960   21.7690  -31.4680 C   0  0  0  0  0  0  0  0  0  0  0  0
   -5.4240   21.0140  -32.1980 C   0  0  0  0  0  0  0  0  0  0  0  0
   -4.6370   24.3730  -28.8040 C   0  0  0  0  0  0  0  0  0  0  0  0
   -4.2320   23.9470  -27.3840 C   0  0  0  0  0  0  0  0  0  0  0  0
   -2.8290   24.4310  -26.9920 C   0  0  0  0  0  0  0  0  0  0  0  0
   -1.7080   23.7860  -27.8170 C   0  0  0  0  0  0  0  0  0  0  0  0
   -1.7610   24.1890  -29.2990 C   0  0  0  0  0  0  0  0  0  0  0  0
   -8.4432   20.5175  -30.3152 H   0  0  0  0  0  0  0  0  0  0  0  0
   -8.4362   22.2427  -30.8157 H   0  0  0  0  0  0  0  0  0  0  0  0
   -9.9736   21.3137  -30.8157 H   0  0  0  0  0  0  0  0  0  0  0  0
   -9.3245   21.3875  -33.1022 H   0  0  0  0  0  0  0  0  0  0  0  0
   -7.5853   21.0631  -32.6838 H   0  0  0  0  0  0  0  0  0  0  0  0
   -8.2550   19.0640  -33.4660 H   0  0  0  0  0  0  0  0  0  0  0  0
   -8.9954   19.1426  -30.5663 H   0  0  0  0  0  0  0  0  0  0  0  0
   -9.1498   17.6323  -31.5576 H   0  0  0  0  0  0  0  0  0  0  0  0
   -6.5403   19.1919  -31.4235 H   0  0  0  0  0  0  0  0  0  0  0  0
   -7.0021   17.9363  -30.1819 H   0  0  0  0  0  0  0  0  0  0  0  0
   -5.5201   17.3313  -32.3222 H   0  0  0  0  0  0  0  0  0  0  0  0
   -6.7745   16.2029  -31.6089 H   0  0  0  0  0  0  0  0  0  0  0  0
   -7.9560   17.8470  -33.5490 H   0  0  0  0  0  0  0  0  0  0  0  0
   -5.8441   16.0280  -34.5930 H   0  0  0  0  0  0  0  0  0  0  0  0
   -6.9371   17.1185  -35.5154 H   0  0  0  0  0  0  0  0  0  0  0  0
   -4.5197   17.8073  -33.8082 H   0  0  0  0  0  0  0  0  0  0  0  0
   -4.9344   18.3291  -35.4889 H   0  0  0  0  0  0  0  0  0  0  0  0
   -6.7770   19.1130  -33.3770 H   0  0  0  0  0  0  0  0  0  0  0  0
   -6.2630   19.9580  -34.7500 H   0  0  0  0  0  0  0  0  0  0  0  0
   -3.2547   19.1865  -34.1121 H   0  0  0  0  0  0  0  0  0  0  0  0
   -1.6018   20.5071  -32.7949 H   0  0  0  0  0  0  0  0  0  0  0  0
   -6.5005   21.1403  -32.0103 H   0  0  0  0  0  0  0  0  0  0  0  0
   -4.2674   25.3919  -28.9918 H   0  0  0  0  0  0  0  0  0  0  0  0
   -5.7339   24.3377  -28.8780 H   0  0  0  0  0  0  0  0  0  0  0  0
   -4.9589   24.3644  -26.6717 H   0  0  0  0  0  0  0  0  0  0  0  0
   -4.2203   22.8473  -27.3602 H   0  0  0  0  0  0  0  0  0  0  0  0
   -2.7838   25.5208  -27.1347 H   0  0  0  0  0  0  0  0  0  0  0  0
   -2.6674   24.1413  -25.9432 H   0  0  0  0  0  0  0  0  0  0  0  0
   -0.7390   24.0989  -27.4008 H   0  0  0  0  0  0  0  0  0  0  0  0
   -1.8384   22.6951  -27.7626 H   0  0  0  0  0  0  0  0  0  0  0  0
   -2.0929   25.2349  -29.3764 H   0  0  0  0  0  0  0  0  0  0  0  0
   -0.7564   24.0723  -29.7316 H   0  0  0  0  0  0  0  0  0  0  0  0
  1  2  1  0
  2  3  1  0
  3  4  1  0
  4  5  1  0
  5  6  1  0
  6  7  1  0
  7  8  1  0
  8  9  1  0
  9 10  1  0
 10 11  1  0
 11 12  2  0
 12 13  1  0
 13 14  2  0
 14 15  1  0
 15 16  2  0
 15 17  1  0
 17 18  1  0
 18 19  2  0
 19 20  1  0
 20 21  2  0
 18 22  1  0
 22 23  1  0
 23 24  1  0
 24 25  1  0
 25 26  1  0
 21 11  1  0
 20 14  1  0
 26 17  1  0
  1 27  1  0
  1 28  1  0
  1 29  1  0
  2 30  1  0
  2 31  1  0
  3 32  1  0
  4 33  1  0
  4 34  1  0
  5 35  1  0
  5 36  1  0
  6 37  1  0
  6 38  1  0
  7 39  1  0
  8 40  1  0
  8 41  1  0
  9 42  1  0
  9 43  1  0
 10 44  1  0
 10 45  1  0
 12 46  1  0
 13 47  1  0
 21 48  1  0
 22 49  1  0
 22 50  1  0
 23 51  1  0
 23 52  1  0
 24 53  1  0
 24 54  1  0
 25 55  1  0
 25 56  1  0
 26 57  1  0
 26 58  1  0
M  CHG  1  10   1
M  END
>  <UniqueID>  (1) 
1

>  <SMILES>  (1) 
CCNCCCNCC[NH2+]c1ccc2c(=O)n3c(nc2c1)CCCCC3

>  <Energy>  (1) 
64.67806607942512

>  <Genealogy>  (1) 
CCNCCCNCC[NH2+]c1ccc2c(=O)n3c(nc2c1)CCCCC3 (protonated)
CCNCCCNCC[NH2+]c1ccc2c(=O)n3c(nc2c1)CCCCC3 (3D coordinates assigned)
CCNCCCNCC[NH2+]c1ccc2c(=O)n3c(nc2c1)CCCCC3 (nonaromatic ring conformer: 64.67806607942512 kcal/mol)

>  <smiles>  (1) 
CCNCCCNCCNc1ccc2c(=O)n3c(nc2c1)CCCCC3

>  <score_type>  (1) 
oracle

>  <origin>  (1) 
adg

>  <m_score__min__energy>  (1) 
-6.8499999999999996

>  <m_primary>  (1) 
energy

$$$$
1:0
     RDKit          3D

 67 70  0  0  0  0  0  0  0  0999 V2000
   -6.8640   25.0420  -29.7520 C   0  0  0  0  0  0  0  0  0  0  0  0
   -5.6510   24.3470  -30.2160 N   0  0  0  0  0  0  0  0  0  0  0  0
   -4.5560   25.2950  -30.4730 C   0  0  0  0  0  0  0  0  0  0  0  0
   -5.2540   23.2280  -29.3320 C   0  0  0  0  0  0  0  0  0  0  0  0
   -4.6290   22.0270  -30.0720 C   0  0  0  0  0  0  0  0  0  0  0  0
   -4.7510   22.1710  -31.5270 N   0  0  0  0  0  0  0  0  0  0  0  0
   -5.4790   21.1770  -32.2730 C   0  0  0  0  0  0  0  0  0  0  0  0
   -6.8820   21.1800  -32.2210 C   0  0  0  0  0  0  0  0  0  0  0  0
   -7.5930   22.3530  -31.8820 C   0  0  0  0  0  0  0  0  0  0  0  0
   -8.9860   22.3570  -31.8640 C   0  0  0  0  0  0  0  0  0  0  0  0
   -9.6910   21.2050  -32.1960 C   0  0  0  0  0  0  0  0  0  0  0  0
   -9.0060   20.0330  -32.5250 C   0  0  0  0  0  0  0  0  0  0  0  0
   -7.5890   19.9920  -32.5170 C   0  0  0  0  0  0  0  0  0  0  0  0
   -6.8950   18.8300  -32.7740 N   0  0  0  0  0  0  0  0  0  0  0  0
   -7.5840   17.5240  -32.6850 C   0  0  0  0  0  0  0  0  0  0  0  0
   -5.5570   18.8910  -33.1120 C   0  0  0  0  0  0  0  0  0  0  0  0
   -4.8970   17.7770  -33.6840 C   0  0  0  0  0  0  0  0  0  0  0  0
   -3.5540   17.8360  -34.0340 C   0  0  0  0  0  0  0  0  0  0  0  0
   -2.8480   19.0180  -33.8920 C   0  0  0  0  0  0  0  0  0  0  0  0
   -3.4670   20.1740  -33.3930 C   0  0  0  0  0  0  0  0  0  0  0  0
   -2.7370   21.4200  -33.5040 N   0  0  0  0  0  0  0  0  0  0  0  0
   -1.2930   21.1680  -33.6270 C   0  0  0  0  0  0  0  0  0  0  0  0
   -0.6020   21.2380  -32.2550 C   0  0  0  0  0  0  0  0  0  0  0  0
   -1.5900   21.3540  -31.1580 N   0  0  0  0  0  0  0  0  0  0  0  0
   -1.5350   20.1780  -30.2480 C   0  0  0  0  0  0  0  0  0  0  0  0
   -2.0170   20.5110  -28.8290 C   0  0  0  0  0  0  0  0  0  0  0  0
   -1.1250   21.5870  -28.1910 C   0  0  0  0  0  0  0  0  0  0  0  0
   -0.5780   22.5920  -29.2220 C   0  0  0  0  0  0  0  0  0  0  0  0
   -1.4790   22.6650  -30.4630 C   0  0  0  0  0  0  0  0  0  0  0  0
   -4.8170   20.0980  -32.9130 C   0  0  0  0  0  0  0  0  0  0  0  0
   -6.8825   25.0526  -28.6522 H   0  0  0  0  0  0  0  0  0  0  0  0
   -6.8612   26.0755  -30.1286 H   0  0  0  0  0  0  0  0  0  0  0  0
   -7.7542   24.5169  -30.1286 H   0  0  0  0  0  0  0  0  0  0  0  0
   -4.1461   25.6499  -29.5159 H   0  0  0  0  0  0  0  0  0  0  0  0
   -3.7637   24.7930  -31.0476 H   0  0  0  0  0  0  0  0  0  0  0  0
   -4.9394   26.1510  -31.0476 H   0  0  0  0  0  0  0  0  0  0  0  0
   -4.5191   23.6061  -28.6061 H   0  0  0  0  0  0  0  0  0  0  0  0
   -6.1747   22.8605  -28.8552 H   0  0  0  0  0  0  0  0  0  0  0  0
   -3.5635   21.9589  -29.8074 H   0  0  0  0  0  0  0  0  0  0  0  0
   -5.1661   21.1163  -29.7685 H   0  0  0  0  0  0  0  0  0  0  0  0
   -4.7780   23.1490  -31.8910 H   0  0  0  0  0  0  0  0  0  0  0  0
   -7.0418   23.2710  -31.6301 H   0  0  0  0  0  0  0  0  0  0  0  0
   -9.5291   23.2726  -31.5868 H   0  0  0  0  0  0  0  0  0  0  0  0
  -10.7909   21.2169  -32.1995 H   0  0  0  0  0  0  0  0  0  0  0  0
   -9.5736   19.1299  -32.7939 H   0  0  0  0  0  0  0  0  0  0  0  0
   -7.7257   17.2555  -31.6277 H   0  0  0  0  0  0  0  0  0  0  0  0
   -8.5637   17.5918  -33.1805 H   0  0  0  0  0  0  0  0  0  0  0  0
   -6.9750   16.7536  -33.1805 H   0  0  0  0  0  0  0  0  0  0  0  0
   -5.4585   16.8466  -33.8546 H   0  0  0  0  0  0  0  0  0  0  0  0
   -3.0498   16.9401  -34.4254 H   0  0  0  0  0  0  0  0  0  0  0  0
   -1.7855   19.0516  -34.1747 H   0  0  0  0  0  0  0  0  0  0  0  0
   -2.9740   22.0610  -32.7190 H   0  0  0  0  0  0  0  0  0  0  0  0
   -3.0550   21.9270  -34.3630 H   0  0  0  0  0  0  0  0  0  0  0  0
   -1.1379   20.1675  -34.0571 H   0  0  0  0  0  0  0  0  0  0  0  0
   -0.8570   21.9397  -34.2785 H   0  0  0  0  0  0  0  0  0  0  0  0
   -0.0078   20.3243  -32.1064 H   0  0  0  0  0  0  0  0  0  0  0  0
    0.0421   22.1296  -32.2367 H   0  0  0  0  0  0  0  0  0  0  0  0
   -2.1735   19.3827  -30.6601 H   0  0  0  0  0  0  0  0  0  0  0  0
   -0.4850   19.8576  -30.1783 H   0  0  0  0  0  0  0  0  0  0  0  0
   -3.0517   20.8814  -28.8767 H   0  0  0  0  0  0  0  0  0  0  0  0
   -1.9658   19.5996  -28.2151 H   0  0  0  0  0  0  0  0  0  0  0  0
   -1.7159   22.1362  -27.4431 H   0  0  0  0  0  0  0  0  0  0  0  0
   -0.2640   21.0773  -27.7340 H   0  0  0  0  0  0  0  0  0  0  0  0
   -0.5255   23.5881  -28.7583 H   0  0  0  0  0  0  0  0  0  0  0  0
    0.4208   22.2563  -29.5377 H   0  0  0  0  0  0  0  0  0  0  0  0
   -2.4839   22.9868  -30.1522 H   0  0  0  0  0  0  0  0  0  0  0  0
   -1.0272   23.3811  -31.1653 H   0  0  0  0  0  0  0  0  0  0  0  0
  1  2  1  0
  2  3  1  0
  2  4  1  0
  4  5  1  0
  5  6  1  0
  6  7  1  0
  7  8  2  0
  8  9  1  0
  9 10  2  0
 10 11  1  0
 11 12  2  0
 12 13  1  0
 13 14  2  0
 14 15  1  0
 14 16  1  0
 16 17  2  0
 17 18  1  0
 18 19  2  0
 19 20  1  0
 20 21  1  0
 21 22  1  0
 22 23  1  0
 23 24  1  0
 24 25  1  0
 25 26  1  0
 26 27  1  0
 27 28  1  0
 28 29  1  0
 20 30  2  0
 30  7  1  0
 13  8  1  0
 30 16  1  0
 29 24  1  0
  1 31  1  0
  1 32  1  0
  1 33  1  0
  3 34  1  0
  3 35  1  0
  3 36  1  0
  4 37  1  0
  4 38  1  0
  5 39  1  0
  5 40  1  0
  6 41  1  0
  9 42  1  0
 10 43  1  0
 11 44  1  0
 12 45  1  0
 15 46  1  0
 15 47  1  0
 15 48  1  0
 17 49  1  0
 18 50  1  0
 19 51  1  0
 21 52  1  0
 21 53  1  0
 22 54  1  0
 22 55  1  0
 23 56  1  0
 23 57  1  0
 25 58  1  0
 25 59  1  0
 26 60  1  0
 26 61  1  0
 27 62  1  0
 27 63  1  0
 28 64  1  0
 28 65  1  0
 29 66  1  0
 29 67  1  0
M  CHG  2  14   1  21   1
M  END
>  <UniqueID>  (2) 
2

>  <SMILES>  (2) 
CN(C)CCNc1c2ccccc2[n+](C)c2cccc([NH2+]CCN3CCCCC3)c12

>  <Energy>  (2) 
116.4725805692737

>  <Genealogy>  (2) 
CN(C)CCNc1c2ccccc2[n+](C)c2cccc([NH2+]CCN3CCCCC3)c12 (protonated)
CN(C)CCNc1c2ccccc2[n+](C)c2cccc([NH2+]CCN3CCCCC3)c12 (3D coordinates assigned)
CN(C)CCNc1c2ccccc2[n+](C)c2cccc([NH2+]CCN3CCCCC3)c12 (nonaromatic ring conformer: 116.4725805692737 kcal/mol)

>  <smiles>  (2) 
CN(C)CCNc1c2ccccc2[n+](C)c2cccc(NCCN3CCCCC3)c12

>  <score_type>  (2) 
oracle

>  <origin>  (2) 
adg

>  <m_score__min__energy>  (2) 
-7.5800000000000001

>  <m_primary>  (2) 
energy

$$$$
2:0
     RDKit          3D

 70 72  0  0  0  0  0  0  0  0999 V2000
   -2.6080   20.6970  -29.4470 C   0  0  0  0  0  0  0  0  0  0  0  0
   -2.9090   20.5440  -27.9560 C   0  0  0  0  0  0  0  0  0  0  0  0
   -1.7540   19.9410  -27.2520 N   0  0  0  0  0  0  0  0  0  0  0  0
   -2.1010   18.6060  -26.7080 C   0  0  0  0  0  0  0  0  0  0  0  0
   -3.4570   18.6470  -26.0060 C   0  0  0  0  0  0  0  0  0  0  0  0
   -1.2610   20.8350  -26.1780 C   0  0  0  0  0  0  0  0  0  0  0  0
   -0.4640   22.0040  -26.7650 C   0  0  0  0  0  0  0  0  0  0  0  0
   -1.3170   23.1070  -27.0080 O   0  0  0  0  0  0  0  0  0  0  0  0
   -0.7150   24.0180  -27.9020 C   0  0  0  0  0  0  0  0  0  0  0  0
   -1.5860   25.2610  -28.0400 C   0  0  0  0  0  0  0  0  0  0  0  0
   -2.1840   25.2910  -29.3220 O   0  0  0  0  0  0  0  0  0  0  0  0
   -2.5190   23.9850  -29.7410 C   0  0  0  0  0  0  0  0  0  0  0  0
   -4.0290   23.8020  -29.6890 C   0  0  0  0  0  0  0  0  0  0  0  0
   -4.5900   24.3450  -30.8630 O   0  0  0  0  0  0  0  0  0  0  0  0
   -5.9490   24.6540  -30.6500 C   0  0  0  0  0  0  0  0  0  0  0  0
   -6.8320   23.6990  -31.4730 C   0  0  0  0  0  0  0  0  0  0  0  0
   -6.2120   23.0910  -32.6820 N   0  0  0  0  0  0  0  0  0  0  0  0
   -6.0040   21.6480  -32.6590 C   0  0  0  0  0  0  0  0  0  0  0  0
   -7.0990   20.7480  -32.5620 C   0  0  0  0  0  0  0  0  0  0  0  0
   -8.4080   21.2030  -32.2710 C   0  0  0  0  0  0  0  0  0  0  0  0
   -9.4680   20.3090  -32.1470 C   0  0  0  0  0  0  0  0  0  0  0  0
   -9.2530   18.9470  -32.3080 C   0  0  0  0  0  0  0  0  0  0  0  0
   -7.9800   18.4680  -32.5980 C   0  0  0  0  0  0  0  0  0  0  0  0
   -6.8790   19.3520  -32.7380 C   0  0  0  0  0  0  0  0  0  0  0  0
   -5.6170   18.8780  -33.0320 N   0  0  0  0  0  0  0  0  0  0  0  0
   -5.4240   17.4600  -33.4080 C   0  0  0  0  0  0  0  0  0  0  0  0
   -4.5300   19.7170  -32.9710 C   0  0  0  0  0  0  0  0  0  0  0  0
   -3.2670   19.2130  -33.0970 N   0  0  0  0  0  0  0  0  0  0  0  0
   -2.1560   19.9870  -33.0420 C   0  0  0  0  0  0  0  0  0  0  0  0
   -2.2760   21.3570  -32.8470 C   0  0  0  0  0  0  0  0  0  0  0  0
   -3.5420   21.9200  -32.7170 C   0  0  0  0  0  0  0  0  0  0  0  0
   -4.7000   21.1100  -32.7810 C   0  0  0  0  0  0  0  0  0  0  0  0
   -1.6341   21.1920  -29.5755 H   0  0  0  0  0  0  0  0  0  0  0  0
   -2.5797   19.7039  -29.9191 H   0  0  0  0  0  0  0  0  0  0  0  0
   -3.3936   21.3052  -29.9191 H   0  0  0  0  0  0  0  0  0  0  0  0
   -3.1182   21.5345  -27.5256 H   0  0  0  0  0  0  0  0  0  0  0  0
   -3.7819   19.8856  -27.8354 H   0  0  0  0  0  0  0  0  0  0  0  0
   -2.1428   17.8793  -27.5328 H   0  0  0  0  0  0  0  0  0  0  0  0
   -1.3329   18.3100  -25.9783 H   0  0  0  0  0  0  0  0  0  0  0  0
   -3.3061   18.6424  -24.9164 H   0  0  0  0  0  0  0  0  0  0  0  0
   -3.9936   19.5618  -26.2980 H   0  0  0  0  0  0  0  0  0  0  0  0
   -4.0478   17.7663  -26.2980 H   0  0  0  0  0  0  0  0  0  0  0  0
   -2.1197   21.2305  -25.6157 H   0  0  0  0  0  0  0  0  0  0  0  0
   -0.6012   20.2572  -25.5140 H   0  0  0  0  0  0  0  0  0  0  0  0
    0.3206   22.3017  -26.0538 H   0  0  0  0  0  0  0  0  0  0  0  0
   -0.0102   21.6863  -27.7153 H   0  0  0  0  0  0  0  0  0  0  0  0
    0.2744   24.3067  -27.5175 H   0  0  0  0  0  0  0  0  0  0  0  0
   -0.6061   23.5407  -28.8870 H   0  0  0  0  0  0  0  0  0  0  0  0
   -2.3725   25.2423  -27.2712 H   0  0  0  0  0  0  0  0  0  0  0  0
   -0.9609   26.1569  -27.9113 H   0  0  0  0  0  0  0  0  0  0  0  0
   -2.1670   23.8299  -30.7716 H   0  0  0  0  0  0  0  0  0  0  0  0
   -2.0399   23.2537  -29.0734 H   0  0  0  0  0  0  0  0  0  0  0  0
   -4.2702   22.7307  -29.6245 H   0  0  0  0  0  0  0  0  0  0  0  0
   -4.4388   24.3140  -28.8058 H   0  0  0  0  0  0  0  0  0  0  0  0
   -6.1865   24.5426  -29.5817 H   0  0  0  0  0  0  0  0  0  0  0  0
   -6.1411   25.6905  -30.9644 H   0  0  0  0  0  0  0  0  0  0  0  0
   -7.1439   22.8786  -30.8099 H   0  0  0  0  0  0  0  0  0  0  0  0
   -7.6559   24.3214  -31.8523 H   0  0  0  0  0  0  0  0  0  0  0  0
   -6.7660   23.3610  -33.5250 H   0  0  0  0  0  0  0  0  0  0  0  0
   -5.3020   23.5700  -32.8760 H   0  0  0  0  0  0  0  0  0  0  0  0
   -8.5902   22.2800  -32.1408 H   0  0  0  0  0  0  0  0  0  0  0  0
  -10.4777   20.6825  -31.9211 H   0  0  0  0  0  0  0  0  0  0  0  0
  -10.0928   18.2439  -32.2058 H   0  0  0  0  0  0  0  0  0  0  0  0
   -7.8241   17.3861  -32.7209 H   0  0  0  0  0  0  0  0  0  0  0  0
   -5.3406   16.8475  -32.4981 H   0  0  0  0  0  0  0  0  0  0  0  0
   -6.2839   17.1180  -34.0027 H   0  0  0  0  0  0  0  0  0  0  0  0
   -4.5040   17.3603  -34.0027 H   0  0  0  0  0  0  0  0  0  0  0  0
   -1.1609   19.5311  -33.1516 H   0  0  0  0  0  0  0  0  0  0  0  0
   -1.3786   21.9911  -32.7958 H   0  0  0  0  0  0  0  0  0  0  0  0
   -3.6431   23.0045  -32.5631 H   0  0  0  0  0  0  0  0  0  0  0  0
  1  2  1  0
  2  3  1  0
  3  4  1  0
  4  5  1  0
  3  6  1  0
  6  7  1  0
  7  8  1  0
  8  9  1  0
  9 10  1  0
 10 11  1  0
 11 12  1  0
 12 13  1  0
 13 14  1  0
 14 15  1  0
 15 16  1  0
 16 17  1  0
 17 18  1  0
 18 19  2  0
 19 20  1  0
 20 21  2  0
 21 22  1  0
 22 23  2  0
 23 24  1  0
 24 25  2  0
 25 26  1  0
 25 27  1  0
 27 28  2  0
 28 29  1  0
 29 30  2  0
 30 31  1  0
 31 32  2  0
 32 18  1  0
 24 19  1  0
 32 27  1  0
  1 33  1  0
  1 34  1  0
  1 35  1  0
  2 36  1  0
  2 37  1  0
  4 38  1  0
  4 39  1  0
  5 40  1  0
  5 41  1  0
  5 42  1  0
  6 43  1  0
  6 44  1  0
  7 45  1  0
  7 46  1  0
  9 47  1  0
  9 48  1  0
 10 49  1  0
 10 50  1  0
 12 51  1  0
 12 52  1  0
 13 53  1  0
 13 54  1  0
 15 55  1  0
 15 56  1  0
 16 57  1  0
 16 58  1  0
 17 59  1  0
 17 60  1  0
 20 61  1  0
 21 62  1  0
 22 63  1  0
 23 64  1  0
 26 65  1  0
 26 66  1  0
 26 67  1  0
 29 68  1  0
 30 69  1  0
 31 70  1  0
M  CHG  2  17   1  25   1
M  END
>  <UniqueID>  (3) 
3

>  <SMILES>  (3) 
CCN(CC)CCOCCOCCOCC[NH2+]c1c2ccccc2[n+](C)c2ncccc12

>  <Energy>  (3) 
90.37575746912302

>  <Genealogy>  (3) 
CCN(CC)CCOCCOCCOCC[NH2+]c1c2ccccc2[n+](C)c2ncccc12 (protonated)
CCN(CC)CCOCCOCCOCC[NH2+]c1c2ccccc2[n+](C)c2ncccc12 (3D coordinates assigned)
CCN(CC)CCOCCOCCOCC[NH2+]c1c2ccccc2[n+](C)c2ncccc12 (optimized conformer: 90.37575746912302 kcal/mol)

>  <smiles>  (3) 
CCN(CC)CCOCCOCCOCCNc1c2ccccc2[n+](C)c2ncccc12

>  <score_type>  (3) 
oracle

>  <origin>  (3) 
adg

>  <m_score__min__energy>  (3) 
-8.9499999999999993

>  <m_primary>  (3) 
energy

$$$$
3:0
     RDKit          3D

 45 46  0  0  0  0  0  0  0  0999 V2000
   -9.2700   23.4360  -32.2880 C   0  0  0  0  0  0  0  0  0  0  0  0
   -7.8180   22.9660  -32.3480 C   0  0  0  0  0  0  0  0  0  0  0  0
   -7.6500   21.7100  -31.5870 N   0  0  0  0  0  0  0  0  0  0  0  0
   -7.9430   21.9400  -30.1600 C   0  0  0  0  0  0  0  0  0  0  0  0
   -8.5120   20.6310  -32.1250 C   0  0  0  0  0  0  0  0  0  0  0  0
   -8.0420   19.2680  -31.6080 C   0  0  0  0  0  0  0  0  0  0  0  0
   -6.6940   19.0500  -31.9750 O   0  0  0  0  0  0  0  0  0  0  0  0
   -6.5470   19.0820  -33.3790 C   0  0  0  0  0  0  0  0  0  0  0  0
   -5.4380   20.0690  -33.7660 C   0  0  0  0  0  0  0  0  0  0  0  0
   -4.3860   20.2760  -32.6560 C   0  0  0  0  0  0  0  0  0  0  0  0
   -4.9660   20.6130  -31.3420 N   0  0  0  0  0  0  0  0  0  0  0  0
   -4.1340   21.5360  -30.6050 C   0  0  0  0  0  0  0  0  0  0  0  0
   -3.1230   21.0730  -29.7310 C   0  0  0  0  0  0  0  0  0  0  0  0
   -2.3160   21.9840  -29.0110 C   0  0  0  0  0  0  0  0  0  0  0  0
   -2.4970   23.3810  -29.1510 C   0  0  0  0  0  0  0  0  0  0  0  0
   -1.6830   24.3190  -28.4250 N   0  0  0  0  0  0  0  0  0  0  0  0
   -1.9410   24.5930  -27.2350 O   0  0  0  0  0  0  0  0  0  0  0  0
   -0.6090   24.9350  -29.0280 O   0  0  0  0  0  0  0  0  0  0  0  0
   -3.5030   23.7980  -30.0330 C   0  0  0  0  0  0  0  0  0  0  0  0
   -3.8800   25.0420  -30.3660 N   0  0  0  0  0  0  0  0  0  0  0  0
   -4.8490   24.8740  -31.2290 O   0  0  0  0  0  0  0  0  0  0  0  0
   -5.1310   23.6220  -31.4850 N   0  0  0  0  0  0  0  0  0  0  0  0
   -4.2770   22.9220  -30.7230 C   0  0  0  0  0  0  0  0  0  0  0  0
   -9.5798   23.5363  -31.2373 H   0  0  0  0  0  0  0  0  0  0  0  0
   -9.3614   24.4096  -32.7917 H   0  0  0  0  0  0  0  0  0  0  0  0
   -9.9146   22.7006  -32.7917 H   0  0  0  0  0  0  0  0  0  0  0  0
   -7.5359   22.7943  -33.3973 H   0  0  0  0  0  0  0  0  0  0  0  0
   -7.1743   23.7400  -31.9047 H   0  0  0  0  0  0  0  0  0  0  0  0
   -7.2265   21.3776  -29.5433 H   0  0  0  0  0  0  0  0  0  0  0  0
   -7.8559   23.0135  -29.9362 H   0  0  0  0  0  0  0  0  0  0  0  0
   -8.9651   21.6005  -29.9362 H   0  0  0  0  0  0  0  0  0  0  0  0
   -9.5503   20.8023  -31.8047 H   0  0  0  0  0  0  0  0  0  0  0  0
   -8.4506   20.6378  -33.2233 H   0  0  0  0  0  0  0  0  0  0  0  0
   -8.1294   19.2444  -30.5117 H   0  0  0  0  0  0  0  0  0  0  0  0
   -8.6685   18.4789  -32.0494 H   0  0  0  0  0  0  0  0  0  0  0  0
   -6.2836   18.0772  -33.7411 H   0  0  0  0  0  0  0  0  0  0  0  0
   -7.4945   19.4052  -33.8349 H   0  0  0  0  0  0  0  0  0  0  0  0
   -4.9281   19.6864  -34.6625 H   0  0  0  0  0  0  0  0  0  0  0  0
   -5.9179   21.0427  -33.9438 H   0  0  0  0  0  0  0  0  0  0  0  0
   -3.8052   19.3478  -32.5511 H   0  0  0  0  0  0  0  0  0  0  0  0
   -3.7630   21.1301  -32.9600 H   0  0  0  0  0  0  0  0  0  0  0  0
   -5.1510   19.7460  -30.7900 H   0  0  0  0  0  0  0  0  0  0  0  0
   -5.8940   21.0700  -31.5020 H   0  0  0  0  0  0  0  0  0  0  0  0
   -2.9626   19.9915  -29.6099 H   0  0  0  0  0  0  0  0  0  0  0  0
   -1.5378   21.6024  -28.3336 H   0  0  0  0  0  0  0  0  0  0  0  0
  1  2  1  0
  2  3  1  0
  3  4  1  0
  3  5  1  0
  5  6  1  0
  6  7  1  0
  7  8  1  0
  8  9  1  0
  9 10  1  0
 10 11  1  0
 11 12  1  0
 12 13  2  0
 13 14  1  0
 14 15  2  0
 15 16  1  0
 16 17  2  0
 16 18  1  0
 15 19  1  0
 19 20  2  0
 20 21  1  0
 21 22  1  0
 22 23  2  0
 23 12  1  0
 23 19  1  0
  1 24  1  0
  1 25  1  0
  1 26  1  0
  2 27  1  0
  2 28  1  0
  4 29  1  0
  4 30  1  0
  4 31  1  0
  5 32  1  0
  5 33  1  0
  6 34  1  0
  6 35  1  0
  8 36  1  0
  8 37  1  0
  9 38  1  0
  9 39  1  0
 10 40  1  0
 10 41  1  0
 11 42  1  0
 11 43  1  0
 13 44  1  0
 14 45  1  0
M  CHG  3  11   1  16   1  18  -1
M  END
>  <UniqueID>  (4) 
4

>  <SMILES>  (4) 
CCN(C)CCOCCC[NH2+]c1ccc([N+](=O)[O-])c2nonc12

>  <Energy>  (4) 
87.83332502186747

>  <Genealogy>  (4) 
CCN(C)CCOCCC[NH2+]c1ccc([N+](=O)[O-])c2nonc12 (protonated)
CCN(C)CCOCCC[NH2+]c1ccc([N+](=O)[O-])c2nonc12 (3D coordinates assigned)
CCN(C)CCOCCC[NH2+]c1ccc([N+](=O)[O-])c2nonc12 (optimized conformer: 87.83332502186747 kcal/mol)

>  <smiles>  (4) 
CCN(C)CCOCCCNc1ccc([N+](=O)[O-])c2nonc12

>  <score_type>  (4) 
oracle

>  <origin>  (4) 
adg

>  <m_score__min__energy>  (4) 
-6.8600000000000003

>  <m_primary>  (4) 
energy

$$$$
4:0
     RDKit          3D

 80 82  0  0  0  0  0  0  0  0999 V2000
   -6.2790   15.9480  -33.9800 C   0  0  0  0  0  0  0  0  0  0  0  0
   -4.9670   16.5010  -33.4270 C   0  0  0  0  0  0  0  0  0  0  0  0
   -4.7110   17.8570  -33.9660 N   0  0  0  0  0  0  0  0  0  0  0  0
   -5.7090   18.1970  -35.0000 C   0  0  0  0  0  0  0  0  0  0  0  0
   -3.3380   17.9570  -34.5140 C   0  0  0  0  0  0  0  0  0  0  0  0
   -2.2700   17.7450  -33.4250 C   0  0  0  0  0  0  0  0  0  0  0  0
   -2.3430   18.7170  -32.3980 O   0  0  0  0  0  0  0  0  0  0  0  0
   -1.0670   18.9590  -31.8380 C   0  0  0  0  0  0  0  0  0  0  0  0
   -0.6480   20.3910  -32.1480 C   0  0  0  0  0  0  0  0  0  0  0  0
   -1.7790   21.2310  -32.0670 O   0  0  0  0  0  0  0  0  0  0  0  0
   -2.2420   21.5320  -33.3660 C   0  0  0  0  0  0  0  0  0  0  0  0
   -3.7490   21.2480  -33.4330 C   0  0  0  0  0  0  0  0  0  0  0  0
   -4.2230   20.4430  -32.2880 N   0  0  0  0  0  0  0  0  0  0  0  0
   -5.4450   20.9760  -31.6960 C   0  0  0  0  0  0  0  0  0  0  0  0
   -6.6630   20.2680  -31.7940 C   0  0  0  0  0  0  0  0  0  0  0  0
   -6.6870   18.8630  -31.9390 C   0  0  0  0  0  0  0  0  0  0  0  0
   -7.8960   18.1770  -32.0220 C   0  0  0  0  0  0  0  0  0  0  0  0
   -9.0980   18.8710  -31.9460 C   0  0  0  0  0  0  0  0  0  0  0  0
   -9.1000   20.2570  -31.8060 C   0  0  0  0  0  0  0  0  0  0  0  0
   -7.8850   20.9860  -31.7480 C   0  0  0  0  0  0  0  0  0  0  0  0
   -7.8670   22.3630  -31.6610 N   0  0  0  0  0  0  0  0  0  0  0  0
   -9.0780   23.1450  -31.9970 C   0  0  0  0  0  0  0  0  0  0  0  0
   -6.7180   23.0040  -31.2370 C   0  0  0  0  0  0  0  0  0  0  0  0
   -6.7330   24.3650  -30.8520 C   0  0  0  0  0  0  0  0  0  0  0  0
   -5.5800   24.9970  -30.4050 C   0  0  0  0  0  0  0  0  0  0  0  0
   -4.4080   24.2740  -30.2340 C   0  0  0  0  0  0  0  0  0  0  0  0
   -4.3590   22.9040  -30.5360 C   0  0  0  0  0  0  0  0  0  0  0  0
   -3.2630   22.1040  -30.0380 N   0  0  0  0  0  0  0  0  0  0  0  0
   -3.0080   21.8320  -28.6220 C   0  0  0  0  0  0  0  0  0  0  0  0
   -1.7990   22.6260  -28.1020 C   0  0  0  0  0  0  0  0  0  0  0  0
   -1.0860   23.4360  -29.1980 C   0  0  0  0  0  0  0  0  0  0  0  0
   -0.3020   24.5540  -28.6270 N   0  0  0  0  0  0  0  0  0  0  0  0
   -1.1780   25.4530  -27.8600 C   0  0  0  0  0  0  0  0  0  0  0  0
    0.7810   24.0620  -27.7570 C   0  0  0  0  0  0  0  0  0  0  0  0
   -5.4880   22.2890  -31.1590 C   0  0  0  0  0  0  0  0  0  0  0  0
   -6.9400   15.6694  -33.1460 H   0  0  0  0  0  0  0  0  0  0  0  0
   -6.7698   16.7158  -34.5961 H   0  0  0  0  0  0  0  0  0  0  0  0
   -6.0721   15.0605  -34.5961 H   0  0  0  0  0  0  0  0  0  0  0  0
   -5.0290   16.5526  -32.3300 H   0  0  0  0  0  0  0  0  0  0  0  0
   -4.1441   15.8359  -33.7278 H   0  0  0  0  0  0  0  0  0  0  0  0
   -6.6442   18.5156  -34.5163 H   0  0  0  0  0  0  0  0  0  0  0  0
   -5.3235   19.0145  -35.6270 H   0  0  0  0  0  0  0  0  0  0  0  0
   -5.9028   17.3142  -35.6270 H   0  0  0  0  0  0  0  0  0  0  0  0
   -3.2090   17.1911  -35.2929 H   0  0  0  0  0  0  0  0  0  0  0  0
   -3.2081   18.9679  -34.9277 H   0  0  0  0  0  0  0  0  0  0  0  0
   -2.4131   16.7495  -32.9795 H   0  0  0  0  0  0  0  0  0  0  0  0
   -1.2831   17.8362  -33.9022 H   0  0  0  0  0  0  0  0  0  0  0  0
   -1.1102   18.8159  -30.7482 H   0  0  0  0  0  0  0  0  0  0  0  0
   -0.3357   18.2584  -32.2674 H   0  0  0  0  0  0  0  0  0  0  0  0
    0.1078   20.7196  -31.4194 H   0  0  0  0  0  0  0  0  0  0  0  0
   -0.2210   20.4412  -33.1605 H   0  0  0  0  0  0  0  0  0  0  0  0
   -2.0557   22.5931  -33.5881 H   0  0  0  0  0  0  0  0  0  0  0  0
   -1.7120   20.9123  -34.1043 H   0  0  0  0  0  0  0  0  0  0  0  0
   -4.2890   22.2063  -33.4384 H   0  0  0  0  0  0  0  0  0  0  0  0
   -3.9407   20.6715  -34.3500 H   0  0  0  0  0  0  0  0  0  0  0  0
   -4.3750   19.4550  -32.5910 H   0  0  0  0  0  0  0  0  0  0  0  0
   -3.4290   20.4350  -31.6120 H   0  0  0  0  0  0  0  0  0  0  0  0
   -5.7404   18.3048  -31.9869 H   0  0  0  0  0  0  0  0  0  0  0  0
   -7.8998   17.0842  -32.1479 H   0  0  0  0  0  0  0  0  0  0  0  0
  -10.0509   18.3239  -31.9966 H   0  0  0  0  0  0  0  0  0  0  0  0
  -10.0579   20.7937  -31.7395 H   0  0  0  0  0  0  0  0  0  0  0  0
   -9.5758   23.4664  -31.0702 H   0  0  0  0  0  0  0  0  0  0  0  0
   -8.7919   24.0294  -32.5852 H   0  0  0  0  0  0  0  0  0  0  0  0
   -9.7663   22.5204  -32.5852 H   0  0  0  0  0  0  0  0  0  0  0  0
   -7.6738   24.9324  -30.9076 H   0  0  0  0  0  0  0  0  0  0  0  0
   -5.5959   26.0748  -30.1857 H   0  0  0  0  0  0  0  0  0  0  0  0
   -3.5069   24.7803  -29.8574 H   0  0  0  0  0  0  0  0  0  0  0  0
   -2.6090   21.6650  -30.7240 H   0  0  0  0  0  0  0  0  0  0  0  0
   -3.8973   22.1131  -28.0387 H   0  0  0  0  0  0  0  0  0  0  0  0
   -2.7886   20.7598  -28.5117 H   0  0  0  0  0  0  0  0  0  0  0  0
   -2.1466   23.3217  -27.3241 H   0  0  0  0  0  0  0  0  0  0  0  0
   -1.0737   21.8968  -27.7119 H   0  0  0  0  0  0  0  0  0  0  0  0
   -0.4071   22.7693  -29.7499 H   0  0  0  0  0  0  0  0  0  0  0  0
   -1.8510   23.8585  -29.8660 H   0  0  0  0  0  0  0  0  0  0  0  0
   -1.0190   25.2898  -26.7839 H   0  0  0  0  0  0  0  0  0  0  0  0
   -0.9418   26.4975  -28.1113 H   0  0  0  0  0  0  0  0  0  0  0  0
   -2.2283   25.2439  -28.1113 H   0  0  0  0  0  0  0  0  0  0  0  0
    0.4930   24.1928  -26.7035 H   0  0  0  0  0  0  0  0  0  0  0  0
    0.9577   22.9953  -27.9591 H   0  0  0  0  0  0  0  0  0  0  0  0
    1.7006   24.6307  -27.9591 H   0  0  0  0  0  0  0  0  0  0  0  0
  1  2  1  0
  2  3  1  0
  3  4  1  0
  3  5  1  0
  5  6  1  0
  6  7  1  0
  7  8  1  0
  8  9  1  0
  9 10  1  0
 10 11  1  0
 11 12  1  0
 12 13  1  0
 13 14  1  0
 14 15  2  0
 15 16  1  0
 16 17  2  0
 17 18  1  0
 18 19  2  0
 19 20  1  0
 20 21  2  0
 21 22  1  0
 21 23  1  0
 23 24  2  0
 24 25  1  0
 25 26  2  0
 26 27  1  0
 27 28  1  0
 28 29  1  0
 29 30  1  0
 30 31  1  0
 31 32  1  0
 32 33  1  0
 32 34  1  0
 27 35  2  0
 35 14  1  0
 20 15  1  0
 35 23  1  0
  1 36  1  0
  1 37  1  0
  1 38  1  0
  2 39  1  0
  2 40  1  0
  4 41  1  0
  4 42  1  0
  4 43  1  0
  5 44  1  0
  5 45  1  0
  6 46  1  0
  6 47  1  0
  8 48  1  0
  8 49  1  0
  9 50  1  0
  9 51  1  0
 11 52  1  0
 11 53  1  0
 12 54  1  0
 12 55  1  0
 13 56  1  0
 13 57  1  0
 16 58  1  0
 17 59  1  0
 18 60  1  0
 19 61  1  0
 22 62  1  0
 22 63  1  0
 22 64  1  0
 24 65  1  0
 25 66  1  0
 26 67  1  0
 28 68  1  0
 29 69  1  0
 29 70  1  0
 30 71  1  0
 30 72  1  0
 31 73  1  0
 31 74  1  0
 33 75  1  0
 33 76  1  0
 33 77  1  0
 34 78  1  0
 34 79  1  0
 34 80  1  0
M  CHG  2  13   1  21   1
M  END
>  <UniqueID>  (5) 
5

>  <SMILES>  (5) 
CCN(C)CCOCCOCC[NH2+]c1c2ccccc2[n+](C)c2cccc(NCCCN(C)C)c12

>  <Energy>  (5) 
116.66303530712013

>  <Genealogy>  (5) 
CCN(C)CCOCCOCC[NH2+]c1c2ccccc2[n+](C)c2cccc(NCCCN(C)C)c12 (protonated)
CCN(C)CCOCCOCC[NH2+]c1c2ccccc2[n+](C)c2cccc(NCCCN(C)C)c12 (3D coordinates assigned)
CCN(C)CCOCCOCC[NH2+]c1c2ccccc2[n+](C)c2cccc(NCCCN(C)C)c12 (optimized conformer: 116.66303530712013 kcal/mol)

>  <smiles>  (5) 
CCN(C)CCOCCOCCNc1c2ccccc2[n+](C)c2cccc(NCCCN(C)C)c12

>  <score_type>  (5) 
oracle

>  <origin>  (5) 
adg

>  <m_score__min__energy>  (5) 
-8.0700000000000003

>  <m_primary>  (5) 
energy

$$$$
5:0
     RDKit          3D

 80 84  0  0  0  0  0  0  0  0999 V2000
    2.6820   22.5240  -35.4580 C   0  0  0  0  0  0  0  0  0  0  0  0
    1.2990   22.4980  -34.9540 N   0  0  0  0  0  0  0  0  0  0  0  0
    0.3950   23.0040  -36.0120 C   0  0  0  0  0  0  0  0  0  0  0  0
    0.9450   21.1120  -34.5770 C   0  0  0  0  0  0  0  0  0  0  0  0
   -0.5770   20.9190  -34.4300 C   0  0  0  0  0  0  0  0  0  0  0  0
   -1.1200   21.7620  -33.4210 O   0  0  0  0  0  0  0  0  0  0  0  0
   -1.0210   21.1790  -32.1330 C   0  0  0  0  0  0  0  0  0  0  0  0
   -2.2700   20.3620  -31.7820 C   0  0  0  0  0  0  0  0  0  0  0  0
   -3.3120   20.5660  -32.7850 N   0  0  0  0  0  0  0  0  0  0  0  0
   -4.6830   20.2340  -32.5330 C   0  0  0  0  0  0  0  0  0  0  0  0
   -5.2880   19.0950  -33.1160 C   0  0  0  0  0  0  0  0  0  0  0  0
   -4.5580   18.2540  -33.9800 C   0  0  0  0  0  0  0  0  0  0  0  0
   -5.1450   17.1160  -34.5340 C   0  0  0  0  0  0  0  0  0  0  0  0
   -6.4750   16.8160  -34.2630 C   0  0  0  0  0  0  0  0  0  0  0  0
   -7.2360   17.6450  -33.4400 C   0  0  0  0  0  0  0  0  0  0  0  0
   -6.6720   18.8040  -32.8430 C   0  0  0  0  0  0  0  0  0  0  0  0
   -7.4230   19.6460  -32.0360 N   0  0  0  0  0  0  0  0  0  0  0  0
   -8.8330   19.3300  -31.7210 C   0  0  0  0  0  0  0  0  0  0  0  0
   -6.8270   20.7860  -31.5460 C   0  0  0  0  0  0  0  0  0  0  0  0
   -7.4230   21.7660  -30.8170 N   0  0  0  0  0  0  0  0  0  0  0  0
   -6.4450   22.6620  -30.5660 C   0  0  0  0  0  0  0  0  0  0  0  0
   -6.5690   23.8360  -29.8280 C   0  0  0  0  0  0  0  0  0  0  0  0
   -5.4150   24.6240  -29.6440 C   0  0  0  0  0  0  0  0  0  0  0  0
   -4.1720   24.2230  -30.1890 C   0  0  0  0  0  0  0  0  0  0  0  0
   -3.0080   24.9490  -29.9310 O   0  0  0  0  0  0  0  0  0  0  0  0
   -1.8710   24.3370  -29.3160 C   0  0  0  0  0  0  0  0  0  0  0  0
   -2.2060   23.9390  -27.8500 C   0  0  0  0  0  0  0  0  0  0  0  0
   -1.4940   24.7200  -26.7830 N   0  0  0  0  0  0  0  0  0  0  0  0
   -0.8880   23.7530  -25.8240 C   0  0  0  0  0  0  0  0  0  0  0  0
   -2.5110   25.5480  -26.0780 C   0  0  0  0  0  0  0  0  0  0  0  0
   -1.9330   26.4010  -24.9170 C   0  0  0  0  0  0  0  0  0  0  0  0
   -0.5160   26.9300  -25.1930 C   0  0  0  0  0  0  0  0  0  0  0  0
   -0.1750   26.9450  -26.6770 C   0  0  0  0  0  0  0  0  0  0  0  0
   -0.4550   25.6040  -27.4130 C   0  0  0  0  0  0  0  0  0  0  0  0
   -4.0830   23.0470  -30.9570 C   0  0  0  0  0  0  0  0  0  0  0  0
   -5.2450   22.2780  -31.1240 C   0  0  0  0  0  0  0  0  0  0  0  0
   -5.4930   21.0720  -31.7740 C   0  0  0  0  0  0  0  0  0  0  0  0
    3.3814   22.5371  -34.6091 H   0  0  0  0  0  0  0  0  0  0  0  0
    2.8658   21.6292  -36.0707 H   0  0  0  0  0  0  0  0  0  0  0  0
    2.8321   23.4251  -36.0707 H   0  0  0  0  0  0  0  0  0  0  0  0
   -0.4755   23.4912  -35.5484 H   0  0  0  0  0  0  0  0  0  0  0  0
    0.9331   23.7321  -36.6368 H   0  0  0  0  0  0  0  0  0  0  0  0
    0.0558   22.1646  -36.6368 H   0  0  0  0  0  0  0  0  0  0  0  0
    1.3153   20.4278  -35.3547 H   0  0  0  0  0  0  0  0  0  0  0  0
    1.4080   20.8986  -33.6023 H   0  0  0  0  0  0  0  0  0  0  0  0
   -1.0604   21.1548  -35.3895 H   0  0  0  0  0  0  0  0  0  0  0  0
   -0.7634   19.8743  -34.1404 H   0  0  0  0  0  0  0  0  0  0  0  0
   -0.1432   20.5165  -32.1082 H   0  0  0  0  0  0  0  0  0  0  0  0
   -0.9240   21.9901  -31.3963 H   0  0  0  0  0  0  0  0  0  0  0  0
   -2.0062   19.2947  -31.7457 H   0  0  0  0  0  0  0  0  0  0  0  0
   -2.6482   20.6922  -30.8032 H   0  0  0  0  0  0  0  0  0  0  0  0
   -3.0990   21.1950  -33.5950 H   0  0  0  0  0  0  0  0  0  0  0  0
   -3.5127   18.4979  -34.2204 H   0  0  0  0  0  0  0  0  0  0  0  0
   -4.5547   16.4554  -35.1860 H   0  0  0  0  0  0  0  0  0  0  0  0
   -6.9311   15.9164  -34.7019 H   0  0  0  0  0  0  0  0  0  0  0  0
   -8.2908   17.3974  -33.2498 H   0  0  0  0  0  0  0  0  0  0  0  0
   -8.9670   19.3000  -30.6296 H   0  0  0  0  0  0  0  0  0  0  0  0
   -9.4868   20.1039  -32.1495 H   0  0  0  0  0  0  0  0  0  0  0  0
   -9.0939   18.3511  -32.1495 H   0  0  0  0  0  0  0  0  0  0  0  0
   -8.4130   21.8520  -30.4990 H   0  0  0  0  0  0  0  0  0  0  0  0
   -7.5369   24.1390  -29.4020 H   0  0  0  0  0  0  0  0  0  0  0  0
   -5.4812   25.5605  -29.0708 H   0  0  0  0  0  0  0  0  0  0  0  0
   -1.5915   23.4366  -29.8827 H   0  0  0  0  0  0  0  0  0  0  0  0
   -1.0349   25.0518  -29.3130 H   0  0  0  0  0  0  0  0  0  0  0  0
   -3.2877   24.0738  -27.7022 H   0  0  0  0  0  0  0  0  0  0  0  0
   -1.8658   22.8990  -27.7370 H   0  0  0  0  0  0  0  0  0  0  0  0
   -1.0932   24.0805  -24.7941 H   0  0  0  0  0  0  0  0  0  0  0  0
   -1.3228   22.7555  -25.9851 H   0  0  0  0  0  0  0  0  0  0  0  0
    0.1993   23.7094  -25.9851 H   0  0  0  0  0  0  0  0  0  0  0  0
   -2.9726   26.2270  -26.8100 H   0  0  0  0  0  0  0  0  0  0  0  0
   -3.2361   24.8514  -25.6319 H   0  0  0  0  0  0  0  0  0  0  0  0
   -2.5994   27.2602  -24.7506 H   0  0  0  0  0  0  0  0  0  0  0  0
   -1.8687   25.7469  -24.0350 H   0  0  0  0  0  0  0  0  0  0  0  0
   -0.4411   27.9562  -24.8040 H   0  0  0  0  0  0  0  0  0  0  0  0
    0.1947   26.2542  -24.6948 H   0  0  0  0  0  0  0  0  0  0  0  0
   -0.7714   27.7334  -27.1593 H   0  0  0  0  0  0  0  0  0  0  0  0
    0.9081   27.1229  -26.7489 H   0  0  0  0  0  0  0  0  0  0  0  0
   -0.7877   25.8419  -28.4341 H   0  0  0  0  0  0  0  0  0  0  0  0
    0.4866   25.0368  -27.3716 H   0  0  0  0  0  0  0  0  0  0  0  0
   -3.1304   22.7396  -31.4131 H   0  0  0  0  0  0  0  0  0  0  0  0
  1  2  1  0
  2  3  1  0
  2  4  1  0
  4  5  1  0
  5  6  1  0
  6  7  1  0
  7  8  1  0
  8  9  1  0
  9 10  1  0
 10 11  2  0
 11 12  1  0
 12 13  2  0
 13 14  1  0
 14 15  2  0
 15 16  1  0
 16 17  2  0
 17 18  1  0
 17 19  1  0
 19 20  1  0
 20 21  1  0
 21 22  2  0
 22 23  1  0
 23 24  2  0
 24 25  1  0
 25 26  1  0
 26 27  1  0
 27 28  1  0
 28 29  1  0
 28 30  1  0
 30 31  1  0
 31 32  1  0
 32 33  1  0
 33 34  1  0
 24 35  1  0
 35 36  2  0
 36 37  1  0
 37 10  1  0
 16 11  1  0
 37 19  2  0
 36 21  1  0
 34 28  1  0
  1 38  1  0
  1 39  1  0
  1 40  1  0
  3 41  1  0
  3 42  1  0
  3 43  1  0
  4 44  1  0
  4 45  1  0
  5 46  1  0
  5 47  1  0
  7 48  1  0
  7 49  1  0
  8 50  1  0
  8 51  1  0
  9 52  1  0
 12 53  1  0
 13 54  1  0
 14 55  1  0
 15 56  1  0
 18 57  1  0
 18 58  1  0
 18 59  1  0
 20 60  1  0
 22 61  1  0
 23 62  1  0
 26 63  1  0
 26 64  1  0
 27 65  1  0
 27 66  1  0
 29 67  1  0
 29 68  1  0
 29 69  1  0
 30 70  1  0
 30 71  1  0
 31 72  1  0
 31 73  1  0
 32 74  1  0
 32 75  1  0
 33 76  1  0
 33 77  1  0
 34 78  1  0
 34 79  1  0
 35 80  1  0
M  CHG  2  17   1  28   1
M  END
>  <UniqueID>  (6) 
6

>  <SMILES>  (6) 
CN(C)CCOCCNc1c2ccccc2[n+](C)c2[nH]c3ccc(OCC[N+]4(C)CCCCC4)cc3c12

>  <Energy>  (6) 
169.80290701825268

>  <Genealogy>  (6) 
CN(C)CCOCCNc1c2ccccc2[n+](C)c2[nH]c3ccc(OCC[N+]4(C)CCCCC4)cc3c12 (3D coordinates assigned)
CN(C)CCOCCNc1c2ccccc2[n+](C)c2[nH]c3ccc(OCC[N+]4(C)CCCCC4)cc3c12 (nonaromatic ring conformer: 169.80290701825268 kcal/mol)

>  <smiles>  (6) 
CN(C)CCOCCNc1c2ccccc2[n+](C)c2[nH]c3ccc(OCC[N+]4(C)CCCCC4)cc3c12

>  <score_type>  (6) 
oracle

>  <origin>  (6) 
adg

>  <m_score__min__energy>  (6) 
-9.0999999999999996

>  <m_primary>  (6) 
energy

$$$$
6:0
     RDKit          3D

 31 32  0  0  0  0  0  0  0  0999 V2000
   -3.7260   22.4340  -31.9180 C   0  0  0  0  0  0  0  0  0  0  0  0
   -4.9370   23.1610  -31.4040 C   0  0  0  0  0  0  0  0  0  0  0  0
   -6.2230   22.6430  -31.6400 C   0  0  0  0  0  0  0  0  0  0  0  0
   -7.3530   23.3210  -31.1790 C   0  0  0  0  0  0  0  0  0  0  0  0
   -7.2120   24.5180  -30.4750 C   0  0  0  0  0  0  0  0  0  0  0  0
   -5.9410   25.0490  -30.2450 C   0  0  0  0  0  0  0  0  0  0  0  0
   -4.7990   24.3880  -30.7240 C   0  0  0  0  0  0  0  0  0  0  0  0
   -3.4940   24.9240  -30.4680 N   0  0  0  0  0  0  0  0  0  0  0  0
   -2.7850   24.8110  -29.2260 C   0  0  0  0  0  0  0  0  0  0  0  0
   -1.8950   25.6590  -28.9550 O   0  0  0  0  0  0  0  0  0  0  0  0
   -3.1460   23.7730  -28.2040 C   0  0  0  0  0  0  0  0  0  0  0  0
   -1.6370   23.2120  -27.3510 S   0  0  0  0  0  0  0  0  0  0  0  0
   -1.6570   24.5610  -26.1720 C   0  0  0  0  0  0  0  0  0  0  0  0
   -2.3620   25.6930  -26.3150 N   0  0  0  0  0  0  0  0  0  0  0  0
   -2.0880   26.4370  -25.2530 N   0  0  0  0  0  0  0  0  0  0  0  0
   -1.2360   25.7850  -24.4720 N   0  0  0  0  0  0  0  0  0  0  0  0
   -0.9680   24.6090  -25.0190 N   0  0  0  0  0  0  0  0  0  0  0  0
    0.0040   23.6540  -24.5050 C   0  0  0  0  0  0  0  0  0  0  0  0
   -3.1265   22.0741  -31.0688 H   0  0  0  0  0  0  0  0  0  0  0  0
   -4.0449   21.5779  -32.5307 H   0  0  0  0  0  0  0  0  0  0  0  0
   -3.1203   23.1180  -32.5307 H   0  0  0  0  0  0  0  0  0  0  0  0
   -6.3392   21.6981  -32.1910 H   0  0  0  0  0  0  0  0  0  0  0  0
   -8.3557   22.9114  -31.3708 H   0  0  0  0  0  0  0  0  0  0  0  0
   -8.1030   25.0436  -30.1010 H   0  0  0  0  0  0  0  0  0  0  0  0
   -5.8342   25.9901  -29.6856 H   0  0  0  0  0  0  0  0  0  0  0  0
   -3.8422   24.2065  -27.4709 H   0  0  0  0  0  0  0  0  0  0  0  0
   -3.6253   22.9177  -28.7028 H   0  0  0  0  0  0  0  0  0  0  0  0
   -2.9960   25.9630  -27.0990 H   0  0  0  0  0  0  0  0  0  0  0  0
   -0.0124   23.6701  -23.4052 H   0  0  0  0  0  0  0  0  0  0  0  0
   -0.2502   22.6446  -24.8608 H   0  0  0  0  0  0  0  0  0  0  0  0
    1.0087   23.9260  -24.8608 H   0  0  0  0  0  0  0  0  0  0  0  0
  1  2  1  0
  2  3  2  0
  3  4  1  0
  4  5  2  0
  5  6  1  0
  6  7  2  0
  7  8  1  0
  8  9  1  0
  9 10  2  0
  9 11  1  0
 11 12  1  0
 12 13  1  0
 13 14  2  0
 14 15  1  0
 15 16  2  0
 16 17  1  0
 17 18  1  0
  7  2  1  0
 17 13  1  0
  1 19  1  0
  1 20  1  0
  1 21  1  0
  3 22  1  0
  4 23  1  0
  5 24  1  0
  6 25  1  0
 11 26  1  0
 11 27  1  0
 14 28  1  0
 18 29  1  0
 18 30  1  0
 18 31  1  0
M  CHG  2   8  -1  14   1
M  END
>  <UniqueID>  (7) 
7

>  <SMILES>  (7) 
Cc1ccccc1[N-]C(=O)CSc1[nH+]nnn1C

>  <Energy>  (7) 
70.21575196762876

>  <Genealogy>  (7) 
Cc1ccccc1[N-]C(=O)CSc1[nH+]nnn1C (protonated)
Cc1ccccc1[N-]C(=O)CSc1[nH+]nnn1C (3D coordinates assigned)
Cc1ccccc1[N-]C(=O)CSc1[nH+]nnn1C (optimized conformer: 70.21575196762876 kcal/mol)

>  <smiles>  (7) 
Cc1ccccc1NC(=O)CSc1nnnn1C

>  <score_type>  (7) 
oracle

>  <origin>  (7) 
adg

>  <m_score__min__energy>  (7) 
-8.4199999999999999

>  <m_primary>  (7) 
energy

$$$$
7:0
     RDKit          3D

 66 70  0  0  0  0  0  0  0  0999 V2000
   -5.4360   25.0950  -30.4380 C   0  0  0  0  0  0  0  0  0  0  0  0
   -5.3380   23.7380  -29.7180 C   0  0  0  0  0  0  0  0  0  0  0  0
   -3.9630   23.2850  -29.3500 N   0  0  0  0  0  0  0  0  0  0  0  0
   -3.2110   24.2880  -28.5480 C   0  0  0  0  0  0  0  0  0  0  0  0
   -3.7500   24.5200  -27.1330 C   0  0  0  0  0  0  0  0  0  0  0  0
   -3.8660   21.9120  -28.7790 C   0  0  0  0  0  0  0  0  0  0  0  0
   -2.7380   21.0770  -29.4110 C   0  0  0  0  0  0  0  0  0  0  0  0
   -1.9150   21.8960  -30.2150 O   0  0  0  0  0  0  0  0  0  0  0  0
   -1.5180   21.2130  -31.3890 C   0  0  0  0  0  0  0  0  0  0  0  0
   -2.4180   21.5910  -32.5640 C   0  0  0  0  0  0  0  0  0  0  0  0
   -3.6400   22.0810  -32.0690 O   0  0  0  0  0  0  0  0  0  0  0  0
   -4.5490   21.9470  -33.0710 N   0  0  0  0  0  0  0  0  0  0  0  0
   -5.6290   20.9950  -33.0000 C   0  0  0  0  0  0  0  0  0  0  0  0
   -6.9120   21.3810  -32.5210 C   0  0  0  0  0  0  0  0  0  0  0  0
   -7.2290   22.7210  -32.2130 C   0  0  0  0  0  0  0  0  0  0  0  0
   -8.4980   23.0580  -31.7320 C   0  0  0  0  0  0  0  0  0  0  0  0
   -9.4720   22.0730  -31.5590 C   0  0  0  0  0  0  0  0  0  0  0  0
   -9.1890   20.7450  -31.8810 C   0  0  0  0  0  0  0  0  0  0  0  0
   -7.9230   20.3880  -32.3690 C   0  0  0  0  0  0  0  0  0  0  0  0
   -7.6560   19.0560  -32.7120 C   0  0  0  0  0  0  0  0  0  0  0  0
   -6.3960   18.7450  -33.2070 C   0  0  0  0  0  0  0  0  0  0  0  0
   -5.4310   19.6860  -33.3470 N   0  0  0  0  0  0  0  0  0  0  0  0
   -4.1940   19.0610  -33.8400 C   0  0  0  0  0  0  0  0  0  0  0  0
   -4.5790   17.6190  -33.9590 C   0  0  0  0  0  0  0  0  0  0  0  0
   -3.8000   16.5410  -34.3830 C   0  0  0  0  0  0  0  0  0  0  0  0
   -4.3940   15.2670  -34.4230 C   0  0  0  0  0  0  0  0  0  0  0  0
   -5.7360   15.0910  -34.0170 C   0  0  0  0  0  0  0  0  0  0  0  0
   -6.5060   16.1920  -33.6080 C   0  0  0  0  0  0  0  0  0  0  0  0
   -5.8920   17.4450  -33.5900 C   0  0  0  0  0  0  0  0  0  0  0  0
   -6.2830   13.8050  -34.0300 O   0  0  0  0  0  0  0  0  0  0  0  0
   -5.4510   12.6500  -34.1670 C   0  0  0  0  0  0  0  0  0  0  0  0
   -4.3230   12.9220  -35.1730 C   0  0  0  0  0  0  0  0  0  0  0  0
   -3.6690   14.1560  -34.8650 O   0  0  0  0  0  0  0  0  0  0  0  0
   -5.4943   25.9021  -29.6929 H   0  0  0  0  0  0  0  0  0  0  0  0
   -4.5461   25.2410  -31.0678 H   0  0  0  0  0  0  0  0  0  0  0  0
   -6.3377   25.1116  -31.0678 H   0  0  0  0  0  0  0  0  0  0  0  0
   -5.9281   23.8058  -28.7922 H   0  0  0  0  0  0  0  0  0  0  0  0
   -5.7101   22.9947  -30.4385 H   0  0  0  0  0  0  0  0  0  0  0  0
   -3.4360   23.2630  -30.2560 H   0  0  0  0  0  0  0  0  0  0  0  0
   -2.1687   23.9464  -28.4646 H   0  0  0  0  0  0  0  0  0  0  0  0
   -3.3149   25.2463  -29.0779 H   0  0  0  0  0  0  0  0  0  0  0  0
   -2.9991   24.1968  -26.3970 H   0  0  0  0  0  0  0  0  0  0  0  0
   -3.9639   25.5899  -26.9929 H   0  0  0  0  0  0  0  0  0  0  0  0
   -4.6741   23.9399  -26.9929 H   0  0  0  0  0  0  0  0  0  0  0  0
   -3.6782   21.9941  -27.6983 H   0  0  0  0  0  0  0  0  0  0  0  0
   -4.8151   21.3986  -28.9926 H   0  0  0  0  0  0  0  0  0  0  0  0
   -2.1310   20.6240  -28.6133 H   0  0  0  0  0  0  0  0  0  0  0  0
   -3.1828   20.2903  -30.0382 H   0  0  0  0  0  0  0  0  0  0  0  0
   -0.4787   21.4817  -31.6291 H   0  0  0  0  0  0  0  0  0  0  0  0
   -1.6014   20.1303  -31.2136 H   0  0  0  0  0  0  0  0  0  0  0  0
   -1.9274   22.3680  -33.1686 H   0  0  0  0  0  0  0  0  0  0  0  0
   -2.6005   20.7056  -33.1907 H   0  0  0  0  0  0  0  0  0  0  0  0
   -4.4920   22.6150  -33.8690 H   0  0  0  0  0  0  0  0  0  0  0  0
   -6.4719   23.5067  -32.3524 H   0  0  0  0  0  0  0  0  0  0  0  0
   -8.7301   24.1053  -31.4885 H   0  0  0  0  0  0  0  0  0  0  0  0
  -10.4639   22.3440  -31.1683 H   0  0  0  0  0  0  0  0  0  0  0  0
   -9.9627   19.9739  -31.7515 H   0  0  0  0  0  0  0  0  0  0  0  0
   -8.4237   18.2773  -32.5925 H   0  0  0  0  0  0  0  0  0  0  0  0
   -3.9019   19.4755  -34.8162 H   0  0  0  0  0  0  0  0  0  0  0  0
   -3.3280   19.2289  -33.1828 H   0  0  0  0  0  0  0  0  0  0  0  0
   -2.7500   16.6842  -34.6778 H   0  0  0  0  0  0  0  0  0  0  0  0
   -7.5584   16.0707  -33.3116 H   0  0  0  0  0  0  0  0  0  0  0  0
   -5.0129   12.4003  -33.1894 H   0  0  0  0  0  0  0  0  0  0  0  0
   -6.0612   11.8107  -34.5319 H   0  0  0  0  0  0  0  0  0  0  0  0
   -3.5909   12.1023  -35.1275 H   0  0  0  0  0  0  0  0  0  0  0  0
   -4.7532   12.9879  -36.1832 H   0  0  0  0  0  0  0  0  0  0  0  0
  1  2  1  0
  2  3  1  0
  3  4  1  0
  4  5  1  0
  3  6  1  0
  6  7  1  0
  7  8  1  0
  8  9  1  0
  9 10  1  0
 10 11  1  0
 11 12  1  0
 12 13  1  0
 13 14  2  0
 14 15  1  0
 15 16  2  0
 16 17  1  0
 17 18  2  0
 18 19  1  0
 19 20  2  0
 20 21  1  0
 21 22  2  0
 22 23  1  0
 23 24  1  0
 24 25  2  0
 25 26  1  0
 26 27  2  0
 27 28  1  0
 28 29  2  0
 27 30  1  0
 30 31  1  0
 31 32  1  0
 32 33  1  0
 22 13  1  0
 29 24  1  0
 19 14  1  0
 29 21  1  0
 33 26  1  0
  1 34  1  0
  1 35  1  0
  1 36  1  0
  2 37  1  0
  2 38  1  0
  3 39  1  0
  4 40  1  0
  4 41  1  0
  5 42  1  0
  5 43  1  0
  5 44  1  0
  6 45  1  0
  6 46  1  0
  7 47  1  0
  7 48  1  0
  9 49  1  0
  9 50  1  0
 10 51  1  0
 10 52  1  0
 12 53  1  0
 15 54  1  0
 16 55  1  0
 17 56  1  0
 18 57  1  0
 20 58  1  0
 23 59  1  0
 23 60  1  0
 25 61  1  0
 28 62  1  0
 31 63  1  0
 31 64  1  0
 32 65  1  0
 32 66  1  0
M  CHG  2   3   1  22   1
M  END
>  <UniqueID>  (8) 
8

>  <SMILES>  (8) 
CC[NH+](CC)CCOCCONc1c2ccccc2cc2[n+]1Cc1cc3c(cc1-2)OCCO3

>  <Energy>  (8) 
109.94974445208041

>  <Genealogy>  (8) 
CC[NH+](CC)CCOCCONc1c2ccccc2cc2[n+]1Cc1cc3c(cc1-2)OCCO3 (protonated)
CC[NH+](CC)CCOCCONc1c2ccccc2cc2[n+]1Cc1cc3c(cc1-2)OCCO3 (3D coordinates assigned)
CC[NH+](CC)CCOCCONc1c2ccccc2cc2[n+]1Cc1cc3c(cc1-2)OCCO3 (nonaromatic ring conformer: 109.94974445208041 kcal/mol)

>  <smiles>  (8) 
CCN(CC)CCOCCONc1c2ccccc2cc2[n+]1Cc1cc3c(cc1-2)OCCO3

>  <score_type>  (8) 
oracle

>  <origin>  (8) 
adg

>  <m_score__min__energy>  (8) 
-7.9100000000000001

>  <m_primary>  (8) 
energy

$$$$
8:0
     RDKit          3D

 41 43  0  0  0  0  0  0  0  0999 V2000
   -3.6390   20.7600  -30.2410 C   0  0  0  0  0  0  0  0  0  0  0  0
   -3.7360   21.2130  -31.6280 N   0  0  0  0  0  0  0  0  0  0  0  0
   -3.2150   20.6200  -32.7240 C   0  0  0  0  0  0  0  0  0  0  0  0
   -2.2470   19.1060  -32.7140 S   0  0  0  0  0  0  0  0  0  0  0  0
   -3.6720   18.0060  -33.0450 C   0  0  0  0  0  0  0  0  0  0  0  0
   -4.8630   18.7540  -33.6720 C   0  0  0  0  0  0  0  0  0  0  0  0
   -5.7880   19.2850  -32.6440 N   0  0  0  0  0  0  0  0  0  0  0  0
   -6.3960   18.1890  -31.8380 C   0  0  0  0  0  0  0  0  0  0  0  0
   -7.8020   17.8110  -32.3230 C   0  0  0  0  0  0  0  0  0  0  0  0
   -8.7620   19.0080  -32.2260 C   0  0  0  0  0  0  0  0  0  0  0  0
   -8.0360   20.3570  -32.3600 C   0  0  0  0  0  0  0  0  0  0  0  0
   -6.7830   20.2210  -33.2320 C   0  0  0  0  0  0  0  0  0  0  0  0
   -3.5170   21.2940  -33.8510 N   0  0  0  0  0  0  0  0  0  0  0  0
   -4.2320   22.3410  -33.4700 N   0  0  0  0  0  0  0  0  0  0  0  0
   -4.3530   22.3080  -32.1300 C   0  0  0  0  0  0  0  0  0  0  0  0
   -5.0760   23.3410  -31.3600 C   0  0  0  0  0  0  0  0  0  0  0  0
   -6.4520   23.4530  -31.1760 C   0  0  0  0  0  0  0  0  0  0  0  0
   -6.8160   24.5190  -30.3450 C   0  0  0  0  0  0  0  0  0  0  0  0
   -5.7380   25.2440  -29.8590 C   0  0  0  0  0  0  0  0  0  0  0  0
   -4.3300   24.5530  -30.4630 S   0  0  0  0  0  0  0  0  0  0  0  0
   -3.8206   21.6083  -29.5647 H   0  0  0  0  0  0  0  0  0  0  0  0
   -4.3899   19.9774  -30.0575 H   0  0  0  0  0  0  0  0  0  0  0  0
   -2.6335   20.3535  -30.0575 H   0  0  0  0  0  0  0  0  0  0  0  0
   -3.3514   17.2120  -33.7355 H   0  0  0  0  0  0  0  0  0  0  0  0
   -4.0065   17.5943  -32.0814 H   0  0  0  0  0  0  0  0  0  0  0  0
   -4.4797   19.5925  -34.2720 H   0  0  0  0  0  0  0  0  0  0  0  0
   -5.4217   18.0409  -34.2960 H   0  0  0  0  0  0  0  0  0  0  0  0
   -5.7495   17.3016  -31.9054 H   0  0  0  0  0  0  0  0  0  0  0  0
   -6.4858   18.5473  -30.8019 H   0  0  0  0  0  0  0  0  0  0  0  0
   -7.7439   17.4812  -33.3708 H   0  0  0  0  0  0  0  0  0  0  0  0
   -8.1863   17.0026  -31.6837 H   0  0  0  0  0  0  0  0  0  0  0  0
   -9.5085   18.9277  -33.0299 H   0  0  0  0  0  0  0  0  0  0  0  0
   -9.2332   18.9791  -31.2325 H   0  0  0  0  0  0  0  0  0  0  0  0
   -8.7170   21.0881  -32.8201 H   0  0  0  0  0  0  0  0  0  0  0  0
   -7.7313   20.6925  -31.3577 H   0  0  0  0  0  0  0  0  0  0  0  0
   -7.0798   19.8460  -34.2226 H   0  0  0  0  0  0  0  0  0  0  0  0
   -6.3124   21.2126  -33.3038 H   0  0  0  0  0  0  0  0  0  0  0  0
   -4.6080   23.0650  -34.1220 H   0  0  0  0  0  0  0  0  0  0  0  0
   -7.1809   22.7710  -31.6382 H   0  0  0  0  0  0  0  0  0  0  0  0
   -7.8610   24.7596  -30.0999 H   0  0  0  0  0  0  0  0  0  0  0  0
   -5.7947   26.1186  -29.1943 H   0  0  0  0  0  0  0  0  0  0  0  0
  1  2  1  0
  2  3  1  0
  3  4  1  0
  4  5  1  0
  5  6  1  0
  6  7  1  0
  7  8  1  0
  8  9  1  0
  9 10  1  0
 10 11  1  0
 11 12  1  0
  3 13  2  0
 13 14  1  0
 14 15  2  0
 15 16  1  0
 16 17  2  0
 17 18  1  0
 18 19  2  0
 19 20  1  0
 15  2  1  0
 20 16  1  0
 12  7  1  0
  1 21  1  0
  1 22  1  0
  1 23  1  0
  5 24  1  0
  5 25  1  0
  6 26  1  0
  6 27  1  0
  8 28  1  0
  8 29  1  0
  9 30  1  0
  9 31  1  0
 10 32  1  0
 10 33  1  0
 11 34  1  0
 11 35  1  0
 12 36  1  0
 12 37  1  0
 14 38  1  0
 17 39  1  0
 18 40  1  0
 19 41  1  0
M  CHG  1  14   1
M  END
>  <UniqueID>  (9) 
9

>  <SMILES>  (9) 
Cn1c(SCCN2CCCCC2)n[nH+]c1-c1cccs1

>  <Energy>  (9) 
110.09777700626726

>  <Genealogy>  (9) 
Cn1c(SCCN2CCCCC2)n[nH+]c1-c1cccs1 (protonated)
Cn1c(SCCN2CCCCC2)n[nH+]c1-c1cccs1 (3D coordinates assigned)
Cn1c(SCCN2CCCCC2)n[nH+]c1-c1cccs1 (nonaromatic ring conformer: 110.09777700626726 kcal/mol)

>  <smiles>  (9) 
Cn1c(SCCN2CCCCC2)nnc1-c1cccs1

>  <score_type>  (9) 
oracle

>  <origin>  (9) 
adg

>  <m_score__min__energy>  (9) 
-7.7400000000000002

>  <m_primary>  (9) 
energy

$$$$
9:0
     RDKit          3D

 38 40  0  0  0  0  0  0  0  0999 V2000
   -6.0340   25.3580  -30.2210 C   0  0  0  0  0  0  0  0  0  0  0  0
   -5.6530   24.2050  -31.0290 N   0  0  0  0  0  0  0  0  0  0  0  0
   -4.3970   23.8210  -31.1870 N   0  0  0  0  0  0  0  0  0  0  0  0
   -4.3970   22.6880  -31.9200 C   0  0  0  0  0  0  0  0  0  0  0  0
   -3.1700   21.9240  -32.2500 C   0  0  0  0  0  0  0  0  0  0  0  0
   -3.0970   21.2000  -33.4540 C   0  0  0  0  0  0  0  0  0  0  0  0
   -1.9420   20.4870  -33.7850 C   0  0  0  0  0  0  0  0  0  0  0  0
   -0.8440   20.4900  -32.9200 C   0  0  0  0  0  0  0  0  0  0  0  0
    0.2760   19.8000  -33.2440 F   0  0  0  0  0  0  0  0  0  0  0  0
   -0.9030   21.2080  -31.7230 C   0  0  0  0  0  0  0  0  0  0  0  0
   -2.0570   21.9210  -31.3870 C   0  0  0  0  0  0  0  0  0  0  0  0
   -5.7030   22.3420  -32.2340 C   0  0  0  0  0  0  0  0  0  0  0  0
   -6.4730   23.3160  -31.6310 C   0  0  0  0  0  0  0  0  0  0  0  0
   -7.9790   23.3190  -31.5770 C   0  0  0  0  0  0  0  0  0  0  0  0
   -8.5250   22.0750  -30.9980 N   0  0  0  0  0  0  0  0  0  0  0  0
   -9.1470   21.1810  -31.9950 C   0  0  0  0  0  0  0  0  0  0  0  0
   -8.3050   19.9710  -32.2940 C   0  0  0  0  0  0  0  0  0  0  0  0
   -8.3600   18.7590  -31.6150 C   0  0  0  0  0  0  0  0  0  0  0  0
   -7.4490   17.8130  -32.0990 C   0  0  0  0  0  0  0  0  0  0  0  0
   -6.6590   18.2820  -33.1400 C   0  0  0  0  0  0  0  0  0  0  0  0
   -7.0970   19.8740  -33.4600 S   0  0  0  0  0  0  0  0  0  0  0  0
   -5.9495   25.1023  -29.1545 H   0  0  0  0  0  0  0  0  0  0  0  0
   -5.3671   26.2024  -30.4496 H   0  0  0  0  0  0  0  0  0  0  0  0
   -7.0727   25.6388  -30.4496 H   0  0  0  0  0  0  0  0  0  0  0  0
   -3.9564   21.1952  -34.1405 H   0  0  0  0  0  0  0  0  0  0  0  0
   -1.8966   19.9223  -34.7279 H   0  0  0  0  0  0  0  0  0  0  0  0
   -0.0384   21.2121  -31.0429 H   0  0  0  0  0  0  0  0  0  0  0  0
   -2.0963   22.4835  -30.4425 H   0  0  0  0  0  0  0  0  0  0  0  0
   -6.0477   21.4840  -32.8298 H   0  0  0  0  0  0  0  0  0  0  0  0
   -8.3085   24.1692  -30.9617 H   0  0  0  0  0  0  0  0  0  0  0  0
   -8.3510   23.3996  -32.6090 H   0  0  0  0  0  0  0  0  0  0  0  0
   -7.7970   21.5680  -30.4470 H   0  0  0  0  0  0  0  0  0  0  0  0
   -9.2740   22.3530  -30.3200 H   0  0  0  0  0  0  0  0  0  0  0  0
  -10.1206   20.8456  -31.6082 H   0  0  0  0  0  0  0  0  0  0  0  0
   -9.2554   21.7500  -32.9301 H   0  0  0  0  0  0  0  0  0  0  0  0
   -9.0502   18.5632  -30.7811 H   0  0  0  0  0  0  0  0  0  0  0  0
   -7.3667   16.7940  -31.6929 H   0  0  0  0  0  0  0  0  0  0  0  0
   -5.8800   17.7102  -33.6655 H   0  0  0  0  0  0  0  0  0  0  0  0
  1  2  1  0
  2  3  1  0
  3  4  2  0
  4  5  1  0
  5  6  2  0
  6  7  1  0
  7  8  2  0
  8  9  1  0
  8 10  1  0
 10 11  2  0
  4 12  1  0
 12 13  2  0
 13 14  1  0
 14 15  1  0
 15 16  1  0
 16 17  1  0
 17 18  2  0
 18 19  1  0
 19 20  2  0
 20 21  1  0
 13  2  1  0
 21 17  1  0
 11  5  1  0
  1 22  1  0
  1 23  1  0
  1 24  1  0
  6 25  1  0
  7 26  1  0
 10 27  1  0
 11 28  1  0
 12 29  1  0
 14 30  1  0
 14 31  1  0
 15 32  1  0
 15 33  1  0
 16 34  1  0
 16 35  1  0
 18 36  1  0
 19 37  1  0
 20 38  1  0
M  CHG  1  15   1
M  END
>  <UniqueID>  (10) 
10

>  <SMILES>  (10) 
Cn1nc(-c2ccc(F)cc2)cc1C[NH2+]Cc1cccs1

>  <Energy>  (10) 
93.61995125724964

>  <Genealogy>  (10) 
Cn1nc(-c2ccc(F)cc2)cc1C[NH2+]Cc1cccs1 (protonated)
Cn1nc(-c2ccc(F)cc2)cc1C[NH2+]Cc1cccs1 (3D coordinates assigned)
Cn1nc(-c2ccc(F)cc2)cc1C[NH2+]Cc1cccs1 (optimized conformer: 93.61995125724964 kcal/mol)

>  <smiles>  (10) 
Cn1nc(-c2ccc(F)cc2)cc1CNCc1cccs1

>  <score_type>  (10) 
oracle

>  <origin>  (10) 
adg

>  <m_score__min__energy>  (10) 
-6.6200000000000001

>  <m_primary>  (10) 
energy

$$$$
10:0
     RDKit          3D

 54 56  0  0  0  0  0  0  0  0999 V2000
   -6.4330   25.6350  -29.3730 C   0  0  0  0  0  0  0  0  0  0  0  0
   -5.6850   25.7000  -30.6960 C   0  0  0  0  0  0  0  0  0  0  0  0
   -4.3400   25.3080  -30.4900 O   0  0  0  0  0  0  0  0  0  0  0  0
   -4.0730   24.1620  -31.1980 N   0  0  0  0  0  0  0  0  0  0  0  0
   -4.3200   22.9970  -30.3430 C   0  0  0  0  0  0  0  0  0  0  0  0
   -3.1620   21.9980  -30.4350 C   0  0  0  0  0  0  0  0  0  0  0  0
   -2.4880   22.0100  -31.8170 C   0  0  0  0  0  0  0  0  0  0  0  0
   -3.1170   20.9840  -32.7680 C   0  0  0  0  0  0  0  0  0  0  0  0
   -4.4090   21.4510  -33.2730 N   0  0  0  0  0  0  0  0  0  0  0  0
   -5.5970   20.6930  -33.0070 C   0  0  0  0  0  0  0  0  0  0  0  0
   -5.6320   19.3190  -33.2910 C   0  0  0  0  0  0  0  0  0  0  0  0
   -6.8030   18.5840  -33.0340 C   0  0  0  0  0  0  0  0  0  0  0  0
   -7.8720   19.1690  -32.3880 N   0  0  0  0  0  0  0  0  0  0  0  0
   -8.9570   18.3200  -31.8570 C   0  0  0  0  0  0  0  0  0  0  0  0
   -7.9080   20.5430  -32.2280 C   0  0  0  0  0  0  0  0  0  0  0  0
   -9.0850   21.2170  -31.8130 C   0  0  0  0  0  0  0  0  0  0  0  0
   -9.0980   22.6010  -31.6400 C   0  0  0  0  0  0  0  0  0  0  0  0
   -7.9560   23.3500  -31.8920 C   0  0  0  0  0  0  0  0  0  0  0  0
   -6.7950   22.7220  -32.3390 C   0  0  0  0  0  0  0  0  0  0  0  0
   -6.7550   21.3240  -32.5170 C   0  0  0  0  0  0  0  0  0  0  0  0
   -6.8300   17.1640  -33.5770 C   0  0  0  0  0  0  0  0  0  0  0  0
   -5.5750   16.3880  -33.1460 C   0  0  0  0  0  0  0  0  0  0  0  0
   -4.2690   17.2150  -33.2270 C   0  0  0  0  0  0  0  0  0  0  0  0
   -4.4440   18.5920  -33.8890 C   0  0  0  0  0  0  0  0  0  0  0  0
   -5.7147   25.6974  -28.5422 H   0  0  0  0  0  0  0  0  0  0  0  0
   -7.1403   26.4751  -29.3100 H   0  0  0  0  0  0  0  0  0  0  0  0
   -6.9848   24.6855  -29.3100 H   0  0  0  0  0  0  0  0  0  0  0  0
   -6.1591   25.0215  -31.4205 H   0  0  0  0  0  0  0  0  0  0  0  0
   -5.7147   26.7276  -31.0873 H   0  0  0  0  0  0  0  0  0  0  0  0
   -3.1000   24.1330  -31.5970 H   0  0  0  0  0  0  0  0  0  0  0  0
   -4.4258   23.3311  -29.3003 H   0  0  0  0  0  0  0  0  0  0  0  0
   -5.2412   22.5005  -30.6819 H   0  0  0  0  0  0  0  0  0  0  0  0
   -2.4114   22.2557  -29.6733 H   0  0  0  0  0  0  0  0  0  0  0  0
   -3.5730   20.9910  -30.2702 H   0  0  0  0  0  0  0  0  0  0  0  0
   -2.5936   23.0132  -32.2556 H   0  0  0  0  0  0  0  0  0  0  0  0
   -1.4287   21.7460  -31.6824 H   0  0  0  0  0  0  0  0  0  0  0  0
   -2.4381   20.8194  -33.6177 H   0  0  0  0  0  0  0  0  0  0  0  0
   -3.2783   20.0483  -32.2127 H   0  0  0  0  0  0  0  0  0  0  0  0
   -4.4230   22.1050  -34.0880 H   0  0  0  0  0  0  0  0  0  0  0  0
   -8.9327   18.3390  -30.7574 H   0  0  0  0  0  0  0  0  0  0  0  0
   -9.9268   18.7016  -32.2090 H   0  0  0  0  0  0  0  0  0  0  0  0
   -8.8198   17.2869  -32.2090 H   0  0  0  0  0  0  0  0  0  0  0  0
  -10.0019   20.6392  -31.6246 H   0  0  0  0  0  0  0  0  0  0  0  0
  -10.0174   23.1017  -31.3023 H   0  0  0  0  0  0  0  0  0  0  0  0
   -7.9679   24.4392  -31.7387 H   0  0  0  0  0  0  0  0  0  0  0  0
   -5.8999   23.3237  -32.5553 H   0  0  0  0  0  0  0  0  0  0  0  0
   -7.7222   16.6482  -33.1923 H   0  0  0  0  0  0  0  0  0  0  0  0
   -6.8557   17.2083  -34.6758 H   0  0  0  0  0  0  0  0  0  0  0  0
   -5.7120   16.0576  -32.1058 H   0  0  0  0  0  0  0  0  0  0  0  0
   -5.4641   15.5458  -33.8448 H   0  0  0  0  0  0  0  0  0  0  0  0
   -3.8915   17.3674  -32.2051 H   0  0  0  0  0  0  0  0  0  0  0  0
   -3.5685   16.6452  -33.8552 H   0  0  0  0  0  0  0  0  0  0  0  0
   -3.5347   19.1897  -33.7279 H   0  0  0  0  0  0  0  0  0  0  0  0
   -4.6176   18.4505  -34.9660 H   0  0  0  0  0  0  0  0  0  0  0  0
  1  2  1  0
  2  3  1  0
  3  4  1  0
  4  5  1  0
  5  6  1  0
  6  7  1  0
  7  8  1  0
  8  9  1  0
  9 10  1  0
 10 11  2  0
 11 12  1  0
 12 13  2  0
 13 14  1  0
 13 15  1  0
 15 16  2  0
 16 17  1  0
 17 18  2  0
 18 19  1  0
 19 20  2  0
 12 21  1  0
 21 22  1  0
 22 23  1  0
 23 24  1  0
 20 10  1  0
 24 11  1  0
 20 15  1  0
  1 25  1  0
  1 26  1  0
  1 27  1  0
  2 28  1  0
  2 29  1  0
  4 30  1  0
  5 31  1  0
  5 32  1  0
  6 33  1  0
  6 34  1  0
  7 35  1  0
  7 36  1  0
  8 37  1  0
  8 38  1  0
  9 39  1  0
 14 40  1  0
 14 41  1  0
 14 42  1  0
 16 43  1  0
 17 44  1  0
 18 45  1  0
 19 46  1  0
 21 47  1  0
 21 48  1  0
 22 49  1  0
 22 50  1  0
 23 51  1  0
 23 52  1  0
 24 53  1  0
 24 54  1  0
M  CHG  1  13   1
M  END
>  <UniqueID>  (11) 
11

>  <SMILES>  (11) 
CCONCCCCNc1c2c([n+](C)c3ccccc13)CCCC2

>  <Energy>  (11) 
77.1025621994678

>  <Genealogy>  (11) 
CCONCCCCNc1c2c([n+](C)c3ccccc13)CCCC2 (3D coordinates assigned)
CCONCCCCNc1c2c([n+](C)c3ccccc13)CCCC2 (nonaromatic ring conformer: 77.1025621994678 kcal/mol)

>  <smiles>  (11) 
CCONCCCCNc1c2c([n+](C)c3ccccc13)CCCC2

>  <score_type>  (11) 
oracle

>  <origin>  (11) 
adg

>  <m_score__min__energy>  (11) 
-9.6099999999999994

>  <m_primary>  (11) 
energy

$$$$
11:0
     RDKit          3D

 46 47  0  0  0  0  0  0  0  0999 V2000
   -4.6300   14.5960  -32.2990 C   0  0  0  0  0  0  0  0  0  0  0  0
   -4.5440   15.1730  -33.7150 C   0  0  0  0  0  0  0  0  0  0  0  0
   -5.1670   16.5070  -33.8240 N   0  0  0  0  0  0  0  0  0  0  0  0
   -6.6210   16.5150  -33.5730 C   0  0  0  0  0  0  0  0  0  0  0  0
   -7.1160   17.8620  -33.0920 C   0  0  0  0  0  0  0  0  0  0  0  0
   -8.2530   17.9260  -32.2700 C   0  0  0  0  0  0  0  0  0  0  0  0
   -8.7310   19.1550  -31.8130 C   0  0  0  0  0  0  0  0  0  0  0  0
   -8.0780   20.3360  -32.1710 C   0  0  0  0  0  0  0  0  0  0  0  0
   -8.7320   22.0160  -31.5430 Br  0  0  0  0  0  0  0  0  0  0  0  0
   -6.9470   20.2870  -32.9880 C   0  0  0  0  0  0  0  0  0  0  0  0
   -6.4590   19.0560  -33.4620 C   0  0  0  0  0  0  0  0  0  0  0  0
   -5.3060   18.9940  -34.3170 N   0  0  0  0  0  0  0  0  0  0  0  0
   -3.6760   18.7950  -33.7610 S   0  0  0  0  0  0  0  0  0  0  0  0
   -2.9810   17.7920  -34.6380 O   0  0  0  0  0  0  0  0  0  0  0  0
   -3.6730   18.2950  -32.3450 O   0  0  0  0  0  0  0  0  0  0  0  0
   -2.8130   20.3560  -33.8700 C   0  0  0  0  0  0  0  0  0  0  0  0
   -3.7120   21.5060  -33.3970 C   0  0  0  0  0  0  0  0  0  0  0  0
   -3.8250   21.5670  -31.8660 C   0  0  0  0  0  0  0  0  0  0  0  0
   -4.3120   22.8850  -31.4180 N   0  0  0  0  0  0  0  0  0  0  0  0
   -5.5950   23.2630  -31.7090 C   0  0  0  0  0  0  0  0  0  0  0  0
   -6.0720   24.5110  -31.3170 C   0  0  0  0  0  0  0  0  0  0  0  0
   -5.2170   25.3630  -30.6250 C   0  0  0  0  0  0  0  0  0  0  0  0
   -5.6130   26.5000  -30.2580 O   0  0  0  0  0  0  0  0  0  0  0  0
   -3.9520   24.9650  -30.3460 N   0  0  0  0  0  0  0  0  0  0  0  0
   -3.4930   23.7460  -30.7320 C   0  0  0  0  0  0  0  0  0  0  0  0
   -2.3090   23.4200  -30.4480 O   0  0  0  0  0  0  0  0  0  0  0  0
   -4.5092   15.4063  -31.5649 H   0  0  0  0  0  0  0  0  0  0  0  0
   -5.6096   14.1160  -32.1575 H   0  0  0  0  0  0  0  0  0  0  0  0
   -3.8329   13.8512  -32.1575 H   0  0  0  0  0  0  0  0  0  0  0  0
   -3.4842   15.2551  -33.9981 H   0  0  0  0  0  0  0  0  0  0  0  0
   -5.0919   14.4940  -34.3849 H   0  0  0  0  0  0  0  0  0  0  0  0
   -4.9900   16.8930  -34.7820 H   0  0  0  0  0  0  0  0  0  0  0  0
   -4.6970   17.1480  -33.1440 H   0  0  0  0  0  0  0  0  0  0  0  0
   -7.1422   16.2602  -34.5076 H   0  0  0  0  0  0  0  0  0  0  0  0
   -6.8289   15.7793  -32.7821 H   0  0  0  0  0  0  0  0  0  0  0  0
   -8.7715   16.9990  -31.9838 H   0  0  0  0  0  0  0  0  0  0  0  0
   -9.6229   19.1932  -31.1703 H   0  0  0  0  0  0  0  0  0  0  0  0
   -6.4329   21.2196  -33.2635 H   0  0  0  0  0  0  0  0  0  0  0  0
   -1.9139   20.3167  -33.2374 H   0  0  0  0  0  0  0  0  0  0  0  0
   -2.5336   20.5335  -34.9190 H   0  0  0  0  0  0  0  0  0  0  0  0
   -3.2909   22.4557  -33.7586 H   0  0  0  0  0  0  0  0  0  0  0  0
   -4.7201   21.3330  -33.8019 H   0  0  0  0  0  0  0  0  0  0  0  0
   -4.5272   20.7911  -31.5271 H   0  0  0  0  0  0  0  0  0  0  0  0
   -2.8259   21.4011  -31.4367 H   0  0  0  0  0  0  0  0  0  0  0  0
   -6.2550   22.5748  -32.2574 H   0  0  0  0  0  0  0  0  0  0  0  0
   -7.1028   24.8168  -31.5494 H   0  0  0  0  0  0  0  0  0  0  0  0
  1  2  1  0
  2  3  1  0
  3  4  1  0
  4  5  1  0
  5  6  2  0
  6  7  1  0
  7  8  2  0
  8  9  1  0
  8 10  1  0
 10 11  2  0
 11 12  1  0
 12 13  1  0
 13 14  2  0
 13 15  2  0
 13 16  1  0
 16 17  1  0
 17 18  1  0
 18 19  1  0
 19 20  1  0
 20 21  2  0
 21 22  1  0
 22 23  2  0
 22 24  1  0
 24 25  1  0
 25 26  2  0
 11  5  1  0
 25 19  1  0
  1 27  1  0
  1 28  1  0
  1 29  1  0
  2 30  1  0
  2 31  1  0
  3 32  1  0
  3 33  1  0
  4 34  1  0
  4 35  1  0
  6 36  1  0
  7 37  1  0
 10 38  1  0
 16 39  1  0
 16 40  1  0
 17 41  1  0
 17 42  1  0
 18 43  1  0
 18 44  1  0
 20 45  1  0
 21 46  1  0
M  CHG  3   3   1  12  -1  24  -1
M  END
>  <UniqueID>  (12) 
12

>  <SMILES>  (12) 
CC[NH2+]Cc1ccc(Br)cc1[N-]S(=O)(=O)CCCn1ccc(=O)[n-]c1=O

>  <Energy>  (12) 
39.295637111471244

>  <Genealogy>  (12) 
CC[NH2+]Cc1ccc(Br)cc1[N-]S(=O)(=O)CCCn1ccc(=O)[n-]c1=O (protonated)
CC[NH2+]Cc1ccc(Br)cc1[N-]S(=O)(=O)CCCn1ccc(=O)[n-]c1=O (3D coordinates assigned)
CC[NH2+]Cc1ccc(Br)cc1[N-]S(=O)(=O)CCCn1ccc(=O)[n-]c1=O (optimized conformer: 39.295637111471244 kcal/mol)

>  <smiles>  (12) 
CCNCc1ccc(Br)cc1NS(=O)(=O)CCCn1ccc(=O)[nH]c1=O

>  <score_type>  (12) 
oracle

>  <origin>  (12) 
adg

>  <m_score__min__energy>  (12) 
-8.8900000000000006

>  <m_primary>  (12) 
energy

$$$$
12:0
     RDKit          3D

 59 61  0  0  0  0  0  0  0  0999 V2000
    0.1460   23.2790  -27.4470 C   0  0  0  0  0  0  0  0  0  0  0  0
   -0.1120   23.7320  -28.8830 C   0  0  0  0  0  0  0  0  0  0  0  0
   -0.8790   24.9880  -28.9340 N   0  0  0  0  0  0  0  0  0  0  0  0
   -1.6490   25.2840  -27.7130 C   0  0  0  0  0  0  0  0  0  0  0  0
   -3.0130   24.5770  -27.6620 C   0  0  0  0  0  0  0  0  0  0  0  0
   -3.2060   23.8500  -28.8600 O   0  0  0  0  0  0  0  0  0  0  0  0
   -3.8570   22.6180  -28.6100 C   0  0  0  0  0  0  0  0  0  0  0  0
   -2.9190   21.4120  -28.7830 C   0  0  0  0  0  0  0  0  0  0  0  0
   -2.9030   20.8280  -30.2060 C   0  0  0  0  0  0  0  0  0  0  0  0
   -2.3150   21.7980  -31.2430 C   0  0  0  0  0  0  0  0  0  0  0  0
   -2.3860   21.2450  -32.6740 C   0  0  0  0  0  0  0  0  0  0  0  0
   -3.6270   21.6250  -33.3620 N   0  0  0  0  0  0  0  0  0  0  0  0
   -4.9420   21.3360  -32.8410 C   0  0  0  0  0  0  0  0  0  0  0  0
   -5.6400   22.2910  -32.0770 C   0  0  0  0  0  0  0  0  0  0  0  0
   -4.9910   23.4410  -31.5800 C   0  0  0  0  0  0  0  0  0  0  0  0
   -5.6830   24.3790  -30.8210 C   0  0  0  0  0  0  0  0  0  0  0  0
   -7.0230   24.1760  -30.5140 C   0  0  0  0  0  0  0  0  0  0  0  0
   -7.6750   23.0250  -30.9540 C   0  0  0  0  0  0  0  0  0  0  0  0
   -7.0030   22.0580  -31.7440 C   0  0  0  0  0  0  0  0  0  0  0  0
   -7.6270   20.8950  -32.1550 N   0  0  0  0  0  0  0  0  0  0  0  0
   -9.0970   20.7630  -32.0370 C   0  0  0  0  0  0  0  0  0  0  0  0
   -6.8710   19.8500  -32.6530 C   0  0  0  0  0  0  0  0  0  0  0  0
   -7.4010   18.5390  -32.7760 C   0  0  0  0  0  0  0  0  0  0  0  0
   -6.6420   17.5040  -33.3200 C   0  0  0  0  0  0  0  0  0  0  0  0
   -5.3410   17.7400  -33.7450 C   0  0  0  0  0  0  0  0  0  0  0  0
   -4.7770   19.0050  -33.5960 C   0  0  0  0  0  0  0  0  0  0  0  0
   -5.5210   20.0680  -33.0380 C   0  0  0  0  0  0  0  0  0  0  0  0
   -0.2745   24.0174  -26.7484 H   0  0  0  0  0  0  0  0  0  0  0  0
   -0.3313   22.3022  -27.2793 H   0  0  0  0  0  0  0  0  0  0  0  0
    1.2296   23.1912  -27.2793 H   0  0  0  0  0  0  0  0  0  0  0  0
    0.8540   23.8847  -29.3866 H   0  0  0  0  0  0  0  0  0  0  0  0
   -0.7026   22.9517  -29.3853 H   0  0  0  0  0  0  0  0  0  0  0  0
   -1.5410   24.9330  -29.7420 H   0  0  0  0  0  0  0  0  0  0  0  0
   -1.0580   24.9636  -26.8424 H   0  0  0  0  0  0  0  0  0  0  0  0
   -1.8451   26.3664  -27.7085 H   0  0  0  0  0  0  0  0  0  0  0  0
   -3.0380   23.8875  -26.8053 H   0  0  0  0  0  0  0  0  0  0  0  0
   -3.8124   25.3244  -27.5508 H   0  0  0  0  0  0  0  0  0  0  0  0
   -4.2385   22.6233  -27.5783 H   0  0  0  0  0  0  0  0  0  0  0  0
   -4.6722   22.5157  -29.3414 H   0  0  0  0  0  0  0  0  0  0  0  0
   -1.8971   21.7298  -28.5285 H   0  0  0  0  0  0  0  0  0  0  0  0
   -3.2952   20.6197  -28.1191 H   0  0  0  0  0  0  0  0  0  0  0  0
   -2.2980   19.9094  -30.2018 H   0  0  0  0  0  0  0  0  0  0  0  0
   -3.9460   20.6293  -30.4935 H   0  0  0  0  0  0  0  0  0  0  0  0
   -2.8780   22.7421  -31.2016 H   0  0  0  0  0  0  0  0  0  0  0  0
   -1.2538   21.9480  -30.9955 H   0  0  0  0  0  0  0  0  0  0  0  0
   -1.5315   21.6355  -33.2461 H   0  0  0  0  0  0  0  0  0  0  0  0
   -2.3615   20.1471  -32.6101 H   0  0  0  0  0  0  0  0  0  0  0  0
   -3.5460   22.1850  -34.2410 H   0  0  0  0  0  0  0  0  0  0  0  0
   -3.9238   23.5978  -31.7956 H   0  0  0  0  0  0  0  0  0  0  0  0
   -5.1686   25.2831  -30.4631 H   0  0  0  0  0  0  0  0  0  0  0  0
   -7.5703   24.9249  -29.9227 H   0  0  0  0  0  0  0  0  0  0  0  0
   -8.7291   22.8642  -30.6837 H   0  0  0  0  0  0  0  0  0  0  0  0
   -9.3787   20.7377  -30.9740 H   0  0  0  0  0  0  0  0  0  0  0  0
   -9.5825   21.6212  -32.5247 H   0  0  0  0  0  0  0  0  0  0  0  0
   -9.4219   19.8321  -32.5247 H   0  0  0  0  0  0  0  0  0  0  0  0
   -8.4275   18.3364  -32.4365 H   0  0  0  0  0  0  0  0  0  0  0  0
   -7.0749   16.4971  -33.4130 H   0  0  0  0  0  0  0  0  0  0  0  0
   -4.7555   16.9273  -34.1996 H   0  0  0  0  0  0  0  0  0  0  0  0
   -3.7392   19.1782  -33.9169 H   0  0  0  0  0  0  0  0  0  0  0  0
  1  2  1  0
  2  3  1  0
  3  4  1  0
  4  5  1  0
  5  6  1  0
  6  7  1  0
  7  8  1  0
  8  9  1  0
  9 10  1  0
 10 11  1  0
 11 12  1  0
 12 13  1  0
 13 14  2  0
 14 15  1  0
 15 16  2  0
 16 17  1  0
 17 18  2  0
 18 19  1  0
 19 20  2  0
 20 21  1  0
 20 22  1  0
 22 23  2  0
 23 24  1  0
 24 25  2  0
 25 26  1  0
 26 27  2  0
 27 13  1  0
 19 14  1  0
 27 22  1  0
  1 28  1  0
  1 29  1  0
  1 30  1  0
  2 31  1  0
  2 32  1  0
  3 33  1  0
  4 34  1  0
  4 35  1  0
  5 36  1  0
  5 37  1  0
  7 38  1  0
  7 39  1  0
  8 40  1  0
  8 41  1  0
  9 42  1  0
  9 43  1  0
 10 44  1  0
 10 45  1  0
 11 46  1  0
 11 47  1  0
 12 48  1  0
 15 49  1  0
 16 50  1  0
 17 51  1  0
 18 52  1  0
 21 53  1  0
 21 54  1  0
 21 55  1  0
 23 56  1  0
 24 57  1  0
 25 58  1  0
 26 59  1  0
M  CHG  1  20   1
M  END
>  <UniqueID>  (13) 
13

>  <SMILES>  (13) 
CCNCCOCCCCCNc1c2ccccc2[n+](C)c2ccccc12

>  <Energy>  (13) 
77.96678698833728

>  <Genealogy>  (13) 
CCNCCOCCCCCNc1c2ccccc2[n+](C)c2ccccc12 (3D coordinates assigned)
CCNCCOCCCCCNc1c2ccccc2[n+](C)c2ccccc12 (optimized conformer: 77.96678698833728 kcal/mol)

>  <smiles>  (13) 
CCNCCOCCCCCNc1c2ccccc2[n+](C)c2ccccc12

>  <score_type>  (13) 
oracle

>  <origin>  (13) 
adg

>  <m_score__min__energy>  (13) 
-9.6400000000000006

>  <m_primary>  (13) 
energy

$$$$
13:0
     RDKit          3D

 44 46  0  0  0  0  0  0  0  0999 V2000
   -6.0970   25.4160  -29.7340 C   0  0  0  0  0  0  0  0  0  0  0  0
   -5.3700   25.0300  -31.0130 C   0  0  0  0  0  0  0  0  0  0  0  0
   -3.9810   24.9810  -30.7570 O   0  0  0  0  0  0  0  0  0  0  0  0
   -3.5450   23.6400  -30.6130 C   0  0  0  0  0  0  0  0  0  0  0  0
   -4.3610   22.6860  -31.5060 C   0  0  2  0  0  0  0  0  0  0  0  0
   -5.4360   21.9430  -30.6600 C   0  0  0  0  0  0  0  0  0  0  0  0
   -6.0450   20.7710  -31.3480 N   0  0  1  0  0  0  0  0  0  0  0  0
   -6.8730   21.1730  -32.4730 C   0  0  0  0  0  0  0  0  0  0  0  0
   -7.0720   22.3580  -32.7060 O   0  0  0  0  0  0  0  0  0  0  0  0
   -7.5030   20.1410  -33.3720 C   0  0  0  0  0  0  0  0  0  0  0  0
   -8.8220   19.6490  -32.7650 C   0  0  0  0  0  0  0  0  0  0  0  0
   -8.6750   18.6760  -31.6040 C   0  0  0  0  0  0  0  0  0  0  0  0
   -9.1080   20.1110  -31.3430 C   0  0  0  0  0  0  0  0  0  0  0  0
   -5.0440   19.7440  -31.7410 C   0  0  0  0  0  0  0  0  0  0  0  0
   -3.8330   20.3700  -32.3560 C   0  0  0  0  0  0  0  0  0  0  0  0
   -2.8310   19.8080  -33.1130 C   0  0  0  0  0  0  0  0  0  0  0  0
   -1.9440   20.7860  -33.3920 N   0  0  0  0  0  0  0  0  0  0  0  0
   -0.7730   20.6520  -34.2480 C   0  0  0  0  0  0  0  0  0  0  0  0
   -2.3410   21.9350  -32.8630 N   0  0  0  0  0  0  0  0  0  0  0  0
   -3.4820   21.6820  -32.1920 C   0  0  0  0  0  0  0  0  0  0  0  0
   -5.5020   25.1001  -28.8644 H   0  0  0  0  0  0  0  0  0  0  0  0
   -6.2362   26.5068  -29.7063 H   0  0  0  0  0  0  0  0  0  0  0  0
   -7.0786   24.9203  -29.7063 H   0  0  0  0  0  0  0  0  0  0  0  0
   -5.7176   24.0426  -31.3509 H   0  0  0  0  0  0  0  0  0  0  0  0
   -5.5770   25.7738  -31.7966 H   0  0  0  0  0  0  0  0  0  0  0  0
   -2.4840   23.5760  -30.8963 H   0  0  0  0  0  0  0  0  0  0  0  0
   -3.6872   23.3399  -29.5643 H   0  0  0  0  0  0  0  0  0  0  0  0
   -4.8532   23.2966  -32.2773 H   0  0  0  0  0  0  0  0  0  0  0  0
   -4.9629   21.5914  -29.7313 H   0  0  0  0  0  0  0  0  0  0  0  0
   -6.2484   22.6614  -30.4761 H   0  0  0  0  0  0  0  0  0  0  0  0
   -6.6720   20.3120  -30.6450 H   0  0  0  0  0  0  0  0  0  0  0  0
   -7.7004   20.5885  -34.3573 H   0  0  0  0  0  0  0  0  0  0  0  0
   -6.8157   19.2888  -33.4791 H   0  0  0  0  0  0  0  0  0  0  0  0
   -9.3817   19.6598  -33.7119 H   0  0  0  0  0  0  0  0  0  0  0  0
   -9.3949   17.8534  -31.4814 H   0  0  0  0  0  0  0  0  0  0  0  0
   -7.8693   18.0267  -31.2307 H   0  0  0  0  0  0  0  0  0  0  0  0
  -10.1409   20.3258  -31.0318 H   0  0  0  0  0  0  0  0  0  0  0  0
   -8.7451   20.9288  -30.7030 H   0  0  0  0  0  0  0  0  0  0  0  0
   -4.7403   19.1796  -30.8470 H   0  0  0  0  0  0  0  0  0  0  0  0
   -5.5051   19.0778  -32.4850 H   0  0  0  0  0  0  0  0  0  0  0  0
   -2.7652   18.7572  -33.4315 H   0  0  0  0  0  0  0  0  0  0  0  0
    0.1272   20.5490  -33.6243 H   0  0  0  0  0  0  0  0  0  0  0  0
   -0.8831   19.7606  -34.8830 H   0  0  0  0  0  0  0  0  0  0  0  0
   -0.6789   21.5452  -34.8830 H   0  0  0  0  0  0  0  0  0  0  0  0
  1  2  1  0
  2  3  1  0
  3  4  1  0
  4  5  1  0
  5  6  1  0
  6  7  1  0
  7  8  1  0
  8  9  2  0
  8 10  1  0
 10 11  1  0
 11 12  1  0
 12 13  1  0
  7 14  1  0
 14 15  1  0
 15 16  2  0
 16 17  1  0
 17 18  1  0
 17 19  1  0
 19 20  2  0
 20  5  1  0
 13 11  1  0
 20 15  1  0
  1 21  1  0
  1 22  1  0
  1 23  1  0
  2 24  1  0
  2 25  1  0
  4 26  1  0
  4 27  1  0
  5 28  1  6
  6 29  1  0
  6 30  1  0
  7 31  1  1
 10 32  1  0
 10 33  1  0
 11 34  1  0
 12 35  1  0
 12 36  1  0
 13 37  1  0
 13 38  1  0
 14 39  1  0
 14 40  1  0
 16 41  1  0
 18 42  1  0
 18 43  1  0
 18 44  1  0
M  CHG  1   7   1
M  END
>  <UniqueID>  (14) 
14

>  <SMILES>  (14) 
CCOC[C@@H]1C[N@@H+](C(=O)CC2CC2)Cc2cn(C)nc21

>  <Energy>  (14) 
340.6117800908654

>  <Genealogy>  (14) 
CCOCC1C[NH+](C(=O)CC2CC2)Cc2cn(C)nc21 (protonated)
CCOC[C@@H]1C[N@@H+](C(=O)CC2CC2)Cc2cn(C)nc21 (chirality)
CCOC[C@@H]1C[N@@H+](C(=O)CC2CC2)Cc2cn(C)nc21 (3D coordinates assigned)
CCOC[C@@H]1C[N@@H+](C(=O)CC2CC2)Cc2cn(C)nc21 (nonaromatic ring conformer: 340.6117800908654 kcal/mol)

>  <smiles>  (14) 
CCOCC1CN(C(=O)CC2CC2)Cc2cn(C)nc21

>  <score_type>  (14) 
oracle

>  <origin>  (14) 
adg

>  <m_score__min__energy>  (14) 
-6.2199999999999998

>  <m_primary>  (14) 
energy

$$$$
14:0
     RDKit          3D

 81 84  0  0  0  0  0  0  0  0999 V2000
   -0.7240   20.2180  -29.8750 C   0  0  0  0  0  0  0  0  0  0  0  0
   -0.1740   20.8210  -31.1750 C   0  0  0  0  0  0  0  0  0  0  0  0
   -0.5390   20.0840  -32.4120 N   0  0  0  0  0  0  0  0  0  0  0  0
   -1.1140   18.7320  -32.2730 C   0  0  0  0  0  0  0  0  0  0  0  0
   -1.5830   18.1960  -33.6240 C   0  0  0  0  0  0  0  0  0  0  0  0
   -1.0790   20.9050  -33.5180 C   0  0  0  0  0  0  0  0  0  0  0  0
   -2.5380   21.3640  -33.3310 C   0  0  0  0  0  0  0  0  0  0  0  0
   -3.0630   21.0220  -32.0080 N   0  0  0  0  0  0  0  0  0  0  0  0
   -4.3980   21.4070  -31.6450 C   0  0  0  0  0  0  0  0  0  0  0  0
   -5.4960   20.6640  -32.1070 C   0  0  0  0  0  0  0  0  0  0  0  0
   -5.3140   19.6030  -33.0140 C   0  0  0  0  0  0  0  0  0  0  0  0
   -6.4020   18.8770  -33.4900 C   0  0  0  0  0  0  0  0  0  0  0  0
   -7.6900   19.2140  -33.0920 C   0  0  0  0  0  0  0  0  0  0  0  0
   -7.8960   20.2700  -32.2020 C   0  0  0  0  0  0  0  0  0  0  0  0
   -6.8040   21.0030  -31.6690 C   0  0  0  0  0  0  0  0  0  0  0  0
   -6.9860   22.0360  -30.7640 N   0  0  0  0  0  0  0  0  0  0  0  0
   -8.2980   22.2240  -30.1070 C   0  0  0  0  0  0  0  0  0  0  0  0
   -5.9350   22.8830  -30.4600 C   0  0  0  0  0  0  0  0  0  0  0  0
   -6.1310   24.0950  -29.7520 C   0  0  0  0  0  0  0  0  0  0  0  0
   -5.0520   24.9020  -29.3890 C   0  0  0  0  0  0  0  0  0  0  0  0
   -3.7450   24.5370  -29.7370 C   0  0  0  0  0  0  0  0  0  0  0  0
   -2.6200   25.2920  -29.3650 O   0  0  0  0  0  0  0  0  0  0  0  0
   -1.4990   24.8040  -28.6300 C   0  0  0  0  0  0  0  0  0  0  0  0
   -0.9040   25.9220  -27.7380 C   0  0  0  0  0  0  0  0  0  0  0  0
   -1.2860   25.8670  -26.2880 N   0  0  0  0  0  0  0  0  0  0  0  0
   -2.6800   25.3610  -26.1470 C   0  0  0  0  0  0  0  0  0  0  0  0
   -0.3640   24.8990  -25.6030 C   0  0  0  0  0  0  0  0  0  0  0  0
   -0.1740   25.2190  -24.1050 C   0  0  0  0  0  0  0  0  0  0  0  0
    0.4600   26.5580  -23.8870 N   0  0  0  0  0  0  0  0  0  0  0  0
    1.9280   26.3970  -23.7540 C   0  0  0  0  0  0  0  0  0  0  0  0
   -0.0540   27.1380  -22.6220 C   0  0  0  0  0  0  0  0  0  0  0  0
    0.1790   27.4960  -25.0180 C   0  0  0  0  0  0  0  0  0  0  0  0
   -1.1940   27.2300  -25.6630 C   0  0  0  0  0  0  0  0  0  0  0  0
   -3.5380   23.3770  -30.4830 C   0  0  0  0  0  0  0  0  0  0  0  0
   -4.6150   22.5530  -30.8650 C   0  0  0  0  0  0  0  0  0  0  0  0
   -0.2635   20.7229  -29.0130 H   0  0  0  0  0  0  0  0  0  0  0  0
   -1.8149   20.3547  -29.8402 H   0  0  0  0  0  0  0  0  0  0  0  0
   -0.4878   19.1442  -29.8402 H   0  0  0  0  0  0  0  0  0  0  0  0
   -0.5576   21.8481  -31.2639 H   0  0  0  0  0  0  0  0  0  0  0  0
    0.9221   20.7695  -31.0984 H   0  0  0  0  0  0  0  0  0  0  0  0
   -0.3490   18.0559  -31.8636 H   0  0  0  0  0  0  0  0  0  0  0  0
   -1.9804   18.7870  -31.5975 H   0  0  0  0  0  0  0  0  0  0  0  0
   -2.2997   17.3769  -33.4647 H   0  0  0  0  0  0  0  0  0  0  0  0
   -2.0695   19.0040  -34.1902 H   0  0  0  0  0  0  0  0  0  0  0  0
   -0.7176   17.8211  -34.1902 H   0  0  0  0  0  0  0  0  0  0  0  0
   -0.4488   21.8010  -33.6180 H   0  0  0  0  0  0  0  0  0  0  0  0
   -1.0687   20.2643  -34.4121 H   0  0  0  0  0  0  0  0  0  0  0  0
   -2.5845   22.4556  -33.4586 H   0  0  0  0  0  0  0  0  0  0  0  0
   -3.1527   20.8451  -34.0813 H   0  0  0  0  0  0  0  0  0  0  0  0
   -2.5770   20.3230  -31.4000 H   0  0  0  0  0  0  0  0  0  0  0  0
   -4.2993   19.3444  -33.3508 H   0  0  0  0  0  0  0  0  0  0  0  0
   -6.2422   18.0364  -34.1813 H   0  0  0  0  0  0  0  0  0  0  0  0
   -8.5497   18.6473  -33.4791 H   0  0  0  0  0  0  0  0  0  0  0  0
   -8.9218   20.5382  -31.9091 H   0  0  0  0  0  0  0  0  0  0  0  0
   -8.1673   22.2053  -29.0150 H   0  0  0  0  0  0  0  0  0  0  0  0
   -8.7238   23.1923  -30.4088 H   0  0  0  0  0  0  0  0  0  0  0  0
   -8.9786   21.4142  -30.4088 H   0  0  0  0  0  0  0  0  0  0  0  0
   -7.1518   24.4050  -29.4839 H   0  0  0  0  0  0  0  0  0  0  0  0
   -5.2288   25.8304  -28.8262 H   0  0  0  0  0  0  0  0  0  0  0  0
   -1.8207   23.9664  -27.9936 H   0  0  0  0  0  0  0  0  0  0  0  0
   -0.7284   24.4683  -29.3395 H   0  0  0  0  0  0  0  0  0  0  0  0
    0.1923   25.8583  -27.8018 H   0  0  0  0  0  0  0  0  0  0  0  0
   -1.3179   26.8659  -28.1225 H   0  0  0  0  0  0  0  0  0  0  0  0
   -2.9308   25.2699  -25.0799 H   0  0  0  0  0  0  0  0  0  0  0  0
   -3.3757   26.0640  -26.6285 H   0  0  0  0  0  0  0  0  0  0  0  0
   -2.7628   24.3755  -26.6285 H   0  0  0  0  0  0  0  0  0  0  0  0
   -0.7836   23.8865  -25.6965 H   0  0  0  0  0  0  0  0  0  0  0  0
    0.6204   24.9766  -26.0877 H   0  0  0  0  0  0  0  0  0  0  0  0
   -1.1580   25.2090  -23.6134 H   0  0  0  0  0  0  0  0  0  0  0  0
    0.4947   24.4562  -23.6796 H   0  0  0  0  0  0  0  0  0  0  0  0
    2.1985   26.3673  -22.6882 H   0  0  0  0  0  0  0  0  0  0  0  0
    2.2393   25.4593  -24.2376 H   0  0  0  0  0  0  0  0  0  0  0  0
    2.4352   27.2449  -24.2376 H   0  0  0  0  0  0  0  0  0  0  0  0
    0.4055   26.6195  -21.7676 H   0  0  0  0  0  0  0  0  0  0  0  0
    0.1979   28.2080  -22.5802 H   0  0  0  0  0  0  0  0  0  0  0  0
   -1.1465   27.0166  -22.5802 H   0  0  0  0  0  0  0  0  0  0  0  0
    0.1979   28.5275  -24.6365 H   0  0  0  0  0  0  0  0  0  0  0  0
    0.9504   27.3409  -25.7867 H   0  0  0  0  0  0  0  0  0  0  0  0
   -1.9696   27.3148  -24.8876 H   0  0  0  0  0  0  0  0  0  0  0  0
   -1.3354   27.9725  -26.4622 H   0  0  0  0  0  0  0  0  0  0  0  0
   -2.5152   23.1004  -30.7785 H   0  0  0  0  0  0  0  0  0  0  0  0
  1  2  1  0
  2  3  1  0
  3  4  1  0
  4  5  1  0
  3  6  1  0
  6  7  1  0
  7  8  1  0
  8  9  1  0
  9 10  2  0
 10 11  1  0
 11 12  2  0
 12 13  1  0
 13 14  2  0
 14 15  1  0
 15 16  2  0
 16 17  1  0
 16 18  1  0
 18 19  2  0
 19 20  1  0
 20 21  2  0
 21 22  1  0
 22 23  1  0
 23 24  1  0
 24 25  1  0
 25 26  1  0
 25 27  1  0
 27 28  1  0
 28 29  1  0
 29 30  1  0
 29 31  1  0
 29 32  1  0
 32 33  1  0
 21 34  1  0
 34 35  2  0
 35  9  1  0
 15 10  1  0
 35 18  1  0
 33 25  1  0
  1 36  1  0
  1 37  1  0
  1 38  1  0
  2 39  1  0
  2 40  1  0
  4 41  1  0
  4 42  1  0
  5 43  1  0
  5 44  1  0
  5 45  1  0
  6 46  1  0
  6 47  1  0
  7 48  1  0
  7 49  1  0
  8 50  1  0
 11 51  1  0
 12 52  1  0
 13 53  1  0
 14 54  1  0
 17 55  1  0
 17 56  1  0
 17 57  1  0
 19 58  1  0
 20 59  1  0
 23 60  1  0
 23 61  1  0
 24 62  1  0
 24 63  1  0
 26 64  1  0
 26 65  1  0
 26 66  1  0
 27 67  1  0
 27 68  1  0
 28 69  1  0
 28 70  1  0
 30 71  1  0
 30 72  1  0
 30 73  1  0
 31 74  1  0
 31 75  1  0
 31 76  1  0
 32 77  1  0
 32 78  1  0
 33 79  1  0
 33 80  1  0
 34 81  1  0
M  CHG  3  16   1  25   1  29   1
M  END
>  <UniqueID>  (15) 
15

>  <SMILES>  (15) 
CCN(CC)CCNc1c2ccccc2[n+](C)c2ccc(OCC[N+]3(C)CC[N+](C)(C)CC3)cc12

>  <Energy>  (15) 
141.89094358033657

>  <Genealogy>  (15) 
CCN(CC)CCNc1c2ccccc2[n+](C)c2ccc(OCC[N+]3(C)CC[N+](C)(C)CC3)cc12 (3D coordinates assigned)
CCN(CC)CCNc1c2ccccc2[n+](C)c2ccc(OCC[N+]3(C)CC[N+](C)(C)CC3)cc12 (nonaromatic ring conformer: 141.89094358033657 kcal/mol)

>  <smiles>  (15) 
CCN(CC)CCNc1c2ccccc2[n+](C)c2ccc(OCC[N+]3(C)CC[N+](C)(C)CC3)cc12

>  <score_type>  (15) 
oracle

>  <origin>  (15) 
adg

>  <m_score__min__energy>  (15) 
-7.9800000000000004

>  <m_primary>  (15) 
energy

$$$$
15:0
     RDKit          3D

 46 48  0  0  0  0  0  0  0  0999 V2000
   -1.7720   20.6420  -31.5790 C   0  0  0  0  0  0  0  0  0  0  0  0
   -2.8930   21.3290  -30.9140 N   0  0  0  0  0  0  0  0  0  0  0  0
   -3.0800   20.7630  -29.5690 C   0  0  0  0  0  0  0  0  0  0  0  0
   -2.6470   22.7860  -30.8260 C   0  0  0  0  0  0  0  0  0  0  0  0
   -3.2790   23.3660  -29.5500 C   0  0  0  0  0  0  0  0  0  0  0  0
   -3.9930   24.7020  -29.8070 C   0  0  0  0  0  0  0  0  0  0  0  0
   -4.5580   24.7720  -31.1680 N   0  0  0  0  0  0  0  0  0  0  0  0
   -6.0300   24.7840  -31.1820 C   0  0  0  0  0  0  0  0  0  0  0  0
   -6.5740   23.4390  -31.5620 C   0  0  0  0  0  0  0  0  0  0  0  0
   -5.7400   22.4810  -32.1730 C   0  0  0  0  0  0  0  0  0  0  0  0
   -6.2970   21.2360  -32.4430 C   0  0  0  0  0  0  0  0  0  0  0  0
   -5.7640   20.0980  -33.0040 C   0  0  0  0  0  0  0  0  0  0  0  0
   -4.4900   19.8230  -33.4960 C   0  0  0  0  0  0  0  0  0  0  0  0
   -4.2580   18.5410  -34.0260 C   0  0  0  0  0  0  0  0  0  0  0  0
   -5.2920   17.5800  -34.0570 C   0  0  0  0  0  0  0  0  0  0  0  0
   -6.5700   17.8860  -33.5520 C   0  0  0  0  0  0  0  0  0  0  0  0
   -6.7800   19.1620  -33.0200 C   0  0  0  0  0  0  0  0  0  0  0  0
   -7.9160   19.6650  -32.4770 N   0  0  0  0  0  0  0  0  0  0  0  0
   -9.2190   19.0080  -32.3720 C   0  0  0  0  0  0  0  0  0  0  0  0
   -7.6070   20.9430  -32.1420 C   0  0  0  0  0  0  0  0  0  0  0  0
   -8.4240   21.9130  -31.5620 C   0  0  0  0  0  0  0  0  0  0  0  0
   -7.8820   23.1340  -31.2830 N   0  0  0  0  0  0  0  0  0  0  0  0
   -1.0939   20.2264  -30.8190 H   0  0  0  0  0  0  0  0  0  0  0  0
   -2.1619   19.8275  -32.2072 H   0  0  0  0  0  0  0  0  0  0  0  0
   -1.2233   21.3591  -32.2072 H   0  0  0  0  0  0  0  0  0  0  0  0
   -2.8292   21.5222  -28.8136 H   0  0  0  0  0  0  0  0  0  0  0  0
   -4.1281   20.4535  -29.4439 H   0  0  0  0  0  0  0  0  0  0  0  0
   -2.4225   19.8900  -29.4439 H   0  0  0  0  0  0  0  0  0  0  0  0
   -1.5625   22.9689  -30.8075 H   0  0  0  0  0  0  0  0  0  0  0  0
   -3.1009   23.2755  -31.7003 H   0  0  0  0  0  0  0  0  0  0  0  0
   -4.0104   22.6439  -29.1580 H   0  0  0  0  0  0  0  0  0  0  0  0
   -2.4697   23.5509  -28.8283 H   0  0  0  0  0  0  0  0  0  0  0  0
   -4.8084   24.8154  -29.0774 H   0  0  0  0  0  0  0  0  0  0  0  0
   -3.2527   25.5091  -29.7037 H   0  0  0  0  0  0  0  0  0  0  0  0
   -4.2410   25.6740  -31.5920 H   0  0  0  0  0  0  0  0  0  0  0  0
   -6.3973   25.0508  -30.1800 H   0  0  0  0  0  0  0  0  0  0  0  0
   -6.3678   25.5217  -31.9248 H   0  0  0  0  0  0  0  0  0  0  0  0
   -4.6938   22.7085  -32.4253 H   0  0  0  0  0  0  0  0  0  0  0  0
   -3.6938   20.5815  -33.4709 H   0  0  0  0  0  0  0  0  0  0  0  0
   -3.2632   18.2850  -34.4195 H   0  0  0  0  0  0  0  0  0  0  0  0
   -5.0972   16.5832  -34.4795 H   0  0  0  0  0  0  0  0  0  0  0  0
   -7.3803   17.1425  -33.5753 H   0  0  0  0  0  0  0  0  0  0  0  0
   -9.4791   18.8769  -31.3113 H   0  0  0  0  0  0  0  0  0  0  0  0
   -9.9832   19.6286  -32.8629 H   0  0  0  0  0  0  0  0  0  0  0  0
   -9.1744   18.0246  -32.8629 H   0  0  0  0  0  0  0  0  0  0  0  0
   -9.4789   21.6993  -31.3351 H   0  0  0  0  0  0  0  0  0  0  0  0
  1  2  1  0
  2  3  1  0
  2  4  1  0
  4  5  1  0
  5  6  1  0
  6  7  1  0
  7  8  1  0
  8  9  1  0
  9 10  2  0
 10 11  1  0
 11 12  1  0
 12 13  2  0
 13 14  1  0
 14 15  2  0
 15 16  1  0
 16 17  2  0
 17 18  1  0
 18 19  1  0
 18 20  1  0
 20 21  1  0
 21 22  2  0
 22  9  1  0
 20 11  2  0
 17 12  1  0
  1 23  1  0
  1 24  1  0
  1 25  1  0
  3 26  1  0
  3 27  1  0
  3 28  1  0
  4 29  1  0
  4 30  1  0
  5 31  1  0
  5 32  1  0
  6 33  1  0
  6 34  1  0
  7 35  1  0
  8 36  1  0
  8 37  1  0
 10 38  1  0
 13 39  1  0
 14 40  1  0
 15 41  1  0
 16 42  1  0
 19 43  1  0
 19 44  1  0
 19 45  1  0
 21 46  1  0
M  END
>  <UniqueID>  (16) 
16

>  <SMILES>  (16) 
CN(C)CCCNCc1cc2c3ccccc3n(C)c2cn1

>  <Energy>  (16) 
84.56943735723019

>  <Genealogy>  (16) 
CN(C)CCCNCc1cc2c3ccccc3n(C)c2cn1 (3D coordinates assigned)
CN(C)CCCNCc1cc2c3ccccc3n(C)c2cn1 (optimized conformer: 84.56943735723019 kcal/mol)

>  <smiles>  (16) 
CN(C)CCCNCc1cc2c3ccccc3n(C)c2cn1

>  <score_type>  (16) 
oracle

>  <origin>  (16) 
adg

>  <m_score__min__energy>  (16) 
-8.0999999999999996

>  <m_primary>  (16) 
energy

$$$$
16:0
     RDKit          3D

 55 58  0  0  0  0  0  0  0  0999 V2000
   -0.5110   23.2730  -29.0500 C   0  0  0  0  0  0  0  0  0  0  0  0
   -1.7060   24.1860  -28.7920 C   0  0  0  0  0  0  0  0  0  0  0  0
   -2.9820   23.4430  -28.9130 N   0  0  0  0  0  0  0  0  0  0  0  0
   -4.0970   24.1370  -28.2290 C   0  0  0  0  0  0  0  0  0  0  0  0
   -5.2280   24.5690  -29.1750 C   0  0  0  0  0  0  0  0  0  0  0  0
   -2.8780   22.0160  -28.5200 C   0  0  0  0  0  0  0  0  0  0  0  0
   -3.2920   21.0890  -29.6750 C   0  0  0  0  0  0  0  0  0  0  0  0
   -4.2170   21.7560  -30.6100 N   0  0  0  0  0  0  0  0  0  0  0  0
   -4.3040   21.0150  -31.8630 C   0  0  0  0  0  0  0  0  0  0  0  0
   -3.1350   20.7260  -32.6090 C   0  0  0  0  0  0  0  0  0  0  0  0
   -1.9830   21.5370  -32.5180 C   0  0  0  0  0  0  0  0  0  0  0  0
   -0.8460   21.2500  -33.2700 C   0  0  0  0  0  0  0  0  0  0  0  0
   -0.8360   20.1590  -34.1320 C   0  0  0  0  0  0  0  0  0  0  0  0
   -1.9560   19.3360  -34.2320 C   0  0  0  0  0  0  0  0  0  0  0  0
   -3.1210   19.5890  -33.4630 C   0  0  0  0  0  0  0  0  0  0  0  0
   -4.2080   18.7390  -33.4940 N   0  0  0  0  0  0  0  0  0  0  0  0
   -4.1260   17.4520  -34.2190 C   0  0  0  0  0  0  0  0  0  0  0  0
   -5.3890   19.1110  -32.8960 C   0  0  0  0  0  0  0  0  0  0  0  0
   -6.4580   18.2680  -32.9080 N   0  0  0  0  0  0  0  0  0  0  0  0
   -7.6510   18.5740  -32.3470 C   0  0  0  0  0  0  0  0  0  0  0  0
   -8.5670   17.7080  -32.3440 O   0  0  0  0  0  0  0  0  0  0  0  0
   -7.8670   19.8570  -31.8240 C   0  0  0  0  0  0  0  0  0  0  0  0
   -9.1280   20.2300  -31.3240 C   0  0  0  0  0  0  0  0  0  0  0  0
   -9.3820   21.5550  -30.9800 C   0  0  0  0  0  0  0  0  0  0  0  0
   -8.4130   22.5290  -31.2020 C   0  0  0  0  0  0  0  0  0  0  0  0
   -7.1500   22.1790  -31.6890 C   0  0  0  0  0  0  0  0  0  0  0  0
   -6.0700   23.6340  -32.3440 Br  0  0  0  0  0  0  0  0  0  0  0  0
   -6.8120   20.8070  -31.8740 C   0  0  0  0  0  0  0  0  0  0  0  0
   -5.5050   20.3530  -32.2270 C   0  0  0  0  0  0  0  0  0  0  0  0
   -0.0845   22.9471  -28.0898 H   0  0  0  0  0  0  0  0  0  0  0  0
   -0.8388   22.3931  -29.6231 H   0  0  0  0  0  0  0  0  0  0  0  0
    0.2518   23.8205  -29.6231 H   0  0  0  0  0  0  0  0  0  0  0  0
   -1.6275   24.6019  -27.7767 H   0  0  0  0  0  0  0  0  0  0  0  0
   -1.6984   24.9909  -29.5417 H   0  0  0  0  0  0  0  0  0  0  0  0
   -4.5172   23.4577  -27.4727 H   0  0  0  0  0  0  0  0  0  0  0  0
   -3.6813   25.0535  -27.7849 H   0  0  0  0  0  0  0  0  0  0  0  0
   -6.0944   24.8999  -28.5835 H   0  0  0  0  0  0  0  0  0  0  0  0
   -4.8792   25.3972  -29.8094 H   0  0  0  0  0  0  0  0  0  0  0  0
   -5.5201   23.7192  -29.8094 H   0  0  0  0  0  0  0  0  0  0  0  0
   -1.8374   21.7962  -28.2390 H   0  0  0  0  0  0  0  0  0  0  0  0
   -3.5550   21.8384  -27.6714 H   0  0  0  0  0  0  0  0  0  0  0  0
   -2.3904   20.7816  -30.2251 H   0  0  0  0  0  0  0  0  0  0  0  0
   -3.8098   20.2188  -29.2453 H   0  0  0  0  0  0  0  0  0  0  0  0
   -5.1410   21.8050  -30.1310 H   0  0  0  0  0  0  0  0  0  0  0  0
   -3.9080   22.7370  -30.7900 H   0  0  0  0  0  0  0  0  0  0  0  0
   -1.9832   22.4068  -31.8446 H   0  0  0  0  0  0  0  0  0  0  0  0
    0.0458   21.8878  -33.1817 H   0  0  0  0  0  0  0  0  0  0  0  0
    0.0579   19.9451  -34.7363 H   0  0  0  0  0  0  0  0  0  0  0  0
   -1.9365   18.4764  -34.9181 H   0  0  0  0  0  0  0  0  0  0  0  0
   -4.0734   16.6258  -33.4947 H   0  0  0  0  0  0  0  0  0  0  0  0
   -5.0182   17.3295  -34.8507 H   0  0  0  0  0  0  0  0  0  0  0  0
   -3.2255   17.4437  -34.8507 H   0  0  0  0  0  0  0  0  0  0  0  0
   -9.9162   19.4720  -31.2044 H   0  0  0  0  0  0  0  0  0  0  0  0
  -10.3482   21.8319  -30.5329 H   0  0  0  0  0  0  0  0  0  0  0  0
   -8.6429   23.5841  -30.9924 H   0  0  0  0  0  0  0  0  0  0  0  0
  1  2  1  0
  2  3  1  0
  3  4  1  0
  4  5  1  0
  3  6  1  0
  6  7  1  0
  7  8  1  0
  8  9  1  0
  9 10  2  0
 10 11  1  0
 11 12  2  0
 12 13  1  0
 13 14  2  0
 14 15  1  0
 15 16  2  0
 16 17  1  0
 16 18  1  0
 18 19  1  0
 19 20  1  0
 20 21  2  0
 20 22  1  0
 22 23  2  0
 23 24  1  0
 24 25  2  0
 25 26  1  0
 26 27  1  0
 26 28  2  0
 28 29  1  0
 29  9  1  0
 15 10  1  0
 29 18  2  0
 28 22  1  0
  1 30  1  0
  1 31  1  0
  1 32  1  0
  2 33  1  0
  2 34  1  0
  4 35  1  0
  4 36  1  0
  5 37  1  0
  5 38  1  0
  5 39  1  0
  6 40  1  0
  6 41  1  0
  7 42  1  0
  7 43  1  0
  8 44  1  0
  8 45  1  0
 11 46  1  0
 12 47  1  0
 13 48  1  0
 14 49  1  0
 17 50  1  0
 17 51  1  0
 17 52  1  0
 23 53  1  0
 24 54  1  0
 25 55  1  0
M  CHG  3   8   1  16   1  19  -1
M  END
>  <UniqueID>  (17) 
17

>  <SMILES>  (17) 
CCN(CC)CC[NH2+]c1c2ccccc2[n+](C)c2[n-]c(=O)c3cccc(Br)c3c12

>  <Energy>  (17) 
108.89147794001482

>  <Genealogy>  (17) 
CCN(CC)CC[NH2+]c1c2ccccc2[n+](C)c2[n-]c(=O)c3cccc(Br)c3c12 (protonated)
CCN(CC)CC[NH2+]c1c2ccccc2[n+](C)c2[n-]c(=O)c3cccc(Br)c3c12 (3D coordinates assigned)
CCN(CC)CC[NH2+]c1c2ccccc2[n+](C)c2[n-]c(=O)c3cccc(Br)c3c12 (optimized conformer: 108.89147794001482 kcal/mol)

>  <smiles>  (17) 
CCN(CC)CCNc1c2ccccc2[n+](C)c2[nH]c(=O)c3cccc(Br)c3c12

>  <score_type>  (17) 
oracle

>  <origin>  (17) 
adg

>  <m_score__min__energy>  (17) 
-8.9700000000000006

>  <m_primary>  (17) 
energy

$$$$
17:0
     RDKit          3D

 60 62  0  0  0  0  0  0  0  0999 V2000
   -2.5420   24.2410  -29.3280 C   0  0  0  0  0  0  0  0  0  0  0  0
   -3.8510   23.9040  -29.9110 N   0  0  0  0  0  0  0  0  0  0  0  0
   -4.5040   22.8190  -29.1640 C   0  0  0  0  0  0  0  0  0  0  0  0
   -4.7190   25.0890  -30.0970 C   0  0  0  0  0  0  0  0  0  0  0  0
   -5.7960   24.9230  -31.1890 C   0  0  0  0  0  0  0  0  0  0  0  0
   -5.7070   23.5870  -31.7820 N   0  0  0  0  0  0  0  0  0  0  0  0
   -6.8660   22.8080  -32.1110 C   0  0  0  0  0  0  0  0  0  0  0  0
   -8.1130   23.4230  -31.9320 C   0  0  0  0  0  0  0  0  0  0  0  0
   -9.2820   22.6860  -31.9660 C   0  0  0  0  0  0  0  0  0  0  0  0
   -9.2270   21.3100  -32.1020 C   0  0  0  0  0  0  0  0  0  0  0  0
   -7.9930   20.6370  -32.2750 C   0  0  0  0  0  0  0  0  0  0  0  0
   -6.7980   21.4060  -32.4240 C   0  0  0  0  0  0  0  0  0  0  0  0
   -5.6290   20.7450  -32.9350 C   0  0  0  0  0  0  0  0  0  0  0  0
   -4.4460   21.4870  -33.3520 N   0  0  0  0  0  0  0  0  0  0  0  0
   -3.4540   21.5830  -32.2600 C   0  0  0  0  0  0  0  0  0  0  0  0
   -2.2960   20.5950  -32.4640 C   0  0  0  0  0  0  0  0  0  0  0  0
   -1.9190   20.5090  -33.8930 N   0  0  0  0  0  0  0  0  0  0  0  0
   -1.4630   19.1510  -34.2280 C   0  0  0  0  0  0  0  0  0  0  0  0
   -0.8550   21.4770  -34.2160 C   0  0  0  0  0  0  0  0  0  0  0  0
   -5.6950   19.3420  -33.1990 C   0  0  0  0  0  0  0  0  0  0  0  0
   -4.6090   18.6370  -33.7850 C   0  0  0  0  0  0  0  0  0  0  0  0
   -4.6900   17.2760  -34.0590 C   0  0  0  0  0  0  0  0  0  0  0  0
   -5.8540   16.5770  -33.7810 C   0  0  0  0  0  0  0  0  0  0  0  0
   -5.9650   14.8690  -34.1690 Cl  0  0  0  0  0  0  0  0  0  0  0  0
   -6.9390   17.2370  -33.2120 C   0  0  0  0  0  0  0  0  0  0  0  0
   -6.8770   18.6180  -32.8880 C   0  0  0  0  0  0  0  0  0  0  0  0
   -7.9560   19.2610  -32.3250 N   0  0  0  0  0  0  0  0  0  0  0  0
   -9.0700   18.4740  -31.7490 C   0  0  0  0  0  0  0  0  0  0  0  0
   -2.6137   24.2225  -28.2305 H   0  0  0  0  0  0  0  0  0  0  0  0
   -1.7931   23.5064  -29.6589 H   0  0  0  0  0  0  0  0  0  0  0  0
   -2.2410   25.2459  -29.6589 H   0  0  0  0  0  0  0  0  0  0  0  0
   -4.3951   22.9999  -28.0844 H   0  0  0  0  0  0  0  0  0  0  0  0
   -5.5722   22.7858  -29.4243 H   0  0  0  0  0  0  0  0  0  0  0  0
   -4.0332   21.8595  -29.4243 H   0  0  0  0  0  0  0  0  0  0  0  0
   -5.2252   25.2982  -29.1431 H   0  0  0  0  0  0  0  0  0  0  0  0
   -4.0642   25.9105  -30.4232 H   0  0  0  0  0  0  0  0  0  0  0  0
   -6.7919   25.0573  -30.7417 H   0  0  0  0  0  0  0  0  0  0  0  0
   -5.6341   25.6773  -31.9731 H   0  0  0  0  0  0  0  0  0  0  0  0
   -4.7740   23.1280  -31.8310 H   0  0  0  0  0  0  0  0  0  0  0  0
   -8.1620   24.5087  -31.7619 H   0  0  0  0  0  0  0  0  0  0  0  0
  -10.2549   23.1928  -31.8850 H   0  0  0  0  0  0  0  0  0  0  0  0
  -10.1598   20.7277  -32.0752 H   0  0  0  0  0  0  0  0  0  0  0  0
   -4.0220   21.0240  -34.1870 H   0  0  0  0  0  0  0  0  0  0  0  0
   -4.6790   22.4270  -33.7270 H   0  0  0  0  0  0  0  0  0  0  0  0
   -3.0506   22.6060  -32.2323 H   0  0  0  0  0  0  0  0  0  0  0  0
   -3.9569   21.3351  -31.3137 H   0  0  0  0  0  0  0  0  0  0  0  0
   -1.4264   20.9345  -31.8821 H   0  0  0  0  0  0  0  0  0  0  0  0
   -2.6202   19.5997  -32.1261 H   0  0  0  0  0  0  0  0  0  0  0  0
   -1.2742   18.5887  -33.3016 H   0  0  0  0  0  0  0  0  0  0  0  0
   -2.2384   18.6386  -34.8164 H   0  0  0  0  0  0  0  0  0  0  0  0
   -0.5355   19.2104  -34.8164 H   0  0  0  0  0  0  0  0  0  0  0  0
   -0.4223   21.8707  -33.2844 H   0  0  0  0  0  0  0  0  0  0  0  0
   -0.0700   20.9770  -34.8023 H   0  0  0  0  0  0  0  0  0  0  0  0
   -1.2788   22.3056  -34.8023 H   0  0  0  0  0  0  0  0  0  0  0  0
   -3.6836   19.1801  -34.0273 H   0  0  0  0  0  0  0  0  0  0  0  0
   -3.8276   16.7527  -34.4977 H   0  0  0  0  0  0  0  0  0  0  0  0
   -7.8639   16.6772  -33.0090 H   0  0  0  0  0  0  0  0  0  0  0  0
   -9.0164   18.5119  -30.6510 H   0  0  0  0  0  0  0  0  0  0  0  0
  -10.0289   18.8963  -32.0840 H   0  0  0  0  0  0  0  0  0  0  0  0
   -8.9924   17.4291  -32.0840 H   0  0  0  0  0  0  0  0  0  0  0  0
  1  2  1  0
  2  3  1  0
  2  4  1  0
  4  5  1  0
  5  6  1  0
  6  7  1  0
  7  8  2  0
  8  9  1  0
  9 10  2  0
 10 11  1  0
 11 12  2  0
 12 13  1  0
 13 14  1  0
 14 15  1  0
 15 16  1  0
 16 17  1  0
 17 18  1  0
 17 19  1  0
 13 20  2  0
 20 21  1  0
 21 22  2  0
 22 23  1  0
 23 24  1  0
 23 25  2  0
 25 26  1  0
 26 27  2  0
 27 28  1  0
 12  7  1  0
 26 20  1  0
 27 11  1  0
  1 29  1  0
  1 30  1  0
  1 31  1  0
  3 32  1  0
  3 33  1  0
  3 34  1  0
  4 35  1  0
  4 36  1  0
  5 37  1  0
  5 38  1  0
  6 39  1  0
  8 40  1  0
  9 41  1  0
 10 42  1  0
 14 43  1  0
 14 44  1  0
 15 45  1  0
 15 46  1  0
 16 47  1  0
 16 48  1  0
 18 49  1  0
 18 50  1  0
 18 51  1  0
 19 52  1  0
 19 53  1  0
 19 54  1  0
 21 55  1  0
 22 56  1  0
 25 57  1  0
 28 58  1  0
 28 59  1  0
 28 60  1  0
M  CHG  2  14   1  27   1
M  END
>  <UniqueID>  (18) 
18

>  <SMILES>  (18) 
CN(C)CCNc1cccc2c1c([NH2+]CCN(C)C)c1ccc(Cl)cc1[n+]2C

>  <Energy>  (18) 
102.19766531653802

>  <Genealogy>  (18) 
CN(C)CCNc1cccc2c1c([NH2+]CCN(C)C)c1ccc(Cl)cc1[n+]2C (protonated)
CN(C)CCNc1cccc2c1c([NH2+]CCN(C)C)c1ccc(Cl)cc1[n+]2C (3D coordinates assigned)
CN(C)CCNc1cccc2c1c([NH2+]CCN(C)C)c1ccc(Cl)cc1[n+]2C (optimized conformer: 102.19766531653802 kcal/mol)

>  <smiles>  (18) 
CN(C)CCNc1cccc2c1c(NCCN(C)C)c1ccc(Cl)cc1[n+]2C

>  <score_type>  (18) 
oracle

>  <origin>  (18) 
adg

>  <m_score__min__energy>  (18) 
-7.5800000000000001

>  <m_primary>  (18) 
energy

$$$$
18:0
     RDKit          3D

 54 58  0  0  0  0  0  0  0  0999 V2000
   -1.3690   18.0390  -33.7630 C   0  0  0  0  0  0  0  0  0  0  0  0
   -2.5590   18.9120  -33.5260 C   0  0  0  0  0  0  0  0  0  0  0  0
   -3.8050   18.3810  -33.3830 N   0  0  0  0  0  0  0  0  0  0  0  0
   -4.7460   19.3320  -33.1980 C   0  0  0  0  0  0  0  0  0  0  0  0
   -6.1320   19.0300  -32.9650 N   0  0  0  0  0  0  0  0  0  0  0  0
   -6.7440   17.8190  -33.0790 C   0  0  0  0  0  0  0  0  0  0  0  0
   -6.0470   16.5520  -33.4680 C   0  0  0  0  0  0  0  0  0  0  0  0
   -8.0680   17.8520  -32.7800 N   0  0  0  0  0  0  0  0  0  0  0  0
   -8.2770   19.1440  -32.4690 C   0  0  0  0  0  0  0  0  0  0  0  0
   -9.4820   19.7380  -32.1000 C   0  0  0  0  0  0  0  0  0  0  0  0
   -9.4810   21.1220  -31.8470 C   0  0  0  0  0  0  0  0  0  0  0  0
   -8.2910   21.8710  -31.9790 C   0  0  0  0  0  0  0  0  0  0  0  0
   -7.0900   21.2420  -32.3570 C   0  0  0  0  0  0  0  0  0  0  0  0
   -7.1180   19.8600  -32.5780 C   0  0  0  0  0  0  0  0  0  0  0  0
   -4.0720   20.8740  -33.1780 S   0  0  0  0  0  0  0  0  0  0  0  0
   -2.5090   20.3080  -33.4420 C   0  0  0  0  0  0  0  0  0  0  0  0
   -1.2920   21.1850  -33.5180 C   0  0  0  0  0  0  0  0  0  0  0  0
   -0.5420   21.2640  -32.1730 C   0  0  0  0  0  0  0  0  0  0  0  0
   -1.2000   22.1500  -31.1940 N   0  0  0  0  0  0  0  0  0  0  0  0
   -2.2770   21.4720  -30.4610 C   0  0  0  0  0  0  0  0  0  0  0  0
   -2.9510   22.4410  -29.5160 C   0  0  0  0  0  0  0  0  0  0  0  0
   -2.4310   22.5770  -28.2150 C   0  0  0  0  0  0  0  0  0  0  0  0
   -2.9990   23.4720  -27.3100 C   0  0  0  0  0  0  0  0  0  0  0  0
   -4.0910   24.2550  -27.6830 C   0  0  0  0  0  0  0  0  0  0  0  0
   -4.6230   24.1550  -28.9760 C   0  0  0  0  0  0  0  0  0  0  0  0
   -5.7150   24.9560  -29.3460 C   0  0  0  0  0  0  0  0  0  0  0  0
   -6.2450   24.8710  -30.6350 C   0  0  0  0  0  0  0  0  0  0  0  0
   -5.6890   23.9920  -31.5640 C   0  0  0  0  0  0  0  0  0  0  0  0
   -4.6030   23.1850  -31.2120 C   0  0  0  0  0  0  0  0  0  0  0  0
   -4.0530   23.2480  -29.9120 C   0  0  0  0  0  0  0  0  0  0  0  0
   -0.9445   17.7276  -32.7972 H   0  0  0  0  0  0  0  0  0  0  0  0
   -1.6746   17.1493  -34.3331 H   0  0  0  0  0  0  0  0  0  0  0  0
   -0.6121   18.5977  -34.3331 H   0  0  0  0  0  0  0  0  0  0  0  0
   -5.7465   16.0057  -32.5618 H   0  0  0  0  0  0  0  0  0  0  0  0
   -6.7282   15.9269  -34.0640 H   0  0  0  0  0  0  0  0  0  0  0  0
   -5.1543   16.7927  -34.0640 H   0  0  0  0  0  0  0  0  0  0  0  0
  -10.4037   19.1445  -32.0094 H   0  0  0  0  0  0  0  0  0  0  0  0
  -10.4122   21.6234  -31.5447 H   0  0  0  0  0  0  0  0  0  0  0  0
   -8.3029   22.9537  -31.7850 H   0  0  0  0  0  0  0  0  0  0  0  0
   -6.1600   21.8174  -32.4749 H   0  0  0  0  0  0  0  0  0  0  0  0
   -0.6103   20.7787  -34.2797 H   0  0  0  0  0  0  0  0  0  0  0  0
   -1.6251   22.2007  -33.7774 H   0  0  0  0  0  0  0  0  0  0  0  0
   -0.4831   20.2523  -31.7452 H   0  0  0  0  0  0  0  0  0  0  0  0
    0.4540   21.6838  -32.3773 H   0  0  0  0  0  0  0  0  0  0  0  0
   -0.5000   22.5350  -30.5190 H   0  0  0  0  0  0  0  0  0  0  0  0
   -3.0180   21.0867  -31.1768 H   0  0  0  0  0  0  0  0  0  0  0  0
   -1.8503   20.6406  -29.8808 H   0  0  0  0  0  0  0  0  0  0  0  0
   -1.5663   21.9698  -27.9090 H   0  0  0  0  0  0  0  0  0  0  0  0
   -2.5834   23.5612  -26.2954 H   0  0  0  0  0  0  0  0  0  0  0  0
   -4.5366   24.9538  -26.9598 H   0  0  0  0  0  0  0  0  0  0  0  0
   -6.1548   25.6532  -28.6177 H   0  0  0  0  0  0  0  0  0  0  0  0
   -7.1028   25.4986  -30.9183 H   0  0  0  0  0  0  0  0  0  0  0  0
   -6.1074   23.9333  -32.5796 H   0  0  0  0  0  0  0  0  0  0  0  0
   -4.1731   22.4953  -31.9533 H   0  0  0  0  0  0  0  0  0  0  0  0
  1  2  1  0
  2  3  1  0
  3  4  2  0
  4  5  1  0
  5  6  1  0
  6  7  1  0
  6  8  2  0
  8  9  1  0
  9 10  2  0
 10 11  1  0
 11 12  2  0
 12 13  1  0
 13 14  2  0
  4 15  1  0
 15 16  1  0
 16 17  1  0
 17 18  1  0
 18 19  1  0
 19 20  1  0
 20 21  1  0
 21 22  2  0
 22 23  1  0
 23 24  2  0
 24 25  1  0
 25 26  2  0
 26 27  1  0
 27 28  2  0
 28 29  1  0
 29 30  2  0
 16  2  2  0
 30 21  1  0
 14  5  1  0
 30 25  1  0
 14  9  1  0
  1 31  1  0
  1 32  1  0
  1 33  1  0
  7 34  1  0
  7 35  1  0
  7 36  1  0
 10 37  1  0
 11 38  1  0
 12 39  1  0
 13 40  1  0
 17 41  1  0
 17 42  1  0
 18 43  1  0
 18 44  1  0
 19 45  1  0
 20 46  1  0
 20 47  1  0
 22 48  1  0
 23 49  1  0
 24 50  1  0
 26 51  1  0
 27 52  1  0
 28 53  1  0
 29 54  1  0
M  END
>  <UniqueID>  (19) 
19

>  <SMILES>  (19) 
Cc1nc(-n2c(C)nc3ccccc32)sc1CCNCc1cccc2ccccc12

>  <Energy>  (19) 
132.2107585749074

>  <Genealogy>  (19) 
Cc1nc(-n2c(C)nc3ccccc32)sc1CCNCc1cccc2ccccc12 (3D coordinates assigned)
Cc1nc(-n2c(C)nc3ccccc32)sc1CCNCc1cccc2ccccc12 (optimized conformer: 132.2107585749074 kcal/mol)

>  <smiles>  (19) 
Cc1nc(-n2c(C)nc3ccccc32)sc1CCNCc1cccc2ccccc12

>  <score_type>  (19) 
oracle

>  <origin>  (19) 
adg

>  <m_score__min__energy>  (19) 
-10.18

>  <m_primary>  (19) 
energy

$$$$
19:0
     RDKit          3D

 77 80  0  0  0  0  0  0  0  0999 V2000
   -0.9960   22.6940  -30.0110 C   0  0  0  0  0  0  0  0  0  0  0  0
   -2.1170   21.6740  -29.7530 C   0  0  0  0  0  0  0  0  0  0  0  0
   -1.7130   20.2670  -29.9840 N   0  0  0  0  0  0  0  0  0  0  0  0
   -1.2050   19.6020  -28.7640 C   0  0  0  0  0  0  0  0  0  0  0  0
   -2.1310   19.8670  -27.5800 C   0  0  0  0  0  0  0  0  0  0  0  0
   -0.8280   20.1050  -31.1610 C   0  0  0  0  0  0  0  0  0  0  0  0
   -1.2190   18.8440  -31.9330 C   0  0  0  0  0  0  0  0  0  0  0  0
   -2.0700   19.1880  -33.0110 O   0  0  0  0  0  0  0  0  0  0  0  0
   -1.7830   20.4850  -33.4870 C   0  0  0  0  0  0  0  0  0  0  0  0
   -2.8790   21.4560  -33.0360 C   0  0  0  0  0  0  0  0  0  0  0  0
   -3.7400   20.8990  -31.9840 N   0  0  0  0  0  0  0  0  0  0  0  0
   -5.1430   21.1990  -31.8940 C   0  0  0  0  0  0  0  0  0  0  0  0
   -5.5350   22.4540  -31.3860 C   0  0  0  0  0  0  0  0  0  0  0  0
   -4.5850   23.4800  -31.1790 C   0  0  0  0  0  0  0  0  0  0  0  0
   -4.9570   24.6940  -30.6110 C   0  0  0  0  0  0  0  0  0  0  0  0
   -6.2750   24.9110  -30.2350 C   0  0  0  0  0  0  0  0  0  0  0  0
   -7.2350   23.9230  -30.4500 C   0  0  0  0  0  0  0  0  0  0  0  0
   -6.8930   22.6890  -31.0630 C   0  0  0  0  0  0  0  0  0  0  0  0
   -7.8390   21.7140  -31.3040 N   0  0  0  0  0  0  0  0  0  0  0  0
   -9.2800   22.0450  -31.2130 C   0  0  0  0  0  0  0  0  0  0  0  0
   -7.4490   20.4400  -31.6710 C   0  0  0  0  0  0  0  0  0  0  0  0
   -8.3470   19.3550  -31.5780 C   0  0  0  0  0  0  0  0  0  0  0  0
   -7.9800   18.0850  -31.9880 C   0  0  0  0  0  0  0  0  0  0  0  0
   -6.7410   17.8660  -32.5670 C   0  0  0  0  0  0  0  0  0  0  0  0
   -5.8070   18.9140  -32.7150 C   0  0  0  0  0  0  0  0  0  0  0  0
   -4.5590   18.7070  -33.4420 N   0  0  0  0  0  0  0  0  0  0  0  0
   -4.6640   18.1090  -34.7960 C   0  0  0  0  0  0  0  0  0  0  0  0
   -4.0340   16.6980  -34.8830 C   0  0  0  0  0  0  0  0  0  0  0  0
   -3.8850   16.0900  -33.5460 N   0  0  0  0  0  0  0  0  0  0  0  0
   -5.0170   15.2250  -33.2100 C   0  0  0  0  0  0  0  0  0  0  0  0
   -4.5210   14.2830  -32.1320 C   0  0  0  0  0  0  0  0  0  0  0  0
   -3.0150   14.2060  -32.3410 C   0  0  0  0  0  0  0  0  0  0  0  0
   -2.7020   15.2320  -33.4250 C   0  0  0  0  0  0  0  0  0  0  0  0
   -6.1150   20.1860  -32.1100 C   0  0  0  0  0  0  0  0  0  0  0  0
   -0.5999   23.0544  -29.0501 H   0  0  0  0  0  0  0  0  0  0  0  0
   -0.1886   22.2144  -30.5837 H   0  0  0  0  0  0  0  0  0  0  0  0
   -1.3975   23.5430  -30.5837 H   0  0  0  0  0  0  0  0  0  0  0  0
   -2.4421   21.7738  -28.7069 H   0  0  0  0  0  0  0  0  0  0  0  0
   -2.9224   21.8967  -30.4684 H   0  0  0  0  0  0  0  0  0  0  0  0
   -1.1467   18.5179  -28.9413 H   0  0  0  0  0  0  0  0  0  0  0  0
   -0.2083   20.0046  -28.5306 H   0  0  0  0  0  0  0  0  0  0  0  0
   -1.5800   19.7093  -26.6411 H   0  0  0  0  0  0  0  0  0  0  0  0
   -2.4931   20.9048  -27.6228 H   0  0  0  0  0  0  0  0  0  0  0  0
   -2.9873   19.1779  -27.6228 H   0  0  0  0  0  0  0  0  0  0  0  0
   -0.9296   20.9816  -31.8178 H   0  0  0  0  0  0  0  0  0  0  0  0
    0.2146   20.0149  -30.8220 H   0  0  0  0  0  0  0  0  0  0  0  0
   -0.3124   18.3587  -32.3236 H   0  0  0  0  0  0  0  0  0  0  0  0
   -1.7468   18.1535  -31.2587 H   0  0  0  0  0  0  0  0  0  0  0  0
   -0.8139   20.8156  -33.0852 H   0  0  0  0  0  0  0  0  0  0  0  0
   -1.7414   20.4683  -34.5861 H   0  0  0  0  0  0  0  0  0  0  0  0
   -2.4019   22.3696  -32.6517 H   0  0  0  0  0  0  0  0  0  0  0  0
   -3.5161   21.6624  -33.9086 H   0  0  0  0  0  0  0  0  0  0  0  0
   -3.4210   20.0050  -31.5470 H   0  0  0  0  0  0  0  0  0  0  0  0
   -3.5372   23.3161  -31.4711 H   0  0  0  0  0  0  0  0  0  0  0  0
   -4.2055   25.4829  -30.4597 H   0  0  0  0  0  0  0  0  0  0  0  0
   -6.5628   25.8638  -29.7667 H   0  0  0  0  0  0  0  0  0  0  0  0
   -8.2748   24.1027  -30.1394 H   0  0  0  0  0  0  0  0  0  0  0  0
   -9.5746   22.1127  -30.1553 H   0  0  0  0  0  0  0  0  0  0  0  0
   -9.4667   23.0094  -31.7080 H   0  0  0  0  0  0  0  0  0  0  0  0
   -9.8688   21.2587  -31.7080 H   0  0  0  0  0  0  0  0  0  0  0  0
   -9.3559   19.5216  -31.1727 H   0  0  0  0  0  0  0  0  0  0  0  0
   -8.6766   17.2444  -31.8532 H   0  0  0  0  0  0  0  0  0  0  0  0
   -6.4800   16.8567  -32.9180 H   0  0  0  0  0  0  0  0  0  0  0  0
   -3.9130   18.1410  -32.8520 H   0  0  0  0  0  0  0  0  0  0  0  0
   -4.1280   19.6480  -33.5910 H   0  0  0  0  0  0  0  0  0  0  0  0
   -5.7280   18.0353  -35.0654 H   0  0  0  0  0  0  0  0  0  0  0  0
   -4.1101   18.7605  -35.4879 H   0  0  0  0  0  0  0  0  0  0  0  0
   -4.6805   16.0550  -35.4983 H   0  0  0  0  0  0  0  0  0  0  0  0
   -3.0347   16.7927  -35.3330 H   0  0  0  0  0  0  0  0  0  0  0  0
   -5.8582   15.8260  -32.8343 H   0  0  0  0  0  0  0  0  0  0  0  0
   -5.3765   14.6734  -34.0912 H   0  0  0  0  0  0  0  0  0  0  0  0
   -4.7532   14.6813  -31.1333 H   0  0  0  0  0  0  0  0  0  0  0  0
   -4.9987   13.2941  -32.1946 H   0  0  0  0  0  0  0  0  0  0  0  0
   -2.4843   14.4557  -31.4104 H   0  0  0  0  0  0  0  0  0  0  0  0
   -2.6941   13.1946  -32.6310 H   0  0  0  0  0  0  0  0  0  0  0  0
   -1.8260   15.8321  -33.1377 H   0  0  0  0  0  0  0  0  0  0  0  0
   -2.4702   14.7399  -34.3811 H   0  0  0  0  0  0  0  0  0  0  0  0
  1  2  1  0
  2  3  1  0
  3  4  1  0
  4  5  1  0
  3  6  1  0
  6  7  1  0
  7  8  1  0
  8  9  1  0
  9 10  1  0
 10 11  1  0
 11 12  1  0
 12 13  2  0
 13 14  1  0
 14 15  2  0
 15 16  1  0
 16 17  2  0
 17 18  1  0
 18 19  2  0
 19 20  1  0
 19 21  1  0
 21 22  2  0
 22 23  1  0
 23 24  2  0
 24 25  1  0
 25 26  1  0
 26 27  1  0
 27 28  1  0
 28 29  1  0
 29 30  1  0
 30 31  1  0
 31 32  1  0
 32 33  1  0
 25 34  2  0
 34 12  1  0
 18 13  1  0
 34 21  1  0
 33 29  1  0
  1 35  1  0
  1 36  1  0
  1 37  1  0
  2 38  1  0
  2 39  1  0
  4 40  1  0
  4 41  1  0
  5 42  1  0
  5 43  1  0
  5 44  1  0
  6 45  1  0
  6 46  1  0
  7 47  1  0
  7 48  1  0
  9 49  1  0
  9 50  1  0
 10 51  1  0
 10 52  1  0
 11 53  1  0
 14 54  1  0
 15 55  1  0
 16 56  1  0
 17 57  1  0
 20 58  1  0
 20 59  1  0
 20 60  1  0
 22 61  1  0
 23 62  1  0
 24 63  1  0
 26 64  1  0
 26 65  1  0
 27 66  1  0
 27 67  1  0
 28 68  1  0
 28 69  1  0
 30 70  1  0
 30 71  1  0
 31 72  1  0
 31 73  1  0
 32 74  1  0
 32 75  1  0
 33 76  1  0
 33 77  1  0
M  CHG  2  19   1  26   1
M  END
>  <UniqueID>  (20) 
20

>  <SMILES>  (20) 
CCN(CC)CCOCCNc1c2ccccc2[n+](C)c2cccc([NH2+]CCN3CCCC3)c12

>  <Energy>  (20) 
122.65550423376385

>  <Genealogy>  (20) 
CCN(CC)CCOCCNc1c2ccccc2[n+](C)c2cccc([NH2+]CCN3CCCC3)c12 (protonated)
CCN(CC)CCOCCNc1c2ccccc2[n+](C)c2cccc([NH2+]CCN3CCCC3)c12 (3D coordinates assigned)
CCN(CC)CCOCCNc1c2ccccc2[n+](C)c2cccc([NH2+]CCN3CCCC3)c12 (nonaromatic ring conformer: 122.65550423376385 kcal/mol)

>  <smiles>  (20) 
CCN(CC)CCOCCNc1c2ccccc2[n+](C)c2cccc(NCCN3CCCC3)c12

>  <score_type>  (20) 
oracle

>  <origin>  (20) 
adg

>  <m_score__min__energy>  (20) 
-8.1799999999999997

>  <m_primary>  (20) 
energy

$$$$
20:0
     RDKit          3D

 51 53  0  0  0  0  0  0  0  0999 V2000
   -6.7960   25.2670  -29.7250 C   0  0  0  0  0  0  0  0  0  0  0  0
   -5.5310   25.7910  -30.4010 C   0  0  0  0  0  0  0  0  0  0  0  0
   -4.6320   24.6900  -30.8340 N   0  0  0  0  0  0  0  0  0  0  0  0
   -4.0550   24.0090  -29.6480 C   0  0  0  0  0  0  0  0  0  0  0  0
   -2.6630   24.5470  -29.3030 C   0  0  0  0  0  0  0  0  0  0  0  0
   -5.3430   23.7110  -31.7030 C   0  0  0  0  0  0  0  0  0  0  0  0
   -4.5300   22.4170  -31.8660 C   0  0  0  0  0  0  0  0  0  0  0  0
   -4.8910   21.6710  -33.0770 N   0  0  0  0  0  0  0  0  0  0  0  0
   -5.2340   20.2760  -33.0540 C   0  0  0  0  0  0  0  0  0  0  0  0
   -6.5270   19.8910  -32.6500 C   0  0  0  0  0  0  0  0  0  0  0  0
   -7.3770   20.8010  -31.9830 C   0  0  0  0  0  0  0  0  0  0  0  0
   -8.6600   20.4270  -31.5950 C   0  0  0  0  0  0  0  0  0  0  0  0
   -9.1130   19.1380  -31.8430 C   0  0  0  0  0  0  0  0  0  0  0  0
   -8.2830   18.2120  -32.4740 C   0  0  0  0  0  0  0  0  0  0  0  0
   -6.9730   18.5670  -32.8880 C   0  0  0  0  0  0  0  0  0  0  0  0
   -6.1400   17.6600  -33.5100 N   0  0  0  0  0  0  0  0  0  0  0  0
   -6.6480   16.3190  -33.8740 C   0  0  0  0  0  0  0  0  0  0  0  0
   -4.8250   17.9820  -33.7630 C   0  0  0  0  0  0  0  0  0  0  0  0
   -3.9930   17.0400  -34.2910 N   0  0  0  0  0  0  0  0  0  0  0  0
   -2.6920   17.2760  -34.5700 C   0  0  0  0  0  0  0  0  0  0  0  0
   -2.1350   18.5100  -34.2810 C   0  0  0  0  0  0  0  0  0  0  0  0
   -2.9230   19.5240  -33.7170 C   0  0  0  0  0  0  0  0  0  0  0  0
   -2.2040   20.7810  -33.2890 C   0  0  0  0  0  0  0  0  0  0  0  0
   -4.3200   19.2870  -33.4990 C   0  0  0  0  0  0  0  0  0  0  0  0
   -6.6756   25.3169  -28.6327 H   0  0  0  0  0  0  0  0  0  0  0  0
   -7.6556   25.8831  -30.0276 H   0  0  0  0  0  0  0  0  0  0  0  0
   -6.9681   24.2236  -30.0276 H   0  0  0  0  0  0  0  0  0  0  0  0
   -5.8189   26.3817  -31.2832 H   0  0  0  0  0  0  0  0  0  0  0  0
   -4.9859   26.4059  -29.6697 H   0  0  0  0  0  0  0  0  0  0  0  0
   -4.7213   24.1678  -28.7873 H   0  0  0  0  0  0  0  0  0  0  0  0
   -3.9589   22.9385  -29.8821 H   0  0  0  0  0  0  0  0  0  0  0  0
   -2.5477   24.5916  -28.2100 H   0  0  0  0  0  0  0  0  0  0  0  0
   -1.8970   23.8801  -29.7256 H   0  0  0  0  0  0  0  0  0  0  0  0
   -2.5446   25.5556  -29.7256 H   0  0  0  0  0  0  0  0  0  0  0  0
   -6.3153   23.4687  -31.2491 H   0  0  0  0  0  0  0  0  0  0  0  0
   -5.4796   24.1631  -32.6964 H   0  0  0  0  0  0  0  0  0  0  0  0
   -3.4622   22.6762  -31.9174 H   0  0  0  0  0  0  0  0  0  0  0  0
   -4.7510   21.7742  -31.0011 H   0  0  0  0  0  0  0  0  0  0  0  0
   -4.6390   22.0980  -33.9970 H   0  0  0  0  0  0  0  0  0  0  0  0
   -7.0199   21.8189  -31.7674 H   0  0  0  0  0  0  0  0  0  0  0  0
   -9.3156   21.1528  -31.0916 H   0  0  0  0  0  0  0  0  0  0  0  0
  -10.1297   18.8465  -31.5408 H   0  0  0  0  0  0  0  0  0  0  0  0
   -8.6495   17.1905  -32.6536 H   0  0  0  0  0  0  0  0  0  0  0  0
   -6.8643   15.7480  -32.9590 H   0  0  0  0  0  0  0  0  0  0  0  0
   -7.5686   16.4241  -34.4668 H   0  0  0  0  0  0  0  0  0  0  0  0
   -5.8888   15.7878  -34.4668 H   0  0  0  0  0  0  0  0  0  0  0  0
   -2.0756   16.4877  -35.0267 H   0  0  0  0  0  0  0  0  0  0  0  0
   -1.0720   18.6957  -34.4942 H   0  0  0  0  0  0  0  0  0  0  0  0
   -2.1754   20.8311  -32.1905 H   0  0  0  0  0  0  0  0  0  0  0  0
   -1.1768   20.7679  -33.6824 H   0  0  0  0  0  0  0  0  0  0  0  0
   -2.7361   21.6597  -33.6824 H   0  0  0  0  0  0  0  0  0  0  0  0
  1  2  1  0
  2  3  1  0
  3  4  1  0
  4  5  1  0
  3  6  1  0
  6  7  1  0
  7  8  1  0
  8  9  1  0
  9 10  2  0
 10 11  1  0
 11 12  2  0
 12 13  1  0
 13 14  2  0
 14 15  1  0
 15 16  2  0
 16 17  1  0
 16 18  1  0
 18 19  2  0
 19 20  1  0
 20 21  2  0
 21 22  1  0
 22 23  1  0
 22 24  2  0
 24  9  1  0
 15 10  1  0
 24 18  1  0
  1 25  1  0
  1 26  1  0
  1 27  1  0
  2 28  1  0
  2 29  1  0
  4 30  1  0
  4 31  1  0
  5 32  1  0
  5 33  1  0
  5 34  1  0
  6 35  1  0
  6 36  1  0
  7 37  1  0
  7 38  1  0
  8 39  1  0
 11 40  1  0
 12 41  1  0
 13 42  1  0
 14 43  1  0
 17 44  1  0
 17 45  1  0
 17 46  1  0
 20 47  1  0
 21 48  1  0
 23 49  1  0
 23 50  1  0
 23 51  1  0
M  CHG  1  16   1
M  END
>  <UniqueID>  (21) 
21

>  <SMILES>  (21) 
CCN(CC)CCNc1c2ccccc2[n+](C)c2nccc(C)c12

>  <Energy>  (21) 
79.08077981256447

>  <Genealogy>  (21) 
CCN(CC)CCNc1c2ccccc2[n+](C)c2nccc(C)c12 (3D coordinates assigned)
CCN(CC)CCNc1c2ccccc2[n+](C)c2nccc(C)c12 (optimized conformer: 79.08077981256447 kcal/mol)

>  <smiles>  (21) 
CCN(CC)CCNc1c2ccccc2[n+](C)c2nccc(C)c12

>  <score_type>  (21) 
oracle

>  <origin>  (21) 
adg

>  <m_score__min__energy>  (21) 
-8.6600000000000001

>  <m_primary>  (21) 
energy

$$$$
