0:0
     RDKit          3D

 54 56  0  0  0  0  0  0  0  0999 V2000
   -6.0540   24.9130  -29.7100 C   0  0  0  0  0  0  0  0  0  0  0  0
   -5.0720   25.2080  -30.8440 C   0  0  0  0  0  0  0  0  0  0  0  0
   -3.9030   24.3000  -30.7730 N   0  0  0  0  0  0  0  0  0  0  0  0
   -3.2350   24.3980  -29.4460 C   0  0  0  0  0  0  0  0  0  0  0  0
   -3.3470   23.0740  -28.7080 C   0  0  0  0  0  0  0  0  0  0  0  0
   -4.2730   22.8890  -31.0410 C   0  0  0  0  0  0  0  0  0  0  0  0
   -3.5980   22.2690  -32.2860 C   0  0  0  0  0  0  0  0  0  0  0  0
   -4.5410   21.8670  -33.3530 N   0  0  0  0  0  0  0  0  0  0  0  0
   -5.5820   20.9480  -32.8860 C   0  0  0  0  0  0  0  0  0  0  0  0
   -5.3660   19.5390  -32.9200 C   0  0  0  0  0  0  0  0  0  0  0  0
   -6.4800   18.6590  -32.8000 C   0  0  0  0  0  0  0  0  0  0  0  0
   -7.7120   19.1460  -32.4080 N   0  0  0  0  0  0  0  0  0  0  0  0
   -8.7700   18.2100  -31.9520 C   0  0  0  0  0  0  0  0  0  0  0  0
   -7.9390   20.5070  -32.3430 C   0  0  0  0  0  0  0  0  0  0  0  0
   -9.2450   21.0230  -32.1380 C   0  0  0  0  0  0  0  0  0  0  0  0
   -9.4620   22.3810  -31.9280 C   0  0  0  0  0  0  0  0  0  0  0  0
   -8.3900   23.2570  -31.9170 C   0  0  0  0  0  0  0  0  0  0  0  0
   -7.1080   22.7960  -32.1970 C   0  0  0  0  0  0  0  0  0  0  0  0
   -6.8630   21.4280  -32.4900 C   0  0  0  0  0  0  0  0  0  0  0  0
   -6.3210   17.3480  -33.1180 C   0  0  0  0  0  0  0  0  0  0  0  0
   -5.0340   16.8070  -33.4380 N   0  0  0  0  0  0  0  0  0  0  0  0
   -4.9320   15.4140  -33.8700 C   0  0  0  0  0  0  0  0  0  0  0  0
   -3.8300   17.5610  -33.1100 C   0  0  0  0  0  0  0  0  0  0  0  0
   -4.1150   19.0300  -33.0650 C   0  0  0  0  0  0  0  0  0  0  0  0
   -5.5528   25.0636  -28.7425 H   0  0  0  0  0  0  0  0  0  0  0  0
   -6.9163   25.5918  -29.7858 H   0  0  0  0  0  0  0  0  0  0  0  0
   -6.3995   23.8714  -29.7858 H   0  0  0  0  0  0  0  0  0  0  0  0
   -5.5812   25.0666  -31.8087 H   0  0  0  0  0  0  0  0  0  0  0  0
   -4.7205   26.2458  -30.7469 H   0  0  0  0  0  0  0  0  0  0  0  0
   -2.1730   24.6458  -29.5903 H   0  0  0  0  0  0  0  0  0  0  0  0
   -3.7246   25.1844  -28.8527 H   0  0  0  0  0  0  0  0  0  0  0  0
   -3.3316   23.2564  -27.6233 H   0  0  0  0  0  0  0  0  0  0  0  0
   -4.2902   22.5794  -28.9833 H   0  0  0  0  0  0  0  0  0  0  0  0
   -2.5003   22.4280  -28.9833 H   0  0  0  0  0  0  0  0  0  0  0  0
   -3.9910   22.2884  -30.1637 H   0  0  0  0  0  0  0  0  0  0  0  0
   -5.3549   22.8841  -31.2396 H   0  0  0  0  0  0  0  0  0  0  0  0
   -2.9000   23.0093  -32.7040 H   0  0  0  0  0  0  0  0  0  0  0  0
   -3.0953   21.3510  -31.9475 H   0  0  0  0  0  0  0  0  0  0  0  0
   -4.9870   22.7160  -33.7640 H   0  0  0  0  0  0  0  0  0  0  0  0
   -3.9600   21.4940  -34.1260 H   0  0  0  0  0  0  0  0  0  0  0  0
   -8.7927   18.1899  -30.8524 H   0  0  0  0  0  0  0  0  0  0  0  0
   -9.7458   18.5459  -32.3328 H   0  0  0  0  0  0  0  0  0  0  0  0
   -8.5555   17.2006  -32.3328 H   0  0  0  0  0  0  0  0  0  0  0  0
  -10.1033   20.3351  -32.1453 H   0  0  0  0  0  0  0  0  0  0  0  0
  -10.4834   22.7580  -31.7710 H   0  0  0  0  0  0  0  0  0  0  0  0
   -8.5526   24.3202  -31.6863 H   0  0  0  0  0  0  0  0  0  0  0  0
   -6.2670   23.5050  -32.1914 H   0  0  0  0  0  0  0  0  0  0  0  0
   -7.2003   16.6871  -33.1300 H   0  0  0  0  0  0  0  0  0  0  0  0
   -4.8840   14.7590  -32.9876 H   0  0  0  0  0  0  0  0  0  0  0  0
   -5.8134   15.1519  -34.4737 H   0  0  0  0  0  0  0  0  0  0  0  0
   -4.0219   15.2830  -34.4737 H   0  0  0  0  0  0  0  0  0  0  0  0
   -3.4582   17.2360  -32.1271 H   0  0  0  0  0  0  0  0  0  0  0  0
   -3.0751   17.3732  -33.8877 H   0  0  0  0  0  0  0  0  0  0  0  0
   -3.2714   19.7303  -33.1535 H   0  0  0  0  0  0  0  0  0  0  0  0
  1  2  1  0
  2  3  1  0
  3  4  1  0
  4  5  1  0
  3  6  1  0
  6  7  1  0
  7  8  1  0
  8  9  1  0
  9 10  1  0
 10 11  1  0
 11 12  1  0
 12 13  1  0
 12 14  2  0
 14 15  1  0
 15 16  2  0
 16 17  1  0
 17 18  2  0
 18 19  1  0
 11 20  2  0
 20 21  1  0
 21 22  1  0
 21 23  1  0
 23 24  1  0
 19  9  2  0
 24 10  2  0
 19 14  1  0
  1 25  1  0
  1 26  1  0
  1 27  1  0
  2 28  1  0
  2 29  1  0
  4 30  1  0
  4 31  1  0
  5 32  1  0
  5 33  1  0
  5 34  1  0
  6 35  1  0
  6 36  1  0
  7 37  1  0
  7 38  1  0
  8 39  1  0
  8 40  1  0
 13 41  1  0
 13 42  1  0
 13 43  1  0
 15 44  1  0
 16 45  1  0
 17 46  1  0
 18 47  1  0
 20 48  1  0
 22 49  1  0
 22 50  1  0
 22 51  1  0
 23 52  1  0
 23 53  1  0
 24 54  1  0
M  CHG  2   8   1  12   1
M  END
>  <UniqueID>  (1) 
1

>  <SMILES>  (1) 
CCN(CC)CC[NH2+]c1c2c([n+](C)c3ccccc13)=CN(C)CC=2

>  <Energy>  (1) 
89.292516190329

>  <Genealogy>  (1) 
CCN(CC)CC[NH2+]c1c2c([n+](C)c3ccccc13)=CN(C)CC=2 (protonated)
CCN(CC)CC[NH2+]c1c2c([n+](C)c3ccccc13)=CN(C)CC=2 (3D coordinates assigned)
CCN(CC)CC[NH2+]c1c2c([n+](C)c3ccccc13)=CN(C)CC=2 (nonaromatic ring conformer: 89.292516190329 kcal/mol)

>  <smiles>  (1) 
CCN(CC)CCNc1c2c([n+](C)c3ccccc13)=CN(C)CC=2

>  <score_type>  (1) 
oracle

>  <origin>  (1) 
adg

>  <m_score__min__energy>  (1) 
-7.9000000000000004

>  <m_primary>  (1) 
energy

$$$$
1:0
     RDKit          3D

 45 47  0  0  0  0  0  0  0  0999 V2000
   -3.8890   21.5110  -32.5300 Br  0  0  0  0  0  0  0  0  0  0  0  0
   -5.7530   21.7660  -32.1730 C   0  0  0  0  0  0  0  0  0  0  0  0
   -6.1960   23.0210  -31.7410 C   0  0  0  0  0  0  0  0  0  0  0  0
   -7.5510   23.2340  -31.4750 C   0  0  0  0  0  0  0  0  0  0  0  0
   -8.4680   22.1940  -31.6370 C   0  0  0  0  0  0  0  0  0  0  0  0
   -8.0380   20.9340  -32.0680 C   0  0  0  0  0  0  0  0  0  0  0  0
   -9.3370   19.5420  -32.2740 Br  0  0  0  0  0  0  0  0  0  0  0  0
   -6.6720   20.7140  -32.3390 C   0  0  0  0  0  0  0  0  0  0  0  0
   -6.2100   19.4310  -32.7820 N   0  0  0  0  0  0  0  0  0  0  0  0
   -5.8880   19.2370  -34.1990 C   0  0  0  0  0  0  0  0  0  0  0  0
   -6.1000   17.7690  -34.6040 C   0  0  0  0  0  0  0  0  0  0  0  0
   -5.4540   16.8170  -33.6630 N   0  0  0  0  0  0  0  0  0  0  0  0
   -3.9550   16.8310  -33.7340 C   0  0  0  0  0  0  0  0  0  0  0  0
   -3.3660   15.5230  -33.1100 C   0  0  0  0  0  0  0  0  0  0  0  0
   -1.8520   15.5220  -32.8230 C   0  0  0  0  0  0  0  0  0  0  0  0
   -0.9750   16.2840  -33.8520 C   0  0  0  0  0  0  0  0  0  0  0  0
   -0.7960   17.7950  -33.6040 C   0  0  0  0  0  0  0  0  0  0  0  0
   -2.0660   18.6320  -33.8360 C   0  0  0  0  0  0  0  0  0  0  0  0
   -3.3270   18.1190  -33.1220 C   0  0  0  0  0  0  0  0  0  0  0  0
   -6.0310   17.0300  -32.3120 C   0  0  0  0  0  0  0  0  0  0  0  0
   -5.7710   18.4470  -31.7910 C   0  0  0  0  0  0  0  0  0  0  0  0
   -5.4756   23.8420  -31.6105 H   0  0  0  0  0  0  0  0  0  0  0  0
   -7.8957   24.2226  -31.1375 H   0  0  0  0  0  0  0  0  0  0  0  0
   -9.5336   22.3657  -31.4249 H   0  0  0  0  0  0  0  0  0  0  0  0
   -6.5404   19.8786  -34.8095 H   0  0  0  0  0  0  0  0  0  0  0  0
   -4.8332   19.5023  -34.3634 H   0  0  0  0  0  0  0  0  0  0  0  0
   -7.1802   17.5626  -34.6276 H   0  0  0  0  0  0  0  0  0  0  0  0
   -5.6377   17.6260  -35.5919 H   0  0  0  0  0  0  0  0  0  0  0  0
   -3.6769   16.8549  -34.7980 H   0  0  0  0  0  0  0  0  0  0  0  0
   -3.8871   15.3422  -32.1583 H   0  0  0  0  0  0  0  0  0  0  0  0
   -3.5199   14.7421  -33.8693 H   0  0  0  0  0  0  0  0  0  0  0  0
   -1.6940   15.9825  -31.8366 H   0  0  0  0  0  0  0  0  0  0  0  0
   -1.5356   14.4699  -32.8778 H   0  0  0  0  0  0  0  0  0  0  0  0
    0.0235   15.8225  -33.8495 H   0  0  0  0  0  0  0  0  0  0  0  0
   -1.5076   16.2032  -34.8111 H   0  0  0  0  0  0  0  0  0  0  0  0
   -0.4761   17.9370  -32.5611 H   0  0  0  0  0  0  0  0  0  0  0  0
   -0.0508   18.1466  -34.3327 H   0  0  0  0  0  0  0  0  0  0  0  0
   -1.8682   19.6553  -33.4843 H   0  0  0  0  0  0  0  0  0  0  0  0
   -2.2791   18.5714  -34.9135 H   0  0  0  0  0  0  0  0  0  0  0  0
   -3.0632   17.9055  -32.0757 H   0  0  0  0  0  0  0  0  0  0  0  0
   -4.0837   18.9101  -33.2302 H   0  0  0  0  0  0  0  0  0  0  0  0
   -7.1173   16.8635  -32.3600 H   0  0  0  0  0  0  0  0  0  0  0  0
   -5.5487   16.3218  -31.6222 H   0  0  0  0  0  0  0  0  0  0  0  0
   -6.3278   18.5991  -30.8546 H   0  0  0  0  0  0  0  0  0  0  0  0
   -4.6937   18.5734  -31.6080 H   0  0  0  0  0  0  0  0  0  0  0  0
  1  2  1  0
  2  3  2  0
  3  4  1  0
  4  5  2  0
  5  6  1  0
  6  7  1  0
  6  8  2  0
  8  9  1  0
  9 10  1  0
 10 11  1  0
 11 12  1  0
 12 13  1  0
 13 14  1  0
 14 15  1  0
 15 16  1  0
 16 17  1  0
 17 18  1  0
 18 19  1  0
 12 20  1  0
 20 21  1  0
  8  2  1  0
 21  9  1  0
 19 13  1  0
  3 22  1  0
  4 23  1  0
  5 24  1  0
 10 25  1  0
 10 26  1  0
 11 27  1  0
 11 28  1  0
 13 29  1  0
 14 30  1  0
 14 31  1  0
 15 32  1  0
 15 33  1  0
 16 34  1  0
 16 35  1  0
 17 36  1  0
 17 37  1  0
 18 38  1  0
 18 39  1  0
 19 40  1  0
 19 41  1  0
 20 42  1  0
 20 43  1  0
 21 44  1  0
 21 45  1  0
M  END
>  <UniqueID>  (2) 
2

>  <SMILES>  (2) 
Brc1cccc(Br)c1N1CCN(C2CCCCCC2)CC1

>  <Energy>  (2) 
69.08270561989377

>  <Genealogy>  (2) 
Brc1cccc(Br)c1N1CCN(C2CCCCCC2)CC1 (3D coordinates assigned)
Brc1cccc(Br)c1N1CCN(C2CCCCCC2)CC1 (nonaromatic ring conformer: 69.08270561989377 kcal/mol)

>  <smiles>  (2) 
Brc1cccc(Br)c1N1CCN(C2CCCCCC2)CC1

>  <score_type>  (2) 
oracle

>  <origin>  (2) 
adg

>  <m_score__min__energy>  (2) 
-6

>  <m_primary>  (2) 
energy

$$$$
2:0
     RDKit          3D

 44 47  0  0  0  0  0  0  0  0999 V2000
   -7.9652   17.8350  -32.9371 H   0  0  0  0  0  0  0  0  0  0  0  0
   -7.9340   18.8860  -32.6140 C   0  0  0  0  0  0  0  0  0  0  0  0
   -8.8360   19.3480  -31.6520 C   0  0  0  0  0  0  0  0  0  0  0  0
   -9.5741   18.6589  -31.2156 H   0  0  0  0  0  0  0  0  0  0  0  0
   -8.8020   20.6850  -31.2430 C   0  0  0  0  0  0  0  0  0  0  0  0
   -9.5053   21.0413  -30.4759 H   0  0  0  0  0  0  0  0  0  0  0  0
   -7.8730   21.5750  -31.8080 C   0  0  0  0  0  0  0  0  0  0  0  0
   -7.8140   23.0080  -31.3430 C   0  0  0  0  0  0  0  0  0  0  0  0
   -8.7430   23.2499  -30.8059 H   0  0  0  0  0  0  0  0  0  0  0  0
   -7.6964   23.6564  -32.2237 H   0  0  0  0  0  0  0  0  0  0  0  0
   -6.6750   23.2260  -30.4500 N   0  0  0  0  0  0  0  0  0  0  0  0
   -5.4280   23.4170  -30.7860 C   0  0  0  0  0  0  0  0  0  0  0  0
   -4.7910   24.7580  -30.7410 C   0  0  0  0  0  0  0  0  0  0  0  0
   -5.4080   25.7580  -31.1910 O   0  0  0  0  0  0  0  0  0  0  0  0
   -3.4890   24.9590  -30.1800 N   0  0  0  0  0  0  0  0  0  0  0  0
   -2.5530   23.9620  -29.7410 C   0  0  0  0  0  0  0  0  0  0  0  0
   -1.7170   24.2930  -28.6670 C   0  0  0  0  0  0  0  0  0  0  0  0
   -1.8086   25.2808  -28.1919 H   0  0  0  0  0  0  0  0  0  0  0  0
   -0.7710   23.3870  -28.1930 C   0  0  0  0  0  0  0  0  0  0  0  0
   -0.1311   23.6546  -27.3392 H   0  0  0  0  0  0  0  0  0  0  0  0
   -0.6370   22.1420  -28.8020 C   0  0  0  0  0  0  0  0  0  0  0  0
    0.1033   21.4226  -28.4220 H   0  0  0  0  0  0  0  0  0  0  0  0
   -1.4390   21.8040  -29.8930 C   0  0  0  0  0  0  0  0  0  0  0  0
   -1.3184   20.8208  -30.3713 H   0  0  0  0  0  0  0  0  0  0  0  0
   -2.4050   22.7090  -30.3920 C   0  0  0  0  0  0  0  0  0  0  0  0
   -3.2600   22.3910  -31.6120 C   0  0  1  0  0  0  0  0  0  0  0  0
   -3.1275   23.2310  -32.3098 H   0  0  0  0  0  0  0  0  0  0  0  0
   -2.8150   21.1650  -32.4030 C   0  0  0  0  0  0  0  0  0  0  0  0
   -3.6370   20.0220  -32.4410 C   0  0  0  0  0  0  0  0  0  0  0  0
   -4.5891   20.0167  -31.8901 H   0  0  0  0  0  0  0  0  0  0  0  0
   -3.2540   18.8950  -33.1720 C   0  0  0  0  0  0  0  0  0  0  0  0
   -3.9005   18.0052  -33.1880 H   0  0  0  0  0  0  0  0  0  0  0  0
   -2.0510   18.8960  -33.8830 C   0  0  0  0  0  0  0  0  0  0  0  0
   -1.7488   18.0059  -34.4543 H   0  0  0  0  0  0  0  0  0  0  0  0
   -1.2330   20.0270  -33.8680 C   0  0  0  0  0  0  0  0  0  0  0  0
   -0.2883   20.0281  -34.4315 H   0  0  0  0  0  0  0  0  0  0  0  0
   -1.6110   21.1580  -33.1390 C   0  0  0  0  0  0  0  0  0  0  0  0
   -0.9656   22.0487  -33.1390 H   0  0  0  0  0  0  0  0  0  0  0  0
   -4.6650   22.2810  -31.2100 N   0  0  0  0  0  0  0  0  0  0  0  0
   -5.1620   21.3640  -31.2610 H   0  0  0  0  0  0  0  0  0  0  0  0
   -6.9560   21.0970  -32.7600 C   0  0  0  0  0  0  0  0  0  0  0  0
   -6.2062   21.7787  -33.1879 H   0  0  0  0  0  0  0  0  0  0  0  0
   -6.9920   19.7590  -33.1660 C   0  0  0  0  0  0  0  0  0  0  0  0
   -6.2790   19.3936  -33.9197 H   0  0  0  0  0  0  0  0  0  0  0  0
  1  2  1  0
  2  3  2  0
  3  4  1  0
  3  5  1  0
  5  6  1  0
  5  7  2  0
  7  8  1  0
  8  9  1  0
  8 10  1  0
  8 11  1  0
 11 12  2  0
 12 13  1  0
 13 14  2  0
 13 15  1  0
 15 16  1  0
 16 17  2  0
 17 18  1  0
 17 19  1  0
 19 20  1  0
 19 21  2  0
 21 22  1  0
 21 23  1  0
 23 24  1  0
 23 25  2  0
 25 26  1  0
 26 27  1  6
 26 28  1  0
 28 29  2  0
 29 30  1  0
 29 31  1  0
 31 32  1  0
 31 33  2  0
 33 34  1  0
 33 35  1  0
 35 36  1  0
 35 37  2  0
 37 38  1  0
 26 39  1  0
 39 40  1  0
  7 41  1  0
 41 42  1  0
 41 43  2  0
 43 44  1  0
 43  2  1  0
 39 12  1  0
 25 16  1  0
 37 28  1  0
M  CHG  1  15  -1
M  END
>  <UniqueID>  (3) 
3

>  <SMILES>  (3) 
O=C1[N-]c2ccccc2[C@@H](c2ccccc2)N/C1=N/Cc1ccccc1

>  <Energy>  (3) 
66.11210657432858

>  <Genealogy>  (3) 
O=C1[N-]c2ccccc2C(c2ccccc2)NC1=NCc1ccccc1 (protonated)
O=C1[N-]c2ccccc2[C@@H](c2ccccc2)NC1=NCc1ccccc1 (chirality)
O=C1[N-]c2ccccc2[C@@H](c2ccccc2)N/C1=N/Cc1ccccc1 (cis-trans isomerization)
O=C1[N-]c2ccccc2[C@@H](c2ccccc2)N/C1=N/Cc1ccccc1 (3D coordinates assigned)
O=C1[N-]c2ccccc2[C@@H](c2ccccc2)N/C1=N/Cc1ccccc1 (nonaromatic ring conformer: 66.11210657432858 kcal/mol)

>  <smiles>  (3) 
O=C1Nc2ccccc2C(c2ccccc2)NC1=NCc1ccccc1

>  <score_type>  (3) 
oracle

>  <origin>  (3) 
adg

>  <m_score__min__energy>  (3) 
-9.2899999999999991

>  <m_primary>  (3) 
energy

$$$$
3:0
     RDKit          3D

 42 45  0  0  0  0  0  0  0  0999 V2000
   -0.8560   24.0790  -29.3480 C   0  0  0  0  0  0  0  0  0  0  0  0
   -1.4900   22.7510  -29.3290 N   0  0  0  0  0  0  0  0  0  0  0  0
   -1.2940   21.9750  -30.5740 C   0  0  0  0  0  0  0  0  0  0  0  0
   -2.5650   21.7000  -31.3240 C   0  0  0  0  0  0  0  0  0  0  0  0
   -3.4320   20.6400  -31.1320 C   0  0  0  0  0  0  0  0  0  0  0  0
   -4.3970   20.8140  -32.1120 C   0  0  0  0  0  0  0  0  0  0  0  0
   -5.5070   19.8850  -32.4380 C   0  0  0  0  0  0  0  0  0  0  0  0
   -5.3730   18.9440  -33.4760 C   0  0  0  0  0  0  0  0  0  0  0  0
   -6.4030   18.0380  -33.7480 C   0  0  0  0  0  0  0  0  0  0  0  0
   -7.5720   18.0570  -32.9840 C   0  0  0  0  0  0  0  0  0  0  0  0
   -7.7190   18.9900  -31.9570 C   0  0  0  0  0  0  0  0  0  0  0  0
   -6.6970   19.9000  -31.6840 C   0  0  0  0  0  0  0  0  0  0  0  0
   -4.1040   21.9380  -32.7990 N   0  0  0  0  0  0  0  0  0  0  0  0
   -3.0100   22.4410  -32.3110 O   0  0  0  0  0  0  0  0  0  0  0  0
   -2.8620   22.7270  -28.7640 C   0  0  0  0  0  0  0  0  0  0  0  0
   -3.8580   23.5290  -29.5600 C   0  0  0  0  0  0  0  0  0  0  0  0
   -5.1550   23.1970  -29.7000 N   0  0  0  0  0  0  0  0  0  0  0  0
   -5.5920   24.1740  -30.5230 C   0  0  0  0  0  0  0  0  0  0  0  0
   -6.9770   24.2380  -31.0920 C   0  0  0  0  0  0  0  0  0  0  0  0
   -7.7430   22.9300  -30.9970 C   0  0  0  0  0  0  0  0  0  0  0  0
   -7.2300   23.4090  -32.3440 C   0  0  0  0  0  0  0  0  0  0  0  0
   -4.6190   25.0450  -30.8550 N   0  0  0  0  0  0  0  0  0  0  0  0
   -3.5640   24.6140  -30.2350 O   0  0  0  0  0  0  0  0  0  0  0  0
   -0.6923   24.4219  -28.3157 H   0  0  0  0  0  0  0  0  0  0  0  0
    0.1096   24.0169  -29.8712 H   0  0  0  0  0  0  0  0  0  0  0  0
   -1.5114   24.7908  -29.8712 H   0  0  0  0  0  0  0  0  0  0  0  0
   -0.6185   22.5408  -31.2324 H   0  0  0  0  0  0  0  0  0  0  0  0
   -0.8779   20.9998  -30.2810 H   0  0  0  0  0  0  0  0  0  0  0  0
   -3.3703   19.8430  -30.3764 H   0  0  0  0  0  0  0  0  0  0  0  0
   -4.4521   18.9210  -34.0772 H   0  0  0  0  0  0  0  0  0  0  0  0
   -6.2923   17.3095  -34.5647 H   0  0  0  0  0  0  0  0  0  0  0  0
   -8.3767   17.3365  -33.1919 H   0  0  0  0  0  0  0  0  0  0  0  0
   -8.6432   19.0082  -31.3608 H   0  0  0  0  0  0  0  0  0  0  0  0
   -6.8214   20.6342  -30.8744 H   0  0  0  0  0  0  0  0  0  0  0  0
   -4.6140   22.3400  -33.6160 H   0  0  0  0  0  0  0  0  0  0  0  0
   -3.2053   21.6825  -28.7295 H   0  0  0  0  0  0  0  0  0  0  0  0
   -2.8065   23.1834  -27.7647 H   0  0  0  0  0  0  0  0  0  0  0  0
   -7.1607   25.2870  -30.8168 H   0  0  0  0  0  0  0  0  0  0  0  0
   -7.2817   22.0570  -30.5121 H   0  0  0  0  0  0  0  0  0  0  0  0
   -8.7250   22.6319  -30.6011 H   0  0  0  0  0  0  0  0  0  0  0  0
   -6.3968   22.8839  -32.8339 H   0  0  0  0  0  0  0  0  0  0  0  0
   -7.6855   23.6021  -33.3265 H   0  0  0  0  0  0  0  0  0  0  0  0
  1  2  1  0
  2  3  1  0
  3  4  1  0
  4  5  2  0
  5  6  1  0
  6  7  1  0
  7  8  2  0
  8  9  1  0
  9 10  2  0
 10 11  1  0
 11 12  2  0
  6 13  2  0
 13 14  1  0
  2 15  1  0
 15 16  1  0
 16 17  2  0
 17 18  1  0
 18 19  1  0
 19 20  1  0
 20 21  1  0
 18 22  2  0
 22 23  1  0
 14  4  1  0
 23 16  1  0
 12  7  1  0
 21 19  1  0
  1 24  1  0
  1 25  1  0
  1 26  1  0
  3 27  1  0
  3 28  1  0
  5 29  1  0
  8 30  1  0
  9 31  1  0
 10 32  1  0
 11 33  1  0
 12 34  1  0
 13 35  1  0
 15 36  1  0
 15 37  1  0
 19 38  1  0
 20 39  1  0
 20 40  1  0
 21 41  1  0
 21 42  1  0
M  CHG  1  13   1
M  END
>  <UniqueID>  (4) 
4

>  <SMILES>  (4) 
CN(Cc1cc(-c2ccccc2)[nH+]o1)Cc1nc(C2CC2)no1

>  <Energy>  (4) 
376.78252131071656

>  <Genealogy>  (4) 
CN(Cc1cc(-c2ccccc2)[nH+]o1)Cc1nc(C2CC2)no1 (protonated)
CN(Cc1cc(-c2ccccc2)[nH+]o1)Cc1nc(C2CC2)no1 (3D coordinates assigned)
CN(Cc1cc(-c2ccccc2)[nH+]o1)Cc1nc(C2CC2)no1 (nonaromatic ring conformer: 376.78252131071656 kcal/mol)

>  <smiles>  (4) 
CN(Cc1cc(-c2ccccc2)no1)Cc1nc(C2CC2)no1

>  <score_type>  (4) 
oracle

>  <origin>  (4) 
adg

>  <m_score__min__energy>  (4) 
-8.8000000000000007

>  <m_primary>  (4) 
energy

$$$$
4:0
     RDKit          3D

 63 66  0  0  0  0  0  0  0  0999 V2000
   -2.2470   25.2170  -26.8230 C   0  0  0  0  0  0  0  0  0  0  0  0
   -1.6950   25.3490  -28.2380 C   0  0  0  0  0  0  0  0  0  0  0  0
   -2.5170   24.5580  -29.1830 N   0  0  0  0  0  0  0  0  0  0  0  0
   -1.7530   23.4220  -29.7500 C   0  0  0  0  0  0  0  0  0  0  0  0
   -2.2080   22.0830  -29.1710 C   0  0  0  0  0  0  0  0  0  0  0  0
   -3.8310   24.1790  -28.6060 C   0  0  0  0  0  0  0  0  0  0  0  0
   -5.0380   24.6700  -29.4200 C   0  0  0  0  0  0  0  0  0  0  0  0
   -4.6510   24.8200  -30.7750 O   0  0  0  0  0  0  0  0  0  0  0  0
   -5.2360   23.8310  -31.6010 C   0  0  0  0  0  0  0  0  0  0  0  0
   -4.3310   22.5880  -31.7380 C   0  0  0  0  0  0  0  0  0  0  0  0
   -4.4020   22.0120  -33.0820 N   0  0  0  0  0  0  0  0  0  0  0  0
   -4.1440   20.6170  -33.2810 C   0  0  0  0  0  0  0  0  0  0  0  0
   -2.8430   20.1750  -33.6100 C   0  0  0  0  0  0  0  0  0  0  0  0
   -1.7610   21.0780  -33.6300 C   0  0  0  0  0  0  0  0  0  0  0  0
   -0.4750   20.6420  -33.9360 C   0  0  0  0  0  0  0  0  0  0  0  0
   -0.2400   19.3010  -34.2190 C   0  0  0  0  0  0  0  0  0  0  0  0
   -1.2890   18.3820  -34.1950 C   0  0  0  0  0  0  0  0  0  0  0  0
   -2.6130   18.7930  -33.8970 C   0  0  0  0  0  0  0  0  0  0  0  0
   -3.6620   17.8930  -33.8690 N   0  0  0  0  0  0  0  0  0  0  0  0
   -3.4560   16.4740  -34.2160 C   0  0  0  0  0  0  0  0  0  0  0  0
   -4.8980   18.3360  -33.4780 C   0  0  0  0  0  0  0  0  0  0  0  0
   -6.2880   17.4060  -33.2540 S   0  0  0  0  0  0  0  0  0  0  0  0
   -7.2500   18.6790  -32.7390 C   0  0  0  0  0  0  0  0  0  0  0  0
   -6.5200   19.8690  -32.7690 C   0  0  0  0  0  0  0  0  0  0  0  0
   -5.1730   19.6680  -33.1720 C   0  0  0  0  0  0  0  0  0  0  0  0
   -7.1250   21.1620  -32.2610 C   0  0  0  0  0  0  0  0  0  0  0  0
   -8.6550   21.0830  -32.1070 C   0  0  0  0  0  0  0  0  0  0  0  0
   -9.1030   19.7580  -31.4790 C   0  0  0  0  0  0  0  0  0  0  0  0
   -8.6960   18.5760  -32.3670 C   0  0  0  0  0  0  0  0  0  0  0  0
   -1.4436   25.4091  -26.0966 H   0  0  0  0  0  0  0  0  0  0  0  0
   -3.0567   25.9468  -26.6757 H   0  0  0  0  0  0  0  0  0  0  0  0
   -2.6389   24.1998  -26.6757 H   0  0  0  0  0  0  0  0  0  0  0  0
   -1.7133   26.4071  -28.5380 H   0  0  0  0  0  0  0  0  0  0  0  0
   -0.6621   24.9713  -28.2573 H   0  0  0  0  0  0  0  0  0  0  0  0
   -1.8974   23.4053  -30.8403 H   0  0  0  0  0  0  0  0  0  0  0  0
   -0.6928   23.5620  -29.4922 H   0  0  0  0  0  0  0  0  0  0  0  0
   -2.1907   22.1338  -28.0723 H   0  0  0  0  0  0  0  0  0  0  0  0
   -3.2308   21.8647  -29.5120 H   0  0  0  0  0  0  0  0  0  0  0  0
   -1.5300   21.2867  -29.5120 H   0  0  0  0  0  0  0  0  0  0  0  0
   -3.8783   23.0817  -28.5456 H   0  0  0  0  0  0  0  0  0  0  0  0
   -3.8957   24.6617  -27.6197 H   0  0  0  0  0  0  0  0  0  0  0  0
   -5.8541   23.9359  -29.3487 H   0  0  0  0  0  0  0  0  0  0  0  0
   -5.3852   25.6356  -29.0238 H   0  0  0  0  0  0  0  0  0  0  0  0
   -6.1974   23.5246  -31.1629 H   0  0  0  0  0  0  0  0  0  0  0  0
   -5.3770   24.2627  -32.6029 H   0  0  0  0  0  0  0  0  0  0  0  0
   -3.2910   22.8795  -31.5296 H   0  0  0  0  0  0  0  0  0  0  0  0
   -4.6791   21.8297  -31.0211 H   0  0  0  0  0  0  0  0  0  0  0  0
   -4.6140   22.5980  -33.9210 H   0  0  0  0  0  0  0  0  0  0  0  0
   -1.9349   22.1398  -33.4011 H   0  0  0  0  0  0  0  0  0  0  0  0
    0.3578   21.3604  -33.9540 H   0  0  0  0  0  0  0  0  0  0  0  0
    0.7781   18.9633  -34.4630 H   0  0  0  0  0  0  0  0  0  0  0  0
   -1.0861   17.3226  -34.4105 H   0  0  0  0  0  0  0  0  0  0  0  0
   -3.3698   15.8799  -33.2942 H   0  0  0  0  0  0  0  0  0  0  0  0
   -4.3112   16.1130  -34.8062 H   0  0  0  0  0  0  0  0  0  0  0  0
   -2.5335   16.3711  -34.8062 H   0  0  0  0  0  0  0  0  0  0  0  0
   -6.6844   21.3951  -31.2805 H   0  0  0  0  0  0  0  0  0  0  0  0
   -6.9060   21.9446  -33.0023 H   0  0  0  0  0  0  0  0  0  0  0  0
   -8.9903   21.9111  -31.4653 H   0  0  0  0  0  0  0  0  0  0  0  0
   -9.1007   21.1505  -33.1104 H   0  0  0  0  0  0  0  0  0  0  0  0
   -8.6309   19.6479  -30.4916 H   0  0  0  0  0  0  0  0  0  0  0  0
  -10.1983   19.7655  -31.3780 H   0  0  0  0  0  0  0  0  0  0  0  0
   -8.8638   17.6366  -31.8199 H   0  0  0  0  0  0  0  0  0  0  0  0
   -9.3032   18.5919  -33.2841 H   0  0  0  0  0  0  0  0  0  0  0  0
  1  2  1  0
  2  3  1  0
  3  4  1  0
  4  5  1  0
  3  6  1  0
  6  7  1  0
  7  8  1  0
  8  9  1  0
  9 10  1  0
 10 11  1  0
 11 12  1  0
 12 13  2  0
 13 14  1  0
 14 15  2  0
 15 16  1  0
 16 17  2  0
 17 18  1  0
 18 19  2  0
 19 20  1  0
 19 21  1  0
 21 22  1  0
 22 23  1  0
 23 24  2  0
 24 25  1  0
 24 26  1  0
 26 27  1  0
 27 28  1  0
 28 29  1  0
 25 12  1  0
 18 13  1  0
 25 21  2  0
 29 23  1  0
  1 30  1  0
  1 31  1  0
  1 32  1  0
  2 33  1  0
  2 34  1  0
  4 35  1  0
  4 36  1  0
  5 37  1  0
  5 38  1  0
  5 39  1  0
  6 40  1  0
  6 41  1  0
  7 42  1  0
  7 43  1  0
  9 44  1  0
  9 45  1  0
 10 46  1  0
 10 47  1  0
 11 48  1  0
 14 49  1  0
 15 50  1  0
 16 51  1  0
 17 52  1  0
 20 53  1  0
 20 54  1  0
 20 55  1  0
 26 56  1  0
 26 57  1  0
 27 58  1  0
 27 59  1  0
 28 60  1  0
 28 61  1  0
 29 62  1  0
 29 63  1  0
M  CHG  1  19   1
M  END
>  <UniqueID>  (5) 
5

>  <SMILES>  (5) 
CCN(CC)CCOCCNc1c2ccccc2[n+](C)c2sc3c(c12)CCCC3

>  <Energy>  (5) 
117.04439359115432

>  <Genealogy>  (5) 
CCN(CC)CCOCCNc1c2ccccc2[n+](C)c2sc3c(c12)CCCC3 (3D coordinates assigned)
CCN(CC)CCOCCNc1c2ccccc2[n+](C)c2sc3c(c12)CCCC3 (nonaromatic ring conformer: 117.04439359115432 kcal/mol)

>  <smiles>  (5) 
CCN(CC)CCOCCNc1c2ccccc2[n+](C)c2sc3c(c12)CCCC3

>  <score_type>  (5) 
oracle

>  <origin>  (5) 
adg

>  <m_score__min__energy>  (5) 
-9.4800000000000004

>  <m_primary>  (5) 
energy

$$$$
5:0
     RDKit          3D

 64 68  0  0  0  0  0  0  0  0999 V2000
   -2.4250   24.5980  -28.9240 C   0  0  0  0  0  0  0  0  0  0  0  0
   -3.1090   24.8280  -30.1510 O   0  0  0  0  0  0  0  0  0  0  0  0
   -4.4580   24.5150  -30.3830 C   0  0  0  0  0  0  0  0  0  0  0  0
   -5.5040   25.3140  -29.8780 C   0  0  0  0  0  0  0  0  0  0  0  0
   -6.8350   24.9880  -30.1480 C   0  0  0  0  0  0  0  0  0  0  0  0
   -7.1390   23.8670  -30.9200 C   0  0  0  0  0  0  0  0  0  0  0  0
   -6.1130   23.0660  -31.4240 C   0  0  0  0  0  0  0  0  0  0  0  0
   -4.7700   23.3770  -31.1560 C   0  0  0  0  0  0  0  0  0  0  0  0
   -3.7290   22.5330  -31.6750 N   0  0  0  0  0  0  0  0  0  0  0  0
   -2.6510   22.0590  -30.7990 C   0  0  0  0  0  0  0  0  0  0  0  0
   -2.3010   20.5860  -31.0930 C   0  0  0  0  0  0  0  0  0  0  0  0
   -2.5230   20.1840  -32.5120 N   0  0  0  0  0  0  0  0  0  0  0  0
   -1.6100   19.0920  -32.9310 C   0  0  0  0  0  0  0  0  0  0  0  0
   -2.1640   18.1920  -34.0570 C   0  0  0  0  0  0  0  0  0  0  0  0
   -3.3160   18.7920  -34.6460 O   0  0  0  0  0  0  0  0  0  0  0  0
   -4.5650   18.1620  -34.7090 C   0  0  0  0  0  0  0  0  0  0  0  0
   -4.8000   17.3070  -35.6070 O   0  0  0  0  0  0  0  0  0  0  0  0
   -5.6180   18.5140  -33.6800 C   0  0  2  0  0  0  0  0  0  0  0  0
   -6.1630   19.9570  -33.8850 C   0  0  0  0  0  0  0  0  0  0  0  0
   -7.2350   20.2780  -32.8200 C   0  0  1  0  0  0  0  0  0  0  0  0
   -8.4000   19.2730  -32.9450 C   0  0  0  0  0  0  0  0  0  0  0  0
   -7.8710   17.8380  -32.7260 C   0  0  2  0  0  0  0  0  0  0  0  0
   -7.2450   17.7300  -31.3180 C   0  0  0  0  0  0  0  0  0  0  0  0
   -6.0790   18.7340  -31.1920 C   0  0  2  0  0  0  0  0  0  0  0  0
   -6.6080   20.1680  -31.4120 C   0  0  0  0  0  0  0  0  0  0  0  0
   -5.0050   18.4130  -32.2560 C   0  0  0  0  0  0  0  0  0  0  0  0
   -6.8010   17.5150  -33.7920 C   0  0  0  0  0  0  0  0  0  0  0  0
   -2.5100   21.3280  -33.4510 C   0  0  0  0  0  0  0  0  0  0  0  0
   -3.6580   22.2870  -33.1200 C   0  0  0  0  0  0  0  0  0  0  0  0
   -3.0961   24.8237  -28.0822 H   0  0  0  0  0  0  0  0  0  0  0  0
   -2.1114   23.5450  -28.8708 H   0  0  0  0  0  0  0  0  0  0  0  0
   -1.5389   25.2476  -28.8708 H   0  0  0  0  0  0  0  0  0  0  0  0
   -5.2706   26.1991  -29.2679 H   0  0  0  0  0  0  0  0  0  0  0  0
   -7.6454   25.6169  -29.7508 H   0  0  0  0  0  0  0  0  0  0  0  0
   -8.1883   23.6138  -31.1319 H   0  0  0  0  0  0  0  0  0  0  0  0
   -6.3581   22.1850  -32.0354 H   0  0  0  0  0  0  0  0  0  0  0  0
   -1.7574   22.6795  -30.9616 H   0  0  0  0  0  0  0  0  0  0  0  0
   -2.9910   22.1348  -29.7556 H   0  0  0  0  0  0  0  0  0  0  0  0
   -1.2401   20.4269  -30.8498 H   0  0  0  0  0  0  0  0  0  0  0  0
   -2.9723   19.9692  -30.4775 H   0  0  0  0  0  0  0  0  0  0  0  0
   -3.4880   19.7720  -32.5590 H   0  0  0  0  0  0  0  0  0  0  0  0
   -0.6714   19.5448  -33.2833 H   0  0  0  0  0  0  0  0  0  0  0  0
   -1.4716   18.4449  -32.0523 H   0  0  0  0  0  0  0  0  0  0  0  0
   -1.3907   18.0568  -34.8276 H   0  0  0  0  0  0  0  0  0  0  0  0
   -2.4451   17.2173  -33.6316 H   0  0  0  0  0  0  0  0  0  0  0  0
   -5.3344   20.6748  -33.7945 H   0  0  0  0  0  0  0  0  0  0  0  0
   -6.6162   20.0312  -34.8846 H   0  0  0  0  0  0  0  0  0  0  0  0
   -7.6138   21.2991  -32.9746 H   0  0  0  0  0  0  0  0  0  0  0  0
   -9.1637   19.5015  -32.1870 H   0  0  0  0  0  0  0  0  0  0  0  0
   -8.8434   19.3501  -33.9487 H   0  0  0  0  0  0  0  0  0  0  0  0
   -8.7024   17.1231  -32.8136 H   0  0  0  0  0  0  0  0  0  0  0  0
   -8.0082   17.9581  -30.5594 H   0  0  0  0  0  0  0  0  0  0  0  0
   -6.8664   16.7088  -31.1636 H   0  0  0  0  0  0  0  0  0  0  0  0
   -5.6358   18.6563  -30.1882 H   0  0  0  0  0  0  0  0  0  0  0  0
   -7.3701   20.3977  -30.6528 H   0  0  0  0  0  0  0  0  0  0  0  0
   -5.7757   20.8820  -31.3256 H   0  0  0  0  0  0  0  0  0  0  0  0
   -4.1764   19.1307  -32.1647 H   0  0  0  0  0  0  0  0  0  0  0  0
   -4.6333   17.3902  -32.0955 H   0  0  0  0  0  0  0  0  0  0  0  0
   -6.4291   16.4916  -33.6358 H   0  0  0  0  0  0  0  0  0  0  0  0
   -7.2514   17.6009  -34.7919 H   0  0  0  0  0  0  0  0  0  0  0  0
   -1.5521   21.8615  -33.3628 H   0  0  0  0  0  0  0  0  0  0  0  0
   -2.6344   20.9549  -34.4783 H   0  0  0  0  0  0  0  0  0  0  0  0
   -3.4925   23.2416  -33.6410 H   0  0  0  0  0  0  0  0  0  0  0  0
   -4.6043   21.8319  -33.4479 H   0  0  0  0  0  0  0  0  0  0  0  0
  1  2  1  0
  2  3  1  0
  3  4  2  0
  4  5  1  0
  5  6  2  0
  6  7  1  0
  7  8  2  0
  8  9  1  0
  9 10  1  0
 10 11  1  0
 11 12  1  0
 12 13  1  0
 13 14  1  0
 14 15  1  0
 15 16  1  0
 16 17  2  0
 18 16  1  6
 18 19  1  0
 19 20  1  0
 20 21  1  0
 21 22  1  0
 22 23  1  0
 23 24  1  0
 24 25  1  0
 24 26  1  0
 22 27  1  0
 12 28  1  0
 28 29  1  0
  8  3  1  0
 29  9  1  0
 26 18  1  0
 27 18  1  0
 25 20  1  0
  1 30  1  0
  1 31  1  0
  1 32  1  0
  4 33  1  0
  5 34  1  0
  6 35  1  0
  7 36  1  0
 10 37  1  0
 10 38  1  0
 11 39  1  0
 11 40  1  0
 12 41  1  0
 13 42  1  0
 13 43  1  0
 14 44  1  0
 14 45  1  0
 19 46  1  0
 19 47  1  0
 20 48  1  6
 21 49  1  0
 21 50  1  0
 22 51  1  1
 23 52  1  0
 23 53  1  0
 24 54  1  1
 25 55  1  0
 25 56  1  0
 26 57  1  0
 26 58  1  0
 27 59  1  0
 27 60  1  0
 28 61  1  0
 28 62  1  0
 29 63  1  0
 29 64  1  0
M  CHG  1  12   1
M  END
>  <UniqueID>  (6) 
6

>  <SMILES>  (6) 
COc1ccccc1N1CC[NH+](CCOC(=O)C23CC4CC(CC(C4)C2)C3)CC1

>  <Energy>  (6) 
75.92996492692892

>  <Genealogy>  (6) 
COc1ccccc1N1CC[NH+](CCOC(=O)C23CC4CC(CC(C4)C2)C3)CC1 (protonated)
COc1ccccc1N1CC[NH+](CCOC(=O)C23CC4CC(CC(C4)C2)C3)CC1 (3D coordinates assigned)
COc1ccccc1N1CC[NH+](CCOC(=O)C23CC4CC(CC(C4)C2)C3)CC1 (nonaromatic ring conformer: 75.92996492692892 kcal/mol)

>  <smiles>  (6) 
COc1ccccc1N1CCN(CCOC(=O)C23CC4CC(CC(C4)C2)C3)CC1

>  <score_type>  (6) 
oracle

>  <origin>  (6) 
adg

>  <m_score__min__energy>  (6) 
-7.9800000000000004

>  <m_primary>  (6) 
energy

$$$$
6:0
     RDKit          3D

 46 49  0  0  0  0  0  0  0  0999 V2000
   -3.8000   24.2040  -27.3100 C   0  0  0  0  0  0  0  0  0  0  0  0
   -2.4880   24.7850  -27.8260 C   0  0  0  0  0  0  0  0  0  0  0  0
   -2.4950   24.8640  -29.2880 N   0  0  0  0  0  0  0  0  0  0  0  0
   -3.1690   23.9300  -30.1550 C   0  0  0  0  0  0  0  0  0  0  0  0
   -2.4700   22.9400  -30.8650 C   0  0  0  0  0  0  0  0  0  0  0  0
   -3.1560   22.0450  -31.6840 C   0  0  0  0  0  0  0  0  0  0  0  0
   -4.5490   22.1110  -31.7960 C   0  0  0  0  0  0  0  0  0  0  0  0
   -5.2700   23.1240  -31.1320 C   0  0  0  0  0  0  0  0  0  0  0  0
   -4.5580   24.0320  -30.3220 C   0  0  0  0  0  0  0  0  0  0  0  0
   -6.6560   23.4060  -31.4500 N   0  0  0  0  0  0  0  0  0  0  0  0
   -7.5180   22.2540  -31.6220 C   0  0  0  0  0  0  0  0  0  0  0  0
   -8.8820   22.3700  -31.2880 C   0  0  0  0  0  0  0  0  0  0  0  0
   -9.7960   21.3750  -31.6440 C   0  0  0  0  0  0  0  0  0  0  0  0
   -9.3710   20.2650  -32.3720 C   0  0  0  0  0  0  0  0  0  0  0  0
   -8.0280   20.1350  -32.7240 C   0  0  0  0  0  0  0  0  0  0  0  0
   -7.0980   21.1110  -32.3360 C   0  0  0  0  0  0  0  0  0  0  0  0
   -5.3990   20.8410  -32.6430 S   0  0  0  0  0  0  0  0  0  0  0  0
   -4.9390   19.2740  -31.8970 C   0  0  0  0  0  0  0  0  0  0  0  0
   -5.2760   18.1150  -32.8000 C   0  0  0  0  0  0  0  0  0  0  0  0
   -6.4640   17.3870  -32.6100 C   0  0  0  0  0  0  0  0  0  0  0  0
   -6.8070   16.3520  -33.4850 C   0  0  0  0  0  0  0  0  0  0  0  0
   -5.9630   16.0290  -34.5510 C   0  0  0  0  0  0  0  0  0  0  0  0
   -4.7740   16.7360  -34.7400 C   0  0  0  0  0  0  0  0  0  0  0  0
   -4.4290   17.7730  -33.8690 C   0  0  0  0  0  0  0  0  0  0  0  0
   -3.7946   24.2064  -26.2100 H   0  0  0  0  0  0  0  0  0  0  0  0
   -4.6396   24.8145  -27.6739 H   0  0  0  0  0  0  0  0  0  0  0  0
   -3.9123   23.1720  -27.6739 H   0  0  0  0  0  0  0  0  0  0  0  0
   -2.3523   25.7945  -27.4107 H   0  0  0  0  0  0  0  0  0  0  0  0
   -1.6633   24.1284  -27.5118 H   0  0  0  0  0  0  0  0  0  0  0  0
   -1.9960   25.6740  -29.7220 H   0  0  0  0  0  0  0  0  0  0  0  0
   -1.3759   22.8707  -30.7742 H   0  0  0  0  0  0  0  0  0  0  0  0
   -2.5984   21.2815  -32.2462 H   0  0  0  0  0  0  0  0  0  0  0  0
   -5.1037   24.8381  -29.8097 H   0  0  0  0  0  0  0  0  0  0  0  0
   -7.0570   24.0140  -30.6980 H   0  0  0  0  0  0  0  0  0  0  0  0
   -6.6740   23.9560  -32.3400 H   0  0  0  0  0  0  0  0  0  0  0  0
   -9.2322   23.2566  -30.7391 H   0  0  0  0  0  0  0  0  0  0  0  0
  -10.8518   21.4677  -31.3495 H   0  0  0  0  0  0  0  0  0  0  0  0
  -10.0948   19.4917  -32.6688 H   0  0  0  0  0  0  0  0  0  0  0  0
   -7.6965   19.2638  -33.3081 H   0  0  0  0  0  0  0  0  0  0  0  0
   -3.8561   19.2739  -31.7036 H   0  0  0  0  0  0  0  0  0  0  0  0
   -5.5030   19.1580  -30.9597 H   0  0  0  0  0  0  0  0  0  0  0  0
   -7.1274   17.6334  -31.7679 H   0  0  0  0  0  0  0  0  0  0  0  0
   -7.7415   15.7917  -33.3343 H   0  0  0  0  0  0  0  0  0  0  0  0
   -6.2356   15.2173  -35.2415 H   0  0  0  0  0  0  0  0  0  0  0  0
   -4.1077   16.4764  -35.5758 H   0  0  0  0  0  0  0  0  0  0  0  0
   -3.4896   18.3248  -34.0206 H   0  0  0  0  0  0  0  0  0  0  0  0
  1  2  1  0
  2  3  1  0
  3  4  1  0
  4  5  2  0
  5  6  1  0
  6  7  2  0
  7  8  1  0
  8  9  2  0
  8 10  1  0
 10 11  1  0
 11 12  2  0
 12 13  1  0
 13 14  2  0
 14 15  1  0
 15 16  2  0
 16 17  1  0
 17 18  1  1
 18 19  1  0
 19 20  2  0
 20 21  1  0
 21 22  2  0
 22 23  1  0
 23 24  2  0
  9  4  1  0
 16 11  1  0
 24 19  1  0
 17  7  1  0
  1 25  1  0
  1 26  1  0
  1 27  1  0
  2 28  1  0
  2 29  1  0
  3 30  1  0
  5 31  1  0
  6 32  1  0
  9 33  1  0
 10 34  1  0
 10 35  1  0
 12 36  1  0
 13 37  1  0
 14 38  1  0
 15 39  1  0
 18 40  1  0
 18 41  1  0
 20 42  1  0
 21 43  1  0
 22 44  1  0
 23 45  1  0
 24 46  1  0
M  CHG  2  10   1  17   1
M  END
>  <UniqueID>  (7) 
7

>  <SMILES>  (7) 
CCNc1ccc2c(c1)[NH2+]c1ccccc1[S@+]2Cc1ccccc1

>  <Energy>  (7) 
59.289832355757845

>  <Genealogy>  (7) 
CCNc1ccc2c(c1)[NH2+]c1ccccc1[S+]2Cc1ccccc1 (protonated)
CCNc1ccc2c(c1)[NH2+]c1ccccc1[S@+]2Cc1ccccc1 (chirality)
CCNc1ccc2c(c1)[NH2+]c1ccccc1[S@+]2Cc1ccccc1 (3D coordinates assigned)
CCNc1ccc2c(c1)[NH2+]c1ccccc1[S@+]2Cc1ccccc1 (nonaromatic ring conformer: 59.289832355757845 kcal/mol)

>  <smiles>  (7) 
CCNc1ccc2c(c1)Nc1ccccc1[S+]2Cc1ccccc1

>  <score_type>  (7) 
oracle

>  <origin>  (7) 
adg

>  <m_score__min__energy>  (7) 
-7.79

>  <m_primary>  (7) 
energy

$$$$
7:0
     RDKit          3D

 28 29  0  0  0  0  0  0  0  0999 V2000
   -8.5920   20.5410  -31.9770 C   0  0  0  0  0  0  0  0  0  0  0  0
   -8.5610   22.0190  -31.5920 C   0  0  0  0  0  0  0  0  0  0  0  0
   -7.1960   22.4610  -31.2290 N   0  0  0  0  0  0  0  0  0  0  0  0
   -6.2500   22.1680  -32.3190 C   0  0  0  0  0  0  0  0  0  0  0  0
   -7.1150   23.8790  -30.8030 C   0  0  0  0  0  0  0  0  0  0  0  0
   -5.7220   24.3240  -30.4470 C   0  0  0  0  0  0  0  0  0  0  0  0
   -4.9990   25.1830  -31.1920 N   0  0  0  0  0  0  0  0  0  0  0  0
   -3.8680   25.2920  -30.5660 O   0  0  0  0  0  0  0  0  0  0  0  0
   -3.8830   24.5430  -29.4930 C   0  0  0  0  0  0  0  0  0  0  0  0
   -2.7640   24.4260  -28.5540 C   0  0  0  0  0  0  0  0  0  0  0  0
   -1.4390   24.1710  -28.8910 C   0  0  0  0  0  0  0  0  0  0  0  0
   -0.5900   24.1160  -27.7800 C   0  0  0  0  0  0  0  0  0  0  0  0
   -1.2490   24.3300  -26.5780 C   0  0  0  0  0  0  0  0  0  0  0  0
   -0.4440   24.3360  -24.8500 Br  0  0  0  0  0  0  0  0  0  0  0  0
   -2.8810   24.5860  -26.8830 S   0  0  0  0  0  0  0  0  0  0  0  0
   -5.0530   23.8900  -29.3580 N   0  0  0  0  0  0  0  0  0  0  0  0
   -8.6049   19.9249  -31.0658 H   0  0  0  0  0  0  0  0  0  0  0  0
   -9.4946   20.3357  -32.5712 H   0  0  0  0  0  0  0  0  0  0  0  0
   -7.6988   20.2981  -32.5712 H   0  0  0  0  0  0  0  0  0  0  0  0
   -8.9145   22.6171  -32.4448 H   0  0  0  0  0  0  0  0  0  0  0  0
   -9.2114   22.1591  -30.7160 H   0  0  0  0  0  0  0  0  0  0  0  0
   -5.2813   21.8680  -31.8930 H   0  0  0  0  0  0  0  0  0  0  0  0
   -6.6468   21.3507  -32.9391 H   0  0  0  0  0  0  0  0  0  0  0  0
   -6.1154   23.0665  -32.9391 H   0  0  0  0  0  0  0  0  0  0  0  0
   -7.4819   24.5105  -31.6256 H   0  0  0  0  0  0  0  0  0  0  0  0
   -7.7266   23.9775  -29.8940 H   0  0  0  0  0  0  0  0  0  0  0  0
   -1.0936   24.0272  -29.9254 H   0  0  0  0  0  0  0  0  0  0  0  0
    0.4905   23.9227  -27.8523 H   0  0  0  0  0  0  0  0  0  0  0  0
  1  2  1  0
  2  3  1  0
  3  4  1  0
  3  5  1  0
  5  6  1  0
  6  7  2  0
  7  8  1  0
  8  9  1  0
  9 10  1  0
 10 11  2  0
 11 12  1  0
 12 13  2  0
 13 14  1  0
 13 15  1  0
  9 16  2  0
 16  6  1  0
 15 10  1  0
  1 17  1  0
  1 18  1  0
  1 19  1  0
  2 20  1  0
  2 21  1  0
  4 22  1  0
  4 23  1  0
  4 24  1  0
  5 25  1  0
  5 26  1  0
 11 27  1  0
 12 28  1  0
M  END
>  <UniqueID>  (8) 
8

>  <SMILES>  (8) 
CCN(C)Cc1noc(-c2ccc(Br)s2)n1

>  <Energy>  (8) 
86.81847985025217

>  <Genealogy>  (8) 
CCN(C)Cc1noc(-c2ccc(Br)s2)n1 (3D coordinates assigned)
CCN(C)Cc1noc(-c2ccc(Br)s2)n1 (optimized conformer: 86.81847985025217 kcal/mol)

>  <smiles>  (8) 
CCN(C)Cc1noc(-c2ccc(Br)s2)n1

>  <score_type>  (8) 
oracle

>  <origin>  (8) 
adg

>  <m_score__min__energy>  (8) 
-7.1200000000000001

>  <m_primary>  (8) 
energy

$$$$
8:0
     RDKit          3D

 43 45  0  0  0  0  0  0  0  0999 V2000
   -5.1040   14.9980  -33.4130 C   0  0  0  0  0  0  0  0  0  0  0  0
   -5.4630   16.1440  -34.1780 O   0  0  0  0  0  0  0  0  0  0  0  0
   -5.6030   17.4400  -33.6530 C   0  0  0  0  0  0  0  0  0  0  0  0
   -6.8590   18.0170  -33.4170 C   0  0  0  0  0  0  0  0  0  0  0  0
   -6.9660   19.3140  -32.8930 C   0  0  0  0  0  0  0  0  0  0  0  0
   -8.2310   19.8580  -32.6690 C   0  0  0  0  0  0  0  0  0  0  0  0
   -8.3870   21.1140  -32.1620 N   0  0  0  0  0  0  0  0  0  0  0  0
   -9.7640   21.6020  -31.9610 C   0  0  0  0  0  0  0  0  0  0  0  0
   -7.2880   21.8890  -31.8520 C   0  0  0  0  0  0  0  0  0  0  0  0
   -7.4440   23.1940  -31.3250 C   0  0  0  0  0  0  0  0  0  0  0  0
   -6.3380   23.9930  -31.0050 C   0  0  0  0  0  0  0  0  0  0  0  0
   -6.4780   25.2890  -30.4810 O   0  0  0  0  0  0  0  0  0  0  0  0
   -6.1420   25.6700  -29.1510 C   0  0  0  0  0  0  0  0  0  0  0  0
   -5.0500   23.5020  -31.2070 C   0  0  0  0  0  0  0  0  0  0  0  0
   -3.9670   24.3340  -30.8740 O   0  0  0  0  0  0  0  0  0  0  0  0
   -3.1090   24.1450  -29.7530 C   0  0  0  0  0  0  0  0  0  0  0  0
   -4.8690   22.2110  -31.7290 C   0  0  0  0  0  0  0  0  0  0  0  0
   -5.9700   21.3830  -32.0600 C   0  0  0  0  0  0  0  0  0  0  0  0
   -5.8110   20.0680  -32.5910 C   0  0  0  0  0  0  0  0  0  0  0  0
   -4.5490   19.4690  -32.8370 C   0  0  0  0  0  0  0  0  0  0  0  0
   -4.4460   18.1670  -33.3630 C   0  0  0  0  0  0  0  0  0  0  0  0
   -3.2040   17.5570  -33.6130 O   0  0  0  0  0  0  0  0  0  0  0  0
   -2.7370   17.1590  -34.8990 C   0  0  0  0  0  0  0  0  0  0  0  0
   -5.1781   15.2346  -32.3413 H   0  0  0  0  0  0  0  0  0  0  0  0
   -5.7853   14.1685  -33.6533 H   0  0  0  0  0  0  0  0  0  0  0  0
   -4.0712   14.7055  -33.6533 H   0  0  0  0  0  0  0  0  0  0  0  0
   -7.7711   17.4460  -33.6454 H   0  0  0  0  0  0  0  0  0  0  0  0
   -9.1230   19.2599  -32.9069 H   0  0  0  0  0  0  0  0  0  0  0  0
   -9.9731   21.6761  -30.8836 H   0  0  0  0  0  0  0  0  0  0  0  0
   -9.8730   22.5935  -32.4247 H   0  0  0  0  0  0  0  0  0  0  0  0
  -10.4730   20.9004  -32.4247 H   0  0  0  0  0  0  0  0  0  0  0  0
   -8.4574   23.5900  -31.1629 H   0  0  0  0  0  0  0  0  0  0  0  0
   -6.6963   25.0415  -28.4384 H   0  0  0  0  0  0  0  0  0  0  0  0
   -5.0614   25.5374  -28.9935 H   0  0  0  0  0  0  0  0  0  0  0  0
   -6.4087   26.7255  -28.9935 H   0  0  0  0  0  0  0  0  0  0  0  0
   -3.6853   24.2719  -28.8247 H   0  0  0  0  0  0  0  0  0  0  0  0
   -2.6827   23.1314  -29.7843 H   0  0  0  0  0  0  0  0  0  0  0  0
   -2.2963   24.8857  -29.7843 H   0  0  0  0  0  0  0  0  0  0  0  0
   -3.8476   21.8334  -31.8847 H   0  0  0  0  0  0  0  0  0  0  0  0
   -3.6319   20.0333  -32.6122 H   0  0  0  0  0  0  0  0  0  0  0  0
   -1.9044   16.4495  -34.7833 H   0  0  0  0  0  0  0  0  0  0  0  0
   -3.5556   16.6766  -35.4532 H   0  0  0  0  0  0  0  0  0  0  0  0
   -2.3904   18.0437  -35.4532 H   0  0  0  0  0  0  0  0  0  0  0  0
  1  2  1  0
  2  3  1  0
  3  4  2  0
  4  5  1  0
  5  6  2  0
  6  7  1  0
  7  8  1  0
  7  9  2  0
  9 10  1  0
 10 11  2  0
 11 12  1  0
 12 13  1  0
 11 14  1  0
 14 15  1  0
 15 16  1  0
 14 17  2  0
 17 18  1  0
 18 19  2  0
 19 20  1  0
 20 21  2  0
 21 22  1  0
 22 23  1  0
 21  3  1  0
 19  5  1  0
 18  9  1  0
  1 24  1  0
  1 25  1  0
  1 26  1  0
  4 27  1  0
  6 28  1  0
  8 29  1  0
  8 30  1  0
  8 31  1  0
 10 32  1  0
 13 33  1  0
 13 34  1  0
 13 35  1  0
 16 36  1  0
 16 37  1  0
 16 38  1  0
 17 39  1  0
 20 40  1  0
 23 41  1  0
 23 42  1  0
 23 43  1  0
M  CHG  1   7   1
M  END
>  <UniqueID>  (9) 
9

>  <SMILES>  (9) 
COc1cc2c[n+](C)c3cc(OC)c(OC)cc3c2cc1OC

>  <Energy>  (9) 
59.69030377558194

>  <Genealogy>  (9) 
COc1cc2c[n+](C)c3cc(OC)c(OC)cc3c2cc1OC (3D coordinates assigned)
COc1cc2c[n+](C)c3cc(OC)c(OC)cc3c2cc1OC (optimized conformer: 59.69030377558194 kcal/mol)

>  <smiles>  (9) 
COc1cc2c[n+](C)c3cc(OC)c(OC)cc3c2cc1OC

>  <score_type>  (9) 
oracle

>  <origin>  (9) 
adg

>  <m_score__min__energy>  (9) 
-6.5700000000000003

>  <m_primary>  (9) 
energy

$$$$
9:0
     RDKit          3D

 40 42  0  0  0  0  0  0  0  0999 V2000
   -9.0270   23.4150  -32.3360 C   0  0  0  0  0  0  0  0  0  0  0  0
   -9.1640   22.0920  -31.5900 C   0  0  0  0  0  0  0  0  0  0  0  0
   -8.0470   21.9190  -30.5580 C   0  0  0  0  0  0  0  0  0  0  0  0
   -6.8820   21.2800  -31.1780 N   0  0  0  0  0  0  0  0  0  0  0  0
   -5.6300   21.7900  -31.3160 C   0  0  0  0  0  0  0  0  0  0  0  0
   -5.2120   23.0290  -30.7330 N   0  0  0  0  0  0  0  0  0  0  0  0
   -6.0600   24.2170  -30.8680 C   0  0  0  0  0  0  0  0  0  0  0  0
   -5.2150   25.5120  -30.8370 C   0  0  0  0  0  0  0  0  0  0  0  0
   -3.8530   25.2990  -30.5000 O   0  0  0  0  0  0  0  0  0  0  0  0
   -3.7550   24.4580  -29.3700 C   0  0  0  0  0  0  0  0  0  0  0  0
   -4.1060   23.0250  -29.7740 C   0  0  0  0  0  0  0  0  0  0  0  0
   -4.8180   21.0500  -32.1160 N   0  0  0  0  0  0  0  0  0  0  0  0
   -5.6170   20.0300  -32.4820 C   0  0  0  0  0  0  0  0  0  0  0  0
   -5.3040   18.9780  -33.3390 C   0  0  0  0  0  0  0  0  0  0  0  0
   -6.3130   18.0320  -33.6240 C   0  0  0  0  0  0  0  0  0  0  0  0
   -6.0380   16.9030  -34.5720 C   0  0  0  0  0  0  0  0  0  0  0  0
   -7.6110   18.1970  -33.0730 C   0  0  0  0  0  0  0  0  0  0  0  0
   -7.8930   19.2750  -32.2150 C   0  0  0  0  0  0  0  0  0  0  0  0
   -6.8600   20.1690  -31.9330 C   0  0  0  0  0  0  0  0  0  0  0  0
   -8.9418   24.2377  -31.6108 H   0  0  0  0  0  0  0  0  0  0  0  0
   -8.1268   23.3883  -32.9676 H   0  0  0  0  0  0  0  0  0  0  0  0
   -9.9136   23.5733  -32.9676 H   0  0  0  0  0  0  0  0  0  0  0  0
  -10.1353   22.0701  -31.0742 H   0  0  0  0  0  0  0  0  0  0  0  0
   -9.0932   21.2721  -32.3199 H   0  0  0  0  0  0  0  0  0  0  0  0
   -7.7561   22.9056  -30.1680 H   0  0  0  0  0  0  0  0  0  0  0  0
   -8.4110   21.2841  -29.7368 H   0  0  0  0  0  0  0  0  0  0  0  0
   -6.6019   24.1646  -31.8238 H   0  0  0  0  0  0  0  0  0  0  0  0
   -6.7651   24.2401  -30.0240 H   0  0  0  0  0  0  0  0  0  0  0  0
   -5.2572   25.9776  -31.8327 H   0  0  0  0  0  0  0  0  0  0  0  0
   -5.6423   26.1548  -30.0533 H   0  0  0  0  0  0  0  0  0  0  0  0
   -2.7278   24.4880  -28.9777 H   0  0  0  0  0  0  0  0  0  0  0  0
   -4.4526   24.8029  -28.5925 H   0  0  0  0  0  0  0  0  0  0  0  0
   -3.2267   22.5512  -30.2348 H   0  0  0  0  0  0  0  0  0  0  0  0
   -4.4082   22.4623  -28.8784 H   0  0  0  0  0  0  0  0  0  0  0  0
   -4.3008   18.8866  -33.7808 H   0  0  0  0  0  0  0  0  0  0  0  0
   -5.8156   15.9900  -34.0002 H   0  0  0  0  0  0  0  0  0  0  0  0
   -6.9210   16.7329  -35.2056 H   0  0  0  0  0  0  0  0  0  0  0  0
   -5.1757   17.1580  -35.2056 H   0  0  0  0  0  0  0  0  0  0  0  0
   -8.4034   17.4750  -33.3195 H   0  0  0  0  0  0  0  0  0  0  0  0
   -8.8948   19.4087  -31.7807 H   0  0  0  0  0  0  0  0  0  0  0  0
  1  2  1  0
  2  3  1  0
  3  4  1  0
  4  5  1  0
  5  6  1  0
  6  7  1  0
  7  8  1  0
  8  9  1  0
  9 10  1  0
 10 11  1  0
  5 12  2  0
 12 13  1  0
 13 14  2  0
 14 15  1  0
 15 16  1  0
 15 17  2  0
 17 18  1  0
 18 19  2  0
 19  4  1  0
 11  6  1  0
 19 13  1  0
  1 20  1  0
  1 21  1  0
  1 22  1  0
  2 23  1  0
  2 24  1  0
  3 25  1  0
  3 26  1  0
  7 27  1  0
  7 28  1  0
  8 29  1  0
  8 30  1  0
 10 31  1  0
 10 32  1  0
 11 33  1  0
 11 34  1  0
 14 35  1  0
 16 36  1  0
 16 37  1  0
 16 38  1  0
 17 39  1  0
 18 40  1  0
M  END
>  <UniqueID>  (10) 
10

>  <SMILES>  (10) 
CCCn1c(N2CCOCC2)nc2cc(C)ccc21

>  <Energy>  (10) 
81.96065985039782

>  <Genealogy>  (10) 
CCCn1c(N2CCOCC2)nc2cc(C)ccc21 (3D coordinates assigned)
CCCn1c(N2CCOCC2)nc2cc(C)ccc21 (nonaromatic ring conformer: 81.96065985039782 kcal/mol)

>  <smiles>  (10) 
CCCn1c(N2CCOCC2)nc2cc(C)ccc21

>  <score_type>  (10) 
oracle

>  <origin>  (10) 
adg

>  <m_score__min__energy>  (10) 
-7.7400000000000002

>  <m_primary>  (10) 
energy

$$$$
10:0
     RDKit          3D

 32 34  0  0  0  0  0  0  0  0999 V2000
   -6.1130   25.7430  -28.5990 N   0  0  0  0  0  0  0  0  0  0  0  0
   -6.0180   25.7770  -30.0590 C   0  0  0  0  0  0  0  0  0  0  0  0
   -6.0100   24.3800  -30.6230 C   0  0  0  0  0  0  0  0  0  0  0  0
   -4.8730   23.5690  -30.4920 C   0  0  0  0  0  0  0  0  0  0  0  0
   -4.8540   22.2860  -31.0430 C   0  0  0  0  0  0  0  0  0  0  0  0
   -5.9670   21.7950  -31.7450 C   0  0  0  0  0  0  0  0  0  0  0  0
   -5.9460   20.4750  -32.3140 N   0  0  0  0  0  0  0  0  0  0  0  0
   -4.9390   19.8980  -33.1530 C   0  0  0  0  0  0  0  0  0  0  0  0
   -3.8690   20.4740  -33.4850 O   0  0  0  0  0  0  0  0  0  0  0  0
   -5.3100   18.5340  -33.5130 C   0  0  0  0  0  0  0  0  0  0  0  0
   -4.6520   17.5890  -34.2990 C   0  0  0  0  0  0  0  0  0  0  0  0
   -5.2610   16.3330  -34.4720 C   0  0  0  0  0  0  0  0  0  0  0  0
   -6.5020   16.0510  -33.8600 C   0  0  0  0  0  0  0  0  0  0  0  0
   -7.1450   17.0200  -33.0700 C   0  0  0  0  0  0  0  0  0  0  0  0
   -6.5200   18.2560  -32.9140 C   0  0  0  0  0  0  0  0  0  0  0  0
   -6.9300   19.4420  -32.1720 C   0  0  0  0  0  0  0  0  0  0  0  0
   -8.0110   19.5690  -31.5370 O   0  0  0  0  0  0  0  0  0  0  0  0
   -7.0980   22.6160  -31.8890 C   0  0  0  0  0  0  0  0  0  0  0  0
   -7.1180   23.8980  -31.3350 C   0  0  0  0  0  0  0  0  0  0  0  0
   -6.5360   26.6320  -28.2470 H   0  0  0  0  0  0  0  0  0  0  0  0
   -6.6970   24.9300  -28.2980 H   0  0  0  0  0  0  0  0  0  0  0  0
   -5.1540   25.6400  -28.1960 H   0  0  0  0  0  0  0  0  0  0  0  0
   -6.8808   26.3256  -30.4647 H   0  0  0  0  0  0  0  0  0  0  0  0
   -5.0807   26.2787  -30.3416 H   0  0  0  0  0  0  0  0  0  0  0  0
   -3.9916   23.9457  -29.9523 H   0  0  0  0  0  0  0  0  0  0  0  0
   -3.9605   21.6551  -30.9263 H   0  0  0  0  0  0  0  0  0  0  0  0
   -3.6849   17.8189  -34.7700 H   0  0  0  0  0  0  0  0  0  0  0  0
   -4.7679   15.5661  -35.0874 H   0  0  0  0  0  0  0  0  0  0  0  0
   -6.9693   15.0654  -34.0025 H   0  0  0  0  0  0  0  0  0  0  0  0
   -8.1119   16.8091  -32.5897 H   0  0  0  0  0  0  0  0  0  0  0  0
   -7.9741   22.2465  -32.4421 H   0  0  0  0  0  0  0  0  0  0  0  0
   -8.0077   24.5331  -31.4578 H   0  0  0  0  0  0  0  0  0  0  0  0
  1  2  1  0
  2  3  1  0
  3  4  2  0
  4  5  1  0
  5  6  2  0
  6  7  1  0
  7  8  1  0
  8  9  2  0
  8 10  1  0
 10 11  2  0
 11 12  1  0
 12 13  2  0
 13 14  1  0
 14 15  2  0
 15 16  1  0
 16 17  2  0
  6 18  1  0
 18 19  2  0
 19  3  1  0
 16  7  1  0
 15 10  1  0
  1 20  1  0
  1 21  1  0
  1 22  1  0
  2 23  1  0
  2 24  1  0
  4 25  1  0
  5 26  1  0
 11 27  1  0
 12 28  1  0
 13 29  1  0
 14 30  1  0
 18 31  1  0
 19 32  1  0
M  CHG  1   1   1
M  END
>  <UniqueID>  (11) 
11

>  <SMILES>  (11) 
[NH3+]Cc1ccc(N2C(=O)c3ccccc3C2=O)cc1

>  <Energy>  (11) 
69.72193920446297

>  <Genealogy>  (11) 
[NH3+]Cc1ccc(N2C(=O)c3ccccc3C2=O)cc1 (protonated)
[NH3+]Cc1ccc(N2C(=O)c3ccccc3C2=O)cc1 (3D coordinates assigned)
[NH3+]Cc1ccc(N2C(=O)c3ccccc3C2=O)cc1 (nonaromatic ring conformer: 69.72193920446297 kcal/mol)

>  <smiles>  (11) 
NCc1ccc(N2C(=O)c3ccccc3C2=O)cc1

>  <score_type>  (11) 
oracle

>  <origin>  (11) 
adg

>  <m_score__min__energy>  (11) 
-7.3499999999999996

>  <m_primary>  (11) 
energy

$$$$
11:0
     RDKit          3D

 40 42  0  0  0  0  0  0  0  0999 V2000
   -6.7670   25.6320  -29.7190 C   0  0  0  0  0  0  0  0  0  0  0  0
   -5.7610   24.7790  -30.4260 C   0  0  0  0  0  0  0  0  0  0  0  0
   -4.4800   25.1500  -30.6160 N   0  0  0  0  0  0  0  0  0  0  0  0
   -3.8690   24.1390  -31.2150 N   0  0  0  0  0  0  0  0  0  0  0  0
   -4.7910   23.1750  -31.3930 C   0  0  0  0  0  0  0  0  0  0  0  0
   -4.4010   21.5540  -32.0620 S   0  0  0  0  0  0  0  0  0  0  0  0
   -2.6230   21.6390  -31.6560 C   0  0  0  0  0  0  0  0  0  0  0  0
   -2.4310   21.6190  -30.1720 C   0  0  0  0  0  0  0  0  0  0  0  0
   -2.0270   20.5640  -29.6100 O   0  0  0  0  0  0  0  0  0  0  0  0
   -2.6850   22.7980  -29.3980 N   0  0  0  0  0  0  0  0  0  0  0  0
   -2.4740   22.8200  -27.9510 C   0  0  0  0  0  0  0  0  0  0  0  0
   -2.3890   24.2570  -27.4150 C   0  0  1  0  0  0  0  0  0  0  0  0
   -1.2440   24.4440  -26.4290 C   0  0  0  0  0  0  0  0  0  0  0  0
   -0.8350   25.8640  -26.6680 C   0  0  0  0  0  0  0  0  0  0  0  0
   -1.2310   26.0930  -28.1130 C   0  0  0  0  0  0  0  0  0  0  0  0
   -2.2140   25.1540  -28.4890 O   0  0  0  0  0  0  0  0  0  0  0  0
   -6.0010   23.5500  -30.9310 N   0  0  0  0  0  0  0  0  0  0  0  0
   -7.1850   22.7110  -30.7280 C   0  0  0  0  0  0  0  0  0  0  0  0
   -8.3540   23.0540  -31.6380 C   0  0  0  0  0  0  0  0  0  0  0  0
   -7.5280   21.8080  -31.9030 C   0  0  0  0  0  0  0  0  0  0  0  0
   -6.6398   25.5241  -28.6317 H   0  0  0  0  0  0  0  0  0  0  0  0
   -6.6195   26.6845  -30.0028 H   0  0  0  0  0  0  0  0  0  0  0  0
   -7.7812   25.3144  -30.0028 H   0  0  0  0  0  0  0  0  0  0  0  0
   -2.1069   20.7755  -32.1010 H   0  0  0  0  0  0  0  0  0  0  0  0
   -2.2066   22.5738  -32.0595 H   0  0  0  0  0  0  0  0  0  0  0  0
   -3.0130   23.6580  -29.8940 H   0  0  0  0  0  0  0  0  0  0  0  0
   -3.3125   22.3046  -27.4599 H   0  0  0  0  0  0  0  0  0  0  0  0
   -1.5215   22.3144  -27.7339 H   0  0  0  0  0  0  0  0  0  0  0  0
   -3.3307   24.4596  -26.8839 H   0  0  0  0  0  0  0  0  0  0  0  0
   -1.5842   24.2979  -25.3932 H   0  0  0  0  0  0  0  0  0  0  0  0
   -0.4246   23.7235  -26.5687 H   0  0  0  0  0  0  0  0  0  0  0  0
   -1.3737   26.5491  -25.9969 H   0  0  0  0  0  0  0  0  0  0  0  0
    0.2328   26.0461  -26.4766 H   0  0  0  0  0  0  0  0  0  0  0  0
   -1.6345   27.1101  -28.2252 H   0  0  0  0  0  0  0  0  0  0  0  0
   -0.3472   25.9742  -28.7571 H   0  0  0  0  0  0  0  0  0  0  0  0
   -7.0515   22.5644  -29.6460 H   0  0  0  0  0  0  0  0  0  0  0  0
   -9.3853   22.9613  -31.2668 H   0  0  0  0  0  0  0  0  0  0  0  0
   -8.6460   23.9337  -32.2304 H   0  0  0  0  0  0  0  0  0  0  0  0
   -7.9610   20.8128  -31.7237 H   0  0  0  0  0  0  0  0  0  0  0  0
   -6.9740   21.4115  -32.7666 H   0  0  0  0  0  0  0  0  0  0  0  0
  1  2  1  0
  2  3  2  0
  3  4  1  0
  4  5  2  0
  5  6  1  0
  6  7  1  0
  7  8  1  0
  8  9  2  0
  8 10  1  0
 10 11  1  0
 11 12  1  0
 12 13  1  0
 13 14  1  0
 14 15  1  0
 15 16  1  0
  5 17  1  0
 17 18  1  0
 18 19  1  0
 19 20  1  0
 17  2  1  0
 20 18  1  0
 16 12  1  0
  1 21  1  0
  1 22  1  0
  1 23  1  0
  7 24  1  0
  7 25  1  0
 10 26  1  0
 11 27  1  0
 11 28  1  0
 12 29  1  1
 13 30  1  0
 13 31  1  0
 14 32  1  0
 14 33  1  0
 15 34  1  0
 15 35  1  0
 18 36  1  0
 19 37  1  0
 19 38  1  0
 20 39  1  0
 20 40  1  0
M  END
>  <UniqueID>  (12) 
12

>  <SMILES>  (12) 
Cc1nnc(SCC(=O)NC[C@H]2CCCO2)n1C1CC1

>  <Energy>  (12) 
329.46383671667604

>  <Genealogy>  (12) 
Cc1nnc(SCC(=O)NC[C@H]2CCCO2)n1C1CC1 (chirality)
Cc1nnc(SCC(=O)NC[C@H]2CCCO2)n1C1CC1 (3D coordinates assigned)
Cc1nnc(SCC(=O)NC[C@H]2CCCO2)n1C1CC1 (nonaromatic ring conformer: 329.46383671667604 kcal/mol)

>  <smiles>  (12) 
Cc1nnc(SCC(=O)NCC2CCCO2)n1C1CC1

>  <score_type>  (12) 
oracle

>  <origin>  (12) 
adg

>  <m_score__min__energy>  (12) 
-8.0600000000000005

>  <m_primary>  (12) 
energy

$$$$
12:0
     RDKit          3D

 40 42  0  0  0  0  0  0  0  0999 V2000
   -9.4310   21.9210  -31.9560 C   0  0  0  0  0  0  0  0  0  0  0  0
   -8.4340   21.7360  -30.8170 C   0  0  0  0  0  0  0  0  0  0  0  0
   -7.0560   21.6590  -31.3430 N   0  0  0  0  0  0  0  0  0  0  0  0
   -6.1750   22.7050  -31.1740 C   0  0  0  0  0  0  0  0  0  0  0  0
   -6.6220   24.2070  -30.2830 S   0  0  0  0  0  0  0  0  0  0  0  0
   -5.1080   24.2290  -29.2620 C   0  0  0  0  0  0  0  0  0  0  0  0
   -4.0010   24.9150  -29.9950 C   0  0  0  0  0  0  0  0  0  0  0  0
   -4.1870   25.3260  -31.1720 O   0  0  0  0  0  0  0  0  0  0  0  0
   -2.7470   25.1270  -29.3390 N   0  0  0  0  0  0  0  0  0  0  0  0
   -2.2280   24.2520  -28.2960 C   0  0  0  0  0  0  0  0  0  0  0  0
   -2.1650   22.8370  -28.7810 C   0  0  0  0  0  0  0  0  0  0  0  0
   -2.8810   21.7650  -28.2640 C   0  0  0  0  0  0  0  0  0  0  0  0
   -2.6600   20.5710  -28.9590 C   0  0  0  0  0  0  0  0  0  0  0  0
   -1.7790   20.7010  -30.0260 C   0  0  0  0  0  0  0  0  0  0  0  0
   -1.2730   22.3030  -30.1020 S   0  0  0  0  0  0  0  0  0  0  0  0
   -4.9250   22.6400  -31.6980 N   0  0  0  0  0  0  0  0  0  0  0  0
   -4.4980   21.5600  -32.3920 C   0  0  0  0  0  0  0  0  0  0  0  0
   -3.1990   21.5280  -32.9090 C   0  0  0  0  0  0  0  0  0  0  0  0
   -2.7580   20.4150  -33.6300 C   0  0  0  0  0  0  0  0  0  0  0  0
   -3.6160   19.3320  -33.8400 C   0  0  0  0  0  0  0  0  0  0  0  0
   -4.9180   19.3580  -33.3280 C   0  0  0  0  0  0  0  0  0  0  0  0
   -5.3670   20.4750  -32.5970 C   0  0  0  0  0  0  0  0  0  0  0  0
   -6.6650   20.5530  -32.0620 C   0  0  0  0  0  0  0  0  0  0  0  0
   -7.4720   19.5990  -32.2520 O   0  0  0  0  0  0  0  0  0  0  0  0
  -10.4323   22.1068  -31.5403 H   0  0  0  0  0  0  0  0  0  0  0  0
   -9.1261   22.7779  -32.5747 H   0  0  0  0  0  0  0  0  0  0  0  0
   -9.4538   21.0118  -32.5747 H   0  0  0  0  0  0  0  0  0  0  0  0
   -8.5108   22.5889  -30.1266 H   0  0  0  0  0  0  0  0  0  0  0  0
   -8.6663   20.7991  -30.2896 H   0  0  0  0  0  0  0  0  0  0  0  0
   -5.3103   24.7664  -28.3238 H   0  0  0  0  0  0  0  0  0  0  0  0
   -4.8068   23.1937  -29.0444 H   0  0  0  0  0  0  0  0  0  0  0  0
   -1.2175   24.5836  -28.0152 H   0  0  0  0  0  0  0  0  0  0  0  0
   -2.8988   24.2999  -27.4255 H   0  0  0  0  0  0  0  0  0  0  0  0
   -3.5530   21.8464  -27.3969 H   0  0  0  0  0  0  0  0  0  0  0  0
   -3.1386   19.6188  -28.6865 H   0  0  0  0  0  0  0  0  0  0  0  0
   -1.4661   19.8939  -30.7048 H   0  0  0  0  0  0  0  0  0  0  0  0
   -2.5230   22.3806  -32.7478 H   0  0  0  0  0  0  0  0  0  0  0  0
   -1.7346   20.3914  -34.0326 H   0  0  0  0  0  0  0  0  0  0  0  0
   -3.2672   18.4575  -34.4088 H   0  0  0  0  0  0  0  0  0  0  0  0
   -5.5917   18.5050  -33.4966 H   0  0  0  0  0  0  0  0  0  0  0  0
  1  2  1  0
  2  3  1  0
  3  4  1  0
  4  5  1  0
  5  6  1  0
  6  7  1  0
  7  8  2  0
  7  9  1  0
  9 10  1  0
 10 11  1  0
 11 12  2  0
 12 13  1  0
 13 14  2  0
 14 15  1  0
  4 16  2  0
 16 17  1  0
 17 18  2  0
 18 19  1  0
 19 20  2  0
 20 21  1  0
 21 22  2  0
 22 23  1  0
 23 24  2  0
 23  3  1  0
 15 11  1  0
 22 17  1  0
  1 25  1  0
  1 26  1  0
  1 27  1  0
  2 28  1  0
  2 29  1  0
  6 30  1  0
  6 31  1  0
 10 32  1  0
 10 33  1  0
 12 34  1  0
 13 35  1  0
 14 36  1  0
 18 37  1  0
 19 38  1  0
 20 39  1  0
 21 40  1  0
M  CHG  1   9  -1
M  END
>  <UniqueID>  (13) 
13

>  <SMILES>  (13) 
CCn1c(SCC(=O)[N-]Cc2cccs2)nc2ccccc2c1=O

>  <Energy>  (13) 
63.58051333994633

>  <Genealogy>  (13) 
CCn1c(SCC(=O)[N-]Cc2cccs2)nc2ccccc2c1=O (protonated)
CCn1c(SCC(=O)[N-]Cc2cccs2)nc2ccccc2c1=O (3D coordinates assigned)
CCn1c(SCC(=O)[N-]Cc2cccs2)nc2ccccc2c1=O (optimized conformer: 63.58051333994633 kcal/mol)

>  <smiles>  (13) 
CCn1c(SCC(=O)NCc2cccs2)nc2ccccc2c1=O

>  <score_type>  (13) 
oracle

>  <origin>  (13) 
adg

>  <m_score__min__energy>  (13) 
-10.630000000000001

>  <m_primary>  (13) 
energy

$$$$
13:0
     RDKit          3D

 50 53  0  0  0  0  0  0  0  0999 V2000
   -2.2700   20.3990  -33.5340 C   0  0  0  0  0  0  0  0  0  0  0  0
   -2.6720   19.2380  -34.2530 O   0  0  0  0  0  0  0  0  0  0  0  0
   -3.8450   18.5030  -34.0060 C   0  0  0  0  0  0  0  0  0  0  0  0
   -4.9990   19.1330  -33.5030 C   0  0  0  0  0  0  0  0  0  0  0  0
   -6.1590   18.4010  -33.2310 C   0  0  0  0  0  0  0  0  0  0  0  0
   -7.3720   19.0750  -32.7240 C   0  0  0  0  0  0  0  0  0  0  0  0
   -8.6540   18.5480  -32.6960 C   0  0  0  0  0  0  0  0  0  0  0  0
   -9.5260   19.4720  -32.2200 N   0  0  0  0  0  0  0  0  0  0  0  0
   -8.7440   20.5380  -31.9620 C   0  0  0  0  0  0  0  0  0  0  0  0
   -9.1600   21.7520  -31.4330 C   0  0  0  0  0  0  0  0  0  0  0  0
   -8.1780   22.7240  -31.2020 C   0  0  0  0  0  0  0  0  0  0  0  0
   -6.8240   22.4430  -31.4880 C   0  0  0  0  0  0  0  0  0  0  0  0
   -5.8070   23.4190  -31.2040 N   0  0  0  0  0  0  0  0  0  0  0  0
   -4.3910   23.0460  -31.2480 C   0  0  0  0  0  0  0  0  0  0  0  0
   -3.6040   23.9160  -30.2640 C   0  0  0  0  0  0  0  0  0  0  0  0
   -3.8630   25.2910  -30.4820 O   0  0  0  0  0  0  0  0  0  0  0  0
   -5.2230   25.5730  -30.2130 C   0  0  0  0  0  0  0  0  0  0  0  0
   -6.1340   24.8470  -31.2040 C   0  0  0  0  0  0  0  0  0  0  0  0
   -6.4900   21.2180  -32.0010 N   0  0  0  0  0  0  0  0  0  0  0  0
   -7.4530   20.3280  -32.2470 N   0  0  0  0  0  0  0  0  0  0  0  0
   -6.1820   17.0270  -33.4950 C   0  0  0  0  0  0  0  0  0  0  0  0
   -5.0460   16.3780  -34.0040 C   0  0  0  0  0  0  0  0  0  0  0  0
   -5.0390   15.0000  -34.2770 O   0  0  0  0  0  0  0  0  0  0  0  0
   -4.5680   14.0000  -33.3780 C   0  0  0  0  0  0  0  0  0  0  0  0
   -3.8740   17.1090  -34.2630 C   0  0  0  0  0  0  0  0  0  0  0  0
   -2.7790   16.3860  -34.7750 O   0  0  0  0  0  0  0  0  0  0  0  0
   -1.4580   16.3640  -34.2440 C   0  0  0  0  0  0  0  0  0  0  0  0
   -2.3378   20.2031  -32.4537 H   0  0  0  0  0  0  0  0  0  0  0  0
   -1.2321   20.6517  -33.7963 H   0  0  0  0  0  0  0  0  0  0  0  0
   -2.9295   21.2394  -33.7963 H   0  0  0  0  0  0  0  0  0  0  0  0
   -4.9881   20.2178  -33.3211 H   0  0  0  0  0  0  0  0  0  0  0  0
   -8.9245   17.5300  -33.0132 H   0  0  0  0  0  0  0  0  0  0  0  0
  -10.2188   21.9433  -31.2042 H   0  0  0  0  0  0  0  0  0  0  0  0
   -8.4618   23.7068  -30.7976 H   0  0  0  0  0  0  0  0  0  0  0  0
   -4.2818   21.9873  -30.9701 H   0  0  0  0  0  0  0  0  0  0  0  0
   -4.0025   23.1996  -32.2656 H   0  0  0  0  0  0  0  0  0  0  0  0
   -3.8978   23.6531  -29.2371 H   0  0  0  0  0  0  0  0  0  0  0  0
   -2.5300   23.7335  -30.4166 H   0  0  0  0  0  0  0  0  0  0  0  0
   -5.4648   25.2427  -29.1920 H   0  0  0  0  0  0  0  0  0  0  0  0
   -5.3852   26.6564  -30.3131 H   0  0  0  0  0  0  0  0  0  0  0  0
   -7.1841   24.9837  -30.9062 H   0  0  0  0  0  0  0  0  0  0  0  0
   -5.9850   25.2596  -32.2127 H   0  0  0  0  0  0  0  0  0  0  0  0
   -5.4900   20.9840  -32.1870 H   0  0  0  0  0  0  0  0  0  0  0  0
   -7.0985   16.4502  -33.3019 H   0  0  0  0  0  0  0  0  0  0  0  0
   -4.7256   14.3347  -32.3421 H   0  0  0  0  0  0  0  0  0  0  0  0
   -5.1199   13.0640  -33.5489 H   0  0  0  0  0  0  0  0  0  0  0  0
   -3.4948   13.8294  -33.5489 H   0  0  0  0  0  0  0  0  0  0  0  0
   -1.5045   16.3648  -33.1450 H   0  0  0  0  0  0  0  0  0  0  0  0
   -0.9394   15.4571  -34.5884 H   0  0  0  0  0  0  0  0  0  0  0  0
   -0.9095   17.2531  -34.5884 H   0  0  0  0  0  0  0  0  0  0  0  0
  1  2  1  0
  2  3  1  0
  3  4  2  0
  4  5  1  0
  5  6  1  0
  6  7  2  0
  7  8  1  0
  8  9  2  0
  9 10  1  0
 10 11  2  0
 11 12  1  0
 12 13  1  0
 13 14  1  0
 14 15  1  0
 15 16  1  0
 16 17  1  0
 17 18  1  0
 12 19  2  0
 19 20  1  0
  5 21  2  0
 21 22  1  0
 22 23  1  0
 23 24  1  0
 22 25  2  0
 25 26  1  0
 26 27  1  0
 25  3  1  0
 20  6  1  0
 20  9  1  0
 18 13  1  0
  1 28  1  0
  1 29  1  0
  1 30  1  0
  4 31  1  0
  7 32  1  0
 10 33  1  0
 11 34  1  0
 14 35  1  0
 14 36  1  0
 15 37  1  0
 15 38  1  0
 17 39  1  0
 17 40  1  0
 18 41  1  0
 18 42  1  0
 19 43  1  0
 21 44  1  0
 24 45  1  0
 24 46  1  0
 24 47  1  0
 27 48  1  0
 27 49  1  0
 27 50  1  0
M  CHG  1  19   1
M  END
>  <UniqueID>  (14) 
14

>  <SMILES>  (14) 
COc1cc(-c2cnc3ccc(N4CCOCC4)[nH+]n23)cc(OC)c1OC

>  <Energy>  (14) 
100.28532895944939

>  <Genealogy>  (14) 
COc1cc(-c2cnc3ccc(N4CCOCC4)[nH+]n23)cc(OC)c1OC (protonated)
COc1cc(-c2cnc3ccc(N4CCOCC4)[nH+]n23)cc(OC)c1OC (3D coordinates assigned)
COc1cc(-c2cnc3ccc(N4CCOCC4)[nH+]n23)cc(OC)c1OC (nonaromatic ring conformer: 100.28532895944939 kcal/mol)

>  <smiles>  (14) 
COc1cc(-c2cnc3ccc(N4CCOCC4)nn23)cc(OC)c1OC

>  <score_type>  (14) 
oracle

>  <origin>  (14) 
adg

>  <m_score__min__energy>  (14) 
-7.5199999999999996

>  <m_primary>  (14) 
energy

$$$$
14:0
     RDKit          3D

 41 44  0  0  0  0  0  0  0  0999 V2000
   -3.8390   20.2170  -33.4700 C   0  0  0  0  0  0  0  0  0  0  0  0
   -5.0220   19.3600  -33.3800 N   0  0  0  0  0  0  0  0  0  0  0  0
   -5.1160   18.0460  -33.7050 C   0  0  0  0  0  0  0  0  0  0  0  0
   -4.1280   17.2180  -34.2480 C   0  0  0  0  0  0  0  0  0  0  0  0
   -4.4540   15.8730  -34.4970 C   0  0  0  0  0  0  0  0  0  0  0  0
   -5.7430   15.3780  -34.1980 C   0  0  0  0  0  0  0  0  0  0  0  0
   -6.7200   16.2220  -33.6440 C   0  0  0  0  0  0  0  0  0  0  0  0
   -6.3720   17.5510  -33.4090 C   0  0  0  0  0  0  0  0  0  0  0  0
   -7.0800   18.5960  -32.8620 C   0  0  0  0  0  0  0  0  0  0  0  0
   -8.3740   18.6760  -32.3670 C   0  0  0  0  0  0  0  0  0  0  0  0
   -8.7870   19.9130  -31.8480 C   0  0  0  0  0  0  0  0  0  0  0  0
   -7.9320   20.9940  -31.8250 N   0  0  0  0  0  0  0  0  0  0  0  0
   -8.4070   22.2890  -31.3160 C   0  0  0  0  0  0  0  0  0  0  0  0
   -7.7900   22.6080  -29.9490 C   0  0  0  0  0  0  0  0  0  0  0  0
   -6.5300   23.4250  -30.0870 C   0  0  0  0  0  0  0  0  0  0  0  0
   -5.2730   22.7970  -30.0810 C   0  0  0  0  0  0  0  0  0  0  0  0
   -4.1090   23.5510  -30.2610 C   0  0  0  0  0  0  0  0  0  0  0  0
   -4.1920   24.9330  -30.4510 C   0  0  0  0  0  0  0  0  0  0  0  0
   -5.4400   25.5630  -30.4660 C   0  0  0  0  0  0  0  0  0  0  0  0
   -6.6060   24.8130  -30.2890 C   0  0  0  0  0  0  0  0  0  0  0  0
   -6.6530   20.8950  -32.3180 C   0  0  0  0  0  0  0  0  0  0  0  0
   -6.2290   19.6760  -32.8480 C   0  0  0  0  0  0  0  0  0  0  0  0
   -3.4910   20.4691  -32.4574 H   0  0  0  0  0  0  0  0  0  0  0  0
   -3.0415   19.6857  -34.0101 H   0  0  0  0  0  0  0  0  0  0  0  0
   -4.0954   21.1403  -34.0101 H   0  0  0  0  0  0  0  0  0  0  0  0
   -3.1245   17.6079  -34.4738 H   0  0  0  0  0  0  0  0  0  0  0  0
   -3.6984   15.2001  -34.9286 H   0  0  0  0  0  0  0  0  0  0  0  0
   -5.9835   14.3239  -34.4005 H   0  0  0  0  0  0  0  0  0  0  0  0
   -7.7257   15.8466  -33.4038 H   0  0  0  0  0  0  0  0  0  0  0  0
   -9.0477   17.8065  -32.3808 H   0  0  0  0  0  0  0  0  0  0  0  0
   -9.8082   20.0214  -31.4537 H   0  0  0  0  0  0  0  0  0  0  0  0
   -8.1277   23.0789  -32.0288 H   0  0  0  0  0  0  0  0  0  0  0  0
   -9.4998   22.2384  -31.2014 H   0  0  0  0  0  0  0  0  0  0  0  0
   -8.5193   23.1744  -29.3513 H   0  0  0  0  0  0  0  0  0  0  0  0
   -7.5328   21.6584  -29.4570 H   0  0  0  0  0  0  0  0  0  0  0  0
   -5.2043   21.7090  -29.9343 H   0  0  0  0  0  0  0  0  0  0  0  0
   -3.1269   23.0556  -30.2530 H   0  0  0  0  0  0  0  0  0  0  0  0
   -3.2753   25.5252  -30.5888 H   0  0  0  0  0  0  0  0  0  0  0  0
   -5.5043   26.6506  -30.6173 H   0  0  0  0  0  0  0  0  0  0  0  0
   -7.5865   25.3113  -30.3079 H   0  0  0  0  0  0  0  0  0  0  0  0
   -5.9756   21.7614  -32.2952 H   0  0  0  0  0  0  0  0  0  0  0  0
  1  2  1  0
  2  3  1  0
  3  4  2  0
  4  5  1  0
  5  6  2  0
  6  7  1  0
  7  8  2  0
  8  9  1  0
  9 10  2  0
 10 11  1  0
 11 12  2  0
 12 13  1  0
 13 14  1  0
 14 15  1  0
 15 16  2  0
 16 17  1  0
 17 18  2  0
 18 19  1  0
 19 20  2  0
 12 21  1  0
 21 22  2  0
 22  2  1  0
  8  3  1  0
 22  9  1  0
 20 15  1  0
  1 23  1  0
  1 24  1  0
  1 25  1  0
  4 26  1  0
  5 27  1  0
  6 28  1  0
  7 29  1  0
 10 30  1  0
 11 31  1  0
 13 32  1  0
 13 33  1  0
 14 34  1  0
 14 35  1  0
 16 36  1  0
 17 37  1  0
 18 38  1  0
 19 39  1  0
 20 40  1  0
 21 41  1  0
M  CHG  1  12   1
M  END
>  <UniqueID>  (15) 
15

>  <SMILES>  (15) 
Cn1c2ccccc2c2cc[n+](CCc3ccccc3)cc21

>  <Energy>  (15) 
84.45110926552557

>  <Genealogy>  (15) 
Cn1c2ccccc2c2cc[n+](CCc3ccccc3)cc21 (3D coordinates assigned)
Cn1c2ccccc2c2cc[n+](CCc3ccccc3)cc21 (optimized conformer: 84.45110926552557 kcal/mol)

>  <smiles>  (15) 
Cn1c2ccccc2c2cc[n+](CCc3ccccc3)cc21

>  <score_type>  (15) 
oracle

>  <origin>  (15) 
adg

>  <m_score__min__energy>  (15) 
-7.9699999999999998

>  <m_primary>  (15) 
energy

$$$$
15:0
     RDKit          3D

 47 48  0  0  0  0  0  0  0  0999 V2000
   -3.8780   24.5200  -26.9720 C   0  0  0  0  0  0  0  0  0  0  0  0
   -3.0800   24.4380  -28.2670 C   0  0  0  0  0  0  0  0  0  0  0  0
   -3.9850   24.1580  -29.4230 C   0  0  0  0  0  0  0  0  0  0  0  0
   -4.8220   23.1090  -29.5010 N   0  0  0  0  0  0  0  0  0  0  0  0
   -5.4330   23.3120  -30.6860 C   0  0  0  0  0  0  0  0  0  0  0  0
   -6.4540   22.4550  -31.2380 N   0  0  0  0  0  0  0  0  0  0  0  0
   -6.0880   21.1780  -31.8590 C   0  0  0  0  0  0  0  0  0  0  0  0
   -7.1090   20.7890  -32.9320 C   0  0  0  0  0  0  0  0  0  0  0  0
   -8.4910   20.8190  -32.4190 N   0  0  0  0  0  0  0  0  0  0  0  0
   -8.7810   19.7240  -31.4660 C   0  0  0  0  0  0  0  0  0  0  0  0
   -8.2030   18.4020  -31.9850 C   0  0  0  0  0  0  0  0  0  0  0  0
   -7.0450   18.0420  -31.2560 O   0  0  0  0  0  0  0  0  0  0  0  0
   -5.9930   17.6170  -32.1100 C   0  0  0  0  0  0  0  0  0  0  0  0
   -6.5010   17.4320  -33.5510 C   0  0  0  0  0  0  0  0  0  0  0  0
   -5.6810   18.2670  -34.5440 C   0  0  0  0  0  0  0  0  0  0  0  0
   -6.5020   15.9530  -33.9570 C   0  0  0  0  0  0  0  0  0  0  0  0
   -8.8320   22.1620  -31.9010 C   0  0  0  0  0  0  0  0  0  0  0  0
   -7.8490   22.6630  -30.8300 C   0  0  0  0  0  0  0  0  0  0  0  0
   -4.9890   24.4330  -31.2920 N   0  0  0  0  0  0  0  0  0  0  0  0
   -4.0990   24.9260  -30.4810 O   0  0  0  0  0  0  0  0  0  0  0  0
   -3.1931   24.4496  -26.1142 H   0  0  0  0  0  0  0  0  0  0  0  0
   -4.4168   25.4782  -26.9334 H   0  0  0  0  0  0  0  0  0  0  0  0
   -4.6004   23.6914  -26.9334 H   0  0  0  0  0  0  0  0  0  0  0  0
   -2.5635   25.3946  -28.4351 H   0  0  0  0  0  0  0  0  0  0  0  0
   -2.3479   23.6213  -28.1825 H   0  0  0  0  0  0  0  0  0  0  0  0
   -4.9720   22.3570  -28.7920 H   0  0  0  0  0  0  0  0  0  0  0  0
   -5.0948   21.2727  -32.3223 H   0  0  0  0  0  0  0  0  0  0  0  0
   -6.0731   20.3977  -31.0838 H   0  0  0  0  0  0  0  0  0  0  0  0
   -7.0270   21.4944  -33.7720 H   0  0  0  0  0  0  0  0  0  0  0  0
   -6.8887   19.7600  -33.2522 H   0  0  0  0  0  0  0  0  0  0  0  0
   -8.3281   19.9608  -30.4919 H   0  0  0  0  0  0  0  0  0  0  0  0
   -9.8709   19.6212  -31.3589 H   0  0  0  0  0  0  0  0  0  0  0  0
   -8.9587   17.6101  -31.8764 H   0  0  0  0  0  0  0  0  0  0  0  0
   -7.9301   18.5266  -33.0433 H   0  0  0  0  0  0  0  0  0  0  0  0
   -5.1947   18.3738  -32.1032 H   0  0  0  0  0  0  0  0  0  0  0  0
   -5.6093   16.6531  -31.7445 H   0  0  0  0  0  0  0  0  0  0  0  0
   -7.5397   17.7929  -33.5806 H   0  0  0  0  0  0  0  0  0  0  0  0
   -5.0150   18.9452  -33.9904 H   0  0  0  0  0  0  0  0  0  0  0  0
   -5.0794   17.5978  -35.1766 H   0  0  0  0  0  0  0  0  0  0  0  0
   -6.3610   18.8564  -35.1766 H   0  0  0  0  0  0  0  0  0  0  0  0
   -6.5024   15.3249  -33.0540 H   0  0  0  0  0  0  0  0  0  0  0  0
   -7.4003   15.7373  -34.5541 H   0  0  0  0  0  0  0  0  0  0  0  0
   -5.6040   15.7361  -34.5541 H   0  0  0  0  0  0  0  0  0  0  0  0
   -8.8270   22.8727  -32.7406 H   0  0  0  0  0  0  0  0  0  0  0  0
   -9.8227   22.0895  -31.4286 H   0  0  0  0  0  0  0  0  0  0  0  0
   -8.0167   23.7377  -30.6662 H   0  0  0  0  0  0  0  0  0  0  0  0
   -8.0263   22.0928  -29.9062 H   0  0  0  0  0  0  0  0  0  0  0  0
  1  2  1  0
  2  3  1  0
  3  4  2  0
  4  5  1  0
  5  6  1  0
  6  7  1  0
  7  8  1  0
  8  9  1  0
  9 10  1  0
 10 11  1  0
 11 12  1  0
 12 13  1  0
 13 14  1  0
 14 15  1  0
 14 16  1  0
  9 17  1  0
 17 18  1  0
  5 19  2  0
 19 20  1  0
 20  3  1  0
 18  6  1  0
  1 21  1  0
  1 22  1  0
  1 23  1  0
  2 24  1  0
  2 25  1  0
  4 26  1  0
  7 27  1  0
  7 28  1  0
  8 29  1  0
  8 30  1  0
 10 31  1  0
 10 32  1  0
 11 33  1  0
 11 34  1  0
 13 35  1  0
 13 36  1  0
 14 37  1  0
 15 38  1  0
 15 39  1  0
 15 40  1  0
 16 41  1  0
 16 42  1  0
 16 43  1  0
 17 44  1  0
 17 45  1  0
 18 46  1  0
 18 47  1  0
M  CHG  1   4   1
M  END
>  <UniqueID>  (16) 
16

>  <SMILES>  (16) 
CCc1[nH+]c(N2CCN(CCOCC(C)C)CC2)no1

>  <Energy>  (16) 
77.72017753456484

>  <Genealogy>  (16) 
CCc1[nH+]c(N2CCN(CCOCC(C)C)CC2)no1 (protonated)
CCc1[nH+]c(N2CCN(CCOCC(C)C)CC2)no1 (3D coordinates assigned)
CCc1[nH+]c(N2CCN(CCOCC(C)C)CC2)no1 (nonaromatic ring conformer: 77.72017753456484 kcal/mol)

>  <smiles>  (16) 
CCc1nc(N2CCN(CCOCC(C)C)CC2)no1

>  <score_type>  (16) 
oracle

>  <origin>  (16) 
adg

>  <m_score__min__energy>  (16) 
-6.8899999999999997

>  <m_primary>  (16) 
energy

$$$$
16:0
     RDKit          3D

 60 63  0  0  0  0  0  0  0  0999 V2000
   -5.3740   25.6100  -30.8330 C   0  0  0  0  0  0  0  0  0  0  0  0
   -5.8820   24.7410  -29.6800 C   0  0  0  0  0  0  0  0  0  0  0  0
   -5.0790   23.4960  -29.5760 N   0  0  0  0  0  0  0  0  0  0  0  0
   -4.2490   23.5240  -28.3560 C   0  0  0  0  0  0  0  0  0  0  0  0
   -4.2160   23.3020  -30.7640 C   0  0  0  0  0  0  0  0  0  0  0  0
   -3.9280   21.8060  -30.9860 C   0  0  0  0  0  0  0  0  0  0  0  0
   -3.5210   21.4700  -32.4360 C   0  0  0  0  0  0  0  0  0  0  0  0
   -4.6110   21.6530  -33.4160 N   0  0  0  0  0  0  0  0  0  0  0  0
   -5.7790   20.8310  -33.1140 C   0  0  0  0  0  0  0  0  0  0  0  0
   -6.9510   21.4340  -32.5740 C   0  0  0  0  0  0  0  0  0  0  0  0
   -7.0500   22.8370  -32.3740 C   0  0  0  0  0  0  0  0  0  0  0  0
   -8.2290   23.4200  -31.9150 C   0  0  0  0  0  0  0  0  0  0  0  0
   -9.3390   22.6310  -31.6530 C   0  0  0  0  0  0  0  0  0  0  0  0
   -9.2630   21.2490  -31.8050 C   0  0  0  0  0  0  0  0  0  0  0  0
   -8.0610   20.6170  -32.2190 C   0  0  0  0  0  0  0  0  0  0  0  0
   -7.9630   19.2440  -32.2800 N   0  0  0  0  0  0  0  0  0  0  0  0
   -8.9630   18.4050  -31.5750 C   0  0  0  0  0  0  0  0  0  0  0  0
   -6.9160   18.6500  -32.9570 C   0  0  0  0  0  0  0  0  0  0  0  0
   -6.9330   17.2610  -33.2570 C   0  0  0  0  0  0  0  0  0  0  0  0
   -5.8370   16.6220  -33.8490 C   0  0  0  0  0  0  0  0  0  0  0  0
   -5.8550   15.1570  -34.0990 C   0  0  0  0  0  0  0  0  0  0  0  0
   -7.0290   14.5180  -34.5410 C   0  0  0  0  0  0  0  0  0  0  0  0
   -7.0430   13.1390  -34.7690 C   0  0  0  0  0  0  0  0  0  0  0  0
   -5.8880   12.3850  -34.5620 C   0  0  0  0  0  0  0  0  0  0  0  0
   -4.7150   13.0070  -34.1270 C   0  0  0  0  0  0  0  0  0  0  0  0
   -4.6970   14.3850  -33.8950 C   0  0  0  0  0  0  0  0  0  0  0  0
   -4.7200   17.3790  -34.1920 C   0  0  0  0  0  0  0  0  0  0  0  0
   -4.6980   18.7520  -33.9720 C   0  0  0  0  0  0  0  0  0  0  0  0
   -5.7900   19.4250  -33.3650 C   0  0  0  0  0  0  0  0  0  0  0  0
   -4.8580   26.4926  -30.4272 H   0  0  0  0  0  0  0  0  0  0  0  0
   -4.6741   25.0277  -31.4502 H   0  0  0  0  0  0  0  0  0  0  0  0
   -6.2248   25.9342  -31.4502 H   0  0  0  0  0  0  0  0  0  0  0  0
   -5.8006   25.3043  -28.7387 H   0  0  0  0  0  0  0  0  0  0  0  0
   -6.9316   24.4732  -29.8712 H   0  0  0  0  0  0  0  0  0  0  0  0
   -4.8996   23.5021  -27.4693 H   0  0  0  0  0  0  0  0  0  0  0  0
   -3.5841   22.6478  -28.3447 H   0  0  0  0  0  0  0  0  0  0  0  0
   -3.6447   24.4430  -28.3447 H   0  0  0  0  0  0  0  0  0  0  0  0
   -4.7251   23.7076  -31.6508 H   0  0  0  0  0  0  0  0  0  0  0  0
   -3.2629   23.8260  -30.5994 H   0  0  0  0  0  0  0  0  0  0  0  0
   -3.1098   21.5049  -30.3153 H   0  0  0  0  0  0  0  0  0  0  0  0
   -4.8597   21.2607  -30.7751 H   0  0  0  0  0  0  0  0  0  0  0  0
   -2.6835   22.1234  -32.7219 H   0  0  0  0  0  0  0  0  0  0  0  0
   -3.2474   20.4047  -32.4546 H   0  0  0  0  0  0  0  0  0  0  0  0
   -4.8890   22.6580  -33.4340 H   0  0  0  0  0  0  0  0  0  0  0  0
   -4.2450   21.5310  -34.3780 H   0  0  0  0  0  0  0  0  0  0  0  0
   -6.1793   23.4750  -32.5856 H   0  0  0  0  0  0  0  0  0  0  0  0
   -8.2796   24.5079  -31.7601 H   0  0  0  0  0  0  0  0  0  0  0  0
  -10.2798   23.0971  -31.3250 H   0  0  0  0  0  0  0  0  0  0  0  0
  -10.1521   20.6346  -31.6002 H   0  0  0  0  0  0  0  0  0  0  0  0
   -8.8326   18.5144  -30.4883 H   0  0  0  0  0  0  0  0  0  0  0  0
   -9.9762   18.7273  -31.8570 H   0  0  0  0  0  0  0  0  0  0  0  0
   -8.8217   17.3512  -31.8570 H   0  0  0  0  0  0  0  0  0  0  0  0
   -7.8310   16.6724  -33.0178 H   0  0  0  0  0  0  0  0  0  0  0  0
   -7.9420   15.1083  -34.7082 H   0  0  0  0  0  0  0  0  0  0  0  0
   -7.9657   12.6480  -35.1120 H   0  0  0  0  0  0  0  0  0  0  0  0
   -5.9006   11.2998  -34.7414 H   0  0  0  0  0  0  0  0  0  0  0  0
   -3.8043   12.4112  -33.9669 H   0  0  0  0  0  0  0  0  0  0  0  0
   -3.7712   14.8691  -33.5506 H   0  0  0  0  0  0  0  0  0  0  0  0
   -3.8456   16.8859  -34.6418 H   0  0  0  0  0  0  0  0  0  0  0  0
   -3.8129   19.3302  -34.2758 H   0  0  0  0  0  0  0  0  0  0  0  0
  1  2  1  0
  2  3  1  0
  3  4  1  0
  3  5  1  0
  5  6  1  0
  6  7  1  0
  7  8  1  0
  8  9  1  0
  9 10  2  0
 10 11  1  0
 11 12  2  0
 12 13  1  0
 13 14  2  0
 14 15  1  0
 15 16  2  0
 16 17  1  0
 16 18  1  0
 18 19  2  0
 19 20  1  0
 20 21  1  0
 21 22  2  0
 22 23  1  0
 23 24  2  0
 24 25  1  0
 25 26  2  0
 20 27  2  0
 27 28  1  0
 28 29  2  0
 29  9  1  0
 15 10  1  0
 29 18  1  0
 26 21  1  0
  1 30  1  0
  1 31  1  0
  1 32  1  0
  2 33  1  0
  2 34  1  0
  4 35  1  0
  4 36  1  0
  4 37  1  0
  5 38  1  0
  5 39  1  0
  6 40  1  0
  6 41  1  0
  7 42  1  0
  7 43  1  0
  8 44  1  0
  8 45  1  0
 11 46  1  0
 12 47  1  0
 13 48  1  0
 14 49  1  0
 17 50  1  0
 17 51  1  0
 17 52  1  0
 19 53  1  0
 22 54  1  0
 23 55  1  0
 24 56  1  0
 25 57  1  0
 26 58  1  0
 27 59  1  0
 28 60  1  0
M  CHG  2   8   1  16   1
M  END
>  <UniqueID>  (17) 
17

>  <SMILES>  (17) 
CCN(C)CCC[NH2+]c1c2ccccc2[n+](C)c2cc(-c3ccccc3)ccc12

>  <Energy>  (17) 
96.98067123734974

>  <Genealogy>  (17) 
CCN(C)CCC[NH2+]c1c2ccccc2[n+](C)c2cc(-c3ccccc3)ccc12 (protonated)
CCN(C)CCC[NH2+]c1c2ccccc2[n+](C)c2cc(-c3ccccc3)ccc12 (3D coordinates assigned)
CCN(C)CCC[NH2+]c1c2ccccc2[n+](C)c2cc(-c3ccccc3)ccc12 (optimized conformer: 96.98067123734974 kcal/mol)

>  <smiles>  (17) 
CCN(C)CCCNc1c2ccccc2[n+](C)c2cc(-c3ccccc3)ccc12

>  <score_type>  (17) 
oracle

>  <origin>  (17) 
adg

>  <m_score__min__energy>  (17) 
-9.0899999999999999

>  <m_primary>  (17) 
energy

$$$$
17:0
     RDKit          3D

 68 70  0  0  0  0  0  0  0  0999 V2000
   -8.4558   24.6449  -30.9634 H   0  0  0  0  0  0  0  0  0  0  0  0
   -7.4660   24.1670  -30.9200 C   0  0  0  0  0  0  0  0  0  0  0  0
   -7.3120   22.8430  -31.3350 C   0  0  0  0  0  0  0  0  0  0  0  0
   -8.1824   22.2793  -31.7020 H   0  0  0  0  0  0  0  0  0  0  0  0
   -6.0550   22.2300  -31.2860 C   0  0  0  0  0  0  0  0  0  0  0  0
   -5.9421   21.1863  -31.6146 H   0  0  0  0  0  0  0  0  0  0  0  0
   -4.9310   22.9440  -30.8170 C   0  0  0  0  0  0  0  0  0  0  0  0
   -3.6410   22.3690  -30.7720 C   0  0  0  0  0  0  0  0  0  0  0  0
   -3.4730   21.1370  -31.1770 N   0  0  0  0  0  0  0  0  0  0  0  0
   -3.4810   20.6400  -32.5540 C   0  0  0  0  0  0  0  0  0  0  0  0
   -4.0642   21.3269  -33.1849 H   0  0  0  0  0  0  0  0  0  0  0  0
   -2.4455   20.5813  -32.9204 H   0  0  0  0  0  0  0  0  0  0  0  0
   -4.1100   19.2460  -32.6090 C   0  0  0  0  0  0  0  0  0  0  0  0
   -3.3181   18.4947  -32.7450 H   0  0  0  0  0  0  0  0  0  0  0  0
   -4.6483   19.0566  -31.6686 H   0  0  0  0  0  0  0  0  0  0  0  0
   -5.0650   19.1620  -33.7400 N   0  0  0  0  0  0  0  0  0  0  0  0
   -6.2330   20.0560  -33.5580 C   0  0  0  0  0  0  0  0  0  0  0  0
   -5.9108   20.9499  -33.0037 H   0  0  0  0  0  0  0  0  0  0  0  0
   -6.6148   20.3168  -34.5561 H   0  0  0  0  0  0  0  0  0  0  0  0
   -7.3810   19.3740  -32.7770 C   0  0  0  0  0  0  0  0  0  0  0  0
   -7.8487   20.1115  -32.1081 H   0  0  0  0  0  0  0  0  0  0  0  0
   -8.1154   18.9884  -33.4994 H   0  0  0  0  0  0  0  0  0  0  0  0
   -6.8970   18.2920  -32.0060 O   0  0  0  0  0  0  0  0  0  0  0  0
   -6.4280   17.2580  -32.8560 C   0  0  0  0  0  0  0  0  0  0  0  0
   -5.8606   16.5361  -32.2502 H   0  0  0  0  0  0  0  0  0  0  0  0
   -7.3071   16.7951  -33.3282 H   0  0  0  0  0  0  0  0  0  0  0  0
   -5.5130   17.7780  -33.9890 C   0  0  0  0  0  0  0  0  0  0  0  0
   -4.6303   17.1256  -34.0615 H   0  0  0  0  0  0  0  0  0  0  0  0
   -6.0896   17.7686  -34.9257 H   0  0  0  0  0  0  0  0  0  0  0  0
   -2.5690   23.1480  -30.2900 C   0  0  0  0  0  0  0  0  0  0  0  0
   -1.5531   22.7267  -30.2662 H   0  0  0  0  0  0  0  0  0  0  0  0
   -2.7930   24.4600  -29.8400 C   0  0  0  0  0  0  0  0  0  0  0  0
   -1.7370   25.2670  -29.2880 N   0  0  0  0  0  0  0  0  0  0  0  0
   -1.1160   25.7760  -29.9560 H   0  0  0  0  0  0  0  0  0  0  0  0
   -1.5490   25.5290  -27.8570 C   0  0  0  0  0  0  0  0  0  0  0  0
   -2.0387   26.4799  -27.6004 H   0  0  0  0  0  0  0  0  0  0  0  0
   -0.4690   25.5774  -27.6540 H   0  0  0  0  0  0  0  0  0  0  0  0
   -2.1520   24.4080  -26.9950 C   0  0  0  0  0  0  0  0  0  0  0  0
   -2.9619   23.9227  -27.5593 H   0  0  0  0  0  0  0  0  0  0  0  0
   -2.5297   24.8597  -26.0658 H   0  0  0  0  0  0  0  0  0  0  0  0
   -1.1080   23.3490  -26.6170 C   0  0  0  0  0  0  0  0  0  0  0  0
   -0.8567   23.4559  -25.5515 H   0  0  0  0  0  0  0  0  0  0  0  0
   -0.2144   23.4995  -27.2406 H   0  0  0  0  0  0  0  0  0  0  0  0
   -1.6450   21.9350  -26.8660 C   0  0  0  0  0  0  0  0  0  0  0  0
   -2.1808   21.9179  -27.8265 H   0  0  0  0  0  0  0  0  0  0  0  0
   -2.3223   21.6676  -26.0415 H   0  0  0  0  0  0  0  0  0  0  0  0
   -0.4960   20.9060  -26.9110 C   0  0  0  0  0  0  0  0  0  0  0  0
   -0.3151   20.5445  -25.8880 H   0  0  0  0  0  0  0  0  0  0  0  0
    0.3766   21.4217  -27.3383 H   0  0  0  0  0  0  0  0  0  0  0  0
   -0.7700   19.7320  -27.7800 N   0  0  0  0  0  0  0  0  0  0  0  0
   -1.4360   18.6350  -27.0410 C   0  0  0  0  0  0  0  0  0  0  0  0
   -0.8913   18.4447  -26.1044 H   0  0  0  0  0  0  0  0  0  0  0  0
   -1.4363   17.7297  -27.6659 H   0  0  0  0  0  0  0  0  0  0  0  0
   -2.8780   19.0170  -26.7170 C   0  0  0  0  0  0  0  0  0  0  0  0
   -3.0116   19.0524  -25.6257 H   0  0  0  0  0  0  0  0  0  0  0  0
   -3.1008   20.0051  -27.1459 H   0  0  0  0  0  0  0  0  0  0  0  0
   -3.5608   18.2687  -27.1459 H   0  0  0  0  0  0  0  0  0  0  0  0
   -1.4960   20.0590  -29.0290 C   0  0  0  0  0  0  0  0  0  0  0  0
   -2.1401   19.2087  -29.2976 H   0  0  0  0  0  0  0  0  0  0  0  0
   -2.0887   20.9677  -28.8477 H   0  0  0  0  0  0  0  0  0  0  0  0
   -0.5460   20.3420  -30.1890 C   0  0  0  0  0  0  0  0  0  0  0  0
    0.4379   20.6351  -29.7940 H   0  0  0  0  0  0  0  0  0  0  0  0
   -0.4391   19.4367  -30.8046 H   0  0  0  0  0  0  0  0  0  0  0  0
   -0.9519   21.1582  -30.8046 H   0  0  0  0  0  0  0  0  0  0  0  0
   -4.0420   24.9880  -29.9210 N   0  0  0  0  0  0  0  0  0  0  0  0
   -5.1020   24.2820  -30.3930 C   0  0  0  0  0  0  0  0  0  0  0  0
   -6.3650   24.8850  -30.4500 C   0  0  0  0  0  0  0  0  0  0  0  0
   -6.4897   25.9279  -30.1233 H   0  0  0  0  0  0  0  0  0  0  0  0
  1  2  1  0
  2  3  2  0
  3  4  1  0
  3  5  1  0
  5  6  1  0
  5  7  2  0
  7  8  1  0
  8  9  2  0
  9 10  1  0
 10 11  1  0
 10 12  1  0
 10 13  1  0
 13 14  1  0
 13 15  1  0
 13 16  1  0
 16 17  1  0
 17 18  1  0
 17 19  1  0
 17 20  1  0
 20 21  1  0
 20 22  1  0
 20 23  1  0
 23 24  1  0
 24 25  1  0
 24 26  1  0
 24 27  1  0
 27 28  1  0
 27 29  1  0
  8 30  1  0
 30 31  1  0
 30 32  2  0
 32 33  1  0
 33 34  1  0
 33 35  1  0
 35 36  1  0
 35 37  1  0
 35 38  1  0
 38 39  1  0
 38 40  1  0
 38 41  1  0
 41 42  1  0
 41 43  1  0
 41 44  1  0
 44 45  1  0
 44 46  1  0
 44 47  1  0
 47 48  1  0
 47 49  1  0
 47 50  1  0
 50 51  1  0
 51 52  1  0
 51 53  1  0
 51 54  1  0
 54 55  1  0
 54 56  1  0
 54 57  1  0
 50 58  1  0
 58 59  1  0
 58 60  1  0
 58 61  1  0
 61 62  1  0
 61 63  1  0
 61 64  1  0
 32 65  1  0
 65 66  1  0
 66 67  2  0
 67 68  1  0
 67  2  1  0
 66  7  1  0
 27 16  1  0
M  CHG  1  65  -1
M  END
>  <UniqueID>  (18) 
18

>  <SMILES>  (18) 
CCN(CC)CCCCCNc1c/c(=N\CCN2CCOCC2)c2ccccc2[n-]1

>  <Energy>  (18) 
78.67682974408096

>  <Genealogy>  (18) 
CCN(CC)CCCCCNc1cc(=NCCN2CCOCC2)c2ccccc2[n-]1 (protonated)
CCN(CC)CCCCCNc1c/c(=N\CCN2CCOCC2)c2ccccc2[n-]1 (cis-trans isomerization)
CCN(CC)CCCCCNc1c/c(=N\CCN2CCOCC2)c2ccccc2[n-]1 (3D coordinates assigned)
CCN(CC)CCCCCNc1c/c(=N\CCN2CCOCC2)c2ccccc2[n-]1 (nonaromatic ring conformer: 78.67682974408096 kcal/mol)

>  <smiles>  (18) 
CCN(CC)CCCCCNc1cc(=NCCN2CCOCC2)c2ccccc2[nH]1

>  <score_type>  (18) 
oracle

>  <origin>  (18) 
adg

>  <m_score__min__energy>  (18) 
-9.8800000000000008

>  <m_primary>  (18) 
energy

$$$$
18:0
     RDKit          3D

 49 51  0  0  0  0  0  0  0  0999 V2000
   -8.5330   18.6050  -31.6040 C   0  0  0  0  0  0  0  0  0  0  0  0
   -9.2350   19.6310  -32.4930 C   0  0  0  0  0  0  0  0  0  0  0  0
   -8.6720   21.0550  -32.3170 C   0  0  0  0  0  0  0  0  0  0  0  0
   -7.5560   21.1470  -31.2630 C   0  0  0  0  0  0  0  0  0  0  0  0
   -6.4240   21.9580  -31.7280 N   0  0  0  0  0  0  0  0  0  0  0  0
   -6.2140   23.2710  -31.4950 C   0  0  0  0  0  0  0  0  0  0  0  0
   -7.2730   24.3320  -30.5060 S   0  0  0  0  0  0  0  0  0  0  0  0
   -5.9310   25.4660  -30.0150 C   0  0  0  0  0  0  0  0  0  0  0  0
   -4.7720   24.7050  -29.4530 C   0  0  0  0  0  0  0  0  0  0  0  0
   -4.9050   24.0940  -28.3570 O   0  0  0  0  0  0  0  0  0  0  0  0
   -3.5430   24.6190  -30.1900 N   0  0  0  0  0  0  0  0  0  0  0  0
   -2.3790   23.9420  -29.6930 C   0  0  0  0  0  0  0  0  0  0  0  0
   -2.2390   22.5670  -29.9320 C   0  0  0  0  0  0  0  0  0  0  0  0
   -1.1220   21.8770  -29.4590 C   0  0  0  0  0  0  0  0  0  0  0  0
   -0.1280   22.5560  -28.7550 C   0  0  0  0  0  0  0  0  0  0  0  0
   -0.2390   23.9310  -28.5340 C   0  0  0  0  0  0  0  0  0  0  0  0
   -1.3590   24.6410  -29.0130 C   0  0  0  0  0  0  0  0  0  0  0  0
   -1.4760   26.0320  -28.8540 O   0  0  0  0  0  0  0  0  0  0  0  0
   -0.8560   26.7810  -27.8130 C   0  0  0  0  0  0  0  0  0  0  0  0
   -5.1140   23.7200  -32.1240 N   0  0  0  0  0  0  0  0  0  0  0  0
   -4.5950   22.6880  -32.7700 N   0  0  0  0  0  0  0  0  0  0  0  0
   -5.3820   21.6210  -32.5280 C   0  0  0  0  0  0  0  0  0  0  0  0
   -5.0860   20.2860  -33.0910 C   0  0  0  0  0  0  0  0  0  0  0  0
   -3.9030   19.5840  -32.8760 C   0  0  0  0  0  0  0  0  0  0  0  0
   -3.8880   18.3150  -33.4670 C   0  0  0  0  0  0  0  0  0  0  0  0
   -5.0600   17.9980  -34.1390 C   0  0  0  0  0  0  0  0  0  0  0  0
   -6.1120   19.3000  -33.9920 S   0  0  0  0  0  0  0  0  0  0  0  0
   -8.7052   18.8567  -30.5471 H   0  0  0  0  0  0  0  0  0  0  0  0
   -8.9355   17.6027  -31.8125 H   0  0  0  0  0  0  0  0  0  0  0  0
   -7.4530   18.6171  -31.8125 H   0  0  0  0  0  0  0  0  0  0  0  0
   -9.1097   19.3305  -33.5437 H   0  0  0  0  0  0  0  0  0  0  0  0
  -10.2950   19.6543  -32.2001 H   0  0  0  0  0  0  0  0  0  0  0  0
   -8.2673   21.3913  -33.2830 H   0  0  0  0  0  0  0  0  0  0  0  0
   -9.4999   21.6896  -31.9681 H   0  0  0  0  0  0  0  0  0  0  0  0
   -7.9670   21.6020  -30.3497 H   0  0  0  0  0  0  0  0  0  0  0  0
   -7.1871   20.1289  -31.0699 H   0  0  0  0  0  0  0  0  0  0  0  0
   -5.5970   26.0327  -30.8966 H   0  0  0  0  0  0  0  0  0  0  0  0
   -6.3120   26.1499  -29.2423 H   0  0  0  0  0  0  0  0  0  0  0  0
   -3.5500   24.9150  -31.1920 H   0  0  0  0  0  0  0  0  0  0  0  0
   -3.0150   22.0288  -30.4961 H   0  0  0  0  0  0  0  0  0  0  0  0
   -1.0255   20.7966  -29.6416 H   0  0  0  0  0  0  0  0  0  0  0  0
    0.7456   22.0076  -28.3728 H   0  0  0  0  0  0  0  0  0  0  0  0
    0.5513   24.4624  -27.9835 H   0  0  0  0  0  0  0  0  0  0  0  0
   -1.1797   26.3900  -26.8371 H   0  0  0  0  0  0  0  0  0  0  0  0
    0.2371   26.6930  -27.8990 H   0  0  0  0  0  0  0  0  0  0  0  0
   -1.1466   27.8384  -27.8990 H   0  0  0  0  0  0  0  0  0  0  0  0
   -3.0599   19.9883  -32.2966 H   0  0  0  0  0  0  0  0  0  0  0  0
   -3.0274   17.6328  -33.4045 H   0  0  0  0  0  0  0  0  0  0  0  0
   -5.2645   17.0590  -34.6741 H   0  0  0  0  0  0  0  0  0  0  0  0
  1  2  1  0
  2  3  1  0
  3  4  1  0
  4  5  1  0
  5  6  1  0
  6  7  1  0
  7  8  1  0
  8  9  1  0
  9 10  2  0
  9 11  1  0
 11 12  1  0
 12 13  2  0
 13 14  1  0
 14 15  2  0
 15 16  1  0
 16 17  2  0
 17 18  1  0
 18 19  1  0
  6 20  2  0
 20 21  1  0
 21 22  2  0
 22 23  1  0
 23 24  2  0
 24 25  1  0
 25 26  2  0
 26 27  1  0
 22  5  1  0
 27 23  1  0
 17 12  1  0
  1 28  1  0
  1 29  1  0
  1 30  1  0
  2 31  1  0
  2 32  1  0
  3 33  1  0
  3 34  1  0
  4 35  1  0
  4 36  1  0
  8 37  1  0
  8 38  1  0
 11 39  1  0
 13 40  1  0
 14 41  1  0
 15 42  1  0
 16 43  1  0
 19 44  1  0
 19 45  1  0
 19 46  1  0
 24 47  1  0
 25 48  1  0
 26 49  1  0
M  END
>  <UniqueID>  (19) 
19

>  <SMILES>  (19) 
CCCCn1c(SCC(=O)Nc2ccccc2OC)nnc1-c1cccs1

>  <Energy>  (19) 
107.64153946448599

>  <Genealogy>  (19) 
CCCCn1c(SCC(=O)Nc2ccccc2OC)nnc1-c1cccs1 (3D coordinates assigned)
CCCCn1c(SCC(=O)Nc2ccccc2OC)nnc1-c1cccs1 (optimized conformer: 107.64153946448599 kcal/mol)

>  <smiles>  (19) 
CCCCn1c(SCC(=O)Nc2ccccc2OC)nnc1-c1cccs1

>  <score_type>  (19) 
oracle

>  <origin>  (19) 
adg

>  <m_score__min__energy>  (19) 
-9.2300000000000004

>  <m_primary>  (19) 
energy

$$$$
19:0
     RDKit          3D

 58 61  0  0  0  0  0  0  0  0999 V2000
    0.4280   21.2150  -34.2900 C   0  0  0  0  0  0  0  0  0  0  0  0
   -0.2270   20.8400  -33.0830 O   0  0  0  0  0  0  0  0  0  0  0  0
   -1.5750   21.1150  -32.8380 C   0  0  0  0  0  0  0  0  0  0  0  0
   -2.5410   20.6650  -33.6840 N   0  0  0  0  0  0  0  0  0  0  0  0
   -3.8530   20.9260  -33.4570 C   0  0  0  0  0  0  0  0  0  0  0  0
   -4.2340   21.6550  -32.3270 C   0  0  0  0  0  0  0  0  0  0  0  0
   -5.6560   21.9630  -32.0630 C   0  0  0  0  0  0  0  0  0  0  0  0
   -5.9970   23.2610  -31.6470 C   0  0  0  0  0  0  0  0  0  0  0  0
   -7.3200   23.5840  -31.3430 C   0  0  0  0  0  0  0  0  0  0  0  0
   -8.3170   22.6170  -31.4430 C   0  0  0  0  0  0  0  0  0  0  0  0
   -8.0030   21.3140  -31.8550 C   0  0  0  0  0  0  0  0  0  0  0  0
   -6.6730   20.9850  -32.1960 C   0  0  0  0  0  0  0  0  0  0  0  0
   -6.3770   19.6680  -32.7060 N   0  0  0  0  0  0  0  0  0  0  0  0
   -7.4140   18.6440  -32.8930 C   0  0  1  0  0  0  0  0  0  0  0  0
   -6.7970   17.2320  -32.7460 C   0  0  0  0  0  0  0  0  0  0  0  0
   -7.6140   16.3030  -33.3700 F   0  0  0  0  0  0  0  0  0  0  0  0
   -6.7380   16.8950  -31.4030 F   0  0  0  0  0  0  0  0  0  0  0  0
   -5.3940   17.1800  -33.3170 C   0  0  0  0  0  0  0  0  0  0  0  0
   -4.3660   16.5550  -32.5890 C   0  0  0  0  0  0  0  0  0  0  0  0
   -3.0590   16.5450  -33.0750 C   0  0  0  0  0  0  0  0  0  0  0  0
   -2.7490   17.1700  -34.2920 C   0  0  0  0  0  0  0  0  0  0  0  0
   -1.3280   17.1810  -34.8060 C   0  0  0  0  0  0  0  0  0  0  0  0
   -0.5220   18.2530  -34.1960 N   0  0  0  0  0  0  0  0  0  0  0  0
    0.3810   17.7680  -33.1380 C   0  0  0  0  0  0  0  0  0  0  0  0
   -0.1730   18.1140  -31.7570 C   0  0  0  0  0  0  0  0  0  0  0  0
   -0.1420   16.9970  -30.9420 F   0  0  0  0  0  0  0  0  0  0  0  0
    0.6020   19.1060  -31.1860 F   0  0  0  0  0  0  0  0  0  0  0  0
   -1.4750   18.5680  -31.8590 F   0  0  0  0  0  0  0  0  0  0  0  0
   -3.7690   17.7990  -35.0180 C   0  0  0  0  0  0  0  0  0  0  0  0
   -5.0800   17.8060  -34.5350 C   0  0  0  0  0  0  0  0  0  0  0  0
   -8.5720   18.8760  -31.9020 C   0  0  0  0  0  0  0  0  0  0  0  0
   -9.1050   20.3030  -32.0240 C   0  0  0  0  0  0  0  0  0  0  0  0
   -3.2250   22.1140  -31.4700 C   0  0  0  0  0  0  0  0  0  0  0  0
   -1.9230   21.8400  -31.7400 N   0  0  0  0  0  0  0  0  0  0  0  0
    1.3598   21.7485  -34.0510 H   0  0  0  0  0  0  0  0  0  0  0  0
    0.6614   20.3137  -34.8758 H   0  0  0  0  0  0  0  0  0  0  0  0
   -0.2311   21.8726  -34.8758 H   0  0  0  0  0  0  0  0  0  0  0  0
   -4.6162   20.5642  -34.1617 H   0  0  0  0  0  0  0  0  0  0  0  0
   -5.2144   24.0291  -31.5602 H   0  0  0  0  0  0  0  0  0  0  0  0
   -7.5760   24.6050  -31.0236 H   0  0  0  0  0  0  0  0  0  0  0  0
   -9.3572   22.8769  -31.1973 H   0  0  0  0  0  0  0  0  0  0  0  0
   -5.4540   19.5050  -33.1640 H   0  0  0  0  0  0  0  0  0  0  0  0
   -7.8289   18.7201  -33.9089 H   0  0  0  0  0  0  0  0  0  0  0  0
   -4.5947   16.0701  -31.6285 H   0  0  0  0  0  0  0  0  0  0  0  0
   -2.2661   16.0439  -32.5004 H   0  0  0  0  0  0  0  0  0  0  0  0
   -0.8608   16.2122  -34.5756 H   0  0  0  0  0  0  0  0  0  0  0  0
   -1.3634   17.3616  -35.8905 H   0  0  0  0  0  0  0  0  0  0  0  0
   -1.1630   18.9770  -33.7960 H   0  0  0  0  0  0  0  0  0  0  0  0
    0.4837   16.6761  -33.2230 H   0  0  0  0  0  0  0  0  0  0  0  0
    1.3608   18.2532  -33.2585 H   0  0  0  0  0  0  0  0  0  0  0  0
   -3.5362   18.2904  -35.9742 H   0  0  0  0  0  0  0  0  0  0  0  0
   -5.8720   18.3052  -35.1125 H   0  0  0  0  0  0  0  0  0  0  0  0
   -9.3836   18.1667  -32.1216 H   0  0  0  0  0  0  0  0  0  0  0  0
   -8.1996   18.7223  -30.8784 H   0  0  0  0  0  0  0  0  0  0  0  0
   -9.5604   20.4318  -33.0170 H   0  0  0  0  0  0  0  0  0  0  0  0
   -9.8496   20.4648  -31.2307 H   0  0  0  0  0  0  0  0  0  0  0  0
   -3.4885   22.6980  -30.5759 H   0  0  0  0  0  0  0  0  0  0  0  0
   -1.1800   22.1900  -31.0950 H   0  0  0  0  0  0  0  0  0  0  0  0
  1  2  1  0
  2  3  1  0
  3  4  2  0
  4  5  1  0
  5  6  2  0
  6  7  1  0
  7  8  2  0
  8  9  1  0
  9 10  2  0
 10 11  1  0
 11 12  2  0
 12 13  1  0
 13 14  1  0
 14 15  1  0
 15 16  1  0
 15 17  1  0
 15 18  1  0
 18 19  2  0
 19 20  1  0
 20 21  2  0
 21 22  1  0
 22 23  1  0
 23 24  1  0
 24 25  1  0
 25 26  1  0
 25 27  1  0
 25 28  1  0
 21 29  1  0
 29 30  2  0
 14 31  1  0
 31 32  1  0
  6 33  1  0
 33 34  2  0
 34  3  1  0
 12  7  1  0
 30 18  1  0
 32 11  1  0
  1 35  1  0
  1 36  1  0
  1 37  1  0
  5 38  1  0
  8 39  1  0
  9 40  1  0
 10 41  1  0
 13 42  1  0
 14 43  1  6
 19 44  1  0
 20 45  1  0
 22 46  1  0
 22 47  1  0
 23 48  1  0
 24 49  1  0
 24 50  1  0
 29 51  1  0
 30 52  1  0
 31 53  1  0
 31 54  1  0
 32 55  1  0
 32 56  1  0
 33 57  1  0
 34 58  1  0
M  CHG  1  34   1
M  END
>  <UniqueID>  (20) 
20

>  <SMILES>  (20) 
COc1ncc(-c2cccc3c2N[C@@H](C(F)(F)c2ccc(CNCC(F)(F)F)cc2)CC3)c[nH+]1

>  <Energy>  (20) 
66.52581893314444

>  <Genealogy>  (20) 
COc1ncc(-c2cccc3c2NC(C(F)(F)c2ccc(CNCC(F)(F)F)cc2)CC3)c[nH+]1 (protonated)
COc1ncc(-c2cccc3c2N[C@@H](C(F)(F)c2ccc(CNCC(F)(F)F)cc2)CC3)c[nH+]1 (chirality)
COc1ncc(-c2cccc3c2N[C@@H](C(F)(F)c2ccc(CNCC(F)(F)F)cc2)CC3)c[nH+]1 (3D coordinates assigned)
COc1ncc(-c2cccc3c2N[C@@H](C(F)(F)c2ccc(CNCC(F)(F)F)cc2)CC3)c[nH+]1 (nonaromatic ring conformer: 66.52581893314444 kcal/mol)

>  <smiles>  (20) 
COc1ncc(-c2cccc3c2NC(C(F)(F)c2ccc(CNCC(F)(F)F)cc2)CC3)cn1

>  <score_type>  (20) 
oracle

>  <origin>  (20) 
adg

>  <m_score__min__energy>  (20) 
-8.2100000000000009

>  <m_primary>  (20) 
energy

$$$$
20:0
     RDKit          3D

 54 55  0  0  0  0  0  0  0  0999 V2000
   -2.9440   21.9020  -31.1710 C   0  0  0  0  0  0  0  0  0  0  0  0
   -4.1580   21.6700  -32.0680 C   0  0  0  0  0  0  0  0  0  0  0  0
   -3.7560   21.6820  -33.4800 N   0  0  0  0  0  0  0  0  0  0  0  0
   -2.8780   20.5480  -33.8010 C   0  0  0  0  0  0  0  0  0  0  0  0
   -3.6920   19.2550  -33.8390 C   0  0  0  0  0  0  0  0  0  0  0  0
   -5.0450   19.5150  -34.2190 O   0  0  0  0  0  0  0  0  0  0  0  0
   -6.1800   19.2390  -33.4390 C   0  0  0  0  0  0  0  0  0  0  0  0
   -6.3980   17.9900  -32.8280 C   0  0  0  0  0  0  0  0  0  0  0  0
   -7.5580   17.7660  -32.0830 C   0  0  0  0  0  0  0  0  0  0  0  0
   -8.4990   18.7850  -31.9240 C   0  0  0  0  0  0  0  0  0  0  0  0
   -8.2800   20.0510  -32.4920 C   0  0  0  0  0  0  0  0  0  0  0  0
   -9.3070   21.1560  -32.3120 C   0  0  0  0  0  0  0  0  0  0  0  0
   -8.8400   22.3060  -31.4930 N   0  0  0  0  0  0  0  0  0  0  0  0
   -8.2790   23.4200  -32.3140 C   0  0  0  0  0  0  0  0  0  0  0  0
   -6.7630   23.5870  -32.1500 C   0  0  0  0  0  0  0  0  0  0  0  0
   -6.4410   23.7660  -30.7290 N   0  0  0  0  0  0  0  0  0  0  0  0
   -5.3320   24.5850  -30.3180 C   0  0  0  0  0  0  0  0  0  0  0  0
   -4.5580   25.0820  -31.1820 O   0  0  0  0  0  0  0  0  0  0  0  0
   -5.1190   24.8350  -28.9560 O   0  0  0  0  0  0  0  0  0  0  0  0
   -4.0870   24.2110  -28.1950 C   0  0  0  0  0  0  0  0  0  0  0  0
   -4.2520   22.6960  -28.2060 C   0  0  0  0  0  0  0  0  0  0  0  0
   -7.2410   23.0610  -29.7200 C   0  0  0  0  0  0  0  0  0  0  0  0
   -7.9760   21.8770  -30.3610 C   0  0  0  0  0  0  0  0  0  0  0  0
   -7.1250   20.2580  -33.2670 C   0  0  0  0  0  0  0  0  0  0  0  0
   -3.2508   21.8434  -30.1163 H   0  0  0  0  0  0  0  0  0  0  0  0
   -2.1848   21.1327  -31.3753 H   0  0  0  0  0  0  0  0  0  0  0  0
   -2.5219   22.8971  -31.3753 H   0  0  0  0  0  0  0  0  0  0  0  0
   -4.6070   20.6953  -31.8265 H   0  0  0  0  0  0  0  0  0  0  0  0
   -4.8892   22.4737  -31.8966 H   0  0  0  0  0  0  0  0  0  0  0  0
   -4.6200   21.5880  -34.0640 H   0  0  0  0  0  0  0  0  0  0  0  0
   -2.4115   20.7144  -34.7832 H   0  0  0  0  0  0  0  0  0  0  0  0
   -2.0989   20.4631  -33.0291 H   0  0  0  0  0  0  0  0  0  0  0  0
   -3.2395   18.5659  -34.5672 H   0  0  0  0  0  0  0  0  0  0  0  0
   -3.6890   18.8082  -32.8338 H   0  0  0  0  0  0  0  0  0  0  0  0
   -5.6529   17.1882  -32.9375 H   0  0  0  0  0  0  0  0  0  0  0  0
   -7.7308   16.7833  -31.6199 H   0  0  0  0  0  0  0  0  0  0  0  0
   -9.4180   18.5953  -31.3501 H   0  0  0  0  0  0  0  0  0  0  0  0
   -9.5834   21.5333  -33.3076 H   0  0  0  0  0  0  0  0  0  0  0  0
  -10.1539   20.7100  -31.7699 H   0  0  0  0  0  0  0  0  0  0  0  0
   -9.7100   22.6880  -31.0490 H   0  0  0  0  0  0  0  0  0  0  0  0
   -8.4959   23.2173  -33.3732 H   0  0  0  0  0  0  0  0  0  0  0  0
   -8.7501   24.3514  -31.9668 H   0  0  0  0  0  0  0  0  0  0  0  0
   -6.2520   22.6907  -32.5316 H   0  0  0  0  0  0  0  0  0  0  0  0
   -6.4281   24.4690  -32.7156 H   0  0  0  0  0  0  0  0  0  0  0  0
   -3.1103   24.4712  -28.6291 H   0  0  0  0  0  0  0  0  0  0  0  0
   -4.1491   24.5664  -27.1559 H   0  0  0  0  0  0  0  0  0  0  0  0
   -4.2925   22.3241  -27.1716 H   0  0  0  0  0  0  0  0  0  0  0  0
   -5.1842   22.4325  -28.7272 H   0  0  0  0  0  0  0  0  0  0  0  0
   -3.3984   22.2380  -28.7272 H   0  0  0  0  0  0  0  0  0  0  0  0
   -6.5779   22.6898  -28.9247 H   0  0  0  0  0  0  0  0  0  0  0  0
   -7.9806   23.7569  -29.2972 H   0  0  0  0  0  0  0  0  0  0  0  0
   -7.2326   21.1572  -30.7343 H   0  0  0  0  0  0  0  0  0  0  0  0
   -8.6204   21.4213  -29.5948 H   0  0  0  0  0  0  0  0  0  0  0  0
   -6.9614   21.2350  -33.7453 H   0  0  0  0  0  0  0  0  0  0  0  0
  1  2  1  0
  2  3  1  0
  3  4  1  0
  4  5  1  0
  5  6  1  0
  6  7  1  0
  7  8  2  0
  8  9  1  0
  9 10  2  0
 10 11  1  0
 11 12  1  0
 12 13  1  0
 13 14  1  0
 14 15  1  0
 15 16  1  0
 16 17  1  0
 17 18  2  0
 17 19  1  0
 19 20  1  0
 20 21  1  0
 16 22  1  0
 22 23  1  0
 11 24  2  0
 24  7  1  0
 23 13  1  0
  1 25  1  0
  1 26  1  0
  1 27  1  0
  2 28  1  0
  2 29  1  0
  3 30  1  0
  4 31  1  0
  4 32  1  0
  5 33  1  0
  5 34  1  0
  8 35  1  0
  9 36  1  0
 10 37  1  0
 12 38  1  0
 12 39  1  0
 13 40  1  0
 14 41  1  0
 14 42  1  0
 15 43  1  0
 15 44  1  0
 20 45  1  0
 20 46  1  0
 21 47  1  0
 21 48  1  0
 21 49  1  0
 22 50  1  0
 22 51  1  0
 23 52  1  0
 23 53  1  0
 24 54  1  0
M  CHG  1  13   1
M  END
>  <UniqueID>  (21) 
21

>  <SMILES>  (21) 
CCNCCOc1cccc(C[NH+]2CCN(C(=O)OCC)CC2)c1

>  <Energy>  (21) 
53.214797642159674

>  <Genealogy>  (21) 
CCNCCOc1cccc(C[NH+]2CCN(C(=O)OCC)CC2)c1 (protonated)
CCNCCOc1cccc(C[NH+]2CCN(C(=O)OCC)CC2)c1 (3D coordinates assigned)
CCNCCOc1cccc(C[NH+]2CCN(C(=O)OCC)CC2)c1 (nonaromatic ring conformer: 53.214797642159674 kcal/mol)

>  <smiles>  (21) 
CCNCCOc1cccc(CN2CCN(C(=O)OCC)CC2)c1

>  <score_type>  (21) 
oracle

>  <origin>  (21) 
adg

>  <m_score__min__energy>  (21) 
-6.7400000000000002

>  <m_primary>  (21) 
energy

$$$$
21:0
     RDKit          3D

 48 50  0  0  0  0  0  0  0  0999 V2000
   -6.1590   25.2780  -29.6470 C   0  0  0  0  0  0  0  0  0  0  0  0
   -5.2270   25.6600  -30.7910 C   0  0  0  0  0  0  0  0  0  0  0  0
   -3.8740   25.3340  -30.4700 O   0  0  0  0  0  0  0  0  0  0  0  0
   -3.4530   24.2700  -29.6530 C   0  0  0  0  0  0  0  0  0  0  0  0
   -3.0320   24.4650  -28.3220 C   0  0  0  0  0  0  0  0  0  0  0  0
   -2.6690   23.3730  -27.5290 C   0  0  0  0  0  0  0  0  0  0  0  0
   -2.7230   22.0800  -28.0490 C   0  0  0  0  0  0  0  0  0  0  0  0
   -3.1270   21.8750  -29.3690 C   0  0  0  0  0  0  0  0  0  0  0  0
   -3.4680   22.9610  -30.1830 C   0  0  0  0  0  0  0  0  0  0  0  0
   -3.8640   22.7040  -31.5030 O   0  0  0  0  0  0  0  0  0  0  0  0
   -4.9840   21.9460  -31.8810 C   0  0  0  0  0  0  0  0  0  0  0  0
   -6.2590   22.2170  -31.3470 C   0  0  0  0  0  0  0  0  0  0  0  0
   -7.3660   21.4640  -31.7430 C   0  0  0  0  0  0  0  0  0  0  0  0
   -7.2170   20.4430  -32.6810 C   0  0  0  0  0  0  0  0  0  0  0  0
   -5.9630   20.1760  -33.2320 C   0  0  0  0  0  0  0  0  0  0  0  0
   -4.8380   20.9210  -32.8420 C   0  0  0  0  0  0  0  0  0  0  0  0
   -3.4940   20.6200  -33.4760 C   0  0  0  0  0  0  0  0  0  0  0  0
   -2.3660   20.9170  -32.5580 N   0  0  0  0  0  0  0  0  0  0  0  0
   -1.2240   21.5190  -33.3020 C   0  0  0  0  0  0  0  0  0  0  0  0
   -0.1270   20.4890  -33.6230 C   0  0  0  0  0  0  0  0  0  0  0  0
    0.4300   19.8760  -32.4020 N   0  0  0  0  0  0  0  0  0  0  0  0
   -0.5260   19.8070  -31.2820 C   0  0  0  0  0  0  0  0  0  0  0  0
   -1.9750   19.7110  -31.7790 C   0  0  0  0  0  0  0  0  0  0  0  0
   -5.6630   25.4813  -28.6865 H   0  0  0  0  0  0  0  0  0  0  0  0
   -7.0839   25.8696  -29.7145 H   0  0  0  0  0  0  0  0  0  0  0  0
   -6.4027   24.2075  -29.7145 H   0  0  0  0  0  0  0  0  0  0  0  0
   -5.5250   25.1129  -31.6976 H   0  0  0  0  0  0  0  0  0  0  0  0
   -5.2992   26.7447  -30.9589 H   0  0  0  0  0  0  0  0  0  0  0  0
   -2.9889   25.4821  -27.9053 H   0  0  0  0  0  0  0  0  0  0  0  0
   -2.3398   23.5337  -26.4918 H   0  0  0  0  0  0  0  0  0  0  0  0
   -2.4471   21.2218  -27.4187 H   0  0  0  0  0  0  0  0  0  0  0  0
   -3.1777   20.8529  -29.7723 H   0  0  0  0  0  0  0  0  0  0  0  0
   -6.3833   23.0271  -30.6133 H   0  0  0  0  0  0  0  0  0  0  0  0
   -8.3567   21.6763  -31.3147 H   0  0  0  0  0  0  0  0  0  0  0  0
   -8.0894   19.8470  -32.9871 H   0  0  0  0  0  0  0  0  0  0  0  0
   -5.8547   19.3751  -33.9782 H   0  0  0  0  0  0  0  0  0  0  0  0
   -3.4600   19.5544  -33.7469 H   0  0  0  0  0  0  0  0  0  0  0  0
   -3.3866   21.2605  -34.3638 H   0  0  0  0  0  0  0  0  0  0  0  0
   -2.6970   21.6410  -31.8750 H   0  0  0  0  0  0  0  0  0  0  0  0
   -1.5999   21.9409  -34.2458 H   0  0  0  0  0  0  0  0  0  0  0  0
   -0.7789   22.2960  -32.6631 H   0  0  0  0  0  0  0  0  0  0  0  0
   -0.5571   19.6969  -34.2536 H   0  0  0  0  0  0  0  0  0  0  0  0
    0.6889   21.0125  -34.1429 H   0  0  0  0  0  0  0  0  0  0  0  0
    1.2530   20.4440  -32.0910 H   0  0  0  0  0  0  0  0  0  0  0  0
   -0.2983   18.9198  -30.6729 H   0  0  0  0  0  0  0  0  0  0  0  0
   -0.4268   20.7279  -30.6886 H   0  0  0  0  0  0  0  0  0  0  0  0
   -2.0745   18.8233  -32.4209 H   0  0  0  0  0  0  0  0  0  0  0  0
   -2.6359   19.6372  -30.9028 H   0  0  0  0  0  0  0  0  0  0  0  0
  1  2  1  0
  2  3  1  0
  3  4  1  0
  4  5  2  0
  5  6  1  0
  6  7  2  0
  7  8  1  0
  8  9  2  0
  9 10  1  0
 10 11  1  0
 11 12  2  0
 12 13  1  0
 13 14  2  0
 14 15  1  0
 15 16  2  0
 16 17  1  0
 17 18  1  0
 18 19  1  0
 19 20  1  0
 20 21  1  0
 21 22  1  0
 22 23  1  0
  9  4  1  0
 16 11  1  0
 23 18  1  0
  1 24  1  0
  1 25  1  0
  1 26  1  0
  2 27  1  0
  2 28  1  0
  5 29  1  0
  6 30  1  0
  7 31  1  0
  8 32  1  0
 12 33  1  0
 13 34  1  0
 14 35  1  0
 15 36  1  0
 17 37  1  0
 17 38  1  0
 18 39  1  0
 19 40  1  0
 19 41  1  0
 20 42  1  0
 20 43  1  0
 21 44  1  0
 22 45  1  0
 22 46  1  0
 23 47  1  0
 23 48  1  0
M  CHG  1  18   1
M  END
>  <UniqueID>  (22) 
22

>  <SMILES>  (22) 
CCOc1ccccc1Oc1ccccc1C[NH+]1CCNCC1

>  <Energy>  (22) 
65.63720447889925

>  <Genealogy>  (22) 
CCOc1ccccc1Oc1ccccc1C[NH+]1CCNCC1 (protonated)
CCOc1ccccc1Oc1ccccc1C[NH+]1CCNCC1 (3D coordinates assigned)
CCOc1ccccc1Oc1ccccc1C[NH+]1CCNCC1 (nonaromatic ring conformer: 65.63720447889925 kcal/mol)

>  <smiles>  (22) 
CCOc1ccccc1Oc1ccccc1CN1CCNCC1

>  <score_type>  (22) 
oracle

>  <origin>  (22) 
adg

>  <m_score__min__energy>  (22) 
-7.0599999999999996

>  <m_primary>  (22) 
energy

$$$$
22:0
     RDKit          3D

 35 36  0  0  0  0  0  0  0  0999 V2000
   -9.4830   19.6550  -32.7000 C   0  0  0  0  0  0  0  0  0  0  0  0
   -8.4740   19.8810  -31.5800 C   0  0  0  0  0  0  0  0  0  0  0  0
   -7.7770   21.1620  -31.7380 N   0  0  0  0  0  0  0  0  0  0  0  0
   -8.4330   22.3460  -31.6600 C   0  0  0  0  0  0  0  0  0  0  0  0
   -7.5480   23.4000  -31.5480 C   0  0  0  0  0  0  0  0  0  0  0  0
   -6.2990   22.8280  -31.5580 C   0  0  0  0  0  0  0  0  0  0  0  0
   -5.0620   23.4480  -31.3950 C   0  0  0  0  0  0  0  0  0  0  0  0
   -5.0010   24.8390  -31.2220 O   0  0  0  0  0  0  0  0  0  0  0  0
   -5.6810   25.5490  -30.1910 C   0  0  0  0  0  0  0  0  0  0  0  0
   -3.9190   22.6270  -31.4030 C   0  0  0  0  0  0  0  0  0  0  0  0
   -4.0370   21.2440  -31.6130 C   0  0  0  0  0  0  0  0  0  0  0  0
   -5.2960   20.6280  -31.8110 C   0  0  0  0  0  0  0  0  0  0  0  0
   -5.2910   19.2050  -32.3250 C   0  0  0  0  0  0  0  0  0  0  0  0
   -5.4900   19.1510  -33.8530 C   0  0  0  0  0  0  0  0  0  0  0  0
   -6.7900   19.6860  -34.2610 N   0  0  0  0  0  0  0  0  0  0  0  0
   -6.4460   21.4630  -31.7150 C   0  0  0  0  0  0  0  0  0  0  0  0
  -10.4693   19.4341  -32.2659 H   0  0  0  0  0  0  0  0  0  0  0  0
   -9.5502   20.5603  -33.3212 H   0  0  0  0  0  0  0  0  0  0  0  0
   -9.1576   18.8075  -33.3212 H   0  0  0  0  0  0  0  0  0  0  0  0
   -9.0031   19.8780  -30.6156 H   0  0  0  0  0  0  0  0  0  0  0  0
   -7.7277   19.0738  -31.6183 H   0  0  0  0  0  0  0  0  0  0  0  0
   -9.5275   22.4530  -31.6829 H   0  0  0  0  0  0  0  0  0  0  0  0
   -7.7913   24.4698  -31.4678 H   0  0  0  0  0  0  0  0  0  0  0  0
   -5.3369   25.1897  -29.2099 H   0  0  0  0  0  0  0  0  0  0  0  0
   -5.4670   26.6240  -30.2835 H   0  0  0  0  0  0  0  0  0  0  0  0
   -6.7642   25.3815  -30.2835 H   0  0  0  0  0  0  0  0  0  0  0  0
   -2.9259   23.0722  -31.2435 H   0  0  0  0  0  0  0  0  0  0  0  0
   -3.1287   20.6237  -31.6240 H   0  0  0  0  0  0  0  0  0  0  0  0
   -4.3269   18.7386  -32.0742 H   0  0  0  0  0  0  0  0  0  0  0  0
   -6.1244   18.6658  -31.8509 H   0  0  0  0  0  0  0  0  0  0  0  0
   -4.6969   19.7419  -34.3345 H   0  0  0  0  0  0  0  0  0  0  0  0
   -5.4472   18.0961  -34.1618 H   0  0  0  0  0  0  0  0  0  0  0  0
   -6.8560   19.6560  -35.3040 H   0  0  0  0  0  0  0  0  0  0  0  0
   -7.5630   19.1040  -33.8660 H   0  0  0  0  0  0  0  0  0  0  0  0
   -6.8930   20.6790  -33.9480 H   0  0  0  0  0  0  0  0  0  0  0  0
  1  2  1  0
  2  3  1  0
  3  4  1  0
  4  5  2  0
  5  6  1  0
  6  7  2  0
  7  8  1  0
  8  9  1  0
  7 10  1  0
 10 11  2  0
 11 12  1  0
 12 13  1  0
 13 14  1  0
 14 15  1  0
 12 16  2  0
 16  3  1  0
 16  6  1  0
  1 17  1  0
  1 18  1  0
  1 19  1  0
  2 20  1  0
  2 21  1  0
  4 22  1  0
  5 23  1  0
  9 24  1  0
  9 25  1  0
  9 26  1  0
 10 27  1  0
 11 28  1  0
 13 29  1  0
 13 30  1  0
 14 31  1  0
 14 32  1  0
 15 33  1  0
 15 34  1  0
 15 35  1  0
M  CHG  1  15   1
M  END
>  <UniqueID>  (23) 
23

>  <SMILES>  (23) 
CCn1ccc2c(OC)ccc(CC[NH3+])c21

>  <Energy>  (23) 
71.46163988863806

>  <Genealogy>  (23) 
CCn1ccc2c(OC)ccc(CC[NH3+])c21 (protonated)
CCn1ccc2c(OC)ccc(CC[NH3+])c21 (3D coordinates assigned)
CCn1ccc2c(OC)ccc(CC[NH3+])c21 (optimized conformer: 71.46163988863806 kcal/mol)

>  <smiles>  (23) 
CCn1ccc2c(OC)ccc(CCN)c21

>  <score_type>  (23) 
oracle

>  <origin>  (23) 
adg

>  <m_score__min__energy>  (23) 
-5.6200000000000001

>  <m_primary>  (23) 
energy

$$$$
23:0
     RDKit          3D

 46 48  0  0  0  0  0  0  0  0999 V2000
   -6.1520   25.1030  -29.7690 C   0  0  0  0  0  0  0  0  0  0  0  0
   -5.0730   25.2670  -30.8390 C   0  0  0  0  0  0  0  0  0  0  0  0
   -3.9470   24.3270  -30.6450 N   0  0  0  0  0  0  0  0  0  0  0  0
   -3.3030   24.5530  -29.3410 C   0  0  0  0  0  0  0  0  0  0  0  0
   -4.2820   22.8970  -30.8600 C   0  0  0  0  0  0  0  0  0  0  0  0
   -3.6020   22.2570  -32.0870 C   0  0  0  0  0  0  0  0  0  0  0  0
   -4.5880   21.9760  -33.1300 N   0  0  0  0  0  0  0  0  0  0  0  0
   -5.6430   21.0350  -32.8950 C   0  0  0  0  0  0  0  0  0  0  0  0
   -6.9110   21.4820  -32.4880 C   0  0  0  0  0  0  0  0  0  0  0  0
   -7.1640   22.8570  -32.3000 C   0  0  0  0  0  0  0  0  0  0  0  0
   -8.4370   23.3040  -31.9570 C   0  0  0  0  0  0  0  0  0  0  0  0
   -9.4770   22.3940  -31.8070 C   0  0  0  0  0  0  0  0  0  0  0  0
   -9.2450   21.0280  -31.9690 C   0  0  0  0  0  0  0  0  0  0  0  0
   -7.9500   20.5360  -32.2750 C   0  0  0  0  0  0  0  0  0  0  0  0
   -7.6890   19.1820  -32.3830 N   0  0  0  0  0  0  0  0  0  0  0  0
   -8.6830   18.1950  -31.9040 C   0  0  0  0  0  0  0  0  0  0  0  0
   -6.4870   18.7510  -32.9130 C   0  0  0  0  0  0  0  0  0  0  0  0
   -6.2620   17.3990  -33.2700 C   0  0  0  0  0  0  0  0  0  0  0  0
   -5.0230   16.9880  -33.7530 C   0  0  0  0  0  0  0  0  0  0  0  0
   -4.0020   17.9170  -33.8960 C   0  0  0  0  0  0  0  0  0  0  0  0
   -4.2190   19.2240  -33.5950 N   0  0  0  0  0  0  0  0  0  0  0  0
   -5.4300   19.6700  -33.1370 C   0  0  0  0  0  0  0  0  0  0  0  0
   -5.6931   25.1728  -28.7718 H   0  0  0  0  0  0  0  0  0  0  0  0
   -6.9047   25.8971  -29.8826 H   0  0  0  0  0  0  0  0  0  0  0  0
   -6.6348   24.1212  -29.8826 H   0  0  0  0  0  0  0  0  0  0  0  0
   -5.5220   25.0831  -31.8262 H   0  0  0  0  0  0  0  0  0  0  0  0
   -4.6759   26.2901  -30.7645 H   0  0  0  0  0  0  0  0  0  0  0  0
   -4.0096   24.3050  -28.5352 H   0  0  0  0  0  0  0  0  0  0  0  0
   -2.4117   23.9140  -29.2566 H   0  0  0  0  0  0  0  0  0  0  0  0
   -3.0065   25.6089  -29.2566 H   0  0  0  0  0  0  0  0  0  0  0  0
   -3.9760   22.3345  -29.9656 H   0  0  0  0  0  0  0  0  0  0  0  0
   -5.3653   22.8547  -31.0459 H   0  0  0  0  0  0  0  0  0  0  0  0
   -2.8437   22.9487  -32.4825 H   0  0  0  0  0  0  0  0  0  0  0  0
   -3.1297   21.3122  -31.7798 H   0  0  0  0  0  0  0  0  0  0  0  0
   -4.5650   22.4800  -34.0450 H   0  0  0  0  0  0  0  0  0  0  0  0
   -6.3473   23.5831  -32.4257 H   0  0  0  0  0  0  0  0  0  0  0  0
   -8.6200   24.3779  -31.8046 H   0  0  0  0  0  0  0  0  0  0  0  0
  -10.4871   22.7525  -31.5595 H   0  0  0  0  0  0  0  0  0  0  0  0
  -10.0800   20.3206  -31.8576 H   0  0  0  0  0  0  0  0  0  0  0  0
   -8.6911   18.1870  -30.8041 H   0  0  0  0  0  0  0  0  0  0  0  0
   -9.6811   18.4696  -32.2760 H   0  0  0  0  0  0  0  0  0  0  0  0
   -8.4154   17.1950  -32.2760 H   0  0  0  0  0  0  0  0  0  0  0  0
   -7.0752   16.6658  -33.1644 H   0  0  0  0  0  0  0  0  0  0  0  0
   -4.8543   15.9342  -34.0195 H   0  0  0  0  0  0  0  0  0  0  0  0
   -3.0134   17.5940  -34.2543 H   0  0  0  0  0  0  0  0  0  0  0  0
   -3.4210   19.8820  -33.7360 H   0  0  0  0  0  0  0  0  0  0  0  0
  1  2  1  0
  2  3  1  0
  3  4  1  0
  3  5  1  0
  5  6  1  0
  6  7  1  0
  7  8  1  0
  8  9  2  0
  9 10  1  0
 10 11  2  0
 11 12  1  0
 12 13  2  0
 13 14  1  0
 14 15  2  0
 15 16  1  0
 15 17  1  0
 17 18  2  0
 18 19  1  0
 19 20  2  0
 20 21  1  0
 21 22  2  0
 22  8  1  0
 14  9  1  0
 22 17  1  0
  1 23  1  0
  1 24  1  0
  1 25  1  0
  2 26  1  0
  2 27  1  0
  4 28  1  0
  4 29  1  0
  4 30  1  0
  5 31  1  0
  5 32  1  0
  6 33  1  0
  6 34  1  0
  7 35  1  0
 10 36  1  0
 11 37  1  0
 12 38  1  0
 13 39  1  0
 16 40  1  0
 16 41  1  0
 16 42  1  0
 18 43  1  0
 19 44  1  0
 20 45  1  0
 21 46  1  0
M  CHG  2  15   1  21   1
M  END
>  <UniqueID>  (24) 
24

>  <SMILES>  (24) 
CCN(C)CCNc1c2ccccc2[n+](C)c2ccc[nH+]c12

>  <Energy>  (24) 
74.42895348220038

>  <Genealogy>  (24) 
CCN(C)CCNc1c2ccccc2[n+](C)c2ccc[nH+]c12 (protonated)
CCN(C)CCNc1c2ccccc2[n+](C)c2ccc[nH+]c12 (3D coordinates assigned)
CCN(C)CCNc1c2ccccc2[n+](C)c2ccc[nH+]c12 (optimized conformer: 74.42895348220038 kcal/mol)

>  <smiles>  (24) 
CCN(C)CCNc1c2ccccc2[n+](C)c2cccnc12

>  <score_type>  (24) 
oracle

>  <origin>  (24) 
adg

>  <m_score__min__energy>  (24) 
-7.5499999999999998

>  <m_primary>  (24) 
energy

$$$$
24:0
     RDKit          3D

 86 90  0  0  0  0  0  0  0  0999 V2000
   -0.8270   23.3700  -28.8390 C   0  0  0  0  0  0  0  0  0  0  0  0
   -1.5540   22.8570  -30.0890 C   0  0  0  0  0  0  0  0  0  0  0  0
   -2.9320   22.3730  -29.8060 N   0  0  0  0  0  0  0  0  0  0  0  0
   -3.0520   20.8970  -29.6470 C   0  0  0  0  0  0  0  0  0  0  0  0
   -2.7330   20.3660  -28.2460 C   0  0  0  0  0  0  0  0  0  0  0  0
   -3.6200   23.1360  -28.7230 C   0  0  0  0  0  0  0  0  0  0  0  0
   -4.1290   24.5410  -29.1200 C   0  0  0  0  0  0  0  0  0  0  0  0
   -4.2370   24.6380  -30.5280 O   0  0  0  0  0  0  0  0  0  0  0  0
   -5.5300   25.0770  -30.8960 C   0  0  0  0  0  0  0  0  0  0  0  0
   -6.4390   23.8690  -31.1150 C   0  0  0  0  0  0  0  0  0  0  0  0
   -6.1590   23.2200  -32.3980 N   0  0  0  0  0  0  0  0  0  0  0  0
   -5.9460   21.7990  -32.5140 C   0  0  0  0  0  0  0  0  0  0  0  0
   -7.0160   20.8720  -32.4320 C   0  0  0  0  0  0  0  0  0  0  0  0
   -8.3170   21.2960  -32.0950 C   0  0  0  0  0  0  0  0  0  0  0  0
   -9.3530   20.3750  -31.9590 C   0  0  0  0  0  0  0  0  0  0  0  0
   -9.1120   19.0170  -32.1360 C   0  0  0  0  0  0  0  0  0  0  0  0
   -7.8350   18.5650  -32.4640 C   0  0  0  0  0  0  0  0  0  0  0  0
   -6.7620   19.4710  -32.6420 C   0  0  0  0  0  0  0  0  0  0  0  0
   -5.4890   19.0300  -32.9740 N   0  0  0  0  0  0  0  0  0  0  0  0
   -5.2420   17.6670  -33.4700 C   0  0  0  0  0  0  0  0  0  0  0  0
   -4.4600   19.9310  -32.8930 C   0  0  0  0  0  0  0  0  0  0  0  0
   -4.6700   21.2780  -32.7070 C   0  0  0  0  0  0  0  0  0  0  0  0
   -3.5330   21.9410  -32.7370 O   0  0  0  0  0  0  0  0  0  0  0  0
   -2.5740   21.0580  -32.9000 C   0  0  0  0  0  0  0  0  0  0  0  0
   -1.2080   21.3140  -32.9400 C   0  0  0  0  0  0  0  0  0  0  0  0
   -0.3350   20.2200  -33.0420 C   0  0  0  0  0  0  0  0  0  0  0  0
   -0.8290   18.8970  -33.0880 C   0  0  0  0  0  0  0  0  0  0  0  0
    0.1080   17.8530  -33.1380 O   0  0  0  0  0  0  0  0  0  0  0  0
    0.2710   16.8240  -32.1600 C   0  0  0  0  0  0  0  0  0  0  0  0
    1.6320   16.9410  -31.4260 C   0  0  0  0  0  0  0  0  0  0  0  0
    1.6030   17.7030  -30.1340 N   0  0  0  0  0  0  0  0  0  0  0  0
    2.8920   17.4950  -29.4190 C   0  0  0  0  0  0  0  0  0  0  0  0
    0.4940   17.1220  -29.3150 C   0  0  0  0  0  0  0  0  0  0  0  0
    0.2700   17.8360  -27.9620 C   0  0  0  0  0  0  0  0  0  0  0  0
    0.4850   19.3550  -28.0360 C   0  0  0  0  0  0  0  0  0  0  0  0
    0.3600   19.8620  -29.4650 C   0  0  0  0  0  0  0  0  0  0  0  0
    1.3740   19.1710  -30.4020 C   0  0  0  0  0  0  0  0  0  0  0  0
   -2.2280   18.6680  -33.0580 C   0  0  0  0  0  0  0  0  0  0  0  0
   -3.0800   19.7780  -32.9940 C   0  0  0  0  0  0  0  0  0  0  0  0
   -1.3436   23.0055  -27.9389 H   0  0  0  0  0  0  0  0  0  0  0  0
    0.2097   23.0023  -28.8410 H   0  0  0  0  0  0  0  0  0  0  0  0
   -0.8259   24.4700  -28.8410 H   0  0  0  0  0  0  0  0  0  0  0  0
   -1.6142   23.6768  -30.8200 H   0  0  0  0  0  0  0  0  0  0  0  0
   -0.9792   22.0022  -30.4748 H   0  0  0  0  0  0  0  0  0  0  0  0
   -3.4860   22.5850  -30.6710 H   0  0  0  0  0  0  0  0  0  0  0  0
   -4.0853   20.6107  -29.8928 H   0  0  0  0  0  0  0  0  0  0  0  0
   -2.3028   20.4546  -30.3201 H   0  0  0  0  0  0  0  0  0  0  0  0
   -3.1451   21.0520  -27.4913 H   0  0  0  0  0  0  0  0  0  0  0  0
   -3.1823   19.3698  -28.1203 H   0  0  0  0  0  0  0  0  0  0  0  0
   -1.6425   20.2949  -28.1203 H   0  0  0  0  0  0  0  0  0  0  0  0
   -4.4847   22.5443  -28.3880 H   0  0  0  0  0  0  0  0  0  0  0  0
   -2.8643   23.2981  -27.9403 H   0  0  0  0  0  0  0  0  0  0  0  0
   -5.1165   24.7121  -28.6665 H   0  0  0  0  0  0  0  0  0  0  0  0
   -3.4164   25.2977  -28.7600 H   0  0  0  0  0  0  0  0  0  0  0  0
   -5.9446   25.7065  -30.0948 H   0  0  0  0  0  0  0  0  0  0  0  0
   -5.4665   25.6596  -31.8269 H   0  0  0  0  0  0  0  0  0  0  0  0
   -6.2749   23.1449  -30.3034 H   0  0  0  0  0  0  0  0  0  0  0  0
   -7.4829   24.2156  -31.1209 H   0  0  0  0  0  0  0  0  0  0  0  0
   -6.1620   23.7990  -33.2660 H   0  0  0  0  0  0  0  0  0  0  0  0
   -8.5166   22.3662  -31.9376 H   0  0  0  0  0  0  0  0  0  0  0  0
  -10.3663   20.7235  -31.7105 H   0  0  0  0  0  0  0  0  0  0  0  0
   -9.9337   18.2955  -32.0165 H   0  0  0  0  0  0  0  0  0  0  0  0
   -7.6580   17.4863  -32.5866 H   0  0  0  0  0  0  0  0  0  0  0  0
   -5.1181   16.9833  -32.6172 H   0  0  0  0  0  0  0  0  0  0  0  0
   -6.0954   17.3392  -34.0818 H   0  0  0  0  0  0  0  0  0  0  0  0
   -4.3279   17.6595  -34.0818 H   0  0  0  0  0  0  0  0  0  0  0  0
   -0.8230   22.3434  -32.8931 H   0  0  0  0  0  0  0  0  0  0  0  0
    0.7501   20.3950  -33.0868 H   0  0  0  0  0  0  0  0  0  0  0  0
   -0.5403   16.9024  -31.4213 H   0  0  0  0  0  0  0  0  0  0  0  0
    0.2419   15.8529  -32.6758 H   0  0  0  0  0  0  0  0  0  0  0  0
    1.9906   15.9234  -31.2118 H   0  0  0  0  0  0  0  0  0  0  0  0
    2.2911   17.5097  -32.0985 H   0  0  0  0  0  0  0  0  0  0  0  0
    2.7177   17.5231  -28.3333 H   0  0  0  0  0  0  0  0  0  0  0  0
    3.3123   16.5174  -29.6977 H   0  0  0  0  0  0  0  0  0  0  0  0
    3.5985   18.2908  -29.6977 H   0  0  0  0  0  0  0  0  0  0  0  0
   -0.4366   17.1860  -29.8980 H   0  0  0  0  0  0  0  0  0  0  0  0
    0.7789   16.0850  -29.0840 H   0  0  0  0  0  0  0  0  0  0  0  0
   -0.7619   17.6447  -27.6325 H   0  0  0  0  0  0  0  0  0  0  0  0
    1.0109   17.4353  -27.2546 H   0  0  0  0  0  0  0  0  0  0  0  0
   -0.2700   19.8546  -27.4112 H   0  0  0  0  0  0  0  0  0  0  0  0
    1.4995   19.5801  -27.6752 H   0  0  0  0  0  0  0  0  0  0  0  0
   -0.6582   19.6590  -29.8284 H   0  0  0  0  0  0  0  0  0  0  0  0
    0.5689   20.9420  -29.4672 H   0  0  0  0  0  0  0  0  0  0  0  0
    1.0086   19.2751  -31.4343 H   0  0  0  0  0  0  0  0  0  0  0  0
    2.3396   19.6671  -30.2244 H   0  0  0  0  0  0  0  0  0  0  0  0
   -2.6335   17.6458  -33.0843 H   0  0  0  0  0  0  0  0  0  0  0  0
  1  2  1  0
  2  3  1  0
  3  4  1  0
  4  5  1  0
  3  6  1  0
  6  7  1  0
  7  8  1  0
  8  9  1  0
  9 10  1  0
 10 11  1  0
 11 12  1  0
 12 13  2  0
 13 14  1  0
 14 15  2  0
 15 16  1  0
 16 17  2  0
 17 18  1  0
 18 19  2  0
 19 20  1  0
 19 21  1  0
 21 22  2  0
 22 23  1  0
 23 24  1  0
 24 25  2  0
 25 26  1  0
 26 27  2  0
 27 28  1  0
 28 29  1  0
 29 30  1  0
 30 31  1  0
 31 32  1  0
 31 33  1  0
 33 34  1  0
 34 35  1  0
 35 36  1  0
 36 37  1  0
 27 38  1  0
 38 39  2  0
 22 12  1  0
 39 24  1  0
 18 13  1  0
 39 21  1  0
 37 31  1  0
  1 40  1  0
  1 41  1  0
  1 42  1  0
  2 43  1  0
  2 44  1  0
  3 45  1  0
  4 46  1  0
  4 47  1  0
  5 48  1  0
  5 49  1  0
  5 50  1  0
  6 51  1  0
  6 52  1  0
  7 53  1  0
  7 54  1  0
  9 55  1  0
  9 56  1  0
 10 57  1  0
 10 58  1  0
 11 59  1  0
 14 60  1  0
 15 61  1  0
 16 62  1  0
 17 63  1  0
 20 64  1  0
 20 65  1  0
 20 66  1  0
 25 67  1  0
 26 68  1  0
 29 69  1  0
 29 70  1  0
 30 71  1  0
 30 72  1  0
 32 73  1  0
 32 74  1  0
 32 75  1  0
 33 76  1  0
 33 77  1  0
 34 78  1  0
 34 79  1  0
 35 80  1  0
 35 81  1  0
 36 82  1  0
 36 83  1  0
 37 84  1  0
 37 85  1  0
 38 86  1  0
M  CHG  3   3   1  19   1  31   1
M  END
>  <UniqueID>  (25) 
25

>  <SMILES>  (25) 
CC[NH+](CC)CCOCCNc1c2ccccc2[n+](C)c2c1oc1ccc(OCC[N+]3(C)CCCCC3)cc12

>  <Energy>  (25) 
173.62288123477214

>  <Genealogy>  (25) 
CC[NH+](CC)CCOCCNc1c2ccccc2[n+](C)c2c1oc1ccc(OCC[N+]3(C)CCCCC3)cc12 (protonated)
CC[NH+](CC)CCOCCNc1c2ccccc2[n+](C)c2c1oc1ccc(OCC[N+]3(C)CCCCC3)cc12 (3D coordinates assigned)
CC[NH+](CC)CCOCCNc1c2ccccc2[n+](C)c2c1oc1ccc(OCC[N+]3(C)CCCCC3)cc12 (nonaromatic ring conformer: 173.62288123477214 kcal/mol)

>  <smiles>  (25) 
CCN(CC)CCOCCNc1c2ccccc2[n+](C)c2c1oc1ccc(OCC[N+]3(C)CCCCC3)cc12

>  <score_type>  (25) 
oracle

>  <origin>  (25) 
adg

>  <m_score__min__energy>  (25) 
-7.8799999999999999

>  <m_primary>  (25) 
energy

$$$$
25:0
     RDKit          3D

 42 43  0  0  0  0  0  0  0  0999 V2000
   -6.0560   25.1730  -30.0480 C   0  0  0  0  0  0  0  0  0  0  0  0
   -5.3930   24.4610  -31.2230 C   0  0  0  0  0  0  0  0  0  0  0  0
   -4.0420   23.9920  -30.8370 N   0  0  0  0  0  0  0  0  0  0  0  0
   -3.6350   24.5450  -29.5250 C   0  0  0  0  0  0  0  0  0  0  0  0
   -3.5700   23.4370  -28.4790 C   0  0  0  0  0  0  0  0  0  0  0  0
   -3.9480   22.5110  -30.8650 C   0  0  0  0  0  0  0  0  0  0  0  0
   -3.5420   22.0410  -32.2590 C   0  0  0  0  0  0  0  0  0  0  0  0
   -4.6930   21.8900  -33.0860 O   0  0  0  0  0  0  0  0  0  0  0  0
   -5.5450   20.7710  -33.0760 C   0  0  0  0  0  0  0  0  0  0  0  0
   -5.1140   19.5130  -33.5420 C   0  0  0  0  0  0  0  0  0  0  0  0
   -5.9720   18.4040  -33.5180 C   0  0  0  0  0  0  0  0  0  0  0  0
   -5.5070   17.0810  -34.0540 C   0  0  0  0  0  0  0  0  0  0  0  0
   -7.2850   18.5540  -33.0580 C   0  0  0  0  0  0  0  0  0  0  0  0
   -7.7370   19.7940  -32.5900 C   0  0  0  0  0  0  0  0  0  0  0  0
   -9.0530   19.9370  -32.1200 C   0  0  0  0  0  0  0  0  0  0  0  0
   -9.5020   21.1730  -31.6540 C   0  0  0  0  0  0  0  0  0  0  0  0
   -8.6470   22.2770  -31.6540 C   0  0  0  0  0  0  0  0  0  0  0  0
   -7.3360   22.1510  -32.1190 C   0  0  0  0  0  0  0  0  0  0  0  0
   -6.8630   20.9120  -32.5940 C   0  0  0  0  0  0  0  0  0  0  0  0
   -5.6710   24.7595  -29.1042 H   0  0  0  0  0  0  0  0  0  0  0  0
   -5.8302   26.2485  -30.0963 H   0  0  0  0  0  0  0  0  0  0  0  0
   -7.1448   25.0244  -30.0963 H   0  0  0  0  0  0  0  0  0  0  0  0
   -6.0071   23.5977  -31.5188 H   0  0  0  0  0  0  0  0  0  0  0  0
   -5.3036   25.1627  -32.0654 H   0  0  0  0  0  0  0  0  0  0  0  0
   -2.6438   25.0123  -29.6202 H   0  0  0  0  0  0  0  0  0  0  0  0
   -4.3762   25.2931  -29.2073 H   0  0  0  0  0  0  0  0  0  0  0  0
   -3.5960   23.8807  -27.4728 H   0  0  0  0  0  0  0  0  0  0  0  0
   -4.4301   22.7630  -28.6049 H   0  0  0  0  0  0  0  0  0  0  0  0
   -2.6369   22.8682  -28.6049 H   0  0  0  0  0  0  0  0  0  0  0  0
   -3.1948   22.1798  -30.1350 H   0  0  0  0  0  0  0  0  0  0  0  0
   -4.9281   22.0817  -30.6100 H   0  0  0  0  0  0  0  0  0  0  0  0
   -2.8665   22.7831  -32.7095 H   0  0  0  0  0  0  0  0  0  0  0  0
   -3.0328   21.0696  -32.1744 H   0  0  0  0  0  0  0  0  0  0  0  0
   -4.0909   19.3993  -33.9298 H   0  0  0  0  0  0  0  0  0  0  0  0
   -5.2707   16.4086  -33.2162 H   0  0  0  0  0  0  0  0  0  0  0  0
   -6.3022   16.6347  -34.6693 H   0  0  0  0  0  0  0  0  0  0  0  0
   -4.6075   17.2303  -34.6693 H   0  0  0  0  0  0  0  0  0  0  0  0
   -7.9673   17.6912  -33.0641 H   0  0  0  0  0  0  0  0  0  0  0  0
   -9.7319   19.0715  -32.1194 H   0  0  0  0  0  0  0  0  0  0  0  0
  -10.5330   21.2782  -31.2853 H   0  0  0  0  0  0  0  0  0  0  0  0
   -9.0072   23.2492  -31.2865 H   0  0  0  0  0  0  0  0  0  0  0  0
   -6.6683   23.0252  -32.1143 H   0  0  0  0  0  0  0  0  0  0  0  0
  1  2  1  0
  2  3  1  0
  3  4  1  0
  4  5  1  0
  3  6  1  0
  6  7  1  0
  7  8  1  0
  8  9  1  0
  9 10  2  0
 10 11  1  0
 11 12  1  0
 11 13  2  0
 13 14  1  0
 14 15  2  0
 15 16  1  0
 16 17  2  0
 17 18  1  0
 18 19  2  0
 19  9  1  0
 19 14  1  0
  1 20  1  0
  1 21  1  0
  1 22  1  0
  2 23  1  0
  2 24  1  0
  4 25  1  0
  4 26  1  0
  5 27  1  0
  5 28  1  0
  5 29  1  0
  6 30  1  0
  6 31  1  0
  7 32  1  0
  7 33  1  0
 10 34  1  0
 12 35  1  0
 12 36  1  0
 12 37  1  0
 13 38  1  0
 15 39  1  0
 16 40  1  0
 17 41  1  0
 18 42  1  0
M  END
>  <UniqueID>  (26) 
26

>  <SMILES>  (26) 
CCN(CC)CCOc1cc(C)cc2ccccc12

>  <Energy>  (26) 
41.068324979712294

>  <Genealogy>  (26) 
CCN(CC)CCOc1cc(C)cc2ccccc12 (3D coordinates assigned)
CCN(CC)CCOc1cc(C)cc2ccccc12 (optimized conformer: 41.068324979712294 kcal/mol)

>  <smiles>  (26) 
CCN(CC)CCOc1cc(C)cc2ccccc12

>  <score_type>  (26) 
oracle

>  <origin>  (26) 
adg

>  <m_score__min__energy>  (26) 
-7.46

>  <m_primary>  (26) 
energy

$$$$
26:0
     RDKit          3D

 34 36  0  0  0  0  0  0  0  0999 V2000
   -9.7520   19.3130  -32.9640 C   0  0  0  0  0  0  0  0  0  0  0  0
   -8.5670   20.0300  -32.3870 C   0  0  0  0  0  0  0  0  0  0  0  0
   -7.2660   19.6030  -32.6900 C   0  0  0  0  0  0  0  0  0  0  0  0
   -6.1600   20.2940  -32.1840 C   0  0  0  0  0  0  0  0  0  0  0  0
   -6.3380   21.4310  -31.3760 C   0  0  0  0  0  0  0  0  0  0  0  0
   -5.1640   22.1650  -30.8380 C   0  0  0  0  0  0  0  0  0  0  0  0
   -5.0450   23.5540  -31.0200 C   0  0  0  0  0  0  0  0  0  0  0  0
   -3.9410   24.2560  -30.5170 C   0  0  0  0  0  0  0  0  0  0  0  0
   -3.8470   25.6350  -30.7070 O   0  0  0  0  0  0  0  0  0  0  0  0
   -2.9350   23.5630  -29.8200 C   0  0  0  0  0  0  0  0  0  0  0  0
   -1.8090   24.2210  -29.2970 C   0  0  0  0  0  0  0  0  0  0  0  0
   -0.8320   23.4970  -28.6120 C   0  0  0  0  0  0  0  0  0  0  0  0
   -0.9830   22.1150  -28.4500 C   0  0  0  0  0  0  0  0  0  0  0  0
    0.0540   21.3220  -27.7210 C   0  0  0  0  0  0  0  0  0  0  0  0
   -2.0780   21.4900  -28.9610 N   0  0  0  0  0  0  0  0  0  0  0  0
   -3.0480   22.1670  -29.6320 C   0  0  0  0  0  0  0  0  0  0  0  0
   -4.1550   21.4800  -30.1390 C   0  0  0  0  0  0  0  0  0  0  0  0
   -7.6450   21.8650  -31.0900 C   0  0  0  0  0  0  0  0  0  0  0  0
   -8.7490   21.1750  -31.5980 C   0  0  0  0  0  0  0  0  0  0  0  0
  -10.3828   18.9313  -32.1477 H   0  0  0  0  0  0  0  0  0  0  0  0
  -10.3359   20.0094  -33.5837 H   0  0  0  0  0  0  0  0  0  0  0  0
   -9.4060   18.4726  -33.5837 H   0  0  0  0  0  0  0  0  0  0  0  0
   -7.1145   18.7203  -33.3287 H   0  0  0  0  0  0  0  0  0  0  0  0
   -5.1437   19.9454  -32.4199 H   0  0  0  0  0  0  0  0  0  0  0  0
   -5.8302   24.0981  -31.5654 H   0  0  0  0  0  0  0  0  0  0  0  0
   -3.0700   26.0510  -31.2070 H   0  0  0  0  0  0  0  0  0  0  0  0
   -1.6974   25.3075  -29.4275 H   0  0  0  0  0  0  0  0  0  0  0  0
    0.0510   24.0092  -28.2021 H   0  0  0  0  0  0  0  0  0  0  0  0
   -0.0934   21.4347  -26.6368 H   0  0  0  0  0  0  0  0  0  0  0  0
   -0.0364   20.2605  -27.9950 H   0  0  0  0  0  0  0  0  0  0  0  0
    1.0547   21.6874  -27.9950 H   0  0  0  0  0  0  0  0  0  0  0  0
   -4.2372   20.3933  -29.9895 H   0  0  0  0  0  0  0  0  0  0  0  0
   -7.7994   22.7545  -30.4615 H   0  0  0  0  0  0  0  0  0  0  0  0
   -9.7660   21.5318  -31.3779 H   0  0  0  0  0  0  0  0  0  0  0  0
  1  2  1  0
  2  3  2  0
  3  4  1  0
  4  5  2  0
  5  6  1  0
  6  7  2  0
  7  8  1  0
  8  9  1  0
  8 10  2  0
 10 11  1  0
 11 12  2  0
 12 13  1  0
 13 14  1  0
 13 15  2  0
 15 16  1  0
 16 17  2  0
  5 18  1  0
 18 19  2  0
 19  2  1  0
 17  6  1  0
 16 10  1  0
  1 20  1  0
  1 21  1  0
  1 22  1  0
  3 23  1  0
  4 24  1  0
  7 25  1  0
  9 26  1  0
 11 27  1  0
 12 28  1  0
 14 29  1  0
 14 30  1  0
 14 31  1  0
 17 32  1  0
 18 33  1  0
 19 34  1  0
M  END
>  <UniqueID>  (27) 
27

>  <SMILES>  (27) 
Cc1ccc(-c2cc(O)c3ccc(C)nc3c2)cc1

>  <Energy>  (27) 
43.323643113495

>  <Genealogy>  (27) 
Cc1ccc(-c2cc(O)c3ccc(C)nc3c2)cc1 (3D coordinates assigned)
Cc1ccc(-c2cc(O)c3ccc(C)nc3c2)cc1 (optimized conformer: 43.323643113495 kcal/mol)

>  <smiles>  (27) 
Cc1ccc(-c2cc(O)c3ccc(C)nc3c2)cc1

>  <score_type>  (27) 
oracle

>  <origin>  (27) 
adg

>  <m_score__min__energy>  (27) 
-8.0800000000000001

>  <m_primary>  (27) 
energy

$$$$
27:0
     RDKit          3D

 34 36  0  0  0  0  0  0  0  0999 V2000
   -8.9410   19.0010  -31.2280 C   0  0  0  0  0  0  0  0  0  0  0  0
   -7.8580   19.3450  -32.1480 N   0  0  0  0  0  0  0  0  0  0  0  0
   -7.4430   20.5830  -32.5350 C   0  0  0  0  0  0  0  0  0  0  0  0
   -7.9690   21.8720  -31.9680 C   0  0  0  0  0  0  0  0  0  0  0  0
   -7.2470   23.0150  -32.5400 N   0  0  0  0  0  0  0  0  0  0  0  0
   -6.1560   23.3920  -31.6760 C   0  0  0  0  0  0  0  0  0  0  0  0
   -6.3180   24.4200  -30.7300 C   0  0  0  0  0  0  0  0  0  0  0  0
   -5.2670   24.7620  -29.8730 C   0  0  0  0  0  0  0  0  0  0  0  0
   -4.0500   24.0770  -29.9460 C   0  0  0  0  0  0  0  0  0  0  0  0
   -2.6180   24.5450  -28.7720 Br  0  0  0  0  0  0  0  0  0  0  0  0
   -3.8850   23.0450  -30.8740 C   0  0  0  0  0  0  0  0  0  0  0  0
   -4.9330   22.6990  -31.7330 C   0  0  0  0  0  0  0  0  0  0  0  0
   -6.4540   20.5530  -33.4680 N   0  0  0  0  0  0  0  0  0  0  0  0
   -6.2780   19.2370  -33.6810 C   0  0  0  0  0  0  0  0  0  0  0  0
   -5.3920   18.6340  -34.5710 C   0  0  0  0  0  0  0  0  0  0  0  0
   -5.3950   17.2280  -34.6470 C   0  0  0  0  0  0  0  0  0  0  0  0
   -6.2770   16.4700  -33.8450 C   0  0  0  0  0  0  0  0  0  0  0  0
   -7.1610   17.1090  -32.9560 C   0  0  0  0  0  0  0  0  0  0  0  0
   -7.1260   18.5060  -32.9000 C   0  0  0  0  0  0  0  0  0  0  0  0
   -8.5906   19.1123  -30.1912 H   0  0  0  0  0  0  0  0  0  0  0  0
   -9.7955   19.6719  -31.4003 H   0  0  0  0  0  0  0  0  0  0  0  0
   -9.2517   17.9599  -31.4003 H   0  0  0  0  0  0  0  0  0  0  0  0
   -9.0390   21.9630  -32.2065 H   0  0  0  0  0  0  0  0  0  0  0  0
   -7.8239   21.8677  -30.8776 H   0  0  0  0  0  0  0  0  0  0  0  0
   -7.9030   23.8240  -32.6520 H   0  0  0  0  0  0  0  0  0  0  0  0
   -6.8760   22.7690  -33.4880 H   0  0  0  0  0  0  0  0  0  0  0  0
   -7.2755   24.9574  -30.6638 H   0  0  0  0  0  0  0  0  0  0  0  0
   -5.3979   25.5716  -29.1399 H   0  0  0  0  0  0  0  0  0  0  0  0
   -2.9289   22.5038  -30.9288 H   0  0  0  0  0  0  0  0  0  0  0  0
   -4.8004   21.8812  -32.4566 H   0  0  0  0  0  0  0  0  0  0  0  0
   -4.7132   19.2358  -35.1932 H   0  0  0  0  0  0  0  0  0  0  0  0
   -4.7061   16.7165  -35.3353 H   0  0  0  0  0  0  0  0  0  0  0  0
   -6.2727   15.3723  -33.9160 H   0  0  0  0  0  0  0  0  0  0  0  0
   -7.8545   16.5307  -32.3278 H   0  0  0  0  0  0  0  0  0  0  0  0
  1  2  1  0
  2  3  1  0
  3  4  1  0
  4  5  1  0
  5  6  1  0
  6  7  2  0
  7  8  1  0
  8  9  2  0
  9 10  1  0
  9 11  1  0
 11 12  2  0
  3 13  2  0
 13 14  1  0
 14 15  2  0
 15 16  1  0
 16 17  2  0
 17 18  1  0
 18 19  2  0
 19  2  1  0
 12  6  1  0
 19 14  1  0
  1 20  1  0
  1 21  1  0
  1 22  1  0
  4 23  1  0
  4 24  1  0
  5 25  1  0
  5 26  1  0
  7 27  1  0
  8 28  1  0
 11 29  1  0
 12 30  1  0
 15 31  1  0
 16 32  1  0
 17 33  1  0
 18 34  1  0
M  CHG  1   5   1
M  END
>  <UniqueID>  (28) 
28

>  <SMILES>  (28) 
Cn1c(C[NH2+]c2ccc(Br)cc2)nc2ccccc21

>  <Energy>  (28) 
73.01328821938236

>  <Genealogy>  (28) 
Cn1c(C[NH2+]c2ccc(Br)cc2)nc2ccccc21 (protonated)
Cn1c(C[NH2+]c2ccc(Br)cc2)nc2ccccc21 (3D coordinates assigned)
Cn1c(C[NH2+]c2ccc(Br)cc2)nc2ccccc21 (optimized conformer: 73.01328821938236 kcal/mol)

>  <smiles>  (28) 
Cn1c(CNc2ccc(Br)cc2)nc2ccccc21

>  <score_type>  (28) 
oracle

>  <origin>  (28) 
adg

>  <m_score__min__energy>  (28) 
-7.0199999999999996

>  <m_primary>  (28) 
energy

$$$$
28:0
     RDKit          3D

109115  0  0  0  0  0  0  0  0999 V2000
   -1.6160   15.0340  -32.7420 C   0  0  0  0  0  0  0  0  0  0  0  0
   -0.7120   16.0770  -33.4040 C   0  0  0  0  0  0  0  0  0  0  0  0
   -1.4640   17.3000  -33.7450 N   0  0  0  0  0  0  0  0  0  0  0  0
   -2.5870   17.1490  -34.7250 C   0  0  0  0  0  0  0  0  0  0  0  0
   -3.7280   18.1900  -34.5860 C   0  0  0  0  0  0  0  0  0  0  0  0
   -5.0130   17.5880  -34.0490 C   0  0  0  0  0  0  0  0  0  0  0  0
   -4.9710   17.6290  -32.5950 N   0  0  0  0  0  0  0  0  0  0  0  0
   -5.4870   18.6770  -31.7840 C   0  0  0  0  0  0  0  0  0  0  0  0
   -6.2940   18.3950  -30.8440 O   0  0  0  0  0  0  0  0  0  0  0  0
   -4.9290   20.0910  -31.9770 C   0  0  1  0  0  0  0  0  0  0  0  0
   -5.3170   20.5620  -33.4220 C   0  0  0  0  0  0  0  0  0  0  0  0
   -6.8240   20.7950  -33.6600 C   0  0  0  0  0  0  0  0  0  0  0  0
   -7.5470   21.4970  -32.4790 C   0  0  1  0  0  0  0  0  0  0  0  0
   -8.5740   20.5810  -31.8040 C   0  0  0  0  0  0  0  0  0  0  0  0
   -6.5770   22.1430  -31.4480 C   0  0  2  0  0  0  0  0  0  0  0  0
   -6.0000   23.4630  -32.0250 C   0  0  0  0  0  0  0  0  0  0  0  0
   -5.5020   21.1220  -30.8770 C   0  0  2  0  0  0  0  0  0  0  0  0
   -4.4800   21.8070  -29.9380 C   0  0  0  0  0  0  0  0  0  0  0  0
   -4.9230   22.7170  -29.0380 C   0  0  0  0  0  0  0  0  0  0  0  0
   -4.0120   23.7710  -28.4990 C   0  0  0  0  0  0  0  0  0  0  0  0
   -2.7140   23.1710  -27.9160 C   0  0  2  0  0  0  0  0  0  0  0  0
   -1.6420   24.2720  -27.4920 C   0  0  1  0  0  0  0  0  0  0  0  0
   -1.3790   25.3120  -28.6420 C   0  0  0  0  0  0  0  0  0  0  0  0
   -2.2050   25.0940  -26.2920 C   0  0  0  0  0  0  0  0  0  0  0  0
   -1.2040   26.0450  -25.7060 C   0  0  0  0  0  0  0  0  0  0  0  0
   -1.6530   27.1940  -25.1350 N   0  0  0  0  0  0  0  0  0  0  0  0
   -0.7960   28.1060  -24.6110 C   0  0  0  0  0  0  0  0  0  0  0  0
    0.5760   27.8660  -24.6430 C   0  0  0  0  0  0  0  0  0  0  0  0
    1.0240   26.7260  -25.2470 N   0  0  0  0  0  0  0  0  0  0  0  0
    0.1820   25.7970  -25.7800 C   0  0  0  0  0  0  0  0  0  0  0  0
    0.7840   24.5620  -26.4590 C   0  0  0  0  0  0  0  0  0  0  0  0
    1.6940   25.0310  -27.6480 C   0  0  0  0  0  0  0  0  0  0  0  0
    1.6600   23.8650  -25.4000 C   0  0  0  0  0  0  0  0  0  0  0  0
   -0.3430   23.5580  -26.9340 C   0  0  2  0  0  0  0  0  0  0  0  0
    0.1910   22.3710  -27.7900 C   0  0  0  0  0  0  0  0  0  0  0  0
   -0.6490   22.0690  -29.0280 C   0  0  0  0  0  0  0  0  0  0  0  0
   -2.1660   21.9050  -28.7280 C   0  0  1  0  0  0  0  0  0  0  0  0
   -2.3340   20.6660  -27.7750 C   0  0  0  0  0  0  0  0  0  0  0  0
   -2.9730   21.6450  -30.1110 C   0  0  2  0  0  0  0  0  0  0  0  0
   -2.5580   22.6570  -31.2190 C   0  0  0  0  0  0  0  0  0  0  0  0
   -2.7300   20.1990  -30.6220 C   0  0  0  0  0  0  0  0  0  0  0  0
   -3.3670   19.9140  -31.9680 C   0  0  0  0  0  0  0  0  0  0  0  0
   -0.8840   18.6100  -33.4280 C   0  0  0  0  0  0  0  0  0  0  0  0
   -0.1580   18.8600  -32.2210 C   0  0  0  0  0  0  0  0  0  0  0  0
    0.3650   20.1350  -31.9360 C   0  0  0  0  0  0  0  0  0  0  0  0
    0.1700   21.1820  -32.8360 C   0  0  0  0  0  0  0  0  0  0  0  0
   -0.4770   20.9480  -34.0670 C   0  0  0  0  0  0  0  0  0  0  0  0
   -0.9960   19.6840  -34.3450 C   0  0  0  0  0  0  0  0  0  0  0  0
   -1.5388   15.1231  -31.6483 H   0  0  0  0  0  0  0  0  0  0  0  0
   -2.6581   15.2030  -33.0510 H   0  0  0  0  0  0  0  0  0  0  0  0
   -1.3007   14.0265  -33.0510 H   0  0  0  0  0  0  0  0  0  0  0  0
    0.1011   16.3381  -32.7107 H   0  0  0  0  0  0  0  0  0  0  0  0
   -0.3089   15.6473  -34.3329 H   0  0  0  0  0  0  0  0  0  0  0  0
   -2.1684   17.2360  -35.7385 H   0  0  0  0  0  0  0  0  0  0  0  0
   -3.0414   16.1684  -34.5204 H   0  0  0  0  0  0  0  0  0  0  0  0
   -3.3979   18.9832  -33.8991 H   0  0  0  0  0  0  0  0  0  0  0  0
   -3.9417   18.5824  -35.5912 H   0  0  0  0  0  0  0  0  0  0  0  0
   -5.8743   18.1683  -34.4116 H   0  0  0  0  0  0  0  0  0  0  0  0
   -5.1143   16.5483  -34.3935 H   0  0  0  0  0  0  0  0  0  0  0  0
   -4.7915   21.5071  -33.6234 H   0  0  0  0  0  0  0  0  0  0  0  0
   -5.0269   19.7425  -34.0960 H   0  0  0  0  0  0  0  0  0  0  0  0
   -6.9401   21.4200  -34.5577 H   0  0  0  0  0  0  0  0  0  0  0  0
   -7.2862   19.8032  -33.7727 H   0  0  0  0  0  0  0  0  0  0  0  0
   -8.0997   22.3341  -32.9304 H   0  0  0  0  0  0  0  0  0  0  0  0
   -8.4788   20.6659  -30.7114 H   0  0  0  0  0  0  0  0  0  0  0  0
   -9.5879   20.8801  -32.1081 H   0  0  0  0  0  0  0  0  0  0  0  0
   -8.3923   19.5396  -32.1081 H   0  0  0  0  0  0  0  0  0  0  0  0
   -7.1443   22.4196  -30.5471 H   0  0  0  0  0  0  0  0  0  0  0  0
   -5.7092   24.1282  -31.1986 H   0  0  0  0  0  0  0  0  0  0  0  0
   -5.1179   23.2385  -32.6427 H   0  0  0  0  0  0  0  0  0  0  0  0
   -6.7638   23.9580  -32.6427 H   0  0  0  0  0  0  0  0  0  0  0  0
   -6.0278   20.4301  -30.2026 H   0  0  0  0  0  0  0  0  0  0  0  0
   -5.9688   22.6794  -28.6990 H   0  0  0  0  0  0  0  0  0  0  0  0
   -3.7491   24.4631  -29.3126 H   0  0  0  0  0  0  0  0  0  0  0  0
   -4.5394   24.2932  -27.6871 H   0  0  0  0  0  0  0  0  0  0  0  0
   -2.9861   22.7209  -26.9499 H   0  0  0  0  0  0  0  0  0  0  0  0
   -1.1318   26.2897  -28.2027 H   0  0  0  0  0  0  0  0  0  0  0  0
   -0.5399   24.9667  -29.2638 H   0  0  0  0  0  0  0  0  0  0  0  0
   -2.2814   25.4071  -29.2638 H   0  0  0  0  0  0  0  0  0  0  0  0
   -3.0736   25.6718  -26.6409 H   0  0  0  0  0  0  0  0  0  0  0  0
   -2.4757   24.3770  -25.5029 H   0  0  0  0  0  0  0  0  0  0  0  0
   -1.1834   29.0325  -24.1621 H   0  0  0  0  0  0  0  0  0  0  0  0
    1.2824   28.5785  -24.1920 H   0  0  0  0  0  0  0  0  0  0  0  0
    2.6052   25.5006  -27.2492 H   0  0  0  0  0  0  0  0  0  0  0  0
    1.9688   24.1622  -28.2642 H   0  0  0  0  0  0  0  0  0  0  0  0
    1.1459   25.7589  -28.2642 H   0  0  0  0  0  0  0  0  0  0  0  0
    1.3107   24.1429  -24.3946 H   0  0  0  0  0  0  0  0  0  0  0  0
    1.5881   22.7745  -25.5247 H   0  0  0  0  0  0  0  0  0  0  0  0
    2.7065   24.1801  -25.5247 H   0  0  0  0  0  0  0  0  0  0  0  0
   -0.7007   23.0655  -26.0178 H   0  0  0  0  0  0  0  0  0  0  0  0
    1.2132   22.6128  -28.1165 H   0  0  0  0  0  0  0  0  0  0  0  0
    0.1497   21.4758  -27.1522 H   0  0  0  0  0  0  0  0  0  0  0  0
   -0.5236   22.8954  -29.7431 H   0  0  0  0  0  0  0  0  0  0  0  0
   -0.2949   21.1087  -29.4309 H   0  0  0  0  0  0  0  0  0  0  0  0
   -2.2887   21.0000  -26.7279 H   0  0  0  0  0  0  0  0  0  0  0  0
   -3.3054   20.1862  -27.9651 H   0  0  0  0  0  0  0  0  0  0  0  0
   -1.5254   19.9449  -27.9651 H   0  0  0  0  0  0  0  0  0  0  0  0
   -2.1802   23.5782  -30.7514 H   0  0  0  0  0  0  0  0  0  0  0  0
   -1.7693   22.2131  -31.8442 H   0  0  0  0  0  0  0  0  0  0  0  0
   -3.4313   22.8947  -31.8442 H   0  0  0  0  0  0  0  0  0  0  0  0
   -1.6452   20.0394  -30.7102 H   0  0  0  0  0  0  0  0  0  0  0  0
   -3.1962   19.5181  -29.8947 H   0  0  0  0  0  0  0  0  0  0  0  0
   -2.9351   20.6022  -32.7095 H   0  0  0  0  0  0  0  0  0  0  0  0
   -3.1612   18.8597  -32.2047 H   0  0  0  0  0  0  0  0  0  0  0  0
   -0.0058   18.0409  -31.5027 H   0  0  0  0  0  0  0  0  0  0  0  0
    0.9263   20.3052  -31.0054 H   0  0  0  0  0  0  0  0  0  0  0  0
    0.5219   22.1935  -32.5850 H   0  0  0  0  0  0  0  0  0  0  0  0
   -0.5718   21.7587  -34.8044 H   0  0  0  0  0  0  0  0  0  0  0  0
   -1.5073   19.5159  -35.3043 H   0  0  0  0  0  0  0  0  0  0  0  0
  1  2  1  0
  2  3  1  0
  3  4  1  0
  4  5  1  0
  5  6  1  0
  6  7  1  0
  7  8  1  0
  8  9  2  0
 10  8  1  1
 10 11  1  0
 11 12  1  0
 12 13  1  0
 13 14  1  0
 13 15  1  0
 15 16  1  0
 15 17  1  0
 17 18  1  0
 18 19  2  0
 19 20  1  0
 20 21  1  0
 21 22  1  0
 22 23  1  6
 22 24  1  0
 24 25  1  0
 25 26  2  0
 26 27  1  0
 27 28  2  0
 28 29  1  0
 29 30  2  0
 30 31  1  0
 31 32  1  0
 31 33  1  0
 31 34  1  0
 34 35  1  0
 35 36  1  0
 36 37  1  0
 37 38  1  1
 37 39  1  0
 39 40  1  6
 39 41  1  0
 41 42  1  0
  3 43  1  0
 43 44  2  0
 44 45  1  0
 45 46  2  0
 46 47  1  0
 47 48  2  0
 17 10  1  0
 39 18  1  0
 48 43  1  0
 42 10  1  0
 37 21  1  0
 34 22  1  0
 30 25  1  0
  1 49  1  0
  1 50  1  0
  1 51  1  0
  2 52  1  0
  2 53  1  0
  4 54  1  0
  4 55  1  0
  5 56  1  0
  5 57  1  0
  6 58  1  0
  6 59  1  0
 11 60  1  0
 11 61  1  0
 12 62  1  0
 12 63  1  0
 13 64  1  6
 14 65  1  0
 14 66  1  0
 14 67  1  0
 15 68  1  1
 16 69  1  0
 16 70  1  0
 16 71  1  0
 17 72  1  1
 19 73  1  0
 20 74  1  0
 20 75  1  0
 21 76  1  1
 23 77  1  0
 23 78  1  0
 23 79  1  0
 24 80  1  0
 24 81  1  0
 27 82  1  0
 28 83  1  0
 32 84  1  0
 32 85  1  0
 32 86  1  0
 33 87  1  0
 33 88  1  0
 33 89  1  0
 34 90  1  1
 35 91  1  0
 35 92  1  0
 36 93  1  0
 36 94  1  0
 38 95  1  0
 38 96  1  0
 38 97  1  0
 40 98  1  0
 40 99  1  0
 40100  1  0
 41101  1  0
 41102  1  0
 42103  1  0
 42104  1  0
 44105  1  0
 45106  1  0
 46107  1  0
 47108  1  0
 48109  1  0
M  CHG  1   7  -1
M  END
>  <UniqueID>  (29) 
29

>  <SMILES>  (29) 
CCN(CCC[N-]C(=O)[C@@]12CC[C@@H](C)C(C)C1C1=CCC3C4(C)Cc5nccnc5C(C)(C)C4CCC3(C)C1(C)CC2)c1ccccc1

>  <Energy>  (29) 
210.27632109497137

>  <Genealogy>  (29) 
CCN(CCC[N-]C(=O)C12CCC(C)C(C)C1C1=CCC3C4(C)Cc5nccnc5C(C)(C)C4CCC3(C)C1(C)CC2)c1ccccc1 (protonated)
CCN(CCC[N-]C(=O)[C@@]12CC[C@@H](C)C(C)C1C1=CCC3C4(C)Cc5nccnc5C(C)(C)C4CCC3(C)C1(C)CC2)c1ccccc1 (chirality)
CCN(CCC[N-]C(=O)[C@@]12CC[C@@H](C)C(C)C1C1=CCC3C4(C)Cc5nccnc5C(C)(C)C4CCC3(C)C1(C)CC2)c1ccccc1 (3D coordinates assigned)
CCN(CCC[N-]C(=O)[C@@]12CC[C@@H](C)C(C)C1C1=CCC3C4(C)Cc5nccnc5C(C)(C)C4CCC3(C)C1(C)CC2)c1ccccc1 (nonaromatic ring conformer: 210.27632109497137 kcal/mol)

>  <smiles>  (29) 
CCN(CCCNC(=O)C12CCC(C)C(C)C1C1=CCC3C4(C)Cc5nccnc5C(C)(C)C4CCC3(C)C1(C)CC2)c1ccccc1

>  <score_type>  (29) 
oracle

>  <origin>  (29) 
adg

>  <m_score__min__energy>  (29) 
-10.69

>  <m_primary>  (29) 
energy

$$$$
