0:0
     RDKit          3D

 39 40  0  0  0  0  0  0  0  0999 V2000
   -6.3190   24.5410  -31.2020 C   0  0  0  0  0  0  0  0  0  0  0  0
   -5.6340   25.6770  -30.4520 C   0  0  0  0  0  0  0  0  0  0  0  0
   -4.1880   25.6100  -30.6310 N   0  0  0  0  0  0  0  0  0  0  0  0
   -3.3530   24.6440  -29.9810 C   0  0  0  0  0  0  0  0  0  0  0  0
   -2.3960   25.0200  -29.2510 O   0  0  0  0  0  0  0  0  0  0  0  0
   -3.6360   23.1780  -30.1630 C   0  0  2  0  0  0  0  0  0  0  0  0
   -3.4660   22.4110  -28.8320 C   0  0  0  0  0  0  0  0  0  0  0  0
   -3.1530   20.9180  -29.0450 C   0  0  0  0  0  0  0  0  0  0  0  0
   -3.6890   20.4250  -30.3940 C   0  0  0  0  0  0  0  0  0  0  0  0
   -3.0500   21.1380  -31.5320 N   0  0  1  0  0  0  0  0  0  0  0  0
   -3.8770   21.0140  -32.7170 C   0  0  0  0  0  0  0  0  0  0  0  0
   -3.4250   21.3800  -33.8360 O   0  0  0  0  0  0  0  0  0  0  0  0
   -5.2560   20.4710  -32.6380 C   0  0  0  0  0  0  0  0  0  0  0  0
   -6.3010   21.2950  -32.1810 C   0  0  0  0  0  0  0  0  0  0  0  0
   -7.6110   20.8130  -32.1180 C   0  0  0  0  0  0  0  0  0  0  0  0
   -9.0180   21.9490  -31.5040 Br  0  0  0  0  0  0  0  0  0  0  0  0
   -7.8930   19.5030  -32.5090 C   0  0  0  0  0  0  0  0  0  0  0  0
   -6.8660   18.6720  -32.9600 C   0  0  0  0  0  0  0  0  0  0  0  0
   -5.5490   19.1450  -33.0280 C   0  0  0  0  0  0  0  0  0  0  0  0
   -4.1880   17.9110  -33.5870 Br  0  0  0  0  0  0  0  0  0  0  0  0
   -2.7370   22.5710  -31.2600 C   0  0  0  0  0  0  0  0  0  0  0  0
   -6.7474   23.8306  -30.4797 H   0  0  0  0  0  0  0  0  0  0  0  0
   -7.1212   24.9500  -31.8339 H   0  0  0  0  0  0  0  0  0  0  0  0
   -5.5829   24.0224  -31.8339 H   0  0  0  0  0  0  0  0  0  0  0  0
   -6.0021   26.6391  -30.8379 H   0  0  0  0  0  0  0  0  0  0  0  0
   -5.8640   25.5847  -29.3803 H   0  0  0  0  0  0  0  0  0  0  0  0
   -4.6829   23.0770  -30.4852 H   0  0  0  0  0  0  0  0  0  0  0  0
   -2.6405   22.8668  -28.2656 H   0  0  0  0  0  0  0  0  0  0  0  0
   -4.4181   22.4773  -28.2851 H   0  0  0  0  0  0  0  0  0  0  0  0
   -2.0630   20.7726  -29.0175 H   0  0  0  0  0  0  0  0  0  0  0  0
   -3.6419   20.3425  -28.2451 H   0  0  0  0  0  0  0  0  0  0  0  0
   -3.4841   19.3483  -30.4873 H   0  0  0  0  0  0  0  0  0  0  0  0
   -4.7703   20.6241  -30.4275 H   0  0  0  0  0  0  0  0  0  0  0  0
   -2.1340   20.6670  -31.7180 H   0  0  0  0  0  0  0  0  0  0  0  0
   -6.0847   22.3279  -31.8705 H   0  0  0  0  0  0  0  0  0  0  0  0
   -8.9250   19.1253  -32.4617 H   0  0  0  0  0  0  0  0  0  0  0  0
   -7.0922   17.6393  -33.2639 H   0  0  0  0  0  0  0  0  0  0  0  0
   -1.6880   22.6472  -30.9377 H   0  0  0  0  0  0  0  0  0  0  0  0
   -2.9189   23.1331  -32.1879 H   0  0  0  0  0  0  0  0  0  0  0  0
  1  2  1  0
  2  3  1  0
  3  4  1  0
  4  5  2  0
  4  6  1  0
  6  7  1  0
  7  8  1  0
  8  9  1  0
  9 10  1  0
 10 11  1  0
 11 12  2  0
 11 13  1  0
 13 14  2  0
 14 15  1  0
 15 16  1  0
 15 17  2  0
 17 18  1  0
 18 19  2  0
 19 20  1  0
 10 21  1  0
 21  6  1  0
 19 13  1  0
  1 22  1  0
  1 23  1  0
  1 24  1  0
  2 25  1  0
  2 26  1  0
  6 27  1  6
  7 28  1  0
  7 29  1  0
  8 30  1  0
  8 31  1  0
  9 32  1  0
  9 33  1  0
 10 34  1  6
 14 35  1  0
 17 36  1  0
 18 37  1  0
 21 38  1  0
 21 39  1  0
M  CHG  2   3  -1  10   1
M  END
>  <UniqueID>  (1) 
1

>  <SMILES>  (1) 
CC[N-]C(=O)[C@@H]1CCC[N@@H+](C(=O)c2cc(Br)ccc2Br)C1

>  <Energy>  (1) 
47.858380160269206

>  <Genealogy>  (1) 
CC[N-]C(=O)C1CCC[NH+](C(=O)c2cc(Br)ccc2Br)C1 (protonated)
CC[N-]C(=O)[C@@H]1CCC[N@@H+](C(=O)c2cc(Br)ccc2Br)C1 (chirality)
CC[N-]C(=O)[C@@H]1CCC[N@@H+](C(=O)c2cc(Br)ccc2Br)C1 (3D coordinates assigned)
CC[N-]C(=O)[C@@H]1CCC[N@@H+](C(=O)c2cc(Br)ccc2Br)C1 (nonaromatic ring conformer: 47.858380160269206 kcal/mol)

>  <smiles>  (1) 
CCNC(=O)C1CCCN(C(=O)c2cc(Br)ccc2Br)C1

>  <score_type>  (1) 
oracle

>  <origin>  (1) 
adg

>  <m_score__min__energy>  (1) 
-9.7200000000000006

>  <m_primary>  (1) 
energy

$$$$
1:0
     RDKit          3D

 39 41  0  0  0  0  0  0  0  0999 V2000
    1.2750   24.8200  -26.6060 C   0  0  0  0  0  0  0  0  0  0  0  0
    0.6500   24.6150  -27.8690 O   0  0  0  0  0  0  0  0  0  0  0  0
   -0.7240   24.3920  -28.0430 C   0  0  0  0  0  0  0  0  0  0  0  0
   -1.4450   23.8200  -26.9880 C   0  0  0  0  0  0  0  0  0  0  0  0
   -2.8190   23.5930  -27.1110 C   0  0  0  0  0  0  0  0  0  0  0  0
   -3.4860   23.9500  -28.2850 C   0  0  0  0  0  0  0  0  0  0  0  0
   -2.7870   24.5390  -29.3450 C   0  0  0  0  0  0  0  0  0  0  0  0
   -3.5110   24.9100  -30.5280 N   0  0  0  0  0  0  0  0  0  0  0  0
   -4.9330   25.0680  -30.6530 C   0  0  0  0  0  0  0  0  0  0  0  0
   -5.4390   26.1900  -30.3850 O   0  0  0  0  0  0  0  0  0  0  0  0
   -5.8120   23.9700  -31.1210 C   0  0  0  0  0  0  0  0  0  0  0  0
   -7.1840   24.0040  -30.8350 C   0  0  0  0  0  0  0  0  0  0  0  0
   -7.9940   22.9390  -31.2230 C   0  0  0  0  0  0  0  0  0  0  0  0
   -7.4390   21.8500  -31.8910 C   0  0  0  0  0  0  0  0  0  0  0  0
   -6.0650   21.8450  -32.1870 C   0  0  0  0  0  0  0  0  0  0  0  0
   -5.4540   20.6890  -32.8890 C   0  0  0  0  0  0  0  0  0  0  0  0
   -4.0550   20.5380  -32.9360 C   0  0  0  0  0  0  0  0  0  0  0  0
   -3.4830   19.4560  -33.6110 C   0  0  0  0  0  0  0  0  0  0  0  0
   -4.2990   18.5150  -34.2460 C   0  0  0  0  0  0  0  0  0  0  0  0
   -3.7410   17.4670  -34.9010 F   0  0  0  0  0  0  0  0  0  0  0  0
   -5.6880   18.6570  -34.2060 C   0  0  0  0  0  0  0  0  0  0  0  0
   -6.2650   19.7380  -33.5330 C   0  0  0  0  0  0  0  0  0  0  0  0
   -5.2940   22.9110  -31.8140 N   0  0  0  0  0  0  0  0  0  0  0  0
   -1.3960   24.7250  -29.2340 C   0  0  0  0  0  0  0  0  0  0  0  0
    0.5619   24.5861  -25.8018 H   0  0  0  0  0  0  0  0  0  0  0  0
    2.1529   24.1627  -26.5203 H   0  0  0  0  0  0  0  0  0  0  0  0
    1.5930   25.8695  -26.5203 H   0  0  0  0  0  0  0  0  0  0  0  0
   -0.9272   23.5475  -26.0565 H   0  0  0  0  0  0  0  0  0  0  0  0
   -3.3758   23.1324  -26.2816 H   0  0  0  0  0  0  0  0  0  0  0  0
   -4.5668   23.7673  -28.3771 H   0  0  0  0  0  0  0  0  0  0  0  0
   -7.6182   24.8661  -30.3076 H   0  0  0  0  0  0  0  0  0  0  0  0
   -9.0714   22.9581  -31.0019 H   0  0  0  0  0  0  0  0  0  0  0  0
   -8.0718   20.9996  -32.1849 H   0  0  0  0  0  0  0  0  0  0  0  0
   -3.4084   21.2759  -32.4386 H   0  0  0  0  0  0  0  0  0  0  0  0
   -2.3891   19.3447  -33.6427 H   0  0  0  0  0  0  0  0  0  0  0  0
   -6.3297   17.9162  -34.7055 H   0  0  0  0  0  0  0  0  0  0  0  0
   -7.3595   19.8451  -33.5072 H   0  0  0  0  0  0  0  0  0  0  0  0
   -4.2760   22.9040  -32.0460 H   0  0  0  0  0  0  0  0  0  0  0  0
   -0.8302   25.1336  -30.0843 H   0  0  0  0  0  0  0  0  0  0  0  0
  1  2  1  0
  2  3  1  0
  3  4  2  0
  4  5  1  0
  5  6  2  0
  6  7  1  0
  7  8  1  0
  8  9  1  0
  9 10  2  0
  9 11  1  0
 11 12  2  0
 12 13  1  0
 13 14  2  0
 14 15  1  0
 15 16  1  0
 16 17  2  0
 17 18  1  0
 18 19  2  0
 19 20  1  0
 19 21  1  0
 21 22  2  0
 15 23  2  0
  7 24  2  0
 24  3  1  0
 23 11  1  0
 22 16  1  0
  1 25  1  0
  1 26  1  0
  1 27  1  0
  4 28  1  0
  5 29  1  0
  6 30  1  0
 12 31  1  0
 13 32  1  0
 14 33  1  0
 17 34  1  0
 18 35  1  0
 21 36  1  0
 22 37  1  0
 23 38  1  0
 24 39  1  0
M  CHG  2   8  -1  23   1
M  END
>  <UniqueID>  (2) 
2

>  <SMILES>  (2) 
COc1cccc([N-]C(=O)c2cccc(-c3ccc(F)cc3)[nH+]2)c1

>  <Energy>  (2) 
51.58385557201602

>  <Genealogy>  (2) 
COc1cccc([N-]C(=O)c2cccc(-c3ccc(F)cc3)[nH+]2)c1 (protonated)
COc1cccc([N-]C(=O)c2cccc(-c3ccc(F)cc3)[nH+]2)c1 (3D coordinates assigned)
COc1cccc([N-]C(=O)c2cccc(-c3ccc(F)cc3)[nH+]2)c1 (optimized conformer: 51.58385557201602 kcal/mol)

>  <smiles>  (2) 
COc1cccc(NC(=O)c2cccc(-c3ccc(F)cc3)n2)c1

>  <score_type>  (2) 
oracle

>  <origin>  (2) 
adg

>  <m_score__min__energy>  (2) 
-8.8300000000000001

>  <m_primary>  (2) 
energy

$$$$
2:0
     RDKit          3D

 53 55  0  0  0  0  0  0  0  0999 V2000
   -2.0570   20.4660  -30.9110 C   0  0  0  0  0  0  0  0  0  0  0  0
   -1.6630   20.5600  -32.3840 C   0  0  0  0  0  0  0  0  0  0  0  0
   -2.1060   19.3200  -33.1620 C   0  0  0  0  0  0  0  0  0  0  0  0
   -3.5640   19.1030  -33.0150 N   0  0  0  0  0  0  0  0  0  0  0  0
   -3.9560   17.6900  -33.2530 C   0  0  0  0  0  0  0  0  0  0  0  0
   -4.6330   17.4140  -34.6200 C   0  0  0  0  0  0  0  0  0  0  0  0
   -6.1630   17.4150  -34.5650 C   0  0  0  0  0  0  0  0  0  0  0  0
   -4.3920   20.0680  -33.7770 C   0  0  0  0  0  0  0  0  0  0  0  0
   -4.6090   21.3430  -33.0010 C   0  0  0  0  0  0  0  0  0  0  0  0
   -3.8670   22.3290  -33.2660 O   0  0  0  0  0  0  0  0  0  0  0  0
   -5.6360   21.4780  -31.9900 N   0  0  0  0  0  0  0  0  0  0  0  0
   -5.6230   22.6070  -31.1090 C   0  0  0  0  0  0  0  0  0  0  0  0
   -4.6610   22.7100  -30.0940 C   0  0  0  0  0  0  0  0  0  0  0  0
   -4.6260   23.8440  -29.2770 C   0  0  0  0  0  0  0  0  0  0  0  0
   -5.5520   24.8740  -29.4720 C   0  0  0  0  0  0  0  0  0  0  0  0
   -6.5140   24.7740  -30.4840 C   0  0  0  0  0  0  0  0  0  0  0  0
   -6.5530   23.6330  -31.3030 C   0  0  0  0  0  0  0  0  0  0  0  0
   -7.5870   23.4770  -32.3800 C   0  0  0  0  0  0  0  0  0  0  0  0
   -8.5960   22.3680  -32.0470 C   0  0  0  0  0  0  0  0  0  0  0  0
   -8.0780   20.9500  -31.8240 C   0  0  0  0  0  0  0  0  0  0  0  0
   -9.0600   19.9570  -31.6650 C   0  0  0  0  0  0  0  0  0  0  0  0
   -8.7100   18.6130  -31.5890 C   0  0  0  0  0  0  0  0  0  0  0  0
   -7.3730   18.2500  -31.6920 C   0  0  0  0  0  0  0  0  0  0  0  0
   -6.4150   19.2040  -31.8200 N   0  0  0  0  0  0  0  0  0  0  0  0
   -6.7130   20.5370  -31.8440 C   0  0  0  0  0  0  0  0  0  0  0  0
   -1.1789   20.6755  -30.2825 H   0  0  0  0  0  0  0  0  0  0  0  0
   -2.8463   21.2010  -30.6949 H   0  0  0  0  0  0  0  0  0  0  0  0
   -2.4295   19.4538  -30.6949 H   0  0  0  0  0  0  0  0  0  0  0  0
   -2.1388   21.4481  -32.8255 H   0  0  0  0  0  0  0  0  0  0  0  0
   -0.5671   20.6326  -32.4446 H   0  0  0  0  0  0  0  0  0  0  0  0
   -1.8669   19.4573  -34.2269 H   0  0  0  0  0  0  0  0  0  0  0  0
   -1.5758   18.4432  -32.7618 H   0  0  0  0  0  0  0  0  0  0  0  0
   -3.0493   17.0703  -33.1910 H   0  0  0  0  0  0  0  0  0  0  0  0
   -4.7068   17.4483  -32.4863 H   0  0  0  0  0  0  0  0  0  0  0  0
   -4.3113   18.1909  -35.3292 H   0  0  0  0  0  0  0  0  0  0  0  0
   -4.3250   16.4049  -34.9313 H   0  0  0  0  0  0  0  0  0  0  0  0
   -6.4922   17.4152  -33.5154 H   0  0  0  0  0  0  0  0  0  0  0  0
   -6.5475   18.3134  -35.0700 H   0  0  0  0  0  0  0  0  0  0  0  0
   -6.5486   16.5171  -35.0700 H   0  0  0  0  0  0  0  0  0  0  0  0
   -3.8832   20.3071  -34.7225 H   0  0  0  0  0  0  0  0  0  0  0  0
   -5.3730   19.6076  -33.9660 H   0  0  0  0  0  0  0  0  0  0  0  0
   -3.9341   21.8988  -29.9406 H   0  0  0  0  0  0  0  0  0  0  0  0
   -3.8708   23.9261  -28.4814 H   0  0  0  0  0  0  0  0  0  0  0  0
   -5.5242   25.7654  -28.8281 H   0  0  0  0  0  0  0  0  0  0  0  0
   -7.2383   25.5875  -30.6378 H   0  0  0  0  0  0  0  0  0  0  0  0
   -8.1281   24.4279  -32.4942 H   0  0  0  0  0  0  0  0  0  0  0  0
   -7.0710   23.2008  -33.3114 H   0  0  0  0  0  0  0  0  0  0  0  0
   -9.1181   22.6705  -31.1273 H   0  0  0  0  0  0  0  0  0  0  0  0
   -9.2139   22.2876  -32.9535 H   0  0  0  0  0  0  0  0  0  0  0  0
  -10.1192   20.2466  -31.5998 H   0  0  0  0  0  0  0  0  0  0  0  0
   -9.4846   17.8447  -31.4487 H   0  0  0  0  0  0  0  0  0  0  0  0
   -7.0897   17.1873  -31.6698 H   0  0  0  0  0  0  0  0  0  0  0  0
   -5.4260   18.8920  -31.9390 H   0  0  0  0  0  0  0  0  0  0  0  0
  1  2  1  0
  2  3  1  0
  3  4  1  0
  4  5  1  0
  5  6  1  0
  6  7  1  0
  4  8  1  0
  8  9  1  0
  9 10  2  0
  9 11  1  0
 11 12  1  0
 12 13  2  0
 13 14  1  0
 14 15  2  0
 15 16  1  0
 16 17  2  0
 17 18  1  0
 18 19  1  0
 19 20  1  0
 20 21  2  0
 21 22  1  0
 22 23  2  0
 23 24  1  0
 24 25  2  0
 25 11  1  0
 17 12  1  0
 25 20  1  0
  1 26  1  0
  1 27  1  0
  1 28  1  0
  2 29  1  0
  2 30  1  0
  3 31  1  0
  3 32  1  0
  5 33  1  0
  5 34  1  0
  6 35  1  0
  6 36  1  0
  7 37  1  0
  7 38  1  0
  7 39  1  0
  8 40  1  0
  8 41  1  0
 13 42  1  0
 14 43  1  0
 15 44  1  0
 16 45  1  0
 18 46  1  0
 18 47  1  0
 19 48  1  0
 19 49  1  0
 21 50  1  0
 22 51  1  0
 23 52  1  0
 24 53  1  0
M  CHG  1  24   1
M  END
>  <UniqueID>  (3) 
3

>  <SMILES>  (3) 
CCCN(CCC)CC(=O)N1c2ccccc2CCc2ccc[nH+]c21

>  <Energy>  (3) 
72.84591401941705

>  <Genealogy>  (3) 
CCCN(CCC)CC(=O)N1c2ccccc2CCc2ccc[nH+]c21 (protonated)
CCCN(CCC)CC(=O)N1c2ccccc2CCc2ccc[nH+]c21 (3D coordinates assigned)
CCCN(CCC)CC(=O)N1c2ccccc2CCc2ccc[nH+]c21 (nonaromatic ring conformer: 72.84591401941705 kcal/mol)

>  <smiles>  (3) 
CCCN(CCC)CC(=O)N1c2ccccc2CCc2cccnc21

>  <score_type>  (3) 
oracle

>  <origin>  (3) 
adg

>  <m_score__min__energy>  (3) 
-6.1100000000000003

>  <m_primary>  (3) 
energy

$$$$
3:0
     RDKit          3D

 34 35  0  0  0  0  0  0  0  0999 V2000
   -4.4690   20.1850  -31.3680 C   0  0  0  0  0  0  0  0  0  0  0  0
   -4.8910   21.4180  -31.9330 O   0  0  0  0  0  0  0  0  0  0  0  0
   -4.8260   22.6810  -31.3190 C   0  0  0  0  0  0  0  0  0  0  0  0
   -5.8430   23.6020  -31.0450 C   0  0  0  0  0  0  0  0  0  0  0  0
   -7.3300   23.5240  -31.3020 C   0  0  0  0  0  0  0  0  0  0  0  0
   -7.6490   22.5380  -32.3470 N   0  0  0  0  0  0  0  0  0  0  0  0
   -8.5070   21.4420  -31.8660 C   0  0  0  0  0  0  0  0  0  0  0  0
   -7.9870   20.0910  -32.2660 C   0  0  0  0  0  0  0  0  0  0  0  0
   -8.3040   18.8860  -31.6540 C   0  0  0  0  0  0  0  0  0  0  0  0
   -7.6370   17.7910  -32.2190 C   0  0  0  0  0  0  0  0  0  0  0  0
   -6.7970   18.1330  -33.2710 C   0  0  0  0  0  0  0  0  0  0  0  0
   -6.8800   19.7970  -33.4970 S   0  0  0  0  0  0  0  0  0  0  0  0
   -5.1560   24.7040  -30.5360 C   0  0  0  0  0  0  0  0  0  0  0  0
   -5.7460   26.0080  -30.1020 C   0  0  0  0  0  0  0  0  0  0  0  0
   -3.8390   24.4370  -30.4610 N   0  0  0  0  0  0  0  0  0  0  0  0
   -3.6530   23.2110  -30.9210 N   0  0  0  0  0  0  0  0  0  0  0  0
   -2.3400   22.5970  -31.0700 C   0  0  0  0  0  0  0  0  0  0  0  0
   -4.4936   20.2570  -30.2706 H   0  0  0  0  0  0  0  0  0  0  0  0
   -5.1430   19.3807  -31.6979 H   0  0  0  0  0  0  0  0  0  0  0  0
   -3.4435   19.9624  -31.6979 H   0  0  0  0  0  0  0  0  0  0  0  0
   -7.8384   23.2340  -30.3706 H   0  0  0  0  0  0  0  0  0  0  0  0
   -7.6717   24.5116  -31.6454 H   0  0  0  0  0  0  0  0  0  0  0  0
   -6.7530   22.1340  -32.7090 H   0  0  0  0  0  0  0  0  0  0  0  0
   -8.5592   21.4898  -30.7683 H   0  0  0  0  0  0  0  0  0  0  0  0
   -9.5000   21.5681  -32.3222 H   0  0  0  0  0  0  0  0  0  0  0  0
   -9.0066   18.7997  -30.8120 H   0  0  0  0  0  0  0  0  0  0  0  0
   -7.7663   16.7582  -31.8631 H   0  0  0  0  0  0  0  0  0  0  0  0
   -6.1820   17.4340  -33.8567 H   0  0  0  0  0  0  0  0  0  0  0  0
   -5.7666   26.0535  -29.0031 H   0  0  0  0  0  0  0  0  0  0  0  0
   -5.1344   26.8350  -30.4918 H   0  0  0  0  0  0  0  0  0  0  0  0
   -6.7710   26.0945  -30.4918 H   0  0  0  0  0  0  0  0  0  0  0  0
   -1.9135   22.3976  -30.0758 H   0  0  0  0  0  0  0  0  0  0  0  0
   -2.4381   21.6514  -31.6233 H   0  0  0  0  0  0  0  0  0  0  0  0
   -1.6772   23.2785  -31.6233 H   0  0  0  0  0  0  0  0  0  0  0  0
  1  2  1  0
  2  3  1  0
  3  4  2  0
  4  5  1  0
  5  6  1  0
  6  7  1  0
  7  8  1  0
  8  9  2  0
  9 10  1  0
 10 11  2  0
 11 12  1  0
  4 13  1  0
 13 14  1  0
 13 15  2  0
 15 16  1  0
 16 17  1  0
 16  3  1  0
 12  8  1  0
  1 18  1  0
  1 19  1  0
  1 20  1  0
  5 21  1  0
  5 22  1  0
  6 23  1  0
  7 24  1  0
  7 25  1  0
  9 26  1  0
 10 27  1  0
 11 28  1  0
 14 29  1  0
 14 30  1  0
 14 31  1  0
 17 32  1  0
 17 33  1  0
 17 34  1  0
M  END
>  <UniqueID>  (4) 
4

>  <SMILES>  (4) 
COc1c(CNCc2cccs2)c(C)nn1C

>  <Energy>  (4) 
90.02786497820709

>  <Genealogy>  (4) 
COc1c(CNCc2cccs2)c(C)nn1C (3D coordinates assigned)
COc1c(CNCc2cccs2)c(C)nn1C (optimized conformer: 90.02786497820709 kcal/mol)

>  <smiles>  (4) 
COc1c(CNCc2cccs2)c(C)nn1C

>  <score_type>  (4) 
oracle

>  <origin>  (4) 
adg

>  <m_score__min__energy>  (4) 
-6.6600000000000001

>  <m_primary>  (4) 
energy

$$$$
4:0
     RDKit          3D

 43 45  0  0  0  0  0  0  0  0999 V2000
   -4.4270   25.6650  -30.3450 O   0  0  0  0  0  0  0  0  0  0  0  0
   -4.9350   24.5870  -29.9340 C   0  0  0  0  0  0  0  0  0  0  0  0
   -4.3580   23.9180  -28.7200 C   0  0  0  0  0  0  0  0  0  0  0  0
   -3.1160   23.1580  -29.1020 C   0  0  0  0  0  0  0  0  0  0  0  0
   -3.1320   21.7530  -29.1280 C   0  0  0  0  0  0  0  0  0  0  0  0
   -1.9720   21.0390  -29.4420 C   0  0  0  0  0  0  0  0  0  0  0  0
   -0.7850   21.7200  -29.7230 C   0  0  0  0  0  0  0  0  0  0  0  0
   -0.7550   23.1170  -29.6860 C   0  0  0  0  0  0  0  0  0  0  0  0
   -1.9120   23.8360  -29.3740 C   0  0  0  0  0  0  0  0  0  0  0  0
   -1.8570   25.1920  -29.3330 F   0  0  0  0  0  0  0  0  0  0  0  0
   -5.9700   23.9540  -30.6990 N   0  0  0  0  0  0  0  0  0  0  0  0
   -5.7410   23.7050  -32.1280 C   0  0  0  0  0  0  0  0  0  0  0  0
   -6.8360   22.8090  -32.7150 C   0  0  0  0  0  0  0  0  0  0  0  0
   -7.1520   21.7330  -31.7650 N   0  0  0  0  0  0  0  0  0  0  0  0
   -6.9850   20.3500  -32.1320 C   0  0  0  0  0  0  0  0  0  0  0  0
   -5.7790   19.9070  -32.6950 C   0  0  0  0  0  0  0  0  0  0  0  0
   -5.6210   18.5690  -33.0720 C   0  0  0  0  0  0  0  0  0  0  0  0
   -6.6720   17.6510  -32.9010 C   0  0  0  0  0  0  0  0  0  0  0  0
   -6.5070   16.2750  -33.2930 N   0  0  0  0  0  0  0  0  0  0  0  0
   -5.6840   15.5410  -32.7090 O   0  0  0  0  0  0  0  0  0  0  0  0
   -7.2530   15.7470  -34.3210 O   0  0  0  0  0  0  0  0  0  0  0  0
   -7.8840   18.1000  -32.3470 C   0  0  0  0  0  0  0  0  0  0  0  0
   -8.0390   19.4360  -31.9690 C   0  0  0  0  0  0  0  0  0  0  0  0
   -7.5220   22.0750  -30.3810 C   0  0  0  0  0  0  0  0  0  0  0  0
   -7.2360   23.5500  -30.0720 C   0  0  0  0  0  0  0  0  0  0  0  0
   -4.1038   24.6801  -27.9686 H   0  0  0  0  0  0  0  0  0  0  0  0
   -5.0983   23.2199  -28.3021 H   0  0  0  0  0  0  0  0  0  0  0  0
   -4.0624   21.2122  -28.9000 H   0  0  0  0  0  0  0  0  0  0  0  0
   -1.9938   19.9395  -29.4679 H   0  0  0  0  0  0  0  0  0  0  0  0
    0.1261   21.1568  -29.9734 H   0  0  0  0  0  0  0  0  0  0  0  0
    0.1815   23.6517  -29.9030 H   0  0  0  0  0  0  0  0  0  0  0  0
   -5.7375   24.6657  -32.6638 H   0  0  0  0  0  0  0  0  0  0  0  0
   -4.7735   23.1943  -32.2426 H   0  0  0  0  0  0  0  0  0  0  0  0
   -7.7387   23.4088  -32.9028 H   0  0  0  0  0  0  0  0  0  0  0  0
   -6.4829   22.3709  -33.6602 H   0  0  0  0  0  0  0  0  0  0  0  0
   -4.9515   20.6168  -32.8411 H   0  0  0  0  0  0  0  0  0  0  0  0
   -4.6675   18.2328  -33.5054 H   0  0  0  0  0  0  0  0  0  0  0  0
   -8.7163   17.3940  -32.2102 H   0  0  0  0  0  0  0  0  0  0  0  0
   -8.9938   19.7747  -31.5404 H   0  0  0  0  0  0  0  0  0  0  0  0
   -8.5956   21.8816  -30.2396 H   0  0  0  0  0  0  0  0  0  0  0  0
   -6.9201   21.4561  -29.6993 H   0  0  0  0  0  0  0  0  0  0  0  0
   -8.0535   24.1709  -30.4670 H   0  0  0  0  0  0  0  0  0  0  0  0
   -7.1609   23.6847  -28.9829 H   0  0  0  0  0  0  0  0  0  0  0  0
  1  2  2  0
  2  3  1  0
  3  4  1  0
  4  5  2  0
  5  6  1  0
  6  7  2  0
  7  8  1  0
  8  9  2  0
  9 10  1  0
  2 11  1  0
 11 12  1  0
 12 13  1  0
 13 14  1  0
 14 15  1  0
 15 16  2  0
 16 17  1  0
 17 18  2  0
 18 19  1  0
 19 20  2  0
 19 21  1  0
 18 22  1  0
 22 23  2  0
 14 24  1  0
 24 25  1  0
  9  4  1  0
 25 11  1  0
 23 15  1  0
  3 26  1  0
  3 27  1  0
  5 28  1  0
  6 29  1  0
  7 30  1  0
  8 31  1  0
 12 32  1  0
 12 33  1  0
 13 34  1  0
 13 35  1  0
 16 36  1  0
 17 37  1  0
 22 38  1  0
 23 39  1  0
 24 40  1  0
 24 41  1  0
 25 42  1  0
 25 43  1  0
M  CHG  2  19   1  21  -1
M  END
>  <UniqueID>  (5) 
5

>  <SMILES>  (5) 
O=C(Cc1ccccc1F)N1CCN(c2ccc([N+](=O)[O-])cc2)CC1

>  <Energy>  (5) 
51.6854646928887

>  <Genealogy>  (5) 
O=C(Cc1ccccc1F)N1CCN(c2ccc([N+](=O)[O-])cc2)CC1 (3D coordinates assigned)
O=C(Cc1ccccc1F)N1CCN(c2ccc([N+](=O)[O-])cc2)CC1 (nonaromatic ring conformer: 51.6854646928887 kcal/mol)

>  <smiles>  (5) 
O=C(Cc1ccccc1F)N1CCN(c2ccc([N+](=O)[O-])cc2)CC1

>  <score_type>  (5) 
oracle

>  <origin>  (5) 
adg

>  <m_score__min__energy>  (5) 
-8.5399999999999991

>  <m_primary>  (5) 
energy

$$$$
5:0
     RDKit          3D

 42 44  0  0  0  0  0  0  0  0999 V2000
   -5.7520   16.3140  -33.7670 C   0  0  0  0  0  0  0  0  0  0  0  0
   -5.8760   16.9550  -32.5020 O   0  0  0  0  0  0  0  0  0  0  0  0
   -6.6530   18.0980  -32.2650 C   0  0  0  0  0  0  0  0  0  0  0  0
   -8.0040   18.0680  -32.6200 C   0  0  0  0  0  0  0  0  0  0  0  0
   -8.8180   19.1820  -32.4100 C   0  0  0  0  0  0  0  0  0  0  0  0
   -8.2930   20.3460  -31.8420 C   0  0  0  0  0  0  0  0  0  0  0  0
   -9.4700   21.8400  -31.5890 Br  0  0  0  0  0  0  0  0  0  0  0  0
   -6.9320   20.3950  -31.4730 C   0  0  0  0  0  0  0  0  0  0  0  0
   -6.3250   21.6450  -30.8770 C   0  0  0  0  0  0  0  0  0  0  0  0
   -6.0360   22.6570  -31.9190 N   0  0  0  0  0  0  0  0  0  0  0  0
   -4.6300   22.6340  -32.3870 C   0  0  0  0  0  0  0  0  0  0  0  0
   -3.6500   23.0540  -31.2790 C   0  0  0  0  0  0  0  0  0  0  0  0
   -4.2380   24.1010  -30.4380 N   0  0  0  0  0  0  0  0  0  0  0  0
   -3.6310   24.4110  -29.1700 C   0  0  0  0  0  0  0  0  0  0  0  0
   -4.3040   24.1630  -27.9610 C   0  0  0  0  0  0  0  0  0  0  0  0
   -3.6740   24.4540  -26.7500 C   0  0  0  0  0  0  0  0  0  0  0  0
   -2.3810   24.9780  -26.7480 C   0  0  0  0  0  0  0  0  0  0  0  0
   -1.7320   25.1970  -27.9640 C   0  0  0  0  0  0  0  0  0  0  0  0
   -2.3620   24.9070  -29.1330 N   0  0  0  0  0  0  0  0  0  0  0  0
   -5.3230   24.9140  -30.9950 C   0  0  0  0  0  0  0  0  0  0  0  0
   -6.4690   24.0170  -31.5070 C   0  0  0  0  0  0  0  0  0  0  0  0
   -6.1200   19.2670  -31.6890 C   0  0  0  0  0  0  0  0  0  0  0  0
   -5.5450   15.2441  -33.6172 H   0  0  0  0  0  0  0  0  0  0  0  0
   -6.6894   16.4307  -34.3307 H   0  0  0  0  0  0  0  0  0  0  0  0
   -4.9258   16.7719  -34.3307 H   0  0  0  0  0  0  0  0  0  0  0  0
   -8.4297   17.1585  -33.0689 H   0  0  0  0  0  0  0  0  0  0  0  0
   -9.8801   19.1436  -32.6935 H   0  0  0  0  0  0  0  0  0  0  0  0
   -7.0299   22.0727  -30.1489 H   0  0  0  0  0  0  0  0  0  0  0  0
   -5.3778   21.3706  -30.3897 H   0  0  0  0  0  0  0  0  0  0  0  0
   -4.3808   21.6138  -32.7143 H   0  0  0  0  0  0  0  0  0  0  0  0
   -4.5348   23.3507  -33.2160 H   0  0  0  0  0  0  0  0  0  0  0  0
   -3.4139   22.1795  -30.6549 H   0  0  0  0  0  0  0  0  0  0  0  0
   -2.7350   23.4472  -31.7460 H   0  0  0  0  0  0  0  0  0  0  0  0
   -5.3204   23.7424  -27.9693 H   0  0  0  0  0  0  0  0  0  0  0  0
   -4.1958   24.2706  -25.7992 H   0  0  0  0  0  0  0  0  0  0  0  0
   -1.8787   25.2159  -25.7987 H   0  0  0  0  0  0  0  0  0  0  0  0
   -0.7103   25.6044  -27.9764 H   0  0  0  0  0  0  0  0  0  0  0  0
   -5.7104   25.5837  -30.2131 H   0  0  0  0  0  0  0  0  0  0  0  0
   -4.9288   25.4999  -31.8384 H   0  0  0  0  0  0  0  0  0  0  0  0
   -7.2128   23.9141  -30.7032 H   0  0  0  0  0  0  0  0  0  0  0  0
   -6.8780   24.5053  -32.4038 H   0  0  0  0  0  0  0  0  0  0  0  0
   -5.0578   19.2985  -31.4050 H   0  0  0  0  0  0  0  0  0  0  0  0
  1  2  1  0
  2  3  1  0
  3  4  2  0
  4  5  1  0
  5  6  2  0
  6  7  1  0
  6  8  1  0
  8  9  1  0
  9 10  1  0
 10 11  1  0
 11 12  1  0
 12 13  1  0
 13 14  1  0
 14 15  2  0
 15 16  1  0
 16 17  2  0
 17 18  1  0
 18 19  2  0
 13 20  1  0
 20 21  1  0
  8 22  2  0
 22  3  1  0
 21 10  1  0
 19 14  1  0
  1 23  1  0
  1 24  1  0
  1 25  1  0
  4 26  1  0
  5 27  1  0
  9 28  1  0
  9 29  1  0
 11 30  1  0
 11 31  1  0
 12 32  1  0
 12 33  1  0
 15 34  1  0
 16 35  1  0
 17 36  1  0
 18 37  1  0
 20 38  1  0
 20 39  1  0
 21 40  1  0
 21 41  1  0
 22 42  1  0
M  END
>  <UniqueID>  (6) 
6

>  <SMILES>  (6) 
COc1ccc(Br)c(CN2CCN(c3ccccn3)CC2)c1

>  <Energy>  (6) 
55.83799848999311

>  <Genealogy>  (6) 
COc1ccc(Br)c(CN2CCN(c3ccccn3)CC2)c1 (3D coordinates assigned)
COc1ccc(Br)c(CN2CCN(c3ccccn3)CC2)c1 (nonaromatic ring conformer: 55.83799848999311 kcal/mol)

>  <smiles>  (6) 
COc1ccc(Br)c(CN2CCN(c3ccccn3)CC2)c1

>  <score_type>  (6) 
oracle

>  <origin>  (6) 
adg

>  <m_score__min__energy>  (6) 
-7.79

>  <m_primary>  (6) 
energy

$$$$
6:0
     RDKit          3D

 50 52  0  0  0  0  0  0  0  0999 V2000
   -5.8020   18.6410  -34.5920 C   0  0  0  0  0  0  0  0  0  0  0  0
   -6.0730   19.3920  -33.2840 C   0  0  0  0  0  0  0  0  0  0  0  0
   -7.4990   19.3840  -32.8750 N   0  0  0  0  0  0  0  0  0  0  0  0
   -7.7440   18.5130  -31.7030 C   0  0  0  0  0  0  0  0  0  0  0  0
   -6.4930   17.7120  -31.3430 C   0  0  0  0  0  0  0  0  0  0  0  0
   -8.0610   20.7500  -32.7280 C   0  0  0  0  0  0  0  0  0  0  0  0
   -8.6050   20.9590  -31.3100 C   0  0  0  0  0  0  0  0  0  0  0  0
   -8.4730   22.3280  -30.9080 O   0  0  0  0  0  0  0  0  0  0  0  0
   -7.2590   23.0080  -30.7160 C   0  0  0  0  0  0  0  0  0  0  0  0
   -6.0700   22.2760  -30.8050 C   0  0  0  0  0  0  0  0  0  0  0  0
   -4.8320   22.9150  -30.6730 C   0  0  0  0  0  0  0  0  0  0  0  0
   -4.7670   24.2860  -30.4140 C   0  0  0  0  0  0  0  0  0  0  0  0
   -3.4840   24.9220  -30.3670 N   0  0  0  0  0  0  0  0  0  0  0  0
   -2.4680   24.6810  -29.3880 C   0  0  0  0  0  0  0  0  0  0  0  0
   -1.7680   25.6360  -28.9520 O   0  0  0  0  0  0  0  0  0  0  0  0
   -2.2730   23.3270  -28.8440 C   0  0  0  0  0  0  0  0  0  0  0  0
   -2.5910   22.8930  -27.2470 S   0  0  0  0  0  0  0  0  0  0  0  0
   -2.1430   21.2810  -27.3910 C   0  0  0  0  0  0  0  0  0  0  0  0
   -1.7230   21.0590  -28.6950 C   0  0  0  0  0  0  0  0  0  0  0  0
   -1.7760   22.2020  -29.5110 C   0  0  0  0  0  0  0  0  0  0  0  0
   -1.3390   22.1990  -30.9520 C   0  0  0  0  0  0  0  0  0  0  0  0
   -0.8880   20.8360  -31.4660 C   0  0  0  0  0  0  0  0  0  0  0  0
   -2.2260   21.4080  -31.9050 C   0  0  0  0  0  0  0  0  0  0  0  0
   -5.9580   25.0220  -30.2990 C   0  0  0  0  0  0  0  0  0  0  0  0
   -7.1960   24.3880  -30.4410 C   0  0  0  0  0  0  0  0  0  0  0  0
   -5.4367   17.6286  -34.3646 H   0  0  0  0  0  0  0  0  0  0  0  0
   -6.7322   18.5728  -35.1751 H   0  0  0  0  0  0  0  0  0  0  0  0
   -5.0426   19.1825  -35.1751 H   0  0  0  0  0  0  0  0  0  0  0  0
   -5.4801   18.9227  -32.4851 H   0  0  0  0  0  0  0  0  0  0  0  0
   -5.7934   20.4424  -33.4531 H   0  0  0  0  0  0  0  0  0  0  0  0
   -8.0301   19.1380  -30.8442 H   0  0  0  0  0  0  0  0  0  0  0  0
   -8.5506   17.8083  -31.9534 H   0  0  0  0  0  0  0  0  0  0  0  0
   -6.3986   17.6516  -30.2487 H   0  0  0  0  0  0  0  0  0  0  0  0
   -6.5743   16.6976  -31.7606 H   0  0  0  0  0  0  0  0  0  0  0  0
   -5.6057   18.2104  -31.7606 H   0  0  0  0  0  0  0  0  0  0  0  0
   -7.2707   21.4893  -32.9248 H   0  0  0  0  0  0  0  0  0  0  0  0
   -8.8849   20.8741  -33.4462 H   0  0  0  0  0  0  0  0  0  0  0  0
   -9.6682   20.6779  -31.2872 H   0  0  0  0  0  0  0  0  0  0  0  0
   -8.0266   20.3317  -30.6158 H   0  0  0  0  0  0  0  0  0  0  0  0
   -6.1086   21.1907  -30.9799 H   0  0  0  0  0  0  0  0  0  0  0  0
   -3.9037   22.3336  -30.7739 H   0  0  0  0  0  0  0  0  0  0  0  0
   -2.1767   20.5293  -26.5887 H   0  0  0  0  0  0  0  0  0  0  0  0
   -1.3801   20.0784  -29.0567 H   0  0  0  0  0  0  0  0  0  0  0  0
   -0.9228   23.2172  -30.9479 H   0  0  0  0  0  0  0  0  0  0  0  0
   -0.0576   20.7663  -32.1840 H   0  0  0  0  0  0  0  0  0  0  0  0
   -0.5604   19.8971  -30.9957 H   0  0  0  0  0  0  0  0  0  0  0  0
   -2.3635   21.7517  -32.9408 H   0  0  0  0  0  0  0  0  0  0  0  0
   -3.2671   21.0535  -31.8838 H   0  0  0  0  0  0  0  0  0  0  0  0
   -5.9164   26.1024  -30.0962 H   0  0  0  0  0  0  0  0  0  0  0  0
   -8.1243   24.9691  -30.3376 H   0  0  0  0  0  0  0  0  0  0  0  0
  1  2  1  0
  2  3  1  0
  3  4  1  0
  4  5  1  0
  3  6  1  0
  6  7  1  0
  7  8  1  0
  8  9  1  0
  9 10  2  0
 10 11  1  0
 11 12  2  0
 12 13  1  0
 13 14  1  0
 14 15  2  0
 14 16  1  0
 16 17  1  0
 17 18  1  0
 18 19  2  0
 19 20  1  0
 20 21  1  0
 21 22  1  0
 22 23  1  0
 12 24  1  0
 24 25  2  0
 25  9  1  0
 20 16  2  0
 23 21  1  0
  1 26  1  0
  1 27  1  0
  1 28  1  0
  2 29  1  0
  2 30  1  0
  4 31  1  0
  4 32  1  0
  5 33  1  0
  5 34  1  0
  5 35  1  0
  6 36  1  0
  6 37  1  0
  7 38  1  0
  7 39  1  0
 10 40  1  0
 11 41  1  0
 18 42  1  0
 19 43  1  0
 21 44  1  0
 22 45  1  0
 22 46  1  0
 23 47  1  0
 23 48  1  0
 24 49  1  0
 25 50  1  0
M  CHG  1  13  -1
M  END
>  <UniqueID>  (7) 
7

>  <SMILES>  (7) 
CCN(CC)CCOc1ccc([N-]C(=O)c2sccc2C2CC2)cc1

>  <Energy>  (7) 
344.4070870990187

>  <Genealogy>  (7) 
CCN(CC)CCOc1ccc([N-]C(=O)c2sccc2C2CC2)cc1 (protonated)
CCN(CC)CCOc1ccc([N-]C(=O)c2sccc2C2CC2)cc1 (3D coordinates assigned)
CCN(CC)CCOc1ccc([N-]C(=O)c2sccc2C2CC2)cc1 (nonaromatic ring conformer: 344.4070870990187 kcal/mol)

>  <smiles>  (7) 
CCN(CC)CCOc1ccc(NC(=O)c2sccc2C2CC2)cc1

>  <score_type>  (7) 
oracle

>  <origin>  (7) 
adg

>  <m_score__min__energy>  (7) 
-9.3399999999999999

>  <m_primary>  (7) 
energy

$$$$
7:0
     RDKit          3D

 46 49  0  0  0  0  0  0  0  0999 V2000
   -0.8170   18.2551  -34.7277 H   0  0  0  0  0  0  0  0  0  0  0  0
   -1.3390   19.0740  -34.2110 C   0  0  0  0  0  0  0  0  0  0  0  0
   -0.6070   20.1270  -33.6560 C   0  0  0  0  0  0  0  0  0  0  0  0
    0.4902   20.1341  -33.7347 H   0  0  0  0  0  0  0  0  0  0  0  0
   -1.2670   21.1730  -33.0000 C   0  0  0  0  0  0  0  0  0  0  0  0
   -0.6877   21.9978  -32.5594 H   0  0  0  0  0  0  0  0  0  0  0  0
   -2.6680   21.1700  -32.9040 C   0  0  0  0  0  0  0  0  0  0  0  0
   -3.3970   20.1050  -33.4590 C   0  0  0  0  0  0  0  0  0  0  0  0
   -4.7430   20.0830  -33.3240 N   0  0  0  0  0  0  0  0  0  0  0  0
   -5.4180   21.0880  -32.7010 C   0  0  0  0  0  0  0  0  0  0  0  0
   -6.8060   20.9840  -32.5130 C   0  0  0  0  0  0  0  0  0  0  0  0
   -7.5450   19.8690  -32.9590 C   0  0  0  0  0  0  0  0  0  0  0  0
   -7.0375   19.0552  -33.4976 H   0  0  0  0  0  0  0  0  0  0  0  0
   -8.9210   19.7940  -32.7190 C   0  0  0  0  0  0  0  0  0  0  0  0
   -9.4930   18.9229  -33.0712 H   0  0  0  0  0  0  0  0  0  0  0  0
   -9.5700   20.8230  -32.0330 C   0  0  0  0  0  0  0  0  0  0  0  0
  -10.6516   20.7596  -31.8430 H   0  0  0  0  0  0  0  0  0  0  0  0
   -8.8480   21.9320  -31.5880 C   0  0  0  0  0  0  0  0  0  0  0  0
   -9.3623   22.7421  -31.0501 H   0  0  0  0  0  0  0  0  0  0  0  0
   -7.4710   22.0150  -31.8250 C   0  0  0  0  0  0  0  0  0  0  0  0
   -6.7850   23.1110  -31.4220 N   0  0  0  0  0  0  0  0  0  0  0  0
   -5.4520   23.2890  -31.6180 C   0  0  0  0  0  0  0  0  0  0  0  0
   -4.9950   24.4790  -31.3160 N   0  0  0  0  0  0  0  0  0  0  0  0
   -4.9420   25.2980  -30.1040 C   0  0  0  0  0  0  0  0  0  0  0  0
   -5.9307   25.7516  -29.9403 H   0  0  0  0  0  0  0  0  0  0  0  0
   -4.1669   26.0647  -30.2501 H   0  0  0  0  0  0  0  0  0  0  0  0
   -4.5620   24.4760  -28.8580 C   0  0  0  0  0  0  0  0  0  0  0  0
   -5.0900   23.5119  -28.9002 H   0  0  0  0  0  0  0  0  0  0  0  0
   -4.8510   25.0655  -27.9754 H   0  0  0  0  0  0  0  0  0  0  0  0
   -3.0520   24.2030  -28.7530 C   0  0  0  0  0  0  0  0  0  0  0  0
   -2.8086   23.9428  -27.7123 H   0  0  0  0  0  0  0  0  0  0  0  0
   -2.5174   25.1111  -29.0686 H   0  0  0  0  0  0  0  0  0  0  0  0
   -2.6320   23.0910  -29.6360 N   0  0  0  0  0  0  0  0  0  0  0  0
   -3.1650   21.8150  -29.1340 C   0  0  0  0  0  0  0  0  0  0  0  0
   -3.1614   21.8235  -28.0340 H   0  0  0  0  0  0  0  0  0  0  0  0
   -4.1948   21.6799  -29.4963 H   0  0  0  0  0  0  0  0  0  0  0  0
   -2.5373   20.9875  -29.4963 H   0  0  0  0  0  0  0  0  0  0  0  0
   -1.1630   23.0100  -29.7250 C   0  0  0  0  0  0  0  0  0  0  0  0
   -0.7350   22.9864  -28.7119 H   0  0  0  0  0  0  0  0  0  0  0  0
   -0.8783   22.0948  -30.2647 H   0  0  0  0  0  0  0  0  0  0  0  0
   -0.7794   23.8884  -30.2647 H   0  0  0  0  0  0  0  0  0  0  0  0
   -4.7020   22.2170  -32.2100 C   0  0  0  0  0  0  0  0  0  0  0  0
   -3.3330   22.1780  -32.2700 N   0  0  0  0  0  0  0  0  0  0  0  0
   -2.7500   22.8790  -31.7870 H   0  0  0  0  0  0  0  0  0  0  0  0
   -2.7330   19.0590  -34.1110 C   0  0  0  0  0  0  0  0  0  0  0  0
   -3.3075   18.2268  -34.5438 H   0  0  0  0  0  0  0  0  0  0  0  0
  1  2  1  0
  2  3  2  0
  3  4  1  0
  3  5  1  0
  5  6  1  0
  5  7  2  0
  7  8  1  0
  8  9  1  0
  9 10  2  0
 10 11  1  0
 11 12  2  0
 12 13  1  0
 12 14  1  0
 14 15  1  0
 14 16  2  0
 16 17  1  0
 16 18  1  0
 18 19  1  0
 18 20  2  0
 20 21  1  0
 21 22  1  0
 22 23  2  0
 23 24  1  0
 24 25  1  0
 24 26  1  0
 24 27  1  0
 27 28  1  0
 27 29  1  0
 27 30  1  0
 30 31  1  0
 30 32  1  0
 30 33  1  0
 33 34  1  0
 34 35  1  0
 34 36  1  0
 34 37  1  0
 33 38  1  0
 38 39  1  0
 38 40  1  0
 38 41  1  0
 22 42  1  0
 42 43  2  0
 43 44  1  0
  8 45  2  0
 45 46  1  0
 45  2  1  0
 43  7  1  0
 42 10  1  0
 20 11  1  0
M  CHG  2  21  -1  43   1
M  END
>  <UniqueID>  (8) 
8

>  <SMILES>  (8) 
CN(C)CCC/N=c1/[n-]c2ccccc2c2nc3ccccc3[nH+]c12

>  <Energy>  (8) 
76.22150883129916

>  <Genealogy>  (8) 
CN(C)CCCN=c1[n-]c2ccccc2c2nc3ccccc3[nH+]c12 (protonated)
CN(C)CCC/N=c1/[n-]c2ccccc2c2nc3ccccc3[nH+]c12 (cis-trans isomerization)
CN(C)CCC/N=c1/[n-]c2ccccc2c2nc3ccccc3[nH+]c12 (3D coordinates assigned)
CN(C)CCC/N=c1/[n-]c2ccccc2c2nc3ccccc3[nH+]c12 (optimized conformer: 76.22150883129916 kcal/mol)

>  <smiles>  (8) 
CN(C)CCCN=c1[nH]c2ccccc2c2nc3ccccc3nc12

>  <score_type>  (8) 
oracle

>  <origin>  (8) 
adg

>  <m_score__min__energy>  (8) 
-7.8300000000000001

>  <m_primary>  (8) 
energy

$$$$
8:0
     RDKit          3D

 55 57  0  0  0  0  0  0  0  0999 V2000
   -5.3170   15.8780  -32.1380 C   0  0  0  0  0  0  0  0  0  0  0  0
   -5.8470   15.3800  -33.4820 C   0  0  0  0  0  0  0  0  0  0  0  0
   -6.8440   16.3600  -34.1160 C   0  0  0  0  0  0  0  0  0  0  0  0
   -6.7850   17.7190  -33.4750 C   0  0  0  0  0  0  0  0  0  0  0  0
   -7.7980   18.2760  -32.7720 N   0  0  0  0  0  0  0  0  0  0  0  0
   -7.3190   19.4700  -32.3660 C   0  0  0  0  0  0  0  0  0  0  0  0
   -7.9960   20.4070  -31.5900 C   0  0  0  0  0  0  0  0  0  0  0  0
   -7.3140   21.5850  -31.2460 C   0  0  0  0  0  0  0  0  0  0  0  0
   -5.9830   21.7990  -31.6770 C   0  0  0  0  0  0  0  0  0  0  0  0
   -5.2710   22.9990  -31.3150 N   0  0  0  0  0  0  0  0  0  0  0  0
   -5.8890   24.3140  -31.5060 C   0  0  0  0  0  0  0  0  0  0  0  0
   -5.3330   25.2990  -30.4720 C   0  0  0  0  0  0  0  0  0  0  0  0
   -3.9170   25.3040  -30.4900 O   0  0  0  0  0  0  0  0  0  0  0  0
   -3.4290   24.0400  -30.0820 C   0  0  0  0  0  0  0  0  0  0  0  0
   -3.8230   22.9550  -31.0880 C   0  0  0  0  0  0  0  0  0  0  0  0
   -5.3530   20.8070  -32.4530 C   0  0  0  0  0  0  0  0  0  0  0  0
   -6.0570   19.6900  -32.7720 N   0  0  0  0  0  0  0  0  0  0  0  0
   -5.7060   18.5940  -33.4680 C   0  0  0  0  0  0  0  0  0  0  0  0
   -4.4190   18.3720  -34.0670 N   0  0  0  0  0  0  0  0  0  0  0  0
   -4.3510   17.6210  -35.3290 C   0  0  0  0  0  0  0  0  0  0  0  0
   -3.2380   16.5800  -35.2900 C   0  0  0  0  0  0  0  0  0  0  0  0
   -3.2080   18.6030  -33.2660 C   0  0  0  0  0  0  0  0  0  0  0  0
   -2.3120   19.6800  -33.8980 C   0  0  0  0  0  0  0  0  0  0  0  0
   -1.9750   20.8080  -32.9240 C   0  0  0  0  0  0  0  0  0  0  0  0
   -5.8546   15.3729  -31.3220 H   0  0  0  0  0  0  0  0  0  0  0  0
   -4.2425   15.6552  -32.0623 H   0  0  0  0  0  0  0  0  0  0  0  0
   -5.4725   16.9643  -32.0623 H   0  0  0  0  0  0  0  0  0  0  0  0
   -4.9983   15.2455  -34.1687 H   0  0  0  0  0  0  0  0  0  0  0  0
   -6.3751   14.4316  -33.3042 H   0  0  0  0  0  0  0  0  0  0  0  0
   -6.6099   16.4618  -35.1860 H   0  0  0  0  0  0  0  0  0  0  0  0
   -7.8568   15.9579  -33.9661 H   0  0  0  0  0  0  0  0  0  0  0  0
   -8.7380   17.8680  -32.5740 H   0  0  0  0  0  0  0  0  0  0  0  0
   -9.0297   20.2304  -31.2578 H   0  0  0  0  0  0  0  0  0  0  0  0
   -7.8187   22.3486  -30.6359 H   0  0  0  0  0  0  0  0  0  0  0  0
   -5.6641   24.6805  -32.5185 H   0  0  0  0  0  0  0  0  0  0  0  0
   -6.9782   24.2274  -31.3789 H   0  0  0  0  0  0  0  0  0  0  0  0
   -5.6998   26.3098  -30.7038 H   0  0  0  0  0  0  0  0  0  0  0  0
   -5.6709   24.9877  -29.4725 H   0  0  0  0  0  0  0  0  0  0  0  0
   -2.3323   24.0832  -30.0090 H   0  0  0  0  0  0  0  0  0  0  0  0
   -3.8680   23.7911  -29.1046 H   0  0  0  0  0  0  0  0  0  0  0  0
   -3.2977   23.1288  -32.0387 H   0  0  0  0  0  0  0  0  0  0  0  0
   -3.5449   21.9682  -30.6895 H   0  0  0  0  0  0  0  0  0  0  0  0
   -4.3146   20.9338  -32.7930 H   0  0  0  0  0  0  0  0  0  0  0  0
   -5.3121   17.1130  -35.4968 H   0  0  0  0  0  0  0  0  0  0  0  0
   -4.1392   18.3279  -36.1448 H   0  0  0  0  0  0  0  0  0  0  0  0
   -2.9897   16.3477  -34.2439 H   0  0  0  0  0  0  0  0  0  0  0  0
   -3.5741   15.6646  -35.7990 H   0  0  0  0  0  0  0  0  0  0  0  0
   -2.3471   16.9765  -35.7990 H   0  0  0  0  0  0  0  0  0  0  0  0
   -3.5031   18.9298  -32.2580 H   0  0  0  0  0  0  0  0  0  0  0  0
   -2.6388   17.6628  -33.2217 H   0  0  0  0  0  0  0  0  0  0  0  0
   -1.3749   19.2089  -34.2296 H   0  0  0  0  0  0  0  0  0  0  0  0
   -2.8642   20.1209  -34.7410 H   0  0  0  0  0  0  0  0  0  0  0  0
   -2.0834   20.4453  -31.8912 H   0  0  0  0  0  0  0  0  0  0  0  0
   -0.9389   21.1383  -33.0898 H   0  0  0  0  0  0  0  0  0  0  0  0
   -2.6601   21.6525  -33.0898 H   0  0  0  0  0  0  0  0  0  0  0  0
  1  2  1  0
  2  3  1  0
  3  4  1  0
  4  5  1  0
  5  6  2  0
  6  7  1  0
  7  8  2  0
  8  9  1  0
  9 10  1  0
 10 11  1  0
 11 12  1  0
 12 13  1  0
 13 14  1  0
 14 15  1  0
  9 16  2  0
 16 17  1  0
 17 18  1  0
 18 19  1  0
 19 20  1  0
 20 21  1  0
 19 22  1  0
 22 23  1  0
 23 24  1  0
 18  4  2  0
 17  6  1  0
 15 10  1  0
  1 25  1  0
  1 26  1  0
  1 27  1  0
  2 28  1  0
  2 29  1  0
  3 30  1  0
  3 31  1  0
  5 32  1  0
  7 33  1  0
  8 34  1  0
 11 35  1  0
 11 36  1  0
 12 37  1  0
 12 38  1  0
 14 39  1  0
 14 40  1  0
 15 41  1  0
 15 42  1  0
 16 43  1  0
 20 44  1  0
 20 45  1  0
 21 46  1  0
 21 47  1  0
 21 48  1  0
 22 49  1  0
 22 50  1  0
 23 51  1  0
 23 52  1  0
 24 53  1  0
 24 54  1  0
 24 55  1  0
M  CHG  1   5   1
M  END
>  <UniqueID>  (9) 
9

>  <SMILES>  (9) 
CCCc1[nH+]c2ccc(N3CCOCC3)cn2c1N(CC)CCC

>  <Energy>  (9) 
88.15201992950927

>  <Genealogy>  (9) 
CCCc1[nH+]c2ccc(N3CCOCC3)cn2c1N(CC)CCC (protonated)
CCCc1[nH+]c2ccc(N3CCOCC3)cn2c1N(CC)CCC (3D coordinates assigned)
CCCc1[nH+]c2ccc(N3CCOCC3)cn2c1N(CC)CCC (nonaromatic ring conformer: 88.15201992950927 kcal/mol)

>  <smiles>  (9) 
CCCc1nc2ccc(N3CCOCC3)cn2c1N(CC)CCC

>  <score_type>  (9) 
oracle

>  <origin>  (9) 
adg

>  <m_score__min__energy>  (9) 
-6.9100000000000001

>  <m_primary>  (9) 
energy

$$$$
9:0
     RDKit          3D

 65 68  0  0  0  0  0  0  0  0999 V2000
   -3.4160   18.6050  -26.0050 C   0  0  0  0  0  0  0  0  0  0  0  0
   -2.3600   19.3260  -26.8400 C   0  0  0  0  0  0  0  0  0  0  0  0
   -2.7880   20.6490  -27.1710 O   0  0  0  0  0  0  0  0  0  0  0  0
   -2.7780   21.2170  -28.4550 C   0  0  0  0  0  0  0  0  0  0  0  0
   -2.9660   22.5990  -28.5610 C   0  0  0  0  0  0  0  0  0  0  0  0
   -2.9580   23.2220  -29.8100 C   0  0  0  0  0  0  0  0  0  0  0  0
   -2.7720   22.4670  -30.9690 C   0  0  0  0  0  0  0  0  0  0  0  0
   -2.5890   21.0760  -30.8910 C   0  0  0  0  0  0  0  0  0  0  0  0
   -2.4230   20.2950  -32.1400 C   0  0  0  0  0  0  0  0  0  0  0  0
   -3.2100   19.2650  -32.5250 N   0  0  0  0  0  0  0  0  0  0  0  0
   -2.7120   18.8930  -33.7170 C   0  0  0  0  0  0  0  0  0  0  0  0
   -3.3060   17.8350  -34.6000 C   0  0  0  0  0  0  0  0  0  0  0  0
   -2.9490   16.4870  -34.1340 N   0  0  0  0  0  0  0  0  0  0  0  0
   -3.6090   16.1010  -32.8720 C   0  0  0  0  0  0  0  0  0  0  0  0
   -5.1470   16.1650  -32.9550 C   0  0  0  0  0  0  0  0  0  0  0  0
   -5.6180   17.5530  -32.7700 N   0  0  0  0  0  0  0  0  0  0  0  0
   -6.4480   17.6970  -31.5440 C   0  0  0  0  0  0  0  0  0  0  0  0
   -7.3990   18.9110  -31.5970 C   0  0  0  0  0  0  0  0  0  0  0  0
   -6.8590   19.9440  -32.4880 N   0  0  0  0  0  0  0  0  0  0  0  0
   -6.6610   21.3030  -32.0430 C   0  0  0  0  0  0  0  0  0  0  0  0
   -5.6830   22.1160  -32.6420 C   0  0  0  0  0  0  0  0  0  0  0  0
   -5.4750   23.4250  -32.1980 C   0  0  0  0  0  0  0  0  0  0  0  0
   -6.2420   23.9460  -31.1390 C   0  0  0  0  0  0  0  0  0  0  0  0
   -6.0680   25.2510  -30.6530 O   0  0  0  0  0  0  0  0  0  0  0  0
   -6.4280   25.6750  -29.3420 C   0  0  0  0  0  0  0  0  0  0  0  0
   -7.2130   23.1350  -30.5380 C   0  0  0  0  0  0  0  0  0  0  0  0
   -7.4190   21.8250  -30.9790 C   0  0  0  0  0  0  0  0  0  0  0  0
   -6.5070   19.5580  -33.8630 C   0  0  0  0  0  0  0  0  0  0  0  0
   -6.3280   18.0390  -33.9700 C   0  0  0  0  0  0  0  0  0  0  0  0
   -1.6400   19.7040  -34.0250 C   0  0  0  0  0  0  0  0  0  0  0  0
   -1.4880   20.5530  -33.0340 O   0  0  0  0  0  0  0  0  0  0  0  0
   -2.5830   20.4560  -29.6270 C   0  0  0  0  0  0  0  0  0  0  0  0
   -3.2012   18.7516  -24.9362 H   0  0  0  0  0  0  0  0  0  0  0  0
   -4.4101   19.0138  -26.2387 H   0  0  0  0  0  0  0  0  0  0  0  0
   -3.3973   17.5303  -26.2387 H   0  0  0  0  0  0  0  0  0  0  0  0
   -1.4238   19.3835  -26.2653 H   0  0  0  0  0  0  0  0  0  0  0  0
   -2.2044   18.7632  -27.7722 H   0  0  0  0  0  0  0  0  0  0  0  0
   -3.1214   23.1997  -27.6527 H   0  0  0  0  0  0  0  0  0  0  0  0
   -3.0986   24.3107  -29.8810 H   0  0  0  0  0  0  0  0  0  0  0  0
   -2.7686   22.9642  -31.9502 H   0  0  0  0  0  0  0  0  0  0  0  0
   -4.0440   18.8590  -32.0450 H   0  0  0  0  0  0  0  0  0  0  0  0
   -4.4012   17.9375  -34.5947 H   0  0  0  0  0  0  0  0  0  0  0  0
   -2.9073   17.9675  -35.6166 H   0  0  0  0  0  0  0  0  0  0  0  0
   -3.2010   15.7970  -34.8810 H   0  0  0  0  0  0  0  0  0  0  0  0
   -3.3136   15.0713  -32.6222 H   0  0  0  0  0  0  0  0  0  0  0  0
   -3.2901   16.8172  -32.1004 H   0  0  0  0  0  0  0  0  0  0  0  0
   -5.4717   15.8009  -33.9409 H   0  0  0  0  0  0  0  0  0  0  0  0
   -5.5726   15.5359  -32.1593 H   0  0  0  0  0  0  0  0  0  0  0  0
   -7.0506   16.7852  -31.4199 H   0  0  0  0  0  0  0  0  0  0  0  0
   -5.7613   17.8545  -30.6992 H   0  0  0  0  0  0  0  0  0  0  0  0
   -8.3810   18.5863  -31.9715 H   0  0  0  0  0  0  0  0  0  0  0  0
   -7.5005   19.3297  -30.5849 H   0  0  0  0  0  0  0  0  0  0  0  0
   -5.0755   21.7181  -33.4682 H   0  0  0  0  0  0  0  0  0  0  0  0
   -4.7084   24.0508  -32.6784 H   0  0  0  0  0  0  0  0  0  0  0  0
   -5.9028   25.0564  -28.5994 H   0  0  0  0  0  0  0  0  0  0  0  0
   -6.1450   26.7294  -29.2070 H   0  0  0  0  0  0  0  0  0  0  0  0
   -7.5143   25.5667  -29.2070 H   0  0  0  0  0  0  0  0  0  0  0  0
   -7.8193   23.5330  -29.7109 H   0  0  0  0  0  0  0  0  0  0  0  0
   -8.1792   21.1976  -30.4907 H   0  0  0  0  0  0  0  0  0  0  0  0
   -7.3101   19.8759  -34.5442 H   0  0  0  0  0  0  0  0  0  0  0  0
   -5.5597   20.0460  -34.1360 H   0  0  0  0  0  0  0  0  0  0  0  0
   -7.3137   17.5553  -34.0365 H   0  0  0  0  0  0  0  0  0  0  0  0
   -5.7451   17.7960  -34.8707 H   0  0  0  0  0  0  0  0  0  0  0  0
   -1.0242   19.6499  -34.9349 H   0  0  0  0  0  0  0  0  0  0  0  0
   -2.4251   19.3699  -29.5526 H   0  0  0  0  0  0  0  0  0  0  0  0
  1  2  1  0
  2  3  1  0
  3  4  1  0
  4  5  2  0
  5  6  1  0
  6  7  2  0
  7  8  1  0
  8  9  1  0
  9 10  2  0
 10 11  1  0
 11 12  1  0
 12 13  1  0
 13 14  1  0
 14 15  1  0
 15 16  1  0
 16 17  1  0
 17 18  1  0
 18 19  1  0
 19 20  1  0
 20 21  2  0
 21 22  1  0
 22 23  2  0
 23 24  1  0
 24 25  1  0
 23 26  1  0
 26 27  2  0
 19 28  1  0
 28 29  1  0
 11 30  2  0
 30 31  1  0
  8 32  2  0
 32  4  1  0
 31  9  1  0
 29 16  1  0
 27 20  1  0
  1 33  1  0
  1 34  1  0
  1 35  1  0
  2 36  1  0
  2 37  1  0
  5 38  1  0
  6 39  1  0
  7 40  1  0
 10 41  1  0
 12 42  1  0
 12 43  1  0
 13 44  1  0
 14 45  1  0
 14 46  1  0
 15 47  1  0
 15 48  1  0
 17 49  1  0
 17 50  1  0
 18 51  1  0
 18 52  1  0
 21 53  1  0
 22 54  1  0
 25 55  1  0
 25 56  1  0
 25 57  1  0
 26 58  1  0
 27 59  1  0
 28 60  1  0
 28 61  1  0
 29 62  1  0
 29 63  1  0
 30 64  1  0
 32 65  1  0
M  CHG  1  10   1
M  END
>  <UniqueID>  (10) 
10

>  <SMILES>  (10) 
CCOc1cccc(-c2[nH+]c(CNCCN3CCN(c4ccc(OC)cc4)CC3)co2)c1

>  <Energy>  (10) 
107.08017850702343

>  <Genealogy>  (10) 
CCOc1cccc(-c2[nH+]c(CNCCN3CCN(c4ccc(OC)cc4)CC3)co2)c1 (protonated)
CCOc1cccc(-c2[nH+]c(CNCCN3CCN(c4ccc(OC)cc4)CC3)co2)c1 (3D coordinates assigned)
CCOc1cccc(-c2[nH+]c(CNCCN3CCN(c4ccc(OC)cc4)CC3)co2)c1 (nonaromatic ring conformer: 107.08017850702343 kcal/mol)

>  <smiles>  (10) 
CCOc1cccc(-c2nc(CNCCN3CCN(c4ccc(OC)cc4)CC3)co2)c1

>  <score_type>  (10) 
oracle

>  <origin>  (10) 
adg

>  <m_score__min__energy>  (10) 
-8.3599999999999994

>  <m_primary>  (10) 
energy

$$$$
10:0
     RDKit          3D

 50 54  0  0  0  0  0  0  0  0999 V2000
   -5.9090   20.5180  -31.2150 O   0  0  0  0  0  0  0  0  0  0  0  0
   -7.1240   20.6240  -31.5500 C   0  0  0  0  0  0  0  0  0  0  0  0
   -7.8990   21.6710  -31.0100 C   0  0  0  0  0  0  0  0  0  0  0  0
   -7.2890   22.6810  -30.0720 C   0  0  0  0  0  0  0  0  0  0  0  0
   -6.7840   23.8370  -30.8480 N   0  0  0  0  0  0  0  0  0  0  0  0
   -5.8870   24.7220  -30.0740 C   0  0  0  0  0  0  0  0  0  0  0  0
   -4.5310   24.0690  -29.7480 C   0  0  0  0  0  0  0  0  0  0  0  0
   -3.9910   23.2200  -30.8680 C   0  0  0  0  0  0  0  0  0  0  0  0
   -2.6870   22.7080  -30.7690 C   0  0  0  0  0  0  0  0  0  0  0  0
   -2.1770   21.8740  -31.7680 C   0  0  0  0  0  0  0  0  0  0  0  0
   -2.9630   21.5420  -32.8720 C   0  0  0  0  0  0  0  0  0  0  0  0
   -4.2660   22.0380  -32.9780 C   0  0  0  0  0  0  0  0  0  0  0  0
   -4.7960   22.8610  -31.9690 C   0  0  0  0  0  0  0  0  0  0  0  0
   -6.1760   23.4490  -32.1360 C   0  0  0  0  0  0  0  0  0  0  0  0
   -9.2300   21.8080  -31.4230 C   0  0  0  0  0  0  0  0  0  0  0  0
   -9.7670   20.9100  -32.3390 C   0  0  0  0  0  0  0  0  0  0  0  0
   -8.9750   19.8830  -32.8460 C   0  0  0  0  0  0  0  0  0  0  0  0
   -7.6760   19.7450  -32.4510 N   0  0  0  0  0  0  0  0  0  0  0  0
   -6.8850   18.6770  -33.0170 C   0  0  0  0  0  0  0  0  0  0  0  0
   -7.3350   17.3460  -32.9610 C   0  0  0  0  0  0  0  0  0  0  0  0
   -6.5540   16.3070  -33.4800 C   0  0  0  0  0  0  0  0  0  0  0  0
   -5.3250   16.5910  -34.0730 C   0  0  0  0  0  0  0  0  0  0  0  0
   -4.8680   17.9120  -34.1360 C   0  0  0  0  0  0  0  0  0  0  0  0
   -5.6470   18.9520  -33.6220 C   0  0  0  0  0  0  0  0  0  0  0  0
   -3.6220   18.1720  -34.7140 O   0  0  0  0  0  0  0  0  0  0  0  0
   -2.6920   17.1170  -34.9780 C   0  0  0  0  0  0  0  0  0  0  0  0
   -3.4280   15.8610  -35.4650 C   0  0  0  0  0  0  0  0  0  0  0  0
   -4.5370   15.5670  -34.6100 O   0  0  0  0  0  0  0  0  0  0  0  0
   -8.0515   23.0245  -29.3575 H   0  0  0  0  0  0  0  0  0  0  0  0
   -6.4557   22.2156  -29.5252 H   0  0  0  0  0  0  0  0  0  0  0  0
   -5.7045   25.6349  -30.6599 H   0  0  0  0  0  0  0  0  0  0  0  0
   -6.3852   24.9401  -29.1178 H   0  0  0  0  0  0  0  0  0  0  0  0
   -3.8035   24.8654  -29.5323 H   0  0  0  0  0  0  0  0  0  0  0  0
   -4.6895   23.4054  -28.8851 H   0  0  0  0  0  0  0  0  0  0  0  0
   -2.0633   22.9649  -29.9001 H   0  0  0  0  0  0  0  0  0  0  0  0
   -1.1540   21.4786  -31.6837 H   0  0  0  0  0  0  0  0  0  0  0  0
   -2.5574   20.8897  -33.6594 H   0  0  0  0  0  0  0  0  0  0  0  0
   -4.8792   21.7831  -33.8549 H   0  0  0  0  0  0  0  0  0  0  0  0
   -6.1044   24.3412  -32.7755 H   0  0  0  0  0  0  0  0  0  0  0  0
   -6.8159   22.6774  -32.5891 H   0  0  0  0  0  0  0  0  0  0  0  0
   -9.8496   22.6244  -31.0236 H   0  0  0  0  0  0  0  0  0  0  0  0
  -10.8137   21.0106  -32.6619 H   0  0  0  0  0  0  0  0  0  0  0  0
   -9.4009   19.1754  -33.5726 H   0  0  0  0  0  0  0  0  0  0  0  0
   -8.3100   17.1192  -32.5050 H   0  0  0  0  0  0  0  0  0  0  0  0
   -6.9096   15.2678  -33.4200 H   0  0  0  0  0  0  0  0  0  0  0  0
   -5.2896   19.9900  -33.6913 H   0  0  0  0  0  0  0  0  0  0  0  0
   -1.9833   17.4446  -35.7529 H   0  0  0  0  0  0  0  0  0  0  0  0
   -2.1539   16.8764  -34.0493 H   0  0  0  0  0  0  0  0  0  0  0  0
   -3.7946   16.0301  -36.4882 H   0  0  0  0  0  0  0  0  0  0  0  0
   -2.7304   15.0107  -35.4479 H   0  0  0  0  0  0  0  0  0  0  0  0
  1  2  2  0
  2  3  1  0
  3  4  1  0
  4  5  1  0
  5  6  1  0
  6  7  1  0
  7  8  1  0
  8  9  2  0
  9 10  1  0
 10 11  2  0
 11 12  1  0
 12 13  2  0
 13 14  1  0
  3 15  2  0
 15 16  1  0
 16 17  2  0
 17 18  1  0
 18 19  1  0
 19 20  2  0
 20 21  1  0
 21 22  2  0
 22 23  1  0
 23 24  2  0
 23 25  1  0
 25 26  1  0
 26 27  1  0
 27 28  1  0
 18  2  1  0
 24 19  1  0
 14  5  1  0
 28 22  1  0
 13  8  1  0
  4 29  1  0
  4 30  1  0
  6 31  1  0
  6 32  1  0
  7 33  1  0
  7 34  1  0
  9 35  1  0
 10 36  1  0
 11 37  1  0
 12 38  1  0
 14 39  1  0
 14 40  1  0
 15 41  1  0
 16 42  1  0
 17 43  1  0
 20 44  1  0
 21 45  1  0
 24 46  1  0
 26 47  1  0
 26 48  1  0
 27 49  1  0
 27 50  1  0
M  END
>  <UniqueID>  (11) 
11

>  <SMILES>  (11) 
O=c1c(CN2CCc3ccccc3C2)cccn1-c1ccc2c(c1)OCCO2

>  <Energy>  (11) 
72.55549305893126

>  <Genealogy>  (11) 
O=c1c(CN2CCc3ccccc3C2)cccn1-c1ccc2c(c1)OCCO2 (3D coordinates assigned)
O=c1c(CN2CCc3ccccc3C2)cccn1-c1ccc2c(c1)OCCO2 (nonaromatic ring conformer: 72.55549305893126 kcal/mol)

>  <smiles>  (11) 
O=c1c(CN2CCc3ccccc3C2)cccn1-c1ccc2c(c1)OCCO2

>  <score_type>  (11) 
oracle

>  <origin>  (11) 
adg

>  <m_score__min__energy>  (11) 
-9.2599999999999998

>  <m_primary>  (11) 
energy

$$$$
11:0
     RDKit          3D

 48 50  0  0  0  0  0  0  0  0999 V2000
   -2.5190   24.5650  -28.6140 C   0  0  0  0  0  0  0  0  0  0  0  0
   -3.1900   25.0800  -29.7600 O   0  0  0  0  0  0  0  0  0  0  0  0
   -4.4570   24.6600  -30.1960 C   0  0  0  0  0  0  0  0  0  0  0  0
   -5.6420   25.2820  -29.7590 C   0  0  0  0  0  0  0  0  0  0  0  0
   -6.8830   24.8350  -30.2130 C   0  0  0  0  0  0  0  0  0  0  0  0
   -6.9660   23.7630  -31.1100 C   0  0  0  0  0  0  0  0  0  0  0  0
   -8.3100   23.3070  -31.6140 C   0  0  0  0  0  0  0  0  0  0  0  0
   -8.2700   21.8780  -31.9500 N   0  0  0  0  0  0  0  0  0  0  0  0
   -8.8020   21.0550  -30.8540 C   0  0  0  0  0  0  0  0  0  0  0  0
   -8.7450   19.5720  -31.2290 C   0  0  0  0  0  0  0  0  0  0  0  0
   -8.5020   19.3760  -32.7280 C   0  0  0  0  0  0  0  0  0  0  0  0
   -7.0710   19.2470  -32.9910 N   0  0  0  0  0  0  0  0  0  0  0  0
   -6.2000   20.2490  -32.9470 N   0  0  0  0  0  0  0  0  0  0  0  0
   -5.0100   19.7360  -33.3220 C   0  0  0  0  0  0  0  0  0  0  0  0
   -3.7960   20.4090  -33.4290 C   0  0  0  0  0  0  0  0  0  0  0  0
   -2.6810   19.6610  -33.8510 C   0  0  0  0  0  0  0  0  0  0  0  0
   -2.8100   18.2890  -34.1520 C   0  0  0  0  0  0  0  0  0  0  0  0
   -4.0630   17.6680  -34.0270 C   0  0  0  0  0  0  0  0  0  0  0  0
   -5.1070   18.4280  -33.6140 N   0  0  0  0  0  0  0  0  0  0  0  0
   -6.4050   18.1460  -33.4050 C   0  0  0  0  0  0  0  0  0  0  0  0
   -6.9290   17.0140  -33.5840 O   0  0  0  0  0  0  0  0  0  0  0  0
   -5.7870   23.1420  -31.5520 C   0  0  0  0  0  0  0  0  0  0  0  0
   -4.5300   23.5850  -31.0970 C   0  0  0  0  0  0  0  0  0  0  0  0
   -3.3320   22.9870  -31.5180 O   0  0  0  0  0  0  0  0  0  0  0  0
   -2.6130   22.0090  -30.7730 C   0  0  0  0  0  0  0  0  0  0  0  0
   -3.0082   24.9405  -27.7031 H   0  0  0  0  0  0  0  0  0  0  0  0
   -2.5621   23.4659  -28.6269 H   0  0  0  0  0  0  0  0  0  0  0  0
   -1.4685   24.8909  -28.6269 H   0  0  0  0  0  0  0  0  0  0  0  0
   -5.5890   26.1257  -29.0552 H   0  0  0  0  0  0  0  0  0  0  0  0
   -7.8024   25.3279  -29.8640 H   0  0  0  0  0  0  0  0  0  0  0  0
   -9.0665   23.4752  -30.8334 H   0  0  0  0  0  0  0  0  0  0  0  0
   -8.5668   23.8800  -32.5172 H   0  0  0  0  0  0  0  0  0  0  0  0
   -8.8810   21.7290  -32.7860 H   0  0  0  0  0  0  0  0  0  0  0  0
   -8.2009   21.2239  -29.9483 H   0  0  0  0  0  0  0  0  0  0  0  0
   -9.8488   21.3379  -30.6690 H   0  0  0  0  0  0  0  0  0  0  0  0
   -7.9272   19.0940  -30.6698 H   0  0  0  0  0  0  0  0  0  0  0  0
   -9.7140   19.1168  -30.9762 H   0  0  0  0  0  0  0  0  0  0  0  0
   -9.0175   18.4643  -33.0641 H   0  0  0  0  0  0  0  0  0  0  0  0
   -8.8915   20.2483  -33.2733 H   0  0  0  0  0  0  0  0  0  0  0  0
   -6.4160   21.2360  -32.6840 H   0  0  0  0  0  0  0  0  0  0  0  0
   -3.7118   21.4802  -33.1936 H   0  0  0  0  0  0  0  0  0  0  0  0
   -1.7006   20.1505  -33.9469 H   0  0  0  0  0  0  0  0  0  0  0  0
   -1.9352   17.7097  -34.4823 H   0  0  0  0  0  0  0  0  0  0  0  0
   -4.1933   16.6001  -34.2566 H   0  0  0  0  0  0  0  0  0  0  0  0
   -5.8456   22.3021  -32.2599 H   0  0  0  0  0  0  0  0  0  0  0  0
   -2.7492   22.1943  -29.6973 H   0  0  0  0  0  0  0  0  0  0  0  0
   -2.9909   21.0067  -31.0231 H   0  0  0  0  0  0  0  0  0  0  0  0
   -1.5436   22.0707  -31.0231 H   0  0  0  0  0  0  0  0  0  0  0  0
  1  2  1  0
  2  3  1  0
  3  4  2  0
  4  5  1  0
  5  6  2  0
  6  7  1  0
  7  8  1  0
  8  9  1  0
  9 10  1  0
 10 11  1  0
 11 12  1  0
 12 13  1  0
 13 14  2  0
 14 15  1  0
 15 16  2  0
 16 17  1  0
 17 18  2  0
 18 19  1  0
 19 20  1  0
 20 21  2  0
  6 22  1  0
 22 23  2  0
 23 24  1  0
 24 25  1  0
 23  3  1  0
 20 12  1  0
 19 14  1  0
  1 26  1  0
  1 27  1  0
  1 28  1  0
  4 29  1  0
  5 30  1  0
  7 31  1  0
  7 32  1  0
  8 33  1  0
  9 34  1  0
  9 35  1  0
 10 36  1  0
 10 37  1  0
 11 38  1  0
 11 39  1  0
 13 40  1  0
 15 41  1  0
 16 42  1  0
 17 43  1  0
 18 44  1  0
 22 45  1  0
 25 46  1  0
 25 47  1  0
 25 48  1  0
M  CHG  1  13   1
M  END
>  <UniqueID>  (12) 
12

>  <SMILES>  (12) 
COc1ccc(CNCCCn2[nH+]c3ccccn3c2=O)cc1OC

>  <Energy>  (12) 
87.32989009878644

>  <Genealogy>  (12) 
COc1ccc(CNCCCn2[nH+]c3ccccn3c2=O)cc1OC (protonated)
COc1ccc(CNCCCn2[nH+]c3ccccn3c2=O)cc1OC (3D coordinates assigned)
COc1ccc(CNCCCn2[nH+]c3ccccn3c2=O)cc1OC (optimized conformer: 87.32989009878644 kcal/mol)

>  <smiles>  (12) 
COc1ccc(CNCCCn2nc3ccccn3c2=O)cc1OC

>  <score_type>  (12) 
oracle

>  <origin>  (12) 
adg

>  <m_score__min__energy>  (12) 
-8.0999999999999996

>  <m_primary>  (12) 
energy

$$$$
12:0
     RDKit          3D

 59 63  0  0  0  0  0  0  0  0999 V2000
   -1.2070   27.3680  -24.8370 C   0  0  0  0  0  0  0  0  0  0  0  0
   -0.2720   26.2490  -24.9250 N   0  0  0  0  0  0  0  0  0  0  0  0
    0.8350   26.1100  -24.1690 C   0  0  0  0  0  0  0  0  0  0  0  0
    1.4620   24.9170  -24.4620 C   0  0  0  0  0  0  0  0  0  0  0  0
    0.7080   24.3040  -25.4420 C   0  0  0  0  0  0  0  0  0  0  0  0
   -0.3440   25.1570  -25.7230 C   0  0  0  0  0  0  0  0  0  0  0  0
   -1.3980   24.8700  -26.7180 C   0  0  0  0  0  0  0  0  0  0  0  0
   -2.7510   24.8020  -26.3560 C   0  0  0  0  0  0  0  0  0  0  0  0
   -3.7130   24.5470  -27.3350 C   0  0  0  0  0  0  0  0  0  0  0  0
   -3.3290   24.3770  -28.6720 C   0  0  0  0  0  0  0  0  0  0  0  0
   -4.3320   24.1040  -29.7210 C   0  0  0  0  0  0  0  0  0  0  0  0
   -5.3120   23.1860  -29.6110 N   0  0  0  0  0  0  0  0  0  0  0  0
   -5.9380   23.3150  -30.8020 C   0  0  0  0  0  0  0  0  0  0  0  0
   -7.1070   22.5070  -31.2070 C   0  0  0  0  0  0  0  0  0  0  0  0
   -8.3130   23.1320  -31.5720 C   0  0  0  0  0  0  0  0  0  0  0  0
   -9.4120   22.3670  -31.9750 C   0  0  0  0  0  0  0  0  0  0  0  0
   -9.3210   20.9740  -32.0140 C   0  0  0  0  0  0  0  0  0  0  0  0
   -8.1320   20.3320  -31.6380 C   0  0  0  0  0  0  0  0  0  0  0  0
   -8.0210   18.8330  -31.7150 C   0  0  0  0  0  0  0  0  0  0  0  0
   -6.6840   18.4250  -32.3490 C   0  0  0  0  0  0  0  0  0  0  0  0
   -6.4410   19.1460  -33.6810 C   0  0  0  0  0  0  0  0  0  0  0  0
   -5.0130   19.4960  -33.8430 N   0  0  0  0  0  0  0  0  0  0  0  0
   -4.1460   18.4030  -33.3580 C   0  0  0  0  0  0  0  0  0  0  0  0
   -2.6730   18.8530  -33.2800 C   0  0  0  0  0  0  0  0  0  0  0  0
   -2.4760   20.0560  -33.9990 O   0  0  0  0  0  0  0  0  0  0  0  0
   -3.1940   21.1080  -33.3770 C   0  0  0  0  0  0  0  0  0  0  0  0
   -4.6770   20.7500  -33.1410 C   0  0  0  0  0  0  0  0  0  0  0  0
   -7.0250   21.1040  -31.2460 C   0  0  0  0  0  0  0  0  0  0  0  0
   -5.3650   24.2550  -31.5800 N   0  0  0  0  0  0  0  0  0  0  0  0
   -4.3780   24.7180  -30.8780 O   0  0  0  0  0  0  0  0  0  0  0  0
   -1.9700   24.4790  -28.9970 C   0  0  0  0  0  0  0  0  0  0  0  0
   -1.0510   24.7240  -28.0270 N   0  0  0  0  0  0  0  0  0  0  0  0
   -1.4016   27.6009  -23.7797 H   0  0  0  0  0  0  0  0  0  0  0  0
   -0.7725   28.2487  -25.3325 H   0  0  0  0  0  0  0  0  0  0  0  0
   -2.1509   27.0969  -25.3325 H   0  0  0  0  0  0  0  0  0  0  0  0
    1.1871   26.8413  -23.4266 H   0  0  0  0  0  0  0  0  0  0  0  0
    2.3838   24.5294  -24.0037 H   0  0  0  0  0  0  0  0  0  0  0  0
    0.9052   23.3276  -25.9086 H   0  0  0  0  0  0  0  0  0  0  0  0
   -3.0522   24.9485  -25.3082 H   0  0  0  0  0  0  0  0  0  0  0  0
   -4.7750   24.4794  -27.0563 H   0  0  0  0  0  0  0  0  0  0  0  0
   -8.3921   24.2287  -31.5403 H   0  0  0  0  0  0  0  0  0  0  0  0
  -10.3506   22.8637  -32.2620 H   0  0  0  0  0  0  0  0  0  0  0  0
  -10.1856   20.3777  -32.3410 H   0  0  0  0  0  0  0  0  0  0  0  0
   -8.0837   18.4127  -30.7004 H   0  0  0  0  0  0  0  0  0  0  0  0
   -8.8422   18.4469  -32.3367 H   0  0  0  0  0  0  0  0  0  0  0  0
   -5.8691   18.6766  -31.6542 H   0  0  0  0  0  0  0  0  0  0  0  0
   -6.7156   17.3434  -32.5467 H   0  0  0  0  0  0  0  0  0  0  0  0
   -6.7455   18.4869  -34.5073 H   0  0  0  0  0  0  0  0  0  0  0  0
   -7.0318   20.0738  -33.6895 H   0  0  0  0  0  0  0  0  0  0  0  0
   -4.4812   18.0967  -32.3561 H   0  0  0  0  0  0  0  0  0  0  0  0
   -4.2167   17.5626  -34.0642 H   0  0  0  0  0  0  0  0  0  0  0  0
   -2.4004   19.0138  -32.2265 H   0  0  0  0  0  0  0  0  0  0  0  0
   -2.0411   18.0696  -33.7239 H   0  0  0  0  0  0  0  0  0  0  0  0
   -2.7256   21.3299  -32.4068 H   0  0  0  0  0  0  0  0  0  0  0  0
   -3.1622   21.9785  -34.0488 H   0  0  0  0  0  0  0  0  0  0  0  0
   -4.8534   20.6221  -32.0628 H   0  0  0  0  0  0  0  0  0  0  0  0
   -5.3099   21.5614  -33.5297 H   0  0  0  0  0  0  0  0  0  0  0  0
   -6.0850   20.6056  -30.9669 H   0  0  0  0  0  0  0  0  0  0  0  0
   -1.6459   24.3603  -30.0415 H   0  0  0  0  0  0  0  0  0  0  0  0
  1  2  1  0
  2  3  1  0
  3  4  2  0
  4  5  1  0
  5  6  2  0
  6  7  1  0
  7  8  2  0
  8  9  1  0
  9 10  2  0
 10 11  1  0
 11 12  2  0
 12 13  1  0
 13 14  1  0
 14 15  2  0
 15 16  1  0
 16 17  2  0
 17 18  1  0
 18 19  1  0
 19 20  1  0
 20 21  1  0
 21 22  1  0
 22 23  1  0
 23 24  1  0
 24 25  1  0
 25 26  1  0
 26 27  1  0
 18 28  2  0
 13 29  2  0
 29 30  1  0
 10 31  1  0
 31 32  2  0
  6  2  1  0
 32  7  1  0
 30 11  1  0
 28 14  1  0
 27 22  1  0
  1 33  1  0
  1 34  1  0
  1 35  1  0
  3 36  1  0
  4 37  1  0
  5 38  1  0
  8 39  1  0
  9 40  1  0
 15 41  1  0
 16 42  1  0
 17 43  1  0
 19 44  1  0
 19 45  1  0
 20 46  1  0
 20 47  1  0
 21 48  1  0
 21 49  1  0
 23 50  1  0
 23 51  1  0
 24 52  1  0
 24 53  1  0
 26 54  1  0
 26 55  1  0
 27 56  1  0
 27 57  1  0
 28 58  1  0
 31 59  1  0
M  END
>  <UniqueID>  (13) 
13

>  <SMILES>  (13) 
Cn1cccc1-c1ccc(-c2nc(-c3cccc(CCCN4CCOCC4)c3)no2)cn1

>  <Energy>  (13) 
133.4216860354339

>  <Genealogy>  (13) 
Cn1cccc1-c1ccc(-c2nc(-c3cccc(CCCN4CCOCC4)c3)no2)cn1 (3D coordinates assigned)
Cn1cccc1-c1ccc(-c2nc(-c3cccc(CCCN4CCOCC4)c3)no2)cn1 (nonaromatic ring conformer: 133.4216860354339 kcal/mol)

>  <smiles>  (13) 
Cn1cccc1-c1ccc(-c2nc(-c3cccc(CCCN4CCOCC4)c3)no2)cn1

>  <score_type>  (13) 
oracle

>  <origin>  (13) 
adg

>  <m_score__min__energy>  (13) 
-10.619999999999999

>  <m_primary>  (13) 
energy

$$$$
13:0
     RDKit          3D

 48 50  0  0  0  0  0  0  0  0999 V2000
   -7.3370   17.8200  -32.9970 C   0  0  0  0  0  0  0  0  0  0  0  0
   -7.7610   18.3870  -31.6460 C   0  0  0  0  0  0  0  0  0  0  0  0
   -9.0880   19.1470  -31.7560 C   0  0  0  0  0  0  0  0  0  0  0  0
   -8.9750   20.4050  -32.6250 C   0  0  0  0  0  0  0  0  0  0  0  0
   -8.9610   21.5860  -31.8230 O   0  0  0  0  0  0  0  0  0  0  0  0
   -7.7940   22.2560  -31.4350 C   0  0  0  0  0  0  0  0  0  0  0  0
   -7.1970   23.1550  -32.3210 C   0  0  0  0  0  0  0  0  0  0  0  0
   -6.0310   23.8220  -31.9420 C   0  0  0  0  0  0  0  0  0  0  0  0
   -5.4590   23.5860  -30.6790 C   0  0  0  0  0  0  0  0  0  0  0  0
   -4.2260   24.2910  -30.2470 C   0  0  0  0  0  0  0  0  0  0  0  0
   -3.8650   25.3340  -30.8580 O   0  0  0  0  0  0  0  0  0  0  0  0
   -3.4130   23.8190  -29.1010 C   0  0  0  0  0  0  0  0  0  0  0  0
   -3.6790   24.3370  -27.8200 C   0  0  0  0  0  0  0  0  0  0  0  0
   -2.8980   23.9650  -26.7260 C   0  0  0  0  0  0  0  0  0  0  0  0
   -1.8380   23.0760  -26.8950 C   0  0  0  0  0  0  0  0  0  0  0  0
   -1.5570   22.5520  -28.1570 C   0  0  0  0  0  0  0  0  0  0  0  0
   -2.3320   22.9170  -29.2730 C   0  0  0  0  0  0  0  0  0  0  0  0
   -2.0430   22.2850  -30.5840 C   0  0  0  0  0  0  0  0  0  0  0  0
   -0.8770   22.3770  -31.0560 O   0  0  0  0  0  0  0  0  0  0  0  0
   -3.0880   21.5720  -31.3610 C   0  0  0  0  0  0  0  0  0  0  0  0
   -3.8430   20.5350  -30.7800 C   0  0  0  0  0  0  0  0  0  0  0  0
   -4.8170   19.8650  -31.5270 C   0  0  0  0  0  0  0  0  0  0  0  0
   -5.0430   20.2150  -32.8590 C   0  0  0  0  0  0  0  0  0  0  0  0
   -4.2920   21.2330  -33.4500 C   0  0  0  0  0  0  0  0  0  0  0  0
   -3.3170   21.9070  -32.7080 C   0  0  0  0  0  0  0  0  0  0  0  0
   -6.1040   22.6850  -29.8160 C   0  0  0  0  0  0  0  0  0  0  0  0
   -7.2380   22.0480  -30.2100 N   0  0  0  0  0  0  0  0  0  0  0  0
   -6.6850   16.9480  -32.8404 H   0  0  0  0  0  0  0  0  0  0  0  0
   -8.2294   17.5137  -33.5625 H   0  0  0  0  0  0  0  0  0  0  0  0
   -6.7909   18.5894  -33.5625 H   0  0  0  0  0  0  0  0  0  0  0  0
   -7.8795   17.5597  -30.9308 H   0  0  0  0  0  0  0  0  0  0  0  0
   -6.9854   19.0877  -31.3032 H   0  0  0  0  0  0  0  0  0  0  0  0
   -9.8412   18.4789  -32.1991 H   0  0  0  0  0  0  0  0  0  0  0  0
   -9.3751   19.4657  -30.7431 H   0  0  0  0  0  0  0  0  0  0  0  0
   -8.0435   20.3560  -33.2081 H   0  0  0  0  0  0  0  0  0  0  0  0
   -9.8482   20.4472  -33.2926 H   0  0  0  0  0  0  0  0  0  0  0  0
   -7.6423   23.3362  -33.3104 H   0  0  0  0  0  0  0  0  0  0  0  0
   -5.5578   24.5347  -32.6335 H   0  0  0  0  0  0  0  0  0  0  0  0
   -4.5113   25.0425  -27.6800 H   0  0  0  0  0  0  0  0  0  0  0  0
   -3.1188   24.3736  -25.7289 H   0  0  0  0  0  0  0  0  0  0  0  0
   -1.2214   22.7868  -26.0312 H   0  0  0  0  0  0  0  0  0  0  0  0
   -0.7218   21.8469  -28.2807 H   0  0  0  0  0  0  0  0  0  0  0  0
   -3.6656   20.2503  -29.7324 H   0  0  0  0  0  0  0  0  0  0  0  0
   -5.4065   19.0601  -31.0636 H   0  0  0  0  0  0  0  0  0  0  0  0
   -5.8125   19.6890  -33.4431 H   0  0  0  0  0  0  0  0  0  0  0  0
   -4.4676   21.5053  -34.5012 H   0  0  0  0  0  0  0  0  0  0  0  0
   -2.7251   22.7046  -33.1808 H   0  0  0  0  0  0  0  0  0  0  0  0
   -5.6889   22.4938  -28.8154 H   0  0  0  0  0  0  0  0  0  0  0  0
  1  2  1  0
  2  3  1  0
  3  4  1  0
  4  5  1  0
  5  6  1  0
  6  7  2  0
  7  8  1  0
  8  9  2  0
  9 10  1  0
 10 11  2  0
 10 12  1  0
 12 13  2  0
 13 14  1  0
 14 15  2  0
 15 16  1  0
 16 17  2  0
 17 18  1  0
 18 19  2  0
 18 20  1  0
 20 21  2  0
 21 22  1  0
 22 23  2  0
 23 24  1  0
 24 25  2  0
  9 26  1  0
 26 27  2  0
 27  6  1  0
 17 12  1  0
 25 20  1  0
  1 28  1  0
  1 29  1  0
  1 30  1  0
  2 31  1  0
  2 32  1  0
  3 33  1  0
  3 34  1  0
  4 35  1  0
  4 36  1  0
  7 37  1  0
  8 38  1  0
 13 39  1  0
 14 40  1  0
 15 41  1  0
 16 42  1  0
 21 43  1  0
 22 44  1  0
 23 45  1  0
 24 46  1  0
 25 47  1  0
 26 48  1  0
M  END
>  <UniqueID>  (14) 
14

>  <SMILES>  (14) 
CCCCOc1ccc(C(=O)c2ccccc2C(=O)c2ccccc2)cn1

>  <Energy>  (14) 
59.39236219451206

>  <Genealogy>  (14) 
CCCCOc1ccc(C(=O)c2ccccc2C(=O)c2ccccc2)cn1 (3D coordinates assigned)
CCCCOc1ccc(C(=O)c2ccccc2C(=O)c2ccccc2)cn1 (optimized conformer: 59.39236219451206 kcal/mol)

>  <smiles>  (14) 
CCCCOc1ccc(C(=O)c2ccccc2C(=O)c2ccccc2)cn1

>  <score_type>  (14) 
oracle

>  <origin>  (14) 
adg

>  <m_score__min__energy>  (14) 
-9.4700000000000006

>  <m_primary>  (14) 
energy

$$$$
14:0
     RDKit          3D

 40 42  0  0  0  0  0  0  0  0999 V2000
   -0.9930   26.1890  -29.6190 H   0  0  0  0  0  0  0  0  0  0  0  0
   -1.6280   25.6730  -28.9690 N   0  0  0  0  0  0  0  0  0  0  0  0
   -2.5180   24.8430  -29.4090 C   0  0  0  0  0  0  0  0  0  0  0  0
   -3.5720   25.2980  -30.1430 N   0  0  0  0  0  0  0  0  0  0  0  0
   -4.5280   24.4560  -30.6210 C   0  0  0  0  0  0  0  0  0  0  0  0
   -5.3680   24.8542  -31.2091 H   0  0  0  0  0  0  0  0  0  0  0  0
   -4.4420   23.0830  -30.3640 C   0  0  0  0  0  0  0  0  0  0  0  0
   -5.4490   22.1880  -30.8680 C   0  0  0  0  0  0  0  0  0  0  0  0
   -6.3010   21.4480  -31.2910 C   0  0  0  0  0  0  0  0  0  0  0  0
   -7.3110   20.5570  -31.8170 C   0  0  0  0  0  0  0  0  0  0  0  0
   -8.6710   20.7610  -31.5160 C   0  0  0  0  0  0  0  0  0  0  0  0
   -9.1280   21.9270  -30.6860 C   0  0  0  0  0  0  0  0  0  0  0  0
   -9.0305   21.6781  -29.6190 H   0  0  0  0  0  0  0  0  0  0  0  0
   -8.5079   22.8060  -30.9157 H   0  0  0  0  0  0  0  0  0  0  0  0
  -10.1803   22.1505  -30.9157 H   0  0  0  0  0  0  0  0  0  0  0  0
   -9.5970   19.8790  -31.9710 N   0  0  0  0  0  0  0  0  0  0  0  0
   -9.2420   18.8000  -32.7120 C   0  0  0  0  0  0  0  0  0  0  0  0
  -10.0130   18.0998  -33.0659 H   0  0  0  0  0  0  0  0  0  0  0  0
   -7.9380   18.5820  -33.0180 N   0  0  0  0  0  0  0  0  0  0  0  0
   -7.6950   17.7460  -33.5980 H   0  0  0  0  0  0  0  0  0  0  0  0
   -6.9600   19.4350  -32.6010 C   0  0  0  0  0  0  0  0  0  0  0  0
   -5.5500   19.1490  -32.9680 C   0  0  0  0  0  0  0  0  0  0  0  0
   -5.0430   17.8480  -32.8410 C   0  0  0  0  0  0  0  0  0  0  0  0
   -5.6930   17.0419  -32.4699 H   0  0  0  0  0  0  0  0  0  0  0  0
   -3.7170   17.5690  -33.1830 C   0  0  0  0  0  0  0  0  0  0  0  0
   -3.3271   16.5463  -33.0733 H   0  0  0  0  0  0  0  0  0  0  0  0
   -2.8780   18.5900  -33.6670 C   0  0  0  0  0  0  0  0  0  0  0  0
   -1.5390   18.3610  -34.0200 O   0  0  0  0  0  0  0  0  0  0  0  0
   -1.0960   17.2790  -34.8320 C   0  0  0  0  0  0  0  0  0  0  0  0
   -0.7577   16.4528  -34.1893 H   0  0  0  0  0  0  0  0  0  0  0  0
   -1.9251   16.9337  -35.4671 H   0  0  0  0  0  0  0  0  0  0  0  0
   -0.2628   17.6143  -35.4671 H   0  0  0  0  0  0  0  0  0  0  0  0
   -3.3910   19.8850  -33.8070 C   0  0  0  0  0  0  0  0  0  0  0  0
   -2.7444   20.6897  -34.1870 H   0  0  0  0  0  0  0  0  0  0  0  0
   -4.7180   20.1640  -33.4680 C   0  0  0  0  0  0  0  0  0  0  0  0
   -5.1125   21.1832  -33.5934 H   0  0  0  0  0  0  0  0  0  0  0  0
   -3.3690   22.5950  -29.6130 C   0  0  0  0  0  0  0  0  0  0  0  0
   -3.2884   21.5185  -29.4015 H   0  0  0  0  0  0  0  0  0  0  0  0
   -2.4000   23.4770  -29.1320 C   0  0  0  0  0  0  0  0  0  0  0  0
   -1.5518   23.1015  -28.5408 H   0  0  0  0  0  0  0  0  0  0  0  0
  1  2  1  0
  2  3  2  0
  3  4  1  0
  4  5  1  0
  5  6  1  0
  5  7  2  0
  7  8  1  0
  8  9  3  0
  9 10  1  0
 10 11  2  0
 11 12  1  0
 12 13  1  0
 12 14  1  0
 12 15  1  0
 11 16  1  0
 16 17  2  0
 17 18  1  0
 17 19  1  0
 19 20  1  0
 19 21  2  0
 21 22  1  0
 22 23  2  0
 23 24  1  0
 23 25  1  0
 25 26  1  0
 25 27  2  0
 27 28  1  0
 28 29  1  0
 29 30  1  0
 29 31  1  0
 29 32  1  0
 27 33  1  0
 33 34  1  0
 33 35  2  0
 35 36  1  0
  7 37  1  0
 37 38  1  0
 37 39  2  0
 39 40  1  0
 39  3  1  0
 21 10  1  0
 35 22  1  0
M  CHG  2   4  -1  19   1
M  END
>  <UniqueID>  (15) 
15

>  <SMILES>  (15) 
[H]/N=c1/ccc(C#Cc2c(C)nc[nH+]c2-c2ccc(OC)cc2)c[n-]1

>  <Energy>  (15) 
45.38792952327931

>  <Genealogy>  (15) 
COc1ccc(-c2[nH+]cnc(C)c2C#Cc2ccc(=N)[n-]c2)cc1 (protonated)
[H]/N=c1/ccc(C#Cc2c(C)nc[nH+]c2-c2ccc(OC)cc2)c[n-]1 (cis-trans isomerization)
[H]/N=c1/ccc(C#Cc2c(C)nc[nH+]c2-c2ccc(OC)cc2)c[n-]1 (3D coordinates assigned)
[H]/N=c1/ccc(C#Cc2c(C)nc[nH+]c2-c2ccc(OC)cc2)c[n-]1 (optimized conformer: 45.38792952327931 kcal/mol)

>  <smiles>  (15) 
COc1ccc(-c2ncnc(C)c2C#Cc2ccc(=N)[nH]c2)cc1

>  <score_type>  (15) 
oracle

>  <origin>  (15) 
adg

>  <m_score__min__energy>  (15) 
-8.7599999999999998

>  <m_primary>  (15) 
energy

$$$$
15:0
     RDKit          3D

 47 49  0  0  0  0  0  0  0  0999 V2000
   -1.0960   25.0970  -27.5510 C   0  0  0  0  0  0  0  0  0  0  0  0
   -2.0310   24.2820  -28.3950 C   0  0  0  0  0  0  0  0  0  0  0  0
   -2.1440   22.9030  -28.1910 C   0  0  0  0  0  0  0  0  0  0  0  0
   -3.0350   22.1290  -28.9550 C   0  0  0  0  0  0  0  0  0  0  0  0
   -3.0970   20.6440  -28.7050 C   0  0  0  0  0  0  0  0  0  0  0  0
   -3.8380   22.7600  -29.9430 C   0  0  0  0  0  0  0  0  0  0  0  0
   -3.7650   24.1640  -30.0930 C   0  0  0  0  0  0  0  0  0  0  0  0
   -2.8570   24.9080  -29.3330 C   0  0  0  0  0  0  0  0  0  0  0  0
   -4.6390   24.8510  -31.0020 N   0  0  0  0  0  0  0  0  0  0  0  0
   -6.1000   24.7920  -30.8820 C   0  0  0  0  0  0  0  0  0  0  0  0
   -6.5880   23.5220  -30.1790 C   0  0  0  0  0  0  0  0  0  0  0  0
   -6.1300   22.3220  -30.9040 N   0  0  0  0  0  0  0  0  0  0  0  0
   -7.0760   21.5830  -31.7220 C   0  0  0  0  0  0  0  0  0  0  0  0
   -8.1670   22.1270  -32.0550 O   0  0  0  0  0  0  0  0  0  0  0  0
   -6.8450   20.1340  -32.1240 C   0  0  0  0  0  0  0  0  0  0  0  0
   -5.9510   20.0230  -33.3970 C   0  0  0  0  0  0  0  0  0  0  0  0
   -6.1540   18.7450  -34.2360 C   0  0  0  0  0  0  0  0  0  0  0  0
   -6.6680   17.3590  -33.2410 S   0  0  0  0  0  0  0  0  0  0  0  0
   -5.5300   16.9180  -32.3610 O   0  0  0  0  0  0  0  0  0  0  0  0
   -7.0870   16.2190  -34.1260 O   0  0  0  0  0  0  0  0  0  0  0  0
   -8.0450   17.8910  -32.2330 C   0  0  0  0  0  0  0  0  0  0  0  0
   -8.2030   19.4170  -32.2860 C   0  0  0  0  0  0  0  0  0  0  0  0
   -4.6940   21.9630  -30.9220 C   0  0  0  0  0  0  0  0  0  0  0  0
   -1.3073   24.9128  -26.4873 H   0  0  0  0  0  0  0  0  0  0  0  0
   -0.0574   24.8108  -27.7734 H   0  0  0  0  0  0  0  0  0  0  0  0
   -1.2377   26.1649  -27.7734 H   0  0  0  0  0  0  0  0  0  0  0  0
   -1.5266   22.4167  -27.4214 H   0  0  0  0  0  0  0  0  0  0  0  0
   -3.1049   20.4546  -27.6215 H   0  0  0  0  0  0  0  0  0  0  0  0
   -4.0130   20.2343  -29.1555 H   0  0  0  0  0  0  0  0  0  0  0  0
   -2.2183   20.1593  -29.1555 H   0  0  0  0  0  0  0  0  0  0  0  0
   -2.7921   25.9969  -29.4748 H   0  0  0  0  0  0  0  0  0  0  0  0
   -4.2520   25.6720  -31.5190 H   0  0  0  0  0  0  0  0  0  0  0  0
   -6.4407   25.6652  -30.3062 H   0  0  0  0  0  0  0  0  0  0  0  0
   -6.5155   24.7867  -31.9005 H   0  0  0  0  0  0  0  0  0  0  0  0
   -6.1895   23.4997  -29.1540 H   0  0  0  0  0  0  0  0  0  0  0  0
   -7.6878   23.5270  -30.1582 H   0  0  0  0  0  0  0  0  0  0  0  0
   -6.2870   19.6260  -31.3236 H   0  0  0  0  0  0  0  0  0  0  0  0
   -6.1662   20.8892  -34.0399 H   0  0  0  0  0  0  0  0  0  0  0  0
   -4.9122   19.9884  -33.0369 H   0  0  0  0  0  0  0  0  0  0  0  0
   -6.9243   18.9396  -34.9967 H   0  0  0  0  0  0  0  0  0  0  0  0
   -5.1894   18.4886  -34.6984 H   0  0  0  0  0  0  0  0  0  0  0  0
   -8.9670   17.4200  -32.6047 H   0  0  0  0  0  0  0  0  0  0  0  0
   -7.8551   17.5925  -31.1914 H   0  0  0  0  0  0  0  0  0  0  0  0
   -8.6415   19.6972  -33.2551 H   0  0  0  0  0  0  0  0  0  0  0  0
   -8.8562   19.7247  -31.4562 H   0  0  0  0  0  0  0  0  0  0  0  0
   -4.6020   20.8959  -30.6712 H   0  0  0  0  0  0  0  0  0  0  0  0
   -4.3222   22.1974  -31.9304 H   0  0  0  0  0  0  0  0  0  0  0  0
  1  2  1  0
  2  3  2  0
  3  4  1  0
  4  5  1  0
  4  6  2  0
  6  7  1  0
  7  8  2  0
  7  9  1  0
  9 10  1  0
 10 11  1  0
 11 12  1  0
 12 13  1  0
 13 14  2  0
 13 15  1  0
 15 16  1  0
 16 17  1  0
 17 18  1  0
 18 19  2  0
 18 20  2  0
 18 21  1  0
 21 22  1  0
 12 23  1  0
  8  2  1  0
 22 15  1  0
 23  6  1  0
  1 24  1  0
  1 25  1  0
  1 26  1  0
  3 27  1  0
  5 28  1  0
  5 29  1  0
  5 30  1  0
  8 31  1  0
  9 32  1  0
 10 33  1  0
 10 34  1  0
 11 35  1  0
 11 36  1  0
 15 37  1  0
 16 38  1  0
 16 39  1  0
 17 40  1  0
 17 41  1  0
 21 42  1  0
 21 43  1  0
 22 44  1  0
 22 45  1  0
 23 46  1  0
 23 47  1  0
M  END
>  <UniqueID>  (16) 
16

>  <SMILES>  (16) 
Cc1cc(C)c2c(c1)NCCN(C(=O)C1CCS(=O)(=O)CC1)C2

>  <Energy>  (16) 
58.67976630677962

>  <Genealogy>  (16) 
Cc1cc(C)c2c(c1)NCCN(C(=O)C1CCS(=O)(=O)CC1)C2 (3D coordinates assigned)
Cc1cc(C)c2c(c1)NCCN(C(=O)C1CCS(=O)(=O)CC1)C2 (nonaromatic ring conformer: 58.67976630677962 kcal/mol)

>  <smiles>  (16) 
Cc1cc(C)c2c(c1)NCCN(C(=O)C1CCS(=O)(=O)CC1)C2

>  <score_type>  (16) 
oracle

>  <origin>  (16) 
adg

>  <m_score__min__energy>  (16) 
-6.9400000000000004

>  <m_primary>  (16) 
energy

$$$$
16:0
     RDKit          3D

 58 60  0  0  0  0  0  0  0  0999 V2000
   -5.6510   25.7050  -30.0660 C   0  0  0  0  0  0  0  0  0  0  0  0
   -4.8900   24.8170  -30.8810 O   0  0  0  0  0  0  0  0  0  0  0  0
   -5.3420   23.5670  -31.3300 C   0  0  0  0  0  0  0  0  0  0  0  0
   -6.4770   23.4330  -32.1550 C   0  0  0  0  0  0  0  0  0  0  0  0
   -6.9130   22.1670  -32.5540 C   0  0  0  0  0  0  0  0  0  0  0  0
   -6.2280   21.0260  -32.1350 C   0  0  0  0  0  0  0  0  0  0  0  0
   -5.0990   21.1490  -31.3230 C   0  0  0  0  0  0  0  0  0  0  0  0
   -4.6450   22.4140  -30.9290 C   0  0  0  0  0  0  0  0  0  0  0  0
   -3.4870   22.5250  -30.0900 N   0  0  0  0  0  0  0  0  0  0  0  0
   -3.6450   22.8870  -28.6790 C   0  0  0  0  0  0  0  0  0  0  0  0
   -2.2760   23.1200  -28.0270 C   0  0  0  0  0  0  0  0  0  0  0  0
   -1.3360   22.0080  -28.2960 N   0  0  0  0  0  0  0  0  0  0  0  0
   -1.5740   20.8630  -27.3890 C   0  0  0  0  0  0  0  0  0  0  0  0
   -1.2330   21.2300  -25.9740 C   0  0  0  0  0  0  0  0  0  0  0  0
   -1.5170   20.4310  -25.0420 O   0  0  0  0  0  0  0  0  0  0  0  0
   -0.5930   22.4840  -25.6970 N   0  0  0  0  0  0  0  0  0  0  0  0
    0.0470   22.7930  -24.4490 C   0  0  0  0  0  0  0  0  0  0  0  0
   -0.1410   22.0650  -23.4340 O   0  0  0  0  0  0  0  0  0  0  0  0
    0.9390   23.9190  -24.3610 N   0  0  0  0  0  0  0  0  0  0  0  0
    0.4130   25.0800  -25.1070 C   0  0  0  0  0  0  0  0  0  0  0  0
    0.7760   24.9550  -26.6100 C   0  0  0  0  0  0  0  0  0  0  0  0
   -0.1840   25.7160  -27.5460 C   0  0  0  0  0  0  0  0  0  0  0  0
   -0.8160   26.9230  -26.8500 C   0  0  0  0  0  0  0  0  0  0  0  0
   -1.6480   26.4960  -25.6270 C   0  0  0  0  0  0  0  0  0  0  0  0
   -1.1150   25.2290  -24.9310 C   0  0  0  0  0  0  0  0  0  0  0  0
   -1.2580   21.5920  -29.7260 C   0  0  0  0  0  0  0  0  0  0  0  0
   -2.1500   22.4130  -30.6680 C   0  0  0  0  0  0  0  0  0  0  0  0
   -5.4609   25.4832  -29.0055 H   0  0  0  0  0  0  0  0  0  0  0  0
   -5.3577   26.7430  -30.2818 H   0  0  0  0  0  0  0  0  0  0  0  0
   -6.7217   25.5741  -30.2818 H   0  0  0  0  0  0  0  0  0  0  0  0
   -7.0220   24.3293  -32.4862 H   0  0  0  0  0  0  0  0  0  0  0  0
   -7.7981   22.0696  -33.1998 H   0  0  0  0  0  0  0  0  0  0  0  0
   -6.5774   20.0299  -32.4443 H   0  0  0  0  0  0  0  0  0  0  0  0
   -4.5632   20.2476  -30.9909 H   0  0  0  0  0  0  0  0  0  0  0  0
   -4.2419   23.8081  -28.6063 H   0  0  0  0  0  0  0  0  0  0  0  0
   -4.1527   22.0635  -28.1554 H   0  0  0  0  0  0  0  0  0  0  0  0
   -1.8472   24.0515  -28.4251 H   0  0  0  0  0  0  0  0  0  0  0  0
   -2.4246   23.1830  -26.9389 H   0  0  0  0  0  0  0  0  0  0  0  0
   -2.6340   20.5741  -27.4421 H   0  0  0  0  0  0  0  0  0  0  0  0
   -0.9348   20.0242  -27.7016 H   0  0  0  0  0  0  0  0  0  0  0  0
   -0.4880   23.1650  -26.4810 H   0  0  0  0  0  0  0  0  0  0  0  0
    1.8840   23.6550  -24.7270 H   0  0  0  0  0  0  0  0  0  0  0  0
    1.0390   24.1670  -23.3490 H   0  0  0  0  0  0  0  0  0  0  0  0
    0.8819   25.9860  -24.6955 H   0  0  0  0  0  0  0  0  0  0  0  0
    1.7911   25.3528  -26.7561 H   0  0  0  0  0  0  0  0  0  0  0  0
    0.7007   23.8890  -26.8708 H   0  0  0  0  0  0  0  0  0  0  0  0
    0.3776   26.0653  -28.4250 H   0  0  0  0  0  0  0  0  0  0  0  0
   -0.9911   25.0292  -27.8407 H   0  0  0  0  0  0  0  0  0  0  0  0
   -0.0177   27.6037  -26.5194 H   0  0  0  0  0  0  0  0  0  0  0  0
   -1.4851   27.4233  -27.5655 H   0  0  0  0  0  0  0  0  0  0  0  0
   -1.6445   27.3205  -24.8988 H   0  0  0  0  0  0  0  0  0  0  0  0
   -2.6599   26.2633  -25.9902 H   0  0  0  0  0  0  0  0  0  0  0  0
   -1.3460   25.2882  -23.8572 H   0  0  0  0  0  0  0  0  0  0  0  0
   -1.5999   24.3554  -25.3910 H   0  0  0  0  0  0  0  0  0  0  0  0
   -0.2151   21.6966  -30.0596 H   0  0  0  0  0  0  0  0  0  0  0  0
   -1.6177   20.5536  -29.7740 H   0  0  0  0  0  0  0  0  0  0  0  0
   -1.7206   23.4173  -30.7984 H   0  0  0  0  0  0  0  0  0  0  0  0
   -2.2117   21.9134  -31.6461 H   0  0  0  0  0  0  0  0  0  0  0  0
  1  2  1  0
  2  3  1  0
  3  4  2  0
  4  5  1  0
  5  6  2  0
  6  7  1  0
  7  8  2  0
  8  9  1  0
  9 10  1  0
 10 11  1  0
 11 12  1  0
 12 13  1  0
 13 14  1  0
 14 15  2  0
 14 16  1  0
 16 17  1  0
 17 18  2  0
 17 19  1  0
 19 20  1  0
 20 21  1  0
 21 22  1  0
 22 23  1  0
 23 24  1  0
 24 25  1  0
 12 26  1  0
 26 27  1  0
  8  3  1  0
 27  9  1  0
 25 20  1  0
  1 28  1  0
  1 29  1  0
  1 30  1  0
  4 31  1  0
  5 32  1  0
  6 33  1  0
  7 34  1  0
 10 35  1  0
 10 36  1  0
 11 37  1  0
 11 38  1  0
 13 39  1  0
 13 40  1  0
 16 41  1  0
 19 42  1  0
 19 43  1  0
 20 44  1  0
 21 45  1  0
 21 46  1  0
 22 47  1  0
 22 48  1  0
 23 49  1  0
 23 50  1  0
 24 51  1  0
 24 52  1  0
 25 53  1  0
 25 54  1  0
 26 55  1  0
 26 56  1  0
 27 57  1  0
 27 58  1  0
M  CHG  1  19   1
M  END
>  <UniqueID>  (17) 
17

>  <SMILES>  (17) 
COc1ccccc1N1CCN(CC(=O)NC(=O)[NH2+]C2CCCCC2)CC1

>  <Energy>  (17) 
71.28555866170841

>  <Genealogy>  (17) 
COc1ccccc1N1CCN(CC(=O)NC(=O)[NH2+]C2CCCCC2)CC1 (protonated)
COc1ccccc1N1CCN(CC(=O)NC(=O)[NH2+]C2CCCCC2)CC1 (3D coordinates assigned)
COc1ccccc1N1CCN(CC(=O)NC(=O)[NH2+]C2CCCCC2)CC1 (nonaromatic ring conformer: 71.28555866170841 kcal/mol)

>  <smiles>  (17) 
COc1ccccc1N1CCN(CC(=O)NC(=O)NC2CCCCC2)CC1

>  <score_type>  (17) 
oracle

>  <origin>  (17) 
adg

>  <m_score__min__energy>  (17) 
-9.2100000000000009

>  <m_primary>  (17) 
energy

$$$$
17:0
     RDKit          3D

 62 65  0  0  0  0  0  0  0  0999 V2000
   -5.6250   25.6630  -30.1420 C   0  0  0  0  0  0  0  0  0  0  0  0
   -4.2450   25.5390  -30.4740 O   0  0  0  0  0  0  0  0  0  0  0  0
   -3.3770   24.5640  -29.9470 C   0  0  0  0  0  0  0  0  0  0  0  0
   -2.4470   24.8830  -28.9450 C   0  0  0  0  0  0  0  0  0  0  0  0
   -1.5730   23.9210  -28.4540 C   0  0  0  0  0  0  0  0  0  0  0  0
   -1.6100   22.6120  -28.9460 C   0  0  0  0  0  0  0  0  0  0  0  0
   -0.7030   21.6640  -28.4430 C   0  0  0  0  0  0  0  0  0  0  0  0
   -0.7160   20.3540  -28.9230 C   0  0  0  0  0  0  0  0  0  0  0  0
    0.5260   19.0730  -28.2390 Br  0  0  0  0  0  0  0  0  0  0  0  0
   -1.6350   19.9800  -29.9000 C   0  0  0  0  0  0  0  0  0  0  0  0
   -2.5470   20.9100  -30.4080 C   0  0  0  0  0  0  0  0  0  0  0  0
   -2.5510   22.2500  -29.9500 C   0  0  0  0  0  0  0  0  0  0  0  0
   -3.4460   23.2440  -30.4550 C   0  0  0  0  0  0  0  0  0  0  0  0
   -4.4250   22.9870  -31.5920 C   0  0  0  0  0  0  0  0  0  0  0  0
   -5.7030   22.4630  -31.0800 N   0  0  0  0  0  0  0  0  0  0  0  0
   -6.8690   23.0810  -31.7340 C   0  0  0  0  0  0  0  0  0  0  0  0
   -8.1370   22.2780  -31.4310 C   0  0  0  0  0  0  0  0  0  0  0  0
   -7.7650   20.9630  -30.8940 N   0  0  0  0  0  0  0  0  0  0  0  0
   -8.7210   19.9100  -31.2590 C   0  0  0  0  0  0  0  0  0  0  0  0
   -8.2880   19.1880  -32.5530 C   0  0  0  0  0  0  0  0  0  0  0  0
   -7.4940   20.0460  -33.4530 N   0  0  0  0  0  0  0  0  0  0  0  0
   -6.1290   19.5870  -33.5720 C   0  0  0  0  0  0  0  0  0  0  0  0
   -5.8510   18.2140  -33.6900 C   0  0  0  0  0  0  0  0  0  0  0  0
   -4.5310   17.7560  -33.7240 C   0  0  0  0  0  0  0  0  0  0  0  0
   -3.4580   18.6650  -33.6240 C   0  0  0  0  0  0  0  0  0  0  0  0
   -2.1060   18.2540  -33.6110 C   0  0  0  0  0  0  0  0  0  0  0  0
   -1.7090   16.8040  -33.7190 C   0  0  0  0  0  0  0  0  0  0  0  0
   -1.1080   19.2310  -33.4830 C   0  0  0  0  0  0  0  0  0  0  0  0
   -1.4700   20.5770  -33.3800 C   0  0  0  0  0  0  0  0  0  0  0  0
   -0.5820   21.4620  -33.2640 O   0  0  0  0  0  0  0  0  0  0  0  0
   -2.7490   20.9320  -33.4040 O   0  0  0  0  0  0  0  0  0  0  0  0
   -3.7380   20.0490  -33.5190 C   0  0  0  0  0  0  0  0  0  0  0  0
   -5.0610   20.5010  -33.5180 C   0  0  0  0  0  0  0  0  0  0  0  0
   -5.7394   25.6733  -29.0480 H   0  0  0  0  0  0  0  0  0  0  0  0
   -6.0201   26.6003  -30.5608 H   0  0  0  0  0  0  0  0  0  0  0  0
   -6.1809   24.8112  -30.5608 H   0  0  0  0  0  0  0  0  0  0  0  0
   -2.4098   25.9066  -28.5439 H   0  0  0  0  0  0  0  0  0  0  0  0
   -0.8469   24.1906  -27.6729 H   0  0  0  0  0  0  0  0  0  0  0  0
    0.0204   21.9559  -27.6675 H   0  0  0  0  0  0  0  0  0  0  0  0
   -1.6435   18.9458  -30.2747 H   0  0  0  0  0  0  0  0  0  0  0  0
   -3.2715   20.5965  -31.1741 H   0  0  0  0  0  0  0  0  0  0  0  0
   -4.6112   23.9302  -32.1264 H   0  0  0  0  0  0  0  0  0  0  0  0
   -3.9864   22.2400  -32.2700 H   0  0  0  0  0  0  0  0  0  0  0  0
   -5.7220   21.4360  -31.2900 H   0  0  0  0  0  0  0  0  0  0  0  0
   -6.9923   24.1082  -31.3604 H   0  0  0  0  0  0  0  0  0  0  0  0
   -6.7045   23.0923  -32.8216 H   0  0  0  0  0  0  0  0  0  0  0  0
   -8.7452   22.8181  -30.6905 H   0  0  0  0  0  0  0  0  0  0  0  0
   -8.7181   22.1462  -32.3556 H   0  0  0  0  0  0  0  0  0  0  0  0
   -6.8250   20.7070  -31.2830 H   0  0  0  0  0  0  0  0  0  0  0  0
   -8.7774   19.1771  -30.4407 H   0  0  0  0  0  0  0  0  0  0  0  0
   -9.7029   20.3750  -31.4311 H   0  0  0  0  0  0  0  0  0  0  0  0
   -7.6824   18.3114  -32.2796 H   0  0  0  0  0  0  0  0  0  0  0  0
   -9.2030   18.9024  -33.0927 H   0  0  0  0  0  0  0  0  0  0  0  0
   -7.9340   20.0250  -34.4040 H   0  0  0  0  0  0  0  0  0  0  0  0
   -7.5270   21.0410  -33.1270 H   0  0  0  0  0  0  0  0  0  0  0  0
   -6.6798   17.4937  -33.7562 H   0  0  0  0  0  0  0  0  0  0  0  0
   -4.3281   16.6800  -33.8294 H   0  0  0  0  0  0  0  0  0  0  0  0
   -1.5928   16.3796  -32.7108 H   0  0  0  0  0  0  0  0  0  0  0  0
   -2.4885   16.2499  -34.2625 H   0  0  0  0  0  0  0  0  0  0  0  0
   -0.7560   16.7243  -34.2625 H   0  0  0  0  0  0  0  0  0  0  0  0
   -0.0474   18.9399  -33.4638 H   0  0  0  0  0  0  0  0  0  0  0  0
   -5.2685   21.5804  -33.4746 H   0  0  0  0  0  0  0  0  0  0  0  0
  1  2  1  0
  2  3  1  0
  3  4  2  0
  4  5  1  0
  5  6  2  0
  6  7  1  0
  7  8  2  0
  8  9  1  0
  8 10  1  0
 10 11  2  0
 11 12  1  0
 12 13  2  0
 13 14  1  0
 14 15  1  0
 15 16  1  0
 16 17  1  0
 17 18  1  0
 18 19  1  0
 19 20  1  0
 20 21  1  0
 21 22  1  0
 22 23  2  0
 23 24  1  0
 24 25  2  0
 25 26  1  0
 26 27  1  0
 26 28  2  0
 28 29  1  0
 29 30  2  0
 29 31  1  0
 31 32  1  0
 32 33  2  0
 13  3  1  0
 33 22  1  0
 12  6  1  0
 32 25  1  0
  1 34  1  0
  1 35  1  0
  1 36  1  0
  4 37  1  0
  5 38  1  0
  7 39  1  0
 10 40  1  0
 11 41  1  0
 14 42  1  0
 14 43  1  0
 15 44  1  0
 16 45  1  0
 16 46  1  0
 17 47  1  0
 17 48  1  0
 18 49  1  0
 19 50  1  0
 19 51  1  0
 20 52  1  0
 20 53  1  0
 21 54  1  0
 21 55  1  0
 23 56  1  0
 24 57  1  0
 27 58  1  0
 27 59  1  0
 27 60  1  0
 28 61  1  0
 33 62  1  0
M  CHG  1  21   1
M  END
>  <UniqueID>  (18) 
18

>  <SMILES>  (18) 
COc1ccc2cc(Br)ccc2c1CNCCNCC[NH2+]c1ccc2c(C)cc(=O)oc2c1

>  <Energy>  (18) 
74.17860865500667

>  <Genealogy>  (18) 
COc1ccc2cc(Br)ccc2c1CNCCNCC[NH2+]c1ccc2c(C)cc(=O)oc2c1 (protonated)
COc1ccc2cc(Br)ccc2c1CNCCNCC[NH2+]c1ccc2c(C)cc(=O)oc2c1 (3D coordinates assigned)
COc1ccc2cc(Br)ccc2c1CNCCNCC[NH2+]c1ccc2c(C)cc(=O)oc2c1 (optimized conformer: 74.17860865500667 kcal/mol)

>  <smiles>  (18) 
COc1ccc2cc(Br)ccc2c1CNCCNCCNc1ccc2c(C)cc(=O)oc2c1

>  <score_type>  (18) 
oracle

>  <origin>  (18) 
adg

>  <m_score__min__energy>  (18) 
-8.1999999999999993

>  <m_primary>  (18) 
energy

$$$$
18:0
     RDKit          3D

 57 59  0  0  0  0  0  0  0  0999 V2000
   -5.9470   16.7220  -34.1740 C   0  0  0  0  0  0  0  0  0  0  0  0
   -6.8700   17.0060  -33.1250 O   0  0  0  0  0  0  0  0  0  0  0  0
   -7.2280   18.2990  -32.7190 C   0  0  0  0  0  0  0  0  0  0  0  0
   -8.1770   18.5390  -31.7010 C   0  0  0  0  0  0  0  0  0  0  0  0
   -8.4610   19.8470  -31.2970 C   0  0  0  0  0  0  0  0  0  0  0  0
   -7.8120   20.9350  -31.9090 C   0  0  0  0  0  0  0  0  0  0  0  0
   -8.0400   22.3220  -31.4390 C   0  0  0  0  0  0  0  0  0  0  0  0
   -8.9990   22.9790  -31.9330 O   0  0  0  0  0  0  0  0  0  0  0  0
   -7.0810   22.9820  -30.5750 N   0  0  1  0  0  0  0  0  0  0  0  0
   -5.7120   22.4430  -30.8280 C   0  0  0  0  0  0  0  0  0  0  0  0
   -4.7200   23.4880  -31.3610 C   0  0  0  0  0  0  0  0  0  0  0  0
   -4.6710   24.7390  -30.4610 C   0  0  2  0  0  0  0  0  0  0  0  0
   -3.6930   24.5460  -29.3310 C   0  0  0  0  0  0  0  0  0  0  0  0
   -3.9470   23.7350  -28.3990 O   0  0  0  0  0  0  0  0  0  0  0  0
   -2.4520   25.2610  -29.3440 N   0  0  0  0  0  0  0  0  0  0  0  0
   -1.3440   24.9760  -28.4400 C   0  0  0  0  0  0  0  0  0  0  0  0
   -0.5100   23.8000  -28.9610 C   0  0  0  0  0  0  0  0  0  0  0  0
   -1.1080   22.4910  -28.5090 C   0  0  0  0  0  0  0  0  0  0  0  0
   -1.0060   22.1160  -27.1590 C   0  0  0  0  0  0  0  0  0  0  0  0
   -1.5840   20.9280  -26.7100 C   0  0  0  0  0  0  0  0  0  0  0  0
   -2.2860   20.1140  -27.5990 C   0  0  0  0  0  0  0  0  0  0  0  0
   -2.4100   20.4810  -28.9410 C   0  0  0  0  0  0  0  0  0  0  0  0
   -1.8220   21.6730  -29.4110 C   0  0  0  0  0  0  0  0  0  0  0  0
   -1.9310   22.0700  -30.7530 O   0  0  0  0  0  0  0  0  0  0  0  0
   -2.1020   21.1770  -31.8500 C   0  0  0  0  0  0  0  0  0  0  0  0
   -6.0700   25.1560  -29.9370 C   0  0  0  0  0  0  0  0  0  0  0  0
   -7.1950   24.4540  -30.7070 C   0  0  0  0  0  0  0  0  0  0  0  0
   -6.9100   20.6940  -32.9580 C   0  0  0  0  0  0  0  0  0  0  0  0
   -6.6170   19.3850  -33.3520 C   0  0  0  0  0  0  0  0  0  0  0  0
   -4.9804   16.4246  -33.7413 H   0  0  0  0  0  0  0  0  0  0  0  0
   -6.3384   15.9027  -34.7950 H   0  0  0  0  0  0  0  0  0  0  0  0
   -5.8101   17.6196  -34.7950 H   0  0  0  0  0  0  0  0  0  0  0  0
   -8.6947   17.6936  -31.2241 H   0  0  0  0  0  0  0  0  0  0  0  0
   -9.1948   20.0262  -30.4974 H   0  0  0  0  0  0  0  0  0  0  0  0
   -7.3160   22.7580  -29.5780 H   0  0  0  0  0  0  0  0  0  0  0  0
   -5.7903   21.6316  -31.5665 H   0  0  0  0  0  0  0  0  0  0  0  0
   -5.3213   22.0967  -29.8598 H   0  0  0  0  0  0  0  0  0  0  0  0
   -5.0286   23.7888  -32.3731 H   0  0  0  0  0  0  0  0  0  0  0  0
   -3.7178   23.0347  -31.3729 H   0  0  0  0  0  0  0  0  0  0  0  0
   -4.3174   25.5716  -31.0869 H   0  0  0  0  0  0  0  0  0  0  0  0
   -0.7033   25.8667  -28.3617 H   0  0  0  0  0  0  0  0  0  0  0  0
   -1.7512   24.7116  -27.4530 H   0  0  0  0  0  0  0  0  0  0  0  0
   -0.4897   23.8289  -30.0604 H   0  0  0  0  0  0  0  0  0  0  0  0
    0.5118   23.8824  -28.5621 H   0  0  0  0  0  0  0  0  0  0  0  0
   -0.4670   22.7631  -26.4513 H   0  0  0  0  0  0  0  0  0  0  0  0
   -1.4860   20.6333  -25.6547 H   0  0  0  0  0  0  0  0  0  0  0  0
   -2.7436   19.1796  -27.2419 H   0  0  0  0  0  0  0  0  0  0  0  0
   -2.9695   19.8364  -29.6349 H   0  0  0  0  0  0  0  0  0  0  0  0
   -2.2962   20.1630  -31.4705 H   0  0  0  0  0  0  0  0  0  0  0  0
   -2.9530   21.5082  -32.4632 H   0  0  0  0  0  0  0  0  0  0  0  0
   -1.1888   21.1704  -32.4632 H   0  0  0  0  0  0  0  0  0  0  0  0
   -6.1842   26.2440  -30.0518 H   0  0  0  0  0  0  0  0  0  0  0  0
   -6.1423   24.8621  -28.8795 H   0  0  0  0  0  0  0  0  0  0  0  0
   -7.1298   24.7273  -31.7705 H   0  0  0  0  0  0  0  0  0  0  0  0
   -8.1616   24.7727  -30.2896 H   0  0  0  0  0  0  0  0  0  0  0  0
   -6.4312   21.5401  -33.4727 H   0  0  0  0  0  0  0  0  0  0  0  0
   -5.8996   19.2083  -34.1670 H   0  0  0  0  0  0  0  0  0  0  0  0
  1  2  1  0
  2  3  1  0
  3  4  2  0
  4  5  1  0
  5  6  2  0
  6  7  1  0
  7  8  2  0
  7  9  1  0
  9 10  1  0
 10 11  1  0
 11 12  1  0
 12 13  1  0
 13 14  2  0
 13 15  1  0
 15 16  1  0
 16 17  1  0
 17 18  1  0
 18 19  2  0
 19 20  1  0
 20 21  2  0
 21 22  1  0
 22 23  2  0
 23 24  1  0
 24 25  1  0
 12 26  1  0
 26 27  1  0
  6 28  1  0
 28 29  2  0
 29  3  1  0
 27  9  1  0
 23 18  1  0
  1 30  1  0
  1 31  1  0
  1 32  1  0
  4 33  1  0
  5 34  1  0
  9 35  1  1
 10 36  1  0
 10 37  1  0
 11 38  1  0
 11 39  1  0
 12 40  1  6
 16 41  1  0
 16 42  1  0
 17 43  1  0
 17 44  1  0
 19 45  1  0
 20 46  1  0
 21 47  1  0
 22 48  1  0
 25 49  1  0
 25 50  1  0
 25 51  1  0
 26 52  1  0
 26 53  1  0
 27 54  1  0
 27 55  1  0
 28 56  1  0
 29 57  1  0
M  CHG  2   9   1  15  -1
M  END
>  <UniqueID>  (19) 
19

>  <SMILES>  (19) 
COc1ccc(C(=O)[NH+]2CCC(C(=O)[N-]CCc3ccccc3OC)CC2)cc1

>  <Energy>  (19) 
68.27585395895967

>  <Genealogy>  (19) 
COc1ccc(C(=O)[NH+]2CCC(C(=O)[N-]CCc3ccccc3OC)CC2)cc1 (protonated)
COc1ccc(C(=O)[NH+]2CCC(C(=O)[N-]CCc3ccccc3OC)CC2)cc1 (3D coordinates assigned)
COc1ccc(C(=O)[NH+]2CCC(C(=O)[N-]CCc3ccccc3OC)CC2)cc1 (nonaromatic ring conformer: 68.27585395895967 kcal/mol)

>  <smiles>  (19) 
COc1ccc(C(=O)N2CCC(C(=O)NCCc3ccccc3OC)CC2)cc1

>  <score_type>  (19) 
oracle

>  <origin>  (19) 
adg

>  <m_score__min__energy>  (19) 
-11.039999999999999

>  <m_primary>  (19) 
energy

$$$$
19:0
     RDKit          3D

 38 39  0  0  0  0  0  0  0  0999 V2000
   -0.2680   22.0840  -28.3070 C   0  0  0  0  0  0  0  0  0  0  0  0
   -1.3220   22.2370  -29.3220 N   0  0  0  0  0  0  0  0  0  0  0  0
   -0.9120   21.6300  -30.5980 C   0  0  0  0  0  0  0  0  0  0  0  0
   -1.7540   23.6440  -29.4780 C   0  0  0  0  0  0  0  0  0  0  0  0
   -3.1400   23.7930  -30.0550 C   0  0  0  0  0  0  0  0  0  0  0  0
   -3.5230   24.9250  -30.4590 O   0  0  0  0  0  0  0  0  0  0  0  0
   -4.0060   22.6540  -30.1690 N   0  0  0  0  0  0  0  0  0  0  0  0
   -5.2820   22.7360  -30.8170 C   0  0  0  0  0  0  0  0  0  0  0  0
   -6.2810   23.5440  -30.2580 C   0  0  0  0  0  0  0  0  0  0  0  0
   -7.5500   23.6040  -30.8430 C   0  0  0  0  0  0  0  0  0  0  0  0
   -7.8250   22.8630  -31.9930 C   0  0  0  0  0  0  0  0  0  0  0  0
   -6.8290   22.0720  -32.5710 C   0  0  0  0  0  0  0  0  0  0  0  0
   -5.5510   22.0170  -32.0010 C   0  0  0  0  0  0  0  0  0  0  0  0
   -4.2630   21.0770  -32.8280 S   0  0  0  0  0  0  0  0  0  0  0  0
   -5.2750   19.5990  -32.9380 C   0  0  0  0  0  0  0  0  0  0  0  0
   -5.3750   18.8910  -34.1430 C   0  0  0  0  0  0  0  0  0  0  0  0
   -6.1560   17.7330  -34.2130 C   0  0  0  0  0  0  0  0  0  0  0  0
   -6.8390   17.2800  -33.0800 C   0  0  0  0  0  0  0  0  0  0  0  0
   -6.7420   17.9840  -31.8780 C   0  0  0  0  0  0  0  0  0  0  0  0
   -5.9610   19.1420  -31.8060 C   0  0  0  0  0  0  0  0  0  0  0  0
   -0.7134   22.1487  -27.3033 H   0  0  0  0  0  0  0  0  0  0  0  0
    0.2197   21.1056  -28.4294 H   0  0  0  0  0  0  0  0  0  0  0  0
    0.4777   22.8833  -28.4294 H   0  0  0  0  0  0  0  0  0  0  0  0
   -0.3064   20.7334  -30.3997 H   0  0  0  0  0  0  0  0  0  0  0  0
   -1.8058   21.3487  -31.1742 H   0  0  0  0  0  0  0  0  0  0  0  0
   -0.3173   22.3541  -31.1742 H   0  0  0  0  0  0  0  0  0  0  0  0
   -1.7364   24.1243  -28.4886 H   0  0  0  0  0  0  0  0  0  0  0  0
   -1.0584   24.1169  -30.1869 H   0  0  0  0  0  0  0  0  0  0  0  0
   -3.6090   21.7040  -29.9860 H   0  0  0  0  0  0  0  0  0  0  0  0
   -6.0662   24.1339  -29.3548 H   0  0  0  0  0  0  0  0  0  0  0  0
   -8.3318   24.2358  -30.3962 H   0  0  0  0  0  0  0  0  0  0  0  0
   -8.8271   22.9017  -32.4449 H   0  0  0  0  0  0  0  0  0  0  0  0
   -7.0496   21.4898  -33.4779 H   0  0  0  0  0  0  0  0  0  0  0  0
   -4.8385   19.2465  -35.0351 H   0  0  0  0  0  0  0  0  0  0  0  0
   -6.2331   17.1783  -35.1598 H   0  0  0  0  0  0  0  0  0  0  0  0
   -7.4528   16.3689  -33.1356 H   0  0  0  0  0  0  0  0  0  0  0  0
   -7.2801   17.6276  -30.9873 H   0  0  0  0  0  0  0  0  0  0  0  0
   -5.8855   19.6950  -30.8581 H   0  0  0  0  0  0  0  0  0  0  0  0
  1  2  1  0
  2  3  1  0
  2  4  1  0
  4  5  1  0
  5  6  2  0
  5  7  1  0
  7  8  1  0
  8  9  2  0
  9 10  1  0
 10 11  2  0
 11 12  1  0
 12 13  2  0
 13 14  1  0
 14 15  1  0
 15 16  2  0
 16 17  1  0
 17 18  2  0
 18 19  1  0
 19 20  2  0
 13  8  1  0
 20 15  1  0
  1 21  1  0
  1 22  1  0
  1 23  1  0
  3 24  1  0
  3 25  1  0
  3 26  1  0
  4 27  1  0
  4 28  1  0
  7 29  1  0
  9 30  1  0
 10 31  1  0
 11 32  1  0
 12 33  1  0
 16 34  1  0
 17 35  1  0
 18 36  1  0
 19 37  1  0
 20 38  1  0
M  END
>  <UniqueID>  (20) 
20

>  <SMILES>  (20) 
CN(C)CC(=O)Nc1ccccc1Sc1ccccc1

>  <Energy>  (20) 
39.754481908135716

>  <Genealogy>  (20) 
CN(C)CC(=O)Nc1ccccc1Sc1ccccc1 (3D coordinates assigned)
CN(C)CC(=O)Nc1ccccc1Sc1ccccc1 (optimized conformer: 39.754481908135716 kcal/mol)

>  <smiles>  (20) 
CN(C)CC(=O)Nc1ccccc1Sc1ccccc1

>  <score_type>  (20) 
oracle

>  <origin>  (20) 
adg

>  <m_score__min__energy>  (20) 
-7.8200000000000003

>  <m_primary>  (20) 
energy

$$$$
20:0
     RDKit          3D

 40 44  0  0  0  0  0  0  0  0999 V2000
   -6.4120   25.6790  -29.5150 Cl  0  0  0  0  0  0  0  0  0  0  0  0
   -5.9980   24.2090  -30.3800 C   0  0  0  0  0  0  0  0  0  0  0  0
   -4.7940   23.5520  -30.1070 C   0  0  0  0  0  0  0  0  0  0  0  0
   -4.4630   22.3800  -30.7930 C   0  0  0  0  0  0  0  0  0  0  0  0
   -5.3300   21.8610  -31.7700 C   0  0  0  0  0  0  0  0  0  0  0  0
   -5.0070   20.6100  -32.4900 C   0  0  0  0  0  0  0  0  0  0  0  0
   -5.9610   19.6380  -32.6090 N   0  0  0  0  0  0  0  0  0  0  0  0
   -5.7140   18.4600  -33.2540 C   0  0  0  0  0  0  0  0  0  0  0  0
   -6.7000   17.4780  -33.3600 C   0  0  0  0  0  0  0  0  0  0  0  0
   -6.4140   16.2850  -34.0300 C   0  0  0  0  0  0  0  0  0  0  0  0
   -5.1450   16.0910  -34.5870 C   0  0  0  0  0  0  0  0  0  0  0  0
   -4.1890   17.0570  -34.4780 N   0  0  0  0  0  0  0  0  0  0  0  0
   -4.4450   18.2270  -33.8270 C   0  0  0  0  0  0  0  0  0  0  0  0
   -3.5120   19.2090  -33.7130 N   0  0  0  0  0  0  0  0  0  0  0  0
   -2.2900   19.2040  -34.2160 N   0  0  0  0  0  0  0  0  0  0  0  0
   -1.7290   20.3960  -33.9040 C   0  0  0  0  0  0  0  0  0  0  0  0
   -0.3550   20.7810  -34.3060 C   0  0  0  0  0  0  0  0  0  0  0  0
    0.7480   20.0490  -33.8240 C   0  0  0  0  0  0  0  0  0  0  0  0
    2.0500   20.4020  -34.1940 C   0  0  0  0  0  0  0  0  0  0  0  0
    2.2670   21.4850  -35.0470 C   0  0  0  0  0  0  0  0  0  0  0  0
    1.1830   22.2200  -35.5310 C   0  0  0  0  0  0  0  0  0  0  0  0
   -0.1210   21.8730  -35.1650 C   0  0  0  0  0  0  0  0  0  0  0  0
   -2.6380   21.1730  -33.1840 C   0  0  0  0  0  0  0  0  0  0  0  0
   -3.7550   20.3670  -33.0800 C   0  0  0  0  0  0  0  0  0  0  0  0
   -6.5480   22.5150  -32.0220 C   0  0  0  0  0  0  0  0  0  0  0  0
   -6.8760   23.6880  -31.3340 C   0  0  0  0  0  0  0  0  0  0  0  0
   -4.1061   23.9584  -29.3509 H   0  0  0  0  0  0  0  0  0  0  0  0
   -3.5196   21.8614  -30.5672 H   0  0  0  0  0  0  0  0  0  0  0  0
   -7.6947   17.6416  -32.9196 H   0  0  0  0  0  0  0  0  0  0  0  0
   -7.1823   15.5029  -34.1189 H   0  0  0  0  0  0  0  0  0  0  0  0
   -4.9174   15.1537  -35.1159 H   0  0  0  0  0  0  0  0  0  0  0  0
   -3.2500   16.8840  -34.9050 H   0  0  0  0  0  0  0  0  0  0  0  0
    0.5842   19.1938  -33.1519 H   0  0  0  0  0  0  0  0  0  0  0  0
    2.9047   19.8247  -33.8118 H   0  0  0  0  0  0  0  0  0  0  0  0
    3.2917   21.7595  -35.3379 H   0  0  0  0  0  0  0  0  0  0  0  0
    1.3554   23.0744  -36.2021 H   0  0  0  0  0  0  0  0  0  0  0  0
   -0.9701   22.4566  -35.5503 H   0  0  0  0  0  0  0  0  0  0  0  0
   -2.4975   22.1907  -32.7908 H   0  0  0  0  0  0  0  0  0  0  0  0
   -7.2472   22.1024  -32.7642 H   0  0  0  0  0  0  0  0  0  0  0  0
   -7.8262   24.2008  -31.5443 H   0  0  0  0  0  0  0  0  0  0  0  0
  1  2  1  0
  2  3  2  0
  3  4  1  0
  4  5  2  0
  5  6  1  0
  6  7  2  0
  7  8  1  0
  8  9  2  0
  9 10  1  0
 10 11  2  0
 11 12  1  0
 12 13  2  0
 13 14  1  0
 14 15  1  0
 15 16  2  0
 16 17  1  0
 17 18  2  0
 18 19  1  0
 19 20  2  0
 20 21  1  0
 21 22  2  0
 16 23  1  0
 23 24  2  0
  5 25  1  0
 25 26  2  0
 26  2  1  0
 24  6  1  0
 13  8  1  0
 24 14  1  0
 22 17  1  0
  3 27  1  0
  4 28  1  0
  9 29  1  0
 10 30  1  0
 11 31  1  0
 12 32  1  0
 18 33  1  0
 19 34  1  0
 20 35  1  0
 21 36  1  0
 22 37  1  0
 23 38  1  0
 25 39  1  0
 26 40  1  0
M  CHG  1  12   1
M  END
>  <UniqueID>  (21) 
21

>  <SMILES>  (21) 
Clc1ccc(-c2nc3ccc[nH+]c3n3nc(-c4ccccc4)cc23)cc1

>  <Energy>  (21) 
93.16253711057381

>  <Genealogy>  (21) 
Clc1ccc(-c2nc3ccc[nH+]c3n3nc(-c4ccccc4)cc23)cc1 (protonated)
Clc1ccc(-c2nc3ccc[nH+]c3n3nc(-c4ccccc4)cc23)cc1 (3D coordinates assigned)
Clc1ccc(-c2nc3ccc[nH+]c3n3nc(-c4ccccc4)cc23)cc1 (optimized conformer: 93.16253711057381 kcal/mol)

>  <smiles>  (21) 
Clc1ccc(-c2nc3cccnc3n3nc(-c4ccccc4)cc23)cc1

>  <score_type>  (21) 
oracle

>  <origin>  (21) 
adg

>  <m_score__min__energy>  (21) 
-8.0099999999999998

>  <m_primary>  (21) 
energy

$$$$
21:0
     RDKit          3D

 66 71  0  0  0  0  0  0  0  0999 V2000
   -4.8310   21.0200  -32.9000 C   0  0  0  0  0  0  0  0  0  0  0  0
   -6.2230   20.8620  -32.3430 C   0  0  0  0  0  0  0  0  0  0  0  0
   -7.0100   19.7840  -32.7840 C   0  0  0  0  0  0  0  0  0  0  0  0
   -8.2990   19.5920  -32.2820 C   0  0  0  0  0  0  0  0  0  0  0  0
   -9.0440   18.5440  -32.7120 F   0  0  0  0  0  0  0  0  0  0  0  0
   -8.8190   20.4760  -31.3370 C   0  0  0  0  0  0  0  0  0  0  0  0
   -8.0580   21.5610  -30.8990 C   0  0  0  0  0  0  0  0  0  0  0  0
   -6.7650   21.7770  -31.4040 C   0  0  0  0  0  0  0  0  0  0  0  0
   -6.0100   22.9630  -30.9370 C   0  0  0  0  0  0  0  0  0  0  0  0
   -6.4440   24.2520  -31.2740 C   0  0  0  0  0  0  0  0  0  0  0  0
   -5.7300   25.3700  -30.8420 C   0  0  0  0  0  0  0  0  0  0  0  0
   -4.5740   25.2120  -30.0730 C   0  0  0  0  0  0  0  0  0  0  0  0
   -4.1130   23.9270  -29.7340 C   0  0  0  0  0  0  0  0  0  0  0  0
   -2.8880   23.7540  -28.9140 C   0  0  0  0  0  0  0  0  0  0  0  0
   -2.5230   24.7180  -28.0050 N   0  0  0  0  0  0  0  0  0  0  0  0
   -1.4130   24.5930  -27.2170 C   0  0  0  0  0  0  0  0  0  0  0  0
   -1.0860   25.6160  -26.2630 N   0  0  0  0  0  0  0  0  0  0  0  0
   -1.2390   25.4420  -24.8280 C   0  0  0  0  0  0  0  0  0  0  0  0
   -0.9800   26.8120  -24.2170 C   0  0  0  0  0  0  0  0  0  0  0  0
   -1.1900   27.8120  -25.3580 C   0  0  1  0  0  0  0  0  0  0  0  0
   -0.2750   29.0440  -25.2540 C   0  0  0  0  0  0  0  0  0  0  0  0
    0.6250   28.9020  -24.1890 O   0  0  0  0  0  0  0  0  0  0  0  0
   -0.9540   27.0140  -26.6420 C   0  0  0  0  0  0  0  0  0  0  0  0
   -0.6440   23.4400  -27.3790 C   0  0  0  0  0  0  0  0  0  0  0  0
    0.5410   22.9680  -26.8430 C   0  0  0  0  0  0  0  0  0  0  0  0
    0.8250   21.7730  -27.4200 N   0  0  0  0  0  0  0  0  0  0  0  0
   -0.1300   21.4920  -28.3020 N   0  0  0  0  0  0  0  0  0  0  0  0
   -0.2130   20.2740  -29.1230 C   0  0  0  0  0  0  0  0  0  0  0  0
   -1.3090   19.3360  -28.5930 C   0  0  0  0  0  0  0  0  0  0  0  0
   -0.8220   18.5750  -27.3570 C   0  0  0  0  0  0  0  0  0  0  0  0
    0.3360   17.8230  -27.6630 O   0  0  0  0  0  0  0  0  0  0  0  0
    1.4130   18.6970  -27.9450 C   0  0  0  0  0  0  0  0  0  0  0  0
    1.1380   19.5320  -29.2080 C   0  0  0  0  0  0  0  0  0  0  0  0
   -1.0170   22.4990  -28.2830 C   0  0  0  0  0  0  0  0  0  0  0  0
   -2.1230   22.6290  -29.0530 N   0  0  0  0  0  0  0  0  0  0  0  0
   -4.8370   22.8050  -30.1790 C   0  0  0  0  0  0  0  0  0  0  0  0
   -4.1117   21.1016  -32.0718 H   0  0  0  0  0  0  0  0  0  0  0  0
   -4.5815   20.1444  -33.5173 H   0  0  0  0  0  0  0  0  0  0  0  0
   -4.7841   21.9292  -33.5173 H   0  0  0  0  0  0  0  0  0  0  0  0
   -6.6068   19.0850  -33.5316 H   0  0  0  0  0  0  0  0  0  0  0  0
   -9.8310   20.3179  -30.9360 H   0  0  0  0  0  0  0  0  0  0  0  0
   -8.4743   22.2529  -30.1520 H   0  0  0  0  0  0  0  0  0  0  0  0
   -7.3515   24.3829  -31.8817 H   0  0  0  0  0  0  0  0  0  0  0  0
   -6.0781   26.3791  -31.1076 H   0  0  0  0  0  0  0  0  0  0  0  0
   -4.0206   26.0988  -29.7303 H   0  0  0  0  0  0  0  0  0  0  0  0
   -2.2575   25.1020  -24.5893 H   0  0  0  0  0  0  0  0  0  0  0  0
   -0.5453   24.6843  -24.4347 H   0  0  0  0  0  0  0  0  0  0  0  0
   -1.6877   27.0083  -23.3980 H   0  0  0  0  0  0  0  0  0  0  0  0
    0.0310   26.8850  -23.7897 H   0  0  0  0  0  0  0  0  0  0  0  0
   -2.2033   28.2390  -25.3276 H   0  0  0  0  0  0  0  0  0  0  0  0
    0.2893   29.1553  -26.1917 H   0  0  0  0  0  0  0  0  0  0  0  0
   -0.8971   29.9336  -25.0761 H   0  0  0  0  0  0  0  0  0  0  0  0
    0.1640   29.2470  -23.3790 H   0  0  0  0  0  0  0  0  0  0  0  0
   -1.7041   27.2784  -27.4019 H   0  0  0  0  0  0  0  0  0  0  0  0
    0.0335   27.2263  -27.0777 H   0  0  0  0  0  0  0  0  0  0  0  0
    1.1492   23.4749  -26.0794 H   0  0  0  0  0  0  0  0  0  0  0  0
   -0.4758   20.5906  -30.1431 H   0  0  0  0  0  0  0  0  0  0  0  0
   -2.1943   19.9311  -28.3245 H   0  0  0  0  0  0  0  0  0  0  0  0
   -1.5608   18.6084  -29.3786 H   0  0  0  0  0  0  0  0  0  0  0  0
   -0.5862   19.2941  -26.5587 H   0  0  0  0  0  0  0  0  0  0  0  0
   -1.6152   17.8883  -27.0265 H   0  0  0  0  0  0  0  0  0  0  0  0
    1.5573   19.3753  -27.0911 H   0  0  0  0  0  0  0  0  0  0  0  0
    2.3155   18.0922  -28.1177 H   0  0  0  0  0  0  0  0  0  0  0  0
    1.9433   20.2717  -29.3279 H   0  0  0  0  0  0  0  0  0  0  0  0
    1.0980   18.8473  -30.0680 H   0  0  0  0  0  0  0  0  0  0  0  0
   -4.4811   21.7941  -29.9310 H   0  0  0  0  0  0  0  0  0  0  0  0
  1  2  1  0
  2  3  2  0
  3  4  1  0
  4  5  1  0
  4  6  2  0
  6  7  1  0
  7  8  2  0
  8  9  1  0
  9 10  2  0
 10 11  1  0
 11 12  2  0
 12 13  1  0
 13 14  1  0
 14 15  2  0
 15 16  1  0
 16 17  1  0
 17 18  1  0
 18 19  1  0
 19 20  1  0
 20 21  1  0
 21 22  1  0
 20 23  1  0
 16 24  2  0
 24 25  1  0
 25 26  2  0
 26 27  1  0
 27 28  1  0
 28 29  1  0
 29 30  1  0
 30 31  1  0
 31 32  1  0
 32 33  1  0
 27 34  1  0
 34 35  2  0
 13 36  2  0
  8  2  1  0
 36  9  1  0
 35 14  1  0
 23 17  1  0
 34 24  1  0
 33 28  1  0
  1 37  1  0
  1 38  1  0
  1 39  1  0
  3 40  1  0
  6 41  1  0
  7 42  1  0
 10 43  1  0
 11 44  1  0
 12 45  1  0
 18 46  1  0
 18 47  1  0
 19 48  1  0
 19 49  1  0
 20 50  1  6
 21 51  1  0
 21 52  1  0
 22 53  1  0
 23 54  1  0
 23 55  1  0
 25 56  1  0
 28 57  1  0
 29 58  1  0
 29 59  1  0
 30 60  1  0
 30 61  1  0
 32 62  1  0
 32 63  1  0
 33 64  1  0
 33 65  1  0
 36 66  1  0
M  END
>  <UniqueID>  (22) 
22

>  <SMILES>  (22) 
Cc1cc(F)ccc1-c1cccc(-c2nc(N3CC[C@@H](CO)C3)c3cnn(C4CCOCC4)c3n2)c1

>  <Energy>  (22) 
125.76800237669033

>  <Genealogy>  (22) 
Cc1cc(F)ccc1-c1cccc(-c2nc(N3CC[C@@H](CO)C3)c3cnn(C4CCOCC4)c3n2)c1 (chirality)
Cc1cc(F)ccc1-c1cccc(-c2nc(N3CC[C@@H](CO)C3)c3cnn(C4CCOCC4)c3n2)c1 (3D coordinates assigned)
Cc1cc(F)ccc1-c1cccc(-c2nc(N3CC[C@@H](CO)C3)c3cnn(C4CCOCC4)c3n2)c1 (nonaromatic ring conformer: 125.76800237669033 kcal/mol)

>  <smiles>  (22) 
Cc1cc(F)ccc1-c1cccc(-c2nc(N3CCC(CO)C3)c3cnn(C4CCOCC4)c3n2)c1

>  <score_type>  (22) 
oracle

>  <origin>  (22) 
adg

>  <m_score__min__energy>  (22) 
-10.18

>  <m_primary>  (22) 
energy

$$$$
22:0
     RDKit          3D

 38 39  0  0  0  0  0  0  0  0999 V2000
   -4.0050   24.9220  -26.3980 C   0  0  0  0  0  0  0  0  0  0  0  0
   -2.8720   24.5550  -27.3460 C   0  0  0  0  0  0  0  0  0  0  0  0
   -3.3930   24.4740  -28.7320 N   0  0  0  0  0  0  0  0  0  0  0  0
   -2.8120   23.3540  -29.5050 C   0  0  0  0  0  0  0  0  0  0  0  0
   -3.3380   21.9740  -29.0810 C   0  0  0  0  0  0  0  0  0  0  0  0
   -4.8680   24.5240  -28.8130 C   0  0  0  0  0  0  0  0  0  0  0  0
   -5.3250   25.2710  -30.0710 C   0  0  0  0  0  0  0  0  0  0  0  0
   -4.9650   24.5540  -31.2530 O   0  0  0  0  0  0  0  0  0  0  0  0
   -5.5260   23.3400  -31.6770 C   0  0  0  0  0  0  0  0  0  0  0  0
   -4.7740   22.3350  -32.3190 C   0  0  0  0  0  0  0  0  0  0  0  0
   -5.3830   21.1440  -32.7260 C   0  0  0  0  0  0  0  0  0  0  0  0
   -6.7530   20.9360  -32.4930 C   0  0  0  0  0  0  0  0  0  0  0  0
   -7.4100   19.7570  -32.8830 C   0  0  0  0  0  0  0  0  0  0  0  0
   -6.7900   18.8280  -33.4680 O   0  0  0  0  0  0  0  0  0  0  0  0
   -8.7740   19.6160  -32.6190 C   0  0  0  0  0  0  0  0  0  0  0  0
   -9.4490   20.6530  -31.9700 C   0  0  0  0  0  0  0  0  0  0  0  0
   -8.8050   21.7580  -31.6110 O   0  0  0  0  0  0  0  0  0  0  0  0
   -7.5070   21.9380  -31.8420 C   0  0  0  0  0  0  0  0  0  0  0  0
   -6.8890   23.1260  -31.4390 C   0  0  0  0  0  0  0  0  0  0  0  0
   -3.6635   24.8114  -25.3582 H   0  0  0  0  0  0  0  0  0  0  0  0
   -4.3084   25.9644  -26.5754 H   0  0  0  0  0  0  0  0  0  0  0  0
   -4.8619   24.2555  -26.5754 H   0  0  0  0  0  0  0  0  0  0  0  0
   -2.0869   25.3237  -27.2939 H   0  0  0  0  0  0  0  0  0  0  0  0
   -2.4518   23.5810  -27.0550 H   0  0  0  0  0  0  0  0  0  0  0  0
   -3.0503   23.5051  -30.5682 H   0  0  0  0  0  0  0  0  0  0  0  0
   -1.7288   23.3584  -29.3136 H   0  0  0  0  0  0  0  0  0  0  0  0
   -3.3616   21.9121  -27.9830 H   0  0  0  0  0  0  0  0  0  0  0  0
   -4.3537   21.8309  -29.4782 H   0  0  0  0  0  0  0  0  0  0  0  0
   -2.6752   21.1911  -29.4782 H   0  0  0  0  0  0  0  0  0  0  0  0
   -5.2615   23.4972  -28.8417 H   0  0  0  0  0  0  0  0  0  0  0  0
   -5.2491   25.0588  -27.9305 H   0  0  0  0  0  0  0  0  0  0  0  0
   -6.4182   25.3895  -30.0414 H   0  0  0  0  0  0  0  0  0  0  0  0
   -4.8306   26.2534  -30.0935 H   0  0  0  0  0  0  0  0  0  0  0  0
   -3.7002   22.4890  -32.5011 H   0  0  0  0  0  0  0  0  0  0  0  0
   -4.7882   20.3679  -33.2298 H   0  0  0  0  0  0  0  0  0  0  0  0
   -9.3089   18.7023  -32.9175 H   0  0  0  0  0  0  0  0  0  0  0  0
  -10.5231   20.5535  -31.7544 H   0  0  0  0  0  0  0  0  0  0  0  0
   -7.4803   23.9010  -30.9293 H   0  0  0  0  0  0  0  0  0  0  0  0
  1  2  1  0
  2  3  1  0
  3  4  1  0
  4  5  1  0
  3  6  1  0
  6  7  1  0
  7  8  1  0
  8  9  1  0
  9 10  2  0
 10 11  1  0
 11 12  2  0
 12 13  1  0
 13 14  2  0
 13 15  1  0
 15 16  2  0
 16 17  1  0
 17 18  1  0
 18 19  2  0
 19  9  1  0
 18 12  1  0
  1 20  1  0
  1 21  1  0
  1 22  1  0
  2 23  1  0
  2 24  1  0
  4 25  1  0
  4 26  1  0
  5 27  1  0
  5 28  1  0
  5 29  1  0
  6 30  1  0
  6 31  1  0
  7 32  1  0
  7 33  1  0
 10 34  1  0
 11 35  1  0
 15 36  1  0
 16 37  1  0
 19 38  1  0
M  END
>  <UniqueID>  (23) 
23

>  <SMILES>  (23) 
CCN(CC)CCOc1ccc2c(=O)ccoc2c1

>  <Energy>  (23) 
43.22649705028908

>  <Genealogy>  (23) 
CCN(CC)CCOc1ccc2c(=O)ccoc2c1 (3D coordinates assigned)
CCN(CC)CCOc1ccc2c(=O)ccoc2c1 (optimized conformer: 43.22649705028908 kcal/mol)

>  <smiles>  (23) 
CCN(CC)CCOc1ccc2c(=O)ccoc2c1

>  <score_type>  (23) 
oracle

>  <origin>  (23) 
adg

>  <m_score__min__energy>  (23) 
-6.2999999999999998

>  <m_primary>  (23) 
energy

$$$$
23:0
     RDKit          3D

 30 32  0  0  0  0  0  0  0  0999 V2000
   -1.1160   25.6630  -27.6400 C   0  0  0  0  0  0  0  0  0  0  0  0
   -1.6170   25.5950  -28.9700 O   0  0  0  0  0  0  0  0  0  0  0  0
   -2.5180   24.6120  -29.3880 C   0  0  0  0  0  0  0  0  0  0  0  0
   -2.2450   23.2690  -29.1150 C   0  0  0  0  0  0  0  0  0  0  0  0
   -3.1430   22.2820  -29.5310 C   0  0  0  0  0  0  0  0  0  0  0  0
   -4.3100   22.6470  -30.2160 C   0  0  0  0  0  0  0  0  0  0  0  0
   -5.2340   21.6880  -30.6500 C   0  0  0  0  0  0  0  0  0  0  0  0
   -6.3930   22.1030  -31.3330 C   0  0  0  0  0  0  0  0  0  0  0  0
   -7.4020   21.1270  -31.8180 C   0  0  0  0  0  0  0  0  0  0  0  0
   -8.7600   21.4940  -31.8750 C   0  0  0  0  0  0  0  0  0  0  0  0
   -9.7240   20.5840  -32.3220 C   0  0  0  0  0  0  0  0  0  0  0  0
   -9.3460   19.2980  -32.7110 C   0  0  0  0  0  0  0  0  0  0  0  0
   -8.0050   18.9150  -32.6470 C   0  0  0  0  0  0  0  0  0  0  0  0
   -7.6420   17.6600  -33.0130 F   0  0  0  0  0  0  0  0  0  0  0  0
   -7.0370   19.8210  -32.2020 C   0  0  0  0  0  0  0  0  0  0  0  0
   -6.5840   23.4320  -31.5730 N   0  0  0  0  0  0  0  0  0  0  0  0
   -5.7020   24.3820  -31.1640 C   0  0  0  0  0  0  0  0  0  0  0  0
   -4.5480   24.0110  -30.4740 C   0  0  0  0  0  0  0  0  0  0  0  0
   -3.6570   24.9500  -30.0590 N   0  0  0  0  0  0  0  0  0  0  0  0
   -1.9475   25.5501  -26.9287 H   0  0  0  0  0  0  0  0  0  0  0  0
   -0.3858   24.8557  -27.4815 H   0  0  0  0  0  0  0  0  0  0  0  0
   -0.6274   26.6357  -27.4815 H   0  0  0  0  0  0  0  0  0  0  0  0
   -1.3280   22.9900  -28.5754 H   0  0  0  0  0  0  0  0  0  0  0  0
   -2.9345   21.2224  -29.3215 H   0  0  0  0  0  0  0  0  0  0  0  0
   -5.0556   20.6195  -30.4588 H   0  0  0  0  0  0  0  0  0  0  0  0
   -9.0655   22.5044  -31.5656 H   0  0  0  0  0  0  0  0  0  0  0  0
  -10.7818   20.8826  -32.3670 H   0  0  0  0  0  0  0  0  0  0  0  0
  -10.1048   18.5861  -33.0681 H   0  0  0  0  0  0  0  0  0  0  0  0
   -5.9825   19.5119  -32.1513 H   0  0  0  0  0  0  0  0  0  0  0  0
   -5.8983   25.4431  -31.3771 H   0  0  0  0  0  0  0  0  0  0  0  0
  1  2  1  0
  2  3  1  0
  3  4  2  0
  4  5  1  0
  5  6  2  0
  6  7  1  0
  7  8  2  0
  8  9  1  0
  9 10  2  0
 10 11  1  0
 11 12  2  0
 12 13  1  0
 13 14  1  0
 13 15  2  0
  8 16  1  0
 16 17  2  0
 17 18  1  0
 18 19  2  0
 19  3  1  0
 18  6  1  0
 15  9  1  0
  1 20  1  0
  1 21  1  0
  1 22  1  0
  4 23  1  0
  5 24  1  0
  7 25  1  0
 10 26  1  0
 11 27  1  0
 12 28  1  0
 15 29  1  0
 17 30  1  0
M  END
>  <UniqueID>  (24) 
24

>  <SMILES>  (24) 
COc1ccc2cc(-c3cccc(F)c3)ncc2n1

>  <Energy>  (24) 
38.57340086117986

>  <Genealogy>  (24) 
COc1ccc2cc(-c3cccc(F)c3)ncc2n1 (3D coordinates assigned)
COc1ccc2cc(-c3cccc(F)c3)ncc2n1 (optimized conformer: 38.57340086117986 kcal/mol)

>  <smiles>  (24) 
COc1ccc2cc(-c3cccc(F)c3)ncc2n1

>  <score_type>  (24) 
oracle

>  <origin>  (24) 
adg

>  <m_score__min__energy>  (24) 
-7.4900000000000002

>  <m_primary>  (24) 
energy

$$$$
24:0
     RDKit          3D

 48 50  0  0  0  0  0  0  0  0999 V2000
   -3.3450   20.1320  -33.6930 C   0  0  0  0  0  0  0  0  0  0  0  0
   -4.4080   19.8540  -32.6310 C   0  0  0  0  0  0  0  0  0  0  0  0
   -5.1590   21.1280  -32.2520 C   0  0  0  0  0  0  0  0  0  0  0  0
   -4.4940   22.1650  -31.5260 C   0  0  0  0  0  0  0  0  0  0  0  0
   -3.1240   22.1060  -31.1790 C   0  0  0  0  0  0  0  0  0  0  0  0
   -2.5110   23.1430  -30.4490 C   0  0  0  0  0  0  0  0  0  0  0  0
   -1.1520   23.1020  -30.0920 O   0  0  0  0  0  0  0  0  0  0  0  0
   -0.5380   22.0550  -29.3470 C   0  0  0  0  0  0  0  0  0  0  0  0
   -3.2610   24.2580  -30.0590 C   0  0  0  0  0  0  0  0  0  0  0  0
   -2.6170   25.2700  -29.3270 O   0  0  0  0  0  0  0  0  0  0  0  0
   -1.9840   25.0790  -28.0660 C   0  0  0  0  0  0  0  0  0  0  0  0
   -4.6180   24.3370  -30.4080 C   0  0  0  0  0  0  0  0  0  0  0  0
   -5.2300   23.3080  -31.1380 C   0  0  0  0  0  0  0  0  0  0  0  0
   -6.5720   23.4170  -31.4870 C   0  0  0  0  0  0  0  0  0  0  0  0
   -7.1750   22.4160  -32.2310 C   0  0  0  0  0  0  0  0  0  0  0  0
   -6.4810   21.3060  -32.6280 N   0  0  0  0  0  0  0  0  0  0  0  0
   -7.2300   20.3120  -33.4230 C   0  0  0  0  0  0  0  0  0  0  0  0
   -7.7390   19.1780  -32.5260 C   0  0  0  0  0  0  0  0  0  0  0  0
   -6.8470   17.9720  -32.6390 C   0  0  0  0  0  0  0  0  0  0  0  0
   -6.2460   17.4240  -31.4940 C   0  0  0  0  0  0  0  0  0  0  0  0
   -5.4450   16.2820  -31.5970 C   0  0  0  0  0  0  0  0  0  0  0  0
   -5.2490   15.6750  -32.8410 C   0  0  0  0  0  0  0  0  0  0  0  0
   -5.8550   16.2070  -33.9820 C   0  0  0  0  0  0  0  0  0  0  0  0
   -6.6560   17.3490  -33.8830 C   0  0  0  0  0  0  0  0  0  0  0  0
   -2.3926   20.3811  -33.2021 H   0  0  0  0  0  0  0  0  0  0  0  0
   -3.2113   19.2386  -34.3207 H   0  0  0  0  0  0  0  0  0  0  0  0
   -3.6658   20.9764  -34.3207 H   0  0  0  0  0  0  0  0  0  0  0  0
   -5.1251   19.1191  -33.0254 H   0  0  0  0  0  0  0  0  0  0  0  0
   -3.9076   19.4651  -31.7319 H   0  0  0  0  0  0  0  0  0  0  0  0
   -2.5265   21.2345  -31.4848 H   0  0  0  0  0  0  0  0  0  0  0  0
   -0.6544   22.2534  -28.2713 H   0  0  0  0  0  0  0  0  0  0  0  0
   -1.0174   21.0971  -29.5971 H   0  0  0  0  0  0  0  0  0  0  0  0
    0.5321   22.0058  -29.5971 H   0  0  0  0  0  0  0  0  0  0  0  0
   -2.7003   25.2951  -27.2597 H   0  0  0  0  0  0  0  0  0  0  0  0
   -1.6408   24.0373  -27.9821 H   0  0  0  0  0  0  0  0  0  0  0  0
   -1.1219   25.7570  -27.9821 H   0  0  0  0  0  0  0  0  0  0  0  0
   -5.2076   25.2151  -30.1058 H   0  0  0  0  0  0  0  0  0  0  0  0
   -7.1534   24.2964  -31.1728 H   0  0  0  0  0  0  0  0  0  0  0  0
   -8.2347   22.5159  -32.5085 H   0  0  0  0  0  0  0  0  0  0  0  0
   -8.0875   20.8054  -33.9039 H   0  0  0  0  0  0  0  0  0  0  0  0
   -6.5591   19.8882  -34.1848 H   0  0  0  0  0  0  0  0  0  0  0  0
   -7.7516   19.5216  -31.4811 H   0  0  0  0  0  0  0  0  0  0  0  0
   -8.7535   18.8999  -32.8476 H   0  0  0  0  0  0  0  0  0  0  0  0
   -6.4058   17.8946  -30.5127 H   0  0  0  0  0  0  0  0  0  0  0  0
   -4.9691   15.8614  -30.6989 H   0  0  0  0  0  0  0  0  0  0  0  0
   -4.6173   14.7781  -32.9216 H   0  0  0  0  0  0  0  0  0  0  0  0
   -5.7018   15.7268  -34.9597 H   0  0  0  0  0  0  0  0  0  0  0  0
   -7.1379   17.7605  -34.7822 H   0  0  0  0  0  0  0  0  0  0  0  0
  1  2  1  0
  2  3  1  0
  3  4  2  0
  4  5  1  0
  5  6  2  0
  6  7  1  0
  7  8  1  0
  6  9  1  0
  9 10  1  0
 10 11  1  0
  9 12  2  0
 12 13  1  0
 13 14  2  0
 14 15  1  0
 15 16  2  0
 16 17  1  0
 17 18  1  0
 18 19  1  0
 19 20  2  0
 20 21  1  0
 21 22  2  0
 22 23  1  0
 23 24  2  0
 16  3  1  0
 24 19  1  0
 13  4  1  0
  1 25  1  0
  1 26  1  0
  1 27  1  0
  2 28  1  0
  2 29  1  0
  5 30  1  0
  8 31  1  0
  8 32  1  0
  8 33  1  0
 11 34  1  0
 11 35  1  0
 11 36  1  0
 12 37  1  0
 14 38  1  0
 15 39  1  0
 17 40  1  0
 17 41  1  0
 18 42  1  0
 18 43  1  0
 20 44  1  0
 21 45  1  0
 22 46  1  0
 23 47  1  0
 24 48  1  0
M  CHG  1  16   1
M  END
>  <UniqueID>  (25) 
25

>  <SMILES>  (25) 
CCc1c2cc(OC)c(OC)cc2cc[n+]1CCc1ccccc1

>  <Energy>  (25) 
54.603200267765615

>  <Genealogy>  (25) 
CCc1c2cc(OC)c(OC)cc2cc[n+]1CCc1ccccc1 (3D coordinates assigned)
CCc1c2cc(OC)c(OC)cc2cc[n+]1CCc1ccccc1 (optimized conformer: 54.603200267765615 kcal/mol)

>  <smiles>  (25) 
CCc1c2cc(OC)c(OC)cc2cc[n+]1CCc1ccccc1

>  <score_type>  (25) 
oracle

>  <origin>  (25) 
adg

>  <m_score__min__energy>  (25) 
-7.4500000000000002

>  <m_primary>  (25) 
energy

$$$$
25:0
     RDKit          3D

 46 48  0  0  0  0  0  0  0  0999 V2000
   -8.8110   19.0810  -32.2940 C   0  0  0  0  0  0  0  0  0  0  0  0
   -7.2910   19.0160  -32.1990 C   0  0  0  0  0  0  0  0  0  0  0  0
   -6.6960   20.0990  -32.9120 O   0  0  0  0  0  0  0  0  0  0  0  0
   -5.3270   20.1790  -33.1930 C   0  0  0  0  0  0  0  0  0  0  0  0
   -4.8330   19.5180  -34.1470 O   0  0  0  0  0  0  0  0  0  0  0  0
   -4.4790   21.0710  -32.3840 C   0  0  0  0  0  0  0  0  0  0  0  0
   -4.9840   21.9040  -31.4530 N   0  0  0  0  0  0  0  0  0  0  0  0
   -3.9530   22.6220  -30.9680 C   0  0  0  0  0  0  0  0  0  0  0  0
   -4.0810   23.6490  -29.8870 C   0  0  0  0  0  0  0  0  0  0  0  0
   -4.0030   25.0010  -30.4660 N   0  0  0  0  0  0  0  0  0  0  0  0
   -5.3270   25.5720  -30.7670 C   0  0  0  0  0  0  0  0  0  0  0  0
   -6.4240   25.0200  -29.8430 C   0  0  0  0  0  0  0  0  0  0  0  0
   -7.0740   23.8320  -30.4010 N   0  0  0  0  0  0  0  0  0  0  0  0
   -7.5610   23.7050  -31.6460 C   0  0  0  0  0  0  0  0  0  0  0  0
   -8.1790   22.4800  -31.7390 C   0  0  0  0  0  0  0  0  0  0  0  0
   -8.1080   21.8470  -30.5510 N   0  0  0  0  0  0  0  0  0  0  0  0
   -7.4380   22.7060  -29.7540 C   0  0  0  0  0  0  0  0  0  0  0  0
   -2.7750   22.2630  -31.5920 C   0  0  0  0  0  0  0  0  0  0  0  0
   -3.1010   21.2580  -32.4830 C   0  0  0  0  0  0  0  0  0  0  0  0
   -2.1170   20.4950  -33.2710 C   0  0  0  0  0  0  0  0  0  0  0  0
   -1.0970   21.1410  -33.9800 C   0  0  0  0  0  0  0  0  0  0  0  0
   -0.2270   20.3710  -34.7510 C   0  0  0  0  0  0  0  0  0  0  0  0
   -0.3890   19.0230  -34.8150 N   0  0  0  0  0  0  0  0  0  0  0  0
   -1.3990   18.4120  -34.1410 C   0  0  0  0  0  0  0  0  0  0  0  0
   -2.2560   19.1470  -33.3860 N   0  0  0  0  0  0  0  0  0  0  0  0
   -9.2412   19.0994  -31.2818 H   0  0  0  0  0  0  0  0  0  0  0  0
   -9.1060   19.9926  -32.8344 H   0  0  0  0  0  0  0  0  0  0  0  0
   -9.1827   18.1979  -32.8344 H   0  0  0  0  0  0  0  0  0  0  0  0
   -6.9923   19.0718  -31.1418 H   0  0  0  0  0  0  0  0  0  0  0  0
   -6.9484   18.0693  -32.6421 H   0  0  0  0  0  0  0  0  0  0  0  0
   -5.9850   21.9870  -31.1670 H   0  0  0  0  0  0  0  0  0  0  0  0
   -5.0490   23.5252  -29.3795 H   0  0  0  0  0  0  0  0  0  0  0  0
   -3.2620   23.5174  -29.1646 H   0  0  0  0  0  0  0  0  0  0  0  0
   -3.4880   24.9290  -31.3750 H   0  0  0  0  0  0  0  0  0  0  0  0
   -5.2775   26.6640  -30.6442 H   0  0  0  0  0  0  0  0  0  0  0  0
   -5.5860   25.2952  -31.7996 H   0  0  0  0  0  0  0  0  0  0  0  0
   -5.9717   24.7546  -28.8760 H   0  0  0  0  0  0  0  0  0  0  0  0
   -7.1907   25.8002  -29.7269 H   0  0  0  0  0  0  0  0  0  0  0  0
   -7.4798   24.4505  -32.4508 H   0  0  0  0  0  0  0  0  0  0  0  0
   -8.6579   22.0783  -32.6441 H   0  0  0  0  0  0  0  0  0  0  0  0
   -7.2139   22.5096  -28.6951 H   0  0  0  0  0  0  0  0  0  0  0  0
   -1.7772   22.6910  -31.4155 H   0  0  0  0  0  0  0  0  0  0  0  0
   -0.9842   22.2341  -33.9298 H   0  0  0  0  0  0  0  0  0  0  0  0
    0.5899   20.8542  -35.3071 H   0  0  0  0  0  0  0  0  0  0  0  0
    0.2650   18.4520  -35.3960 H   0  0  0  0  0  0  0  0  0  0  0  0
   -1.5224   17.3209  -34.2071 H   0  0  0  0  0  0  0  0  0  0  0  0
  1  2  1  0
  2  3  1  0
  3  4  1  0
  4  5  2  0
  4  6  1  0
  6  7  1  0
  7  8  1  0
  8  9  1  0
  9 10  1  0
 10 11  1  0
 11 12  1  0
 12 13  1  0
 13 14  1  0
 14 15  2  0
 15 16  1  0
 16 17  2  0
  8 18  2  0
 18 19  1  0
 19 20  1  0
 20 21  2  0
 21 22  1  0
 22 23  2  0
 23 24  1  0
 24 25  2  0
 19  6  2  0
 25 20  1  0
 17 13  1  0
  1 26  1  0
  1 27  1  0
  1 28  1  0
  2 29  1  0
  2 30  1  0
  7 31  1  0
  9 32  1  0
  9 33  1  0
 10 34  1  0
 11 35  1  0
 11 36  1  0
 12 37  1  0
 12 38  1  0
 14 39  1  0
 15 40  1  0
 17 41  1  0
 18 42  1  0
 21 43  1  0
 22 44  1  0
 23 45  1  0
 24 46  1  0
M  CHG  1  23   1
M  END
>  <UniqueID>  (26) 
26

>  <SMILES>  (26) 
CCOC(=O)c1[nH]c(CNCCn2ccnc2)cc1-c1cc[nH+]cn1

>  <Energy>  (26) 
98.59127475418907

>  <Genealogy>  (26) 
CCOC(=O)c1[nH]c(CNCCn2ccnc2)cc1-c1cc[nH+]cn1 (protonated)
CCOC(=O)c1[nH]c(CNCCn2ccnc2)cc1-c1cc[nH+]cn1 (3D coordinates assigned)
CCOC(=O)c1[nH]c(CNCCn2ccnc2)cc1-c1cc[nH+]cn1 (optimized conformer: 98.59127475418907 kcal/mol)

>  <smiles>  (26) 
CCOC(=O)c1[nH]c(CNCCn2ccnc2)cc1-c1ccncn1

>  <score_type>  (26) 
oracle

>  <origin>  (26) 
adg

>  <m_score__min__energy>  (26) 
-7.2400000000000002

>  <m_primary>  (26) 
energy

$$$$
26:0
     RDKit          3D

 41 42  0  0  0  0  0  0  0  0999 V2000
   -6.4600   16.9940  -33.9840 C   0  0  0  0  0  0  0  0  0  0  0  0
   -5.4690   18.0710  -34.4460 C   0  0  0  0  0  0  0  0  0  0  0  0
   -4.4650   18.4150  -33.4050 N   0  0  0  0  0  0  0  0  0  0  0  0
   -3.4450   17.3380  -33.3070 C   0  0  0  0  0  0  0  0  0  0  0  0
   -2.2070   17.5950  -34.1740 C   0  0  0  0  0  0  0  0  0  0  0  0
   -3.8960   19.7850  -33.5720 C   0  0  0  0  0  0  0  0  0  0  0  0
   -4.5770   20.9150  -32.7680 C   0  0  0  0  0  0  0  0  0  0  0  0
   -5.5420   20.4080  -31.8430 O   0  0  0  0  0  0  0  0  0  0  0  0
   -6.9110   20.7020  -31.9150 C   0  0  0  0  0  0  0  0  0  0  0  0
   -7.7590   19.7550  -32.5030 C   0  0  0  0  0  0  0  0  0  0  0  0
   -9.1390   19.9590  -32.5330 C   0  0  0  0  0  0  0  0  0  0  0  0
   -9.6840   21.1230  -31.9940 C   0  0  0  0  0  0  0  0  0  0  0  0
   -8.8480   22.1010  -31.4510 C   0  0  0  0  0  0  0  0  0  0  0  0
   -7.4540   21.9170  -31.4250 C   0  0  0  0  0  0  0  0  0  0  0  0
   -6.5920   23.0340  -30.9690 C   0  0  0  0  0  0  0  0  0  0  0  0
   -5.9530   23.0540  -29.7170 C   0  0  0  0  0  0  0  0  0  0  0  0
   -5.2060   24.2020  -29.4910 C   0  0  0  0  0  0  0  0  0  0  0  0
   -5.3510   25.1930  -30.8390 S   0  0  0  0  0  0  0  0  0  0  0  0
   -6.3580   24.1810  -31.7250 C   0  0  0  0  0  0  0  0  0  0  0  0
   -6.4854   16.9664  -32.8846 H   0  0  0  0  0  0  0  0  0  0  0  0
   -7.4634   17.2300  -34.3681 H   0  0  0  0  0  0  0  0  0  0  0  0
   -6.1415   16.0137  -34.3681 H   0  0  0  0  0  0  0  0  0  0  0  0
   -4.9394   17.7023  -35.3368 H   0  0  0  0  0  0  0  0  0  0  0  0
   -6.0468   18.9816  -34.6624 H   0  0  0  0  0  0  0  0  0  0  0  0
   -4.9680   18.4140  -32.4860 H   0  0  0  0  0  0  0  0  0  0  0  0
   -3.1253   17.2543  -32.2578 H   0  0  0  0  0  0  0  0  0  0  0  0
   -3.9126   16.4120  -33.6728 H   0  0  0  0  0  0  0  0  0  0  0  0
   -1.3367   17.7757  -33.5260 H   0  0  0  0  0  0  0  0  0  0  0  0
   -2.0155   16.7175  -34.8090 H   0  0  0  0  0  0  0  0  0  0  0  0
   -2.3806   18.4763  -34.8090 H   0  0  0  0  0  0  0  0  0  0  0  0
   -2.8395   19.7478  -33.2678 H   0  0  0  0  0  0  0  0  0  0  0  0
   -4.0572   20.0411  -34.6295 H   0  0  0  0  0  0  0  0  0  0  0  0
   -3.8068   21.4678  -32.2102 H   0  0  0  0  0  0  0  0  0  0  0  0
   -5.1004   21.5703  -33.4798 H   0  0  0  0  0  0  0  0  0  0  0  0
   -7.3332   18.8422  -32.9451 H   0  0  0  0  0  0  0  0  0  0  0  0
   -9.7971   19.2007  -32.9823 H   0  0  0  0  0  0  0  0  0  0  0  0
  -10.7739   21.2715  -31.9963 H   0  0  0  0  0  0  0  0  0  0  0  0
   -9.2838   23.0236  -31.0399 H   0  0  0  0  0  0  0  0  0  0  0  0
   -6.0370   22.2369  -28.9853 H   0  0  0  0  0  0  0  0  0  0  0  0
   -4.6209   24.4240  -28.5864 H   0  0  0  0  0  0  0  0  0  0  0  0
   -6.7620   24.3878  -32.7270 H   0  0  0  0  0  0  0  0  0  0  0  0
  1  2  1  0
  2  3  1  0
  3  4  1  0
  4  5  1  0
  3  6  1  0
  6  7  1  0
  7  8  1  0
  8  9  1  0
  9 10  2  0
 10 11  1  0
 11 12  2  0
 12 13  1  0
 13 14  2  0
 14 15  1  0
 15 16  1  0
 16 17  2  0
 17 18  1  0
 18 19  1  0
 14  9  1  0
 19 15  2  0
  1 20  1  0
  1 21  1  0
  1 22  1  0
  2 23  1  0
  2 24  1  0
  3 25  1  0
  4 26  1  0
  4 27  1  0
  5 28  1  0
  5 29  1  0
  5 30  1  0
  6 31  1  0
  6 32  1  0
  7 33  1  0
  7 34  1  0
 10 35  1  0
 11 36  1  0
 12 37  1  0
 13 38  1  0
 16 39  1  0
 17 40  1  0
 19 41  1  0
M  CHG  1   3   1
M  END
>  <UniqueID>  (27) 
27

>  <SMILES>  (27) 
CC[NH+](CC)CCOc1ccccc1-c1ccsc1

>  <Energy>  (27) 
81.54227068111922

>  <Genealogy>  (27) 
CC[NH+](CC)CCOc1ccccc1-c1ccsc1 (protonated)
CC[NH+](CC)CCOc1ccccc1-c1ccsc1 (3D coordinates assigned)
CC[NH+](CC)CCOc1ccccc1-c1ccsc1 (optimized conformer: 81.54227068111922 kcal/mol)

>  <smiles>  (27) 
CCN(CC)CCOc1ccccc1-c1ccsc1

>  <score_type>  (27) 
oracle

>  <origin>  (27) 
adg

>  <m_score__min__energy>  (27) 
-5.4699999999999998

>  <m_primary>  (27) 
energy

$$$$
27:0
     RDKit          3D

 61 64  0  0  0  0  0  0  0  0999 V2000
   -7.1800   22.9000  -30.4100 C   0  0  0  0  0  0  0  0  0  0  0  0
   -6.5190   24.1380  -31.0050 C   0  0  0  0  0  0  0  0  0  0  0  0
   -4.8250   24.2870  -30.4610 S   0  0  0  0  0  0  0  0  0  0  0  0
   -4.7700   24.1560  -28.9640 O   0  0  0  0  0  0  0  0  0  0  0  0
   -4.2880   25.6380  -30.8420 O   0  0  0  0  0  0  0  0  0  0  0  0
   -3.8440   23.0200  -31.1910 C   0  0  0  0  0  0  0  0  0  0  0  0
   -4.3260   22.2860  -32.2770 C   0  0  0  0  0  0  0  0  0  0  0  0
   -3.5550   21.2660  -32.8420 C   0  0  0  0  0  0  0  0  0  0  0  0
   -2.2710   20.9500  -32.3310 C   0  0  0  0  0  0  0  0  0  0  0  0
   -1.4610   19.8820  -32.9170 N   0  0  0  0  0  0  0  0  0  0  0  0
   -0.1870   19.5090  -32.2490 C   0  0  0  0  0  0  0  0  0  0  0  0
    0.5890   18.3560  -32.9000 C   0  0  0  0  0  0  0  0  0  0  0  0
    0.4800   18.3560  -34.4350 C   0  0  0  0  0  0  0  0  0  0  0  0
    1.0700   19.5860  -35.0670 N   0  0  1  0  0  0  0  0  0  0  0  0
    0.0370   20.3090  -35.8730 C   0  0  0  0  0  0  0  0  0  0  0  0
    0.3370   21.8070  -36.1050 C   0  0  0  0  0  0  0  0  0  0  0  0
    1.8450   22.0740  -36.0660 C   0  0  1  0  0  0  0  0  0  0  0  0
    2.1700   23.4670  -36.4080 N   0  0  0  0  0  0  0  0  0  0  0  0
    1.3570   24.4030  -36.8040 C   0  0  0  0  0  0  0  0  0  0  0  0
    0.2890   24.7810  -36.0470 N   0  0  0  0  0  0  0  0  0  0  0  0
   -0.5560   25.7600  -36.4650 C   0  0  0  0  0  0  0  0  0  0  0  0
   -0.3340   26.3940  -37.6850 C   0  0  0  0  0  0  0  0  0  0  0  0
    0.7620   25.9980  -38.4490 C   0  0  0  0  0  0  0  0  0  0  0  0
    1.5830   25.0150  -37.9960 N   0  0  0  0  0  0  0  0  0  0  0  0
    2.4540   21.6490  -34.7160 C   0  0  0  0  0  0  0  0  0  0  0  0
    1.6640   20.4980  -34.0550 C   0  0  0  0  0  0  0  0  0  0  0  0
   -1.0190   18.1490  -34.7210 C   0  0  0  0  0  0  0  0  0  0  0  0
   -1.8730   19.3180  -34.2260 C   0  0  0  0  0  0  0  0  0  0  0  0
   -1.8100   21.7000  -31.2210 C   0  0  0  0  0  0  0  0  0  0  0  0
   -2.5880   22.7170  -30.6620 C   0  0  0  0  0  0  0  0  0  0  0  0
   -7.1483   22.9593  -29.3121 H   0  0  0  0  0  0  0  0  0  0  0  0
   -8.2266   22.8467  -30.7443 H   0  0  0  0  0  0  0  0  0  0  0  0
   -6.6420   22.0006  -30.7443 H   0  0  0  0  0  0  0  0  0  0  0  0
   -6.5386   24.0634  -32.1023 H   0  0  0  0  0  0  0  0  0  0  0  0
   -7.0735   25.0261  -30.6677 H   0  0  0  0  0  0  0  0  0  0  0  0
   -5.3198   22.5122  -32.6909 H   0  0  0  0  0  0  0  0  0  0  0  0
   -3.9512   20.6991  -33.6974 H   0  0  0  0  0  0  0  0  0  0  0  0
    0.4646   20.3952  -32.2435 H   0  0  0  0  0  0  0  0  0  0  0  0
   -0.4652   19.1561  -31.2450 H   0  0  0  0  0  0  0  0  0  0  0  0
    1.6498   18.4456  -32.6229 H   0  0  0  0  0  0  0  0  0  0  0  0
    0.1506   17.4148  -32.5367 H   0  0  0  0  0  0  0  0  0  0  0  0
    1.0779   17.5547  -34.8938 H   0  0  0  0  0  0  0  0  0  0  0  0
    1.8350   19.2960  -35.7190 H   0  0  0  0  0  0  0  0  0  0  0  0
   -0.9262   20.2290  -35.3479 H   0  0  0  0  0  0  0  0  0  0  0  0
    0.0270   19.8349  -36.8656 H   0  0  0  0  0  0  0  0  0  0  0  0
   -0.1542   22.3988  -35.3186 H   0  0  0  0  0  0  0  0  0  0  0  0
   -0.0455   22.0931  -37.0959 H   0  0  0  0  0  0  0  0  0  0  0  0
    2.3081   21.4488  -36.8436 H   0  0  0  0  0  0  0  0  0  0  0  0
   -1.4137   26.0511  -35.8408 H   0  0  0  0  0  0  0  0  0  0  0  0
   -1.0080   27.1887  -38.0372 H   0  0  0  0  0  0  0  0  0  0  0  0
    0.9620   26.4804  -39.4171 H   0  0  0  0  0  0  0  0  0  0  0  0
    2.4515   22.5152  -34.0380 H   0  0  0  0  0  0  0  0  0  0  0  0
    3.4768   21.2910  -34.9051 H   0  0  0  0  0  0  0  0  0  0  0  0
    0.8562   20.9257  -33.4430 H   0  0  0  0  0  0  0  0  0  0  0  0
    2.3617   19.9149  -33.4359 H   0  0  0  0  0  0  0  0  0  0  0  0
   -1.1603   18.0429  -35.8067 H   0  0  0  0  0  0  0  0  0  0  0  0
   -1.3420   17.2456  -34.1828 H   0  0  0  0  0  0  0  0  0  0  0  0
   -1.8206   20.1211  -34.9759 H   0  0  0  0  0  0  0  0  0  0  0  0
   -2.8887   18.9200  -34.0846 H   0  0  0  0  0  0  0  0  0  0  0  0
   -0.8220   21.4777  -30.7916 H   0  0  0  0  0  0  0  0  0  0  0  0
   -2.2081   23.2831  -29.7987 H   0  0  0  0  0  0  0  0  0  0  0  0
  1  2  1  0
  2  3  1  0
  3  4  2  0
  3  5  2  0
  3  6  1  0
  6  7  2  0
  7  8  1  0
  8  9  2  0
  9 10  1  0
 10 11  1  0
 11 12  1  0
 12 13  1  0
 13 14  1  0
 14 15  1  0
 15 16  1  0
 16 17  1  0
 17 18  1  0
 18 19  2  3
 19 20  1  0
 20 21  2  0
 21 22  1  0
 22 23  2  0
 23 24  1  0
 17 25  1  0
 25 26  1  0
 13 27  1  0
 27 28  1  0
  9 29  1  0
 29 30  2  0
 30  6  1  0
 28 10  1  0
 26 14  1  0
 24 19  1  0
  1 31  1  0
  1 32  1  0
  1 33  1  0
  2 34  1  0
  2 35  1  0
  7 36  1  0
  8 37  1  0
 11 38  1  0
 11 39  1  0
 12 40  1  0
 12 41  1  0
 13 42  1  0
 14 43  1  6
 15 44  1  0
 15 45  1  0
 16 46  1  0
 16 47  1  0
 17 48  1  6
 21 49  1  0
 22 50  1  0
 23 51  1  0
 25 52  1  0
 25 53  1  0
 26 54  1  0
 26 55  1  0
 27 56  1  0
 27 57  1  0
 28 58  1  0
 28 59  1  0
 29 60  1  0
 30 61  1  0
M  CHG  2  14   1  24  -1
M  END
>  <UniqueID>  (28) 
28

>  <SMILES>  (28) 
CCS(=O)(=O)c1ccc(N2CCC([NH+]3CCC(N=c4nccc[n-]4)CC3)CC2)cc1

>  <Energy>  (28) 
81.14266559278732

>  <Genealogy>  (28) 
CCS(=O)(=O)c1ccc(N2CCC([NH+]3CCC(N=c4nccc[n-]4)CC3)CC2)cc1 (protonated)
CCS(=O)(=O)c1ccc(N2CCC([NH+]3CCC(N=c4nccc[n-]4)CC3)CC2)cc1 (3D coordinates assigned)
CCS(=O)(=O)c1ccc(N2CCC([NH+]3CCC(N=c4nccc[n-]4)CC3)CC2)cc1 (nonaromatic ring conformer: 81.14266559278732 kcal/mol)

>  <smiles>  (28) 
CCS(=O)(=O)c1ccc(N2CCC(N3CCC(N=c4nccc[nH]4)CC3)CC2)cc1

>  <score_type>  (28) 
oracle

>  <origin>  (28) 
adg

>  <m_score__min__energy>  (28) 
-8.7200000000000006

>  <m_primary>  (28) 
energy

$$$$
28:0
     RDKit          3D

 69 72  0  0  0  0  0  0  0  0999 V2000
   -5.2410   19.8080  -33.8660 C   0  0  0  0  0  0  0  0  0  0  0  0
   -3.8830   20.0850  -33.2300 C   0  0  0  0  0  0  0  0  0  0  0  0
   -3.9730   20.0920  -31.6980 C   0  0  0  0  0  0  0  0  0  0  0  0
   -2.6250   20.3700  -30.9980 C   0  0  0  0  0  0  0  0  0  0  0  0
   -2.6840   21.5030  -30.0480 N   0  0  0  0  0  0  0  0  0  0  0  0
   -2.9520   22.8270  -30.5600 C   0  0  0  0  0  0  0  0  0  0  0  0
   -2.8370   23.0620  -31.7980 O   0  0  0  0  0  0  0  0  0  0  0  0
   -3.3090   23.9550  -29.6320 C   0  0  2  0  0  0  0  0  0  0  0  0
   -3.9150   25.0580  -30.3760 N   0  0  0  0  0  0  0  0  0  0  0  0
   -5.3260   25.2140  -30.5820 C   0  0  0  0  0  0  0  0  0  0  0  0
   -5.8560   26.3500  -30.4470 O   0  0  0  0  0  0  0  0  0  0  0  0
   -6.1600   24.0390  -30.9310 C   0  0  0  0  0  0  0  0  0  0  0  0
   -6.2280   23.5760  -32.2570 C   0  0  0  0  0  0  0  0  0  0  0  0
   -6.9760   22.4400  -32.5760 C   0  0  0  0  0  0  0  0  0  0  0  0
   -7.6890   21.7580  -31.5800 C   0  0  0  0  0  0  0  0  0  0  0  0
   -8.4460   20.5050  -31.9140 C   0  0  0  0  0  0  0  0  0  0  0  0
   -7.6360   22.2190  -30.2560 C   0  0  0  0  0  0  0  0  0  0  0  0
   -6.8860   23.3550  -29.9360 C   0  0  0  0  0  0  0  0  0  0  0  0
   -2.0490   24.4190  -28.9700 C   0  0  0  0  0  0  0  0  0  0  0  0
   -1.8670   25.6480  -28.7710 O   0  0  0  0  0  0  0  0  0  0  0  0
   -1.0680   23.4620  -28.5260 N   0  0  0  0  0  0  0  0  0  0  0  0
    0.3660   23.7370  -28.7140 C   0  0  0  0  0  0  0  0  0  0  0  0
    0.9870   24.4280  -27.4820 C   0  0  0  0  0  0  0  0  0  0  0  0
   -0.0350   25.0620  -26.6120 N   0  0  0  0  0  0  0  0  0  0  0  0
    0.1100   26.5320  -26.6780 C   0  0  0  0  0  0  0  0  0  0  0  0
   -0.8960   27.2470  -25.7470 C   0  0  0  0  0  0  0  0  0  0  0  0
   -1.5760   26.3500  -24.8870 O   0  0  0  0  0  0  0  0  0  0  0  0
   -0.6350   25.5350  -24.2180 C   0  0  0  0  0  0  0  0  0  0  0  0
    0.0740   24.5890  -25.2080 C   0  0  0  0  0  0  0  0  0  0  0  0
   -1.5010   22.2160  -27.9410 C   0  0  0  0  0  0  0  0  0  0  0  0
   -1.0900   21.9030  -26.6340 C   0  0  0  0  0  0  0  0  0  0  0  0
   -1.4990   20.7200  -26.0200 C   0  0  0  0  0  0  0  0  0  0  0  0
   -2.3250   19.8340  -26.6970 C   0  0  0  0  0  0  0  0  0  0  0  0
   -2.7360   20.1180  -27.9990 C   0  0  0  0  0  0  0  0  0  0  0  0
   -2.3240   21.2950  -28.6550 C   0  0  0  0  0  0  0  0  0  0  0  0
   -5.9913   19.6549  -33.0763 H   0  0  0  0  0  0  0  0  0  0  0  0
   -5.5351   20.6646  -34.4902 H   0  0  0  0  0  0  0  0  0  0  0  0
   -5.1761   18.9046  -34.4902 H   0  0  0  0  0  0  0  0  0  0  0  0
   -3.1750   19.3036  -33.5433 H   0  0  0  0  0  0  0  0  0  0  0  0
   -3.5415   21.0768  -33.5612 H   0  0  0  0  0  0  0  0  0  0  0  0
   -4.6884   20.8710  -31.3958 H   0  0  0  0  0  0  0  0  0  0  0  0
   -4.2933   19.0857  -31.3903 H   0  0  0  0  0  0  0  0  0  0  0  0
   -2.3246   19.4668  -30.4466 H   0  0  0  0  0  0  0  0  0  0  0  0
   -1.8994   20.6370  -31.7804 H   0  0  0  0  0  0  0  0  0  0  0  0
   -4.0371   23.6107  -28.8828 H   0  0  0  0  0  0  0  0  0  0  0  0
   -5.6874   24.1131  -33.0503 H   0  0  0  0  0  0  0  0  0  0  0  0
   -7.0057   22.0786  -33.6145 H   0  0  0  0  0  0  0  0  0  0  0  0
   -8.7501   20.0016  -30.9845 H   0  0  0  0  0  0  0  0  0  0  0  0
   -9.3400   20.7622  -32.5011 H   0  0  0  0  0  0  0  0  0  0  0  0
   -7.8025   19.8333  -32.5011 H   0  0  0  0  0  0  0  0  0  0  0  0
   -8.1862   21.6851  -29.4671 H   0  0  0  0  0  0  0  0  0  0  0  0
   -6.8626   23.7179  -28.8979 H   0  0  0  0  0  0  0  0  0  0  0  0
    0.8902   22.7860  -28.8900 H   0  0  0  0  0  0  0  0  0  0  0  0
    0.4728   24.4144  -29.5741 H   0  0  0  0  0  0  0  0  0  0  0  0
    1.5339   23.6763  -26.8940 H   0  0  0  0  0  0  0  0  0  0  0  0
    1.6563   25.2217  -27.8453 H   0  0  0  0  0  0  0  0  0  0  0  0
   -0.9850   24.8160  -26.9820 H   0  0  0  0  0  0  0  0  0  0  0  0
    1.1319   26.8036  -26.3747 H   0  0  0  0  0  0  0  0  0  0  0  0
   -0.0918   26.8509  -27.7112 H   0  0  0  0  0  0  0  0  0  0  0  0
   -0.3494   27.9776  -25.1327 H   0  0  0  0  0  0  0  0  0  0  0  0
   -1.6498   27.7342  -26.3830 H   0  0  0  0  0  0  0  0  0  0  0  0
    0.1153   26.1757  -23.7316 H   0  0  0  0  0  0  0  0  0  0  0  0
   -1.1646   24.9280  -23.4690 H   0  0  0  0  0  0  0  0  0  0  0  0
    1.1382   24.5257  -24.9371 H   0  0  0  0  0  0  0  0  0  0  0  0
   -0.4145   23.6055  -25.1441 H   0  0  0  0  0  0  0  0  0  0  0  0
   -0.4372   22.6003  -26.0885 H   0  0  0  0  0  0  0  0  0  0  0  0
   -1.1664   20.4886  -24.9973 H   0  0  0  0  0  0  0  0  0  0  0  0
   -2.6559   18.9068  -26.2062 H   0  0  0  0  0  0  0  0  0  0  0  0
   -3.3942   19.4099  -28.5237 H   0  0  0  0  0  0  0  0  0  0  0  0
  1  2  1  0
  2  3  1  0
  3  4  1  0
  4  5  1  0
  5  6  1  0
  6  7  2  0
  6  8  1  0
  8  9  1  0
  9 10  1  0
 10 11  2  0
 10 12  1  0
 12 13  2  0
 13 14  1  0
 14 15  2  0
 15 16  1  0
 15 17  1  0
 17 18  2  0
  8 19  1  0
 19 20  2  0
 19 21  1  0
 21 22  1  0
 22 23  1  0
 23 24  1  0
 24 25  1  0
 25 26  1  0
 26 27  1  0
 27 28  1  0
 28 29  1  0
 21 30  1  0
 30 31  2  0
 31 32  1  0
 32 33  2  0
 33 34  1  0
 34 35  2  0
 35  5  1  0
 18 12  1  0
 29 24  1  0
 35 30  1  0
  1 36  1  0
  1 37  1  0
  1 38  1  0
  2 39  1  0
  2 40  1  0
  3 41  1  0
  3 42  1  0
  4 43  1  0
  4 44  1  0
  8 45  1  1
 13 46  1  0
 14 47  1  0
 16 48  1  0
 16 49  1  0
 16 50  1  0
 17 51  1  0
 18 52  1  0
 22 53  1  0
 22 54  1  0
 23 55  1  0
 23 56  1  0
 24 57  1  0
 25 58  1  0
 25 59  1  0
 26 60  1  0
 26 61  1  0
 28 62  1  0
 28 63  1  0
 29 64  1  0
 29 65  1  0
 31 66  1  0
 32 67  1  0
 33 68  1  0
 34 69  1  0
M  CHG  2   9  -1  24   1
M  END
>  <UniqueID>  (29) 
29

>  <SMILES>  (29) 
CCCCN1C(=O)[C@H]([N-]C(=O)c2ccc(C)cc2)C(=O)N(CC[NH+]2CCOCC2)c2ccccc21

>  <Energy>  (29) 
93.13841525527677

>  <Genealogy>  (29) 
CCCCN1C(=O)C([N-]C(=O)c2ccc(C)cc2)C(=O)N(CC[NH+]2CCOCC2)c2ccccc21 (protonated)
CCCCN1C(=O)[C@H]([N-]C(=O)c2ccc(C)cc2)C(=O)N(CC[NH+]2CCOCC2)c2ccccc21 (chirality)
CCCCN1C(=O)[C@H]([N-]C(=O)c2ccc(C)cc2)C(=O)N(CC[NH+]2CCOCC2)c2ccccc21 (3D coordinates assigned)
CCCCN1C(=O)[C@H]([N-]C(=O)c2ccc(C)cc2)C(=O)N(CC[NH+]2CCOCC2)c2ccccc21 (nonaromatic ring conformer: 93.13841525527677 kcal/mol)

>  <smiles>  (29) 
CCCCN1C(=O)C(NC(=O)c2ccc(C)cc2)C(=O)N(CCN2CCOCC2)c2ccccc21

>  <score_type>  (29) 
oracle

>  <origin>  (29) 
adg

>  <m_score__min__energy>  (29) 
-8.6699999999999999

>  <m_primary>  (29) 
energy

$$$$
29:0
     RDKit          3D

 32 32  0  0  0  0  0  0  0  0999 V2000
   -6.4360   24.1900  -31.5150 C   0  0  0  0  0  0  0  0  0  0  0  0
   -6.5710   22.7370  -31.8430 C   0  0  0  0  0  0  0  0  0  0  0  0
   -5.2760   21.6740  -31.9920 S   0  0  0  0  0  0  0  0  0  0  0  0
   -6.2050   20.3180  -32.3320 C   0  0  0  0  0  0  0  0  0  0  0  0
   -5.6580   19.0050  -32.5200 N   0  0  0  0  0  0  0  0  0  0  0  0
   -5.8110   18.2570  -33.7370 C   0  0  0  0  0  0  0  0  0  0  0  0
   -6.1000   18.8670  -34.8050 O   0  0  0  0  0  0  0  0  0  0  0  0
   -5.5400   16.7600  -33.7640 C   0  0  0  0  0  0  0  0  0  0  0  0
   -4.3900   16.4700  -34.7460 C   0  0  0  0  0  0  0  0  0  0  0  0
   -5.1540   16.2740  -32.3520 C   0  0  0  0  0  0  0  0  0  0  0  0
   -6.7970   15.9860  -34.2190 C   0  0  0  0  0  0  0  0  0  0  0  0
   -7.5580   20.6640  -32.2930 C   0  0  0  0  0  0  0  0  0  0  0  0
   -8.6310   19.7090  -32.4370 C   0  0  0  0  0  0  0  0  0  0  0  0
   -9.4900   18.9440  -32.5510 N   0  0  0  0  0  0  0  0  0  0  0  0
   -7.7660   22.0280  -32.0060 C   0  0  0  0  0  0  0  0  0  0  0  0
   -9.1250   22.6700  -31.9390 C   0  0  0  0  0  0  0  0  0  0  0  0
   -6.4239   24.3197  -30.4227 H   0  0  0  0  0  0  0  0  0  0  0  0
   -5.4981   24.5763  -31.9405 H   0  0  0  0  0  0  0  0  0  0  0  0
   -7.2867   24.7425  -31.9405 H   0  0  0  0  0  0  0  0  0  0  0  0
   -5.0120   18.6430  -31.7850 H   0  0  0  0  0  0  0  0  0  0  0  0
   -3.4748   16.2392  -34.1810 H   0  0  0  0  0  0  0  0  0  0  0  0
   -4.6564   15.6109  -35.3792 H   0  0  0  0  0  0  0  0  0  0  0  0
   -4.2172   17.3527  -35.3792 H   0  0  0  0  0  0  0  0  0  0  0  0
   -5.6527   16.9019  -31.5990 H   0  0  0  0  0  0  0  0  0  0  0  0
   -5.4703   15.2281  -32.2250 H   0  0  0  0  0  0  0  0  0  0  0  0
   -4.0637   16.3453  -32.2250 H   0  0  0  0  0  0  0  0  0  0  0  0
   -7.3555   15.6421  -33.3359 H   0  0  0  0  0  0  0  0  0  0  0  0
   -7.4362   16.6471  -34.8225 H   0  0  0  0  0  0  0  0  0  0  0  0
   -6.4944   15.1176  -34.8225 H   0  0  0  0  0  0  0  0  0  0  0  0
   -9.4144   22.8067  -30.8866 H   0  0  0  0  0  0  0  0  0  0  0  0
   -9.0935   23.6484  -32.4407 H   0  0  0  0  0  0  0  0  0  0  0  0
   -9.8607   22.0242  -32.4407 H   0  0  0  0  0  0  0  0  0  0  0  0
  1  2  1  0
  2  3  1  0
  3  4  1  0
  4  5  1  0
  5  6  1  0
  6  7  2  0
  6  8  1  0
  8  9  1  0
  8 10  1  0
  8 11  1  0
  4 12  2  0
 12 13  1  0
 13 14  3  0
 12 15  1  0
 15 16  1  0
 15  2  2  0
  1 17  1  0
  1 18  1  0
  1 19  1  0
  5 20  1  0
  9 21  1  0
  9 22  1  0
  9 23  1  0
 10 24  1  0
 10 25  1  0
 10 26  1  0
 11 27  1  0
 11 28  1  0
 11 29  1  0
 16 30  1  0
 16 31  1  0
 16 32  1  0
M  END
>  <UniqueID>  (30) 
30

>  <SMILES>  (30) 
Cc1sc(NC(=O)C(C)(C)C)c(C#N)c1C

>  <Energy>  (30) 
54.52070868247553

>  <Genealogy>  (30) 
Cc1sc(NC(=O)C(C)(C)C)c(C#N)c1C (3D coordinates assigned)
Cc1sc(NC(=O)C(C)(C)C)c(C#N)c1C (optimized conformer: 54.52070868247553 kcal/mol)

>  <smiles>  (30) 
Cc1sc(NC(=O)C(C)(C)C)c(C#N)c1C

>  <score_type>  (30) 
oracle

>  <origin>  (30) 
adg

>  <m_score__min__energy>  (30) 
-6.1399999999999997

>  <m_primary>  (30) 
energy

$$$$
30:0
     RDKit          3D

 32 34  0  0  0  0  0  0  0  0999 V2000
   -0.4300   25.4640  -24.1770 C   0  0  0  0  0  0  0  0  0  0  0  0
   -1.1820   26.1850  -25.1460 O   0  0  0  0  0  0  0  0  0  0  0  0
   -1.8760   25.5930  -26.2120 C   0  0  0  0  0  0  0  0  0  0  0  0
   -3.2000   25.1350  -26.0900 C   0  0  0  0  0  0  0  0  0  0  0  0
   -3.8480   24.5500  -27.1820 C   0  0  0  0  0  0  0  0  0  0  0  0
   -3.1860   24.4070  -28.4120 C   0  0  0  0  0  0  0  0  0  0  0  0
   -3.8480   23.8160  -29.5450 N   0  0  0  0  0  0  0  0  0  0  0  0
   -4.2230   22.2050  -29.7200 S   0  0  0  0  0  0  0  0  0  0  0  0
   -4.9370   22.3330  -31.2230 C   0  0  0  0  0  0  0  0  0  0  0  0
   -5.5630   21.2420  -31.9990 C   0  0  0  0  0  0  0  0  0  0  0  0
   -6.9580   21.0260  -31.9220 C   0  0  0  0  0  0  0  0  0  0  0  0
   -7.9970   21.9930  -30.8790 Cl  0  0  0  0  0  0  0  0  0  0  0  0
   -7.5480   19.9880  -32.6540 C   0  0  0  0  0  0  0  0  0  0  0  0
   -6.7690   19.1660  -33.4650 C   0  0  0  0  0  0  0  0  0  0  0  0
   -5.3930   19.3740  -33.5550 C   0  0  0  0  0  0  0  0  0  0  0  0
   -4.7840   20.4060  -32.8310 C   0  0  0  0  0  0  0  0  0  0  0  0
   -3.0540   20.6530  -33.0560 Cl  0  0  0  0  0  0  0  0  0  0  0  0
   -4.9180   23.6320  -31.6050 N   0  0  0  0  0  0  0  0  0  0  0  0
   -4.3160   24.4290  -30.6720 C   0  0  0  0  0  0  0  0  0  0  0  0
   -4.2320   25.6740  -30.8430 O   0  0  0  0  0  0  0  0  0  0  0  0
   -1.8680   24.8770  -28.5330 C   0  0  0  0  0  0  0  0  0  0  0  0
   -1.2190   25.4600  -27.4410 C   0  0  0  0  0  0  0  0  0  0  0  0
   -0.7460   25.7670  -23.1679 H   0  0  0  0  0  0  0  0  0  0  0  0
   -0.6029   24.3855  -24.3070 H   0  0  0  0  0  0  0  0  0  0  0  0
    0.6403   25.6821  -24.3070 H   0  0  0  0  0  0  0  0  0  0  0  0
   -3.7284   25.2375  -25.1307 H   0  0  0  0  0  0  0  0  0  0  0  0
   -4.8851   24.1988  -27.0767 H   0  0  0  0  0  0  0  0  0  0  0  0
   -8.6332   19.8208  -32.5881 H   0  0  0  0  0  0  0  0  0  0  0  0
   -7.2398   18.3517  -34.0352 H   0  0  0  0  0  0  0  0  0  0  0  0
   -4.7826   18.7235  -34.1986 H   0  0  0  0  0  0  0  0  0  0  0  0
   -1.3423   24.7855  -29.4949 H   0  0  0  0  0  0  0  0  0  0  0  0
   -0.1841   25.8170  -27.5481 H   0  0  0  0  0  0  0  0  0  0  0  0
  1  2  1  0
  2  3  1  0
  3  4  2  0
  4  5  1  0
  5  6  2  0
  6  7  1  0
  7  8  1  0
  8  9  1  0
  9 10  1  0
 10 11  2  0
 11 12  1  0
 11 13  1  0
 13 14  2  0
 14 15  1  0
 15 16  2  0
 16 17  1  0
  9 18  2  0
 18 19  1  0
 19 20  2  0
  6 21  1  0
 21 22  2  0
 22  3  1  0
 19  7  1  0
 16 10  1  0
  1 23  1  0
  1 24  1  0
  1 25  1  0
  4 26  1  0
  5 27  1  0
 13 28  1  0
 14 29  1  0
 15 30  1  0
 21 31  1  0
 22 32  1  0
M  END
>  <UniqueID>  (31) 
31

>  <SMILES>  (31) 
COc1ccc(-n2sc(-c3c(Cl)cccc3Cl)nc2=O)cc1

>  <Energy>  (31) 
85.73080460723692

>  <Genealogy>  (31) 
COc1ccc(-n2sc(-c3c(Cl)cccc3Cl)nc2=O)cc1 (3D coordinates assigned)
COc1ccc(-n2sc(-c3c(Cl)cccc3Cl)nc2=O)cc1 (optimized conformer: 85.73080460723692 kcal/mol)

>  <smiles>  (31) 
COc1ccc(-n2sc(-c3c(Cl)cccc3Cl)nc2=O)cc1

>  <score_type>  (31) 
oracle

>  <origin>  (31) 
adg

>  <m_score__min__energy>  (31) 
-8.3900000000000006

>  <m_primary>  (31) 
energy

$$$$
31:0
     RDKit          3D

 37 39  0  0  0  0  0  0  0  0999 V2000
   -1.5480   25.0270  -28.3000 C   0  0  0  0  0  0  0  0  0  0  0  0
   -2.4650   25.2940  -29.3560 O   0  0  0  0  0  0  0  0  0  0  0  0
   -3.6810   24.6190  -29.5380 C   0  0  0  0  0  0  0  0  0  0  0  0
   -4.6600   25.2180  -30.3390 C   0  0  0  0  0  0  0  0  0  0  0  0
   -5.8880   24.5840  -30.5530 C   0  0  0  0  0  0  0  0  0  0  0  0
   -6.1540   23.3390  -29.9640 C   0  0  0  0  0  0  0  0  0  0  0  0
   -7.4670   22.6510  -30.2150 C   0  0  0  0  0  0  0  0  0  0  0  0
   -7.9620   22.8270  -31.9660 S   0  0  0  0  0  0  0  0  0  0  0  0
   -8.1960   21.0660  -32.2430 C   0  0  0  0  0  0  0  0  0  0  0  0
   -9.3470   20.4250  -31.9840 N   0  0  0  0  0  0  0  0  0  0  0  0
   -9.1550   19.1330  -32.1880 N   0  0  0  0  0  0  0  0  0  0  0  0
   -7.8680   18.9970  -32.5670 C   0  0  0  0  0  0  0  0  0  0  0  0
   -7.2360   20.1900  -32.6130 N   0  0  0  0  0  0  0  0  0  0  0  0
   -5.8350   20.4110  -32.8530 C   0  0  0  0  0  0  0  0  0  0  0  0
   -5.2570   21.6790  -32.6590 C   0  0  0  0  0  0  0  0  0  0  0  0
   -3.8950   21.8810  -32.9030 C   0  0  0  0  0  0  0  0  0  0  0  0
   -3.0970   20.8240  -33.3490 C   0  0  0  0  0  0  0  0  0  0  0  0
   -3.6630   19.5640  -33.5570 C   0  0  0  0  0  0  0  0  0  0  0  0
   -5.0250   19.3580  -33.3140 C   0  0  0  0  0  0  0  0  0  0  0  0
   -5.1750   22.7370  -29.1590 C   0  0  0  0  0  0  0  0  0  0  0  0
   -3.9460   23.3700  -28.9470 C   0  0  0  0  0  0  0  0  0  0  0  0
   -2.0504   25.1733  -27.3324 H   0  0  0  0  0  0  0  0  0  0  0  0
   -1.1937   23.9884  -28.3759 H   0  0  0  0  0  0  0  0  0  0  0  0
   -0.6915   25.7131  -28.3759 H   0  0  0  0  0  0  0  0  0  0  0  0
   -4.4620   26.1951  -30.8038 H   0  0  0  0  0  0  0  0  0  0  0  0
   -6.6488   25.0638  -31.1861 H   0  0  0  0  0  0  0  0  0  0  0  0
   -7.3672   21.5825  -29.9733 H   0  0  0  0  0  0  0  0  0  0  0  0
   -8.2369   23.1146  -29.5807 H   0  0  0  0  0  0  0  0  0  0  0  0
  -10.2420   20.8480  -31.6490 H   0  0  0  0  0  0  0  0  0  0  0  0
   -7.3924   18.0350  -32.8085 H   0  0  0  0  0  0  0  0  0  0  0  0
   -5.8804   22.5167  -32.3132 H   0  0  0  0  0  0  0  0  0  0  0  0
   -3.4506   22.8745  -32.7435 H   0  0  0  0  0  0  0  0  0  0  0  0
   -2.0249   20.9840  -33.5360 H   0  0  0  0  0  0  0  0  0  0  0  0
   -3.0367   18.7325  -33.9124 H   0  0  0  0  0  0  0  0  0  0  0  0
   -5.4658   18.3648  -33.4848 H   0  0  0  0  0  0  0  0  0  0  0  0
   -5.3753   21.7614  -28.6919 H   0  0  0  0  0  0  0  0  0  0  0  0
   -3.1838   22.8896  -28.3159 H   0  0  0  0  0  0  0  0  0  0  0  0
  1  2  1  0
  2  3  1  0
  3  4  2  0
  4  5  1  0
  5  6  2  0
  6  7  1  0
  7  8  1  0
  8  9  1  0
  9 10  2  0
 10 11  1  0
 11 12  2  0
 12 13  1  0
 13 14  1  0
 14 15  2  0
 15 16  1  0
 16 17  2  0
 17 18  1  0
 18 19  2  0
  6 20  1  0
 20 21  2  0
 21  3  1  0
 13  9  1  0
 19 14  1  0
  1 22  1  0
  1 23  1  0
  1 24  1  0
  4 25  1  0
  5 26  1  0
  7 27  1  0
  7 28  1  0
 10 29  1  0
 12 30  1  0
 15 31  1  0
 16 32  1  0
 17 33  1  0
 18 34  1  0
 19 35  1  0
 20 36  1  0
 21 37  1  0
M  CHG  1  10   1
M  END
>  <UniqueID>  (32) 
32

>  <SMILES>  (32) 
COc1ccc(CSc2[nH+]ncn2-c2ccccc2)cc1

>  <Energy>  (32) 
75.18444713942883

>  <Genealogy>  (32) 
COc1ccc(CSc2[nH+]ncn2-c2ccccc2)cc1 (protonated)
COc1ccc(CSc2[nH+]ncn2-c2ccccc2)cc1 (3D coordinates assigned)
COc1ccc(CSc2[nH+]ncn2-c2ccccc2)cc1 (optimized conformer: 75.18444713942883 kcal/mol)

>  <smiles>  (32) 
COc1ccc(CSc2nncn2-c2ccccc2)cc1

>  <score_type>  (32) 
oracle

>  <origin>  (32) 
adg

>  <m_score__min__energy>  (32) 
-7.7800000000000002

>  <m_primary>  (32) 
energy

$$$$
32:0
     RDKit          3D

 59 63  0  0  0  0  0  0  0  0999 V2000
   -0.3360   19.0070  -31.3980 C   0  0  0  0  0  0  0  0  0  0  0  0
   -0.1250   19.9860  -32.5640 C   0  0  0  0  0  0  0  0  0  0  0  0
   -1.4190   20.6960  -33.0830 C   0  0  1  0  0  0  0  0  0  0  0  0
   -1.0750   21.5720  -34.1310 O   0  0  0  0  0  0  0  0  0  0  0  0
   -2.4700   19.6940  -33.5660 C   0  0  0  0  0  0  0  0  0  0  0  0
   -2.1880   18.4890  -33.7960 O   0  0  0  0  0  0  0  0  0  0  0  0
   -3.7890   20.1190  -33.7370 O   0  0  0  0  0  0  0  0  0  0  0  0
   -4.1770   21.4600  -33.4610 C   0  0  0  0  0  0  0  0  0  0  0  0
   -3.4640   21.9530  -32.2250 C   0  0  0  0  0  0  0  0  0  0  0  0
   -2.1120   21.5510  -32.0030 C   0  0  0  0  0  0  0  0  0  0  0  0
   -1.4500   22.0340  -30.8470 C   0  0  0  0  0  0  0  0  0  0  0  0
   -2.1460   22.8690  -29.9790 C   0  0  0  0  0  0  0  0  0  0  0  0
   -3.4210   23.2420  -30.2160 N   0  0  0  0  0  0  0  0  0  0  0  0
   -4.1040   22.8200  -31.3130 C   0  0  0  0  0  0  0  0  0  0  0  0
   -5.2890   23.2040  -31.5050 O   0  0  0  0  0  0  0  0  0  0  0  0
   -3.9090   24.1350  -29.1560 C   0  0  0  0  0  0  0  0  0  0  0  0
   -2.7160   24.2310  -28.2510 C   0  0  0  0  0  0  0  0  0  0  0  0
   -2.5530   24.9390  -27.0640 C   0  0  0  0  0  0  0  0  0  0  0  0
   -1.3080   24.8530  -26.4090 C   0  0  0  0  0  0  0  0  0  0  0  0
   -1.0760   25.5390  -25.2090 C   0  0  0  0  0  0  0  0  0  0  0  0
    0.1700   25.4420  -24.5640 C   0  0  0  0  0  0  0  0  0  0  0  0
    0.3980   26.1310  -23.3150 N   0  0  0  0  0  0  0  0  0  0  0  0
    0.3630   27.5960  -23.4830 C   0  0  0  0  0  0  0  0  0  0  0  0
    1.7660   28.2350  -23.5360 C   0  0  0  0  0  0  0  0  0  0  0  0
    2.8240   27.2290  -23.7720 N   0  0  0  0  0  0  0  0  0  0  0  0
    3.6360   27.5790  -24.9510 C   0  0  0  0  0  0  0  0  0  0  0  0
    3.6960   27.1270  -22.5910 C   0  0  0  0  0  0  0  0  0  0  0  0
    1.1850   24.6520  -25.1350 C   0  0  0  0  0  0  0  0  0  0  0  0
    0.9640   23.9640  -26.3310 C   0  0  0  0  0  0  0  0  0  0  0  0
   -0.2720   24.0540  -26.9760 C   0  0  0  0  0  0  0  0  0  0  0  0
   -0.4820   23.3780  -28.1440 N   0  0  0  0  0  0  0  0  0  0  0  0
   -1.6880   23.4770  -28.7560 C   0  0  0  0  0  0  0  0  0  0  0  0
   -0.2206   19.5425  -30.4441 H   0  0  0  0  0  0  0  0  0  0  0  0
   -1.3472   18.5781  -31.4577 H   0  0  0  0  0  0  0  0  0  0  0  0
    0.4088   18.1997  -31.4577 H   0  0  0  0  0  0  0  0  0  0  0  0
    0.5792   20.7631  -32.2321 H   0  0  0  0  0  0  0  0  0  0  0  0
    0.2488   19.3825  -33.4042 H   0  0  0  0  0  0  0  0  0  0  0  0
   -1.7890   21.5380  -34.8210 H   0  0  0  0  0  0  0  0  0  0  0  0
   -3.9123   22.1002  -34.3154 H   0  0  0  0  0  0  0  0  0  0  0  0
   -5.2635   21.4972  -33.2934 H   0  0  0  0  0  0  0  0  0  0  0  0
   -0.4065   21.7542  -30.6401 H   0  0  0  0  0  0  0  0  0  0  0  0
   -4.1842   25.1206  -29.5596 H   0  0  0  0  0  0  0  0  0  0  0  0
   -4.8171   23.7703  -28.6536 H   0  0  0  0  0  0  0  0  0  0  0  0
   -3.3707   25.5470  -26.6497 H   0  0  0  0  0  0  0  0  0  0  0  0
   -1.8729   26.1567  -24.7692 H   0  0  0  0  0  0  0  0  0  0  0  0
   -0.2980   25.8340  -22.5910 H   0  0  0  0  0  0  0  0  0  0  0  0
    1.3430   25.8630  -22.9510 H   0  0  0  0  0  0  0  0  0  0  0  0
   -0.1625   27.8279  -24.4211 H   0  0  0  0  0  0  0  0  0  0  0  0
   -0.1535   28.0135  -22.6061 H   0  0  0  0  0  0  0  0  0  0  0  0
    1.7895   28.9732  -24.3512 H   0  0  0  0  0  0  0  0  0  0  0  0
    1.9599   28.7105  -22.5632 H   0  0  0  0  0  0  0  0  0  0  0  0
    4.5999   27.9945  -24.6221 H   0  0  0  0  0  0  0  0  0  0  0  0
    3.8126   26.6771  -25.5555 H   0  0  0  0  0  0  0  0  0  0  0  0
    3.1016   28.3267  -25.5555 H   0  0  0  0  0  0  0  0  0  0  0  0
    3.0866   27.1983  -21.6780 H   0  0  0  0  0  0  0  0  0  0  0  0
    4.2223   26.1612  -22.6061 H   0  0  0  0  0  0  0  0  0  0  0  0
    4.4310   27.9453  -22.6061 H   0  0  0  0  0  0  0  0  0  0  0  0
    2.1618   24.5753  -24.6350 H   0  0  0  0  0  0  0  0  0  0  0  0
    1.7659   23.3495  -26.7661 H   0  0  0  0  0  0  0  0  0  0  0  0
  1  2  1  0
  2  3  1  0
  3  4  1  6
  3  5  1  0
  5  6  2  0
  5  7  1  0
  7  8  1  0
  8  9  1  0
  9 10  2  0
 10 11  1  0
 11 12  2  0
 12 13  1  0
 13 14  1  0
 14 15  2  0
 13 16  1  0
 16 17  1  0
 17 18  2  0
 18 19  1  0
 19 20  2  0
 20 21  1  0
 21 22  1  0
 22 23  1  0
 23 24  1  0
 24 25  1  0
 25 26  1  0
 25 27  1  0
 21 28  2  0
 28 29  1  0
 29 30  2  0
 30 31  1  0
 31 32  2  0
 10  3  1  0
 32 12  1  0
 14  9  1  0
 32 17  1  0
 30 19  1  0
  1 33  1  0
  1 34  1  0
  1 35  1  0
  2 36  1  0
  2 37  1  0
  4 38  1  0
  8 39  1  0
  8 40  1  0
 11 41  1  0
 16 42  1  0
 16 43  1  0
 18 44  1  0
 20 45  1  0
 22 46  1  0
 22 47  1  0
 23 48  1  0
 23 49  1  0
 24 50  1  0
 24 51  1  0
 26 52  1  0
 26 53  1  0
 26 54  1  0
 27 55  1  0
 27 56  1  0
 27 57  1  0
 28 58  1  0
 29 59  1  0
M  CHG  1  22   1
M  END
>  <UniqueID>  (33) 
33

>  <SMILES>  (33) 
CC[C@@]1(O)C(=O)OCc2c1cc1n(c2=O)Cc2cc3cc([NH2+]CCN(C)C)ccc3nc2-1

>  <Energy>  (33) 
105.59889484621091

>  <Genealogy>  (33) 
CCC1(O)C(=O)OCc2c1cc1n(c2=O)Cc2cc3cc([NH2+]CCN(C)C)ccc3nc2-1 (protonated)
CC[C@@]1(O)C(=O)OCc2c1cc1n(c2=O)Cc2cc3cc([NH2+]CCN(C)C)ccc3nc2-1 (chirality)
CC[C@@]1(O)C(=O)OCc2c1cc1n(c2=O)Cc2cc3cc([NH2+]CCN(C)C)ccc3nc2-1 (3D coordinates assigned)
CC[C@@]1(O)C(=O)OCc2c1cc1n(c2=O)Cc2cc3cc([NH2+]CCN(C)C)ccc3nc2-1 (nonaromatic ring conformer: 105.59889484621091 kcal/mol)

>  <smiles>  (33) 
CCC1(O)C(=O)OCc2c1cc1n(c2=O)Cc2cc3cc(NCCN(C)C)ccc3nc2-1

>  <score_type>  (33) 
oracle

>  <origin>  (33) 
adg

>  <m_score__min__energy>  (33) 
-8.4100000000000001

>  <m_primary>  (33) 
energy

$$$$
33:0
     RDKit          3D

 42 45  0  0  0  0  0  0  0  0999 V2000
   -5.3450   25.2880  -30.8370 C   0  0  0  0  0  0  0  0  0  0  0  0
   -3.9880   24.8600  -30.8100 O   0  0  0  0  0  0  0  0  0  0  0  0
   -3.3860   24.1810  -29.7370 C   0  0  0  0  0  0  0  0  0  0  0  0
   -2.6770   24.8690  -28.7310 C   0  0  0  0  0  0  0  0  0  0  0  0
   -2.1350   24.1740  -27.6470 C   0  0  0  0  0  0  0  0  0  0  0  0
   -2.2970   22.7910  -27.5510 C   0  0  0  0  0  0  0  0  0  0  0  0
   -2.9890   22.0980  -28.5440 C   0  0  0  0  0  0  0  0  0  0  0  0
   -3.5190   22.7790  -29.6520 C   0  0  0  0  0  0  0  0  0  0  0  0
   -4.2210   22.0340  -30.6610 N   0  0  0  0  0  0  0  0  0  0  0  0
   -5.5150   22.1810  -30.9200 N   0  0  0  0  0  0  0  0  0  0  0  0
   -5.8020   21.2770  -31.8810 C   0  0  0  0  0  0  0  0  0  0  0  0
   -7.0460   21.0620  -32.4950 C   0  0  0  0  0  0  0  0  0  0  0  0
   -8.2220   21.8230  -32.1320 N   0  0  0  0  0  0  0  0  0  0  0  0
   -8.1590   23.2780  -31.9710 C   0  0  0  0  0  0  0  0  0  0  0  0
   -9.4880   21.1310  -31.8760 C   0  0  0  0  0  0  0  0  0  0  0  0
   -7.1100   20.1010  -33.4710 N   0  0  0  0  0  0  0  0  0  0  0  0
   -6.0150   19.3640  -33.8340 C   0  0  0  0  0  0  0  0  0  0  0  0
   -6.1200   18.4140  -34.8030 N   0  0  0  0  0  0  0  0  0  0  0  0
   -5.0540   17.6650  -35.1870 C   0  0  0  0  0  0  0  0  0  0  0  0
   -3.8060   17.8580  -34.5900 C   0  0  0  0  0  0  0  0  0  0  0  0
   -3.6600   18.8250  -33.5920 C   0  0  0  0  0  0  0  0  0  0  0  0
   -4.7700   19.5890  -33.2000 C   0  0  0  0  0  0  0  0  0  0  0  0
   -4.7230   20.5550  -32.2400 N   0  0  0  0  0  0  0  0  0  0  0  0
   -3.7490   21.0430  -31.4460 C   0  0  0  0  0  0  0  0  0  0  0  0
   -2.5680   20.6050  -31.4030 O   0  0  0  0  0  0  0  0  0  0  0  0
   -5.7134   25.4042  -29.8071 H   0  0  0  0  0  0  0  0  0  0  0  0
   -5.4151   26.2519  -31.3624 H   0  0  0  0  0  0  0  0  0  0  0  0
   -5.9554   24.5388  -31.3624 H   0  0  0  0  0  0  0  0  0  0  0  0
   -2.5499   25.9594  -28.8001 H   0  0  0  0  0  0  0  0  0  0  0  0
   -1.5799   24.7174  -26.8682 H   0  0  0  0  0  0  0  0  0  0  0  0
   -1.8785   22.2471  -26.6913 H   0  0  0  0  0  0  0  0  0  0  0  0
   -3.1207   21.0093  -28.4586 H   0  0  0  0  0  0  0  0  0  0  0  0
   -8.1482   23.5283  -30.8999 H   0  0  0  0  0  0  0  0  0  0  0  0
   -7.2435   23.6602  -32.4461 H   0  0  0  0  0  0  0  0  0  0  0  0
   -9.0381   23.7379  -32.4461 H   0  0  0  0  0  0  0  0  0  0  0  0
   -9.6458   21.0447  -30.7908 H   0  0  0  0  0  0  0  0  0  0  0  0
  -10.3151   21.7025  -32.3225 H   0  0  0  0  0  0  0  0  0  0  0  0
   -9.4535   20.1263  -32.3225 H   0  0  0  0  0  0  0  0  0  0  0  0
   -8.0180   19.9020  -33.9460 H   0  0  0  0  0  0  0  0  0  0  0  0
   -5.1740   16.9032  -35.9714 H   0  0  0  0  0  0  0  0  0  0  0  0
   -2.9431   17.2522  -34.9037 H   0  0  0  0  0  0  0  0  0  0  0  0
   -2.6812   18.9864  -33.1166 H   0  0  0  0  0  0  0  0  0  0  0  0
  1  2  1  0
  2  3  1  0
  3  4  2  0
  4  5  1  0
  5  6  2  0
  6  7  1  0
  7  8  2  0
  8  9  1  0
  9 10  1  0
 10 11  2  0
 11 12  1  0
 12 13  1  0
 13 14  1  0
 13 15  1  0
 12 16  2  0
 16 17  1  0
 17 18  2  0
 18 19  1  0
 19 20  2  0
 20 21  1  0
 21 22  2  0
 22 23  1  0
 23 24  1  0
 24 25  2  0
  8  3  1  0
 24  9  1  0
 23 11  1  0
 22 17  1  0
  1 26  1  0
  1 27  1  0
  1 28  1  0
  4 29  1  0
  5 30  1  0
  6 31  1  0
  7 32  1  0
 14 33  1  0
 14 34  1  0
 14 35  1  0
 15 36  1  0
 15 37  1  0
 15 38  1  0
 16 39  1  0
 19 40  1  0
 20 41  1  0
 21 42  1  0
M  CHG  1  16   1
M  END
>  <UniqueID>  (34) 
34

>  <SMILES>  (34) 
COc1ccccc1-n1nc2c(N(C)C)[nH+]c3ncccc3n2c1=O

>  <Energy>  (34) 
103.96880919785114

>  <Genealogy>  (34) 
COc1ccccc1-n1nc2c(N(C)C)[nH+]c3ncccc3n2c1=O (protonated)
COc1ccccc1-n1nc2c(N(C)C)[nH+]c3ncccc3n2c1=O (3D coordinates assigned)
COc1ccccc1-n1nc2c(N(C)C)[nH+]c3ncccc3n2c1=O (optimized conformer: 103.96880919785114 kcal/mol)

>  <smiles>  (34) 
COc1ccccc1-n1nc2c(N(C)C)nc3ncccc3n2c1=O

>  <score_type>  (34) 
oracle

>  <origin>  (34) 
adg

>  <m_score__min__energy>  (34) 
-7.6799999999999997

>  <m_primary>  (34) 
energy

$$$$
34:0
     RDKit          3D

 51 53  0  0  0  0  0  0  0  0999 V2000
   -6.6140   16.2810  -33.8670 C   0  0  0  0  0  0  0  0  0  0  0  0
   -6.0680   17.6410  -34.0130 N   0  0  0  0  0  0  0  0  0  0  0  0
   -5.0910   17.6920  -35.1120 C   0  0  0  0  0  0  0  0  0  0  0  0
   -5.4450   18.0800  -32.7780 C   0  0  0  0  0  0  0  0  0  0  0  0
   -4.4210   17.5400  -32.3780 O   0  0  0  0  0  0  0  0  0  0  0  0
   -6.0060   19.2450  -31.9960 C   0  0  0  0  0  0  0  0  0  0  0  0
   -7.1210   19.8870  -32.7280 N   0  0  0  0  0  0  0  0  0  0  0  0
   -8.4210   19.4990  -32.1420 C   0  0  0  0  0  0  0  0  0  0  0  0
   -9.5980   20.3870  -32.6110 C   0  0  0  0  0  0  0  0  0  0  0  0
   -9.8430   21.5340  -31.8150 O   0  0  0  0  0  0  0  0  0  0  0  0
   -9.0470   22.6260  -32.2250 C   0  0  0  0  0  0  0  0  0  0  0  0
   -7.5340   22.3430  -31.9310 C   0  0  2  0  0  0  0  0  0  0  0  0
   -7.3140   21.9240  -30.4750 C   0  0  0  0  0  0  0  0  0  0  0  0
   -7.2130   23.2330  -29.6950 C   0  0  0  0  0  0  0  0  0  0  0  0
   -6.9860   24.3190  -30.6640 N   0  0  0  0  0  0  0  0  0  0  0  0
   -5.8670   25.1940  -30.2640 C   0  0  0  0  0  0  0  0  0  0  0  0
   -4.6530   24.3740  -29.9570 C   0  0  0  0  0  0  0  0  0  0  0  0
   -4.2830   23.9220  -28.7070 C   0  0  0  0  0  0  0  0  0  0  0  0
   -3.0930   23.2520  -28.8960 C   0  0  0  0  0  0  0  0  0  0  0  0
   -2.8130   23.3380  -30.2460 C   0  0  0  0  0  0  0  0  0  0  0  0
   -3.7610   24.0150  -30.8520 O   0  0  0  0  0  0  0  0  0  0  0  0
   -6.7570   23.6700  -31.9650 C   0  0  0  0  0  0  0  0  0  0  0  0
   -6.8960   21.3440  -32.9570 C   0  0  0  0  0  0  0  0  0  0  0  0
   -6.7116   16.0378  -32.7987 H   0  0  0  0  0  0  0  0  0  0  0  0
   -7.6026   16.2293  -34.3466 H   0  0  0  0  0  0  0  0  0  0  0  0
   -5.9356   15.5601  -34.3466 H   0  0  0  0  0  0  0  0  0  0  0  0
   -6.8620   18.2790  -34.2600 H   0  0  0  0  0  0  0  0  0  0  0  0
   -4.0740   17.7451  -34.6963 H   0  0  0  0  0  0  0  0  0  0  0  0
   -5.1875   16.7876  -35.7307 H   0  0  0  0  0  0  0  0  0  0  0  0
   -5.2811   18.5814  -35.7307 H   0  0  0  0  0  0  0  0  0  0  0  0
   -6.3745   18.8825  -31.0250 H   0  0  0  0  0  0  0  0  0  0  0  0
   -5.2074   19.9877  -31.8520 H   0  0  0  0  0  0  0  0  0  0  0  0
   -8.6348   18.4583  -32.4269 H   0  0  0  0  0  0  0  0  0  0  0  0
   -8.3353   19.6236  -31.0524 H   0  0  0  0  0  0  0  0  0  0  0  0
   -9.3830   20.7236  -33.6359 H   0  0  0  0  0  0  0  0  0  0  0  0
  -10.5007   19.7632  -32.5337 H   0  0  0  0  0  0  0  0  0  0  0  0
   -9.1820   22.7872  -33.3047 H   0  0  0  0  0  0  0  0  0  0  0  0
   -9.3566   23.5216  -31.6663 H   0  0  0  0  0  0  0  0  0  0  0  0
   -8.1619   21.3236  -30.1136 H   0  0  0  0  0  0  0  0  0  0  0  0
   -6.4137   21.3032  -30.3564 H   0  0  0  0  0  0  0  0  0  0  0  0
   -8.1477   23.4130  -29.1436 H   0  0  0  0  0  0  0  0  0  0  0  0
   -6.3864   23.1856  -28.9708 H   0  0  0  0  0  0  0  0  0  0  0  0
   -5.6378   25.8889  -31.0853 H   0  0  0  0  0  0  0  0  0  0  0  0
   -6.1561   25.7574  -29.3646 H   0  0  0  0  0  0  0  0  0  0  0  0
   -4.8234   24.0658  -27.7597 H   0  0  0  0  0  0  0  0  0  0  0  0
   -2.4881   22.7499  -28.1266 H   0  0  0  0  0  0  0  0  0  0  0  0
   -1.9299   22.9050  -30.7386 H   0  0  0  0  0  0  0  0  0  0  0  0
   -7.1298   24.3084  -32.7795 H   0  0  0  0  0  0  0  0  0  0  0  0
   -5.6848   23.4999  -32.1426 H   0  0  0  0  0  0  0  0  0  0  0  0
   -7.3006   21.5881  -33.9503 H   0  0  0  0  0  0  0  0  0  0  0  0
   -5.8104   21.4817  -32.8455 H   0  0  0  0  0  0  0  0  0  0  0  0
  1  2  1  0
  2  3  1  0
  2  4  1  0
  4  5  2  0
  4  6  1  0
  6  7  1  0
  7  8  1  0
  8  9  1  0
  9 10  1  0
 10 11  1  0
 12 11  1  6
 12 13  1  0
 13 14  1  0
 14 15  1  0
 15 16  1  0
 16 17  1  0
 17 18  2  0
 18 19  1  0
 19 20  2  0
 20 21  1  0
 15 22  1  0
 12 23  1  0
 23  7  1  0
 22 12  1  0
 21 17  1  0
  1 24  1  0
  1 25  1  0
  1 26  1  0
  2 27  1  0
  3 28  1  0
  3 29  1  0
  3 30  1  0
  6 31  1  0
  6 32  1  0
  8 33  1  0
  8 34  1  0
  9 35  1  0
  9 36  1  0
 11 37  1  0
 11 38  1  0
 13 39  1  0
 13 40  1  0
 14 41  1  0
 14 42  1  0
 16 43  1  0
 16 44  1  0
 18 45  1  0
 19 46  1  0
 20 47  1  0
 22 48  1  0
 22 49  1  0
 23 50  1  0
 23 51  1  0
M  CHG  1   2   1
M  END
>  <UniqueID>  (35) 
35

>  <SMILES>  (35) 
C[NH+](C)C(=O)CN1CCOC[C@@]2(CCN(Cc3ccco3)C2)C1

>  <Energy>  (35) 
101.77773302295446

>  <Genealogy>  (35) 
C[NH+](C)C(=O)CN1CCOCC2(CCN(Cc3ccco3)C2)C1 (protonated)
C[NH+](C)C(=O)CN1CCOC[C@@]2(CCN(Cc3ccco3)C2)C1 (chirality)
C[NH+](C)C(=O)CN1CCOC[C@@]2(CCN(Cc3ccco3)C2)C1 (3D coordinates assigned)
C[NH+](C)C(=O)CN1CCOC[C@@]2(CCN(Cc3ccco3)C2)C1 (nonaromatic ring conformer: 101.77773302295446 kcal/mol)

>  <smiles>  (35) 
CN(C)C(=O)CN1CCOCC2(CCN(Cc3ccco3)C2)C1

>  <score_type>  (35) 
oracle

>  <origin>  (35) 
adg

>  <m_score__min__energy>  (35) 
-5.8099999999999996

>  <m_primary>  (35) 
energy

$$$$
35:0
     RDKit          3D

 53 55  0  0  0  0  0  0  0  0999 V2000
    0.8430   27.5000  -23.3150 C   0  0  0  0  0  0  0  0  0  0  0  0
   -0.4630   26.6880  -23.3030 C   0  0  0  0  0  0  0  0  0  0  0  0
   -1.3170   26.8770  -24.5010 N   0  0  1  0  0  0  0  0  0  0  0  0
   -0.8670   27.9900  -25.3570 C   0  0  0  0  0  0  0  0  0  0  0  0
   -1.4720   25.6430  -25.2560 C   0  0  0  0  0  0  0  0  0  0  0  0
   -1.1910   24.5640  -24.7480 O   0  0  0  0  0  0  0  0  0  0  0  0
   -1.9900   25.6690  -26.6700 C   0  0  0  0  0  0  0  0  0  0  0  0
   -3.2160   24.7630  -26.8220 C   0  0  0  0  0  0  0  0  0  0  0  0
   -2.9820   23.7760  -27.8800 N   0  0  0  0  0  0  0  0  0  0  0  0
   -3.5070   23.7480  -29.1350 C   0  0  0  0  0  0  0  0  0  0  0  0
   -4.3630   24.8350  -29.7170 C   0  0  0  0  0  0  0  0  0  0  0  0
   -4.7230   24.5190  -31.0620 O   0  0  0  0  0  0  0  0  0  0  0  0
   -5.6830   23.5690  -31.4450 C   0  0  0  0  0  0  0  0  0  0  0  0
   -7.0520   23.7060  -31.1470 C   0  0  0  0  0  0  0  0  0  0  0  0
   -7.9640   22.7280  -31.5500 C   0  0  0  0  0  0  0  0  0  0  0  0
   -7.5250   21.5960  -32.2640 C   0  0  0  0  0  0  0  0  0  0  0  0
   -8.4030   20.5900  -32.6940 O   0  0  0  0  0  0  0  0  0  0  0  0
   -8.4260   19.2670  -32.1690 C   0  0  0  0  0  0  0  0  0  0  0  0
   -6.1640   21.4650  -32.5620 C   0  0  0  0  0  0  0  0  0  0  0  0
   -5.2520   22.4440  -32.1570 C   0  0  0  0  0  0  0  0  0  0  0  0
   -3.1530   22.6410  -29.8410 N   0  0  0  0  0  0  0  0  0  0  0  0
   -2.3900   21.9550  -28.9710 C   0  0  0  0  0  0  0  0  0  0  0  0
   -1.7760   20.7210  -29.1720 C   0  0  0  0  0  0  0  0  0  0  0  0
   -1.0420   20.1730  -28.1060 C   0  0  0  0  0  0  0  0  0  0  0  0
   -0.9470   20.8630  -26.8770 C   0  0  0  0  0  0  0  0  0  0  0  0
   -1.5780   22.1080  -26.7070 C   0  0  0  0  0  0  0  0  0  0  0  0
   -2.2900   22.6260  -27.7890 C   0  0  0  0  0  0  0  0  0  0  0  0
    1.1612   27.6979  -22.2808 H   0  0  0  0  0  0  0  0  0  0  0  0
    1.6252   26.9287  -23.8364 H   0  0  0  0  0  0  0  0  0  0  0  0
    0.6767   28.4542  -23.8364 H   0  0  0  0  0  0  0  0  0  0  0  0
   -0.2036   25.6215  -23.2310 H   0  0  0  0  0  0  0  0  0  0  0  0
   -1.0469   27.0482  -22.4431 H   0  0  0  0  0  0  0  0  0  0  0  0
   -2.2630   27.1590  -24.1470 H   0  0  0  0  0  0  0  0  0  0  0  0
   -0.5294   28.8250  -24.7254 H   0  0  0  0  0  0  0  0  0  0  0  0
   -0.0353   27.6510  -25.9921 H   0  0  0  0  0  0  0  0  0  0  0  0
   -1.7006   28.3243  -25.9921 H   0  0  0  0  0  0  0  0  0  0  0  0
   -2.2700   26.7001  -26.9317 H   0  0  0  0  0  0  0  0  0  0  0  0
   -1.1983   25.3029  -27.3402 H   0  0  0  0  0  0  0  0  0  0  0  0
   -3.4033   24.2411  -25.8720 H   0  0  0  0  0  0  0  0  0  0  0  0
   -4.0884   25.3778  -27.0883 H   0  0  0  0  0  0  0  0  0  0  0  0
   -5.2761   24.9400  -29.1126 H   0  0  0  0  0  0  0  0  0  0  0  0
   -3.7955   25.7773  -29.7116 H   0  0  0  0  0  0  0  0  0  0  0  0
   -7.4055   24.5884  -30.5935 H   0  0  0  0  0  0  0  0  0  0  0  0
   -9.0310   22.8424  -31.3085 H   0  0  0  0  0  0  0  0  0  0  0  0
   -8.4253   19.3087  -31.0698 H   0  0  0  0  0  0  0  0  0  0  0  0
   -9.3333   18.7506  -32.5158 H   0  0  0  0  0  0  0  0  0  0  0  0
   -7.5372   18.7194  -32.5158 H   0  0  0  0  0  0  0  0  0  0  0  0
   -5.8092   20.5853  -33.1190 H   0  0  0  0  0  0  0  0  0  0  0  0
   -4.1854   22.3290  -32.4003 H   0  0  0  0  0  0  0  0  0  0  0  0
   -1.8627   20.1929  -30.1331 H   0  0  0  0  0  0  0  0  0  0  0  0
   -0.5392   19.2024  -28.2293 H   0  0  0  0  0  0  0  0  0  0  0  0
   -0.3751   20.4230  -26.0468 H   0  0  0  0  0  0  0  0  0  0  0  0
   -1.5125   22.6542  -25.7545 H   0  0  0  0  0  0  0  0  0  0  0  0
  1  2  1  0
  2  3  1  0
  3  4  1  0
  3  5  1  0
  5  6  2  0
  5  7  1  0
  7  8  1  0
  8  9  1  0
  9 10  1  0
 10 11  1  0
 11 12  1  0
 12 13  1  0
 13 14  2  0
 14 15  1  0
 15 16  2  0
 16 17  1  0
 17 18  1  0
 16 19  1  0
 19 20  2  0
 10 21  2  0
 21 22  1  0
 22 23  2  0
 23 24  1  0
 24 25  2  0
 25 26  1  0
 26 27  2  0
 27  9  1  0
 20 13  1  0
 27 22  1  0
  1 28  1  0
  1 29  1  0
  1 30  1  0
  2 31  1  0
  2 32  1  0
  3 33  1  1
  4 34  1  0
  4 35  1  0
  4 36  1  0
  7 37  1  0
  7 38  1  0
  8 39  1  0
  8 40  1  0
 11 41  1  0
 11 42  1  0
 14 43  1  0
 15 44  1  0
 18 45  1  0
 18 46  1  0
 18 47  1  0
 19 48  1  0
 20 49  1  0
 23 50  1  0
 24 51  1  0
 25 52  1  0
 26 53  1  0
M  CHG  1   3   1
M  END
>  <UniqueID>  (36) 
36

>  <SMILES>  (36) 
CC[N@@H+](C)C(=O)CCn1c(COc2ccc(OC)cc2)nc2ccccc21

>  <Energy>  (36) 
88.23856539566479

>  <Genealogy>  (36) 
CC[NH+](C)C(=O)CCn1c(COc2ccc(OC)cc2)nc2ccccc21 (protonated)
CC[N@@H+](C)C(=O)CCn1c(COc2ccc(OC)cc2)nc2ccccc21 (chirality)
CC[N@@H+](C)C(=O)CCn1c(COc2ccc(OC)cc2)nc2ccccc21 (3D coordinates assigned)
CC[N@@H+](C)C(=O)CCn1c(COc2ccc(OC)cc2)nc2ccccc21 (optimized conformer: 88.23856539566479 kcal/mol)

>  <smiles>  (36) 
CCN(C)C(=O)CCn1c(COc2ccc(OC)cc2)nc2ccccc21

>  <score_type>  (36) 
oracle

>  <origin>  (36) 
adg

>  <m_score__min__energy>  (36) 
-7.4100000000000001

>  <m_primary>  (36) 
energy

$$$$
36:0
     RDKit          3D

 40 41  0  0  0  0  0  0  0  0999 V2000
   -3.1140   21.2310  -28.0400 C   0  0  0  0  0  0  0  0  0  0  0  0
   -2.2450   20.8650  -29.2520 C   0  0  0  0  0  0  0  0  0  0  0  0
   -1.7470   22.0350  -30.0270 N   0  0  0  0  0  0  0  0  0  0  0  0
   -0.9660   21.6520  -31.2340 C   0  0  0  0  0  0  0  0  0  0  0  0
   -1.8520   21.2660  -32.4240 C   0  0  0  0  0  0  0  0  0  0  0  0
   -0.9620   22.9570  -29.1590 C   0  0  0  0  0  0  0  0  0  0  0  0
   -1.8140   24.1100  -28.5920 C   0  0  0  0  0  0  0  0  0  0  0  0
   -2.5240   24.8260  -29.6540 N   0  0  0  0  0  0  0  0  0  0  0  0
   -3.8140   24.3990  -30.1130 C   0  0  0  0  0  0  0  0  0  0  0  0
   -4.9660   25.0870  -29.7060 C   0  0  0  0  0  0  0  0  0  0  0  0
   -6.2220   24.6650  -30.1550 C   0  0  0  0  0  0  0  0  0  0  0  0
   -7.2520   25.2900  -29.7850 O   0  0  0  0  0  0  0  0  0  0  0  0
   -6.3190   23.5540  -31.0130 C   0  0  0  0  0  0  0  0  0  0  0  0
   -7.5560   23.0880  -31.4950 C   0  0  0  0  0  0  0  0  0  0  0  0
   -7.6060   21.9790  -32.3460 C   0  0  0  0  0  0  0  0  0  0  0  0
   -6.4280   21.3280  -32.7220 C   0  0  0  0  0  0  0  0  0  0  0  0
   -5.1930   21.7810  -32.2500 C   0  0  0  0  0  0  0  0  0  0  0  0
   -5.1310   22.8890  -31.3990 C   0  0  0  0  0  0  0  0  0  0  0  0
   -3.9280   23.3260  -30.9430 N   0  0  0  0  0  0  0  0  0  0  0  0
   -2.5671   21.0007  -27.1138 H   0  0  0  0  0  0  0  0  0  0  0  0
   -3.3501   22.3050  -28.0690 H   0  0  0  0  0  0  0  0  0  0  0  0
   -4.0473   20.6495  -28.0690 H   0  0  0  0  0  0  0  0  0  0  0  0
   -1.3756   20.2950  -28.8925 H   0  0  0  0  0  0  0  0  0  0  0  0
   -2.8849   20.2858  -29.9339 H   0  0  0  0  0  0  0  0  0  0  0  0
   -2.6020   22.5410  -30.3590 H   0  0  0  0  0  0  0  0  0  0  0  0
   -0.3356   22.5040  -31.5283 H   0  0  0  0  0  0  0  0  0  0  0  0
   -0.3660   20.7684  -30.9706 H   0  0  0  0  0  0  0  0  0  0  0  0
   -2.8020   20.8521  -32.0548 H   0  0  0  0  0  0  0  0  0  0  0  0
   -2.0536   22.1578  -33.0355 H   0  0  0  0  0  0  0  0  0  0  0  0
   -1.3362   20.5111  -33.0355 H   0  0  0  0  0  0  0  0  0  0  0  0
   -0.5460   22.3809  -28.3193 H   0  0  0  0  0  0  0  0  0  0  0  0
   -0.1699   23.4027  -29.7786 H   0  0  0  0  0  0  0  0  0  0  0  0
   -2.5495   23.6971  -27.8859 H   0  0  0  0  0  0  0  0  0  0  0  0
   -1.1419   24.8196  -28.0874 H   0  0  0  0  0  0  0  0  0  0  0  0
   -2.0830   25.6640  -30.0990 H   0  0  0  0  0  0  0  0  0  0  0  0
   -4.8825   25.9554  -29.0361 H   0  0  0  0  0  0  0  0  0  0  0  0
   -8.4860   23.5970  -31.2019 H   0  0  0  0  0  0  0  0  0  0  0  0
   -8.5754   21.6183  -32.7203 H   0  0  0  0  0  0  0  0  0  0  0  0
   -6.4729   20.4564  -33.3915 H   0  0  0  0  0  0  0  0  0  0  0  0
   -4.2683   21.2652  -32.5483 H   0  0  0  0  0  0  0  0  0  0  0  0
  1  2  1  0
  2  3  1  0
  3  4  1  0
  4  5  1  0
  3  6  1  0
  6  7  1  0
  7  8  1  0
  8  9  1  0
  9 10  2  0
 10 11  1  0
 11 12  2  0
 11 13  1  0
 13 14  2  0
 14 15  1  0
 15 16  2  0
 16 17  1  0
 17 18  2  0
 18 19  1  0
 19  9  1  0
 18 13  1  0
  1 20  1  0
  1 21  1  0
  1 22  1  0
  2 23  1  0
  2 24  1  0
  3 25  1  0
  4 26  1  0
  4 27  1  0
  5 28  1  0
  5 29  1  0
  5 30  1  0
  6 31  1  0
  6 32  1  0
  7 33  1  0
  7 34  1  0
  8 35  1  0
 10 36  1  0
 14 37  1  0
 15 38  1  0
 16 39  1  0
 17 40  1  0
M  CHG  2   3   1  19  -1
M  END
>  <UniqueID>  (37) 
37

>  <SMILES>  (37) 
CC[NH+](CC)CCNc1cc(=O)c2ccccc2[n-]1

>  <Energy>  (37) 
44.410688014731925

>  <Genealogy>  (37) 
CC[NH+](CC)CCNc1cc(=O)c2ccccc2[n-]1 (protonated)
CC[NH+](CC)CCNc1cc(=O)c2ccccc2[n-]1 (3D coordinates assigned)
CC[NH+](CC)CCNc1cc(=O)c2ccccc2[n-]1 (optimized conformer: 44.410688014731925 kcal/mol)

>  <smiles>  (37) 
CCN(CC)CCNc1cc(=O)c2ccccc2[nH]1

>  <score_type>  (37) 
oracle

>  <origin>  (37) 
adg

>  <m_score__min__energy>  (37) 
-6.3799999999999999

>  <m_primary>  (37) 
energy

$$$$
37:0
     RDKit          3D

 51 54  0  0  0  0  0  0  0  0999 V2000
   -5.7620   16.6690  -34.1500 C   0  0  0  0  0  0  0  0  0  0  0  0
   -5.5170   17.8700  -34.8180 C   0  0  0  0  0  0  0  0  0  0  0  0
   -5.5510   19.0810  -34.1190 C   0  0  0  0  0  0  0  0  0  0  0  0
   -5.8240   19.0960  -32.7370 C   0  0  0  0  0  0  0  0  0  0  0  0
   -5.8970   20.3290  -31.9970 N   0  0  0  0  0  0  0  0  0  0  0  0
   -7.0700   21.1560  -31.9290 C   0  0  0  0  0  0  0  0  0  0  0  0
   -8.3340   20.5470  -31.8280 C   0  0  0  0  0  0  0  0  0  0  0  0
   -9.4980   21.3140  -31.8370 C   0  0  0  0  0  0  0  0  0  0  0  0
   -9.4180   22.6990  -31.9680 C   0  0  0  0  0  0  0  0  0  0  0  0
   -8.1750   23.3210  -32.0820 C   0  0  0  0  0  0  0  0  0  0  0  0
   -6.9860   22.5680  -32.0480 C   0  0  0  0  0  0  0  0  0  0  0  0
   -5.6550   23.3030  -32.1470 C   0  0  0  0  0  0  0  0  0  0  0  0
   -4.6120   22.8070  -31.2200 N   0  0  0  0  0  0  0  0  0  0  0  0
   -4.2840   23.7470  -30.1360 C   0  0  0  0  0  0  0  0  0  0  0  0
   -3.5860   22.9850  -29.0060 C   0  0  0  0  0  0  0  0  0  0  0  0
   -2.7630   21.8900  -29.5380 N   0  0  0  0  0  0  0  0  0  0  0  0
   -2.3540   20.8100  -28.6770 C   0  0  0  0  0  0  0  0  0  0  0  0
   -3.1170   20.4690  -27.5450 C   0  0  0  0  0  0  0  0  0  0  0  0
   -2.7220   19.4120  -26.7180 C   0  0  0  0  0  0  0  0  0  0  0  0
   -1.5690   18.6810  -27.0170 C   0  0  0  0  0  0  0  0  0  0  0  0
   -0.8100   19.0040  -28.1450 C   0  0  0  0  0  0  0  0  0  0  0  0
   -1.2000   20.0610  -28.9730 C   0  0  0  0  0  0  0  0  0  0  0  0
   -2.2600   21.9820  -30.9150 C   0  0  0  0  0  0  0  0  0  0  0  0
   -3.3990   22.3060  -31.9040 C   0  0  0  0  0  0  0  0  0  0  0  0
   -6.0840   17.8820  -32.0800 C   0  0  0  0  0  0  0  0  0  0  0  0
   -6.0480   16.6740  -32.7840 C   0  0  0  0  0  0  0  0  0  0  0  0
   -5.7296   15.7175  -34.7010 H   0  0  0  0  0  0  0  0  0  0  0  0
   -5.2969   17.8640  -35.8957 H   0  0  0  0  0  0  0  0  0  0  0  0
   -5.3638   20.0257  -34.6506 H   0  0  0  0  0  0  0  0  0  0  0  0
   -5.0280   20.6740  -31.5310 H   0  0  0  0  0  0  0  0  0  0  0  0
   -8.4047   19.4527  -31.7409 H   0  0  0  0  0  0  0  0  0  0  0  0
  -10.4792   20.8262  -31.7407 H   0  0  0  0  0  0  0  0  0  0  0  0
  -10.3372   23.3030  -31.9815 H   0  0  0  0  0  0  0  0  0  0  0  0
   -8.1230   24.4134  -32.1999 H   0  0  0  0  0  0  0  0  0  0  0  0
   -5.2795   23.1977  -33.1755 H   0  0  0  0  0  0  0  0  0  0  0  0
   -5.8521   24.3485  -31.8675 H   0  0  0  0  0  0  0  0  0  0  0  0
   -3.6152   24.5319  -30.5189 H   0  0  0  0  0  0  0  0  0  0  0  0
   -5.2063   24.2106  -29.7558 H   0  0  0  0  0  0  0  0  0  0  0  0
   -2.9419   23.6803  -28.4477 H   0  0  0  0  0  0  0  0  0  0  0  0
   -4.3545   22.5565  -28.3459 H   0  0  0  0  0  0  0  0  0  0  0  0
   -4.0292   21.0367  -27.3090 H   0  0  0  0  0  0  0  0  0  0  0  0
   -3.3199   19.1558  -25.8309 H   0  0  0  0  0  0  0  0  0  0  0  0
   -1.2590   17.8515  -26.3645 H   0  0  0  0  0  0  0  0  0  0  0  0
    0.0954   18.4260  -28.3818 H   0  0  0  0  0  0  0  0  0  0  0  0
   -0.6008   20.3087  -29.8616 H   0  0  0  0  0  0  0  0  0  0  0  0
   -1.5018   22.7772  -30.9678 H   0  0  0  0  0  0  0  0  0  0  0  0
   -1.8234   21.0112  -31.1922 H   0  0  0  0  0  0  0  0  0  0  0  0
   -3.0477   23.0741  -32.6087 H   0  0  0  0  0  0  0  0  0  0  0  0
   -3.6670   21.3750  -32.4249 H   0  0  0  0  0  0  0  0  0  0  0  0
   -6.3174   17.8814  -31.0050 H   0  0  0  0  0  0  0  0  0  0  0  0
   -6.2453   15.7269  -32.2605 H   0  0  0  0  0  0  0  0  0  0  0  0
  1  2  2  0
  2  3  1  0
  3  4  2  0
  4  5  1  0
  5  6  1  0
  6  7  2  0
  7  8  1  0
  8  9  2  0
  9 10  1  0
 10 11  2  0
 11 12  1  0
 12 13  1  0
 13 14  1  0
 14 15  1  0
 15 16  1  0
 16 17  1  0
 17 18  2  0
 18 19  1  0
 19 20  2  0
 20 21  1  0
 21 22  2  0
 16 23  1  0
 23 24  1  0
  4 25  1  0
 25 26  2  0
 26  1  1  0
 11  6  1  0
 24 13  1  0
 22 17  1  0
  1 27  1  0
  2 28  1  0
  3 29  1  0
  5 30  1  0
  7 31  1  0
  8 32  1  0
  9 33  1  0
 10 34  1  0
 12 35  1  0
 12 36  1  0
 14 37  1  0
 14 38  1  0
 15 39  1  0
 15 40  1  0
 18 41  1  0
 19 42  1  0
 20 43  1  0
 21 44  1  0
 22 45  1  0
 23 46  1  0
 23 47  1  0
 24 48  1  0
 24 49  1  0
 25 50  1  0
 26 51  1  0
M  END
>  <UniqueID>  (38) 
38

>  <SMILES>  (38) 
c1ccc(Nc2ccccc2CN2CCN(c3ccccc3)CC2)cc1

>  <Energy>  (38) 
74.00914271361299

>  <Genealogy>  (38) 
c1ccc(Nc2ccccc2CN2CCN(c3ccccc3)CC2)cc1 (3D coordinates assigned)
c1ccc(Nc2ccccc2CN2CCN(c3ccccc3)CC2)cc1 (nonaromatic ring conformer: 74.00914271361299 kcal/mol)

>  <smiles>  (38) 
c1ccc(Nc2ccccc2CN2CCN(c3ccccc3)CC2)cc1

>  <score_type>  (38) 
oracle

>  <origin>  (38) 
adg

>  <m_score__min__energy>  (38) 
-9.1999999999999993

>  <m_primary>  (38) 
energy

$$$$
38:0
     RDKit          3D

 31 32  0  0  0  0  0  0  0  0999 V2000
   -1.2610   25.6320  -28.5470 C   0  0  0  0  0  0  0  0  0  0  0  0
   -2.0100   24.6680  -29.2790 O   0  0  0  0  0  0  0  0  0  0  0  0
   -2.2630   23.3580  -28.8440 C   0  0  0  0  0  0  0  0  0  0  0  0
   -2.0080   22.9510  -27.5180 C   0  0  0  0  0  0  0  0  0  0  0  0
   -2.2950   21.6440  -27.1150 C   0  0  0  0  0  0  0  0  0  0  0  0
   -2.8450   20.7360  -28.0200 C   0  0  0  0  0  0  0  0  0  0  0  0
   -3.0990   21.1280  -29.3350 C   0  0  0  0  0  0  0  0  0  0  0  0
   -2.7900   22.4270  -29.7590 C   0  0  0  0  0  0  0  0  0  0  0  0
   -3.1220   22.8990  -31.4620 S   0  0  0  0  0  0  0  0  0  0  0  0
   -4.9140   22.8880  -31.2560 C   0  0  0  0  0  0  0  0  0  0  0  0
   -5.6360   21.8340  -31.8350 C   0  0  0  0  0  0  0  0  0  0  0  0
   -7.0240   21.7700  -31.7090 C   0  0  0  0  0  0  0  0  0  0  0  0
   -7.7090   22.7650  -31.0140 C   0  0  0  0  0  0  0  0  0  0  0  0
   -7.0090   23.8340  -30.4520 C   0  0  0  0  0  0  0  0  0  0  0  0
   -5.6100   23.9190  -30.5750 C   0  0  0  0  0  0  0  0  0  0  0  0
   -4.9090   25.1010  -29.9490 C   0  0  0  0  0  0  0  0  0  0  0  0
   -3.9760   25.6390  -30.8450 O   0  0  0  0  0  0  0  0  0  0  0  0
   -1.3953   25.4592  -27.4690 H   0  0  0  0  0  0  0  0  0  0  0  0
   -0.1952   25.5398  -28.8032 H   0  0  0  0  0  0  0  0  0  0  0  0
   -1.6137   26.6419  -28.8032 H   0  0  0  0  0  0  0  0  0  0  0  0
   -1.5815   23.6651  -26.7981 H   0  0  0  0  0  0  0  0  0  0  0  0
   -2.0867   21.3304  -26.0814 H   0  0  0  0  0  0  0  0  0  0  0  0
   -3.0785   19.7108  -27.6970 H   0  0  0  0  0  0  0  0  0  0  0  0
   -3.5443   20.4131  -30.0425 H   0  0  0  0  0  0  0  0  0  0  0  0
   -5.1029   21.0506  -32.3936 H   0  0  0  0  0  0  0  0  0  0  0  0
   -7.5784   20.9331  -32.1588 H   0  0  0  0  0  0  0  0  0  0  0  0
   -8.8024   22.7079  -30.9082 H   0  0  0  0  0  0  0  0  0  0  0  0
   -7.5565   24.6176  -29.9077 H   0  0  0  0  0  0  0  0  0  0  0  0
   -5.6522   25.8703  -29.6925 H   0  0  0  0  0  0  0  0  0  0  0  0
   -4.3848   24.7684  -29.0409 H   0  0  0  0  0  0  0  0  0  0  0  0
   -3.1060   25.6710  -30.3690 H   0  0  0  0  0  0  0  0  0  0  0  0
  1  2  1  0
  2  3  1  0
  3  4  2  0
  4  5  1  0
  5  6  2  0
  6  7  1  0
  7  8  2  0
  8  9  1  0
  9 10  1  0
 10 11  2  0
 11 12  1  0
 12 13  2  0
 13 14  1  0
 14 15  2  0
 15 16  1  0
 16 17  1  0
  8  3  1  0
 15 10  1  0
  1 18  1  0
  1 19  1  0
  1 20  1  0
  4 21  1  0
  5 22  1  0
  6 23  1  0
  7 24  1  0
 11 25  1  0
 12 26  1  0
 13 27  1  0
 14 28  1  0
 16 29  1  0
 16 30  1  0
 17 31  1  0
M  END
>  <UniqueID>  (39) 
39

>  <SMILES>  (39) 
COc1ccccc1Sc1ccccc1CO

>  <Energy>  (39) 
27.95545131021162

>  <Genealogy>  (39) 
COc1ccccc1Sc1ccccc1CO (3D coordinates assigned)
COc1ccccc1Sc1ccccc1CO (optimized conformer: 27.95545131021162 kcal/mol)

>  <smiles>  (39) 
COc1ccccc1Sc1ccccc1CO

>  <score_type>  (39) 
oracle

>  <origin>  (39) 
adg

>  <m_score__min__energy>  (39) 
-7.0999999999999996

>  <m_primary>  (39) 
energy

$$$$
39:0
     RDKit          3D

 28 29  0  0  0  0  0  0  0  0999 V2000
   -1.8370   21.7850  -28.4670 C   0  0  0  0  0  0  0  0  0  0  0  0
   -1.6080   22.8300  -29.4780 N   0  0  0  0  0  0  0  0  0  0  0  0
   -0.4800   23.7090  -29.1050 C   0  0  0  0  0  0  0  0  0  0  0  0
   -0.8200   24.5700  -27.9710 N   0  0  0  0  0  0  0  0  0  0  0  0
   -2.0300   24.9880  -27.7570 C   0  0  0  0  0  0  0  0  0  0  0  0
   -2.3170   25.8820  -26.6700 N   0  0  0  0  0  0  0  0  0  0  0  0
   -1.4140   26.1550  -25.5850 C   0  0  0  0  0  0  0  0  0  0  0  0
   -1.2240   27.4760  -25.1570 C   0  0  0  0  0  0  0  0  0  0  0  0
   -0.3680   27.7490  -24.0890 C   0  0  0  0  0  0  0  0  0  0  0  0
    0.2800   26.6950  -23.4440 C   0  0  0  0  0  0  0  0  0  0  0  0
    0.0710   25.4130  -23.8500 N   0  0  0  0  0  0  0  0  0  0  0  0
   -0.7580   25.1230  -24.8910 C   0  0  0  0  0  0  0  0  0  0  0  0
   -3.0920   24.5430  -28.6080 N   0  0  0  0  0  0  0  0  0  0  0  0
   -2.8250   23.6300  -29.7200 C   0  0  0  0  0  0  0  0  0  0  0  0
   -1.7416   22.2205  -27.4614 H   0  0  0  0  0  0  0  0  0  0  0  0
   -2.8476   21.3690  -28.5920 H   0  0  0  0  0  0  0  0  0  0  0  0
   -1.0930   20.9845  -28.5920 H   0  0  0  0  0  0  0  0  0  0  0  0
    0.3840   23.0850  -28.8330 H   0  0  0  0  0  0  0  0  0  0  0  0
   -0.2449   24.3514  -29.9664 H   0  0  0  0  0  0  0  0  0  0  0  0
   -3.2100   26.4230  -26.7120 H   0  0  0  0  0  0  0  0  0  0  0  0
   -1.7502   28.2986  -25.6634 H   0  0  0  0  0  0  0  0  0  0  0  0
   -0.2057   28.7856  -23.7588 H   0  0  0  0  0  0  0  0  0  0  0  0
    0.9614   26.9008  -22.6053 H   0  0  0  0  0  0  0  0  0  0  0  0
    0.5510   24.6340  -23.3470 H   0  0  0  0  0  0  0  0  0  0  0  0
   -0.9151   24.0762  -25.1903 H   0  0  0  0  0  0  0  0  0  0  0  0
   -4.0550   24.9270  -28.4830 H   0  0  0  0  0  0  0  0  0  0  0  0
   -3.6821   22.9509  -29.8396 H   0  0  0  0  0  0  0  0  0  0  0  0
   -2.6716   24.2279  -30.6305 H   0  0  0  0  0  0  0  0  0  0  0  0
  1  2  1  0
  2  3  1  0
  3  4  1  0
  4  5  2  0
  5  6  1  0
  6  7  1  0
  7  8  2  0
  8  9  1  0
  9 10  2  0
 10 11  1  0
 11 12  2  0
  5 13  1  0
 13 14  1  0
 14  2  1  0
 12  7  1  0
  1 15  1  0
  1 16  1  0
  1 17  1  0
  3 18  1  0
  3 19  1  0
  6 20  1  0
  8 21  1  0
  9 22  1  0
 10 23  1  0
 11 24  1  0
 12 25  1  0
 13 26  1  0
 14 27  1  0
 14 28  1  0
M  CHG  1  11   1
M  END
>  <UniqueID>  (40) 
40

>  <SMILES>  (40) 
CN1CN=C(Nc2ccc[nH+]c2)NC1

>  <Energy>  (40) 
33.513265155966096

>  <Genealogy>  (40) 
CN1CN=C(Nc2ccc[nH+]c2)NC1 (protonated)
CN1CN=C(Nc2ccc[nH+]c2)NC1 (3D coordinates assigned)
CN1CN=C(Nc2ccc[nH+]c2)NC1 (nonaromatic ring conformer: 33.513265155966096 kcal/mol)

>  <smiles>  (40) 
CN1CN=C(Nc2cccnc2)NC1

>  <score_type>  (40) 
oracle

>  <origin>  (40) 
adg

>  <m_score__min__energy>  (40) 
-5.2999999999999998

>  <m_primary>  (40) 
energy

$$$$
40:0
     RDKit          3D

 45 47  0  0  0  0  0  0  0  0999 V2000
   -9.0260   22.6990  -31.7830 O   0  0  0  0  0  0  0  0  0  0  0  0
   -7.8320   22.3070  -31.6690 C   0  0  0  0  0  0  0  0  0  0  0  0
   -6.8490   23.1770  -31.0880 N   0  0  0  0  0  0  0  0  0  0  0  0
   -7.2340   24.4220  -30.4240 C   0  0  0  0  0  0  0  0  0  0  0  0
   -6.0120   25.1020  -29.7920 C   0  0  0  0  0  0  0  0  0  0  0  0
   -4.8720   25.3180  -30.7950 C   0  0  0  0  0  0  0  0  0  0  0  0
   -4.0590   24.0990  -30.9300 N   0  0  0  0  0  0  0  0  0  0  0  0
   -4.0580   23.3200  -29.6850 C   0  0  0  0  0  0  0  0  0  0  0  0
   -3.3360   24.0680  -28.5960 C   0  0  0  0  0  0  0  0  0  0  0  0
   -3.9390   24.2690  -27.3430 C   0  0  0  0  0  0  0  0  0  0  0  0
   -3.2670   24.9800  -26.3440 C   0  0  0  0  0  0  0  0  0  0  0  0
   -1.9910   25.4970  -26.5870 C   0  0  0  0  0  0  0  0  0  0  0  0
   -1.0770   26.4700  -25.2220 Br  0  0  0  0  0  0  0  0  0  0  0  0
   -1.3860   25.3030  -27.8350 C   0  0  0  0  0  0  0  0  0  0  0  0
   -2.0550   24.5930  -28.8350 C   0  0  0  0  0  0  0  0  0  0  0  0
   -7.4580   20.9650  -32.1730 C   0  0  0  0  0  0  0  0  0  0  0  0
   -8.4320   19.9500  -32.1940 C   0  0  0  0  0  0  0  0  0  0  0  0
   -8.1230   18.6760  -32.6760 C   0  0  0  0  0  0  0  0  0  0  0  0
   -6.8370   18.3880  -33.1340 C   0  0  0  0  0  0  0  0  0  0  0  0
   -5.8440   19.3750  -33.1020 C   0  0  0  0  0  0  0  0  0  0  0  0
   -4.5390   19.0970  -33.5310 C   0  0  0  0  0  0  0  0  0  0  0  0
   -3.5600   20.0880  -33.4620 C   0  0  0  0  0  0  0  0  0  0  0  0
   -3.8900   21.3480  -32.9620 C   0  0  0  0  0  0  0  0  0  0  0  0
   -5.1600   21.6060  -32.5510 N   0  0  0  0  0  0  0  0  0  0  0  0
   -6.1490   20.6690  -32.6150 C   0  0  0  0  0  0  0  0  0  0  0  0
   -5.8380   22.9260  -31.1720 H   0  0  0  0  0  0  0  0  0  0  0  0
   -7.6827   25.1015  -31.1635 H   0  0  0  0  0  0  0  0  0  0  0  0
   -7.9584   24.1890  -29.6297 H   0  0  0  0  0  0  0  0  0  0  0  0
   -6.3201   26.0797  -29.3931 H   0  0  0  0  0  0  0  0  0  0  0  0
   -5.6360   24.4398  -28.9982 H   0  0  0  0  0  0  0  0  0  0  0  0
   -5.2981   25.5781  -31.7752 H   0  0  0  0  0  0  0  0  0  0  0  0
   -4.2294   26.1325  -30.4295 H   0  0  0  0  0  0  0  0  0  0  0  0
   -4.5020   23.5000  -31.6650 H   0  0  0  0  0  0  0  0  0  0  0  0
   -5.0964   23.1371  -29.3715 H   0  0  0  0  0  0  0  0  0  0  0  0
   -3.5421   22.3650  -29.8631 H   0  0  0  0  0  0  0  0  0  0  0  0
   -4.9434   23.8655  -27.1472 H   0  0  0  0  0  0  0  0  0  0  0  0
   -3.7435   25.1329  -25.3644 H   0  0  0  0  0  0  0  0  0  0  0  0
   -0.3826   25.7102  -28.0282 H   0  0  0  0  0  0  0  0  0  0  0  0
   -1.5765   24.4443  -29.8142 H   0  0  0  0  0  0  0  0  0  0  0  0
   -9.4471   20.1619  -31.8271 H   0  0  0  0  0  0  0  0  0  0  0  0
   -8.8978   17.8954  -32.6946 H   0  0  0  0  0  0  0  0  0  0  0  0
   -6.6029   17.3851  -33.5205 H   0  0  0  0  0  0  0  0  0  0  0  0
   -4.2875   18.0997  -33.9211 H   0  0  0  0  0  0  0  0  0  0  0  0
   -2.5345   19.8775  -33.7996 H   0  0  0  0  0  0  0  0  0  0  0  0
   -3.1221   22.1332  -32.9003 H   0  0  0  0  0  0  0  0  0  0  0  0
  1  2  2  0
  2  3  1  0
  3  4  1  0
  4  5  1  0
  5  6  1  0
  6  7  1  0
  7  8  1  0
  8  9  1  0
  9 10  2  0
 10 11  1  0
 11 12  2  0
 12 13  1  0
 12 14  1  0
 14 15  2  0
  2 16  1  0
 16 17  2  0
 17 18  1  0
 18 19  2  0
 19 20  1  0
 20 21  2  0
 21 22  1  0
 22 23  2  0
 23 24  1  0
 24 25  2  0
 15  9  1  0
 25 16  1  0
 25 20  1  0
  3 26  1  0
  4 27  1  0
  4 28  1  0
  5 29  1  0
  5 30  1  0
  6 31  1  0
  6 32  1  0
  7 33  1  0
  8 34  1  0
  8 35  1  0
 10 36  1  0
 11 37  1  0
 14 38  1  0
 15 39  1  0
 17 40  1  0
 18 41  1  0
 19 42  1  0
 21 43  1  0
 22 44  1  0
 23 45  1  0
M  END
>  <UniqueID>  (41) 
41

>  <SMILES>  (41) 
O=C(NCCCNCc1ccc(Br)cc1)c1cccc2cccnc12

>  <Energy>  (41) 
48.57551385732933

>  <Genealogy>  (41) 
O=C(NCCCNCc1ccc(Br)cc1)c1cccc2cccnc12 (3D coordinates assigned)
O=C(NCCCNCc1ccc(Br)cc1)c1cccc2cccnc12 (optimized conformer: 48.57551385732933 kcal/mol)

>  <smiles>  (41) 
O=C(NCCCNCc1ccc(Br)cc1)c1cccc2cccnc12

>  <score_type>  (41) 
oracle

>  <origin>  (41) 
adg

>  <m_score__min__energy>  (41) 
-9.25

>  <m_primary>  (41) 
energy

$$$$
41:0
     RDKit          3D

 49 52  0  0  0  0  0  0  0  0999 V2000
   -5.9750   17.2950  -32.4060 C   0  0  0  0  0  0  0  0  0  0  0  0
   -6.9180   18.4690  -32.3680 C   0  0  0  0  0  0  0  0  0  0  0  0
   -8.2510   18.2610  -31.9720 C   0  0  0  0  0  0  0  0  0  0  0  0
   -9.1500   19.3280  -31.9160 C   0  0  0  0  0  0  0  0  0  0  0  0
   -8.7310   20.6140  -32.2530 C   0  0  0  0  0  0  0  0  0  0  0  0
   -7.4130   20.8380  -32.6540 C   0  0  0  0  0  0  0  0  0  0  0  0
   -6.4980   19.7730  -32.7330 C   0  0  0  0  0  0  0  0  0  0  0  0
   -5.0780   20.0680  -33.1510 C   0  0  0  0  0  0  0  0  0  0  0  0
   -4.7830   21.8650  -33.0930 S   0  0  0  0  0  0  0  0  0  0  0  0
   -3.1320   21.6880  -32.4130 C   0  0  0  0  0  0  0  0  0  0  0  0
   -2.0260   21.5620  -33.1640 N   0  0  0  0  0  0  0  0  0  0  0  0
   -0.9910   21.4480  -32.3500 N   0  0  0  0  0  0  0  0  0  0  0  0
   -1.4810   21.5140  -31.0940 C   0  0  0  0  0  0  0  0  0  0  0  0
   -0.6150   21.4420  -29.8970 C   0  0  0  0  0  0  0  0  0  0  0  0
    0.0490   20.3340  -29.4070 C   0  0  0  0  0  0  0  0  0  0  0  0
    0.6490   20.7400  -28.2320 C   0  0  0  0  0  0  0  0  0  0  0  0
    0.3710   22.0030  -28.0030 O   0  0  0  0  0  0  0  0  0  0  0  0
   -0.3870   22.4530  -28.9760 C   0  0  0  0  0  0  0  0  0  0  0  0
   -0.9140   23.8490  -29.0330 C   0  0  0  0  0  0  0  0  0  0  0  0
   -2.8300   21.6610  -31.0990 N   0  0  0  0  0  0  0  0  0  0  0  0
   -3.7740   21.6980  -29.9770 C   0  0  0  0  0  0  0  0  0  0  0  0
   -4.6850   22.8990  -30.0590 C   0  0  0  0  0  0  0  0  0  0  0  0
   -6.0860   22.7570  -30.0380 C   0  0  0  0  0  0  0  0  0  0  0  0
   -6.9110   23.8810  -30.1450 C   0  0  0  0  0  0  0  0  0  0  0  0
   -6.3500   25.1520  -30.2880 C   0  0  0  0  0  0  0  0  0  0  0  0
   -4.9620   25.3010  -30.3320 C   0  0  0  0  0  0  0  0  0  0  0  0
   -4.1320   24.1800  -30.2260 C   0  0  0  0  0  0  0  0  0  0  0  0
   -5.7291   16.9888  -31.3785 H   0  0  0  0  0  0  0  0  0  0  0  0
   -6.4539   16.4570  -32.9336 H   0  0  0  0  0  0  0  0  0  0  0  0
   -5.0534   17.5819  -32.9336 H   0  0  0  0  0  0  0  0  0  0  0  0
   -8.5886   17.2490  -31.7040 H   0  0  0  0  0  0  0  0  0  0  0  0
  -10.1907   19.1534  -31.6054 H   0  0  0  0  0  0  0  0  0  0  0  0
   -9.4401   21.4535  -32.2028 H   0  0  0  0  0  0  0  0  0  0  0  0
   -7.0870   21.8568  -32.9106 H   0  0  0  0  0  0  0  0  0  0  0  0
   -4.3822   19.5607  -32.4665 H   0  0  0  0  0  0  0  0  0  0  0  0
   -4.9168   19.7048  -34.1767 H   0  0  0  0  0  0  0  0  0  0  0  0
   -1.9710   21.5460  -34.2060 H   0  0  0  0  0  0  0  0  0  0  0  0
    0.0910   19.3327  -29.8606 H   0  0  0  0  0  0  0  0  0  0  0  0
    1.2675   20.1012  -27.5843 H   0  0  0  0  0  0  0  0  0  0  0  0
   -1.0574   24.2288  -28.0107 H   0  0  0  0  0  0  0  0  0  0  0  0
   -0.1961   24.4905  -29.5652 H   0  0  0  0  0  0  0  0  0  0  0  0
   -1.8767   23.8561  -29.5652 H   0  0  0  0  0  0  0  0  0  0  0  0
   -4.3855   20.7838  -29.9942 H   0  0  0  0  0  0  0  0  0  0  0  0
   -3.1970   21.7660  -29.0430 H   0  0  0  0  0  0  0  0  0  0  0  0
   -6.5334   21.7572  -29.9370 H   0  0  0  0  0  0  0  0  0  0  0  0
   -8.0044   23.7639  -30.1165 H   0  0  0  0  0  0  0  0  0  0  0  0
   -7.0010   26.0352  -30.3659 H   0  0  0  0  0  0  0  0  0  0  0  0
   -4.5207   26.3016  -30.4502 H   0  0  0  0  0  0  0  0  0  0  0  0
   -3.0398   24.3020  -30.2737 H   0  0  0  0  0  0  0  0  0  0  0  0
  1  2  1  0
  2  3  2  0
  3  4  1  0
  4  5  2  0
  5  6  1  0
  6  7  2  0
  7  8  1  0
  8  9  1  0
  9 10  1  0
 10 11  2  0
 11 12  1  0
 12 13  2  0
 13 14  1  0
 14 15  1  0
 15 16  2  0
 16 17  1  0
 17 18  1  0
 18 19  1  0
 13 20  1  0
 20 21  1  0
 21 22  1  0
 22 23  2  0
 23 24  1  0
 24 25  2  0
 25 26  1  0
 26 27  2  0
  7  2  1  0
 20 10  1  0
 27 22  1  0
 18 14  2  0
  1 28  1  0
  1 29  1  0
  1 30  1  0
  3 31  1  0
  4 32  1  0
  5 33  1  0
  6 34  1  0
  8 35  1  0
  8 36  1  0
 11 37  1  0
 15 38  1  0
 16 39  1  0
 19 40  1  0
 19 41  1  0
 19 42  1  0
 21 43  1  0
 21 44  1  0
 23 45  1  0
 24 46  1  0
 25 47  1  0
 26 48  1  0
 27 49  1  0
M  CHG  1  11   1
M  END
>  <UniqueID>  (42) 
42

>  <SMILES>  (42) 
Cc1ccccc1CSc1[nH+]nc(-c2ccoc2C)n1Cc1ccccc1

>  <Energy>  (42) 
111.88150149360216

>  <Genealogy>  (42) 
Cc1ccccc1CSc1[nH+]nc(-c2ccoc2C)n1Cc1ccccc1 (protonated)
Cc1ccccc1CSc1[nH+]nc(-c2ccoc2C)n1Cc1ccccc1 (3D coordinates assigned)
Cc1ccccc1CSc1[nH+]nc(-c2ccoc2C)n1Cc1ccccc1 (optimized conformer: 111.88150149360216 kcal/mol)

>  <smiles>  (42) 
Cc1ccccc1CSc1nnc(-c2ccoc2C)n1Cc1ccccc1

>  <score_type>  (42) 
oracle

>  <origin>  (42) 
adg

>  <m_score__min__energy>  (42) 
-8.3599999999999994

>  <m_primary>  (42) 
energy

$$$$
42:0
     RDKit          3D

 41 43  0  0  0  0  0  0  0  0999 V2000
   -4.0920   21.8380  -33.0660 C   0  0  0  0  0  0  0  0  0  0  0  0
   -3.4370   20.4650  -33.2160 C   0  0  0  0  0  0  0  0  0  0  0  0
   -4.0480   19.4890  -32.3000 N   0  0  0  0  0  0  0  0  0  0  0  0
   -5.4160   19.8970  -31.9490 C   0  0  0  0  0  0  0  0  0  0  0  0
   -6.5740   19.3340  -32.8760 C   0  0  1  0  0  0  0  0  0  0  0  0
   -5.8860   18.4820  -33.9460 C   0  0  0  0  0  0  0  0  0  0  0  0
   -5.6350   17.2120  -33.3300 O   0  0  0  0  0  0  0  0  0  0  0  0
   -6.4950   17.1120  -32.1920 C   0  0  0  0  0  0  0  0  0  0  0  0
   -7.4550   18.2480  -32.3660 C   0  0  1  0  0  0  0  0  0  0  0  0
   -8.4900   18.9310  -31.5160 C   0  0  0  0  0  0  0  0  0  0  0  0
   -8.8160   20.1180  -32.3380 N   0  0  0  0  0  0  0  0  0  0  0  0
   -9.3030   21.2650  -31.5520 C   0  0  0  0  0  0  0  0  0  0  0  0
   -8.1740   22.2110  -31.2920 C   0  0  0  0  0  0  0  0  0  0  0  0
   -7.4500   22.3040  -30.1110 C   0  0  0  0  0  0  0  0  0  0  0  0
   -6.4930   23.3250  -30.1320 C   0  0  0  0  0  0  0  0  0  0  0  0
   -6.4690   24.0420  -31.3220 C   0  0  0  0  0  0  0  0  0  0  0  0
   -7.6420   23.4060  -32.3470 S   0  0  0  0  0  0  0  0  0  0  0  0
   -7.6320   20.4060  -33.2010 C   0  0  0  0  0  0  0  0  0  0  0  0
   -4.2053   22.0755  -31.9979 H   0  0  0  0  0  0  0  0  0  0  0  0
   -3.4604   22.6000  -33.5461 H   0  0  0  0  0  0  0  0  0  0  0  0
   -5.0817   21.8266  -33.5461 H   0  0  0  0  0  0  0  0  0  0  0  0
   -3.5647   20.1162  -34.2514 H   0  0  0  0  0  0  0  0  0  0  0  0
   -2.3687   20.5565  -32.9705 H   0  0  0  0  0  0  0  0  0  0  0  0
   -4.0800   18.5650  -32.7890 H   0  0  0  0  0  0  0  0  0  0  0  0
   -3.4630   19.4430  -31.4410 H   0  0  0  0  0  0  0  0  0  0  0  0
   -5.6141   19.5583  -30.9213 H   0  0  0  0  0  0  0  0  0  0  0  0
   -5.4400   20.9891  -32.0782 H   0  0  0  0  0  0  0  0  0  0  0  0
   -6.5425   18.3609  -34.8203 H   0  0  0  0  0  0  0  0  0  0  0  0
   -4.9567   18.9508  -34.3020 H   0  0  0  0  0  0  0  0  0  0  0  0
   -7.0256   16.1485  -32.1858 H   0  0  0  0  0  0  0  0  0  0  0  0
   -5.9466   17.1618  -31.2398 H   0  0  0  0  0  0  0  0  0  0  0  0
   -8.2333   17.6401  -32.8505 H   0  0  0  0  0  0  0  0  0  0  0  0
   -9.3725   18.2915  -31.3671 H   0  0  0  0  0  0  0  0  0  0  0  0
   -8.1454   19.1721  -30.4996 H   0  0  0  0  0  0  0  0  0  0  0  0
  -10.0937   21.7842  -32.1135 H   0  0  0  0  0  0  0  0  0  0  0  0
   -9.7067   20.9060  -30.5938 H   0  0  0  0  0  0  0  0  0  0  0  0
   -7.6120   21.6427  -29.2470 H   0  0  0  0  0  0  0  0  0  0  0  0
   -5.8231   23.5396  -29.2863 H   0  0  0  0  0  0  0  0  0  0  0  0
   -5.7978   24.8819  -31.5543 H   0  0  0  0  0  0  0  0  0  0  0  0
   -7.9144   20.3499  -34.2626 H   0  0  0  0  0  0  0  0  0  0  0  0
   -7.2415   21.4167  -33.0114 H   0  0  0  0  0  0  0  0  0  0  0  0
  1  2  1  0
  2  3  1  0
  3  4  1  0
  5  4  1  1
  5  6  1  0
  6  7  1  0
  7  8  1  0
  8  9  1  0
  9 10  1  0
 10 11  1  0
 11 12  1  0
 12 13  1  0
 13 14  2  0
 14 15  1  0
 15 16  2  0
 16 17  1  0
 11 18  1  0
  9  5  1  0
 17 13  1  0
 18  5  1  0
  1 19  1  0
  1 20  1  0
  1 21  1  0
  2 22  1  0
  2 23  1  0
  3 24  1  0
  3 25  1  0
  4 26  1  0
  4 27  1  0
  6 28  1  0
  6 29  1  0
  8 30  1  0
  8 31  1  0
  9 32  1  6
 10 33  1  0
 10 34  1  0
 12 35  1  0
 12 36  1  0
 14 37  1  0
 15 38  1  0
 16 39  1  0
 18 40  1  0
 18 41  1  0
M  CHG  1   3   1
M  END
>  <UniqueID>  (43) 
43

>  <SMILES>  (43) 
CC[NH2+]C[C@@]12COC[C@H]1CN(Cc1cccs1)C2

>  <Energy>  (43) 
118.4740347525984

>  <Genealogy>  (43) 
CC[NH2+]CC12COCC1CN(Cc1cccs1)C2 (protonated)
CC[NH2+]C[C@@]12COC[C@H]1CN(Cc1cccs1)C2 (chirality)
CC[NH2+]C[C@@]12COC[C@H]1CN(Cc1cccs1)C2 (3D coordinates assigned)
CC[NH2+]C[C@@]12COC[C@H]1CN(Cc1cccs1)C2 (nonaromatic ring conformer: 118.4740347525984 kcal/mol)

>  <smiles>  (43) 
CCNCC12COCC1CN(Cc1cccs1)C2

>  <score_type>  (43) 
oracle

>  <origin>  (43) 
adg

>  <m_score__min__energy>  (43) 
-6.8700000000000001

>  <m_primary>  (43) 
energy

$$$$
43:0
     RDKit          3D

 61 63  0  0  0  0  0  0  0  0999 V2000
   -9.5400   21.1910  -31.9390 C   0  0  0  0  0  0  0  0  0  0  0  0
   -8.8530   22.5520  -31.8200 C   0  0  0  0  0  0  0  0  0  0  0  0
   -7.6050   22.5520  -30.9070 C   0  0  0  0  0  0  0  0  0  0  0  0
   -6.2900   22.4700  -31.5980 N   0  0  0  0  0  0  0  0  0  0  0  0
   -6.1430   21.3540  -32.5620 C   0  0  0  0  0  0  0  0  0  0  0  0
   -6.2810   19.9760  -31.8990 C   0  0  0  0  0  0  0  0  0  0  0  0
   -7.0410   18.9860  -32.7810 C   0  0  0  0  0  0  0  0  0  0  0  0
   -5.8330   23.7580  -32.1610 C   0  0  0  0  0  0  0  0  0  0  0  0
   -6.0710   24.8840  -31.1510 C   0  0  0  0  0  0  0  0  0  0  0  0
   -5.0330   24.9030  -30.0190 C   0  0  0  0  0  0  0  0  0  0  0  0
   -3.7760   24.3730  -30.4510 O   0  0  0  0  0  0  0  0  0  0  0  0
   -3.1610   23.2010  -29.9780 C   0  0  0  0  0  0  0  0  0  0  0  0
   -2.4240   23.2800  -28.7890 C   0  0  0  0  0  0  0  0  0  0  0  0
   -1.7510   22.1580  -28.2940 C   0  0  0  0  0  0  0  0  0  0  0  0
   -1.8160   20.9400  -28.9790 C   0  0  0  0  0  0  0  0  0  0  0  0
   -1.0900   19.7960  -28.4940 N   0  0  0  0  0  0  0  0  0  0  0  0
   -1.5620   19.0700  -27.4260 C   0  0  0  0  0  0  0  0  0  0  0  0
   -2.8500   19.4520  -26.7390 C   0  0  0  0  0  0  0  0  0  0  0  0
   -0.8660   17.9870  -26.9770 N   0  0  0  0  0  0  0  0  0  0  0  0
    0.2950   17.5970  -27.5670 C   0  0  0  0  0  0  0  0  0  0  0  0
    0.9960   16.4760  -27.0910 C   0  0  0  0  0  0  0  0  0  0  0  0
    2.1890   16.0800  -27.7020 C   0  0  0  0  0  0  0  0  0  0  0  0
    2.6920   16.7990  -28.7890 C   0  0  0  0  0  0  0  0  0  0  0  0
    2.0050   17.9170  -29.2710 C   0  0  0  0  0  0  0  0  0  0  0  0
    0.8010   18.3230  -28.6640 C   0  0  0  0  0  0  0  0  0  0  0  0
    0.0780   19.4380  -29.1140 C   0  0  0  0  0  0  0  0  0  0  0  0
    0.5050   20.1110  -30.0950 O   0  0  0  0  0  0  0  0  0  0  0  0
   -2.5700   20.8440  -30.1550 C   0  0  0  0  0  0  0  0  0  0  0  0
   -3.2470   21.9630  -30.6500 C   0  0  0  0  0  0  0  0  0  0  0  0
   -9.7411   20.7926  -30.9336 H   0  0  0  0  0  0  0  0  0  0  0  0
  -10.4883   21.3054  -32.4845 H   0  0  0  0  0  0  0  0  0  0  0  0
   -8.8848   20.4960  -32.4845 H   0  0  0  0  0  0  0  0  0  0  0  0
   -8.5449   22.8725  -32.8261 H   0  0  0  0  0  0  0  0  0  0  0  0
   -9.5818   23.2360  -31.3607 H   0  0  0  0  0  0  0  0  0  0  0  0
   -7.6185   23.4815  -30.3189 H   0  0  0  0  0  0  0  0  0  0  0  0
   -7.6798   21.6355  -30.3033 H   0  0  0  0  0  0  0  0  0  0  0  0
   -6.9196   21.4520  -33.3348 H   0  0  0  0  0  0  0  0  0  0  0  0
   -5.1320   21.4165  -32.9909 H   0  0  0  0  0  0  0  0  0  0  0  0
   -5.2758   19.5754  -31.7013 H   0  0  0  0  0  0  0  0  0  0  0  0
   -6.8504   20.1047  -30.9667 H   0  0  0  0  0  0  0  0  0  0  0  0
   -7.5878   18.2737  -32.1457 H   0  0  0  0  0  0  0  0  0  0  0  0
   -7.7535   19.5328  -33.4161 H   0  0  0  0  0  0  0  0  0  0  0  0
   -6.3287   18.4389  -33.4161 H   0  0  0  0  0  0  0  0  0  0  0  0
   -4.7590   23.6950  -32.3901 H   0  0  0  0  0  0  0  0  0  0  0  0
   -6.3983   23.9715  -33.0802 H   0  0  0  0  0  0  0  0  0  0  0  0
   -6.0283   25.8463  -31.6821 H   0  0  0  0  0  0  0  0  0  0  0  0
   -7.0558   24.7121  -30.6920 H   0  0  0  0  0  0  0  0  0  0  0  0
   -4.8874   25.9409  -29.6849 H   0  0  0  0  0  0  0  0  0  0  0  0
   -5.4077   24.2758  -29.1967 H   0  0  0  0  0  0  0  0  0  0  0  0
   -2.3742   24.2321  -28.2403 H   0  0  0  0  0  0  0  0  0  0  0  0
   -1.1691   22.2337  -27.3636 H   0  0  0  0  0  0  0  0  0  0  0  0
   -2.7103   19.4106  -25.6487 H   0  0  0  0  0  0  0  0  0  0  0  0
   -3.1339   20.4730  -27.0337 H   0  0  0  0  0  0  0  0  0  0  0  0
   -3.6447   18.7509  -27.0337 H   0  0  0  0  0  0  0  0  0  0  0  0
   -1.2310   17.4420  -26.1620 H   0  0  0  0  0  0  0  0  0  0  0  0
    0.6043   15.9080  -26.2343 H   0  0  0  0  0  0  0  0  0  0  0  0
    2.7328   15.2007  -27.3263 H   0  0  0  0  0  0  0  0  0  0  0  0
    3.6314   16.4845  -29.2671 H   0  0  0  0  0  0  0  0  0  0  0  0
    2.4058   18.4808  -30.1263 H   0  0  0  0  0  0  0  0  0  0  0  0
   -2.6300   19.8854  -30.6911 H   0  0  0  0  0  0  0  0  0  0  0  0
   -3.8489   21.8779  -31.5668 H   0  0  0  0  0  0  0  0  0  0  0  0
  1  2  1  0
  2  3  1  0
  3  4  1  0
  4  5  1  0
  5  6  1  0
  6  7  1  0
  4  8  1  0
  8  9  1  0
  9 10  1  0
 10 11  1  0
 11 12  1  0
 12 13  2  0
 13 14  1  0
 14 15  2  0
 15 16  1  0
 16 17  1  0
 17 18  1  0
 17 19  2  0
 19 20  1  0
 20 21  2  0
 21 22  1  0
 22 23  2  0
 23 24  1  0
 24 25  2  0
 25 26  1  0
 26 27  2  0
 15 28  1  0
 28 29  2  0
 29 12  1  0
 26 16  1  0
 25 20  1  0
  1 30  1  0
  1 31  1  0
  1 32  1  0
  2 33  1  0
  2 34  1  0
  3 35  1  0
  3 36  1  0
  5 37  1  0
  5 38  1  0
  6 39  1  0
  6 40  1  0
  7 41  1  0
  7 42  1  0
  7 43  1  0
  8 44  1  0
  8 45  1  0
  9 46  1  0
  9 47  1  0
 10 48  1  0
 10 49  1  0
 13 50  1  0
 14 51  1  0
 18 52  1  0
 18 53  1  0
 18 54  1  0
 19 55  1  0
 21 56  1  0
 22 57  1  0
 23 58  1  0
 24 59  1  0
 28 60  1  0
 29 61  1  0
M  CHG  1  19   1
M  END
>  <UniqueID>  (44) 
44

>  <SMILES>  (44) 
CCCN(CCC)CCCOc1ccc(-n2c(C)[nH+]c3ccccc3c2=O)cc1

>  <Energy>  (44) 
74.54252336918462

>  <Genealogy>  (44) 
CCCN(CCC)CCCOc1ccc(-n2c(C)[nH+]c3ccccc3c2=O)cc1 (protonated)
CCCN(CCC)CCCOc1ccc(-n2c(C)[nH+]c3ccccc3c2=O)cc1 (3D coordinates assigned)
CCCN(CCC)CCCOc1ccc(-n2c(C)[nH+]c3ccccc3c2=O)cc1 (optimized conformer: 74.54252336918462 kcal/mol)

>  <smiles>  (44) 
CCCN(CCC)CCCOc1ccc(-n2c(C)nc3ccccc3c2=O)cc1

>  <score_type>  (44) 
oracle

>  <origin>  (44) 
adg

>  <m_score__min__energy>  (44) 
-7.8399999999999999

>  <m_primary>  (44) 
energy

$$$$
