0:0
     RDKit          3D

 54 57  0  0  0  0  0  0  0  0999 V2000
    0.9760   25.3250  -35.7340 C   0  0  0  0  0  0  0  0  0  0  0  0
    1.0870   23.9910  -36.4690 C   0  0  0  0  0  0  0  0  0  0  0  0
    1.4370   22.9070  -35.5390 N   0  0  0  0  0  0  0  0  0  0  0  0
    0.9500   21.6130  -36.0450 C   0  0  0  0  0  0  0  0  0  0  0  0
   -0.1080   21.0090  -35.1110 C   0  0  0  0  0  0  0  0  0  0  0  0
   -0.4230   21.8980  -34.0540 O   0  0  0  0  0  0  0  0  0  0  0  0
   -0.4160   21.2170  -32.8160 C   0  0  0  0  0  0  0  0  0  0  0  0
   -1.8310   21.2040  -32.2480 C   0  0  0  0  0  0  0  0  0  0  0  0
   -2.8140   21.1610  -33.3300 N   0  0  0  0  0  0  0  0  0  0  0  0
   -3.9210   20.2480  -33.2860 C   0  0  0  0  0  0  0  0  0  0  0  0
   -3.8290   18.9350  -33.7900 C   0  0  0  0  0  0  0  0  0  0  0  0
   -2.6150   18.4400  -34.3070 C   0  0  0  0  0  0  0  0  0  0  0  0
   -2.5430   17.1550  -34.8400 C   0  0  0  0  0  0  0  0  0  0  0  0
   -3.6710   16.3430  -34.8640 C   0  0  0  0  0  0  0  0  0  0  0  0
   -4.8760   16.7950  -34.3260 C   0  0  0  0  0  0  0  0  0  0  0  0
   -4.9780   18.0820  -33.7440 C   0  0  0  0  0  0  0  0  0  0  0  0
   -6.1510   18.5160  -33.1430 N   0  0  0  0  0  0  0  0  0  0  0  0
   -7.1730   17.5350  -32.7380 C   0  0  0  0  0  0  0  0  0  0  0  0
   -6.2720   19.8470  -32.7980 C   0  0  0  0  0  0  0  0  0  0  0  0
   -5.1500   20.6730  -32.7980 C   0  0  0  0  0  0  0  0  0  0  0  0
   -5.5280   22.2060  -32.2080 S   0  0  0  0  0  0  0  0  0  0  0  0
   -7.1550   21.8630  -31.9940 C   0  0  0  0  0  0  0  0  0  0  0  0
   -8.1390   22.7510  -31.5680 C   0  0  0  0  0  0  0  0  0  0  0  0
   -9.4700   22.3210  -31.5650 C   0  0  0  0  0  0  0  0  0  0  0  0
   -9.7960   21.0340  -32.0200 C   0  0  0  0  0  0  0  0  0  0  0  0
   -8.7920   20.1530  -32.4540 C   0  0  0  0  0  0  0  0  0  0  0  0
   -7.4410   20.5530  -32.3910 C   0  0  0  0  0  0  0  0  0  0  0  0
    0.9907   25.1479  -34.6485 H   0  0  0  0  0  0  0  0  0  0  0  0
    1.8237   25.9685  -36.0121 H   0  0  0  0  0  0  0  0  0  0  0  0
    0.0336   25.8195  -36.0121 H   0  0  0  0  0  0  0  0  0  0  0  0
    0.1222   23.7603  -36.9443 H   0  0  0  0  0  0  0  0  0  0  0  0
    1.8793   24.0726  -37.2277 H   0  0  0  0  0  0  0  0  0  0  0  0
    2.4790   22.8690  -35.4360 H   0  0  0  0  0  0  0  0  0  0  0  0
    1.0010   23.1000  -34.6060 H   0  0  0  0  0  0  0  0  0  0  0  0
    0.5057   21.7621  -37.0402 H   0  0  0  0  0  0  0  0  0  0  0  0
    1.8019   20.9191  -36.0980 H   0  0  0  0  0  0  0  0  0  0  0  0
   -1.0204   20.8006  -35.6890 H   0  0  0  0  0  0  0  0  0  0  0  0
    0.2963   20.0818  -34.6787 H   0  0  0  0  0  0  0  0  0  0  0  0
   -0.0692   20.1839  -32.9655 H   0  0  0  0  0  0  0  0  0  0  0  0
    0.2609   21.7275  -32.1151 H   0  0  0  0  0  0  0  0  0  0  0  0
   -1.9568   20.3179  -31.6085 H   0  0  0  0  0  0  0  0  0  0  0  0
   -1.9878   22.1200  -31.6595 H   0  0  0  0  0  0  0  0  0  0  0  0
   -2.5020   21.4990  -34.2680 H   0  0  0  0  0  0  0  0  0  0  0  0
   -1.7163   19.0740  -34.2895 H   0  0  0  0  0  0  0  0  0  0  0  0
   -1.5902   16.7815  -35.2433 H   0  0  0  0  0  0  0  0  0  0  0  0
   -3.6131   15.3389  -35.3095 H   0  0  0  0  0  0  0  0  0  0  0  0
   -5.7606   16.1417  -34.3542 H   0  0  0  0  0  0  0  0  0  0  0  0
   -7.2217   17.4883  -31.6401 H   0  0  0  0  0  0  0  0  0  0  0  0
   -8.1521   17.8401  -33.1358 H   0  0  0  0  0  0  0  0  0  0  0  0
   -6.9082   16.5442  -33.1358 H   0  0  0  0  0  0  0  0  0  0  0  0
   -7.8757   23.7678  -31.2412 H   0  0  0  0  0  0  0  0  0  0  0  0
  -10.2630   22.9931  -31.2052 H   0  0  0  0  0  0  0  0  0  0  0  0
  -10.8478   20.7123  -32.0369 H   0  0  0  0  0  0  0  0  0  0  0  0
   -9.0575   19.1579  -32.8404 H   0  0  0  0  0  0  0  0  0  0  0  0
  1  2  1  0
  2  3  1  0
  3  4  1  0
  4  5  1  0
  5  6  1  0
  6  7  1  0
  7  8  1  0
  8  9  1  0
  9 10  1  0
 10 11  2  0
 11 12  1  0
 12 13  2  0
 13 14  1  0
 14 15  2  0
 15 16  1  0
 16 17  2  0
 17 18  1  0
 17 19  1  0
 19 20  2  0
 20 21  1  0
 21 22  1  0
 22 23  2  0
 23 24  1  0
 24 25  2  0
 25 26  1  0
 26 27  2  0
 20 10  1  0
 27 22  1  0
 16 11  1  0
 27 19  1  0
  1 28  1  0
  1 29  1  0
  1 30  1  0
  2 31  1  0
  2 32  1  0
  3 33  1  0
  3 34  1  0
  4 35  1  0
  4 36  1  0
  5 37  1  0
  5 38  1  0
  7 39  1  0
  7 40  1  0
  8 41  1  0
  8 42  1  0
  9 43  1  0
 12 44  1  0
 13 45  1  0
 14 46  1  0
 15 47  1  0
 18 48  1  0
 18 49  1  0
 18 50  1  0
 23 51  1  0
 24 52  1  0
 25 53  1  0
 26 54  1  0
M  CHG  2   3   1  17   1
M  END
>  <UniqueID>  (1) 
1

>  <SMILES>  (1) 
CC[NH2+]CCOCCNc1c2ccccc2[n+](C)c2c1sc1ccccc12

>  <Energy>  (1) 
112.05967270280347

>  <Genealogy>  (1) 
CC[NH2+]CCOCCNc1c2ccccc2[n+](C)c2c1sc1ccccc12 (protonated)
CC[NH2+]CCOCCNc1c2ccccc2[n+](C)c2c1sc1ccccc12 (3D coordinates assigned)
CC[NH2+]CCOCCNc1c2ccccc2[n+](C)c2c1sc1ccccc12 (optimized conformer: 112.05967270280347 kcal/mol)

>  <smiles>  (1) 
CCNCCOCCNc1c2ccccc2[n+](C)c2c1sc1ccccc12

>  <score_type>  (1) 
oracle

>  <origin>  (1) 
adg

>  <m_score__min__energy>  (1) 
-8.7400000000000002

>  <m_primary>  (1) 
energy

$$$$
1:0
     RDKit          3D

 69 70  0  0  0  0  0  0  0  0999 V2000
   -4.7270   18.5570  -34.5690 C   0  0  0  0  0  0  0  0  0  0  0  0
   -5.4260   19.6500  -33.9710 O   0  0  0  0  0  0  0  0  0  0  0  0
   -6.5260   19.5270  -33.1070 C   0  0  0  0  0  0  0  0  0  0  0  0
   -7.1400   18.2780  -32.8610 C   0  0  0  0  0  0  0  0  0  0  0  0
   -8.2360   18.1860  -32.0010 C   0  0  0  0  0  0  0  0  0  0  0  0
   -8.7380   19.3290  -31.3770 C   0  0  0  0  0  0  0  0  0  0  0  0
   -8.1400   20.5710  -31.6090 C   0  0  0  0  0  0  0  0  0  0  0  0
   -7.0250   20.6820  -32.4570 C   0  0  0  0  0  0  0  0  0  0  0  0
   -6.4160   22.0500  -32.7070 C   0  0  0  0  0  0  0  0  0  0  0  0
   -4.9910   22.0070  -33.0970 N   0  0  0  0  0  0  0  0  0  0  0  0
   -4.0550   22.0370  -31.9550 C   0  0  0  0  0  0  0  0  0  0  0  0
   -2.9550   20.9780  -32.1300 C   0  0  0  0  0  0  0  0  0  0  0  0
   -2.4890   20.9000  -33.5250 N   0  0  0  0  0  0  0  0  0  0  0  0
   -1.0760   20.4810  -33.5890 C   0  0  0  0  0  0  0  0  0  0  0  0
   -0.4890   20.4750  -35.0330 C   0  0  0  0  0  0  0  0  0  0  0  0
    0.9960   20.2320  -35.1930 N   0  0  0  0  0  0  0  0  0  0  0  0
    1.5210   19.3490  -34.1140 C   0  0  0  0  0  0  0  0  0  0  0  0
    1.2000   19.5200  -36.4930 C   0  0  0  0  0  0  0  0  0  0  0  0
    1.7100   21.5550  -35.2650 C   0  0  0  0  0  0  0  0  0  0  0  0
    0.8650   22.7910  -35.6980 C   0  0  0  0  0  0  0  0  0  0  0  0
    1.7440   23.9360  -36.2280 C   0  0  0  0  0  0  0  0  0  0  0  0
    1.0100   24.7400  -37.2160 N   0  0  0  0  0  0  0  0  0  0  0  0
   -0.2330   25.2950  -36.6470 C   0  0  0  0  0  0  0  0  0  0  0  0
   -0.3430   26.7930  -36.8550 C   0  0  0  0  0  0  0  0  0  0  0  0
   -0.3000   27.6690  -35.7580 C   0  0  0  0  0  0  0  0  0  0  0  0
   -0.3870   29.0510  -35.9540 C   0  0  0  0  0  0  0  0  0  0  0  0
   -0.5190   29.5680  -37.2470 C   0  0  0  0  0  0  0  0  0  0  0  0
   -0.6260   30.9060  -37.4280 F   0  0  0  0  0  0  0  0  0  0  0  0
   -0.5500   28.7030  -38.3440 C   0  0  0  0  0  0  0  0  0  0  0  0
   -0.4550   27.3220  -38.1530 C   0  0  0  0  0  0  0  0  0  0  0  0
   -4.3137   17.9107  -33.7806 H   0  0  0  0  0  0  0  0  0  0  0  0
   -5.4212   17.9754  -35.1934 H   0  0  0  0  0  0  0  0  0  0  0  0
   -3.9079   18.9432  -35.1934 H   0  0  0  0  0  0  0  0  0  0  0  0
   -6.7518   17.3725  -33.3503 H   0  0  0  0  0  0  0  0  0  0  0  0
   -8.7056   17.2089  -31.8145 H   0  0  0  0  0  0  0  0  0  0  0  0
   -9.6039   19.2525  -30.7029 H   0  0  0  0  0  0  0  0  0  0  0  0
   -8.5462   21.4703  -31.1230 H   0  0  0  0  0  0  0  0  0  0  0  0
   -6.9816   22.5391  -33.5137 H   0  0  0  0  0  0  0  0  0  0  0  0
   -6.4716   22.6034  -31.7580 H   0  0  0  0  0  0  0  0  0  0  0  0
   -4.7800   22.7910  -33.7610 H   0  0  0  0  0  0  0  0  0  0  0  0
   -4.8430   21.1150  -33.6280 H   0  0  0  0  0  0  0  0  0  0  0  0
   -3.5918   23.0328  -31.8932 H   0  0  0  0  0  0  0  0  0  0  0  0
   -4.6135   21.8195  -31.0326 H   0  0  0  0  0  0  0  0  0  0  0  0
   -2.1036   21.2386  -31.4841 H   0  0  0  0  0  0  0  0  0  0  0  0
   -3.3749   19.9994  -31.8542 H   0  0  0  0  0  0  0  0  0  0  0  0
   -2.5380   21.8840  -33.8770 H   0  0  0  0  0  0  0  0  0  0  0  0
   -0.4805   21.1726  -32.9749 H   0  0  0  0  0  0  0  0  0  0  0  0
   -1.0305   19.4460  -33.2192 H   0  0  0  0  0  0  0  0  0  0  0  0
   -1.0122   19.6880  -35.5959 H   0  0  0  0  0  0  0  0  0  0  0  0
   -0.6411   21.5019  -35.3967 H   0  0  0  0  0  0  0  0  0  0  0  0
    1.2663   19.7773  -33.1333 H   0  0  0  0  0  0  0  0  0  0  0  0
    1.0701   18.3499  -34.2060 H   0  0  0  0  0  0  0  0  0  0  0  0
    2.6141   19.2679  -34.2060 H   0  0  0  0  0  0  0  0  0  0  0  0
    1.4982   18.4793  -36.2982 H   0  0  0  0  0  0  0  0  0  0  0  0
    0.2625   19.5313  -37.0683 H   0  0  0  0  0  0  0  0  0  0  0  0
    1.9893   20.0260  -37.0683 H   0  0  0  0  0  0  0  0  0  0  0  0
    2.1195   21.7661  -34.2661 H   0  0  0  0  0  0  0  0  0  0  0  0
    2.4629   21.4312  -36.0574 H   0  0  0  0  0  0  0  0  0  0  0  0
    0.1672   22.4834  -36.4908 H   0  0  0  0  0  0  0  0  0  0  0  0
    0.3261   23.1597  -34.8128 H   0  0  0  0  0  0  0  0  0  0  0  0
    2.0426   24.5805  -35.3881 H   0  0  0  0  0  0  0  0  0  0  0  0
    2.6323   23.5047  -36.7127 H   0  0  0  0  0  0  0  0  0  0  0  0
    1.6220   25.5300  -37.5350 H   0  0  0  0  0  0  0  0  0  0  0  0
   -1.0920   24.8068  -37.1304 H   0  0  0  0  0  0  0  0  0  0  0  0
   -0.2206   25.1059  -35.5634 H   0  0  0  0  0  0  0  0  0  0  0  0
   -0.1974   27.2661  -34.7396 H   0  0  0  0  0  0  0  0  0  0  0  0
   -0.3516   29.7319  -35.0908 H   0  0  0  0  0  0  0  0  0  0  0  0
   -0.6495   29.1104  -39.3609 H   0  0  0  0  0  0  0  0  0  0  0  0
   -0.4679   26.6464  -39.0210 H   0  0  0  0  0  0  0  0  0  0  0  0
  1  2  1  0
  2  3  1  0
  3  4  2  0
  4  5  1  0
  5  6  2  0
  6  7  1  0
  7  8  2  0
  8  9  1  0
  9 10  1  0
 10 11  1  0
 11 12  1  0
 12 13  1  0
 13 14  1  0
 14 15  1  0
 15 16  1  0
 16 17  1  0
 16 18  1  0
 16 19  1  0
 19 20  1  0
 20 21  1  0
 21 22  1  0
 22 23  1  0
 23 24  1  0
 24 25  2  0
 25 26  1  0
 26 27  2  0
 27 28  1  0
 27 29  1  0
 29 30  2  0
  8  3  1  0
 30 24  1  0
  1 31  1  0
  1 32  1  0
  1 33  1  0
  4 34  1  0
  5 35  1  0
  6 36  1  0
  7 37  1  0
  9 38  1  0
  9 39  1  0
 10 40  1  0
 10 41  1  0
 11 42  1  0
 11 43  1  0
 12 44  1  0
 12 45  1  0
 13 46  1  0
 14 47  1  0
 14 48  1  0
 15 49  1  0
 15 50  1  0
 17 51  1  0
 17 52  1  0
 17 53  1  0
 18 54  1  0
 18 55  1  0
 18 56  1  0
 19 57  1  0
 19 58  1  0
 20 59  1  0
 20 60  1  0
 21 61  1  0
 21 62  1  0
 22 63  1  0
 23 64  1  0
 23 65  1  0
 25 66  1  0
 26 67  1  0
 29 68  1  0
 30 69  1  0
M  CHG  2  10   1  16   1
M  END
>  <UniqueID>  (2) 
2

>  <SMILES>  (2) 
COc1ccccc1C[NH2+]CCNCC[N+](C)(C)CCCNCc1ccc(F)cc1

>  <Energy>  (2) 
85.70214310083925

>  <Genealogy>  (2) 
COc1ccccc1C[NH2+]CCNCC[N+](C)(C)CCCNCc1ccc(F)cc1 (protonated)
COc1ccccc1C[NH2+]CCNCC[N+](C)(C)CCCNCc1ccc(F)cc1 (3D coordinates assigned)
COc1ccccc1C[NH2+]CCNCC[N+](C)(C)CCCNCc1ccc(F)cc1 (optimized conformer: 85.70214310083925 kcal/mol)

>  <smiles>  (2) 
COc1ccccc1CNCCNCC[N+](C)(C)CCCNCc1ccc(F)cc1

>  <score_type>  (2) 
oracle

>  <origin>  (2) 
adg

>  <m_score__min__energy>  (2) 
-5.8099999999999996

>  <m_primary>  (2) 
energy

$$$$
2:0
     RDKit          3D

 64 67  0  0  0  0  0  0  0  0999 V2000
   -5.6910   17.8320  -34.9310 C   0  0  0  0  0  0  0  0  0  0  0  0
   -4.5320   17.3140  -34.0840 C   0  0  0  0  0  0  0  0  0  0  0  0
   -3.3070   18.0760  -34.3650 N   0  0  0  0  0  0  0  0  0  0  0  0
   -2.5380   18.3340  -33.1380 C   0  0  0  0  0  0  0  0  0  0  0  0
   -1.8800   19.7310  -33.1910 C   0  0  1  0  0  0  0  0  0  0  0  0
   -2.8110   20.7770  -33.8420 C   0  0  0  0  0  0  0  0  0  0  0  0
   -4.2150   20.5760  -33.4700 N   0  0  0  0  0  0  0  0  0  0  0  0
   -5.0220   21.4860  -32.6850 C   0  0  0  0  0  0  0  0  0  0  0  0
   -4.4850   22.6710  -32.1380 C   0  0  0  0  0  0  0  0  0  0  0  0
   -5.2720   23.5470  -31.3820 C   0  0  0  0  0  0  0  0  0  0  0  0
   -4.6740   24.7150  -30.8870 O   0  0  0  0  0  0  0  0  0  0  0  0
   -5.3920   25.8500  -30.4160 C   0  0  0  0  0  0  0  0  0  0  0  0
   -6.6220   23.2370  -31.1460 C   0  0  0  0  0  0  0  0  0  0  0  0
   -7.1750   22.0630  -31.6680 C   0  0  0  0  0  0  0  0  0  0  0  0
   -8.5200   21.7390  -31.4360 C   0  0  0  0  0  0  0  0  0  0  0  0
   -9.0530   20.5620  -31.9620 C   0  0  0  0  0  0  0  0  0  0  0  0
   -8.2380   19.7190  -32.7170 C   0  0  0  0  0  0  0  0  0  0  0  0
   -6.9360   20.0450  -32.9360 N   0  0  0  0  0  0  0  0  0  0  0  0
   -6.3790   21.1850  -32.4390 C   0  0  0  0  0  0  0  0  0  0  0  0
   -1.3480   20.2030  -31.8440 C   0  0  0  0  0  0  0  0  0  0  0  0
   -0.8110   19.2660  -30.9450 C   0  0  0  0  0  0  0  0  0  0  0  0
   -0.3170   19.6720  -29.7020 C   0  0  0  0  0  0  0  0  0  0  0  0
   -0.3390   21.0300  -29.3360 C   0  0  0  0  0  0  0  0  0  0  0  0
    0.1090   21.4900  -28.0880 O   0  0  0  0  0  0  0  0  0  0  0  0
   -0.6960   21.6230  -26.9160 C   0  0  0  0  0  0  0  0  0  0  0  0
   -1.9300   22.4330  -27.2060 C   0  0  0  0  0  0  0  0  0  0  0  0
   -1.9490   23.8070  -26.9140 C   0  0  0  0  0  0  0  0  0  0  0  0
   -3.0770   24.5750  -27.2170 C   0  0  0  0  0  0  0  0  0  0  0  0
   -4.1950   23.9770  -27.8040 C   0  0  0  0  0  0  0  0  0  0  0  0
   -4.1840   22.6110  -28.0980 C   0  0  0  0  0  0  0  0  0  0  0  0
   -3.0530   21.8410  -27.8060 C   0  0  0  0  0  0  0  0  0  0  0  0
   -0.8400   21.9680  -30.2440 C   0  0  0  0  0  0  0  0  0  0  0  0
   -1.3410   21.5650  -31.4830 C   0  0  0  0  0  0  0  0  0  0  0  0
   -6.4950   18.1913  -34.2718 H   0  0  0  0  0  0  0  0  0  0  0  0
   -5.3402   18.6590  -35.5659 H   0  0  0  0  0  0  0  0  0  0  0  0
   -6.0732   17.0191  -35.5659 H   0  0  0  0  0  0  0  0  0  0  0  0
   -4.7870   17.4188  -33.0191 H   0  0  0  0  0  0  0  0  0  0  0  0
   -4.3569   16.2563  -34.3302 H   0  0  0  0  0  0  0  0  0  0  0  0
   -2.7130   17.4890  -34.9960 H   0  0  0  0  0  0  0  0  0  0  0  0
   -3.2136   18.2854  -32.2713 H   0  0  0  0  0  0  0  0  0  0  0  0
   -1.7482   17.5736  -33.0485 H   0  0  0  0  0  0  0  0  0  0  0  0
   -0.9965   19.6230  -33.8373 H   0  0  0  0  0  0  0  0  0  0  0  0
   -2.4985   21.7804  -33.5171 H   0  0  0  0  0  0  0  0  0  0  0  0
   -2.7316   20.6671  -34.9336 H   0  0  0  0  0  0  0  0  0  0  0  0
   -4.6390   19.6770  -33.7920 H   0  0  0  0  0  0  0  0  0  0  0  0
   -3.4253   22.9111  -32.3096 H   0  0  0  0  0  0  0  0  0  0  0  0
   -5.3935   25.8524  -29.3160 H   0  0  0  0  0  0  0  0  0  0  0  0
   -4.9097   26.7676  -30.7840 H   0  0  0  0  0  0  0  0  0  0  0  0
   -6.4277   25.8073  -30.7840 H   0  0  0  0  0  0  0  0  0  0  0  0
   -7.2454   23.9191  -30.5493 H   0  0  0  0  0  0  0  0  0  0  0  0
   -9.1537   22.4122  -30.8400 H   0  0  0  0  0  0  0  0  0  0  0  0
  -10.1065   20.3012  -31.7829 H   0  0  0  0  0  0  0  0  0  0  0  0
   -8.6490   18.7887  -33.1361 H   0  0  0  0  0  0  0  0  0  0  0  0
   -0.7790   18.2020  -31.2223 H   0  0  0  0  0  0  0  0  0  0  0  0
    0.0915   18.9248  -29.0057 H   0  0  0  0  0  0  0  0  0  0  0  0
   -0.9943   20.6231  -26.5677 H   0  0  0  0  0  0  0  0  0  0  0  0
   -0.1093   22.1384  -26.1413 H   0  0  0  0  0  0  0  0  0  0  0  0
   -1.0734   24.2800  -26.4454 H   0  0  0  0  0  0  0  0  0  0  0  0
   -3.0844   25.6519  -26.9929 H   0  0  0  0  0  0  0  0  0  0  0  0
   -5.0843   24.5818  -28.0348 H   0  0  0  0  0  0  0  0  0  0  0  0
   -5.0650   22.1408  -28.5593 H   0  0  0  0  0  0  0  0  0  0  0  0
   -3.0435   20.7678  -28.0473 H   0  0  0  0  0  0  0  0  0  0  0  0
   -0.8393   23.0356  -29.9789 H   0  0  0  0  0  0  0  0  0  0  0  0
   -1.7336   22.3169  -32.1833 H   0  0  0  0  0  0  0  0  0  0  0  0
  1  2  1  0
  2  3  1  0
  3  4  1  0
  4  5  1  0
  5  6  1  0
  6  7  1  0
  7  8  1  0
  8  9  2  0
  9 10  1  0
 10 11  1  0
 11 12  1  0
 10 13  2  0
 13 14  1  0
 14 15  2  0
 15 16  1  0
 16 17  2  0
 17 18  1  0
 18 19  2  0
  5 20  1  0
 20 21  2  0
 21 22  1  0
 22 23  2  0
 23 24  1  0
 24 25  1  0
 25 26  1  0
 26 27  2  0
 27 28  1  0
 28 29  2  0
 29 30  1  0
 30 31  2  0
 23 32  1  0
 32 33  2  0
 19  8  1  0
 33 20  1  0
 19 14  1  0
 31 26  1  0
  1 34  1  0
  1 35  1  0
  1 36  1  0
  2 37  1  0
  2 38  1  0
  3 39  1  0
  4 40  1  0
  4 41  1  0
  5 42  1  6
  6 43  1  0
  6 44  1  0
  7 45  1  0
  9 46  1  0
 12 47  1  0
 12 48  1  0
 12 49  1  0
 13 50  1  0
 15 51  1  0
 16 52  1  0
 17 53  1  0
 21 54  1  0
 22 55  1  0
 25 56  1  0
 25 57  1  0
 27 58  1  0
 28 59  1  0
 29 60  1  0
 30 61  1  0
 31 62  1  0
 32 63  1  0
 33 64  1  0
M  END
>  <UniqueID>  (3) 
3

>  <SMILES>  (3) 
CCNC[C@@H](CNc1cc(OC)cc2cccnc12)c1ccc(OCc2ccccc2)cc1

>  <Energy>  (3) 
65.61013206466794

>  <Genealogy>  (3) 
CCNC[C@@H](CNc1cc(OC)cc2cccnc12)c1ccc(OCc2ccccc2)cc1 (chirality)
CCNC[C@@H](CNc1cc(OC)cc2cccnc12)c1ccc(OCc2ccccc2)cc1 (3D coordinates assigned)
CCNC[C@@H](CNc1cc(OC)cc2cccnc12)c1ccc(OCc2ccccc2)cc1 (optimized conformer: 65.61013206466794 kcal/mol)

>  <smiles>  (3) 
CCNCC(CNc1cc(OC)cc2cccnc12)c1ccc(OCc2ccccc2)cc1

>  <score_type>  (3) 
oracle

>  <origin>  (3) 
adg

>  <m_score__min__energy>  (3) 
-10.4

>  <m_primary>  (3) 
energy

$$$$
3:0
     RDKit          3D

 82 85  0  0  0  0  0  0  0  0999 V2000
   -1.6540   25.1320  -28.0250 C   0  0  0  0  0  0  0  0  0  0  0  0
   -2.2890   24.5460  -29.2900 C   0  0  0  0  0  0  0  0  0  0  0  0
   -3.7710   24.4760  -29.2590 N   0  0  0  0  0  0  0  0  0  0  0  0
   -4.4810   25.0070  -30.4470 C   0  0  0  0  0  0  0  0  0  0  0  0
   -5.8050   25.6690  -30.0670 C   0  0  0  0  0  0  0  0  0  0  0  0
   -4.3220   23.2120  -28.7090 C   0  0  0  0  0  0  0  0  0  0  0  0
   -3.6690   21.9330  -29.2600 C   0  0  0  0  0  0  0  0  0  0  0  0
   -4.0560   21.7710  -30.6090 O   0  0  0  0  0  0  0  0  0  0  0  0
   -3.0190   22.1810  -31.4810 C   0  0  0  0  0  0  0  0  0  0  0  0
   -3.0040   21.3170  -32.7430 C   0  0  0  0  0  0  0  0  0  0  0  0
   -4.2460   21.4680  -33.5040 N   0  0  0  0  0  0  0  0  0  0  0  0
   -5.4140   20.7200  -33.1360 C   0  0  0  0  0  0  0  0  0  0  0  0
   -6.5080   21.3720  -32.5480 C   0  0  0  0  0  0  0  0  0  0  0  0
   -6.4780   22.7640  -32.3200 C   0  0  0  0  0  0  0  0  0  0  0  0
   -7.5360   23.4010  -31.6770 C   0  0  0  0  0  0  0  0  0  0  0  0
   -8.6320   22.6650  -31.2420 C   0  0  0  0  0  0  0  0  0  0  0  0
   -8.6910   21.2900  -31.4740 C   0  0  0  0  0  0  0  0  0  0  0  0
   -7.6470   20.6170  -32.1630 C   0  0  0  0  0  0  0  0  0  0  0  0
   -7.7100   19.2630  -32.4380 N   0  0  0  0  0  0  0  0  0  0  0  0
   -8.9910   18.5350  -32.2890 C   0  0  0  0  0  0  0  0  0  0  0  0
   -6.5830   18.5960  -32.8840 C   0  0  0  0  0  0  0  0  0  0  0  0
   -6.5210   17.1800  -32.9370 C   0  0  0  0  0  0  0  0  0  0  0  0
   -5.4040   16.5230  -33.4530 C   0  0  0  0  0  0  0  0  0  0  0  0
   -4.3100   17.2550  -33.9300 C   0  0  0  0  0  0  0  0  0  0  0  0
   -3.1750   16.6440  -34.4810 O   0  0  0  0  0  0  0  0  0  0  0  0
   -2.1000   16.0910  -33.7260 C   0  0  0  0  0  0  0  0  0  0  0  0
   -1.4180   17.2310  -32.9390 C   0  0  0  0  0  0  0  0  0  0  0  0
   -0.3920   18.0190  -33.6980 N   0  0  0  0  0  0  0  0  0  0  0  0
    0.3680   17.1080  -34.5960 C   0  0  0  0  0  0  0  0  0  0  0  0
   -1.0610   19.0880  -34.5190 C   0  0  0  0  0  0  0  0  0  0  0  0
   -0.1780   20.3290  -34.7230 C   0  0  0  0  0  0  0  0  0  0  0  0
    0.1420   20.9990  -33.3750 C   0  0  0  0  0  0  0  0  0  0  0  0
    0.1650   19.9960  -32.2100 C   0  0  0  0  0  0  0  0  0  0  0  0
    0.5770   18.5990  -32.7020 C   0  0  0  0  0  0  0  0  0  0  0  0
   -4.3330   18.6450  -33.8470 C   0  0  0  0  0  0  0  0  0  0  0  0
   -5.4370   19.3260  -33.2920 C   0  0  0  0  0  0  0  0  0  0  0  0
   -2.1314   24.6915  -27.1373 H   0  0  0  0  0  0  0  0  0  0  0  0
   -0.5782   24.9026  -28.0147 H   0  0  0  0  0  0  0  0  0  0  0  0
   -1.7964   26.2227  -28.0147 H   0  0  0  0  0  0  0  0  0  0  0  0
   -1.9924   25.1717  -30.1448 H   0  0  0  0  0  0  0  0  0  0  0  0
   -1.9285   23.5098  -29.3698 H   0  0  0  0  0  0  0  0  0  0  0  0
   -3.8398   25.7512  -30.9420 H   0  0  0  0  0  0  0  0  0  0  0  0
   -4.7002   24.1646  -31.1196 H   0  0  0  0  0  0  0  0  0  0  0  0
   -5.8920   25.7125  -28.9713 H   0  0  0  0  0  0  0  0  0  0  0  0
   -5.8363   26.6888  -30.4781 H   0  0  0  0  0  0  0  0  0  0  0  0
   -6.6396   25.0822  -30.4781 H   0  0  0  0  0  0  0  0  0  0  0  0
   -4.1842   23.2243  -27.6177 H   0  0  0  0  0  0  0  0  0  0  0  0
   -5.3791   23.1763  -29.0113 H   0  0  0  0  0  0  0  0  0  0  0  0
   -2.5742   22.0198  -29.1970 H   0  0  0  0  0  0  0  0  0  0  0  0
   -3.9934   21.0630  -28.6703 H   0  0  0  0  0  0  0  0  0  0  0  0
   -3.1790   23.2318  -31.7641 H   0  0  0  0  0  0  0  0  0  0  0  0
   -2.0550   22.0691  -30.9631 H   0  0  0  0  0  0  0  0  0  0  0  0
   -2.1567   21.6206  -33.3754 H   0  0  0  0  0  0  0  0  0  0  0  0
   -2.9061   20.2635  -32.4422 H   0  0  0  0  0  0  0  0  0  0  0  0
   -4.3410   22.2110  -34.2340 H   0  0  0  0  0  0  0  0  0  0  0  0
   -5.6101   23.3519  -32.6535 H   0  0  0  0  0  0  0  0  0  0  0  0
   -7.5045   24.4882  -31.5130 H   0  0  0  0  0  0  0  0  0  0  0  0
   -9.4553   23.1677  -30.7133 H   0  0  0  0  0  0  0  0  0  0  0  0
   -9.5603   20.7181  -31.1174 H   0  0  0  0  0  0  0  0  0  0  0  0
   -9.2174   18.4063  -31.2203 H   0  0  0  0  0  0  0  0  0  0  0  0
   -9.7973   19.1098  -32.7680 H   0  0  0  0  0  0  0  0  0  0  0  0
   -8.9098   17.5481  -32.7680 H   0  0  0  0  0  0  0  0  0  0  0  0
   -7.3702   16.5886  -32.5640 H   0  0  0  0  0  0  0  0  0  0  0  0
   -5.3825   15.4237  -33.4853 H   0  0  0  0  0  0  0  0  0  0  0  0
   -2.4878   15.3367  -33.0256 H   0  0  0  0  0  0  0  0  0  0  0  0
   -1.3745   15.6104  -34.3988 H   0  0  0  0  0  0  0  0  0  0  0  0
   -2.2012   17.9277  -32.6056 H   0  0  0  0  0  0  0  0  0  0  0  0
   -0.8750   16.7449  -32.1151 H   0  0  0  0  0  0  0  0  0  0  0  0
    0.9562   16.4029  -33.9904 H   0  0  0  0  0  0  0  0  0  0  0  0
   -0.3349   16.5485  -35.2308 H   0  0  0  0  0  0  0  0  0  0  0  0
    1.0445   17.6992  -35.2308 H   0  0  0  0  0  0  0  0  0  0  0  0
   -1.3095   18.6686  -35.5051 H   0  0  0  0  0  0  0  0  0  0  0  0
   -1.9592   19.4096  -33.9715 H   0  0  0  0  0  0  0  0  0  0  0  0
    0.7621   20.0271  -35.2079 H   0  0  0  0  0  0  0  0  0  0  0  0
   -0.7205   21.0481  -35.3544 H   0  0  0  0  0  0  0  0  0  0  0  0
    1.1286   21.4803  -33.4457 H   0  0  0  0  0  0  0  0  0  0  0  0
   -0.6518   21.7322  -33.1693 H   0  0  0  0  0  0  0  0  0  0  0  0
    0.8855   20.3389  -31.4528 H   0  0  0  0  0  0  0  0  0  0  0  0
   -0.8444   19.9344  -31.7771 H   0  0  0  0  0  0  0  0  0  0  0  0
    1.5667   18.6718  -33.1766 H   0  0  0  0  0  0  0  0  0  0  0  0
    0.5904   17.9318  -31.8275 H   0  0  0  0  0  0  0  0  0  0  0  0
   -3.4747   19.2225  -34.2210 H   0  0  0  0  0  0  0  0  0  0  0  0
  1  2  1  0
  2  3  1  0
  3  4  1  0
  4  5  1  0
  3  6  1  0
  6  7  1  0
  7  8  1  0
  8  9  1  0
  9 10  1  0
 10 11  1  0
 11 12  1  0
 12 13  2  0
 13 14  1  0
 14 15  2  0
 15 16  1  0
 16 17  2  0
 17 18  1  0
 18 19  2  0
 19 20  1  0
 19 21  1  0
 21 22  2  0
 22 23  1  0
 23 24  2  0
 24 25  1  0
 25 26  1  0
 26 27  1  0
 27 28  1  0
 28 29  1  0
 28 30  1  0
 30 31  1  0
 31 32  1  0
 32 33  1  0
 33 34  1  0
 24 35  1  0
 35 36  2  0
 36 12  1  0
 18 13  1  0
 36 21  1  0
 34 28  1  0
  1 37  1  0
  1 38  1  0
  1 39  1  0
  2 40  1  0
  2 41  1  0
  4 42  1  0
  4 43  1  0
  5 44  1  0
  5 45  1  0
  5 46  1  0
  6 47  1  0
  6 48  1  0
  7 49  1  0
  7 50  1  0
  9 51  1  0
  9 52  1  0
 10 53  1  0
 10 54  1  0
 11 55  1  0
 14 56  1  0
 15 57  1  0
 16 58  1  0
 17 59  1  0
 20 60  1  0
 20 61  1  0
 20 62  1  0
 22 63  1  0
 23 64  1  0
 26 65  1  0
 26 66  1  0
 27 67  1  0
 27 68  1  0
 29 69  1  0
 29 70  1  0
 29 71  1  0
 30 72  1  0
 30 73  1  0
 31 74  1  0
 31 75  1  0
 32 76  1  0
 32 77  1  0
 33 78  1  0
 33 79  1  0
 34 80  1  0
 34 81  1  0
 35 82  1  0
M  CHG  2  19   1  28   1
M  END
>  <UniqueID>  (4) 
4

>  <SMILES>  (4) 
CCN(CC)CCOCCNc1c2ccccc2[n+](C)c2ccc(OCC[N+]3(C)CCCCC3)cc12

>  <Energy>  (4) 
127.33952297148143

>  <Genealogy>  (4) 
CCN(CC)CCOCCNc1c2ccccc2[n+](C)c2ccc(OCC[N+]3(C)CCCCC3)cc12 (3D coordinates assigned)
CCN(CC)CCOCCNc1c2ccccc2[n+](C)c2ccc(OCC[N+]3(C)CCCCC3)cc12 (nonaromatic ring conformer: 127.33952297148143 kcal/mol)

>  <smiles>  (4) 
CCN(CC)CCOCCNc1c2ccccc2[n+](C)c2ccc(OCC[N+]3(C)CCCCC3)cc12

>  <score_type>  (4) 
oracle

>  <origin>  (4) 
adg

>  <m_score__min__energy>  (4) 
-8.7699999999999996

>  <m_primary>  (4) 
energy

$$$$
4:0
     RDKit          3D

 58 60  0  0  0  0  0  0  0  0999 V2000
   -6.1580   25.1660  -29.6310 C   0  0  0  0  0  0  0  0  0  0  0  0
   -5.4320   24.9980  -30.9610 C   0  0  0  0  0  0  0  0  0  0  0  0
   -4.2240   24.1600  -30.7970 N   0  0  0  0  0  0  0  0  0  0  0  0
   -3.4300   24.5530  -29.6180 C   0  0  0  0  0  0  0  0  0  0  0  0
   -4.5340   22.7130  -30.8080 C   0  0  0  0  0  0  0  0  0  0  0  0
   -3.3240   21.8220  -31.1720 C   0  0  0  0  0  0  0  0  0  0  0  0
   -3.5320   21.0490  -32.4860 C   0  0  0  0  0  0  0  0  0  0  0  0
   -4.6710   21.5880  -33.2560 N   0  0  0  0  0  0  0  0  0  0  0  0
   -5.8620   20.7680  -33.0920 C   0  0  0  0  0  0  0  0  0  0  0  0
   -7.0610   21.3220  -32.5740 C   0  0  0  0  0  0  0  0  0  0  0  0
   -7.2350   22.7190  -32.4290 C   0  0  0  0  0  0  0  0  0  0  0  0
   -8.4320   23.2470  -31.9520 C   0  0  0  0  0  0  0  0  0  0  0  0
   -9.4820   22.4030  -31.6240 C   0  0  0  0  0  0  0  0  0  0  0  0
   -9.3380   21.0240  -31.7490 C   0  0  0  0  0  0  0  0  0  0  0  0
   -8.1220   20.4530  -32.1990 C   0  0  0  0  0  0  0  0  0  0  0  0
   -7.9620   19.0870  -32.2860 N   0  0  0  0  0  0  0  0  0  0  0  0
   -8.8760   18.1810  -31.5590 C   0  0  0  0  0  0  0  0  0  0  0  0
   -6.9250   18.5630  -33.0310 C   0  0  0  0  0  0  0  0  0  0  0  0
   -6.9210   17.2030  -33.4180 C   0  0  0  0  0  0  0  0  0  0  0  0
   -5.8620   16.6580  -34.1520 C   0  0  0  0  0  0  0  0  0  0  0  0
   -5.8490   15.3050  -34.5180 O   0  0  0  0  0  0  0  0  0  0  0  0
   -6.9980   14.4630  -34.4790 C   0  0  0  0  0  0  0  0  0  0  0  0
   -4.8050   17.4700  -34.5590 C   0  0  0  0  0  0  0  0  0  0  0  0
   -3.7850   16.8940  -35.3310 O   0  0  0  0  0  0  0  0  0  0  0  0
   -2.8760   15.9000  -34.8610 C   0  0  0  0  0  0  0  0  0  0  0  0
   -4.7920   18.8250  -34.1880 C   0  0  0  0  0  0  0  0  0  0  0  0
   -5.8480   19.3910  -33.4370 C   0  0  0  0  0  0  0  0  0  0  0  0
   -5.4511   25.0024  -28.8042 H   0  0  0  0  0  0  0  0  0  0  0  0
   -6.5709   26.1834  -29.5646 H   0  0  0  0  0  0  0  0  0  0  0  0
   -6.9758   24.4334  -29.5646 H   0  0  0  0  0  0  0  0  0  0  0  0
   -6.1087   24.5180  -31.6833 H   0  0  0  0  0  0  0  0  0  0  0  0
   -5.1265   25.9904  -31.3241 H   0  0  0  0  0  0  0  0  0  0  0  0
   -3.9757   24.2829  -28.7019 H   0  0  0  0  0  0  0  0  0  0  0  0
   -2.4626   24.0297  -29.6364 H   0  0  0  0  0  0  0  0  0  0  0  0
   -3.2595   25.6395  -29.6364 H   0  0  0  0  0  0  0  0  0  0  0  0
   -4.8883   22.4259  -29.8070 H   0  0  0  0  0  0  0  0  0  0  0  0
   -5.2967   22.5531  -31.5844 H   0  0  0  0  0  0  0  0  0  0  0  0
   -2.4347   22.4610  -31.2762 H   0  0  0  0  0  0  0  0  0  0  0  0
   -3.2005   21.0828  -30.3668 H   0  0  0  0  0  0  0  0  0  0  0  0
   -2.6195   21.1275  -33.0952 H   0  0  0  0  0  0  0  0  0  0  0  0
   -3.7483   19.9992  -32.2386 H   0  0  0  0  0  0  0  0  0  0  0  0
   -4.8780   22.5720  -32.9730 H   0  0  0  0  0  0  0  0  0  0  0  0
   -4.4250   21.6640  -34.2670 H   0  0  0  0  0  0  0  0  0  0  0  0
   -6.4122   23.3980  -32.6972 H   0  0  0  0  0  0  0  0  0  0  0  0
   -8.5447   24.3350  -31.8353 H   0  0  0  0  0  0  0  0  0  0  0  0
  -10.4321   22.8245  -31.2638 H   0  0  0  0  0  0  0  0  0  0  0  0
  -10.1824   20.3667  -31.4941 H   0  0  0  0  0  0  0  0  0  0  0  0
   -8.7405   18.3154  -30.4757 H   0  0  0  0  0  0  0  0  0  0  0  0
   -9.9162   18.4146  -31.8301 H   0  0  0  0  0  0  0  0  0  0  0  0
   -8.6516   17.1388  -31.8301 H   0  0  0  0  0  0  0  0  0  0  0  0
   -7.7680   16.5603  -33.1361 H   0  0  0  0  0  0  0  0  0  0  0  0
   -7.2707   14.2631  -33.4323 H   0  0  0  0  0  0  0  0  0  0  0  0
   -7.8360   14.9624  -34.9873 H   0  0  0  0  0  0  0  0  0  0  0  0
   -6.7742   13.5135  -34.9873 H   0  0  0  0  0  0  0  0  0  0  0  0
   -2.8729   15.8967  -33.7610 H   0  0  0  0  0  0  0  0  0  0  0  0
   -3.1899   14.9123  -35.2298 H   0  0  0  0  0  0  0  0  0  0  0  0
   -1.8643   16.1246  -35.2298 H   0  0  0  0  0  0  0  0  0  0  0  0
   -3.9437   19.4580  -34.4876 H   0  0  0  0  0  0  0  0  0  0  0  0
  1  2  1  0
  2  3  1  0
  3  4  1  0
  3  5  1  0
  5  6  1  0
  6  7  1  0
  7  8  1  0
  8  9  1  0
  9 10  2  0
 10 11  1  0
 11 12  2  0
 12 13  1  0
 13 14  2  0
 14 15  1  0
 15 16  2  0
 16 17  1  0
 16 18  1  0
 18 19  2  0
 19 20  1  0
 20 21  1  0
 21 22  1  0
 20 23  2  0
 23 24  1  0
 24 25  1  0
 23 26  1  0
 26 27  2  0
 27  9  1  0
 15 10  1  0
 27 18  1  0
  1 28  1  0
  1 29  1  0
  1 30  1  0
  2 31  1  0
  2 32  1  0
  4 33  1  0
  4 34  1  0
  4 35  1  0
  5 36  1  0
  5 37  1  0
  6 38  1  0
  6 39  1  0
  7 40  1  0
  7 41  1  0
  8 42  1  0
  8 43  1  0
 11 44  1  0
 12 45  1  0
 13 46  1  0
 14 47  1  0
 17 48  1  0
 17 49  1  0
 17 50  1  0
 19 51  1  0
 22 52  1  0
 22 53  1  0
 22 54  1  0
 25 55  1  0
 25 56  1  0
 25 57  1  0
 26 58  1  0
M  CHG  2   8   1  16   1
M  END
>  <UniqueID>  (5) 
5

>  <SMILES>  (5) 
CCN(C)CCC[NH2+]c1c2ccccc2[n+](C)c2cc(OC)c(OC)cc12

>  <Energy>  (5) 
88.72560576465386

>  <Genealogy>  (5) 
CCN(C)CCC[NH2+]c1c2ccccc2[n+](C)c2cc(OC)c(OC)cc12 (protonated)
CCN(C)CCC[NH2+]c1c2ccccc2[n+](C)c2cc(OC)c(OC)cc12 (3D coordinates assigned)
CCN(C)CCC[NH2+]c1c2ccccc2[n+](C)c2cc(OC)c(OC)cc12 (optimized conformer: 88.72560576465386 kcal/mol)

>  <smiles>  (5) 
CCN(C)CCCNc1c2ccccc2[n+](C)c2cc(OC)c(OC)cc12

>  <score_type>  (5) 
oracle

>  <origin>  (5) 
adg

>  <m_score__min__energy>  (5) 
-7.7300000000000004

>  <m_primary>  (5) 
energy

$$$$
5:0
     RDKit          3D

 43 45  0  0  0  0  0  0  0  0999 V2000
   -1.8630   25.5650  -26.8170 C   0  0  0  0  0  0  0  0  0  0  0  0
   -0.8010   25.8750  -27.8720 C   0  0  0  0  0  0  0  0  0  0  0  0
   -0.3010   24.6500  -28.5340 N   0  0  0  0  0  0  0  0  0  0  0  0
    0.9110   24.1540  -27.8620 C   0  0  0  0  0  0  0  0  0  0  0  0
   -1.3140   23.5810  -28.7170 C   0  0  0  0  0  0  0  0  0  0  0  0
   -1.4200   23.0370  -30.1560 C   0  0  0  0  0  0  0  0  0  0  0  0
   -2.8080   22.6980  -30.4640 N   0  0  0  0  0  0  0  0  0  0  0  0
   -3.8180   23.7000  -30.6690 C   0  0  0  0  0  0  0  0  0  0  0  0
   -3.5510   24.9110  -30.4420 O   0  0  0  0  0  0  0  0  0  0  0  0
   -5.1740   23.3220  -31.1440 C   0  0  0  0  0  0  0  0  0  0  0  0
   -6.2790   24.1250  -30.8030 C   0  0  0  0  0  0  0  0  0  0  0  0
   -7.5670   23.7830  -31.2250 C   0  0  0  0  0  0  0  0  0  0  0  0
   -7.7780   22.6350  -31.9900 C   0  0  0  0  0  0  0  0  0  0  0  0
   -6.6980   21.8220  -32.3380 C   0  0  0  0  0  0  0  0  0  0  0  0
   -6.8970   20.7060  -33.0880 N   0  0  0  0  0  0  0  0  0  0  0  0
   -5.8600   19.9050  -33.4460 C   0  0  0  0  0  0  0  0  0  0  0  0
   -6.0790   18.7580  -34.2180 C   0  0  0  0  0  0  0  0  0  0  0  0
   -4.9980   17.9450  -34.5790 C   0  0  0  0  0  0  0  0  0  0  0  0
   -3.7000   18.2780  -34.1710 C   0  0  0  0  0  0  0  0  0  0  0  0
   -3.4760   19.4230  -33.3990 C   0  0  0  0  0  0  0  0  0  0  0  0
   -4.5540   20.2380  -33.0350 C   0  0  0  0  0  0  0  0  0  0  0  0
   -4.3540   21.3540  -32.2860 N   0  0  0  0  0  0  0  0  0  0  0  0
   -5.3900   22.1580  -31.9170 C   0  0  0  0  0  0  0  0  0  0  0  0
   -1.4307   25.6912  -25.8134 H   0  0  0  0  0  0  0  0  0  0  0  0
   -2.7129   26.2525  -26.9392 H   0  0  0  0  0  0  0  0  0  0  0  0
   -2.2096   24.5282  -26.9392 H   0  0  0  0  0  0  0  0  0  0  0  0
   -1.2400   26.5361  -28.6338 H   0  0  0  0  0  0  0  0  0  0  0  0
    0.0483   26.3580  -27.3665 H   0  0  0  0  0  0  0  0  0  0  0  0
    0.7747   24.2098  -26.7719 H   0  0  0  0  0  0  0  0  0  0  0  0
    1.0918   23.1095  -28.1559 H   0  0  0  0  0  0  0  0  0  0  0  0
    1.7722   24.7720  -28.1559 H   0  0  0  0  0  0  0  0  0  0  0  0
   -1.0538   22.7442  -28.0521 H   0  0  0  0  0  0  0  0  0  0  0  0
   -2.2893   24.0319  -28.4814 H   0  0  0  0  0  0  0  0  0  0  0  0
   -1.0676   23.8037  -30.8617 H   0  0  0  0  0  0  0  0  0  0  0  0
   -0.8002   22.1327  -30.2455 H   0  0  0  0  0  0  0  0  0  0  0  0
   -3.0790   21.6890  -30.4530 H   0  0  0  0  0  0  0  0  0  0  0  0
   -6.1272   25.0311  -30.1981 H   0  0  0  0  0  0  0  0  0  0  0  0
   -8.4194   24.4226  -30.9525 H   0  0  0  0  0  0  0  0  0  0  0  0
   -8.7942   22.3711  -32.3183 H   0  0  0  0  0  0  0  0  0  0  0  0
   -7.0977   18.4962  -34.5401 H   0  0  0  0  0  0  0  0  0  0  0  0
   -5.1683   17.0426  -35.1845 H   0  0  0  0  0  0  0  0  0  0  0  0
   -2.8537   17.6369  -34.4587 H   0  0  0  0  0  0  0  0  0  0  0  0
   -2.4559   19.6819  -33.0791 H   0  0  0  0  0  0  0  0  0  0  0  0
  1  2  1  0
  2  3  1  0
  3  4  1  0
  3  5  1  0
  5  6  1  0
  6  7  1  0
  7  8  1  0
  8  9  2  0
  8 10  1  0
 10 11  2  0
 11 12  1  0
 12 13  2  0
 13 14  1  0
 14 15  2  0
 15 16  1  0
 16 17  2  0
 17 18  1  0
 18 19  2  0
 19 20  1  0
 20 21  2  0
 21 22  1  0
 22 23  2  0
 23 10  1  0
 23 14  1  0
 21 16  1  0
  1 24  1  0
  1 25  1  0
  1 26  1  0
  2 27  1  0
  2 28  1  0
  4 29  1  0
  4 30  1  0
  4 31  1  0
  5 32  1  0
  5 33  1  0
  6 34  1  0
  6 35  1  0
  7 36  1  0
 11 37  1  0
 12 38  1  0
 13 39  1  0
 17 40  1  0
 18 41  1  0
 19 42  1  0
 20 43  1  0
M  END
>  <UniqueID>  (6) 
6

>  <SMILES>  (6) 
CCN(C)CCNC(=O)c1cccc2nc3ccccc3nc12

>  <Energy>  (6) 
53.78465018304263

>  <Genealogy>  (6) 
CCN(C)CCNC(=O)c1cccc2nc3ccccc3nc12 (3D coordinates assigned)
CCN(C)CCNC(=O)c1cccc2nc3ccccc3nc12 (optimized conformer: 53.78465018304263 kcal/mol)

>  <smiles>  (6) 
CCN(C)CCNC(=O)c1cccc2nc3ccccc3nc12

>  <score_type>  (6) 
oracle

>  <origin>  (6) 
adg

>  <m_score__min__energy>  (6) 
-7.9000000000000004

>  <m_primary>  (6) 
energy

$$$$
6:0
     RDKit          3D

 23 24  0  0  0  0  0  0  0  0999 V2000
   -9.8600   21.5870  -31.1660 C   0  0  0  0  0  0  0  0  0  0  0  0
   -8.3620   21.6100  -31.3170 C   0  0  0  0  0  0  0  0  0  0  0  0
   -7.6620   22.7720  -30.9940 C   0  0  0  0  0  0  0  0  0  0  0  0
   -6.2750   22.8250  -31.0950 C   0  0  0  0  0  0  0  0  0  0  0  0
   -5.6750   23.9680  -30.7800 O   0  0  0  0  0  0  0  0  0  0  0  0
   -4.3630   24.1260  -30.8170 C   0  0  0  0  0  0  0  0  0  0  0  0
   -3.8620   25.2430  -30.5270 O   0  0  0  0  0  0  0  0  0  0  0  0
   -3.5390   23.0580  -31.1490 C   0  0  0  0  0  0  0  0  0  0  0  0
   -4.1010   21.8090  -31.4570 C   0  0  0  0  0  0  0  0  0  0  0  0
   -3.1200   20.6680  -31.5860 C   0  0  0  0  0  0  0  0  0  0  0  0
   -2.1350   20.7960  -33.2530 Br  0  0  0  0  0  0  0  0  0  0  0  0
   -5.5270   21.6910  -31.5210 C   0  0  0  0  0  0  0  0  0  0  0  0
   -6.2550   20.5440  -31.9740 C   0  0  0  0  0  0  0  0  0  0  0  0
   -5.4630   19.1090  -32.9980 Br  0  0  0  0  0  0  0  0  0  0  0  0
   -7.6640   20.5010  -31.8280 C   0  0  0  0  0  0  0  0  0  0  0  0
   -8.6610   18.9310  -32.3530 Br  0  0  0  0  0  0  0  0  0  0  0  0
  -10.1208   21.5830  -30.0974 H   0  0  0  0  0  0  0  0  0  0  0  0
  -10.2906   22.4786  -31.6452 H   0  0  0  0  0  0  0  0  0  0  0  0
  -10.2630   20.6826  -31.6452 H   0  0  0  0  0  0  0  0  0  0  0  0
   -8.2146   23.6603  -30.6542 H   0  0  0  0  0  0  0  0  0  0  0  0
   -2.4473   23.1909  -31.1705 H   0  0  0  0  0  0  0  0  0  0  0  0
   -2.4122   20.7034  -30.7447 H   0  0  0  0  0  0  0  0  0  0  0  0
   -3.6772   19.7196  -31.5762 H   0  0  0  0  0  0  0  0  0  0  0  0
  1  2  1  0
  2  3  2  0
  3  4  1  0
  4  5  1  0
  5  6  1  0
  6  7  2  0
  6  8  1  0
  8  9  2  0
  9 10  1  0
 10 11  1  0
  9 12  1  0
 12 13  1  0
 13 14  1  0
 13 15  2  0
 15 16  1  0
 15  2  1  0
 12  4  2  0
  1 17  1  0
  1 18  1  0
  1 19  1  0
  3 20  1  0
  8 21  1  0
 10 22  1  0
 10 23  1  0
M  END
>  <UniqueID>  (7) 
7

>  <SMILES>  (7) 
Cc1cc2oc(=O)cc(CBr)c2c(Br)c1Br

>  <Energy>  (7) 
44.611555192540294

>  <Genealogy>  (7) 
Cc1cc2oc(=O)cc(CBr)c2c(Br)c1Br (3D coordinates assigned)
Cc1cc2oc(=O)cc(CBr)c2c(Br)c1Br (optimized conformer: 44.611555192540294 kcal/mol)

>  <smiles>  (7) 
Cc1cc2oc(=O)cc(CBr)c2c(Br)c1Br

>  <score_type>  (7) 
oracle

>  <origin>  (7) 
adg

>  <m_score__min__energy>  (7) 
-7.9900000000000002

>  <m_primary>  (7) 
energy

$$$$
7:0
     RDKit          3D

 48 49  0  0  0  0  0  0  0  0999 V2000
   -8.7905   20.4507  -33.5037 H   0  0  0  0  0  0  0  0  0  0  0  0
   -8.7270   20.0480  -32.4820 C   0  0  0  0  0  0  0  0  0  0  0  0
   -8.5750   18.5810  -32.3420 C   0  0  0  0  0  0  0  0  0  0  0  0
   -9.3630   17.9390  -31.5950 O   0  0  0  0  0  0  0  0  0  0  0  0
   -7.4240   17.8550  -32.9240 C   0  0  0  0  0  0  0  0  0  0  0  0
   -7.3148   16.7947  -32.6522 H   0  0  0  0  0  0  0  0  0  0  0  0
   -6.5000   18.3690  -33.7530 C   0  0  0  0  0  0  0  0  0  0  0  0
   -6.6614   18.2356  -34.8329 H   0  0  0  0  0  0  0  0  0  0  0  0
   -5.2860   19.0980  -33.3350 C   0  0  0  0  0  0  0  0  0  0  0  0
   -4.0750   18.4270  -33.1180 C   0  0  0  0  0  0  0  0  0  0  0  0
   -4.0232   17.3362  -33.2500 H   0  0  0  0  0  0  0  0  0  0  0  0
   -2.9330   19.1350  -32.7350 C   0  0  0  0  0  0  0  0  0  0  0  0
   -1.9840   18.5971  -32.5935 H   0  0  0  0  0  0  0  0  0  0  0  0
   -2.9790   20.5300  -32.5270 C   0  0  0  0  0  0  0  0  0  0  0  0
   -1.7860   21.2720  -32.1440 N   0  0  0  0  0  0  0  0  0  0  0  0
   -0.4890   21.0150  -32.7920 C   0  0  0  0  0  0  0  0  0  0  0  0
   -0.2429   19.9475  -32.6928 H   0  0  0  0  0  0  0  0  0  0  0  0
    0.2761   21.6347  -32.3015 H   0  0  0  0  0  0  0  0  0  0  0  0
   -0.5340   21.3810  -34.2730 C   0  0  0  0  0  0  0  0  0  0  0  0
   -0.6676   22.4678  -34.3782 H   0  0  0  0  0  0  0  0  0  0  0  0
    0.4080   21.0791  -34.7541 H   0  0  0  0  0  0  0  0  0  0  0  0
   -1.3748   20.8599  -34.7541 H   0  0  0  0  0  0  0  0  0  0  0  0
   -1.8320   22.3060  -31.0940 C   0  0  0  0  0  0  0  0  0  0  0  0
   -0.8093   22.5063  -30.7418 H   0  0  0  0  0  0  0  0  0  0  0  0
   -2.2794   23.2165  -31.5192 H   0  0  0  0  0  0  0  0  0  0  0  0
   -2.6870   21.8510  -29.9120 C   0  0  0  0  0  0  0  0  0  0  0  0
   -2.1840   22.1187  -28.9711 H   0  0  0  0  0  0  0  0  0  0  0  0
   -3.6682   22.3463  -29.9570 H   0  0  0  0  0  0  0  0  0  0  0  0
   -2.8243   20.7605  -29.9570 H   0  0  0  0  0  0  0  0  0  0  0  0
   -4.2190   21.1840  -32.7010 C   0  0  0  0  0  0  0  0  0  0  0  0
   -4.2904   22.2673  -32.5242 H   0  0  0  0  0  0  0  0  0  0  0  0
   -5.3570   20.4730  -33.0950 C   0  0  0  0  0  0  0  0  0  0  0  0
   -6.3149   20.9998  -33.2169 H   0  0  0  0  0  0  0  0  0  0  0  0
   -8.7940   20.9290  -31.4710 C   0  0  0  0  0  0  0  0  0  0  0  0
   -9.5807   20.7676  -30.7193 H   0  0  0  0  0  0  0  0  0  0  0  0
   -7.9070   22.0970  -31.2750 C   0  0  0  0  0  0  0  0  0  0  0  0
   -7.3590   22.8030  -32.3600 C   0  0  0  0  0  0  0  0  0  0  0  0
   -7.6140   22.5077  -33.3885 H   0  0  0  0  0  0  0  0  0  0  0  0
   -6.4920   23.8780  -32.1410 C   0  0  0  0  0  0  0  0  0  0  0  0
   -6.0911   24.4397  -32.9976 H   0  0  0  0  0  0  0  0  0  0  0  0
   -6.1290   24.2460  -30.8330 C   0  0  0  0  0  0  0  0  0  0  0  0
   -5.2360   25.3500  -30.6030 N   0  0  0  0  0  0  0  0  0  0  0  0
   -5.6750   26.4550  -30.2200 O   0  0  0  0  0  0  0  0  0  0  0  0
   -3.8810   25.2060  -30.7890 O   0  0  0  0  0  0  0  0  0  0  0  0
   -6.6450   23.5110  -29.7520 C   0  0  0  0  0  0  0  0  0  0  0  0
   -6.3588   23.7783  -28.7241 H   0  0  0  0  0  0  0  0  0  0  0  0
   -7.5190   22.4430  -29.9730 C   0  0  0  0  0  0  0  0  0  0  0  0
   -7.9058   21.8690  -29.1180 H   0  0  0  0  0  0  0  0  0  0  0  0
  1  2  1  0
  2  3  1  0
  3  4  2  0
  3  5  1  0
  5  6  1  0
  5  7  2  0
  7  8  1  0
  7  9  1  0
  9 10  2  0
 10 11  1  0
 10 12  1  0
 12 13  1  0
 12 14  2  0
 14 15  1  0
 15 16  1  0
 16 17  1  0
 16 18  1  0
 16 19  1  0
 19 20  1  0
 19 21  1  0
 19 22  1  0
 15 23  1  0
 23 24  1  0
 23 25  1  0
 23 26  1  0
 26 27  1  0
 26 28  1  0
 26 29  1  0
 14 30  1  0
 30 31  1  0
 30 32  2  0
 32 33  1  0
  2 34  2  3
 34 35  1  0
 34 36  1  0
 36 37  2  0
 37 38  1  0
 37 39  1  0
 39 40  1  0
 39 41  2  0
 41 42  1  0
 42 43  2  0
 42 44  1  0
 41 45  1  0
 45 46  1  0
 45 47  2  0
 47 48  1  0
 32  9  1  0
 47 36  1  0
M  CHG  2  42   1  44  -1
M  END
>  <UniqueID>  (8) 
8

>  <SMILES>  (8) 
CCN(CC)c1ccc(/C=C\C(=O)C=Cc2ccc([N+](=O)[O-])cc2)cc1

>  <Energy>  (8) 
63.4557251431414

>  <Genealogy>  (8) 
CCN(CC)c1ccc(/C=C\C(=O)C=Cc2ccc([N+](=O)[O-])cc2)cc1 (cis-trans isomerization)
CCN(CC)c1ccc(/C=C\C(=O)C=Cc2ccc([N+](=O)[O-])cc2)cc1 (3D coordinates assigned)
CCN(CC)c1ccc(/C=C\C(=O)C=Cc2ccc([N+](=O)[O-])cc2)cc1 (optimized conformer: 63.4557251431414 kcal/mol)

>  <smiles>  (8) 
CCN(CC)c1ccc(C=CC(=O)C=Cc2ccc([N+](=O)[O-])cc2)cc1

>  <score_type>  (8) 
oracle

>  <origin>  (8) 
adg

>  <m_score__min__energy>  (8) 
-9.0800000000000001

>  <m_primary>  (8) 
energy

$$$$
8:0
     RDKit          3D

 45 47  0  0  0  0  0  0  0  0999 V2000
   -4.9750   15.5200  -32.7270 C   0  0  0  0  0  0  0  0  0  0  0  0
   -6.0650   16.0910  -33.6310 C   0  0  0  0  0  0  0  0  0  0  0  0
   -6.2270   17.5430  -33.4040 N   0  0  0  0  0  0  0  0  0  0  0  0
   -7.6240   17.9240  -33.0940 C   0  0  0  0  0  0  0  0  0  0  0  0
   -7.9030   18.0850  -31.5910 C   0  0  0  0  0  0  0  0  0  0  0  0
   -5.6200   18.3800  -34.4670 C   0  0  0  0  0  0  0  0  0  0  0  0
   -4.6950   19.4230  -33.8230 C   0  0  0  0  0  0  0  0  0  0  0  0
   -4.8260   19.4610  -32.3560 N   0  0  0  0  0  0  0  0  0  0  0  0
   -4.9520   20.8170  -31.8630 C   0  0  0  0  0  0  0  0  0  0  0  0
   -3.8400   21.5330  -31.3980 C   0  0  0  0  0  0  0  0  0  0  0  0
   -2.5090   21.1800  -31.2910 C   0  0  0  0  0  0  0  0  0  0  0  0
   -1.8780   22.3090  -30.7920 C   0  0  0  0  0  0  0  0  0  0  0  0
   -2.7530   23.2770  -30.6070 O   0  0  0  0  0  0  0  0  0  0  0  0
   -3.9340   22.8280  -30.9630 C   0  0  0  0  0  0  0  0  0  0  0  0
   -5.1420   23.5270  -30.9470 C   0  0  0  0  0  0  0  0  0  0  0  0
   -5.1670   24.9010  -30.5290 N   0  0  0  0  0  0  0  0  0  0  0  0
   -4.2370   25.6700  -30.8450 O   0  0  0  0  0  0  0  0  0  0  0  0
   -6.0760   25.3110  -29.5810 O   0  0  0  0  0  0  0  0  0  0  0  0
   -6.3070   22.8340  -31.3800 C   0  0  0  0  0  0  0  0  0  0  0  0
   -7.5860   23.4210  -31.3360 C   0  0  0  0  0  0  0  0  0  0  0  0
   -8.7030   22.7120  -31.7750 C   0  0  0  0  0  0  0  0  0  0  0  0
   -8.5510   21.4100  -32.2470 C   0  0  0  0  0  0  0  0  0  0  0  0
   -7.3240   20.8310  -32.2650 N   0  0  0  0  0  0  0  0  0  0  0  0
   -6.2040   21.4840  -31.8460 C   0  0  0  0  0  0  0  0  0  0  0  0
   -5.2572   15.6678  -31.6741 H   0  0  0  0  0  0  0  0  0  0  0  0
   -4.8581   14.4448  -32.9278 H   0  0  0  0  0  0  0  0  0  0  0  0
   -4.0245   16.0360  -32.9278 H   0  0  0  0  0  0  0  0  0  0  0  0
   -5.7891   15.9187  -34.6818 H   0  0  0  0  0  0  0  0  0  0  0  0
   -7.0157   15.5891  -33.3979 H   0  0  0  0  0  0  0  0  0  0  0  0
   -7.8414   18.8806  -33.5917 H   0  0  0  0  0  0  0  0  0  0  0  0
   -8.2668   17.1071  -33.4540 H   0  0  0  0  0  0  0  0  0  0  0  0
   -7.0912   17.6166  -31.0151 H   0  0  0  0  0  0  0  0  0  0  0  0
   -7.9598   19.1547  -31.3411 H   0  0  0  0  0  0  0  0  0  0  0  0
   -8.8576   17.5989  -31.3411 H   0  0  0  0  0  0  0  0  0  0  0  0
   -5.0376   17.7431  -35.1490 H   0  0  0  0  0  0  0  0  0  0  0  0
   -6.4131   18.8897  -35.0337 H   0  0  0  0  0  0  0  0  0  0  0  0
   -3.6537   19.1771  -34.0783 H   0  0  0  0  0  0  0  0  0  0  0  0
   -4.9828   20.4113  -34.2109 H   0  0  0  0  0  0  0  0  0  0  0  0
   -5.6790   18.9200  -32.0840 H   0  0  0  0  0  0  0  0  0  0  0  0
   -4.0160   18.9710  -31.9120 H   0  0  0  0  0  0  0  0  0  0  0  0
   -2.0497   20.2136  -31.5461 H   0  0  0  0  0  0  0  0  0  0  0  0
   -0.8012   22.3859  -30.5807 H   0  0  0  0  0  0  0  0  0  0  0  0
   -7.7045   24.4453  -30.9529 H   0  0  0  0  0  0  0  0  0  0  0  0
   -9.6991   23.1780  -31.7489 H   0  0  0  0  0  0  0  0  0  0  0  0
   -9.4274   20.8503  -32.6058 H   0  0  0  0  0  0  0  0  0  0  0  0
  1  2  1  0
  2  3  1  0
  3  4  1  0
  4  5  1  0
  3  6  1  0
  6  7  1  0
  7  8  1  0
  8  9  1  0
  9 10  2  0
 10 11  1  0
 11 12  2  0
 12 13  1  0
 13 14  1  0
 14 15  2  0
 15 16  1  0
 16 17  2  0
 16 18  1  0
 15 19  1  0
 19 20  2  0
 20 21  1  0
 21 22  2  0
 22 23  1  0
 23 24  2  0
 24  9  1  0
 14 10  1  0
 24 19  1  0
  1 25  1  0
  1 26  1  0
  1 27  1  0
  2 28  1  0
  2 29  1  0
  4 30  1  0
  4 31  1  0
  5 32  1  0
  5 33  1  0
  5 34  1  0
  6 35  1  0
  6 36  1  0
  7 37  1  0
  7 38  1  0
  8 39  1  0
  8 40  1  0
 11 41  1  0
 12 42  1  0
 20 43  1  0
 21 44  1  0
 22 45  1  0
M  CHG  3   8   1  16   1  18  -1
M  END
>  <UniqueID>  (9) 
9

>  <SMILES>  (9) 
CCN(CC)CC[NH2+]c1c2ccoc2c([N+](=O)[O-])c2cccnc12

>  <Energy>  (9) 
91.2514915245408

>  <Genealogy>  (9) 
CCN(CC)CC[NH2+]c1c2ccoc2c([N+](=O)[O-])c2cccnc12 (protonated)
CCN(CC)CC[NH2+]c1c2ccoc2c([N+](=O)[O-])c2cccnc12 (3D coordinates assigned)
CCN(CC)CC[NH2+]c1c2ccoc2c([N+](=O)[O-])c2cccnc12 (optimized conformer: 91.2514915245408 kcal/mol)

>  <smiles>  (9) 
CCN(CC)CCNc1c2ccoc2c([N+](=O)[O-])c2cccnc12

>  <score_type>  (9) 
oracle

>  <origin>  (9) 
adg

>  <m_score__min__energy>  (9) 
-7.21

>  <m_primary>  (9) 
energy

$$$$
9:0
     RDKit          3D

 45 46  0  0  0  0  0  0  0  0999 V2000
   -1.0400   24.2180  -29.0160 C   0  0  0  0  0  0  0  0  0  0  0  0
   -2.3990   24.8860  -28.8160 C   0  0  0  0  0  0  0  0  0  0  0  0
   -3.2250   24.1340  -27.7690 C   0  0  0  0  0  0  0  0  0  0  0  0
   -3.1110   24.9130  -30.0900 N   0  0  0  0  0  0  0  0  0  0  0  0
   -3.8870   23.8170  -30.5870 C   0  0  0  0  0  0  0  0  0  0  0  0
   -3.3290   22.7220  -30.8710 O   0  0  0  0  0  0  0  0  0  0  0  0
   -5.3850   23.9550  -30.6820 C   0  0  1  0  0  0  0  0  0  0  0  0
   -5.8270   25.3630  -30.2630 C   0  0  0  0  0  0  0  0  0  0  0  0
   -5.8720   23.6320  -32.1090 C   0  0  0  0  0  0  0  0  0  0  0  0
   -7.0700   22.7140  -32.0900 C   0  0  0  0  0  0  0  0  0  0  0  0
   -8.3640   23.2490  -32.0040 C   0  0  0  0  0  0  0  0  0  0  0  0
   -9.4740   22.4020  -31.9600 C   0  0  0  0  0  0  0  0  0  0  0  0
   -9.3010   21.0170  -31.9790 C   0  0  0  0  0  0  0  0  0  0  0  0
   -8.0100   20.4610  -32.0260 C   0  0  0  0  0  0  0  0  0  0  0  0
   -7.8100   18.9910  -32.0360 C   0  0  0  0  0  0  0  0  0  0  0  0
   -8.6210   18.2640  -31.3990 O   0  0  0  0  0  0  0  0  0  0  0  0
   -6.6960   18.3390  -32.7700 C   0  0  0  0  0  0  0  0  0  0  0  0
   -6.2210   18.8600  -33.9890 C   0  0  0  0  0  0  0  0  0  0  0  0
   -5.1900   18.2170  -34.6800 C   0  0  0  0  0  0  0  0  0  0  0  0
   -4.6280   17.0450  -34.1690 C   0  0  0  0  0  0  0  0  0  0  0  0
   -5.0980   16.5110  -32.9680 C   0  0  0  0  0  0  0  0  0  0  0  0
   -6.1310   17.1500  -32.2740 C   0  0  0  0  0  0  0  0  0  0  0  0
   -6.9000   21.3190  -32.1030 C   0  0  0  0  0  0  0  0  0  0  0  0
   -0.5919   23.9977  -28.0358 H   0  0  0  0  0  0  0  0  0  0  0  0
   -1.1709   23.2816  -29.5781 H   0  0  0  0  0  0  0  0  0  0  0  0
   -0.3785   24.8936  -29.5781 H   0  0  0  0  0  0  0  0  0  0  0  0
   -2.2437   25.9134  -28.4549 H   0  0  0  0  0  0  0  0  0  0  0  0
   -2.8984   24.4314  -26.7616 H   0  0  0  0  0  0  0  0  0  0  0  0
   -4.2897   24.3793  -27.8966 H   0  0  0  0  0  0  0  0  0  0  0  0
   -3.0804   23.0510  -27.8966 H   0  0  0  0  0  0  0  0  0  0  0  0
   -5.8422   23.2316  -29.9909 H   0  0  0  0  0  0  0  0  0  0  0  0
   -5.8478   25.4293  -29.1652 H   0  0  0  0  0  0  0  0  0  0  0  0
   -5.1182   26.1037  -30.6617 H   0  0  0  0  0  0  0  0  0  0  0  0
   -6.8320   25.5657  -30.6617 H   0  0  0  0  0  0  0  0  0  0  0  0
   -6.1482   24.5698  -32.6133 H   0  0  0  0  0  0  0  0  0  0  0  0
   -5.0567   23.1245  -32.6454 H   0  0  0  0  0  0  0  0  0  0  0  0
   -8.5051   24.3394  -31.9711 H   0  0  0  0  0  0  0  0  0  0  0  0
  -10.4871   22.8276  -31.9102 H   0  0  0  0  0  0  0  0  0  0  0  0
  -10.1801   20.3562  -31.9571 H   0  0  0  0  0  0  0  0  0  0  0  0
   -6.6642   19.7790  -34.4001 H   0  0  0  0  0  0  0  0  0  0  0  0
   -4.8206   18.6349  -35.6281 H   0  0  0  0  0  0  0  0  0  0  0  0
   -3.8147   16.5426  -34.7131 H   0  0  0  0  0  0  0  0  0  0  0  0
   -4.6558   15.5871  -32.5670 H   0  0  0  0  0  0  0  0  0  0  0  0
   -6.5044   16.7194  -31.3332 H   0  0  0  0  0  0  0  0  0  0  0  0
   -5.8877   20.8945  -32.1742 H   0  0  0  0  0  0  0  0  0  0  0  0
  1  2  1  0
  2  3  1  0
  2  4  1  0
  4  5  1  0
  5  6  2  0
  5  7  1  0
  7  8  1  0
  7  9  1  0
  9 10  1  0
 10 11  2  0
 11 12  1  0
 12 13  2  0
 13 14  1  0
 14 15  1  0
 15 16  2  0
 15 17  1  0
 17 18  2  0
 18 19  1  0
 19 20  2  0
 20 21  1  0
 21 22  2  0
 14 23  2  0
 23 10  1  0
 22 17  1  0
  1 24  1  0
  1 25  1  0
  1 26  1  0
  2 27  1  0
  3 28  1  0
  3 29  1  0
  3 30  1  0
  7 31  1  1
  8 32  1  0
  8 33  1  0
  8 34  1  0
  9 35  1  0
  9 36  1  0
 11 37  1  0
 12 38  1  0
 13 39  1  0
 18 40  1  0
 19 41  1  0
 20 42  1  0
 21 43  1  0
 22 44  1  0
 23 45  1  0
M  CHG  1   4  -1
M  END
>  <UniqueID>  (10) 
10

>  <SMILES>  (10) 
CC(C)[N-]C(=O)[C@@H](C)Cc1cccc(C(=O)c2ccccc2)c1

>  <Energy>  (10) 
37.95403090387564

>  <Genealogy>  (10) 
CC(C)[N-]C(=O)C(C)Cc1cccc(C(=O)c2ccccc2)c1 (protonated)
CC(C)[N-]C(=O)[C@@H](C)Cc1cccc(C(=O)c2ccccc2)c1 (chirality)
CC(C)[N-]C(=O)[C@@H](C)Cc1cccc(C(=O)c2ccccc2)c1 (3D coordinates assigned)
CC(C)[N-]C(=O)[C@@H](C)Cc1cccc(C(=O)c2ccccc2)c1 (optimized conformer: 37.95403090387564 kcal/mol)

>  <smiles>  (10) 
CC(C)NC(=O)C(C)Cc1cccc(C(=O)c2ccccc2)c1

>  <score_type>  (10) 
oracle

>  <origin>  (10) 
adg

>  <m_score__min__energy>  (10) 
-11.18

>  <m_primary>  (10) 
energy

$$$$
10:0
     RDKit          3D

 82 85  0  0  0  0  0  0  0  0999 V2000
   -4.6390   14.8790  -31.9900 C   0  0  0  0  0  0  0  0  0  0  0  0
   -4.3440   15.6300  -33.2990 C   0  0  0  0  0  0  0  0  0  0  0  0
   -5.3040   16.7160  -33.6180 N   0  0  0  0  0  0  0  0  0  0  0  0
   -6.7280   16.3140  -33.5200 C   0  0  0  0  0  0  0  0  0  0  0  0
   -7.0730   15.0190  -34.2660 C   0  0  0  0  0  0  0  0  0  0  0  0
   -4.9490   17.5420  -34.7960 C   0  0  0  0  0  0  0  0  0  0  0  0
   -3.6190   18.2890  -34.5910 C   0  0  0  0  0  0  0  0  0  0  0  0
   -3.7870   19.5720  -33.7430 C   0  0  0  0  0  0  0  0  0  0  0  0
   -4.3100   19.3140  -32.3860 N   0  0  0  0  0  0  0  0  0  0  0  0
   -5.0780   20.4380  -31.8580 C   0  0  0  0  0  0  0  0  0  0  0  0
   -6.5030   20.4730  -31.9330 C   0  0  0  0  0  0  0  0  0  0  0  0
   -7.2810   19.3630  -32.3620 C   0  0  0  0  0  0  0  0  0  0  0  0
   -8.6700   19.4130  -32.3720 C   0  0  0  0  0  0  0  0  0  0  0  0
   -9.3310   20.5550  -31.9510 C   0  0  0  0  0  0  0  0  0  0  0  0
   -8.6050   21.6700  -31.5510 C   0  0  0  0  0  0  0  0  0  0  0  0
   -7.1870   21.6700  -31.5690 C   0  0  0  0  0  0  0  0  0  0  0  0
   -6.4770   22.8090  -31.2490 N   0  0  0  0  0  0  0  0  0  0  0  0
   -7.1530   24.1280  -31.2560 C   0  0  0  0  0  0  0  0  0  0  0  0
   -5.1340   22.7270  -30.9590 C   0  0  0  0  0  0  0  0  0  0  0  0
   -4.4530   23.8030  -30.3350 C   0  0  0  0  0  0  0  0  0  0  0  0
   -3.0840   23.7580  -30.0810 C   0  0  0  0  0  0  0  0  0  0  0  0
   -2.4900   24.8740  -29.4720 O   0  0  0  0  0  0  0  0  0  0  0  0
   -1.1560   24.9430  -28.9690 C   0  0  0  0  0  0  0  0  0  0  0  0
   -1.0570   24.4820  -27.4920 C   0  0  0  0  0  0  0  0  0  0  0  0
   -0.9460   25.5660  -26.4530 N   0  0  0  0  0  0  0  0  0  0  0  0
   -2.2880   25.8190  -25.8600 C   0  0  0  0  0  0  0  0  0  0  0  0
   -0.4280   26.8290  -27.0730 C   0  0  0  0  0  0  0  0  0  0  0  0
   -0.0710   27.9660  -26.0810 C   0  0  0  0  0  0  0  0  0  0  0  0
   -0.8340   27.9760  -24.7330 C   0  0  0  0  0  0  0  0  0  0  0  0
   -0.2410   27.0670  -23.6470 C   0  0  0  0  0  0  0  0  0  0  0  0
   -0.4170   25.5550  -23.9130 C   0  0  0  0  0  0  0  0  0  0  0  0
   -0.0710   25.0600  -25.3430 C   0  0  0  0  0  0  0  0  0  0  0  0
   -2.3630   22.6170  -30.4450 C   0  0  0  0  0  0  0  0  0  0  0  0
   -3.0090   21.5310  -31.0290 C   0  0  0  0  0  0  0  0  0  0  0  0
   -4.4040   21.5520  -31.2820 C   0  0  0  0  0  0  0  0  0  0  0  0
   -4.3866   15.5217  -31.1337 H   0  0  0  0  0  0  0  0  0  0  0  0
   -5.7067   14.6174  -31.9500 H   0  0  0  0  0  0  0  0  0  0  0  0
   -4.0348   13.9607  -31.9500 H   0  0  0  0  0  0  0  0  0  0  0  0
   -3.3395   16.0716  -33.2223 H   0  0  0  0  0  0  0  0  0  0  0  0
   -4.4295   14.8905  -34.1088 H   0  0  0  0  0  0  0  0  0  0  0  0
   -6.9739   16.1747  -32.4569 H   0  0  0  0  0  0  0  0  0  0  0  0
   -7.3140   17.1152  -33.9940 H   0  0  0  0  0  0  0  0  0  0  0  0
   -7.2853   14.2220  -33.5382 H   0  0  0  0  0  0  0  0  0  0  0  0
   -7.9584   15.1843  -34.8974 H   0  0  0  0  0  0  0  0  0  0  0  0
   -6.2227   14.7219  -34.8974 H   0  0  0  0  0  0  0  0  0  0  0  0
   -4.8578   16.8874  -35.6753 H   0  0  0  0  0  0  0  0  0  0  0  0
   -5.7424   18.2901  -34.9404 H   0  0  0  0  0  0  0  0  0  0  0  0
   -2.9123   17.6183  -34.0804 H   0  0  0  0  0  0  0  0  0  0  0  0
   -3.2468   18.5886  -35.5818 H   0  0  0  0  0  0  0  0  0  0  0  0
   -2.8056   20.0604  -33.6514 H   0  0  0  0  0  0  0  0  0  0  0  0
   -4.5215   20.2081  -34.2586 H   0  0  0  0  0  0  0  0  0  0  0  0
   -4.8260   18.4170  -32.3980 H   0  0  0  0  0  0  0  0  0  0  0  0
   -3.5180   19.0950  -31.7430 H   0  0  0  0  0  0  0  0  0  0  0  0
   -6.7729   18.4452  -32.6930 H   0  0  0  0  0  0  0  0  0  0  0  0
   -9.2468   18.5418  -32.7158 H   0  0  0  0  0  0  0  0  0  0  0  0
  -10.4306   20.5792  -31.9333 H   0  0  0  0  0  0  0  0  0  0  0  0
   -9.1403   22.5699  -31.2139 H   0  0  0  0  0  0  0  0  0  0  0  0
   -7.3225   24.4587  -30.2207 H   0  0  0  0  0  0  0  0  0  0  0  0
   -6.5198   24.8618  -31.7763 H   0  0  0  0  0  0  0  0  0  0  0  0
   -8.1184   24.0425  -31.7763 H   0  0  0  0  0  0  0  0  0  0  0  0
   -5.0217   24.6983  -30.0433 H   0  0  0  0  0  0  0  0  0  0  0  0
   -0.5125   24.2973  -29.5846 H   0  0  0  0  0  0  0  0  0  0  0  0
   -0.8341   25.9938  -29.0148 H   0  0  0  0  0  0  0  0  0  0  0  0
   -1.9581   23.8934  -27.2651 H   0  0  0  0  0  0  0  0  0  0  0  0
   -0.1137   23.9200  -27.4264 H   0  0  0  0  0  0  0  0  0  0  0  0
   -2.2126   25.8048  -24.7627 H   0  0  0  0  0  0  0  0  0  0  0  0
   -2.6551   26.8022  -26.1896 H   0  0  0  0  0  0  0  0  0  0  0  0
   -2.9879   25.0370  -26.1896 H   0  0  0  0  0  0  0  0  0  0  0  0
    0.4797   26.5790  -27.6418 H   0  0  0  0  0  0  0  0  0  0  0  0
   -1.2491   27.2180  -27.6931 H   0  0  0  0  0  0  0  0  0  0  0  0
    1.0029   27.8875  -25.8560 H   0  0  0  0  0  0  0  0  0  0  0  0
   -0.3664   28.8964  -26.5881 H   0  0  0  0  0  0  0  0  0  0  0  0
   -0.8381   29.0073  -24.3504 H   0  0  0  0  0  0  0  0  0  0  0  0
   -1.8404   27.5861  -24.9456 H   0  0  0  0  0  0  0  0  0  0  0  0
    0.8355   27.2797  -23.5706 H   0  0  0  0  0  0  0  0  0  0  0  0
   -0.7891   27.2881  -22.7193 H   0  0  0  0  0  0  0  0  0  0  0  0
    0.2290   25.0136  -23.2062 H   0  0  0  0  0  0  0  0  0  0  0  0
   -1.4925   25.3602  -23.7890 H   0  0  0  0  0  0  0  0  0  0  0  0
    0.9616   25.3683  -25.5635 H   0  0  0  0  0  0  0  0  0  0  0  0
   -0.2257   23.9711  -25.3214 H   0  0  0  0  0  0  0  0  0  0  0  0
   -1.2779   22.5771  -30.2688 H   0  0  0  0  0  0  0  0  0  0  0  0
   -2.4255   20.6386  -31.2996 H   0  0  0  0  0  0  0  0  0  0  0  0
  1  2  1  0
  2  3  1  0
  3  4  1  0
  4  5  1  0
  3  6  1  0
  6  7  1  0
  7  8  1  0
  8  9  1  0
  9 10  1  0
 10 11  2  0
 11 12  1  0
 12 13  2  0
 13 14  1  0
 14 15  2  0
 15 16  1  0
 16 17  2  0
 17 18  1  0
 17 19  1  0
 19 20  2  0
 20 21  1  0
 21 22  1  0
 22 23  1  0
 23 24  1  0
 24 25  1  0
 25 26  1  0
 25 27  1  0
 27 28  1  0
 28 29  1  0
 29 30  1  0
 30 31  1  0
 31 32  1  0
 21 33  2  0
 33 34  1  0
 34 35  2  0
 35 10  1  0
 16 11  1  0
 35 19  1  0
 32 25  1  0
  1 36  1  0
  1 37  1  0
  1 38  1  0
  2 39  1  0
  2 40  1  0
  4 41  1  0
  4 42  1  0
  5 43  1  0
  5 44  1  0
  5 45  1  0
  6 46  1  0
  6 47  1  0
  7 48  1  0
  7 49  1  0
  8 50  1  0
  8 51  1  0
  9 52  1  0
  9 53  1  0
 12 54  1  0
 13 55  1  0
 14 56  1  0
 15 57  1  0
 18 58  1  0
 18 59  1  0
 18 60  1  0
 20 61  1  0
 23 62  1  0
 23 63  1  0
 24 64  1  0
 24 65  1  0
 26 66  1  0
 26 67  1  0
 26 68  1  0
 27 69  1  0
 27 70  1  0
 28 71  1  0
 28 72  1  0
 29 73  1  0
 29 74  1  0
 30 75  1  0
 30 76  1  0
 31 77  1  0
 31 78  1  0
 32 79  1  0
 32 80  1  0
 33 81  1  0
 34 82  1  0
M  CHG  3   9   1  17   1  25   1
M  END
>  <UniqueID>  (11) 
11

>  <SMILES>  (11) 
CCN(CC)CCC[NH2+]c1c2ccccc2[n+](C)c2cc(OCC[N+]3(C)CCCCCC3)ccc12

>  <Energy>  (11) 
142.1484317568345

>  <Genealogy>  (11) 
CCN(CC)CCC[NH2+]c1c2ccccc2[n+](C)c2cc(OCC[N+]3(C)CCCCCC3)ccc12 (protonated)
CCN(CC)CCC[NH2+]c1c2ccccc2[n+](C)c2cc(OCC[N+]3(C)CCCCCC3)ccc12 (3D coordinates assigned)
CCN(CC)CCC[NH2+]c1c2ccccc2[n+](C)c2cc(OCC[N+]3(C)CCCCCC3)ccc12 (nonaromatic ring conformer: 142.1484317568345 kcal/mol)

>  <smiles>  (11) 
CCN(CC)CCCNc1c2ccccc2[n+](C)c2cc(OCC[N+]3(C)CCCCCC3)ccc12

>  <score_type>  (11) 
oracle

>  <origin>  (11) 
adg

>  <m_score__min__energy>  (11) 
-5.4299999999999997

>  <m_primary>  (11) 
energy

$$$$
11:0
     RDKit          3D

 57 60  0  0  0  0  0  0  0  0999 V2000
    0.2890   25.2590  -36.4070 C   0  0  0  0  0  0  0  0  0  0  0  0
    1.1180   24.0240  -36.0740 C   0  0  0  0  0  0  0  0  0  0  0  0
    0.2640   23.0110  -35.4390 N   0  0  0  0  0  0  0  0  0  0  0  0
    0.6800   21.6400  -35.7750 C   0  0  0  0  0  0  0  0  0  0  0  0
    0.0030   20.5820  -34.8850 C   0  0  0  0  0  0  0  0  0  0  0  0
    0.1310   20.9450  -33.3980 C   0  0  0  0  0  0  0  0  0  0  0  0
   -1.2340   21.0140  -32.6930 C   0  0  0  0  0  0  0  0  0  0  0  0
   -2.3410   21.0020  -33.6550 N   0  0  0  0  0  0  0  0  0  0  0  0
   -3.5120   20.1920  -33.4660 C   0  0  0  0  0  0  0  0  0  0  0  0
   -4.6870   20.7500  -32.9330 C   0  0  0  0  0  0  0  0  0  0  0  0
   -5.8060   19.9160  -32.6990 C   0  0  0  0  0  0  0  0  0  0  0  0
   -5.6680   18.5450  -32.7870 N   0  0  0  0  0  0  0  0  0  0  0  0
   -6.5990   17.6500  -32.0700 C   0  0  0  0  0  0  0  0  0  0  0  0
   -4.5900   18.0070  -33.4620 C   0  0  0  0  0  0  0  0  0  0  0  0
   -4.5330   16.6300  -33.7920 C   0  0  0  0  0  0  0  0  0  0  0  0
   -3.4320   16.0980  -34.4640 C   0  0  0  0  0  0  0  0  0  0  0  0
   -2.3710   16.9190  -34.8280 C   0  0  0  0  0  0  0  0  0  0  0  0
   -2.4010   18.2780  -34.5210 C   0  0  0  0  0  0  0  0  0  0  0  0
   -3.5000   18.8350  -33.8360 C   0  0  0  0  0  0  0  0  0  0  0  0
   -7.0960   20.5850  -32.3190 C   0  0  0  0  0  0  0  0  0  0  0  0
   -8.3510   20.0590  -32.6900 C   0  0  0  0  0  0  0  0  0  0  0  0
   -9.5300   20.7140  -32.3270 C   0  0  0  0  0  0  0  0  0  0  0  0
   -9.4760   21.9220  -31.6310 C   0  0  0  0  0  0  0  0  0  0  0  0
   -8.2420   22.5010  -31.3310 C   0  0  0  0  0  0  0  0  0  0  0  0
   -7.0530   21.8570  -31.7060 C   0  0  0  0  0  0  0  0  0  0  0  0
   -5.7230   22.5270  -31.4980 C   0  0  0  0  0  0  0  0  0  0  0  0
   -4.8170   22.2450  -32.7020 C   0  0  0  0  0  0  0  0  0  0  0  0
   -0.0367   25.7442  -35.4751 H   0  0  0  0  0  0  0  0  0  0  0  0
    0.8984   25.9626  -36.9931 H   0  0  0  0  0  0  0  0  0  0  0  0
   -0.5930   24.9615  -36.9931 H   0  0  0  0  0  0  0  0  0  0  0  0
    1.5481   23.6120  -36.9988 H   0  0  0  0  0  0  0  0  0  0  0  0
    1.9269   24.3036  -35.3830 H   0  0  0  0  0  0  0  0  0  0  0  0
   -0.7280   23.1570  -35.7460 H   0  0  0  0  0  0  0  0  0  0  0  0
    0.4168   21.4389  -36.8239 H   0  0  0  0  0  0  0  0  0  0  0  0
    1.7652   21.5706  -35.6090 H   0  0  0  0  0  0  0  0  0  0  0  0
   -1.0630   20.5197  -35.1489 H   0  0  0  0  0  0  0  0  0  0  0  0
    0.5004   19.6152  -35.0523 H   0  0  0  0  0  0  0  0  0  0  0  0
    0.7480   20.1826  -32.8999 H   0  0  0  0  0  0  0  0  0  0  0  0
    0.5929   21.9413  -33.3340 H   0  0  0  0  0  0  0  0  0  0  0  0
   -1.3339   20.1471  -32.0233 H   0  0  0  0  0  0  0  0  0  0  0  0
   -1.2810   21.9560  -32.1269 H   0  0  0  0  0  0  0  0  0  0  0  0
   -2.2510   21.5580  -34.5400 H   0  0  0  0  0  0  0  0  0  0  0  0
   -6.4672   17.7767  -30.9853 H   0  0  0  0  0  0  0  0  0  0  0  0
   -7.6340   17.9009  -32.3454 H   0  0  0  0  0  0  0  0  0  0  0  0
   -6.3891   16.6059  -32.3454 H   0  0  0  0  0  0  0  0  0  0  0  0
   -5.3689   15.9710  -33.5143 H   0  0  0  0  0  0  0  0  0  0  0  0
   -3.4035   15.0254  -34.7065 H   0  0  0  0  0  0  0  0  0  0  0  0
   -1.5061   16.4952  -35.3594 H   0  0  0  0  0  0  0  0  0  0  0  0
   -1.5594   18.9220  -34.8159 H   0  0  0  0  0  0  0  0  0  0  0  0
   -8.4016   19.1256  -33.2698 H   0  0  0  0  0  0  0  0  0  0  0  0
  -10.5040   20.2761  -32.5906 H   0  0  0  0  0  0  0  0  0  0  0  0
  -10.4066   22.4184  -31.3185 H   0  0  0  0  0  0  0  0  0  0  0  0
   -8.2014   23.4634  -30.7999 H   0  0  0  0  0  0  0  0  0  0  0  0
   -5.8707   23.6123  -31.3961 H   0  0  0  0  0  0  0  0  0  0  0  0
   -5.2527   22.1345  -30.5844 H   0  0  0  0  0  0  0  0  0  0  0  0
   -5.2502   22.7132  -33.5982 H   0  0  0  0  0  0  0  0  0  0  0  0
   -3.8189   22.6613  -32.5006 H   0  0  0  0  0  0  0  0  0  0  0  0
  1  2  1  0
  2  3  1  0
  3  4  1  0
  4  5  1  0
  5  6  1  0
  6  7  1  0
  7  8  1  0
  8  9  1  0
  9 10  2  0
 10 11  1  0
 11 12  2  0
 12 13  1  0
 12 14  1  0
 14 15  2  0
 15 16  1  0
 16 17  2  0
 17 18  1  0
 18 19  2  0
 11 20  1  0
 20 21  2  0
 21 22  1  0
 22 23  2  0
 23 24  1  0
 24 25  2  0
 25 26  1  0
 26 27  1  0
 19  9  1  0
 25 20  1  0
 27 10  1  0
 19 14  1  0
  1 28  1  0
  1 29  1  0
  1 30  1  0
  2 31  1  0
  2 32  1  0
  3 33  1  0
  4 34  1  0
  4 35  1  0
  5 36  1  0
  5 37  1  0
  6 38  1  0
  6 39  1  0
  7 40  1  0
  7 41  1  0
  8 42  1  0
 13 43  1  0
 13 44  1  0
 13 45  1  0
 15 46  1  0
 16 47  1  0
 17 48  1  0
 18 49  1  0
 21 50  1  0
 22 51  1  0
 23 52  1  0
 24 53  1  0
 26 54  1  0
 26 55  1  0
 27 56  1  0
 27 57  1  0
M  CHG  1  12   1
M  END
>  <UniqueID>  (12) 
12

>  <SMILES>  (12) 
CCNCCCCNc1c2c([n+](C)c3ccccc13)-c1ccccc1CC2

>  <Energy>  (12) 
82.79892435824284

>  <Genealogy>  (12) 
CCNCCCCNc1c2c([n+](C)c3ccccc13)-c1ccccc1CC2 (3D coordinates assigned)
CCNCCCCNc1c2c([n+](C)c3ccccc13)-c1ccccc1CC2 (nonaromatic ring conformer: 82.79892435824284 kcal/mol)

>  <smiles>  (12) 
CCNCCCCNc1c2c([n+](C)c3ccccc13)-c1ccccc1CC2

>  <score_type>  (12) 
oracle

>  <origin>  (12) 
adg

>  <m_score__min__energy>  (12) 
-9.1600000000000001

>  <m_primary>  (12) 
energy

$$$$
12:0
     RDKit          3D

 71 74  0  0  0  0  0  0  0  0999 V2000
   -0.7520   15.1290  -34.1630 C   0  0  0  0  0  0  0  0  0  0  0  0
   -0.9110   16.1120  -33.0100 C   0  0  0  0  0  0  0  0  0  0  0  0
   -0.4700   17.4590  -33.4430 N   0  0  0  0  0  0  0  0  0  0  0  0
    0.7240   17.9320  -32.6970 C   0  0  0  0  0  0  0  0  0  0  0  0
    0.6640   17.6780  -31.1840 C   0  0  0  0  0  0  0  0  0  0  0  0
   -0.3710   17.5730  -34.9150 C   0  0  0  0  0  0  0  0  0  0  0  0
    0.0840   18.9760  -35.3520 C   0  0  0  0  0  0  0  0  0  0  0  0
   -0.8610   19.9650  -34.9850 O   0  0  0  0  0  0  0  0  0  0  0  0
   -0.2140   21.1710  -34.6340 C   0  0  0  0  0  0  0  0  0  0  0  0
   -0.0500   21.2240  -33.1170 C   0  0  0  0  0  0  0  0  0  0  0  0
   -1.2850   21.5050  -32.4870 O   0  0  0  0  0  0  0  0  0  0  0  0
   -1.5420   20.6460  -31.3890 C   0  0  0  0  0  0  0  0  0  0  0  0
   -2.2110   19.3430  -31.8560 C   0  0  0  0  0  0  0  0  0  0  0  0
   -2.7240   19.4210  -33.2420 N   0  0  0  0  0  0  0  0  0  0  0  0
   -4.1460   19.1120  -33.3090 C   0  0  0  0  0  0  0  0  0  0  0  0
   -4.6190   17.7950  -33.6170 C   0  0  0  0  0  0  0  0  0  0  0  0
   -3.8090   16.8350  -34.2740 C   0  0  0  0  0  0  0  0  0  0  0  0
   -4.2840   15.5520  -34.5400 C   0  0  0  0  0  0  0  0  0  0  0  0
   -5.5770   15.1960  -34.1900 C   0  0  0  0  0  0  0  0  0  0  0  0
   -6.4130   16.1190  -33.5700 C   0  0  0  0  0  0  0  0  0  0  0  0
   -5.9600   17.4240  -33.2570 C   0  0  0  0  0  0  0  0  0  0  0  0
   -6.7920   18.3300  -32.6290 N   0  0  0  0  0  0  0  0  0  0  0  0
   -8.0100   17.8920  -31.9270 C   0  0  0  0  0  0  0  0  0  0  0  0
   -6.4120   19.6430  -32.6060 C   0  0  0  0  0  0  0  0  0  0  0  0
   -7.1340   20.7800  -32.2650 C   0  0  0  0  0  0  0  0  0  0  0  0
   -8.4970   20.9990  -32.0130 C   0  0  0  0  0  0  0  0  0  0  0  0
   -8.9230   22.3080  -31.7430 C   0  0  0  0  0  0  0  0  0  0  0  0
   -8.0050   23.3720  -31.7440 C   0  0  0  0  0  0  0  0  0  0  0  0
   -6.6560   23.1450  -32.0550 C   0  0  0  0  0  0  0  0  0  0  0  0
   -6.2420   21.8320  -32.3360 C   0  0  0  0  0  0  0  0  0  0  0  0
   -5.0150   21.4140  -32.7420 N   0  0  0  0  0  0  0  0  0  0  0  0
   -3.9070   22.2910  -33.1430 C   0  0  0  0  0  0  0  0  0  0  0  0
   -5.1270   20.0580  -32.9090 C   0  0  0  0  0  0  0  0  0  0  0  0
   -0.5884   14.1176  -33.7626 H   0  0  0  0  0  0  0  0  0  0  0  0
   -1.6630   15.1364  -34.7794 H   0  0  0  0  0  0  0  0  0  0  0  0
    0.1102   15.4232  -34.7794 H   0  0  0  0  0  0  0  0  0  0  0  0
   -1.9674   16.1524  -32.7060 H   0  0  0  0  0  0  0  0  0  0  0  0
   -0.2964   15.7814  -32.1597 H   0  0  0  0  0  0  0  0  0  0  0  0
    1.6083   17.4153  -33.0984 H   0  0  0  0  0  0  0  0  0  0  0  0
    0.7688   19.0227  -32.8322 H   0  0  0  0  0  0  0  0  0  0  0  0
    0.8846   18.6120  -30.6464 H   0  0  0  0  0  0  0  0  0  0  0  0
   -0.3419   17.3265  -30.9108 H   0  0  0  0  0  0  0  0  0  0  0  0
    1.4063   16.9135  -30.9108 H   0  0  0  0  0  0  0  0  0  0  0  0
    0.3562   16.8332  -35.2809 H   0  0  0  0  0  0  0  0  0  0  0  0
   -1.3695   17.3907  -35.3391 H   0  0  0  0  0  0  0  0  0  0  0  0
    1.0466   19.2055  -34.8717 H   0  0  0  0  0  0  0  0  0  0  0  0
    0.1823   18.9817  -36.4476 H   0  0  0  0  0  0  0  0  0  0  0  0
    0.7751   21.2119  -35.1135 H   0  0  0  0  0  0  0  0  0  0  0  0
   -0.8153   22.0275  -34.9729 H   0  0  0  0  0  0  0  0  0  0  0  0
    0.3237   20.2527  -32.7607 H   0  0  0  0  0  0  0  0  0  0  0  0
    0.6627   22.0238  -32.8675 H   0  0  0  0  0  0  0  0  0  0  0  0
   -0.5915   20.4043  -30.8908 H   0  0  0  0  0  0  0  0  0  0  0  0
   -2.2213   21.1596  -30.6927 H   0  0  0  0  0  0  0  0  0  0  0  0
   -1.4719   18.5302  -31.8010 H   0  0  0  0  0  0  0  0  0  0  0  0
   -3.0720   19.1603  -31.1962 H   0  0  0  0  0  0  0  0  0  0  0  0
   -2.5500   20.3670  -33.6350 H   0  0  0  0  0  0  0  0  0  0  0  0
   -2.1330   18.8090  -33.8360 H   0  0  0  0  0  0  0  0  0  0  0  0
   -2.7879   17.1074  -34.5792 H   0  0  0  0  0  0  0  0  0  0  0  0
   -3.6287   14.8174  -35.0308 H   0  0  0  0  0  0  0  0  0  0  0  0
   -5.9431   14.1808  -34.4031 H   0  0  0  0  0  0  0  0  0  0  0  0
   -7.4442   15.8302  -33.3184 H   0  0  0  0  0  0  0  0  0  0  0  0
   -7.8480   17.9502  -30.8405 H   0  0  0  0  0  0  0  0  0  0  0  0
   -8.8499   18.5444  -32.2080 H   0  0  0  0  0  0  0  0  0  0  0  0
   -8.2420   16.8541  -32.2080 H   0  0  0  0  0  0  0  0  0  0  0  0
   -9.2138   20.1647  -32.0268 H   0  0  0  0  0  0  0  0  0  0  0  0
   -9.9841   22.5032  -31.5288 H   0  0  0  0  0  0  0  0  0  0  0  0
   -8.3462   24.3888  -31.4995 H   0  0  0  0  0  0  0  0  0  0  0  0
   -5.9374   23.9775  -32.0784 H   0  0  0  0  0  0  0  0  0  0  0  0
   -3.4084   22.6856  -32.2454 H   0  0  0  0  0  0  0  0  0  0  0  0
   -3.1840   21.7178  -33.7420 H   0  0  0  0  0  0  0  0  0  0  0  0
   -4.2988   23.1263  -33.7420 H   0  0  0  0  0  0  0  0  0  0  0  0
  1  2  1  0
  2  3  1  0
  3  4  1  0
  4  5  1  0
  3  6  1  0
  6  7  1  0
  7  8  1  0
  8  9  1  0
  9 10  1  0
 10 11  1  0
 11 12  1  0
 12 13  1  0
 13 14  1  0
 14 15  1  0
 15 16  2  0
 16 17  1  0
 17 18  2  0
 18 19  1  0
 19 20  2  0
 20 21  1  0
 21 22  2  0
 22 23  1  0
 22 24  1  0
 24 25  1  0
 25 26  2  0
 26 27  1  0
 27 28  2  0
 28 29  1  0
 29 30  2  0
 30 31  1  0
 31 32  1  0
 31 33  1  0
 33 15  1  0
 21 16  1  0
 33 24  2  0
 30 25  1  0
  1 34  1  0
  1 35  1  0
  1 36  1  0
  2 37  1  0
  2 38  1  0
  4 39  1  0
  4 40  1  0
  5 41  1  0
  5 42  1  0
  5 43  1  0
  6 44  1  0
  6 45  1  0
  7 46  1  0
  7 47  1  0
  9 48  1  0
  9 49  1  0
 10 50  1  0
 10 51  1  0
 12 52  1  0
 12 53  1  0
 13 54  1  0
 13 55  1  0
 14 56  1  0
 14 57  1  0
 17 58  1  0
 18 59  1  0
 19 60  1  0
 20 61  1  0
 23 62  1  0
 23 63  1  0
 23 64  1  0
 26 65  1  0
 27 66  1  0
 28 67  1  0
 29 68  1  0
 32 69  1  0
 32 70  1  0
 32 71  1  0
M  CHG  2  14   1  22   1
M  END
>  <UniqueID>  (13) 
13

>  <SMILES>  (13) 
CCN(CC)CCOCCOCC[NH2+]c1c2ccccc2[n+](C)c2c3ccccc3n(C)c12

>  <Energy>  (13) 
145.82065871836457

>  <Genealogy>  (13) 
CCN(CC)CCOCCOCC[NH2+]c1c2ccccc2[n+](C)c2c3ccccc3n(C)c12 (protonated)
CCN(CC)CCOCCOCC[NH2+]c1c2ccccc2[n+](C)c2c3ccccc3n(C)c12 (3D coordinates assigned)
CCN(CC)CCOCCOCC[NH2+]c1c2ccccc2[n+](C)c2c3ccccc3n(C)c12 (optimized conformer: 145.82065871836457 kcal/mol)

>  <smiles>  (13) 
CCN(CC)CCOCCOCCNc1c2ccccc2[n+](C)c2c3ccccc3n(C)c12

>  <score_type>  (13) 
oracle

>  <origin>  (13) 
adg

>  <m_score__min__energy>  (13) 
-8.6400000000000006

>  <m_primary>  (13) 
energy

$$$$
13:0
     RDKit          3D

 80 83  0  0  0  0  0  0  0  0999 V2000
   -1.5690   26.7380  -25.2240 C   0  0  0  0  0  0  0  0  0  0  0  0
   -1.9280   25.3120  -25.6280 C   0  0  0  0  0  0  0  0  0  0  0  0
   -3.3210   25.2530  -26.2720 C   0  0  0  0  0  0  0  0  0  0  0  0
   -3.4780   24.0010  -27.1660 C   0  0  0  0  0  0  0  0  0  0  0  0
   -3.8820   24.3290  -28.5580 N   0  0  1  0  0  0  0  0  0  0  0  0
   -2.7390   24.1090  -29.5000 C   0  0  0  0  0  0  0  0  0  0  0  0
   -1.4010   23.9880  -28.7570 C   0  0  0  0  0  0  0  0  0  0  0  0
   -5.0700   23.5370  -28.9740 C   0  0  0  0  0  0  0  0  0  0  0  0
   -5.8080   24.1970  -30.1570 C   0  0  0  0  0  0  0  0  0  0  0  0
   -5.3550   23.6700  -31.4470 N   0  0  0  0  0  0  0  0  0  0  0  0
   -5.7320   22.3700  -31.9340 C   0  0  0  0  0  0  0  0  0  0  0  0
   -7.0830   21.9720  -31.9570 C   0  0  0  0  0  0  0  0  0  0  0  0
   -8.1190   22.9020  -31.7250 C   0  0  0  0  0  0  0  0  0  0  0  0
   -9.4540   22.5010  -31.7460 C   0  0  0  0  0  0  0  0  0  0  0  0
   -9.7800   21.1760  -32.0210 C   0  0  0  0  0  0  0  0  0  0  0  0
   -8.7740   20.2470  -32.2860 C   0  0  0  0  0  0  0  0  0  0  0  0
   -7.4060   20.6210  -32.2600 C   0  0  0  0  0  0  0  0  0  0  0  0
   -6.4000   19.7140  -32.5390 N   0  0  0  0  0  0  0  0  0  0  0  0
   -6.6920   18.2630  -32.5670 C   0  0  0  0  0  0  0  0  0  0  0  0
   -5.1140   20.1630  -32.7740 C   0  0  0  0  0  0  0  0  0  0  0  0
   -4.1430   19.3400  -33.3960 C   0  0  0  0  0  0  0  0  0  0  0  0
   -2.8190   19.7810  -33.5710 C   0  0  0  0  0  0  0  0  0  0  0  0
   -1.8460   19.0250  -34.2390 O   0  0  0  0  0  0  0  0  0  0  0  0
   -0.9440   18.0920  -33.6390 C   0  0  0  0  0  0  0  0  0  0  0  0
   -0.8760   16.8130  -34.5080 C   0  0  0  0  0  0  0  0  0  0  0  0
   -2.0540   15.8910  -34.3760 N   0  0  0  0  0  0  0  0  0  0  0  0
   -1.5950   14.4810  -34.2350 C   0  0  0  0  0  0  0  0  0  0  0  0
   -2.7870   16.2680  -33.1250 C   0  0  0  0  0  0  0  0  0  0  0  0
   -4.2650   15.8140  -33.1480 C   0  0  0  0  0  0  0  0  0  0  0  0
   -5.0110   16.2120  -34.2920 O   0  0  0  0  0  0  0  0  0  0  0  0
   -4.2200   16.8280  -35.2890 C   0  0  0  0  0  0  0  0  0  0  0  0
   -2.9490   16.0140  -35.5770 C   0  0  0  0  0  0  0  0  0  0  0  0
   -2.4580   21.0480  -33.1130 C   0  0  0  0  0  0  0  0  0  0  0  0
   -3.4040   21.8920  -32.5360 C   0  0  0  0  0  0  0  0  0  0  0  0
   -4.7470   21.4840  -32.4090 C   0  0  0  0  0  0  0  0  0  0  0  0
   -1.5498   26.8144  -24.1268 H   0  0  0  0  0  0  0  0  0  0  0  0
   -0.5782   26.9948  -25.6269 H   0  0  0  0  0  0  0  0  0  0  0  0
   -2.3201   27.4334  -25.6269 H   0  0  0  0  0  0  0  0  0  0  0  0
   -1.1831   24.9448  -26.3493 H   0  0  0  0  0  0  0  0  0  0  0  0
   -1.9342   24.6844  -24.7246 H   0  0  0  0  0  0  0  0  0  0  0  0
   -4.0813   25.2229  -25.4776 H   0  0  0  0  0  0  0  0  0  0  0  0
   -3.4488   26.1457  -26.9018 H   0  0  0  0  0  0  0  0  0  0  0  0
   -2.5157   23.4689  -27.1963 H   0  0  0  0  0  0  0  0  0  0  0  0
   -4.2755   23.3822  -26.7289 H   0  0  0  0  0  0  0  0  0  0  0  0
   -4.1550   25.3420  -28.5640 H   0  0  0  0  0  0  0  0  0  0  0  0
   -2.9171   23.1823  -30.0652 H   0  0  0  0  0  0  0  0  0  0  0  0
   -2.6787   24.9776  -30.1722 H   0  0  0  0  0  0  0  0  0  0  0  0
   -1.5813   24.0043  -27.6720 H   0  0  0  0  0  0  0  0  0  0  0  0
   -0.9124   23.0420  -29.0333 H   0  0  0  0  0  0  0  0  0  0  0  0
   -0.7506   24.8310  -29.0333 H   0  0  0  0  0  0  0  0  0  0  0  0
   -4.7409   22.5315  -29.2751 H   0  0  0  0  0  0  0  0  0  0  0  0
   -5.7639   23.4851  -28.1220 H   0  0  0  0  0  0  0  0  0  0  0  0
   -6.8865   24.0064  -30.0541 H   0  0  0  0  0  0  0  0  0  0  0  0
   -5.5915   25.2753  -30.1346 H   0  0  0  0  0  0  0  0  0  0  0  0
   -4.6280   24.2080  -31.9740 H   0  0  0  0  0  0  0  0  0  0  0  0
   -7.8703   23.9548  -31.5254 H   0  0  0  0  0  0  0  0  0  0  0  0
  -10.2506   23.2325  -31.5450 H   0  0  0  0  0  0  0  0  0  0  0  0
  -10.8338   20.8608  -32.0293 H   0  0  0  0  0  0  0  0  0  0  0  0
   -9.0460   19.2070  -32.5190 H   0  0  0  0  0  0  0  0  0  0  0  0
   -6.7682   17.8844  -31.5370 H   0  0  0  0  0  0  0  0  0  0  0  0
   -7.6429   18.0904  -33.0924 H   0  0  0  0  0  0  0  0  0  0  0  0
   -5.8819   17.7360  -33.0924 H   0  0  0  0  0  0  0  0  0  0  0  0
   -4.4297   18.3382  -33.7484 H   0  0  0  0  0  0  0  0  0  0  0  0
    0.0572   18.5422  -33.5692 H   0  0  0  0  0  0  0  0  0  0  0  0
   -1.2992   17.8332  -32.6306 H   0  0  0  0  0  0  0  0  0  0  0  0
   -0.7998   17.1202  -35.5615 H   0  0  0  0  0  0  0  0  0  0  0  0
   -0.0021   16.2470  -34.1530 H   0  0  0  0  0  0  0  0  0  0  0  0
   -1.5124   14.2273  -33.1679 H   0  0  0  0  0  0  0  0  0  0  0  0
   -2.3208   13.8092  -34.7165 H   0  0  0  0  0  0  0  0  0  0  0  0
   -0.6128   14.3652  -34.7165 H   0  0  0  0  0  0  0  0  0  0  0  0
   -2.2861   15.7968  -32.2665 H   0  0  0  0  0  0  0  0  0  0  0  0
   -2.7744   17.3651  -33.0467 H   0  0  0  0  0  0  0  0  0  0  0  0
   -4.2827   14.7153  -33.0975 H   0  0  0  0  0  0  0  0  0  0  0  0
   -4.7449   16.3056  -32.2889 H   0  0  0  0  0  0  0  0  0  0  0  0
   -4.8098   16.9103  -36.2139 H   0  0  0  0  0  0  0  0  0  0  0  0
   -3.9202   17.8229  -34.9281 H   0  0  0  0  0  0  0  0  0  0  0  0
   -3.2434   15.0049  -35.9012 H   0  0  0  0  0  0  0  0  0  0  0  0
   -2.3850   16.5443  -36.3585 H   0  0  0  0  0  0  0  0  0  0  0  0
   -1.4150   21.3843  -33.2085 H   0  0  0  0  0  0  0  0  0  0  0  0
   -3.1001   22.8861  -32.1762 H   0  0  0  0  0  0  0  0  0  0  0  0
  1  2  1  0
  2  3  1  0
  3  4  1  0
  4  5  1  0
  5  6  1  0
  6  7  1  0
  5  8  1  0
  8  9  1  0
  9 10  1  0
 10 11  1  0
 11 12  2  0
 12 13  1  0
 13 14  2  0
 14 15  1  0
 15 16  2  0
 16 17  1  0
 17 18  2  0
 18 19  1  0
 18 20  1  0
 20 21  2  0
 21 22  1  0
 22 23  1  0
 23 24  1  0
 24 25  1  0
 25 26  1  0
 26 27  1  0
 26 28  1  0
 28 29  1  0
 29 30  1  0
 30 31  1  0
 31 32  1  0
 22 33  2  0
 33 34  1  0
 34 35  2  0
 35 11  1  0
 17 12  1  0
 35 20  1  0
 32 26  1  0
  1 36  1  0
  1 37  1  0
  1 38  1  0
  2 39  1  0
  2 40  1  0
  3 41  1  0
  3 42  1  0
  4 43  1  0
  4 44  1  0
  5 45  1  1
  6 46  1  0
  6 47  1  0
  7 48  1  0
  7 49  1  0
  7 50  1  0
  8 51  1  0
  8 52  1  0
  9 53  1  0
  9 54  1  0
 10 55  1  0
 13 56  1  0
 14 57  1  0
 15 58  1  0
 16 59  1  0
 19 60  1  0
 19 61  1  0
 19 62  1  0
 21 63  1  0
 24 64  1  0
 24 65  1  0
 25 66  1  0
 25 67  1  0
 27 68  1  0
 27 69  1  0
 27 70  1  0
 28 71  1  0
 28 72  1  0
 29 73  1  0
 29 74  1  0
 31 75  1  0
 31 76  1  0
 32 77  1  0
 32 78  1  0
 33 79  1  0
 34 80  1  0
M  CHG  3   5   1  18   1  26   1
M  END
>  <UniqueID>  (14) 
14

>  <SMILES>  (14) 
CCCC[N@@H+](CC)CCNc1c2ccccc2[n+](C)c2cc(OCC[N+]3(C)CCOCC3)ccc12

>  <Energy>  (14) 
134.88459484573738

>  <Genealogy>  (14) 
CCCC[NH+](CC)CCNc1c2ccccc2[n+](C)c2cc(OCC[N+]3(C)CCOCC3)ccc12 (protonated)
CCCC[N@@H+](CC)CCNc1c2ccccc2[n+](C)c2cc(OCC[N+]3(C)CCOCC3)ccc12 (chirality)
CCCC[N@@H+](CC)CCNc1c2ccccc2[n+](C)c2cc(OCC[N+]3(C)CCOCC3)ccc12 (3D coordinates assigned)
CCCC[N@@H+](CC)CCNc1c2ccccc2[n+](C)c2cc(OCC[N+]3(C)CCOCC3)ccc12 (nonaromatic ring conformer: 134.88459484573738 kcal/mol)

>  <smiles>  (14) 
CCCCN(CC)CCNc1c2ccccc2[n+](C)c2cc(OCC[N+]3(C)CCOCC3)ccc12

>  <score_type>  (14) 
oracle

>  <origin>  (14) 
adg

>  <m_score__min__energy>  (14) 
-7.0099999999999998

>  <m_primary>  (14) 
energy

$$$$
14:0
     RDKit          3D

 50 52  0  0  0  0  0  0  0  0999 V2000
   -2.8560   24.7110  -27.1940 C   0  0  0  0  0  0  0  0  0  0  0  0
   -2.9110   24.2330  -28.5790 N   0  0  0  0  0  0  0  0  0  0  0  0
   -1.6980   23.7940  -29.2240 C   0  0  0  0  0  0  0  0  0  0  0  0
   -0.6600   24.5060  -29.1650 O   0  0  0  0  0  0  0  0  0  0  0  0
   -1.6540   22.5260  -29.9810 C   0  0  0  0  0  0  0  0  0  0  0  0
   -2.5490   22.3200  -31.0400 C   0  0  0  0  0  0  0  0  0  0  0  0
   -2.5860   21.0860  -31.7060 C   0  0  0  0  0  0  0  0  0  0  0  0
   -3.8190   20.7720  -32.9240 S   0  0  0  0  0  0  0  0  0  0  0  0
   -3.9700   21.9770  -33.8090 O   0  0  0  0  0  0  0  0  0  0  0  0
   -3.3720   19.6110  -33.7690 O   0  0  0  0  0  0  0  0  0  0  0  0
   -5.3420   20.3910  -32.1490 N   0  0  0  0  0  0  0  0  0  0  0  0
   -6.4470   21.0670  -32.8570 C   0  0  0  0  0  0  0  0  0  0  0  0
   -7.7620   21.0830  -32.0570 C   0  0  0  0  0  0  0  0  0  0  0  0
   -8.2670   19.7110  -31.5580 C   0  0  0  0  0  0  0  0  0  0  0  0
   -8.0350   18.5460  -32.5370 C   0  0  0  0  0  0  0  0  0  0  0  0
   -6.5520   18.2580  -32.8840 C   0  0  0  0  0  0  0  0  0  0  0  0
   -5.4940   18.9270  -31.9750 C   0  0  0  0  0  0  0  0  0  0  0  0
   -1.7020   20.0670  -31.3290 C   0  0  0  0  0  0  0  0  0  0  0  0
   -0.7870   20.2790  -30.2950 C   0  0  0  0  0  0  0  0  0  0  0  0
   -0.7640   21.5010  -29.6150 C   0  0  0  0  0  0  0  0  0  0  0  0
    0.1310   21.6850  -28.6110 F   0  0  0  0  0  0  0  0  0  0  0  0
   -4.1800   24.1360  -29.2600 C   0  0  0  0  0  0  0  0  0  0  0  0
   -5.0350   23.0430  -29.0300 C   0  0  0  0  0  0  0  0  0  0  0  0
   -6.2530   22.9430  -29.7110 C   0  0  0  0  0  0  0  0  0  0  0  0
   -6.6290   23.9310  -30.6240 C   0  0  0  0  0  0  0  0  0  0  0  0
   -5.7910   25.0240  -30.8550 C   0  0  0  0  0  0  0  0  0  0  0  0
   -4.5750   25.1300  -30.1750 C   0  0  0  0  0  0  0  0  0  0  0  0
   -2.9542   23.8573  -26.5073 H   0  0  0  0  0  0  0  0  0  0  0  0
   -1.8940   25.2145  -27.0178 H   0  0  0  0  0  0  0  0  0  0  0  0
   -3.6785   25.4198  -27.0178 H   0  0  0  0  0  0  0  0  0  0  0  0
   -3.2256   23.1299  -31.3503 H   0  0  0  0  0  0  0  0  0  0  0  0
   -6.1484   22.1062  -33.0591 H   0  0  0  0  0  0  0  0  0  0  0  0
   -6.6350   20.5028  -33.7824 H   0  0  0  0  0  0  0  0  0  0  0  0
   -7.6134   21.7272  -31.1778 H   0  0  0  0  0  0  0  0  0  0  0  0
   -8.5302   21.4459  -32.7557 H   0  0  0  0  0  0  0  0  0  0  0  0
   -7.7481   19.4764  -30.6169 H   0  0  0  0  0  0  0  0  0  0  0  0
   -9.3565   19.8051  -31.4393 H   0  0  0  0  0  0  0  0  0  0  0  0
   -8.4623   17.6363  -32.0901 H   0  0  0  0  0  0  0  0  0  0  0  0
   -8.5165   18.8413  -33.4809 H   0  0  0  0  0  0  0  0  0  0  0  0
   -6.4003   17.1698  -32.8304 H   0  0  0  0  0  0  0  0  0  0  0  0
   -6.3952   18.6892  -33.8837 H   0  0  0  0  0  0  0  0  0  0  0  0
   -5.7761   18.7369  -30.9289 H   0  0  0  0  0  0  0  0  0  0  0  0
   -4.5272   18.4856  -32.2589 H   0  0  0  0  0  0  0  0  0  0  0  0
   -1.7284   19.0977  -31.8483 H   0  0  0  0  0  0  0  0  0  0  0  0
   -0.0823   19.4823  -30.0147 H   0  0  0  0  0  0  0  0  0  0  0  0
   -4.7445   22.2629  -28.3110 H   0  0  0  0  0  0  0  0  0  0  0  0
   -6.9159   22.0846  -29.5271 H   0  0  0  0  0  0  0  0  0  0  0  0
   -7.5854   23.8481  -31.1611 H   0  0  0  0  0  0  0  0  0  0  0  0
   -6.0886   25.8023  -31.5731 H   0  0  0  0  0  0  0  0  0  0  0  0
   -3.9218   25.9963  -30.3560 H   0  0  0  0  0  0  0  0  0  0  0  0
  1  2  1  0
  2  3  1  0
  3  4  2  0
  3  5  1  0
  5  6  2  0
  6  7  1  0
  7  8  1  0
  8  9  2  0
  8 10  2  0
  8 11  1  0
 11 12  1  0
 12 13  1  0
 13 14  1  0
 14 15  1  0
 15 16  1  0
 16 17  1  0
  7 18  2  0
 18 19  1  0
 19 20  2  0
 20 21  1  0
  2 22  1  0
 22 23  2  0
 23 24  1  0
 24 25  2  0
 25 26  1  0
 26 27  2  0
 20  5  1  0
 27 22  1  0
 17 11  1  0
  1 28  1  0
  1 29  1  0
  1 30  1  0
  6 31  1  0
 12 32  1  0
 12 33  1  0
 13 34  1  0
 13 35  1  0
 14 36  1  0
 14 37  1  0
 15 38  1  0
 15 39  1  0
 16 40  1  0
 16 41  1  0
 17 42  1  0
 17 43  1  0
 18 44  1  0
 19 45  1  0
 23 46  1  0
 24 47  1  0
 25 48  1  0
 26 49  1  0
 27 50  1  0
M  END
>  <UniqueID>  (15) 
15

>  <SMILES>  (15) 
CN(C(=O)c1cc(S(=O)(=O)N2CCCCCC2)ccc1F)c1ccccc1

>  <Energy>  (15) 
72.5702897053831

>  <Genealogy>  (15) 
CN(C(=O)c1cc(S(=O)(=O)N2CCCCCC2)ccc1F)c1ccccc1 (3D coordinates assigned)
CN(C(=O)c1cc(S(=O)(=O)N2CCCCCC2)ccc1F)c1ccccc1 (nonaromatic ring conformer: 72.5702897053831 kcal/mol)

>  <smiles>  (15) 
CN(C(=O)c1cc(S(=O)(=O)N2CCCCCC2)ccc1F)c1ccccc1

>  <score_type>  (15) 
oracle

>  <origin>  (15) 
adg

>  <m_score__min__energy>  (15) 
-7.4500000000000002

>  <m_primary>  (15) 
energy

$$$$
15:0
     RDKit          3D

 43 45  0  0  0  0  0  0  0  0999 V2000
   -6.5020   25.3670  -29.3460 C   0  0  0  0  0  0  0  0  0  0  0  0
   -5.6950   25.5400  -30.6290 C   0  0  0  0  0  0  0  0  0  0  0  0
   -4.9870   24.2880  -30.9660 N   0  0  0  0  0  0  0  0  0  0  0  0
   -5.5630   23.3480  -31.8080 C   0  0  0  0  0  0  0  0  0  0  0  0
   -7.2110   23.5670  -32.5080 S   0  0  0  0  0  0  0  0  0  0  0  0
   -8.0580   22.5880  -31.2180 C   0  0  0  0  0  0  0  0  0  0  0  0
   -7.5000   21.1600  -31.1760 C   0  0  0  0  0  0  0  0  0  0  0  0
   -7.9050   20.3290  -32.3310 N   0  0  0  0  0  0  0  0  0  0  0  0
   -6.8940   20.1680  -33.3980 C   0  0  0  0  0  0  0  0  0  0  0  0
   -6.2100   18.7940  -33.3620 C   0  0  0  0  0  0  0  0  0  0  0  0
   -7.1610   17.7550  -33.2950 O   0  0  0  0  0  0  0  0  0  0  0  0
   -7.8530   17.8420  -32.0690 C   0  0  0  0  0  0  0  0  0  0  0  0
   -8.6960   19.1230  -32.0150 C   0  0  0  0  0  0  0  0  0  0  0  0
   -4.8840   22.2130  -32.1470 N   0  0  0  0  0  0  0  0  0  0  0  0
   -3.6430   21.9930  -31.6600 C   0  0  0  0  0  0  0  0  0  0  0  0
   -2.8610   20.8690  -31.9260 C   0  0  0  0  0  0  0  0  0  0  0  0
   -1.6210   20.9370  -31.2910 C   0  0  0  0  0  0  0  0  0  0  0  0
   -0.5820   19.8670  -31.3110 C   0  0  0  0  0  0  0  0  0  0  0  0
   -1.5190   22.3670  -30.3890 S   0  0  0  0  0  0  0  0  0  0  0  0
   -3.0480   22.9110  -30.8310 C   0  0  0  0  0  0  0  0  0  0  0  0
   -3.7160   24.0760  -30.4810 C   0  0  0  0  0  0  0  0  0  0  0  0
   -3.1500   24.9210  -29.7330 O   0  0  0  0  0  0  0  0  0  0  0  0
   -5.8431   25.5082  -28.4766 H   0  0  0  0  0  0  0  0  0  0  0  0
   -7.3106   26.1122  -29.3182 H   0  0  0  0  0  0  0  0  0  0  0  0
   -6.9341   24.3558  -29.3182 H   0  0  0  0  0  0  0  0  0  0  0  0
   -6.3753   25.8043  -31.4520 H   0  0  0  0  0  0  0  0  0  0  0  0
   -4.9541   26.3391  -30.4790 H   0  0  0  0  0  0  0  0  0  0  0  0
   -7.9027   23.0665  -30.2398 H   0  0  0  0  0  0  0  0  0  0  0  0
   -9.1320   22.5441  -31.4518 H   0  0  0  0  0  0  0  0  0  0  0  0
   -6.4016   21.2168  -31.1572 H   0  0  0  0  0  0  0  0  0  0  0  0
   -7.9110   20.6806  -30.2753 H   0  0  0  0  0  0  0  0  0  0  0  0
   -7.3886   20.2897  -34.3730 H   0  0  0  0  0  0  0  0  0  0  0  0
   -6.1175   20.9306  -33.2385 H   0  0  0  0  0  0  0  0  0  0  0  0
   -5.6056   18.6696  -34.2726 H   0  0  0  0  0  0  0  0  0  0  0  0
   -5.5740   18.7438  -32.4659 H   0  0  0  0  0  0  0  0  0  0  0  0
   -8.5143   16.9692  -31.9643 H   0  0  0  0  0  0  0  0  0  0  0  0
   -7.1204   17.8645  -31.2488 H   0  0  0  0  0  0  0  0  0  0  0  0
   -9.5163   19.0374  -32.7429 H   0  0  0  0  0  0  0  0  0  0  0  0
   -9.0782   19.2309  -30.9892 H   0  0  0  0  0  0  0  0  0  0  0  0
   -3.1834   20.0300  -32.5602 H   0  0  0  0  0  0  0  0  0  0  0  0
   -0.3169   19.5940  -30.2789 H   0  0  0  0  0  0  0  0  0  0  0  0
   -0.9758   18.9833  -31.8344 H   0  0  0  0  0  0  0  0  0  0  0  0
    0.3129   20.2346  -31.8344 H   0  0  0  0  0  0  0  0  0  0  0  0
  1  2  1  0
  2  3  1  0
  3  4  1  0
  4  5  1  0
  5  6  1  0
  6  7  1  0
  7  8  1  0
  8  9  1  0
  9 10  1  0
 10 11  1  0
 11 12  1  0
 12 13  1  0
  4 14  2  0
 14 15  1  0
 15 16  1  0
 16 17  2  0
 17 18  1  0
 17 19  1  0
 19 20  1  0
 20 21  1  0
 21 22  2  0
 21  3  1  0
 13  8  1  0
 20 15  2  0
  1 23  1  0
  1 24  1  0
  1 25  1  0
  2 26  1  0
  2 27  1  0
  6 28  1  0
  6 29  1  0
  7 30  1  0
  7 31  1  0
  9 32  1  0
  9 33  1  0
 10 34  1  0
 10 35  1  0
 12 36  1  0
 12 37  1  0
 13 38  1  0
 13 39  1  0
 16 40  1  0
 18 41  1  0
 18 42  1  0
 18 43  1  0
M  END
>  <UniqueID>  (16) 
16

>  <SMILES>  (16) 
CCn1c(SCCN2CCOCC2)nc2cc(C)sc2c1=O

>  <Energy>  (16) 
81.88912271393419

>  <Genealogy>  (16) 
CCn1c(SCCN2CCOCC2)nc2cc(C)sc2c1=O (3D coordinates assigned)
CCn1c(SCCN2CCOCC2)nc2cc(C)sc2c1=O (nonaromatic ring conformer: 81.88912271393419 kcal/mol)

>  <smiles>  (16) 
CCn1c(SCCN2CCOCC2)nc2cc(C)sc2c1=O

>  <score_type>  (16) 
oracle

>  <origin>  (16) 
adg

>  <m_score__min__energy>  (16) 
-8.4800000000000004

>  <m_primary>  (16) 
energy

$$$$
16:0
     RDKit          3D

 56 56  0  0  0  0  0  0  0  0999 V2000
   -6.5030   24.8950  -30.1300 C   0  0  0  0  0  0  0  0  0  0  0  0
   -5.0440   24.6890  -29.7340 C   0  0  0  0  0  0  0  0  0  0  0  0
   -4.2610   24.3050  -30.8660 O   0  0  0  0  0  0  0  0  0  0  0  0
   -4.1700   23.0100  -31.4050 C   0  0  0  0  0  0  0  0  0  0  0  0
   -5.1910   22.4650  -32.2090 C   0  0  0  0  0  0  0  0  0  0  0  0
   -5.0920   21.1530  -32.7080 C   0  0  0  0  0  0  0  0  0  0  0  0
   -6.1000   20.5580  -33.4880 O   0  0  0  0  0  0  0  0  0  0  0  0
   -5.9920   19.3060  -34.1660 C   0  0  0  0  0  0  0  0  0  0  0  0
   -6.8680   18.2380  -33.4810 C   0  0  0  0  0  0  0  0  0  0  0  0
   -7.0450   18.4910  -32.0260 N   0  0  0  0  0  0  0  0  0  0  0  0
   -6.3400   17.4580  -31.2150 C   0  0  0  0  0  0  0  0  0  0  0  0
   -5.4700   16.4930  -32.0310 C   0  0  0  0  0  0  0  0  0  0  0  0
   -8.4840   18.6330  -31.6810 C   0  0  0  0  0  0  0  0  0  0  0  0
   -9.1150   19.9090  -32.2480 C   0  0  0  0  0  0  0  0  0  0  0  0
   -3.9500   20.4000  -32.4240 C   0  0  0  0  0  0  0  0  0  0  0  0
   -2.9260   20.9350  -31.6440 C   0  0  0  0  0  0  0  0  0  0  0  0
   -3.0230   22.2370  -31.1300 C   0  0  0  0  0  0  0  0  0  0  0  0
   -1.9140   22.7620  -30.2450 C   0  0  0  0  0  0  0  0  0  0  0  0
   -1.6290   21.8300  -29.0540 C   0  0  0  0  0  0  0  0  0  0  0  0
   -2.8970   21.2200  -28.4070 C   0  0  0  0  0  0  0  0  0  0  0  0
   -3.7990   22.3010  -27.7920 C   0  0  0  0  0  0  0  0  0  0  0  0
   -2.4990   20.2050  -27.3280 C   0  0  0  0  0  0  0  0  0  0  0  0
   -7.1201   24.9821  -29.2236 H   0  0  0  0  0  0  0  0  0  0  0  0
   -6.5948   25.8150  -30.7259 H   0  0  0  0  0  0  0  0  0  0  0  0
   -6.8459   24.0364  -30.7259 H   0  0  0  0  0  0  0  0  0  0  0  0
   -4.6460   25.6280  -29.3218 H   0  0  0  0  0  0  0  0  0  0  0  0
   -4.9923   23.8886  -28.9813 H   0  0  0  0  0  0  0  0  0  0  0  0
   -6.0760   23.0725  -32.4494 H   0  0  0  0  0  0  0  0  0  0  0  0
   -6.3223   19.4299  -35.2079 H   0  0  0  0  0  0  0  0  0  0  0  0
   -4.9431   18.9762  -34.1348 H   0  0  0  0  0  0  0  0  0  0  0  0
   -7.8578   18.2335  -33.9608 H   0  0  0  0  0  0  0  0  0  0  0  0
   -6.3594   17.2689  -33.5913 H   0  0  0  0  0  0  0  0  0  0  0  0
   -6.5740   19.3990  -31.7980 H   0  0  0  0  0  0  0  0  0  0  0  0
   -5.6937   17.9732  -30.4892 H   0  0  0  0  0  0  0  0  0  0  0  0
   -7.1212   16.8478  -30.7381 H   0  0  0  0  0  0  0  0  0  0  0  0
   -4.8927   15.8527  -31.3478 H   0  0  0  0  0  0  0  0  0  0  0  0
   -6.1138   15.8658  -32.6651 H   0  0  0  0  0  0  0  0  0  0  0  0
   -4.7797   17.0686  -32.6651 H   0  0  0  0  0  0  0  0  0  0  0  0
   -9.0276   17.7652  -32.0828 H   0  0  0  0  0  0  0  0  0  0  0  0
   -8.5542   18.6915  -30.5848 H   0  0  0  0  0  0  0  0  0  0  0  0
   -9.4361   20.5583  -31.4202 H   0  0  0  0  0  0  0  0  0  0  0  0
   -8.3759   20.4405  -32.8654 H   0  0  0  0  0  0  0  0  0  0  0  0
   -9.9860   19.6442  -32.8654 H   0  0  0  0  0  0  0  0  0  0  0  0
   -3.8582   19.3774  -32.8188 H   0  0  0  0  0  0  0  0  0  0  0  0
   -2.0327   20.3302  -31.4292 H   0  0  0  0  0  0  0  0  0  0  0  0
   -0.9976   22.8592  -30.8457 H   0  0  0  0  0  0  0  0  0  0  0  0
   -2.2349   23.7344  -29.8431 H   0  0  0  0  0  0  0  0  0  0  0  0
   -0.9909   21.0060  -29.4059 H   0  0  0  0  0  0  0  0  0  0  0  0
   -1.1443   22.4445  -28.2810 H   0  0  0  0  0  0  0  0  0  0  0  0
   -3.4659   20.7152  -29.2017 H   0  0  0  0  0  0  0  0  0  0  0  0
   -3.7483   22.2402  -26.6949 H   0  0  0  0  0  0  0  0  0  0  0  0
   -3.4577   23.2938  -28.1204 H   0  0  0  0  0  0  0  0  0  0  0  0
   -4.8369   22.1430  -28.1204 H   0  0  0  0  0  0  0  0  0  0  0  0
   -2.6702   20.6416  -26.3330 H   0  0  0  0  0  0  0  0  0  0  0  0
   -3.1069   19.2949  -27.4386 H   0  0  0  0  0  0  0  0  0  0  0  0
   -1.4345   19.9507  -27.4386 H   0  0  0  0  0  0  0  0  0  0  0  0
  1  2  1  0
  2  3  1  0
  3  4  1  0
  4  5  2  0
  5  6  1  0
  6  7  1  0
  7  8  1  0
  8  9  1  0
  9 10  1  0
 10 11  1  0
 11 12  1  0
 10 13  1  0
 13 14  1  0
  6 15  2  0
 15 16  1  0
 16 17  2  0
 17 18  1  0
 18 19  1  0
 19 20  1  0
 20 21  1  0
 20 22  1  0
 17  4  1  0
  1 23  1  0
  1 24  1  0
  1 25  1  0
  2 26  1  0
  2 27  1  0
  5 28  1  0
  8 29  1  0
  8 30  1  0
  9 31  1  0
  9 32  1  0
 10 33  1  0
 11 34  1  0
 11 35  1  0
 12 36  1  0
 12 37  1  0
 12 38  1  0
 13 39  1  0
 13 40  1  0
 14 41  1  0
 14 42  1  0
 14 43  1  0
 15 44  1  0
 16 45  1  0
 18 46  1  0
 18 47  1  0
 19 48  1  0
 19 49  1  0
 20 50  1  0
 21 51  1  0
 21 52  1  0
 21 53  1  0
 22 54  1  0
 22 55  1  0
 22 56  1  0
M  CHG  1  10   1
M  END
>  <UniqueID>  (17) 
17

>  <SMILES>  (17) 
CCOc1cc(OCC[NH+](CC)CC)ccc1CCC(C)C

>  <Energy>  (17) 
44.46904441293025

>  <Genealogy>  (17) 
CCOc1cc(OCC[NH+](CC)CC)ccc1CCC(C)C (protonated)
CCOc1cc(OCC[NH+](CC)CC)ccc1CCC(C)C (3D coordinates assigned)
CCOc1cc(OCC[NH+](CC)CC)ccc1CCC(C)C (optimized conformer: 44.46904441293025 kcal/mol)

>  <smiles>  (17) 
CCOc1cc(OCCN(CC)CC)ccc1CCC(C)C

>  <score_type>  (17) 
oracle

>  <origin>  (17) 
adg

>  <m_score__min__energy>  (17) 
-6.0899999999999999

>  <m_primary>  (17) 
energy

$$$$
17:0
     RDKit          3D

 70 72  0  0  0  0  0  0  0  0999 V2000
   -0.8530   26.7930  -23.8630 C   0  0  0  0  0  0  0  0  0  0  0  0
   -1.6170   26.3620  -25.1160 C   0  0  0  0  0  0  0  0  0  0  0  0
   -0.7080   26.2240  -26.2770 N   0  0  0  0  0  0  0  0  0  0  0  0
   -0.6930   27.4430  -27.1290 C   0  0  0  0  0  0  0  0  0  0  0  0
    0.0500   28.5550  -26.4040 C   0  0  0  0  0  0  0  0  0  0  0  0
   -1.0440   25.0100  -27.0590 C   0  0  0  0  0  0  0  0  0  0  0  0
   -0.9340   25.2760  -28.5630 C   0  0  0  0  0  0  0  0  0  0  0  0
   -2.1130   24.8160  -29.2010 O   0  0  0  0  0  0  0  0  0  0  0  0
   -2.9740   24.1520  -28.2910 C   0  0  0  0  0  0  0  0  0  0  0  0
   -3.7380   22.9910  -28.9560 C   0  0  0  0  0  0  0  0  0  0  0  0
   -2.7960   21.9370  -29.5480 C   0  0  0  0  0  0  0  0  0  0  0  0
   -2.2730   22.4010  -30.8450 N   0  0  0  0  0  0  0  0  0  0  0  0
   -1.4490   21.3940  -31.5310 C   0  0  0  0  0  0  0  0  0  0  0  0
   -2.2520   20.5990  -32.5780 C   0  0  0  0  0  0  0  0  0  0  0  0
   -3.2420   21.4350  -33.2880 N   0  0  0  0  0  0  0  0  0  0  0  0
   -4.6200   21.0330  -33.0190 C   0  0  0  0  0  0  0  0  0  0  0  0
   -5.1160   19.7580  -33.4290 C   0  0  0  0  0  0  0  0  0  0  0  0
   -4.3240   18.8360  -34.1670 C   0  0  0  0  0  0  0  0  0  0  0  0
   -4.7900   17.5600  -34.4690 C   0  0  0  0  0  0  0  0  0  0  0  0
   -6.0440   17.1560  -34.0380 C   0  0  0  0  0  0  0  0  0  0  0  0
   -6.8600   18.0450  -33.3510 C   0  0  0  0  0  0  0  0  0  0  0  0
   -6.4460   19.3770  -33.0830 C   0  0  0  0  0  0  0  0  0  0  0  0
   -7.2980   20.2810  -32.4850 N   0  0  0  0  0  0  0  0  0  0  0  0
   -8.7530   19.9980  -32.4250 C   0  0  0  0  0  0  0  0  0  0  0  0
   -6.8110   21.4680  -31.9770 C   0  0  0  0  0  0  0  0  0  0  0  0
   -7.6160   22.2950  -31.1540 C   0  0  0  0  0  0  0  0  0  0  0  0
   -7.1650   23.5300  -30.7010 C   0  0  0  0  0  0  0  0  0  0  0  0
   -5.8840   23.9770  -31.0210 C   0  0  0  0  0  0  0  0  0  0  0  0
   -5.4290   25.2660  -30.5610 N   0  0  0  0  0  0  0  0  0  0  0  0
   -4.2780   25.6710  -30.8270 O   0  0  0  0  0  0  0  0  0  0  0  0
   -6.2550   26.0730  -29.8100 O   0  0  0  0  0  0  0  0  0  0  0  0
   -5.0450   23.1470  -31.7810 C   0  0  0  0  0  0  0  0  0  0  0  0
   -5.4800   21.8850  -32.2640 C   0  0  0  0  0  0  0  0  0  0  0  0
   -1.4098   26.4789  -22.9679 H   0  0  0  0  0  0  0  0  0  0  0  0
    0.1414   26.3228  -23.8600 H   0  0  0  0  0  0  0  0  0  0  0  0
   -0.7412   27.8873  -23.8600 H   0  0  0  0  0  0  0  0  0  0  0  0
   -2.1036   25.3943  -24.9243 H   0  0  0  0  0  0  0  0  0  0  0  0
   -2.3657   27.1332  -25.3498 H   0  0  0  0  0  0  0  0  0  0  0  0
   -0.1853   27.2208  -28.0792 H   0  0  0  0  0  0  0  0  0  0  0  0
   -1.7257   27.7623  -27.3329 H   0  0  0  0  0  0  0  0  0  0  0  0
   -0.0455   28.4121  -25.3175 H   0  0  0  0  0  0  0  0  0  0  0  0
    1.1132   28.5295  -26.6851 H   0  0  0  0  0  0  0  0  0  0  0  0
   -0.3804   29.5275  -26.6851 H   0  0  0  0  0  0  0  0  0  0  0  0
   -0.3492   24.2024  -26.7851 H   0  0  0  0  0  0  0  0  0  0  0  0
   -2.0806   24.7221  -26.8297 H   0  0  0  0  0  0  0  0  0  0  0  0
   -0.8168   26.3555  -28.7389 H   0  0  0  0  0  0  0  0  0  0  0  0
   -0.0603   24.7465  -28.9708 H   0  0  0  0  0  0  0  0  0  0  0  0
   -2.3724   23.7515  -27.4617 H   0  0  0  0  0  0  0  0  0  0  0  0
   -3.7142   24.8821  -27.9317 H   0  0  0  0  0  0  0  0  0  0  0  0
   -4.3770   22.5098  -28.2009 H   0  0  0  0  0  0  0  0  0  0  0  0
   -4.3344   23.4095  -29.7801 H   0  0  0  0  0  0  0  0  0  0  0  0
   -1.9575   21.7681  -28.8564 H   0  0  0  0  0  0  0  0  0  0  0  0
   -3.3511   20.9991  -29.6969 H   0  0  0  0  0  0  0  0  0  0  0  0
   -1.7110   23.2780  -30.6980 H   0  0  0  0  0  0  0  0  0  0  0  0
   -0.6151   21.9033  -32.0363 H   0  0  0  0  0  0  0  0  0  0  0  0
   -1.0851   20.6835  -30.7742 H   0  0  0  0  0  0  0  0  0  0  0  0
   -1.5516   20.1794  -33.3151 H   0  0  0  0  0  0  0  0  0  0  0  0
   -2.8025   19.8088  -32.0466 H   0  0  0  0  0  0  0  0  0  0  0  0
   -3.0560   22.4380  -33.0950 H   0  0  0  0  0  0  0  0  0  0  0  0
   -3.0540   21.3830  -34.3120 H   0  0  0  0  0  0  0  0  0  0  0  0
   -3.3221   19.1377  -34.5063 H   0  0  0  0  0  0  0  0  0  0  0  0
   -4.1615   16.8701  -35.0513 H   0  0  0  0  0  0  0  0  0  0  0  0
   -6.3923   16.1323  -34.2400 H   0  0  0  0  0  0  0  0  0  0  0  0
   -7.8495   17.7101  -33.0065 H   0  0  0  0  0  0  0  0  0  0  0  0
   -9.0714   19.9361  -31.3739 H   0  0  0  0  0  0  0  0  0  0  0  0
   -9.3047   20.8057  -32.9283 H   0  0  0  0  0  0  0  0  0  0  0  0
   -8.9617   19.0424  -32.9283 H   0  0  0  0  0  0  0  0  0  0  0  0
   -8.6209   21.9519  -30.8670 H   0  0  0  0  0  0  0  0  0  0  0  0
   -7.8244   24.1592  -30.0852 H   0  0  0  0  0  0  0  0  0  0  0  0
   -4.0228   23.4836  -32.0085 H   0  0  0  0  0  0  0  0  0  0  0  0
  1  2  1  0
  2  3  1  0
  3  4  1  0
  4  5  1  0
  3  6  1  0
  6  7  1  0
  7  8  1  0
  8  9  1  0
  9 10  1  0
 10 11  1  0
 11 12  1  0
 12 13  1  0
 13 14  1  0
 14 15  1  0
 15 16  1  0
 16 17  2  0
 17 18  1  0
 18 19  2  0
 19 20  1  0
 20 21  2  0
 21 22  1  0
 22 23  2  0
 23 24  1  0
 23 25  1  0
 25 26  2  0
 26 27  1  0
 27 28  2  0
 28 29  1  0
 29 30  2  0
 29 31  1  0
 28 32  1  0
 32 33  2  0
 33 16  1  0
 22 17  1  0
 33 25  1  0
  1 34  1  0
  1 35  1  0
  1 36  1  0
  2 37  1  0
  2 38  1  0
  4 39  1  0
  4 40  1  0
  5 41  1  0
  5 42  1  0
  5 43  1  0
  6 44  1  0
  6 45  1  0
  7 46  1  0
  7 47  1  0
  9 48  1  0
  9 49  1  0
 10 50  1  0
 10 51  1  0
 11 52  1  0
 11 53  1  0
 12 54  1  0
 13 55  1  0
 13 56  1  0
 14 57  1  0
 14 58  1  0
 15 59  1  0
 15 60  1  0
 18 61  1  0
 19 62  1  0
 20 63  1  0
 21 64  1  0
 24 65  1  0
 24 66  1  0
 24 67  1  0
 26 68  1  0
 27 69  1  0
 32 70  1  0
M  CHG  4  15   1  23   1  29   1  31  -1
M  END
>  <UniqueID>  (18) 
18

>  <SMILES>  (18) 
CCN(CC)CCOCCCNCC[NH2+]c1c2ccccc2[n+](C)c2ccc([N+](=O)[O-])cc12

>  <Energy>  (18) 
95.64801872512426

>  <Genealogy>  (18) 
CCN(CC)CCOCCCNCC[NH2+]c1c2ccccc2[n+](C)c2ccc([N+](=O)[O-])cc12 (protonated)
CCN(CC)CCOCCCNCC[NH2+]c1c2ccccc2[n+](C)c2ccc([N+](=O)[O-])cc12 (3D coordinates assigned)
CCN(CC)CCOCCCNCC[NH2+]c1c2ccccc2[n+](C)c2ccc([N+](=O)[O-])cc12 (optimized conformer: 95.64801872512426 kcal/mol)

>  <smiles>  (18) 
CCN(CC)CCOCCCNCCNc1c2ccccc2[n+](C)c2ccc([N+](=O)[O-])cc12

>  <score_type>  (18) 
oracle

>  <origin>  (18) 
adg

>  <m_score__min__energy>  (18) 
-9.2200000000000006

>  <m_primary>  (18) 
energy

$$$$
18:0
     RDKit          3D

 36 35  0  0  0  0  0  0  0  0999 V2000
   -2.6520   24.9620  -26.5250 C   0  0  0  0  0  0  0  0  0  0  0  0
   -4.1740   24.8060  -26.5790 C   0  0  0  0  0  0  0  0  0  0  0  0
   -4.6650   24.5620  -27.9480 N   0  0  0  0  0  0  0  0  0  0  0  0
   -3.9760   23.4390  -28.6260 C   0  0  0  0  0  0  0  0  0  0  0  0
   -3.8760   23.6490  -30.1410 C   0  0  0  0  0  0  0  0  0  0  0  0
   -4.3490   24.9400  -30.4720 O   0  0  0  0  0  0  0  0  0  0  0  0
   -5.7480   24.9180  -30.6990 C   0  0  0  0  0  0  0  0  0  0  0  0
   -6.1140   23.8760  -31.7830 C   0  0  0  0  0  0  0  0  0  0  0  0
   -7.0820   22.8130  -31.3660 N   0  0  0  0  0  0  0  0  0  0  0  0
   -6.5660   21.5100  -31.8530 C   0  0  0  0  0  0  0  0  0  0  0  0
   -7.1940   22.7400  -29.8880 C   0  0  0  0  0  0  0  0  0  0  0  0
   -8.4230   23.0310  -31.9560 C   0  0  0  0  0  0  0  0  0  0  0  0
   -2.3239   24.9956  -25.4756 H   0  0  0  0  0  0  0  0  0  0  0  0
   -2.1777   24.1078  -27.0303 H   0  0  0  0  0  0  0  0  0  0  0  0
   -2.3609   25.8947  -27.0303 H   0  0  0  0  0  0  0  0  0  0  0  0
   -4.4651   23.9573  -25.9426 H   0  0  0  0  0  0  0  0  0  0  0  0
   -4.6207   25.7467  -26.2247 H   0  0  0  0  0  0  0  0  0  0  0  0
   -4.6040   25.4480  -28.5020 H   0  0  0  0  0  0  0  0  0  0  0  0
   -5.6830   24.3250  -27.8740 H   0  0  0  0  0  0  0  0  0  0  0  0
   -2.9604   23.3462  -28.2137 H   0  0  0  0  0  0  0  0  0  0  0  0
   -4.5652   22.5268  -28.4504 H   0  0  0  0  0  0  0  0  0  0  0  0
   -2.8265   23.5515  -30.4559 H   0  0  0  0  0  0  0  0  0  0  0  0
   -4.4862   22.8926  -30.6563 H   0  0  0  0  0  0  0  0  0  0  0  0
   -6.2612   24.6580  -29.7614 H   0  0  0  0  0  0  0  0  0  0  0  0
   -6.0639   25.9128  -31.0462 H   0  0  0  0  0  0  0  0  0  0  0  0
   -6.5524   24.4158  -32.6353 H   0  0  0  0  0  0  0  0  0  0  0  0
   -5.1772   23.3501  -32.0195 H   0  0  0  0  0  0  0  0  0  0  0  0
   -6.3131   20.8715  -30.9937 H   0  0  0  0  0  0  0  0  0  0  0  0
   -7.3362   21.0155  -32.4632 H   0  0  0  0  0  0  0  0  0  0  0  0
   -5.6661   21.6769  -32.4632 H   0  0  0  0  0  0  0  0  0  0  0  0
   -6.3564   23.2860  -29.4294 H   0  0  0  0  0  0  0  0  0  0  0  0
   -8.1447   23.1924  -29.5695 H   0  0  0  0  0  0  0  0  0  0  0  0
   -7.1639   21.6875  -29.5695 H   0  0  0  0  0  0  0  0  0  0  0  0
   -9.1627   23.1513  -31.1508 H   0  0  0  0  0  0  0  0  0  0  0  0
   -8.4070   23.9383  -32.5777 H   0  0  0  0  0  0  0  0  0  0  0  0
   -8.6952   22.1653  -32.5777 H   0  0  0  0  0  0  0  0  0  0  0  0
  1  2  1  0
  2  3  1  0
  3  4  1  0
  4  5  1  0
  5  6  1  0
  6  7  1  0
  7  8  1  0
  8  9  1  0
  9 10  1  0
  9 11  1  0
  9 12  1  0
  1 13  1  0
  1 14  1  0
  1 15  1  0
  2 16  1  0
  2 17  1  0
  3 18  1  0
  3 19  1  0
  4 20  1  0
  4 21  1  0
  5 22  1  0
  5 23  1  0
  7 24  1  0
  7 25  1  0
  8 26  1  0
  8 27  1  0
 10 28  1  0
 10 29  1  0
 10 30  1  0
 11 31  1  0
 11 32  1  0
 11 33  1  0
 12 34  1  0
 12 35  1  0
 12 36  1  0
M  CHG  2   3   1   9   1
M  END
>  <UniqueID>  (19) 
19

>  <SMILES>  (19) 
CC[NH2+]CCOCC[N+](C)(C)C

>  <Energy>  (19) 
37.81290872482959

>  <Genealogy>  (19) 
CC[NH2+]CCOCC[N+](C)(C)C (protonated)
CC[NH2+]CCOCC[N+](C)(C)C (3D coordinates assigned)
CC[NH2+]CCOCC[N+](C)(C)C (optimized conformer: 37.81290872482959 kcal/mol)

>  <smiles>  (19) 
CCNCCOCC[N+](C)(C)C

>  <score_type>  (19) 
oracle

>  <origin>  (19) 
adg

>  <m_score__min__energy>  (19) 
-2.9500000000000002

>  <m_primary>  (19) 
energy

$$$$
19:0
     RDKit          3D

 47 48  0  0  0  0  0  0  0  0999 V2000
   -0.9210   19.9810  -27.4020 C   0  0  0  0  0  0  0  0  0  0  0  0
   -1.4750   21.0390  -26.4540 C   0  0  0  0  0  0  0  0  0  0  0  0
   -1.1910   22.3860  -26.9630 N   0  0  0  0  0  0  0  0  0  0  0  0
   -1.0880   22.6350  -28.4070 C   0  0  0  0  0  0  0  0  0  0  0  0
   -2.4590   22.5000  -29.0970 C   0  0  0  0  0  0  0  0  0  0  0  0
   -2.4290   22.9670  -30.5630 C   0  0  0  0  0  0  0  0  0  0  0  0
   -3.5480   23.8100  -30.8320 O   0  0  0  0  0  0  0  0  0  0  0  0
   -4.8220   23.3480  -31.2070 C   0  0  0  0  0  0  0  0  0  0  0  0
   -5.0100   22.1130  -31.8650 C   0  0  0  0  0  0  0  0  0  0  0  0
   -6.2900   21.7030  -32.2540 C   0  0  0  0  0  0  0  0  0  0  0  0
   -7.3960   22.5130  -31.9820 C   0  0  0  0  0  0  0  0  0  0  0  0
   -7.2220   23.7370  -31.3270 C   0  0  0  0  0  0  0  0  0  0  0  0
   -5.9410   24.1580  -30.9450 C   0  0  0  0  0  0  0  0  0  0  0  0
   -5.7600   25.6950  -30.1080 Cl  0  0  0  0  0  0  0  0  0  0  0  0
   -1.0300   23.4750  -26.0390 C   0  0  0  0  0  0  0  0  0  0  0  0
   -0.1160   23.3680  -24.9940 C   0  0  0  0  0  0  0  0  0  0  0  0
    0.0310   24.3890  -24.1140 N   0  0  0  0  0  0  0  0  0  0  0  0
   -0.6940   25.5120  -24.2090 N   0  0  0  0  0  0  0  0  0  0  0  0
   -0.4960   26.5830  -23.2240 C   0  0  0  0  0  0  0  0  0  0  0  0
   -1.6140   25.6680  -25.2120 C   0  0  0  0  0  0  0  0  0  0  0  0
   -2.2920   26.7290  -25.2760 O   0  0  0  0  0  0  0  0  0  0  0  0
   -1.8010   24.6370  -26.1610 C   0  0  0  0  0  0  0  0  0  0  0  0
   -2.7290   24.7000  -27.2190 O   0  0  0  0  0  0  0  0  0  0  0  0
   -4.1420   24.5630  -27.1110 C   0  0  0  0  0  0  0  0  0  0  0  0
   -0.4887   19.1554  -26.8177 H   0  0  0  0  0  0  0  0  0  0  0  0
   -1.7330   19.5956  -28.0361 H   0  0  0  0  0  0  0  0  0  0  0  0
   -0.1417   20.4288  -28.0361 H   0  0  0  0  0  0  0  0  0  0  0  0
   -2.5634   20.9087  -26.3628 H   0  0  0  0  0  0  0  0  0  0  0  0
   -0.9949   20.9220  -25.4713 H   0  0  0  0  0  0  0  0  0  0  0  0
   -0.7041   23.6531  -28.5687 H   0  0  0  0  0  0  0  0  0  0  0  0
   -0.4059   21.8888  -28.8405 H   0  0  0  0  0  0  0  0  0  0  0  0
   -2.7655   21.4439  -29.0693 H   0  0  0  0  0  0  0  0  0  0  0  0
   -3.1702   23.1416  -28.5561 H   0  0  0  0  0  0  0  0  0  0  0  0
   -1.4997   23.5258  -30.7479 H   0  0  0  0  0  0  0  0  0  0  0  0
   -2.4742   22.0874  -31.2220 H   0  0  0  0  0  0  0  0  0  0  0  0
   -4.1435   21.4682  -32.0734 H   0  0  0  0  0  0  0  0  0  0  0  0
   -6.4258   20.7432  -32.7739 H   0  0  0  0  0  0  0  0  0  0  0  0
   -8.4030   22.1883  -32.2828 H   0  0  0  0  0  0  0  0  0  0  0  0
   -8.0942   24.3715  -31.1110 H   0  0  0  0  0  0  0  0  0  0  0  0
    0.4870   22.4548  -24.8823 H   0  0  0  0  0  0  0  0  0  0  0  0
    0.7320   24.2750  -23.3480 H   0  0  0  0  0  0  0  0  0  0  0  0
   -0.5730   26.1664  -22.2089 H   0  0  0  0  0  0  0  0  0  0  0  0
    0.4998   27.0292  -23.3627 H   0  0  0  0  0  0  0  0  0  0  0  0
   -1.2665   27.3557  -23.3627 H   0  0  0  0  0  0  0  0  0  0  0  0
   -4.4276   24.5353  -26.0491 H   0  0  0  0  0  0  0  0  0  0  0  0
   -4.6317   25.4179  -27.6002 H   0  0  0  0  0  0  0  0  0  0  0  0
   -4.4584   23.6300  -27.6002 H   0  0  0  0  0  0  0  0  0  0  0  0
  1  2  1  0
  2  3  1  0
  3  4  1  0
  4  5  1  0
  5  6  1  0
  6  7  1  0
  7  8  1  0
  8  9  2  0
  9 10  1  0
 10 11  2  0
 11 12  1  0
 12 13  2  0
 13 14  1  0
  3 15  1  0
 15 16  1  0
 16 17  2  0
 17 18  1  0
 18 19  1  0
 18 20  1  0
 20 21  2  0
 20 22  1  0
 22 23  1  0
 23 24  1  0
 13  8  1  0
 22 15  2  0
  1 25  1  0
  1 26  1  0
  1 27  1  0
  2 28  1  0
  2 29  1  0
  4 30  1  0
  4 31  1  0
  5 32  1  0
  5 33  1  0
  6 34  1  0
  6 35  1  0
  9 36  1  0
 10 37  1  0
 11 38  1  0
 12 39  1  0
 16 40  1  0
 17 41  1  0
 19 42  1  0
 19 43  1  0
 19 44  1  0
 24 45  1  0
 24 46  1  0
 24 47  1  0
M  CHG  1  17   1
M  END
>  <UniqueID>  (20) 
20

>  <SMILES>  (20) 
CCN(CCCOc1ccccc1Cl)c1c[nH+]n(C)c(=O)c1OC

>  <Energy>  (20) 
48.066703387845926

>  <Genealogy>  (20) 
CCN(CCCOc1ccccc1Cl)c1c[nH+]n(C)c(=O)c1OC (protonated)
CCN(CCCOc1ccccc1Cl)c1c[nH+]n(C)c(=O)c1OC (3D coordinates assigned)
CCN(CCCOc1ccccc1Cl)c1c[nH+]n(C)c(=O)c1OC (optimized conformer: 48.066703387845926 kcal/mol)

>  <smiles>  (20) 
CCN(CCCOc1ccccc1Cl)c1cnn(C)c(=O)c1OC

>  <score_type>  (20) 
oracle

>  <origin>  (20) 
adg

>  <m_score__min__energy>  (20) 
-7.2300000000000004

>  <m_primary>  (20) 
energy

$$$$
20:0
     RDKit          3D

 34 35  0  0  0  0  0  0  0  0999 V2000
   -5.1400   18.1510  -34.8620 C   0  0  0  0  0  0  0  0  0  0  0  0
   -6.4630   18.4840  -34.3220 N   0  0  0  0  0  0  0  0  0  0  0  0
   -6.4110   18.8000  -32.8840 C   0  0  0  0  0  0  0  0  0  0  0  0
   -7.1680   20.0740  -32.5520 C   0  0  0  0  0  0  0  0  0  0  0  0
   -8.5690   20.0440  -32.5810 C   0  0  0  0  0  0  0  0  0  0  0  0
   -9.2900   21.1950  -32.2640 C   0  0  0  0  0  0  0  0  0  0  0  0
  -10.5490   21.1750  -32.2900 O   0  0  0  0  0  0  0  0  0  0  0  0
   -8.6580   22.3140  -31.9330 O   0  0  0  0  0  0  0  0  0  0  0  0
   -7.3340   22.4030  -31.8830 C   0  0  0  0  0  0  0  0  0  0  0  0
   -6.7480   23.6190  -31.5210 C   0  0  0  0  0  0  0  0  0  0  0  0
   -5.3500   23.7490  -31.4550 C   0  0  0  0  0  0  0  0  0  0  0  0
   -4.7310   24.9570  -31.0950 O   0  0  0  0  0  0  0  0  0  0  0  0
   -5.3930   26.0470  -30.4630 C   0  0  0  0  0  0  0  0  0  0  0  0
   -4.5360   22.6480  -31.7540 C   0  0  0  0  0  0  0  0  0  0  0  0
   -3.1420   22.8130  -31.6750 O   0  0  0  0  0  0  0  0  0  0  0  0
   -2.2370   21.8290  -31.1850 C   0  0  0  0  0  0  0  0  0  0  0  0
   -5.1230   21.4210  -32.1210 C   0  0  0  0  0  0  0  0  0  0  0  0
   -6.5240   21.2840  -32.1890 C   0  0  0  0  0  0  0  0  0  0  0  0
   -4.4392   17.9746  -34.0326 H   0  0  0  0  0  0  0  0  0  0  0  0
   -5.2137   17.2434  -35.4791 H   0  0  0  0  0  0  0  0  0  0  0  0
   -4.7752   18.9853  -35.4791 H   0  0  0  0  0  0  0  0  0  0  0  0
   -6.8600   19.2870  -34.8640 H   0  0  0  0  0  0  0  0  0  0  0  0
   -7.0890   17.6570  -34.4570 H   0  0  0  0  0  0  0  0  0  0  0  0
   -6.8558   17.9661  -32.3212 H   0  0  0  0  0  0  0  0  0  0  0  0
   -5.3569   18.9502  -32.6078 H   0  0  0  0  0  0  0  0  0  0  0  0
   -9.0969   19.1179  -32.8523 H   0  0  0  0  0  0  0  0  0  0  0  0
   -7.3870   24.4828  -31.2854 H   0  0  0  0  0  0  0  0  0  0  0  0
   -5.3245   25.9342  -29.3709 H   0  0  0  0  0  0  0  0  0  0  0  0
   -4.9154   26.9908  -30.7648 H   0  0  0  0  0  0  0  0  0  0  0  0
   -6.4507   26.0584  -30.7648 H   0  0  0  0  0  0  0  0  0  0  0  0
   -2.2456   21.8383  -30.0851 H   0  0  0  0  0  0  0  0  0  0  0  0
   -2.5442   20.8363  -31.5457 H   0  0  0  0  0  0  0  0  0  0  0  0
   -1.2221   22.0523  -31.5457 H   0  0  0  0  0  0  0  0  0  0  0  0
   -4.4804   20.5600  -32.3572 H   0  0  0  0  0  0  0  0  0  0  0  0
  1  2  1  0
  2  3  1  0
  3  4  1  0
  4  5  2  0
  5  6  1  0
  6  7  2  0
  6  8  1  0
  8  9  1  0
  9 10  2  0
 10 11  1  0
 11 12  1  0
 12 13  1  0
 11 14  2  0
 14 15  1  0
 15 16  1  0
 14 17  1  0
 17 18  2  0
 18  4  1  0
 18  9  1  0
  1 19  1  0
  1 20  1  0
  1 21  1  0
  2 22  1  0
  2 23  1  0
  3 24  1  0
  3 25  1  0
  5 26  1  0
 10 27  1  0
 13 28  1  0
 13 29  1  0
 13 30  1  0
 16 31  1  0
 16 32  1  0
 16 33  1  0
 17 34  1  0
M  CHG  1   2   1
M  END
>  <UniqueID>  (21) 
21

>  <SMILES>  (21) 
C[NH2+]Cc1cc(=O)oc2cc(OC)c(OC)cc12

>  <Energy>  (21) 
38.387525426106095

>  <Genealogy>  (21) 
C[NH2+]Cc1cc(=O)oc2cc(OC)c(OC)cc12 (protonated)
C[NH2+]Cc1cc(=O)oc2cc(OC)c(OC)cc12 (3D coordinates assigned)
C[NH2+]Cc1cc(=O)oc2cc(OC)c(OC)cc12 (optimized conformer: 38.387525426106095 kcal/mol)

>  <smiles>  (21) 
CNCc1cc(=O)oc2cc(OC)c(OC)cc12

>  <score_type>  (21) 
oracle

>  <origin>  (21) 
adg

>  <m_score__min__energy>  (21) 
-5.9299999999999997

>  <m_primary>  (21) 
energy

$$$$
21:0
     RDKit          3D

 60 63  0  0  0  0  0  0  0  0999 V2000
   -6.2310   25.3550  -29.6920 C   0  0  0  0  0  0  0  0  0  0  0  0
   -5.2460   25.6740  -30.8140 C   0  0  0  0  0  0  0  0  0  0  0  0
   -3.8960   25.2140  -30.4570 N   0  0  0  0  0  0  0  0  0  0  0  0
   -3.9350   24.2130  -29.3810 C   0  0  0  0  0  0  0  0  0  0  0  0
   -2.7090   23.2930  -29.4900 C   0  0  0  0  0  0  0  0  0  0  0  0
   -2.2890   23.0790  -30.8890 N   0  0  0  0  0  0  0  0  0  0  0  0
   -2.1300   21.6540  -31.2170 C   0  0  0  0  0  0  0  0  0  0  0  0
   -1.5150   21.4920  -32.6170 C   0  0  0  0  0  0  0  0  0  0  0  0
   -2.5320   21.4010  -33.6830 N   0  0  0  0  0  0  0  0  0  0  0  0
   -3.5910   20.4440  -33.3790 C   0  0  0  0  0  0  0  0  0  0  0  0
   -4.8230   20.8860  -32.8190 C   0  0  0  0  0  0  0  0  0  0  0  0
   -5.8550   19.9460  -32.5810 C   0  0  0  0  0  0  0  0  0  0  0  0
   -5.5780   18.6000  -32.6040 N   0  0  0  0  0  0  0  0  0  0  0  0
   -6.4350   17.6530  -31.8580 C   0  0  0  0  0  0  0  0  0  0  0  0
   -4.4470   18.1390  -33.2420 C   0  0  0  0  0  0  0  0  0  0  0  0
   -4.2770   16.7580  -33.5120 C   0  0  0  0  0  0  0  0  0  0  0  0
   -3.1420   16.2840  -34.1610 C   0  0  0  0  0  0  0  0  0  0  0  0
   -2.1570   17.1690  -34.5690 C   0  0  0  0  0  0  0  0  0  0  0  0
   -2.2950   18.5340  -34.3280 C   0  0  0  0  0  0  0  0  0  0  0  0
   -3.4340   19.0520  -33.6570 C   0  0  0  0  0  0  0  0  0  0  0  0
   -7.2210   20.4760  -32.2570 C   0  0  0  0  0  0  0  0  0  0  0  0
   -8.3950   19.8260  -32.6860 C   0  0  0  0  0  0  0  0  0  0  0  0
   -9.6510   20.3530  -32.3730 C   0  0  0  0  0  0  0  0  0  0  0  0
   -9.7520   21.5530  -31.6670 C   0  0  0  0  0  0  0  0  0  0  0  0
   -8.5970   22.2490  -31.3040 C   0  0  0  0  0  0  0  0  0  0  0  0
   -7.3340   21.7310  -31.6280 C   0  0  0  0  0  0  0  0  0  0  0  0
   -6.0850   22.5130  -31.3480 C   0  0  0  0  0  0  0  0  0  0  0  0
   -5.1150   22.3570  -32.5270 C   0  0  0  0  0  0  0  0  0  0  0  0
   -5.7425   25.5132  -28.7192 H   0  0  0  0  0  0  0  0  0  0  0  0
   -7.1068   26.0154  -29.7742 H   0  0  0  0  0  0  0  0  0  0  0  0
   -6.5534   24.3065  -29.7742 H   0  0  0  0  0  0  0  0  0  0  0  0
   -5.5696   25.1676  -31.7353 H   0  0  0  0  0  0  0  0  0  0  0  0
   -5.2225   26.7627  -30.9694 H   0  0  0  0  0  0  0  0  0  0  0  0
   -3.4780   24.7540  -31.3010 H   0  0  0  0  0  0  0  0  0  0  0  0
   -3.9252   24.7225  -28.4062 H   0  0  0  0  0  0  0  0  0  0  0  0
   -4.8522   23.6127  -29.4728 H   0  0  0  0  0  0  0  0  0  0  0  0
   -1.8749   23.7489  -28.9365 H   0  0  0  0  0  0  0  0  0  0  0  0
   -2.9850   22.3149  -29.0692 H   0  0  0  0  0  0  0  0  0  0  0  0
   -2.9990   23.5020  -31.5340 H   0  0  0  0  0  0  0  0  0  0  0  0
   -1.4697   21.1825  -30.4742 H   0  0  0  0  0  0  0  0  0  0  0  0
   -3.1187   21.1721  -31.2035 H   0  0  0  0  0  0  0  0  0  0  0  0
   -0.8702   22.3598  -32.8199 H   0  0  0  0  0  0  0  0  0  0  0  0
   -0.9464   20.5504  -32.6213 H   0  0  0  0  0  0  0  0  0  0  0  0
   -2.0640   21.1340  -34.5750 H   0  0  0  0  0  0  0  0  0  0  0  0
   -2.8920   22.3520  -33.9080 H   0  0  0  0  0  0  0  0  0  0  0  0
   -6.2965   17.8061  -30.7775 H   0  0  0  0  0  0  0  0  0  0  0  0
   -7.4889   17.8270  -32.1208 H   0  0  0  0  0  0  0  0  0  0  0  0
   -6.1570   16.6217  -32.1208 H   0  0  0  0  0  0  0  0  0  0  0  0
   -5.0577   16.0476  -33.2023 H   0  0  0  0  0  0  0  0  0  0  0  0
   -3.0262   15.2066  -34.3504 H   0  0  0  0  0  0  0  0  0  0  0  0
   -1.2620   16.7920  -35.0856 H   0  0  0  0  0  0  0  0  0  0  0  0
   -1.5066   19.2237  -34.6639 H   0  0  0  0  0  0  0  0  0  0  0  0
   -8.3226   18.8974  -33.2713 H   0  0  0  0  0  0  0  0  0  0  0  0
  -10.5622   19.8209  -32.6837 H   0  0  0  0  0  0  0  0  0  0  0  0
  -10.7414   21.9504  -31.3966 H   0  0  0  0  0  0  0  0  0  0  0  0
   -8.6775   23.2038  -30.7638 H   0  0  0  0  0  0  0  0  0  0  0  0
   -6.3379   23.5756  -31.2182 H   0  0  0  0  0  0  0  0  0  0  0  0
   -5.6122   22.1363  -30.4290 H   0  0  0  0  0  0  0  0  0  0  0  0
   -5.5614   22.8174  -33.4208 H   0  0  0  0  0  0  0  0  0  0  0  0
   -4.1685   22.8518  -32.2638 H   0  0  0  0  0  0  0  0  0  0  0  0
  1  2  1  0
  2  3  1  0
  3  4  1  0
  4  5  1  0
  5  6  1  0
  6  7  1  0
  7  8  1  0
  8  9  1  0
  9 10  1  0
 10 11  2  0
 11 12  1  0
 12 13  2  0
 13 14  1  0
 13 15  1  0
 15 16  2  0
 16 17  1  0
 17 18  2  0
 18 19  1  0
 19 20  2  0
 12 21  1  0
 21 22  2  0
 22 23  1  0
 23 24  2  0
 24 25  1  0
 25 26  2  0
 26 27  1  0
 27 28  1  0
 20 10  1  0
 26 21  1  0
 28 11  1  0
 20 15  1  0
  1 29  1  0
  1 30  1  0
  1 31  1  0
  2 32  1  0
  2 33  1  0
  3 34  1  0
  4 35  1  0
  4 36  1  0
  5 37  1  0
  5 38  1  0
  6 39  1  0
  7 40  1  0
  7 41  1  0
  8 42  1  0
  8 43  1  0
  9 44  1  0
  9 45  1  0
 14 46  1  0
 14 47  1  0
 14 48  1  0
 16 49  1  0
 17 50  1  0
 18 51  1  0
 19 52  1  0
 22 53  1  0
 23 54  1  0
 24 55  1  0
 25 56  1  0
 27 57  1  0
 27 58  1  0
 28 59  1  0
 28 60  1  0
M  CHG  2   9   1  13   1
M  END
>  <UniqueID>  (22) 
22

>  <SMILES>  (22) 
CCNCCNCC[NH2+]c1c2c([n+](C)c3ccccc13)-c1ccccc1CC2

>  <Energy>  (22) 
91.01008694885404

>  <Genealogy>  (22) 
CCNCCNCC[NH2+]c1c2c([n+](C)c3ccccc13)-c1ccccc1CC2 (protonated)
CCNCCNCC[NH2+]c1c2c([n+](C)c3ccccc13)-c1ccccc1CC2 (3D coordinates assigned)
CCNCCNCC[NH2+]c1c2c([n+](C)c3ccccc13)-c1ccccc1CC2 (nonaromatic ring conformer: 91.01008694885404 kcal/mol)

>  <smiles>  (22) 
CCNCCNCCNc1c2c([n+](C)c3ccccc13)-c1ccccc1CC2

>  <score_type>  (22) 
oracle

>  <origin>  (22) 
adg

>  <m_score__min__energy>  (22) 
-9

>  <m_primary>  (22) 
energy

$$$$
22:0
     RDKit          3D

 48 49  0  0  0  0  0  0  0  0999 V2000
   -5.0050   15.8840  -32.3570 C   0  0  0  0  0  0  0  0  0  0  0  0
   -5.7900   15.7630  -33.6620 C   0  0  0  0  0  0  0  0  0  0  0  0
   -6.8580   16.8540  -33.8060 C   0  0  0  0  0  0  0  0  0  0  0  0
   -6.3430   18.2020  -33.3870 C   0  0  0  0  0  0  0  0  0  0  0  0
   -4.9860   18.9520  -34.0470 S   0  0  0  0  0  0  0  0  0  0  0  0
   -5.1490   20.3320  -33.0990 C   0  0  0  0  0  0  0  0  0  0  0  0
   -4.1900   21.4810  -33.0920 C   0  0  0  0  0  0  0  0  0  0  0  0
   -3.3520   21.4690  -31.8040 C   0  0  0  0  0  0  0  0  0  0  0  0
   -4.1840   21.4020  -30.5910 N   0  0  0  0  0  0  0  0  0  0  0  0
   -3.9700   22.5510  -29.7030 C   0  0  0  0  0  0  0  0  0  0  0  0
   -5.2860   23.3100  -29.5160 C   0  0  0  0  0  0  0  0  0  0  0  0
   -6.3190   22.8010  -30.4430 N   0  0  0  0  0  0  0  0  0  0  0  0
   -6.5880   23.7860  -31.5130 C   0  0  0  0  0  0  0  0  0  0  0  0
   -7.8350   23.3950  -32.3290 C   0  0  0  0  0  0  0  0  0  0  0  0
   -8.2030   22.0530  -32.0770 O   0  0  0  0  0  0  0  0  0  0  0  0
   -8.6130   21.9160  -30.7290 C   0  0  0  0  0  0  0  0  0  0  0  0
   -7.5740   22.4820  -29.7360 C   0  0  0  0  0  0  0  0  0  0  0  0
   -6.2110   20.2300  -32.2710 N   0  0  0  0  0  0  0  0  0  0  0  0
   -6.8910   19.0610  -32.4260 C   0  0  0  0  0  0  0  0  0  0  0  0
   -8.0980   18.7310  -31.6030 C   0  0  0  0  0  0  0  0  0  0  0  0
   -5.6922   15.7781  -31.5046 H   0  0  0  0  0  0  0  0  0  0  0  0
   -4.2420   15.0929  -32.3134 H   0  0  0  0  0  0  0  0  0  0  0  0
   -4.5156   16.8682  -32.3134 H   0  0  0  0  0  0  0  0  0  0  0  0
   -5.0879   15.8427  -34.5051 H   0  0  0  0  0  0  0  0  0  0  0  0
   -6.3035   14.7903  -33.6551 H   0  0  0  0  0  0  0  0  0  0  0  0
   -7.1739   16.9055  -34.8584 H   0  0  0  0  0  0  0  0  0  0  0  0
   -7.7020   16.5931  -33.1506 H   0  0  0  0  0  0  0  0  0  0  0  0
   -3.5206   21.4001  -33.9611 H   0  0  0  0  0  0  0  0  0  0  0  0
   -4.7584   22.4215  -33.1401 H   0  0  0  0  0  0  0  0  0  0  0  0
   -2.6865   20.5934  -31.8242 H   0  0  0  0  0  0  0  0  0  0  0  0
   -2.7821   22.4091  -31.7671 H   0  0  0  0  0  0  0  0  0  0  0  0
   -5.1940   21.3620  -30.8650 H   0  0  0  0  0  0  0  0  0  0  0  0
   -3.6105   22.1961  -28.7259 H   0  0  0  0  0  0  0  0  0  0  0  0
   -3.2222   23.2227  -30.1498 H   0  0  0  0  0  0  0  0  0  0  0  0
   -5.6341   23.1796  -28.4807 H   0  0  0  0  0  0  0  0  0  0  0  0
   -5.1133   24.3752  -29.7293 H   0  0  0  0  0  0  0  0  0  0  0  0
   -6.7520   24.7741  -31.0582 H   0  0  0  0  0  0  0  0  0  0  0  0
   -5.7217   23.8100  -32.1904 H   0  0  0  0  0  0  0  0  0  0  0  0
   -8.6693   24.0555  -32.0504 H   0  0  0  0  0  0  0  0  0  0  0  0
   -7.6020   23.5004  -33.3989 H   0  0  0  0  0  0  0  0  0  0  0  0
   -9.5622   22.4548  -30.5922 H   0  0  0  0  0  0  0  0  0  0  0  0
   -8.7250   20.8418  -30.5205 H   0  0  0  0  0  0  0  0  0  0  0  0
   -7.9735   23.3964  -29.2732 H   0  0  0  0  0  0  0  0  0  0  0  0
   -7.3693   21.7290  -28.9607 H   0  0  0  0  0  0  0  0  0  0  0  0
   -6.4750   20.9690  -31.5810 H   0  0  0  0  0  0  0  0  0  0  0  0
   -7.8438   18.8005  -30.5350 H   0  0  0  0  0  0  0  0  0  0  0  0
   -8.9052   19.4414  -31.8347 H   0  0  0  0  0  0  0  0  0  0  0  0
   -8.4315   17.7087  -31.8347 H   0  0  0  0  0  0  0  0  0  0  0  0
  1  2  1  0
  2  3  1  0
  3  4  1  0
  4  5  1  0
  5  6  1  0
  6  7  1  0
  7  8  1  0
  8  9  1  0
  9 10  1  0
 10 11  1  0
 11 12  1  0
 12 13  1  0
 13 14  1  0
 14 15  1  0
 15 16  1  0
 16 17  1  0
  6 18  2  0
 18 19  1  0
 19 20  1  0
 19  4  2  0
 17 12  1  0
  1 21  1  0
  1 22  1  0
  1 23  1  0
  2 24  1  0
  2 25  1  0
  3 26  1  0
  3 27  1  0
  7 28  1  0
  7 29  1  0
  8 30  1  0
  8 31  1  0
  9 32  1  0
 10 33  1  0
 10 34  1  0
 11 35  1  0
 11 36  1  0
 13 37  1  0
 13 38  1  0
 14 39  1  0
 14 40  1  0
 16 41  1  0
 16 42  1  0
 17 43  1  0
 17 44  1  0
 18 45  1  0
 20 46  1  0
 20 47  1  0
 20 48  1  0
M  CHG  1  18   1
M  END
>  <UniqueID>  (23) 
23

>  <SMILES>  (23) 
CCCc1sc(CCNCCN2CCOCC2)[nH+]c1C

>  <Energy>  (23) 
73.68967655556183

>  <Genealogy>  (23) 
CCCc1sc(CCNCCN2CCOCC2)[nH+]c1C (protonated)
CCCc1sc(CCNCCN2CCOCC2)[nH+]c1C (3D coordinates assigned)
CCCc1sc(CCNCCN2CCOCC2)[nH+]c1C (nonaromatic ring conformer: 73.68967655556183 kcal/mol)

>  <smiles>  (23) 
CCCc1sc(CCNCCN2CCOCC2)nc1C

>  <score_type>  (23) 
oracle

>  <origin>  (23) 
adg

>  <m_score__min__energy>  (23) 
-6.8200000000000003

>  <m_primary>  (23) 
energy

$$$$
23:0
     RDKit          3D

 56 58  0  0  0  0  0  0  0  0999 V2000
   -3.7990   24.5540  -27.0660 C   0  0  0  0  0  0  0  0  0  0  0  0
   -4.6000   24.0310  -28.2690 C   0  0  0  0  0  0  0  0  0  0  0  0
   -4.2200   24.6170  -29.5790 N   0  0  0  0  0  0  0  0  0  0  0  0
   -5.2990   25.3520  -30.2750 C   0  0  0  0  0  0  0  0  0  0  0  0
   -6.5150   25.6390  -29.3930 C   0  0  0  0  0  0  0  0  0  0  0  0
   -3.3780   23.7860  -30.4680 C   0  0  0  0  0  0  0  0  0  0  0  0
   -2.2230   23.1240  -29.7030 C   0  0  0  0  0  0  0  0  0  0  0  0
   -2.0410   21.3270  -30.0370 S   0  0  0  0  0  0  0  0  0  0  0  0
   -3.4590   21.0720  -31.1700 C   0  0  0  0  0  0  0  0  0  0  0  0
   -3.1760   21.5430  -32.5990 C   0  0  0  0  0  0  0  0  0  0  0  0
   -4.3530   21.3940  -33.4580 N   0  0  0  0  0  0  0  0  0  0  0  0
   -5.5190   20.6600  -33.0370 C   0  0  0  0  0  0  0  0  0  0  0  0
   -6.6320   21.3330  -32.5020 C   0  0  0  0  0  0  0  0  0  0  0  0
   -6.5740   22.7140  -32.2150 C   0  0  0  0  0  0  0  0  0  0  0  0
   -7.7030   23.3980  -31.7680 C   0  0  0  0  0  0  0  0  0  0  0  0
   -8.9040   22.7200  -31.6000 C   0  0  0  0  0  0  0  0  0  0  0  0
   -8.9710   21.3450  -31.8270 C   0  0  0  0  0  0  0  0  0  0  0  0
   -7.8260   20.6100  -32.2320 C   0  0  0  0  0  0  0  0  0  0  0  0
   -7.8540   19.2350  -32.3740 N   0  0  0  0  0  0  0  0  0  0  0  0
   -9.0010   18.4640  -31.8400 C   0  0  0  0  0  0  0  0  0  0  0  0
   -6.7940   18.5750  -32.9700 C   0  0  0  0  0  0  0  0  0  0  0  0
   -6.8770   17.2060  -33.3420 C   0  0  0  0  0  0  0  0  0  0  0  0
   -5.7800   16.5390  -33.8850 C   0  0  0  0  0  0  0  0  0  0  0  0
   -4.5780   17.2100  -34.0730 C   0  0  0  0  0  0  0  0  0  0  0  0
   -4.4790   18.5640  -33.7630 C   0  0  0  0  0  0  0  0  0  0  0  0
   -5.5870   19.2710  -33.2490 C   0  0  0  0  0  0  0  0  0  0  0  0
   -4.2876   24.2350  -26.1335 H   0  0  0  0  0  0  0  0  0  0  0  0
   -2.7770   24.1486  -27.1018 H   0  0  0  0  0  0  0  0  0  0  0  0
   -3.7591   25.6527  -27.1018 H   0  0  0  0  0  0  0  0  0  0  0  0
   -4.4556   22.9421  -28.3276 H   0  0  0  0  0  0  0  0  0  0  0  0
   -5.6454   24.3243  -28.0929 H   0  0  0  0  0  0  0  0  0  0  0  0
   -4.8932   26.3109  -30.6298 H   0  0  0  0  0  0  0  0  0  0  0  0
   -5.6441   24.7115  -31.1000 H   0  0  0  0  0  0  0  0  0  0  0  0
   -6.2244   25.5704  -28.3343 H   0  0  0  0  0  0  0  0  0  0  0  0
   -6.8913   26.6506  -29.6052 H   0  0  0  0  0  0  0  0  0  0  0  0
   -7.3039   24.9024  -29.6052 H   0  0  0  0  0  0  0  0  0  0  0  0
   -4.0028   23.0010  -30.9189 H   0  0  0  0  0  0  0  0  0  0  0  0
   -2.9467   24.4398  -31.2404 H   0  0  0  0  0  0  0  0  0  0  0  0
   -1.2865   23.6257  -29.9880 H   0  0  0  0  0  0  0  0  0  0  0  0
   -2.4492   23.2279  -28.6315 H   0  0  0  0  0  0  0  0  0  0  0  0
   -3.6983   19.9987  -31.1958 H   0  0  0  0  0  0  0  0  0  0  0  0
   -4.2981   21.6711  -30.7865 H   0  0  0  0  0  0  0  0  0  0  0  0
   -2.8838   22.6032  -32.5743 H   0  0  0  0  0  0  0  0  0  0  0  0
   -2.3672   20.9225  -33.0123 H   0  0  0  0  0  0  0  0  0  0  0  0
   -4.3770   21.9000  -34.3730 H   0  0  0  0  0  0  0  0  0  0  0  0
   -5.6262   23.2568  -32.3458 H   0  0  0  0  0  0  0  0  0  0  0  0
   -7.6433   24.4742  -31.5483 H   0  0  0  0  0  0  0  0  0  0  0  0
   -9.8045   23.2688  -31.2872 H   0  0  0  0  0  0  0  0  0  0  0  0
   -9.9284   20.8210  -31.6897 H   0  0  0  0  0  0  0  0  0  0  0  0
   -8.9746   18.4817  -30.7405 H   0  0  0  0  0  0  0  0  0  0  0  0
   -9.9410   18.9143  -32.1915 H   0  0  0  0  0  0  0  0  0  0  0  0
   -8.9389   17.4235  -32.1915 H   0  0  0  0  0  0  0  0  0  0  0  0
   -7.8231   16.6634  -33.1990 H   0  0  0  0  0  0  0  0  0  0  0  0
   -5.8662   15.4788  -34.1653 H   0  0  0  0  0  0  0  0  0  0  0  0
   -3.7037   16.6712  -34.4671 H   0  0  0  0  0  0  0  0  0  0  0  0
   -3.5253   19.0890  -33.9207 H   0  0  0  0  0  0  0  0  0  0  0  0
  1  2  1  0
  2  3  1  0
  3  4  1  0
  4  5  1  0
  3  6  1  0
  6  7  1  0
  7  8  1  0
  8  9  1  0
  9 10  1  0
 10 11  1  0
 11 12  1  0
 12 13  2  0
 13 14  1  0
 14 15  2  0
 15 16  1  0
 16 17  2  0
 17 18  1  0
 18 19  2  0
 19 20  1  0
 19 21  1  0
 21 22  2  0
 22 23  1  0
 23 24  2  0
 24 25  1  0
 25 26  2  0
 26 12  1  0
 18 13  1  0
 26 21  1  0
  1 27  1  0
  1 28  1  0
  1 29  1  0
  2 30  1  0
  2 31  1  0
  4 32  1  0
  4 33  1  0
  5 34  1  0
  5 35  1  0
  5 36  1  0
  6 37  1  0
  6 38  1  0
  7 39  1  0
  7 40  1  0
  9 41  1  0
  9 42  1  0
 10 43  1  0
 10 44  1  0
 11 45  1  0
 14 46  1  0
 15 47  1  0
 16 48  1  0
 17 49  1  0
 20 50  1  0
 20 51  1  0
 20 52  1  0
 22 53  1  0
 23 54  1  0
 24 55  1  0
 25 56  1  0
M  CHG  1  19   1
M  END
>  <UniqueID>  (24) 
24

>  <SMILES>  (24) 
CCN(CC)CCSCCNc1c2ccccc2[n+](C)c2ccccc12

>  <Energy>  (24) 
86.49535823311795

>  <Genealogy>  (24) 
CCN(CC)CCSCCNc1c2ccccc2[n+](C)c2ccccc12 (3D coordinates assigned)
CCN(CC)CCSCCNc1c2ccccc2[n+](C)c2ccccc12 (optimized conformer: 86.49535823311795 kcal/mol)

>  <smiles>  (24) 
CCN(CC)CCSCCNc1c2ccccc2[n+](C)c2ccccc12

>  <score_type>  (24) 
oracle

>  <origin>  (24) 
adg

>  <m_score__min__energy>  (24) 
-8.4199999999999999

>  <m_primary>  (24) 
energy

$$$$
