0:0
     RDKit          3D

 37 39  0  0  0  0  0  0  0  0999 V2000
   -5.4160   22.6020  -29.7770 O   0  0  0  0  0  0  0  0  0  0  0  0
   -5.1260   22.9960  -31.1980 S   0  0  0  0  0  0  0  0  0  0  0  0
   -4.6050   24.4060  -31.2150 O   0  0  0  0  0  0  0  0  0  0  0  0
   -3.9010   21.9150  -31.8390 C   0  0  0  0  0  0  0  0  0  0  0  0
   -2.9290   21.2580  -31.0990 C   0  0  0  0  0  0  0  0  0  0  0  0
   -2.0670   20.4920  -31.8930 C   0  0  0  0  0  0  0  0  0  0  0  0
   -2.3580   20.5510  -33.2500 C   0  0  0  0  0  0  0  0  0  0  0  0
   -3.6890   21.5580  -33.4660 S   0  0  0  0  0  0  0  0  0  0  0  0
   -6.5860   22.8840  -32.1510 N   0  0  0  0  0  0  0  0  0  0  0  0
   -7.7190   23.4790  -31.4070 C   0  0  0  0  0  0  0  0  0  0  0  0
   -9.0650   23.0170  -31.9690 C   0  0  0  0  0  0  0  0  0  0  0  0
   -9.2300   21.4930  -31.8370 C   0  0  0  0  0  0  0  0  0  0  0  0
   -7.8750   20.7460  -31.7740 C   0  0  1  0  0  0  0  0  0  0  0  0
   -8.0110   19.2850  -32.2390 C   0  0  0  0  0  0  0  0  0  0  0  0
   -6.7590   18.8080  -32.8210 N   0  0  0  0  0  0  0  0  0  0  0  0
   -5.7060   18.2960  -32.1600 C   0  0  0  0  0  0  0  0  0  0  0  0
   -4.7140   18.0120  -33.0200 N   0  0  0  0  0  0  0  0  0  0  0  0
   -5.2090   18.3780  -34.2180 C   0  0  0  0  0  0  0  0  0  0  0  0
   -6.4600   18.8700  -34.1080 N   0  0  0  0  0  0  0  0  0  0  0  0
   -6.8150   21.4910  -32.6130 C   0  0  0  0  0  0  0  0  0  0  0  0
   -2.8444   21.3310  -30.0047 H   0  0  0  0  0  0  0  0  0  0  0  0
   -1.2372   19.8991  -31.4809 H   0  0  0  0  0  0  0  0  0  0  0  0
   -1.8110   20.0280  -34.0483 H   0  0  0  0  0  0  0  0  0  0  0  0
   -7.6505   23.1780  -30.3512 H   0  0  0  0  0  0  0  0  0  0  0  0
   -7.6608   24.5728  -31.5076 H   0  0  0  0  0  0  0  0  0  0  0  0
   -9.8748   23.5148  -31.4154 H   0  0  0  0  0  0  0  0  0  0  0  0
   -9.1055   23.2804  -33.0362 H   0  0  0  0  0  0  0  0  0  0  0  0
   -9.7925   21.2788  -30.9163 H   0  0  0  0  0  0  0  0  0  0  0  0
   -9.7622   21.1387  -32.7321 H   0  0  0  0  0  0  0  0  0  0  0  0
   -7.5473   20.7272  -30.7241 H   0  0  0  0  0  0  0  0  0  0  0  0
   -8.2710   18.6544  -31.3760 H   0  0  0  0  0  0  0  0  0  0  0  0
   -8.7994   19.2301  -33.0042 H   0  0  0  0  0  0  0  0  0  0  0  0
   -5.6631   18.1333  -31.0729 H   0  0  0  0  0  0  0  0  0  0  0  0
   -3.7740   17.6090  -32.8080 H   0  0  0  0  0  0  0  0  0  0  0  0
   -4.6613   18.2870  -35.1676 H   0  0  0  0  0  0  0  0  0  0  0  0
   -5.8655   20.9394  -32.5487 H   0  0  0  0  0  0  0  0  0  0  0  0
   -7.1891   21.5434  -33.6461 H   0  0  0  0  0  0  0  0  0  0  0  0
  1  2  2  0
  2  3  2  0
  2  4  1  0
  4  5  2  0
  5  6  1  0
  6  7  2  0
  7  8  1  0
  2  9  1  0
  9 10  1  0
 10 11  1  0
 11 12  1  0
 12 13  1  0
 13 14  1  0
 14 15  1  0
 15 16  1  0
 16 17  2  0
 17 18  1  0
 18 19  2  0
 13 20  1  0
  8  4  1  0
 20  9  1  0
 19 15  1  0
  5 21  1  0
  6 22  1  0
  7 23  1  0
 10 24  1  0
 10 25  1  0
 11 26  1  0
 11 27  1  0
 12 28  1  0
 12 29  1  0
 13 30  1  1
 14 31  1  0
 14 32  1  0
 16 33  1  0
 17 34  1  0
 18 35  1  0
 20 36  1  0
 20 37  1  0
M  CHG  1  17   1
M  END
>  <UniqueID>  (1) 
1

>  <SMILES>  (1) 
O=S(=O)(c1cccs1)N1CCC[C@@H](Cn2c[nH+]cn2)C1

>  <Energy>  (1) 
101.3412982326814

>  <Genealogy>  (1) 
O=S(=O)(c1cccs1)N1CCCC(Cn2c[nH+]cn2)C1 (protonated)
O=S(=O)(c1cccs1)N1CCC[C@@H](Cn2c[nH+]cn2)C1 (chirality)
O=S(=O)(c1cccs1)N1CCC[C@@H](Cn2c[nH+]cn2)C1 (3D coordinates assigned)
O=S(=O)(c1cccs1)N1CCC[C@@H](Cn2c[nH+]cn2)C1 (nonaromatic ring conformer: 101.3412982326814 kcal/mol)

>  <smiles>  (1) 
O=S(=O)(c1cccs1)N1CCCC(Cn2cncn2)C1

>  <score_type>  (1) 
oracle

>  <origin>  (1) 
adg

>  <m_score__min__energy>  (1) 
-7.4900000000000002

>  <m_primary>  (1) 
energy

$$$$
1:0
     RDKit          3D

 41 44  0  0  0  0  0  0  0  0999 V2000
   -6.4300   25.7040  -29.5920 C   0  0  0  0  0  0  0  0  0  0  0  0
   -5.4290   25.5780  -30.6890 C   0  0  0  0  0  0  0  0  0  0  0  0
   -4.9820   24.2300  -30.9090 N   0  0  0  0  0  0  0  0  0  0  0  0
   -5.6980   23.3360  -31.6570 C   0  0  0  0  0  0  0  0  0  0  0  0
   -5.0410   22.1480  -31.7480 C   0  0  0  0  0  0  0  0  0  0  0  0
   -5.4060   20.9110  -32.4330 C   0  0  0  0  0  0  0  0  0  0  0  0
   -4.5160   20.2790  -33.3000 C   0  0  0  0  0  0  0  0  0  0  0  0
   -4.8460   19.1090  -33.9560 C   0  0  0  0  0  0  0  0  0  0  0  0
   -6.1110   18.5520  -33.7360 C   0  0  0  0  0  0  0  0  0  0  0  0
   -6.3950   17.4050  -34.3980 F   0  0  0  0  0  0  0  0  0  0  0  0
   -7.0040   19.1650  -32.8810 C   0  0  0  0  0  0  0  0  0  0  0  0
   -6.6440   20.3280  -32.2460 C   0  0  0  0  0  0  0  0  0  0  0  0
   -7.5740   21.0320  -31.3090 C   0  0  0  0  0  0  0  0  0  0  0  0
   -8.9580   20.6090  -31.8290 C   0  0  0  0  0  0  0  0  0  0  0  0
   -9.1430   19.1970  -31.7270 N   0  0  0  0  0  0  0  0  0  0  0  0
   -8.3250   18.5060  -32.7060 C   0  0  0  0  0  0  0  0  0  0  0  0
   -3.8710   22.3030  -31.0310 C   0  0  0  0  0  0  0  0  0  0  0  0
   -2.8590   21.4540  -30.7870 N   0  0  0  0  0  0  0  0  0  0  0  0
   -1.8490   21.9190  -30.0330 C   0  0  0  0  0  0  0  0  0  0  0  0
   -1.7960   23.1520  -29.5220 N   0  0  0  0  0  0  0  0  0  0  0  0
   -2.8130   24.0440  -29.7520 C   0  0  0  0  0  0  0  0  0  0  0  0
   -2.6910   25.1730  -29.2150 N   0  0  0  0  0  0  0  0  0  0  0  0
   -3.8630   23.6020  -30.5210 C   0  0  0  0  0  0  0  0  0  0  0  0
   -5.9189   25.6397  -28.6201 H   0  0  0  0  0  0  0  0  0  0  0  0
   -6.9428   26.6738  -29.6731 H   0  0  0  0  0  0  0  0  0  0  0  0
   -7.1671   24.8916  -29.6731 H   0  0  0  0  0  0  0  0  0  0  0  0
   -5.8840   25.9495  -31.6191 H   0  0  0  0  0  0  0  0  0  0  0  0
   -4.5479   26.1649  -30.3902 H   0  0  0  0  0  0  0  0  0  0  0  0
   -6.6721   23.5486  -32.1216 H   0  0  0  0  0  0  0  0  0  0  0  0
   -3.5239   20.7241  -33.4663 H   0  0  0  0  0  0  0  0  0  0  0  0
   -4.1299   18.6254  -34.6367 H   0  0  0  0  0  0  0  0  0  0  0  0
   -7.4205   20.6985  -30.2721 H   0  0  0  0  0  0  0  0  0  0  0  0
   -7.4297   22.1223  -31.2864 H   0  0  0  0  0  0  0  0  0  0  0  0
   -9.7335   21.1154  -31.2356 H   0  0  0  0  0  0  0  0  0  0  0  0
   -9.0311   20.8923  -32.8894 H   0  0  0  0  0  0  0  0  0  0  0  0
  -10.1690   19.0290  -31.9190 H   0  0  0  0  0  0  0  0  0  0  0  0
   -8.1654   17.4707  -32.3704 H   0  0  0  0  0  0  0  0  0  0  0  0
   -8.8513   18.5303  -33.6716 H   0  0  0  0  0  0  0  0  0  0  0  0
   -2.8550   20.4660  -31.1690 H   0  0  0  0  0  0  0  0  0  0  0  0
   -1.0101   21.2393  -29.8225 H   0  0  0  0  0  0  0  0  0  0  0  0
   -3.1090   26.0680  -29.3310 H   0  0  0  0  0  0  0  0  0  0  0  0
  1  2  1  0
  2  3  1  0
  3  4  1  0
  4  5  2  0
  5  6  1  0
  6  7  2  0
  7  8  1  0
  8  9  2  0
  9 10  1  0
  9 11  1  0
 11 12  2  0
 12 13  1  0
 13 14  1  0
 14 15  1  0
 15 16  1  0
  5 17  1  0
 17 18  1  0
 18 19  1  0
 19 20  2  0
 20 21  1  0
 21 22  2  3
 21 23  1  0
 23  3  1  0
 12  6  1  0
 23 17  2  0
 16 11  1  0
  1 24  1  0
  1 25  1  0
  1 26  1  0
  2 27  1  0
  2 28  1  0
  4 29  1  0
  7 30  1  0
  8 31  1  0
 13 32  1  0
 13 33  1  0
 14 34  1  0
 14 35  1  0
 15 36  1  0
 16 37  1  0
 16 38  1  0
 18 39  1  0
 19 40  1  0
 22 41  1  0
M  END
>  <smiles>  (2) 
CCn1cc(-c2ccc(F)c3c2CCNC3)c2[nH]cnc(=N)c21

>  <score_type>  (2) 
oracle

>  <origin>  (2) 
adg

>  <m_score__min__energy>  (2) 
-8.0600000000000005

>  <m_primary>  (2) 
energy

$$$$
2:0
     RDKit          3D

 58 61  0  0  0  0  0  0  0  0999 V2000
   -5.8870   17.4710  -32.5580 C   0  0  0  0  0  0  0  0  0  0  0  0
   -5.8630   18.8190  -33.3220 C   0  0  2  0  0  0  0  0  0  0  0  0
   -6.1360   18.5890  -34.6860 O   0  0  0  0  0  0  0  0  0  0  0  0
   -4.4900   19.5060  -33.1850 C   0  0  0  0  0  0  0  0  0  0  0  0
   -4.2990   20.8800  -33.4660 C   0  0  0  0  0  0  0  0  0  0  0  0
   -3.0410   21.4720  -33.3290 C   0  0  0  0  0  0  0  0  0  0  0  0
   -1.9430   20.7060  -32.9410 C   0  0  0  0  0  0  0  0  0  0  0  0
   -2.0980   19.3410  -32.7010 C   0  0  0  0  0  0  0  0  0  0  0  0
   -3.3530   18.7440  -32.8310 C   0  0  0  0  0  0  0  0  0  0  0  0
   -6.9840   19.6780  -32.7740 C   0  0  0  0  0  0  0  0  0  0  0  0
   -8.1130   19.9770  -33.4590 N   0  0  0  0  0  0  0  0  0  0  0  0
   -8.7690   20.8030  -32.6630 N   0  0  0  0  0  0  0  0  0  0  0  0
   -8.0720   21.0140  -31.5590 N   0  0  0  0  0  0  0  0  0  0  0  0
   -8.5300   21.8190  -30.4270 C   0  0  0  0  0  0  0  0  0  0  0  0
   -7.4020   22.6810  -29.8330 C   0  0  0  0  0  0  0  0  0  0  0  0
   -7.2470   23.9710  -30.5540 N   0  0  0  0  0  0  0  0  0  0  0  0
   -6.7020   23.8230  -31.9230 C   0  0  0  0  0  0  0  0  0  0  0  0
   -5.2560   23.2950  -31.9150 C   0  0  0  0  0  0  0  0  0  0  0  0
   -4.5430   23.7600  -30.7180 N   0  0  0  0  0  0  0  0  0  0  0  0
   -3.4750   22.9670  -30.1540 C   0  0  0  0  0  0  0  0  0  0  0  0
   -2.2900   23.5770  -29.7050 C   0  0  0  0  0  0  0  0  0  0  0  0
   -1.2700   22.8100  -29.1320 C   0  0  0  0  0  0  0  0  0  0  0  0
   -1.4250   21.4230  -28.9690 C   0  0  0  0  0  0  0  0  0  0  0  0
   -0.3020   20.6000  -28.3870 C   0  0  0  0  0  0  0  0  0  0  0  0
    0.6070   20.2630  -29.3760 F   0  0  0  0  0  0  0  0  0  0  0  0
    0.3700   21.3020  -27.4000 F   0  0  0  0  0  0  0  0  0  0  0  0
   -0.8220   19.4420  -27.8400 F   0  0  0  0  0  0  0  0  0  0  0  0
   -2.6040   20.8110  -29.4280 C   0  0  0  0  0  0  0  0  0  0  0  0
   -3.6230   21.5760  -30.0030 C   0  0  0  0  0  0  0  0  0  0  0  0
   -4.9750   25.0240  -30.1130 C   0  0  0  0  0  0  0  0  0  0  0  0
   -6.4790   24.9750  -29.7660 C   0  0  0  0  0  0  0  0  0  0  0  0
   -6.9460   20.3220  -31.5850 N   0  0  0  0  0  0  0  0  0  0  0  0
   -5.8836   17.6633  -31.4749 H   0  0  0  0  0  0  0  0  0  0  0  0
   -6.7952   16.9124  -32.8284 H   0  0  0  0  0  0  0  0  0  0  0  0
   -4.9992   16.8804  -32.8284 H   0  0  0  0  0  0  0  0  0  0  0  0
   -6.8810   19.1840  -34.9630 H   0  0  0  0  0  0  0  0  0  0  0  0
   -5.1526   21.4899  -33.7967 H   0  0  0  0  0  0  0  0  0  0  0  0
   -2.9165   22.5467  -33.5281 H   0  0  0  0  0  0  0  0  0  0  0  0
   -0.9560   21.1773  -32.8243 H   0  0  0  0  0  0  0  0  0  0  0  0
   -1.2290   18.7333  -32.4085 H   0  0  0  0  0  0  0  0  0  0  0  0
   -3.4591   17.6633  -32.6552 H   0  0  0  0  0  0  0  0  0  0  0  0
   -9.7020   21.2200  -32.8790 H   0  0  0  0  0  0  0  0  0  0  0  0
   -9.3399   22.4809  -30.7676 H   0  0  0  0  0  0  0  0  0  0  0  0
   -8.8785   21.1313  -29.6424 H   0  0  0  0  0  0  0  0  0  0  0  0
   -7.6329   22.8896  -28.7779 H   0  0  0  0  0  0  0  0  0  0  0  0
   -6.4599   22.1218  -29.9318 H   0  0  0  0  0  0  0  0  0  0  0  0
   -7.3343   23.1179  -32.4825 H   0  0  0  0  0  0  0  0  0  0  0  0
   -6.6981   24.8161  -32.3959 H   0  0  0  0  0  0  0  0  0  0  0  0
   -5.2726   22.1951  -31.9216 H   0  0  0  0  0  0  0  0  0  0  0  0
   -4.7354   23.6728  -32.8073 H   0  0  0  0  0  0  0  0  0  0  0  0
   -2.1643   24.6652  -29.8051 H   0  0  0  0  0  0  0  0  0  0  0  0
   -0.3389   23.2968  -28.8063 H   0  0  0  0  0  0  0  0  0  0  0  0
   -2.7259   19.7218  -29.3341 H   0  0  0  0  0  0  0  0  0  0  0  0
   -4.5484   21.0863  -30.3403 H   0  0  0  0  0  0  0  0  0  0  0  0
   -4.3975   25.2006  -29.1936 H   0  0  0  0  0  0  0  0  0  0  0  0
   -4.8036   25.8382  -30.8326 H   0  0  0  0  0  0  0  0  0  0  0  0
   -6.5805   24.7290  -28.6987 H   0  0  0  0  0  0  0  0  0  0  0  0
   -6.8964   25.9623  -30.0130 H   0  0  0  0  0  0  0  0  0  0  0  0
  1  2  1  0
  2  3  1  6
  2  4  1  0
  4  5  2  0
  5  6  1  0
  6  7  2  0
  7  8  1  0
  8  9  2  0
  2 10  1  0
 10 11  1  0
 11 12  2  0
 12 13  1  0
 13 14  1  0
 14 15  1  0
 15 16  1  0
 16 17  1  0
 17 18  1  0
 18 19  1  0
 19 20  1  0
 20 21  2  0
 21 22  1  0
 22 23  2  0
 23 24  1  0
 24 25  1  0
 24 26  1  0
 24 27  1  0
 23 28  1  0
 28 29  2  0
 19 30  1  0
 30 31  1  0
 13 32  1  0
  9  4  1  0
 32 10  2  0
 31 16  1  0
 29 20  1  0
  1 33  1  0
  1 34  1  0
  1 35  1  0
  3 36  1  0
  5 37  1  0
  6 38  1  0
  7 39  1  0
  8 40  1  0
  9 41  1  0
 12 42  1  0
 14 43  1  0
 14 44  1  0
 15 45  1  0
 15 46  1  0
 17 47  1  0
 17 48  1  0
 18 49  1  0
 18 50  1  0
 21 51  1  0
 22 52  1  0
 28 53  1  0
 29 54  1  0
 30 55  1  0
 30 56  1  0
 31 57  1  0
 31 58  1  0
M  CHG  1  12   1
M  END
>  <UniqueID>  (3) 
2

>  <SMILES>  (3) 
C[C@](O)(c1ccccc1)c1n[nH+]n(CCN2CCN(c3ccc(C(F)(F)F)cc3)CC2)n1

>  <Energy>  (3) 
115.19654969746527

>  <Genealogy>  (3) 
CC(O)(c1ccccc1)c1n[nH+]n(CCN2CCN(c3ccc(C(F)(F)F)cc3)CC2)n1 (protonated)
C[C@](O)(c1ccccc1)c1n[nH+]n(CCN2CCN(c3ccc(C(F)(F)F)cc3)CC2)n1 (chirality)
C[C@](O)(c1ccccc1)c1n[nH+]n(CCN2CCN(c3ccc(C(F)(F)F)cc3)CC2)n1 (3D coordinates assigned)
C[C@](O)(c1ccccc1)c1n[nH+]n(CCN2CCN(c3ccc(C(F)(F)F)cc3)CC2)n1 (nonaromatic ring conformer: 115.19654969746527 kcal/mol)

>  <smiles>  (3) 
CC(O)(c1ccccc1)c1nnn(CCN2CCN(c3ccc(C(F)(F)F)cc3)CC2)n1

>  <score_type>  (3) 
oracle

>  <origin>  (3) 
adg

>  <m_score__min__energy>  (3) 
-8.8300000000000001

>  <m_primary>  (3) 
energy

$$$$
3:0
     RDKit          3D

 44 46  0  0  0  0  0  0  0  0999 V2000
   -5.3620   25.8650  -30.4660 C   0  0  0  0  0  0  0  0  0  0  0  0
   -4.1570   25.1160  -30.5890 O   0  0  0  0  0  0  0  0  0  0  0  0
   -3.7100   24.1670  -29.6550 C   0  0  0  0  0  0  0  0  0  0  0  0
   -3.0280   24.5420  -28.4790 C   0  0  0  0  0  0  0  0  0  0  0  0
   -2.5880   23.5690  -27.5780 C   0  0  0  0  0  0  0  0  0  0  0  0
   -2.8160   22.2180  -27.8400 C   0  0  0  0  0  0  0  0  0  0  0  0
   -3.4900   21.8330  -29.0000 C   0  0  0  0  0  0  0  0  0  0  0  0
   -3.9440   22.8020  -29.9110 C   0  0  0  0  0  0  0  0  0  0  0  0
   -4.6750   22.3950  -31.0800 N   0  0  0  0  0  0  0  0  0  0  0  0
   -4.3000   21.1700  -31.7930 C   0  0  0  0  0  0  0  0  0  0  0  0
   -5.1880   20.9640  -33.0350 C   0  0  0  0  0  0  0  0  0  0  0  0
   -6.6460   21.0770  -32.7450 N   0  0  0  0  0  0  0  0  0  0  0  0
   -7.3250   19.7660  -32.5350 C   0  0  0  0  0  0  0  0  0  0  0  0
   -6.5100   18.5470  -32.9360 C   0  0  0  0  0  0  0  0  0  0  0  0
   -6.0930   18.3590  -34.2740 C   0  0  0  0  0  0  0  0  0  0  0  0
   -6.3180   19.3060  -35.2180 F   0  0  0  0  0  0  0  0  0  0  0  0
   -5.3820   17.2140  -34.6390 C   0  0  0  0  0  0  0  0  0  0  0  0
   -5.0410   16.2630  -33.6760 C   0  0  0  0  0  0  0  0  0  0  0  0
   -5.3770   16.4740  -32.3400 C   0  0  0  0  0  0  0  0  0  0  0  0
   -6.0890   17.6150  -31.9630 C   0  0  0  0  0  0  0  0  0  0  0  0
   -6.3370   17.8180  -30.6430 F   0  0  0  0  0  0  0  0  0  0  0  0
   -6.9970   22.0830  -31.7000 C   0  0  0  0  0  0  0  0  0  0  0  0
   -5.8900   23.1110  -31.4740 C   0  0  0  0  0  0  0  0  0  0  0  0
   -5.5962   26.0106  -29.4011 H   0  0  0  0  0  0  0  0  0  0  0  0
   -5.2361   26.8443  -30.9509 H   0  0  0  0  0  0  0  0  0  0  0  0
   -6.1844   25.3187  -30.9509 H   0  0  0  0  0  0  0  0  0  0  0  0
   -2.8415   25.6057  -28.2700 H   0  0  0  0  0  0  0  0  0  0  0  0
   -2.0608   23.8689  -26.6603 H   0  0  0  0  0  0  0  0  0  0  0  0
   -2.4638   21.4544  -27.1309 H   0  0  0  0  0  0  0  0  0  0  0  0
   -3.6666   20.7662  -29.2021 H   0  0  0  0  0  0  0  0  0  0  0  0
   -3.2493   21.2448  -32.1098 H   0  0  0  0  0  0  0  0  0  0  0  0
   -4.4369   20.3134  -31.1166 H   0  0  0  0  0  0  0  0  0  0  0  0
   -4.9215   21.7240  -33.7843 H   0  0  0  0  0  0  0  0  0  0  0  0
   -5.0071   19.9415  -33.3979 H   0  0  0  0  0  0  0  0  0  0  0  0
   -7.0670   21.4480  -33.6310 H   0  0  0  0  0  0  0  0  0  0  0  0
   -7.5696   19.6761  -31.4663 H   0  0  0  0  0  0  0  0  0  0  0  0
   -8.2104   19.7712  -33.1877 H   0  0  0  0  0  0  0  0  0  0  0  0
   -5.0898   17.0611  -35.6884 H   0  0  0  0  0  0  0  0  0  0  0  0
   -4.5074   15.3476  -33.9713 H   0  0  0  0  0  0  0  0  0  0  0  0
   -5.0799   15.7380  -31.5784 H   0  0  0  0  0  0  0  0  0  0  0  0
   -7.9093   22.6118  -32.0132 H   0  0  0  0  0  0  0  0  0  0  0  0
   -7.1445   21.5411  -30.7542 H   0  0  0  0  0  0  0  0  0  0  0  0
   -5.7073   23.6718  -32.4025 H   0  0  0  0  0  0  0  0  0  0  0  0
   -6.1851   23.8208  -30.6871 H   0  0  0  0  0  0  0  0  0  0  0  0
  1  2  1  0
  2  3  1  0
  3  4  2  0
  4  5  1  0
  5  6  2  0
  6  7  1  0
  7  8  2  0
  8  9  1  0
  9 10  1  0
 10 11  1  0
 11 12  1  0
 12 13  1  0
 13 14  1  0
 14 15  2  0
 15 16  1  0
 15 17  1  0
 17 18  2  0
 18 19  1  0
 19 20  2  0
 20 21  1  0
 12 22  1  0
 22 23  1  0
  8  3  1  0
 23  9  1  0
 20 14  1  0
  1 24  1  0
  1 25  1  0
  1 26  1  0
  4 27  1  0
  5 28  1  0
  6 29  1  0
  7 30  1  0
 10 31  1  0
 10 32  1  0
 11 33  1  0
 11 34  1  0
 12 35  1  0
 13 36  1  0
 13 37  1  0
 17 38  1  0
 18 39  1  0
 19 40  1  0
 22 41  1  0
 22 42  1  0
 23 43  1  0
 23 44  1  0
M  CHG  1  12   1
M  END
>  <UniqueID>  (4) 
3

>  <SMILES>  (4) 
COc1ccccc1N1CC[NH+](Cc2c(F)cccc2F)CC1

>  <Energy>  (4) 
63.63091005140336

>  <Genealogy>  (4) 
COc1ccccc1N1CC[NH+](Cc2c(F)cccc2F)CC1 (protonated)
COc1ccccc1N1CC[NH+](Cc2c(F)cccc2F)CC1 (3D coordinates assigned)
COc1ccccc1N1CC[NH+](Cc2c(F)cccc2F)CC1 (nonaromatic ring conformer: 63.63091005140336 kcal/mol)

>  <smiles>  (4) 
COc1ccccc1N1CCN(Cc2c(F)cccc2F)CC1

>  <score_type>  (4) 
oracle

>  <origin>  (4) 
adg

>  <m_score__min__energy>  (4) 
-6.7300000000000004

>  <m_primary>  (4) 
energy

$$$$
4:0
     RDKit          3D

 53 56  0  0  0  0  0  0  0  0999 V2000
   -2.8170   21.9780  -31.1390 C   0  0  0  0  0  0  0  0  0  0  0  0
   -3.4080   22.9490  -30.3260 C   0  0  0  0  0  0  0  0  0  0  0  0
   -4.6180   23.5400  -30.7060 C   0  0  0  0  0  0  0  0  0  0  0  0
   -5.2500   23.1530  -31.9000 C   0  0  0  0  0  0  0  0  0  0  0  0
   -6.5330   23.8120  -32.3270 C   0  0  0  0  0  0  0  0  0  0  0  0
   -7.6490   23.5250  -31.3140 C   0  0  0  0  0  0  0  0  0  0  0  0
   -8.7920   22.7120  -31.9370 C   0  0  0  0  0  0  0  0  0  0  0  0
   -8.3490   21.3380  -32.2650 N   0  0  0  0  0  0  0  0  0  0  0  0
   -9.4910   20.4020  -32.2500 C   0  0  0  0  0  0  0  0  0  0  0  0
   -9.0290   18.9330  -32.3760 C   0  0  0  0  0  0  0  0  0  0  0  0
   -7.6150   18.8420  -32.8120 N   0  0  0  0  0  0  0  0  0  0  0  0
   -7.1900   17.4220  -32.9930 C   0  0  2  0  0  0  0  0  0  0  0  0
   -6.1170   16.9730  -31.9670 C   0  0  0  0  0  0  0  0  0  0  0  0
   -5.0080   16.3820  -32.8560 C   0  0  2  0  0  0  0  0  0  0  0  0
   -4.2680   17.5380  -33.5490 C   0  0  0  0  0  0  0  0  0  0  0  0
   -5.2830   18.0050  -34.6040 C   0  0  0  0  0  0  0  0  0  0  0  0
   -6.4940   17.0860  -34.3460 C   0  0  1  0  0  0  0  0  0  0  0  0
   -5.7980   15.7890  -33.9980 C   0  0  0  0  0  0  0  0  0  0  0  0
   -6.7420   19.5110  -31.8090 C   0  0  0  0  0  0  0  0  0  0  0  0
   -7.3090   20.8660  -31.3350 C   0  0  0  0  0  0  0  0  0  0  0  0
   -4.6430   22.1860  -32.7180 C   0  0  0  0  0  0  0  0  0  0  0  0
   -3.4330   21.5980  -32.3350 C   0  0  0  0  0  0  0  0  0  0  0  0
   -1.8669   21.5126  -30.8378 H   0  0  0  0  0  0  0  0  0  0  0  0
   -2.9213   23.2490  -29.3862 H   0  0  0  0  0  0  0  0  0  0  0  0
   -5.0761   24.3101  -30.0680 H   0  0  0  0  0  0  0  0  0  0  0  0
   -6.3765   24.8987  -32.3946 H   0  0  0  0  0  0  0  0  0  0  0  0
   -6.8303   23.4094  -33.3066 H   0  0  0  0  0  0  0  0  0  0  0  0
   -7.2271   22.9576  -30.4713 H   0  0  0  0  0  0  0  0  0  0  0  0
   -8.0598   24.4882  -30.9773 H   0  0  0  0  0  0  0  0  0  0  0  0
   -9.6270   22.6598  -31.2228 H   0  0  0  0  0  0  0  0  0  0  0  0
   -9.1094   23.2087  -32.8657 H   0  0  0  0  0  0  0  0  0  0  0  0
  -10.0387   20.5233  -31.3038 H   0  0  0  0  0  0  0  0  0  0  0  0
  -10.1349   20.6335  -33.1113 H   0  0  0  0  0  0  0  0  0  0  0  0
   -9.1335   18.4406  -31.3979 H   0  0  0  0  0  0  0  0  0  0  0  0
   -9.6554   18.4387  -33.1331 H   0  0  0  0  0  0  0  0  0  0  0  0
   -7.5050   19.3550  -33.7170 H   0  0  0  0  0  0  0  0  0  0  0  0
   -8.1613   16.9149  -32.8956 H   0  0  0  0  0  0  0  0  0  0  0  0
   -5.7432   17.8293  -31.3865 H   0  0  0  0  0  0  0  0  0  0  0  0
   -6.5018   16.2587  -31.2242 H   0  0  0  0  0  0  0  0  0  0  0  0
   -4.3299   15.7211  -32.2961 H   0  0  0  0  0  0  0  0  0  0  0  0
   -4.0365   18.3441  -32.8372 H   0  0  0  0  0  0  0  0  0  0  0  0
   -3.2989   17.2416  -33.9769 H   0  0  0  0  0  0  0  0  0  0  0  0
   -5.5495   19.0620  -34.4564 H   0  0  0  0  0  0  0  0  0  0  0  0
   -4.9005   17.9415  -35.6334 H   0  0  0  0  0  0  0  0  0  0  0  0
   -7.2098   17.1271  -35.1803 H   0  0  0  0  0  0  0  0  0  0  0  0
   -6.4932   14.9992  -33.6771 H   0  0  0  0  0  0  0  0  0  0  0  0
   -5.2440   15.2707  -34.7945 H   0  0  0  0  0  0  0  0  0  0  0  0
   -6.6369   18.8491  -30.9368 H   0  0  0  0  0  0  0  0  0  0  0  0
   -5.7725   19.7067  -32.2904 H   0  0  0  0  0  0  0  0  0  0  0  0
   -7.7458   20.7460  -30.3326 H   0  0  0  0  0  0  0  0  0  0  0  0
   -6.4940   21.6042  -31.3048 H   0  0  0  0  0  0  0  0  0  0  0  0
   -5.1210   21.8899  -33.6634 H   0  0  0  0  0  0  0  0  0  0  0  0
   -2.9656   20.8357  -32.9756 H   0  0  0  0  0  0  0  0  0  0  0  0
  1  2  2  0
  2  3  1  0
  3  4  2  0
  4  5  1  0
  5  6  1  0
  6  7  1  0
  7  8  1  0
  8  9  1  0
  9 10  1  0
 10 11  1  0
 11 12  1  0
 12 13  1  0
 13 14  1  0
 14 15  1  0
 15 16  1  0
 16 17  1  0
 17 18  1  0
 11 19  1  0
 19 20  1  0
  4 21  1  0
 21 22  2  0
 22  1  1  0
 20  8  1  0
 17 12  1  0
 18 14  1  0
  1 23  1  0
  2 24  1  0
  3 25  1  0
  5 26  1  0
  5 27  1  0
  6 28  1  0
  6 29  1  0
  7 30  1  0
  7 31  1  0
  9 32  1  0
  9 33  1  0
 10 34  1  0
 10 35  1  0
 11 36  1  0
 12 37  1  1
 13 38  1  0
 13 39  1  0
 14 40  1  1
 15 41  1  0
 15 42  1  0
 16 43  1  0
 16 44  1  0
 17 45  1  6
 18 46  1  0
 18 47  1  0
 19 48  1  0
 19 49  1  0
 20 50  1  0
 20 51  1  0
 21 52  1  0
 22 53  1  0
M  CHG  1  11   1
M  END
>  <UniqueID>  (5) 
4

>  <SMILES>  (5) 
c1ccc(CCCN2CC[NH+]([C@@H]3C[C@@H]4CCC3C4)CC2)cc1

>  <Energy>  (5) 
88.7524302577032

>  <Genealogy>  (5) 
c1ccc(CCCN2CC[NH+](C3CC4CCC3C4)CC2)cc1 (protonated)
c1ccc(CCCN2CC[NH+]([C@@H]3C[C@@H]4CCC3C4)CC2)cc1 (chirality)
c1ccc(CCCN2CC[NH+]([C@@H]3C[C@@H]4CCC3C4)CC2)cc1 (3D coordinates assigned)
c1ccc(CCCN2CC[NH+]([C@@H]3C[C@@H]4CCC3C4)CC2)cc1 (nonaromatic ring conformer: 88.7524302577032 kcal/mol)

>  <smiles>  (5) 
c1ccc(CCCN2CCN(C3CC4CCC3C4)CC2)cc1

>  <score_type>  (5) 
oracle

>  <origin>  (5) 
adg

>  <m_score__min__energy>  (5) 
-7.8499999999999996

>  <m_primary>  (5) 
energy

$$$$
5:0
     RDKit          3D

 36 38  0  0  0  0  0  0  0  0999 V2000
   -5.7720   16.6860  -32.2370 C   0  0  0  0  0  0  0  0  0  0  0  0
   -6.5930   16.6730  -33.4870 C   0  0  0  0  0  0  0  0  0  0  0  0
   -6.3140   17.7540  -34.3540 O   0  0  0  0  0  0  0  0  0  0  0  0
   -5.8110   18.9330  -33.7750 C   0  0  0  0  0  0  0  0  0  0  0  0
   -6.6920   19.7580  -33.1090 C   0  0  0  0  0  0  0  0  0  0  0  0
   -6.1970   20.9150  -32.5410 C   0  0  0  0  0  0  0  0  0  0  0  0
   -6.7910   21.9080  -31.8370 N   0  0  0  0  0  0  0  0  0  0  0  0
   -5.8720   22.8260  -31.4970 C   0  0  0  0  0  0  0  0  0  0  0  0
   -6.0790   24.0560  -30.7390 C   0  0  0  0  0  0  0  0  0  0  0  0
   -7.2450   24.4220  -30.1800 N   0  0  0  0  0  0  0  0  0  0  0  0
   -7.0810   25.5640  -29.5840 O   0  0  0  0  0  0  0  0  0  0  0  0
   -5.8350   25.9710  -29.7320 N   0  0  0  0  0  0  0  0  0  0  0  0
   -5.1580   25.0450  -30.4590 C   0  0  0  0  0  0  0  0  0  0  0  0
   -3.9330   25.0870  -30.8070 N   0  0  0  0  0  0  0  0  0  0  0  0
   -4.6770   22.4350  -31.9780 N   0  0  0  0  0  0  0  0  0  0  0  0
   -4.8450   21.2550  -32.6280 C   0  0  0  0  0  0  0  0  0  0  0  0
   -4.0140   20.3900  -33.3070 C   0  0  0  0  0  0  0  0  0  0  0  0
   -4.4560   19.2260  -33.8910 C   0  0  0  0  0  0  0  0  0  0  0  0
   -3.6780   18.3330  -34.5760 O   0  0  0  0  0  0  0  0  0  0  0  0
   -2.8330   17.4450  -33.8930 C   0  0  0  0  0  0  0  0  0  0  0  0
   -2.9140   16.0260  -34.3410 C   0  0  0  0  0  0  0  0  0  0  0  0
   -6.4374   16.6755  -31.3612 H   0  0  0  0  0  0  0  0  0  0  0  0
   -5.1231   15.7980  -32.2152 H   0  0  0  0  0  0  0  0  0  0  0  0
   -5.1516   17.5941  -32.2152 H   0  0  0  0  0  0  0  0  0  0  0  0
   -6.3940   15.7344  -34.0250 H   0  0  0  0  0  0  0  0  0  0  0  0
   -7.6466   16.7637  -33.1841 H   0  0  0  0  0  0  0  0  0  0  0  0
   -7.7590   19.5018  -33.0323 H   0  0  0  0  0  0  0  0  0  0  0  0
   -5.4120   26.8650  -29.3560 H   0  0  0  0  0  0  0  0  0  0  0  0
   -3.6370   25.6740  -31.6040 H   0  0  0  0  0  0  0  0  0  0  0  0
   -3.7400   22.9000  -31.9060 H   0  0  0  0  0  0  0  0  0  0  0  0
   -2.9463   20.6428  -33.3855 H   0  0  0  0  0  0  0  0  0  0  0  0
   -1.7966   17.7871  -34.0299 H   0  0  0  0  0  0  0  0  0  0  0  0
   -3.1619   17.4546  -32.8434 H   0  0  0  0  0  0  0  0  0  0  0  0
   -2.9517   15.3656  -33.4621 H   0  0  0  0  0  0  0  0  0  0  0  0
   -3.8217   15.8837  -34.9458 H   0  0  0  0  0  0  0  0  0  0  0  0
   -2.0284   15.7813  -34.9458 H   0  0  0  0  0  0  0  0  0  0  0  0
  1  2  1  0
  2  3  1  0
  3  4  1  0
  4  5  2  0
  5  6  1  0
  6  7  1  0
  7  8  2  0
  8  9  1  0
  9 10  2  0
 10 11  1  0
 11 12  1  0
 12 13  1  0
 13 14  2  3
  8 15  1  0
 15 16  1  0
 16 17  1  0
 17 18  2  0
 18 19  1  0
 19 20  1  0
 20 21  1  0
 18  4  1  0
 16  6  2  0
 13  9  1  0
  1 22  1  0
  1 23  1  0
  1 24  1  0
  2 25  1  0
  2 26  1  0
  5 27  1  0
 12 28  1  0
 14 29  1  0
 15 30  1  0
 17 31  1  0
 20 32  1  0
 20 33  1  0
 21 34  1  0
 21 35  1  0
 21 36  1  0
M  END
>  <smiles>  (6) 
CCOc1cc2nc(-c3no[nH]c3=N)[nH]c2cc1OCC

>  <score_type>  (6) 
oracle

>  <origin>  (6) 
adg

>  <m_score__min__energy>  (6) 
-6.9100000000000001

>  <m_primary>  (6) 
energy

$$$$
6:0
     RDKit          3D

 39 42  0  0  0  0  0  0  0  0999 V2000
    1.0670   20.4940  -36.3600 O   0  0  0  0  0  0  0  0  0  0  0  0
    0.8760   21.1320  -35.0140 S   0  0  0  0  0  0  0  0  0  0  0  0
    1.3840   22.5450  -35.0280 O   0  0  0  0  0  0  0  0  0  0  0  0
   -0.8010   21.1240  -34.6080 N   0  0  0  0  0  0  0  0  0  0  0  0
   -1.2650   20.5970  -33.5070 C   0  0  0  0  0  0  0  0  0  0  0  0
   -2.7230   20.6400  -33.2330 C   0  0  0  0  0  0  0  0  0  0  0  0
   -3.5600   19.5880  -33.6410 C   0  0  0  0  0  0  0  0  0  0  0  0
   -4.9340   19.6350  -33.3850 C   0  0  0  0  0  0  0  0  0  0  0  0
   -5.4990   20.7350  -32.7160 C   0  0  0  0  0  0  0  0  0  0  0  0
   -6.9580   20.7850  -32.4430 C   0  0  0  0  0  0  0  0  0  0  0  0
   -7.5770   21.9950  -32.0760 C   0  0  0  0  0  0  0  0  0  0  0  0
   -8.9500   22.0390  -31.8200 C   0  0  0  0  0  0  0  0  0  0  0  0
   -9.7210   20.8790  -31.9270 C   0  0  0  0  0  0  0  0  0  0  0  0
   -9.1200   19.6720  -32.2900 C   0  0  0  0  0  0  0  0  0  0  0  0
   -9.8700   18.5480  -32.3980 F   0  0  0  0  0  0  0  0  0  0  0  0
   -7.7460   19.6230  -32.5470 C   0  0  0  0  0  0  0  0  0  0  0  0
   -4.6590   21.7860  -32.3100 C   0  0  0  0  0  0  0  0  0  0  0  0
   -3.2870   21.7400  -32.5680 C   0  0  0  0  0  0  0  0  0  0  0  0
   -0.3970   19.9620  -32.5390 N   0  0  0  0  0  0  0  0  0  0  0  0
    1.0150   19.7260  -32.6960 C   0  0  0  0  0  0  0  0  0  0  0  0
    1.7070   18.9980  -31.7130 C   0  0  0  0  0  0  0  0  0  0  0  0
    3.0780   18.7580  -31.8410 C   0  0  0  0  0  0  0  0  0  0  0  0
    3.7730   19.2460  -32.9500 C   0  0  0  0  0  0  0  0  0  0  0  0
    3.0960   19.9740  -33.9310 C   0  0  0  0  0  0  0  0  0  0  0  0
    1.7220   20.2130  -33.8040 C   0  0  0  0  0  0  0  0  0  0  0  0
   -1.4520   21.5480  -35.3080 H   0  0  0  0  0  0  0  0  0  0  0  0
   -3.1315   18.7212  -34.1655 H   0  0  0  0  0  0  0  0  0  0  0  0
   -5.5781   18.8045  -33.7097 H   0  0  0  0  0  0  0  0  0  0  0  0
   -6.9757   22.9121  -31.9902 H   0  0  0  0  0  0  0  0  0  0  0  0
   -9.4247   22.9891  -31.5336 H   0  0  0  0  0  0  0  0  0  0  0  0
  -10.8017   20.9164  -31.7253 H   0  0  0  0  0  0  0  0  0  0  0  0
   -7.2777   18.6695  -32.8325 H   0  0  0  0  0  0  0  0  0  0  0  0
   -5.0859   22.6528  -31.7842 H   0  0  0  0  0  0  0  0  0  0  0  0
   -2.6434   22.5725  -32.2475 H   0  0  0  0  0  0  0  0  0  0  0  0
   -0.8330   19.6460  -31.6430 H   0  0  0  0  0  0  0  0  0  0  0  0
    1.1654   18.6140  -30.8359 H   0  0  0  0  0  0  0  0  0  0  0  0
    3.6101   18.1844  -31.0678 H   0  0  0  0  0  0  0  0  0  0  0  0
    4.8520   19.0572  -33.0506 H   0  0  0  0  0  0  0  0  0  0  0  0
    3.6425   20.3600  -34.8041 H   0  0  0  0  0  0  0  0  0  0  0  0
  1  2  2  0
  2  3  2  0
  2  4  1  0
  4  5  2  0
  5  6  1  0
  6  7  2  0
  7  8  1  0
  8  9  2  0
  9 10  1  0
 10 11  2  0
 11 12  1  0
 12 13  2  0
 13 14  1  0
 14 15  1  0
 14 16  2  0
  9 17  1  0
 17 18  2  0
  5 19  1  0
 19 20  1  0
 20 21  2  0
 21 22  1  0
 22 23  2  0
 23 24  1  0
 24 25  2  0
 25  2  1  0
 18  6  1  0
 25 20  1  0
 16 10  1  0
  4 26  1  0
  7 27  1  0
  8 28  1  0
 11 29  1  0
 12 30  1  0
 13 31  1  0
 16 32  1  0
 17 33  1  0
 18 34  1  0
 19 35  1  0
 21 36  1  0
 22 37  1  0
 23 38  1  0
 24 39  1  0
M  CHG  1   4   1
M  END
>  <UniqueID>  (7) 
5

>  <SMILES>  (7) 
O=S1(=O)[NH+]=C(c2ccc(-c3cccc(F)c3)cc2)Nc2ccccc21

>  <Energy>  (7) 
58.72838033583619

>  <Genealogy>  (7) 
O=S1(=O)[NH+]=C(c2ccc(-c3cccc(F)c3)cc2)Nc2ccccc21 (protonated)
O=S1(=O)[NH+]=C(c2ccc(-c3cccc(F)c3)cc2)Nc2ccccc21 (3D coordinates assigned)
O=S1(=O)[NH+]=C(c2ccc(-c3cccc(F)c3)cc2)Nc2ccccc21 (nonaromatic ring conformer: 58.72838033583619 kcal/mol)

>  <smiles>  (7) 
O=S1(=O)N=C(c2ccc(-c3cccc(F)c3)cc2)Nc2ccccc21

>  <score_type>  (7) 
oracle

>  <origin>  (7) 
adg

>  <m_score__min__energy>  (7) 
-8

>  <m_primary>  (7) 
energy

$$$$
7:0
     RDKit          3D

 48 52  0  0  0  0  0  0  0  0999 V2000
   -3.0830   15.4930  -36.0590 C   0  0  0  0  0  0  0  0  0  0  0  0
   -3.7340   15.3290  -34.8030 O   0  0  0  0  0  0  0  0  0  0  0  0
   -4.6610   16.2340  -34.2660 C   0  0  0  0  0  0  0  0  0  0  0  0
   -5.9520   15.8410  -33.8710 C   0  0  0  0  0  0  0  0  0  0  0  0
   -6.8450   16.7740  -33.3390 C   0  0  0  0  0  0  0  0  0  0  0  0
   -6.4630   18.1170  -33.1940 C   0  0  0  0  0  0  0  0  0  0  0  0
   -5.1590   18.5290  -33.5910 C   0  0  0  0  0  0  0  0  0  0  0  0
   -4.2750   17.5710  -34.1230 C   0  0  0  0  0  0  0  0  0  0  0  0
   -4.7610   19.8880  -33.4520 C   0  0  0  0  0  0  0  0  0  0  0  0
   -3.4690   20.2660  -33.8570 O   0  0  0  0  0  0  0  0  0  0  0  0
   -2.6460   21.2040  -33.1700 C   0  0  0  0  0  0  0  0  0  0  0  0
   -5.6670   20.8310  -32.9120 C   0  0  0  0  0  0  0  0  0  0  0  0
   -6.9340   20.3960  -32.5260 C   0  0  0  0  0  0  0  0  0  0  0  0
   -8.0060   21.0890  -31.9870 C   0  0  0  0  0  0  0  0  0  0  0  0
   -8.0640   22.5140  -31.5950 C   0  0  0  0  0  0  0  0  0  0  0  0
   -9.1540   23.1370  -31.7070 O   0  0  0  0  0  0  0  0  0  0  0  0
   -6.8700   23.2420  -31.1010 C   0  0  0  0  0  0  0  0  0  0  0  0
   -6.4920   24.4780  -31.6600 C   0  0  0  0  0  0  0  0  0  0  0  0
   -5.3510   25.1450  -31.2000 C   0  0  0  0  0  0  0  0  0  0  0  0
   -4.5730   24.5780  -30.1890 C   0  0  0  0  0  0  0  0  0  0  0  0
   -4.9480   23.3560  -29.6170 C   0  0  0  0  0  0  0  0  0  0  0  0
   -6.0780   22.6800  -30.0840 C   0  0  0  0  0  0  0  0  0  0  0  0
   -4.1760   22.8280  -28.5770 O   0  0  0  0  0  0  0  0  0  0  0  0
   -3.1940   23.6240  -27.9080 C   0  0  0  0  0  0  0  0  0  0  0  0
   -2.4670   24.5260  -28.9140 C   0  0  0  0  0  0  0  0  0  0  0  0
   -3.4130   25.2140  -29.7370 O   0  0  0  0  0  0  0  0  0  0  0  0
   -9.0100   20.1410  -31.8140 C   0  0  0  0  0  0  0  0  0  0  0  0
   -8.5920   18.9260  -32.2320 N   0  0  0  0  0  0  0  0  0  0  0  0
   -7.3260   19.0880  -32.6650 C   0  0  0  0  0  0  0  0  0  0  0  0
   -2.0285   15.7587  -35.8935 H   0  0  0  0  0  0  0  0  0  0  0  0
   -3.1394   14.5526  -36.6268 H   0  0  0  0  0  0  0  0  0  0  0  0
   -3.5783   16.2944  -36.6268 H   0  0  0  0  0  0  0  0  0  0  0  0
   -6.2609   14.7911  -33.9818 H   0  0  0  0  0  0  0  0  0  0  0  0
   -7.8521   16.4550  -33.0323 H   0  0  0  0  0  0  0  0  0  0  0  0
   -3.2648   17.8787  -34.4311 H   0  0  0  0  0  0  0  0  0  0  0  0
   -2.7640   21.0695  -32.0847 H   0  0  0  0  0  0  0  0  0  0  0  0
   -1.5941   21.0411  -33.4474 H   0  0  0  0  0  0  0  0  0  0  0  0
   -2.9443   22.2258  -33.4474 H   0  0  0  0  0  0  0  0  0  0  0  0
   -5.3775   21.8862  -32.7990 H   0  0  0  0  0  0  0  0  0  0  0  0
   -7.0977   24.9222  -32.4636 H   0  0  0  0  0  0  0  0  0  0  0  0
   -5.0675   26.1149  -31.6345 H   0  0  0  0  0  0  0  0  0  0  0  0
   -6.3492   21.7043  -29.6545 H   0  0  0  0  0  0  0  0  0  0  0  0
   -3.6884   24.2497  -27.1503 H   0  0  0  0  0  0  0  0  0  0  0  0
   -2.4610   22.9597  -27.4269 H   0  0  0  0  0  0  0  0  0  0  0  0
   -1.8582   25.2617  -28.3680 H   0  0  0  0  0  0  0  0  0  0  0  0
   -1.8228   23.9037  -29.5525 H   0  0  0  0  0  0  0  0  0  0  0  0
  -10.0052   20.3515  -31.3953 H   0  0  0  0  0  0  0  0  0  0  0  0
   -9.1550   18.0480  -32.2040 H   0  0  0  0  0  0  0  0  0  0  0  0
  1  2  1  0
  2  3  1  0
  3  4  2  0
  4  5  1  0
  5  6  2  0
  6  7  1  0
  7  8  2  0
  7  9  1  0
  9 10  1  0
 10 11  1  0
  9 12  2  0
 12 13  1  0
 13 14  1  0
 14 15  1  0
 15 16  2  0
 15 17  1  0
 17 18  2  0
 18 19  1  0
 19 20  2  0
 20 21  1  0
 21 22  2  0
 21 23  1  0
 23 24  1  0
 24 25  1  0
 25 26  1  0
 14 27  2  0
 27 28  1  0
 28 29  1  0
  8  3  1  0
 29 13  2  0
 29  6  1  0
 22 17  1  0
 26 20  1  0
  1 30  1  0
  1 31  1  0
  1 32  1  0
  4 33  1  0
  5 34  1  0
  8 35  1  0
 11 36  1  0
 11 37  1  0
 11 38  1  0
 12 39  1  0
 18 40  1  0
 19 41  1  0
 22 42  1  0
 24 43  1  0
 24 44  1  0
 25 45  1  0
 25 46  1  0
 27 47  1  0
 28 48  1  0
M  END
>  <UniqueID>  (8) 
6

>  <SMILES>  (8) 
COc1ccc2c(c1)c(OC)cc1c(C(=O)c3ccc4c(c3)OCCO4)c[nH]c12

>  <Energy>  (8) 
96.36918710937901

>  <Genealogy>  (8) 
COc1ccc2c(c1)c(OC)cc1c(C(=O)c3ccc4c(c3)OCCO4)c[nH]c12 (3D coordinates assigned)
COc1ccc2c(c1)c(OC)cc1c(C(=O)c3ccc4c(c3)OCCO4)c[nH]c12 (nonaromatic ring conformer: 96.36918710937901 kcal/mol)

>  <smiles>  (8) 
COc1ccc2c(c1)c(OC)cc1c(C(=O)c3ccc4c(c3)OCCO4)c[nH]c12

>  <score_type>  (8) 
oracle

>  <origin>  (8) 
adg

>  <m_score__min__energy>  (8) 
-9.2400000000000002

>  <m_primary>  (8) 
energy

$$$$
8:0
     RDKit          3D

 60 64  0  0  0  0  0  0  0  0999 V2000
   -4.3430   14.1560  -34.3410 O   0  0  0  0  0  0  0  0  0  0  0  0
   -4.0840   15.3460  -34.6740 C   0  0  0  0  0  0  0  0  0  0  0  0
   -2.7970   15.6090  -35.4210 C   0  0  0  0  0  0  0  0  0  0  0  0
   -1.7400   16.0800  -34.5000 N   0  0  0  0  0  0  0  0  0  0  0  0
   -1.0550   17.2850  -35.0260 C   0  0  0  0  0  0  0  0  0  0  0  0
   -1.7400   18.5880  -34.5960 C   0  0  0  0  0  0  0  0  0  0  0  0
   -1.8820   18.6470  -33.1330 N   0  0  0  0  0  0  0  0  0  0  0  0
   -2.1120   19.9060  -32.4630 C   0  0  0  0  0  0  0  0  0  0  0  0
   -1.3280   20.3050  -31.3620 C   0  0  0  0  0  0  0  0  0  0  0  0
   -1.5990   21.5200  -30.7300 C   0  0  0  0  0  0  0  0  0  0  0  0
   -2.6360   22.3310  -31.1900 C   0  0  0  0  0  0  0  0  0  0  0  0
   -3.3870   21.9170  -32.2910 C   0  0  0  0  0  0  0  0  0  0  0  0
   -3.1130   20.7290  -32.8930 N   0  0  0  0  0  0  0  0  0  0  0  0
   -1.6610   17.4220  -32.3560 C   0  0  0  0  0  0  0  0  0  0  0  0
   -2.2540   16.2230  -33.1080 C   0  0  0  0  0  0  0  0  0  0  0  0
   -5.0440   16.3950  -34.4010 N   0  0  0  0  0  0  0  0  0  0  0  0
   -6.3000   16.0760  -33.7030 C   0  0  0  0  0  0  0  0  0  0  0  0
   -6.6960   17.2090  -32.7480 C   0  0  0  0  0  0  0  0  0  0  0  0
   -6.5900   18.5290  -33.3850 N   0  0  0  0  0  0  0  0  0  0  0  0
   -7.1000   19.6820  -32.6850 C   0  0  0  0  0  0  0  0  0  0  0  0
   -6.3070   20.6570  -32.1870 N   0  0  0  0  0  0  0  0  0  0  0  0
   -7.0230   21.6520  -31.5870 C   0  0  0  0  0  0  0  0  0  0  0  0
   -6.3510   22.8060  -30.9330 C   0  0  0  0  0  0  0  0  0  0  0  0
   -6.4000   24.0800  -31.5310 C   0  0  0  0  0  0  0  0  0  0  0  0
   -5.7480   25.1690  -30.9400 C   0  0  0  0  0  0  0  0  0  0  0  0
   -5.0530   25.0030  -29.7410 C   0  0  0  0  0  0  0  0  0  0  0  0
   -5.0100   23.7490  -29.1270 C   0  0  0  0  0  0  0  0  0  0  0  0
   -5.6520   22.6560  -29.7180 C   0  0  0  0  0  0  0  0  0  0  0  0
   -8.4070   21.4630  -31.6040 C   0  0  0  0  0  0  0  0  0  0  0  0
   -8.7250   20.0120  -32.3900 S   0  0  0  0  0  0  0  0  0  0  0  0
   -6.0790   18.6350  -34.7590 C   0  0  0  0  0  0  0  0  0  0  0  0
   -4.8380   17.7530  -34.9300 C   0  0  0  0  0  0  0  0  0  0  0  0
   -2.4648   14.6788  -35.9051 H   0  0  0  0  0  0  0  0  0  0  0  0
   -2.9806   16.3893  -36.1743 H   0  0  0  0  0  0  0  0  0  0  0  0
   -0.0197   17.2921  -34.6544 H   0  0  0  0  0  0  0  0  0  0  0  0
   -1.0917   17.2362  -36.1243 H   0  0  0  0  0  0  0  0  0  0  0  0
   -1.1346   19.4420  -34.9340 H   0  0  0  0  0  0  0  0  0  0  0  0
   -2.7419   18.6249  -35.0486 H   0  0  0  0  0  0  0  0  0  0  0  0
   -0.5090   19.6642  -31.0034 H   0  0  0  0  0  0  0  0  0  0  0  0
   -0.9938   21.8380  -29.8682 H   0  0  0  0  0  0  0  0  0  0  0  0
   -2.8593   23.2855  -30.6910 H   0  0  0  0  0  0  0  0  0  0  0  0
   -4.2006   22.5518  -32.6718 H   0  0  0  0  0  0  0  0  0  0  0  0
   -0.5811   17.2679  -32.2143 H   0  0  0  0  0  0  0  0  0  0  0  0
   -2.1505   17.5174  -31.3755 H   0  0  0  0  0  0  0  0  0  0  0  0
   -2.0090   15.3068  -32.5507 H   0  0  0  0  0  0  0  0  0  0  0  0
   -3.3388   16.3907  -33.1796 H   0  0  0  0  0  0  0  0  0  0  0  0
   -7.0992   15.9345  -34.4455 H   0  0  0  0  0  0  0  0  0  0  0  0
   -6.1539   15.1564  -33.1173 H   0  0  0  0  0  0  0  0  0  0  0  0
   -7.7357   17.0534  -32.4244 H   0  0  0  0  0  0  0  0  0  0  0  0
   -6.0053   17.1886  -31.8921 H   0  0  0  0  0  0  0  0  0  0  0  0
   -6.9551   24.2207  -32.4702 H   0  0  0  0  0  0  0  0  0  0  0  0
   -5.7835   26.1574  -31.4216 H   0  0  0  0  0  0  0  0  0  0  0  0
   -4.5393   25.8594  -29.2797 H   0  0  0  0  0  0  0  0  0  0  0  0
   -4.4703   23.6210  -28.1771 H   0  0  0  0  0  0  0  0  0  0  0  0
   -5.6112   21.6708  -29.2305 H   0  0  0  0  0  0  0  0  0  0  0  0
   -9.1575   22.1448  -31.1775 H   0  0  0  0  0  0  0  0  0  0  0  0
   -6.8580   18.3070  -35.4630 H   0  0  0  0  0  0  0  0  0  0  0  0
   -5.8071   19.6814  -34.9617 H   0  0  0  0  0  0  0  0  0  0  0  0
   -4.5978   17.6833  -36.0012 H   0  0  0  0  0  0  0  0  0  0  0  0
   -4.0151   18.2145  -34.3645 H   0  0  0  0  0  0  0  0  0  0  0  0
  1  2  2  0
  2  3  1  0
  3  4  1  0
  4  5  1  0
  5  6  1  0
  6  7  1  0
  7  8  1  0
  8  9  2  0
  9 10  1  0
 10 11  2  0
 11 12  1  0
 12 13  2  0
  7 14  1  0
 14 15  1  0
  2 16  1  0
 16 17  1  0
 17 18  1  0
 18 19  1  0
 19 20  1  0
 20 21  2  0
 21 22  1  0
 22 23  1  0
 23 24  2  0
 24 25  1  0
 25 26  2  0
 26 27  1  0
 27 28  2  0
 22 29  2  0
 29 30  1  0
 19 31  1  0
 31 32  1  0
 15  4  1  0
 32 16  1  0
 13  8  1  0
 30 20  1  0
 28 23  1  0
  3 33  1  0
  3 34  1  0
  5 35  1  0
  5 36  1  0
  6 37  1  0
  6 38  1  0
  9 39  1  0
 10 40  1  0
 11 41  1  0
 12 42  1  0
 14 43  1  0
 14 44  1  0
 15 45  1  0
 15 46  1  0
 17 47  1  0
 17 48  1  0
 18 49  1  0
 18 50  1  0
 24 51  1  0
 25 52  1  0
 26 53  1  0
 27 54  1  0
 28 55  1  0
 29 56  1  0
 31 57  1  0
 31 58  1  0
 32 59  1  0
 32 60  1  0
M  END
>  <UniqueID>  (9) 
7

>  <SMILES>  (9) 
O=C(CN1CCN(c2ccccn2)CC1)N1CCN(c2nc(-c3ccccc3)cs2)CC1

>  <Energy>  (9) 
108.25170805392503

>  <Genealogy>  (9) 
O=C(CN1CCN(c2ccccn2)CC1)N1CCN(c2nc(-c3ccccc3)cs2)CC1 (3D coordinates assigned)
O=C(CN1CCN(c2ccccn2)CC1)N1CCN(c2nc(-c3ccccc3)cs2)CC1 (nonaromatic ring conformer: 108.25170805392503 kcal/mol)

>  <smiles>  (9) 
O=C(CN1CCN(c2ccccn2)CC1)N1CCN(c2nc(-c3ccccc3)cs2)CC1

>  <score_type>  (9) 
oracle

>  <origin>  (9) 
adg

>  <m_score__min__energy>  (9) 
-9.0999999999999996

>  <m_primary>  (9) 
energy

$$$$
9:0
     RDKit          3D

 56 58  0  0  0  0  0  0  0  0999 V2000
   -2.0800   24.7830  -29.3750 O   0  0  0  0  0  0  0  0  0  0  0  0
   -3.3200   24.5840  -29.4910 C   0  0  0  0  0  0  0  0  0  0  0  0
   -3.9960   23.5770  -28.6160 C   0  0  0  0  0  0  0  0  0  0  0  0
   -3.4450   22.1410  -28.7920 C   0  0  0  0  0  0  0  0  0  0  0  0
   -2.6100   21.9000  -30.0020 N   0  0  0  0  0  0  0  0  0  0  0  0
   -1.6700   20.7670  -29.8480 C   0  0  0  0  0  0  0  0  0  0  0  0
   -0.7080   20.7140  -31.0380 C   0  0  0  0  0  0  0  0  0  0  0  0
   -1.4440   20.7600  -32.3090 N   0  0  0  0  0  0  0  0  0  0  0  0
   -0.7400   20.5130  -33.5430 C   0  0  0  0  0  0  0  0  0  0  0  0
   -0.7890   19.2460  -34.1540 C   0  0  0  0  0  0  0  0  0  0  0  0
   -0.0960   19.0070  -35.3440 C   0  0  0  0  0  0  0  0  0  0  0  0
    0.6490   20.0290  -35.9390 C   0  0  0  0  0  0  0  0  0  0  0  0
    0.7040   21.2920  -35.3430 C   0  0  0  0  0  0  0  0  0  0  0  0
    1.6300   22.5780  -36.0960 Cl  0  0  0  0  0  0  0  0  0  0  0  0
    0.0150   21.5340  -34.1490 C   0  0  0  0  0  0  0  0  0  0  0  0
   -2.9120   20.8210  -32.2910 C   0  0  0  0  0  0  0  0  0  0  0  0
   -3.4100   21.8560  -31.2630 C   0  0  0  0  0  0  0  0  0  0  0  0
   -4.0800   25.2980  -30.4700 N   0  0  0  0  0  0  0  0  0  0  0  0
   -5.5030   25.0840  -30.7090 C   0  0  0  0  0  0  0  0  0  0  0  0
   -5.7280   24.1140  -31.8750 C   0  0  0  0  0  0  0  0  0  0  0  0
   -6.8470   23.1420  -31.5830 C   0  0  0  0  0  0  0  0  0  0  0  0
   -8.1020   23.3940  -31.9950 C   0  0  0  0  0  0  0  0  0  0  0  0
   -9.1750   22.3680  -31.7600 C   0  0  0  0  0  0  0  0  0  0  0  0
   -8.6690   20.9650  -32.1410 C   0  0  0  0  0  0  0  0  0  0  0  0
   -7.2250   20.6660  -31.6530 C   0  0  0  0  0  0  0  0  0  0  0  0
   -6.5700   21.8300  -30.8860 C   0  0  0  0  0  0  0  0  0  0  0  0
   -3.8573   23.8776  -27.5670 H   0  0  0  0  0  0  0  0  0  0  0  0
   -5.0570   23.5554  -28.9055 H   0  0  0  0  0  0  0  0  0  0  0  0
   -2.8321   21.9063  -27.9092 H   0  0  0  0  0  0  0  0  0  0  0  0
   -4.3301   21.4991  -28.9128 H   0  0  0  0  0  0  0  0  0  0  0  0
   -2.0050   22.7540  -30.0800 H   0  0  0  0  0  0  0  0  0  0  0  0
   -1.0936   20.8964  -28.9201 H   0  0  0  0  0  0  0  0  0  0  0  0
   -2.2422   19.8284  -29.8063 H   0  0  0  0  0  0  0  0  0  0  0  0
   -0.0237   21.5737  -30.9866 H   0  0  0  0  0  0  0  0  0  0  0  0
   -0.1437   19.7709  -30.9923 H   0  0  0  0  0  0  0  0  0  0  0  0
   -1.3764   18.4388  -33.6920 H   0  0  0  0  0  0  0  0  0  0  0  0
   -0.1370   18.0129  -35.8131 H   0  0  0  0  0  0  0  0  0  0  0  0
    1.1922   19.8393  -36.8765 H   0  0  0  0  0  0  0  0  0  0  0  0
    0.0640   22.5285  -33.6815 H   0  0  0  0  0  0  0  0  0  0  0  0
   -3.2724   21.1050  -33.2907 H   0  0  0  0  0  0  0  0  0  0  0  0
   -3.3001   19.8315  -32.0078 H   0  0  0  0  0  0  0  0  0  0  0  0
   -3.3732   22.8513  -31.7299 H   0  0  0  0  0  0  0  0  0  0  0  0
   -4.4297   21.5556  -30.9803 H   0  0  0  0  0  0  0  0  0  0  0  0
   -5.9608   24.6657  -29.8005 H   0  0  0  0  0  0  0  0  0  0  0  0
   -5.9631   26.0499  -30.9648 H   0  0  0  0  0  0  0  0  0  0  0  0
   -5.9832   24.6918  -32.7756 H   0  0  0  0  0  0  0  0  0  0  0  0
   -4.8032   23.5380  -32.0262 H   0  0  0  0  0  0  0  0  0  0  0  0
   -8.3411   24.3420  -32.4992 H   0  0  0  0  0  0  0  0  0  0  0  0
   -9.4567   22.3753  -30.6967 H   0  0  0  0  0  0  0  0  0  0  0  0
  -10.0468   22.6143  -32.3839 H   0  0  0  0  0  0  0  0  0  0  0  0
   -9.3462   20.2199  -31.6980 H   0  0  0  0  0  0  0  0  0  0  0  0
   -8.6523   20.9177  -33.2399 H   0  0  0  0  0  0  0  0  0  0  0  0
   -7.2586   19.7896  -30.9891 H   0  0  0  0  0  0  0  0  0  0  0  0
   -6.6145   20.4931  -32.5516 H   0  0  0  0  0  0  0  0  0  0  0  0
   -6.9797   21.8679  -29.8658 H   0  0  0  0  0  0  0  0  0  0  0  0
   -5.4827   21.6672  -30.8508 H   0  0  0  0  0  0  0  0  0  0  0  0
  1  2  2  0
  2  3  1  0
  3  4  1  0
  4  5  1  0
  5  6  1  0
  6  7  1  0
  7  8  1  0
  8  9  1  0
  9 10  2  0
 10 11  1  0
 11 12  2  0
 12 13  1  0
 13 14  1  0
 13 15  2  0
  8 16  1  0
 16 17  1  0
  2 18  1  0
 18 19  1  0
 19 20  1  0
 20 21  1  0
 21 22  2  0
 22 23  1  0
 23 24  1  0
 24 25  1  0
 25 26  1  0
 17  5  1  0
 26 21  1  0
 15  9  1  0
  3 27  1  0
  3 28  1  0
  4 29  1  0
  4 30  1  0
  5 31  1  0
  6 32  1  0
  6 33  1  0
  7 34  1  0
  7 35  1  0
 10 36  1  0
 11 37  1  0
 12 38  1  0
 15 39  1  0
 16 40  1  0
 16 41  1  0
 17 42  1  0
 17 43  1  0
 19 44  1  0
 19 45  1  0
 20 46  1  0
 20 47  1  0
 22 48  1  0
 23 49  1  0
 23 50  1  0
 24 51  1  0
 24 52  1  0
 25 53  1  0
 25 54  1  0
 26 55  1  0
 26 56  1  0
M  CHG  2   5   1  18  -1
M  END
>  <UniqueID>  (10) 
8

>  <SMILES>  (10) 
O=C(CC[NH+]1CCN(c2cccc(Cl)c2)CC1)[N-]CCC1=CCCCC1

>  <Energy>  (10) 
63.03122594476621

>  <Genealogy>  (10) 
O=C(CC[NH+]1CCN(c2cccc(Cl)c2)CC1)[N-]CCC1=CCCCC1 (protonated)
O=C(CC[NH+]1CCN(c2cccc(Cl)c2)CC1)[N-]CCC1=CCCCC1 (3D coordinates assigned)
O=C(CC[NH+]1CCN(c2cccc(Cl)c2)CC1)[N-]CCC1=CCCCC1 (nonaromatic ring conformer: 63.03122594476621 kcal/mol)

>  <smiles>  (10) 
O=C(CCN1CCN(c2cccc(Cl)c2)CC1)NCCC1=CCCCC1

>  <score_type>  (10) 
oracle

>  <origin>  (10) 
adg

>  <m_score__min__energy>  (10) 
-9.8699999999999992

>  <m_primary>  (10) 
energy

$$$$
10:0
     RDKit          3D

 45 46  0  0  0  0  0  0  0  0999 V2000
   -3.8140   24.0410  -29.7600 C   0  0  0  0  0  0  0  0  0  0  0  0
   -4.4020   24.8740  -30.7350 O   0  0  0  0  0  0  0  0  0  0  0  0
   -5.7960   24.6430  -30.8090 C   0  0  0  0  0  0  0  0  0  0  0  0
   -6.1590   23.7930  -32.0350 C   0  0  0  0  0  0  0  0  0  0  0  0
   -6.6620   22.4620  -31.6230 N   0  0  0  0  0  0  0  0  0  0  0  0
   -8.0400   22.1880  -32.0820 C   0  0  0  0  0  0  0  0  0  0  0  0
   -8.6720   20.9640  -31.4010 C   0  0  0  0  0  0  0  0  0  0  0  0
   -8.4460   19.6680  -32.1890 C   0  0  0  0  0  0  0  0  0  0  0  0
   -7.0250   19.3220  -32.3850 N   0  0  0  0  0  0  0  0  0  0  0  0
   -6.5510   19.3640  -33.7850 C   0  0  0  0  0  0  0  0  0  0  0  0
   -5.3560   18.4570  -33.9780 C   0  0  0  0  0  0  0  0  0  0  0  0
   -4.0700   19.0260  -34.0170 C   0  0  0  0  0  0  0  0  0  0  0  0
   -2.9450   18.2260  -34.2130 C   0  0  0  0  0  0  0  0  0  0  0  0
   -3.0850   16.8490  -34.3740 C   0  0  0  0  0  0  0  0  0  0  0  0
   -4.3540   16.2650  -34.3430 C   0  0  0  0  0  0  0  0  0  0  0  0
   -5.5000   17.0560  -34.1490 C   0  0  0  0  0  0  0  0  0  0  0  0
   -6.8530   16.3930  -34.1220 C   0  0  0  0  0  0  0  0  0  0  0  0
   -6.1120   19.9430  -31.4030 C   0  0  0  0  0  0  0  0  0  0  0  0
   -5.6540   21.3760  -31.7620 C   0  0  0  0  0  0  0  0  0  0  0  0
   -4.0745   24.4101  -28.7570 H   0  0  0  0  0  0  0  0  0  0  0  0
   -4.1883   23.0138  -29.8814 H   0  0  0  0  0  0  0  0  0  0  0  0
   -2.7208   24.0497  -29.8814 H   0  0  0  0  0  0  0  0  0  0  0  0
   -6.1202   24.1160  -29.8995 H   0  0  0  0  0  0  0  0  0  0  0  0
   -6.3035   25.6148  -30.8991 H   0  0  0  0  0  0  0  0  0  0  0  0
   -6.9387   24.3097  -32.6138 H   0  0  0  0  0  0  0  0  0  0  0  0
   -5.2558   23.6542  -32.6473 H   0  0  0  0  0  0  0  0  0  0  0  0
   -8.6624   23.0688  -31.8656 H   0  0  0  0  0  0  0  0  0  0  0  0
   -7.9893   21.9730  -33.1596 H   0  0  0  0  0  0  0  0  0  0  0  0
   -8.2291   20.8497  -30.4006 H   0  0  0  0  0  0  0  0  0  0  0  0
   -9.7571   21.1361  -31.3473 H   0  0  0  0  0  0  0  0  0  0  0  0
   -8.9303   18.8439  -31.6447 H   0  0  0  0  0  0  0  0  0  0  0  0
   -8.8748   19.8263  -33.1895 H   0  0  0  0  0  0  0  0  0  0  0  0
   -7.3633   19.0358  -34.4502 H   0  0  0  0  0  0  0  0  0  0  0  0
   -6.2516   20.3952  -34.0238 H   0  0  0  0  0  0  0  0  0  0  0  0
   -3.9509   20.1123  -33.8917 H   0  0  0  0  0  0  0  0  0  0  0  0
   -1.9448   18.6829  -34.2406 H   0  0  0  0  0  0  0  0  0  0  0  0
   -2.1950   16.2206  -34.5258 H   0  0  0  0  0  0  0  0  0  0  0  0
   -4.4572   15.1774  -34.4714 H   0  0  0  0  0  0  0  0  0  0  0  0
   -7.1655   16.2399  -33.0785 H   0  0  0  0  0  0  0  0  0  0  0  0
   -7.5858   17.0341  -34.6339 H   0  0  0  0  0  0  0  0  0  0  0  0
   -6.7953   15.4211  -34.6339 H   0  0  0  0  0  0  0  0  0  0  0  0
   -6.6278   19.9813  -30.4322 H   0  0  0  0  0  0  0  0  0  0  0  0
   -5.2043   19.3218  -31.3868 H   0  0  0  0  0  0  0  0  0  0  0  0
   -4.8045   21.6262  -31.1095 H   0  0  0  0  0  0  0  0  0  0  0  0
   -5.4188   21.3402  -32.8360 H   0  0  0  0  0  0  0  0  0  0  0  0
  1  2  1  0
  2  3  1  0
  3  4  1  0
  4  5  1  0
  5  6  1  0
  6  7  1  0
  7  8  1  0
  8  9  1  0
  9 10  1  0
 10 11  1  0
 11 12  2  0
 12 13  1  0
 13 14  2  0
 14 15  1  0
 15 16  2  0
 16 17  1  0
  9 18  1  0
 18 19  1  0
 19  5  1  0
 16 11  1  0
  1 20  1  0
  1 21  1  0
  1 22  1  0
  3 23  1  0
  3 24  1  0
  4 25  1  0
  4 26  1  0
  6 27  1  0
  6 28  1  0
  7 29  1  0
  7 30  1  0
  8 31  1  0
  8 32  1  0
 10 33  1  0
 10 34  1  0
 12 35  1  0
 13 36  1  0
 14 37  1  0
 15 38  1  0
 17 39  1  0
 17 40  1  0
 17 41  1  0
 18 42  1  0
 18 43  1  0
 19 44  1  0
 19 45  1  0
M  END
>  <UniqueID>  (11) 
9

>  <SMILES>  (11) 
COCCN1CCCN(Cc2ccccc2C)CC1

>  <Energy>  (11) 
64.95988924720862

>  <Genealogy>  (11) 
COCCN1CCCN(Cc2ccccc2C)CC1 (3D coordinates assigned)
COCCN1CCCN(Cc2ccccc2C)CC1 (nonaromatic ring conformer: 64.95988924720862 kcal/mol)

>  <smiles>  (11) 
COCCN1CCCN(Cc2ccccc2C)CC1

>  <score_type>  (11) 
oracle

>  <origin>  (11) 
adg

>  <m_score__min__energy>  (11) 
-5.1799999999999997

>  <m_primary>  (11) 
energy

$$$$
11:0
     RDKit          3D

 47 49  0  0  0  0  0  0  0  0999 V2000
    0.3670   17.7260  -27.4970 C   0  0  0  0  0  0  0  0  0  0  0  0
   -0.6050   18.7940  -27.9020 C   0  0  0  0  0  0  0  0  0  0  0  0
   -0.4550   19.4700  -29.1230 C   0  0  0  0  0  0  0  0  0  0  0  0
   -1.3890   20.4350  -29.5130 C   0  0  0  0  0  0  0  0  0  0  0  0
   -2.4910   20.7170  -28.6950 C   0  0  0  0  0  0  0  0  0  0  0  0
   -3.6870   21.9600  -29.1950 S   0  0  0  0  0  0  0  0  0  0  0  0
   -2.8860   23.3410  -28.3020 C   0  0  0  0  0  0  0  0  0  0  0  0
   -3.9240   24.3280  -27.7650 C   0  0  0  0  0  0  0  0  0  0  0  0
   -5.0630   24.4130  -28.6750 N   0  0  0  0  0  0  0  0  0  0  0  0
   -4.9400   24.8990  -30.0190 C   0  0  0  0  0  0  0  0  0  0  0  0
   -3.8260   25.3000  -30.4540 O   0  0  0  0  0  0  0  0  0  0  0  0
   -6.1430   24.9460  -30.9160 C   0  0  0  0  0  0  0  0  0  0  0  0
   -6.5290   23.5880  -31.3300 N   0  0  0  0  0  0  0  0  0  0  0  0
   -7.8370   23.1910  -31.1820 C   0  0  0  0  0  0  0  0  0  0  0  0
   -8.2350   21.9470  -31.5630 N   0  0  0  0  0  0  0  0  0  0  0  0
   -7.3280   21.1020  -32.0980 C   0  0  0  0  0  0  0  0  0  0  0  0
   -7.6160   19.5430  -32.6360 S   0  0  0  0  0  0  0  0  0  0  0  0
   -6.0190   19.2750  -33.1280 C   0  0  0  0  0  0  0  0  0  0  0  0
   -5.5440   18.0010  -33.7510 C   0  0  0  0  0  0  0  0  0  0  0  0
   -5.2430   20.4190  -32.8710 C   0  0  0  0  0  0  0  0  0  0  0  0
   -3.7790   20.5290  -33.1920 C   0  0  0  0  0  0  0  0  0  0  0  0
   -6.0070   21.4510  -32.2800 C   0  0  0  0  0  0  0  0  0  0  0  0
   -5.6020   22.7340  -31.8820 C   0  0  0  0  0  0  0  0  0  0  0  0
   -4.4040   23.1010  -32.0310 O   0  0  0  0  0  0  0  0  0  0  0  0
   -2.6450   20.0430  -27.4780 C   0  0  0  0  0  0  0  0  0  0  0  0
   -1.7120   19.0790  -27.0870 C   0  0  0  0  0  0  0  0  0  0  0  0
    0.4161   17.6720  -26.3994 H   0  0  0  0  0  0  0  0  0  0  0  0
    0.0346   16.7568  -27.8973 H   0  0  0  0  0  0  0  0  0  0  0  0
    1.3631   17.9659  -27.8973 H   0  0  0  0  0  0  0  0  0  0  0  0
    0.4002   19.2399  -29.7754 H   0  0  0  0  0  0  0  0  0  0  0  0
   -1.2583   20.9734  -30.4633 H   0  0  0  0  0  0  0  0  0  0  0  0
   -2.3067   22.9355  -27.4594 H   0  0  0  0  0  0  0  0  0  0  0  0
   -2.2280   23.8746  -29.0036 H   0  0  0  0  0  0  0  0  0  0  0  0
   -4.2724   23.9871  -26.7789 H   0  0  0  0  0  0  0  0  0  0  0  0
   -3.4607   25.3219  -27.6789 H   0  0  0  0  0  0  0  0  0  0  0  0
   -6.0070   24.1420  -28.3190 H   0  0  0  0  0  0  0  0  0  0  0  0
   -6.9801   25.4115  -30.3751 H   0  0  0  0  0  0  0  0  0  0  0  0
   -5.8967   25.5350  -31.8118 H   0  0  0  0  0  0  0  0  0  0  0  0
   -8.5707   23.8877  -30.7503 H   0  0  0  0  0  0  0  0  0  0  0  0
   -5.2766   17.2839  -32.9609 H   0  0  0  0  0  0  0  0  0  0  0  0
   -6.3446   17.5773  -34.3752 H   0  0  0  0  0  0  0  0  0  0  0  0
   -4.6615   18.2048  -34.3752 H   0  0  0  0  0  0  0  0  0  0  0  0
   -3.2009   20.5724  -32.2572 H   0  0  0  0  0  0  0  0  0  0  0  0
   -3.4650   19.6519  -33.7769 H   0  0  0  0  0  0  0  0  0  0  0  0
   -3.5995   21.4432  -33.7769 H   0  0  0  0  0  0  0  0  0  0  0  0
   -3.5022   20.2726  -26.8280 H   0  0  0  0  0  0  0  0  0  0  0  0
   -1.8455   18.5413  -26.1367 H   0  0  0  0  0  0  0  0  0  0  0  0
  1  2  1  0
  2  3  2  0
  3  4  1  0
  4  5  2  0
  5  6  1  0
  6  7  1  0
  7  8  1  0
  8  9  1  0
  9 10  1  0
 10 11  2  0
 10 12  1  0
 12 13  1  0
 13 14  1  0
 14 15  2  0
 15 16  1  0
 16 17  1  0
 17 18  1  0
 18 19  1  0
 18 20  2  0
 20 21  1  0
 20 22  1  0
 22 23  1  0
 23 24  2  0
  5 25  1  0
 25 26  2  0
 26  2  1  0
 23 13  1  0
 22 16  2  0
  1 27  1  0
  1 28  1  0
  1 29  1  0
  3 30  1  0
  4 31  1  0
  7 32  1  0
  7 33  1  0
  8 34  1  0
  8 35  1  0
  9 36  1  0
 12 37  1  0
 12 38  1  0
 14 39  1  0
 19 40  1  0
 19 41  1  0
 19 42  1  0
 21 43  1  0
 21 44  1  0
 21 45  1  0
 25 46  1  0
 26 47  1  0
M  END
>  <UniqueID>  (12) 
10

>  <SMILES>  (12) 
Cc1ccc(SCCNC(=O)Cn2cnc3sc(C)c(C)c3c2=O)cc1

>  <Energy>  (12) 
73.9011119981084

>  <Genealogy>  (12) 
Cc1ccc(SCCNC(=O)Cn2cnc3sc(C)c(C)c3c2=O)cc1 (3D coordinates assigned)
Cc1ccc(SCCNC(=O)Cn2cnc3sc(C)c(C)c3c2=O)cc1 (optimized conformer: 73.9011119981084 kcal/mol)

>  <smiles>  (12) 
Cc1ccc(SCCNC(=O)Cn2cnc3sc(C)c(C)c3c2=O)cc1

>  <score_type>  (12) 
oracle

>  <origin>  (12) 
adg

>  <m_score__min__energy>  (12) 
-9.9199999999999999

>  <m_primary>  (12) 
energy

$$$$
12:0
     RDKit          3D

 45 48  0  0  0  0  0  0  0  0999 V2000
   -5.2191   15.0051  -34.2694 H   0  0  0  0  0  0  0  0  0  0  0  0
   -5.4000   16.0890  -34.2190 C   0  0  0  0  0  0  0  0  0  0  0  0
   -6.3100   16.6890  -33.4280 N   0  0  0  0  0  0  0  0  0  0  0  0
   -6.2350   17.9950  -33.6390 N   0  0  0  0  0  0  0  0  0  0  0  0
   -7.0740   18.9600  -32.9690 C   0  0  0  0  0  0  0  0  0  0  0  0
   -8.1840   18.5600  -32.2080 C   0  0  0  0  0  0  0  0  0  0  0  0
   -8.4182   17.4901  -32.1057 H   0  0  0  0  0  0  0  0  0  0  0  0
   -8.9930   19.5090  -31.5800 C   0  0  0  0  0  0  0  0  0  0  0  0
   -9.8603   19.1796  -30.9891 H   0  0  0  0  0  0  0  0  0  0  0  0
   -8.7110   20.8780  -31.6950 C   0  0  0  0  0  0  0  0  0  0  0  0
   -9.5770   21.8850  -30.9920 C   0  0  0  0  0  0  0  0  0  0  0  0
   -9.4720   21.7629  -29.9039 H   0  0  0  0  0  0  0  0  0  0  0  0
   -9.2655   22.9003  -31.2788 H   0  0  0  0  0  0  0  0  0  0  0  0
  -10.6274   21.7290  -31.2788 H   0  0  0  0  0  0  0  0  0  0  0  0
   -7.5860   21.2910  -32.4300 C   0  0  0  0  0  0  0  0  0  0  0  0
   -7.3030   22.6910  -32.5730 N   0  0  0  0  0  0  0  0  0  0  0  0
   -6.0930   23.3440  -32.1700 C   0  0  0  0  0  0  0  0  0  0  0  0
   -5.0140   23.0180  -32.7280 O   0  0  0  0  0  0  0  0  0  0  0  0
   -6.1000   24.5030  -31.2150 C   0  0  0  0  0  0  0  0  0  0  0  0
   -5.9745   25.4403  -31.7769 H   0  0  0  0  0  0  0  0  0  0  0  0
   -7.0570   24.5220  -30.6729 H   0  0  0  0  0  0  0  0  0  0  0  0
   -4.9790   24.3570  -30.2350 C   0  0  0  0  0  0  0  0  0  0  0  0
   -3.8040   25.0250  -30.3880 N   0  0  0  0  0  0  0  0  0  0  0  0
   -2.9570   24.7690  -29.3660 C   0  0  0  0  0  0  0  0  0  0  0  0
   -1.7770   25.2990  -29.2470 N   0  0  0  0  0  0  0  0  0  0  0  0
   -0.8250   24.9870  -28.2180 C   0  0  0  0  0  0  0  0  0  0  0  0
   -0.7610   25.8140  -27.0880 C   0  0  0  0  0  0  0  0  0  0  0  0
   -1.4183   26.6930  -27.0145 H   0  0  0  0  0  0  0  0  0  0  0  0
    0.1350   25.5260  -26.0540 C   0  0  0  0  0  0  0  0  0  0  0  0
    0.1931   26.1890  -25.1782 H   0  0  0  0  0  0  0  0  0  0  0  0
    0.9580   24.3970  -26.1300 C   0  0  0  0  0  0  0  0  0  0  0  0
    1.8180   24.1150  -25.1190 F   0  0  0  0  0  0  0  0  0  0  0  0
    0.8770   23.5480  -27.2360 C   0  0  0  0  0  0  0  0  0  0  0  0
    1.5165   22.6547  -27.2904 H   0  0  0  0  0  0  0  0  0  0  0  0
   -0.0170   23.8320  -28.2760 C   0  0  0  0  0  0  0  0  0  0  0  0
   -0.1300   22.9530  -29.3030 F   0  0  0  0  0  0  0  0  0  0  0  0
   -3.6340   23.7420  -28.2260 S   0  0  0  0  0  0  0  0  0  0  0  0
   -5.0780   23.5870  -29.0770 C   0  0  0  0  0  0  0  0  0  0  0  0
   -5.9466   22.9844  -28.7730 H   0  0  0  0  0  0  0  0  0  0  0  0
   -6.7940   20.3320  -33.0840 C   0  0  0  0  0  0  0  0  0  0  0  0
   -5.9410   20.6608  -33.6959 H   0  0  0  0  0  0  0  0  0  0  0  0
   -5.2830   18.2420  -34.5670 C   0  0  0  0  0  0  0  0  0  0  0  0
   -4.9988   19.2345  -34.9467 H   0  0  0  0  0  0  0  0  0  0  0  0
   -4.7290   17.0440  -34.9570 C   0  0  0  0  0  0  0  0  0  0  0  0
   -3.9284   16.8828  -35.6939 H   0  0  0  0  0  0  0  0  0  0  0  0
  1  2  1  0
  2  3  2  0
  3  4  1  0
  4  5  1  0
  5  6  2  0
  6  7  1  0
  6  8  1  0
  8  9  1  0
  8 10  2  0
 10 11  1  0
 11 12  1  0
 11 13  1  0
 11 14  1  0
 10 15  1  0
 15 16  1  0
 16 17  1  0
 17 18  2  0
 17 19  1  0
 19 20  1  0
 19 21  1  0
 19 22  1  0
 22 23  1  0
 23 24  1  0
 24 25  2  0
 25 26  1  0
 26 27  2  0
 27 28  1  0
 27 29  1  0
 29 30  1  0
 29 31  2  0
 31 32  1  0
 31 33  1  0
 33 34  1  0
 33 35  2  0
 35 36  1  0
 24 37  1  0
 37 38  1  0
 38 39  1  0
 15 40  2  0
 40 41  1  0
  4 42  1  0
 42 43  1  0
 42 44  2  0
 44 45  1  0
 44  2  1  0
 40  5  1  0
 38 22  2  0
 35 26  1  0
M  CHG  2  16  -1  23  -1
M  END
>  <UniqueID>  (13) 
11

>  <SMILES>  (13) 
Cc1ccc(-n2cccn2)cc1[N-]C(=O)Cc1cs/c(=N/c2ccc(F)cc2F)[n-]1

>  <Energy>  (13) 
121.29021532774715

>  <Genealogy>  (13) 
Cc1ccc(-n2cccn2)cc1[N-]C(=O)Cc1csc(=Nc2ccc(F)cc2F)[n-]1 (protonated)
Cc1ccc(-n2cccn2)cc1[N-]C(=O)Cc1cs/c(=N/c2ccc(F)cc2F)[n-]1 (cis-trans isomerization)
Cc1ccc(-n2cccn2)cc1[N-]C(=O)Cc1cs/c(=N/c2ccc(F)cc2F)[n-]1 (3D coordinates assigned)
Cc1ccc(-n2cccn2)cc1[N-]C(=O)Cc1cs/c(=N/c2ccc(F)cc2F)[n-]1 (optimized conformer: 121.29021532774715 kcal/mol)

>  <smiles>  (13) 
Cc1ccc(-n2cccn2)cc1NC(=O)Cc1csc(=Nc2ccc(F)cc2F)[nH]1

>  <score_type>  (13) 
oracle

>  <origin>  (13) 
adg

>  <m_score__min__energy>  (13) 
-11.1

>  <m_primary>  (13) 
energy

$$$$
13:0
     RDKit          3D

 49 53  0  0  0  0  0  0  0  0999 V2000
   -9.0100   18.5960  -31.5090 C   0  0  0  0  0  0  0  0  0  0  0  0
   -8.6070   19.9270  -31.4250 C   0  0  0  0  0  0  0  0  0  0  0  0
   -7.5000   20.0220  -32.2450 C   0  0  0  0  0  0  0  0  0  0  0  0
   -6.6320   21.0680  -32.5600 C   0  0  0  0  0  0  0  0  0  0  0  0
   -6.8340   22.4020  -32.0570 N   0  0  0  0  0  0  0  0  0  0  0  0
   -5.8470   23.4530  -32.3350 C   0  0  0  0  0  0  0  0  0  0  0  0
   -5.7730   24.4470  -31.1630 C   0  0  0  0  0  0  0  0  0  0  0  0
   -5.9230   23.7650  -29.8590 N   0  0  0  0  0  0  0  0  0  0  0  0
   -4.7830   22.8680  -29.5710 C   0  0  0  0  0  0  0  0  0  0  0  0
   -3.6610   23.6370  -28.9260 C   0  0  0  0  0  0  0  0  0  0  0  0
   -2.4200   23.7840  -29.5830 C   0  0  0  0  0  0  0  0  0  0  0  0
   -1.3740   24.4920  -28.9730 C   0  0  0  0  0  0  0  0  0  0  0  0
   -1.5830   25.0450  -27.7090 C   0  0  0  0  0  0  0  0  0  0  0  0
   -2.7860   24.9060  -27.0640 C   0  0  0  0  0  0  0  0  0  0  0  0
   -3.8420   24.2060  -27.6500 C   0  0  0  0  0  0  0  0  0  0  0  0
   -2.7890   25.5650  -25.7390 C   0  0  0  0  0  0  0  0  0  0  0  0
   -1.3760   26.1700  -25.6180 C   0  0  0  0  0  0  0  0  0  0  0  0
   -0.6080   25.8190  -26.9080 C   0  0  0  0  0  0  0  0  0  0  0  0
   -7.2380   23.0800  -29.7200 C   0  0  0  0  0  0  0  0  0  0  0  0
   -7.8740   22.6700  -31.0630 C   0  0  0  0  0  0  0  0  0  0  0  0
   -5.5780   20.7870  -33.3900 N   0  0  0  0  0  0  0  0  0  0  0  0
   -5.3840   19.5280  -33.8970 C   0  0  0  0  0  0  0  0  0  0  0  0
   -6.2390   18.5120  -33.5820 N   0  0  0  0  0  0  0  0  0  0  0  0
   -7.2830   18.7790  -32.7610 C   0  0  0  0  0  0  0  0  0  0  0  0
   -8.1940   17.8970  -32.3290 N   0  0  0  0  0  0  0  0  0  0  0  0
   -9.8755   18.1713  -30.9794 H   0  0  0  0  0  0  0  0  0  0  0  0
   -9.0709   20.7296  -30.8328 H   0  0  0  0  0  0  0  0  0  0  0  0
   -4.8590   22.9921  -32.4815 H   0  0  0  0  0  0  0  0  0  0  0  0
   -6.1511   23.9953  -33.2425 H   0  0  0  0  0  0  0  0  0  0  0  0
   -4.7988   24.9572  -31.1888 H   0  0  0  0  0  0  0  0  0  0  0  0
   -6.5973   25.1674  -31.2708 H   0  0  0  0  0  0  0  0  0  0  0  0
   -5.1131   22.0692  -28.8906 H   0  0  0  0  0  0  0  0  0  0  0  0
   -4.4222   22.4346  -30.5154 H   0  0  0  0  0  0  0  0  0  0  0  0
   -2.2726   23.3408  -30.5789 H   0  0  0  0  0  0  0  0  0  0  0  0
   -0.4060   24.6092  -29.4821 H   0  0  0  0  0  0  0  0  0  0  0  0
   -4.8017   24.1002  -27.1230 H   0  0  0  0  0  0  0  0  0  0  0  0
   -3.5561   26.3522  -25.6959 H   0  0  0  0  0  0  0  0  0  0  0  0
   -3.0217   24.8677  -24.9207 H   0  0  0  0  0  0  0  0  0  0  0  0
   -1.4437   27.2623  -25.5069 H   0  0  0  0  0  0  0  0  0  0  0  0
   -0.8565   25.7662  -24.7365 H   0  0  0  0  0  0  0  0  0  0  0  0
   -0.3017   26.7314  -27.4407 H   0  0  0  0  0  0  0  0  0  0  0  0
    0.3164   25.2568  -26.7094 H   0  0  0  0  0  0  0  0  0  0  0  0
   -7.0938   22.1734  -29.1140 H   0  0  0  0  0  0  0  0  0  0  0  0
   -7.9241   23.7988  -29.2482 H   0  0  0  0  0  0  0  0  0  0  0  0
   -8.4781   21.7625  -30.9163 H   0  0  0  0  0  0  0  0  0  0  0  0
   -8.5099   23.4921  -31.4234 H   0  0  0  0  0  0  0  0  0  0  0  0
   -4.9140   21.5450  -33.6670 H   0  0  0  0  0  0  0  0  0  0  0  0
   -4.5310   19.3349  -34.5641 H   0  0  0  0  0  0  0  0  0  0  0  0
   -8.2540   16.8810  -32.5630 H   0  0  0  0  0  0  0  0  0  0  0  0
  1  2  2  0
  2  3  1  0
  3  4  2  0
  4  5  1  0
  5  6  1  0
  6  7  1  0
  7  8  1  0
  8  9  1  0
  9 10  1  0
 10 11  2  0
 11 12  1  0
 12 13  2  0
 13 14  1  0
 14 15  2  0
 14 16  1  0
 16 17  1  0
 17 18  1  0
  8 19  1  0
 19 20  1  0
  4 21  1  0
 21 22  2  0
 22 23  1  0
 23 24  2  0
 24 25  1  0
 25  1  1  0
 24  3  1  0
 20  5  1  0
 15 10  1  0
 18 13  1  0
  1 26  1  0
  2 27  1  0
  6 28  1  0
  6 29  1  0
  7 30  1  0
  7 31  1  0
  9 32  1  0
  9 33  1  0
 11 34  1  0
 12 35  1  0
 15 36  1  0
 16 37  1  0
 16 38  1  0
 17 39  1  0
 17 40  1  0
 18 41  1  0
 18 42  1  0
 19 43  1  0
 19 44  1  0
 20 45  1  0
 20 46  1  0
 21 47  1  0
 22 48  1  0
 25 49  1  0
M  CHG  1  21   1
M  END
>  <UniqueID>  (14) 
12

>  <SMILES>  (14) 
c1cc2c(N3CCN(Cc4ccc5c(c4)CCC5)CC3)[nH+]cnc2[nH]1

>  <Energy>  (14) 
107.51886630266578

>  <Genealogy>  (14) 
c1cc2c(N3CCN(Cc4ccc5c(c4)CCC5)CC3)[nH+]cnc2[nH]1 (protonated)
c1cc2c(N3CCN(Cc4ccc5c(c4)CCC5)CC3)[nH+]cnc2[nH]1 (3D coordinates assigned)
c1cc2c(N3CCN(Cc4ccc5c(c4)CCC5)CC3)[nH+]cnc2[nH]1 (nonaromatic ring conformer: 107.51886630266578 kcal/mol)

>  <smiles>  (14) 
c1nc(N2CCN(Cc3ccc4c(c3)CCC4)CC2)c2cc[nH]c2n1

>  <score_type>  (14) 
oracle

>  <origin>  (14) 
adg

>  <m_score__min__energy>  (14) 
-8.1600000000000001

>  <m_primary>  (14) 
energy

$$$$
14:0
     RDKit          3D

 37 39  0  0  0  0  0  0  0  0999 V2000
   -7.9090   19.5040  -32.6870 C   0  0  0  0  0  0  0  0  0  0  0  0
   -6.7480   19.7320  -33.4790 O   0  0  0  0  0  0  0  0  0  0  0  0
   -5.4500   19.8660  -32.9630 C   0  0  0  0  0  0  0  0  0  0  0  0
   -4.3740   19.8080  -33.8550 C   0  0  0  0  0  0  0  0  0  0  0  0
   -3.0460   19.9290  -33.3990 C   0  0  0  0  0  0  0  0  0  0  0  0
   -1.9580   19.8570  -34.2860 O   0  0  0  0  0  0  0  0  0  0  0  0
   -1.2280   18.6700  -34.5780 C   0  0  0  0  0  0  0  0  0  0  0  0
   -2.8070   20.1180  -32.0200 C   0  0  0  0  0  0  0  0  0  0  0  0
   -3.8920   20.1930  -31.1270 C   0  0  0  0  0  0  0  0  0  0  0  0
   -5.2000   20.0570  -31.5940 C   0  0  0  0  0  0  0  0  0  0  0  0
   -3.6770   20.4190  -29.7590 O   0  0  0  0  0  0  0  0  0  0  0  0
   -2.4020   20.7540  -29.1980 C   0  0  2  0  0  0  0  0  0  0  0  0
   -2.2130   22.2570  -29.1050 C   0  0  0  0  0  0  0  0  0  0  0  0
   -3.3010   23.1500  -29.1690 C   0  0  0  0  0  0  0  0  0  0  0  0
   -3.0890   24.5300  -29.1180 C   0  0  0  0  0  0  0  0  0  0  0  0
   -1.7920   25.0390  -29.0150 C   0  0  0  0  0  0  0  0  0  0  0  0
   -1.5840   26.4110  -28.9650 O   0  0  0  0  0  0  0  0  0  0  0  0
   -0.7030   24.1650  -28.9660 C   0  0  0  0  0  0  0  0  0  0  0  0
   -0.9100   22.7830  -29.0160 C   0  0  0  0  0  0  0  0  0  0  0  0
   -1.2510   20.0870  -29.9740 C   0  0  0  0  0  0  0  0  0  0  0  0
   -1.4430   20.2280  -31.4550 C   0  0  0  0  0  0  0  0  0  0  0  0
   -0.4360   20.3900  -32.1960 O   0  0  0  0  0  0  0  0  0  0  0  0
   -7.6419   19.5565  -31.6212 H   0  0  0  0  0  0  0  0  0  0  0  0
   -8.6641   20.2710  -32.9140 H   0  0  0  0  0  0  0  0  0  0  0  0
   -8.3180   18.5084  -32.9140 H   0  0  0  0  0  0  0  0  0  0  0  0
   -4.5673   19.6658  -34.9285 H   0  0  0  0  0  0  0  0  0  0  0  0
   -0.9286   18.1831  -33.6382 H   0  0  0  0  0  0  0  0  0  0  0  0
   -1.8608   17.9844  -35.1607 H   0  0  0  0  0  0  0  0  0  0  0  0
   -0.3307   18.9254  -35.1607 H   0  0  0  0  0  0  0  0  0  0  0  0
   -6.0405   20.0996  -30.8856 H   0  0  0  0  0  0  0  0  0  0  0  0
   -2.3798   20.3565  -28.1726 H   0  0  0  0  0  0  0  0  0  0  0  0
   -4.3247   22.7578  -29.2598 H   0  0  0  0  0  0  0  0  0  0  0  0
   -3.9462   25.2181  -29.1591 H   0  0  0  0  0  0  0  0  0  0  0  0
    0.3188   24.5647  -28.8880 H   0  0  0  0  0  0  0  0  0  0  0  0
   -0.0475   22.1010  -28.9855 H   0  0  0  0  0  0  0  0  0  0  0  0
   -0.3018   20.5637  -29.6881 H   0  0  0  0  0  0  0  0  0  0  0  0
   -1.2372   19.0157  -29.7246 H   0  0  0  0  0  0  0  0  0  0  0  0
  1  2  1  0
  2  3  1  0
  3  4  2  0
  4  5  1  0
  5  6  1  0
  6  7  1  0
  5  8  2  0
  8  9  1  0
  9 10  2  0
  9 11  1  0
 11 12  1  0
 12 13  1  0
 13 14  2  0
 14 15  1  0
 15 16  2  0
 16 17  1  0
 16 18  1  0
 18 19  2  0
 12 20  1  0
 20 21  1  0
 21 22  2  0
 10  3  1  0
 19 13  1  0
 21  8  1  0
  1 23  1  0
  1 24  1  0
  1 25  1  0
  4 26  1  0
  7 27  1  0
  7 28  1  0
  7 29  1  0
 10 30  1  0
 12 31  1  1
 14 32  1  0
 15 33  1  0
 18 34  1  0
 19 35  1  0
 20 36  1  0
 20 37  1  0
M  CHG  1  17  -1
M  END
>  <UniqueID>  (15) 
13

>  <SMILES>  (15) 
COc1cc(OC)c2c(c1)O[C@H](c1ccc([O-])cc1)CC2=O

>  <Energy>  (15) 
42.4541711727274

>  <Genealogy>  (15) 
COc1cc(OC)c2c(c1)OC(c1ccc([O-])cc1)CC2=O (protonated)
COc1cc(OC)c2c(c1)O[C@H](c1ccc([O-])cc1)CC2=O (chirality)
COc1cc(OC)c2c(c1)O[C@H](c1ccc([O-])cc1)CC2=O (3D coordinates assigned)
COc1cc(OC)c2c(c1)O[C@H](c1ccc([O-])cc1)CC2=O (nonaromatic ring conformer: 42.4541711727274 kcal/mol)

>  <smiles>  (15) 
COc1cc(OC)c2c(c1)OC(c1ccc(O)cc1)CC2=O

>  <score_type>  (15) 
oracle

>  <origin>  (15) 
adg

>  <m_score__min__energy>  (15) 
-7.5300000000000002

>  <m_primary>  (15) 
energy

$$$$
15:0
     RDKit          3D

 55 57  0  0  0  0  0  0  0  0999 V2000
    1.0860   23.7040  -27.0500 C   0  0  0  0  0  0  0  0  0  0  0  0
    0.6160   24.1760  -28.3070 O   0  0  0  0  0  0  0  0  0  0  0  0
   -0.5410   23.7210  -28.9590 C   0  0  0  0  0  0  0  0  0  0  0  0
   -0.6880   22.3630  -29.3020 C   0  0  0  0  0  0  0  0  0  0  0  0
   -1.8370   21.9060  -29.9570 C   0  0  0  0  0  0  0  0  0  0  0  0
   -1.9870   20.4440  -30.2840 C   0  0  0  0  0  0  0  0  0  0  0  0
   -0.6930   19.8620  -30.6390 N   0  0  0  0  0  0  0  0  0  0  0  0
   -0.0090   18.9440  -29.9350 C   0  0  0  0  0  0  0  0  0  0  0  0
    1.1530   18.6610  -30.6160 C   0  0  0  0  0  0  0  0  0  0  0  0
    1.2040   19.3910  -31.7500 N   0  0  0  0  0  0  0  0  0  0  0  0
    0.0600   20.1060  -31.7320 C   0  0  0  0  0  0  0  0  0  0  0  0
   -0.3950   21.2420  -33.0460 S   0  0  0  0  0  0  0  0  0  0  0  0
   -1.4080   20.0330  -33.9700 C   0  0  0  0  0  0  0  0  0  0  0  0
   -2.7840   19.9900  -33.3860 C   0  0  0  0  0  0  0  0  0  0  0  0
   -3.1490   18.9720  -32.7380 O   0  0  0  0  0  0  0  0  0  0  0  0
   -3.6480   21.1310  -33.5040 N   0  0  0  0  0  0  0  0  0  0  0  0
   -5.0280   21.1320  -33.1010 C   0  0  0  0  0  0  0  0  0  0  0  0
   -5.5640   22.1780  -32.3280 C   0  0  0  0  0  0  0  0  0  0  0  0
   -6.9040   22.1480  -31.9340 C   0  0  0  0  0  0  0  0  0  0  0  0
   -7.7240   21.0680  -32.2910 C   0  0  0  0  0  0  0  0  0  0  0  0
   -9.1720   21.0640  -31.9010 C   0  0  0  0  0  0  0  0  0  0  0  0
   -7.1910   20.0230  -33.0630 C   0  0  0  0  0  0  0  0  0  0  0  0
   -5.8480   20.0500  -33.4520 C   0  0  0  0  0  0  0  0  0  0  0  0
   -2.8440   22.8150  -30.2950 C   0  0  0  0  0  0  0  0  0  0  0  0
   -2.7240   24.1740  -29.9550 C   0  0  0  0  0  0  0  0  0  0  0  0
   -3.7320   25.1040  -30.2610 O   0  0  0  0  0  0  0  0  0  0  0  0
   -5.1230   24.8890  -30.0440 C   0  0  0  0  0  0  0  0  0  0  0  0
   -1.5790   24.6330  -29.2830 C   0  0  0  0  0  0  0  0  0  0  0  0
   -1.5400   26.0040  -28.9650 O   0  0  0  0  0  0  0  0  0  0  0  0
   -0.8670   26.6010  -27.8620 C   0  0  0  0  0  0  0  0  0  0  0  0
    0.5605   24.2317  -26.2404 H   0  0  0  0  0  0  0  0  0  0  0  0
    0.8940   22.6239  -26.9688 H   0  0  0  0  0  0  0  0  0  0  0  0
    2.1669   23.8914  -26.9688 H   0  0  0  0  0  0  0  0  0  0  0  0
    0.1122   21.6511  -29.0513 H   0  0  0  0  0  0  0  0  0  0  0  0
   -2.3925   19.9170  -29.4077 H   0  0  0  0  0  0  0  0  0  0  0  0
   -2.6703   20.3396  -31.1397 H   0  0  0  0  0  0  0  0  0  0  0  0
   -0.3233   18.4966  -28.9805 H   0  0  0  0  0  0  0  0  0  0  0  0
    1.9231   17.9482  -30.2862 H   0  0  0  0  0  0  0  0  0  0  0  0
   -1.4667   20.3343  -35.0263 H   0  0  0  0  0  0  0  0  0  0  0  0
   -0.9471   19.0367  -33.8994 H   0  0  0  0  0  0  0  0  0  0  0  0
   -3.2210   22.0390  -33.7980 H   0  0  0  0  0  0  0  0  0  0  0  0
   -4.9252   23.0233  -32.0325 H   0  0  0  0  0  0  0  0  0  0  0  0
   -7.3182   22.9763  -31.3404 H   0  0  0  0  0  0  0  0  0  0  0  0
   -9.2563   21.0638  -30.8042 H   0  0  0  0  0  0  0  0  0  0  0  0
   -9.6634   21.9608  -32.3063 H   0  0  0  0  0  0  0  0  0  0  0  0
   -9.6584   20.1645  -32.3063 H   0  0  0  0  0  0  0  0  0  0  0  0
   -7.8318   19.1806  -33.3626 H   0  0  0  0  0  0  0  0  0  0  0  0
   -5.4320   19.2167  -34.0373 H   0  0  0  0  0  0  0  0  0  0  0  0
   -3.7378   22.4640  -30.8315 H   0  0  0  0  0  0  0  0  0  0  0  0
   -5.3250   24.8578  -28.9632 H   0  0  0  0  0  0  0  0  0  0  0  0
   -5.6964   25.7092  -30.5006 H   0  0  0  0  0  0  0  0  0  0  0  0
   -5.4220   23.9340  -30.5006 H   0  0  0  0  0  0  0  0  0  0  0  0
   -1.2948   26.2215  -26.9224 H   0  0  0  0  0  0  0  0  0  0  0  0
    0.2030   26.3496  -27.9056 H   0  0  0  0  0  0  0  0  0  0  0  0
   -0.9890   27.6933  -27.9056 H   0  0  0  0  0  0  0  0  0  0  0  0
  1  2  1  0
  2  3  1  0
  3  4  2  0
  4  5  1  0
  5  6  1  0
  6  7  1  0
  7  8  1  0
  8  9  2  0
  9 10  1  0
 10 11  2  0
 11 12  1  0
 12 13  1  0
 13 14  1  0
 14 15  2  0
 14 16  1  0
 16 17  1  0
 17 18  2  0
 18 19  1  0
 19 20  2  0
 20 21  1  0
 20 22  1  0
 22 23  2  0
  5 24  2  0
 24 25  1  0
 25 26  1  0
 26 27  1  0
 25 28  2  0
 28 29  1  0
 29 30  1  0
 28  3  1  0
 11  7  1  0
 23 17  1  0
  1 31  1  0
  1 32  1  0
  1 33  1  0
  4 34  1  0
  6 35  1  0
  6 36  1  0
  8 37  1  0
  9 38  1  0
 13 39  1  0
 13 40  1  0
 16 41  1  0
 18 42  1  0
 19 43  1  0
 21 44  1  0
 21 45  1  0
 21 46  1  0
 22 47  1  0
 23 48  1  0
 24 49  1  0
 27 50  1  0
 27 51  1  0
 27 52  1  0
 30 53  1  0
 30 54  1  0
 30 55  1  0
M  END
>  <UniqueID>  (16) 
14

>  <SMILES>  (16) 
COc1cc(Cn2ccnc2SCC(=O)Nc2ccc(C)cc2)cc(OC)c1OC

>  <Energy>  (16) 
83.21825961374037

>  <Genealogy>  (16) 
COc1cc(Cn2ccnc2SCC(=O)Nc2ccc(C)cc2)cc(OC)c1OC (3D coordinates assigned)
COc1cc(Cn2ccnc2SCC(=O)Nc2ccc(C)cc2)cc(OC)c1OC (optimized conformer: 83.21825961374037 kcal/mol)

>  <smiles>  (16) 
COc1cc(Cn2ccnc2SCC(=O)Nc2ccc(C)cc2)cc(OC)c1OC

>  <score_type>  (16) 
oracle

>  <origin>  (16) 
adg

>  <m_score__min__energy>  (16) 
-8.6600000000000001

>  <m_primary>  (16) 
energy

$$$$
16:0
     RDKit          3D

 33 35  0  0  0  0  0  0  0  0999 V2000
   -8.6130   23.7790  -31.9590 O   0  0  0  0  0  0  0  0  0  0  0  0
   -7.7370   22.9580  -31.5730 C   0  0  0  0  0  0  0  0  0  0  0  0
   -8.0780   21.5720  -31.4090 N   0  0  0  0  0  0  0  0  0  0  0  0
   -9.4020   21.0480  -31.7410 C   0  0  0  0  0  0  0  0  0  0  0  0
   -9.2840   19.8820  -32.7250 C   0  0  0  0  0  0  0  0  0  0  0  0
   -7.9170   19.2580  -32.6460 C   0  0  0  0  0  0  0  0  0  0  0  0
   -7.6480   18.2460  -31.7130 C   0  0  0  0  0  0  0  0  0  0  0  0
   -6.3670   17.6980  -31.6270 C   0  0  0  0  0  0  0  0  0  0  0  0
   -5.3620   18.1750  -32.4710 C   0  0  0  0  0  0  0  0  0  0  0  0
   -5.6330   19.1650  -33.3610 N   0  0  0  0  0  0  0  0  0  0  0  0
   -6.8720   19.7150  -33.4640 C   0  0  0  0  0  0  0  0  0  0  0  0
   -6.3710   23.4400  -31.2910 C   0  0  0  0  0  0  0  0  0  0  0  0
   -5.9240   24.7540  -31.1430 C   0  0  0  0  0  0  0  0  0  0  0  0
   -4.5930   24.7670  -30.8820 N   0  0  0  0  0  0  0  0  0  0  0  0
   -4.1970   23.5060  -30.8610 N   0  0  0  0  0  0  0  0  0  0  0  0
   -2.9440   23.0450  -30.6350 C   0  0  0  0  0  0  0  0  0  0  0  0
   -2.7420   21.6590  -30.6550 C   0  0  0  0  0  0  0  0  0  0  0  0
   -3.8430   20.8160  -30.9080 C   0  0  0  0  0  0  0  0  0  0  0  0
   -5.0830   21.3440  -31.1290 N   0  0  0  0  0  0  0  0  0  0  0  0
   -5.2310   22.6910  -31.1000 C   0  0  0  0  0  0  0  0  0  0  0  0
   -7.3860   20.9150  -30.9850 H   0  0  0  0  0  0  0  0  0  0  0  0
   -9.8940   20.6978  -30.8216 H   0  0  0  0  0  0  0  0  0  0  0  0
   -9.9957   21.8485  -32.2065 H   0  0  0  0  0  0  0  0  0  0  0  0
  -10.0422   19.1238  -32.4795 H   0  0  0  0  0  0  0  0  0  0  0  0
   -9.4418   20.2618  -33.7452 H   0  0  0  0  0  0  0  0  0  0  0  0
   -8.4466   17.8840  -31.0488 H   0  0  0  0  0  0  0  0  0  0  0  0
   -6.1516   16.8991  -30.9022 H   0  0  0  0  0  0  0  0  0  0  0  0
   -4.3495   17.7486  -32.4152 H   0  0  0  0  0  0  0  0  0  0  0  0
   -7.0560   20.5203  -34.1904 H   0  0  0  0  0  0  0  0  0  0  0  0
   -6.5586   25.6486  -31.2259 H   0  0  0  0  0  0  0  0  0  0  0  0
   -2.1111   23.7370  -30.4418 H   0  0  0  0  0  0  0  0  0  0  0  0
   -1.7423   21.2362  -30.4765 H   0  0  0  0  0  0  0  0  0  0  0  0
   -3.7025   19.7252  -30.9276 H   0  0  0  0  0  0  0  0  0  0  0  0
  1  2  2  0
  2  3  1  0
  3  4  1  0
  4  5  1  0
  5  6  1  0
  6  7  2  0
  7  8  1  0
  8  9  2  0
  9 10  1  0
 10 11  2  0
  2 12  1  0
 12 13  1  0
 13 14  2  0
 14 15  1  0
 15 16  1  0
 16 17  2  0
 17 18  1  0
 18 19  2  0
 19 20  1  0
 11  6  1  0
 20 12  2  0
 20 15  1  0
  3 21  1  0
  4 22  1  0
  4 23  1  0
  5 24  1  0
  5 25  1  0
  7 26  1  0
  8 27  1  0
  9 28  1  0
 11 29  1  0
 13 30  1  0
 16 31  1  0
 17 32  1  0
 18 33  1  0
M  END
>  <UniqueID>  (17) 
15

>  <SMILES>  (17) 
O=C(NCCc1cccnc1)c1cnn2cccnc12

>  <Energy>  (17) 
69.35751938208963

>  <Genealogy>  (17) 
O=C(NCCc1cccnc1)c1cnn2cccnc12 (3D coordinates assigned)
O=C(NCCc1cccnc1)c1cnn2cccnc12 (optimized conformer: 69.35751938208963 kcal/mol)

>  <smiles>  (17) 
O=C(NCCc1cccnc1)c1cnn2cccnc12

>  <score_type>  (17) 
oracle

>  <origin>  (17) 
adg

>  <m_score__min__energy>  (17) 
-7.4100000000000001

>  <m_primary>  (17) 
energy

$$$$
17:0
     RDKit          3D

 32 33  0  0  0  0  0  0  0  0999 V2000
   -2.2300   24.8020  -27.9530 C   0  0  0  0  0  0  0  0  0  0  0  0
   -2.5880   25.0050  -29.3520 N   0  0  0  0  0  0  0  0  0  0  0  0
   -3.6880   24.3350  -29.9970 C   0  0  0  0  0  0  0  0  0  0  0  0
   -4.9530   24.9390  -30.1180 C   0  0  0  0  0  0  0  0  0  0  0  0
   -6.0010   24.2630  -30.7510 C   0  0  0  0  0  0  0  0  0  0  0  0
   -5.8060   22.9760  -31.2770 C   0  0  0  0  0  0  0  0  0  0  0  0
   -6.8920   22.2750  -31.9180 N   0  0  0  0  0  0  0  0  0  0  0  0
   -6.6630   20.9380  -32.4870 C   0  0  0  0  0  0  0  0  0  0  0  0
   -7.9870   20.2160  -32.7800 C   0  0  0  0  0  0  0  0  0  0  0  0
   -8.9730   20.4210  -31.6220 C   0  0  0  0  0  0  0  0  0  0  0  0
   -9.2670   21.9120  -31.3480 C   0  0  0  0  0  0  0  0  0  0  0  0
   -8.2370   22.8640  -31.9770 C   0  0  0  0  0  0  0  0  0  0  0  0
   -4.5460   22.3710  -31.1480 C   0  0  0  0  0  0  0  0  0  0  0  0
   -3.4970   23.0460  -30.5170 C   0  0  0  0  0  0  0  0  0  0  0  0
   -3.0055   25.2417  -27.3086 H   0  0  0  0  0  0  0  0  0  0  0  0
   -2.1503   23.7243  -27.7476 H   0  0  0  0  0  0  0  0  0  0  0  0
   -1.2642   25.2869  -27.7476 H   0  0  0  0  0  0  0  0  0  0  0  0
   -2.0100   25.6750  -29.9080 H   0  0  0  0  0  0  0  0  0  0  0  0
   -5.1186   25.9481  -29.7126 H   0  0  0  0  0  0  0  0  0  0  0  0
   -6.9866   24.7438  -30.8375 H   0  0  0  0  0  0  0  0  0  0  0  0
   -6.0969   21.0408  -33.4245 H   0  0  0  0  0  0  0  0  0  0  0  0
   -6.1004   20.3424  -31.7529 H   0  0  0  0  0  0  0  0  0  0  0  0
   -8.4241   20.6207  -33.7047 H   0  0  0  0  0  0  0  0  0  0  0  0
   -7.7898   19.1400  -32.8959 H   0  0  0  0  0  0  0  0  0  0  0  0
   -9.9179   19.9156  -31.8705 H   0  0  0  0  0  0  0  0  0  0  0  0
   -8.5136   20.0004  -30.7154 H   0  0  0  0  0  0  0  0  0  0  0  0
  -10.2593   22.1525  -31.7573 H   0  0  0  0  0  0  0  0  0  0  0  0
   -9.2197   22.0570  -30.2586 H   0  0  0  0  0  0  0  0  0  0  0  0
   -8.5068   23.0470  -33.0276 H   0  0  0  0  0  0  0  0  0  0  0  0
   -8.2369   23.8104  -31.4164 H   0  0  0  0  0  0  0  0  0  0  0  0
   -4.3829   21.3587  -31.5462 H   0  0  0  0  0  0  0  0  0  0  0  0
   -2.5131   22.5623  -30.4274 H   0  0  0  0  0  0  0  0  0  0  0  0
  1  2  1  0
  2  3  1  0
  3  4  2  0
  4  5  1  0
  5  6  2  0
  6  7  1  0
  7  8  1  0
  8  9  1  0
  9 10  1  0
 10 11  1  0
 11 12  1  0
  6 13  1  0
 13 14  2  0
 14  3  1  0
 12  7  1  0
  1 15  1  0
  1 16  1  0
  1 17  1  0
  2 18  1  0
  4 19  1  0
  5 20  1  0
  8 21  1  0
  8 22  1  0
  9 23  1  0
  9 24  1  0
 10 25  1  0
 10 26  1  0
 11 27  1  0
 11 28  1  0
 12 29  1  0
 12 30  1  0
 13 31  1  0
 14 32  1  0
M  END
>  <UniqueID>  (18) 
16

>  <SMILES>  (18) 
CNc1ccc(N2CCCCC2)cc1

>  <Energy>  (18) 
34.568143763417595

>  <Genealogy>  (18) 
CNc1ccc(N2CCCCC2)cc1 (3D coordinates assigned)
CNc1ccc(N2CCCCC2)cc1 (nonaromatic ring conformer: 34.568143763417595 kcal/mol)

>  <smiles>  (18) 
CNc1ccc(N2CCCCC2)cc1

>  <score_type>  (18) 
oracle

>  <origin>  (18) 
adg

>  <m_score__min__energy>  (18) 
-6.7599999999999998

>  <m_primary>  (18) 
energy

$$$$
18:0
     RDKit          3D

 42 45  0  0  0  0  0  0  0  0999 V2000
    3.4090   19.2800  -33.5870 C   0  0  0  0  0  0  0  0  0  0  0  0
    2.5750   20.4070  -33.8340 O   0  0  0  0  0  0  0  0  0  0  0  0
    1.1780   20.3990  -33.7110 C   0  0  0  0  0  0  0  0  0  0  0  0
    0.3240   20.7750  -34.7640 C   0  0  0  0  0  0  0  0  0  0  0  0
   -1.0640   20.7480  -34.5900 C   0  0  0  0  0  0  0  0  0  0  0  0
   -1.6190   20.3400  -33.3670 C   0  0  0  0  0  0  0  0  0  0  0  0
   -3.0480   20.3250  -33.1770 N   0  0  0  0  0  0  0  0  0  0  0  0
   -3.7470   19.2590  -33.6090 N   0  0  0  0  0  0  0  0  0  0  0  0
   -5.1070   19.1640  -33.4700 C   0  0  0  0  0  0  0  0  0  0  0  0
   -5.8300   17.9480  -33.9700 C   0  0  0  0  0  0  0  0  0  0  0  0
   -5.7710   20.2300  -32.8520 C   0  0  0  0  0  0  0  0  0  0  0  0
   -7.1030   20.4820  -32.5560 C   0  0  0  0  0  0  0  0  0  0  0  0
   -8.2730   19.7440  -32.7700 C   0  0  0  0  0  0  0  0  0  0  0  0
   -9.4930   20.2990  -32.3500 C   0  0  0  0  0  0  0  0  0  0  0  0
   -9.5300   21.5640  -31.7330 C   0  0  0  0  0  0  0  0  0  0  0  0
   -8.3470   22.2920  -31.5260 C   0  0  0  0  0  0  0  0  0  0  0  0
   -7.1360   21.7260  -31.9460 C   0  0  0  0  0  0  0  0  0  0  0  0
   -5.8890   22.2510  -31.8460 N   0  0  0  0  0  0  0  0  0  0  0  0
   -5.5000   23.5460  -31.2790 C   0  0  0  0  0  0  0  0  0  0  0  0
   -5.0680   21.3270  -32.4090 C   0  0  0  0  0  0  0  0  0  0  0  0
   -3.6830   21.3890  -32.5800 C   0  0  0  0  0  0  0  0  0  0  0  0
   -3.0330   22.4060  -32.2120 O   0  0  0  0  0  0  0  0  0  0  0  0
   -0.7650   19.9740  -32.3150 C   0  0  0  0  0  0  0  0  0  0  0  0
    0.6210   20.0010  -32.4880 C   0  0  0  0  0  0  0  0  0  0  0  0
    3.5168   19.1344  -32.5020 H   0  0  0  0  0  0  0  0  0  0  0  0
    2.9554   18.3831  -34.0341 H   0  0  0  0  0  0  0  0  0  0  0  0
    4.3993   19.4517  -34.0341 H   0  0  0  0  0  0  0  0  0  0  0  0
    0.7492   21.0914  -35.7279 H   0  0  0  0  0  0  0  0  0  0  0  0
   -1.7244   21.0484  -35.4168 H   0  0  0  0  0  0  0  0  0  0  0  0
   -3.2360   18.4630  -34.0560 H   0  0  0  0  0  0  0  0  0  0  0  0
   -6.1833   17.3538  -33.1144 H   0  0  0  0  0  0  0  0  0  0  0  0
   -6.6904   18.2584  -34.5811 H   0  0  0  0  0  0  0  0  0  0  0  0
   -5.1464   17.3404  -34.5811 H   0  0  0  0  0  0  0  0  0  0  0  0
   -8.2380   18.7567  -33.2537 H   0  0  0  0  0  0  0  0  0  0  0  0
  -10.4279   19.7403  -32.5045 H   0  0  0  0  0  0  0  0  0  0  0  0
  -10.4934   21.9856  -31.4104 H   0  0  0  0  0  0  0  0  0  0  0  0
   -8.3705   23.2816  -31.0462 H   0  0  0  0  0  0  0  0  0  0  0  0
   -5.5181   23.4857  -30.1808 H   0  0  0  0  0  0  0  0  0  0  0  0
   -4.4849   23.8035  -31.6154 H   0  0  0  0  0  0  0  0  0  0  0  0
   -6.2052   24.3203  -31.6154 H   0  0  0  0  0  0  0  0  0  0  0  0
   -1.1895   19.6641  -31.3487 H   0  0  0  0  0  0  0  0  0  0  0  0
    1.2804   19.7076  -31.6578 H   0  0  0  0  0  0  0  0  0  0  0  0
  1  2  1  0
  2  3  1  0
  3  4  2  0
  4  5  1  0
  5  6  2  0
  6  7  1  0
  7  8  1  0
  8  9  2  0
  9 10  1  0
  9 11  1  0
 11 12  1  0
 12 13  2  0
 13 14  1  0
 14 15  2  0
 15 16  1  0
 16 17  2  0
 17 18  1  0
 18 19  1  0
 18 20  1  0
 20 21  1  0
 21 22  2  0
  6 23  1  0
 23 24  2  0
 24  3  1  0
 21  7  1  0
 20 11  2  0
 17 12  1  0
  1 25  1  0
  1 26  1  0
  1 27  1  0
  4 28  1  0
  5 29  1  0
  8 30  1  0
 10 31  1  0
 10 32  1  0
 10 33  1  0
 13 34  1  0
 14 35  1  0
 15 36  1  0
 16 37  1  0
 19 38  1  0
 19 39  1  0
 19 40  1  0
 23 41  1  0
 24 42  1  0
M  CHG  1   8   1
M  END
>  <UniqueID>  (19) 
17

>  <SMILES>  (19) 
COc1ccc(-n2[nH+]c(C)c3c4ccccc4n(C)c3c2=O)cc1

>  <Energy>  (19) 
99.36518590422345

>  <Genealogy>  (19) 
COc1ccc(-n2[nH+]c(C)c3c4ccccc4n(C)c3c2=O)cc1 (protonated)
COc1ccc(-n2[nH+]c(C)c3c4ccccc4n(C)c3c2=O)cc1 (3D coordinates assigned)
COc1ccc(-n2[nH+]c(C)c3c4ccccc4n(C)c3c2=O)cc1 (optimized conformer: 99.36518590422345 kcal/mol)

>  <smiles>  (19) 
COc1ccc(-n2nc(C)c3c4ccccc4n(C)c3c2=O)cc1

>  <score_type>  (19) 
oracle

>  <origin>  (19) 
adg

>  <m_score__min__energy>  (19) 
-7.1600000000000001

>  <m_primary>  (19) 
energy

$$$$
19:0
     RDKit          3D

 42 44  0  0  0  0  0  0  0  0999 V2000
   -1.9149   21.0896  -25.3183 H   0  0  0  0  0  0  0  0  0  0  0  0
   -1.2210   21.5030  -26.0650 C   0  0  0  0  0  0  0  0  0  0  0  0
   -0.3680   22.3600  -25.7120 O   0  0  0  0  0  0  0  0  0  0  0  0
   -1.3010   21.0570  -27.4300 N   0  0  0  0  0  0  0  0  0  0  0  0
   -0.6660   21.8500  -28.4900 C   0  0  0  0  0  0  0  0  0  0  0  0
    0.1333   22.4638  -28.0491 H   0  0  0  0  0  0  0  0  0  0  0  0
   -0.2550   21.1607  -29.2423 H   0  0  0  0  0  0  0  0  0  0  0  0
   -1.6620   22.7520  -29.1640 C   0  0  0  0  0  0  0  0  0  0  0  0
   -2.8660   22.1980  -30.2050 S   0  0  0  0  0  0  0  0  0  0  0  0
   -3.5140   23.7350  -30.4490 C   0  0  0  0  0  0  0  0  0  0  0  0
   -4.5670   24.0240  -31.1570 N   0  0  0  0  0  0  0  0  0  0  0  0
   -5.7110   23.1820  -31.3650 C   0  0  0  0  0  0  0  0  0  0  0  0
   -6.9900   23.7290  -31.2030 C   0  0  0  0  0  0  0  0  0  0  0  0
   -7.0981   24.7792  -30.8940 H   0  0  0  0  0  0  0  0  0  0  0  0
   -8.1300   22.9540  -31.4300 C   0  0  0  0  0  0  0  0  0  0  0  0
   -9.1286   23.3906  -31.2810 H   0  0  0  0  0  0  0  0  0  0  0  0
   -8.0050   21.6220  -31.8470 C   0  0  0  0  0  0  0  0  0  0  0  0
   -9.1420   20.8320  -32.0780 C   0  0  0  0  0  0  0  0  0  0  0  0
  -10.1450   21.2560  -31.9223 H   0  0  0  0  0  0  0  0  0  0  0  0
   -9.0040   19.5090  -32.5050 C   0  0  0  0  0  0  0  0  0  0  0  0
   -9.8983   18.8939  -32.6835 H   0  0  0  0  0  0  0  0  0  0  0  0
   -7.7320   18.9650  -32.7060 C   0  0  0  0  0  0  0  0  0  0  0  0
   -7.6288   17.9229  -33.0426 H   0  0  0  0  0  0  0  0  0  0  0  0
   -6.5910   19.7400  -32.4810 C   0  0  0  0  0  0  0  0  0  0  0  0
   -5.5929   19.3075  -32.6441 H   0  0  0  0  0  0  0  0  0  0  0  0
   -6.7160   21.0700  -32.0470 C   0  0  0  0  0  0  0  0  0  0  0  0
   -5.5780   21.8570  -31.8170 C   0  0  0  0  0  0  0  0  0  0  0  0
   -4.5768   21.4358  -31.9910 H   0  0  0  0  0  0  0  0  0  0  0  0
   -2.8440   24.6660  -29.7380 N   0  0  0  0  0  0  0  0  0  0  0  0
   -3.1110   25.6760  -29.7290 H   0  0  0  0  0  0  0  0  0  0  0  0
   -1.8000   24.1440  -29.0310 C   0  0  0  0  0  0  0  0  0  0  0  0
   -0.9510   25.0020  -28.1300 C   0  0  0  0  0  0  0  0  0  0  0  0
   -1.0080   26.3150  -28.5590 F   0  0  0  0  0  0  0  0  0  0  0  0
   -1.3970   24.9230  -26.8240 F   0  0  0  0  0  0  0  0  0  0  0  0
    0.3660   24.5820  -28.1620 F   0  0  0  0  0  0  0  0  0  0  0  0
   -1.9640   19.7870  -27.7610 C   0  0  0  0  0  0  0  0  0  0  0  0
   -1.2010   19.0362  -28.0142 H   0  0  0  0  0  0  0  0  0  0  0  0
   -2.6360   19.9504  -28.6164 H   0  0  0  0  0  0  0  0  0  0  0  0
   -2.7870   19.2860  -26.5780 C   0  0  0  0  0  0  0  0  0  0  0  0
   -2.2979   19.5837  -25.6388 H   0  0  0  0  0  0  0  0  0  0  0  0
   -3.7952   19.7237  -26.6212 H   0  0  0  0  0  0  0  0  0  0  0  0
   -2.8612   18.1894  -26.6212 H   0  0  0  0  0  0  0  0  0  0  0  0
  1  2  1  0
  2  3  2  0
  2  4  1  0
  4  5  1  0
  5  6  1  0
  5  7  1  0
  5  8  1  0
  8  9  1  0
  9 10  1  0
 10 11  2  0
 11 12  1  0
 12 13  2  0
 13 14  1  0
 13 15  1  0
 15 16  1  0
 15 17  2  0
 17 18  1  0
 18 19  1  0
 18 20  2  0
 20 21  1  0
 20 22  1  0
 22 23  1  0
 22 24  2  0
 24 25  1  0
 24 26  1  0
 26 27  2  0
 27 28  1  0
 10 29  1  0
 29 30  1  0
 29 31  1  0
 31 32  1  0
 32 33  1  0
 32 34  1  0
 32 35  1  0
  4 36  1  0
 36 37  1  0
 36 38  1  0
 36 39  1  0
 39 40  1  0
 39 41  1  0
 39 42  1  0
 31  8  2  0
 27 12  1  0
 26 17  1  0
M  END
>  <UniqueID>  (20) 
18

>  <SMILES>  (20) 
CCN(C=O)Cc1s/c(=N\c2ccc3ccccc3c2)[nH]c1C(F)(F)F

>  <Energy>  (20) 
78.71724683998347

>  <Genealogy>  (20) 
CCN(C=O)Cc1s/c(=N\c2ccc3ccccc3c2)[nH]c1C(F)(F)F (cis-trans isomerization)
CCN(C=O)Cc1s/c(=N\c2ccc3ccccc3c2)[nH]c1C(F)(F)F (3D coordinates assigned)
CCN(C=O)Cc1s/c(=N\c2ccc3ccccc3c2)[nH]c1C(F)(F)F (optimized conformer: 78.71724683998347 kcal/mol)

>  <smiles>  (20) 
CCN(C=O)Cc1sc(=Nc2ccc3ccccc3c2)[nH]c1C(F)(F)F

>  <score_type>  (20) 
oracle

>  <origin>  (20) 
adg

>  <m_score__min__energy>  (20) 
-8.4499999999999993

>  <m_primary>  (20) 
energy

$$$$
20:0
     RDKit          3D

 57 60  0  0  0  0  0  0  0  0999 V2000
   -2.5150   18.8310  -32.7060 C   0  0  0  0  0  0  0  0  0  0  0  0
   -3.9700   18.9720  -32.9600 N   0  0  0  0  0  0  0  0  0  0  0  0
   -4.2260   20.3040  -33.5810 C   0  0  0  0  0  0  0  0  0  0  0  0
   -4.2330   21.4370  -32.5790 C   0  0  0  0  0  0  0  0  0  0  0  0
   -3.0820   22.1140  -32.2180 C   0  0  0  0  0  0  0  0  0  0  0  0
   -3.3330   22.9220  -31.1740 N   0  0  0  0  0  0  0  0  0  0  0  0
   -4.6390   22.7250  -30.9110 C   0  0  0  0  0  0  0  0  0  0  0  0
   -5.3550   23.3190  -29.8600 C   0  0  0  0  0  0  0  0  0  0  0  0
   -4.7830   24.1880  -28.9160 O   0  0  0  0  0  0  0  0  0  0  0  0
   -4.2060   23.8270  -27.6590 C   0  0  0  0  0  0  0  0  0  0  0  0
   -2.8800   23.0730  -27.8350 C   0  0  0  0  0  0  0  0  0  0  0  0
   -1.7880   23.9190  -28.4990 C   0  0  0  0  0  0  0  0  0  0  0  0
   -2.3930   24.9800  -29.2980 N   0  0  0  0  0  0  0  0  0  0  0  0
   -6.6820   23.0360  -29.7550 N   0  0  0  0  0  0  0  0  0  0  0  0
   -7.3120   22.1840  -30.6180 C   0  0  0  0  0  0  0  0  0  0  0  0
   -8.6840   21.9260  -30.4720 C   0  0  0  0  0  0  0  0  0  0  0  0
   -9.3410   21.0890  -31.3740 C   0  0  0  0  0  0  0  0  0  0  0  0
   -8.6400   20.5170  -32.4330 C   0  0  0  0  0  0  0  0  0  0  0  0
   -7.2720   20.7610  -32.5890 C   0  0  0  0  0  0  0  0  0  0  0  0
   -6.5790   21.5720  -31.6700 C   0  0  0  0  0  0  0  0  0  0  0  0
   -5.2370   21.8540  -31.7590 N   0  0  0  0  0  0  0  0  0  0  0  0
   -4.4830   17.8750  -33.8530 C   0  0  0  0  0  0  0  0  0  0  0  0
   -5.9530   18.1210  -34.3010 C   0  0  0  0  0  0  0  0  0  0  0  0
   -7.0220   17.6940  -33.2660 C   0  0  0  0  0  0  0  0  0  0  0  0
   -6.4370   17.3680  -31.8880 C   0  0  0  0  0  0  0  0  0  0  0  0
   -5.3400   16.2980  -31.9790 C   0  0  0  0  0  0  0  0  0  0  0  0
   -4.4370   16.4520  -33.2230 C   0  0  0  0  0  0  0  0  0  0  0  0
   -2.3321   18.8133  -31.6215 H   0  0  0  0  0  0  0  0  0  0  0  0
   -2.1537   17.8936  -33.1541 H   0  0  0  0  0  0  0  0  0  0  0  0
   -1.9804   19.6815  -33.1541 H   0  0  0  0  0  0  0  0  0  0  0  0
   -3.4396   20.4999  -34.3248 H   0  0  0  0  0  0  0  0  0  0  0  0
   -5.2260   20.2651  -34.0375 H   0  0  0  0  0  0  0  0  0  0  0  0
   -2.1053   22.0068  -32.7126 H   0  0  0  0  0  0  0  0  0  0  0  0
   -4.0208   24.7416  -27.0766 H   0  0  0  0  0  0  0  0  0  0  0  0
   -4.9106   23.1620  -27.1381 H   0  0  0  0  0  0  0  0  0  0  0  0
   -2.5232   22.7571  -26.8436 H   0  0  0  0  0  0  0  0  0  0  0  0
   -3.0765   22.2158  -28.4958 H   0  0  0  0  0  0  0  0  0  0  0  0
   -1.1514   24.3667  -27.7217 H   0  0  0  0  0  0  0  0  0  0  0  0
   -1.1820   23.2757  -29.1539 H   0  0  0  0  0  0  0  0  0  0  0  0
   -3.0750   25.4870  -28.6870 H   0  0  0  0  0  0  0  0  0  0  0  0
   -2.9530   24.5360  -30.0610 H   0  0  0  0  0  0  0  0  0  0  0  0
   -7.2230   23.4830  -28.9800 H   0  0  0  0  0  0  0  0  0  0  0  0
   -9.2430   22.3854  -29.6435 H   0  0  0  0  0  0  0  0  0  0  0  0
  -10.4138   20.8805  -31.2488 H   0  0  0  0  0  0  0  0  0  0  0  0
   -9.1655   19.8697  -33.1506 H   0  0  0  0  0  0  0  0  0  0  0  0
   -6.7323   20.3152  -33.4375 H   0  0  0  0  0  0  0  0  0  0  0  0
   -3.7919   17.9073  -34.7081 H   0  0  0  0  0  0  0  0  0  0  0  0
   -6.0763   19.1962  -34.4980 H   0  0  0  0  0  0  0  0  0  0  0  0
   -6.1157   17.4976  -35.1926 H   0  0  0  0  0  0  0  0  0  0  0  0
   -7.7454   18.5149  -33.1526 H   0  0  0  0  0  0  0  0  0  0  0  0
   -7.4930   16.7750  -33.6451 H   0  0  0  0  0  0  0  0  0  0  0  0
   -6.0073   18.2841  -31.4567 H   0  0  0  0  0  0  0  0  0  0  0  0
   -7.2467   16.9778  -31.2538 H   0  0  0  0  0  0  0  0  0  0  0  0
   -4.7101   16.3666  -31.0798 H   0  0  0  0  0  0  0  0  0  0  0  0
   -5.8424   15.3228  -32.0601 H   0  0  0  0  0  0  0  0  0  0  0  0
   -3.3995   16.2351  -32.9288 H   0  0  0  0  0  0  0  0  0  0  0  0
   -4.8113   15.7501  -33.9828 H   0  0  0  0  0  0  0  0  0  0  0  0
  1  2  1  0
  2  3  1  0
  3  4  1  0
  4  5  2  0
  5  6  1  0
  6  7  2  0
  7  8  1  0
  8  9  1  0
  9 10  1  0
 10 11  1  0
 11 12  1  0
 12 13  1  0
  8 14  2  0
 14 15  1  0
 15 16  2  0
 16 17  1  0
 17 18  2  0
 18 19  1  0
 19 20  2  0
 20 21  1  0
  2 22  1  0
 22 23  1  0
 23 24  1  0
 24 25  1  0
 25 26  1  0
 26 27  1  0
 21  4  1  0
 27 22  1  0
 21  7  1  0
 20 15  1  0
  1 28  1  0
  1 29  1  0
  1 30  1  0
  3 31  1  0
  3 32  1  0
  5 33  1  0
 10 34  1  0
 10 35  1  0
 11 36  1  0
 11 37  1  0
 12 38  1  0
 12 39  1  0
 13 40  1  0
 13 41  1  0
 14 42  1  0
 16 43  1  0
 17 44  1  0
 18 45  1  0
 19 46  1  0
 22 47  1  0
 23 48  1  0
 23 49  1  0
 24 50  1  0
 24 51  1  0
 25 52  1  0
 25 53  1  0
 26 54  1  0
 26 55  1  0
 27 56  1  0
 27 57  1  0
M  CHG  1  14   1
M  END
>  <UniqueID>  (21) 
19

>  <SMILES>  (21) 
CN(Cc1cnc2c(OCCCN)[nH+]c3ccccc3n12)C1CCCCC1

>  <Energy>  (21) 
115.7895398770507

>  <Genealogy>  (21) 
CN(Cc1cnc2c(OCCCN)[nH+]c3ccccc3n12)C1CCCCC1 (protonated)
CN(Cc1cnc2c(OCCCN)[nH+]c3ccccc3n12)C1CCCCC1 (3D coordinates assigned)
CN(Cc1cnc2c(OCCCN)[nH+]c3ccccc3n12)C1CCCCC1 (nonaromatic ring conformer: 115.7895398770507 kcal/mol)

>  <smiles>  (21) 
CN(Cc1cnc2c(OCCCN)nc3ccccc3n12)C1CCCCC1

>  <score_type>  (21) 
oracle

>  <origin>  (21) 
adg

>  <m_score__min__energy>  (21) 
-7.54

>  <m_primary>  (21) 
energy

$$$$
21:0
     RDKit          3D

 38 40  0  0  0  0  0  0  0  0999 V2000
    0.0980   20.4660  -32.6580 C   0  0  0  0  0  0  0  0  0  0  0  0
   -0.5770   21.0470  -31.5480 O   0  0  0  0  0  0  0  0  0  0  0  0
   -1.8800   21.5640  -31.5960 C   0  0  0  0  0  0  0  0  0  0  0  0
   -2.9020   20.9680  -32.3750 C   0  0  0  0  0  0  0  0  0  0  0  0
   -4.1870   21.5280  -32.3850 C   0  0  0  0  0  0  0  0  0  0  0  0
   -4.4210   22.6350  -31.6290 N   0  0  0  0  0  0  0  0  0  0  0  0
   -5.5320   23.3850  -31.4550 C   0  0  0  0  0  0  0  0  0  0  0  0
   -6.8630   23.1300  -32.0520 C   0  0  0  0  0  0  0  0  0  0  0  0
   -7.2380   23.8040  -33.0500 O   0  0  0  0  0  0  0  0  0  0  0  0
   -7.7300   22.2030  -31.4620 O   0  0  0  0  0  0  0  0  0  0  0  0
   -7.8160   20.8420  -31.7940 C   0  0  0  0  0  0  0  0  0  0  0  0
   -8.7710   19.9860  -31.2150 C   0  0  0  0  0  0  0  0  0  0  0  0
   -8.8210   18.6380  -31.5810 C   0  0  0  0  0  0  0  0  0  0  0  0
   -7.9330   18.1370  -32.5340 C   0  0  0  0  0  0  0  0  0  0  0  0
   -7.0010   18.9880  -33.1480 C   0  0  0  0  0  0  0  0  0  0  0  0
   -6.0270   18.4450  -34.1510 C   0  0  0  0  0  0  0  0  0  0  0  0
   -6.9430   20.3370  -32.7650 C   0  0  0  0  0  0  0  0  0  0  0  0
   -5.1850   24.4290  -30.6000 C   0  0  0  0  0  0  0  0  0  0  0  0
   -6.0810   25.5200  -30.1080 C   0  0  0  0  0  0  0  0  0  0  0  0
   -3.8840   24.3300  -30.2440 N   0  0  0  0  0  0  0  0  0  0  0  0
   -3.4630   23.2260  -30.8910 C   0  0  0  0  0  0  0  0  0  0  0  0
   -2.1690   22.7140  -30.8450 C   0  0  0  0  0  0  0  0  0  0  0  0
    0.8850   19.7886  -32.2950 H   0  0  0  0  0  0  0  0  0  0  0  0
   -0.6205   19.8994  -33.2685 H   0  0  0  0  0  0  0  0  0  0  0  0
    0.5513   21.2609  -33.2685 H   0  0  0  0  0  0  0  0  0  0  0  0
   -2.6878   20.0682  -32.9704 H   0  0  0  0  0  0  0  0  0  0  0  0
   -4.9893   21.0820  -32.9912 H   0  0  0  0  0  0  0  0  0  0  0  0
   -9.4805   20.3790  -30.4719 H   0  0  0  0  0  0  0  0  0  0  0  0
   -9.5619   17.9705  -31.1169 H   0  0  0  0  0  0  0  0  0  0  0  0
   -7.9637   17.0713  -32.8049 H   0  0  0  0  0  0  0  0  0  0  0  0
   -5.1831   17.9745  -33.6251 H   0  0  0  0  0  0  0  0  0  0  0  0
   -6.5291   17.6966  -34.7817 H   0  0  0  0  0  0  0  0  0  0  0  0
   -5.6544   19.2656  -34.7817 H   0  0  0  0  0  0  0  0  0  0  0  0
   -6.2040   21.0043  -33.2325 H   0  0  0  0  0  0  0  0  0  0  0  0
   -6.0841   25.5238  -29.0080 H   0  0  0  0  0  0  0  0  0  0  0  0
   -5.7150   26.4895  -30.4770 H   0  0  0  0  0  0  0  0  0  0  0  0
   -7.1031   25.3494  -30.4770 H   0  0  0  0  0  0  0  0  0  0  0  0
   -1.3924   23.1988  -30.2352 H   0  0  0  0  0  0  0  0  0  0  0  0
  1  2  1  0
  2  3  1  0
  3  4  1  0
  4  5  2  0
  5  6  1  0
  6  7  1  0
  7  8  1  0
  8  9  2  0
  8 10  1  0
 10 11  1  0
 11 12  2  0
 12 13  1  0
 13 14  2  0
 14 15  1  0
 15 16  1  0
 15 17  2  0
  7 18  2  0
 18 19  1  0
 18 20  1  0
 20 21  2  0
 21 22  1  0
 22  3  2  0
 21  6  1  0
 17 11  1  0
  1 23  1  0
  1 24  1  0
  1 25  1  0
  4 26  1  0
  5 27  1  0
 12 28  1  0
 13 29  1  0
 14 30  1  0
 16 31  1  0
 16 32  1  0
 16 33  1  0
 17 34  1  0
 19 35  1  0
 19 36  1  0
 19 37  1  0
 22 38  1  0
M  END
>  <UniqueID>  (22) 
20

>  <SMILES>  (22) 
COc1ccn2c(C(=O)Oc3cccc(C)c3)c(C)nc2c1

>  <Energy>  (22) 
79.46361336471375

>  <Genealogy>  (22) 
COc1ccn2c(C(=O)Oc3cccc(C)c3)c(C)nc2c1 (3D coordinates assigned)
COc1ccn2c(C(=O)Oc3cccc(C)c3)c(C)nc2c1 (optimized conformer: 79.46361336471375 kcal/mol)

>  <smiles>  (22) 
COc1ccn2c(C(=O)Oc3cccc(C)c3)c(C)nc2c1

>  <score_type>  (22) 
oracle

>  <origin>  (22) 
adg

>  <m_score__min__energy>  (22) 
-7.4500000000000002

>  <m_primary>  (22) 
energy

$$$$
22:0
     RDKit          3D

 40 42  0  0  0  0  0  0  0  0999 V2000
   -3.2089   18.5493  -34.5890 H   0  0  0  0  0  0  0  0  0  0  0  0
   -4.2160   18.4940  -34.1500 C   0  0  0  0  0  0  0  0  0  0  0  0
   -4.6830   19.5180  -33.4040 N   0  0  0  0  0  0  0  0  0  0  0  0
   -5.9190   19.4970  -32.8440 C   0  0  0  0  0  0  0  0  0  0  0  0
   -6.3180   20.6050  -32.0900 C   0  0  0  0  0  0  0  0  0  0  0  0
   -5.6280   21.4520  -31.9617 H   0  0  0  0  0  0  0  0  0  0  0  0
   -7.5840   20.6490  -31.4970 C   0  0  0  0  0  0  0  0  0  0  0  0
   -7.9770   21.7780  -30.6900 N   0  0  0  0  0  0  0  0  0  0  0  0
   -8.2010   21.4650  -29.7160 H   0  0  0  0  0  0  0  0  0  0  0  0
   -8.8490   22.2100  -31.0750 H   0  0  0  0  0  0  0  0  0  0  0  0
   -6.9110   22.7480  -30.6660 C   0  0  0  0  0  0  0  0  0  0  0  0
   -6.8820   23.7990  -31.6020 C   0  0  0  0  0  0  0  0  0  0  0  0
   -7.6637   23.8668  -32.3729 H   0  0  0  0  0  0  0  0  0  0  0  0
   -5.8650   24.7570  -31.5570 C   0  0  0  0  0  0  0  0  0  0  0  0
   -5.8460   25.5728  -32.2947 H   0  0  0  0  0  0  0  0  0  0  0  0
   -4.8720   24.6800  -30.5760 C   0  0  0  0  0  0  0  0  0  0  0  0
   -3.8620   25.6330  -30.5330 O   0  0  0  0  0  0  0  0  0  0  0  0
   -4.8960   23.6440  -29.6370 C   0  0  0  0  0  0  0  0  0  0  0  0
   -4.1148   23.5845  -28.8649 H   0  0  0  0  0  0  0  0  0  0  0  0
   -5.9110   22.6840  -29.6780 C   0  0  0  0  0  0  0  0  0  0  0  0
   -5.9282   21.8740  -28.9339 H   0  0  0  0  0  0  0  0  0  0  0  0
   -8.4440   19.5580  -31.6580 C   0  0  0  0  0  0  0  0  0  0  0  0
   -9.4381   19.5768  -31.1874 H   0  0  0  0  0  0  0  0  0  0  0  0
   -8.0580   18.4450  -32.4080 C   0  0  0  0  0  0  0  0  0  0  0  0
   -8.7590   17.6054  -32.5249 H   0  0  0  0  0  0  0  0  0  0  0  0
   -6.7820   18.3740  -33.0220 C   0  0  0  0  0  0  0  0  0  0  0  0
   -6.2900   17.2720  -33.8110 C   0  0  0  0  0  0  0  0  0  0  0  0
   -6.9160   16.1530  -34.0870 N   0  0  0  0  0  0  0  0  0  0  0  0
   -6.5150   14.7590  -34.2400 C   0  0  0  0  0  0  0  0  0  0  0  0
   -6.2155   14.5830  -35.2837 H   0  0  0  0  0  0  0  0  0  0  0  0
   -7.3667   14.1170  -33.9709 H   0  0  0  0  0  0  0  0  0  0  0  0
   -5.3370   14.4230  -33.3160 C   0  0  0  0  0  0  0  0  0  0  0  0
   -5.4409   14.9921  -32.3804 H   0  0  0  0  0  0  0  0  0  0  0  0
   -4.4025   14.6911  -33.8306 H   0  0  0  0  0  0  0  0  0  0  0  0
   -5.3000   12.9330  -32.9910 C   0  0  0  0  0  0  0  0  0  0  0  0
   -5.2966   12.7957  -31.8996 H   0  0  0  0  0  0  0  0  0  0  0  0
   -6.1862   12.4421  -33.4195 H   0  0  0  0  0  0  0  0  0  0  0  0
   -4.3905   12.4867  -33.4195 H   0  0  0  0  0  0  0  0  0  0  0  0
   -5.0040   17.3720  -34.3640 C   0  0  0  0  0  0  0  0  0  0  0  0
   -4.6139   16.5467  -34.9777 H   0  0  0  0  0  0  0  0  0  0  0  0
  1  2  1  0
  2  3  1  0
  3  4  1  0
  4  5  2  0
  5  6  1  0
  5  7  1  0
  7  8  1  0
  8  9  1  0
  8 10  1  0
  8 11  1  0
 11 12  2  0
 12 13  1  0
 12 14  1  0
 14 15  1  0
 14 16  2  0
 16 17  1  0
 16 18  1  0
 18 19  1  0
 18 20  2  0
 20 21  1  0
  7 22  2  0
 22 23  1  0
 22 24  1  0
 24 25  1  0
 24 26  2  0
 26 27  1  0
 27 28  2  0
 28 29  1  0
 29 30  1  0
 29 31  1  0
 29 32  1  0
 32 33  1  0
 32 34  1  0
 32 35  1  0
 35 36  1  0
 35 37  1  0
 35 38  1  0
 27 39  1  0
 39 40  1  0
 39  2  2  0
 26  4  1  0
 20 11  1  0
M  CHG  3   3  -1   8   1  17  -1
M  END
>  <UniqueID>  (23) 
21

>  <SMILES>  (23) 
CCC/N=c1/cc[n-]c2cc([NH2+]c3ccc([O-])cc3)ccc12

>  <Energy>  (23) 
60.388972664853036

>  <Genealogy>  (23) 
CCCN=c1cc[n-]c2cc([NH2+]c3ccc([O-])cc3)ccc12 (protonated)
CCC/N=c1/cc[n-]c2cc([NH2+]c3ccc([O-])cc3)ccc12 (cis-trans isomerization)
CCC/N=c1/cc[n-]c2cc([NH2+]c3ccc([O-])cc3)ccc12 (3D coordinates assigned)
CCC/N=c1/cc[n-]c2cc([NH2+]c3ccc([O-])cc3)ccc12 (optimized conformer: 60.388972664853036 kcal/mol)

>  <smiles>  (23) 
CCCN=c1cc[nH]c2cc(Nc3ccc(O)cc3)ccc12

>  <score_type>  (23) 
oracle

>  <origin>  (23) 
adg

>  <m_score__min__energy>  (23) 
-9.5299999999999994

>  <m_primary>  (23) 
energy

$$$$
23:0
     RDKit          3D

 31 33  0  0  0  0  0  0  0  0999 V2000
   -2.4890   20.3230  -27.5890 C   0  0  0  0  0  0  0  0  0  0  0  0
   -3.4820   21.3400  -27.5460 O   0  0  0  0  0  0  0  0  0  0  0  0
   -3.5150   22.4030  -28.4520 C   0  0  0  0  0  0  0  0  0  0  0  0
   -2.6850   23.5060  -28.2490 C   0  0  0  0  0  0  0  0  0  0  0  0
   -2.7290   24.5570  -29.1660 C   0  0  0  0  0  0  0  0  0  0  0  0
   -1.9100   25.6740  -28.9770 O   0  0  0  0  0  0  0  0  0  0  0  0
   -1.1310   25.8630  -27.8010 C   0  0  0  0  0  0  0  0  0  0  0  0
   -3.5710   24.4830  -30.2300 N   0  0  0  0  0  0  0  0  0  0  0  0
   -4.3860   23.4090  -30.4130 C   0  0  0  0  0  0  0  0  0  0  0  0
   -5.2450   23.3370  -31.5160 O   0  0  0  0  0  0  0  0  0  0  0  0
   -5.5220   22.1610  -32.2230 C   0  0  0  0  0  0  0  0  0  0  0  0
   -4.4960   21.4540  -32.7780 N   0  0  0  0  0  0  0  0  0  0  0  0
   -4.7150   20.2960  -33.4780 C   0  0  0  0  0  0  0  0  0  0  0  0
   -5.9810   19.8060  -33.6260 N   0  0  0  0  0  0  0  0  0  0  0  0
   -7.0070   20.4910  -33.0670 C   0  0  0  0  0  0  0  0  0  0  0  0
   -8.2970   20.1240  -33.0700 N   0  0  0  0  0  0  0  0  0  0  0  0
   -8.9390   21.0640  -32.3400 C   0  0  0  0  0  0  0  0  0  0  0  0
   -8.0460   22.0270  -31.8750 C   0  0  0  0  0  0  0  0  0  0  0  0
   -6.8140   21.6440  -32.3670 C   0  0  0  0  0  0  0  0  0  0  0  0
   -4.3460   22.3770  -29.5300 N   0  0  0  0  0  0  0  0  0  0  0  0
   -2.2111   20.0383  -26.5635 H   0  0  0  0  0  0  0  0  0  0  0  0
   -2.8865   19.4445  -28.1184 H   0  0  0  0  0  0  0  0  0  0  0  0
   -1.6013   20.6994  -28.1184 H   0  0  0  0  0  0  0  0  0  0  0  0
   -2.0087   23.5464  -27.3824 H   0  0  0  0  0  0  0  0  0  0  0  0
   -1.7631   25.7096  -26.9139 H   0  0  0  0  0  0  0  0  0  0  0  0
   -0.3021   25.1399  -27.7901 H   0  0  0  0  0  0  0  0  0  0  0  0
   -0.7257   26.8855  -27.7901 H   0  0  0  0  0  0  0  0  0  0  0  0
   -3.8653   19.7579  -33.9235 H   0  0  0  0  0  0  0  0  0  0  0  0
   -8.7150   19.2790  -33.5190 H   0  0  0  0  0  0  0  0  0  0  0  0
  -10.0207   21.0678  -32.1402 H   0  0  0  0  0  0  0  0  0  0  0  0
   -8.2734   22.9035  -31.2505 H   0  0  0  0  0  0  0  0  0  0  0  0
  1  2  1  0
  2  3  1  0
  3  4  2  0
  4  5  1  0
  5  6  1  0
  6  7  1  0
  5  8  2  0
  8  9  1  0
  9 10  1  0
 10 11  1  0
 11 12  2  0
 12 13  1  0
 13 14  2  0
 14 15  1  0
 15 16  1  0
 16 17  1  0
 17 18  2  0
 18 19  1  0
  9 20  2  0
 20  3  1  0
 19 11  1  0
 19 15  2  0
  1 21  1  0
  1 22  1  0
  1 23  1  0
  4 24  1  0
  7 25  1  0
  7 26  1  0
  7 27  1  0
 13 28  1  0
 16 29  1  0
 17 30  1  0
 18 31  1  0
M  END
>  <UniqueID>  (24) 
22

>  <SMILES>  (24) 
COc1cc(OC)nc(Oc2ncnc3[nH]ccc23)n1

>  <Energy>  (24) 
71.04671547866648

>  <Genealogy>  (24) 
COc1cc(OC)nc(Oc2ncnc3[nH]ccc23)n1 (3D coordinates assigned)
COc1cc(OC)nc(Oc2ncnc3[nH]ccc23)n1 (optimized conformer: 71.04671547866648 kcal/mol)

>  <smiles>  (24) 
COc1cc(OC)nc(Oc2ncnc3[nH]ccc23)n1

>  <score_type>  (24) 
oracle

>  <origin>  (24) 
adg

>  <m_score__min__energy>  (24) 
-6.5199999999999996

>  <m_primary>  (24) 
energy

$$$$
24:0
     RDKit          3D

 39 41  0  0  1  0  0  0  0  0999 V2000
   -6.2220   25.3800  -29.5160 C   0  0  0  0  0  0  0  0  0  0  0  0
   -5.3360   25.6740  -30.7880 C   0  0  0  0  0  0  0  0  0  0  0  0
   -4.3160   24.7470  -30.5840 N   0  0  0  0  0  0  0  0  0  0  0  0
   -4.3070   23.5310  -30.8600 C   0  0  0  0  0  0  0  0  0  0  0  0
   -5.3990   22.9880  -31.3880 N   0  0  0  0  0  0  0  0  0  0  0  0
   -5.5040   21.7050  -31.7200 C   0  0  0  0  0  0  0  0  0  0  0  0
   -6.7370   21.2420  -32.2810 N   0  0  0  0  0  0  0  0  0  0  0  0
   -6.8630   20.1060  -33.1430 C   0  0  0  0  0  0  0  0  0  0  0  0
   -7.7480   19.1040  -32.3980 C   0  0  0  0  0  0  0  0  0  0  0  0
   -9.1310   19.7520  -32.3550 C   0  0  0  0  0  0  0  0  0  0  0  0
   -9.0610   21.0010  -31.5400 C   0  0  0  0  0  0  0  0  0  0  0  0
   -7.9720   21.9620  -31.9620 C   0  0  0  0  0  0  0  0  0  0  0  0
   -4.4470   20.9100  -31.5110 N   0  0  0  0  0  0  0  0  0  0  0  0
   -3.3260   21.4240  -30.9800 C   0  0  0  0  0  0  0  0  0  0  0  0
   -2.2770   20.5380  -30.7940 C   0  0  0  0  0  0  0  0  0  0  0  0
   -1.1340   21.0820  -30.2480 C   0  0  0  0  0  0  0  0  0  0  0  0
   -0.9770   22.3820  -29.8920 C   0  0  0  0  0  0  0  0  0  0  0  0
   -2.0580   23.2720  -30.0880 C   0  0  0  0  0  0  0  0  0  0  0  0
   -3.1970   22.7620  -30.6260 C   0  0  0  0  0  0  0  0  0  0  0  0
   -5.6344   25.5750  -28.6068 H   0  0  0  0  0  0  0  0  0  0  0  0
   -7.1075   26.0325  -29.5272 H   0  0  0  0  0  0  0  0  0  0  0  0
   -6.5418   24.3276  -29.5272 H   0  0  0  0  0  0  0  0  0  0  0  0
   -5.8839   25.4808  -31.7221 H   0  0  0  0  0  0  0  0  0  0  0  0
   -5.0033   26.7172  -30.8931 H   0  0  0  0  0  0  0  0  0  0  0  0
   -7.3336   20.3982  -34.0933 H   0  0  0  0  0  0  0  0  0  0  0  0
   -5.8808   19.6733  -33.3837 H   0  0  0  0  0  0  0  0  0  0  0  0
   -7.7865   18.1464  -32.9379 H   0  0  0  0  0  0  0  0  0  0  0  0
   -7.3641   18.8831  -31.3911 H   0  0  0  0  0  0  0  0  0  0  0  0
   -9.4547   19.9971  -33.3773 H   0  0  0  0  0  0  0  0  0  0  0  0
   -9.8525   19.0552  -31.9035 H   0  0  0  0  0  0  0  0  0  0  0  0
  -10.0278   21.5194  -31.6211 H   0  0  0  0  0  0  0  0  0  0  0  0
   -8.8254   20.6917  -30.5110 H   0  0  0  0  0  0  0  0  0  0  0  0
   -8.3057   22.5170  -32.8512 H   0  0  0  0  0  0  0  0  0  0  0  0
   -7.7716   22.6543  -31.1310 H   0  0  0  0  0  0  0  0  0  0  0  0
   -4.4840   19.8980  -31.7550 H   0  0  0  0  0  0  0  0  0  0  0  0
   -2.3511   19.4741  -31.0634 H   0  0  0  0  0  0  0  0  0  0  0  0
   -0.2799   20.4075  -30.0879 H   0  0  0  0  0  0  0  0  0  0  0  0
   -0.0291   22.7358  -29.4602 H   0  0  0  0  0  0  0  0  0  0  0  0
   -1.9802   24.3350  -29.8158 H   0  0  0  0  0  0  0  0  0  0  0  0
  1  2  1  0
  2  3  1  0
  3  4  2  0
  4  5  1  0
  5  6  2  0
  6  7  1  0
  7  8  1  0
  8  9  1  0
  9 10  1  0
 10 11  1  0
 11 12  1  0
  6 13  1  0
 13 14  1  0
 14 15  2  0
 15 16  1  0
 16 17  2  0
 17 18  1  0
 18 19  2  0
 19  4  1  0
 12  7  1  0
 19 14  1  0
  1 20  1  0
  1 21  1  0
  1 22  1  0
  2 23  1  0
  2 24  1  0
  8 25  1  0
  8 26  1  0
  9 27  1  0
  9 28  1  0
 10 29  1  0
 10 30  1  0
 11 31  1  0
 11 32  1  0
 12 33  1  0
 12 34  1  0
 13 35  1  0
 15 36  1  0
 16 37  1  0
 17 38  1  0
 18 39  1  0
M  END
>  <smiles>  (25) 
CCN=c1nc(N2CCCCC2)[nH]c2ccccc12

>  <score_type>  (25) 
oracle

>  <origin>  (25) 
adg

>  <m_score__min__energy>  (25) 
-7.0099999999999998

>  <m_primary>  (25) 
energy

$$$$
25:0
     RDKit          3D

 25 26  0  0  0  0  0  0  0  0999 V2000
   -6.5850   18.3660  -31.7750 C   0  0  0  0  0  0  0  0  0  0  0  0
   -6.6350   19.2210  -33.0550 C   0  0  2  0  0  0  0  0  0  0  0  0
   -5.6690   20.4170  -32.9810 C   0  0  0  0  0  0  0  0  0  0  0  0
   -6.2290   21.5570  -32.1710 C   0  0  0  0  0  0  0  0  0  0  0  0
   -5.3660   22.5730  -31.7290 C   0  0  0  0  0  0  0  0  0  0  0  0
   -5.8700   23.6700  -31.0240 C   0  0  0  0  0  0  0  0  0  0  0  0
   -4.7820   24.9300  -30.4680 Cl  0  0  0  0  0  0  0  0  0  0  0  0
   -7.2390   23.7640  -30.7630 C   0  0  0  0  0  0  0  0  0  0  0  0
   -8.1070   22.7660  -31.2100 C   0  0  0  0  0  0  0  0  0  0  0  0
   -7.6150   21.6660  -31.9310 C   0  0  0  0  0  0  0  0  0  0  0  0
   -8.5700   20.5710  -32.3450 C   0  0  0  0  0  0  0  0  0  0  0  0
   -8.0030   19.6790  -33.3710 N   0  0  0  0  0  0  0  0  0  0  0  0
   -6.6234   19.0229  -30.8935 H   0  0  0  0  0  0  0  0  0  0  0  0
   -7.4445   17.6798  -31.7586 H   0  0  0  0  0  0  0  0  0  0  0  0
   -5.6513   17.7846  -31.7586 H   0  0  0  0  0  0  0  0  0  0  0  0
   -6.3068   18.5653  -33.8749 H   0  0  0  0  0  0  0  0  0  0  0  0
   -4.7283   20.0835  -32.5185 H   0  0  0  0  0  0  0  0  0  0  0  0
   -5.5066   20.7814  -34.0061 H   0  0  0  0  0  0  0  0  0  0  0  0
   -4.2883   22.5053  -31.9385 H   0  0  0  0  0  0  0  0  0  0  0  0
   -7.6338   24.6255  -30.2045 H   0  0  0  0  0  0  0  0  0  0  0  0
   -9.1833   22.8419  -30.9960 H   0  0  0  0  0  0  0  0  0  0  0  0
   -8.8231   19.9712  -31.4583 H   0  0  0  0  0  0  0  0  0  0  0  0
   -9.4591   21.0524  -32.7783 H   0  0  0  0  0  0  0  0  0  0  0  0
   -8.6310   18.8480  -33.4800 H   0  0  0  0  0  0  0  0  0  0  0  0
   -7.9910   20.1840  -34.2880 H   0  0  0  0  0  0  0  0  0  0  0  0
  1  2  1  0
  2  3  1  0
  3  4  1  0
  4  5  2  0
  5  6  1  0
  6  7  1  0
  6  8  2  0
  8  9  1  0
  9 10  2  0
 10 11  1  0
 11 12  1  0
 12  2  1  0
 10  4  1  0
  1 13  1  0
  1 14  1  0
  1 15  1  0
  2 16  1  6
  3 17  1  0
  3 18  1  0
  5 19  1  0
  8 20  1  0
  9 21  1  0
 11 22  1  0
 11 23  1  0
 12 24  1  0
 12 25  1  0
M  CHG  1  12   1
M  END
>  <UniqueID>  (26) 
23

>  <SMILES>  (26) 
C[C@@H]1Cc2cc(Cl)ccc2C[NH2+]1

>  <Energy>  (26) 
26.784983061508658

>  <Genealogy>  (26) 
CC1Cc2cc(Cl)ccc2C[NH2+]1 (protonated)
C[C@@H]1Cc2cc(Cl)ccc2C[NH2+]1 (chirality)
C[C@@H]1Cc2cc(Cl)ccc2C[NH2+]1 (3D coordinates assigned)
C[C@@H]1Cc2cc(Cl)ccc2C[NH2+]1 (nonaromatic ring conformer: 26.784983061508658 kcal/mol)

>  <smiles>  (26) 
CC1Cc2cc(Cl)ccc2CN1

>  <score_type>  (26) 
oracle

>  <origin>  (26) 
adg

>  <m_score__min__energy>  (26) 
-6.04

>  <m_primary>  (26) 
energy

$$$$
26:0
     RDKit          3D

 46 48  0  0  0  0  0  0  0  0999 V2000
   -2.0690   24.3140  -28.6020 C   0  0  0  0  0  0  0  0  0  0  0  0
   -2.7780   24.9380  -29.6680 O   0  0  0  0  0  0  0  0  0  0  0  0
   -3.9500   24.4280  -30.2490 C   0  0  0  0  0  0  0  0  0  0  0  0
   -5.1960   25.0640  -30.0970 C   0  0  0  0  0  0  0  0  0  0  0  0
   -6.3410   24.5250  -30.6860 C   0  0  0  0  0  0  0  0  0  0  0  0
   -6.2680   23.3350  -31.4250 C   0  0  0  0  0  0  0  0  0  0  0  0
   -7.4810   22.7530  -32.0460 C   0  0  0  0  0  0  0  0  0  0  0  0
   -8.2440   23.4960  -32.7210 O   0  0  0  0  0  0  0  0  0  0  0  0
   -7.8300   21.3250  -31.8890 C   0  0  0  0  0  0  0  0  0  0  0  0
   -8.8670   20.7880  -31.1230 C   0  0  0  0  0  0  0  0  0  0  0  0
   -9.8350   21.5560  -30.2850 C   0  0  0  0  0  0  0  0  0  0  0  0
   -8.8900   19.4730  -31.2370 O   0  0  0  0  0  0  0  0  0  0  0  0
   -7.9190   19.1270  -32.0480 C   0  0  0  0  0  0  0  0  0  0  0  0
   -7.5850   17.8410  -32.4580 C   0  0  0  0  0  0  0  0  0  0  0  0
   -6.5080   17.6870  -33.3670 C   0  0  0  0  0  0  0  0  0  0  0  0
   -6.1030   16.4230  -33.8260 O   0  0  0  0  0  0  0  0  0  0  0  0
   -5.2840   15.5230  -33.0860 C   0  0  0  0  0  0  0  0  0  0  0  0
   -5.8110   18.8280  -33.8400 C   0  0  0  0  0  0  0  0  0  0  0  0
   -4.7540   18.6340  -34.7410 O   0  0  0  0  0  0  0  0  0  0  0  0
   -3.4740   18.1220  -34.3830 C   0  0  0  0  0  0  0  0  0  0  0  0
   -6.1890   20.1200  -33.4010 C   0  0  0  0  0  0  0  0  0  0  0  0
   -7.2350   20.2280  -32.4860 C   0  0  0  0  0  0  0  0  0  0  0  0
   -5.0220   22.7110  -31.5950 C   0  0  0  0  0  0  0  0  0  0  0  0
   -3.8620   23.2490  -31.0040 C   0  0  0  0  0  0  0  0  0  0  0  0
   -2.6030   22.6410  -31.1430 O   0  0  0  0  0  0  0  0  0  0  0  0
   -2.3380   21.5160  -31.9750 C   0  0  0  0  0  0  0  0  0  0  0  0
   -2.4692   24.6662  -27.6398 H   0  0  0  0  0  0  0  0  0  0  0  0
   -2.1885   23.2227  -28.6714 H   0  0  0  0  0  0  0  0  0  0  0  0
   -1.0017   24.5711  -28.6714 H   0  0  0  0  0  0  0  0  0  0  0  0
   -5.2682   25.9917  -29.5104 H   0  0  0  0  0  0  0  0  0  0  0  0
   -7.3075   25.0372  -30.5698 H   0  0  0  0  0  0  0  0  0  0  0  0
   -9.6167   21.3828  -29.2209 H   0  0  0  0  0  0  0  0  0  0  0  0
   -9.7425   22.6291  -30.5084 H   0  0  0  0  0  0  0  0  0  0  0  0
  -10.8590   21.2219  -30.5084 H   0  0  0  0  0  0  0  0  0  0  0  0
   -8.1411   16.9673  -32.0873 H   0  0  0  0  0  0  0  0  0  0  0  0
   -5.4358   15.6898  -32.0094 H   0  0  0  0  0  0  0  0  0  0  0  0
   -5.5561   14.4875  -33.3385 H   0  0  0  0  0  0  0  0  0  0  0  0
   -4.2275   15.6965  -33.3385 H   0  0  0  0  0  0  0  0  0  0  0  0
   -3.3865   18.0870  -33.2870 H   0  0  0  0  0  0  0  0  0  0  0  0
   -3.3570   17.1079  -34.7927 H   0  0  0  0  0  0  0  0  0  0  0  0
   -2.6899   18.7757  -34.7927 H   0  0  0  0  0  0  0  0  0  0  0  0
   -5.6703   21.0160  -33.7727 H   0  0  0  0  0  0  0  0  0  0  0  0
   -4.9508   21.7924  -32.1959 H   0  0  0  0  0  0  0  0  0  0  0  0
   -2.1309   20.6366  -31.3475 H   0  0  0  0  0  0  0  0  0  0  0  0
   -3.2134   21.3153  -32.6101 H   0  0  0  0  0  0  0  0  0  0  0  0
   -1.4650   21.7271  -32.6101 H   0  0  0  0  0  0  0  0  0  0  0  0
  1  2  1  0
  2  3  1  0
  3  4  2  0
  4  5  1  0
  5  6  2  0
  6  7  1  0
  7  8  2  0
  7  9  1  0
  9 10  2  0
 10 11  1  0
 10 12  1  0
 12 13  1  0
 13 14  2  0
 14 15  1  0
 15 16  1  0
 16 17  1  0
 15 18  2  0
 18 19  1  0
 19 20  1  0
 18 21  1  0
 21 22  2  0
  6 23  1  0
 23 24  2  0
 24 25  1  0
 25 26  1  0
 24  3  1  0
 22  9  1  0
 22 13  1  0
  1 27  1  0
  1 28  1  0
  1 29  1  0
  4 30  1  0
  5 31  1  0
 11 32  1  0
 11 33  1  0
 11 34  1  0
 14 35  1  0
 17 36  1  0
 17 37  1  0
 17 38  1  0
 20 39  1  0
 20 40  1  0
 20 41  1  0
 21 42  1  0
 23 43  1  0
 26 44  1  0
 26 45  1  0
 26 46  1  0
M  END
>  <UniqueID>  (27) 
24

>  <SMILES>  (27) 
COc1ccc(C(=O)c2c(C)oc3cc(OC)c(OC)cc23)cc1OC

>  <Energy>  (27) 
83.93756090514752

>  <Genealogy>  (27) 
COc1ccc(C(=O)c2c(C)oc3cc(OC)c(OC)cc23)cc1OC (3D coordinates assigned)
COc1ccc(C(=O)c2c(C)oc3cc(OC)c(OC)cc23)cc1OC (optimized conformer: 83.93756090514752 kcal/mol)

>  <smiles>  (27) 
COc1ccc(C(=O)c2c(C)oc3cc(OC)c(OC)cc23)cc1OC

>  <score_type>  (27) 
oracle

>  <origin>  (27) 
adg

>  <m_score__min__energy>  (27) 
-8.0099999999999998

>  <m_primary>  (27) 
energy

$$$$
27:0
     RDKit          3D

 29 31  0  0  0  0  0  0  0  0999 V2000
   -9.9257   18.7644  -32.4729 H   0  0  0  0  0  0  0  0  0  0  0  0
   -8.9870   19.3210  -32.3350 C   0  0  0  0  0  0  0  0  0  0  0  0
   -7.4680   18.6430  -32.0870 S   0  0  0  0  0  0  0  0  0  0  0  0
   -6.6380   20.1010  -31.9650 C   0  0  0  0  0  0  0  0  0  0  0  0
   -5.1590   20.2430  -31.7890 C   0  0  0  0  0  0  0  0  0  0  0  0
   -4.6478   19.4986  -32.4170 H   0  0  0  0  0  0  0  0  0  0  0  0
   -4.9126   20.0829  -30.7290 H   0  0  0  0  0  0  0  0  0  0  0  0
   -4.7040   21.6220  -32.1880 C   0  0  0  0  0  0  0  0  0  0  0  0
   -4.1240   21.7860  -33.2940 O   0  0  0  0  0  0  0  0  0  0  0  0
   -4.9710   22.7720  -31.3700 N   0  0  0  0  0  0  0  0  0  0  0  0
   -4.7330   22.8730  -30.1180 N   0  0  0  0  0  0  0  0  0  0  0  0
   -3.6400   23.5980  -29.5390 C   0  0  0  0  0  0  0  0  0  0  0  0
   -3.2240   24.8670  -29.9020 C   0  0  0  0  0  0  0  0  0  0  0  0
   -3.8680   25.6760  -30.8290 O   0  0  0  0  0  0  0  0  0  0  0  0
   -2.1020   25.2400  -29.2430 N   0  0  0  0  0  0  0  0  0  0  0  0
   -1.8020   24.1720  -28.4750 C   0  0  0  0  0  0  0  0  0  0  0  0
   -0.7020   24.0430  -27.6290 C   0  0  0  0  0  0  0  0  0  0  0  0
    0.0084   24.8720  -27.4946 H   0  0  0  0  0  0  0  0  0  0  0  0
   -0.5260   22.8230  -26.9520 C   0  0  0  0  0  0  0  0  0  0  0  0
    0.3270   22.6951  -26.2693 H   0  0  0  0  0  0  0  0  0  0  0  0
   -1.4380   21.7600  -27.1430 C   0  0  0  0  0  0  0  0  0  0  0  0
   -1.2450   20.5830  -26.4980 F   0  0  0  0  0  0  0  0  0  0  0  0
   -2.5370   21.9120  -28.0060 C   0  0  0  0  0  0  0  0  0  0  0  0
   -3.2446   21.0870  -28.1754 H   0  0  0  0  0  0  0  0  0  0  0  0
   -2.7010   23.1440  -28.6410 C   0  0  0  0  0  0  0  0  0  0  0  0
   -7.5400   21.1430  -32.1350 C   0  0  0  0  0  0  0  0  0  0  0  0
   -7.2516   22.2043  -32.1139 H   0  0  0  0  0  0  0  0  0  0  0  0
   -8.8540   20.7040  -32.3360 C   0  0  0  0  0  0  0  0  0  0  0  0
   -9.7018   21.3897  -32.4811 H   0  0  0  0  0  0  0  0  0  0  0  0
  1  2  1  0
  2  3  1  0
  3  4  1  0
  4  5  1  0
  5  6  1  0
  5  7  1  0
  5  8  1  0
  8  9  2  0
  8 10  1  0
 10 11  2  0
 11 12  1  0
 12 13  2  0
 13 14  1  0
 13 15  1  0
 15 16  1  0
 16 17  2  0
 17 18  1  0
 17 19  1  0
 19 20  1  0
 19 21  2  0
 21 22  1  0
 21 23  1  0
 23 24  1  0
 23 25  2  0
  4 26  2  0
 26 27  1  0
 26 28  1  0
 28 29  1  0
 28  2  2  0
 25 12  1  0
 25 16  1  0
M  CHG  2  14  -1  15  -1
M  END
>  <UniqueID>  (28) 
25

>  <SMILES>  (28) 
O=C(Cc1cccs1)/N=N\c1c([O-])[n-]c2ccc(F)cc12

>  <Energy>  (28) 
102.7206172175838

>  <Genealogy>  (28) 
O=C(Cc1cccs1)N=Nc1c([O-])[n-]c2ccc(F)cc12 (protonated)
O=C(Cc1cccs1)/N=N\c1c([O-])[n-]c2ccc(F)cc12 (cis-trans isomerization)
O=C(Cc1cccs1)/N=N\c1c([O-])[n-]c2ccc(F)cc12 (3D coordinates assigned)
O=C(Cc1cccs1)/N=N\c1c([O-])[n-]c2ccc(F)cc12 (optimized conformer: 102.7206172175838 kcal/mol)

>  <smiles>  (28) 
O=C(Cc1cccs1)N=Nc1c(O)[nH]c2ccc(F)cc12

>  <score_type>  (28) 
oracle

>  <origin>  (28) 
adg

>  <m_score__min__energy>  (28) 
-12.24

>  <m_primary>  (28) 
energy

$$$$
28:0
     RDKit          3D

 38 39  0  0  0  0  0  0  0  0999 V2000
    0.0920   22.2390  -27.8200 C   0  0  0  0  0  0  0  0  0  0  0  0
   -0.4580   23.2660  -28.6400 O   0  0  0  0  0  0  0  0  0  0  0  0
   -1.7650   23.2600  -29.1520 C   0  0  0  0  0  0  0  0  0  0  0  0
   -2.4330   22.0670  -29.4830 C   0  0  0  0  0  0  0  0  0  0  0  0
   -3.7320   22.1010  -29.9910 C   0  0  0  0  0  0  0  0  0  0  0  0
   -4.3890   23.3240  -30.1830 C   0  0  0  0  0  0  0  0  0  0  0  0
   -5.7320   23.3590  -30.7040 N   0  0  0  0  0  0  0  0  0  0  0  0
   -6.8100   23.9570  -29.9170 C   0  0  0  0  0  0  0  0  0  0  0  0
   -6.0800   22.7490  -32.2960 S   0  0  0  0  0  0  0  0  0  0  0  0
   -4.8030   22.4350  -33.0250 O   0  0  0  0  0  0  0  0  0  0  0  0
   -6.8420   23.7940  -33.0630 O   0  0  0  0  0  0  0  0  0  0  0  0
   -7.0190   21.2650  -32.1690 C   0  0  0  0  0  0  0  0  0  0  0  0
   -8.3530   21.3230  -31.7420 C   0  0  0  0  0  0  0  0  0  0  0  0
   -9.1110   20.1530  -31.6410 C   0  0  0  0  0  0  0  0  0  0  0  0
   -8.5390   18.9180  -31.9630 C   0  0  0  0  0  0  0  0  0  0  0  0
   -9.2740   17.7840  -31.8650 F   0  0  0  0  0  0  0  0  0  0  0  0
   -7.2070   18.8540  -32.3870 C   0  0  0  0  0  0  0  0  0  0  0  0
   -6.4480   20.0240  -32.4890 C   0  0  0  0  0  0  0  0  0  0  0  0
   -3.7280   24.5150  -29.8470 C   0  0  0  0  0  0  0  0  0  0  0  0
   -2.4160   24.4900  -29.3330 C   0  0  0  0  0  0  0  0  0  0  0  0
   -1.7270   25.6650  -28.9900 O   0  0  0  0  0  0  0  0  0  0  0  0
   -1.2300   25.9580  -27.6880 C   0  0  0  0  0  0  0  0  0  0  0  0
   -0.0483   22.5009  -26.7609 H   0  0  0  0  0  0  0  0  0  0  0  0
   -0.4173   21.2876  -28.0330 H   0  0  0  0  0  0  0  0  0  0  0  0
    1.1662   22.1356  -28.0330 H   0  0  0  0  0  0  0  0  0  0  0  0
   -1.9276   21.1005  -29.3403 H   0  0  0  0  0  0  0  0  0  0  0  0
   -4.2444   21.1607  -30.2427 H   0  0  0  0  0  0  0  0  0  0  0  0
   -6.5923   23.8362  -28.8456 H   0  0  0  0  0  0  0  0  0  0  0  0
   -6.8886   25.0277  -30.1568 H   0  0  0  0  0  0  0  0  0  0  0  0
   -7.7599   23.4569  -30.1568 H   0  0  0  0  0  0  0  0  0  0  0  0
   -8.8048   22.2926  -31.4856 H   0  0  0  0  0  0  0  0  0  0  0  0
  -10.1582   20.2036  -31.3080 H   0  0  0  0  0  0  0  0  0  0  0  0
   -6.7568   17.8828  -32.6402 H   0  0  0  0  0  0  0  0  0  0  0  0
   -5.4006   19.9713  -32.8210 H   0  0  0  0  0  0  0  0  0  0  0  0
   -4.2394   25.4789  -29.9863 H   0  0  0  0  0  0  0  0  0  0  0  0
   -1.9188   25.5519  -26.9326 H   0  0  0  0  0  0  0  0  0  0  0  0
   -0.2375   25.5005  -27.5628 H   0  0  0  0  0  0  0  0  0  0  0  0
   -1.1498   27.0479  -27.5628 H   0  0  0  0  0  0  0  0  0  0  0  0
  1  2  1  0
  2  3  1  0
  3  4  2  0
  4  5  1  0
  5  6  2  0
  6  7  1  0
  7  8  1  0
  7  9  1  0
  9 10  2  0
  9 11  2  0
  9 12  1  0
 12 13  2  0
 13 14  1  0
 14 15  2  0
 15 16  1  0
 15 17  1  0
 17 18  2  0
  6 19  1  0
 19 20  2  0
 20 21  1  0
 21 22  1  0
 20  3  1  0
 18 12  1  0
  1 23  1  0
  1 24  1  0
  1 25  1  0
  4 26  1  0
  5 27  1  0
  8 28  1  0
  8 29  1  0
  8 30  1  0
 13 31  1  0
 14 32  1  0
 17 33  1  0
 18 34  1  0
 19 35  1  0
 22 36  1  0
 22 37  1  0
 22 38  1  0
M  END
>  <UniqueID>  (29) 
26

>  <SMILES>  (29) 
COc1ccc(N(C)S(=O)(=O)c2ccc(F)cc2)cc1OC

>  <Energy>  (29) 
41.73154584181058

>  <Genealogy>  (29) 
COc1ccc(N(C)S(=O)(=O)c2ccc(F)cc2)cc1OC (3D coordinates assigned)
COc1ccc(N(C)S(=O)(=O)c2ccc(F)cc2)cc1OC (optimized conformer: 41.73154584181058 kcal/mol)

>  <smiles>  (29) 
COc1ccc(N(C)S(=O)(=O)c2ccc(F)cc2)cc1OC

>  <score_type>  (29) 
oracle

>  <origin>  (29) 
adg

>  <m_score__min__energy>  (29) 
-7.46

>  <m_primary>  (29) 
energy

$$$$
29:0
     RDKit          3D

 25 28  0  0  0  0  0  0  0  0999 V2000
   -8.9790   21.9290  -30.3790 O   0  0  0  0  0  0  0  0  0  0  0  0
   -7.8090   21.9240  -30.8440 C   0  0  0  0  0  0  0  0  0  0  0  0
   -6.8100   22.9910  -30.7410 C   0  0  0  0  0  0  0  0  0  0  0  0
   -6.8820   24.2390  -30.1280 C   0  0  0  0  0  0  0  0  0  0  0  0
   -5.7420   25.0600  -30.1950 C   0  0  0  0  0  0  0  0  0  0  0  0
   -4.6120   24.6310  -30.8420 N   0  0  0  0  0  0  0  0  0  0  0  0
   -4.5410   23.4070  -31.4420 C   0  0  0  0  0  0  0  0  0  0  0  0
   -5.6570   22.5790  -31.3880 C   0  0  0  0  0  0  0  0  0  0  0  0
   -5.8890   21.2430  -31.9210 C   0  0  0  0  0  0  0  0  0  0  0  0
   -5.0590   20.4370  -32.6250 N   0  0  0  0  0  0  0  0  0  0  0  0
   -5.5200   19.2110  -33.0160 C   0  0  0  0  0  0  0  0  0  0  0  0
   -4.6960   18.3460  -33.7450 C   0  0  0  0  0  0  0  0  0  0  0  0
   -5.1760   17.0940  -34.1410 C   0  0  0  0  0  0  0  0  0  0  0  0
   -6.4780   16.6970  -33.8120 C   0  0  0  0  0  0  0  0  0  0  0  0
   -7.3130   17.5500  -33.0830 C   0  0  0  0  0  0  0  0  0  0  0  0
   -6.8490   18.8060  -32.6800 C   0  0  0  0  0  0  0  0  0  0  0  0
   -7.6580   19.6470  -31.9670 N   0  0  0  0  0  0  0  0  0  0  0  0
   -7.1680   20.8540  -31.5970 C   0  0  0  0  0  0  0  0  0  0  0  0
   -7.7950   24.5700  -29.6114 H   0  0  0  0  0  0  0  0  0  0  0  0
   -5.7572   26.0542  -29.7245 H   0  0  0  0  0  0  0  0  0  0  0  0
   -3.6236   23.0835  -31.9556 H   0  0  0  0  0  0  0  0  0  0  0  0
   -3.6718   18.6508  -34.0061 H   0  0  0  0  0  0  0  0  0  0  0  0
   -4.5267   16.4164  -34.7147 H   0  0  0  0  0  0  0  0  0  0  0  0
   -6.8457   15.7097  -34.1284 H   0  0  0  0  0  0  0  0  0  0  0  0
   -8.3346   17.2328  -32.8267 H   0  0  0  0  0  0  0  0  0  0  0  0
  1  2  2  0
  2  3  1  0
  3  4  2  0
  4  5  1  0
  5  6  2  0
  6  7  1  0
  7  8  2  0
  8  9  1  0
  9 10  2  0
 10 11  1  0
 11 12  2  0
 12 13  1  0
 13 14  2  0
 14 15  1  0
 15 16  2  0
 16 17  1  0
 17 18  2  0
 18  2  1  0
  8  3  1  0
 18  9  1  0
 16 11  1  0
  4 19  1  0
  5 20  1  0
  7 21  1  0
 12 22  1  0
 13 23  1  0
 14 24  1  0
 15 25  1  0
M  END
>  <UniqueID>  (30) 
27

>  <SMILES>  (30) 
O=C1c2ccncc2-c2nc3ccccc3nc21

>  <Energy>  (30) 
72.19411678957543

>  <Genealogy>  (30) 
O=C1c2ccncc2-c2nc3ccccc3nc21 (3D coordinates assigned)
O=C1c2ccncc2-c2nc3ccccc3nc21 (nonaromatic ring conformer: 72.19411678957543 kcal/mol)

>  <smiles>  (30) 
O=C1c2ccncc2-c2nc3ccccc3nc21

>  <score_type>  (30) 
oracle

>  <origin>  (30) 
adg

>  <m_score__min__energy>  (30) 
-7.6100000000000003

>  <m_primary>  (30) 
energy

$$$$
30:0
     RDKit          3D

 44 46  0  0  0  0  0  0  0  0999 V2000
   -4.7650   18.6060  -33.0220 C   0  0  0  0  0  0  0  0  0  0  0  0
   -3.7670   19.5710  -33.3370 O   0  0  0  0  0  0  0  0  0  0  0  0
   -3.2160   20.4820  -32.4200 C   0  0  0  0  0  0  0  0  0  0  0  0
   -2.1110   20.1470  -31.6180 C   0  0  0  0  0  0  0  0  0  0  0  0
   -1.5870   21.0660  -30.6990 C   0  0  0  0  0  0  0  0  0  0  0  0
   -0.4850   20.7160  -29.9050 C   0  0  0  0  0  0  0  0  0  0  0  0
    0.0410   21.6220  -28.9840 C   0  0  0  0  0  0  0  0  0  0  0  0
   -0.5260   22.8990  -28.8370 C   0  0  0  0  0  0  0  0  0  0  0  0
   -0.0140   23.8310  -27.9130 C   0  0  0  0  0  0  0  0  0  0  0  0
    0.9750   23.5460  -27.1840 O   0  0  0  0  0  0  0  0  0  0  0  0
   -0.6070   25.0910  -27.7980 C   0  0  0  0  0  0  0  0  0  0  0  0
   -1.7020   25.4110  -28.6000 C   0  0  0  0  0  0  0  0  0  0  0  0
   -2.1870   24.5050  -29.4870 N   0  0  0  0  0  0  0  0  0  0  0  0
   -1.6390   23.2650  -29.6340 C   0  0  0  0  0  0  0  0  0  0  0  0
   -2.1720   22.3480  -30.5680 C   0  0  0  0  0  0  0  0  0  0  0  0
   -3.2760   22.6790  -31.3730 C   0  0  0  0  0  0  0  0  0  0  0  0
   -3.7940   21.7640  -32.3060 C   0  0  0  0  0  0  0  0  0  0  0  0
   -4.9480   22.1250  -33.0980 N   0  0  0  0  0  0  0  0  0  0  0  0
   -6.1780   21.9280  -32.3140 C   0  0  0  0  0  0  0  0  0  0  0  0
   -6.7850   23.2610  -31.8380 C   0  0  0  0  0  0  0  0  0  0  0  0
   -6.0430   23.9400  -30.6710 C   0  0  0  0  0  0  0  0  0  0  0  0
   -5.6340   25.3930  -30.9580 C   0  0  0  0  0  0  0  0  0  0  0  0
   -4.2340   25.6230  -30.6120 N   0  0  0  0  0  0  0  0  0  0  0  0
   -4.8571   18.5170  -31.9295 H   0  0  0  0  0  0  0  0  0  0  0  0
   -5.7289   18.9233  -33.4466 H   0  0  0  0  0  0  0  0  0  0  0  0
   -4.4802   17.6320  -33.4466 H   0  0  0  0  0  0  0  0  0  0  0  0
   -1.6523   19.1517  -31.7130 H   0  0  0  0  0  0  0  0  0  0  0  0
   -0.0319   19.7191  -30.0094 H   0  0  0  0  0  0  0  0  0  0  0  0
    0.9060   21.3345  -28.3683 H   0  0  0  0  0  0  0  0  0  0  0  0
   -0.2129   25.8252  -27.0800 H   0  0  0  0  0  0  0  0  0  0  0  0
   -2.1743   26.4007  -28.5136 H   0  0  0  0  0  0  0  0  0  0  0  0
   -3.7421   23.6702  -31.2711 H   0  0  0  0  0  0  0  0  0  0  0  0
   -4.8740   23.1260  -33.3950 H   0  0  0  0  0  0  0  0  0  0  0  0
   -4.9720   21.5410  -33.9650 H   0  0  0  0  0  0  0  0  0  0  0  0
   -6.9169   21.4058  -32.9396 H   0  0  0  0  0  0  0  0  0  0  0  0
   -5.9191   21.3378  -31.4226 H   0  0  0  0  0  0  0  0  0  0  0  0
   -6.7884   23.9568  -32.6899 H   0  0  0  0  0  0  0  0  0  0  0  0
   -7.7907   23.0215  -31.4622 H   0  0  0  0  0  0  0  0  0  0  0  0
   -6.7017   23.9326  -29.7900 H   0  0  0  0  0  0  0  0  0  0  0  0
   -5.1151   23.3722  -30.5076 H   0  0  0  0  0  0  0  0  0  0  0  0
   -5.7787   25.6023  -32.0282 H   0  0  0  0  0  0  0  0  0  0  0  0
   -6.2593   26.0595  -30.3458 H   0  0  0  0  0  0  0  0  0  0  0  0
   -3.6510   24.9130  -31.1130 H   0  0  0  0  0  0  0  0  0  0  0  0
   -4.1220   25.4330  -29.5910 H   0  0  0  0  0  0  0  0  0  0  0  0
  1  2  1  0
  2  3  1  0
  3  4  2  0
  4  5  1  0
  5  6  2  0
  6  7  1  0
  7  8  2  0
  8  9  1  0
  9 10  2  0
  9 11  1  0
 11 12  2  0
 12 13  1  0
 13 14  1  0
 14 15  2  0
 15 16  1  0
 16 17  2  0
 17 18  1  0
 18 19  1  0
 19 20  1  0
 20 21  1  0
 21 22  1  0
 22 23  1  0
 17  3  1  0
 15  5  1  0
 14  8  1  0
  1 24  1  0
  1 25  1  0
  1 26  1  0
  4 27  1  0
  6 28  1  0
  7 29  1  0
 11 30  1  0
 12 31  1  0
 16 32  1  0
 18 33  1  0
 18 34  1  0
 19 35  1  0
 19 36  1  0
 20 37  1  0
 20 38  1  0
 21 39  1  0
 21 40  1  0
 22 41  1  0
 22 42  1  0
 23 43  1  0
 23 44  1  0
M  CHG  2  13  -1  18   1
M  END
>  <UniqueID>  (31) 
28

>  <SMILES>  (31) 
COc1cc2ccc3c(=O)cc[n-]c3c2cc1[NH2+]CCCCN

>  <Energy>  (31) 
50.42886871154702

>  <Genealogy>  (31) 
COc1cc2ccc3c(=O)cc[n-]c3c2cc1[NH2+]CCCCN (protonated)
COc1cc2ccc3c(=O)cc[n-]c3c2cc1[NH2+]CCCCN (3D coordinates assigned)
COc1cc2ccc3c(=O)cc[n-]c3c2cc1[NH2+]CCCCN (optimized conformer: 50.42886871154702 kcal/mol)

>  <smiles>  (31) 
COc1cc2ccc3c(=O)cc[nH]c3c2cc1NCCCCN

>  <score_type>  (31) 
oracle

>  <origin>  (31) 
adg

>  <m_score__min__energy>  (31) 
-7.9000000000000004

>  <m_primary>  (31) 
energy

$$$$
31:0
     RDKit          3D

 39 40  0  0  0  0  0  0  0  0999 V2000
   -9.1090   18.4870  -31.7600 C   0  0  0  0  0  0  0  0  0  0  0  0
   -9.1920   19.6670  -32.7220 C   0  0  0  0  0  0  0  0  0  0  0  0
   -8.2330   20.7540  -32.3380 C   0  0  0  0  0  0  0  0  0  0  0  0
   -8.6230   21.8930  -31.7270 N   0  0  0  0  0  0  0  0  0  0  0  0
   -7.4670   22.5500  -31.5060 C   0  0  0  0  0  0  0  0  0  0  0  0
   -7.3650   23.7710  -30.8440 C   0  0  0  0  0  0  0  0  0  0  0  0
   -6.0870   24.3060  -30.6500 C   0  0  0  0  0  0  0  0  0  0  0  0
   -4.9560   23.6320  -31.1370 C   0  0  0  0  0  0  0  0  0  0  0  0
   -5.1070   22.4100  -31.8200 C   0  0  0  0  0  0  0  0  0  0  0  0
   -3.9260   21.7930  -32.4470 C   0  0  0  0  0  0  0  0  0  0  0  0
   -3.6420   22.0090  -33.8300 N   0  0  0  0  0  0  0  0  0  0  0  0
   -3.1880   21.0270  -31.7750 O   0  0  0  0  0  0  0  0  0  0  0  0
   -6.3710   21.8960  -31.9470 N   0  0  0  0  0  0  0  0  0  0  0  0
   -6.8490   20.7370  -32.4590 C   0  0  0  0  0  0  0  0  0  0  0  0
   -6.0620   19.5790  -32.8120 N   0  0  0  0  0  0  0  0  0  0  0  0
   -5.3740   18.7520  -31.7980 C   0  0  0  0  0  0  0  0  0  0  0  0
   -6.1610   17.5090  -31.3690 C   0  0  0  0  0  0  0  0  0  0  0  0
   -5.8340   19.3030  -34.2400 C   0  0  0  0  0  0  0  0  0  0  0  0
   -6.0010   17.8210  -34.5760 C   0  0  0  0  0  0  0  0  0  0  0  0
   -9.1350   18.8560  -30.7241 H   0  0  0  0  0  0  0  0  0  0  0  0
   -9.9620   17.8138  -31.9310 H   0  0  0  0  0  0  0  0  0  0  0  0
   -8.1702   17.9399  -31.9310 H   0  0  0  0  0  0  0  0  0  0  0  0
   -8.9507   19.3189  -33.7372 H   0  0  0  0  0  0  0  0  0  0  0  0
  -10.2126   20.0754  -32.6819 H   0  0  0  0  0  0  0  0  0  0  0  0
   -8.2612   24.2982  -30.4849 H   0  0  0  0  0  0  0  0  0  0  0  0
   -5.9679   25.2589  -30.1135 H   0  0  0  0  0  0  0  0  0  0  0  0
   -3.9532   24.0579  -30.9852 H   0  0  0  0  0  0  0  0  0  0  0  0
   -2.8210   21.5450  -34.2770 H   0  0  0  0  0  0  0  0  0  0  0  0
   -4.2270   22.6600  -34.4000 H   0  0  0  0  0  0  0  0  0  0  0  0
   -4.4102   18.4244  -32.2149 H   0  0  0  0  0  0  0  0  0  0  0  0
   -5.2567   19.3793  -30.9020 H   0  0  0  0  0  0  0  0  0  0  0  0
   -6.1940   17.4569  -30.2707 H   0  0  0  0  0  0  0  0  0  0  0  0
   -7.1858   17.5694  -31.7642 H   0  0  0  0  0  0  0  0  0  0  0  0
   -5.6681   16.6085  -31.7642 H   0  0  0  0  0  0  0  0  0  0  0  0
   -6.5559   19.8841  -34.8327 H   0  0  0  0  0  0  0  0  0  0  0  0
   -4.7986   19.5884  -34.4778 H   0  0  0  0  0  0  0  0  0  0  0  0
   -6.0666   17.2390  -33.6449 H   0  0  0  0  0  0  0  0  0  0  0  0
   -6.9208   17.6794  -35.1625 H   0  0  0  0  0  0  0  0  0  0  0  0
   -5.1358   17.4782  -35.1625 H   0  0  0  0  0  0  0  0  0  0  0  0
  1  2  1  0
  2  3  1  0
  3  4  1  0
  4  5  2  0
  5  6  1  0
  6  7  2  0
  7  8  1  0
  8  9  2  0
  9 10  1  0
 10 11  1  0
 10 12  2  0
  9 13  1  0
 13 14  1  0
 14 15  1  0
 15 16  1  0
 16 17  1  0
 15 18  1  0
 18 19  1  0
 14  3  2  0
 13  5  1  0
  1 20  1  0
  1 21  1  0
  1 22  1  0
  2 23  1  0
  2 24  1  0
  6 25  1  0
  7 26  1  0
  8 27  1  0
 11 28  1  0
 11 29  1  0
 16 30  1  0
 16 31  1  0
 17 32  1  0
 17 33  1  0
 17 34  1  0
 18 35  1  0
 18 36  1  0
 19 37  1  0
 19 38  1  0
 19 39  1  0
M  END
>  <UniqueID>  (32) 
29

>  <SMILES>  (32) 
CCc1nc2cccc(C(N)=O)n2c1N(CC)CC

>  <Energy>  (32) 
78.78254186464903

>  <Genealogy>  (32) 
CCc1nc2cccc(C(N)=O)n2c1N(CC)CC (3D coordinates assigned)
CCc1nc2cccc(C(N)=O)n2c1N(CC)CC (optimized conformer: 78.78254186464903 kcal/mol)

>  <smiles>  (32) 
CCc1nc2cccc(C(N)=O)n2c1N(CC)CC

>  <score_type>  (32) 
oracle

>  <origin>  (32) 
adg

>  <m_score__min__energy>  (32) 
-6.8700000000000001

>  <m_primary>  (32) 
energy

$$$$
32:0
     RDKit          3D

 48 49  0  0  0  0  0  0  0  0999 V2000
   -5.9110   17.3610  -34.5500 C   0  0  0  0  0  0  0  0  0  0  0  0
   -6.1450   16.9290  -33.1060 C   0  0  0  0  0  0  0  0  0  0  0  0
   -7.3370   17.5190  -32.5870 O   0  0  0  0  0  0  0  0  0  0  0  0
   -7.5200   18.8840  -32.3100 C   0  0  0  0  0  0  0  0  0  0  0  0
   -8.7700   19.4340  -31.9710 C   0  0  0  0  0  0  0  0  0  0  0  0
   -8.8920   20.8020  -31.7060 C   0  0  0  0  0  0  0  0  0  0  0  0
   -7.7710   21.6480  -31.7790 C   0  0  0  0  0  0  0  0  0  0  0  0
   -7.9000   23.0970  -31.4980 C   0  0  0  0  0  0  0  0  0  0  0  0
   -8.8440   23.7580  -32.0110 O   0  0  0  0  0  0  0  0  0  0  0  0
   -6.9570   23.7520  -30.6410 N   0  0  0  0  0  0  0  0  0  0  0  0
   -5.9130   24.6530  -31.1180 C   0  0  0  0  0  0  0  0  0  0  0  0
   -4.5230   24.0440  -30.9080 C   0  0  0  0  0  0  0  0  0  0  0  0
   -3.6130   25.0110  -30.3010 N   0  0  0  0  0  0  0  0  0  0  0  0
   -2.6090   24.6640  -29.3440 C   0  0  0  0  0  0  0  0  0  0  0  0
   -2.6150   23.5120  -28.8360 O   0  0  0  0  0  0  0  0  0  0  0  0
   -1.6020   25.6130  -28.9740 N   0  0  0  0  0  0  0  0  0  0  0  0
   -1.1090   25.7790  -27.6100 C   0  0  0  0  0  0  0  0  0  0  0  0
   -0.7340   27.2500  -27.3820 C   0  0  0  0  0  0  0  0  0  0  0  0
   -0.1360   27.4740  -25.9780 C   0  0  0  0  0  0  0  0  0  0  0  0
   -0.6710   26.4910  -24.9170 C   0  0  0  0  0  0  0  0  0  0  0  0
   -2.1000   26.0400  -25.2350 C   0  0  0  0  0  0  0  0  0  0  0  0
   -2.1790   25.3120  -26.5910 C   0  0  0  0  0  0  0  0  0  0  0  0
   -6.5260   21.0950  -32.1240 C   0  0  0  0  0  0  0  0  0  0  0  0
   -6.4060   19.7270  -32.3870 C   0  0  0  0  0  0  0  0  0  0  0  0
   -5.3871   18.3282  -34.5631 H   0  0  0  0  0  0  0  0  0  0  0  0
   -5.2988   16.6054  -35.0642 H   0  0  0  0  0  0  0  0  0  0  0  0
   -6.8783   17.4610  -35.0642 H   0  0  0  0  0  0  0  0  0  0  0  0
   -6.2387   15.8337  -33.0680 H   0  0  0  0  0  0  0  0  0  0  0  0
   -5.2924   17.2618  -32.4959 H   0  0  0  0  0  0  0  0  0  0  0  0
   -9.6561   18.7846  -31.9141 H   0  0  0  0  0  0  0  0  0  0  0  0
   -9.8736   21.2198  -31.4381 H   0  0  0  0  0  0  0  0  0  0  0  0
   -6.0642   24.8425  -32.1910 H   0  0  0  0  0  0  0  0  0  0  0  0
   -5.9736   25.5919  -30.5482 H   0  0  0  0  0  0  0  0  0  0  0  0
   -4.6101   23.1686  -30.2476 H   0  0  0  0  0  0  0  0  0  0  0  0
   -4.1183   23.7497  -31.8876 H   0  0  0  0  0  0  0  0  0  0  0  0
   -0.2129   25.1581  -27.4634 H   0  0  0  0  0  0  0  0  0  0  0  0
    0.0070   27.5504  -28.1374 H   0  0  0  0  0  0  0  0  0  0  0  0
   -1.6491   27.8547  -27.4660 H   0  0  0  0  0  0  0  0  0  0  0  0
    0.9559   27.3568  -26.0420 H   0  0  0  0  0  0  0  0  0  0  0  0
   -0.4293   28.4851  -25.6591 H   0  0  0  0  0  0  0  0  0  0  0  0
   -0.0164   25.6075  -24.8867 H   0  0  0  0  0  0  0  0  0  0  0  0
   -0.6813   27.0062  -23.9451 H   0  0  0  0  0  0  0  0  0  0  0  0
   -2.4430   25.3576  -24.4434 H   0  0  0  0  0  0  0  0  0  0  0  0
   -2.7383   26.9343  -25.2880 H   0  0  0  0  0  0  0  0  0  0  0  0
   -2.0448   24.2344  -26.4154 H   0  0  0  0  0  0  0  0  0  0  0  0
   -3.1619   25.5463  -27.0257 H   0  0  0  0  0  0  0  0  0  0  0  0
   -5.6395   21.7431  -32.1876 H   0  0  0  0  0  0  0  0  0  0  0  0
   -5.4251   19.3090  -32.6574 H   0  0  0  0  0  0  0  0  0  0  0  0
  1  2  1  0
  2  3  1  0
  3  4  1  0
  4  5  2  0
  5  6  1  0
  6  7  2  0
  7  8  1  0
  8  9  2  0
  8 10  1  0
 10 11  1  0
 11 12  1  0
 12 13  1  0
 13 14  1  0
 14 15  2  0
 14 16  1  0
 16 17  1  0
 17 18  1  0
 18 19  1  0
 19 20  1  0
 20 21  1  0
 21 22  1  0
  7 23  1  0
 23 24  2  0
 24  4  1  0
 22 17  1  0
  1 25  1  0
  1 26  1  0
  1 27  1  0
  2 28  1  0
  2 29  1  0
  5 30  1  0
  6 31  1  0
 11 32  1  0
 11 33  1  0
 12 34  1  0
 12 35  1  0
 17 36  1  0
 18 37  1  0
 18 38  1  0
 19 39  1  0
 19 40  1  0
 20 41  1  0
 20 42  1  0
 21 43  1  0
 21 44  1  0
 22 45  1  0
 22 46  1  0
 23 47  1  0
 24 48  1  0
M  CHG  3  10  -1  13  -1  16  -1
M  END
>  <UniqueID>  (33) 
30

>  <SMILES>  (33) 
CCOc1ccc(C(=O)[N-]CC[N-]C(=O)[N-]C2CCCCC2)cc1

>  <Energy>  (33) 
38.727555519262665

>  <Genealogy>  (33) 
CCOc1ccc(C(=O)[N-]CC[N-]C(=O)[N-]C2CCCCC2)cc1 (protonated)
CCOc1ccc(C(=O)[N-]CC[N-]C(=O)[N-]C2CCCCC2)cc1 (3D coordinates assigned)
CCOc1ccc(C(=O)[N-]CC[N-]C(=O)[N-]C2CCCCC2)cc1 (nonaromatic ring conformer: 38.727555519262665 kcal/mol)

>  <smiles>  (33) 
CCOc1ccc(C(=O)NCCNC(=O)NC2CCCCC2)cc1

>  <score_type>  (33) 
oracle

>  <origin>  (33) 
adg

>  <m_score__min__energy>  (33) 
-11.26

>  <m_primary>  (33) 
energy

$$$$
33:0
     RDKit          3D

 61 65  0  0  0  0  0  0  0  0999 V2000
   -4.1370   21.2850  -30.5960 H   0  0  0  0  0  0  0  0  0  0  0  0
   -4.0850   21.8040  -29.7280 O   0  0  0  0  0  0  0  0  0  0  0  0
   -3.6810   23.1360  -29.6960 C   0  0  0  0  0  0  0  0  0  0  0  0
   -2.6020   23.5600  -29.0190 N   0  0  0  0  0  0  0  0  0  0  0  0
   -2.5470   24.8720  -29.3300 C   0  0  0  0  0  0  0  0  0  0  0  0
   -1.6520   25.6370  -28.8870 O   0  0  0  0  0  0  0  0  0  0  0  0
   -3.5240   25.2980  -30.1590 N   0  0  0  0  0  0  0  0  0  0  0  0
   -4.2580   24.1930  -30.3720 C   0  0  0  0  0  0  0  0  0  0  0  0
   -5.4350   24.1660  -31.2550 C   0  0  0  0  0  0  0  0  0  0  0  0
   -5.7998   25.1182  -31.6676 H   0  0  0  0  0  0  0  0  0  0  0  0
   -6.0850   23.0410  -31.5820 C   0  0  0  0  0  0  0  0  0  0  0  0
   -7.4270   22.7090  -31.3830 C   0  0  0  0  0  0  0  0  0  0  0  0
   -8.1685   23.3447  -30.8769 H   0  0  0  0  0  0  0  0  0  0  0  0
   -7.6770   21.4850  -31.9080 N   0  0  0  0  0  0  0  0  0  0  0  0
   -6.5430   21.0440  -32.4290 N   0  0  0  0  0  0  0  0  0  0  0  0
   -6.2940   19.8680  -33.0760 C   0  0  0  0  0  0  0  0  0  0  0  0
   -7.2020   18.9550  -33.2740 N   0  0  0  0  0  0  0  0  0  0  0  0
   -7.3410   17.6960  -32.5470 C   0  0  0  0  0  0  0  0  0  0  0  0
   -8.4158   17.5406  -32.7222 H   0  0  0  0  0  0  0  0  0  0  0  0
   -6.4320   17.5760  -31.3380 C   0  0  0  0  0  0  0  0  0  0  0  0
   -5.8257   18.4361  -31.0178 H   0  0  0  0  0  0  0  0  0  0  0  0
   -6.5691   17.2820  -30.2869 H   0  0  0  0  0  0  0  0  0  0  0  0
   -6.0910   16.8420  -32.6250 C   0  0  0  0  0  0  0  0  0  0  0  0
   -5.2375   17.1707  -33.2361 H   0  0  0  0  0  0  0  0  0  0  0  0
   -5.8787   15.7960  -32.8913 H   0  0  0  0  0  0  0  0  0  0  0  0
   -5.0310   19.6520  -33.5300 N   0  0  0  0  0  0  0  0  0  0  0  0
   -4.0420   20.5840  -33.3520 C   0  0  0  0  0  0  0  0  0  0  0  0
   -2.8370   20.3700  -33.7900 N   0  0  0  0  0  0  0  0  0  0  0  0
   -1.6640   21.1670  -33.4320 C   0  0  0  0  0  0  0  0  0  0  0  0
   -1.9273   22.2345  -33.4647 H   0  0  0  0  0  0  0  0  0  0  0  0
   -0.8563   20.9550  -34.1480 H   0  0  0  0  0  0  0  0  0  0  0  0
   -1.1930   20.8140  -32.0450 C   0  0  0  0  0  0  0  0  0  0  0  0
   -0.9540   19.4770  -31.6890 C   0  0  0  0  0  0  0  0  0  0  0  0
   -1.1425   18.6748  -32.4177 H   0  0  0  0  0  0  0  0  0  0  0  0
   -0.4780   19.1600  -30.4140 C   0  0  0  0  0  0  0  0  0  0  0  0
   -0.2880   18.1105  -30.1450 H   0  0  0  0  0  0  0  0  0  0  0  0
   -0.2420   20.1750  -29.4770 C   0  0  0  0  0  0  0  0  0  0  0  0
    0.3300   19.7900  -27.8550 S   0  0  0  0  0  0  0  0  0  0  0  0
    0.9830   18.4330  -27.8480 O   0  0  0  0  0  0  0  0  0  0  0  0
    1.3670   20.8090  -27.4710 O   0  0  0  0  0  0  0  0  0  0  0  0
   -1.0010   19.8420  -26.7120 N   0  0  0  0  0  0  0  0  0  0  0  0
   -1.8160   21.0690  -26.8440 C   0  0  0  0  0  0  0  0  0  0  0  0
   -2.7243   20.9462  -26.2359 H   0  0  0  0  0  0  0  0  0  0  0  0
   -2.0318   21.1897  -27.9159 H   0  0  0  0  0  0  0  0  0  0  0  0
   -1.1050   22.3520  -26.3920 C   0  0  0  0  0  0  0  0  0  0  0  0
   -1.0832   22.3914  -25.2929 H   0  0  0  0  0  0  0  0  0  0  0  0
   -0.0756   22.3567  -26.7796 H   0  0  0  0  0  0  0  0  0  0  0  0
   -1.6467   23.2274  -26.7796 H   0  0  0  0  0  0  0  0  0  0  0  0
   -1.8040   18.6020  -26.7410 C   0  0  0  0  0  0  0  0  0  0  0  0
   -1.8102   18.1972  -27.7638 H   0  0  0  0  0  0  0  0  0  0  0  0
   -1.3595   17.8707  -26.0499 H   0  0  0  0  0  0  0  0  0  0  0  0
   -3.2370   18.8910  -26.3050 C   0  0  0  0  0  0  0  0  0  0  0  0
   -3.2909   18.9019  -25.2064 H   0  0  0  0  0  0  0  0  0  0  0  0
   -3.5492   19.8702  -26.6971 H   0  0  0  0  0  0  0  0  0  0  0  0
   -3.9043   18.1093  -26.6971 H   0  0  0  0  0  0  0  0  0  0  0  0
   -0.4840   21.5090  -29.8290 C   0  0  0  0  0  0  0  0  0  0  0  0
   -0.3086   22.3090  -29.0947 H   0  0  0  0  0  0  0  0  0  0  0  0
   -0.9470   21.8290  -31.1080 C   0  0  0  0  0  0  0  0  0  0  0  0
   -1.1192   22.8805  -31.3813 H   0  0  0  0  0  0  0  0  0  0  0  0
   -4.3180   21.7500  -32.7040 N   0  0  0  0  0  0  0  0  0  0  0  0
   -5.5790   21.9530  -32.2540 C   0  0  0  0  0  0  0  0  0  0  0  0
  1  2  1  0
  2  3  1  0
  3  4  1  0
  4  5  1  0
  5  6  2  0
  5  7  1  0
  7  8  1  0
  8  9  1  0
  9 10  1  0
  9 11  2  3
 11 12  1  0
 12 13  1  0
 12 14  2  0
 14 15  1  0
 15 16  1  0
 16 17  2  3
 17 18  1  0
 18 19  1  0
 18 20  1  0
 20 21  1  0
 20 22  1  0
 20 23  1  0
 23 24  1  0
 23 25  1  0
 16 26  1  0
 26 27  1  0
 27 28  2  0
 28 29  1  0
 29 30  1  0
 29 31  1  0
 29 32  1  0
 32 33  2  0
 33 34  1  0
 33 35  1  0
 35 36  1  0
 35 37  2  0
 37 38  1  0
 38 39  2  0
 38 40  2  0
 38 41  1  0
 41 42  1  0
 42 43  1  0
 42 44  1  0
 42 45  1  0
 45 46  1  0
 45 47  1  0
 45 48  1  0
 41 49  1  0
 49 50  1  0
 49 51  1  0
 49 52  1  0
 52 53  1  0
 52 54  1  0
 52 55  1  0
 37 56  1  0
 56 57  1  0
 56 58  2  0
 58 59  1  0
 27 60  1  0
 60 61  2  0
  8  3  2  0
 61 11  1  0
 61 15  1  0
 23 18  1  0
 58 32  1  0
M  CHG  3   4  -1   7  -1  26  -1
M  END
>  <UniqueID>  (34) 
31

>  <SMILES>  (34) 
CCN(CC)S(=O)(=O)c1ccc(C/N=c2/nc3c(=Cc4[n-]c(=O)[n-]c4O)cnn3c(=NC3CC3)[n-]2)cc1

>  <Energy>  (34) 
404.9040537922774

>  <Genealogy>  (34) 
CCN(CC)S(=O)(=O)c1ccc(CN=c2nc3c(=Cc4[n-]c(=O)[n-]c4O)cnn3c(=NC3CC3)[n-]2)cc1 (protonated)
CCN(CC)S(=O)(=O)c1ccc(C/N=c2/nc3c(=Cc4[n-]c(=O)[n-]c4O)cnn3c(=NC3CC3)[n-]2)cc1 (cis-trans isomerization)
CCN(CC)S(=O)(=O)c1ccc(C/N=c2/nc3c(=Cc4[n-]c(=O)[n-]c4O)cnn3c(=NC3CC3)[n-]2)cc1 (3D coordinates assigned)
CCN(CC)S(=O)(=O)c1ccc(C/N=c2/nc3c(=Cc4[n-]c(=O)[n-]c4O)cnn3c(=NC3CC3)[n-]2)cc1 (nonaromatic ring conformer: 404.9040537922774 kcal/mol)

>  <smiles>  (34) 
CCN(CC)S(=O)(=O)c1ccc(CN=c2nc3c(=Cc4[nH]c(=O)[nH]c4O)cnn3c(=NC3CC3)[nH]2)cc1

>  <score_type>  (34) 
oracle

>  <origin>  (34) 
adg

>  <m_score__min__energy>  (34) 
-12.27

>  <m_primary>  (34) 
energy

$$$$
34:0
     RDKit          3D

 41 43  0  0  0  0  0  0  0  0999 V2000
   -6.0830   25.5460  -28.9510 N   0  0  0  0  0  0  0  0  0  0  0  0
   -6.3930   25.3020  -30.3610 C   0  0  0  0  0  0  0  0  0  0  0  0
   -5.9220   23.9120  -30.8320 C   0  0  0  0  0  0  0  0  0  0  0  0
   -7.0390   22.8360  -30.9220 C   0  0  1  0  0  0  0  0  0  0  0  0
   -8.3230   23.4020  -31.5930 C   0  0  0  0  0  0  0  0  0  0  0  0
   -9.3560   22.3360  -32.0400 C   0  0  0  0  0  0  0  0  0  0  0  0
   -9.0280   20.9180  -31.5590 C   0  0  0  0  0  0  0  0  0  0  0  0
   -7.6010   20.5910  -31.8970 C   0  0  0  0  0  0  0  0  0  0  0  0
   -7.2650   19.3570  -32.4730 C   0  0  0  0  0  0  0  0  0  0  0  0
   -5.9320   19.0600  -32.7990 C   0  0  0  0  0  0  0  0  0  0  0  0
   -5.5770   17.7560  -33.4150 C   0  0  0  0  0  0  0  0  0  0  0  0
   -6.4520   16.6570  -33.3180 C   0  0  0  0  0  0  0  0  0  0  0  0
   -6.1140   15.4300  -33.8980 C   0  0  0  0  0  0  0  0  0  0  0  0
   -4.9050   15.2870  -34.5810 C   0  0  0  0  0  0  0  0  0  0  0  0
   -4.0290   16.3690  -34.6840 C   0  0  0  0  0  0  0  0  0  0  0  0
   -4.3590   17.5980  -34.1050 C   0  0  0  0  0  0  0  0  0  0  0  0
   -4.9390   20.0170  -32.5320 C   0  0  0  0  0  0  0  0  0  0  0  0
   -5.2660   21.2420  -31.9460 C   0  0  0  0  0  0  0  0  0  0  0  0
   -6.6050   21.5480  -31.6230 C   0  0  0  0  0  0  0  0  0  0  0  0
   -6.5000   26.4500  -28.6360 H   0  0  0  0  0  0  0  0  0  0  0  0
   -5.0450   25.6080  -28.8380 H   0  0  0  0  0  0  0  0  0  0  0  0
   -6.4380   24.7610  -28.3580 H   0  0  0  0  0  0  0  0  0  0  0  0
   -7.4818   25.3727  -30.5011 H   0  0  0  0  0  0  0  0  0  0  0  0
   -5.8610   26.0574  -30.9579 H   0  0  0  0  0  0  0  0  0  0  0  0
   -5.4745   24.0236  -31.8306 H   0  0  0  0  0  0  0  0  0  0  0  0
   -5.2112   23.5545  -30.0724 H   0  0  0  0  0  0  0  0  0  0  0  0
   -7.2613   22.5673  -29.8788 H   0  0  0  0  0  0  0  0  0  0  0  0
   -8.8155   24.0734  -30.8742 H   0  0  0  0  0  0  0  0  0  0  0  0
   -7.9907   23.9101  -32.5103 H   0  0  0  0  0  0  0  0  0  0  0  0
  -10.3412   22.6187  -31.6406 H   0  0  0  0  0  0  0  0  0  0  0  0
   -9.3386   22.3138  -33.1396 H   0  0  0  0  0  0  0  0  0  0  0  0
   -9.1695   20.8586  -30.4698 H   0  0  0  0  0  0  0  0  0  0  0  0
   -9.6961   20.1990  -32.0558 H   0  0  0  0  0  0  0  0  0  0  0  0
   -8.0528   18.6153  -32.6711 H   0  0  0  0  0  0  0  0  0  0  0  0
   -7.4071   16.7641  -32.7829 H   0  0  0  0  0  0  0  0  0  0  0  0
   -6.8023   14.5759  -33.8158 H   0  0  0  0  0  0  0  0  0  0  0  0
   -4.6425   14.3215  -35.0381 H   0  0  0  0  0  0  0  0  0  0  0  0
   -3.0765   16.2543  -35.2222 H   0  0  0  0  0  0  0  0  0  0  0  0
   -3.6637   18.4463  -34.1887 H   0  0  0  0  0  0  0  0  0  0  0  0
   -3.8915   19.7991  -32.7874 H   0  0  0  0  0  0  0  0  0  0  0  0
   -4.4729   21.9744  -31.7345 H   0  0  0  0  0  0  0  0  0  0  0  0
  1  2  1  0
  2  3  1  0
  3  4  1  0
  4  5  1  0
  5  6  1  0
  6  7  1  0
  7  8  1  0
  8  9  2  0
  9 10  1  0
 10 11  1  0
 11 12  2  0
 12 13  1  0
 13 14  2  0
 14 15  1  0
 15 16  2  0
 10 17  2  0
 17 18  1  0
 18 19  2  0
 19  4  1  0
 19  8  1  0
 16 11  1  0
  1 20  1  0
  1 21  1  0
  1 22  1  0
  2 23  1  0
  2 24  1  0
  3 25  1  0
  3 26  1  0
  4 27  1  1
  5 28  1  0
  5 29  1  0
  6 30  1  0
  6 31  1  0
  7 32  1  0
  7 33  1  0
  9 34  1  0
 12 35  1  0
 13 36  1  0
 14 37  1  0
 15 38  1  0
 16 39  1  0
 17 40  1  0
 18 41  1  0
M  CHG  1   1   1
M  END
>  <UniqueID>  (35) 
32

>  <SMILES>  (35) 
[NH3+]CC[C@H]1CCCc2cc(-c3ccccc3)ccc21

>  <Energy>  (35) 
53.569797796635775

>  <Genealogy>  (35) 
[NH3+]CCC1CCCc2cc(-c3ccccc3)ccc21 (protonated)
[NH3+]CC[C@H]1CCCc2cc(-c3ccccc3)ccc21 (chirality)
[NH3+]CC[C@H]1CCCc2cc(-c3ccccc3)ccc21 (3D coordinates assigned)
[NH3+]CC[C@H]1CCCc2cc(-c3ccccc3)ccc21 (nonaromatic ring conformer: 53.569797796635775 kcal/mol)

>  <smiles>  (35) 
NCCC1CCCc2cc(-c3ccccc3)ccc21

>  <score_type>  (35) 
oracle

>  <origin>  (35) 
adg

>  <m_score__min__energy>  (35) 
-7.7199999999999998

>  <m_primary>  (35) 
energy

$$$$
35:0
     RDKit          3D

 43 46  0  0  1  0  0  0  0  0999 V2000
   -9.8610   21.5030  -31.5650 C   0  0  0  0  0  0  0  0  0  0  0  0
   -8.6040   20.9820  -32.1110 C   0  0  0  0  0  0  0  0  0  0  0  0
   -8.4260   19.3080  -32.6790 S   0  0  0  0  0  0  0  0  0  0  0  0
   -6.6660   19.5550  -33.0480 C   0  0  0  0  0  0  0  0  0  0  0  0
   -5.8660   18.6220  -33.5440 N   0  0  0  0  0  0  0  0  0  0  0  0
   -4.5810   18.9160  -33.7650 C   0  0  0  0  0  0  0  0  0  0  0  0
   -4.1810   20.1510  -33.4610 N   0  0  0  0  0  0  0  0  0  0  0  0
   -4.9980   21.1140  -32.9480 C   0  0  0  0  0  0  0  0  0  0  0  0
   -4.5120   22.1160  -32.5240 N   0  0  0  0  0  0  0  0  0  0  0  0
   -3.9420   22.7490  -31.5540 C   0  0  0  0  0  0  0  0  0  0  0  0
   -2.7110   22.3720  -30.9890 C   0  0  0  0  0  0  0  0  0  0  0  0
   -2.1980   22.9750  -29.8680 C   0  0  0  0  0  0  0  0  0  0  0  0
   -2.8780   23.9910  -29.2370 C   0  0  0  0  0  0  0  0  0  0  0  0
   -2.3490   24.6170  -28.0750 N   0  0  0  0  0  0  0  0  0  0  0  0
   -3.0110   24.6080  -26.7800 C   0  0  0  0  0  0  0  0  0  0  0  0
   -2.3600   25.6910  -25.9640 C   0  0  0  0  0  0  0  0  0  0  0  0
   -1.0700   25.9920  -26.6630 C   0  0  0  0  0  0  0  0  0  0  0  0
   -1.1020   25.3420  -28.0030 C   0  0  0  0  0  0  0  0  0  0  0  0
   -4.0880   24.3920  -29.7580 C   0  0  0  0  0  0  0  0  0  0  0  0
   -4.6270   23.8090  -30.8780 C   0  0  0  0  0  0  0  0  0  0  0  0
   -6.3670   20.8530  -32.7150 C   0  0  0  0  0  0  0  0  0  0  0  0
   -7.3440   21.6220  -32.2380 C   0  0  0  0  0  0  0  0  0  0  0  0
   -7.4480   23.1220  -32.0040 C   0  0  0  0  0  0  0  0  0  0  0  0
   -9.8186   21.4854  -30.4660 H   0  0  0  0  0  0  0  0  0  0  0  0
  -10.0099   22.5369  -31.9097 H   0  0  0  0  0  0  0  0  0  0  0  0
  -10.6976   20.8775  -31.9097 H   0  0  0  0  0  0  0  0  0  0  0  0
   -3.8845   18.1722  -34.1792 H   0  0  0  0  0  0  0  0  0  0  0  0
   -3.1540   20.3430  -33.6510 H   0  0  0  0  0  0  0  0  0  0  0  0
   -2.1370   21.5626  -31.4637 H   0  0  0  0  0  0  0  0  0  0  0  0
   -1.2291   22.6412  -29.4682 H   0  0  0  0  0  0  0  0  0  0  0  0
   -4.0847   24.8151  -26.8999 H   0  0  0  0  0  0  0  0  0  0  0  0
   -2.9166   23.6276  -26.2901 H   0  0  0  0  0  0  0  0  0  0  0  0
   -2.9988   26.5860  -25.9321 H   0  0  0  0  0  0  0  0  0  0  0  0
   -2.1982   25.3779  -24.9220 H   0  0  0  0  0  0  0  0  0  0  0  0
   -0.9551   27.0797  -26.7798 H   0  0  0  0  0  0  0  0  0  0  0  0
   -0.2222   25.6091  -26.0759 H   0  0  0  0  0  0  0  0  0  0  0  0
   -1.0581   26.1030  -28.7961 H   0  0  0  0  0  0  0  0  0  0  0  0
   -0.2418   24.6704  -28.1410 H   0  0  0  0  0  0  0  0  0  0  0  0
   -4.6395   25.2041  -29.2617 H   0  0  0  0  0  0  0  0  0  0  0  0
   -5.5966   24.1604  -31.2605 H   0  0  0  0  0  0  0  0  0  0  0  0
   -7.4620   23.3243  -30.9229 H   0  0  0  0  0  0  0  0  0  0  0  0
   -6.5826   23.6251  -32.4600 H   0  0  0  0  0  0  0  0  0  0  0  0
   -8.3746   23.5009  -32.4600 H   0  0  0  0  0  0  0  0  0  0  0  0
  1  2  1  0
  2  3  1  0
  3  4  1  0
  4  5  1  0
  5  6  2  0
  6  7  1  0
  7  8  1  0
  8  9  2  0
  9 10  1  0
 10 11  2  0
 11 12  1  0
 12 13  2  0
 13 14  1  0
 14 15  1  0
 15 16  1  0
 16 17  1  0
 17 18  1  0
 13 19  1  0
 19 20  2  0
  8 21  1  0
 21 22  1  0
 22 23  1  0
 22  2  2  0
 21  4  2  0
 20 10  1  0
 18 14  1  0
  1 24  1  0
  1 25  1  0
  1 26  1  0
  6 27  1  0
  7 28  1  0
 11 29  1  0
 12 30  1  0
 15 31  1  0
 15 32  1  0
 16 33  1  0
 16 34  1  0
 17 35  1  0
 17 36  1  0
 18 37  1  0
 18 38  1  0
 19 39  1  0
 20 40  1  0
 23 41  1  0
 23 42  1  0
 23 43  1  0
M  END
>  <smiles>  (36) 
Cc1sc2nc[nH]c(=Nc3ccc(N4CCCC4)cc3)c2c1C

>  <score_type>  (36) 
oracle

>  <origin>  (36) 
adg

>  <m_score__min__energy>  (36) 
-8.4299999999999997

>  <m_primary>  (36) 
energy

$$$$
36:0
     RDKit          3D

 51 54  0  0  0  0  0  0  0  0999 V2000
   -3.0290   24.3260  -27.4160 C   0  0  0  0  0  0  0  0  0  0  0  0
   -2.6260   24.0140  -28.7460 O   0  0  0  0  0  0  0  0  0  0  0  0
   -3.3600   23.2100  -29.6310 C   0  0  0  0  0  0  0  0  0  0  0  0
   -3.3060   21.8040  -29.5830 C   0  0  0  0  0  0  0  0  0  0  0  0
   -4.0520   21.0370  -30.4790 C   0  0  0  0  0  0  0  0  0  0  0  0
   -4.8740   21.6580  -31.4260 C   0  0  0  0  0  0  0  0  0  0  0  0
   -5.6060   20.8460  -32.4150 C   0  0  0  0  0  0  0  0  0  0  0  0
   -6.9850   20.8810  -32.6480 C   0  0  0  0  0  0  0  0  0  0  0  0
   -7.9560   21.8340  -32.0260 C   0  0  0  0  0  0  0  0  0  0  0  0
   -7.3520   19.9030  -33.5070 N   0  0  0  0  0  0  0  0  0  0  0  0
   -6.2210   19.2440  -33.8060 C   0  0  0  0  0  0  0  0  0  0  0  0
   -6.1250   18.1560  -34.6080 N   0  0  0  0  0  0  0  0  0  0  0  0
   -4.8970   17.5900  -34.7960 C   0  0  0  0  0  0  0  0  0  0  0  0
   -3.7890   18.1320  -34.2040 N   0  0  0  0  0  0  0  0  0  0  0  0
   -3.8660   19.2310  -33.3950 C   0  0  0  0  0  0  0  0  0  0  0  0
   -2.6630   19.8240  -32.8830 N   0  0  0  0  0  0  0  0  0  0  0  0
   -2.2900   21.1630  -33.3580 C   0  0  0  0  0  0  0  0  0  0  0  0
   -1.4170   21.9210  -32.3380 C   0  0  0  0  0  0  0  0  0  0  0  0
   -0.5330   21.0110  -31.4640 C   0  0  0  0  0  0  0  0  0  0  0  0
   -0.3060   19.6420  -32.1020 C   0  0  0  0  0  0  0  0  0  0  0  0
   -1.6450   18.9270  -32.3150 C   0  0  0  0  0  0  0  0  0  0  0  0
   -5.1330   19.7850  -33.1760 C   0  0  0  0  0  0  0  0  0  0  0  0
   -4.9330   23.0570  -31.4800 C   0  0  0  0  0  0  0  0  0  0  0  0
   -4.1710   23.8390  -30.5900 C   0  0  0  0  0  0  0  0  0  0  0  0
   -4.1880   25.2420  -30.6250 O   0  0  0  0  0  0  0  0  0  0  0  0
   -5.3550   26.0410  -30.4560 C   0  0  0  0  0  0  0  0  0  0  0  0
   -2.3670   23.8135  -26.7025 H   0  0  0  0  0  0  0  0  0  0  0  0
   -2.9658   25.4129  -27.2592 H   0  0  0  0  0  0  0  0  0  0  0  0
   -4.0654   23.9926  -27.2592 H   0  0  0  0  0  0  0  0  0  0  0  0
   -2.6717   21.3068  -28.8344 H   0  0  0  0  0  0  0  0  0  0  0  0
   -3.9936   19.9392  -30.4406 H   0  0  0  0  0  0  0  0  0  0  0  0
   -7.8862   21.7655  -30.9304 H   0  0  0  0  0  0  0  0  0  0  0  0
   -7.7188   22.8596  -32.3451 H   0  0  0  0  0  0  0  0  0  0  0  0
   -8.9770   21.5776  -32.3451 H   0  0  0  0  0  0  0  0  0  0  0  0
   -8.3150   19.6870  -33.8470 H   0  0  0  0  0  0  0  0  0  0  0  0
   -6.9720   17.7520  -35.0670 H   0  0  0  0  0  0  0  0  0  0  0  0
   -4.7979   16.6940  -35.4264 H   0  0  0  0  0  0  0  0  0  0  0  0
   -1.7285   21.0615  -34.2985 H   0  0  0  0  0  0  0  0  0  0  0  0
   -3.2155   21.7392  -33.5042 H   0  0  0  0  0  0  0  0  0  0  0  0
   -0.7620   22.6112  -32.8900 H   0  0  0  0  0  0  0  0  0  0  0  0
   -2.1064   22.4410  -31.6566 H   0  0  0  0  0  0  0  0  0  0  0  0
    0.4417   21.4993  -31.3170 H   0  0  0  0  0  0  0  0  0  0  0  0
   -1.0514   20.8555  -30.5064 H   0  0  0  0  0  0  0  0  0  0  0  0
    0.1945   19.7724  -33.0729 H   0  0  0  0  0  0  0  0  0  0  0  0
    0.3220   19.0348  -31.4335 H   0  0  0  0  0  0  0  0  0  0  0  0
   -1.4915   18.0827  -33.0032 H   0  0  0  0  0  0  0  0  0  0  0  0
   -2.0054   18.5804  -31.3352 H   0  0  0  0  0  0  0  0  0  0  0  0
   -5.5790   23.5481  -32.2227 H   0  0  0  0  0  0  0  0  0  0  0  0
   -5.5539   26.1772  -29.3827 H   0  0  0  0  0  0  0  0  0  0  0  0
   -5.1988   27.0225  -30.9274 H   0  0  0  0  0  0  0  0  0  0  0  0
   -6.2136   25.5403  -30.9274 H   0  0  0  0  0  0  0  0  0  0  0  0
  1  2  1  0
  2  3  1  0
  3  4  2  0
  4  5  1  0
  5  6  2  0
  6  7  1  0
  7  8  2  0
  8  9  1  0
  8 10  1  0
 10 11  1  0
 11 12  2  0
 12 13  1  0
 13 14  2  0
 14 15  1  0
 15 16  1  0
 16 17  1  0
 17 18  1  0
 18 19  1  0
 19 20  1  0
 20 21  1  0
 15 22  2  0
  6 23  1  0
 23 24  2  0
 24 25  1  0
 25 26  1  0
 24  3  1  0
 22  7  1  0
 22 11  1  0
 21 16  1  0
  1 27  1  0
  1 28  1  0
  1 29  1  0
  4 30  1  0
  5 31  1  0
  9 32  1  0
  9 33  1  0
  9 34  1  0
 10 35  1  0
 12 36  1  0
 13 37  1  0
 17 38  1  0
 17 39  1  0
 18 40  1  0
 18 41  1  0
 19 42  1  0
 19 43  1  0
 20 44  1  0
 20 45  1  0
 21 46  1  0
 21 47  1  0
 23 48  1  0
 26 49  1  0
 26 50  1  0
 26 51  1  0
M  CHG  1  12   1
M  END
>  <UniqueID>  (37) 
33

>  <SMILES>  (37) 
COc1ccc(-c2c(C)[nH]c3[nH+]cnc(N4CCCCC4)c23)cc1OC

>  <Energy>  (37) 
95.04206020436254

>  <Genealogy>  (37) 
COc1ccc(-c2c(C)[nH]c3[nH+]cnc(N4CCCCC4)c23)cc1OC (protonated)
COc1ccc(-c2c(C)[nH]c3[nH+]cnc(N4CCCCC4)c23)cc1OC (3D coordinates assigned)
COc1ccc(-c2c(C)[nH]c3[nH+]cnc(N4CCCCC4)c23)cc1OC (nonaromatic ring conformer: 95.04206020436254 kcal/mol)

>  <smiles>  (37) 
COc1ccc(-c2c(C)[nH]c3ncnc(N4CCCCC4)c23)cc1OC

>  <score_type>  (37) 
oracle

>  <origin>  (37) 
adg

>  <m_score__min__energy>  (37) 
-7.9699999999999998

>  <m_primary>  (37) 
energy

$$$$
37:0
     RDKit          3D

 41 43  0  0  0  0  0  0  0  0999 V2000
   -6.0396   20.8644  -34.6195 H   0  0  0  0  0  0  0  0  0  0  0  0
   -6.0630   20.3200  -33.6640 C   0  0  0  0  0  0  0  0  0  0  0  0
   -6.1400   21.0480  -32.5280 C   0  0  0  0  0  0  0  0  0  0  0  0
   -4.9220   21.4020  -31.7620 C   0  0  0  0  0  0  0  0  0  0  0  0
   -4.0060   20.5410  -31.6570 O   0  0  0  0  0  0  0  0  0  0  0  0
   -4.7570   22.7050  -31.1630 N   0  0  0  0  0  0  0  0  0  0  0  0
   -3.6710   22.8840  -30.1870 C   0  0  0  0  0  0  0  0  0  0  0  0
   -3.7676   22.1150  -29.4064 H   0  0  0  0  0  0  0  0  0  0  0  0
   -2.7170   22.7933  -30.7271 H   0  0  0  0  0  0  0  0  0  0  0  0
   -3.7020   24.2660  -29.5230 C   0  0  0  0  0  0  0  0  0  0  0  0
   -4.4918   24.2785  -28.7574 H   0  0  0  0  0  0  0  0  0  0  0  0
   -2.7183   24.4562  -29.0690 H   0  0  0  0  0  0  0  0  0  0  0  0
   -3.9610   25.2800  -30.4670 O   0  0  0  0  0  0  0  0  0  0  0  0
   -5.2770   25.1290  -30.9520 C   0  0  0  0  0  0  0  0  0  0  0  0
   -5.9696   25.0538  -30.1007 H   0  0  0  0  0  0  0  0  0  0  0  0
   -5.5289   26.0023  -31.5716 H   0  0  0  0  0  0  0  0  0  0  0  0
   -5.3940   23.8670  -31.8080 C   0  0  0  0  0  0  0  0  0  0  0  0
   -6.4590   23.6445  -31.9699 H   0  0  0  0  0  0  0  0  0  0  0  0
   -4.8785   24.0528  -32.7618 H   0  0  0  0  0  0  0  0  0  0  0  0
   -7.4250   21.4580  -32.0200 N   0  0  0  0  0  0  0  0  0  0  0  0
   -8.0250   22.5970  -32.3220 N   0  0  0  0  0  0  0  0  0  0  0  0
   -9.1950   22.5870  -31.6560 C   0  0  0  0  0  0  0  0  0  0  0  0
   -9.9288   23.4056  -31.6953 H   0  0  0  0  0  0  0  0  0  0  0  0
   -9.3660   21.4580  -30.9340 N   0  0  0  0  0  0  0  0  0  0  0  0
   -8.2310   20.7760  -31.1860 C   0  0  0  0  0  0  0  0  0  0  0  0
   -7.9940   19.7883  -30.7638 H   0  0  0  0  0  0  0  0  0  0  0  0
   -6.0080   18.8430  -33.7130 C   0  0  0  0  0  0  0  0  0  0  0  0
   -6.9720   18.1000  -33.0190 C   0  0  0  0  0  0  0  0  0  0  0  0
   -7.7317   18.6171  -32.4145 H   0  0  0  0  0  0  0  0  0  0  0  0
   -6.9720   16.7020  -33.0920 C   0  0  0  0  0  0  0  0  0  0  0  0
   -7.7172   16.1272  -32.5225 H   0  0  0  0  0  0  0  0  0  0  0  0
   -6.0350   16.0290  -33.8810 C   0  0  0  0  0  0  0  0  0  0  0  0
   -6.1000   14.6290  -33.9510 O   0  0  0  0  0  0  0  0  0  0  0  0
   -7.1590   13.9020  -34.5520 C   0  0  0  0  0  0  0  0  0  0  0  0
   -7.7951   13.4653  -33.7680 H   0  0  0  0  0  0  0  0  0  0  0  0
   -7.7600   14.5789  -35.1771 H   0  0  0  0  0  0  0  0  0  0  0  0
   -6.7433   13.0980  -35.1771 H   0  0  0  0  0  0  0  0  0  0  0  0
   -5.0730   16.7730  -34.5850 C   0  0  0  0  0  0  0  0  0  0  0  0
   -4.3222   16.2555  -35.2002 H   0  0  0  0  0  0  0  0  0  0  0  0
   -5.0670   18.1700  -34.5060 C   0  0  0  0  0  0  0  0  0  0  0  0
   -4.3182   18.7451  -35.0704 H   0  0  0  0  0  0  0  0  0  0  0  0
  1  2  1  0
  2  3  2  0
  3  4  1  0
  4  5  2  0
  4  6  1  0
  6  7  1  0
  7  8  1  0
  7  9  1  0
  7 10  1  0
 10 11  1  0
 10 12  1  0
 10 13  1  0
 13 14  1  0
 14 15  1  0
 14 16  1  0
 14 17  1  0
 17 18  1  0
 17 19  1  0
  3 20  1  0
 20 21  1  0
 21 22  2  0
 22 23  1  0
 22 24  1  0
 24 25  2  0
 25 26  1  0
  2 27  1  0
 27 28  2  0
 28 29  1  0
 28 30  1  0
 30 31  1  0
 30 32  2  0
 32 33  1  0
 33 34  1  0
 34 35  1  0
 34 36  1  0
 34 37  1  0
 32 38  1  0
 38 39  1  0
 38 40  2  0
 40 41  1  0
 17  6  1  0
 25 20  1  0
 40 27  1  0
M  END
>  <UniqueID>  (38) 
34

>  <SMILES>  (38) 
COc1ccc(/C=C(\C(=O)N2CCOCC2)n2cncn2)cc1

>  <Energy>  (38) 
88.35331170945113

>  <Genealogy>  (38) 
COc1ccc(/C=C(\C(=O)N2CCOCC2)n2cncn2)cc1 (cis-trans isomerization)
COc1ccc(/C=C(\C(=O)N2CCOCC2)n2cncn2)cc1 (3D coordinates assigned)
COc1ccc(/C=C(\C(=O)N2CCOCC2)n2cncn2)cc1 (nonaromatic ring conformer: 88.35331170945113 kcal/mol)

>  <smiles>  (38) 
COc1ccc(C=C(C(=O)N2CCOCC2)n2cncn2)cc1

>  <score_type>  (38) 
oracle

>  <origin>  (38) 
adg

>  <m_score__min__energy>  (38) 
-7.2400000000000002

>  <m_primary>  (38) 
energy

$$$$
38:0
     RDKit          3D

 59 63  0  0  0  0  0  0  0  0999 V2000
   -7.2240   16.9140  -33.1180 C   0  0  0  0  0  0  0  0  0  0  0  0
   -6.8850   18.0340  -32.1140 C   0  0  2  0  0  0  0  0  0  0  0  0
   -8.1690   18.8030  -31.7090 C   0  0  0  0  0  0  0  0  0  0  0  0
   -8.4020   19.9240  -32.6440 N   0  0  0  0  0  0  0  0  0  0  0  0
   -9.6630   20.6250  -32.3520 C   0  0  0  0  0  0  0  0  0  0  0  0
   -9.3380   21.9290  -31.6210 C   0  0  0  0  0  0  0  0  0  0  0  0
   -7.8270   21.9940  -31.5370 C   0  0  0  0  0  0  0  0  0  0  0  0
   -7.3480   20.9530  -32.5430 C   0  0  1  0  0  0  0  0  0  0  0  0
   -5.9560   20.3770  -32.1980 C   0  0  0  0  0  0  0  0  0  0  0  0
   -5.8780   18.9840  -32.6410 N   0  0  0  0  0  0  0  0  0  0  0  0
   -5.0680   18.6760  -33.7870 C   0  0  0  0  0  0  0  0  0  0  0  0
   -5.6050   18.6330  -34.9260 O   0  0  0  0  0  0  0  0  0  0  0  0
   -3.6620   18.4130  -33.6550 N   0  0  0  0  0  0  0  0  0  0  0  0
   -2.7540   19.3870  -33.0350 C   0  0  0  0  0  0  0  0  0  0  0  0
   -1.4960   18.6200  -32.9040 C   0  0  0  0  0  0  0  0  0  0  0  0
   -0.5820   18.5440  -31.8770 C   0  0  0  0  0  0  0  0  0  0  0  0
   -0.2440   19.6290  -30.9380 C   0  0  0  0  0  0  0  0  0  0  0  0
    0.9300   20.0780  -30.9180 O   0  0  0  0  0  0  0  0  0  0  0  0
   -1.1970   20.1550  -30.0100 N   0  0  0  0  0  0  0  0  0  0  0  0
   -1.8140   21.4490  -30.0670 C   0  0  0  0  0  0  0  0  0  0  0  0
   -2.9630   21.6930  -30.8500 C   0  0  0  0  0  0  0  0  0  0  0  0
   -3.5220   22.9710  -30.8920 C   0  0  0  0  0  0  0  0  0  0  0  0
   -2.9330   24.0180  -30.1760 C   0  0  0  0  0  0  0  0  0  0  0  0
   -3.4910   25.2900  -30.2250 O   0  0  0  0  0  0  0  0  0  0  0  0
   -1.7840   23.7860  -29.4130 C   0  0  0  0  0  0  0  0  0  0  0  0
   -1.2250   22.5080  -29.3640 C   0  0  0  0  0  0  0  0  0  0  0  0
   -0.1680   17.2620  -31.7590 N   0  0  0  0  0  0  0  0  0  0  0  0
   -0.8400   16.5210  -32.6350 N   0  0  0  0  0  0  0  0  0  0  0  0
   -1.6340   17.3510  -33.3420 C   0  0  0  0  0  0  0  0  0  0  0  0
   -3.0170   17.0980  -33.8540 C   0  0  0  0  0  0  0  0  0  0  0  0
   -2.9640   16.7190  -35.3390 C   0  0  0  0  0  0  0  0  0  0  0  0
   -3.7160   16.0120  -33.0160 C   0  0  0  0  0  0  0  0  0  0  0  0
   -7.5003   16.0013  -32.5697 H   0  0  0  0  0  0  0  0  0  0  0  0
   -8.0664   17.2310  -33.7503 H   0  0  0  0  0  0  0  0  0  0  0  0
   -6.3472   16.7106  -33.7503 H   0  0  0  0  0  0  0  0  0  0  0  0
   -6.4484   17.5467  -31.2297 H   0  0  0  0  0  0  0  0  0  0  0  0
   -9.0291   18.1179  -31.7398 H   0  0  0  0  0  0  0  0  0  0  0  0
   -8.0460   19.2011  -30.6910 H   0  0  0  0  0  0  0  0  0  0  0  0
  -10.1893   20.8481  -33.2918 H   0  0  0  0  0  0  0  0  0  0  0  0
  -10.3080   19.9927  -31.7242 H   0  0  0  0  0  0  0  0  0  0  0  0
   -9.7271   22.7902  -32.1840 H   0  0  0  0  0  0  0  0  0  0  0  0
   -9.7990   21.9574  -30.6227 H   0  0  0  0  0  0  0  0  0  0  0  0
   -7.4644   22.9958  -31.8105 H   0  0  0  0  0  0  0  0  0  0  0  0
   -7.4540   21.7988  -30.5207 H   0  0  0  0  0  0  0  0  0  0  0  0
   -7.1942   21.4204  -33.5268 H   0  0  0  0  0  0  0  0  0  0  0  0
   -5.1793   20.9670  -32.7065 H   0  0  0  0  0  0  0  0  0  0  0  0
   -5.8004   20.4238  -31.1101 H   0  0  0  0  0  0  0  0  0  0  0  0
   -2.6165   20.2676  -33.6797 H   0  0  0  0  0  0  0  0  0  0  0  0
   -3.1256   19.7833  -32.0785 H   0  0  0  0  0  0  0  0  0  0  0  0
   -3.4182   20.8750  -31.4276 H   0  0  0  0  0  0  0  0  0  0  0  0
   -4.4273   23.1551  -31.4892 H   0  0  0  0  0  0  0  0  0  0  0  0
   -1.3209   24.6108  -28.8515 H   0  0  0  0  0  0  0  0  0  0  0  0
   -0.3164   22.3312  -28.7697 H   0  0  0  0  0  0  0  0  0  0  0  0
   -2.8122   15.6338  -35.4353 H   0  0  0  0  0  0  0  0  0  0  0  0
   -3.9104   17.0013  -35.8235 H   0  0  0  0  0  0  0  0  0  0  0  0
   -2.1314   17.2501  -35.8235 H   0  0  0  0  0  0  0  0  0  0  0  0
   -3.5770   16.2280  -31.9464 H   0  0  0  0  0  0  0  0  0  0  0  0
   -4.7905   16.0021  -33.2514 H   0  0  0  0  0  0  0  0  0  0  0  0
   -3.2800   15.0299  -33.2514 H   0  0  0  0  0  0  0  0  0  0  0  0
  1  2  1  0
  2  3  1  0
  3  4  1  0
  4  5  1  0
  5  6  1  0
  6  7  1  0
  7  8  1  0
  8  9  1  0
  9 10  1  0
 10 11  1  0
 11 12  2  0
 11 13  1  0
 13 14  1  0
 14 15  1  0
 15 16  1  0
 16 17  1  0
 17 18  2  0
 17 19  1  0
 19 20  1  0
 20 21  2  0
 21 22  1  0
 22 23  2  0
 23 24  1  0
 23 25  1  0
 25 26  2  0
 16 27  2  0
 27 28  1  0
 28 29  1  0
 29 30  1  0
 30 31  1  0
 30 32  1  0
 10  2  1  0
 30 13  1  0
  8  4  1  0
 29 15  2  0
 26 20  1  0
  1 33  1  0
  1 34  1  0
  1 35  1  0
  2 36  1  1
  3 37  1  0
  3 38  1  0
  5 39  1  0
  5 40  1  0
  6 41  1  0
  6 42  1  0
  7 43  1  0
  7 44  1  0
  8 45  1  6
  9 46  1  0
  9 47  1  0
 14 48  1  0
 14 49  1  0
 21 50  1  0
 22 51  1  0
 25 52  1  0
 26 53  1  0
 31 54  1  0
 31 55  1  0
 31 56  1  0
 32 57  1  0
 32 58  1  0
 32 59  1  0
M  CHG  3  19  -1  24  -1  28  -1
M  END
>  <UniqueID>  (39) 
35

>  <SMILES>  (39) 
C[C@@H]1CN2CCC[C@H]2CN1C(=O)N1Cc2c(C(=O)[N-]c3ccc([O-])cc3)n[n-]c2C1(C)C

>  <Energy>  (39) 
138.8428394930229

>  <Genealogy>  (39) 
CC1CN2CCCC2CN1C(=O)N1Cc2c(C(=O)[N-]c3ccc([O-])cc3)n[n-]c2C1(C)C (protonated)
C[C@@H]1CN2CCC[C@H]2CN1C(=O)N1Cc2c(C(=O)[N-]c3ccc([O-])cc3)n[n-]c2C1(C)C (chirality)
C[C@@H]1CN2CCC[C@H]2CN1C(=O)N1Cc2c(C(=O)[N-]c3ccc([O-])cc3)n[n-]c2C1(C)C (3D coordinates assigned)
C[C@@H]1CN2CCC[C@H]2CN1C(=O)N1Cc2c(C(=O)[N-]c3ccc([O-])cc3)n[n-]c2C1(C)C (nonaromatic ring conformer: 138.8428394930229 kcal/mol)

>  <smiles>  (39) 
CC1CN2CCCC2CN1C(=O)N1Cc2c(C(=O)Nc3ccc(O)cc3)n[nH]c2C1(C)C

>  <score_type>  (39) 
oracle

>  <origin>  (39) 
adg

>  <m_score__min__energy>  (39) 
-12.48

>  <m_primary>  (39) 
energy

$$$$
39:0
     RDKit          3D

 43 45  0  0  0  0  0  0  0  0999 V2000
   -5.3280   17.8860  -34.9390 C   0  0  0  0  0  0  0  0  0  0  0  0
   -6.1700   18.5150  -33.8800 C   0  0  0  0  0  0  0  0  0  0  0  0
   -7.0600   17.8530  -33.0540 C   0  0  0  0  0  0  0  0  0  0  0  0
   -7.6520   18.8610  -32.3190 C   0  0  0  0  0  0  0  0  0  0  0  0
   -8.7310   18.6630  -31.2970 C   0  0  0  0  0  0  0  0  0  0  0  0
   -7.1160   20.0450  -32.6940 N   0  0  0  0  0  0  0  0  0  0  0  0
   -7.4660   21.3540  -32.2210 C   0  0  0  0  0  0  0  0  0  0  0  0
   -8.6770   21.7060  -32.2400 O   0  0  0  0  0  0  0  0  0  0  0  0
   -6.4370   22.3100  -31.7540 C   0  0  0  0  0  0  0  0  0  0  0  0
   -5.0740   21.9690  -31.8170 C   0  0  0  0  0  0  0  0  0  0  0  0
   -4.1010   22.8610  -31.3580 C   0  0  0  0  0  0  0  0  0  0  0  0
   -4.4750   24.0920  -30.8010 C   0  0  0  0  0  0  0  0  0  0  0  0
   -3.4910   25.0210  -30.3350 N   0  0  0  0  0  0  0  0  0  0  0  0
   -2.7810   24.9240  -29.0940 C   0  0  0  0  0  0  0  0  0  0  0  0
   -1.6890   25.5410  -28.9710 O   0  0  0  0  0  0  0  0  0  0  0  0
   -3.3680   24.2190  -27.8980 C   0  0  0  0  0  0  0  0  0  0  0  0
   -2.7050   22.8890  -27.6420 C   0  0  0  0  0  0  0  0  0  0  0  0
   -3.3290   21.6920  -28.0360 C   0  0  0  0  0  0  0  0  0  0  0  0
   -2.7160   20.4590  -27.7880 C   0  0  0  0  0  0  0  0  0  0  0  0
   -1.4830   20.4110  -27.1330 C   0  0  0  0  0  0  0  0  0  0  0  0
   -0.8600   21.5930  -26.7260 C   0  0  0  0  0  0  0  0  0  0  0  0
   -1.4680   22.8280  -26.9730 C   0  0  0  0  0  0  0  0  0  0  0  0
   -5.8280   24.4460  -30.7600 C   0  0  0  0  0  0  0  0  0  0  0  0
   -6.8050   23.5560  -31.2170 C   0  0  0  0  0  0  0  0  0  0  0  0
   -6.2340   19.8440  -33.6610 N   0  0  0  0  0  0  0  0  0  0  0  0
   -4.5314   17.2909  -34.4687 H   0  0  0  0  0  0  0  0  0  0  0  0
   -5.9535   17.2322  -35.5645 H   0  0  0  0  0  0  0  0  0  0  0  0
   -4.8784   18.6712  -35.5645 H   0  0  0  0  0  0  0  0  0  0  0  0
   -7.2522   16.7715  -32.9959 H   0  0  0  0  0  0  0  0  0  0  0  0
   -8.2996   18.7422  -30.2882 H   0  0  0  0  0  0  0  0  0  0  0  0
   -9.5046   19.4342  -31.4265 H   0  0  0  0  0  0  0  0  0  0  0  0
   -9.1804   17.6674  -31.4265 H   0  0  0  0  0  0  0  0  0  0  0  0
   -4.7722   20.9951  -32.2297 H   0  0  0  0  0  0  0  0  0  0  0  0
   -3.0362   22.5959  -31.4341 H   0  0  0  0  0  0  0  0  0  0  0  0
   -3.2380   24.8567  -27.0112 H   0  0  0  0  0  0  0  0  0  0  0  0
   -4.4326   24.0330  -28.1031 H   0  0  0  0  0  0  0  0  0  0  0  0
   -4.3050   21.7252  -28.5423 H   0  0  0  0  0  0  0  0  0  0  0  0
   -3.2050   19.5273  -28.1088 H   0  0  0  0  0  0  0  0  0  0  0  0
   -1.0022   19.4411  -26.9375 H   0  0  0  0  0  0  0  0  0  0  0  0
    0.1107   21.5524  -26.2102 H   0  0  0  0  0  0  0  0  0  0  0  0
   -0.9775   23.7557  -26.6431 H   0  0  0  0  0  0  0  0  0  0  0  0
   -6.1247   25.4294  -30.3663 H   0  0  0  0  0  0  0  0  0  0  0  0
   -7.8679   23.8325  -31.1559 H   0  0  0  0  0  0  0  0  0  0  0  0
  1  2  1  0
  2  3  1  0
  3  4  2  0
  4  5  1  0
  4  6  1  0
  6  7  1  0
  7  8  2  0
  7  9  1  0
  9 10  2  0
 10 11  1  0
 11 12  2  0
 12 13  1  0
 13 14  1  0
 14 15  2  0
 14 16  1  0
 16 17  1  0
 17 18  2  0
 18 19  1  0
 19 20  2  0
 20 21  1  0
 21 22  2  0
 12 23  1  0
 23 24  2  0
  6 25  1  0
 25  2  2  0
 24  9  1  0
 22 17  1  0
  1 26  1  0
  1 27  1  0
  1 28  1  0
  3 29  1  0
  5 30  1  0
  5 31  1  0
  5 32  1  0
 10 33  1  0
 11 34  1  0
 16 35  1  0
 16 36  1  0
 18 37  1  0
 19 38  1  0
 20 39  1  0
 21 40  1  0
 22 41  1  0
 23 42  1  0
 24 43  1  0
M  CHG  1  13  -1
M  END
>  <UniqueID>  (40) 
36

>  <SMILES>  (40) 
Cc1cc(C)n(C(=O)c2ccc([N-]C(=O)Cc3ccccc3)cc2)n1

>  <Energy>  (40) 
83.74471417800054

>  <Genealogy>  (40) 
Cc1cc(C)n(C(=O)c2ccc([N-]C(=O)Cc3ccccc3)cc2)n1 (protonated)
Cc1cc(C)n(C(=O)c2ccc([N-]C(=O)Cc3ccccc3)cc2)n1 (3D coordinates assigned)
Cc1cc(C)n(C(=O)c2ccc([N-]C(=O)Cc3ccccc3)cc2)n1 (optimized conformer: 83.74471417800054 kcal/mol)

>  <smiles>  (40) 
Cc1cc(C)n(C(=O)c2ccc(NC(=O)Cc3ccccc3)cc2)n1

>  <score_type>  (40) 
oracle

>  <origin>  (40) 
adg

>  <m_score__min__energy>  (40) 
-11.01

>  <m_primary>  (40) 
energy

$$$$
41:0
     RDKit          3D

 50 53  0  0  0  0  0  0  0  0999 V2000
   -5.6956   24.5331  -29.1469 H   0  0  0  0  0  0  0  0  0  0  0  0
   -4.6590   24.1730  -29.2230 C   0  0  0  0  0  0  0  0  0  0  0  0
   -3.7910   24.3140  -28.1370 C   0  0  0  0  0  0  0  0  0  0  0  0
   -4.1613   24.7403  -27.1930 H   0  0  0  0  0  0  0  0  0  0  0  0
   -2.4530   23.9160  -28.2430 C   0  0  0  0  0  0  0  0  0  0  0  0
   -1.6000   24.1010  -27.1480 O   0  0  0  0  0  0  0  0  0  0  0  0
   -1.2820   25.3460  -26.5820 C   0  0  0  0  0  0  0  0  0  0  0  0
   -1.5230   25.5520  -25.2200 C   0  0  0  0  0  0  0  0  0  0  0  0
   -1.9410   24.7380  -24.6095 H   0  0  0  0  0  0  0  0  0  0  0  0
   -1.2350   26.7900  -24.6280 C   0  0  0  0  0  0  0  0  0  0  0  0
   -1.4094   26.9342  -23.5515 H   0  0  0  0  0  0  0  0  0  0  0  0
   -0.7270   27.8440  -25.3970 C   0  0  0  0  0  0  0  0  0  0  0  0
   -0.4750   29.0740  -24.7680 O   0  0  0  0  0  0  0  0  0  0  0  0
   -0.9340   30.3310  -25.2550 C   0  0  0  0  0  0  0  0  0  0  0  0
   -1.1738   30.9878  -24.4058 H   0  0  0  0  0  0  0  0  0  0  0  0
   -0.1477   30.7961  -25.8677 H   0  0  0  0  0  0  0  0  0  0  0  0
   -1.8350   30.1800  -25.8677 H   0  0  0  0  0  0  0  0  0  0  0  0
   -0.4920   27.6390  -26.7700 C   0  0  0  0  0  0  0  0  0  0  0  0
   -0.0895   28.4582  -27.3839 H   0  0  0  0  0  0  0  0  0  0  0  0
   -0.7670   26.4010  -27.3580 C   0  0  0  0  0  0  0  0  0  0  0  0
   -0.5801   26.2508  -28.4316 H   0  0  0  0  0  0  0  0  0  0  0  0
   -2.0010   23.3280  -29.4370 C   0  0  0  0  0  0  0  0  0  0  0  0
   -0.9579   22.9891  -29.5211 H   0  0  0  0  0  0  0  0  0  0  0  0
   -2.8730   23.1730  -30.5170 C   0  0  0  0  0  0  0  0  0  0  0  0
   -2.5057   22.7341  -31.4564 H   0  0  0  0  0  0  0  0  0  0  0  0
   -4.2110   23.5720  -30.4130 C   0  0  0  0  0  0  0  0  0  0  0  0
   -5.0510   23.4890  -31.5750 N   0  0  0  0  0  0  0  0  0  0  0  0
   -6.0230   22.6510  -31.8310 C   0  0  0  0  0  0  0  0  0  0  0  0
   -7.3460   22.9150  -31.4540 C   0  0  0  0  0  0  0  0  0  0  0  0
   -7.5888   23.8505  -30.9288 H   0  0  0  0  0  0  0  0  0  0  0  0
   -8.3540   22.0010  -31.7400 C   0  0  0  0  0  0  0  0  0  0  0  0
   -9.3909   22.2403  -31.4616 H   0  0  0  0  0  0  0  0  0  0  0  0
   -8.0870   20.8140  -32.3580 N   0  0  0  0  0  0  0  0  0  0  0  0
   -9.2330   19.9120  -32.6010 C   0  0  0  0  0  0  0  0  0  0  0  0
   -9.2638   19.6468  -33.6681 H   0  0  0  0  0  0  0  0  0  0  0  0
  -10.1586   20.4299  -32.3095 H   0  0  0  0  0  0  0  0  0  0  0  0
   -9.1020   18.6380  -31.7720 C   0  0  0  0  0  0  0  0  0  0  0  0
   -9.1282   18.8924  -30.7021 H   0  0  0  0  0  0  0  0  0  0  0  0
   -9.9351   17.9596  -32.0081 H   0  0  0  0  0  0  0  0  0  0  0  0
   -8.1483   18.1434  -32.0081 H   0  0  0  0  0  0  0  0  0  0  0  0
   -6.7960   20.5100  -32.7500 C   0  0  0  0  0  0  0  0  0  0  0  0
   -6.4840   19.3120  -33.4400 C   0  0  0  0  0  0  0  0  0  0  0  0
   -7.2875   18.5988  -33.6762 H   0  0  0  0  0  0  0  0  0  0  0  0
   -5.1730   19.0220  -33.8250 C   0  0  0  0  0  0  0  0  0  0  0  0
   -4.8240   17.5450  -34.7090 Cl  0  0  0  0  0  0  0  0  0  0  0  0
   -4.1430   19.9110  -33.5270 C   0  0  0  0  0  0  0  0  0  0  0  0
   -3.1101   19.6723  -33.8205 H   0  0  0  0  0  0  0  0  0  0  0  0
   -4.4180   21.1020  -32.8580 C   0  0  0  0  0  0  0  0  0  0  0  0
   -3.5981   21.7983  -32.6282 H   0  0  0  0  0  0  0  0  0  0  0  0
   -5.7360   21.4250  -32.4720 C   0  0  0  0  0  0  0  0  0  0  0  0
  1  2  1  0
  2  3  2  0
  3  4  1  0
  3  5  1  0
  5  6  1  0
  6  7  1  0
  7  8  2  0
  8  9  1  0
  8 10  1  0
 10 11  1  0
 10 12  2  0
 12 13  1  0
 13 14  1  0
 14 15  1  0
 14 16  1  0
 14 17  1  0
 12 18  1  0
 18 19  1  0
 18 20  2  0
 20 21  1  0
  5 22  2  0
 22 23  1  0
 22 24  1  0
 24 25  1  0
 24 26  2  0
 26 27  1  0
 27 28  2  0
 28 29  1  0
 29 30  1  0
 29 31  2  0
 31 32  1  0
 31 33  1  0
 33 34  1  0
 34 35  1  0
 34 36  1  0
 34 37  1  0
 37 38  1  0
 37 39  1  0
 37 40  1  0
 33 41  1  0
 41 42  2  0
 42 43  1  0
 42 44  1  0
 44 45  1  0
 44 46  2  0
 46 47  1  0
 46 48  1  0
 48 49  1  0
 48 50  2  0
 26  2  1  0
 50 28  1  0
 20  7  1  0
 50 41  1  0
M  END
>  <UniqueID>  (41) 
37

>  <SMILES>  (41) 
CCn1cc/c(=N\c2ccc(Oc3ccc(OC)cc3)cc2)c2ccc(Cl)cc21

>  <Energy>  (41) 
78.03378669891868

>  <Genealogy>  (41) 
CCn1cc/c(=N\c2ccc(Oc3ccc(OC)cc3)cc2)c2ccc(Cl)cc21 (cis-trans isomerization)
CCn1cc/c(=N\c2ccc(Oc3ccc(OC)cc3)cc2)c2ccc(Cl)cc21 (3D coordinates assigned)
CCn1cc/c(=N\c2ccc(Oc3ccc(OC)cc3)cc2)c2ccc(Cl)cc21 (optimized conformer: 78.03378669891868 kcal/mol)

>  <smiles>  (41) 
CCn1ccc(=Nc2ccc(Oc3ccc(OC)cc3)cc2)c2ccc(Cl)cc21

>  <score_type>  (41) 
oracle

>  <origin>  (41) 
adg

>  <m_score__min__energy>  (41) 
-9.0899999999999999

>  <m_primary>  (41) 
energy

$$$$
42:0
     RDKit          3D

 34 35  0  0  0  0  0  0  0  0999 V2000
   -6.1200   26.0480  -29.5250 C   0  0  0  0  0  0  0  0  0  0  0  0
   -5.8900   24.8030  -30.3170 C   0  0  0  0  0  0  0  0  0  0  0  0
   -4.9920   24.7910  -31.2020 O   0  0  0  0  0  0  0  0  0  0  0  0
   -6.6220   23.6090  -30.0010 N   0  0  0  0  0  0  0  0  0  0  0  0
   -6.6130   22.4180  -30.8080 C   0  0  0  0  0  0  0  0  0  0  0  0
   -5.4170   21.8820  -31.3110 C   0  0  0  0  0  0  0  0  0  0  0  0
   -5.4370   20.7370  -32.1140 C   0  0  0  0  0  0  0  0  0  0  0  0
   -6.6560   20.1180  -32.4420 C   0  0  0  0  0  0  0  0  0  0  0  0
   -6.6760   18.9300  -33.2580 N   0  0  0  0  0  0  0  0  0  0  0  0
   -6.0970   18.9330  -34.6080 C   0  0  0  0  0  0  0  0  0  0  0  0
   -5.0270   17.8370  -34.7350 C   0  0  0  0  0  0  0  0  0  0  0  0
   -5.3730   16.5480  -33.9560 C   0  0  0  0  0  0  0  0  0  0  0  0
   -6.8550   16.4700  -33.5700 C   0  0  0  0  0  0  0  0  0  0  0  0
   -7.2510   17.6860  -32.7210 C   0  0  0  0  0  0  0  0  0  0  0  0
   -7.8520   20.6650  -31.9490 C   0  0  0  0  0  0  0  0  0  0  0  0
   -7.8290   21.8100  -31.1480 C   0  0  0  0  0  0  0  0  0  0  0  0
   -6.0766   25.8128  -28.4513 H   0  0  0  0  0  0  0  0  0  0  0  0
   -5.3432   26.7873  -29.7702 H   0  0  0  0  0  0  0  0  0  0  0  0
   -7.1096   26.4610  -29.7702 H   0  0  0  0  0  0  0  0  0  0  0  0
   -7.1260   23.5780  -29.0860 H   0  0  0  0  0  0  0  0  0  0  0  0
   -4.4582   22.3655  -31.0721 H   0  0  0  0  0  0  0  0  0  0  0  0
   -4.4926   20.3179  -32.4915 H   0  0  0  0  0  0  0  0  0  0  0  0
   -6.8933   18.7490  -35.3442 H   0  0  0  0  0  0  0  0  0  0  0  0
   -5.6293   19.9112  -34.7933 H   0  0  0  0  0  0  0  0  0  0  0  0
   -4.9141   17.5816  -35.7990 H   0  0  0  0  0  0  0  0  0  0  0  0
   -4.0985   18.2382  -34.3027 H   0  0  0  0  0  0  0  0  0  0  0  0
   -5.1270   15.6798  -34.5851 H   0  0  0  0  0  0  0  0  0  0  0  0
   -4.7870   16.5548  -33.0251 H   0  0  0  0  0  0  0  0  0  0  0  0
   -7.4671   16.4510  -34.4838 H   0  0  0  0  0  0  0  0  0  0  0  0
   -7.0235   15.5549  -32.9834 H   0  0  0  0  0  0  0  0  0  0  0  0
   -8.3475   17.7738  -32.7122 H   0  0  0  0  0  0  0  0  0  0  0  0
   -6.8615   17.5374  -31.7031 H   0  0  0  0  0  0  0  0  0  0  0  0
   -8.8128   20.1892  -32.1949 H   0  0  0  0  0  0  0  0  0  0  0  0
   -8.7737   22.2378  -30.7812 H   0  0  0  0  0  0  0  0  0  0  0  0
  1  2  1  0
  2  3  2  0
  2  4  1  0
  4  5  1  0
  5  6  2  0
  6  7  1  0
  7  8  2  0
  8  9  1  0
  9 10  1  0
 10 11  1  0
 11 12  1  0
 12 13  1  0
 13 14  1  0
  8 15  1  0
 15 16  2  0
 16  5  1  0
 14  9  1  0
  1 17  1  0
  1 18  1  0
  1 19  1  0
  4 20  1  0
  6 21  1  0
  7 22  1  0
 10 23  1  0
 10 24  1  0
 11 25  1  0
 11 26  1  0
 12 27  1  0
 12 28  1  0
 13 29  1  0
 13 30  1  0
 14 31  1  0
 14 32  1  0
 15 33  1  0
 16 34  1  0
M  END
>  <UniqueID>  (42) 
38

>  <SMILES>  (42) 
CC(=O)Nc1ccc(N2CCCCC2)cc1

>  <Energy>  (42) 
39.56916123029578

>  <Genealogy>  (42) 
CC(=O)Nc1ccc(N2CCCCC2)cc1 (3D coordinates assigned)
CC(=O)Nc1ccc(N2CCCCC2)cc1 (nonaromatic ring conformer: 39.56916123029578 kcal/mol)

>  <smiles>  (42) 
CC(=O)Nc1ccc(N2CCCCC2)cc1

>  <score_type>  (42) 
oracle

>  <origin>  (42) 
adg

>  <m_score__min__energy>  (42) 
-6.96

>  <m_primary>  (42) 
energy

$$$$
43:0
     RDKit          3D

 25 25  0  0  0  0  0  0  0  0999 V2000
   -3.9660   24.1530  -28.2070 C   0  0  0  0  0  0  0  0  0  0  0  0
   -3.0680   24.2120  -29.4370 C   0  0  0  0  0  0  0  0  0  0  0  0
   -3.6710   24.9960  -30.4640 O   0  0  0  0  0  0  0  0  0  0  0  0
   -5.0480   25.0080  -30.7190 C   0  0  0  0  0  0  0  0  0  0  0  0
   -5.7280   26.0450  -30.4860 O   0  0  0  0  0  0  0  0  0  0  0  0
   -5.6940   23.7940  -31.2690 C   0  0  0  0  0  0  0  0  0  0  0  0
   -7.0250   23.6290  -31.1930 C   0  0  0  0  0  0  0  0  0  0  0  0
   -7.6590   22.4570  -31.7310 N   0  0  0  0  0  0  0  0  0  0  0  0
   -9.1040   22.2870  -31.5920 C   0  0  0  0  0  0  0  0  0  0  0  0
   -6.8660   21.3840  -32.2560 C   0  0  0  0  0  0  0  0  0  0  0  0
   -5.5420   21.5010  -32.3500 C   0  0  0  0  0  0  0  0  0  0  0  0
   -4.8210   22.7610  -31.9520 C   0  0  0  0  0  0  0  0  0  0  0  0
   -3.3469   24.1937  -27.2987 H   0  0  0  0  0  0  0  0  0  0  0  0
   -4.6585   25.0076  -28.2173 H   0  0  0  0  0  0  0  0  0  0  0  0
   -4.5408   23.2152  -28.2173 H   0  0  0  0  0  0  0  0  0  0  0  0
   -2.1035   24.6617  -29.1587 H   0  0  0  0  0  0  0  0  0  0  0  0
   -2.9177   23.1898  -29.8145 H   0  0  0  0  0  0  0  0  0  0  0  0
   -7.6396   24.4036  -30.7111 H   0  0  0  0  0  0  0  0  0  0  0  0
   -9.3685   22.2559  -30.5247 H   0  0  0  0  0  0  0  0  0  0  0  0
   -9.6204   23.1306  -32.0733 H   0  0  0  0  0  0  0  0  0  0  0  0
   -9.4105   21.3466  -32.0733 H   0  0  0  0  0  0  0  0  0  0  0  0
   -7.3554   20.4552  -32.5844 H   0  0  0  0  0  0  0  0  0  0  0  0
   -4.9576   20.6502  -32.7303 H   0  0  0  0  0  0  0  0  0  0  0  0
   -4.0076   22.4888  -31.2633 H   0  0  0  0  0  0  0  0  0  0  0  0
   -4.4593   23.2224  -32.8827 H   0  0  0  0  0  0  0  0  0  0  0  0
  1  2  1  0
  2  3  1  0
  3  4  1  0
  4  5  2  0
  4  6  1  0
  6  7  2  0
  7  8  1  0
  8  9  1  0
  8 10  1  0
 10 11  2  0
 11 12  1  0
 12  6  1  0
  1 13  1  0
  1 14  1  0
  1 15  1  0
  2 16  1  0
  2 17  1  0
  7 18  1  0
  9 19  1  0
  9 20  1  0
  9 21  1  0
 10 22  1  0
 11 23  1  0
 12 24  1  0
 12 25  1  0
M  END
>  <UniqueID>  (43) 
39

>  <SMILES>  (43) 
CCOC(=O)C1=CN(C)C=CC1

>  <Energy>  (43) 
17.209273580899243

>  <Genealogy>  (43) 
CCOC(=O)C1=CN(C)C=CC1 (3D coordinates assigned)
CCOC(=O)C1=CN(C)C=CC1 (nonaromatic ring conformer: 17.209273580899243 kcal/mol)

>  <smiles>  (43) 
CCOC(=O)C1=CN(C)C=CC1

>  <score_type>  (43) 
oracle

>  <origin>  (43) 
adg

>  <m_score__min__energy>  (43) 
-5.4000000000000004

>  <m_primary>  (43) 
energy

$$$$
44:0
     RDKit          3D

 49 51  0  0  0  0  0  0  0  0999 V2000
   -9.2820   18.9420  -32.3530 C   0  0  0  0  0  0  0  0  0  0  0  0
   -8.9070   20.1850  -32.9400 O   0  0  0  0  0  0  0  0  0  0  0  0
   -8.1180   21.1590  -32.3090 C   0  0  0  0  0  0  0  0  0  0  0  0
   -8.6530   22.3910  -31.8920 C   0  0  0  0  0  0  0  0  0  0  0  0
   -7.8480   23.3270  -31.2410 C   0  0  0  0  0  0  0  0  0  0  0  0
   -6.4960   23.0540  -31.0020 C   0  0  0  0  0  0  0  0  0  0  0  0
   -5.4760   24.2480  -30.1920 S   0  0  0  0  0  0  0  0  0  0  0  0
   -6.3490   25.2840  -29.5400 O   0  0  0  0  0  0  0  0  0  0  0  0
   -4.6180   24.9400  -31.2160 O   0  0  0  0  0  0  0  0  0  0  0  0
   -4.4530   23.5070  -28.9820 N   0  0  0  0  0  0  0  0  0  0  0  0
   -4.1730   24.4600  -27.8910 C   0  0  0  0  0  0  0  0  0  0  0  0
   -2.9180   24.0340  -27.1090 C   0  0  0  0  0  0  0  0  0  0  0  0
   -1.7360   23.9710  -27.9000 O   0  0  0  0  0  0  0  0  0  0  0  0
   -1.9830   23.7910  -29.2890 C   0  0  0  0  0  0  0  0  0  0  0  0
   -3.2270   22.9300  -29.5770 C   0  0  0  0  0  0  0  0  0  0  0  0
   -5.9580   21.8280  -31.4120 C   0  0  0  0  0  0  0  0  0  0  0  0
   -6.7570   20.8840  -32.0720 C   0  0  0  0  0  0  0  0  0  0  0  0
   -6.1720   19.6400  -32.4930 N   0  0  0  0  0  0  0  0  0  0  0  0
   -6.1410   18.4950  -31.5730 C   0  0  0  0  0  0  0  0  0  0  0  0
   -5.7640   17.2150  -32.3180 C   0  0  0  0  0  0  0  0  0  0  0  0
   -6.5050   17.1730  -33.5900 N   0  0  0  0  0  0  0  0  0  0  0  0
   -6.4090   15.8420  -34.2020 C   0  0  0  0  0  0  0  0  0  0  0  0
   -6.0420   18.2200  -34.5350 C   0  0  0  0  0  0  0  0  0  0  0  0
   -5.5900   19.5230  -33.8360 C   0  0  0  0  0  0  0  0  0  0  0  0
   -9.2551   19.0312  -31.2570 H   0  0  0  0  0  0  0  0  0  0  0  0
  -10.3001   18.6770  -32.6744 H   0  0  0  0  0  0  0  0  0  0  0  0
   -8.5803   18.1582  -32.6744 H   0  0  0  0  0  0  0  0  0  0  0  0
   -9.7127   22.6184  -32.0801 H   0  0  0  0  0  0  0  0  0  0  0  0
   -8.2785   24.2849  -30.9138 H   0  0  0  0  0  0  0  0  0  0  0  0
   -4.0107   25.4607  -28.3178 H   0  0  0  0  0  0  0  0  0  0  0  0
   -5.0315   24.4744  -27.2035 H   0  0  0  0  0  0  0  0  0  0  0  0
   -2.7532   24.7588  -26.2981 H   0  0  0  0  0  0  0  0  0  0  0  0
   -3.1058   23.0163  -26.7361 H   0  0  0  0  0  0  0  0  0  0  0  0
   -2.1277   24.7795  -29.7494 H   0  0  0  0  0  0  0  0  0  0  0  0
   -1.1149   23.2625  -29.7098 H   0  0  0  0  0  0  0  0  0  0  0  0
   -3.3624   22.8555  -30.6661 H   0  0  0  0  0  0  0  0  0  0  0  0
   -3.0654   21.9397  -29.1263 H   0  0  0  0  0  0  0  0  0  0  0  0
   -4.8994   21.6037  -31.2145 H   0  0  0  0  0  0  0  0  0  0  0  0
   -5.3988   18.6856  -30.7838 H   0  0  0  0  0  0  0  0  0  0  0  0
   -7.1410   18.3672  -31.1329 H   0  0  0  0  0  0  0  0  0  0  0  0
   -4.6826   17.2088  -32.5193 H   0  0  0  0  0  0  0  0  0  0  0  0
   -6.0190   16.3368  -31.7067 H   0  0  0  0  0  0  0  0  0  0  0  0
   -6.3539   15.0784  -33.4122 H   0  0  0  0  0  0  0  0  0  0  0  0
   -7.2964   15.6606  -34.8262 H   0  0  0  0  0  0  0  0  0  0  0  0
   -5.5048   15.7898  -34.8262 H   0  0  0  0  0  0  0  0  0  0  0  0
   -5.1934   17.8203  -35.1095 H   0  0  0  0  0  0  0  0  0  0  0  0
   -6.8963   18.4768  -35.1786 H   0  0  0  0  0  0  0  0  0  0  0  0
   -4.4932   19.5222  -33.7520 H   0  0  0  0  0  0  0  0  0  0  0  0
   -5.9346   20.3765  -34.4383 H   0  0  0  0  0  0  0  0  0  0  0  0
  1  2  1  0
  2  3  1  0
  3  4  2  0
  4  5  1  0
  5  6  2  0
  6  7  1  0
  7  8  2  0
  7  9  2  0
  7 10  1  0
 10 11  1  0
 11 12  1  0
 12 13  1  0
 13 14  1  0
 14 15  1  0
  6 16  1  0
 16 17  2  0
 17 18  1  0
 18 19  1  0
 19 20  1  0
 20 21  1  0
 21 22  1  0
 21 23  1  0
 23 24  1  0
 17  3  1  0
 24 18  1  0
 15 10  1  0
  1 25  1  0
  1 26  1  0
  1 27  1  0
  4 28  1  0
  5 29  1  0
 11 30  1  0
 11 31  1  0
 12 32  1  0
 12 33  1  0
 14 34  1  0
 14 35  1  0
 15 36  1  0
 15 37  1  0
 16 38  1  0
 19 39  1  0
 19 40  1  0
 20 41  1  0
 20 42  1  0
 22 43  1  0
 22 44  1  0
 22 45  1  0
 23 46  1  0
 23 47  1  0
 24 48  1  0
 24 49  1  0
M  END
>  <UniqueID>  (44) 
40

>  <SMILES>  (44) 
COc1ccc(S(=O)(=O)N2CCOCC2)cc1N1CCN(C)CC1

>  <Energy>  (44) 
69.6405460310697

>  <Genealogy>  (44) 
COc1ccc(S(=O)(=O)N2CCOCC2)cc1N1CCN(C)CC1 (3D coordinates assigned)
COc1ccc(S(=O)(=O)N2CCOCC2)cc1N1CCN(C)CC1 (nonaromatic ring conformer: 69.6405460310697 kcal/mol)

>  <smiles>  (44) 
COc1ccc(S(=O)(=O)N2CCOCC2)cc1N1CCN(C)CC1

>  <score_type>  (44) 
oracle

>  <origin>  (44) 
adg

>  <m_score__min__energy>  (44) 
-8.3800000000000008

>  <m_primary>  (44) 
energy

$$$$
45:0
     RDKit          3D

 19 21  0  0  0  0  0  0  0  0999 V2000
   -1.5300   25.0210  -28.7360 S   0  0  0  0  0  0  0  0  0  0  0  0
   -2.9640   24.5190  -29.3320 C   0  0  0  0  0  0  0  0  0  0  0  0
   -3.4890   24.9890  -30.4950 N   0  0  0  0  0  0  0  0  0  0  0  0
   -4.6360   24.2920  -30.5460 C   0  0  0  0  0  0  0  0  0  0  0  0
   -5.5690   24.3740  -31.5250 N   0  0  0  0  0  0  0  0  0  0  0  0
   -6.6880   23.5960  -31.4310 C   0  0  0  0  0  0  0  0  0  0  0  0
   -7.6710   23.6580  -32.4260 C   0  0  0  0  0  0  0  0  0  0  0  0
   -8.8160   22.8610  -32.3290 C   0  0  0  0  0  0  0  0  0  0  0  0
   -8.9880   21.9980  -31.2410 C   0  0  0  0  0  0  0  0  0  0  0  0
   -8.0160   21.9240  -30.2380 C   0  0  0  0  0  0  0  0  0  0  0  0
   -6.8640   22.7180  -30.3230 C   0  0  0  0  0  0  0  0  0  0  0  0
   -5.8640   22.6730  -29.3370 C   0  0  0  0  0  0  0  0  0  0  0  0
   -4.7860   23.4750  -29.5020 N   0  0  0  0  0  0  0  0  0  0  0  0
   -3.7390   23.5970  -28.7130 N   0  0  0  0  0  0  0  0  0  0  0  0
   -7.5426   24.3339  -33.2843 H   0  0  0  0  0  0  0  0  0  0  0  0
   -9.5861   22.9128  -33.1127 H   0  0  0  0  0  0  0  0  0  0  0  0
   -9.8920   21.3748  -31.1742 H   0  0  0  0  0  0  0  0  0  0  0  0
   -8.1553   21.2443  -29.3844 H   0  0  0  0  0  0  0  0  0  0  0  0
   -5.9538   22.0106  -28.4634 H   0  0  0  0  0  0  0  0  0  0  0  0
  1  2  2  0
  2  3  1  0
  3  4  2  0
  4  5  1  0
  5  6  2  0
  6  7  1  0
  7  8  2  0
  8  9  1  0
  9 10  2  0
 10 11  1  0
 11 12  2  0
 12 13  1  0
 13 14  1  0
 14  2  1  0
 13  4  1  0
 11  6  1  0
  7 15  1  0
  8 16  1  0
  9 17  1  0
 10 18  1  0
 12 19  1  0
M  CHG  1  14  -1
M  END
>  <UniqueID>  (45) 
41

>  <SMILES>  (45) 
S=c1nc2nc3ccccc3cn2[n-]1

>  <Energy>  (45) 
64.05061253046468

>  <Genealogy>  (45) 
S=c1nc2nc3ccccc3cn2[n-]1 (protonated)
S=c1nc2nc3ccccc3cn2[n-]1 (3D coordinates assigned)
S=c1nc2nc3ccccc3cn2[n-]1 (optimized conformer: 64.05061253046468 kcal/mol)

>  <smiles>  (45) 
S=c1nc2nc3ccccc3cn2[nH]1

>  <score_type>  (45) 
oracle

>  <origin>  (45) 
adg

>  <m_score__min__energy>  (45) 
-6.79

>  <m_primary>  (45) 
energy

$$$$
46:0
     RDKit          3D

 31 33  0  0  0  0  0  0  0  0999 V2000
   -1.2090   26.4350  -28.7590 O   0  0  0  0  0  0  0  0  0  0  0  0
   -1.5810   25.3630  -28.2100 C   0  0  0  0  0  0  0  0  0  0  0  0
   -1.1930   25.0990  -26.8030 C   0  0  0  0  0  0  0  0  0  0  0  0
   -1.2330   26.1330  -25.8550 C   0  0  0  0  0  0  0  0  0  0  0  0
   -0.8530   25.8760  -24.5350 C   0  0  0  0  0  0  0  0  0  0  0  0
   -0.4360   24.6330  -24.1720 N   0  0  0  0  0  0  0  0  0  0  0  0
   -0.3720   23.6160  -25.0740 C   0  0  0  0  0  0  0  0  0  0  0  0
   -0.7440   23.8310  -26.4040 C   0  0  0  0  0  0  0  0  0  0  0  0
   -2.3880   24.4290  -28.9530 N   0  0  0  0  0  0  0  0  0  0  0  0
   -3.6990   24.5540  -29.2330 C   0  0  0  0  0  0  0  0  0  0  0  0
   -4.0780   23.4780  -30.0170 C   0  0  0  0  0  0  0  0  0  0  0  0
   -5.4300   23.2020  -30.5610 C   0  0  0  0  0  0  0  0  0  0  0  0
   -5.7450   23.4570  -31.9110 C   0  0  0  0  0  0  0  0  0  0  0  0
   -7.0260   23.1900  -32.4020 C   0  0  0  0  0  0  0  0  0  0  0  0
   -8.0070   22.6680  -31.5580 C   0  0  0  0  0  0  0  0  0  0  0  0
   -7.7090   22.4110  -30.2180 C   0  0  0  0  0  0  0  0  0  0  0  0
   -6.4300   22.6750  -29.7210 C   0  0  0  0  0  0  0  0  0  0  0  0
   -3.0080   22.6850  -30.2370 N   0  0  0  0  0  0  0  0  0  0  0  0
   -2.0000   23.2970  -29.5830 C   0  0  0  0  0  0  0  0  0  0  0  0
   -0.4850   22.6740  -29.5340 S   0  0  0  0  0  0  0  0  0  0  0  0
   -1.5618   27.1406  -26.1495 H   0  0  0  0  0  0  0  0  0  0  0  0
   -0.8912   26.6815  -23.7869 H   0  0  0  0  0  0  0  0  0  0  0  0
   -0.1540   24.4570  -23.1830 H   0  0  0  0  0  0  0  0  0  0  0  0
   -0.0264   22.6215  -24.7553 H   0  0  0  0  0  0  0  0  0  0  0  0
   -0.6851   23.0104  -27.1341 H   0  0  0  0  0  0  0  0  0  0  0  0
   -4.3555   25.3701  -28.8968 H   0  0  0  0  0  0  0  0  0  0  0  0
   -4.9774   23.8689  -32.5827 H   0  0  0  0  0  0  0  0  0  0  0  0
   -7.2617   23.3920  -33.4573 H   0  0  0  0  0  0  0  0  0  0  0  0
   -9.0142   22.4591  -31.9478 H   0  0  0  0  0  0  0  0  0  0  0  0
   -8.4825   22.0000  -29.5526 H   0  0  0  0  0  0  0  0  0  0  0  0
   -6.2023   22.4694  -28.6646 H   0  0  0  0  0  0  0  0  0  0  0  0
  1  2  2  0
  2  3  1  0
  3  4  2  0
  4  5  1  0
  5  6  2  0
  6  7  1  0
  7  8  2  0
  2  9  1  0
  9 10  1  0
 10 11  2  0
 11 12  1  0
 12 13  2  0
 13 14  1  0
 14 15  2  0
 15 16  1  0
 16 17  2  0
 11 18  1  0
 18 19  1  0
 19 20  2  0
  8  3  1  0
 19  9  1  0
 17 12  1  0
  4 21  1  0
  5 22  1  0
  6 23  1  0
  7 24  1  0
  8 25  1  0
 10 26  1  0
 13 27  1  0
 14 28  1  0
 15 29  1  0
 16 30  1  0
 17 31  1  0
M  CHG  2   6   1  18  -1
M  END
>  <UniqueID>  (46) 
42

>  <SMILES>  (46) 
O=C(c1cc[nH+]cc1)n1cc(-c2ccccc2)[n-]c1=S

>  <Energy>  (46) 
71.79623251855828

>  <Genealogy>  (46) 
O=C(c1cc[nH+]cc1)n1cc(-c2ccccc2)[n-]c1=S (protonated)
O=C(c1cc[nH+]cc1)n1cc(-c2ccccc2)[n-]c1=S (3D coordinates assigned)
O=C(c1cc[nH+]cc1)n1cc(-c2ccccc2)[n-]c1=S (optimized conformer: 71.79623251855828 kcal/mol)

>  <smiles>  (46) 
O=C(c1ccncc1)n1cc(-c2ccccc2)[nH]c1=S

>  <score_type>  (46) 
oracle

>  <origin>  (46) 
adg

>  <m_score__min__energy>  (46) 
-8.1899999999999995

>  <m_primary>  (46) 
energy

$$$$
47:0
     RDKit          3D

 47 50  0  0  0  0  0  0  0  0999 V2000
   -0.1040   26.7160  -23.6110 C   0  0  0  0  0  0  0  0  0  0  0  0
   -0.6040   26.4550  -25.0000 C   0  0  0  0  0  0  0  0  0  0  0  0
   -1.8500   25.8430  -25.2010 C   0  0  0  0  0  0  0  0  0  0  0  0
   -2.2980   25.5630  -26.4940 C   0  0  0  0  0  0  0  0  0  0  0  0
   -1.5110   25.8930  -27.6090 C   0  0  0  0  0  0  0  0  0  0  0  0
   -1.9860   25.5740  -28.9280 N   0  0  0  0  0  0  0  0  0  0  0  0
   -2.9600   24.5550  -29.2050 C   0  0  0  0  0  0  0  0  0  0  0  0
   -3.1290   23.6060  -28.3970 O   0  0  0  0  0  0  0  0  0  0  0  0
   -3.6800   24.5460  -30.4430 N   0  0  0  0  0  0  0  0  0  0  0  0
   -4.2990   23.3980  -31.0360 C   0  0  0  0  0  0  0  0  0  0  0  0
   -3.7490   22.1260  -31.1330 C   0  0  0  0  0  0  0  0  0  0  0  0
   -4.6330   21.3860  -31.8130 N   0  0  0  0  0  0  0  0  0  0  0  0
   -4.5920   20.0850  -32.1880 C   0  0  0  0  0  0  0  0  0  0  0  0
   -5.6750   19.5780  -32.9270 C   0  0  0  0  0  0  0  0  0  0  0  0
   -5.6980   18.1610  -33.3520 C   0  0  0  0  0  0  0  0  0  0  0  0
   -6.8420   17.3920  -33.0940 C   0  0  0  0  0  0  0  0  0  0  0  0
   -6.9010   16.0590  -33.4990 C   0  0  0  0  0  0  0  0  0  0  0  0
   -5.8090   15.4950  -34.1650 C   0  0  0  0  0  0  0  0  0  0  0  0
   -5.8450   14.0650  -34.6000 C   0  0  0  0  0  0  0  0  0  0  0  0
   -4.6970   16.2440  -34.3870 N   0  0  0  0  0  0  0  0  0  0  0  0
   -4.6000   17.5450  -33.9980 C   0  0  0  0  0  0  0  0  0  0  0  0
   -3.3180   18.2760  -34.2720 C   0  0  0  0  0  0  0  0  0  0  0  0
   -6.7510   20.4490  -33.2220 C   0  0  0  0  0  0  0  0  0  0  0  0
   -6.7250   21.7510  -32.8140 N   0  0  0  0  0  0  0  0  0  0  0  0
   -5.6550   22.1980  -32.1130 C   0  0  0  0  0  0  0  0  0  0  0  0
   -5.4980   23.4600  -31.6650 N   0  0  0  0  0  0  0  0  0  0  0  0
   -0.2470   26.4720  -27.4040 C   0  0  0  0  0  0  0  0  0  0  0  0
    0.2030   26.7500  -26.1100 C   0  0  0  0  0  0  0  0  0  0  0  0
   -0.8335   26.3352  -22.8811 H   0  0  0  0  0  0  0  0  0  0  0  0
    0.8598   26.2060  -23.4664 H   0  0  0  0  0  0  0  0  0  0  0  0
    0.0286   27.7984  -23.4664 H   0  0  0  0  0  0  0  0  0  0  0  0
   -2.4775   25.5822  -24.3360 H   0  0  0  0  0  0  0  0  0  0  0  0
   -3.2754   25.0800  -26.6400 H   0  0  0  0  0  0  0  0  0  0  0  0
   -1.5300   26.0440  -29.7420 H   0  0  0  0  0  0  0  0  0  0  0  0
   -2.7805   21.7934  -30.7312 H   0  0  0  0  0  0  0  0  0  0  0  0
   -3.7376   19.4450  -31.9224 H   0  0  0  0  0  0  0  0  0  0  0  0
   -7.6973   17.8428  -32.5694 H   0  0  0  0  0  0  0  0  0  0  0  0
   -7.7988   15.4566  -33.2962 H   0  0  0  0  0  0  0  0  0  0  0  0
   -5.8614   13.4127  -33.7144 H   0  0  0  0  0  0  0  0  0  0  0  0
   -6.7479   13.8877  -35.2028 H   0  0  0  0  0  0  0  0  0  0  0  0
   -4.9522   13.8425  -35.2028 H   0  0  0  0  0  0  0  0  0  0  0  0
   -2.8404   18.5483  -33.3193 H   0  0  0  0  0  0  0  0  0  0  0  0
   -2.6422   17.6275  -34.8488 H   0  0  0  0  0  0  0  0  0  0  0  0
   -3.5319   19.1879  -34.8488 H   0  0  0  0  0  0  0  0  0  0  0  0
   -7.6171   20.0725  -33.7860 H   0  0  0  0  0  0  0  0  0  0  0  0
    0.3924   26.7080  -28.2674 H   0  0  0  0  0  0  0  0  0  0  0  0
    1.1946   27.2022  -25.9609 H   0  0  0  0  0  0  0  0  0  0  0  0
  1  2  1  0
  2  3  2  0
  3  4  1  0
  4  5  2  0
  5  6  1  0
  6  7  1  0
  7  8  2  0
  7  9  1  0
  9 10  1  0
 10 11  2  0
 11 12  1  0
 12 13  1  0
 13 14  2  0
 14 15  1  0
 15 16  2  0
 16 17  1  0
 17 18  2  0
 18 19  1  0
 18 20  1  0
 20 21  2  0
 21 22  1  0
 14 23  1  0
 23 24  2  0
 24 25  1  0
 25 26  2  0
  5 27  1  0
 27 28  2  0
 28  2  1  0
 26 10  1  0
 25 12  1  0
 21 15  1  0
  1 29  1  0
  1 30  1  0
  1 31  1  0
  3 32  1  0
  4 33  1  0
  6 34  1  0
 11 35  1  0
 13 36  1  0
 16 37  1  0
 17 38  1  0
 19 39  1  0
 19 40  1  0
 19 41  1  0
 22 42  1  0
 22 43  1  0
 22 44  1  0
 23 45  1  0
 27 46  1  0
 28 47  1  0
M  CHG  1   9  -1
M  END
>  <UniqueID>  (47) 
43

>  <SMILES>  (47) 
Cc1ccc(NC(=O)[N-]c2cn3cc(-c4ccc(C)nc4C)cnc3n2)cc1

>  <Energy>  (47) 
98.42985617512161

>  <Genealogy>  (47) 
Cc1ccc(NC(=O)[N-]c2cn3cc(-c4ccc(C)nc4C)cnc3n2)cc1 (protonated)
Cc1ccc(NC(=O)[N-]c2cn3cc(-c4ccc(C)nc4C)cnc3n2)cc1 (3D coordinates assigned)
Cc1ccc(NC(=O)[N-]c2cn3cc(-c4ccc(C)nc4C)cnc3n2)cc1 (optimized conformer: 98.42985617512161 kcal/mol)

>  <smiles>  (47) 
Cc1ccc(NC(=O)Nc2cn3cc(-c4ccc(C)nc4C)cnc3n2)cc1

>  <score_type>  (47) 
oracle

>  <origin>  (47) 
adg

>  <m_score__min__energy>  (47) 
-10.48

>  <m_primary>  (47) 
energy

$$$$
