0:0
     RDKit          3D

 55 58  0  0  0  0  0  0  0  0999 V2000
   -0.6240   22.0660  -29.9300 C   0  0  0  0  0  0  0  0  0  0  0  0
   -1.3230   23.2640  -30.2550 O   0  0  0  0  0  0  0  0  0  0  0  0
   -2.7080   23.3460  -30.4750 C   0  0  0  0  0  0  0  0  0  0  0  0
   -3.3890   22.4350  -31.3010 C   0  0  0  0  0  0  0  0  0  0  0  0
   -4.7780   22.5430  -31.5110 C   0  0  0  0  0  0  0  0  0  0  0  0
   -5.4810   21.6350  -32.3340 C   0  0  0  0  0  0  0  0  0  0  0  0
   -4.8070   20.5560  -33.0940 C   0  0  0  0  0  0  0  0  0  0  0  0
   -3.7970   20.8430  -33.7920 O   0  0  0  0  0  0  0  0  0  0  0  0
   -5.3110   19.2040  -33.0890 N   0  0  0  0  0  0  0  0  0  0  0  0
   -4.9700   18.3160  -34.2110 C   0  0  0  0  0  0  0  0  0  0  0  0
   -5.7020   16.9770  -34.1100 C   0  0  0  0  0  0  0  0  0  0  0  0
   -5.5520   16.4420  -32.7520 N   0  0  0  0  0  0  0  0  0  0  0  0
   -5.0390   15.1130  -32.5450 C   0  0  0  0  0  0  0  0  0  0  0  0
   -4.5960   14.3440  -33.6330 C   0  0  0  0  0  0  0  0  0  0  0  0
   -4.1020   13.0580  -33.4130 C   0  0  0  0  0  0  0  0  0  0  0  0
   -4.0570   12.5450  -32.1170 C   0  0  0  0  0  0  0  0  0  0  0  0
   -4.5110   13.3290  -31.0560 C   0  0  0  0  0  0  0  0  0  0  0  0
   -4.9900   14.5830  -31.2860 N   0  0  0  0  0  0  0  0  0  0  0  0
   -5.8380   17.3020  -31.5940 C   0  0  0  0  0  0  0  0  0  0  0  0
   -6.2070   18.7310  -32.0180 C   0  0  0  0  0  0  0  0  0  0  0  0
   -6.8690   21.7650  -32.4630 C   0  0  0  0  0  0  0  0  0  0  0  0
   -7.5490   22.7610  -31.8230 N   0  0  0  0  0  0  0  0  0  0  0  0
   -9.0080   22.8480  -31.9780 C   0  0  0  0  0  0  0  0  0  0  0  0
   -6.8910   23.6570  -31.0230 C   0  0  0  0  0  0  0  0  0  0  0  0
   -7.5420   24.5640  -30.4300 O   0  0  0  0  0  0  0  0  0  0  0  0
   -5.4940   23.5690  -30.8510 C   0  0  0  0  0  0  0  0  0  0  0  0
   -4.8060   24.4790  -30.0280 C   0  0  0  0  0  0  0  0  0  0  0  0
   -3.4170   24.3730  -29.8390 C   0  0  0  0  0  0  0  0  0  0  0  0
   -2.7030   25.2670  -29.0240 O   0  0  0  0  0  0  0  0  0  0  0  0
   -2.1510   24.9370  -27.7540 C   0  0  0  0  0  0  0  0  0  0  0  0
   -0.5633   21.9620  -28.8366 H   0  0  0  0  0  0  0  0  0  0  0  0
   -1.1602   21.2028  -30.3512 H   0  0  0  0  0  0  0  0  0  0  0  0
    0.3913   22.1081  -30.3512 H   0  0  0  0  0  0  0  0  0  0  0  0
   -2.8287   21.6251  -31.7911 H   0  0  0  0  0  0  0  0  0  0  0  0
   -5.2523   18.8072  -35.1539 H   0  0  0  0  0  0  0  0  0  0  0  0
   -3.8880   18.1205  -34.1793 H   0  0  0  0  0  0  0  0  0  0  0  0
   -6.7695   17.1245  -34.3307 H   0  0  0  0  0  0  0  0  0  0  0  0
   -5.2739   16.2681  -34.8340 H   0  0  0  0  0  0  0  0  0  0  0  0
   -4.6382   14.7532  -34.6532 H   0  0  0  0  0  0  0  0  0  0  0  0
   -3.7490   12.4504  -34.2593 H   0  0  0  0  0  0  0  0  0  0  0  0
   -3.6676   11.5328  -31.9332 H   0  0  0  0  0  0  0  0  0  0  0  0
   -4.4820   12.9329  -30.0302 H   0  0  0  0  0  0  0  0  0  0  0  0
   -5.3450   15.1340  -30.4730 H   0  0  0  0  0  0  0  0  0  0  0  0
   -6.6779   16.8706  -31.0297 H   0  0  0  0  0  0  0  0  0  0  0  0
   -4.9295   17.3541  -30.9760 H   0  0  0  0  0  0  0  0  0  0  0  0
   -7.2444   18.7428  -32.3835 H   0  0  0  0  0  0  0  0  0  0  0  0
   -6.1014   19.3965  -31.1486 H   0  0  0  0  0  0  0  0  0  0  0  0
   -7.4219   21.0515  -33.0916 H   0  0  0  0  0  0  0  0  0  0  0  0
   -9.4811   22.8762  -30.9854 H   0  0  0  0  0  0  0  0  0  0  0  0
   -9.2639   23.7630  -32.5323 H   0  0  0  0  0  0  0  0  0  0  0  0
   -9.3709   21.9699  -32.5323 H   0  0  0  0  0  0  0  0  0  0  0  0
   -5.3622   25.2842  -29.5257 H   0  0  0  0  0  0  0  0  0  0  0  0
   -2.8030   25.3268  -26.9584 H   0  0  0  0  0  0  0  0  0  0  0  0
   -2.0726   23.8437  -27.6611 H   0  0  0  0  0  0  0  0  0  0  0  0
   -1.1509   25.3855  -27.6611 H   0  0  0  0  0  0  0  0  0  0  0  0
  1  2  1  0
  2  3  1  0
  3  4  2  0
  4  5  1  0
  5  6  1  0
  6  7  1  0
  7  8  2  0
  7  9  1  0
  9 10  1  0
 10 11  1  0
 11 12  1  0
 12 13  1  0
 13 14  2  0
 14 15  1  0
 15 16  2  0
 16 17  1  0
 17 18  2  0
 12 19  1  0
 19 20  1  0
  6 21  2  0
 21 22  1  0
 22 23  1  0
 22 24  1  0
 24 25  2  0
 24 26  1  0
 26 27  1  0
 27 28  2  0
 28 29  1  0
 29 30  1  0
 28  3  1  0
 26  5  2  0
 20  9  1  0
 18 13  1  0
  1 31  1  0
  1 32  1  0
  1 33  1  0
  4 34  1  0
 10 35  1  0
 10 36  1  0
 11 37  1  0
 11 38  1  0
 14 39  1  0
 15 40  1  0
 16 41  1  0
 17 42  1  0
 18 43  1  0
 19 44  1  0
 19 45  1  0
 20 46  1  0
 20 47  1  0
 21 48  1  0
 23 49  1  0
 23 50  1  0
 23 51  1  0
 27 52  1  0
 30 53  1  0
 30 54  1  0
 30 55  1  0
M  CHG  1  18   1
M  END
>  <UniqueID>  (1) 
1

>  <SMILES>  (1) 
COc1cc2c(C(=O)N3CCN(c4cccc[nH+]4)CC3)cn(C)c(=O)c2cc1OC

>  <Energy>  (1) 
76.24380381678252

>  <Genealogy>  (1) 
COc1cc2c(C(=O)N3CCN(c4cccc[nH+]4)CC3)cn(C)c(=O)c2cc1OC (protonated)
COc1cc2c(C(=O)N3CCN(c4cccc[nH+]4)CC3)cn(C)c(=O)c2cc1OC (3D coordinates assigned)
COc1cc2c(C(=O)N3CCN(c4cccc[nH+]4)CC3)cn(C)c(=O)c2cc1OC (nonaromatic ring conformer: 76.24380381678252 kcal/mol)

>  <smiles>  (1) 
COc1cc2c(C(=O)N3CCN(c4ccccn4)CC3)cn(C)c(=O)c2cc1OC

>  <score_type>  (1) 
oracle

>  <origin>  (1) 
adg

>  <m_score__min__energy>  (1) 
-8.2799999999999994

>  <m_primary>  (1) 
energy

$$$$
1:0
     RDKit          3D

 55 58  0  0  0  0  0  0  0  0999 V2000
   -1.1391   20.1214  -28.4898 H   0  0  0  0  0  0  0  0  0  0  0  0
   -1.5860   20.7600  -29.2660 C   0  0  0  0  0  0  0  0  0  0  0  0
   -2.1760   20.1650  -30.3110 C   0  0  0  0  0  0  0  0  0  0  0  0
   -2.9330   19.3891  -30.1242 H   0  0  0  0  0  0  0  0  0  0  0  0
   -1.8430   20.5170  -31.7050 C   0  0  0  0  0  0  0  0  0  0  0  0
   -2.6750   20.8060  -32.7830 C   0  0  0  0  0  0  0  0  0  0  0  0
   -4.1460   20.6840  -32.8590 C   0  0  0  0  0  0  0  0  0  0  0  0
   -4.7210   19.5520  -33.4560 C   0  0  0  0  0  0  0  0  0  0  0  0
   -4.0749   18.7579  -33.8585 H   0  0  0  0  0  0  0  0  0  0  0  0
   -6.1110   19.4280  -33.5420 C   0  0  0  0  0  0  0  0  0  0  0  0
   -6.5504   18.5408  -34.0213 H   0  0  0  0  0  0  0  0  0  0  0  0
   -6.9480   20.4220  -33.0240 C   0  0  0  0  0  0  0  0  0  0  0  0
   -8.3350   20.2580  -33.1470 O   0  0  0  0  0  0  0  0  0  0  0  0
   -9.1110   19.3570  -32.3620 C   0  0  0  0  0  0  0  0  0  0  0  0
   -8.9378   19.5581  -31.2945 H   0  0  0  0  0  0  0  0  0  0  0  0
  -10.1777   19.4948  -32.5927 H   0  0  0  0  0  0  0  0  0  0  0  0
   -8.8166   18.3226  -32.5927 H   0  0  0  0  0  0  0  0  0  0  0  0
   -6.3730   21.5450  -32.3980 C   0  0  0  0  0  0  0  0  0  0  0  0
   -7.0199   22.3290  -31.9775 H   0  0  0  0  0  0  0  0  0  0  0  0
   -4.9840   21.6670  -32.3090 C   0  0  0  0  0  0  0  0  0  0  0  0
   -4.5438   22.5396  -31.8043 H   0  0  0  0  0  0  0  0  0  0  0  0
   -1.9190   21.1630  -33.8380 N   0  0  0  0  0  0  0  0  0  0  0  0
   -0.6450   21.0940  -33.4770 N   0  0  0  0  0  0  0  0  0  0  0  0
    0.4500   21.4200  -34.3590 C   0  0  0  0  0  0  0  0  0  0  0  0
    0.2690   22.3690  -35.3840 C   0  0  0  0  0  0  0  0  0  0  0  0
   -0.7082   22.8590  -35.5063 H   0  0  0  0  0  0  0  0  0  0  0  0
    1.3190   22.6940  -36.2470 C   0  0  0  0  0  0  0  0  0  0  0  0
    1.1660   23.4384  -37.0423 H   0  0  0  0  0  0  0  0  0  0  0  0
    2.5620   22.0750  -36.1010 C   0  0  0  0  0  0  0  0  0  0  0  0
    3.3883   22.3336  -36.7795 H   0  0  0  0  0  0  0  0  0  0  0  0
    2.7560   21.1280  -35.0940 C   0  0  0  0  0  0  0  0  0  0  0  0
    3.7348   20.6386  -34.9822 H   0  0  0  0  0  0  0  0  0  0  0  0
    1.7090   20.8000  -34.2270 C   0  0  0  0  0  0  0  0  0  0  0  0
    1.8691   20.0525  -33.4360 H   0  0  0  0  0  0  0  0  0  0  0  0
   -0.5640   20.6970  -32.1890 C   0  0  0  0  0  0  0  0  0  0  0  0
    0.3655   20.5430  -31.6213 H   0  0  0  0  0  0  0  0  0  0  0  0
   -1.5010   22.2300  -29.0960 C   0  0  0  0  0  0  0  0  0  0  0  0
   -0.4370   22.8500  -28.4190 C   0  0  0  0  0  0  0  0  0  0  0  0
    0.3700   22.2370  -27.9912 H   0  0  0  0  0  0  0  0  0  0  0  0
   -0.3980   24.2400  -28.2860 C   0  0  0  0  0  0  0  0  0  0  0  0
    0.4374   24.7141  -27.7500 H   0  0  0  0  0  0  0  0  0  0  0  0
   -1.4200   25.0380  -28.8330 C   0  0  0  0  0  0  0  0  0  0  0  0
   -1.4160   26.4370  -28.7170 O   0  0  0  0  0  0  0  0  0  0  0  0
   -0.7940   27.1570  -27.6560 C   0  0  0  0  0  0  0  0  0  0  0  0
   -1.1387   26.7580  -26.6906 H   0  0  0  0  0  0  0  0  0  0  0  0
    0.2981   27.0472  -27.7292 H   0  0  0  0  0  0  0  0  0  0  0  0
   -1.0612   28.2215  -27.7292 H   0  0  0  0  0  0  0  0  0  0  0  0
   -2.4810   24.4290  -29.5210 C   0  0  0  0  0  0  0  0  0  0  0  0
   -3.4870   25.2500  -30.0550 O   0  0  0  0  0  0  0  0  0  0  0  0
   -4.8120   24.8170  -30.3470 C   0  0  0  0  0  0  0  0  0  0  0  0
   -5.3552   24.6395  -29.4071 H   0  0  0  0  0  0  0  0  0  0  0  0
   -5.3311   25.5923  -30.9297 H   0  0  0  0  0  0  0  0  0  0  0  0
   -4.7731   23.8848  -30.9297 H   0  0  0  0  0  0  0  0  0  0  0  0
   -2.5100   23.0280  -29.6540 C   0  0  0  0  0  0  0  0  0  0  0  0
   -3.3358   22.5525  -30.2034 H   0  0  0  0  0  0  0  0  0  0  0  0
  1  2  1  0
  2  3  2  0
  3  4  1  0
  3  5  1  0
  5  6  1  0
  6  7  1  0
  7  8  2  0
  8  9  1  0
  8 10  1  0
 10 11  1  0
 10 12  2  0
 12 13  1  0
 13 14  1  0
 14 15  1  0
 14 16  1  0
 14 17  1  0
 12 18  1  0
 18 19  1  0
 18 20  2  0
 20 21  1  0
  6 22  2  0
 22 23  1  0
 23 24  1  0
 24 25  2  0
 25 26  1  0
 25 27  1  0
 27 28  1  0
 27 29  2  0
 29 30  1  0
 29 31  1  0
 31 32  1  0
 31 33  2  0
 33 34  1  0
 23 35  1  0
 35 36  1  0
  2 37  1  0
 37 38  2  0
 38 39  1  0
 38 40  1  0
 40 41  1  0
 40 42  2  0
 42 43  1  0
 43 44  1  0
 44 45  1  0
 44 46  1  0
 44 47  1  0
 42 48  1  0
 48 49  1  0
 49 50  1  0
 50 51  1  0
 50 52  1  0
 50 53  1  0
 48 54  2  0
 54 55  1  0
 35  5  2  0
 54 37  1  0
 20  7  1  0
 33 24  1  0
M  END
>  <UniqueID>  (2) 
2

>  <SMILES>  (2) 
COc1ccc(-c2nn(-c3ccccc3)cc2/C=C/c2ccc(OC)c(OC)c2)cc1

>  <Energy>  (2) 
98.88185514730492

>  <Genealogy>  (2) 
COc1ccc(-c2nn(-c3ccccc3)cc2/C=C/c2ccc(OC)c(OC)c2)cc1 (cis-trans isomerization)
COc1ccc(-c2nn(-c3ccccc3)cc2/C=C/c2ccc(OC)c(OC)c2)cc1 (3D coordinates assigned)
COc1ccc(-c2nn(-c3ccccc3)cc2/C=C/c2ccc(OC)c(OC)c2)cc1 (optimized conformer: 98.88185514730492 kcal/mol)

>  <smiles>  (2) 
COc1ccc(-c2nn(-c3ccccc3)cc2C=Cc2ccc(OC)c(OC)c2)cc1

>  <score_type>  (2) 
oracle

>  <origin>  (2) 
adg

>  <m_score__min__energy>  (2) 
-9.0199999999999996

>  <m_primary>  (2) 
energy

$$$$
2:0
     RDKit          3D

 60 62  0  0  0  0  0  0  0  0999 V2000
   -6.9190   25.3040  -29.6900 C   0  0  0  0  0  0  0  0  0  0  0  0
   -6.5020   23.8410  -29.8100 C   0  0  0  0  0  0  0  0  0  0  0  0
   -5.2210   23.7100  -30.5170 N   0  0  0  0  0  0  0  0  0  0  0  0
   -5.1670   23.0850  -31.8430 C   0  0  0  0  0  0  0  0  0  0  0  0
   -6.1220   21.9260  -31.9230 C   0  0  0  0  0  0  0  0  0  0  0  0
   -7.4420   22.0440  -32.3510 C   0  0  0  0  0  0  0  0  0  0  0  0
   -7.9570   20.7700  -32.2950 C   0  0  0  0  0  0  0  0  0  0  0  0
   -9.2260   20.2980  -32.6210 C   0  0  0  0  0  0  0  0  0  0  0  0
   -9.4720   18.9200  -32.4760 C   0  0  0  0  0  0  0  0  0  0  0  0
   -8.4530   18.0570  -32.0170 C   0  0  0  0  0  0  0  0  0  0  0  0
   -7.1810   18.5630  -31.6990 C   0  0  0  0  0  0  0  0  0  0  0  0
   -6.9650   19.9380  -31.8450 C   0  0  0  0  0  0  0  0  0  0  0  0
   -5.8350   20.6350  -31.5930 N   0  0  0  0  0  0  0  0  0  0  0  0
   -4.5610   20.0870  -31.1040 C   0  0  0  0  0  0  0  0  0  0  0  0
   -3.4040   20.3780  -32.0470 C   0  0  0  0  0  0  0  0  0  0  0  0
   -2.3830   21.2670  -31.6580 C   0  0  0  0  0  0  0  0  0  0  0  0
   -1.3270   21.5660  -32.5170 C   0  0  0  0  0  0  0  0  0  0  0  0
   -1.2630   20.9850  -33.7870 C   0  0  0  0  0  0  0  0  0  0  0  0
   -0.1430   21.3350  -34.7220 C   0  0  0  0  0  0  0  0  0  0  0  0
   -2.2960   20.1370  -34.2090 C   0  0  0  0  0  0  0  0  0  0  0  0
   -3.3740   19.8370  -33.3590 C   0  0  0  0  0  0  0  0  0  0  0  0
   -4.4670   18.9300  -33.8630 C   0  0  0  0  0  0  0  0  0  0  0  0
   -4.0320   24.2600  -29.9270 C   0  0  0  0  0  0  0  0  0  0  0  0
   -3.5220   25.2940  -30.4370 O   0  0  0  0  0  0  0  0  0  0  0  0
   -3.3750   23.6370  -28.7010 C   0  0  0  0  0  0  0  0  0  0  0  0
   -1.8450   23.8470  -28.7000 C   0  0  0  0  0  0  0  0  0  0  0  0
   -3.9560   24.2940  -27.4330 C   0  0  0  0  0  0  0  0  0  0  0  0
   -3.6820   22.1280  -28.6780 C   0  0  0  0  0  0  0  0  0  0  0  0
   -6.9968   25.5771  -28.6273 H   0  0  0  0  0  0  0  0  0  0  0  0
   -6.1666   25.9409  -30.1781 H   0  0  0  0  0  0  0  0  0  0  0  0
   -7.8941   25.4486  -30.1781 H   0  0  0  0  0  0  0  0  0  0  0  0
   -6.4008   23.4129  -28.8018 H   0  0  0  0  0  0  0  0  0  0  0  0
   -7.2727   23.3050  -30.3834 H   0  0  0  0  0  0  0  0  0  0  0  0
   -5.4389   23.8303  -32.6050 H   0  0  0  0  0  0  0  0  0  0  0  0
   -4.1460   22.7151  -32.0186 H   0  0  0  0  0  0  0  0  0  0  0  0
   -7.9618   22.9606  -32.6665 H   0  0  0  0  0  0  0  0  0  0  0  0
  -10.0106   20.9802  -32.9802 H   0  0  0  0  0  0  0  0  0  0  0  0
  -10.4639   18.5128  -32.7217 H   0  0  0  0  0  0  0  0  0  0  0  0
   -8.6561   16.9815  -31.9076 H   0  0  0  0  0  0  0  0  0  0  0  0
   -6.3790   17.8981  -31.3458 H   0  0  0  0  0  0  0  0  0  0  0  0
   -4.3380   20.5328  -30.1234 H   0  0  0  0  0  0  0  0  0  0  0  0
   -4.6705   18.9946  -31.0351 H   0  0  0  0  0  0  0  0  0  0  0  0
   -2.4197   21.7320  -30.6618 H   0  0  0  0  0  0  0  0  0  0  0  0
   -0.5396   22.2629  -32.1940 H   0  0  0  0  0  0  0  0  0  0  0  0
    0.7476   21.6133  -34.1394 H   0  0  0  0  0  0  0  0  0  0  0  0
    0.0902   20.4669  -35.3560 H   0  0  0  0  0  0  0  0  0  0  0  0
   -0.4456   22.1814  -35.3560 H   0  0  0  0  0  0  0  0  0  0  0  0
   -2.2625   19.7008  -35.2183 H   0  0  0  0  0  0  0  0  0  0  0  0
   -4.9998   18.4879  -33.0082 H   0  0  0  0  0  0  0  0  0  0  0  0
   -5.1730   19.5112  -34.4743 H   0  0  0  0  0  0  0  0  0  0  0  0
   -4.0259   18.1289  -34.4743 H   0  0  0  0  0  0  0  0  0  0  0  0
   -1.4824   23.8968  -27.6627 H   0  0  0  0  0  0  0  0  0  0  0  0
   -1.3593   23.0071  -29.2183 H   0  0  0  0  0  0  0  0  0  0  0  0
   -1.6035   24.7867  -29.2183 H   0  0  0  0  0  0  0  0  0  0  0  0
   -3.5291   23.8113  -26.5415 H   0  0  0  0  0  0  0  0  0  0  0  0
   -3.7039   25.3647  -27.4264 H   0  0  0  0  0  0  0  0  0  0  0  0
   -5.0495   24.1747  -27.4264 H   0  0  0  0  0  0  0  0  0  0  0  0
   -3.7520   21.7839  -27.6355 H   0  0  0  0  0  0  0  0  0  0  0  0
   -4.6368   21.9402  -29.1910 H   0  0  0  0  0  0  0  0  0  0  0  0
   -2.8765   21.5821  -29.1910 H   0  0  0  0  0  0  0  0  0  0  0  0
  1  2  1  0
  2  3  1  0
  3  4  1  0
  4  5  1  0
  5  6  2  0
  6  7  1  0
  7  8  2  0
  8  9  1  0
  9 10  2  0
 10 11  1  0
 11 12  2  0
 12 13  1  0
 13 14  1  0
 14 15  1  0
 15 16  2  0
 16 17  1  0
 17 18  2  0
 18 19  1  0
 18 20  1  0
 20 21  2  0
 21 22  1  0
  3 23  1  0
 23 24  2  0
 23 25  1  0
 25 26  1  0
 25 27  1  0
 25 28  1  0
 13  5  1  0
 21 15  1  0
 12  7  1  0
  1 29  1  0
  1 30  1  0
  1 31  1  0
  2 32  1  0
  2 33  1  0
  4 34  1  0
  4 35  1  0
  6 36  1  0
  8 37  1  0
  9 38  1  0
 10 39  1  0
 11 40  1  0
 14 41  1  0
 14 42  1  0
 16 43  1  0
 17 44  1  0
 19 45  1  0
 19 46  1  0
 19 47  1  0
 20 48  1  0
 22 49  1  0
 22 50  1  0
 22 51  1  0
 26 52  1  0
 26 53  1  0
 26 54  1  0
 27 55  1  0
 27 56  1  0
 27 57  1  0
 28 58  1  0
 28 59  1  0
 28 60  1  0
M  END
>  <UniqueID>  (3) 
3

>  <SMILES>  (3) 
CCN(Cc1cc2ccccc2n1Cc1ccc(C)cc1C)C(=O)C(C)(C)C

>  <Energy>  (3) 
89.7127471297922

>  <Genealogy>  (3) 
CCN(Cc1cc2ccccc2n1Cc1ccc(C)cc1C)C(=O)C(C)(C)C (3D coordinates assigned)
CCN(Cc1cc2ccccc2n1Cc1ccc(C)cc1C)C(=O)C(C)(C)C (optimized conformer: 89.7127471297922 kcal/mol)

>  <smiles>  (3) 
CCN(Cc1cc2ccccc2n1Cc1ccc(C)cc1C)C(=O)C(C)(C)C

>  <score_type>  (3) 
oracle

>  <origin>  (3) 
adg

>  <m_score__min__energy>  (3) 
-9.5999999999999996

>  <m_primary>  (3) 
energy

$$$$
3:0
     RDKit          3D

 16 17  0  0  0  0  0  0  0  0999 V2000
   -4.2270   25.2950  -30.8420 O   0  0  0  0  0  0  0  0  0  0  0  0
   -5.0760   24.3960  -31.0760 C   0  0  0  0  0  0  0  0  0  0  0  0
   -6.4810   24.6280  -31.1630 N   0  0  0  0  0  0  0  0  0  0  0  0
   -7.0410   23.3440  -31.4390 C   0  0  0  0  0  0  0  0  0  0  0  0
   -8.3920   23.0470  -31.6130 C   0  0  0  0  0  0  0  0  0  0  0  0
   -8.7500   21.7130  -31.8800 C   0  0  0  0  0  0  0  0  0  0  0  0
   -7.7610   20.7070  -31.9670 C   0  0  0  0  0  0  0  0  0  0  0  0
   -8.2690   18.9040  -32.3300 Br  0  0  0  0  0  0  0  0  0  0  0  0
   -6.4040   21.0290  -31.7880 C   0  0  0  0  0  0  0  0  0  0  0  0
   -6.0750   22.3570  -31.5250 C   0  0  0  0  0  0  0  0  0  0  0  0
   -4.7850   22.9870  -31.2970 C   0  0  0  0  0  0  0  0  0  0  0  0
   -3.6550   22.4320  -31.2920 O   0  0  0  0  0  0  0  0  0  0  0  0
   -6.9860   25.5350  -31.0490 H   0  0  0  0  0  0  0  0  0  0  0  0
   -9.1571   23.8343  -31.5434 H   0  0  0  0  0  0  0  0  0  0  0  0
   -9.8087   21.4506  -32.0223 H   0  0  0  0  0  0  0  0  0  0  0  0
   -5.6251   20.2551  -31.8537 H   0  0  0  0  0  0  0  0  0  0  0  0
  1  2  2  0
  2  3  1  0
  3  4  1  0
  4  5  2  0
  5  6  1  0
  6  7  2  0
  7  8  1  0
  7  9  1  0
  9 10  2  0
 10 11  1  0
 11 12  2  0
 11  2  1  0
 10  4  1  0
  3 13  1  0
  5 14  1  0
  6 15  1  0
  9 16  1  0
M  END
>  <UniqueID>  (4) 
4

>  <SMILES>  (4) 
O=C1Nc2ccc(Br)cc2C1=O

>  <Energy>  (4) 
48.061203304332864

>  <Genealogy>  (4) 
O=C1Nc2ccc(Br)cc2C1=O (3D coordinates assigned)
O=C1Nc2ccc(Br)cc2C1=O (nonaromatic ring conformer: 48.061203304332864 kcal/mol)

>  <smiles>  (4) 
O=C1Nc2ccc(Br)cc2C1=O

>  <score_type>  (4) 
oracle

>  <origin>  (4) 
adg

>  <m_score__min__energy>  (4) 
-6.3600000000000003

>  <m_primary>  (4) 
energy

$$$$
4:0
     RDKit          3D

 63 64  0  0  0  0  0  0  0  0999 V2000
   -0.7870   21.9060  -34.1820 N   0  0  0  0  0  0  0  0  0  0  0  0
   -0.0170   21.0700  -33.2680 C   0  0  0  0  0  0  0  0  0  0  0  0
   -0.3050   21.4420  -31.8070 C   0  0  0  0  0  0  0  0  0  0  0  0
   -1.5900   20.8060  -31.2560 C   0  0  0  0  0  0  0  0  0  0  0  0
   -2.7740   21.1830  -32.0740 N   0  0  0  0  0  0  0  0  0  0  0  0
   -3.9160   20.2550  -31.8690 C   0  0  0  0  0  0  0  0  0  0  0  0
   -3.8200   18.9450  -32.6850 C   0  0  0  0  0  0  0  0  0  0  0  0
   -3.6350   19.2440  -34.1780 C   0  0  0  0  0  0  0  0  0  0  0  0
   -2.5760   20.2300  -34.3890 N   0  0  0  0  0  0  0  0  0  0  0  0
   -3.1760   22.5980  -31.8960 C   0  0  0  0  0  0  0  0  0  0  0  0
   -3.6480   22.8930  -30.4600 C   0  0  0  0  0  0  0  0  0  0  0  0
   -4.9420   23.6030  -30.3740 N   0  0  0  0  0  0  0  0  0  0  0  0
   -5.4310   24.2920  -31.5820 C   0  0  0  0  0  0  0  0  0  0  0  0
   -6.5850   23.5450  -32.2510 C   0  0  0  0  0  0  0  0  0  0  0  0
   -7.6430   23.2680  -31.2680 N   0  0  0  0  0  0  0  0  0  0  0  0
   -8.8500   22.6940  -31.9110 C   0  0  0  0  0  0  0  0  0  0  0  0
   -9.2100   21.3610  -31.2490 C   0  0  0  0  0  0  0  0  0  0  0  0
   -8.4490   20.2150  -31.8640 C   0  0  0  0  0  0  0  0  0  0  0  0
   -7.5310   20.4490  -32.9020 C   0  0  0  0  0  0  0  0  0  0  0  0
   -6.8660   19.3800  -33.5100 C   0  0  0  0  0  0  0  0  0  0  0  0
   -7.1180   18.0690  -33.0910 C   0  0  0  0  0  0  0  0  0  0  0  0
   -6.2840   16.7290  -33.8570 Cl  0  0  0  0  0  0  0  0  0  0  0  0
   -8.0350   17.8280  -32.0630 C   0  0  0  0  0  0  0  0  0  0  0  0
   -8.7020   18.8960  -31.4550 C   0  0  0  0  0  0  0  0  0  0  0  0
   -7.1200   22.3760  -30.2180 C   0  0  0  0  0  0  0  0  0  0  0  0
   -5.9680   23.0550  -29.4650 C   0  0  0  0  0  0  0  0  0  0  0  0
   -0.9030   21.3850  -35.0820 H   0  0  0  0  0  0  0  0  0  0  0  0
   -1.7450   22.0200  -33.7810 H   0  0  0  0  0  0  0  0  0  0  0  0
   -0.2868   20.0161  -33.4307 H   0  0  0  0  0  0  0  0  0  0  0  0
    1.0534   21.2288  -33.4655 H   0  0  0  0  0  0  0  0  0  0  0  0
    0.5416   21.1082  -31.1891 H   0  0  0  0  0  0  0  0  0  0  0  0
   -0.4422   22.5328  -31.7713 H   0  0  0  0  0  0  0  0  0  0  0  0
   -1.4810   19.7115  -31.2667 H   0  0  0  0  0  0  0  0  0  0  0  0
   -1.7461   21.1718  -30.2304 H   0  0  0  0  0  0  0  0  0  0  0  0
   -3.9617   19.9942  -30.8013 H   0  0  0  0  0  0  0  0  0  0  0  0
   -4.8176   20.7801  -32.2174 H   0  0  0  0  0  0  0  0  0  0  0  0
   -2.9614   18.3588  -32.3258 H   0  0  0  0  0  0  0  0  0  0  0  0
   -4.7536   18.3785  -32.5525 H   0  0  0  0  0  0  0  0  0  0  0  0
   -3.3690   18.3134  -34.7007 H   0  0  0  0  0  0  0  0  0  0  0  0
   -4.5771   19.6526  -34.5724 H   0  0  0  0  0  0  0  0  0  0  0  0
   -1.8110   20.0650  -33.6960 H   0  0  0  0  0  0  0  0  0  0  0  0
   -2.9520   21.1970  -34.2520 H   0  0  0  0  0  0  0  0  0  0  0  0
   -2.1840   20.1370  -35.3540 H   0  0  0  0  0  0  0  0  0  0  0  0
   -2.3145   23.2424  -32.1250 H   0  0  0  0  0  0  0  0  0  0  0  0
   -4.0176   22.7978  -32.5756 H   0  0  0  0  0  0  0  0  0  0  0  0
   -3.7451   21.9358  -29.9267 H   0  0  0  0  0  0  0  0  0  0  0  0
   -2.8951   23.5593  -30.0137 H   0  0  0  0  0  0  0  0  0  0  0  0
   -5.7771   25.2973  -31.2998 H   0  0  0  0  0  0  0  0  0  0  0  0
   -4.6000   24.3394  -32.3011 H   0  0  0  0  0  0  0  0  0  0  0  0
   -6.9956   24.1621  -33.0638 H   0  0  0  0  0  0  0  0  0  0  0  0
   -6.2115   22.5932  -32.6568 H   0  0  0  0  0  0  0  0  0  0  0  0
   -9.6905   23.3949  -31.8000 H   0  0  0  0  0  0  0  0  0  0  0  0
   -8.6453   22.5243  -32.9784 H   0  0  0  0  0  0  0  0  0  0  0  0
   -8.9673   21.4171  -30.1776 H   0  0  0  0  0  0  0  0  0  0  0  0
  -10.2848   21.1809  -31.3984 H   0  0  0  0  0  0  0  0  0  0  0  0
   -7.3348   21.4780  -33.2377 H   0  0  0  0  0  0  0  0  0  0  0  0
   -6.1443   19.5697  -34.3182 H   0  0  0  0  0  0  0  0  0  0  0  0
   -8.2317   16.7974  -31.7325 H   0  0  0  0  0  0  0  0  0  0  0  0
   -9.4286   18.7018  -30.6523 H   0  0  0  0  0  0  0  0  0  0  0  0
   -7.9267   22.1388  -29.5088 H   0  0  0  0  0  0  0  0  0  0  0  0
   -6.7458   21.4538  -30.6866 H   0  0  0  0  0  0  0  0  0  0  0  0
   -6.3783   23.8770  -28.8601 H   0  0  0  0  0  0  0  0  0  0  0  0
   -5.4844   22.2922  -28.8371 H   0  0  0  0  0  0  0  0  0  0  0  0
  1  2  1  0
  2  3  1  0
  3  4  1  0
  4  5  1  0
  5  6  1  0
  6  7  1  0
  7  8  1  0
  8  9  1  0
  5 10  1  0
 10 11  1  0
 11 12  1  0
 12 13  1  0
 13 14  1  0
 14 15  1  0
 15 16  1  0
 16 17  1  0
 17 18  1  0
 18 19  2  0
 19 20  1  0
 20 21  2  0
 21 22  1  0
 21 23  1  0
 23 24  2  0
 15 25  1  0
 25 26  1  0
 26 12  1  0
 24 18  1  0
  1 27  1  0
  1 28  1  0
  2 29  1  0
  2 30  1  0
  3 31  1  0
  3 32  1  0
  4 33  1  0
  4 34  1  0
  6 35  1  0
  6 36  1  0
  7 37  1  0
  7 38  1  0
  8 39  1  0
  8 40  1  0
  9 41  1  0
  9 42  1  0
  9 43  1  0
 10 44  1  0
 10 45  1  0
 11 46  1  0
 11 47  1  0
 13 48  1  0
 13 49  1  0
 14 50  1  0
 14 51  1  0
 16 52  1  0
 16 53  1  0
 17 54  1  0
 17 55  1  0
 19 56  1  0
 20 57  1  0
 23 58  1  0
 24 59  1  0
 25 60  1  0
 25 61  1  0
 26 62  1  0
 26 63  1  0
M  CHG  1   9   1
M  END
>  <UniqueID>  (5) 
5

>  <SMILES>  (5) 
NCCCN(CCC[NH3+])CCN1CCN(CCc2ccc(Cl)cc2)CC1

>  <Energy>  (5) 
66.233569969016

>  <Genealogy>  (5) 
NCCCN(CCC[NH3+])CCN1CCN(CCc2ccc(Cl)cc2)CC1 (protonated)
NCCCN(CCC[NH3+])CCN1CCN(CCc2ccc(Cl)cc2)CC1 (3D coordinates assigned)
NCCCN(CCC[NH3+])CCN1CCN(CCc2ccc(Cl)cc2)CC1 (nonaromatic ring conformer: 66.233569969016 kcal/mol)

>  <smiles>  (5) 
NCCCN(CCCN)CCN1CCN(CCc2ccc(Cl)cc2)CC1

>  <score_type>  (5) 
oracle

>  <origin>  (5) 
adg

>  <m_score__min__energy>  (5) 
-8.6099999999999994

>  <m_primary>  (5) 
energy

$$$$
5:0
     RDKit          3D

 40 42  0  0  0  0  0  0  0  0999 V2000
   -9.3720   21.1840  -31.3370 C   0  0  0  0  0  0  0  0  0  0  0  0
   -8.7420   22.4260  -31.9510 C   0  0  0  0  0  0  0  0  0  0  0  0
   -7.2860   22.3870  -31.7970 N   0  0  0  0  0  0  0  0  0  0  0  0
   -6.4850   23.3060  -31.1900 C   0  0  0  0  0  0  0  0  0  0  0  0
   -6.8660   24.4750  -30.5250 C   0  0  0  0  0  0  0  0  0  0  0  0
   -5.8520   25.2870  -29.9820 C   0  0  0  0  0  0  0  0  0  0  0  0
   -4.4920   24.9300  -30.1160 C   0  0  0  0  0  0  0  0  0  0  0  0
   -4.1260   23.7550  -30.7970 C   0  0  0  0  0  0  0  0  0  0  0  0
   -5.1480   22.9690  -31.3200 C   0  0  0  0  0  0  0  0  0  0  0  0
   -5.1280   21.8090  -32.0490 C   0  0  0  0  0  0  0  0  0  0  0  0
   -4.0890   21.0630  -32.4860 N   0  0  0  0  0  0  0  0  0  0  0  0
   -4.3470   19.9540  -33.2460 C   0  0  0  0  0  0  0  0  0  0  0  0
   -3.1930   19.0790  -33.6610 C   0  0  0  0  0  0  0  0  0  0  0  0
   -2.0340   19.8270  -33.7650 F   0  0  0  0  0  0  0  0  0  0  0  0
   -2.9920   18.0900  -32.7160 F   0  0  0  0  0  0  0  0  0  0  0  0
   -3.4480   18.4950  -34.8860 F   0  0  0  0  0  0  0  0  0  0  0  0
   -5.7040   19.6320  -33.5780 C   0  0  0  0  0  0  0  0  0  0  0  0
   -6.1110   18.2120  -34.6120 S   0  0  0  0  0  0  0  0  0  0  0  0
   -6.6570   17.1240  -33.2390 C   0  0  0  0  0  0  0  0  0  0  0  0
   -5.4920   16.7670  -32.3150 C   0  0  0  0  0  0  0  0  0  0  0  0
   -7.7620   17.8310  -32.4550 C   0  0  0  0  0  0  0  0  0  0  0  0
   -6.7260   20.4010  -33.0860 N   0  0  0  0  0  0  0  0  0  0  0  0
   -6.4240   21.4860  -32.3280 C   0  0  0  0  0  0  0  0  0  0  0  0
   -9.3345   21.2579  -30.2401 H   0  0  0  0  0  0  0  0  0  0  0  0
  -10.4194   21.1045  -31.6636 H   0  0  0  0  0  0  0  0  0  0  0  0
   -8.8174   20.2919  -31.6636 H   0  0  0  0  0  0  0  0  0  0  0  0
   -8.9926   22.4686  -33.0212 H   0  0  0  0  0  0  0  0  0  0  0  0
   -9.1323   23.3165  -31.4366 H   0  0  0  0  0  0  0  0  0  0  0  0
   -7.9261   24.7522  -30.4288 H   0  0  0  0  0  0  0  0  0  0  0  0
   -6.1220   26.2097  -29.4475 H   0  0  0  0  0  0  0  0  0  0  0  0
   -3.7131   25.5758  -29.6845 H   0  0  0  0  0  0  0  0  0  0  0  0
   -3.0703   23.4680  -30.9119 H   0  0  0  0  0  0  0  0  0  0  0  0
   -7.0417   16.1838  -33.6610 H   0  0  0  0  0  0  0  0  0  0  0  0
   -5.8118   16.8650  -31.2671 H   0  0  0  0  0  0  0  0  0  0  0  0
   -5.1762   15.7309  -32.5066 H   0  0  0  0  0  0  0  0  0  0  0  0
   -4.6499   17.4483  -32.5066 H   0  0  0  0  0  0  0  0  0  0  0  0
   -7.5790   17.7139  -31.3767 H   0  0  0  0  0  0  0  0  0  0  0  0
   -7.7671   18.9005  -32.7120 H   0  0  0  0  0  0  0  0  0  0  0  0
   -8.7352   17.3875  -32.7120 H   0  0  0  0  0  0  0  0  0  0  0  0
   -7.7170   20.1630  -33.3080 H   0  0  0  0  0  0  0  0  0  0  0  0
  1  2  1  0
  2  3  1  0
  3  4  1  0
  4  5  2  0
  5  6  1  0
  6  7  2  0
  7  8  1  0
  8  9  2  0
  9 10  1  0
 10 11  2  0
 11 12  1  0
 12 13  1  0
 13 14  1  0
 13 15  1  0
 13 16  1  0
 12 17  2  0
 17 18  1  0
 18 19  1  0
 19 20  1  0
 19 21  1  0
 17 22  1  0
 22 23  2  0
 23  3  1  0
  9  4  1  0
 23 10  1  0
  1 24  1  0
  1 25  1  0
  1 26  1  0
  2 27  1  0
  2 28  1  0
  5 29  1  0
  6 30  1  0
  7 31  1  0
  8 32  1  0
 19 33  1  0
 20 34  1  0
 20 35  1  0
 20 36  1  0
 21 37  1  0
 21 38  1  0
 21 39  1  0
 22 40  1  0
M  CHG  1  22   1
M  END
>  <UniqueID>  (6) 
6

>  <SMILES>  (6) 
CCn1c2ccccc2c2nc(C(F)(F)F)c(SC(C)C)[nH+]c21

>  <Energy>  (6) 
78.17492746148285

>  <Genealogy>  (6) 
CCn1c2ccccc2c2nc(C(F)(F)F)c(SC(C)C)[nH+]c21 (protonated)
CCn1c2ccccc2c2nc(C(F)(F)F)c(SC(C)C)[nH+]c21 (3D coordinates assigned)
CCn1c2ccccc2c2nc(C(F)(F)F)c(SC(C)C)[nH+]c21 (optimized conformer: 78.17492746148285 kcal/mol)

>  <smiles>  (6) 
CCn1c2ccccc2c2nc(C(F)(F)F)c(SC(C)C)nc21

>  <score_type>  (6) 
oracle

>  <origin>  (6) 
adg

>  <m_score__min__energy>  (6) 
-6.9000000000000004

>  <m_primary>  (6) 
energy

$$$$
6:0
     RDKit          3D

 40 43  0  0  0  0  0  0  0  0999 V2000
    1.6410   24.2270  -26.6150 C   0  0  0  0  0  0  0  0  0  0  0  0
    0.3430   23.6110  -26.9210 N   0  0  0  0  0  0  0  0  0  0  0  0
    0.0190   22.4040  -26.3680 C   0  0  0  0  0  0  0  0  0  0  0  0
   -1.1760   21.8170  -26.6350 N   0  0  0  0  0  0  0  0  0  0  0  0
   -2.0820   22.4110  -27.4560 C   0  0  0  0  0  0  0  0  0  0  0  0
   -3.3130   21.7930  -27.7230 C   0  0  0  0  0  0  0  0  0  0  0  0
   -4.2430   22.4090  -28.5630 C   0  0  0  0  0  0  0  0  0  0  0  0
   -3.9540   23.6500  -29.1460 C   0  0  0  0  0  0  0  0  0  0  0  0
   -5.1330   24.4370  -30.1940 S   0  0  0  0  0  0  0  0  0  0  0  0
   -4.4440   25.3010  -31.2130 O   0  0  0  0  0  0  0  0  0  0  0  0
   -6.0130   25.3100  -29.3430 O   0  0  0  0  0  0  0  0  0  0  0  0
   -6.0990   23.2140  -31.0420 C   0  0  0  0  0  0  0  0  0  0  0  0
   -7.4950   23.2440  -30.8880 C   0  0  0  0  0  0  0  0  0  0  0  0
   -8.3040   22.2960  -31.5110 C   0  0  0  0  0  0  0  0  0  0  0  0
   -7.7370   21.2960  -32.2980 C   0  0  0  0  0  0  0  0  0  0  0  0
   -6.3490   21.2360  -32.4710 C   0  0  0  0  0  0  0  0  0  0  0  0
   -5.7870   20.2230  -33.2640 C   0  0  0  0  0  0  0  0  0  0  0  0
   -4.4050   20.1530  -33.4420 C   0  0  0  0  0  0  0  0  0  0  0  0
   -3.5740   21.0930  -32.8340 C   0  0  0  0  0  0  0  0  0  0  0  0
   -4.1160   22.1090  -32.0440 C   0  0  0  0  0  0  0  0  0  0  0  0
   -5.5110   22.2000  -31.8450 C   0  0  0  0  0  0  0  0  0  0  0  0
   -2.7240   24.2690  -28.8910 C   0  0  0  0  0  0  0  0  0  0  0  0
   -1.7830   23.6570  -28.0420 C   0  0  0  0  0  0  0  0  0  0  0  0
   -0.5410   24.2470  -27.7530 C   0  0  0  0  0  0  0  0  0  0  0  0
   -0.2390   25.3640  -28.2610 O   0  0  0  0  0  0  0  0  0  0  0  0
    1.7698   24.2881  -25.5243 H   0  0  0  0  0  0  0  0  0  0  0  0
    2.4477   23.6157  -27.0458 H   0  0  0  0  0  0  0  0  0  0  0  0
    1.6775   25.2385  -27.0458 H   0  0  0  0  0  0  0  0  0  0  0  0
    0.7341   21.9025  -25.6993 H   0  0  0  0  0  0  0  0  0  0  0  0
   -1.3870   20.8930  -26.1930 H   0  0  0  0  0  0  0  0  0  0  0  0
   -3.5466   20.8189  -27.2686 H   0  0  0  0  0  0  0  0  0  0  0  0
   -5.2059   21.9183  -28.7678 H   0  0  0  0  0  0  0  0  0  0  0  0
   -7.9557   24.0265  -30.2672 H   0  0  0  0  0  0  0  0  0  0  0  0
   -9.3955   22.3373  -31.3808 H   0  0  0  0  0  0  0  0  0  0  0  0
   -8.3825   20.5505  -32.7855 H   0  0  0  0  0  0  0  0  0  0  0  0
   -6.4394   19.4809  -33.7473 H   0  0  0  0  0  0  0  0  0  0  0  0
   -3.9706   19.3554  -34.0626 H   0  0  0  0  0  0  0  0  0  0  0  0
   -2.4850   21.0340  -32.9774 H   0  0  0  0  0  0  0  0  0  0  0  0
   -3.4495   22.8459  -31.5720 H   0  0  0  0  0  0  0  0  0  0  0  0
   -2.4922   25.2383  -29.3565 H   0  0  0  0  0  0  0  0  0  0  0  0
  1  2  1  0
  2  3  1  0
  3  4  2  0
  4  5  1  0
  5  6  2  0
  6  7  1  0
  7  8  2  0
  8  9  1  0
  9 10  2  0
  9 11  2  0
  9 12  1  0
 12 13  2  0
 13 14  1  0
 14 15  2  0
 15 16  1  0
 16 17  2  0
 17 18  1  0
 18 19  2  0
 19 20  1  0
 20 21  2  0
  8 22  1  0
 22 23  2  0
 23 24  1  0
 24 25  2  0
 24  2  1  0
 23  5  1  0
 21 12  1  0
 21 16  1  0
  1 26  1  0
  1 27  1  0
  1 28  1  0
  3 29  1  0
  4 30  1  0
  6 31  1  0
  7 32  1  0
 13 33  1  0
 14 34  1  0
 15 35  1  0
 17 36  1  0
 18 37  1  0
 19 38  1  0
 20 39  1  0
 22 40  1  0
M  CHG  1   4   1
M  END
>  <UniqueID>  (7) 
7

>  <SMILES>  (7) 
Cn1c[nH+]c2ccc(S(=O)(=O)c3cccc4ccccc34)cc2c1=O

>  <Energy>  (7) 
57.87884256159134

>  <Genealogy>  (7) 
Cn1c[nH+]c2ccc(S(=O)(=O)c3cccc4ccccc34)cc2c1=O (protonated)
Cn1c[nH+]c2ccc(S(=O)(=O)c3cccc4ccccc34)cc2c1=O (3D coordinates assigned)
Cn1c[nH+]c2ccc(S(=O)(=O)c3cccc4ccccc34)cc2c1=O (optimized conformer: 57.87884256159134 kcal/mol)

>  <smiles>  (7) 
Cn1cnc2ccc(S(=O)(=O)c3cccc4ccccc34)cc2c1=O

>  <score_type>  (7) 
oracle

>  <origin>  (7) 
adg

>  <m_score__min__energy>  (7) 
-8.9199999999999999

>  <m_primary>  (7) 
energy

$$$$
7:0
     RDKit          3D

 61 64  0  0  0  0  0  0  0  0999 V2000
   -8.7300   18.3480  -31.6200 C   0  0  0  0  0  0  0  0  0  0  0  0
   -7.3070   18.2870  -31.5870 O   0  0  0  0  0  0  0  0  0  0  0  0
   -6.5060   17.8270  -32.6450 C   0  0  0  0  0  0  0  0  0  0  0  0
   -6.4220   16.4610  -32.9850 C   0  0  0  0  0  0  0  0  0  0  0  0
   -5.6020   16.0440  -34.0410 C   0  0  0  0  0  0  0  0  0  0  0  0
   -4.8600   16.9810  -34.7630 C   0  0  0  0  0  0  0  0  0  0  0  0
   -4.9340   18.3370  -34.4350 C   0  0  0  0  0  0  0  0  0  0  0  0
   -5.7580   18.7650  -33.3820 C   0  0  0  0  0  0  0  0  0  0  0  0
   -5.8470   20.1600  -33.0620 N   0  0  0  0  0  0  0  0  0  0  0  0
   -7.1650   20.8000  -33.0710 C   0  0  0  0  0  0  0  0  0  0  0  0
   -7.1720   21.9930  -32.1100 C   0  0  0  0  0  0  0  0  0  0  0  0
   -6.0410   22.9010  -32.4080 N   0  0  0  0  0  0  0  0  0  0  0  0
   -6.1080   24.1730  -31.6440 C   0  0  0  0  0  0  0  0  0  0  0  0
   -6.4330   24.0070  -30.1320 C   0  0  0  0  0  0  0  0  0  0  0  0
   -5.2480   24.0770  -29.2480 N   0  0  0  0  0  0  0  0  0  0  0  0
   -4.1190   24.8620  -29.8030 C   0  0  0  0  0  0  0  0  0  0  0  0
   -2.7650   24.5410  -29.1330 C   0  0  0  0  0  0  0  0  0  0  0  0
   -2.9460   24.0490  -27.7630 N   0  0  0  0  0  0  0  0  0  0  0  0
   -1.9680   24.3680  -26.7650 C   0  0  0  0  0  0  0  0  0  0  0  0
   -2.0920   25.5580  -26.0340 C   0  0  0  0  0  0  0  0  0  0  0  0
   -1.1410   25.8910  -25.0670 C   0  0  0  0  0  0  0  0  0  0  0  0
   -0.0600   25.0360  -24.8260 C   0  0  0  0  0  0  0  0  0  0  0  0
    0.0670   23.8440  -25.5470 C   0  0  0  0  0  0  0  0  0  0  0  0
   -0.8830   23.5050  -26.5160 C   0  0  0  0  0  0  0  0  0  0  0  0
   -0.7010   21.9940  -27.3980 Cl  0  0  0  0  0  0  0  0  0  0  0  0
   -3.9650   23.0390  -27.4570 C   0  0  0  0  0  0  0  0  0  0  0  0
   -4.8510   22.7810  -28.6740 C   0  0  0  0  0  0  0  0  0  0  0  0
   -4.7470   22.2000  -32.2380 C   0  0  0  0  0  0  0  0  0  0  0  0
   -4.6540   21.0040  -33.1940 C   0  0  0  0  0  0  0  0  0  0  0  0
   -9.1202   18.3647  -30.5917 H   0  0  0  0  0  0  0  0  0  0  0  0
   -9.0458   19.2605  -32.1469 H   0  0  0  0  0  0  0  0  0  0  0  0
   -9.1227   17.4659  -32.1469 H   0  0  0  0  0  0  0  0  0  0  0  0
   -7.0035   15.7192  -32.4179 H   0  0  0  0  0  0  0  0  0  0  0  0
   -5.5424   14.9771  -34.3020 H   0  0  0  0  0  0  0  0  0  0  0  0
   -4.2161   16.6509  -35.5915 H   0  0  0  0  0  0  0  0  0  0  0  0
   -4.3448   19.0716  -35.0036 H   0  0  0  0  0  0  0  0  0  0  0  0
   -7.3936   21.1499  -34.0885 H   0  0  0  0  0  0  0  0  0  0  0  0
   -7.9236   20.0713  -32.7492 H   0  0  0  0  0  0  0  0  0  0  0  0
   -8.1179   22.5432  -32.2218 H   0  0  0  0  0  0  0  0  0  0  0  0
   -7.0706   21.6222  -31.0794 H   0  0  0  0  0  0  0  0  0  0  0  0
   -6.1140   23.1760  -33.4190 H   0  0  0  0  0  0  0  0  0  0  0  0
   -5.1342   24.6770  -31.7318 H   0  0  0  0  0  0  0  0  0  0  0  0
   -6.9362   24.7526  -32.0778 H   0  0  0  0  0  0  0  0  0  0  0  0
   -7.1303   24.8056  -29.8388 H   0  0  0  0  0  0  0  0  0  0  0  0
   -6.8621   23.0017  -30.0083 H   0  0  0  0  0  0  0  0  0  0  0  0
   -4.0371   24.6439  -30.8781 H   0  0  0  0  0  0  0  0  0  0  0  0
   -4.3343   25.9235  -29.6110 H   0  0  0  0  0  0  0  0  0  0  0  0
   -2.2476   23.7708  -29.7239 H   0  0  0  0  0  0  0  0  0  0  0  0
   -2.1725   25.4669  -29.0916 H   0  0  0  0  0  0  0  0  0  0  0  0
   -2.9410   26.2315  -26.2228 H   0  0  0  0  0  0  0  0  0  0  0  0
   -1.2418   26.8252  -24.4950 H   0  0  0  0  0  0  0  0  0  0  0  0
    0.6916   25.3017  -24.0680 H   0  0  0  0  0  0  0  0  0  0  0  0
    0.9156   23.1720  -25.3515 H   0  0  0  0  0  0  0  0  0  0  0  0
   -3.4685   22.1014  -27.1664 H   0  0  0  0  0  0  0  0  0  0  0  0
   -4.5937   23.4087  -26.6335 H   0  0  0  0  0  0  0  0  0  0  0  0
   -4.2927   22.1995  -29.4224 H   0  0  0  0  0  0  0  0  0  0  0  0
   -5.7441   22.2125  -28.3754 H   0  0  0  0  0  0  0  0  0  0  0  0
   -3.9255   22.8995  -32.4524 H   0  0  0  0  0  0  0  0  0  0  0  0
   -4.6737   21.8346  -31.2031 H   0  0  0  0  0  0  0  0  0  0  0  0
   -4.5798   21.3700  -34.2287 H   0  0  0  0  0  0  0  0  0  0  0  0
   -3.7628   20.4102  -32.9426 H   0  0  0  0  0  0  0  0  0  0  0  0
  1  2  1  0
  2  3  1  0
  3  4  2  0
  4  5  1  0
  5  6  2  0
  6  7  1  0
  7  8  2  0
  8  9  1  0
  9 10  1  0
 10 11  1  0
 11 12  1  0
 12 13  1  0
 13 14  1  0
 14 15  1  0
 15 16  1  0
 16 17  1  0
 17 18  1  0
 18 19  1  0
 19 20  2  0
 20 21  1  0
 21 22  2  0
 22 23  1  0
 23 24  2  0
 24 25  1  0
 18 26  1  0
 26 27  1  0
 12 28  1  0
 28 29  1  0
  8  3  1  0
 29  9  1  0
 27 15  1  0
 24 19  1  0
  1 30  1  0
  1 31  1  0
  1 32  1  0
  4 33  1  0
  5 34  1  0
  6 35  1  0
  7 36  1  0
 10 37  1  0
 10 38  1  0
 11 39  1  0
 11 40  1  0
 12 41  1  0
 13 42  1  0
 13 43  1  0
 14 44  1  0
 14 45  1  0
 16 46  1  0
 16 47  1  0
 17 48  1  0
 17 49  1  0
 20 50  1  0
 21 51  1  0
 22 52  1  0
 23 53  1  0
 26 54  1  0
 26 55  1  0
 27 56  1  0
 27 57  1  0
 28 58  1  0
 28 59  1  0
 29 60  1  0
 29 61  1  0
M  CHG  1  12   1
M  END
>  <UniqueID>  (8) 
8

>  <SMILES>  (8) 
COc1ccccc1N1CC[NH+](CCN2CCN(c3ccccc3Cl)CC2)CC1

>  <Energy>  (8) 
85.90677766571658

>  <Genealogy>  (8) 
COc1ccccc1N1CC[NH+](CCN2CCN(c3ccccc3Cl)CC2)CC1 (protonated)
COc1ccccc1N1CC[NH+](CCN2CCN(c3ccccc3Cl)CC2)CC1 (3D coordinates assigned)
COc1ccccc1N1CC[NH+](CCN2CCN(c3ccccc3Cl)CC2)CC1 (nonaromatic ring conformer: 85.90677766571658 kcal/mol)

>  <smiles>  (8) 
COc1ccccc1N1CCN(CCN2CCN(c3ccccc3Cl)CC2)CC1

>  <score_type>  (8) 
oracle

>  <origin>  (8) 
adg

>  <m_score__min__energy>  (8) 
-7.9100000000000001

>  <m_primary>  (8) 
energy

$$$$
8:0
     RDKit          3D

 43 45  0  0  0  0  0  0  0  0999 V2000
   -9.1100   21.7220  -30.8730 C   0  0  0  0  0  0  0  0  0  0  0  0
   -9.0340   21.0740  -32.1390 O   0  0  0  0  0  0  0  0  0  0  0  0
   -8.1710   20.0080  -32.4310 C   0  0  0  0  0  0  0  0  0  0  0  0
   -7.2470   20.0540  -33.4910 C   0  0  0  0  0  0  0  0  0  0  0  0
   -6.3770   18.9810  -33.7130 C   0  0  0  0  0  0  0  0  0  0  0  0
   -6.3990   17.8630  -32.8660 C   0  0  0  0  0  0  0  0  0  0  0  0
   -5.3920   16.7550  -33.0440 C   0  0  0  0  0  0  0  0  0  0  0  0
   -4.3980   17.0850  -34.0930 N   0  0  0  0  0  0  0  0  0  0  0  0
   -4.1550   15.8960  -34.9280 C   0  0  0  0  0  0  0  0  0  0  0  0
   -3.1210   17.5740  -33.5200 C   0  0  0  0  0  0  0  0  0  0  0  0
   -3.1780   19.0590  -33.3460 C   0  0  0  0  0  0  0  0  0  0  0  0
   -3.8000   19.6810  -32.3210 N   0  0  0  0  0  0  0  0  0  0  0  0
   -3.6060   20.9830  -32.6310 C   0  0  0  0  0  0  0  0  0  0  0  0
   -4.2010   22.1020  -31.8660 C   0  0  0  0  0  0  0  0  0  0  0  0
   -5.5200   22.4920  -32.1630 C   0  0  0  0  0  0  0  0  0  0  0  0
   -6.1030   23.5820  -31.5160 C   0  0  0  0  0  0  0  0  0  0  0  0
   -5.3880   24.2860  -30.5460 C   0  0  0  0  0  0  0  0  0  0  0  0
   -6.1230   25.6560  -29.7340 Cl  0  0  0  0  0  0  0  0  0  0  0  0
   -4.0920   23.8860  -30.2100 C   0  0  0  0  0  0  0  0  0  0  0  0
   -3.4940   22.7960  -30.8550 C   0  0  0  0  0  0  0  0  0  0  0  0
   -1.9100   22.2810  -30.2850 Cl  0  0  0  0  0  0  0  0  0  0  0  0
   -2.9180   21.1170  -33.7830 N   0  0  0  0  0  0  0  0  0  0  0  0
   -2.6640   19.9160  -34.1950 O   0  0  0  0  0  0  0  0  0  0  0  0
   -7.3440   17.8070  -31.8290 C   0  0  0  0  0  0  0  0  0  0  0  0
   -8.2290   18.8670  -31.6230 C   0  0  0  0  0  0  0  0  0  0  0  0
   -9.0222   20.9732  -30.0720 H   0  0  0  0  0  0  0  0  0  0  0  0
   -8.2912   22.4512  -30.7846 H   0  0  0  0  0  0  0  0  0  0  0  0
  -10.0753   22.2420  -30.7846 H   0  0  0  0  0  0  0  0  0  0  0  0
   -7.2085   20.9361  -34.1471 H   0  0  0  0  0  0  0  0  0  0  0  0
   -5.6717   19.0143  -34.5565 H   0  0  0  0  0  0  0  0  0  0  0  0
   -4.8659   16.5942  -32.0915 H   0  0  0  0  0  0  0  0  0  0  0  0
   -5.9303   15.8470  -33.3533 H   0  0  0  0  0  0  0  0  0  0  0  0
   -3.9768   15.0241  -34.2815 H   0  0  0  0  0  0  0  0  0  0  0  0
   -5.0333   15.7082  -35.5630 H   0  0  0  0  0  0  0  0  0  0  0  0
   -3.2734   16.0679  -35.5630 H   0  0  0  0  0  0  0  0  0  0  0  0
   -2.9537   17.0981  -32.5425 H   0  0  0  0  0  0  0  0  0  0  0  0
   -2.2965   17.3201  -34.2024 H   0  0  0  0  0  0  0  0  0  0  0  0
   -6.0974   21.9317  -32.9131 H   0  0  0  0  0  0  0  0  0  0  0  0
   -7.1286   23.8872  -31.7710 H   0  0  0  0  0  0  0  0  0  0  0  0
   -3.5369   24.4316  -29.4327 H   0  0  0  0  0  0  0  0  0  0  0  0
   -2.6900   21.9890  -34.3060 H   0  0  0  0  0  0  0  0  0  0  0  0
   -7.3873   16.9233  -31.1754 H   0  0  0  0  0  0  0  0  0  0  0  0
   -8.9776   18.8047  -30.8194 H   0  0  0  0  0  0  0  0  0  0  0  0
  1  2  1  0
  2  3  1  0
  3  4  2  0
  4  5  1  0
  5  6  2  0
  6  7  1  0
  7  8  1  0
  8  9  1  0
  8 10  1  0
 10 11  1  0
 11 12  2  0
 12 13  1  0
 13 14  1  0
 14 15  2  0
 15 16  1  0
 16 17  2  0
 17 18  1  0
 17 19  1  0
 19 20  2  0
 20 21  1  0
 13 22  2  0
 22 23  1  0
  6 24  1  0
 24 25  2  0
 25  3  1  0
 23 11  1  0
 20 14  1  0
  1 26  1  0
  1 27  1  0
  1 28  1  0
  4 29  1  0
  5 30  1  0
  7 31  1  0
  7 32  1  0
  9 33  1  0
  9 34  1  0
  9 35  1  0
 10 36  1  0
 10 37  1  0
 15 38  1  0
 16 39  1  0
 19 40  1  0
 22 41  1  0
 24 42  1  0
 25 43  1  0
M  CHG  1  22   1
M  END
>  <UniqueID>  (9) 
9

>  <SMILES>  (9) 
COc1ccc(CN(C)Cc2nc(-c3ccc(Cl)cc3Cl)[nH+]o2)cc1

>  <Energy>  (9) 
80.59322105742234

>  <Genealogy>  (9) 
COc1ccc(CN(C)Cc2nc(-c3ccc(Cl)cc3Cl)[nH+]o2)cc1 (protonated)
COc1ccc(CN(C)Cc2nc(-c3ccc(Cl)cc3Cl)[nH+]o2)cc1 (3D coordinates assigned)
COc1ccc(CN(C)Cc2nc(-c3ccc(Cl)cc3Cl)[nH+]o2)cc1 (optimized conformer: 80.59322105742234 kcal/mol)

>  <smiles>  (9) 
COc1ccc(CN(C)Cc2nc(-c3ccc(Cl)cc3Cl)no2)cc1

>  <score_type>  (9) 
oracle

>  <origin>  (9) 
adg

>  <m_score__min__energy>  (9) 
-8.5600000000000005

>  <m_primary>  (9) 
energy

$$$$
9:0
     RDKit          3D

 37 38  0  0  0  0  0  0  0  0999 V2000
   -4.9340   20.7070  -33.0730 C   0  0  0  0  0  0  0  0  0  0  0  0
   -6.2690   21.1870  -32.5760 C   0  0  0  0  0  0  0  0  0  0  0  0
   -7.4130   20.3900  -32.7500 C   0  0  0  0  0  0  0  0  0  0  0  0
   -8.6560   20.8310  -32.2920 C   0  0  0  0  0  0  0  0  0  0  0  0
   -8.7680   22.0660  -31.6520 C   0  0  0  0  0  0  0  0  0  0  0  0
   -7.6390   22.8690  -31.4750 C   0  0  0  0  0  0  0  0  0  0  0  0
   -6.3790   22.4400  -31.9410 C   0  0  0  0  0  0  0  0  0  0  0  0
   -5.2220   23.2260  -31.7890 O   0  0  0  0  0  0  0  0  0  0  0  0
   -4.4260   23.3080  -30.6060 C   0  0  0  0  0  0  0  0  0  0  0  0
   -3.9270   24.7050  -30.3960 C   0  0  0  0  0  0  0  0  0  0  0  0
   -4.5760   25.6800  -30.8620 O   0  0  0  0  0  0  0  0  0  0  0  0
   -2.7000   24.9210  -29.6960 N   0  0  0  0  0  0  0  0  0  0  0  0
   -2.4990   24.5670  -28.2990 C   0  0  0  0  0  0  0  0  0  0  0  0
   -1.1730   25.1040  -27.8410 C   0  0  0  0  0  0  0  0  0  0  0  0
   -0.1710   24.9350  -28.5850 O   0  0  0  0  0  0  0  0  0  0  0  0
   -1.0100   25.7990  -26.5330 C   0  0  0  0  0  0  0  0  0  0  0  0
   -0.9820   25.0840  -25.3170 C   0  0  0  0  0  0  0  0  0  0  0  0
   -0.8610   25.7600  -24.0980 C   0  0  0  0  0  0  0  0  0  0  0  0
   -0.7430   27.1500  -24.0750 C   0  0  0  0  0  0  0  0  0  0  0  0
   -0.7560   27.8710  -25.2710 C   0  0  0  0  0  0  0  0  0  0  0  0
   -0.8930   27.2030  -26.4930 C   0  0  0  0  0  0  0  0  0  0  0  0
   -4.2857   20.4739  -32.2155 H   0  0  0  0  0  0  0  0  0  0  0  0
   -5.0736   19.8028  -33.6836 H   0  0  0  0  0  0  0  0  0  0  0  0
   -4.4658   21.4931  -33.6836 H   0  0  0  0  0  0  0  0  0  0  0  0
   -7.3289   19.4136  -33.2496 H   0  0  0  0  0  0  0  0  0  0  0  0
   -9.5483   20.2040  -32.4358 H   0  0  0  0  0  0  0  0  0  0  0  0
   -9.7475   22.4078  -31.2862 H   0  0  0  0  0  0  0  0  0  0  0  0
   -7.7332   23.8413  -30.9694 H   0  0  0  0  0  0  0  0  0  0  0  0
   -5.0349   23.0086  -29.7402 H   0  0  0  0  0  0  0  0  0  0  0  0
   -3.5609   22.6375  -30.7161 H   0  0  0  0  0  0  0  0  0  0  0  0
   -3.3036   25.0036  -27.6891 H   0  0  0  0  0  0  0  0  0  0  0  0
   -2.5134   23.4727  -28.1886 H   0  0  0  0  0  0  0  0  0  0  0  0
   -1.0559   23.9865  -25.3274 H   0  0  0  0  0  0  0  0  0  0  0  0
   -0.8589   25.1938  -23.1549 H   0  0  0  0  0  0  0  0  0  0  0  0
   -0.6398   27.6777  -23.1154 H   0  0  0  0  0  0  0  0  0  0  0  0
   -0.6583   28.9665  -25.2524 H   0  0  0  0  0  0  0  0  0  0  0  0
   -0.9095   27.7785  -27.4303 H   0  0  0  0  0  0  0  0  0  0  0  0
  1  2  1  0
  2  3  2  0
  3  4  1  0
  4  5  2  0
  5  6  1  0
  6  7  2  0
  7  8  1  0
  8  9  1  0
  9 10  1  0
 10 11  2  0
 10 12  1  0
 12 13  1  0
 13 14  1  0
 14 15  2  0
 14 16  1  0
 16 17  2  0
 17 18  1  0
 18 19  2  0
 19 20  1  0
 20 21  2  0
  7  2  1  0
 21 16  1  0
  1 22  1  0
  1 23  1  0
  1 24  1  0
  3 25  1  0
  4 26  1  0
  5 27  1  0
  6 28  1  0
  9 29  1  0
  9 30  1  0
 13 31  1  0
 13 32  1  0
 17 33  1  0
 18 34  1  0
 19 35  1  0
 20 36  1  0
 21 37  1  0
M  CHG  1  12  -1
M  END
>  <UniqueID>  (10) 
10

>  <SMILES>  (10) 
Cc1ccccc1OCC(=O)[N-]CC(=O)c1ccccc1

>  <Energy>  (10) 
31.889971102487998

>  <Genealogy>  (10) 
Cc1ccccc1OCC(=O)[N-]CC(=O)c1ccccc1 (protonated)
Cc1ccccc1OCC(=O)[N-]CC(=O)c1ccccc1 (3D coordinates assigned)
Cc1ccccc1OCC(=O)[N-]CC(=O)c1ccccc1 (optimized conformer: 31.889971102487998 kcal/mol)

>  <smiles>  (10) 
Cc1ccccc1OCC(=O)NCC(=O)c1ccccc1

>  <score_type>  (10) 
oracle

>  <origin>  (10) 
adg

>  <m_score__min__energy>  (10) 
-9.7100000000000009

>  <m_primary>  (10) 
energy

$$$$
10:0
     RDKit          3D

 28 29  0  0  0  0  0  0  0  0999 V2000
   -5.0099   22.6176  -29.8176 H   0  0  0  0  0  0  0  0  0  0  0  0
   -5.2160   23.1480  -30.7590 C   0  0  0  0  0  0  0  0  0  0  0  0
   -4.7990   24.5620  -30.8410 C   0  0  0  0  0  0  0  0  0  0  0  0
   -5.6120   25.4600  -31.1940 O   0  0  0  0  0  0  0  0  0  0  0  0
   -3.5000   24.9010  -30.4540 O   0  0  0  0  0  0  0  0  0  0  0  0
   -2.7640   24.1470  -29.4980 C   0  0  0  0  0  0  0  0  0  0  0  0
   -3.0611   24.4514  -28.4836 H   0  0  0  0  0  0  0  0  0  0  0  0
   -2.9736   23.0760  -29.6356 H   0  0  0  0  0  0  0  0  0  0  0  0
   -1.6882   24.3307  -29.6356 H   0  0  0  0  0  0  0  0  0  0  0  0
   -5.8240   22.4540  -31.7320 C   0  0  0  0  0  0  0  0  0  0  0  0
   -5.1991   22.0961  -32.5635 H   0  0  0  0  0  0  0  0  0  0  0  0
   -7.2650   22.1310  -31.7780 C   0  0  0  0  0  0  0  0  0  0  0  0
   -7.8470   20.9720  -32.2730 C   0  0  0  0  0  0  0  0  0  0  0  0
   -7.1750   19.7160  -32.6730 C   0  0  0  0  0  0  0  0  0  0  0  0
   -7.3420   18.5220  -31.9510 C   0  0  0  0  0  0  0  0  0  0  0  0
   -7.9769   18.5094  -31.0528 H   0  0  0  0  0  0  0  0  0  0  0  0
   -6.7220   17.3820  -32.3580 N   0  0  0  0  0  0  0  0  0  0  0  0
   -5.9360   17.3510  -33.4650 C   0  0  0  0  0  0  0  0  0  0  0  0
   -5.4411   16.4146  -33.7619 H   0  0  0  0  0  0  0  0  0  0  0  0
   -5.7560   18.5070  -34.2260 C   0  0  0  0  0  0  0  0  0  0  0  0
   -5.1264   18.4863  -35.1278 H   0  0  0  0  0  0  0  0  0  0  0  0
   -6.3830   19.6890  -33.8310 C   0  0  0  0  0  0  0  0  0  0  0  0
   -6.2560   20.6031  -34.4295 H   0  0  0  0  0  0  0  0  0  0  0  0
   -9.1490   21.1420  -32.3560 O   0  0  0  0  0  0  0  0  0  0  0  0
   -9.4520   22.3540  -31.9510 C   0  0  0  0  0  0  0  0  0  0  0  0
  -10.4688   22.7716  -31.9086 H   0  0  0  0  0  0  0  0  0  0  0  0
   -8.3030   23.0240  -31.5870 C   0  0  0  0  0  0  0  0  0  0  0  0
   -8.2277   24.0581  -31.2196 H   0  0  0  0  0  0  0  0  0  0  0  0
  1  2  1  0
  2  3  1  0
  3  4  2  0
  3  5  1  0
  5  6  1  0
  6  7  1  0
  6  8  1  0
  6  9  1  0
  2 10  2  0
 10 11  1  0
 10 12  1  0
 12 13  2  0
 13 14  1  0
 14 15  2  0
 15 16  1  0
 15 17  1  0
 17 18  2  0
 18 19  1  0
 18 20  1  0
 20 21  1  0
 20 22  2  0
 22 23  1  0
 13 24  1  0
 24 25  1  0
 25 26  1  0
 25 27  2  0
 27 28  1  0
 27 12  1  0
 22 14  1  0
M  END
>  <UniqueID>  (11) 
11

>  <SMILES>  (11) 
COC(=O)/C=C\c1ccoc1-c1cccnc1

>  <Energy>  (11) 
63.19010273129351

>  <Genealogy>  (11) 
COC(=O)/C=C\c1ccoc1-c1cccnc1 (cis-trans isomerization)
COC(=O)/C=C\c1ccoc1-c1cccnc1 (3D coordinates assigned)
COC(=O)/C=C\c1ccoc1-c1cccnc1 (optimized conformer: 63.19010273129351 kcal/mol)

>  <smiles>  (11) 
COC(=O)C=Cc1ccoc1-c1cccnc1

>  <score_type>  (11) 
oracle

>  <origin>  (11) 
adg

>  <m_score__min__energy>  (11) 
-6.6699999999999999

>  <m_primary>  (11) 
energy

$$$$
11:0
     RDKit          3D

 44 47  0  0  0  0  0  0  0  0999 V2000
   -3.6170   16.4670  -35.3140 C   0  0  0  0  0  0  0  0  0  0  0  0
   -4.7140   15.9210  -34.4060 C   0  0  0  0  0  0  0  0  0  0  0  0
   -5.4980   17.0460  -33.7840 C   0  0  0  0  0  0  0  0  0  0  0  0
   -6.0900   16.8840  -32.5220 C   0  0  0  0  0  0  0  0  0  0  0  0
   -6.7900   17.9380  -31.9310 C   0  0  0  0  0  0  0  0  0  0  0  0
   -6.8950   19.1760  -32.5870 C   0  0  0  0  0  0  0  0  0  0  0  0
   -7.6370   20.2970  -31.9680 C   0  0  0  0  0  0  0  0  0  0  0  0
   -7.0100   21.3260  -31.3700 C   0  0  0  0  0  0  0  0  0  0  0  0
   -5.5290   21.5900  -31.4130 C   0  0  0  0  0  0  0  0  0  0  0  0
   -5.4670   23.0030  -30.9590 C   0  0  0  0  0  0  0  0  0  0  0  0
   -4.3200   23.7910  -30.8460 C   0  0  0  0  0  0  0  0  0  0  0  0
   -4.4510   25.1170  -30.4070 C   0  0  0  0  0  0  0  0  0  0  0  0
   -5.7190   25.6350  -30.0870 C   0  0  0  0  0  0  0  0  0  0  0  0
   -6.8630   24.8300  -30.2050 C   0  0  0  0  0  0  0  0  0  0  0  0
   -6.7150   23.5110  -30.6470 C   0  0  0  0  0  0  0  0  0  0  0  0
   -7.7920   22.4900  -30.8260 C   0  0  2  0  0  0  0  0  0  0  0  0
   -8.3660   22.1400  -29.5900 O   0  0  0  0  0  0  0  0  0  0  0  0
   -8.8620   22.9000  -31.8610 C   0  0  0  0  0  0  0  0  0  0  0  0
   -9.7270   21.7010  -32.3340 C   0  0  0  0  0  0  0  0  0  0  0  0
   -9.1490   20.3060  -31.9910 C   0  0  0  0  0  0  0  0  0  0  0  0
   -6.3000   19.3390  -33.8470 C   0  0  0  0  0  0  0  0  0  0  0  0
   -5.6000   18.2840  -34.4380 C   0  0  0  0  0  0  0  0  0  0  0  0
   -2.8005   16.8734  -34.6990 H   0  0  0  0  0  0  0  0  0  0  0  0
   -3.2294   15.6566  -35.9489 H   0  0  0  0  0  0  0  0  0  0  0  0
   -4.0298   17.2648  -35.9489 H   0  0  0  0  0  0  0  0  0  0  0  0
   -5.3938   15.2917  -34.9991 H   0  0  0  0  0  0  0  0  0  0  0  0
   -4.2480   15.3289  -33.6046 H   0  0  0  0  0  0  0  0  0  0  0  0
   -6.0022   15.9221  -31.9957 H   0  0  0  0  0  0  0  0  0  0  0  0
   -7.2615   17.7983  -30.9470 H   0  0  0  0  0  0  0  0  0  0  0  0
   -4.9821   20.9239  -30.7295 H   0  0  0  0  0  0  0  0  0  0  0  0
   -5.0705   21.4146  -32.3974 H   0  0  0  0  0  0  0  0  0  0  0  0
   -3.3312   23.3795  -31.0967 H   0  0  0  0  0  0  0  0  0  0  0  0
   -3.5590   25.7538  -30.3127 H   0  0  0  0  0  0  0  0  0  0  0  0
   -5.8146   26.6754  -29.7428 H   0  0  0  0  0  0  0  0  0  0  0  0
   -7.8571   25.2289  -29.9546 H   0  0  0  0  0  0  0  0  0  0  0  0
   -7.9700   22.7320  -28.9000 H   0  0  0  0  0  0  0  0  0  0  0  0
   -9.5224   23.6525  -31.4054 H   0  0  0  0  0  0  0  0  0  0  0  0
   -8.3374   23.2995  -32.7414 H   0  0  0  0  0  0  0  0  0  0  0  0
  -10.7169   21.7864  -31.8621 H   0  0  0  0  0  0  0  0  0  0  0  0
   -9.7621   21.7595  -33.4319 H   0  0  0  0  0  0  0  0  0  0  0  0
   -9.5190   20.0045  -30.9999 H   0  0  0  0  0  0  0  0  0  0  0  0
   -9.4762   19.6062  -32.7741 H   0  0  0  0  0  0  0  0  0  0  0  0
   -6.3850   20.3018  -34.3721 H   0  0  0  0  0  0  0  0  0  0  0  0
   -5.1264   18.4242  -35.4209 H   0  0  0  0  0  0  0  0  0  0  0  0
  1  2  1  0
  2  3  1  0
  3  4  2  0
  4  5  1  0
  5  6  2  0
  6  7  1  0
  7  8  2  0
  8  9  1  0
  9 10  1  0
 10 11  2  0
 11 12  1  0
 12 13  2  0
 13 14  1  0
 14 15  2  0
 15 16  1  0
 16 17  1  1
 16 18  1  0
 18 19  1  0
 19 20  1  0
  6 21  1  0
 21 22  2  0
 22  3  1  0
 20  7  1  0
 16  8  1  0
 15 10  1  0
  1 23  1  0
  1 24  1  0
  1 25  1  0
  2 26  1  0
  2 27  1  0
  4 28  1  0
  5 29  1  0
  9 30  1  0
  9 31  1  0
 11 32  1  0
 12 33  1  0
 13 34  1  0
 14 35  1  0
 17 36  1  0
 18 37  1  0
 18 38  1  0
 19 39  1  0
 19 40  1  0
 20 41  1  0
 20 42  1  0
 21 43  1  0
 22 44  1  0
M  END
>  <UniqueID>  (12) 
12

>  <SMILES>  (12) 
CCc1ccc(C2=C3Cc4ccccc4[C@@]3(O)CCC2)cc1

>  <Energy>  (12) 
64.39732093888273

>  <Genealogy>  (12) 
CCc1ccc(C2=C3Cc4ccccc4[C@@]3(O)CCC2)cc1 (chirality)
CCc1ccc(C2=C3Cc4ccccc4[C@@]3(O)CCC2)cc1 (3D coordinates assigned)
CCc1ccc(C2=C3Cc4ccccc4[C@@]3(O)CCC2)cc1 (nonaromatic ring conformer: 64.39732093888273 kcal/mol)

>  <smiles>  (12) 
CCc1ccc(C2=C3Cc4ccccc4C3(O)CCC2)cc1

>  <score_type>  (12) 
oracle

>  <origin>  (12) 
adg

>  <m_score__min__energy>  (12) 
-8.9399999999999995

>  <m_primary>  (12) 
energy

$$$$
12:0
     RDKit          3D

 49 51  0  0  0  0  0  0  0  0999 V2000
   -3.9680   19.1520  -32.6570 C   0  0  0  0  0  0  0  0  0  0  0  0
   -4.9700   19.5570  -31.7310 O   0  0  0  0  0  0  0  0  0  0  0  0
   -6.3440   19.3030  -31.8810 C   0  0  0  0  0  0  0  0  0  0  0  0
   -6.8680   17.9950  -31.8650 C   0  0  0  0  0  0  0  0  0  0  0  0
   -8.2420   17.7830  -31.9950 C   0  0  0  0  0  0  0  0  0  0  0  0
   -9.1070   18.8680  -32.1420 C   0  0  0  0  0  0  0  0  0  0  0  0
   -8.6000   20.1690  -32.1620 C   0  0  0  0  0  0  0  0  0  0  0  0
   -7.2200   20.3940  -32.0380 C   0  0  0  0  0  0  0  0  0  0  0  0
   -6.7120   21.7370  -32.0630 N   0  0  0  0  0  0  0  0  0  0  0  0
   -7.5130   22.8230  -31.4850 C   0  0  0  0  0  0  0  0  0  0  0  0
   -6.8110   24.1800  -31.6220 C   0  0  0  0  0  0  0  0  0  0  0  0
   -5.3880   24.0600  -31.2640 N   0  0  0  0  0  0  0  0  0  0  0  0
   -4.7340   25.0900  -30.4970 C   0  0  0  0  0  0  0  0  0  0  0  0
   -5.3620   26.1320  -30.1690 O   0  0  0  0  0  0  0  0  0  0  0  0
   -3.3630   24.9240  -30.1030 N   0  0  0  0  0  0  0  0  0  0  0  0
   -2.8440   23.8970  -29.1970 C   0  0  0  0  0  0  0  0  0  0  0  0
   -1.7460   23.0340  -29.8770 C   0  0  0  0  0  0  0  0  0  0  0  0
   -2.1300   21.5520  -29.9930 C   0  0  0  0  0  0  0  0  0  0  0  0
   -2.5330   20.9580  -28.6320 C   0  0  0  0  0  0  0  0  0  0  0  0
   -3.4390   21.8850  -27.7900 C   0  0  0  0  0  0  0  0  0  0  0  0
   -3.9940   23.0670  -28.5910 C   0  0  0  0  0  0  0  0  0  0  0  0
   -4.5910   22.9340  -31.7760 C   0  0  0  0  0  0  0  0  0  0  0  0
   -5.4160   22.0230  -32.6890 C   0  0  0  0  0  0  0  0  0  0  0  0
   -3.0842   18.7948  -32.1080 H   0  0  0  0  0  0  0  0  0  0  0  0
   -4.3592   18.3414  -33.2893 H   0  0  0  0  0  0  0  0  0  0  0  0
   -3.6861   20.0068  -33.2893 H   0  0  0  0  0  0  0  0  0  0  0  0
   -6.1907   17.1360  -31.7494 H   0  0  0  0  0  0  0  0  0  0  0  0
   -8.6432   16.7589  -31.9815 H   0  0  0  0  0  0  0  0  0  0  0  0
  -10.1892   18.6984  -32.2422 H   0  0  0  0  0  0  0  0  0  0  0  0
   -9.2855   21.0218  -32.2755 H   0  0  0  0  0  0  0  0  0  0  0  0
   -8.4810   22.8681  -32.0056 H   0  0  0  0  0  0  0  0  0  0  0  0
   -7.6511   22.6148  -30.4138 H   0  0  0  0  0  0  0  0  0  0  0  0
   -6.8950   24.5282  -32.6621 H   0  0  0  0  0  0  0  0  0  0  0  0
   -7.2904   24.9000  -30.9425 H   0  0  0  0  0  0  0  0  0  0  0  0
   -2.3442   24.3960  -28.3536 H   0  0  0  0  0  0  0  0  0  0  0  0
   -1.5663   23.4291  -30.8877 H   0  0  0  0  0  0  0  0  0  0  0  0
   -0.8467   23.0912  -29.2462 H   0  0  0  0  0  0  0  0  0  0  0  0
   -2.9774   21.4571  -30.6879 H   0  0  0  0  0  0  0  0  0  0  0  0
   -1.2530   20.9993  -30.3611 H   0  0  0  0  0  0  0  0  0  0  0  0
   -3.0717   20.0157  -28.8107 H   0  0  0  0  0  0  0  0  0  0  0  0
   -1.6053   20.8108  -28.0595 H   0  0  0  0  0  0  0  0  0  0  0  0
   -4.2837   21.2947  -27.4052 H   0  0  0  0  0  0  0  0  0  0  0  0
   -2.8232   22.2980  -26.9774 H   0  0  0  0  0  0  0  0  0  0  0  0
   -4.6323   22.6867  -29.4021 H   0  0  0  0  0  0  0  0  0  0  0  0
   -4.5795   23.7096  -27.9170 H   0  0  0  0  0  0  0  0  0  0  0  0
   -3.7381   23.3313  -32.3459 H   0  0  0  0  0  0  0  0  0  0  0  0
   -4.2489   22.3383  -30.9169 H   0  0  0  0  0  0  0  0  0  0  0  0
   -5.5791   22.5241  -33.6546 H   0  0  0  0  0  0  0  0  0  0  0  0
   -4.8730   21.0798  -32.8490 H   0  0  0  0  0  0  0  0  0  0  0  0
  1  2  1  0
  2  3  1  0
  3  4  2  0
  4  5  1  0
  5  6  2  0
  6  7  1  0
  7  8  2  0
  8  9  1  0
  9 10  1  0
 10 11  1  0
 11 12  1  0
 12 13  1  0
 13 14  2  0
 13 15  1  0
 15 16  1  0
 16 17  1  0
 17 18  1  0
 18 19  1  0
 19 20  1  0
 20 21  1  0
 12 22  1  0
 22 23  1  0
  8  3  1  0
 23  9  1  0
 21 16  1  0
  1 24  1  0
  1 25  1  0
  1 26  1  0
  4 27  1  0
  5 28  1  0
  6 29  1  0
  7 30  1  0
 10 31  1  0
 10 32  1  0
 11 33  1  0
 11 34  1  0
 16 35  1  0
 17 36  1  0
 17 37  1  0
 18 38  1  0
 18 39  1  0
 19 40  1  0
 19 41  1  0
 20 42  1  0
 20 43  1  0
 21 44  1  0
 21 45  1  0
 22 46  1  0
 22 47  1  0
 23 48  1  0
 23 49  1  0
M  CHG  1  15  -1
M  END
>  <UniqueID>  (13) 
13

>  <SMILES>  (13) 
COc1ccccc1N1CCN(C(=O)[N-]C2CCCCC2)CC1

>  <Energy>  (13) 
54.722244469139014

>  <Genealogy>  (13) 
COc1ccccc1N1CCN(C(=O)[N-]C2CCCCC2)CC1 (protonated)
COc1ccccc1N1CCN(C(=O)[N-]C2CCCCC2)CC1 (3D coordinates assigned)
COc1ccccc1N1CCN(C(=O)[N-]C2CCCCC2)CC1 (nonaromatic ring conformer: 54.722244469139014 kcal/mol)

>  <smiles>  (13) 
COc1ccccc1N1CCN(C(=O)NC2CCCCC2)CC1

>  <score_type>  (13) 
oracle

>  <origin>  (13) 
adg

>  <m_score__min__energy>  (13) 
-8.8699999999999992

>  <m_primary>  (13) 
energy

$$$$
13:0
     RDKit          3D

 42 45  0  0  0  0  0  0  0  0999 V2000
   -4.7110   14.4510  -34.5120 C   0  0  0  0  0  0  0  0  0  0  0  0
   -5.9300   15.1790  -34.4110 O   0  0  0  0  0  0  0  0  0  0  0  0
   -6.0240   16.5080  -33.9710 C   0  0  0  0  0  0  0  0  0  0  0  0
   -5.7180   17.6020  -34.8010 C   0  0  0  0  0  0  0  0  0  0  0  0
   -5.8290   18.9100  -34.3160 C   0  0  0  0  0  0  0  0  0  0  0  0
   -6.2540   19.1500  -32.9980 C   0  0  0  0  0  0  0  0  0  0  0  0
   -6.3740   20.5270  -32.4610 C   0  0  0  0  0  0  0  0  0  0  0  0
   -7.2990   21.2690  -32.8910 O   0  0  0  0  0  0  0  0  0  0  0  0
   -5.4640   21.0200  -31.4590 N   0  0  0  0  0  0  0  0  0  0  0  0
   -5.4710   22.3720  -30.9680 C   0  0  0  0  0  0  0  0  0  0  0  0
   -6.4400   23.2990  -31.3870 C   0  0  0  0  0  0  0  0  0  0  0  0
   -6.4080   24.6130  -30.9150 C   0  0  0  0  0  0  0  0  0  0  0  0
   -5.4040   25.0190  -30.0330 C   0  0  0  0  0  0  0  0  0  0  0  0
   -4.4120   24.1130  -29.6230 C   0  0  0  0  0  0  0  0  0  0  0  0
   -3.3400   24.5370  -28.7000 C   0  0  0  0  0  0  0  0  0  0  0  0
   -3.2880   24.1710  -27.3900 N   0  0  0  0  0  0  0  0  0  0  0  0
   -2.1680   24.7820  -26.9710 C   0  0  0  0  0  0  0  0  0  0  0  0
   -1.6060   24.7640  -25.6960 C   0  0  0  0  0  0  0  0  0  0  0  0
   -0.4130   25.4880  -25.4980 C   0  0  0  0  0  0  0  0  0  0  0  0
    0.1770   26.2020  -26.5670 C   0  0  0  0  0  0  0  0  0  0  0  0
   -0.4200   26.1960  -27.8430 C   0  0  0  0  0  0  0  0  0  0  0  0
   -1.5970   25.4690  -27.9970 C   0  0  0  0  0  0  0  0  0  0  0  0
   -2.3290   25.3120  -29.0650 O   0  0  0  0  0  0  0  0  0  0  0  0
   -4.4500   22.7920  -30.1020 C   0  0  0  0  0  0  0  0  0  0  0  0
   -6.5440   18.0520  -32.1690 C   0  0  0  0  0  0  0  0  0  0  0  0
   -6.4350   16.7450  -32.6550 C   0  0  0  0  0  0  0  0  0  0  0  0
   -4.3338   14.2257  -33.5035 H   0  0  0  0  0  0  0  0  0  0  0  0
   -4.8891   13.5112  -35.0553 H   0  0  0  0  0  0  0  0  0  0  0  0
   -3.9681   15.0534  -35.0553 H   0  0  0  0  0  0  0  0  0  0  0  0
   -5.3898   17.4283  -35.8364 H   0  0  0  0  0  0  0  0  0  0  0  0
   -5.5815   19.7576  -34.9720 H   0  0  0  0  0  0  0  0  0  0  0  0
   -4.7860   20.3610  -31.0170 H   0  0  0  0  0  0  0  0  0  0  0  0
   -7.2272   22.9885  -32.0898 H   0  0  0  0  0  0  0  0  0  0  0  0
   -7.1761   25.3307  -31.2390 H   0  0  0  0  0  0  0  0  0  0  0  0
   -5.3901   26.0529  -29.6578 H   0  0  0  0  0  0  0  0  0  0  0  0
   -2.0764   24.2049  -24.8737 H   0  0  0  0  0  0  0  0  0  0  0  0
    0.0622   25.4978  -24.5060 H   0  0  0  0  0  0  0  0  0  0  0  0
    1.1072   26.7651  -26.4011 H   0  0  0  0  0  0  0  0  0  0  0  0
    0.0268   26.7447  -28.6852 H   0  0  0  0  0  0  0  0  0  0  0  0
   -3.6705   22.0794  -29.7944 H   0  0  0  0  0  0  0  0  0  0  0  0
   -6.8594   18.2224  -31.1290 H   0  0  0  0  0  0  0  0  0  0  0  0
   -6.6744   15.8966  -31.9971 H   0  0  0  0  0  0  0  0  0  0  0  0
  1  2  1  0
  2  3  1  0
  3  4  2  0
  4  5  1  0
  5  6  2  0
  6  7  1  0
  7  8  2  0
  7  9  1  0
  9 10  1  0
 10 11  2  0
 11 12  1  0
 12 13  2  0
 13 14  1  0
 14 15  1  0
 15 16  2  0
 16 17  1  0
 17 18  2  0
 18 19  1  0
 19 20  2  0
 20 21  1  0
 21 22  2  0
 22 23  1  0
 14 24  2  0
  6 25  1  0
 25 26  2  0
 26  3  1  0
 24 10  1  0
 23 15  1  0
 22 17  1  0
  1 27  1  0
  1 28  1  0
  1 29  1  0
  4 30  1  0
  5 31  1  0
  9 32  1  0
 11 33  1  0
 12 34  1  0
 13 35  1  0
 18 36  1  0
 19 37  1  0
 20 38  1  0
 21 39  1  0
 24 40  1  0
 25 41  1  0
 26 42  1  0
M  END
>  <UniqueID>  (14) 
14

>  <SMILES>  (14) 
COc1ccc(C(=O)Nc2cccc(-c3nc4ccccc4o3)c2)cc1

>  <Energy>  (14) 
90.81018248222082

>  <Genealogy>  (14) 
COc1ccc(C(=O)Nc2cccc(-c3nc4ccccc4o3)c2)cc1 (3D coordinates assigned)
COc1ccc(C(=O)Nc2cccc(-c3nc4ccccc4o3)c2)cc1 (optimized conformer: 90.81018248222082 kcal/mol)

>  <smiles>  (14) 
COc1ccc(C(=O)Nc2cccc(-c3nc4ccccc4o3)c2)cc1

>  <score_type>  (14) 
oracle

>  <origin>  (14) 
adg

>  <m_score__min__energy>  (14) 
-8.2100000000000009

>  <m_primary>  (14) 
energy

$$$$
14:0
     RDKit          3D

 47 50  0  0  0  0  0  0  0  0999 V2000
    0.7490   20.4260  -32.7230 C   0  0  0  0  0  0  0  0  0  0  0  0
   -0.2700   21.2840  -32.2210 O   0  0  0  0  0  0  0  0  0  0  0  0
   -1.6440   21.0210  -32.3150 C   0  0  0  0  0  0  0  0  0  0  0  0
   -2.2600   20.3210  -31.2710 C   0  0  0  0  0  0  0  0  0  0  0  0
   -3.6300   20.0450  -31.3130 C   0  0  0  0  0  0  0  0  0  0  0  0
   -4.4020   20.4700  -32.4000 C   0  0  0  0  0  0  0  0  0  0  0  0
   -5.7980   20.1530  -32.4650 N   0  0  0  0  0  0  0  0  0  0  0  0
   -6.2890   18.9980  -32.9800 C   0  0  0  0  0  0  0  0  0  0  0  0
   -7.6490   18.8780  -32.7250 C   0  0  0  0  0  0  0  0  0  0  0  0
   -7.9710   20.0180  -32.0280 C   0  0  0  0  0  0  0  0  0  0  0  0
   -9.1700   20.3720  -31.5120 N   0  0  0  0  0  0  0  0  0  0  0  0
   -9.2610   21.5560  -30.8420 C   0  0  0  0  0  0  0  0  0  0  0  0
   -8.1690   22.3710  -30.7260 N   0  0  0  0  0  0  0  0  0  0  0  0
   -6.9470   22.0340  -31.2420 C   0  0  0  0  0  0  0  0  0  0  0  0
   -5.8750   23.0010  -31.2010 N   0  0  0  0  0  0  0  0  0  0  0  0
   -6.0690   24.3040  -31.8670 C   0  0  0  0  0  0  0  0  0  0  0  0
   -6.0380   25.4700  -30.8590 C   0  0  0  0  0  0  0  0  0  0  0  0
   -6.3530   24.9940  -29.4390 C   0  0  0  0  0  0  0  0  0  0  0  0
   -5.3290   23.9490  -28.9630 C   0  0  0  0  0  0  0  0  0  0  0  0
   -4.9220   22.9380  -30.0720 C   0  0  2  0  0  0  0  0  0  0  0  0
   -3.4770   23.1690  -30.5490 C   0  0  0  0  0  0  0  0  0  0  0  0
   -3.1620   24.5300  -30.4670 O   0  0  0  0  0  0  0  0  0  0  0  0
   -6.8490   20.7860  -31.8910 C   0  0  0  0  0  0  0  0  0  0  0  0
   -3.7860   21.1430  -33.4630 C   0  0  0  0  0  0  0  0  0  0  0  0
   -2.4190   21.4300  -33.4190 C   0  0  0  0  0  0  0  0  0  0  0  0
    1.2912   19.9695  -31.8818 H   0  0  0  0  0  0  0  0  0  0  0  0
    0.2931   19.6357  -33.3375 H   0  0  0  0  0  0  0  0  0  0  0  0
    1.4501   21.0098  -33.3375 H   0  0  0  0  0  0  0  0  0  0  0  0
   -1.6617   19.9855  -30.4111 H   0  0  0  0  0  0  0  0  0  0  0  0
   -4.1029   19.4916  -30.4883 H   0  0  0  0  0  0  0  0  0  0  0  0
   -5.6897   18.2552  -33.5269 H   0  0  0  0  0  0  0  0  0  0  0  0
   -8.3184   18.0550  -33.0157 H   0  0  0  0  0  0  0  0  0  0  0  0
  -10.2185   21.8574  -30.3921 H   0  0  0  0  0  0  0  0  0  0  0  0
   -5.2669   24.4498  -32.6055 H   0  0  0  0  0  0  0  0  0  0  0  0
   -7.0558   24.2971  -32.3529 H   0  0  0  0  0  0  0  0  0  0  0  0
   -5.0364   25.9246  -30.8694 H   0  0  0  0  0  0  0  0  0  0  0  0
   -6.8040   26.2018  -31.1550 H   0  0  0  0  0  0  0  0  0  0  0  0
   -6.3283   25.8570  -28.7574 H   0  0  0  0  0  0  0  0  0  0  0  0
   -7.3501   24.5295  -29.4403 H   0  0  0  0  0  0  0  0  0  0  0  0
   -4.4255   24.4756  -28.6218 H   0  0  0  0  0  0  0  0  0  0  0  0
   -5.8028   23.3729  -28.1546 H   0  0  0  0  0  0  0  0  0  0  0  0
   -4.9611   21.9271  -29.6401 H   0  0  0  0  0  0  0  0  0  0  0  0
   -2.7866   22.5955  -29.9131 H   0  0  0  0  0  0  0  0  0  0  0  0
   -3.3821   22.8368  -31.5933 H   0  0  0  0  0  0  0  0  0  0  0  0
   -3.4840   24.9390  -31.3120 H   0  0  0  0  0  0  0  0  0  0  0  0
   -4.3812   21.4471  -34.3367 H   0  0  0  0  0  0  0  0  0  0  0  0
   -1.9464   21.9767  -34.2484 H   0  0  0  0  0  0  0  0  0  0  0  0
  1  2  1  0
  2  3  1  0
  3  4  2  0
  4  5  1  0
  5  6  2  0
  6  7  1  0
  7  8  1  0
  8  9  2  0
  9 10  1  0
 10 11  2  0
 11 12  1  0
 12 13  2  0
 13 14  1  0
 14 15  1  0
 15 16  1  0
 16 17  1  0
 17 18  1  0
 18 19  1  0
 19 20  1  0
 20 21  1  0
 21 22  1  0
 14 23  2  0
  6 24  1  0
 24 25  2  0
 25  3  1  0
 23  7  1  0
 23 10  1  0
 20 15  1  0
  1 26  1  0
  1 27  1  0
  1 28  1  0
  4 29  1  0
  5 30  1  0
  8 31  1  0
  9 32  1  0
 12 33  1  0
 16 34  1  0
 16 35  1  0
 17 36  1  0
 17 37  1  0
 18 38  1  0
 18 39  1  0
 19 40  1  0
 19 41  1  0
 20 42  1  1
 21 43  1  0
 21 44  1  0
 22 45  1  0
 24 46  1  0
 25 47  1  0
M  END
>  <UniqueID>  (15) 
15

>  <SMILES>  (15) 
COc1ccc(-n2ccc3ncnc(N4CCCC[C@@H]4CO)c32)cc1

>  <Energy>  (15) 
100.52131227818728

>  <Genealogy>  (15) 
COc1ccc(-n2ccc3ncnc(N4CCCC[C@@H]4CO)c32)cc1 (chirality)
COc1ccc(-n2ccc3ncnc(N4CCCC[C@@H]4CO)c32)cc1 (3D coordinates assigned)
COc1ccc(-n2ccc3ncnc(N4CCCC[C@@H]4CO)c32)cc1 (nonaromatic ring conformer: 100.52131227818728 kcal/mol)

>  <smiles>  (15) 
COc1ccc(-n2ccc3ncnc(N4CCCCC4CO)c32)cc1

>  <score_type>  (15) 
oracle

>  <origin>  (15) 
adg

>  <m_score__min__energy>  (15) 
-7.5

>  <m_primary>  (15) 
energy

$$$$
15:0
     RDKit          3D

 33 35  0  0  0  0  0  0  0  0999 V2000
   -2.5760   23.7420  -27.6600 C   0  0  0  0  0  0  0  0  0  0  0  0
   -2.4080   24.4280  -29.3370 S   0  0  0  0  0  0  0  0  0  0  0  0
   -3.8390   23.5310  -29.9680 C   0  0  0  0  0  0  0  0  0  0  0  0
   -3.6140   22.5050  -30.8380 N   0  0  0  0  0  0  0  0  0  0  0  0
   -4.6630   21.8150  -31.3390 C   0  0  0  0  0  0  0  0  0  0  0  0
   -4.5960   20.5180  -32.4050 S   0  0  0  0  0  0  0  0  0  0  0  0
   -6.2720   20.3090  -32.4340 C   0  0  0  0  0  0  0  0  0  0  0  0
   -6.8940   21.2700  -31.6430 C   0  0  0  0  0  0  0  0  0  0  0  0
   -5.9660   22.1110  -31.0000 C   0  0  0  0  0  0  0  0  0  0  0  0
   -6.1960   23.1540  -30.0960 C   0  0  0  0  0  0  0  0  0  0  0  0
   -7.3730   23.4430  -29.7470 O   0  0  0  0  0  0  0  0  0  0  0  0
   -5.1270   23.8570  -29.5890 N   0  0  0  0  0  0  0  0  0  0  0  0
   -5.3620   24.9100  -28.6780 N   0  0  0  0  0  0  0  0  0  0  0  0
   -8.3880   21.2900  -31.4710 C   0  0  0  0  0  0  0  0  0  0  0  0
   -9.0890   20.4150  -32.5330 C   0  0  0  0  0  0  0  0  0  0  0  0
   -8.4050   19.1210  -32.7690 N   0  0  0  0  0  0  0  0  0  0  0  0
   -8.4540   18.2410  -31.5890 C   0  0  0  0  0  0  0  0  0  0  0  0
   -7.0210   19.3080  -33.2600 C   0  0  0  0  0  0  0  0  0  0  0  0
   -2.3825   24.5321  -26.9196 H   0  0  0  0  0  0  0  0  0  0  0  0
   -3.5959   23.3532  -27.5233 H   0  0  0  0  0  0  0  0  0  0  0  0
   -1.8512   22.9260  -27.5233 H   0  0  0  0  0  0  0  0  0  0  0  0
   -2.6420   22.2520  -31.1210 H   0  0  0  0  0  0  0  0  0  0  0  0
   -6.2970   25.0470  -28.2330 H   0  0  0  0  0  0  0  0  0  0  0  0
   -4.6200   25.5910  -28.4090 H   0  0  0  0  0  0  0  0  0  0  0  0
   -8.6382   20.9077  -30.4704 H   0  0  0  0  0  0  0  0  0  0  0  0
   -8.7366   22.3264  -31.5912 H   0  0  0  0  0  0  0  0  0  0  0  0
  -10.1158   20.2110  -32.1953 H   0  0  0  0  0  0  0  0  0  0  0  0
   -9.0684   20.9728  -33.4809 H   0  0  0  0  0  0  0  0  0  0  0  0
   -8.4200   18.8515  -30.6746 H   0  0  0  0  0  0  0  0  0  0  0  0
   -9.3861   17.6570  -31.6055 H   0  0  0  0  0  0  0  0  0  0  0  0
   -7.5925   17.5572  -31.6055 H   0  0  0  0  0  0  0  0  0  0  0  0
   -6.4937   18.3436  -33.2166 H   0  0  0  0  0  0  0  0  0  0  0  0
   -7.0706   19.6832  -34.2929 H   0  0  0  0  0  0  0  0  0  0  0  0
  1  2  1  0
  2  3  1  0
  3  4  2  0
  4  5  1  0
  5  6  1  0
  6  7  1  0
  7  8  2  0
  8  9  1  0
  9 10  1  0
 10 11  2  0
 10 12  1  0
 12 13  1  0
  8 14  1  0
 14 15  1  0
 15 16  1  0
 16 17  1  0
 16 18  1  0
 12  3  1  0
  9  5  2  0
 18  7  1  0
  1 19  1  0
  1 20  1  0
  1 21  1  0
  4 22  1  0
 13 23  1  0
 13 24  1  0
 14 25  1  0
 14 26  1  0
 15 27  1  0
 15 28  1  0
 17 29  1  0
 17 30  1  0
 17 31  1  0
 18 32  1  0
 18 33  1  0
M  CHG  1   4   1
M  END
>  <UniqueID>  (16) 
16

>  <SMILES>  (16) 
CSc1[nH+]c2sc3c(c2c(=O)n1N)CCN(C)C3

>  <Energy>  (16) 
71.9978250614137

>  <Genealogy>  (16) 
CSc1[nH+]c2sc3c(c2c(=O)n1N)CCN(C)C3 (protonated)
CSc1[nH+]c2sc3c(c2c(=O)n1N)CCN(C)C3 (3D coordinates assigned)
CSc1[nH+]c2sc3c(c2c(=O)n1N)CCN(C)C3 (nonaromatic ring conformer: 71.9978250614137 kcal/mol)

>  <smiles>  (16) 
CSc1nc2sc3c(c2c(=O)n1N)CCN(C)C3

>  <score_type>  (16) 
oracle

>  <origin>  (16) 
adg

>  <m_score__min__energy>  (16) 
-6.4299999999999997

>  <m_primary>  (16) 
energy

$$$$
16:0
     RDKit          3D

 51 54  0  0  0  0  0  0  0  0999 V2000
   -6.9550   17.5670  -34.9890 H   0  0  0  0  0  0  0  0  0  0  0  0
   -6.9050   17.6770  -33.9840 O   0  0  0  0  0  0  0  0  0  0  0  0
   -6.2940   18.7730  -33.3710 C   0  0  0  0  0  0  0  0  0  0  0  0
   -4.9170   19.0230  -33.5170 C   0  0  0  0  0  0  0  0  0  0  0  0
   -3.8900   17.9690  -34.4780 Cl  0  0  0  0  0  0  0  0  0  0  0  0
   -4.3370   20.1310  -32.8880 C   0  0  0  0  0  0  0  0  0  0  0  0
   -3.2576   20.3129  -32.9964 H   0  0  0  0  0  0  0  0  0  0  0  0
   -5.1150   21.0140  -32.1200 C   0  0  0  0  0  0  0  0  0  0  0  0
   -4.4810   22.1820  -31.4510 C   0  0  0  0  0  0  0  0  0  0  0  0
   -3.2830   22.0280  -30.8170 N   0  0  0  0  0  0  0  0  0  0  0  0
   -2.6650   23.0340  -30.1360 C   0  0  0  0  0  0  0  0  0  0  0  0
   -1.4340   22.8460  -29.4430 C   0  0  0  0  0  0  0  0  0  0  0  0
   -0.7570   21.7260  -29.4530 N   0  0  0  0  0  0  0  0  0  0  0  0
   -0.2350   20.9090  -30.5490 C   0  0  0  0  0  0  0  0  0  0  0  0
    0.8595   20.8340  -30.4690 H   0  0  0  0  0  0  0  0  0  0  0  0
   -0.6220   21.5650  -31.8780 C   0  0  0  0  0  0  0  0  0  0  0  0
   -1.7174   21.6534  -31.9262 H   0  0  0  0  0  0  0  0  0  0  0  0
   -0.1442   22.5547  -31.9238 H   0  0  0  0  0  0  0  0  0  0  0  0
   -0.1330   20.7380  -33.0870 C   0  0  0  0  0  0  0  0  0  0  0  0
   -0.9301   20.7170  -33.8448 H   0  0  0  0  0  0  0  0  0  0  0  0
    0.7798   21.2173  -33.4706 H   0  0  0  0  0  0  0  0  0  0  0  0
    0.2120   19.3440  -32.7230 N   0  0  0  0  0  0  0  0  0  0  0  0
    0.3590   18.5290  -33.9380 C   0  0  0  0  0  0  0  0  0  0  0  0
    0.5478   17.4824  -33.6569 H   0  0  0  0  0  0  0  0  0  0  0  0
   -0.5643   18.5880  -34.5330 H   0  0  0  0  0  0  0  0  0  0  0  0
    1.2035   18.9069  -34.5330 H   0  0  0  0  0  0  0  0  0  0  0  0
   -0.8120   18.7600  -31.8370 C   0  0  0  0  0  0  0  0  0  0  0  0
   -1.7974   18.8488  -32.3178 H   0  0  0  0  0  0  0  0  0  0  0  0
   -0.5640   17.7027  -31.6620 H   0  0  0  0  0  0  0  0  0  0  0  0
   -0.8450   19.4900  -30.4790 C   0  0  0  0  0  0  0  0  0  0  0  0
   -1.8912   19.5726  -30.1493 H   0  0  0  0  0  0  0  0  0  0  0  0
   -0.2405   18.9032  -29.7717 H   0  0  0  0  0  0  0  0  0  0  0  0
   -0.9140   23.9270  -28.6800 C   0  0  0  0  0  0  0  0  0  0  0  0
    0.3640   23.8390  -27.9190 C   0  0  0  0  0  0  0  0  0  0  0  0
    1.2840   24.6650  -28.1650 O   0  0  0  0  0  0  0  0  0  0  0  0
    0.6060   22.7950  -26.8710 C   0  0  0  0  0  0  0  0  0  0  0  0
    0.5015   23.2460  -25.8732 H   0  0  0  0  0  0  0  0  0  0  0  0
   -0.1279   21.9836  -26.9854 H   0  0  0  0  0  0  0  0  0  0  0  0
    1.6220   22.3892  -26.9854 H   0  0  0  0  0  0  0  0  0  0  0  0
   -1.6150   25.1410  -28.6430 C   0  0  0  0  0  0  0  0  0  0  0  0
   -1.2235   25.9765  -28.0441 H   0  0  0  0  0  0  0  0  0  0  0  0
   -2.7670   25.2970  -29.3350 N   0  0  0  0  0  0  0  0  0  0  0  0
   -3.3040   24.2920  -30.0680 C   0  0  0  0  0  0  0  0  0  0  0  0
   -4.5090   24.4930  -30.7410 C   0  0  0  0  0  0  0  0  0  0  0  0
   -4.9924   25.4809  -30.7204 H   0  0  0  0  0  0  0  0  0  0  0  0
   -5.1000   23.4430  -31.4390 C   0  0  0  0  0  0  0  0  0  0  0  0
   -6.0460   23.6000  -31.9778 H   0  0  0  0  0  0  0  0  0  0  0  0
   -6.4890   20.7460  -31.9690 C   0  0  0  0  0  0  0  0  0  0  0  0
   -7.1100   21.4143  -31.3544 H   0  0  0  0  0  0  0  0  0  0  0  0
   -7.0720   19.6380  -32.5930 C   0  0  0  0  0  0  0  0  0  0  0  0
   -8.9450   19.3160  -32.3570 Br  0  0  0  0  0  0  0  0  0  0  0  0
  1  2  1  0
  2  3  1  0
  3  4  2  0
  4  5  1  0
  4  6  1  0
  6  7  1  0
  6  8  2  0
  8  9  1  0
  9 10  2  0
 10 11  1  0
 11 12  1  0
 12 13  2  0
 13 14  1  0
 14 15  1  0
 14 16  1  0
 16 17  1  0
 16 18  1  0
 16 19  1  0
 19 20  1  0
 19 21  1  0
 19 22  1  0
 22 23  1  0
 23 24  1  0
 23 25  1  0
 23 26  1  0
 22 27  1  0
 27 28  1  0
 27 29  1  0
 27 30  1  0
 30 31  1  0
 30 32  1  0
 12 33  1  0
 33 34  1  0
 34 35  2  0
 34 36  1  0
 36 37  1  0
 36 38  1  0
 36 39  1  0
 33 40  2  0
 40 41  1  0
 40 42  1  0
 42 43  1  0
 43 44  1  0
 44 45  1  0
 44 46  2  0
 46 47  1  0
  8 48  1  0
 48 49  1  0
 48 50  2  0
 50 51  1  0
 50  3  1  0
 46  9  1  0
 43 11  2  0
 30 14  1  0
M  CHG  1  42  -1
M  END
>  <UniqueID>  (17) 
17

>  <SMILES>  (17) 
CC(=O)c1c[n-]c2ccc(-c3cc(Cl)c(O)c(Br)c3)nc2/c1=N\C1CCN(C)CC1

>  <Energy>  (17) 
77.01560572665367

>  <Genealogy>  (17) 
CC(=O)c1c[n-]c2ccc(-c3cc(Cl)c(O)c(Br)c3)nc2c1=NC1CCN(C)CC1 (protonated)
CC(=O)c1c[n-]c2ccc(-c3cc(Cl)c(O)c(Br)c3)nc2/c1=N\C1CCN(C)CC1 (cis-trans isomerization)
CC(=O)c1c[n-]c2ccc(-c3cc(Cl)c(O)c(Br)c3)nc2/c1=N\C1CCN(C)CC1 (3D coordinates assigned)
CC(=O)c1c[n-]c2ccc(-c3cc(Cl)c(O)c(Br)c3)nc2/c1=N\C1CCN(C)CC1 (nonaromatic ring conformer: 77.01560572665367 kcal/mol)

>  <smiles>  (17) 
CC(=O)c1c[nH]c2ccc(-c3cc(Cl)c(O)c(Br)c3)nc2c1=NC1CCN(C)CC1

>  <score_type>  (17) 
oracle

>  <origin>  (17) 
adg

>  <m_score__min__energy>  (17) 
-10.73

>  <m_primary>  (17) 
energy

$$$$
17:0
     RDKit          3D

 44 46  0  0  0  0  0  0  0  0999 V2000
   -0.8590   26.7850  -27.7960 C   0  0  0  0  0  0  0  0  0  0  0  0
   -1.2870   26.0780  -28.9550 O   0  0  0  0  0  0  0  0  0  0  0  0
   -1.3430   24.6790  -29.0580 C   0  0  0  0  0  0  0  0  0  0  0  0
   -0.3130   23.8520  -28.5660 C   0  0  0  0  0  0  0  0  0  0  0  0
   -0.4020   22.4630  -28.6960 C   0  0  0  0  0  0  0  0  0  0  0  0
   -1.5080   21.8880  -29.3220 C   0  0  0  0  0  0  0  0  0  0  0  0
   -2.5330   22.6980  -29.8140 C   0  0  0  0  0  0  0  0  0  0  0  0
   -2.4670   24.0940  -29.6650 C   0  0  0  0  0  0  0  0  0  0  0  0
   -3.4970   24.9450  -30.1900 N   0  0  0  0  0  0  0  0  0  0  0  0
   -4.7940   24.5320  -30.6410 C   0  0  0  0  0  0  0  0  0  0  0  0
   -5.4400   25.2890  -31.4120 O   0  0  0  0  0  0  0  0  0  0  0  0
   -5.4250   23.2460  -30.1780 C   0  0  0  0  0  0  0  0  0  0  0  0
   -5.6780   22.3560  -31.3320 N   0  0  0  0  0  0  0  0  0  0  0  0
   -4.7260   22.6350  -32.4280 C   0  0  0  0  0  0  0  0  0  0  0  0
   -3.8520   21.4410  -32.6610 C   0  0  0  0  0  0  0  0  0  0  0  0
   -4.2080   20.1140  -32.4620 C   0  0  0  0  0  0  0  0  0  0  0  0
   -3.1660   19.2200  -32.7350 C   0  0  0  0  0  0  0  0  0  0  0  0
   -1.9920   19.8390  -33.1440 C   0  0  0  0  0  0  0  0  0  0  0  0
   -2.2490   21.5010  -33.1660 S   0  0  0  0  0  0  0  0  0  0  0  0
   -7.0750   22.4940  -31.8010 C   0  0  0  0  0  0  0  0  0  0  0  0
   -7.6860   21.1400  -31.9900 C   0  0  0  0  0  0  0  0  0  0  0  0
   -8.7230   20.6090  -31.2350 C   0  0  0  0  0  0  0  0  0  0  0  0
   -9.1030   19.3270  -31.6500 C   0  0  0  0  0  0  0  0  0  0  0  0
   -8.3680   18.8500  -32.7290 C   0  0  0  0  0  0  0  0  0  0  0  0
   -7.2460   20.0250  -33.1680 S   0  0  0  0  0  0  0  0  0  0  0  0
   -1.1860   26.2448  -26.8953 H   0  0  0  0  0  0  0  0  0  0  0  0
    0.2382   26.8632  -27.7985 H   0  0  0  0  0  0  0  0  0  0  0  0
   -1.2984   27.7934  -27.7985 H   0  0  0  0  0  0  0  0  0  0  0  0
    0.5643   24.3014  -28.0778 H   0  0  0  0  0  0  0  0  0  0  0  0
    0.4016   21.8223  -28.3039 H   0  0  0  0  0  0  0  0  0  0  0  0
   -1.5726   20.7950  -29.4281 H   0  0  0  0  0  0  0  0  0  0  0  0
   -3.3962   22.2416  -30.3206 H   0  0  0  0  0  0  0  0  0  0  0  0
   -4.7477   22.7424  -29.4725 H   0  0  0  0  0  0  0  0  0  0  0  0
   -6.3812   23.4732  -29.6839 H   0  0  0  0  0  0  0  0  0  0  0  0
   -5.2851   22.8627  -33.3475 H   0  0  0  0  0  0  0  0  0  0  0  0
   -4.0980   23.4949  -32.1519 H   0  0  0  0  0  0  0  0  0  0  0  0
   -5.2060   19.7977  -32.1246 H   0  0  0  0  0  0  0  0  0  0  0  0
   -3.2676   18.1293  -32.6349 H   0  0  0  0  0  0  0  0  0  0  0  0
   -1.0539   19.3292  -33.4085 H   0  0  0  0  0  0  0  0  0  0  0  0
   -7.6564   23.0554  -31.0548 H   0  0  0  0  0  0  0  0  0  0  0  0
   -7.0831   23.0318  -32.7605 H   0  0  0  0  0  0  0  0  0  0  0  0
   -9.1973   21.1408  -30.3970 H   0  0  0  0  0  0  0  0  0  0  0  0
   -9.9071   18.7517  -31.1678 H   0  0  0  0  0  0  0  0  0  0  0  0
   -8.4976   17.8710  -33.2135 H   0  0  0  0  0  0  0  0  0  0  0  0
  1  2  1  0
  2  3  1  0
  3  4  2  0
  4  5  1  0
  5  6  2  0
  6  7  1  0
  7  8  2  0
  8  9  1  0
  9 10  1  0
 10 11  2  0
 10 12  1  0
 12 13  1  0
 13 14  1  0
 14 15  1  0
 15 16  2  0
 16 17  1  0
 17 18  2  0
 18 19  1  0
 13 20  1  0
 20 21  1  0
 21 22  2  0
 22 23  1  0
 23 24  2  0
 24 25  1  0
  8  3  1  0
 19 15  1  0
 25 21  1  0
  1 26  1  0
  1 27  1  0
  1 28  1  0
  4 29  1  0
  5 30  1  0
  6 31  1  0
  7 32  1  0
 12 33  1  0
 12 34  1  0
 14 35  1  0
 14 36  1  0
 16 37  1  0
 17 38  1  0
 18 39  1  0
 20 40  1  0
 20 41  1  0
 22 42  1  0
 23 43  1  0
 24 44  1  0
M  CHG  1   9  -1
M  END
>  <UniqueID>  (18) 
18

>  <SMILES>  (18) 
COc1ccccc1[N-]C(=O)CN(Cc1cccs1)Cc1cccs1

>  <Energy>  (18) 
101.02217791603393

>  <Genealogy>  (18) 
COc1ccccc1[N-]C(=O)CN(Cc1cccs1)Cc1cccs1 (protonated)
COc1ccccc1[N-]C(=O)CN(Cc1cccs1)Cc1cccs1 (3D coordinates assigned)
COc1ccccc1[N-]C(=O)CN(Cc1cccs1)Cc1cccs1 (optimized conformer: 101.02217791603393 kcal/mol)

>  <smiles>  (18) 
COc1ccccc1NC(=O)CN(Cc1cccs1)Cc1cccs1

>  <score_type>  (18) 
oracle

>  <origin>  (18) 
adg

>  <m_score__min__energy>  (18) 
-10.460000000000001

>  <m_primary>  (18) 
energy

$$$$
19:0
     RDKit          3D

 56 60  0  0  0  0  0  0  0  0999 V2000
   -3.8530   25.1100  -30.5280 O   0  0  0  0  0  0  0  0  0  0  0  0
   -3.6500   23.9250  -30.1340 C   0  0  0  0  0  0  0  0  0  0  0  0
   -3.9620   22.7960  -31.0400 C   0  0  0  0  0  0  0  0  0  0  0  0
   -5.2730   22.3170  -31.1570 C   0  0  0  0  0  0  0  0  0  0  0  0
   -5.5530   21.2470  -32.0230 C   0  0  0  0  0  0  0  0  0  0  0  0
   -6.9210   20.6780  -32.1550 C   0  0  0  0  0  0  0  0  0  0  0  0
   -7.0810   19.3220  -32.5020 C   0  0  0  0  0  0  0  0  0  0  0  0
   -8.3570   18.7640  -32.6260 C   0  0  0  0  0  0  0  0  0  0  0  0
   -9.4880   19.5520  -32.4120 C   0  0  0  0  0  0  0  0  0  0  0  0
   -9.3470   20.9020  -32.0820 C   0  0  0  0  0  0  0  0  0  0  0  0
   -8.0730   21.4660  -31.9550 C   0  0  0  0  0  0  0  0  0  0  0  0
   -4.5330   20.6930  -32.7410 N   0  0  0  0  0  0  0  0  0  0  0  0
   -3.2480   21.1360  -32.6710 C   0  0  0  0  0  0  0  0  0  0  0  0
   -2.2000   20.4500  -33.4760 C   0  0  0  0  0  0  0  0  0  0  0  0
   -1.0780   21.1760  -33.9250 C   0  0  0  0  0  0  0  0  0  0  0  0
   -0.0870   20.5490  -34.6880 C   0  0  0  0  0  0  0  0  0  0  0  0
   -0.1950   19.1910  -35.0070 C   0  0  0  0  0  0  0  0  0  0  0  0
   -1.2930   18.4560  -34.5550 C   0  0  0  0  0  0  0  0  0  0  0  0
   -2.2870   19.0790  -33.7900 C   0  0  0  0  0  0  0  0  0  0  0  0
   -2.9450   22.2040  -31.8050 C   0  0  0  0  0  0  0  0  0  0  0  0
   -3.0960   23.6990  -28.8260 N   0  0  0  0  0  0  0  0  0  0  0  0
   -3.5260   24.5240  -27.6920 C   0  0  0  0  0  0  0  0  0  0  0  0
   -2.3250   25.2920  -27.1270 C   0  0  0  0  0  0  0  0  0  0  0  0
   -1.1280   24.4350  -27.0050 N   0  0  0  0  0  0  0  0  0  0  0  0
    0.1360   24.9900  -26.5620 C   0  0  0  0  0  0  0  0  0  0  0  0
    0.4090   25.2160  -25.1980 C   0  0  0  0  0  0  0  0  0  0  0  0
    1.6450   25.7450  -24.8180 C   0  0  0  0  0  0  0  0  0  0  0  0
    2.5990   26.0570  -25.7860 C   0  0  0  0  0  0  0  0  0  0  0  0
    2.3010   25.8320  -27.1290 C   0  0  0  0  0  0  0  0  0  0  0  0
    1.0970   25.3090  -27.4800 N   0  0  0  0  0  0  0  0  0  0  0  0
   -1.2510   22.9990  -27.3180 C   0  0  0  0  0  0  0  0  0  0  0  0
   -1.9340   22.8100  -28.6800 C   0  0  0  0  0  0  0  0  0  0  0  0
   -6.0822   22.7780  -30.5716 H   0  0  0  0  0  0  0  0  0  0  0  0
   -6.1935   18.6962  -32.6771 H   0  0  0  0  0  0  0  0  0  0  0  0
   -8.4691   17.7027  -32.8925 H   0  0  0  0  0  0  0  0  0  0  0  0
  -10.4912   19.1102  -32.5031 H   0  0  0  0  0  0  0  0  0  0  0  0
  -10.2403   21.5235  -31.9215 H   0  0  0  0  0  0  0  0  0  0  0  0
   -7.9694   22.5304  -31.6976 H   0  0  0  0  0  0  0  0  0  0  0  0
   -0.9811   22.2425  -33.6738 H   0  0  0  0  0  0  0  0  0  0  0  0
    0.7811   21.1264  -35.0387 H   0  0  0  0  0  0  0  0  0  0  0  0
    0.5832   18.7034  -35.6125 H   0  0  0  0  0  0  0  0  0  0  0  0
   -1.3772   17.3869  -34.8000 H   0  0  0  0  0  0  0  0  0  0  0  0
   -3.1448   18.4918  -33.4304 H   0  0  0  0  0  0  0  0  0  0  0  0
   -1.9120   22.5741  -31.7280 H   0  0  0  0  0  0  0  0  0  0  0  0
   -4.2913   25.2386  -28.0291 H   0  0  0  0  0  0  0  0  0  0  0  0
   -3.9455   23.8760  -26.9083 H   0  0  0  0  0  0  0  0  0  0  0  0
   -2.0933   26.1323  -27.7979 H   0  0  0  0  0  0  0  0  0  0  0  0
   -2.5920   25.6480  -26.1210 H   0  0  0  0  0  0  0  0  0  0  0  0
   -0.3475   24.9770  -24.4361 H   0  0  0  0  0  0  0  0  0  0  0  0
    1.8658   25.9156  -23.7540 H   0  0  0  0  0  0  0  0  0  0  0  0
    3.5736   26.4750  -25.4937 H   0  0  0  0  0  0  0  0  0  0  0  0
    3.0408   26.0779  -27.9050 H   0  0  0  0  0  0  0  0  0  0  0  0
   -0.2488   22.5465  -27.3481 H   0  0  0  0  0  0  0  0  0  0  0  0
   -1.8592   22.5130  -26.5409 H   0  0  0  0  0  0  0  0  0  0  0  0
   -1.2100   23.0336  -29.4774 H   0  0  0  0  0  0  0  0  0  0  0  0
   -2.2835   21.7694  -28.7503 H   0  0  0  0  0  0  0  0  0  0  0  0
  1  2  2  0
  2  3  1  0
  3  4  2  0
  4  5  1  0
  5  6  1  0
  6  7  2  0
  7  8  1  0
  8  9  2  0
  9 10  1  0
 10 11  2  0
  5 12  2  0
 12 13  1  0
 13 14  1  0
 14 15  2  0
 15 16  1  0
 16 17  2  0
 17 18  1  0
 18 19  2  0
 13 20  2  0
  2 21  1  0
 21 22  1  0
 22 23  1  0
 23 24  1  0
 24 25  1  0
 25 26  2  0
 26 27  1  0
 27 28  2  0
 28 29  1  0
 29 30  2  0
 24 31  1  0
 31 32  1  0
 20  3  1  0
 32 21  1  0
 11  6  1  0
 19 14  1  0
 30 25  1  0
  4 33  1  0
  7 34  1  0
  8 35  1  0
  9 36  1  0
 10 37  1  0
 11 38  1  0
 15 39  1  0
 16 40  1  0
 17 41  1  0
 18 42  1  0
 19 43  1  0
 20 44  1  0
 22 45  1  0
 22 46  1  0
 23 47  1  0
 23 48  1  0
 26 49  1  0
 27 50  1  0
 28 51  1  0
 29 52  1  0
 31 53  1  0
 31 54  1  0
 32 55  1  0
 32 56  1  0
M  END
>  <UniqueID>  (19) 
19

>  <SMILES>  (19) 
O=C(c1cc(-c2ccccc2)nc(-c2ccccc2)c1)N1CCN(c2ccccn2)CC1

>  <Energy>  (19) 
79.61758250906111

>  <Genealogy>  (19) 
O=C(c1cc(-c2ccccc2)nc(-c2ccccc2)c1)N1CCN(c2ccccn2)CC1 (3D coordinates assigned)
O=C(c1cc(-c2ccccc2)nc(-c2ccccc2)c1)N1CCN(c2ccccn2)CC1 (nonaromatic ring conformer: 79.61758250906111 kcal/mol)

>  <smiles>  (19) 
O=C(c1cc(-c2ccccc2)nc(-c2ccccc2)c1)N1CCN(c2ccccn2)CC1

>  <score_type>  (19) 
oracle

>  <origin>  (19) 
adg

>  <m_score__min__energy>  (19) 
-10.17

>  <m_primary>  (19) 
energy

$$$$
20:0
     RDKit          3D

 33 34  0  0  0  0  0  0  0  0999 V2000
   -3.8640   24.1600  -27.3800 C   0  0  0  0  0  0  0  0  0  0  0  0
   -2.4370   24.4520  -27.8270 C   0  0  0  0  0  0  0  0  0  0  0  0
   -2.0350   23.5520  -29.3640 S   0  0  0  0  0  0  0  0  0  0  0  0
   -3.5600   23.9940  -30.2030 C   0  0  0  0  0  0  0  0  0  0  0  0
   -3.8660   25.2520  -30.5720 N   0  0  0  0  0  0  0  0  0  0  0  0
   -5.0290   25.1940  -31.2050 N   0  0  0  0  0  0  0  0  0  0  0  0
   -5.4120   23.9030  -31.2120 C   0  0  0  0  0  0  0  0  0  0  0  0
   -6.6590   23.4140  -31.8890 C   0  0  0  0  0  0  0  0  0  0  0  0
   -6.3800   22.2170  -32.6830 N   0  0  0  0  0  0  0  0  0  0  0  0
   -7.0900   20.9700  -32.5420 C   0  0  0  0  0  0  0  0  0  0  0  0
   -8.4350   20.9480  -32.1180 C   0  0  0  0  0  0  0  0  0  0  0  0
   -9.1180   19.7380  -31.9810 C   0  0  0  0  0  0  0  0  0  0  0  0
   -8.4720   18.5340  -32.2580 C   0  0  0  0  0  0  0  0  0  0  0  0
   -7.1410   18.5360  -32.6750 C   0  0  0  0  0  0  0  0  0  0  0  0
   -6.4450   19.7430  -32.8180 C   0  0  0  0  0  0  0  0  0  0  0  0
   -4.6310   19.6600  -33.4340 Br  0  0  0  0  0  0  0  0  0  0  0  0
   -4.5150   23.1210  -30.5750 N   0  0  0  0  0  0  0  0  0  0  0  0
   -4.4970   21.6640  -30.4660 C   0  0  0  0  0  0  0  0  0  0  0  0
   -3.9093   24.1507  -26.2810 H   0  0  0  0  0  0  0  0  0  0  0  0
   -4.5365   24.9391  -27.7682 H   0  0  0  0  0  0  0  0  0  0  0  0
   -4.1764   23.1793  -27.7682 H   0  0  0  0  0  0  0  0  0  0  0  0
   -2.3296   25.5323  -28.0043 H   0  0  0  0  0  0  0  0  0  0  0  0
   -1.7476   24.1205  -27.0365 H   0  0  0  0  0  0  0  0  0  0  0  0
   -7.4138   23.1734  -31.1258 H   0  0  0  0  0  0  0  0  0  0  0  0
   -7.0316   24.2037  -32.5580 H   0  0  0  0  0  0  0  0  0  0  0  0
   -5.6500   22.3090  -33.4240 H   0  0  0  0  0  0  0  0  0  0  0  0
   -8.9508   21.8932  -31.8931 H   0  0  0  0  0  0  0  0  0  0  0  0
  -10.1682   19.7347  -31.6538 H   0  0  0  0  0  0  0  0  0  0  0  0
   -9.0122   17.5821  -32.1477 H   0  0  0  0  0  0  0  0  0  0  0  0
   -6.6349   17.5839  -32.8929 H   0  0  0  0  0  0  0  0  0  0  0  0
   -4.4934   21.3757  -29.4044 H   0  0  0  0  0  0  0  0  0  0  0  0
   -5.3901   21.2486  -30.9557 H   0  0  0  0  0  0  0  0  0  0  0  0
   -3.5939   21.2708  -30.9557 H   0  0  0  0  0  0  0  0  0  0  0  0
  1  2  1  0
  2  3  1  0
  3  4  1  0
  4  5  2  0
  5  6  1  0
  6  7  2  0
  7  8  1  0
  8  9  1  0
  9 10  1  0
 10 11  2  0
 11 12  1  0
 12 13  2  0
 13 14  1  0
 14 15  2  0
 15 16  1  0
  7 17  1  0
 17 18  1  0
 17  4  1  0
 15 10  1  0
  1 19  1  0
  1 20  1  0
  1 21  1  0
  2 22  1  0
  2 23  1  0
  8 24  1  0
  8 25  1  0
  9 26  1  0
 11 27  1  0
 12 28  1  0
 13 29  1  0
 14 30  1  0
 18 31  1  0
 18 32  1  0
 18 33  1  0
M  END
>  <UniqueID>  (20) 
20

>  <SMILES>  (20) 
CCSc1nnc(CNc2ccccc2Br)n1C

>  <Energy>  (20) 
60.961592428483264

>  <Genealogy>  (20) 
CCSc1nnc(CNc2ccccc2Br)n1C (3D coordinates assigned)
CCSc1nnc(CNc2ccccc2Br)n1C (optimized conformer: 60.961592428483264 kcal/mol)

>  <smiles>  (20) 
CCSc1nnc(CNc2ccccc2Br)n1C

>  <score_type>  (20) 
oracle

>  <origin>  (20) 
adg

>  <m_score__min__energy>  (20) 
-7.9000000000000004

>  <m_primary>  (20) 
energy

$$$$
21:0
     RDKit          3D

 33 34  0  0  0  0  0  0  0  0999 V2000
   -6.1810   25.6460  -29.7030 C   0  0  0  0  0  0  0  0  0  0  0  0
   -4.8790   24.9030  -30.0440 C   0  0  0  0  0  0  0  0  0  0  0  0
   -4.9730   23.9990  -31.2170 N   0  0  0  0  0  0  0  0  0  0  0  0
   -4.4500   22.6320  -30.9820 C   0  0  0  0  0  0  0  0  0  0  0  0
   -3.6450   22.0980  -32.1750 C   0  0  0  0  0  0  0  0  0  0  0  0
   -4.4380   21.1570  -32.9760 C   0  0  0  0  0  0  0  0  0  0  0  0
   -5.0630   20.4160  -33.6080 N   0  0  0  0  0  0  0  0  0  0  0  0
   -6.2580   24.0810  -31.9490 C   0  0  0  0  0  0  0  0  0  0  0  0
   -7.1480   22.8900  -31.7410 C   0  0  0  0  0  0  0  0  0  0  0  0
   -7.9330   22.7140  -30.6590 N   0  0  0  0  0  0  0  0  0  0  0  0
   -8.5380   21.5790  -30.8620 O   0  0  0  0  0  0  0  0  0  0  0  0
   -8.1560   21.0640  -32.0070 C   0  0  0  0  0  0  0  0  0  0  0  0
   -8.6840   19.7600  -32.5420 C   0  0  0  0  0  0  0  0  0  0  0  0
   -7.6620   18.6400  -32.6660 C   0  0  0  0  0  0  0  0  0  0  0  0
   -8.7130   18.5930  -31.5660 C   0  0  0  0  0  0  0  0  0  0  0  0
   -7.2580   21.8680  -32.6090 N   0  0  0  0  0  0  0  0  0  0  0  0
   -6.2917   25.7092  -28.6104 H   0  0  0  0  0  0  0  0  0  0  0  0
   -6.1463   26.6603  -30.1273 H   0  0  0  0  0  0  0  0  0  0  0  0
   -7.0366   25.1001  -30.1273 H   0  0  0  0  0  0  0  0  0  0  0  0
   -4.1002   25.6521  -30.2496 H   0  0  0  0  0  0  0  0  0  0  0  0
   -4.6471   24.2664  -29.1774 H   0  0  0  0  0  0  0  0  0  0  0  0
   -3.7978   22.6511  -30.0964 H   0  0  0  0  0  0  0  0  0  0  0  0
   -5.3121   21.9648  -30.8347 H   0  0  0  0  0  0  0  0  0  0  0  0
   -3.3430   22.9435  -32.8106 H   0  0  0  0  0  0  0  0  0  0  0  0
   -2.7628   21.5668  -31.7884 H   0  0  0  0  0  0  0  0  0  0  0  0
   -6.7946   24.9791  -31.6092 H   0  0  0  0  0  0  0  0  0  0  0  0
   -6.0154   24.1177  -33.0213 H   0  0  0  0  0  0  0  0  0  0  0  0
   -9.4198   20.2269  -33.2132 H   0  0  0  0  0  0  0  0  0  0  0  0
   -7.7169   17.9362  -33.5096 H   0  0  0  0  0  0  0  0  0  0  0  0
   -6.5636   18.5890  -32.6950 H   0  0  0  0  0  0  0  0  0  0  0  0
   -9.5276   17.8553  -31.6146 H   0  0  0  0  0  0  0  0  0  0  0  0
   -8.6889   18.4940  -30.4707 H   0  0  0  0  0  0  0  0  0  0  0  0
   -6.7720   21.7510  -33.5250 H   0  0  0  0  0  0  0  0  0  0  0  0
  1  2  1  0
  2  3  1  0
  3  4  1  0
  4  5  1  0
  5  6  1  0
  6  7  3  0
  3  8  1  0
  8  9  1  0
  9 10  2  0
 10 11  1  0
 11 12  1  0
 12 13  1  0
 13 14  1  0
 14 15  1  0
 12 16  2  0
 16  9  1  0
 15 13  1  0
  1 17  1  0
  1 18  1  0
  1 19  1  0
  2 20  1  0
  2 21  1  0
  4 22  1  0
  4 23  1  0
  5 24  1  0
  5 25  1  0
  8 26  1  0
  8 27  1  0
 13 28  1  0
 14 29  1  0
 14 30  1  0
 15 31  1  0
 15 32  1  0
 16 33  1  0
M  CHG  1  16   1
M  END
>  <UniqueID>  (21) 
21

>  <SMILES>  (21) 
CCN(CCC#N)Cc1noc(C2CC2)[nH+]1

>  <Energy>  (21) 
334.319287665184

>  <Genealogy>  (21) 
CCN(CCC#N)Cc1noc(C2CC2)[nH+]1 (protonated)
CCN(CCC#N)Cc1noc(C2CC2)[nH+]1 (3D coordinates assigned)
CCN(CCC#N)Cc1noc(C2CC2)[nH+]1 (nonaromatic ring conformer: 334.319287665184 kcal/mol)

>  <smiles>  (21) 
CCN(CCC#N)Cc1noc(C2CC2)n1

>  <score_type>  (21) 
oracle

>  <origin>  (21) 
adg

>  <m_score__min__energy>  (21) 
-5.71

>  <m_primary>  (21) 
energy

$$$$
22:0
     RDKit          3D

 42 44  0  0  0  0  0  0  0  0999 V2000
   -3.0370   24.6890  -29.4220 C   0  0  0  0  0  0  0  0  0  0  0  0
   -3.8340   25.2830  -30.4860 N   0  0  0  0  0  0  0  0  0  0  0  0
   -5.0900   24.7710  -30.9520 C   0  0  0  0  0  0  0  0  0  0  0  0
   -6.0960   25.5280  -30.9330 O   0  0  0  0  0  0  0  0  0  0  0  0
   -5.2500   23.3780  -31.4150 C   0  0  0  0  0  0  0  0  0  0  0  0
   -6.4870   22.9140  -31.8870 C   0  0  0  0  0  0  0  0  0  0  0  0
   -6.6310   21.5890  -32.3080 C   0  0  0  0  0  0  0  0  0  0  0  0
   -5.5450   20.7020  -32.2410 C   0  0  0  0  0  0  0  0  0  0  0  0
   -5.6880   19.3010  -32.6950 C   0  0  0  0  0  0  0  0  0  0  0  0
   -4.6600   18.7110  -33.4420 C   0  0  0  0  0  0  0  0  0  0  0  0
   -4.7750   17.4320  -33.8840 N   0  0  0  0  0  0  0  0  0  0  0  0
   -5.8890   16.6940  -33.6100 C   0  0  0  0  0  0  0  0  0  0  0  0
   -6.0170   15.3400  -34.0850 N   0  0  0  0  0  0  0  0  0  0  0  0
   -7.2760   14.7870  -34.5570 C   0  0  0  0  0  0  0  0  0  0  0  0
   -7.0090   13.3090  -34.8040 C   0  0  0  0  0  0  0  0  0  0  0  0
   -5.4910   13.1620  -34.8640 C   0  0  0  0  0  0  0  0  0  0  0  0
   -4.9230   14.3870  -34.1570 C   0  0  0  0  0  0  0  0  0  0  0  0
   -6.8880   17.2430  -32.8700 N   0  0  0  0  0  0  0  0  0  0  0  0
   -6.8190   18.5150  -32.3960 C   0  0  0  0  0  0  0  0  0  0  0  0
   -7.9600   19.0320  -31.5690 C   0  0  0  0  0  0  0  0  0  0  0  0
   -4.3110   21.1640  -31.7600 C   0  0  0  0  0  0  0  0  0  0  0  0
   -4.1680   22.4890  -31.3390 C   0  0  0  0  0  0  0  0  0  0  0  0
   -3.4439   24.9923  -28.4461 H   0  0  0  0  0  0  0  0  0  0  0  0
   -3.0692   23.5928  -29.5081 H   0  0  0  0  0  0  0  0  0  0  0  0
   -1.9958   25.0331  -29.5081 H   0  0  0  0  0  0  0  0  0  0  0  0
   -7.3485   23.5969  -31.9260 H   0  0  0  0  0  0  0  0  0  0  0  0
   -7.6001   21.2395  -32.6937 H   0  0  0  0  0  0  0  0  0  0  0  0
   -3.7525   19.2883  -33.6723 H   0  0  0  0  0  0  0  0  0  0  0  0
   -3.9890   17.0300  -34.4390 H   0  0  0  0  0  0  0  0  0  0  0  0
   -8.0599   14.9133  -33.7957 H   0  0  0  0  0  0  0  0  0  0  0  0
   -7.6265   15.2943  -35.4679 H   0  0  0  0  0  0  0  0  0  0  0  0
   -7.4198   12.7036  -33.9826 H   0  0  0  0  0  0  0  0  0  0  0  0
   -7.4852   12.9625  -35.7331 H   0  0  0  0  0  0  0  0  0  0  0  0
   -5.1752   12.2427  -34.3491 H   0  0  0  0  0  0  0  0  0  0  0  0
   -5.1332   13.0933  -35.9019 H   0  0  0  0  0  0  0  0  0  0  0  0
   -4.5781   14.1216  -33.1468 H   0  0  0  0  0  0  0  0  0  0  0  0
   -4.0573   14.8016  -34.6943 H   0  0  0  0  0  0  0  0  0  0  0  0
   -7.7183   18.9225  -30.5015 H   0  0  0  0  0  0  0  0  0  0  0  0
   -8.1283   20.0943  -31.7997 H   0  0  0  0  0  0  0  0  0  0  0  0
   -8.8696   18.4581  -31.7997 H   0  0  0  0  0  0  0  0  0  0  0  0
   -3.4510   20.4796  -31.7139 H   0  0  0  0  0  0  0  0  0  0  0  0
   -3.2013   22.8366  -30.9458 H   0  0  0  0  0  0  0  0  0  0  0  0
  1  2  1  0
  2  3  1  0
  3  4  2  0
  3  5  1  0
  5  6  2  0
  6  7  1  0
  7  8  2  0
  8  9  1  0
  9 10  2  0
 10 11  1  0
 11 12  2  0
 12 13  1  0
 13 14  1  0
 14 15  1  0
 15 16  1  0
 16 17  1  0
 12 18  1  0
 18 19  2  0
 19 20  1  0
  8 21  1  0
 21 22  2  0
 22  5  1  0
 19  9  1  0
 17 13  1  0
  1 23  1  0
  1 24  1  0
  1 25  1  0
  6 26  1  0
  7 27  1  0
 10 28  1  0
 11 29  1  0
 14 30  1  0
 14 31  1  0
 15 32  1  0
 15 33  1  0
 16 34  1  0
 16 35  1  0
 17 36  1  0
 17 37  1  0
 20 38  1  0
 20 39  1  0
 20 40  1  0
 21 41  1  0
 22 42  1  0
M  CHG  2   2  -1  11   1
M  END
>  <UniqueID>  (22) 
22

>  <SMILES>  (22) 
C[N-]C(=O)c1ccc(-c2c[nH+]c(N3CCCC3)nc2C)cc1

>  <Energy>  (22) 
52.81759652933649

>  <Genealogy>  (22) 
C[N-]C(=O)c1ccc(-c2c[nH+]c(N3CCCC3)nc2C)cc1 (protonated)
C[N-]C(=O)c1ccc(-c2c[nH+]c(N3CCCC3)nc2C)cc1 (3D coordinates assigned)
C[N-]C(=O)c1ccc(-c2c[nH+]c(N3CCCC3)nc2C)cc1 (nonaromatic ring conformer: 52.81759652933649 kcal/mol)

>  <smiles>  (22) 
CNC(=O)c1ccc(-c2cnc(N3CCCC3)nc2C)cc1

>  <score_type>  (22) 
oracle

>  <origin>  (22) 
adg

>  <m_score__min__energy>  (22) 
-8.7799999999999994

>  <m_primary>  (22) 
energy

$$$$
23:0
     RDKit          3D

 46 47  0  0  0  0  0  0  0  0999 V2000
   -2.7610   20.2850  -27.5380 C   0  0  0  0  0  0  0  0  0  0  0  0
   -2.5070   21.4460  -28.4980 C   0  0  0  0  0  0  0  0  0  0  0  0
   -3.8110   22.1270  -28.9610 C   0  0  0  0  0  0  0  0  0  0  0  0
   -3.5870   23.5410  -29.3210 N   0  0  0  0  0  0  0  0  0  0  0  0
   -2.8640   24.4150  -28.3720 C   0  0  0  0  0  0  0  0  0  0  0  0
   -3.5760   24.5500  -27.0130 C   0  0  0  0  0  0  0  0  0  0  0  0
   -2.7520   25.3140  -25.9840 C   0  0  0  0  0  0  0  0  0  0  0  0
   -4.2750   24.1560  -30.4410 C   0  0  0  0  0  0  0  0  0  0  0  0
   -3.9020   25.2900  -30.8460 O   0  0  0  0  0  0  0  0  0  0  0  0
   -5.5140   23.5680  -31.0780 C   0  0  0  0  0  0  0  0  0  0  0  0
   -5.2260   22.4090  -31.9280 N   0  0  0  0  0  0  0  0  0  0  0  0
   -4.0490   22.1630  -32.5570 C   0  0  0  0  0  0  0  0  0  0  0  0
   -4.0310   20.9820  -33.2260 N   0  0  0  0  0  0  0  0  0  0  0  0
   -5.2520   20.4740  -32.9690 C   0  0  0  0  0  0  0  0  0  0  0  0
   -5.9650   21.3080  -32.1750 C   0  0  0  0  0  0  0  0  0  0  0  0
   -7.2290   20.9340  -31.7290 C   0  0  0  0  0  0  0  0  0  0  0  0
   -7.8830   21.6780  -30.9510 O   0  0  0  0  0  0  0  0  0  0  0  0
   -7.7390   19.7260  -32.1470 N   0  0  0  0  0  0  0  0  0  0  0  0
   -9.0950   19.3240  -31.7360 C   0  0  0  0  0  0  0  0  0  0  0  0
   -7.0100   18.9200  -33.0070 C   0  0  0  0  0  0  0  0  0  0  0  0
   -7.5150   17.8450  -33.4400 O   0  0  0  0  0  0  0  0  0  0  0  0
   -5.7400   19.2770  -33.3980 N   0  0  0  0  0  0  0  0  0  0  0  0
   -4.9640   18.4210  -34.3050 C   0  0  0  0  0  0  0  0  0  0  0  0
   -2.6827   20.6430  -26.5008 H   0  0  0  0  0  0  0  0  0  0  0  0
   -3.7690   19.8800  -27.7110 H   0  0  0  0  0  0  0  0  0  0  0  0
   -2.0142   19.4961  -27.7110 H   0  0  0  0  0  0  0  0  0  0  0  0
   -1.8803   22.1934  -27.9894 H   0  0  0  0  0  0  0  0  0  0  0  0
   -2.0083   21.0387  -29.3898 H   0  0  0  0  0  0  0  0  0  0  0  0
   -4.2005   21.5922  -29.8398 H   0  0  0  0  0  0  0  0  0  0  0  0
   -4.5308   22.0933  -28.1299 H   0  0  0  0  0  0  0  0  0  0  0  0
   -1.8620   23.9941  -28.2021 H   0  0  0  0  0  0  0  0  0  0  0  0
   -2.8184   25.4187  -28.8197 H   0  0  0  0  0  0  0  0  0  0  0  0
   -4.5265   25.0820  -27.1663 H   0  0  0  0  0  0  0  0  0  0  0  0
   -3.7333   23.5343  -26.6210 H   0  0  0  0  0  0  0  0  0  0  0  0
   -3.0673   25.0216  -24.9715 H   0  0  0  0  0  0  0  0  0  0  0  0
   -1.6862   25.0773  -26.1188 H   0  0  0  0  0  0  0  0  0  0  0  0
   -2.9076   26.3946  -26.1188 H   0  0  0  0  0  0  0  0  0  0  0  0
   -6.2034   23.2548  -30.2801 H   0  0  0  0  0  0  0  0  0  0  0  0
   -5.9545   24.3453  -31.7197 H   0  0  0  0  0  0  0  0  0  0  0  0
   -3.1930   22.8533  -32.5276 H   0  0  0  0  0  0  0  0  0  0  0  0
   -9.1551   19.3062  -30.6378 H   0  0  0  0  0  0  0  0  0  0  0  0
   -9.8266   20.0439  -32.1316 H   0  0  0  0  0  0  0  0  0  0  0  0
   -9.3160   18.3217  -32.1316 H   0  0  0  0  0  0  0  0  0  0  0  0
   -4.3402   17.7329  -33.7157 H   0  0  0  0  0  0  0  0  0  0  0  0
   -5.6508   17.8413  -34.9393 H   0  0  0  0  0  0  0  0  0  0  0  0
   -4.3199   19.0478  -34.9393 H   0  0  0  0  0  0  0  0  0  0  0  0
  1  2  1  0
  2  3  1  0
  3  4  1  0
  4  5  1  0
  5  6  1  0
  6  7  1  0
  4  8  1  0
  8  9  2  0
  8 10  1  0
 10 11  1  0
 11 12  1  0
 12 13  2  0
 13 14  1  0
 14 15  2  0
 15 16  1  0
 16 17  2  0
 16 18  1  0
 18 19  1  0
 18 20  1  0
 20 21  2  0
 20 22  1  0
 22 23  1  0
 15 11  1  0
 22 14  1  0
  1 24  1  0
  1 25  1  0
  1 26  1  0
  2 27  1  0
  2 28  1  0
  3 29  1  0
  3 30  1  0
  5 31  1  0
  5 32  1  0
  6 33  1  0
  6 34  1  0
  7 35  1  0
  7 36  1  0
  7 37  1  0
 10 38  1  0
 10 39  1  0
 12 40  1  0
 19 41  1  0
 19 42  1  0
 19 43  1  0
 23 44  1  0
 23 45  1  0
 23 46  1  0
M  END
>  <UniqueID>  (23) 
23

>  <SMILES>  (23) 
CCCN(CCC)C(=O)Cn1cnc2c1c(=O)n(C)c(=O)n2C

>  <Energy>  (23) 
86.21009563676044

>  <Genealogy>  (23) 
CCCN(CCC)C(=O)Cn1cnc2c1c(=O)n(C)c(=O)n2C (3D coordinates assigned)
CCCN(CCC)C(=O)Cn1cnc2c1c(=O)n(C)c(=O)n2C (optimized conformer: 86.21009563676044 kcal/mol)

>  <smiles>  (23) 
CCCN(CCC)C(=O)Cn1cnc2c1c(=O)n(C)c(=O)n2C

>  <score_type>  (23) 
oracle

>  <origin>  (23) 
adg

>  <m_score__min__energy>  (23) 
-6.9900000000000002

>  <m_primary>  (23) 
energy

$$$$
24:0
     RDKit          3D

 31 32  0  0  0  0  0  0  0  0999 V2000
   -3.8280   23.4610  -28.6050 C   0  0  0  0  0  0  0  0  0  0  0  0
   -3.0440   24.1680  -29.7050 C   0  0  0  0  0  0  0  0  0  0  0  0
   -3.9090   24.9820  -30.4760 O   0  0  0  0  0  0  0  0  0  0  0  0
   -5.2580   24.6340  -30.2430 C   0  0  0  0  0  0  0  0  0  0  0  0
   -6.0020   24.5440  -31.5750 C   0  0  0  0  0  0  0  0  0  0  0  0
   -6.6880   23.2470  -31.7060 N   0  0  0  0  0  0  0  0  0  0  0  0
   -7.9600   23.1250  -31.2190 C   0  0  0  0  0  0  0  0  0  0  0  0
   -8.6240   21.9430  -31.2940 N   0  0  0  0  0  0  0  0  0  0  0  0
   -8.0440   20.8460  -31.8500 C   0  0  0  0  0  0  0  0  0  0  0  0
   -8.7420   19.6300  -31.9210 C   0  0  0  0  0  0  0  0  0  0  0  0
   -8.1390   18.5050  -32.4890 C   0  0  0  0  0  0  0  0  0  0  0  0
   -6.8360   18.5840  -32.9890 C   0  0  0  0  0  0  0  0  0  0  0  0
   -6.0840   17.1660  -33.6990 Cl  0  0  0  0  0  0  0  0  0  0  0  0
   -6.1310   19.7900  -32.9220 C   0  0  0  0  0  0  0  0  0  0  0  0
   -6.7300   20.9300  -32.3540 C   0  0  0  0  0  0  0  0  0  0  0  0
   -6.0600   22.1630  -32.2650 C   0  0  0  0  0  0  0  0  0  0  0  0
   -4.8780   22.2680  -32.6990 O   0  0  0  0  0  0  0  0  0  0  0  0
   -3.4609   23.7921  -27.6223 H   0  0  0  0  0  0  0  0  0  0  0  0
   -4.8959   23.7074  -28.6995 H   0  0  0  0  0  0  0  0  0  0  0  0
   -3.6929   22.3734  -28.6995 H   0  0  0  0  0  0  0  0  0  0  0  0
   -2.2643   24.7960  -29.2493 H   0  0  0  0  0  0  0  0  0  0  0  0
   -2.5834   23.4132  -30.3593 H   0  0  0  0  0  0  0  0  0  0  0  0
   -5.3020   23.6605  -29.7327 H   0  0  0  0  0  0  0  0  0  0  0  0
   -5.7296   25.4021  -29.6125 H   0  0  0  0  0  0  0  0  0  0  0  0
   -6.7463   25.3523  -31.6274 H   0  0  0  0  0  0  0  0  0  0  0  0
   -5.2727   24.6406  -32.3928 H   0  0  0  0  0  0  0  0  0  0  0  0
   -8.4516   23.9957  -30.7606 H   0  0  0  0  0  0  0  0  0  0  0  0
   -9.5960   21.8910  -30.9140 H   0  0  0  0  0  0  0  0  0  0  0  0
   -9.7672   19.5628  -31.5281 H   0  0  0  0  0  0  0  0  0  0  0  0
   -8.6908   17.5549  -32.5429 H   0  0  0  0  0  0  0  0  0  0  0  0
   -5.1050   19.8478  -33.3145 H   0  0  0  0  0  0  0  0  0  0  0  0
  1  2  1  0
  2  3  1  0
  3  4  1  0
  4  5  1  0
  5  6  1  0
  6  7  1  0
  7  8  2  0
  8  9  1  0
  9 10  2  0
 10 11  1  0
 11 12  2  0
 12 13  1  0
 12 14  1  0
 14 15  2  0
 15 16  1  0
 16 17  2  0
 16  6  1  0
 15  9  1  0
  1 18  1  0
  1 19  1  0
  1 20  1  0
  2 21  1  0
  2 22  1  0
  4 23  1  0
  4 24  1  0
  5 25  1  0
  5 26  1  0
  7 27  1  0
  8 28  1  0
 10 29  1  0
 11 30  1  0
 14 31  1  0
M  CHG  1   8   1
M  END
>  <UniqueID>  (24) 
24

>  <SMILES>  (24) 
CCOCCn1c[nH+]c2ccc(Cl)cc2c1=O

>  <Energy>  (24) 
34.45770120714709

>  <Genealogy>  (24) 
CCOCCn1c[nH+]c2ccc(Cl)cc2c1=O (protonated)
CCOCCn1c[nH+]c2ccc(Cl)cc2c1=O (3D coordinates assigned)
CCOCCn1c[nH+]c2ccc(Cl)cc2c1=O (optimized conformer: 34.45770120714709 kcal/mol)

>  <smiles>  (24) 
CCOCCn1cnc2ccc(Cl)cc2c1=O

>  <score_type>  (24) 
oracle

>  <origin>  (24) 
adg

>  <m_score__min__energy>  (24) 
-6.3200000000000003

>  <m_primary>  (24) 
energy

$$$$
25:0
     RDKit          3D

 68 73  0  0  0  0  0  0  0  0999 V2000
   -8.4450   19.1850  -32.6670 C   0  0  0  0  0  0  0  0  0  0  0  0
   -8.2660   20.4930  -31.9560 C   0  0  0  0  0  0  0  0  0  0  0  0
   -9.2930   21.2690  -31.5760 N   0  0  0  0  0  0  0  0  0  0  0  0
   -8.8010   22.3340  -30.9750 N   0  0  0  0  0  0  0  0  0  0  0  0
   -7.4580   22.2020  -30.9850 C   0  0  0  0  0  0  0  0  0  0  0  0
   -6.5860   23.2850  -30.3930 C   0  0  0  0  0  0  0  0  0  0  0  0
   -6.1690   24.3900  -31.3790 C   0  0  0  0  0  0  0  0  0  0  0  0
   -5.2490   25.4650  -30.7780 C   0  0  0  0  0  0  0  0  0  0  0  0
   -3.9160   24.9870  -30.5850 O   0  0  0  0  0  0  0  0  0  0  0  0
   -3.5280   23.9780  -29.6890 C   0  0  0  0  0  0  0  0  0  0  0  0
   -3.8290   24.0240  -28.3190 C   0  0  0  0  0  0  0  0  0  0  0  0
   -3.3710   23.0240  -27.4640 C   0  0  0  0  0  0  0  0  0  0  0  0
   -2.6230   21.9500  -27.9640 C   0  0  0  0  0  0  0  0  0  0  0  0
   -2.1890   20.9420  -27.0920 C   0  0  0  0  0  0  0  0  0  0  0  0
   -1.4820   19.8480  -27.5800 C   0  0  0  0  0  0  0  0  0  0  0  0
   -1.1930   19.7480  -28.9390 C   0  0  0  0  0  0  0  0  0  0  0  0
   -1.5920   20.7500  -29.8410 C   0  0  0  0  0  0  0  0  0  0  0  0
   -1.2250   20.5670  -31.2660 C   0  0  0  0  0  0  0  0  0  0  0  0
   -1.1490   19.3370  -31.8430 N   0  0  0  0  0  0  0  0  0  0  0  0
   -0.7420   19.6190  -33.0880 C   0  0  0  0  0  0  0  0  0  0  0  0
   -0.5030   18.7270  -34.1300 C   0  0  0  0  0  0  0  0  0  0  0  0
   -0.0780   19.2610  -35.3620 C   0  0  0  0  0  0  0  0  0  0  0  0
    0.0990   20.6560  -35.5130 C   0  0  0  0  0  0  0  0  0  0  0  0
   -0.1500   21.5260  -34.4350 C   0  0  0  0  0  0  0  0  0  0  0  0
   -0.5720   20.9600  -33.2330 C   0  0  0  0  0  0  0  0  0  0  0  0
   -0.8630   21.5900  -32.0860 N   0  0  0  0  0  0  0  0  0  0  0  0
   -2.3270   21.8690  -29.3530 C   0  0  0  0  0  0  0  0  0  0  0  0
   -2.8110   22.8900  -30.1990 C   0  0  0  0  0  0  0  0  0  0  0  0
   -7.0750   21.0460  -31.6140 N   0  0  0  0  0  0  0  0  0  0  0  0
   -5.7590   20.3940  -31.8110 C   0  0  0  0  0  0  0  0  0  0  0  0
   -5.7320   18.8900  -31.4550 C   0  0  0  0  0  0  0  0  0  0  0  0
   -5.4690   18.0140  -32.6870 C   0  0  0  0  0  0  0  0  0  0  0  0
   -4.1940   18.3750  -33.3480 N   0  0  0  0  0  0  0  0  0  0  0  0
   -4.0900   17.6980  -34.6490 C   0  0  0  0  0  0  0  0  0  0  0  0
   -3.9500   19.8380  -33.4780 C   0  0  0  0  0  0  0  0  0  0  0  0
   -5.1920   20.6970  -33.2060 C   0  0  0  0  0  0  0  0  0  0  0  0
   -8.5554   18.3779  -31.9278 H   0  0  0  0  0  0  0  0  0  0  0  0
   -9.3453   19.2305  -33.2974 H   0  0  0  0  0  0  0  0  0  0  0  0
   -7.5656   18.9870  -33.2974 H   0  0  0  0  0  0  0  0  0  0  0  0
  -10.3110   21.0840  -31.7150 H   0  0  0  0  0  0  0  0  0  0  0  0
   -7.1386   23.7551  -29.5662 H   0  0  0  0  0  0  0  0  0  0  0  0
   -5.6571   22.7921  -30.0702 H   0  0  0  0  0  0  0  0  0  0  0  0
   -5.6419   23.9182  -32.2213 H   0  0  0  0  0  0  0  0  0  0  0  0
   -7.0930   24.9031  -31.6838 H   0  0  0  0  0  0  0  0  0  0  0  0
   -5.2208   26.3284  -31.4590 H   0  0  0  0  0  0  0  0  0  0  0  0
   -5.6536   25.7448  -29.7941 H   0  0  0  0  0  0  0  0  0  0  0  0
   -4.4296   24.8539  -27.9183 H   0  0  0  0  0  0  0  0  0  0  0  0
   -3.5982   23.0780  -26.3891 H   0  0  0  0  0  0  0  0  0  0  0  0
   -2.4086   21.0165  -26.0167 H   0  0  0  0  0  0  0  0  0  0  0  0
   -1.1497   19.0585  -26.8899 H   0  0  0  0  0  0  0  0  0  0  0  0
   -0.6438   18.8711  -29.3124 H   0  0  0  0  0  0  0  0  0  0  0  0
   -0.6412   17.6440  -33.9958 H   0  0  0  0  0  0  0  0  0  0  0  0
    0.1173   18.5896  -36.2112 H   0  0  0  0  0  0  0  0  0  0  0  0
    0.4332   21.0634  -36.4786 H   0  0  0  0  0  0  0  0  0  0  0  0
   -0.0165   22.6131  -34.5373 H   0  0  0  0  0  0  0  0  0  0  0  0
   -2.6207   22.8291  -31.2807 H   0  0  0  0  0  0  0  0  0  0  0  0
   -5.0806   20.8481  -31.0738 H   0  0  0  0  0  0  0  0  0  0  0  0
   -4.9356   18.7137  -30.7170 H   0  0  0  0  0  0  0  0  0  0  0  0
   -6.7174   18.6186  -31.0484 H   0  0  0  0  0  0  0  0  0  0  0  0
   -5.4232   16.9607  -32.3733 H   0  0  0  0  0  0  0  0  0  0  0  0
   -6.2870   18.1738  -33.4049 H   0  0  0  0  0  0  0  0  0  0  0  0
   -3.9247   16.6221  -34.4903 H   0  0  0  0  0  0  0  0  0  0  0  0
   -5.0215   17.8463  -35.2150 H   0  0  0  0  0  0  0  0  0  0  0  0
   -3.2460   18.1191  -35.2150 H   0  0  0  0  0  0  0  0  0  0  0  0
   -3.1660   20.1243  -32.7615 H   0  0  0  0  0  0  0  0  0  0  0  0
   -3.6533   20.0230  -34.5209 H   0  0  0  0  0  0  0  0  0  0  0  0
   -4.9163   21.7604  -33.2618 H   0  0  0  0  0  0  0  0  0  0  0  0
   -5.9582   20.4645  -33.9603 H   0  0  0  0  0  0  0  0  0  0  0  0
  1  2  1  0
  2  3  2  0
  3  4  1  0
  4  5  2  0
  5  6  1  0
  6  7  1  0
  7  8  1  0
  8  9  1  0
  9 10  1  0
 10 11  2  0
 11 12  1  0
 12 13  2  0
 13 14  1  0
 14 15  2  0
 15 16  1  0
 16 17  2  0
 17 18  1  0
 18 19  2  0
 19 20  1  0
 20 21  2  0
 21 22  1  0
 22 23  2  0
 23 24  1  0
 24 25  2  0
 25 26  1  0
 17 27  1  0
 27 28  2  0
  5 29  1  0
 29 30  1  0
 30 31  1  0
 31 32  1  0
 32 33  1  0
 33 34  1  0
 33 35  1  0
 35 36  1  0
 29  2  1  0
 36 30  1  0
 28 10  1  0
 27 13  1  0
 26 18  1  0
 25 20  1  0
  1 37  1  0
  1 38  1  0
  1 39  1  0
  3 40  1  0
  6 41  1  0
  6 42  1  0
  7 43  1  0
  7 44  1  0
  8 45  1  0
  8 46  1  0
 11 47  1  0
 12 48  1  0
 14 49  1  0
 15 50  1  0
 16 51  1  0
 21 52  1  0
 22 53  1  0
 23 54  1  0
 24 55  1  0
 28 56  1  0
 30 57  1  0
 31 58  1  0
 31 59  1  0
 32 60  1  0
 32 61  1  0
 34 62  1  0
 34 63  1  0
 34 64  1  0
 35 65  1  0
 35 66  1  0
 36 67  1  0
 36 68  1  0
M  CHG  2   3   1  26  -1
M  END
>  <UniqueID>  (25) 
25

>  <SMILES>  (25) 
Cc1[nH+]nc(CCCOc2ccc3cccc(-c4nc5ccccc5[n-]4)c3c2)n1C1CCN(C)CC1

>  <Energy>  (25) 
158.98181420702284

>  <Genealogy>  (25) 
Cc1[nH+]nc(CCCOc2ccc3cccc(-c4nc5ccccc5[n-]4)c3c2)n1C1CCN(C)CC1 (protonated)
Cc1[nH+]nc(CCCOc2ccc3cccc(-c4nc5ccccc5[n-]4)c3c2)n1C1CCN(C)CC1 (3D coordinates assigned)
Cc1[nH+]nc(CCCOc2ccc3cccc(-c4nc5ccccc5[n-]4)c3c2)n1C1CCN(C)CC1 (nonaromatic ring conformer: 158.98181420702284 kcal/mol)

>  <smiles>  (25) 
Cc1nnc(CCCOc2ccc3cccc(-c4nc5ccccc5[nH]4)c3c2)n1C1CCN(C)CC1

>  <score_type>  (25) 
oracle

>  <origin>  (25) 
adg

>  <m_score__min__energy>  (25) 
-10.98

>  <m_primary>  (25) 
energy

$$$$
26:0
     RDKit          3D

 38 40  0  0  0  0  0  0  0  0999 V2000
   -5.6890   25.6750  -30.4490 C   0  0  0  0  0  0  0  0  0  0  0  0
   -5.4630   24.3250  -29.7790 C   0  0  0  0  0  0  0  0  0  0  0  0
   -6.2370   23.2900  -30.4550 N   0  0  0  0  0  0  0  0  0  0  0  0
   -5.8560   22.6130  -31.5610 C   0  0  0  0  0  0  0  0  0  0  0  0
   -6.8880   21.7740  -31.9050 C   0  0  0  0  0  0  0  0  0  0  0  0
   -7.8790   22.0240  -30.9970 C   0  0  0  0  0  0  0  0  0  0  0  0
   -7.4700   22.9430  -30.1040 N   0  0  0  0  0  0  0  0  0  0  0  0
   -9.1850   21.2990  -30.9950 C   0  0  0  0  0  0  0  0  0  0  0  0
   -9.3920   20.5770  -32.3490 C   0  0  0  0  0  0  0  0  0  0  0  0
   -8.1630   19.8970  -32.8520 N   0  0  2  0  0  0  0  0  0  0  0  0
   -7.7570   18.7840  -31.9550 C   0  0  0  0  0  0  0  0  0  0  0  0
   -6.7090   17.8950  -32.5890 C   0  0  0  0  0  0  0  0  0  0  0  0
   -6.4890   17.9590  -33.9760 C   0  0  0  0  0  0  0  0  0  0  0  0
   -5.5170   17.1540  -34.5760 C   0  0  0  0  0  0  0  0  0  0  0  0
   -4.7570   16.2780  -33.7980 C   0  0  0  0  0  0  0  0  0  0  0  0
   -4.9660   16.2060  -32.4190 C   0  0  0  0  0  0  0  0  0  0  0  0
   -5.9380   17.0100  -31.8110 C   0  0  0  0  0  0  0  0  0  0  0  0
   -6.1190   16.9260  -30.4690 F   0  0  0  0  0  0  0  0  0  0  0  0
   -7.0610   20.8710  -33.0850 C   0  0  0  0  0  0  0  0  0  0  0  0
   -5.8187   26.4495  -29.6787 H   0  0  0  0  0  0  0  0  0  0  0  0
   -4.8199   25.9233  -31.0759 H   0  0  0  0  0  0  0  0  0  0  0  0
   -6.5916   25.6267  -31.0759 H   0  0  0  0  0  0  0  0  0  0  0  0
   -4.3942   24.0696  -29.8282 H   0  0  0  0  0  0  0  0  0  0  0  0
   -5.7870   24.3870  -28.7296 H   0  0  0  0  0  0  0  0  0  0  0  0
   -4.8962   22.7150  -32.0886 H   0  0  0  0  0  0  0  0  0  0  0  0
   -9.1888   20.5575  -30.1825 H   0  0  0  0  0  0  0  0  0  0  0  0
   -9.9995   22.0227  -30.8435 H   0  0  0  0  0  0  0  0  0  0  0  0
  -10.1820   19.8218  -32.2242 H   0  0  0  0  0  0  0  0  0  0  0  0
   -9.6638   21.3449  -33.0882 H   0  0  0  0  0  0  0  0  0  0  0  0
   -8.4150   19.4870  -33.7830 H   0  0  0  0  0  0  0  0  0  0  0  0
   -7.3475   19.2083  -31.0264 H   0  0  0  0  0  0  0  0  0  0  0  0
   -8.6466   18.1689  -31.7546 H   0  0  0  0  0  0  0  0  0  0  0  0
   -7.0857   18.6471  -34.5929 H   0  0  0  0  0  0  0  0  0  0  0  0
   -5.3504   17.2104  -35.6618 H   0  0  0  0  0  0  0  0  0  0  0  0
   -3.9930   15.6441  -34.2718 H   0  0  0  0  0  0  0  0  0  0  0  0
   -4.3653   15.5156  -31.8086 H   0  0  0  0  0  0  0  0  0  0  0  0
   -6.1244   20.3206  -33.2576 H   0  0  0  0  0  0  0  0  0  0  0  0
   -7.3137   21.4842  -33.9626 H   0  0  0  0  0  0  0  0  0  0  0  0
  1  2  1  0
  2  3  1  0
  3  4  1  0
  4  5  2  0
  5  6  1  0
  6  7  2  0
  6  8  1  0
  8  9  1  0
  9 10  1  0
 10 11  1  0
 11 12  1  0
 12 13  2  0
 13 14  1  0
 14 15  2  0
 15 16  1  0
 16 17  2  0
 17 18  1  0
 10 19  1  0
  7  3  1  0
 17 12  1  0
 19  5  1  0
  1 20  1  0
  1 21  1  0
  1 22  1  0
  2 23  1  0
  2 24  1  0
  4 25  1  0
  8 26  1  0
  8 27  1  0
  9 28  1  0
  9 29  1  0
 10 30  1  6
 11 31  1  0
 11 32  1  0
 13 33  1  0
 14 34  1  0
 15 35  1  0
 16 36  1  0
 19 37  1  0
 19 38  1  0
M  CHG  1  10   1
M  END
>  <UniqueID>  (26) 
26

>  <SMILES>  (26) 
CCn1cc2c(n1)CC[N@H+](Cc1ccccc1F)C2

>  <Energy>  (26) 
73.8503868989257

>  <Genealogy>  (26) 
CCn1cc2c(n1)CC[NH+](Cc1ccccc1F)C2 (protonated)
CCn1cc2c(n1)CC[N@H+](Cc1ccccc1F)C2 (chirality)
CCn1cc2c(n1)CC[N@H+](Cc1ccccc1F)C2 (3D coordinates assigned)
CCn1cc2c(n1)CC[N@H+](Cc1ccccc1F)C2 (nonaromatic ring conformer: 73.8503868989257 kcal/mol)

>  <smiles>  (26) 
CCn1cc2c(n1)CCN(Cc1ccccc1F)C2

>  <score_type>  (26) 
oracle

>  <origin>  (26) 
adg

>  <m_score__min__energy>  (26) 
-6.71

>  <m_primary>  (26) 
energy

$$$$
27:0
     RDKit          3D

 39 40  0  0  0  0  0  0  0  0999 V2000
   -1.4420   24.9110  -28.3180 C   0  0  0  0  0  0  0  0  0  0  0  0
   -2.3480   25.2860  -29.3500 O   0  0  0  0  0  0  0  0  0  0  0  0
   -3.4860   24.5500  -29.7110 C   0  0  0  0  0  0  0  0  0  0  0  0
   -3.3560   23.1680  -29.8900 C   0  0  0  0  0  0  0  0  0  0  0  0
   -4.4600   22.3900  -30.2530 C   0  0  0  0  0  0  0  0  0  0  0  0
   -5.7130   22.9910  -30.4580 C   0  0  0  0  0  0  0  0  0  0  0  0
   -6.8690   22.2120  -30.8090 N   0  0  0  0  0  0  0  0  0  0  0  0
   -7.6910   22.4690  -31.9600 C   0  0  0  0  0  0  0  0  0  0  0  0
   -7.4430   23.4570  -32.7050 O   0  0  0  0  0  0  0  0  0  0  0  0
   -8.8770   21.5730  -32.2620 C   0  0  2  0  0  0  0  0  0  0  0  0
   -9.8750   21.5540  -31.0950 C   0  0  0  0  0  0  0  0  0  0  0  0
   -8.4890   20.1930  -32.6600 N   0  0  0  0  0  0  0  0  0  0  0  0
   -7.1510   20.1090  -33.2920 C   0  0  0  0  0  0  0  0  0  0  0  0
   -6.1240   19.4520  -32.3520 C   0  0  0  0  0  0  0  0  0  0  0  0
   -6.4790   18.1370  -31.9400 O   0  0  0  0  0  0  0  0  0  0  0  0
   -7.8800   17.8980  -31.9240 C   0  0  0  0  0  0  0  0  0  0  0  0
   -8.7140   19.1550  -31.6280 C   0  0  0  0  0  0  0  0  0  0  0  0
   -5.8510   24.3710  -30.2570 C   0  0  0  0  0  0  0  0  0  0  0  0
   -4.7470   25.1490  -29.8950 C   0  0  0  0  0  0  0  0  0  0  0  0
   -1.9033   25.1019  -27.3378 H   0  0  0  0  0  0  0  0  0  0  0  0
   -1.2048   23.8408  -28.4094 H   0  0  0  0  0  0  0  0  0  0  0  0
   -0.5178   25.5005  -28.4094 H   0  0  0  0  0  0  0  0  0  0  0  0
   -2.3764   22.6893  -29.7438 H   0  0  0  0  0  0  0  0  0  0  0  0
   -4.3467   21.3031  -30.3785 H   0  0  0  0  0  0  0  0  0  0  0  0
   -7.1820   21.4820  -30.1300 H   0  0  0  0  0  0  0  0  0  0  0  0
   -9.3745   22.0153  -33.1377 H   0  0  0  0  0  0  0  0  0  0  0  0
   -9.3253   21.5645  -30.1423 H   0  0  0  0  0  0  0  0  0  0  0  0
  -10.5244   22.4399  -31.1534 H   0  0  0  0  0  0  0  0  0  0  0  0
  -10.4902   20.6440  -31.1534 H   0  0  0  0  0  0  0  0  0  0  0  0
   -7.2271   19.5112  -34.2122 H   0  0  0  0  0  0  0  0  0  0  0  0
   -6.8101   21.1305  -33.5161 H   0  0  0  0  0  0  0  0  0  0  0  0
   -5.1577   19.4021  -32.8752 H   0  0  0  0  0  0  0  0  0  0  0  0
   -6.0806   20.0708  -31.4436 H   0  0  0  0  0  0  0  0  0  0  0  0
   -8.1776   17.5067  -32.9080 H   0  0  0  0  0  0  0  0  0  0  0  0
   -8.0764   17.1814  -31.1128 H   0  0  0  0  0  0  0  0  0  0  0  0
   -9.7803   18.8850  -31.6151 H   0  0  0  0  0  0  0  0  0  0  0  0
   -8.4081   19.5580  -30.6513 H   0  0  0  0  0  0  0  0  0  0  0  0
   -6.8350   24.8457  -30.3849 H   0  0  0  0  0  0  0  0  0  0  0  0
   -4.8641   26.2335  -29.7534 H   0  0  0  0  0  0  0  0  0  0  0  0
  1  2  1  0
  2  3  1  0
  3  4  2  0
  4  5  1  0
  5  6  2  0
  6  7  1  0
  7  8  1  0
  8  9  2  0
  8 10  1  0
 10 11  1  0
 10 12  1  0
 12 13  1  0
 13 14  1  0
 14 15  1  0
 15 16  1  0
 16 17  1  0
  6 18  1  0
 18 19  2  0
 19  3  1  0
 17 12  1  0
  1 20  1  0
  1 21  1  0
  1 22  1  0
  4 23  1  0
  5 24  1  0
  7 25  1  0
 10 26  1  6
 11 27  1  0
 11 28  1  0
 11 29  1  0
 13 30  1  0
 13 31  1  0
 14 32  1  0
 14 33  1  0
 16 34  1  0
 16 35  1  0
 17 36  1  0
 17 37  1  0
 18 38  1  0
 19 39  1  0
M  END
>  <UniqueID>  (27) 
27

>  <SMILES>  (27) 
COc1ccc(NC(=O)[C@H](C)N2CCOCC2)cc1

>  <Energy>  (27) 
56.91804336734978

>  <Genealogy>  (27) 
COc1ccc(NC(=O)[C@H](C)N2CCOCC2)cc1 (chirality)
COc1ccc(NC(=O)[C@H](C)N2CCOCC2)cc1 (3D coordinates assigned)
COc1ccc(NC(=O)[C@H](C)N2CCOCC2)cc1 (nonaromatic ring conformer: 56.91804336734978 kcal/mol)

>  <smiles>  (27) 
COc1ccc(NC(=O)C(C)N2CCOCC2)cc1

>  <score_type>  (27) 
oracle

>  <origin>  (27) 
adg

>  <m_score__min__energy>  (27) 
-7.0700000000000003

>  <m_primary>  (27) 
energy

$$$$
28:0
     RDKit          3D

 36 38  0  0  0  0  0  0  0  0999 V2000
   -3.9580   24.1780  -27.7330 C   0  0  0  0  0  0  0  0  0  0  0  0
   -3.4050   23.9020  -29.0580 N   0  0  0  0  0  0  0  0  0  0  0  0
   -2.1170   23.2190  -29.2270 C   0  0  0  0  0  0  0  0  0  0  0  0
   -2.0060   22.0730  -28.2600 C   0  0  0  0  0  0  0  0  0  0  0  0
   -1.2240   22.1960  -27.0990 C   0  0  0  0  0  0  0  0  0  0  0  0
   -1.1960   21.1630  -26.1560 C   0  0  0  0  0  0  0  0  0  0  0  0
   -1.9480   20.0040  -26.3650 C   0  0  0  0  0  0  0  0  0  0  0  0
   -2.7310   19.8760  -27.5150 C   0  0  0  0  0  0  0  0  0  0  0  0
   -2.7640   20.9080  -28.4580 C   0  0  0  0  0  0  0  0  0  0  0  0
   -4.1850   24.2270  -30.2140 C   0  0  0  0  0  0  0  0  0  0  0  0
   -3.9500   25.2970  -30.8340 O   0  0  0  0  0  0  0  0  0  0  0  0
   -5.2740   23.3280  -30.6520 C   0  0  0  0  0  0  0  0  0  0  0  0
   -6.6080   23.4500  -30.2310 C   0  0  0  0  0  0  0  0  0  0  0  0
   -7.2620   22.4830  -30.9480 C   0  0  0  0  0  0  0  0  0  0  0  0
   -8.8190   21.9190  -31.1830 S   0  0  0  0  0  0  0  0  0  0  0  0
   -8.3170   20.7750  -32.3530 C   0  0  0  0  0  0  0  0  0  0  0  0
   -6.9300   20.8580  -32.5520 C   0  0  0  0  0  0  0  0  0  0  0  0
   -6.3880   21.8400  -31.7290 C   0  0  0  0  0  0  0  0  0  0  0  0
   -5.1440   22.3270  -31.5760 N   0  0  0  0  0  0  0  0  0  0  0  0
   -3.9420   21.9260  -32.3070 C   0  0  0  0  0  0  0  0  0  0  0  0
   -3.2557   23.8275  -26.9623 H   0  0  0  0  0  0  0  0  0  0  0  0
   -4.1161   25.2607  -27.6199 H   0  0  0  0  0  0  0  0  0  0  0  0
   -4.9182   23.6535  -27.6199 H   0  0  0  0  0  0  0  0  0  0  0  0
   -2.0413   22.8354  -30.2552 H   0  0  0  0  0  0  0  0  0  0  0  0
   -1.3036   23.9334  -29.0318 H   0  0  0  0  0  0  0  0  0  0  0  0
   -0.6318   23.1077  -26.9311 H   0  0  0  0  0  0  0  0  0  0  0  0
   -0.5815   21.2632  -25.2492 H   0  0  0  0  0  0  0  0  0  0  0  0
   -1.9235   19.1918  -25.6236 H   0  0  0  0  0  0  0  0  0  0  0  0
   -3.3219   18.9628  -27.6787 H   0  0  0  0  0  0  0  0  0  0  0  0
   -3.3867   20.8066  -29.3591 H   0  0  0  0  0  0  0  0  0  0  0  0
   -7.0284   24.1551  -29.4988 H   0  0  0  0  0  0  0  0  0  0  0  0
   -8.9859   20.0746  -32.8746 H   0  0  0  0  0  0  0  0  0  0  0  0
   -6.3557   20.2375  -33.2556 H   0  0  0  0  0  0  0  0  0  0  0  0
   -3.1491   21.6615  -31.5919 H   0  0  0  0  0  0  0  0  0  0  0  0
   -4.1707   21.0555  -32.9394 H   0  0  0  0  0  0  0  0  0  0  0  0
   -3.6023   22.7595  -32.9394 H   0  0  0  0  0  0  0  0  0  0  0  0
  1  2  1  0
  2  3  1  0
  3  4  1  0
  4  5  2  0
  5  6  1  0
  6  7  2  0
  7  8  1  0
  8  9  2  0
  2 10  1  0
 10 11  2  0
 10 12  1  0
 12 13  2  0
 13 14  1  0
 14 15  1  0
 15 16  1  0
 16 17  2  0
 17 18  1  0
 18 19  1  0
 19 20  1  0
  9  4  1  0
 19 12  1  0
 18 14  2  0
  1 21  1  0
  1 22  1  0
  1 23  1  0
  3 24  1  0
  3 25  1  0
  5 26  1  0
  6 27  1  0
  7 28  1  0
  8 29  1  0
  9 30  1  0
 13 31  1  0
 16 32  1  0
 17 33  1  0
 20 34  1  0
 20 35  1  0
 20 36  1  0
M  END
>  <UniqueID>  (28) 
28

>  <SMILES>  (28) 
CN(Cc1ccccc1)C(=O)c1cc2sccc2n1C

>  <Energy>  (28) 
113.82027341801174

>  <Genealogy>  (28) 
CN(Cc1ccccc1)C(=O)c1cc2sccc2n1C (3D coordinates assigned)
CN(Cc1ccccc1)C(=O)c1cc2sccc2n1C (optimized conformer: 113.82027341801174 kcal/mol)

>  <smiles>  (28) 
CN(Cc1ccccc1)C(=O)c1cc2sccc2n1C

>  <score_type>  (28) 
oracle

>  <origin>  (28) 
adg

>  <m_score__min__energy>  (28) 
-7.46

>  <m_primary>  (28) 
energy

$$$$
29:0
     RDKit          3D

 32 32  0  0  0  0  0  0  0  0999 V2000
   -9.1170   19.7160  -32.3040 C   0  0  0  0  0  0  0  0  0  0  0  0
   -9.4880   21.1570  -31.9580 C   0  0  0  0  0  0  0  0  0  0  0  0
   -8.2480   22.0380  -31.7620 C   0  0  0  0  0  0  0  0  0  0  0  0
   -7.1860   21.6690  -32.7140 N   0  0  0  0  0  0  0  0  0  0  0  0
   -6.0020   21.1020  -32.0480 C   0  0  0  0  0  0  0  0  0  0  0  0
   -4.6990   21.8240  -32.4740 C   0  0  0  0  0  0  0  0  0  0  0  0
   -4.4050   23.0570  -31.7120 N   0  0  0  0  0  0  0  0  0  0  0  0
   -3.7710   22.8210  -30.4040 C   0  0  0  0  0  0  0  0  0  0  0  0
   -3.3120   24.1660  -29.8010 C   0  0  0  0  0  0  0  0  0  0  0  0
   -3.8780   25.2870  -30.4610 O   0  0  0  0  0  0  0  0  0  0  0  0
   -5.2720   25.1090  -30.6130 C   0  0  0  0  0  0  0  0  0  0  0  0
   -5.5670   23.9620  -31.5990 C   0  0  0  0  0  0  0  0  0  0  0  0
   -8.9694   19.1427  -31.3769 H   0  0  0  0  0  0  0  0  0  0  0  0
   -9.9270   19.2599  -32.8921 H   0  0  0  0  0  0  0  0  0  0  0  0
   -8.1875   19.7078  -32.8921 H   0  0  0  0  0  0  0  0  0  0  0  0
  -10.0942   21.5738  -32.7758 H   0  0  0  0  0  0  0  0  0  0  0  0
  -10.0498   21.1456  -31.0123 H   0  0  0  0  0  0  0  0  0  0  0  0
   -8.5250   23.0905  -31.9215 H   0  0  0  0  0  0  0  0  0  0  0  0
   -7.8703   21.8912  -30.7394 H   0  0  0  0  0  0  0  0  0  0  0  0
   -6.9090   22.5150  -33.2650 H   0  0  0  0  0  0  0  0  0  0  0  0
   -6.1243   21.2017  -30.9594 H   0  0  0  0  0  0  0  0  0  0  0  0
   -5.9184   20.0454  -32.3422 H   0  0  0  0  0  0  0  0  0  0  0  0
   -3.8592   21.1268  -32.3372 H   0  0  0  0  0  0  0  0  0  0  0  0
   -4.8379   22.1288  -33.5217 H   0  0  0  0  0  0  0  0  0  0  0  0
   -4.4950   22.3443  -29.7269 H   0  0  0  0  0  0  0  0  0  0  0  0
   -2.8996   22.1624  -30.5339 H   0  0  0  0  0  0  0  0  0  0  0  0
   -3.6080   24.1955  -28.7420 H   0  0  0  0  0  0  0  0  0  0  0  0
   -2.2204   24.2274  -29.9219 H   0  0  0  0  0  0  0  0  0  0  0  0
   -5.7146   24.8682  -29.6352 H   0  0  0  0  0  0  0  0  0  0  0  0
   -5.7075   26.0383  -31.0088 H   0  0  0  0  0  0  0  0  0  0  0  0
   -6.4354   23.3909  -31.2388 H   0  0  0  0  0  0  0  0  0  0  0  0
   -5.7766   24.3928  -32.5892 H   0  0  0  0  0  0  0  0  0  0  0  0
  1  2  1  0
  2  3  1  0
  3  4  1  0
  4  5  1  0
  5  6  1  0
  6  7  1  0
  7  8  1  0
  8  9  1  0
  9 10  1  0
 10 11  1  0
 11 12  1  0
 12  7  1  0
  1 13  1  0
  1 14  1  0
  1 15  1  0
  2 16  1  0
  2 17  1  0
  3 18  1  0
  3 19  1  0
  4 20  1  0
  5 21  1  0
  5 22  1  0
  6 23  1  0
  6 24  1  0
  8 25  1  0
  8 26  1  0
  9 27  1  0
  9 28  1  0
 11 29  1  0
 11 30  1  0
 12 31  1  0
 12 32  1  0
M  END
>  <UniqueID>  (29) 
29

>  <SMILES>  (29) 
CCCNCCN1CCOCC1

>  <Energy>  (29) 
36.92589146843001

>  <Genealogy>  (29) 
CCCNCCN1CCOCC1 (3D coordinates assigned)
CCCNCCN1CCOCC1 (nonaromatic ring conformer: 36.92589146843001 kcal/mol)

>  <smiles>  (29) 
CCCNCCN1CCOCC1

>  <score_type>  (29) 
oracle

>  <origin>  (29) 
adg

>  <m_score__min__energy>  (29) 
-5.5199999999999996

>  <m_primary>  (29) 
energy

$$$$
30:0
     RDKit          3D

 65 68  0  0  0  0  0  0  0  0999 V2000
   -5.9970   24.8720  -29.3730 N   0  0  0  0  0  0  0  0  0  0  0  0
   -5.4840   23.8120  -30.2440 C   0  0  1  0  0  0  0  0  0  0  0  0
   -6.2930   23.8040  -31.5580 C   0  0  0  0  0  0  0  0  0  0  0  0
   -6.9910   22.4900  -31.7970 C   0  0  0  0  0  0  0  0  0  0  0  0
   -8.2880   22.2810  -31.3030 C   0  0  0  0  0  0  0  0  0  0  0  0
   -8.9210   21.0490  -31.4850 C   0  0  0  0  0  0  0  0  0  0  0  0
   -8.2660   20.0150  -32.1610 C   0  0  0  0  0  0  0  0  0  0  0  0
   -8.8890   18.8220  -32.3270 F   0  0  0  0  0  0  0  0  0  0  0  0
   -6.9720   20.2160  -32.6610 C   0  0  0  0  0  0  0  0  0  0  0  0
   -6.0580   18.8060  -33.5740 Br  0  0  0  0  0  0  0  0  0  0  0  0
   -6.3380   21.4510  -32.4810 C   0  0  0  0  0  0  0  0  0  0  0  0
   -3.9880   24.0040  -30.4800 C   0  0  0  0  0  0  0  0  0  0  0  0
   -3.5390   25.1430  -30.4730 O   0  0  0  0  0  0  0  0  0  0  0  0
   -3.0790   22.8860  -30.7040 N   0  0  0  0  0  0  0  0  0  0  0  0
   -1.7540   23.1320  -30.0780 C   0  0  0  0  0  0  0  0  0  0  0  0
   -0.9210   21.8480  -29.9940 C   0  0  0  0  0  0  0  0  0  0  0  0
   -1.6560   20.8150  -29.2530 N   0  0  0  0  0  0  0  0  0  0  0  0
   -0.9670   19.6270  -28.8260 C   0  0  0  0  0  0  0  0  0  0  0  0
   -0.1330   18.9650  -29.7420 C   0  0  0  0  0  0  0  0  0  0  0  0
    0.5720   17.8220  -29.3680 C   0  0  0  0  0  0  0  0  0  0  0  0
    0.4590   17.3260  -28.0700 C   0  0  0  0  0  0  0  0  0  0  0  0
   -0.3630   17.9700  -27.1450 C   0  0  0  0  0  0  0  0  0  0  0  0
   -1.0900   19.1200  -27.5040 C   0  0  0  0  0  0  0  0  0  0  0  0
   -1.9610   19.7800  -26.4510 C   0  0  0  0  0  0  0  0  0  0  0  0
   -1.2600   20.8280  -25.6940 N   0  0  0  0  0  0  0  0  0  0  0  0
   -1.2380   22.1080  -26.4110 C   0  0  0  0  0  0  0  0  0  0  0  0
   -0.1600   23.0110  -25.8090 C   0  0  0  0  0  0  0  0  0  0  0  0
   -0.6920   24.3810  -25.5090 C   0  0  0  0  0  0  0  0  0  0  0  0
   -0.4860   25.0880  -24.3310 C   0  0  0  0  0  0  0  0  0  0  0  0
   -1.0040   26.3880  -24.3670 C   0  0  0  0  0  0  0  0  0  0  0  0
   -1.6020   26.7170  -25.5760 C   0  0  0  0  0  0  0  0  0  0  0  0
   -1.4870   25.3860  -26.6000 S   0  0  0  0  0  0  0  0  0  0  0  0
   -3.1090   20.9360  -29.0970 C   0  0  0  0  0  0  0  0  0  0  0  0
   -3.7090   21.5810  -30.3510 C   0  0  0  0  0  0  0  0  0  0  0  0
   -5.2840   25.6340  -29.2920 H   0  0  0  0  0  0  0  0  0  0  0  0
   -6.1530   24.4880  -28.4140 H   0  0  0  0  0  0  0  0  0  0  0  0
   -5.6067   22.8294  -29.7651 H   0  0  0  0  0  0  0  0  0  0  0  0
   -7.0488   24.6019  -31.5120 H   0  0  0  0  0  0  0  0  0  0  0  0
   -5.5872   23.9635  -32.3865 H   0  0  0  0  0  0  0  0  0  0  0  0
   -8.8083   23.0907  -30.7703 H   0  0  0  0  0  0  0  0  0  0  0  0
   -9.9376   20.8919  -31.0954 H   0  0  0  0  0  0  0  0  0  0  0  0
   -5.3239   21.6087  -32.8769 H   0  0  0  0  0  0  0  0  0  0  0  0
   -2.8970   22.8490  -31.7370 H   0  0  0  0  0  0  0  0  0  0  0  0
   -1.2073   23.8732  -30.6795 H   0  0  0  0  0  0  0  0  0  0  0  0
   -1.9205   23.5009  -29.0552 H   0  0  0  0  0  0  0  0  0  0  0  0
   -0.7093   21.4849  -31.0105 H   0  0  0  0  0  0  0  0  0  0  0  0
    0.0211   22.0647  -29.4692 H   0  0  0  0  0  0  0  0  0  0  0  0
   -0.0350   19.3531  -30.7666 H   0  0  0  0  0  0  0  0  0  0  0  0
    1.2178   17.3112  -30.0974 H   0  0  0  0  0  0  0  0  0  0  0  0
    1.0185   16.4260  -27.7750 H   0  0  0  0  0  0  0  0  0  0  0  0
   -0.4439   17.5738  -26.1220 H   0  0  0  0  0  0  0  0  0  0  0  0
   -2.8312   20.2316  -26.9498 H   0  0  0  0  0  0  0  0  0  0  0  0
   -2.2553   18.9996  -25.7338 H   0  0  0  0  0  0  0  0  0  0  0  0
   -1.7190   20.9640  -24.7650 H   0  0  0  0  0  0  0  0  0  0  0  0
   -1.0155   21.9294  -27.4734 H   0  0  0  0  0  0  0  0  0  0  0  0
   -2.2192   22.5968  -26.3191 H   0  0  0  0  0  0  0  0  0  0  0  0
    0.2053   22.5576  -24.8757 H   0  0  0  0  0  0  0  0  0  0  0  0
    0.6541   23.1108  -26.5420 H   0  0  0  0  0  0  0  0  0  0  0  0
    0.0327   24.6679  -23.4567 H   0  0  0  0  0  0  0  0  0  0  0  0
   -0.9430   27.0836  -23.5171 H   0  0  0  0  0  0  0  0  0  0  0  0
   -2.0703   27.6814  -25.8223 H   0  0  0  0  0  0  0  0  0  0  0  0
   -3.5463   19.9368  -28.9544 H   0  0  0  0  0  0  0  0  0  0  0  0
   -3.3313   21.5637  -28.2215 H   0  0  0  0  0  0  0  0  0  0  0  0
   -3.5765   20.8897  -31.1963 H   0  0  0  0  0  0  0  0  0  0  0  0
   -4.7700   21.7790  -30.1388 H   0  0  0  0  0  0  0  0  0  0  0  0
  1  2  1  0
  2  3  1  0
  3  4  1  0
  4  5  2  0
  5  6  1  0
  6  7  2  0
  7  8  1  0
  7  9  1  0
  9 10  1  0
  9 11  2  0
  2 12  1  0
 12 13  2  0
 12 14  1  0
 14 15  1  0
 15 16  1  0
 16 17  1  0
 17 18  1  0
 18 19  2  0
 19 20  1  0
 20 21  2  0
 21 22  1  0
 22 23  2  0
 23 24  1  0
 24 25  1  0
 25 26  1  0
 26 27  1  0
 27 28  1  0
 28 29  2  0
 29 30  1  0
 30 31  2  0
 31 32  1  0
 17 33  1  0
 33 34  1  0
 11  4  1  0
 34 14  1  0
 23 18  1  0
 32 28  1  0
  1 35  1  0
  1 36  1  0
  2 37  1  1
  3 38  1  0
  3 39  1  0
  5 40  1  0
  6 41  1  0
 11 42  1  0
 14 43  1  0
 15 44  1  0
 15 45  1  0
 16 46  1  0
 16 47  1  0
 19 48  1  0
 20 49  1  0
 21 50  1  0
 22 51  1  0
 24 52  1  0
 24 53  1  0
 25 54  1  0
 26 55  1  0
 26 56  1  0
 27 57  1  0
 27 58  1  0
 29 59  1  0
 30 60  1  0
 31 61  1  0
 33 62  1  0
 33 63  1  0
 34 64  1  0
 34 65  1  0
M  CHG  1  14   1
M  END
>  <UniqueID>  (30) 
30

>  <SMILES>  (30) 
N[C@@H](Cc1ccc(F)c(Br)c1)C(=O)[NH+]1CCN(c2ccccc2CNCCc2cccs2)CC1

>  <Energy>  (30) 
101.4346784759455

>  <Genealogy>  (30) 
NC(Cc1ccc(F)c(Br)c1)C(=O)[NH+]1CCN(c2ccccc2CNCCc2cccs2)CC1 (protonated)
N[C@@H](Cc1ccc(F)c(Br)c1)C(=O)[NH+]1CCN(c2ccccc2CNCCc2cccs2)CC1 (chirality)
N[C@@H](Cc1ccc(F)c(Br)c1)C(=O)[NH+]1CCN(c2ccccc2CNCCc2cccs2)CC1 (3D coordinates assigned)
N[C@@H](Cc1ccc(F)c(Br)c1)C(=O)[NH+]1CCN(c2ccccc2CNCCc2cccs2)CC1 (nonaromatic ring conformer: 101.4346784759455 kcal/mol)

>  <smiles>  (30) 
NC(Cc1ccc(F)c(Br)c1)C(=O)N1CCN(c2ccccc2CNCCc2cccs2)CC1

>  <score_type>  (30) 
oracle

>  <origin>  (30) 
adg

>  <m_score__min__energy>  (30) 
-10.33

>  <m_primary>  (30) 
energy

$$$$
31:0
     RDKit          3D

 12 11  0  0  1  0  0  0  0  0999 V2000
   -4.1470   23.0620  -27.8970 C   0  0  0  0  0  0  0  0  0  0  0  0
   -4.2100   24.3560  -28.5270 N   0  0  0  0  0  0  0  0  0  0  0  0
   -4.3130   24.4900  -29.9570 C   0  0  0  0  0  0  0  0  0  0  0  0
   -3.8760   25.6430  -30.5910 O   0  0  0  0  0  0  0  0  0  0  0  0
   -4.8170   23.5190  -30.6330 N   0  0  0  0  0  0  0  0  0  0  0  0
   -5.0900   23.7090  -31.9670 O   0  0  0  0  0  0  0  0  0  0  0  0
   -4.1530   23.1857  -26.8040 H   0  0  0  0  0  0  0  0  0  0  0  0
   -5.0170   22.4625  -28.2030 H   0  0  0  0  0  0  0  0  0  0  0  0
   -3.2229   22.5498  -28.2030 H   0  0  0  0  0  0  0  0  0  0  0  0
   -4.1850   25.2670  -27.9760 H   0  0  0  0  0  0  0  0  0  0  0  0
   -3.9740   25.6730  -31.6050 H   0  0  0  0  0  0  0  0  0  0  0  0
   -4.9790   24.6650  -32.2890 H   0  0  0  0  0  0  0  0  0  0  0  0
  1  2  1  0
  2  3  1  0
  3  4  1  0
  3  5  2  0
  5  6  1  0
  1  7  1  0
  1  8  1  0
  1  9  1  0
  2 10  1  0
  4 11  1  0
  6 12  1  0
M  END
>  <smiles>  (31) 
CNC(O)=NO

>  <score_type>  (31) 
oracle

>  <origin>  (31) 
adg

>  <m_score__min__energy>  (31) 
-4.1900000000000004

>  <m_primary>  (31) 
energy

$$$$
32:0
     RDKit          3D

 46 49  0  0  0  0  0  0  0  0999 V2000
   -5.3480   25.8320  -30.4480 C   0  0  0  0  0  0  0  0  0  0  0  0
   -4.0350   25.2800  -30.4930 O   0  0  0  0  0  0  0  0  0  0  0  0
   -3.7360   23.9220  -30.2980 C   0  0  0  0  0  0  0  0  0  0  0  0
   -3.4960   23.0450  -31.3750 C   0  0  0  0  0  0  0  0  0  0  0  0
   -3.1750   21.6950  -31.1400 C   0  0  0  0  0  0  0  0  0  0  0  0
   -2.8430   20.7770  -32.2530 C   0  0  0  0  0  0  0  0  0  0  0  0
   -1.6660   20.7410  -32.9850 C   0  0  0  0  0  0  0  0  0  0  0  0
   -1.7950   19.6790  -33.8560 C   0  0  0  0  0  0  0  0  0  0  0  0
   -3.0340   19.1320  -33.5970 C   0  0  0  0  0  0  0  0  0  0  0  0
   -3.6110   17.9160  -34.2530 C   0  0  0  0  0  0  0  0  0  0  0  0
   -4.8850   18.2320  -34.9220 N   0  0  0  0  0  0  0  0  0  0  0  0
   -6.0580   17.7700  -34.1600 C   0  0  0  0  0  0  0  0  0  0  0  0
   -6.6360   18.8930  -33.3500 C   0  0  0  0  0  0  0  0  0  0  0  0
   -7.8380   18.8300  -32.6470 C   0  0  0  0  0  0  0  0  0  0  0  0
   -8.0450   20.1130  -32.1860 C   0  0  0  0  0  0  0  0  0  0  0  0
   -9.1140   20.6600  -31.4790 C   0  0  0  0  0  0  0  0  0  0  0  0
   -9.0820   22.0390  -31.2050 C   0  0  0  0  0  0  0  0  0  0  0  0
   -7.9970   22.8310  -31.6440 C   0  0  0  0  0  0  0  0  0  0  0  0
   -6.9340   22.2500  -32.3610 C   0  0  0  0  0  0  0  0  0  0  0  0
   -6.9910   20.8790  -32.6110 C   0  0  0  0  0  0  0  0  0  0  0  0
   -6.1200   20.1430  -33.3210 N   0  0  0  0  0  0  0  0  0  0  0  0
   -3.6420   19.8170  -32.6580 O   0  0  0  0  0  0  0  0  0  0  0  0
   -3.1040   21.2310  -29.8180 C   0  0  0  0  0  0  0  0  0  0  0  0
   -3.3530   22.0930  -28.7500 C   0  0  0  0  0  0  0  0  0  0  0  0
   -3.6670   23.4370  -28.9860 C   0  0  0  0  0  0  0  0  0  0  0  0
   -3.9080   24.3000  -27.9180 O   0  0  0  0  0  0  0  0  0  0  0  0
   -5.6556   25.9613  -29.3998 H   0  0  0  0  0  0  0  0  0  0  0  0
   -5.3529   26.8083  -30.9547 H   0  0  0  0  0  0  0  0  0  0  0  0
   -6.0490   25.1524  -30.9547 H   0  0  0  0  0  0  0  0  0  0  0  0
   -3.5601   23.4187  -32.4076 H   0  0  0  0  0  0  0  0  0  0  0  0
   -0.8058   21.4200  -32.8906 H   0  0  0  0  0  0  0  0  0  0  0  0
   -1.0617   19.3391  -34.6022 H   0  0  0  0  0  0  0  0  0  0  0  0
   -2.8972   17.5367  -34.9991 H   0  0  0  0  0  0  0  0  0  0  0  0
   -3.7998   17.1567  -33.4798 H   0  0  0  0  0  0  0  0  0  0  0  0
   -4.8850   17.7200  -35.8350 H   0  0  0  0  0  0  0  0  0  0  0  0
   -6.8210   17.3991  -34.8602 H   0  0  0  0  0  0  0  0  0  0  0  0
   -5.7444   16.9655  -33.4785 H   0  0  0  0  0  0  0  0  0  0  0  0
   -8.4802   17.9502  -32.4937 H   0  0  0  0  0  0  0  0  0  0  0  0
   -9.9550   20.0339  -31.1463 H   0  0  0  0  0  0  0  0  0  0  0  0
   -9.9069   22.5042  -30.6453 H   0  0  0  0  0  0  0  0  0  0  0  0
   -7.9830   23.9087  -31.4240 H   0  0  0  0  0  0  0  0  0  0  0  0
   -6.0866   22.8570  -32.7124 H   0  0  0  0  0  0  0  0  0  0  0  0
   -5.2540   20.4800  -33.8000 H   0  0  0  0  0  0  0  0  0  0  0  0
   -2.8499   20.1788  -29.6220 H   0  0  0  0  0  0  0  0  0  0  0  0
   -3.3025   21.7154  -27.7181 H   0  0  0  0  0  0  0  0  0  0  0  0
   -4.1920   25.2610  -28.0660 H   0  0  0  0  0  0  0  0  0  0  0  0
  1  2  1  0
  2  3  1  0
  3  4  2  0
  4  5  1  0
  5  6  1  0
  6  7  2  0
  7  8  1  0
  8  9  2  0
  9 10  1  0
 10 11  1  0
 11 12  1  0
 12 13  1  0
 13 14  2  0
 14 15  1  0
 15 16  2  0
 16 17  1  0
 17 18  2  0
 18 19  1  0
 19 20  2  0
 20 21  1  0
  9 22  1  0
  5 23  2  0
 23 24  1  0
 24 25  2  0
 25 26  1  0
 25  3  1  0
 22  6  1  0
 21 13  1  0
 20 15  1  0
  1 27  1  0
  1 28  1  0
  1 29  1  0
  4 30  1  0
  7 31  1  0
  8 32  1  0
 10 33  1  0
 10 34  1  0
 11 35  1  0
 12 36  1  0
 12 37  1  0
 14 38  1  0
 16 39  1  0
 17 40  1  0
 18 41  1  0
 19 42  1  0
 21 43  1  0
 23 44  1  0
 24 45  1  0
 26 46  1  0
M  END
>  <UniqueID>  (32) 
31

>  <SMILES>  (32) 
COc1cc(-c2ccc(CNCc3cc4ccccc4[nH]3)o2)ccc1O

>  <Energy>  (32) 
100.38230903518998

>  <Genealogy>  (32) 
COc1cc(-c2ccc(CNCc3cc4ccccc4[nH]3)o2)ccc1O (3D coordinates assigned)
COc1cc(-c2ccc(CNCc3cc4ccccc4[nH]3)o2)ccc1O (optimized conformer: 100.38230903518998 kcal/mol)

>  <smiles>  (32) 
COc1cc(-c2ccc(CNCc3cc4ccccc4[nH]3)o2)ccc1O

>  <score_type>  (32) 
oracle

>  <origin>  (32) 
adg

>  <m_score__min__energy>  (32) 
-8.9399999999999995

>  <m_primary>  (32) 
energy

$$$$
33:0
     RDKit          3D

 38 42  0  0  0  0  0  0  0  0999 V2000
   -9.8740   20.0770  -32.3380 C   0  0  0  0  0  0  0  0  0  0  0  0
   -9.2280   21.1880  -31.7980 C   0  0  0  0  0  0  0  0  0  0  0  0
   -7.8390   21.0470  -31.7920 C   0  0  0  0  0  0  0  0  0  0  0  0
   -6.9700   21.9580  -31.2920 N   0  0  0  0  0  0  0  0  0  0  0  0
   -5.6280   21.6980  -31.3080 C   0  0  0  0  0  0  0  0  0  0  0  0
   -4.6700   22.6870  -30.7580 C   0  0  0  0  0  0  0  0  0  0  0  0
   -5.0890   24.0200  -30.4790 C   0  0  0  0  0  0  0  0  0  0  0  0
   -4.1880   24.9670  -29.9570 C   0  0  0  0  0  0  0  0  0  0  0  0
   -2.8800   24.5570  -29.7260 C   0  0  0  0  0  0  0  0  0  0  0  0
   -1.8610   25.2830  -29.2370 N   0  0  0  0  0  0  0  0  0  0  0  0
   -0.7990   24.4830  -29.1870 N   0  0  0  0  0  0  0  0  0  0  0  0
   -1.1420   23.2540  -29.6410 C   0  0  0  0  0  0  0  0  0  0  0  0
   -2.4700   23.2860  -29.9890 C   0  0  0  0  0  0  0  0  0  0  0  0
   -3.3250   22.3180  -30.5050 C   0  0  0  0  0  0  0  0  0  0  0  0
   -5.1730   20.5180  -31.8300 N   0  0  0  0  0  0  0  0  0  0  0  0
   -6.0170   19.5790  -32.3510 C   0  0  0  0  0  0  0  0  0  0  0  0
   -5.4800   18.3550  -32.8850 N   0  0  0  0  0  0  0  0  0  0  0  0
   -5.8590   17.0470  -32.3450 C   0  0  0  0  0  0  0  0  0  0  0  0
   -5.9520   16.0270  -33.4840 C   0  0  0  0  0  0  0  0  0  0  0  0
   -4.7690   16.0290  -34.2600 O   0  0  0  0  0  0  0  0  0  0  0  0
   -4.6260   17.2760  -34.9130 C   0  0  0  0  0  0  0  0  0  0  0  0
   -4.4200   18.4030  -33.8960 C   0  0  0  0  0  0  0  0  0  0  0  0
   -7.3870   19.8570  -32.3240 C   0  0  0  0  0  0  0  0  0  0  0  0
   -8.7120   18.9350  -32.7950 S   0  0  0  0  0  0  0  0  0  0  0  0
  -10.9623   19.9615  -32.4490 H   0  0  0  0  0  0  0  0  0  0  0  0
   -9.7539   22.0766  -31.4189 H   0  0  0  0  0  0  0  0  0  0  0  0
   -6.1311   24.3130  -30.6743 H   0  0  0  0  0  0  0  0  0  0  0  0
   -4.5080   25.9966  -29.7392 H   0  0  0  0  0  0  0  0  0  0  0  0
   -0.4742   22.3833  -29.7175 H   0  0  0  0  0  0  0  0  0  0  0  0
   -2.9686   21.2978  -30.7104 H   0  0  0  0  0  0  0  0  0  0  0  0
   -5.1009   16.7171  -31.6194 H   0  0  0  0  0  0  0  0  0  0  0  0
   -6.8363   17.1273  -31.8465 H   0  0  0  0  0  0  0  0  0  0  0  0
   -6.1019   15.0239  -33.0581 H   0  0  0  0  0  0  0  0  0  0  0  0
   -6.7983   16.2991  -34.1319 H   0  0  0  0  0  0  0  0  0  0  0  0
   -3.7562   17.2334  -35.5850 H   0  0  0  0  0  0  0  0  0  0  0  0
   -5.5427   17.4811  -35.4853 H   0  0  0  0  0  0  0  0  0  0  0  0
   -3.4423   18.2802  -33.4070 H   0  0  0  0  0  0  0  0  0  0  0  0
   -4.4542   19.3726  -34.4144 H   0  0  0  0  0  0  0  0  0  0  0  0
  1  2  2  0
  2  3  1  0
  3  4  2  0
  4  5  1  0
  5  6  1  0
  6  7  2  0
  7  8  1  0
  8  9  2  0
  9 10  1  0
 10 11  1  0
 11 12  2  0
 12 13  1  0
 13 14  2  0
  5 15  2  0
 15 16  1  0
 16 17  1  0
 17 18  1  0
 18 19  1  0
 19 20  1  0
 20 21  1  0
 21 22  1  0
 16 23  2  0
 23 24  1  0
 24  1  1  0
 23  3  1  0
 14  6  1  0
 22 17  1  0
 13  9  1  0
  1 25  1  0
  2 26  1  0
  7 27  1  0
  8 28  1  0
 12 29  1  0
 14 30  1  0
 18 31  1  0
 18 32  1  0
 19 33  1  0
 19 34  1  0
 21 35  1  0
 21 36  1  0
 22 37  1  0
 22 38  1  0
M  CHG  1  10  -1
M  END
>  <UniqueID>  (33) 
32

>  <SMILES>  (33) 
c1cc2nc(-c3ccc4[n-]ncc4c3)nc(N3CCOCC3)c2s1

>  <Energy>  (33) 
121.04960110609223

>  <Genealogy>  (33) 
c1cc2nc(-c3ccc4[n-]ncc4c3)nc(N3CCOCC3)c2s1 (protonated)
c1cc2nc(-c3ccc4[n-]ncc4c3)nc(N3CCOCC3)c2s1 (3D coordinates assigned)
c1cc2nc(-c3ccc4[n-]ncc4c3)nc(N3CCOCC3)c2s1 (nonaromatic ring conformer: 121.04960110609223 kcal/mol)

>  <smiles>  (33) 
c1cc2nc(-c3ccc4[nH]ncc4c3)nc(N3CCOCC3)c2s1

>  <score_type>  (33) 
oracle

>  <origin>  (33) 
adg

>  <m_score__min__energy>  (33) 
-9.5700000000000003

>  <m_primary>  (33) 
energy

$$$$
34:0
     RDKit          3D

 36 36  0  0  0  0  0  0  0  0999 V2000
   -5.7290   18.3370  -34.2540 C   0  0  0  0  0  0  0  0  0  0  0  0
   -6.4440   19.6790  -34.1190 C   0  0  0  0  0  0  0  0  0  0  0  0
   -6.6540   20.0230  -32.7070 N   0  0  0  0  0  0  0  0  0  0  0  0
   -7.1370   19.0150  -31.7560 C   0  0  0  0  0  0  0  0  0  0  0  0
   -8.5730   18.6140  -32.0750 C   0  0  0  0  0  0  0  0  0  0  0  0
   -6.1980   21.2950  -32.2190 C   0  0  0  0  0  0  0  0  0  0  0  0
   -4.8220   21.5470  -32.1060 C   0  0  0  0  0  0  0  0  0  0  0  0
   -3.9220   20.5390  -32.4880 O   0  0  0  0  0  0  0  0  0  0  0  0
   -2.8170   20.7290  -33.3660 C   0  0  0  0  0  0  0  0  0  0  0  0
   -4.3830   22.7940  -31.6250 C   0  0  0  0  0  0  0  0  0  0  0  0
   -5.3070   23.7850  -31.2550 C   0  0  0  0  0  0  0  0  0  0  0  0
   -4.8340   25.0940  -30.7510 C   0  0  0  0  0  0  0  0  0  0  0  0
   -5.6410   26.0480  -30.5860 O   0  0  0  0  0  0  0  0  0  0  0  0
   -3.4910   25.2920  -30.4530 O   0  0  0  0  0  0  0  0  0  0  0  0
   -6.6820   23.5170  -31.3690 C   0  0  0  0  0  0  0  0  0  0  0  0
   -7.1340   22.2740  -31.8460 C   0  0  0  0  0  0  0  0  0  0  0  0
   -8.5010   21.9720  -31.9600 O   0  0  0  0  0  0  0  0  0  0  0  0
   -9.3490   21.6400  -30.8650 C   0  0  0  0  0  0  0  0  0  0  0  0
   -5.5141   17.9337  -33.2534 H   0  0  0  0  0  0  0  0  0  0  0  0
   -6.3715   17.6328  -34.8029 H   0  0  0  0  0  0  0  0  0  0  0  0
   -4.7862   18.4775  -34.8029 H   0  0  0  0  0  0  0  0  0  0  0  0
   -5.8332   20.4614  -34.5930 H   0  0  0  0  0  0  0  0  0  0  0  0
   -7.4248   19.6050  -34.6115 H   0  0  0  0  0  0  0  0  0  0  0  0
   -6.4926   18.1255  -31.8150 H   0  0  0  0  0  0  0  0  0  0  0  0
   -7.1071   19.4429  -30.7431 H   0  0  0  0  0  0  0  0  0  0  0  0
   -9.1273   18.4592  -31.1376 H   0  0  0  0  0  0  0  0  0  0  0  0
   -9.0554   19.4118  -32.6588 H   0  0  0  0  0  0  0  0  0  0  0  0
   -8.5723   17.6817  -32.6588 H   0  0  0  0  0  0  0  0  0  0  0  0
   -1.9023   20.8863  -32.7755 H   0  0  0  0  0  0  0  0  0  0  0  0
   -2.6954   19.8386  -34.0003 H   0  0  0  0  0  0  0  0  0  0  0  0
   -2.9998   21.6089  -34.0003 H   0  0  0  0  0  0  0  0  0  0  0  0
   -3.3050   22.9950  -31.5378 H   0  0  0  0  0  0  0  0  0  0  0  0
   -7.4123   24.2879  -31.0820 H   0  0  0  0  0  0  0  0  0  0  0  0
   -8.8248   21.8452  -29.9199 H   0  0  0  0  0  0  0  0  0  0  0  0
  -10.2660   22.2455  -30.9147 H   0  0  0  0  0  0  0  0  0  0  0  0
   -9.6111   20.5728  -30.9147 H   0  0  0  0  0  0  0  0  0  0  0  0
  1  2  1  0
  2  3  1  0
  3  4  1  0
  4  5  1  0
  3  6  1  0
  6  7  2  0
  7  8  1  0
  8  9  1  0
  7 10  1  0
 10 11  2  0
 11 12  1  0
 12 13  2  0
 12 14  1  0
 11 15  1  0
 15 16  2  0
 16 17  1  0
 17 18  1  0
 16  6  1  0
  1 19  1  0
  1 20  1  0
  1 21  1  0
  2 22  1  0
  2 23  1  0
  4 24  1  0
  4 25  1  0
  5 26  1  0
  5 27  1  0
  5 28  1  0
  9 29  1  0
  9 30  1  0
  9 31  1  0
 10 32  1  0
 15 33  1  0
 18 34  1  0
 18 35  1  0
 18 36  1  0
M  CHG  1  14  -1
M  END
>  <UniqueID>  (34) 
33

>  <SMILES>  (34) 
CCN(CC)c1c(OC)cc(C(=O)[O-])cc1OC

>  <Energy>  (34) 
32.00432572475849

>  <Genealogy>  (34) 
CCN(CC)c1c(OC)cc(C(=O)[O-])cc1OC (protonated)
CCN(CC)c1c(OC)cc(C(=O)[O-])cc1OC (3D coordinates assigned)
CCN(CC)c1c(OC)cc(C(=O)[O-])cc1OC (optimized conformer: 32.00432572475849 kcal/mol)

>  <smiles>  (34) 
CCN(CC)c1c(OC)cc(C(=O)O)cc1OC

>  <score_type>  (34) 
oracle

>  <origin>  (34) 
adg

>  <m_score__min__energy>  (34) 
-7.6200000000000001

>  <m_primary>  (34) 
energy

$$$$
35:0
     RDKit          3D

 61 63  0  0  0  0  0  0  0  0999 V2000
   -3.1820   18.7150  -25.9840 C   0  0  0  0  0  0  0  0  0  0  0  0
   -2.5160   19.1250  -27.1750 O   0  0  0  0  0  0  0  0  0  0  0  0
   -2.2180   20.4580  -27.4980 C   0  0  0  0  0  0  0  0  0  0  0  0
   -1.3570   21.2470  -26.7160 C   0  0  0  0  0  0  0  0  0  0  0  0
   -1.0910   22.5710  -27.0790 C   0  0  0  0  0  0  0  0  0  0  0  0
   -1.6810   23.1290  -28.2300 C   0  0  0  0  0  0  0  0  0  0  0  0
   -1.4250   24.4500  -28.6330 O   0  0  0  0  0  0  0  0  0  0  0  0
   -1.1890   25.5360  -27.7420 C   0  0  0  0  0  0  0  0  0  0  0  0
   -2.5450   22.3390  -29.0090 C   0  0  0  0  0  0  0  0  0  0  0  0
   -3.1620   22.8830  -30.1850 N   0  0  0  0  0  0  0  0  0  0  0  0
   -2.7990   22.3800  -31.5120 C   0  0  0  0  0  0  0  0  0  0  0  0
   -3.6840   21.2390  -31.8950 C   0  0  0  0  0  0  0  0  0  0  0  0
   -4.9090   21.4410  -32.1160 O   0  0  0  0  0  0  0  0  0  0  0  0
   -3.1340   19.9220  -32.0030 N   0  0  0  0  0  0  0  0  0  0  0  0
   -2.8780   19.2560  -33.2740 C   0  0  0  0  0  0  0  0  0  0  0  0
   -4.1490   18.5370  -33.7740 C   0  0  0  0  0  0  0  0  0  0  0  0
   -5.3760   18.8290  -32.9900 N   0  0  0  0  0  0  0  0  0  0  0  0
   -5.8080   17.6760  -32.1650 C   0  0  0  0  0  0  0  0  0  0  0  0
   -7.2480   17.8640  -31.6440 C   0  0  0  0  0  0  0  0  0  0  0  0
   -7.5830   19.2370  -31.5990 O   0  0  0  0  0  0  0  0  0  0  0  0
   -7.6780   19.7580  -32.9150 C   0  0  0  0  0  0  0  0  0  0  0  0
   -6.4900   19.3410  -33.8130 C   0  0  0  0  0  0  0  0  0  0  0  0
   -4.3690   24.1260  -30.0280 S   0  0  0  0  0  0  0  0  0  0  0  0
   -4.4630   24.5370  -28.5850 O   0  0  0  0  0  0  0  0  0  0  0  0
   -3.9780   25.3300  -30.8390 O   0  0  0  0  0  0  0  0  0  0  0  0
   -5.9310   23.5420  -30.6010 C   0  0  0  0  0  0  0  0  0  0  0  0
   -6.7250   22.7160  -29.7920 C   0  0  0  0  0  0  0  0  0  0  0  0
   -7.9510   22.2380  -30.2650 C   0  0  0  0  0  0  0  0  0  0  0  0
   -8.3880   22.5770  -31.5490 C   0  0  0  0  0  0  0  0  0  0  0  0
   -9.5710   22.1010  -32.0110 F   0  0  0  0  0  0  0  0  0  0  0  0
   -7.5990   23.3970  -32.3600 C   0  0  0  0  0  0  0  0  0  0  0  0
   -6.3740   23.8800  -31.8880 C   0  0  0  0  0  0  0  0  0  0  0  0
   -2.8050   21.0120  -28.6400 C   0  0  0  0  0  0  0  0  0  0  0  0
   -2.6152   19.0640  -25.1083 H   0  0  0  0  0  0  0  0  0  0  0  0
   -4.1933   19.1471  -25.9621 H   0  0  0  0  0  0  0  0  0  0  0  0
   -3.2517   17.6174  -25.9621 H   0  0  0  0  0  0  0  0  0  0  0  0
   -0.8907   20.8215  -25.8152 H   0  0  0  0  0  0  0  0  0  0  0  0
   -0.4160   23.1813  -26.4611 H   0  0  0  0  0  0  0  0  0  0  0  0
   -1.2660   25.1816  -26.7035 H   0  0  0  0  0  0  0  0  0  0  0  0
   -0.1817   25.9418  -27.9172 H   0  0  0  0  0  0  0  0  0  0  0  0
   -1.9370   26.3232  -27.9172 H   0  0  0  0  0  0  0  0  0  0  0  0
   -2.9103   23.1887  -32.2493 H   0  0  0  0  0  0  0  0  0  0  0  0
   -1.7560   22.0312  -31.4890 H   0  0  0  0  0  0  0  0  0  0  0  0
   -2.5688   20.0042  -34.0187 H   0  0  0  0  0  0  0  0  0  0  0  0
   -2.0813   18.5112  -33.1309 H   0  0  0  0  0  0  0  0  0  0  0  0
   -4.3275   18.8414  -34.8158 H   0  0  0  0  0  0  0  0  0  0  0  0
   -3.9596   17.4590  -33.6646 H   0  0  0  0  0  0  0  0  0  0  0  0
   -5.1120   19.5960  -32.3260 H   0  0  0  0  0  0  0  0  0  0  0  0
   -5.7651   16.7626  -32.7764 H   0  0  0  0  0  0  0  0  0  0  0  0
   -5.1341   17.5984  -31.2990 H   0  0  0  0  0  0  0  0  0  0  0  0
   -7.9467   17.3427  -32.3149 H   0  0  0  0  0  0  0  0  0  0  0  0
   -7.3160   17.4477  -30.6281 H   0  0  0  0  0  0  0  0  0  0  0  0
   -8.6091   19.3912  -33.3716 H   0  0  0  0  0  0  0  0  0  0  0  0
   -7.6652   20.8552  -32.8380 H   0  0  0  0  0  0  0  0  0  0  0  0
   -6.8194   18.5536  -34.5069 H   0  0  0  0  0  0  0  0  0  0  0  0
   -6.1427   20.2202  -34.3754 H   0  0  0  0  0  0  0  0  0  0  0  0
   -6.3824   22.4435  -28.7829 H   0  0  0  0  0  0  0  0  0  0  0  0
   -8.5728   21.5941  -29.6256 H   0  0  0  0  0  0  0  0  0  0  0  0
   -7.9416   23.6630  -33.3709 H   0  0  0  0  0  0  0  0  0  0  0  0
   -5.7563   24.5269  -32.5282 H   0  0  0  0  0  0  0  0  0  0  0  0
   -3.4790   20.3989  -29.2562 H   0  0  0  0  0  0  0  0  0  0  0  0
  1  2  1  0
  2  3  1  0
  3  4  2  0
  4  5  1  0
  5  6  2  0
  6  7  1  0
  7  8  1  0
  6  9  1  0
  9 10  1  0
 10 11  1  0
 11 12  1  0
 12 13  2  0
 12 14  1  0
 14 15  1  0
 15 16  1  0
 16 17  1  0
 17 18  1  0
 18 19  1  0
 19 20  1  0
 20 21  1  0
 21 22  1  0
 10 23  1  0
 23 24  2  0
 23 25  2  0
 23 26  1  0
 26 27  2  0
 27 28  1  0
 28 29  2  0
 29 30  1  0
 29 31  1  0
 31 32  2  0
  9 33  2  0
 33  3  1  0
 22 17  1  0
 32 26  1  0
  1 34  1  0
  1 35  1  0
  1 36  1  0
  4 37  1  0
  5 38  1  0
  8 39  1  0
  8 40  1  0
  8 41  1  0
 11 42  1  0
 11 43  1  0
 15 44  1  0
 15 45  1  0
 16 46  1  0
 16 47  1  0
 17 48  1  0
 18 49  1  0
 18 50  1  0
 19 51  1  0
 19 52  1  0
 21 53  1  0
 21 54  1  0
 22 55  1  0
 22 56  1  0
 27 57  1  0
 28 58  1  0
 31 59  1  0
 32 60  1  0
 33 61  1  0
M  CHG  2  14  -1  17   1
M  END
>  <UniqueID>  (35) 
34

>  <SMILES>  (35) 
COc1ccc(OC)c(N(CC(=O)[N-]CC[NH+]2CCOCC2)S(=O)(=O)c2ccc(F)cc2)c1

>  <Energy>  (35) 
73.34325072009806

>  <Genealogy>  (35) 
COc1ccc(OC)c(N(CC(=O)[N-]CC[NH+]2CCOCC2)S(=O)(=O)c2ccc(F)cc2)c1 (protonated)
COc1ccc(OC)c(N(CC(=O)[N-]CC[NH+]2CCOCC2)S(=O)(=O)c2ccc(F)cc2)c1 (3D coordinates assigned)
COc1ccc(OC)c(N(CC(=O)[N-]CC[NH+]2CCOCC2)S(=O)(=O)c2ccc(F)cc2)c1 (nonaromatic ring conformer: 73.34325072009806 kcal/mol)

>  <smiles>  (35) 
COc1ccc(OC)c(N(CC(=O)NCCN2CCOCC2)S(=O)(=O)c2ccc(F)cc2)c1

>  <score_type>  (35) 
oracle

>  <origin>  (35) 
adg

>  <m_score__min__energy>  (35) 
-9.2699999999999996

>  <m_primary>  (35) 
energy

$$$$
36:0
     RDKit          3D

 28 30  0  0  0  0  0  0  0  0999 V2000
   -9.6271   19.1517  -31.9276 H   0  0  0  0  0  0  0  0  0  0  0  0
   -8.6790   19.6010  -32.2580 C   0  0  0  0  0  0  0  0  0  0  0  0
   -8.6470   20.8910  -32.4370 N   0  0  0  0  0  0  0  0  0  0  0  0
   -7.6360   21.8040  -31.9950 C   0  0  0  0  0  0  0  0  0  0  0  0
   -7.9340   22.9210  -31.2910 N   0  0  0  0  0  0  0  0  0  0  0  0
   -6.8040   23.5500  -30.8780 C   0  0  0  0  0  0  0  0  0  0  0  0
   -6.7850   24.7360  -30.1460 C   0  0  0  0  0  0  0  0  0  0  0  0
   -7.7238   25.2372  -29.8676 H   0  0  0  0  0  0  0  0  0  0  0  0
   -5.5450   25.2800  -29.7700 C   0  0  0  0  0  0  0  0  0  0  0  0
   -5.5155   26.2179  -29.1960 H   0  0  0  0  0  0  0  0  0  0  0  0
   -4.3370   24.6390  -30.1190 C   0  0  0  0  0  0  0  0  0  0  0  0
   -3.1320   25.2310  -29.7130 O   0  0  0  0  0  0  0  0  0  0  0  0
   -2.2100   24.6330  -28.8070 C   0  0  0  0  0  0  0  0  0  0  0  0
   -2.5261   24.8380  -27.7735 H   0  0  0  0  0  0  0  0  0  0  0  0
   -2.1846   23.5460  -28.9739 H   0  0  0  0  0  0  0  0  0  0  0  0
   -1.2072   25.0531  -28.9739 H   0  0  0  0  0  0  0  0  0  0  0  0
   -4.3760   23.4340  -30.8580 C   0  0  0  0  0  0  0  0  0  0  0  0
   -3.4479   22.9151  -31.1397 H   0  0  0  0  0  0  0  0  0  0  0  0
   -5.6180   22.9210  -31.2200 C   0  0  0  0  0  0  0  0  0  0  0  0
   -5.9620   21.5170  -32.0720 S   0  0  0  0  0  0  0  0  0  0  0  0
   -7.5280   18.7030  -32.4690 C   0  0  0  0  0  0  0  0  0  0  0  0
   -6.5010   18.7810  -33.7960 S   0  0  0  0  0  0  0  0  0  0  0  0
   -5.4140   17.6140  -33.2630 C   0  0  0  0  0  0  0  0  0  0  0  0
   -4.5247   17.2642  -33.8078 H   0  0  0  0  0  0  0  0  0  0  0  0
   -5.8330   17.1680  -32.0160 C   0  0  0  0  0  0  0  0  0  0  0  0
   -5.2955   16.4008  -31.4395 H   0  0  0  0  0  0  0  0  0  0  0  0
   -7.0040   17.7870  -31.5620 C   0  0  0  0  0  0  0  0  0  0  0  0
   -7.4636   17.5709  -30.5863 H   0  0  0  0  0  0  0  0  0  0  0  0
  1  2  1  0
  2  3  2  0
  3  4  1  0
  4  5  2  0
  5  6  1  0
  6  7  2  0
  7  8  1  0
  7  9  1  0
  9 10  1  0
  9 11  2  0
 11 12  1  0
 12 13  1  0
 13 14  1  0
 13 15  1  0
 13 16  1  0
 11 17  1  0
 17 18  1  0
 17 19  2  0
 19 20  1  0
  2 21  1  0
 21 22  1  0
 22 23  1  0
 23 24  1  0
 23 25  2  0
 25 26  1  0
 25 27  1  0
 27 28  1  0
 20  4  1  0
 27 21  2  0
 19  6  1  0
M  END
>  <UniqueID>  (36) 
35

>  <SMILES>  (36) 
COc1ccc2nc(/N=C\c3cccs3)sc2c1

>  <Energy>  (36) 
99.65785337151307

>  <Genealogy>  (36) 
COc1ccc2nc(/N=C\c3cccs3)sc2c1 (cis-trans isomerization)
COc1ccc2nc(/N=C\c3cccs3)sc2c1 (3D coordinates assigned)
COc1ccc2nc(/N=C\c3cccs3)sc2c1 (optimized conformer: 99.65785337151307 kcal/mol)

>  <smiles>  (36) 
COc1ccc2nc(N=Cc3cccs3)sc2c1

>  <score_type>  (36) 
oracle

>  <origin>  (36) 
adg

>  <m_score__min__energy>  (36) 
-7.6200000000000001

>  <m_primary>  (36) 
energy

$$$$
37:0
     RDKit          3D

 45 48  0  0  0  0  0  0  0  0999 V2000
    1.5650   25.8280  -24.2010 C   0  0  0  0  0  0  0  0  0  0  0  0
    0.7810   26.7230  -23.3320 N   0  0  0  0  0  0  0  0  0  0  0  0
    1.2380   28.1140  -23.5100 C   0  0  0  0  0  0  0  0  0  0  0  0
   -0.6620   26.5850  -23.6370 C   0  0  0  0  0  0  0  0  0  0  0  0
   -0.9090   26.3760  -25.1120 C   0  0  0  0  0  0  0  0  0  0  0  0
   -0.4960   27.3600  -26.0480 C   0  0  0  0  0  0  0  0  0  0  0  0
   -0.6990   27.1700  -27.4280 C   0  0  0  0  0  0  0  0  0  0  0  0
   -1.3110   25.9890  -27.8300 C   0  0  0  0  0  0  0  0  0  0  0  0
   -1.5980   25.5840  -29.0360 O   0  0  0  0  0  0  0  0  0  0  0  0
   -2.1650   24.3970  -28.8880 C   0  0  0  0  0  0  0  0  0  0  0  0
   -2.6440   23.5680  -30.0370 C   0  0  0  0  0  0  0  0  0  0  0  0
   -4.1250   23.7870  -30.2620 C   0  0  0  0  0  0  0  0  0  0  0  0
   -4.7240   24.9200  -29.6810 C   0  0  0  0  0  0  0  0  0  0  0  0
   -6.0790   25.1880  -29.8670 C   0  0  0  0  0  0  0  0  0  0  0  0
   -6.8640   24.3400  -30.6430 C   0  0  0  0  0  0  0  0  0  0  0  0
   -6.2960   23.2100  -31.2500 C   0  0  0  0  0  0  0  0  0  0  0  0
   -7.0950   22.3680  -32.0400 C   0  0  0  0  0  0  0  0  0  0  0  0
   -6.5380   21.2470  -32.6570 C   0  0  0  0  0  0  0  0  0  0  0  0
   -5.1840   20.9580  -32.4920 C   0  0  0  0  0  0  0  0  0  0  0  0
   -4.3770   21.7830  -31.7060 C   0  0  0  0  0  0  0  0  0  0  0  0
   -4.9150   22.9220  -31.0690 C   0  0  0  0  0  0  0  0  0  0  0  0
   -2.2640   24.0000  -27.5910 N   0  0  0  0  0  0  0  0  0  0  0  0
   -1.7090   25.0370  -26.9410 C   0  0  0  0  0  0  0  0  0  0  0  0
   -1.5270   25.1890  -25.5700 C   0  0  0  0  0  0  0  0  0  0  0  0
    2.1632   25.1452  -23.5798 H   0  0  0  0  0  0  0  0  0  0  0  0
    0.8830   25.2435  -24.8360 H   0  0  0  0  0  0  0  0  0  0  0  0
    2.2342   26.4271  -24.8360 H   0  0  0  0  0  0  0  0  0  0  0  0
    0.9580   26.4380  -22.3400 H   0  0  0  0  0  0  0  0  0  0  0  0
    1.3907   28.5787  -22.5247 H   0  0  0  0  0  0  0  0  0  0  0  0
    2.1854   28.1200  -24.0690 H   0  0  0  0  0  0  0  0  0  0  0  0
    0.4788   28.6807  -24.0690 H   0  0  0  0  0  0  0  0  0  0  0  0
   -1.0613   25.7221  -23.0839 H   0  0  0  0  0  0  0  0  0  0  0  0
   -1.1643   27.5162  -23.3361 H   0  0  0  0  0  0  0  0  0  0  0  0
   -0.0120   28.2811  -25.6911 H   0  0  0  0  0  0  0  0  0  0  0  0
   -0.3849   27.9280  -28.1606 H   0  0  0  0  0  0  0  0  0  0  0  0
   -2.0929   23.8537  -30.9451 H   0  0  0  0  0  0  0  0  0  0  0  0
   -2.4701   22.5061  -29.8089 H   0  0  0  0  0  0  0  0  0  0  0  0
   -4.1145   25.6035  -29.0717 H   0  0  0  0  0  0  0  0  0  0  0  0
   -6.5306   26.0746  -29.3980 H   0  0  0  0  0  0  0  0  0  0  0  0
   -7.9336   24.5567  -30.7808 H   0  0  0  0  0  0  0  0  0  0  0  0
   -8.1636   22.5927  -32.1730 H   0  0  0  0  0  0  0  0  0  0  0  0
   -7.1683   20.5903  -33.2746 H   0  0  0  0  0  0  0  0  0  0  0  0
   -4.7492   20.0753  -32.9837 H   0  0  0  0  0  0  0  0  0  0  0  0
   -3.3107   21.5428  -31.5819 H   0  0  0  0  0  0  0  0  0  0  0  0
   -1.8534   24.4107  -24.8646 H   0  0  0  0  0  0  0  0  0  0  0  0
  1  2  1  0
  2  3  1  0
  2  4  1  0
  4  5  1  0
  5  6  2  0
  6  7  1  0
  7  8  2  0
  8  9  1  0
  9 10  1  0
 10 11  1  0
 11 12  1  0
 12 13  2  0
 13 14  1  0
 14 15  2  0
 15 16  1  0
 16 17  2  0
 17 18  1  0
 18 19  2  0
 19 20  1  0
 20 21  2  0
 10 22  2  0
 22 23  1  0
 23 24  2  0
 24  5  1  0
 23  8  1  0
 21 12  1  0
 21 16  1  0
  1 25  1  0
  1 26  1  0
  1 27  1  0
  2 28  1  0
  3 29  1  0
  3 30  1  0
  3 31  1  0
  4 32  1  0
  4 33  1  0
  6 34  1  0
  7 35  1  0
 11 36  1  0
 11 37  1  0
 13 38  1  0
 14 39  1  0
 15 40  1  0
 17 41  1  0
 18 42  1  0
 19 43  1  0
 20 44  1  0
 24 45  1  0
M  CHG  1   2   1
M  END
>  <UniqueID>  (37) 
36

>  <SMILES>  (37) 
C[NH+](C)Cc1ccc2oc(Cc3cccc4ccccc34)nc2c1

>  <Energy>  (37) 
90.1515159769473

>  <Genealogy>  (37) 
C[NH+](C)Cc1ccc2oc(Cc3cccc4ccccc34)nc2c1 (protonated)
C[NH+](C)Cc1ccc2oc(Cc3cccc4ccccc34)nc2c1 (3D coordinates assigned)
C[NH+](C)Cc1ccc2oc(Cc3cccc4ccccc34)nc2c1 (optimized conformer: 90.1515159769473 kcal/mol)

>  <smiles>  (37) 
CN(C)Cc1ccc2oc(Cc3cccc4ccccc34)nc2c1

>  <score_type>  (37) 
oracle

>  <origin>  (37) 
adg

>  <m_score__min__energy>  (37) 
-9.3200000000000003

>  <m_primary>  (37) 
energy

$$$$
38:0
     RDKit          3D

 34 35  0  0  0  0  0  0  0  0999 V2000
   -9.2030   21.7370  -31.6370 C   0  0  0  0  0  0  0  0  0  0  0  0
   -7.7180   21.9710  -31.5700 C   0  0  0  0  0  0  0  0  0  0  0  0
   -7.2240   23.1820  -31.0550 C   0  0  0  0  0  0  0  0  0  0  0  0
   -5.8440   23.4170  -30.9890 C   0  0  0  0  0  0  0  0  0  0  0  0
   -5.2400   24.9400  -30.3440 S   0  0  0  0  0  0  0  0  0  0  0  0
   -5.7360   25.1500  -28.9420 O   0  0  0  0  0  0  0  0  0  0  0  0
   -5.7240   26.0660  -31.2130 O   0  0  0  0  0  0  0  0  0  0  0  0
   -3.5090   24.9320  -30.3320 N   0  0  0  0  0  0  0  0  0  0  0  0
   -2.7520   24.9240  -29.1200 C   0  0  0  0  0  0  0  0  0  0  0  0
   -1.6840   25.5870  -29.0290 O   0  0  0  0  0  0  0  0  0  0  0  0
   -3.2060   24.0850  -27.9700 C   0  0  0  0  0  0  0  0  0  0  0  0
   -2.5680   22.7250  -28.0400 C   0  0  0  0  0  0  0  0  0  0  0  0
   -1.1830   22.6010  -28.2370 C   0  0  0  0  0  0  0  0  0  0  0  0
   -0.5860   21.3360  -28.2670 C   0  0  0  0  0  0  0  0  0  0  0  0
   -1.3660   20.1890  -28.0920 C   0  0  0  0  0  0  0  0  0  0  0  0
   -2.7420   20.3050  -27.8820 C   0  0  0  0  0  0  0  0  0  0  0  0
   -3.3430   21.5680  -27.8500 C   0  0  0  0  0  0  0  0  0  0  0  0
   -4.9510   22.4330  -31.4290 C   0  0  0  0  0  0  0  0  0  0  0  0
   -5.4330   21.2260  -31.9400 C   0  0  0  0  0  0  0  0  0  0  0  0
   -6.8110   20.9880  -32.0150 C   0  0  0  0  0  0  0  0  0  0  0  0
   -7.4070   19.3100  -32.7270 Br  0  0  0  0  0  0  0  0  0  0  0  0
   -9.6104   21.6728  -30.6173 H   0  0  0  0  0  0  0  0  0  0  0  0
   -9.6818   22.5708  -32.1714 H   0  0  0  0  0  0  0  0  0  0  0  0
   -9.4022   20.7964  -32.1714 H   0  0  0  0  0  0  0  0  0  0  0  0
   -7.9261   23.9513  -30.7010 H   0  0  0  0  0  0  0  0  0  0  0  0
   -2.9189   24.5736  -27.0272 H   0  0  0  0  0  0  0  0  0  0  0  0
   -4.2993   23.9729  -28.0151 H   0  0  0  0  0  0  0  0  0  0  0  0
   -0.5653   23.5017  -28.3682 H   0  0  0  0  0  0  0  0  0  0  0  0
    0.4982   21.2438  -28.4284 H   0  0  0  0  0  0  0  0  0  0  0  0
   -0.8959   19.1949  -28.1197 H   0  0  0  0  0  0  0  0  0  0  0  0
   -3.3541   19.4019  -27.7416 H   0  0  0  0  0  0  0  0  0  0  0  0
   -4.4255   21.6558  -27.6756 H   0  0  0  0  0  0  0  0  0  0  0  0
   -3.8670   22.6109  -31.3721 H   0  0  0  0  0  0  0  0  0  0  0  0
   -4.7259   20.4575  -32.2857 H   0  0  0  0  0  0  0  0  0  0  0  0
  1  2  1  0
  2  3  2  0
  3  4  1  0
  4  5  1  0
  5  6  2  0
  5  7  2  0
  5  8  1  0
  8  9  1  0
  9 10  2  0
  9 11  1  0
 11 12  1  0
 12 13  2  0
 13 14  1  0
 14 15  2  0
 15 16  1  0
 16 17  2  0
  4 18  2  0
 18 19  1  0
 19 20  2  0
 20 21  1  0
 20  2  1  0
 17 12  1  0
  1 22  1  0
  1 23  1  0
  1 24  1  0
  3 25  1  0
 11 26  1  0
 11 27  1  0
 13 28  1  0
 14 29  1  0
 15 30  1  0
 16 31  1  0
 17 32  1  0
 18 33  1  0
 19 34  1  0
M  CHG  1   8  -1
M  END
>  <UniqueID>  (38) 
37

>  <SMILES>  (38) 
Cc1cc(S(=O)(=O)[N-]C(=O)Cc2ccccc2)ccc1Br

>  <Energy>  (38) 
34.547719813372424

>  <Genealogy>  (38) 
Cc1cc(S(=O)(=O)[N-]C(=O)Cc2ccccc2)ccc1Br (protonated)
Cc1cc(S(=O)(=O)[N-]C(=O)Cc2ccccc2)ccc1Br (3D coordinates assigned)
Cc1cc(S(=O)(=O)[N-]C(=O)Cc2ccccc2)ccc1Br (optimized conformer: 34.547719813372424 kcal/mol)

>  <smiles>  (38) 
Cc1cc(S(=O)(=O)NC(=O)Cc2ccccc2)ccc1Br

>  <score_type>  (38) 
oracle

>  <origin>  (38) 
adg

>  <m_score__min__energy>  (38) 
-10.24

>  <m_primary>  (38) 
energy

$$$$
39:0
     RDKit          3D

 24 23  0  0  0  0  0  0  0  0999 V2000
   -6.0890   25.6790  -29.6660 C   0  0  0  0  0  0  0  0  0  0  0  0
   -5.0040   25.1530  -30.5550 C   0  0  0  0  0  0  0  0  0  0  0  0
   -5.3140   24.5910  -31.6390 O   0  0  0  0  0  0  0  0  0  0  0  0
   -3.6190   25.2690  -30.2050 N   0  0  0  0  0  0  0  0  0  0  0  0
   -2.8710   24.2990  -29.4090 C   0  0  2  0  0  0  0  0  0  0  0  0
   -1.5770   24.9220  -28.9590 C   0  0  0  0  0  0  0  0  0  0  0  0
   -1.4420   25.4680  -27.6370 S   0  0  0  0  0  0  0  0  0  0  0  0
   -2.5710   23.0730  -30.2280 C   0  0  0  0  0  0  0  0  0  0  0  0
   -1.7150   22.2410  -29.8160 O   0  0  0  0  0  0  0  0  0  0  0  0
   -3.2790   22.8340  -31.4530 N   0  0  0  0  0  0  0  0  0  0  0  0
   -3.0870   21.6280  -32.2570 C   0  0  0  0  0  0  0  0  0  0  0  0
   -4.3300   21.3310  -33.0940 C   0  0  0  0  0  0  0  0  0  0  0  0
   -5.3790   22.1800  -32.7230 O   0  0  0  0  0  0  0  0  0  0  0  0
   -5.8008   25.5393  -28.6137 H   0  0  0  0  0  0  0  0  0  0  0  0
   -6.2397   26.7502  -29.8658 H   0  0  0  0  0  0  0  0  0  0  0  0
   -7.0233   25.1338  -29.8658 H   0  0  0  0  0  0  0  0  0  0  0  0
   -3.4750   24.0086  -28.5367 H   0  0  0  0  0  0  0  0  0  0  0  0
   -0.7232   24.9598  -29.6515 H   0  0  0  0  0  0  0  0  0  0  0  0
   -3.9510   23.5560  -31.8010 H   0  0  0  0  0  0  0  0  0  0  0  0
   -2.2273   21.7745  -32.9274 H   0  0  0  0  0  0  0  0  0  0  0  0
   -2.9053   20.7790  -31.5816 H   0  0  0  0  0  0  0  0  0  0  0  0
   -4.0967   21.4857  -34.1578 H   0  0  0  0  0  0  0  0  0  0  0  0
   -4.6358   20.2882  -32.9233 H   0  0  0  0  0  0  0  0  0  0  0  0
   -5.2040   23.0460  -33.1750 H   0  0  0  0  0  0  0  0  0  0  0  0
  1  2  1  0
  2  3  2  0
  2  4  1  0
  4  5  1  0
  5  6  1  0
  6  7  2  0
  5  8  1  0
  8  9  2  0
  8 10  1  0
 10 11  1  0
 11 12  1  0
 12 13  1  0
  1 14  1  0
  1 15  1  0
  1 16  1  0
  5 17  1  1
  6 18  1  0
 10 19  1  0
 11 20  1  0
 11 21  1  0
 12 22  1  0
 12 23  1  0
 13 24  1  0
M  CHG  1   4  -1
M  END
>  <UniqueID>  (39) 
38

>  <SMILES>  (39) 
CC(=O)[N-][C@H](C=S)C(=O)NCCO

>  <Energy>  (39) 
10.907249679348872

>  <Genealogy>  (39) 
CC(=O)[N-]C(C=S)C(=O)NCCO (protonated)
CC(=O)[N-][C@H](C=S)C(=O)NCCO (chirality)
CC(=O)[N-][C@H](C=S)C(=O)NCCO (3D coordinates assigned)
CC(=O)[N-][C@H](C=S)C(=O)NCCO (optimized conformer: 10.907249679348872 kcal/mol)

>  <smiles>  (39) 
CC(=O)NC(C=S)C(=O)NCCO

>  <score_type>  (39) 
oracle

>  <origin>  (39) 
adg

>  <m_score__min__energy>  (39) 
-5.7699999999999996

>  <m_primary>  (39) 
energy

$$$$
40:0
     RDKit          3D

 35 36  0  0  0  0  0  0  0  0999 V2000
   -1.5670   26.1140  -28.9410 O   0  0  0  0  0  0  0  0  0  0  0  0
   -1.6410   24.8770  -29.1660 C   0  0  0  0  0  0  0  0  0  0  0  0
   -0.5250   24.0730  -28.9700 O   0  0  0  0  0  0  0  0  0  0  0  0
   -2.9030   24.2850  -29.6960 C   0  0  0  0  0  0  0  0  0  0  0  0
   -3.6310   25.3000  -30.4480 N   0  0  0  0  0  0  0  0  0  0  0  0
   -5.0520   25.3150  -30.6430 C   0  0  0  0  0  0  0  0  0  0  0  0
   -5.6920   26.3600  -30.3550 O   0  0  0  0  0  0  0  0  0  0  0  0
   -5.7950   24.1340  -31.1140 C   0  0  0  0  0  0  0  0  0  0  0  0
   -7.1120   23.8910  -30.6990 C   0  0  0  0  0  0  0  0  0  0  0  0
   -7.7850   22.7660  -31.1740 C   0  0  0  0  0  0  0  0  0  0  0  0
   -7.1410   21.8760  -32.0480 C   0  0  0  0  0  0  0  0  0  0  0  0
   -7.8480   20.7480  -32.6060 N   0  0  0  0  0  0  0  0  0  0  0  0
   -7.5160   19.5030  -31.8920 C   0  0  0  0  0  0  0  0  0  0  0  0
   -6.7040   18.5610  -32.7500 C   0  0  0  0  0  0  0  0  0  0  0  0
   -7.2280   17.3110  -33.1190 C   0  0  0  0  0  0  0  0  0  0  0  0
   -6.4990   16.4610  -33.9560 C   0  0  0  0  0  0  0  0  0  0  0  0
   -5.2460   16.8560  -34.4360 C   0  0  0  0  0  0  0  0  0  0  0  0
   -4.7230   18.1010  -34.0820 C   0  0  0  0  0  0  0  0  0  0  0  0
   -5.4470   18.9530  -33.2420 C   0  0  0  0  0  0  0  0  0  0  0  0
   -5.8110   22.1400  -32.4130 C   0  0  0  0  0  0  0  0  0  0  0  0
   -5.1780   23.2460  -31.9400 N   0  0  0  0  0  0  0  0  0  0  0  0
   -2.6631   23.4391  -30.3570 H   0  0  0  0  0  0  0  0  0  0  0  0
   -3.5233   23.9291  -28.8602 H   0  0  0  0  0  0  0  0  0  0  0  0
   -7.6106   24.5826  -30.0039 H   0  0  0  0  0  0  0  0  0  0  0  0
   -8.8228   22.5754  -30.8632 H   0  0  0  0  0  0  0  0  0  0  0  0
   -8.8770   20.9160  -32.5270 H   0  0  0  0  0  0  0  0  0  0  0  0
   -7.6270   20.6430  -33.6240 H   0  0  0  0  0  0  0  0  0  0  0  0
   -6.9359   19.7533  -30.9915 H   0  0  0  0  0  0  0  0  0  0  0  0
   -8.4578   18.9990  -31.6295 H   0  0  0  0  0  0  0  0  0  0  0  0
   -8.2157   16.9998  -32.7480 H   0  0  0  0  0  0  0  0  0  0  0  0
   -6.9112   15.4807  -34.2373 H   0  0  0  0  0  0  0  0  0  0  0  0
   -4.6725   16.1853  -35.0927 H   0  0  0  0  0  0  0  0  0  0  0  0
   -3.7397   18.4124  -34.4644 H   0  0  0  0  0  0  0  0  0  0  0  0
   -5.0314   19.9332  -32.9654 H   0  0  0  0  0  0  0  0  0  0  0  0
   -5.2795   21.4493  -33.0841 H   0  0  0  0  0  0  0  0  0  0  0  0
  1  2  2  0
  2  3  1  0
  2  4  1  0
  4  5  1  0
  5  6  1  0
  6  7  2  0
  6  8  1  0
  8  9  2  0
  9 10  1  0
 10 11  2  0
 11 12  1  0
 12 13  1  0
 13 14  1  0
 14 15  2  0
 15 16  1  0
 16 17  2  0
 17 18  1  0
 18 19  2  0
 11 20  1  0
 20 21  2  0
 21  8  1  0
 19 14  1  0
  4 22  1  0
  4 23  1  0
  9 24  1  0
 10 25  1  0
 12 26  1  0
 12 27  1  0
 13 28  1  0
 13 29  1  0
 15 30  1  0
 16 31  1  0
 17 32  1  0
 18 33  1  0
 19 34  1  0
 20 35  1  0
M  CHG  3   3  -1   5  -1  12   1
M  END
>  <UniqueID>  (40) 
39

>  <SMILES>  (40) 
O=C([O-])C[N-]C(=O)c1ccc([NH2+]Cc2ccccc2)cn1

>  <Energy>  (40) 
37.90989496999544

>  <Genealogy>  (40) 
O=C([O-])C[N-]C(=O)c1ccc([NH2+]Cc2ccccc2)cn1 (protonated)
O=C([O-])C[N-]C(=O)c1ccc([NH2+]Cc2ccccc2)cn1 (3D coordinates assigned)
O=C([O-])C[N-]C(=O)c1ccc([NH2+]Cc2ccccc2)cn1 (optimized conformer: 37.90989496999544 kcal/mol)

>  <smiles>  (40) 
O=C(O)CNC(=O)c1ccc(NCc2ccccc2)cn1

>  <score_type>  (40) 
oracle

>  <origin>  (40) 
adg

>  <m_score__min__energy>  (40) 
-10.960000000000001

>  <m_primary>  (40) 
energy

$$$$
41:0
     RDKit          3D

 66 68  0  0  0  0  0  0  0  0999 V2000
   -9.0840   21.1260  -31.0470 C   0  0  0  0  0  0  0  0  0  0  0  0
   -8.8290   20.2750  -32.3100 C   0  0  2  0  0  0  0  0  0  0  0  0
   -9.1560   18.8100  -32.0340 C   0  0  0  0  0  0  0  0  0  0  0  0
   -7.8350   18.1910  -31.6050 C   0  0  0  0  0  0  0  0  0  0  0  0
   -6.7580   19.1960  -32.0040 C   0  0  0  0  0  0  0  0  0  0  0  0
   -7.4230   20.2610  -32.7600 N   0  0  0  0  0  0  0  0  0  0  0  0
   -6.6830   21.5400  -32.7170 C   0  0  0  0  0  0  0  0  0  0  0  0
   -5.1690   21.3100  -32.6280 C   0  0  0  0  0  0  0  0  0  0  0  0
   -4.5480   22.1460  -31.5370 C   0  0  0  0  0  0  0  0  0  0  0  0
   -5.0080   23.4500  -31.3000 C   0  0  0  0  0  0  0  0  0  0  0  0
   -4.4620   24.2170  -30.2670 C   0  0  0  0  0  0  0  0  0  0  0  0
   -3.4490   23.6900  -29.4460 C   0  0  0  0  0  0  0  0  0  0  0  0
   -2.8700   24.5030  -28.3430 C   0  0  0  0  0  0  0  0  0  0  0  0
   -1.7040   25.2620  -28.5490 C   0  0  0  0  0  0  0  0  0  0  0  0
   -1.1640   26.0290  -27.5130 C   0  0  0  0  0  0  0  0  0  0  0  0
   -1.7800   26.0530  -26.2530 C   0  0  0  0  0  0  0  0  0  0  0  0
   -1.1860   26.8570  -25.1230 C   0  0  0  0  0  0  0  0  0  0  0  0
   -0.4060   26.0170  -24.1780 N   0  0  2  0  0  0  0  0  0  0  0  0
   -0.1630   26.7890  -22.9430 C   0  0  0  0  0  0  0  0  0  0  0  0
    0.8930   25.5690  -24.7620 C   0  0  0  0  0  0  0  0  0  0  0  0
    0.8750   24.0810  -25.2160 C   0  0  0  0  0  0  0  0  0  0  0  0
   -0.4010   23.3670  -24.9790 N   0  0  0  0  0  0  0  0  0  0  0  0
   -0.4300   22.6400  -23.7010 C   0  0  0  0  0  0  0  0  0  0  0  0
   -0.8080   22.5060  -26.1010 C   0  0  0  0  0  0  0  0  0  0  0  0
   -2.9410   25.2950  -26.0420 C   0  0  0  0  0  0  0  0  0  0  0  0
   -3.4810   24.5260  -27.0770 C   0  0  0  0  0  0  0  0  0  0  0  0
   -2.9950   22.3800  -29.6830 C   0  0  0  0  0  0  0  0  0  0  0  0
   -3.5400   21.6160  -30.7190 C   0  0  0  0  0  0  0  0  0  0  0  0
   -8.9011   20.5155  -30.1504 H   0  0  0  0  0  0  0  0  0  0  0  0
   -8.4059   21.9922  -31.0454 H   0  0  0  0  0  0  0  0  0  0  0  0
  -10.1266   21.4766  -31.0454 H   0  0  0  0  0  0  0  0  0  0  0  0
   -9.4641   20.7386  -33.0792 H   0  0  0  0  0  0  0  0  0  0  0  0
   -9.9029   18.7244  -31.2310 H   0  0  0  0  0  0  0  0  0  0  0  0
   -9.5836   18.3072  -32.9140 H   0  0  0  0  0  0  0  0  0  0  0  0
   -7.8233   18.0282  -30.5172 H   0  0  0  0  0  0  0  0  0  0  0  0
   -7.6725   17.2123  -32.0800 H   0  0  0  0  0  0  0  0  0  0  0  0
   -6.2793   19.6130  -31.1057 H   0  0  0  0  0  0  0  0  0  0  0  0
   -5.9771   18.7138  -32.6103 H   0  0  0  0  0  0  0  0  0  0  0  0
   -6.9047   22.1122  -33.6299 H   0  0  0  0  0  0  0  0  0  0  0  0
   -7.0016   22.0934  -31.8213 H   0  0  0  0  0  0  0  0  0  0  0  0
   -4.9804   20.2473  -32.4156 H   0  0  0  0  0  0  0  0  0  0  0  0
   -4.7176   21.6027  -33.5875 H   0  0  0  0  0  0  0  0  0  0  0  0
   -5.8039   23.8717  -31.9315 H   0  0  0  0  0  0  0  0  0  0  0  0
   -4.8272   25.2402  -30.0949 H   0  0  0  0  0  0  0  0  0  0  0  0
   -1.2132   25.2519  -29.5334 H   0  0  0  0  0  0  0  0  0  0  0  0
   -0.2508   26.6172  -27.6866 H   0  0  0  0  0  0  0  0  0  0  0  0
   -0.5200   27.6231  -25.5468 H   0  0  0  0  0  0  0  0  0  0  0  0
   -2.0164   27.3100  -24.5615 H   0  0  0  0  0  0  0  0  0  0  0  0
   -0.9880   25.1930  -23.9020 H   0  0  0  0  0  0  0  0  0  0  0  0
   -0.3631   26.1533  -22.0679 H   0  0  0  0  0  0  0  0  0  0  0  0
    0.8843   27.1247  -22.9205 H   0  0  0  0  0  0  0  0  0  0  0  0
   -0.8291   27.6641  -22.9205 H   0  0  0  0  0  0  0  0  0  0  0  0
    1.1207   26.1989  -25.6346 H   0  0  0  0  0  0  0  0  0  0  0  0
    1.6569   25.6638  -23.9762 H   0  0  0  0  0  0  0  0  0  0  0  0
    1.0867   24.0514  -26.2950 H   0  0  0  0  0  0  0  0  0  0  0  0
    1.6321   23.5657  -24.6066 H   0  0  0  0  0  0  0  0  0  0  0  0
   -0.4013   23.3593  -22.8693 H   0  0  0  0  0  0  0  0  0  0  0  0
   -1.3526   22.0443  -23.6389 H   0  0  0  0  0  0  0  0  0  0  0  0
    0.4422   21.9727  -23.6389 H   0  0  0  0  0  0  0  0  0  0  0  0
   -1.2473   21.5767  -25.7094 H   0  0  0  0  0  0  0  0  0  0  0  0
   -1.5524   23.0327  -26.7161 H   0  0  0  0  0  0  0  0  0  0  0  0
    0.0715   22.2651  -26.7161 H   0  0  0  0  0  0  0  0  0  0  0  0
   -3.4295   25.3057  -25.0565 H   0  0  0  0  0  0  0  0  0  0  0  0
   -4.3911   23.9342  -26.8995 H   0  0  0  0  0  0  0  0  0  0  0  0
   -2.2047   21.9533  -29.0480 H   0  0  0  0  0  0  0  0  0  0  0  0
   -3.1759   20.5928  -30.8936 H   0  0  0  0  0  0  0  0  0  0  0  0
  1  2  1  0
  2  3  1  0
  3  4  1  0
  4  5  1  0
  5  6  1  0
  6  7  1  0
  7  8  1  0
  8  9  1  0
  9 10  2  0
 10 11  1  0
 11 12  2  0
 12 13  1  0
 13 14  2  0
 14 15  1  0
 15 16  2  0
 16 17  1  0
 17 18  1  0
 18 19  1  0
 18 20  1  0
 20 21  1  0
 21 22  1  0
 22 23  1  0
 22 24  1  0
 16 25  1  0
 25 26  2  0
 12 27  1  0
 27 28  2  0
  6  2  1  0
 28  9  1  0
 26 13  1  0
  1 29  1  0
  1 30  1  0
  1 31  1  0
  2 32  1  6
  3 33  1  0
  3 34  1  0
  4 35  1  0
  4 36  1  0
  5 37  1  0
  5 38  1  0
  7 39  1  0
  7 40  1  0
  8 41  1  0
  8 42  1  0
 10 43  1  0
 11 44  1  0
 14 45  1  0
 15 46  1  0
 17 47  1  0
 17 48  1  0
 18 49  1  1
 19 50  1  0
 19 51  1  0
 19 52  1  0
 20 53  1  0
 20 54  1  0
 21 55  1  0
 21 56  1  0
 23 57  1  0
 23 58  1  0
 23 59  1  0
 24 60  1  0
 24 61  1  0
 24 62  1  0
 25 63  1  0
 26 64  1  0
 27 65  1  0
 28 66  1  0
M  CHG  1  18   1
M  END
>  <UniqueID>  (41) 
40

>  <SMILES>  (41) 
C[C@@H]1CCCN1CCc1ccc(-c2ccc(C[N@H+](C)CCN(C)C)cc2)cc1

>  <Energy>  (41) 
82.21213511057734

>  <Genealogy>  (41) 
CC1CCCN1CCc1ccc(-c2ccc(C[NH+](C)CCN(C)C)cc2)cc1 (protonated)
C[C@@H]1CCCN1CCc1ccc(-c2ccc(C[N@H+](C)CCN(C)C)cc2)cc1 (chirality)
C[C@@H]1CCCN1CCc1ccc(-c2ccc(C[N@H+](C)CCN(C)C)cc2)cc1 (3D coordinates assigned)
C[C@@H]1CCCN1CCc1ccc(-c2ccc(C[N@H+](C)CCN(C)C)cc2)cc1 (nonaromatic ring conformer: 82.21213511057734 kcal/mol)

>  <smiles>  (41) 
CC1CCCN1CCc1ccc(-c2ccc(CN(C)CCN(C)C)cc2)cc1

>  <score_type>  (41) 
oracle

>  <origin>  (41) 
adg

>  <m_score__min__energy>  (41) 
-8.7699999999999996

>  <m_primary>  (41) 
energy

$$$$
42:0
     RDKit          3D

 54 56  0  0  0  0  0  0  0  0999 V2000
  -10.1094   19.1335  -32.3415 H   0  0  0  0  0  0  0  0  0  0  0  0
   -9.0880   19.2870  -31.9630 C   0  0  0  0  0  0  0  0  0  0  0  0
   -8.3740   18.2150  -31.6190 C   0  0  0  0  0  0  0  0  0  0  0  0
   -8.3387   17.9056  -30.5640 H   0  0  0  0  0  0  0  0  0  0  0  0
   -7.6150   17.4200  -32.6480 C   0  0  0  0  0  0  0  0  0  0  0  0
   -8.1237   17.5097  -33.6192 H   0  0  0  0  0  0  0  0  0  0  0  0
   -7.5833   16.3687  -32.3258 H   0  0  0  0  0  0  0  0  0  0  0  0
   -6.2270   17.9150  -32.7810 N   0  0  0  0  0  0  0  0  0  0  0  0
   -5.2920   16.8130  -33.1100 C   0  0  0  0  0  0  0  0  0  0  0  0
   -5.7255   16.2093  -33.9210 H   0  0  0  0  0  0  0  0  0  0  0  0
   -5.1434   16.2102  -32.2019 H   0  0  0  0  0  0  0  0  0  0  0  0
   -3.9150   17.3410  -33.5630 C   0  0  0  0  0  0  0  0  0  0  0  0
   -3.8382   17.2653  -34.6577 H   0  0  0  0  0  0  0  0  0  0  0  0
   -3.1248   16.7391  -33.0905 H   0  0  0  0  0  0  0  0  0  0  0  0
   -3.7560   18.7500  -33.1590 N   0  0  0  0  0  0  0  0  0  0  0  0
   -2.3720   19.2560  -33.2960 C   0  0  0  0  0  0  0  0  0  0  0  0
   -2.1168   19.2829  -34.3657 H   0  0  0  0  0  0  0  0  0  0  0  0
   -1.7238   18.5745  -32.7256 H   0  0  0  0  0  0  0  0  0  0  0  0
   -2.1690   20.6390  -32.7230 C   0  0  0  0  0  0  0  0  0  0  0  0
   -1.2640   21.3830  -33.1940 O   0  0  0  0  0  0  0  0  0  0  0  0
   -3.0210   21.1120  -31.6710 N   0  0  0  0  0  0  0  0  0  0  0  0
   -3.9400   20.6370  -31.5300 H   0  0  0  0  0  0  0  0  0  0  0  0
   -2.7450   22.2830  -30.8850 C   0  0  0  0  0  0  0  0  0  0  0  0
   -3.7490   23.2470  -30.7030 C   0  0  0  0  0  0  0  0  0  0  0  0
   -4.7350   23.1029  -31.1688 H   0  0  0  0  0  0  0  0  0  0  0  0
   -3.5050   24.3890  -29.9340 C   0  0  0  0  0  0  0  0  0  0  0  0
   -4.2918   25.1485  -29.8155 H   0  0  0  0  0  0  0  0  0  0  0  0
   -2.2560   24.5700  -29.3110 C   0  0  0  0  0  0  0  0  0  0  0  0
   -1.9600   25.7010  -28.5320 O   0  0  0  0  0  0  0  0  0  0  0  0
   -1.6750   25.6650  -27.1390 C   0  0  0  0  0  0  0  0  0  0  0  0
   -2.6092   25.7830  -26.5704 H   0  0  0  0  0  0  0  0  0  0  0  0
   -1.2102   24.7010  -26.8846 H   0  0  0  0  0  0  0  0  0  0  0  0
   -0.9851   26.4831  -26.8846 H   0  0  0  0  0  0  0  0  0  0  0  0
   -1.2660   23.5930  -29.4690 C   0  0  0  0  0  0  0  0  0  0  0  0
   -0.2911   23.7205  -28.9757 H   0  0  0  0  0  0  0  0  0  0  0  0
   -1.5050   22.4550  -30.2490 C   0  0  0  0  0  0  0  0  0  0  0  0
   -0.7193   21.6937  -30.3638 H   0  0  0  0  0  0  0  0  0  0  0  0
   -4.7580   19.6200  -33.8170 C   0  0  0  0  0  0  0  0  0  0  0  0
   -4.4495   19.7974  -34.8578 H   0  0  0  0  0  0  0  0  0  0  0  0
   -4.8138   20.5667  -33.2597 H   0  0  0  0  0  0  0  0  0  0  0  0
   -6.1580   18.9700  -33.8120 C   0  0  0  0  0  0  0  0  0  0  0  0
   -6.3564   18.5269  -34.7991 H   0  0  0  0  0  0  0  0  0  0  0  0
   -6.9105   19.7404  -33.5880 H   0  0  0  0  0  0  0  0  0  0  0  0
   -8.5770   20.6760  -31.8620 C   0  0  0  0  0  0  0  0  0  0  0  0
   -7.2110   20.8800  -31.5920 C   0  0  0  0  0  0  0  0  0  0  0  0
   -6.5423   20.0147  -31.4737 H   0  0  0  0  0  0  0  0  0  0  0  0
   -6.6980   22.1760  -31.4730 C   0  0  0  0  0  0  0  0  0  0  0  0
   -5.6276   22.3276  -31.2701 H   0  0  0  0  0  0  0  0  0  0  0  0
   -7.5460   23.2780  -31.6120 C   0  0  0  0  0  0  0  0  0  0  0  0
   -7.1435   24.2967  -31.5110 H   0  0  0  0  0  0  0  0  0  0  0  0
   -8.9040   23.0880  -31.8790 C   0  0  0  0  0  0  0  0  0  0  0  0
   -9.5675   23.9580  -31.9927 H   0  0  0  0  0  0  0  0  0  0  0  0
   -9.4220   21.7960  -32.0020 C   0  0  0  0  0  0  0  0  0  0  0  0
  -10.4928   21.6522  -32.2088 H   0  0  0  0  0  0  0  0  0  0  0  0
  1  2  1  0
  2  3  2  0
  3  4  1  0
  3  5  1  0
  5  6  1  0
  5  7  1  0
  5  8  1  0
  8  9  1  0
  9 10  1  0
  9 11  1  0
  9 12  1  0
 12 13  1  0
 12 14  1  0
 12 15  1  0
 15 16  1  0
 16 17  1  0
 16 18  1  0
 16 19  1  0
 19 20  2  0
 19 21  1  0
 21 22  1  0
 21 23  1  0
 23 24  2  0
 24 25  1  0
 24 26  1  0
 26 27  1  0
 26 28  2  0
 28 29  1  0
 29 30  1  0
 30 31  1  0
 30 32  1  0
 30 33  1  0
 28 34  1  0
 34 35  1  0
 34 36  2  0
 36 37  1  0
 15 38  1  0
 38 39  1  0
 38 40  1  0
 38 41  1  0
 41 42  1  0
 41 43  1  0
  2 44  1  0
 44 45  2  0
 45 46  1  0
 45 47  1  0
 47 48  1  0
 47 49  2  0
 49 50  1  0
 49 51  1  0
 51 52  1  0
 51 53  2  0
 53 54  1  0
 41  8  1  0
 53 44  1  0
 36 23  1  0
M  END
>  <UniqueID>  (42) 
41

>  <SMILES>  (42) 
COc1ccc(NC(=O)CN2CCN(C/C=C/c3ccccc3)CC2)cc1

>  <Energy>  (42) 
69.00888917982998

>  <Genealogy>  (42) 
COc1ccc(NC(=O)CN2CCN(C/C=C/c3ccccc3)CC2)cc1 (cis-trans isomerization)
COc1ccc(NC(=O)CN2CCN(C/C=C/c3ccccc3)CC2)cc1 (3D coordinates assigned)
COc1ccc(NC(=O)CN2CCN(C/C=C/c3ccccc3)CC2)cc1 (nonaromatic ring conformer: 69.00888917982998 kcal/mol)

>  <smiles>  (42) 
COc1ccc(NC(=O)CN2CCN(CC=Cc3ccccc3)CC2)cc1

>  <score_type>  (42) 
oracle

>  <origin>  (42) 
adg

>  <m_score__min__energy>  (42) 
-9.5800000000000001

>  <m_primary>  (42) 
energy

$$$$
43:0
     RDKit          3D

 54 57  0  0  0  0  0  0  0  0999 V2000
   -7.3672   23.5534  -31.0152 H   0  0  0  0  0  0  0  0  0  0  0  0
   -6.3030   23.2760  -30.9910 C   0  0  0  0  0  0  0  0  0  0  0  0
   -5.3800   24.1780  -30.5640 N   0  0  0  0  0  0  0  0  0  0  0  0
   -4.0510   23.8960  -30.5300 C   0  0  0  0  0  0  0  0  0  0  0  0
   -3.1470   24.8970  -30.0330 N   0  0  0  0  0  0  0  0  0  0  0  0
   -2.2140   24.7330  -29.1400 C   0  0  0  0  0  0  0  0  0  0  0  0
   -1.9580   23.5090  -28.6020 N   0  0  0  0  0  0  0  0  0  0  0  0
   -0.9710   23.3230  -27.6840 C   0  0  0  0  0  0  0  0  0  0  0  0
   -0.7410   21.9380  -27.1200 C   0  0  0  0  0  0  0  0  0  0  0  0
   -0.4504   22.0585  -26.0659 H   0  0  0  0  0  0  0  0  0  0  0  0
    0.4440   21.2090  -27.8050 C   0  0  0  0  0  0  0  0  0  0  0  0
    1.0957   20.7857  -27.0265 H   0  0  0  0  0  0  0  0  0  0  0  0
    0.9789   21.9458  -28.4222 H   0  0  0  0  0  0  0  0  0  0  0  0
   -0.0220   20.0720  -28.7310 C   0  0  0  0  0  0  0  0  0  0  0  0
    0.8655   19.5556  -29.1257 H   0  0  0  0  0  0  0  0  0  0  0  0
   -0.6236   20.5264  -29.5320 H   0  0  0  0  0  0  0  0  0  0  0  0
   -0.8820   19.0750  -28.0410 N   0  0  0  0  0  0  0  0  0  0  0  0
   -0.0990   17.9190  -27.5780 C   0  0  0  0  0  0  0  0  0  0  0  0
   -0.0869   17.9011  -26.4782 H   0  0  0  0  0  0  0  0  0  0  0  0
   -0.5559   16.9920  -27.9548 H   0  0  0  0  0  0  0  0  0  0  0  0
    0.9313   17.9994  -27.9548 H   0  0  0  0  0  0  0  0  0  0  0  0
   -1.7070   19.6240  -26.9360 C   0  0  0  0  0  0  0  0  0  0  0  0
   -1.1535   19.5145  -25.9917 H   0  0  0  0  0  0  0  0  0  0  0  0
   -2.6541   19.0652  -26.9100 H   0  0  0  0  0  0  0  0  0  0  0  0
   -2.0380   21.1050  -27.1460 C   0  0  0  0  0  0  0  0  0  0  0  0
   -2.7079   21.4470  -26.3434 H   0  0  0  0  0  0  0  0  0  0  0  0
   -2.5324   21.2324  -28.1204 H   0  0  0  0  0  0  0  0  0  0  0  0
   -0.1900   24.4210  -27.2940 C   0  0  0  0  0  0  0  0  0  0  0  0
    0.6152   24.3024  -26.5541 H   0  0  0  0  0  0  0  0  0  0  0  0
   -0.4550   25.6650  -27.8630 C   0  0  0  0  0  0  0  0  0  0  0  0
    0.1458   26.5404  -27.5753 H   0  0  0  0  0  0  0  0  0  0  0  0
   -1.4540   25.7970  -28.7720 N   0  0  0  0  0  0  0  0  0  0  0  0
   -3.6120   22.6140  -30.8980 C   0  0  0  0  0  0  0  0  0  0  0  0
   -2.5445   22.3553  -30.8382 H   0  0  0  0  0  0  0  0  0  0  0  0
   -4.5400   21.6710  -31.3400 C   0  0  0  0  0  0  0  0  0  0  0  0
   -4.1993   20.6697  -31.6422 H   0  0  0  0  0  0  0  0  0  0  0  0
   -5.9070   21.9910  -31.4020 C   0  0  0  0  0  0  0  0  0  0  0  0
   -6.8810   21.0180  -31.8550 N   0  0  0  0  0  0  0  0  0  0  0  0
   -8.2040   21.4900  -32.3070 C   0  0  0  0  0  0  0  0  0  0  0  0
   -8.2658   21.3565  -33.3971 H   0  0  0  0  0  0  0  0  0  0  0  0
   -8.2874   22.5448  -32.0062 H   0  0  0  0  0  0  0  0  0  0  0  0
   -9.3800   20.7480  -31.6620 C   0  0  0  0  0  0  0  0  0  0  0  0
  -10.2457   21.4241  -31.6033 H   0  0  0  0  0  0  0  0  0  0  0  0
   -9.0836   20.4212  -30.6543 H   0  0  0  0  0  0  0  0  0  0  0  0
   -9.7300   19.6090  -32.4270 O   0  0  0  0  0  0  0  0  0  0  0  0
   -8.8500   18.5310  -32.1740 C   0  0  0  0  0  0  0  0  0  0  0  0
   -9.2652   17.6178  -32.6253 H   0  0  0  0  0  0  0  0  0  0  0  0
   -8.7473   18.4192  -31.0845 H   0  0  0  0  0  0  0  0  0  0  0  0
   -7.4600   18.7880  -32.7620 C   0  0  0  0  0  0  0  0  0  0  0  0
   -7.5718   19.3553  -33.6978 H   0  0  0  0  0  0  0  0  0  0  0  0
   -6.9843   17.8117  -32.9364 H   0  0  0  0  0  0  0  0  0  0  0  0
   -6.5590   19.5830  -31.8090 C   0  0  0  0  0  0  0  0  0  0  0  0
   -5.5088   19.4401  -32.1035 H   0  0  0  0  0  0  0  0  0  0  0  0
   -6.7242   19.2189  -30.7842 H   0  0  0  0  0  0  0  0  0  0  0  0
  1  2  1  0
  2  3  2  0
  3  4  1  0
  4  5  1  0
  5  6  2  0
  6  7  1  0
  7  8  2  0
  8  9  1  0
  9 10  1  0
  9 11  1  0
 11 12  1  0
 11 13  1  0
 11 14  1  0
 14 15  1  0
 14 16  1  0
 14 17  1  0
 17 18  1  0
 18 19  1  0
 18 20  1  0
 18 21  1  0
 17 22  1  0
 22 23  1  0
 22 24  1  0
 22 25  1  0
 25 26  1  0
 25 27  1  0
  8 28  1  0
 28 29  1  0
 28 30  2  0
 30 31  1  0
 30 32  1  0
  4 33  2  0
 33 34  1  0
 33 35  1  0
 35 36  1  0
 35 37  2  0
 37 38  1  0
 38 39  1  0
 39 40  1  0
 39 41  1  0
 39 42  1  0
 42 43  1  0
 42 44  1  0
 42 45  1  0
 45 46  1  0
 46 47  1  0
 46 48  1  0
 46 49  1  0
 49 50  1  0
 49 51  1  0
 49 52  1  0
 52 53  1  0
 52 54  1  0
 37  2  1  0
 52 38  1  0
 32  6  1  0
 25  9  1  0
M  CHG  1  32  -1
M  END
>  <UniqueID>  (43) 
42

>  <SMILES>  (43) 
CN1CCC(c2cc[n-]/c(=N/c3ccc(N4CCCOCC4)cn3)n2)CC1

>  <Energy>  (43) 
79.8026469183498

>  <Genealogy>  (43) 
CN1CCC(c2cc[n-]c(=Nc3ccc(N4CCCOCC4)cn3)n2)CC1 (protonated)
CN1CCC(c2cc[n-]/c(=N/c3ccc(N4CCCOCC4)cn3)n2)CC1 (cis-trans isomerization)
CN1CCC(c2cc[n-]/c(=N/c3ccc(N4CCCOCC4)cn3)n2)CC1 (3D coordinates assigned)
CN1CCC(c2cc[n-]/c(=N/c3ccc(N4CCCOCC4)cn3)n2)CC1 (nonaromatic ring conformer: 79.8026469183498 kcal/mol)

>  <smiles>  (43) 
CN1CCC(c2cc[nH]c(=Nc3ccc(N4CCCOCC4)cn3)n2)CC1

>  <score_type>  (43) 
oracle

>  <origin>  (43) 
adg

>  <m_score__min__energy>  (43) 
-8.5800000000000001

>  <m_primary>  (43) 
energy

$$$$
44:0
     RDKit          3D

 39 40  0  0  0  0  0  0  0  0999 V2000
   -3.1250   21.5150  -28.8670 C   0  0  0  0  0  0  0  0  0  0  0  0
   -3.9570   22.3360  -29.7650 N   0  0  0  0  0  0  0  0  0  0  0  0
   -4.2920   23.6470  -29.1660 C   0  0  0  0  0  0  0  0  0  0  0  0
   -3.6150   24.8000  -29.8560 C   0  0  0  0  0  0  0  0  0  0  0  0
   -4.1570   25.3290  -30.8630 O   0  0  0  0  0  0  0  0  0  0  0  0
   -2.3740   25.2990  -29.3430 N   0  0  0  0  0  0  0  0  0  0  0  0
   -1.5800   24.6950  -28.3120 C   0  0  0  0  0  0  0  0  0  0  0  0
   -0.5650   23.7630  -28.6020 C   0  0  0  0  0  0  0  0  0  0  0  0
    0.1670   23.1760  -27.5650 C   0  0  0  0  0  0  0  0  0  0  0  0
   -0.1150   23.5010  -26.2350 C   0  0  0  0  0  0  0  0  0  0  0  0
    0.5940   22.9280  -25.2320 F   0  0  0  0  0  0  0  0  0  0  0  0
   -1.1360   24.4070  -25.9410 C   0  0  0  0  0  0  0  0  0  0  0  0
   -1.8710   24.9960  -26.9750 C   0  0  0  0  0  0  0  0  0  0  0  0
   -3.3510   22.4650  -31.1060 C   0  0  0  0  0  0  0  0  0  0  0  0
   -3.9110   21.4200  -32.0310 C   0  0  0  0  0  0  0  0  0  0  0  0
   -3.3210   20.3130  -32.1440 O   0  0  0  0  0  0  0  0  0  0  0  0
   -5.1180   21.6430  -32.7710 N   0  0  0  0  0  0  0  0  0  0  0  0
   -6.3440   20.9600  -32.5030 C   0  0  0  0  0  0  0  0  0  0  0  0
   -6.5040   19.6390  -32.9410 C   0  0  0  0  0  0  0  0  0  0  0  0
   -7.6830   18.9430  -32.6630 C   0  0  0  0  0  0  0  0  0  0  0  0
   -8.7130   19.5660  -31.9540 C   0  0  0  0  0  0  0  0  0  0  0  0
   -8.5670   20.8900  -31.5280 C   0  0  0  0  0  0  0  0  0  0  0  0
   -7.3880   21.5940  -31.8030 C   0  0  0  0  0  0  0  0  0  0  0  0
   -7.2450   23.4190  -31.2380 Br  0  0  0  0  0  0  0  0  0  0  0  0
   -3.3678   21.7546  -27.8212 H   0  0  0  0  0  0  0  0  0  0  0  0
   -3.3240   20.4496  -29.0548 H   0  0  0  0  0  0  0  0  0  0  0  0
   -2.0623   21.7282  -29.0548 H   0  0  0  0  0  0  0  0  0  0  0  0
   -5.3806   23.7923  -29.2274 H   0  0  0  0  0  0  0  0  0  0  0  0
   -3.9371   23.6329  -28.1249 H   0  0  0  0  0  0  0  0  0  0  0  0
   -0.3474   23.4960  -29.6467 H   0  0  0  0  0  0  0  0  0  0  0  0
    0.9665   22.4569  -27.7965 H   0  0  0  0  0  0  0  0  0  0  0  0
   -1.3627   24.6580  -24.8943 H   0  0  0  0  0  0  0  0  0  0  0  0
   -2.6823   25.6997  -26.7371 H   0  0  0  0  0  0  0  0  0  0  0  0
   -3.5718   23.4640  -31.5101 H   0  0  0  0  0  0  0  0  0  0  0  0
   -2.2630   22.3257  -31.0234 H   0  0  0  0  0  0  0  0  0  0  0  0
   -5.6981   19.1478  -33.5061 H   0  0  0  0  0  0  0  0  0  0  0  0
   -7.8004   17.9034  -33.0027 H   0  0  0  0  0  0  0  0  0  0  0  0
   -9.6387   19.0152  -31.7309 H   0  0  0  0  0  0  0  0  0  0  0  0
   -9.3815   21.3804  -30.9747 H   0  0  0  0  0  0  0  0  0  0  0  0
  1  2  1  0
  2  3  1  0
  3  4  1  0
  4  5  2  0
  4  6  1  0
  6  7  1  0
  7  8  2  0
  8  9  1  0
  9 10  2  0
 10 11  1  0
 10 12  1  0
 12 13  2  0
  2 14  1  0
 14 15  1  0
 15 16  2  0
 15 17  1  0
 17 18  1  0
 18 19  2  0
 19 20  1  0
 20 21  2  0
 21 22  1  0
 22 23  2  0
 23 24  1  0
 13  7  1  0
 23 18  1  0
  1 25  1  0
  1 26  1  0
  1 27  1  0
  3 28  1  0
  3 29  1  0
  8 30  1  0
  9 31  1  0
 12 32  1  0
 13 33  1  0
 14 34  1  0
 14 35  1  0
 19 36  1  0
 20 37  1  0
 21 38  1  0
 22 39  1  0
M  CHG  2   6  -1  17  -1
M  END
>  <UniqueID>  (44) 
43

>  <SMILES>  (44) 
CN(CC(=O)[N-]c1ccc(F)cc1)CC(=O)[N-]c1ccccc1Br

>  <Energy>  (44) 
50.3622536516959

>  <Genealogy>  (44) 
CN(CC(=O)[N-]c1ccc(F)cc1)CC(=O)[N-]c1ccccc1Br (protonated)
CN(CC(=O)[N-]c1ccc(F)cc1)CC(=O)[N-]c1ccccc1Br (3D coordinates assigned)
CN(CC(=O)[N-]c1ccc(F)cc1)CC(=O)[N-]c1ccccc1Br (optimized conformer: 50.3622536516959 kcal/mol)

>  <smiles>  (44) 
CN(CC(=O)Nc1ccc(F)cc1)CC(=O)Nc1ccccc1Br

>  <score_type>  (44) 
oracle

>  <origin>  (44) 
adg

>  <m_score__min__energy>  (44) 
-10.390000000000001

>  <m_primary>  (44) 
energy

$$$$
45:0
     RDKit          3D

 39 41  0  0  0  0  0  0  0  0999 V2000
   -3.7930   19.2010  -33.9090 C   0  0  0  0  0  0  0  0  0  0  0  0
   -5.1210   19.7010  -33.4560 C   0  0  0  0  0  0  0  0  0  0  0  0
   -5.3350   20.3010  -32.2690 N   0  0  0  0  0  0  0  0  0  0  0  0
   -6.6540   20.5780  -32.3480 C   0  0  0  0  0  0  0  0  0  0  0  0
   -7.4270   21.2920  -31.2750 C   0  0  2  0  0  0  0  0  0  0  0  0
   -8.8470   20.7340  -31.1580 C   0  0  0  0  0  0  0  0  0  0  0  0
   -9.7520   21.7510  -31.8320 C   0  0  0  0  0  0  0  0  0  0  0  0
   -8.8570   22.9130  -32.2400 C   0  0  0  0  0  0  0  0  0  0  0  0
   -7.5360   22.7190  -31.6220 N   0  0  0  0  0  0  0  0  0  0  0  0
   -7.2770   23.6320  -30.4830 C   0  0  0  0  0  0  0  0  0  0  0  0
   -5.8240   23.9920  -30.3020 C   0  0  0  0  0  0  0  0  0  0  0  0
   -5.1650   25.0980  -30.8100 C   0  0  0  0  0  0  0  0  0  0  0  0
   -3.8610   25.0290  -30.4770 N   0  0  0  0  0  0  0  0  0  0  0  0
   -3.6880   23.9270  -29.7650 N   0  0  0  0  0  0  0  0  0  0  0  0
   -2.3900   23.4620  -29.2880 C   0  0  0  0  0  0  0  0  0  0  0  0
   -1.7720   24.4780  -28.3270 C   0  0  0  0  0  0  0  0  0  0  0  0
   -1.6050   25.7180  -28.9600 O   0  0  0  0  0  0  0  0  0  0  0  0
   -4.8560   23.2690  -29.6390 C   0  0  0  0  0  0  0  0  0  0  0  0
   -7.1970   20.1820  -33.5170 N   0  0  0  0  0  0  0  0  0  0  0  0
   -6.2150   19.6440  -34.1740 O   0  0  0  0  0  0  0  0  0  0  0  0
   -3.1709   18.9668  -33.0325 H   0  0  0  0  0  0  0  0  0  0  0  0
   -3.9302   18.2929  -34.5145 H   0  0  0  0  0  0  0  0  0  0  0  0
   -3.2972   19.9740  -34.5145 H   0  0  0  0  0  0  0  0  0  0  0  0
   -6.8950   21.1510  -30.3226 H   0  0  0  0  0  0  0  0  0  0  0  0
   -8.9189   19.7615  -31.6670 H   0  0  0  0  0  0  0  0  0  0  0  0
   -9.1322   20.5737  -30.1078 H   0  0  0  0  0  0  0  0  0  0  0  0
  -10.2293   21.3080  -32.7185 H   0  0  0  0  0  0  0  0  0  0  0  0
  -10.5550   22.0819  -31.1570 H   0  0  0  0  0  0  0  0  0  0  0  0
   -8.7552   22.9372  -33.3350 H   0  0  0  0  0  0  0  0  0  0  0  0
   -9.2956   23.8645  -31.9050 H   0  0  0  0  0  0  0  0  0  0  0  0
   -7.8450   24.5595  -30.6474 H   0  0  0  0  0  0  0  0  0  0  0  0
   -7.5882   23.0997  -29.5721 H   0  0  0  0  0  0  0  0  0  0  0  0
   -5.6317   25.9055  -31.3932 H   0  0  0  0  0  0  0  0  0  0  0  0
   -2.5198   22.5029  -28.7652 H   0  0  0  0  0  0  0  0  0  0  0  0
   -1.7195   23.3383  -30.1512 H   0  0  0  0  0  0  0  0  0  0  0  0
   -2.4342   24.6023  -27.4575 H   0  0  0  0  0  0  0  0  0  0  0  0
   -0.7870   24.1085  -28.0056 H   0  0  0  0  0  0  0  0  0  0  0  0
   -2.1020   25.6720  -29.8180 H   0  0  0  0  0  0  0  0  0  0  0  0
   -5.0103   22.3216  -29.1017 H   0  0  0  0  0  0  0  0  0  0  0  0
  1  2  1  0
  2  3  2  0
  3  4  1  0
  4  5  1  0
  5  6  1  0
  6  7  1  0
  7  8  1  0
  8  9  1  0
  9 10  1  0
 10 11  1  0
 11 12  1  0
 12 13  2  0
 13 14  1  0
 14 15  1  0
 15 16  1  0
 16 17  1  0
 14 18  1  0
  4 19  2  0
 19 20  1  0
 20  2  1  0
  9  5  1  0
 18 11  2  0
  1 21  1  0
  1 22  1  0
  1 23  1  0
  5 24  1  1
  6 25  1  0
  6 26  1  0
  7 27  1  0
  7 28  1  0
  8 29  1  0
  8 30  1  0
 10 31  1  0
 10 32  1  0
 12 33  1  0
 15 34  1  0
 15 35  1  0
 16 36  1  0
 16 37  1  0
 17 38  1  0
 18 39  1  0
M  END
>  <UniqueID>  (45) 
44

>  <SMILES>  (45) 
Cc1nc([C@@H]2CCCN2Cc2cnn(CCO)c2)no1

>  <Energy>  (45) 
100.98601208679887

>  <Genealogy>  (45) 
Cc1nc([C@@H]2CCCN2Cc2cnn(CCO)c2)no1 (chirality)
Cc1nc([C@@H]2CCCN2Cc2cnn(CCO)c2)no1 (3D coordinates assigned)
Cc1nc([C@@H]2CCCN2Cc2cnn(CCO)c2)no1 (nonaromatic ring conformer: 100.98601208679887 kcal/mol)

>  <smiles>  (45) 
Cc1nc(C2CCCN2Cc2cnn(CCO)c2)no1

>  <score_type>  (45) 
oracle

>  <origin>  (45) 
adg

>  <m_score__min__energy>  (45) 
-8.3200000000000003

>  <m_primary>  (45) 
energy

$$$$
46:0
     RDKit          3D

 49 52  0  0  0  0  0  0  0  0999 V2000
   -0.2500   26.1100  -24.0300 C   0  0  0  0  0  0  0  0  0  0  0  0
    0.0670   25.5190  -25.2870 O   0  0  0  0  0  0  0  0  0  0  0  0
   -0.8690   25.2700  -26.3030 C   0  0  0  0  0  0  0  0  0  0  0  0
   -2.2150   25.1360  -25.9490 C   0  0  0  0  0  0  0  0  0  0  0  0
   -3.1860   24.8850  -26.9220 C   0  0  0  0  0  0  0  0  0  0  0  0
   -2.8260   24.7640  -28.2750 C   0  0  0  0  0  0  0  0  0  0  0  0
   -3.8530   24.4940  -29.3090 C   0  0  0  0  0  0  0  0  0  0  0  0
   -3.8310   25.0440  -30.4750 N   0  0  0  0  0  0  0  0  0  0  0  0
   -4.8930   24.6030  -31.2190 O   0  0  0  0  0  0  0  0  0  0  0  0
   -5.7140   23.6850  -30.5140 C   0  0  1  0  0  0  0  0  0  0  0  0
   -5.7840   22.3610  -31.2370 C   0  0  0  0  0  0  0  0  0  0  0  0
   -6.9770   21.6240  -31.2390 C   0  0  0  0  0  0  0  0  0  0  0  0
   -7.0400   20.3780  -31.8680 C   0  0  0  0  0  0  0  0  0  0  0  0
   -5.9050   19.8370  -32.5020 C   0  0  0  0  0  0  0  0  0  0  0  0
   -5.9620   18.5420  -33.1390 N   0  0  0  0  0  0  0  0  0  0  0  0
   -6.6550   17.4280  -32.4680 C   0  0  0  0  0  0  0  0  0  0  0  0
   -7.0760   16.3490  -33.4720 C   0  0  0  0  0  0  0  0  0  0  0  0
   -5.8840   15.8400  -34.2970 C   0  0  0  0  0  0  0  0  0  0  0  0
   -4.8640   16.9400  -34.6580 C   0  0  0  0  0  0  0  0  0  0  0  0
   -5.4320   18.3540  -34.4990 C   0  0  0  0  0  0  0  0  0  0  0  0
   -4.7070   20.5740  -32.4850 C   0  0  0  0  0  0  0  0  0  0  0  0
   -4.6460   21.8220  -31.8580 C   0  0  0  0  0  0  0  0  0  0  0  0
   -5.0170   23.5670  -29.1460 C   0  0  0  0  0  0  0  0  0  0  0  0
   -1.4720   24.9010  -28.6310 C   0  0  0  0  0  0  0  0  0  0  0  0
   -0.5020   25.1500  -27.6560 C   0  0  0  0  0  0  0  0  0  0  0  0
    0.1009   25.4558  -23.2183 H   0  0  0  0  0  0  0  0  0  0  0  0
    0.2436   27.0898  -23.9506 H   0  0  0  0  0  0  0  0  0  0  0  0
   -1.3393   26.2407  -23.9506 H   0  0  0  0  0  0  0  0  0  0  0  0
   -2.5125   25.2291  -24.8941 H   0  0  0  0  0  0  0  0  0  0  0  0
   -4.2405   24.7813  -26.6266 H   0  0  0  0  0  0  0  0  0  0  0  0
   -6.7606   24.0107  -30.4214 H   0  0  0  0  0  0  0  0  0  0  0  0
   -7.8701   22.0300  -30.7415 H   0  0  0  0  0  0  0  0  0  0  0  0
   -7.9847   19.8146  -31.8679 H   0  0  0  0  0  0  0  0  0  0  0  0
   -5.9788   16.9812  -31.7243 H   0  0  0  0  0  0  0  0  0  0  0  0
   -7.5598   17.8234  -31.9832 H   0  0  0  0  0  0  0  0  0  0  0  0
   -7.5155   15.5035  -32.9225 H   0  0  0  0  0  0  0  0  0  0  0  0
   -7.8061   16.7931  -34.1647 H   0  0  0  0  0  0  0  0  0  0  0  0
   -5.3657   15.0633  -33.7155 H   0  0  0  0  0  0  0  0  0  0  0  0
   -6.2899   15.4549  -35.2441 H   0  0  0  0  0  0  0  0  0  0  0  0
   -3.9888   16.8371  -33.9996 H   0  0  0  0  0  0  0  0  0  0  0  0
   -4.5969   16.8083  -35.7169 H   0  0  0  0  0  0  0  0  0  0  0  0
   -4.6337   19.0883  -34.6820 H   0  0  0  0  0  0  0  0  0  0  0  0
   -6.2476   18.4953  -35.2234 H   0  0  0  0  0  0  0  0  0  0  0  0
   -3.8089   20.1641  -32.9701 H   0  0  0  0  0  0  0  0  0  0  0  0
   -3.7010   22.3849  -31.8511 H   0  0  0  0  0  0  0  0  0  0  0  0
   -5.6784   23.8954  -28.3307 H   0  0  0  0  0  0  0  0  0  0  0  0
   -4.7312   22.5384  -28.8811 H   0  0  0  0  0  0  0  0  0  0  0  0
   -1.1740   24.8114  -29.6861 H   0  0  0  0  0  0  0  0  0  0  0  0
    0.5536   25.2527  -27.9479 H   0  0  0  0  0  0  0  0  0  0  0  0
  1  2  1  0
  2  3  1  0
  3  4  2  0
  4  5  1  0
  5  6  2  0
  6  7  1  0
  7  8  2  0
  8  9  1  0
  9 10  1  0
 10 11  1  0
 11 12  2  0
 12 13  1  0
 13 14  2  0
 14 15  1  0
 15 16  1  0
 16 17  1  0
 17 18  1  0
 18 19  1  0
 19 20  1  0
 14 21  1  0
 21 22  2  0
 10 23  1  0
  6 24  1  0
 24 25  2  0
 25  3  1  0
 23  7  1  0
 22 11  1  0
 20 15  1  0
  1 26  1  0
  1 27  1  0
  1 28  1  0
  4 29  1  0
  5 30  1  0
 10 31  1  1
 12 32  1  0
 13 33  1  0
 16 34  1  0
 16 35  1  0
 17 36  1  0
 17 37  1  0
 18 38  1  0
 18 39  1  0
 19 40  1  0
 19 41  1  0
 20 42  1  0
 20 43  1  0
 21 44  1  0
 22 45  1  0
 23 46  1  0
 23 47  1  0
 24 48  1  0
 25 49  1  0
M  END
>  <UniqueID>  (46) 
45

>  <SMILES>  (46) 
COc1ccc(C2=NO[C@@H](c3ccc(N4CCCCC4)cc3)C2)cc1

>  <Energy>  (46) 
69.25061957017824

>  <Genealogy>  (46) 
COc1ccc(C2=NO[C@@H](c3ccc(N4CCCCC4)cc3)C2)cc1 (chirality)
COc1ccc(C2=NO[C@@H](c3ccc(N4CCCCC4)cc3)C2)cc1 (3D coordinates assigned)
COc1ccc(C2=NO[C@@H](c3ccc(N4CCCCC4)cc3)C2)cc1 (nonaromatic ring conformer: 69.25061957017824 kcal/mol)

>  <smiles>  (46) 
COc1ccc(C2=NOC(c3ccc(N4CCCCC4)cc3)C2)cc1

>  <score_type>  (46) 
oracle

>  <origin>  (46) 
adg

>  <m_score__min__energy>  (46) 
-8.9000000000000004

>  <m_primary>  (46) 
energy

$$$$
47:0
     RDKit          3D

 34 34  0  0  0  0  0  0  0  0999 V2000
   -4.1920   23.0940  -28.3070 C   0  0  0  0  0  0  0  0  0  0  0  0
   -4.8850   24.2850  -28.9630 C   0  0  0  0  0  0  0  0  0  0  0  0
   -4.5500   24.3710  -30.4300 C   0  0  0  0  0  0  0  0  0  0  0  0
   -3.8610   25.2980  -30.8330 O   0  0  0  0  0  0  0  0  0  0  0  0
   -5.0040   23.3080  -31.3990 C   0  0  0  0  0  0  0  0  0  0  0  0
   -6.3670   23.6280  -32.0310 C   0  0  0  0  0  0  0  0  0  0  0  0
   -7.5400   23.1630  -31.1520 C   0  0  0  0  0  0  0  0  0  0  0  0
   -8.7030   22.5750  -31.9710 C   0  0  0  0  0  0  0  0  0  0  0  0
   -9.1340   21.1620  -31.5440 C   0  0  0  0  0  0  0  0  0  0  0  0
   -8.2420   20.0920  -32.1190 C   0  0  0  0  0  0  0  0  0  0  0  0
   -7.2450   20.4250  -33.0480 C   0  0  0  0  0  0  0  0  0  0  0  0
   -6.4450   19.4180  -33.5910 C   0  0  0  0  0  0  0  0  0  0  0  0
   -6.6350   18.1230  -33.2240 N   0  0  0  0  0  0  0  0  0  0  0  0
   -7.5970   17.7700  -32.3290 C   0  0  0  0  0  0  0  0  0  0  0  0
   -8.4190   18.7470  -31.7620 C   0  0  0  0  0  0  0  0  0  0  0  0
   -4.2497   23.1932  -27.2130 H   0  0  0  0  0  0  0  0  0  0  0  0
   -4.6897   22.1635  -28.6176 H   0  0  0  0  0  0  0  0  0  0  0  0
   -3.1371   23.0669  -28.6176 H   0  0  0  0  0  0  0  0  0  0  0  0
   -5.9735   24.1738  -28.8495 H   0  0  0  0  0  0  0  0  0  0  0  0
   -4.5355   25.2050  -28.4716 H   0  0  0  0  0  0  0  0  0  0  0  0
   -4.2560   23.2195  -32.2007 H   0  0  0  0  0  0  0  0  0  0  0  0
   -5.1097   22.3683  -30.8371 H   0  0  0  0  0  0  0  0  0  0  0  0
   -6.4431   24.7157  -32.1765 H   0  0  0  0  0  0  0  0  0  0  0  0
   -6.4293   23.0900  -32.9884 H   0  0  0  0  0  0  0  0  0  0  0  0
   -7.1746   22.3924  -30.4573 H   0  0  0  0  0  0  0  0  0  0  0  0
   -7.9237   24.0450  -30.6183 H   0  0  0  0  0  0  0  0  0  0  0  0
   -9.5695   23.2446  -31.8668 H   0  0  0  0  0  0  0  0  0  0  0  0
   -8.3449   22.4926  -33.0078 H   0  0  0  0  0  0  0  0  0  0  0  0
   -9.0997   21.0986  -30.4464 H   0  0  0  0  0  0  0  0  0  0  0  0
  -10.1516   20.9917  -31.9254 H   0  0  0  0  0  0  0  0  0  0  0  0
   -7.0945   21.4729  -33.3467 H   0  0  0  0  0  0  0  0  0  0  0  0
   -5.6593   19.6730  -34.3173 H   0  0  0  0  0  0  0  0  0  0  0  0
   -7.7278   16.7137  -32.0514 H   0  0  0  0  0  0  0  0  0  0  0  0
   -9.1996   18.4636  -31.0406 H   0  0  0  0  0  0  0  0  0  0  0  0
  1  2  1  0
  2  3  1  0
  3  4  2  0
  3  5  1  0
  5  6  1  0
  6  7  1  0
  7  8  1  0
  8  9  1  0
  9 10  1  0
 10 11  2  0
 11 12  1  0
 12 13  2  0
 13 14  1  0
 14 15  2  0
 15 10  1  0
  1 16  1  0
  1 17  1  0
  1 18  1  0
  2 19  1  0
  2 20  1  0
  5 21  1  0
  5 22  1  0
  6 23  1  0
  6 24  1  0
  7 25  1  0
  7 26  1  0
  8 27  1  0
  8 28  1  0
  9 29  1  0
  9 30  1  0
 11 31  1  0
 12 32  1  0
 14 33  1  0
 15 34  1  0
M  END
>  <UniqueID>  (47) 
46

>  <SMILES>  (47) 
CCC(=O)CCCCCc1ccncc1

>  <Energy>  (47) 
19.211555315288372

>  <Genealogy>  (47) 
CCC(=O)CCCCCc1ccncc1 (3D coordinates assigned)
CCC(=O)CCCCCc1ccncc1 (optimized conformer: 19.211555315288372 kcal/mol)

>  <smiles>  (47) 
CCC(=O)CCCCCc1ccncc1

>  <score_type>  (47) 
oracle

>  <origin>  (47) 
adg

>  <m_score__min__energy>  (47) 
-7

>  <m_primary>  (47) 
energy

$$$$
