0:0
     RDKit          3D

 35 37  0  0  0  0  0  0  0  0999 V2000
   -8.7850   18.7401  -33.3562 H   0  0  0  0  0  0  0  0  0  0  0  0
   -8.5010   19.6570  -32.8190 C   0  0  0  0  0  0  0  0  0  0  0  0
   -9.4940   20.4440  -32.2050 C   0  0  0  0  0  0  0  0  0  0  0  0
  -10.5488   20.1380  -32.2665 H   0  0  0  0  0  0  0  0  0  0  0  0
   -9.1470   21.6180  -31.5140 C   0  0  0  0  0  0  0  0  0  0  0  0
   -9.9206   22.2352  -31.0337 H   0  0  0  0  0  0  0  0  0  0  0  0
   -7.8000   21.9860  -31.4490 C   0  0  0  0  0  0  0  0  0  0  0  0
   -7.2840   23.1180  -30.8110 C   0  0  0  0  0  0  0  0  0  0  0  0
   -7.8991   23.8565  -30.2760 H   0  0  0  0  0  0  0  0  0  0  0  0
   -5.8990   23.2000  -30.9330 C   0  0  0  0  0  0  0  0  0  0  0  0
   -4.9060   24.5010  -30.3020 S   0  0  0  0  0  0  0  0  0  0  0  0
   -5.3900   24.9140  -28.9400 O   0  0  0  0  0  0  0  0  0  0  0  0
   -4.9960   25.6760  -31.2340 O   0  0  0  0  0  0  0  0  0  0  0  0
   -3.2510   23.9880  -30.1940 N   0  0  0  0  0  0  0  0  0  0  0  0
   -2.5210   23.9500  -29.1150 C   0  0  0  0  0  0  0  0  0  0  0  0
   -1.4920   23.0040  -29.0400 C   0  0  0  0  0  0  0  0  0  0  0  0
   -1.3157   22.3147  -29.8789 H   0  0  0  0  0  0  0  0  0  0  0  0
   -0.6880   22.9360  -27.8970 C   0  0  0  0  0  0  0  0  0  0  0  0
    0.3950   21.9040  -27.7940 C   0  0  0  0  0  0  0  0  0  0  0  0
    0.6082   21.7008  -26.7342 H   0  0  0  0  0  0  0  0  0  0  0  0
    0.0660   20.9769  -28.2861 H   0  0  0  0  0  0  0  0  0  0  0  0
    1.3052   22.2773  -28.2861 H   0  0  0  0  0  0  0  0  0  0  0  0
   -0.9500   23.7940  -26.8250 C   0  0  0  0  0  0  0  0  0  0  0  0
   -0.3387   23.7398  -25.9121 H   0  0  0  0  0  0  0  0  0  0  0  0
   -1.9940   24.7230  -26.9180 C   0  0  0  0  0  0  0  0  0  0  0  0
   -2.2510   25.6780  -25.7900 C   0  0  0  0  0  0  0  0  0  0  0  0
   -2.1112   25.1584  -24.8306 H   0  0  0  0  0  0  0  0  0  0  0  0
   -1.5478   26.5213  -25.8561 H   0  0  0  0  0  0  0  0  0  0  0  0
   -3.2824   26.0545  -25.8561 H   0  0  0  0  0  0  0  0  0  0  0  0
   -2.7380   24.7970  -28.0600 N   0  0  0  0  0  0  0  0  0  0  0  0
   -3.4830   25.5260  -28.1050 H   0  0  0  0  0  0  0  0  0  0  0  0
   -5.3160   21.8900  -31.8260 S   0  0  0  0  0  0  0  0  0  0  0  0
   -6.8310   21.2030  -32.0590 C   0  0  0  0  0  0  0  0  0  0  0  0
   -7.1510   20.0350  -32.7500 C   0  0  0  0  0  0  0  0  0  0  0  0
   -6.3681   19.4273  -33.2273 H   0  0  0  0  0  0  0  0  0  0  0  0
  1  2  1  0
  2  3  2  0
  3  4  1  0
  3  5  1  0
  5  6  1  0
  5  7  2  0
  7  8  1  0
  8  9  1  0
  8 10  2  0
 10 11  1  0
 11 12  2  0
 11 13  2  0
 11 14  1  0
 14 15  2  0
 15 16  1  0
 16 17  1  0
 16 18  2  0
 18 19  1  0
 19 20  1  0
 19 21  1  0
 19 22  1  0
 18 23  1  0
 23 24  1  0
 23 25  2  0
 25 26  1  0
 26 27  1  0
 26 28  1  0
 26 29  1  0
 25 30  1  0
 30 31  1  0
 10 32  1  0
 32 33  1  0
 33 34  2  0
 34 35  1  0
 34  2  1  0
 33  7  1  0
 30 15  1  0
M  END
>  <UniqueID>  (1) 
1

>  <SMILES>  (1) 
Cc1cc(C)[nH]/c(=N\S(=O)(=O)c2cc3ccccc3s2)c1

>  <Energy>  (1) 
71.21293643073469

>  <Genealogy>  (1) 
Cc1cc(C)[nH]/c(=N\S(=O)(=O)c2cc3ccccc3s2)c1 (cis-trans isomerization)
Cc1cc(C)[nH]/c(=N\S(=O)(=O)c2cc3ccccc3s2)c1 (3D coordinates assigned)
Cc1cc(C)[nH]/c(=N\S(=O)(=O)c2cc3ccccc3s2)c1 (optimized conformer: 71.21293643073469 kcal/mol)

>  <smiles>  (1) 
Cc1cc(C)[nH]c(=NS(=O)(=O)c2cc3ccccc3s2)c1

>  <score_type>  (1) 
oracle

>  <origin>  (1) 
adg

>  <m_score__min__energy>  (1) 
-9.0399999999999991

>  <m_primary>  (1) 
energy

$$$$
1:0
     RDKit          3D

 44 47  0  0  0  0  0  0  0  0999 V2000
   -2.0704   21.3123  -32.1005 H   0  0  0  0  0  0  0  0  0  0  0  0
   -3.1590   21.4690  -32.1230 C   0  0  0  0  0  0  0  0  0  0  0  0
   -3.7690   22.6670  -32.2330 N   0  0  0  0  0  0  0  0  0  0  0  0
   -5.0850   22.3680  -32.2180 C   0  0  0  0  0  0  0  0  0  0  0  0
   -6.3750   23.6140  -32.3250 S   0  0  0  0  0  0  0  0  0  0  0  0
   -6.1940   24.1690  -30.5890 C   0  0  0  0  0  0  0  0  0  0  0  0
   -7.1876   24.4293  -30.1953 H   0  0  0  0  0  0  0  0  0  0  0  0
   -5.7389   23.3462  -30.0182 H   0  0  0  0  0  0  0  0  0  0  0  0
   -5.2920   25.3720  -30.4640 C   0  0  0  0  0  0  0  0  0  0  0  0
   -5.7850   26.5330  -30.4460 O   0  0  0  0  0  0  0  0  0  0  0  0
   -3.8650   25.2370  -30.5240 N   0  0  0  0  0  0  0  0  0  0  0  0
   -3.1250   24.5490  -29.7060 C   0  0  0  0  0  0  0  0  0  0  0  0
   -1.8960   24.9750  -29.3290 N   0  0  0  0  0  0  0  0  0  0  0  0
   -1.3460   24.1280  -28.4200 C   0  0  0  0  0  0  0  0  0  0  0  0
   -0.0970   24.3110  -27.8240 C   0  0  0  0  0  0  0  0  0  0  0  0
    0.5389   25.1633  -28.1054 H   0  0  0  0  0  0  0  0  0  0  0  0
    0.3330   23.3840  -26.8560 C   0  0  0  0  0  0  0  0  0  0  0  0
    1.3110   23.5151  -26.3699 H   0  0  0  0  0  0  0  0  0  0  0  0
   -0.4820   22.2890  -26.5060 C   0  0  0  0  0  0  0  0  0  0  0  0
   -0.1352   21.5697  -25.7495 H   0  0  0  0  0  0  0  0  0  0  0  0
   -1.7330   22.1100  -27.1160 C   0  0  0  0  0  0  0  0  0  0  0  0
   -2.3753   21.2571  -26.8514 H   0  0  0  0  0  0  0  0  0  0  0  0
   -2.1370   23.0440  -28.0660 C   0  0  0  0  0  0  0  0  0  0  0  0
   -3.5860   23.1200  -28.9090 S   0  0  0  0  0  0  0  0  0  0  0  0
   -5.3190   21.0450  -32.0970 N   0  0  0  0  0  0  0  0  0  0  0  0
   -6.5900   20.3810  -32.0750 C   0  0  0  0  0  0  0  0  0  0  0  0
   -7.6210   20.9180  -31.2870 C   0  0  0  0  0  0  0  0  0  0  0  0
   -7.4478   21.8438  -30.7188 H   0  0  0  0  0  0  0  0  0  0  0  0
   -8.8660   20.2850  -31.2190 C   0  0  0  0  0  0  0  0  0  0  0  0
   -9.6664   20.7126  -30.5973 H   0  0  0  0  0  0  0  0  0  0  0  0
   -9.0940   19.1130  -31.9380 C   0  0  0  0  0  0  0  0  0  0  0  0
  -10.0764   18.6205  -31.8893 H   0  0  0  0  0  0  0  0  0  0  0  0
   -8.0750   18.5630  -32.7210 C   0  0  0  0  0  0  0  0  0  0  0  0
   -8.2616   17.6377  -33.2858 H   0  0  0  0  0  0  0  0  0  0  0  0
   -6.8130   19.1810  -32.7940 C   0  0  0  0  0  0  0  0  0  0  0  0
   -5.7320   18.5320  -33.6310 C   0  0  0  0  0  0  0  0  0  0  0  0
   -4.8433   18.3654  -33.0045 H   0  0  0  0  0  0  0  0  0  0  0  0
   -5.4913   19.1995  -34.4715 H   0  0  0  0  0  0  0  0  0  0  0  0
   -6.2050   17.1930  -34.1930 C   0  0  0  0  0  0  0  0  0  0  0  0
   -6.4457   16.5117  -33.3636 H   0  0  0  0  0  0  0  0  0  0  0  0
   -7.1019   17.3506  -34.8101 H   0  0  0  0  0  0  0  0  0  0  0  0
   -5.4081   16.7523  -34.8101 H   0  0  0  0  0  0  0  0  0  0  0  0
   -4.1070   20.4700  -32.0430 C   0  0  0  0  0  0  0  0  0  0  0  0
   -3.9055   19.3925  -31.9512 H   0  0  0  0  0  0  0  0  0  0  0  0
  1  2  1  0
  2  3  1  0
  3  4  2  0
  4  5  1  0
  5  6  1  0
  6  7  1  0
  6  8  1  0
  6  9  1  0
  9 10  2  0
  9 11  1  0
 11 12  2  0
 12 13  1  0
 13 14  1  0
 14 15  2  0
 15 16  1  0
 15 17  1  0
 17 18  1  0
 17 19  2  0
 19 20  1  0
 19 21  1  0
 21 22  1  0
 21 23  2  0
 23 24  1  0
  4 25  1  0
 25 26  1  0
 26 27  2  0
 27 28  1  0
 27 29  1  0
 29 30  1  0
 29 31  2  0
 31 32  1  0
 31 33  1  0
 33 34  1  0
 33 35  2  0
 35 36  1  0
 36 37  1  0
 36 38  1  0
 36 39  1  0
 39 40  1  0
 39 41  1  0
 39 42  1  0
 25 43  1  0
 43 44  1  0
 43  2  2  0
 24 12  1  0
 35 26  1  0
 23 14  1  0
M  CHG  1  13  -1
M  END
>  <UniqueID>  (2) 
2

>  <SMILES>  (2) 
CCc1ccccc1-n1ccnc1SCC(=O)/N=c1/[n-]c2ccccc2s1

>  <Energy>  (2) 
122.02553267881524

>  <Genealogy>  (2) 
CCc1ccccc1-n1ccnc1SCC(=O)N=c1[n-]c2ccccc2s1 (protonated)
CCc1ccccc1-n1ccnc1SCC(=O)/N=c1/[n-]c2ccccc2s1 (cis-trans isomerization)
CCc1ccccc1-n1ccnc1SCC(=O)/N=c1/[n-]c2ccccc2s1 (3D coordinates assigned)
CCc1ccccc1-n1ccnc1SCC(=O)/N=c1/[n-]c2ccccc2s1 (optimized conformer: 122.02553267881524 kcal/mol)

>  <smiles>  (2) 
CCc1ccccc1-n1ccnc1SCC(=O)N=c1[nH]c2ccccc2s1

>  <score_type>  (2) 
oracle

>  <origin>  (2) 
adg

>  <m_score__min__energy>  (2) 
-11.449999999999999

>  <m_primary>  (2) 
energy

$$$$
2:0
     RDKit          3D

 32 33  0  0  0  0  0  0  0  0999 V2000
   -2.1720   21.1390  -33.4020 C   0  0  0  0  0  0  0  0  0  0  0  0
   -3.3820   21.7270  -32.9380 O   0  0  0  0  0  0  0  0  0  0  0  0
   -4.6070   21.0480  -32.8020 C   0  0  0  0  0  0  0  0  0  0  0  0
   -4.7100   19.6780  -33.0910 C   0  0  0  0  0  0  0  0  0  0  0  0
   -5.9250   19.0180  -32.9770 C   0  0  0  0  0  0  0  0  0  0  0  0
   -7.0770   19.7130  -32.5970 C   0  0  0  0  0  0  0  0  0  0  0  0
   -8.2990   19.0240  -32.5190 C   0  0  0  0  0  0  0  0  0  0  0  0
   -9.4650   19.6980  -32.1680 C   0  0  0  0  0  0  0  0  0  0  0  0
   -9.4260   21.0630  -31.9000 C   0  0  0  0  0  0  0  0  0  0  0  0
   -8.2200   21.7650  -31.9690 C   0  0  0  0  0  0  0  0  0  0  0  0
   -7.0120   21.1040  -32.3030 C   0  0  0  0  0  0  0  0  0  0  0  0
   -5.7470   21.7700  -32.3680 C   0  0  0  0  0  0  0  0  0  0  0  0
   -5.5520   23.2420  -32.0170 C   0  0  0  0  0  0  0  0  0  0  0  0
   -4.6480   23.3930  -30.8750 N   0  0  0  0  0  0  0  0  0  0  0  0
   -4.5480   24.4350  -30.1000 C   0  0  0  0  0  0  0  0  0  0  0  0
   -3.9570   25.6270  -30.6180 N   0  0  0  0  0  0  0  0  0  0  0  0
   -5.0140   24.4170  -28.7450 N   0  0  0  0  0  0  0  0  0  0  0  0
   -1.5561   20.8397  -32.5411 H   0  0  0  0  0  0  0  0  0  0  0  0
   -2.4049   20.2536  -34.0118 H   0  0  0  0  0  0  0  0  0  0  0  0
   -1.6197   21.8692  -34.0118 H   0  0  0  0  0  0  0  0  0  0  0  0
   -3.8170   19.1214  -33.4115 H   0  0  0  0  0  0  0  0  0  0  0  0
   -5.9823   17.9398  -33.1872 H   0  0  0  0  0  0  0  0  0  0  0  0
   -8.3343   17.9463  -32.7365 H   0  0  0  0  0  0  0  0  0  0  0  0
  -10.4175   19.1517  -32.1024 H   0  0  0  0  0  0  0  0  0  0  0  0
  -10.3517   21.5933  -31.6318 H   0  0  0  0  0  0  0  0  0  0  0  0
   -8.2081   22.8451  -31.7613 H   0  0  0  0  0  0  0  0  0  0  0  0
   -5.1255   23.7656  -32.8853 H   0  0  0  0  0  0  0  0  0  0  0  0
   -6.5289   23.6715  -31.7503 H   0  0  0  0  0  0  0  0  0  0  0  0
   -3.6070   25.6620  -31.6010 H   0  0  0  0  0  0  0  0  0  0  0  0
   -3.8640   26.4770  -30.0190 H   0  0  0  0  0  0  0  0  0  0  0  0
   -5.5010   23.5950  -28.3310 H   0  0  0  0  0  0  0  0  0  0  0  0
   -4.8950   25.2620  -28.1430 H   0  0  0  0  0  0  0  0  0  0  0  0
  1  2  1  0
  2  3  1  0
  3  4  2  0
  4  5  1  0
  5  6  2  0
  6  7  1  0
  7  8  2  0
  8  9  1  0
  9 10  2  0
 10 11  1  0
 11 12  2  0
 12 13  1  0
 13 14  1  0
 14 15  2  3
 15 16  1  0
 15 17  1  0
 12  3  1  0
 11  6  1  0
  1 18  1  0
  1 19  1  0
  1 20  1  0
  4 21  1  0
  5 22  1  0
  7 23  1  0
  8 24  1  0
  9 25  1  0
 10 26  1  0
 13 27  1  0
 13 28  1  0
 16 29  1  0
 16 30  1  0
 17 31  1  0
 17 32  1  0
M  END
>  <UniqueID>  (3) 
3

>  <SMILES>  (3) 
COc1ccc2ccccc2c1CN=C(N)N

>  <Energy>  (3) 
38.878605459515285

>  <Genealogy>  (3) 
COc1ccc2ccccc2c1CN=C(N)N (3D coordinates assigned)
COc1ccc2ccccc2c1CN=C(N)N (optimized conformer: 38.878605459515285 kcal/mol)

>  <smiles>  (3) 
COc1ccc2ccccc2c1CN=C(N)N

>  <score_type>  (3) 
oracle

>  <origin>  (3) 
adg

>  <m_score__min__energy>  (3) 
-8.1500000000000004

>  <m_primary>  (3) 
energy

$$$$
3:0
     RDKit          3D

 30 31  0  0  0  0  0  0  0  0999 V2000
   -1.5130   25.0170  -28.2300 C   0  0  0  0  0  0  0  0  0  0  0  0
   -2.3560   25.2930  -29.3440 O   0  0  0  0  0  0  0  0  0  0  0  0
   -3.3450   24.4200  -29.8240 C   0  0  0  0  0  0  0  0  0  0  0  0
   -3.0590   23.1000  -30.2180 C   0  0  0  0  0  0  0  0  0  0  0  0
   -4.0780   22.2670  -30.6900 C   0  0  0  0  0  0  0  0  0  0  0  0
   -5.4010   22.7350  -30.7800 C   0  0  0  0  0  0  0  0  0  0  0  0
   -6.4970   21.8680  -31.2780 C   0  0  0  0  0  0  0  0  0  0  0  0
   -7.7920   22.2560  -31.3240 N   0  0  0  0  0  0  0  0  0  0  0  0
   -8.4640   21.2300  -31.8190 N   0  0  0  0  0  0  0  0  0  0  0  0
   -9.9100   21.2050  -32.0010 C   0  0  0  0  0  0  0  0  0  0  0  0
   -7.5940   20.2330  -32.0560 C   0  0  0  0  0  0  0  0  0  0  0  0
   -8.0260   18.6160  -32.7020 S   0  0  0  0  0  0  0  0  0  0  0  0
   -6.7670   17.7560  -31.7100 C   0  0  0  0  0  0  0  0  0  0  0  0
   -6.3440   20.6030  -31.7320 N   0  0  0  0  0  0  0  0  0  0  0  0
   -5.6790   24.0560  -30.3860 C   0  0  0  0  0  0  0  0  0  0  0  0
   -4.6590   24.8870  -29.9130 C   0  0  0  0  0  0  0  0  0  0  0  0
   -2.0670   25.1984  -27.2971 H   0  0  0  0  0  0  0  0  0  0  0  0
   -1.1899   23.9662  -28.2662 H   0  0  0  0  0  0  0  0  0  0  0  0
   -0.6310   25.6733  -28.2662 H   0  0  0  0  0  0  0  0  0  0  0  0
   -2.0282   22.7213  -30.1544 H   0  0  0  0  0  0  0  0  0  0  0  0
   -3.8426   21.2363  -30.9937 H   0  0  0  0  0  0  0  0  0  0  0  0
  -10.4032   21.1965  -31.0178 H   0  0  0  0  0  0  0  0  0  0  0  0
  -10.2245   22.0978  -32.5613 H   0  0  0  0  0  0  0  0  0  0  0  0
  -10.1935   20.3018  -32.5613 H   0  0  0  0  0  0  0  0  0  0  0  0
   -6.9802   17.9017  -30.6407 H   0  0  0  0  0  0  0  0  0  0  0  0
   -6.7863   16.6815  -31.9447 H   0  0  0  0  0  0  0  0  0  0  0  0
   -5.7731   18.1648  -31.9447 H   0  0  0  0  0  0  0  0  0  0  0  0
   -5.4790   20.0250  -31.8110 H   0  0  0  0  0  0  0  0  0  0  0  0
   -6.7082   24.4389  -30.4505 H   0  0  0  0  0  0  0  0  0  0  0  0
   -4.8930   25.9177  -29.6082 H   0  0  0  0  0  0  0  0  0  0  0  0
  1  2  1  0
  2  3  1  0
  3  4  2  0
  4  5  1  0
  5  6  2  0
  6  7  1  0
  7  8  2  0
  8  9  1  0
  9 10  1  0
  9 11  1  0
 11 12  1  0
 12 13  1  0
 11 14  2  0
  6 15  1  0
 15 16  2  0
 16  3  1  0
 14  7  1  0
  1 17  1  0
  1 18  1  0
  1 19  1  0
  4 20  1  0
  5 21  1  0
 10 22  1  0
 10 23  1  0
 10 24  1  0
 13 25  1  0
 13 26  1  0
 13 27  1  0
 14 28  1  0
 15 29  1  0
 16 30  1  0
M  CHG  1  14   1
M  END
>  <UniqueID>  (4) 
4

>  <SMILES>  (4) 
COc1ccc(-c2nn(C)c(SC)[nH+]2)cc1

>  <Energy>  (4) 
60.42407312840898

>  <Genealogy>  (4) 
COc1ccc(-c2nn(C)c(SC)[nH+]2)cc1 (protonated)
COc1ccc(-c2nn(C)c(SC)[nH+]2)cc1 (3D coordinates assigned)
COc1ccc(-c2nn(C)c(SC)[nH+]2)cc1 (optimized conformer: 60.42407312840898 kcal/mol)

>  <smiles>  (4) 
COc1ccc(-c2nc(SC)n(C)n2)cc1

>  <score_type>  (4) 
oracle

>  <origin>  (4) 
adg

>  <m_score__min__energy>  (4) 
-6.1200000000000001

>  <m_primary>  (4) 
energy

$$$$
4:0
     RDKit          3D

 47 49  0  0  0  0  0  0  0  0999 V2000
   -0.1510   23.3070  -25.0390 C   0  0  0  0  0  0  0  0  0  0  0  0
   -0.0250   23.1250  -26.4450 O   0  0  0  0  0  0  0  0  0  0  0  0
   -1.1000   23.1410  -27.3460 C   0  0  0  0  0  0  0  0  0  0  0  0
   -1.9860   22.0570  -27.4850 C   0  0  0  0  0  0  0  0  0  0  0  0
   -3.0430   22.1200  -28.3960 C   0  0  0  0  0  0  0  0  0  0  0  0
   -3.2370   23.2680  -29.1870 C   0  0  0  0  0  0  0  0  0  0  0  0
   -4.3490   23.3620  -30.1620 C   0  0  0  0  0  0  0  0  0  0  0  0
   -5.1970   22.3580  -30.4750 N   0  0  0  0  0  0  0  0  0  0  0  0
   -6.0210   22.8900  -31.3940 C   0  0  0  0  0  0  0  0  0  0  0  0
   -7.1720   22.1670  -32.0350 C   0  0  0  0  0  0  0  0  0  0  0  0
   -7.0570   20.6960  -31.8740 N   0  0  0  0  0  0  0  0  0  0  0  0
   -8.3650   20.0090  -31.6070 C   0  0  1  0  0  0  0  0  0  0  0  0
   -9.4960   20.4250  -32.5720 C   0  0  0  0  0  0  0  0  0  0  0  0
   -8.2220   18.4630  -31.6110 C   0  0  0  0  0  0  0  0  0  0  0  0
   -6.7800   18.0420  -31.3540 C   0  0  0  0  0  0  0  0  0  0  0  0
   -5.8540   18.5960  -32.4470 C   0  0  0  0  0  0  0  0  0  0  0  0
   -6.2840   20.0030  -32.9450 C   0  0  2  0  0  0  0  0  0  0  0  0
   -5.0270   20.7670  -33.4100 C   0  0  0  0  0  0  0  0  0  0  0  0
   -5.6620   24.2040  -31.6030 C   0  0  0  0  0  0  0  0  0  0  0  0
   -4.6290   24.4600  -30.8340 O   0  0  0  0  0  0  0  0  0  0  0  0
   -2.3480   24.3480  -29.0440 C   0  0  0  0  0  0  0  0  0  0  0  0
   -1.2910   24.2820  -28.1320 C   0  0  0  0  0  0  0  0  0  0  0  0
    0.3997   22.5116  -24.5155 H   0  0  0  0  0  0  0  0  0  0  0  0
    0.2634   24.2863  -24.7574 H   0  0  0  0  0  0  0  0  0  0  0  0
   -1.2135   23.2638  -24.7574 H   0  0  0  0  0  0  0  0  0  0  0  0
   -1.8455   21.1542  -26.8724 H   0  0  0  0  0  0  0  0  0  0  0  0
   -3.7290   21.2660  -28.4960 H   0  0  0  0  0  0  0  0  0  0  0  0
   -5.2300   21.3870  -30.0970 H   0  0  0  0  0  0  0  0  0  0  0  0
   -8.1090   22.5042  -31.5677 H   0  0  0  0  0  0  0  0  0  0  0  0
   -7.1626   22.3951  -33.1111 H   0  0  0  0  0  0  0  0  0  0  0  0
   -8.6534   20.3449  -30.6000 H   0  0  0  0  0  0  0  0  0  0  0  0
  -10.3730   20.7476  -31.9917 H   0  0  0  0  0  0  0  0  0  0  0  0
   -9.1504   21.2548  -33.2060 H   0  0  0  0  0  0  0  0  0  0  0  0
   -9.7705   19.5690  -33.2060 H   0  0  0  0  0  0  0  0  0  0  0  0
   -8.8646   18.0412  -30.8241 H   0  0  0  0  0  0  0  0  0  0  0  0
   -8.5232   18.0880  -32.6003 H   0  0  0  0  0  0  0  0  0  0  0  0
   -6.4585   18.4303  -30.3763 H   0  0  0  0  0  0  0  0  0  0  0  0
   -6.7234   16.9435  -31.3635 H   0  0  0  0  0  0  0  0  0  0  0  0
   -4.8335   18.6634  -32.0419 H   0  0  0  0  0  0  0  0  0  0  0  0
   -5.9082   17.9103  -33.3054 H   0  0  0  0  0  0  0  0  0  0  0  0
   -6.9582   19.9395  -33.8118 H   0  0  0  0  0  0  0  0  0  0  0  0
   -4.4611   21.1109  -32.5317 H   0  0  0  0  0  0  0  0  0  0  0  0
   -4.3953   20.0999  -34.0149 H   0  0  0  0  0  0  0  0  0  0  0  0
   -5.3283   21.6349  -34.0149 H   0  0  0  0  0  0  0  0  0  0  0  0
   -6.1519   24.9102  -32.2895 H   0  0  0  0  0  0  0  0  0  0  0  0
   -2.4856   25.2523  -29.6550 H   0  0  0  0  0  0  0  0  0  0  0  0
   -0.6034   25.1347  -28.0315 H   0  0  0  0  0  0  0  0  0  0  0  0
  1  2  1  0
  2  3  1  0
  3  4  2  0
  4  5  1  0
  5  6  2  0
  6  7  1  0
  7  8  2  0
  8  9  1  0
  9 10  1  0
 10 11  1  0
 11 12  1  0
 12 13  1  0
 12 14  1  0
 14 15  1  0
 15 16  1  0
 16 17  1  0
 17 18  1  0
  9 19  2  0
 19 20  1  0
  6 21  1  0
 21 22  2  0
 22  3  1  0
 20  7  1  0
 17 11  1  0
  1 23  1  0
  1 24  1  0
  1 25  1  0
  4 26  1  0
  5 27  1  0
  8 28  1  0
 10 29  1  0
 10 30  1  0
 12 31  1  1
 13 32  1  0
 13 33  1  0
 13 34  1  0
 14 35  1  0
 14 36  1  0
 15 37  1  0
 15 38  1  0
 16 39  1  0
 16 40  1  0
 17 41  1  6
 18 42  1  0
 18 43  1  0
 18 44  1  0
 19 45  1  0
 21 46  1  0
 22 47  1  0
M  CHG  1   8   1
M  END
>  <UniqueID>  (5) 
5

>  <SMILES>  (5) 
COc1ccc(-c2[nH+]c(CN3[C@@H](C)CCC[C@@H]3C)co2)cc1

>  <Energy>  (5) 
90.25361039950172

>  <Genealogy>  (5) 
COc1ccc(-c2[nH+]c(CN3C(C)CCCC3C)co2)cc1 (protonated)
COc1ccc(-c2[nH+]c(CN3[C@@H](C)CCC[C@@H]3C)co2)cc1 (chirality)
COc1ccc(-c2[nH+]c(CN3[C@@H](C)CCC[C@@H]3C)co2)cc1 (3D coordinates assigned)
COc1ccc(-c2[nH+]c(CN3[C@@H](C)CCC[C@@H]3C)co2)cc1 (nonaromatic ring conformer: 90.25361039950172 kcal/mol)

>  <smiles>  (5) 
COc1ccc(-c2nc(CN3C(C)CCCC3C)co2)cc1

>  <score_type>  (5) 
oracle

>  <origin>  (5) 
adg

>  <m_score__min__energy>  (5) 
-6.7599999999999998

>  <m_primary>  (5) 
energy

$$$$
5:0
     RDKit          3D

 37 40  0  0  0  0  0  0  0  0999 V2000
   -9.7960   21.5040  -31.9540 C   0  0  0  0  0  0  0  0  0  0  0  0
   -8.8480   20.5770  -31.1800 C   0  0  0  0  0  0  0  0  0  0  0  0
   -7.5020   20.7720  -31.6130 N   0  0  0  0  0  0  0  0  0  0  0  0
   -6.6790   21.7840  -31.2860 C   0  0  0  0  0  0  0  0  0  0  0  0
   -6.9190   22.9720  -30.4300 C   0  0  0  0  0  0  0  0  0  0  0  0
   -5.6810   23.6850  -30.2510 N   0  0  0  0  0  0  0  0  0  0  0  0
   -5.3640   24.7750  -31.0070 C   0  0  0  0  0  0  0  0  0  0  0  0
   -4.1600   25.2470  -30.6310 N   0  0  0  0  0  0  0  0  0  0  0  0
   -3.6890   24.4710  -29.6340 C   0  0  0  0  0  0  0  0  0  0  0  0
   -2.5560   24.4470  -28.8670 C   0  0  0  0  0  0  0  0  0  0  0  0
   -1.6410   25.3220  -29.0390 N   0  0  0  0  0  0  0  0  0  0  0  0
   -2.3460   23.5170  -27.9080 N   0  0  0  0  0  0  0  0  0  0  0  0
   -3.3090   22.6020  -27.7330 C   0  0  0  0  0  0  0  0  0  0  0  0
   -4.4260   22.6000  -28.4650 N   0  0  0  0  0  0  0  0  0  0  0  0
   -4.6570   23.5070  -29.4180 C   0  0  0  0  0  0  0  0  0  0  0  0
   -5.5020   21.5660  -31.9060 N   0  0  0  0  0  0  0  0  0  0  0  0
   -5.5980   20.4340  -32.6060 C   0  0  0  0  0  0  0  0  0  0  0  0
   -4.6540   19.8050  -33.3990 C   0  0  0  0  0  0  0  0  0  0  0  0
   -5.0310   18.6180  -34.0210 C   0  0  0  0  0  0  0  0  0  0  0  0
   -6.3030   18.0810  -33.8550 C   0  0  0  0  0  0  0  0  0  0  0  0
   -7.2190   18.7250  -33.0640 C   0  0  0  0  0  0  0  0  0  0  0  0
   -6.8580   19.9010  -32.4420 C   0  0  0  0  0  0  0  0  0  0  0  0
  -10.3962   22.0909  -31.2432 H   0  0  0  0  0  0  0  0  0  0  0  0
   -9.2076   22.1848  -32.5867 H   0  0  0  0  0  0  0  0  0  0  0  0
  -10.4634   20.9005  -32.5867 H   0  0  0  0  0  0  0  0  0  0  0  0
   -8.9195   20.8002  -30.1053 H   0  0  0  0  0  0  0  0  0  0  0  0
   -9.1366   19.5323  -31.3678 H   0  0  0  0  0  0  0  0  0  0  0  0
   -7.6562   23.6304  -30.9128 H   0  0  0  0  0  0  0  0  0  0  0  0
   -7.3048   22.6503  -29.4514 H   0  0  0  0  0  0  0  0  0  0  0  0
   -5.9941   25.2024  -31.8009 H   0  0  0  0  0  0  0  0  0  0  0  0
   -1.6170   26.0530  -29.7590 H   0  0  0  0  0  0  0  0  0  0  0  0
   -1.4820   23.4970  -27.3220 H   0  0  0  0  0  0  0  0  0  0  0  0
   -3.1754   21.8284  -26.9625 H   0  0  0  0  0  0  0  0  0  0  0  0
   -3.6465   20.2260  -33.5324 H   0  0  0  0  0  0  0  0  0  0  0  0
   -4.3054   18.0923  -34.6590 H   0  0  0  0  0  0  0  0  0  0  0  0
   -6.5738   17.1408  -34.3577 H   0  0  0  0  0  0  0  0  0  0  0  0
   -8.2281   18.3090  -32.9276 H   0  0  0  0  0  0  0  0  0  0  0  0
  1  2  1  0
  2  3  1  0
  3  4  1  0
  4  5  1  0
  5  6  1  0
  6  7  1  0
  7  8  2  0
  8  9  1  0
  9 10  1  0
 10 11  2  3
 10 12  1  0
 12 13  1  0
 13 14  2  0
 14 15  1  0
  4 16  2  0
 16 17  1  0
 17 18  2  0
 18 19  1  0
 19 20  2  0
 20 21  1  0
 21 22  2  0
 22  3  1  0
 15  6  1  0
 22 17  1  0
 15  9  2  0
  1 23  1  0
  1 24  1  0
  1 25  1  0
  2 26  1  0
  2 27  1  0
  5 28  1  0
  5 29  1  0
  7 30  1  0
 11 31  1  0
 12 32  1  0
 13 33  1  0
 18 34  1  0
 19 35  1  0
 20 36  1  0
 21 37  1  0
M  END
>  <smiles>  (6) 
CCn1c(Cn2cnc3c(=N)[nH]cnc32)nc2ccccc21

>  <score_type>  (6) 
oracle

>  <origin>  (6) 
adg

>  <m_score__min__energy>  (6) 
-7.8499999999999996

>  <m_primary>  (6) 
energy

$$$$
6:0
     RDKit          3D

 36 39  0  0  0  0  0  0  0  0999 V2000
   -2.8710   21.9270  -32.5950 C   0  0  0  0  0  0  0  0  0  0  0  0
   -4.1290   21.0870  -32.6360 C   0  0  0  0  0  0  0  0  0  0  0  0
   -5.2880   21.4460  -31.9060 C   0  0  0  0  0  0  0  0  0  0  0  0
   -5.2240   22.6970  -31.1160 C   0  0  0  0  0  0  0  0  0  0  0  0
   -5.9190   23.8300  -31.5610 C   0  0  0  0  0  0  0  0  0  0  0  0
   -5.8220   25.0230  -30.8430 C   0  0  0  0  0  0  0  0  0  0  0  0
   -5.0510   25.0860  -29.7230 N   0  0  0  0  0  0  0  0  0  0  0  0
   -4.3560   24.0060  -29.2760 C   0  0  0  0  0  0  0  0  0  0  0  0
   -4.4220   22.7900  -29.9630 C   0  0  0  0  0  0  0  0  0  0  0  0
   -3.5140   21.4080  -29.3590 Cl  0  0  0  0  0  0  0  0  0  0  0  0
   -6.4680   20.6240  -31.9710 C   0  0  0  0  0  0  0  0  0  0  0  0
   -7.6830   20.9140  -31.2650 C   0  0  0  0  0  0  0  0  0  0  0  0
   -7.9330   22.2480  -30.1380 Cl  0  0  0  0  0  0  0  0  0  0  0  0
   -8.8020   20.0940  -31.4270 C   0  0  0  0  0  0  0  0  0  0  0  0
   -8.7640   18.9970  -32.2690 C   0  0  0  0  0  0  0  0  0  0  0  0
   -7.5990   18.6740  -32.9480 C   0  0  0  0  0  0  0  0  0  0  0  0
   -6.4290   19.4460  -32.7970 C   0  0  0  0  0  0  0  0  0  0  0  0
   -5.2540   19.1260  -33.4330 N   0  0  0  0  0  0  0  0  0  0  0  0
   -4.8240   18.0840  -34.2050 C   0  0  0  0  0  0  0  0  0  0  0  0
   -5.5700   16.8390  -34.5770 C   0  0  0  0  0  0  0  0  0  0  0  0
   -6.0130   16.1920  -33.4380 F   0  0  0  0  0  0  0  0  0  0  0  0
   -3.5450   18.2630  -34.5930 N   0  0  0  0  0  0  0  0  0  0  0  0
   -3.1280   19.4030  -34.0720 N   0  0  0  0  0  0  0  0  0  0  0  0
   -4.1590   19.9070  -33.3720 C   0  0  0  0  0  0  0  0  0  0  0  0
   -2.5895   22.1149  -31.5484 H   0  0  0  0  0  0  0  0  0  0  0  0
   -2.0557   21.3914  -33.1034 H   0  0  0  0  0  0  0  0  0  0  0  0
   -3.0532   22.8853  -33.1034 H   0  0  0  0  0  0  0  0  0  0  0  0
   -6.5366   23.7793  -32.4698 H   0  0  0  0  0  0  0  0  0  0  0  0
   -6.3698   25.9142  -31.1830 H   0  0  0  0  0  0  0  0  0  0  0  0
   -4.9900   25.9870  -29.1960 H   0  0  0  0  0  0  0  0  0  0  0  0
   -3.7388   24.0895  -28.3693 H   0  0  0  0  0  0  0  0  0  0  0  0
   -9.7267   20.3237  -30.8773 H   0  0  0  0  0  0  0  0  0  0  0  0
   -9.6633   18.3773  -32.4006 H   0  0  0  0  0  0  0  0  0  0  0  0
   -7.5874   17.8002  -33.6161 H   0  0  0  0  0  0  0  0  0  0  0  0
   -6.4341   17.1061  -35.2031 H   0  0  0  0  0  0  0  0  0  0  0  0
   -4.8976   16.1691  -35.1330 H   0  0  0  0  0  0  0  0  0  0  0  0
  1  2  1  0
  2  3  2  0
  3  4  1  0
  4  5  2  0
  5  6  1  0
  6  7  2  0
  7  8  1  0
  8  9  2  0
  9 10  1  0
  3 11  1  0
 11 12  2  0
 12 13  1  0
 12 14  1  0
 14 15  2  0
 15 16  1  0
 16 17  2  0
 17 18  1  0
 18 19  1  0
 19 20  1  0
 20 21  1  0
 19 22  2  0
 22 23  1  0
 23 24  2  0
 24  2  1  0
  9  4  1  0
 17 11  1  0
 24 18  1  0
  1 25  1  0
  1 26  1  0
  1 27  1  0
  5 28  1  0
  6 29  1  0
  7 30  1  0
  8 31  1  0
 14 32  1  0
 15 33  1  0
 16 34  1  0
 20 35  1  0
 20 36  1  0
M  CHG  1   7   1
M  END
>  <UniqueID>  (7) 
6

>  <SMILES>  (7) 
Cc1c(-c2cc[nH+]cc2Cl)c2c(Cl)cccc2n2c(CF)nnc12

>  <Energy>  (7) 
108.200186260001

>  <Genealogy>  (7) 
Cc1c(-c2cc[nH+]cc2Cl)c2c(Cl)cccc2n2c(CF)nnc12 (protonated)
Cc1c(-c2cc[nH+]cc2Cl)c2c(Cl)cccc2n2c(CF)nnc12 (3D coordinates assigned)
Cc1c(-c2cc[nH+]cc2Cl)c2c(Cl)cccc2n2c(CF)nnc12 (optimized conformer: 108.200186260001 kcal/mol)

>  <smiles>  (7) 
Cc1c(-c2ccncc2Cl)c2c(Cl)cccc2n2c(CF)nnc12

>  <score_type>  (7) 
oracle

>  <origin>  (7) 
adg

>  <m_score__min__energy>  (7) 
-8.1699999999999999

>  <m_primary>  (7) 
energy

$$$$
7:0
     RDKit          3D

 34 36  0  0  0  0  0  0  0  0999 V2000
   -4.1680   24.3010  -27.1360 C   0  0  0  0  0  0  0  0  0  0  0  0
   -4.3120   23.7550  -28.5260 C   0  0  0  0  0  0  0  0  0  0  0  0
   -3.7700   22.5030  -28.8520 C   0  0  0  0  0  0  0  0  0  0  0  0
   -3.8690   22.0100  -30.1560 C   0  0  0  0  0  0  0  0  0  0  0  0
   -4.5150   22.7610  -31.1560 C   0  0  0  0  0  0  0  0  0  0  0  0
   -4.6020   22.2710  -32.5840 C   0  0  0  0  0  0  0  0  0  0  0  0
   -5.5780   21.1790  -32.7360 N   0  0  0  0  0  0  0  0  0  0  0  0
   -5.1540   19.9340  -33.3380 C   0  0  0  0  0  0  0  0  0  0  0  0
   -4.0060   19.8300  -33.8470 O   0  0  0  0  0  0  0  0  0  0  0  0
   -6.0820   18.7570  -33.3850 C   0  0  0  0  0  0  0  0  0  0  0  0
   -6.8640   18.5790  -31.7560 S   0  0  0  0  0  0  0  0  0  0  0  0
   -7.6720   20.1800  -31.8670 C   0  0  0  0  0  0  0  0  0  0  0  0
   -9.0300   20.2830  -31.5490 C   0  0  0  0  0  0  0  0  0  0  0  0
   -9.6670   21.5230  -31.5870 C   0  0  0  0  0  0  0  0  0  0  0  0
   -8.9530   22.6640  -31.9560 C   0  0  0  0  0  0  0  0  0  0  0  0
   -7.6020   22.5660  -32.3020 C   0  0  0  0  0  0  0  0  0  0  0  0
   -6.9420   21.3200  -32.2660 C   0  0  0  0  0  0  0  0  0  0  0  0
   -5.0230   24.0290  -30.8320 C   0  0  0  0  0  0  0  0  0  0  0  0
   -4.9230   24.5230  -29.5270 C   0  0  0  0  0  0  0  0  0  0  0  0
   -4.3778   23.5054  -26.4060 H   0  0  0  0  0  0  0  0  0  0  0  0
   -3.1418   24.6699  -26.9915 H   0  0  0  0  0  0  0  0  0  0  0  0
   -4.8787   25.1280  -26.9915 H   0  0  0  0  0  0  0  0  0  0  0  0
   -3.2648   21.9066  -28.0780 H   0  0  0  0  0  0  0  0  0  0  0  0
   -3.4390   21.0280  -30.4026 H   0  0  0  0  0  0  0  0  0  0  0  0
   -4.9043   23.1093  -33.2289 H   0  0  0  0  0  0  0  0  0  0  0  0
   -3.6130   21.8839  -32.8703 H   0  0  0  0  0  0  0  0  0  0  0  0
   -6.8535   18.9225  -34.1514 H   0  0  0  0  0  0  0  0  0  0  0  0
   -5.5225   17.8442  -33.6376 H   0  0  0  0  0  0  0  0  0  0  0  0
   -9.5973   19.3834  -31.2681 H   0  0  0  0  0  0  0  0  0  0  0  0
  -10.7327   21.6018  -31.3260 H   0  0  0  0  0  0  0  0  0  0  0  0
   -9.4545   23.6429  -31.9746 H   0  0  0  0  0  0  0  0  0  0  0  0
   -7.0494   23.4677  -32.6047 H   0  0  0  0  0  0  0  0  0  0  0  0
   -5.5037   24.6392  -31.6108 H   0  0  0  0  0  0  0  0  0  0  0  0
   -5.3253   25.5179  -29.2854 H   0  0  0  0  0  0  0  0  0  0  0  0
  1  2  1  0
  2  3  2  0
  3  4  1  0
  4  5  2  0
  5  6  1  0
  6  7  1  0
  7  8  1  0
  8  9  2  0
  8 10  1  0
 10 11  1  0
 11 12  1  0
 12 13  2  0
 13 14  1  0
 14 15  2  0
 15 16  1  0
 16 17  2  0
  5 18  1  0
 18 19  2  0
 19  2  1  0
 17  7  1  0
 17 12  1  0
  1 20  1  0
  1 21  1  0
  1 22  1  0
  3 23  1  0
  4 24  1  0
  6 25  1  0
  6 26  1  0
 10 27  1  0
 10 28  1  0
 13 29  1  0
 14 30  1  0
 15 31  1  0
 16 32  1  0
 18 33  1  0
 19 34  1  0
M  END
>  <UniqueID>  (8) 
7

>  <SMILES>  (8) 
Cc1ccc(CN2C(=O)CSc3ccccc32)cc1

>  <Energy>  (8) 
42.35894401557514

>  <Genealogy>  (8) 
Cc1ccc(CN2C(=O)CSc3ccccc32)cc1 (3D coordinates assigned)
Cc1ccc(CN2C(=O)CSc3ccccc32)cc1 (nonaromatic ring conformer: 42.35894401557514 kcal/mol)

>  <smiles>  (8) 
Cc1ccc(CN2C(=O)CSc3ccccc32)cc1

>  <score_type>  (8) 
oracle

>  <origin>  (8) 
adg

>  <m_score__min__energy>  (8) 
-7.4699999999999998

>  <m_primary>  (8) 
energy

$$$$
8:0
     RDKit          3D

 83 85  0  0  0  0  0  0  0  0999 V2000
   -0.4720   21.3260  -34.1710 C   0  0  0  0  0  0  0  0  0  0  0  0
   -1.8140   20.8580  -33.5900 C   0  0  0  0  0  0  0  0  0  0  0  0
   -1.7030   19.7450  -32.6140 N   0  0  0  0  0  0  0  0  0  0  0  0
   -0.3290   19.1960  -32.5340 C   0  0  0  0  0  0  0  0  0  0  0  0
   -0.3720   17.8140  -31.8950 C   0  0  0  0  0  0  0  0  0  0  0  0
   -2.7280   18.6850  -32.7500 C   0  0  0  0  0  0  0  0  0  0  0  0
   -3.3480   18.6350  -34.1570 C   0  0  0  0  0  0  0  0  0  0  0  0
   -4.2170   17.3780  -34.3620 C   0  0  0  0  0  0  0  0  0  0  0  0
   -5.6530   17.6570  -34.2120 N   0  0  0  0  0  0  0  0  0  0  0  0
   -5.9310   19.0880  -34.0290 C   0  0  0  0  0  0  0  0  0  0  0  0
   -7.0260   19.2640  -33.0070 C   0  0  0  0  0  0  0  0  0  0  0  0
   -8.0260   18.2880  -32.8750 C   0  0  0  0  0  0  0  0  0  0  0  0
   -9.0570   18.4620  -31.9530 C   0  0  0  0  0  0  0  0  0  0  0  0
   -9.0890   19.6160  -31.1720 C   0  0  0  0  0  0  0  0  0  0  0  0
   -8.1250   20.5660  -31.3130 N   0  0  0  0  0  0  0  0  0  0  0  0
   -7.1030   20.4230  -32.2050 C   0  0  0  0  0  0  0  0  0  0  0  0
   -6.1300   21.4710  -32.3380 N   0  0  0  0  0  0  0  0  0  0  0  0
   -4.7170   21.2130  -32.0780 C   0  0  0  0  0  0  0  0  0  0  0  0
   -4.2890   21.9600  -30.8140 C   0  0  0  0  0  0  0  0  0  0  0  0
   -4.7270   23.3670  -30.8650 N   0  0  0  0  0  0  0  0  0  0  0  0
   -3.9260   24.4310  -30.2940 C   0  0  0  0  0  0  0  0  0  0  0  0
   -4.2300   25.6320  -30.5410 O   0  0  0  0  0  0  0  0  0  0  0  0
   -2.7160   24.1420  -29.4230 C   0  0  1  0  0  0  0  0  0  0  0  0
   -1.6610   23.2590  -30.1260 C   0  0  0  0  0  0  0  0  0  0  0  0
   -1.4040   21.9880  -29.3570 C   0  0  0  0  0  0  0  0  0  0  0  0
   -2.1790   21.6710  -28.2290 C   0  0  0  0  0  0  0  0  0  0  0  0
   -1.9550   20.4790  -27.5340 C   0  0  0  0  0  0  0  0  0  0  0  0
   -0.9630   19.5920  -27.9650 C   0  0  0  0  0  0  0  0  0  0  0  0
   -0.6850   18.0940  -27.0940 Cl  0  0  0  0  0  0  0  0  0  0  0  0
   -0.1940   19.8970  -29.0930 C   0  0  0  0  0  0  0  0  0  0  0  0
   -0.4140   21.0890  -29.7890 C   0  0  0  0  0  0  0  0  0  0  0  0
   -2.1180   25.3930  -28.9490 N   0  0  0  0  0  0  0  0  0  0  0  0
   -1.0390   25.4980  -28.0110 C   0  0  0  0  0  0  0  0  0  0  0  0
    0.0590   24.9160  -28.2280 O   0  0  0  0  0  0  0  0  0  0  0  0
   -1.2350   26.2860  -26.7500 C   0  0  0  0  0  0  0  0  0  0  0  0
   -2.3580   25.7150  -25.8760 C   0  0  0  0  0  0  0  0  0  0  0  0
   -3.3050   24.9460  -26.6820 N   0  0  0  0  0  0  0  0  0  0  0  0
   -6.1370   23.6380  -31.2060 C   0  0  0  0  0  0  0  0  0  0  0  0
   -6.5540   22.8640  -32.4570 C   0  0  0  0  0  0  0  0  0  0  0  0
    0.2190   21.5670  -33.3498 H   0  0  0  0  0  0  0  0  0  0  0  0
   -0.0411   20.5251  -34.7897 H   0  0  0  0  0  0  0  0  0  0  0  0
   -0.6325   22.2212  -34.7897 H   0  0  0  0  0  0  0  0  0  0  0  0
   -2.2875   21.7129  -33.0851 H   0  0  0  0  0  0  0  0  0  0  0  0
   -2.4072   20.4778  -34.4347 H   0  0  0  0  0  0  0  0  0  0  0  0
    0.0949   19.1192  -33.5461 H   0  0  0  0  0  0  0  0  0  0  0  0
    0.2980   19.8631  -31.9242 H   0  0  0  0  0  0  0  0  0  0  0  0
   -0.3688   17.9162  -30.7998 H   0  0  0  0  0  0  0  0  0  0  0  0
   -1.2868   17.2918  -32.2119 H   0  0  0  0  0  0  0  0  0  0  0  0
    0.5086   17.2360  -32.2119 H   0  0  0  0  0  0  0  0  0  0  0  0
   -2.2592   17.7129  -32.5374 H   0  0  0  0  0  0  0  0  0  0  0  0
   -3.5361   18.9114  -32.0389 H   0  0  0  0  0  0  0  0  0  0  0  0
   -3.9751   19.5273  -34.3005 H   0  0  0  0  0  0  0  0  0  0  0  0
   -2.5272   18.6031  -34.8886 H   0  0  0  0  0  0  0  0  0  0  0  0
   -4.0374   16.9859  -35.3739 H   0  0  0  0  0  0  0  0  0  0  0  0
   -3.9356   16.6469  -33.5898 H   0  0  0  0  0  0  0  0  0  0  0  0
   -6.0300   17.1270  -33.3890 H   0  0  0  0  0  0  0  0  0  0  0  0
   -5.0198   19.5963  -33.6805 H   0  0  0  0  0  0  0  0  0  0  0  0
   -6.2520   19.5232  -34.9869 H   0  0  0  0  0  0  0  0  0  0  0  0
   -7.9961   17.3837  -33.5005 H   0  0  0  0  0  0  0  0  0  0  0  0
   -9.8382   17.6955  -31.8428 H   0  0  0  0  0  0  0  0  0  0  0  0
   -9.8965   19.7593  -30.4389 H   0  0  0  0  0  0  0  0  0  0  0  0
   -8.1740   21.4210  -30.7160 H   0  0  0  0  0  0  0  0  0  0  0  0
   -4.5609   20.1333  -31.9369 H   0  0  0  0  0  0  0  0  0  0  0  0
   -4.1166   21.5607  -32.9316 H   0  0  0  0  0  0  0  0  0  0  0  0
   -4.7403   21.4732  -29.9369 H   0  0  0  0  0  0  0  0  0  0  0  0
   -3.1916   21.9342  -30.7432 H   0  0  0  0  0  0  0  0  0  0  0  0
   -3.0762   23.5634  -28.5596 H   0  0  0  0  0  0  0  0  0  0  0  0
   -2.0236   23.0011  -31.1320 H   0  0  0  0  0  0  0  0  0  0  0  0
   -0.7194   23.8248  -30.1826 H   0  0  0  0  0  0  0  0  0  0  0  0
   -2.9647   22.3630  -27.8916 H   0  0  0  0  0  0  0  0  0  0  0  0
   -2.5596   20.2383  -26.6471 H   0  0  0  0  0  0  0  0  0  0  0  0
    0.5846   19.1981  -29.4326 H   0  0  0  0  0  0  0  0  0  0  0  0
    0.1898   21.3242  -30.6779 H   0  0  0  0  0  0  0  0  0  0  0  0
   -0.2974   26.2723  -26.1749 H   0  0  0  0  0  0  0  0  0  0  0  0
   -1.5171   27.3106  -27.0337 H   0  0  0  0  0  0  0  0  0  0  0  0
   -1.9200   25.0581  -25.1101 H   0  0  0  0  0  0  0  0  0  0  0  0
   -2.8953   26.5503  -25.4031 H   0  0  0  0  0  0  0  0  0  0  0  0
   -3.6890   25.5790  -27.4200 H   0  0  0  0  0  0  0  0  0  0  0  0
   -2.7710   24.2040  -27.1900 H   0  0  0  0  0  0  0  0  0  0  0  0
   -6.7761   23.3333  -30.3642 H   0  0  0  0  0  0  0  0  0  0  0  0
   -6.2502   24.7140  -31.4043 H   0  0  0  0  0  0  0  0  0  0  0  0
   -7.6479   22.9054  -32.5649 H   0  0  0  0  0  0  0  0  0  0  0  0
   -6.0785   23.3155  -33.3402 H   0  0  0  0  0  0  0  0  0  0  0  0
  1  2  1  0
  2  3  1  0
  3  4  1  0
  4  5  1  0
  3  6  1  0
  6  7  1  0
  7  8  1  0
  8  9  1  0
  9 10  1  0
 10 11  1  0
 11 12  2  0
 12 13  1  0
 13 14  2  0
 14 15  1  0
 15 16  2  0
 16 17  1  0
 17 18  1  0
 18 19  1  0
 19 20  1  0
 20 21  1  0
 21 22  2  0
 21 23  1  0
 23 24  1  0
 24 25  1  0
 25 26  2  0
 26 27  1  0
 27 28  2  0
 28 29  1  0
 28 30  1  0
 30 31  2  0
 23 32  1  0
 32 33  1  0
 33 34  2  0
 33 35  1  0
 35 36  1  0
 36 37  1  0
 20 38  1  0
 38 39  1  0
 16 11  1  0
 39 17  1  0
 31 25  1  0
  1 40  1  0
  1 41  1  0
  1 42  1  0
  2 43  1  0
  2 44  1  0
  4 45  1  0
  4 46  1  0
  5 47  1  0
  5 48  1  0
  5 49  1  0
  6 50  1  0
  6 51  1  0
  7 52  1  0
  7 53  1  0
  8 54  1  0
  8 55  1  0
  9 56  1  0
 10 57  1  0
 10 58  1  0
 12 59  1  0
 13 60  1  0
 14 61  1  0
 15 62  1  0
 18 63  1  0
 18 64  1  0
 19 65  1  0
 19 66  1  0
 23 67  1  1
 24 68  1  0
 24 69  1  0
 26 70  1  0
 27 71  1  0
 30 72  1  0
 31 73  1  0
 35 74  1  0
 35 75  1  0
 36 76  1  0
 36 77  1  0
 37 78  1  0
 37 79  1  0
 38 80  1  0
 38 81  1  0
 39 82  1  0
 39 83  1  0
M  CHG  2  15   1  32  -1
M  END
>  <UniqueID>  (9) 
8

>  <SMILES>  (9) 
CCN(CC)CCCNCc1ccc[nH+]c1N1CCN(C(=O)[C@@H](Cc2ccc(Cl)cc2)[N-]C(=O)CCN)CC1

>  <Energy>  (9) 
80.33454059561195

>  <Genealogy>  (9) 
CCN(CC)CCCNCc1ccc[nH+]c1N1CCN(C(=O)C(Cc2ccc(Cl)cc2)[N-]C(=O)CCN)CC1 (protonated)
CCN(CC)CCCNCc1ccc[nH+]c1N1CCN(C(=O)[C@@H](Cc2ccc(Cl)cc2)[N-]C(=O)CCN)CC1 (chirality)
CCN(CC)CCCNCc1ccc[nH+]c1N1CCN(C(=O)[C@@H](Cc2ccc(Cl)cc2)[N-]C(=O)CCN)CC1 (3D coordinates assigned)
CCN(CC)CCCNCc1ccc[nH+]c1N1CCN(C(=O)[C@@H](Cc2ccc(Cl)cc2)[N-]C(=O)CCN)CC1 (nonaromatic ring conformer: 80.33454059561195 kcal/mol)

>  <smiles>  (9) 
CCN(CC)CCCNCc1cccnc1N1CCN(C(=O)C(Cc2ccc(Cl)cc2)NC(=O)CCN)CC1

>  <score_type>  (9) 
oracle

>  <origin>  (9) 
adg

>  <m_score__min__energy>  (9) 
-10.279999999999999

>  <m_primary>  (9) 
energy

$$$$
9:0
     RDKit          3D

 46 49  0  0  0  0  0  0  0  0999 V2000
   -7.7695   19.0344  -31.0304 H   0  0  0  0  0  0  0  0  0  0  0  0
   -7.2830   18.7040  -31.9600 C   0  0  0  0  0  0  0  0  0  0  0  0
   -7.4560   17.4280  -32.3980 N   0  0  0  0  0  0  0  0  0  0  0  0
   -6.8730   16.9770  -33.5390 C   0  0  0  0  0  0  0  0  0  0  0  0
   -7.0700   15.6970  -33.9380 F   0  0  0  0  0  0  0  0  0  0  0  0
   -6.0710   17.8310  -34.2980 C   0  0  0  0  0  0  0  0  0  0  0  0
   -5.5959   17.4712  -35.2226 H   0  0  0  0  0  0  0  0  0  0  0  0
   -5.8780   19.1460  -33.8720 C   0  0  0  0  0  0  0  0  0  0  0  0
   -5.2485   19.8270  -34.4636 H   0  0  0  0  0  0  0  0  0  0  0  0
   -6.4850   19.6030  -32.6900 C   0  0  0  0  0  0  0  0  0  0  0  0
   -6.2880   21.0000  -32.2220 C   0  0  0  0  0  0  0  0  0  0  0  0
   -5.2070   21.7660  -32.6940 C   0  0  0  0  0  0  0  0  0  0  0  0
   -4.5031   21.3287  -33.4174 H   0  0  0  0  0  0  0  0  0  0  0  0
   -5.0200   23.0790  -32.2510 C   0  0  0  0  0  0  0  0  0  0  0  0
   -4.1701   23.6676  -32.6266 H   0  0  0  0  0  0  0  0  0  0  0  0
   -5.9110   23.6490  -31.3300 C   0  0  0  0  0  0  0  0  0  0  0  0
   -5.6850   25.0530  -30.8340 C   0  0  0  0  0  0  0  0  0  0  0  0
   -6.0096   25.7660  -31.6062 H   0  0  0  0  0  0  0  0  0  0  0  0
   -6.2655   25.2014  -29.9115 H   0  0  0  0  0  0  0  0  0  0  0  0
   -4.2680   25.2730  -30.5410 N   0  0  0  0  0  0  0  0  0  0  0  0
   -3.5150   24.4630  -29.8570 C   0  0  0  0  0  0  0  0  0  0  0  0
   -2.6850   23.5820  -30.4860 N   0  0  0  0  0  0  0  0  0  0  0  0
   -1.8840   22.7210  -29.8010 C   0  0  0  0  0  0  0  0  0  0  0  0
   -1.0060   21.8530  -30.5360 N   0  0  0  0  0  0  0  0  0  0  0  0
   -0.0060   21.8150  -30.2330 H   0  0  0  0  0  0  0  0  0  0  0  0
   -1.4040   21.0440  -31.6550 C   0  0  0  0  0  0  0  0  0  0  0  0
   -2.4440   20.1020  -31.5430 C   0  0  0  0  0  0  0  0  0  0  0  0
   -2.9523   19.9584  -30.5781 H   0  0  0  0  0  0  0  0  0  0  0  0
   -2.8330   19.3480  -32.6550 C   0  0  0  0  0  0  0  0  0  0  0  0
   -3.6374   18.6039  -32.5594 H   0  0  0  0  0  0  0  0  0  0  0  0
   -2.2020   19.5380  -33.8870 C   0  0  0  0  0  0  0  0  0  0  0  0
   -2.5049   18.9393  -34.7587 H   0  0  0  0  0  0  0  0  0  0  0  0
   -1.1860   20.4890  -34.0110 C   0  0  0  0  0  0  0  0  0  0  0  0
   -0.6940   20.6437  -34.9826 H   0  0  0  0  0  0  0  0  0  0  0  0
   -0.7940   21.2440  -32.9020 C   0  0  0  0  0  0  0  0  0  0  0  0
   -0.0020   21.9999  -33.0079 H   0  0  0  0  0  0  0  0  0  0  0  0
   -1.8790   22.7550  -28.3970 C   0  0  0  0  0  0  0  0  0  0  0  0
   -1.2151   22.0878  -27.8276 H   0  0  0  0  0  0  0  0  0  0  0  0
   -2.7250   23.6440  -27.7310 C   0  0  0  0  0  0  0  0  0  0  0  0
   -2.7402   23.6695  -26.6314 H   0  0  0  0  0  0  0  0  0  0  0  0
   -3.5510   24.5000  -28.4600 C   0  0  0  0  0  0  0  0  0  0  0  0
   -4.2243   25.1976  -27.9403 H   0  0  0  0  0  0  0  0  0  0  0  0
   -6.9910   22.8880  -30.8550 C   0  0  0  0  0  0  0  0  0  0  0  0
   -7.6932   23.3266  -30.1308 H   0  0  0  0  0  0  0  0  0  0  0  0
   -7.1780   21.5760  -31.2980 C   0  0  0  0  0  0  0  0  0  0  0  0
   -8.0284   20.9889  -30.9209 H   0  0  0  0  0  0  0  0  0  0  0  0
  1  2  1  0
  2  3  2  0
  3  4  1  0
  4  5  1  0
  4  6  2  0
  6  7  1  0
  6  8  1  0
  8  9  1  0
  8 10  2  0
 10 11  1  0
 11 12  2  0
 12 13  1  0
 12 14  1  0
 14 15  1  0
 14 16  2  0
 16 17  1  0
 17 18  1  0
 17 19  1  0
 17 20  1  0
 20 21  2  0
 21 22  1  0
 22 23  1  0
 23 24  1  0
 24 25  1  0
 24 26  1  0
 26 27  2  0
 27 28  1  0
 27 29  1  0
 29 30  1  0
 29 31  2  0
 31 32  1  0
 31 33  1  0
 33 34  1  0
 33 35  2  0
 35 36  1  0
 23 37  2  0
 37 38  1  0
 37 39  1  0
 39 40  1  0
 39 41  2  0
 41 42  1  0
 16 43  1  0
 43 44  1  0
 43 45  2  0
 45 46  1  0
 10  2  1  0
 45 11  1  0
 41 21  1  0
 35 26  1  0
M  CHG  1  22  -1
M  END
>  <UniqueID>  (10) 
9

>  <SMILES>  (10) 
Fc1ccc(-c2ccc(C/N=c3/cccc(Nc4ccccc4)[n-]3)cc2)cn1

>  <Energy>  (10) 
61.526355661557595

>  <Genealogy>  (10) 
Fc1ccc(-c2ccc(CN=c3cccc(Nc4ccccc4)[n-]3)cc2)cn1 (protonated)
Fc1ccc(-c2ccc(C/N=c3/cccc(Nc4ccccc4)[n-]3)cc2)cn1 (cis-trans isomerization)
Fc1ccc(-c2ccc(C/N=c3/cccc(Nc4ccccc4)[n-]3)cc2)cn1 (3D coordinates assigned)
Fc1ccc(-c2ccc(C/N=c3/cccc(Nc4ccccc4)[n-]3)cc2)cn1 (optimized conformer: 61.526355661557595 kcal/mol)

>  <smiles>  (10) 
Fc1ccc(-c2ccc(CN=c3cccc(Nc4ccccc4)[nH]3)cc2)cn1

>  <score_type>  (10) 
oracle

>  <origin>  (10) 
adg

>  <m_score__min__energy>  (10) 
-11.57

>  <m_primary>  (10) 
energy

$$$$
10:0
     RDKit          3D

 45 47  0  0  0  0  0  0  0  0999 V2000
   -3.4900   24.4190  -27.4660 C   0  0  0  0  0  0  0  0  0  0  0  0
   -3.0820   23.6740  -28.7460 C   0  0  2  0  0  0  0  0  0  0  0  0
   -1.6180   23.9670  -29.1220 C   0  0  0  0  0  0  0  0  0  0  0  0
   -1.2350   25.7000  -28.9390 S   0  0  0  0  0  0  0  0  0  0  0  0
   -4.0110   24.0670  -29.8840 C   0  0  0  0  0  0  0  0  0  0  0  0
   -3.8200   25.1320  -30.4570 O   0  0  0  0  0  0  0  0  0  0  0  0
   -5.0980   23.2120  -30.3300 N   0  0  1  0  0  0  0  0  0  0  0  0
   -5.7170   23.6920  -31.5770 C   0  0  0  0  0  0  0  0  0  0  0  0
   -5.3290   22.7280  -32.7050 C   0  0  0  0  0  0  0  0  0  0  0  0
   -4.8570   21.4160  -32.0320 C   0  0  0  0  0  0  0  0  0  0  0  0
   -3.5900   20.9290  -32.7580 C   0  0  0  0  0  0  0  0  0  0  0  0
   -3.6680   19.7510  -33.5310 C   0  0  0  0  0  0  0  0  0  0  0  0
   -2.5490   19.2640  -34.2110 C   0  0  0  0  0  0  0  0  0  0  0  0
   -1.3320   19.9420  -34.1330 C   0  0  0  0  0  0  0  0  0  0  0  0
   -1.2330   21.1070  -33.3720 C   0  0  0  0  0  0  0  0  0  0  0  0
   -2.3480   21.5980  -32.6860 C   0  0  0  0  0  0  0  0  0  0  0  0
   -5.9280   20.3080  -31.9980 C   0  0  0  0  0  0  0  0  0  0  0  0
   -7.2630   20.5420  -32.4040 C   0  0  0  0  0  0  0  0  0  0  0  0
   -8.2280   19.5350  -32.3060 C   0  0  0  0  0  0  0  0  0  0  0  0
   -7.8930   18.2900  -31.7780 C   0  0  0  0  0  0  0  0  0  0  0  0
   -6.5950   18.0510  -31.3270 C   0  0  0  0  0  0  0  0  0  0  0  0
   -5.6250   19.0530  -31.4200 C   0  0  0  0  0  0  0  0  0  0  0  0
   -4.6430   21.8840  -30.6200 C   0  0  0  0  0  0  0  0  0  0  0  0
   -4.2380   21.1430  -29.7350 O   0  0  0  0  0  0  0  0  0  0  0  0
   -3.1723   23.8389  -26.5870 H   0  0  0  0  0  0  0  0  0  0  0  0
   -3.0072   25.4072  -27.4472 H   0  0  0  0  0  0  0  0  0  0  0  0
   -4.5827   24.5444  -27.4472 H   0  0  0  0  0  0  0  0  0  0  0  0
   -3.1681   22.5930  -28.5615 H   0  0  0  0  0  0  0  0  0  0  0  0
   -0.9559   23.3827  -28.4661 H   0  0  0  0  0  0  0  0  0  0  0  0
   -1.4680   23.6880  -30.1754 H   0  0  0  0  0  0  0  0  0  0  0  0
   -5.8300   23.1510  -29.5820 H   0  0  0  0  0  0  0  0  0  0  0  0
   -6.8111   23.7139  -31.4655 H   0  0  0  0  0  0  0  0  0  0  0  0
   -5.3674   24.7089  -31.8085 H   0  0  0  0  0  0  0  0  0  0  0  0
   -6.1980   22.5310  -33.3500 H   0  0  0  0  0  0  0  0  0  0  0  0
   -4.5344   23.1564  -33.3335 H   0  0  0  0  0  0  0  0  0  0  0  0
   -4.6227   19.2089  -33.5991 H   0  0  0  0  0  0  0  0  0  0  0  0
   -2.6275   18.3442  -34.8091 H   0  0  0  0  0  0  0  0  0  0  0  0
   -0.4522   19.5586  -34.6706 H   0  0  0  0  0  0  0  0  0  0  0  0
   -0.2736   21.6416  -33.3114 H   0  0  0  0  0  0  0  0  0  0  0  0
   -2.2571   22.5143  -32.0843 H   0  0  0  0  0  0  0  0  0  0  0  0
   -7.5451   21.5281  -32.8016 H   0  0  0  0  0  0  0  0  0  0  0  0
   -9.2560   19.7265  -32.6472 H   0  0  0  0  0  0  0  0  0  0  0  0
   -8.6518   17.4960  -31.7168 H   0  0  0  0  0  0  0  0  0  0  0  0
   -6.3343   17.0725  -30.8975 H   0  0  0  0  0  0  0  0  0  0  0  0
   -4.6111   18.8629  -31.0381 H   0  0  0  0  0  0  0  0  0  0  0  0
  1  2  1  0
  2  3  1  0
  3  4  1  0
  2  5  1  0
  5  6  2  0
  5  7  1  0
  7  8  1  0
  8  9  1  0
  9 10  1  0
 10 11  1  0
 11 12  2  0
 12 13  1  0
 13 14  2  0
 14 15  1  0
 15 16  2  0
 10 17  1  0
 17 18  2  0
 18 19  1  0
 19 20  2  0
 20 21  1  0
 21 22  2  0
 10 23  1  0
 23 24  2  0
 23  7  1  0
 16 11  1  0
 22 17  1  0
  1 25  1  0
  1 26  1  0
  1 27  1  0
  2 28  1  1
  3 29  1  0
  3 30  1  0
  7 31  1  1
  8 32  1  0
  8 33  1  0
  9 34  1  0
  9 35  1  0
 12 36  1  0
 13 37  1  0
 14 38  1  0
 15 39  1  0
 16 40  1  0
 18 41  1  0
 19 42  1  0
 20 43  1  0
 21 44  1  0
 22 45  1  0
M  CHG  2   4  -1   7   1
M  END
>  <UniqueID>  (11) 
10

>  <SMILES>  (11) 
C[C@H](C[S-])C(=O)[N@H+]1CCC(c2ccccc2)(c2ccccc2)C1=O

>  <Energy>  (11) 
57.02785474385524

>  <Genealogy>  (11) 
CC(C[S-])C(=O)[NH+]1CCC(c2ccccc2)(c2ccccc2)C1=O (protonated)
C[C@H](C[S-])C(=O)[N@H+]1CCC(c2ccccc2)(c2ccccc2)C1=O (chirality)
C[C@H](C[S-])C(=O)[N@H+]1CCC(c2ccccc2)(c2ccccc2)C1=O (3D coordinates assigned)
C[C@H](C[S-])C(=O)[N@H+]1CCC(c2ccccc2)(c2ccccc2)C1=O (nonaromatic ring conformer: 57.02785474385524 kcal/mol)

>  <smiles>  (11) 
CC(CS)C(=O)N1CCC(c2ccccc2)(c2ccccc2)C1=O

>  <score_type>  (11) 
oracle

>  <origin>  (11) 
adg

>  <m_score__min__energy>  (11) 
-9.0999999999999996

>  <m_primary>  (11) 
energy

$$$$
11:0
     RDKit          3D

 32 34  0  0  0  0  0  0  0  0999 V2000
   -4.9730   25.2680  -30.5390 C   0  0  0  0  0  0  0  0  0  0  0  0
   -5.0220   24.2810  -31.5640 O   0  0  0  0  0  0  0  0  0  0  0  0
   -6.0460   23.3310  -31.7050 C   0  0  0  0  0  0  0  0  0  0  0  0
   -7.3050   23.6370  -31.1860 C   0  0  0  0  0  0  0  0  0  0  0  0
   -8.3650   22.7440  -31.3240 C   0  0  0  0  0  0  0  0  0  0  0  0
   -8.1800   21.5180  -31.9670 C   0  0  0  0  0  0  0  0  0  0  0  0
   -6.8930   21.1530  -32.4490 C   0  0  0  0  0  0  0  0  0  0  0  0
   -5.8470   22.0960  -32.3530 C   0  0  0  0  0  0  0  0  0  0  0  0
   -6.7260   19.8200  -33.2040 C   0  0  1  0  0  0  0  0  0  0  0  0
   -6.8670   20.0440  -34.5910 O   0  0  0  0  0  0  0  0  0  0  0  0
   -5.3360   19.1460  -33.0090 C   0  0  0  0  0  0  0  0  0  0  0  0
   -5.1600   18.5540  -31.6130 C   0  0  0  0  0  0  0  0  0  0  0  0
   -6.2740   17.5920  -31.3450 C   0  0  0  0  0  0  0  0  0  0  0  0
   -6.0820   16.5950  -30.6020 O   0  0  0  0  0  0  0  0  0  0  0  0
   -7.6160   17.8670  -31.8760 C   0  0  0  0  0  0  0  0  0  0  0  0
   -7.8400   18.8840  -32.7290 C   0  0  0  0  0  0  0  0  0  0  0  0
   -9.2290   19.4370  -32.8460 C   0  0  0  0  0  0  0  0  0  0  0  0
   -9.2850   20.6610  -32.1110 O   0  0  0  0  0  0  0  0  0  0  0  0
   -4.9974   24.7765  -29.5552 H   0  0  0  0  0  0  0  0  0  0  0  0
   -4.0448   25.8505  -30.6349 H   0  0  0  0  0  0  0  0  0  0  0  0
   -5.8389   25.9396  -30.6349 H   0  0  0  0  0  0  0  0  0  0  0  0
   -7.4615   24.5921  -30.6632 H   0  0  0  0  0  0  0  0  0  0  0  0
   -9.3554   23.0063  -30.9235 H   0  0  0  0  0  0  0  0  0  0  0  0
   -4.8644   21.8637  -32.7895 H   0  0  0  0  0  0  0  0  0  0  0  0
   -7.8310   20.1090  -34.8190 H   0  0  0  0  0  0  0  0  0  0  0  0
   -5.2287   18.3397  -33.7495 H   0  0  0  0  0  0  0  0  0  0  0  0
   -4.5683   19.9228  -33.1401 H   0  0  0  0  0  0  0  0  0  0  0  0
   -4.1963   18.0269  -31.5553 H   0  0  0  0  0  0  0  0  0  0  0  0
   -5.1778   19.3595  -30.8640 H   0  0  0  0  0  0  0  0  0  0  0  0
   -8.4568   17.2273  -31.5696 H   0  0  0  0  0  0  0  0  0  0  0  0
   -9.4668   19.6262  -33.9032 H   0  0  0  0  0  0  0  0  0  0  0  0
   -9.9592   18.7188  -32.4447 H   0  0  0  0  0  0  0  0  0  0  0  0
  1  2  1  0
  2  3  1  0
  3  4  2  0
  4  5  1  0
  5  6  2  0
  6  7  1  0
  7  8  2  0
  7  9  1  0
  9 10  1  6
  9 11  1  0
 11 12  1  0
 12 13  1  0
 13 14  2  0
 13 15  1  0
 15 16  2  0
 16 17  1  0
 17 18  1  0
  8  3  1  0
 16  9  1  0
 18  6  1  0
  1 19  1  0
  1 20  1  0
  1 21  1  0
  4 22  1  0
  5 23  1  0
  8 24  1  0
 10 25  1  0
 11 26  1  0
 11 27  1  0
 12 28  1  0
 12 29  1  0
 15 30  1  0
 17 31  1  0
 17 32  1  0
M  END
>  <UniqueID>  (12) 
11

>  <SMILES>  (12) 
COc1ccc2c(c1)[C@@]1(O)CCC(=O)C=C1CO2

>  <Energy>  (12) 
46.27257491335831

>  <Genealogy>  (12) 
COc1ccc2c(c1)[C@@]1(O)CCC(=O)C=C1CO2 (chirality)
COc1ccc2c(c1)[C@@]1(O)CCC(=O)C=C1CO2 (3D coordinates assigned)
COc1ccc2c(c1)[C@@]1(O)CCC(=O)C=C1CO2 (nonaromatic ring conformer: 46.27257491335831 kcal/mol)

>  <smiles>  (12) 
COc1ccc2c(c1)C1(O)CCC(=O)C=C1CO2

>  <score_type>  (12) 
oracle

>  <origin>  (12) 
adg

>  <m_score__min__energy>  (12) 
-6.9100000000000001

>  <m_primary>  (12) 
energy

$$$$
12:0
     RDKit          3D

 31 33  0  0  0  0  0  0  0  0999 V2000
   -2.4490   24.4890  -28.8310 C   0  0  0  0  0  0  0  0  0  0  0  0
   -3.1420   24.9060  -30.0030 O   0  0  0  0  0  0  0  0  0  0  0  0
   -4.4440   24.5020  -30.3500 C   0  0  0  0  0  0  0  0  0  0  0  0
   -5.5560   25.3240  -30.0980 C   0  0  0  0  0  0  0  0  0  0  0  0
   -6.8340   24.9150  -30.4630 C   0  0  0  0  0  0  0  0  0  0  0  0
   -7.0280   23.6740  -31.0630 C   0  0  0  0  0  0  0  0  0  0  0  0
   -5.9430   22.8140  -31.3140 C   0  0  0  0  0  0  0  0  0  0  0  0
   -4.6270   23.2480  -30.9760 C   0  0  0  0  0  0  0  0  0  0  0  0
   -3.4190   22.4200  -31.2320 C   0  0  0  0  0  0  0  0  0  0  0  0
   -3.2190   21.7220  -32.3550 C   0  0  0  0  0  0  0  0  0  0  0  0
   -4.2380   21.6480  -33.4470 C   0  0  0  0  0  0  0  0  0  0  0  0
   -5.4450   20.9170  -32.9330 C   0  0  0  0  0  0  0  0  0  0  0  0
   -5.7630   19.6520  -33.4580 C   0  0  0  0  0  0  0  0  0  0  0  0
   -6.8510   18.9340  -32.9610 C   0  0  0  0  0  0  0  0  0  0  0  0
   -7.6240   19.4630  -31.9300 C   0  0  0  0  0  0  0  0  0  0  0  0
   -7.3160   20.7150  -31.3960 C   0  0  0  0  0  0  0  0  0  0  0  0
   -6.2280   21.4640  -31.8900 C   0  0  0  0  0  0  0  0  0  0  0  0
   -3.0019   24.8217  -27.9402 H   0  0  0  0  0  0  0  0  0  0  0  0
   -2.3679   23.3920  -28.8237 H   0  0  0  0  0  0  0  0  0  0  0  0
   -1.4418   24.9311  -28.8237 H   0  0  0  0  0  0  0  0  0  0  0  0
   -5.4142   26.2986  -29.6081 H   0  0  0  0  0  0  0  0  0  0  0  0
   -7.6946   25.5744  -30.2770 H   0  0  0  0  0  0  0  0  0  0  0  0
   -8.0442   23.3611  -31.3450 H   0  0  0  0  0  0  0  0  0  0  0  0
   -2.6444   22.3791  -30.4520 H   0  0  0  0  0  0  0  0  0  0  0  0
   -2.2690   21.1818  -32.4802 H   0  0  0  0  0  0  0  0  0  0  0  0
   -4.5245   22.6644  -33.7549 H   0  0  0  0  0  0  0  0  0  0  0  0
   -3.8193   21.1157  -34.3138 H   0  0  0  0  0  0  0  0  0  0  0  0
   -5.1500   19.2257  -34.2658 H   0  0  0  0  0  0  0  0  0  0  0  0
   -7.0987   17.9491  -33.3837 H   0  0  0  0  0  0  0  0  0  0  0  0
   -8.4784   18.8931  -31.5362 H   0  0  0  0  0  0  0  0  0  0  0  0
   -7.9297   21.1229  -30.5793 H   0  0  0  0  0  0  0  0  0  0  0  0
  1  2  1  0
  2  3  1  0
  3  4  2  0
  4  5  1  0
  5  6  2  0
  6  7  1  0
  7  8  2  0
  8  9  1  0
  9 10  2  0
 10 11  1  0
 11 12  1  0
 12 13  2  0
 13 14  1  0
 14 15  2  0
 15 16  1  0
 16 17  2  0
  8  3  1  0
 17 12  1  0
 17  7  1  0
  1 18  1  0
  1 19  1  0
  1 20  1  0
  4 21  1  0
  5 22  1  0
  6 23  1  0
  9 24  1  0
 10 25  1  0
 11 26  1  0
 11 27  1  0
 13 28  1  0
 14 29  1  0
 15 30  1  0
 16 31  1  0
M  END
>  <UniqueID>  (13) 
12

>  <SMILES>  (13) 
COc1cccc2c1C=CCc1ccccc1-2

>  <Energy>  (13) 
47.08042655100478

>  <Genealogy>  (13) 
COc1cccc2c1C=CCc1ccccc1-2 (3D coordinates assigned)
COc1cccc2c1C=CCc1ccccc1-2 (nonaromatic ring conformer: 47.08042655100478 kcal/mol)

>  <smiles>  (13) 
COc1cccc2c1C=CCc1ccccc1-2

>  <score_type>  (13) 
oracle

>  <origin>  (13) 
adg

>  <m_score__min__energy>  (13) 
-6.6900000000000004

>  <m_primary>  (13) 
energy

$$$$
13:0
     RDKit          3D

 34 37  0  0  0  0  0  0  0  0999 V2000
   -5.5790   14.6830  -33.9110 C   0  0  0  0  0  0  0  0  0  0  0  0
   -6.0840   15.8290  -34.5870 O   0  0  0  0  0  0  0  0  0  0  0  0
   -6.2260   17.0970  -34.0030 C   0  0  0  0  0  0  0  0  0  0  0  0
   -5.3310   18.1010  -34.3750 C   0  0  0  0  0  0  0  0  0  0  0  0
   -5.4180   19.3780  -33.8150 C   0  0  0  0  0  0  0  0  0  0  0  0
   -6.3930   19.6700  -32.8410 C   0  0  0  0  0  0  0  0  0  0  0  0
   -7.3430   18.6750  -32.5160 C   0  0  0  0  0  0  0  0  0  0  0  0
   -7.2420   17.3910  -33.0750 C   0  0  0  0  0  0  0  0  0  0  0  0
   -8.5000   19.0260  -31.6270 C   0  0  0  0  0  0  0  0  0  0  0  0
   -9.2170   20.5730  -32.2560 S   0  0  0  0  0  0  0  0  0  0  0  0
   -7.7110   21.4950  -31.8950 C   0  0  0  0  0  0  0  0  0  0  0  0
   -7.8240   22.6830  -31.2440 N   0  0  0  0  0  0  0  0  0  0  0  0
   -6.7290   23.4130  -30.9110 C   0  0  0  0  0  0  0  0  0  0  0  0
   -6.8700   24.6520  -30.2620 C   0  0  0  0  0  0  0  0  0  0  0  0
   -5.7380   25.3910  -29.9070 C   0  0  0  0  0  0  0  0  0  0  0  0
   -4.4630   24.8990  -30.1910 C   0  0  0  0  0  0  0  0  0  0  0  0
   -4.3110   23.6670  -30.8320 C   0  0  0  0  0  0  0  0  0  0  0  0
   -5.4460   22.9160  -31.2020 C   0  0  0  0  0  0  0  0  0  0  0  0
   -5.3420   21.6670  -31.8360 C   0  0  0  0  0  0  0  0  0  0  0  0
   -4.1980   21.1610  -32.0120 O   0  0  0  0  0  0  0  0  0  0  0  0
   -6.4750   20.9840  -32.2180 N   0  0  0  0  0  0  0  0  0  0  0  0
   -5.6475   14.8385  -32.8242 H   0  0  0  0  0  0  0  0  0  0  0  0
   -6.1714   13.8002  -34.1931 H   0  0  0  0  0  0  0  0  0  0  0  0
   -4.5277   14.5245  -34.1931 H   0  0  0  0  0  0  0  0  0  0  0  0
   -4.5485   17.8846  -35.1172 H   0  0  0  0  0  0  0  0  0  0  0  0
   -4.7184   20.1631  -34.1378 H   0  0  0  0  0  0  0  0  0  0  0  0
   -7.9612   16.6105  -32.7859 H   0  0  0  0  0  0  0  0  0  0  0  0
   -9.2524   18.2241  -31.6546 H   0  0  0  0  0  0  0  0  0  0  0  0
   -8.1675   19.1467  -30.5854 H   0  0  0  0  0  0  0  0  0  0  0  0
   -8.7780   23.0390  -31.0070 H   0  0  0  0  0  0  0  0  0  0  0  0
   -7.8733   25.0407  -30.0331 H   0  0  0  0  0  0  0  0  0  0  0  0
   -5.8521   26.3620  -29.4029 H   0  0  0  0  0  0  0  0  0  0  0  0
   -3.5747   25.4834  -29.9091 H   0  0  0  0  0  0  0  0  0  0  0  0
   -3.3037   23.2818  -31.0486 H   0  0  0  0  0  0  0  0  0  0  0  0
  1  2  1  0
  2  3  1  0
  3  4  2  0
  4  5  1  0
  5  6  2  0
  6  7  1  0
  7  8  2  0
  7  9  1  0
  9 10  1  0
 10 11  1  0
 11 12  2  0
 12 13  1  0
 13 14  2  0
 14 15  1  0
 15 16  2  0
 16 17  1  0
 17 18  2  0
 18 19  1  0
 19 20  2  0
 19 21  1  0
  8  3  1  0
 21 11  1  0
 21  6  1  0
 18 13  1  0
  1 22  1  0
  1 23  1  0
  1 24  1  0
  4 25  1  0
  5 26  1  0
  8 27  1  0
  9 28  1  0
  9 29  1  0
 12 30  1  0
 14 31  1  0
 15 32  1  0
 16 33  1  0
 17 34  1  0
M  CHG  1  12   1
M  END
>  <UniqueID>  (14) 
13

>  <SMILES>  (14) 
COc1ccc2c(c1)CSc1[nH+]c3ccccc3c(=O)n1-2

>  <Energy>  (14) 
56.433507156311435

>  <Genealogy>  (14) 
COc1ccc2c(c1)CSc1[nH+]c3ccccc3c(=O)n1-2 (protonated)
COc1ccc2c(c1)CSc1[nH+]c3ccccc3c(=O)n1-2 (3D coordinates assigned)
COc1ccc2c(c1)CSc1[nH+]c3ccccc3c(=O)n1-2 (nonaromatic ring conformer: 56.433507156311435 kcal/mol)

>  <smiles>  (14) 
COc1ccc2c(c1)CSc1nc3ccccc3c(=O)n1-2

>  <score_type>  (14) 
oracle

>  <origin>  (14) 
adg

>  <m_score__min__energy>  (14) 
-7.75

>  <m_primary>  (14) 
energy

$$$$
14:0
     RDKit          3D

 43 45  0  0  0  0  0  0  0  0999 V2000
   -8.6969   23.9858  -32.1255 H   0  0  0  0  0  0  0  0  0  0  0  0
   -8.2080   23.0820  -31.7330 C   0  0  0  0  0  0  0  0  0  0  0  0
   -8.8710   21.9200  -31.8490 C   0  0  0  0  0  0  0  0  0  0  0  0
   -9.9587   21.9393  -31.6860 H   0  0  0  0  0  0  0  0  0  0  0  0
   -8.2560   20.6180  -32.1780 C   0  0  0  0  0  0  0  0  0  0  0  0
   -7.1030   20.5360  -32.9770 C   0  0  0  0  0  0  0  0  0  0  0  0
   -6.6597   21.4530  -33.3926 H   0  0  0  0  0  0  0  0  0  0  0  0
   -6.5160   19.2970  -33.2470 C   0  0  0  0  0  0  0  0  0  0  0  0
   -5.6257   19.2412  -33.8907 H   0  0  0  0  0  0  0  0  0  0  0  0
   -7.0600   18.1190  -32.6980 C   0  0  0  0  0  0  0  0  0  0  0  0
   -6.5110   16.8520  -32.9400 O   0  0  0  0  0  0  0  0  0  0  0  0
   -5.8040   16.4960  -34.1250 C   0  0  0  0  0  0  0  0  0  0  0  0
   -4.8518   16.0166  -33.8538 H   0  0  0  0  0  0  0  0  0  0  0  0
   -6.4111   15.7961  -34.7179 H   0  0  0  0  0  0  0  0  0  0  0  0
   -5.6033   17.4005  -34.7179 H   0  0  0  0  0  0  0  0  0  0  0  0
   -8.1880   18.2090  -31.8750 C   0  0  0  0  0  0  0  0  0  0  0  0
   -8.6153   17.2963  -31.4341 H   0  0  0  0  0  0  0  0  0  0  0  0
   -8.7770   19.4490  -31.6080 C   0  0  0  0  0  0  0  0  0  0  0  0
   -9.6542   19.5068  -30.9468 H   0  0  0  0  0  0  0  0  0  0  0  0
   -6.8720   23.2420  -31.1190 C   0  0  0  0  0  0  0  0  0  0  0  0
   -6.3200   22.2500  -30.4240 O   0  0  0  0  0  0  0  0  0  0  0  0
   -5.1150   22.3380  -29.8700 C   0  0  0  0  0  0  0  0  0  0  0  0
   -4.7165   21.4877  -29.2971 H   0  0  0  0  0  0  0  0  0  0  0  0
   -4.3490   23.4980  -30.0070 C   0  0  0  0  0  0  0  0  0  0  0  0
   -3.0820   23.5420  -29.4020 O   0  0  0  0  0  0  0  0  0  0  0  0
   -2.7980   24.1620  -28.1780 C   0  0  0  0  0  0  0  0  0  0  0  0
   -3.8700   24.5240  -27.3520 C   0  0  0  0  0  0  0  0  0  0  0  0
   -4.9006   24.3015  -27.6655 H   0  0  0  0  0  0  0  0  0  0  0  0
   -3.6390   25.1650  -26.1340 C   0  0  0  0  0  0  0  0  0  0  0  0
   -4.4871   25.4525  -25.4952 H   0  0  0  0  0  0  0  0  0  0  0  0
   -2.3330   25.4420  -25.7250 C   0  0  0  0  0  0  0  0  0  0  0  0
   -2.1539   25.9596  -24.7711 H   0  0  0  0  0  0  0  0  0  0  0  0
   -1.2530   25.0620  -26.5270 C   0  0  0  0  0  0  0  0  0  0  0  0
   -0.2261   25.2841  -26.2012 H   0  0  0  0  0  0  0  0  0  0  0  0
   -1.4700   24.3980  -27.7470 C   0  0  0  0  0  0  0  0  0  0  0  0
   -0.2860   23.9630  -28.5660 C   0  0  0  0  0  0  0  0  0  0  0  0
    0.5328   23.6622  -27.8958 H   0  0  0  0  0  0  0  0  0  0  0  0
   -0.5721   23.1113  -29.2006 H   0  0  0  0  0  0  0  0  0  0  0  0
    0.0473   24.7974  -29.2006 H   0  0  0  0  0  0  0  0  0  0  0  0
   -4.9020   24.5760  -30.7250 C   0  0  0  0  0  0  0  0  0  0  0  0
   -4.2820   25.6660  -30.8450 O   0  0  0  0  0  0  0  0  0  0  0  0
   -6.1670   24.4400  -31.2970 C   0  0  0  0  0  0  0  0  0  0  0  0
   -6.6057   25.2629  -31.8805 H   0  0  0  0  0  0  0  0  0  0  0  0
  1  2  1  0
  2  3  2  0
  3  4  1  0
  3  5  1  0
  5  6  2  0
  6  7  1  0
  6  8  1  0
  8  9  1  0
  8 10  2  0
 10 11  1  0
 11 12  1  0
 12 13  1  0
 12 14  1  0
 12 15  1  0
 10 16  1  0
 16 17  1  0
 16 18  2  0
 18 19  1  0
  2 20  1  0
 20 21  1  0
 21 22  1  0
 22 23  1  0
 22 24  2  0
 24 25  1  0
 25 26  1  0
 26 27  2  0
 27 28  1  0
 27 29  1  0
 29 30  1  0
 29 31  2  0
 31 32  1  0
 31 33  1  0
 33 34  1  0
 33 35  2  0
 35 36  1  0
 36 37  1  0
 36 38  1  0
 36 39  1  0
 24 40  1  0
 40 41  2  0
 40 42  1  0
 42 43  1  0
 18  5  1  0
 42 20  2  0
 35 26  1  0
M  END
>  <UniqueID>  (15) 
14

>  <SMILES>  (15) 
COc1ccc(/C=C\c2cc(=O)c(Oc3ccccc3C)co2)cc1

>  <Energy>  (15) 
63.37149463181847

>  <Genealogy>  (15) 
COc1ccc(/C=C\c2cc(=O)c(Oc3ccccc3C)co2)cc1 (cis-trans isomerization)
COc1ccc(/C=C\c2cc(=O)c(Oc3ccccc3C)co2)cc1 (3D coordinates assigned)
COc1ccc(/C=C\c2cc(=O)c(Oc3ccccc3C)co2)cc1 (optimized conformer: 63.37149463181847 kcal/mol)

>  <smiles>  (15) 
COc1ccc(C=Cc2cc(=O)c(Oc3ccccc3C)co2)cc1

>  <score_type>  (15) 
oracle

>  <origin>  (15) 
adg

>  <m_score__min__energy>  (15) 
-8.8399999999999999

>  <m_primary>  (15) 
energy

$$$$
15:0
     RDKit          3D

 53 56  0  0  0  0  0  0  0  0999 V2000
   -0.0210   22.6730  -23.8180 C   0  0  0  0  0  0  0  0  0  0  0  0
    0.3190   22.6910  -25.2000 O   0  0  0  0  0  0  0  0  0  0  0  0
   -0.5860   22.4380  -26.2410 C   0  0  0  0  0  0  0  0  0  0  0  0
   -0.8490   21.1230  -26.7150 C   0  0  0  0  0  0  0  0  0  0  0  0
   -1.7630   20.9080  -27.7620 C   0  0  0  0  0  0  0  0  0  0  0  0
   -2.4010   22.0180  -28.3090 C   0  0  0  0  0  0  0  0  0  0  0  0
   -3.3120   22.1270  -29.3380 C   0  0  0  0  0  0  0  0  0  0  0  0
   -3.8780   20.7940  -30.4050 S   0  0  0  0  0  0  0  0  0  0  0  0
   -2.4830   20.9630  -31.5160 C   0  0  0  0  0  0  0  0  0  0  0  0
   -2.6900   21.0470  -32.8980 C   0  0  0  0  0  0  0  0  0  0  0  0
   -1.5990   21.1660  -33.7650 C   0  0  0  0  0  0  0  0  0  0  0  0
   -0.2910   21.1960  -33.2560 C   0  0  0  0  0  0  0  0  0  0  0  0
    0.8770   21.3610  -34.1820 C   0  0  0  0  0  0  0  0  0  0  0  0
   -0.0900   21.1390  -31.8680 C   0  0  0  0  0  0  0  0  0  0  0  0
   -1.1820   21.0190  -31.0030 C   0  0  0  0  0  0  0  0  0  0  0  0
   -3.5880   23.4910  -29.4520 C   0  0  0  0  0  0  0  0  0  0  0  0
   -4.4880   24.1220  -30.4320 C   0  0  0  0  0  0  0  0  0  0  0  0
   -4.2000   25.2670  -30.8740 O   0  0  0  0  0  0  0  0  0  0  0  0
   -5.6940   23.4720  -30.8650 N   0  0  0  0  0  0  0  0  0  0  0  0
   -6.2060   23.7010  -32.2170 C   0  0  0  0  0  0  0  0  0  0  0  0
   -6.8670   22.4130  -32.7200 C   0  0  0  0  0  0  0  0  0  0  0  0
   -7.9200   21.8980  -31.8060 N   0  0  0  0  0  0  0  0  0  0  0  0
   -7.8750   20.4290  -31.7180 C   0  0  0  0  0  0  0  0  0  0  0  0
   -7.9430   22.5180  -30.4580 C   0  0  0  0  0  0  0  0  0  0  0  0
   -6.5360   22.7630  -29.8920 C   0  0  0  0  0  0  0  0  0  0  0  0
   -2.8620   24.1950  -28.5520 N   0  0  0  0  0  0  0  0  0  0  0  0
   -2.1510   23.2880  -27.8600 C   0  0  0  0  0  0  0  0  0  0  0  0
   -1.2490   23.5350  -26.8260 C   0  0  0  0  0  0  0  0  0  0  0  0
    0.8970   22.7216  -23.2139 H   0  0  0  0  0  0  0  0  0  0  0  0
   -0.6589   23.5386  -23.5860 H   0  0  0  0  0  0  0  0  0  0  0  0
   -0.5639   21.7449  -23.5860 H   0  0  0  0  0  0  0  0  0  0  0  0
   -0.3325   20.2659  -26.2582 H   0  0  0  0  0  0  0  0  0  0  0  0
   -1.9675   19.8943  -28.1371 H   0  0  0  0  0  0  0  0  0  0  0  0
   -3.7125   21.0194  -33.3027 H   0  0  0  0  0  0  0  0  0  0  0  0
   -1.7665   21.2364  -34.8499 H   0  0  0  0  0  0  0  0  0  0  0  0
    1.7967   21.4909  -33.5926 H   0  0  0  0  0  0  0  0  0  0  0  0
    0.9712   20.4672  -34.8163 H   0  0  0  0  0  0  0  0  0  0  0  0
    0.7199   22.2459  -34.8163 H   0  0  0  0  0  0  0  0  0  0  0  0
    0.9301   21.1889  -31.4594 H   0  0  0  0  0  0  0  0  0  0  0  0
   -1.0181   20.9685  -29.9164 H   0  0  0  0  0  0  0  0  0  0  0  0
   -6.9468   24.5139  -32.1989 H   0  0  0  0  0  0  0  0  0  0  0  0
   -5.3800   23.9831  -32.8865 H   0  0  0  0  0  0  0  0  0  0  0  0
   -7.3234   22.6144  -33.7004 H   0  0  0  0  0  0  0  0  0  0  0  0
   -6.0818   21.6448  -32.7788 H   0  0  0  0  0  0  0  0  0  0  0  0
   -7.8657   20.1251  -30.6608 H   0  0  0  0  0  0  0  0  0  0  0  0
   -8.7606   20.0047  -32.2137 H   0  0  0  0  0  0  0  0  0  0  0  0
   -6.9651   20.0597  -32.2137 H   0  0  0  0  0  0  0  0  0  0  0  0
   -8.4684   23.4822  -30.5234 H   0  0  0  0  0  0  0  0  0  0  0  0
   -8.4558   21.8193  -29.7805 H   0  0  0  0  0  0  0  0  0  0  0  0
   -6.6165   23.3685  -28.9772 H   0  0  0  0  0  0  0  0  0  0  0  0
   -6.0728   21.7902  -29.6703 H   0  0  0  0  0  0  0  0  0  0  0  0
   -2.8550   25.2310  -28.4210 H   0  0  0  0  0  0  0  0  0  0  0  0
   -1.0597   24.5604  -26.4757 H   0  0  0  0  0  0  0  0  0  0  0  0
  1  2  1  0
  2  3  1  0
  3  4  2  0
  4  5  1  0
  5  6  2  0
  6  7  1  0
  7  8  1  0
  8  9  1  0
  9 10  2  0
 10 11  1  0
 11 12  2  0
 12 13  1  0
 12 14  1  0
 14 15  2  0
  7 16  2  0
 16 17  1  0
 17 18  2  0
 17 19  1  0
 19 20  1  0
 20 21  1  0
 21 22  1  0
 22 23  1  0
 22 24  1  0
 24 25  1  0
 16 26  1  0
 26 27  1  0
 27 28  2  0
 28  3  1  0
 27  6  1  0
 15  9  1  0
 25 19  1  0
  1 29  1  0
  1 30  1  0
  1 31  1  0
  4 32  1  0
  5 33  1  0
 10 34  1  0
 11 35  1  0
 13 36  1  0
 13 37  1  0
 13 38  1  0
 14 39  1  0
 15 40  1  0
 20 41  1  0
 20 42  1  0
 21 43  1  0
 21 44  1  0
 23 45  1  0
 23 46  1  0
 23 47  1  0
 24 48  1  0
 24 49  1  0
 25 50  1  0
 25 51  1  0
 26 52  1  0
 28 53  1  0
M  END
>  <UniqueID>  (16) 
15

>  <SMILES>  (16) 
COc1ccc2c(Sc3ccc(C)cc3)c(C(=O)N3CCN(C)CC3)[nH]c2c1

>  <Energy>  (16) 
92.45782849387874

>  <Genealogy>  (16) 
COc1ccc2c(Sc3ccc(C)cc3)c(C(=O)N3CCN(C)CC3)[nH]c2c1 (3D coordinates assigned)
COc1ccc2c(Sc3ccc(C)cc3)c(C(=O)N3CCN(C)CC3)[nH]c2c1 (nonaromatic ring conformer: 92.45782849387874 kcal/mol)

>  <smiles>  (16) 
COc1ccc2c(Sc3ccc(C)cc3)c(C(=O)N3CCN(C)CC3)[nH]c2c1

>  <score_type>  (16) 
oracle

>  <origin>  (16) 
adg

>  <m_score__min__energy>  (16) 
-8.3399999999999999

>  <m_primary>  (16) 
energy

$$$$
16:0
     RDKit          3D

 36 39  0  0  0  0  0  0  0  0999 V2000
   -5.4210   25.8250  -30.4640 N   0  0  0  0  0  0  0  0  0  0  0  0
   -5.1340   24.6010  -30.8010 C   0  0  0  0  0  0  0  0  0  0  0  0
   -3.8720   24.1350  -30.8420 N   0  0  0  0  0  0  0  0  0  0  0  0
   -3.5640   22.8670  -31.1910 C   0  0  0  0  0  0  0  0  0  0  0  0
   -2.2780   22.3770  -31.2370 O   0  0  0  0  0  0  0  0  0  0  0  0
   -2.0180   21.2380  -31.9920 C   0  0  0  0  0  0  0  0  0  0  0  0
   -1.5330   20.0830  -31.3650 C   0  0  0  0  0  0  0  0  0  0  0  0
   -1.3020   19.0050  -32.1770 C   0  0  0  0  0  0  0  0  0  0  0  0
   -1.5330   19.0420  -33.5530 C   0  0  0  0  0  0  0  0  0  0  0  0
   -2.0120   20.1930  -34.1470 C   0  0  0  0  0  0  0  0  0  0  0  0
   -2.2500   21.2890  -33.3430 C   0  0  0  0  0  0  0  0  0  0  0  0
   -4.5570   22.0000  -31.5190 N   0  0  0  0  0  0  0  0  0  0  0  0
   -5.8470   22.3860  -31.5020 C   0  0  0  0  0  0  0  0  0  0  0  0
   -6.1320   23.6870  -31.1420 C   0  0  0  0  0  0  0  0  0  0  0  0
   -7.5100   23.7940  -31.2140 C   0  0  0  0  0  0  0  0  0  0  0  0
   -7.9660   22.5930  -31.6000 N   0  0  0  0  0  0  0  0  0  0  0  0
   -6.9890   21.7230  -31.7820 N   0  0  0  0  0  0  0  0  0  0  0  0
   -7.0890   20.3610  -32.1880 C   0  0  0  0  0  0  0  0  0  0  0  0
   -6.2020   19.9500  -33.1830 C   0  0  0  0  0  0  0  0  0  0  0  0
   -6.2190   18.6450  -33.6470 C   0  0  0  0  0  0  0  0  0  0  0  0
   -7.1300   17.7630  -33.1050 C   0  0  0  0  0  0  0  0  0  0  0  0
   -8.0230   18.1640  -32.1050 C   0  0  0  0  0  0  0  0  0  0  0  0
   -7.9970   19.4750  -31.6480 C   0  0  0  0  0  0  0  0  0  0  0  0
   -5.3530   26.0670  -29.4410 H   0  0  0  0  0  0  0  0  0  0  0  0
   -1.3481   20.0443  -30.2813 H   0  0  0  0  0  0  0  0  0  0  0  0
   -0.9204   18.0759  -31.7285 H   0  0  0  0  0  0  0  0  0  0  0  0
   -1.3328   18.1512  -34.1665 H   0  0  0  0  0  0  0  0  0  0  0  0
   -2.1985   20.2350  -35.2303 H   0  0  0  0  0  0  0  0  0  0  0  0
   -2.6316   22.2177  -33.7923 H   0  0  0  0  0  0  0  0  0  0  0  0
   -4.3190   21.0080  -31.7900 H   0  0  0  0  0  0  0  0  0  0  0  0
   -8.1128   24.6882  -30.9973 H   0  0  0  0  0  0  0  0  0  0  0  0
   -5.4827   20.6686  -33.6029 H   0  0  0  0  0  0  0  0  0  0  0  0
   -5.5203   18.3190  -34.4316 H   0  0  0  0  0  0  0  0  0  0  0  0
   -7.1552   16.7241  -33.4657 H   0  0  0  0  0  0  0  0  0  0  0  0
   -8.7411   17.4452  -31.6836 H   0  0  0  0  0  0  0  0  0  0  0  0
   -8.6940   19.8034  -30.8629 H   0  0  0  0  0  0  0  0  0  0  0  0
  1  2  2  3
  2  3  1  0
  3  4  2  0
  4  5  1  0
  5  6  1  0
  6  7  2  0
  7  8  1  0
  8  9  2  0
  9 10  1  0
 10 11  2  0
  4 12  1  0
 12 13  1  0
 13 14  2  0
 14 15  1  0
 15 16  2  0
 16 17  1  0
 17 18  1  0
 18 19  2  0
 19 20  1  0
 20 21  2  0
 21 22  1  0
 22 23  2  0
 14  2  1  0
 23 18  1  0
 11  6  1  0
 17 13  1  0
  1 24  1  0
  7 25  1  0
  8 26  1  0
  9 27  1  0
 10 28  1  0
 11 29  1  0
 12 30  1  0
 15 31  1  0
 19 32  1  0
 20 33  1  0
 21 34  1  0
 22 35  1  0
 23 36  1  0
M  END
>  <smiles>  (17) 
N=c1nc(Oc2ccccc2)[nH]c2c1cnn2-c1ccccc1

>  <score_type>  (17) 
oracle

>  <origin>  (17) 
adg

>  <m_score__min__energy>  (17) 
-7.96

>  <m_primary>  (17) 
energy

$$$$
17:0
     RDKit          3D

 42 43  0  0  0  0  0  0  0  0999 V2000
   -6.3780   15.9950  -33.8430 C   0  0  0  0  0  0  0  0  0  0  0  0
   -6.0360   16.4870  -32.6490 C   0  0  0  0  0  0  0  0  0  0  0  0
   -6.4760   17.8560  -32.2070 C   0  0  0  0  0  0  0  0  0  0  0  0
   -7.2590   18.5180  -33.2740 N   0  0  0  0  0  0  0  0  0  0  0  0
   -6.3910   19.3120  -34.1720 C   0  0  0  0  0  0  0  0  0  0  0  0
   -4.9390   19.0520  -33.8750 C   0  0  0  0  0  0  0  0  0  0  0  0
   -4.1080   20.0320  -33.5110 C   0  0  0  0  0  0  0  0  0  0  0  0
   -8.3930   19.2990  -32.7220 C   0  0  0  0  0  0  0  0  0  0  0  0
   -7.9660   20.5280  -31.9620 C   0  0  0  0  0  0  0  0  0  0  0  0
   -8.7870   21.4050  -31.2860 C   0  0  0  0  0  0  0  0  0  0  0  0
   -8.0220   22.3230  -30.7400 O   0  0  0  0  0  0  0  0  0  0  0  0
   -6.7740   22.0430  -31.0520 C   0  0  0  0  0  0  0  0  0  0  0  0
   -5.6200   22.8580  -30.6070 C   0  0  0  0  0  0  0  0  0  0  0  0
   -4.3820   22.2710  -30.2850 C   0  0  0  0  0  0  0  0  0  0  0  0
   -3.3090   23.0640  -29.8660 C   0  0  0  0  0  0  0  0  0  0  0  0
   -3.4540   24.4600  -29.7610 C   0  0  0  0  0  0  0  0  0  0  0  0
   -2.4070   25.2950  -29.3450 O   0  0  0  0  0  0  0  0  0  0  0  0
   -1.6310   25.0880  -28.1690 C   0  0  0  0  0  0  0  0  0  0  0  0
   -4.6850   25.0420  -30.0790 C   0  0  0  0  0  0  0  0  0  0  0  0
   -5.7580   24.2510  -30.4980 C   0  0  0  0  0  0  0  0  0  0  0  0
   -6.6920   20.9310  -31.8160 N   0  0  0  0  0  0  0  0  0  0  0  0
   -6.0423   14.9906  -34.1407 H   0  0  0  0  0  0  0  0  0  0  0  0
   -6.9953   16.5942  -34.5285 H   0  0  0  0  0  0  0  0  0  0  0  0
   -5.4184   15.8770  -31.9734 H   0  0  0  0  0  0  0  0  0  0  0  0
   -7.0993   17.7625  -31.3055 H   0  0  0  0  0  0  0  0  0  0  0  0
   -5.5849   18.4635  -31.9904 H   0  0  0  0  0  0  0  0  0  0  0  0
   -6.6014   19.0348  -35.2155 H   0  0  0  0  0  0  0  0  0  0  0  0
   -6.5990   20.3801  -34.0115 H   0  0  0  0  0  0  0  0  0  0  0  0
   -4.5512   18.0261  -33.9601 H   0  0  0  0  0  0  0  0  0  0  0  0
   -3.0518   19.8078  -33.3010 H   0  0  0  0  0  0  0  0  0  0  0  0
   -4.4798   21.0634  -33.4212 H   0  0  0  0  0  0  0  0  0  0  0  0
   -9.0379   19.6126  -33.5561 H   0  0  0  0  0  0  0  0  0  0  0  0
   -8.9181   18.6456  -32.0097 H   0  0  0  0  0  0  0  0  0  0  0  0
   -9.8833   21.3468  -31.2164 H   0  0  0  0  0  0  0  0  0  0  0  0
   -4.2576   21.1809  -30.3635 H   0  0  0  0  0  0  0  0  0  0  0  0
   -2.3461   22.5940  -29.6171 H   0  0  0  0  0  0  0  0  0  0  0  0
   -2.2587   25.2554  -27.2813 H   0  0  0  0  0  0  0  0  0  0  0  0
   -1.2489   24.0565  -28.1587 H   0  0  0  0  0  0  0  0  0  0  0  0
   -0.7860   25.7921  -28.1587 H   0  0  0  0  0  0  0  0  0  0  0  0
   -4.8098   26.1319  -29.9986 H   0  0  0  0  0  0  0  0  0  0  0  0
   -6.7199   24.7241  -30.7448 H   0  0  0  0  0  0  0  0  0  0  0  0
   -5.8450   20.4730  -32.2180 H   0  0  0  0  0  0  0  0  0  0  0  0
  1  2  2  0
  2  3  1  0
  3  4  1  0
  4  5  1  0
  5  6  1  0
  6  7  2  0
  4  8  1  0
  8  9  1  0
  9 10  2  0
 10 11  1  0
 11 12  1  0
 12 13  1  0
 13 14  2  0
 14 15  1  0
 15 16  2  0
 16 17  1  0
 17 18  1  0
 16 19  1  0
 19 20  2  0
 12 21  2  0
 21  9  1  0
 20 13  1  0
  1 22  1  0
  1 23  1  0
  2 24  1  0
  3 25  1  0
  3 26  1  0
  5 27  1  0
  5 28  1  0
  6 29  1  0
  7 30  1  0
  7 31  1  0
  8 32  1  0
  8 33  1  0
 10 34  1  0
 14 35  1  0
 15 36  1  0
 18 37  1  0
 18 38  1  0
 18 39  1  0
 19 40  1  0
 20 41  1  0
 21 42  1  0
M  CHG  1  21   1
M  END
>  <UniqueID>  (18) 
16

>  <SMILES>  (18) 
C=CCN(CC=C)Cc1coc(-c2ccc(OC)cc2)[nH+]1

>  <Energy>  (18) 
70.74897226768358

>  <Genealogy>  (18) 
C=CCN(CC=C)Cc1coc(-c2ccc(OC)cc2)[nH+]1 (protonated)
C=CCN(CC=C)Cc1coc(-c2ccc(OC)cc2)[nH+]1 (3D coordinates assigned)
C=CCN(CC=C)Cc1coc(-c2ccc(OC)cc2)[nH+]1 (optimized conformer: 70.74897226768358 kcal/mol)

>  <smiles>  (18) 
C=CCN(CC=C)Cc1coc(-c2ccc(OC)cc2)n1

>  <score_type>  (18) 
oracle

>  <origin>  (18) 
adg

>  <m_score__min__energy>  (18) 
-6.0999999999999996

>  <m_primary>  (18) 
energy

$$$$
18:0
     RDKit          3D

 36 38  0  0  0  0  0  0  0  0999 V2000
   -3.6470   25.2960  -30.4670 O   0  0  0  0  0  0  0  0  0  0  0  0
   -4.1120   24.2720  -29.8970 C   0  0  0  0  0  0  0  0  0  0  0  0
   -3.2940   23.5620  -28.8330 C   0  0  1  0  0  0  0  0  0  0  0  0
   -1.8430   24.0760  -28.8080 C   0  0  0  0  0  0  0  0  0  0  0  0
   -1.7280   25.4190  -28.0840 C   0  0  0  0  0  0  0  0  0  0  0  0
   -2.3410   25.3180  -26.6840 C   0  0  0  0  0  0  0  0  0  0  0  0
   -3.7550   24.9230  -26.7560 N   0  0  0  0  0  0  0  0  0  0  0  0
   -3.9340   23.6210  -27.4230 C   0  0  0  0  0  0  0  0  0  0  0  0
   -5.3910   23.7610  -30.3180 N   0  0  0  0  0  0  0  0  0  0  0  0
   -6.0640   22.5940  -29.7400 C   0  0  0  0  0  0  0  0  0  0  0  0
   -7.3030   22.4880  -30.5450 C   0  0  0  0  0  0  0  0  0  0  0  0
   -8.3230   21.5420  -30.4300 C   0  0  0  0  0  0  0  0  0  0  0  0
   -9.4200   21.6290  -31.3020 C   0  0  0  0  0  0  0  0  0  0  0  0
   -9.4800   22.6520  -32.2680 C   0  0  0  0  0  0  0  0  0  0  0  0
   -8.4410   23.5930  -32.3660 C   0  0  0  0  0  0  0  0  0  0  0  0
   -7.3620   23.4880  -31.4890 C   0  0  0  0  0  0  0  0  0  0  0  0
   -6.1650   24.3590  -31.4080 C   0  0  0  0  0  0  0  0  0  0  0  0
   -3.2823   22.4997  -29.1182 H   0  0  0  0  0  0  0  0  0  0  0  0
   -1.2126   23.3376  -28.2908 H   0  0  0  0  0  0  0  0  0  0  0  0
   -1.5130   24.2188  -29.8476 H   0  0  0  0  0  0  0  0  0  0  0  0
   -0.6669   25.6955  -27.9972 H   0  0  0  0  0  0  0  0  0  0  0  0
   -2.2692   26.1848  -28.6590 H   0  0  0  0  0  0  0  0  0  0  0  0
   -1.7868   24.5670  -26.1018 H   0  0  0  0  0  0  0  0  0  0  0  0
   -2.2765   26.3041  -26.2009 H   0  0  0  0  0  0  0  0  0  0  0  0
   -4.1230   24.8460  -25.7790 H   0  0  0  0  0  0  0  0  0  0  0  0
   -4.3070   25.6690  -27.2380 H   0  0  0  0  0  0  0  0  0  0  0  0
   -3.4735   22.8420  -26.7976 H   0  0  0  0  0  0  0  0  0  0  0  0
   -5.0156   23.4653  -27.5492 H   0  0  0  0  0  0  0  0  0  0  0  0
   -5.4464   21.6898  -29.8449 H   0  0  0  0  0  0  0  0  0  0  0  0
   -6.2562   22.6957  -28.6617 H   0  0  0  0  0  0  0  0  0  0  0  0
   -8.2685   20.7459  -29.6729 H   0  0  0  0  0  0  0  0  0  0  0  0
  -10.2361   20.8949  -31.2303 H   0  0  0  0  0  0  0  0  0  0  0  0
  -10.3426   22.7146  -32.9477 H   0  0  0  0  0  0  0  0  0  0  0  0
   -8.4780   24.3949  -33.1181 H   0  0  0  0  0  0  0  0  0  0  0  0
   -5.5986   24.3402  -32.3508 H   0  0  0  0  0  0  0  0  0  0  0  0
   -6.4114   25.4167  -31.2331 H   0  0  0  0  0  0  0  0  0  0  0  0
  1  2  2  0
  2  3  1  0
  3  4  1  0
  4  5  1  0
  5  6  1  0
  6  7  1  0
  7  8  1  0
  2  9  1  0
  9 10  1  0
 10 11  1  0
 11 12  2  0
 12 13  1  0
 13 14  2  0
 14 15  1  0
 15 16  2  0
 16 17  1  0
  8  3  1  0
 17  9  1  0
 16 11  1  0
  3 18  1  6
  4 19  1  0
  4 20  1  0
  5 21  1  0
  5 22  1  0
  6 23  1  0
  6 24  1  0
  7 25  1  0
  7 26  1  0
  8 27  1  0
  8 28  1  0
 10 29  1  0
 10 30  1  0
 12 31  1  0
 13 32  1  0
 14 33  1  0
 15 34  1  0
 17 35  1  0
 17 36  1  0
M  CHG  1   7   1
M  END
>  <UniqueID>  (19) 
17

>  <SMILES>  (19) 
O=C([C@H]1CCC[NH2+]C1)N1Cc2ccccc2C1

>  <Energy>  (19) 
44.48289272040574

>  <Genealogy>  (19) 
O=C(C1CCC[NH2+]C1)N1Cc2ccccc2C1 (protonated)
O=C([C@H]1CCC[NH2+]C1)N1Cc2ccccc2C1 (chirality)
O=C([C@H]1CCC[NH2+]C1)N1Cc2ccccc2C1 (3D coordinates assigned)
O=C([C@H]1CCC[NH2+]C1)N1Cc2ccccc2C1 (nonaromatic ring conformer: 44.48289272040574 kcal/mol)

>  <smiles>  (19) 
O=C(C1CCCNC1)N1Cc2ccccc2C1

>  <score_type>  (19) 
oracle

>  <origin>  (19) 
adg

>  <m_score__min__energy>  (19) 
-6.79

>  <m_primary>  (19) 
energy

$$$$
19:0
     RDKit          3D

 48 51  0  0  1  0  0  0  0  0999 V2000
   -1.4810   16.8250  -32.3490 O   0  0  0  0  0  0  0  0  0  0  0  0
   -1.8460   17.5450  -33.3100 C   0  0  0  0  0  0  0  0  0  0  0  0
   -2.8430   17.0490  -34.2980 C   0  0  0  0  0  0  0  0  0  0  0  0
   -4.1950   17.3100  -33.9730 N   0  0  0  0  0  0  0  0  0  0  0  0
   -4.6300   17.1130  -32.6520 C   0  0  0  0  0  0  0  0  0  0  0  0
   -5.5030   18.1900  -32.0600 C   0  0  0  0  0  0  0  0  0  0  0  0
   -6.3130   18.8960  -32.9460 N   0  0  0  0  0  0  0  0  0  0  0  0
   -7.6820   19.0700  -32.7280 C   0  0  0  0  0  0  0  0  0  0  0  0
   -8.0040   20.4720  -32.3410 C   0  0  0  0  0  0  0  0  0  0  0  0
   -6.9550   21.3980  -32.3820 C   0  0  0  0  0  0  0  0  0  0  0  0
   -7.2040   22.7000  -32.0410 C   0  0  0  0  0  0  0  0  0  0  0  0
   -8.4350   23.1550  -31.6580 C   0  0  0  0  0  0  0  0  0  0  0  0
   -9.4910   22.2380  -31.6120 C   0  0  0  0  0  0  0  0  0  0  0  0
   -9.2330   20.9070  -31.9620 C   0  0  0  0  0  0  0  0  0  0  0  0
   -5.7090   19.2580  -34.1510 C   0  0  0  0  0  0  0  0  0  0  0  0
   -4.9180   18.1690  -34.8260 C   0  0  0  0  0  0  0  0  0  0  0  0
   -1.3460   18.8680  -33.5310 N   0  0  0  0  0  0  0  0  0  0  0  0
   -2.0520   19.9000  -33.2070 C   0  0  0  0  0  0  0  0  0  0  0  0
   -2.6930   20.8430  -33.9380 N   0  0  0  0  0  0  0  0  0  0  0  0
   -3.3060   21.7260  -33.2180 N   0  0  0  0  0  0  0  0  0  0  0  0
   -3.3980   21.8470  -32.0630 C   0  0  0  0  0  0  0  0  0  0  0  0
   -4.0240   22.7430  -31.0470 C   0  0  0  0  0  0  0  0  0  0  0  0
   -4.5410   22.3150  -29.8680 C   0  0  0  0  0  0  0  0  0  0  0  0
   -5.0190   23.4360  -29.2180 C   0  0  0  0  0  0  0  0  0  0  0  0
   -4.7560   24.5130  -30.0670 C   0  0  0  0  0  0  0  0  0  0  0  0
   -4.1740   24.0210  -31.1100 O   0  0  0  0  0  0  0  0  0  0  0  0
   -2.3930   20.3750  -31.4410 S   0  0  0  0  0  0  0  0  0  0  0  0
   -2.6280   17.5245  -35.2663 H   0  0  0  0  0  0  0  0  0  0  0  0
   -2.7388   15.9541  -34.3131 H   0  0  0  0  0  0  0  0  0  0  0  0
   -5.1976   16.1711  -32.6247 H   0  0  0  0  0  0  0  0  0  0  0  0
   -3.7144   17.1148  -32.0424 H   0  0  0  0  0  0  0  0  0  0  0  0
   -6.1585   17.7156  -31.3149 H   0  0  0  0  0  0  0  0  0  0  0  0
   -4.8051   18.9349  -31.6501 H   0  0  0  0  0  0  0  0  0  0  0  0
   -8.2246   18.8216  -33.6520 H   0  0  0  0  0  0  0  0  0  0  0  0
   -7.9849   18.4082  -31.9032 H   0  0  0  0  0  0  0  0  0  0  0  0
   -5.9450   21.0838  -32.6840 H   0  0  0  0  0  0  0  0  0  0  0  0
   -6.3707   23.4172  -32.0770 H   0  0  0  0  0  0  0  0  0  0  0  0
   -8.5908   24.2113  -31.3937 H   0  0  0  0  0  0  0  0  0  0  0  0
  -10.4995   22.5551  -31.3082 H   0  0  0  0  0  0  0  0  0  0  0  0
  -10.0608   20.1834  -31.9285 H   0  0  0  0  0  0  0  0  0  0  0  0
   -6.4995   19.5831  -34.8434 H   0  0  0  0  0  0  0  0  0  0  0  0
   -4.9871   20.0503  -33.9038 H   0  0  0  0  0  0  0  0  0  0  0  0
   -5.6207   17.5533  -35.4066 H   0  0  0  0  0  0  0  0  0  0  0  0
   -4.1623   18.6861  -35.4356 H   0  0  0  0  0  0  0  0  0  0  0  0
   -2.6450   20.7870  -35.0010 H   0  0  0  0  0  0  0  0  0  0  0  0
   -4.5732   21.2783  -29.5015 H   0  0  0  0  0  0  0  0  0  0  0  0
   -5.5071   23.4729  -28.2329 H   0  0  0  0  0  0  0  0  0  0  0  0
   -4.9967   25.5706  -29.8839 H   0  0  0  0  0  0  0  0  0  0  0  0
  1  2  2  0
  2  3  1  0
  3  4  1  0
  4  5  1  0
  5  6  1  0
  6  7  1  0
  7  8  1  0
  8  9  1  0
  9 10  2  0
 10 11  1  0
 11 12  2  0
 12 13  1  0
 13 14  2  0
  7 15  1  0
 15 16  1  0
  2 17  1  0
 17 18  2  0
 18 19  1  0
 19 20  1  0
 20 21  2  0
 21 22  1  0
 22 23  2  0
 23 24  1  0
 24 25  2  0
 25 26  1  0
 21 27  1  0
 16  4  1  0
 27 18  1  0
 14  9  1  0
 26 22  1  0
  3 28  1  0
  3 29  1  0
  5 30  1  0
  5 31  1  0
  6 32  1  0
  6 33  1  0
  8 34  1  0
  8 35  1  0
 10 36  1  0
 11 37  1  0
 12 38  1  0
 13 39  1  0
 14 40  1  0
 15 41  1  0
 15 42  1  0
 16 43  1  0
 16 44  1  0
 19 45  1  0
 23 46  1  0
 24 47  1  0
 25 48  1  0
M  END
>  <smiles>  (20) 
O=C(CN1CCN(Cc2ccccc2)CC1)N=c1[nH]nc(-c2ccco2)s1

>  <score_type>  (20) 
oracle

>  <origin>  (20) 
adg

>  <m_score__min__energy>  (20) 
-9.8599999999999994

>  <m_primary>  (20) 
energy

$$$$
20:0
     RDKit          3D

 44 46  0  0  0  0  0  0  0  0999 V2000
   -8.5848   21.1819  -30.7405 H   0  0  0  0  0  0  0  0  0  0  0  0
   -8.1730   20.5800  -31.5640 C   0  0  0  0  0  0  0  0  0  0  0  0
   -7.6680   21.0760  -32.7130 N   0  0  0  0  0  0  0  0  0  0  0  0
   -7.2890   19.9850  -33.4110 C   0  0  0  0  0  0  0  0  0  0  0  0
   -6.8276   20.0260  -34.4087 H   0  0  0  0  0  0  0  0  0  0  0  0
   -7.5400   18.8400  -32.7470 N   0  0  0  0  0  0  0  0  0  0  0  0
   -7.2200   17.4820  -33.1810 C   0  0  0  0  0  0  0  0  0  0  0  0
   -8.1323   17.0055  -33.5691 H   0  0  0  0  0  0  0  0  0  0  0  0
   -6.8272   16.9250  -32.3176 H   0  0  0  0  0  0  0  0  0  0  0  0
   -6.1500   17.4860  -34.2830 C   0  0  0  0  0  0  0  0  0  0  0  0
   -6.4193   18.2482  -35.0290 H   0  0  0  0  0  0  0  0  0  0  0  0
   -6.1230   16.4752  -34.7161 H   0  0  0  0  0  0  0  0  0  0  0  0
   -4.7440   17.7940  -33.7580 C   0  0  0  0  0  0  0  0  0  0  0  0
   -4.0077   17.2024  -34.3217 H   0  0  0  0  0  0  0  0  0  0  0  0
   -4.6944   17.5352  -32.6900 H   0  0  0  0  0  0  0  0  0  0  0  0
   -4.4470   19.2140  -33.9190 N   0  0  0  0  0  0  0  0  0  0  0  0
   -3.8980   20.0620  -33.0870 C   0  0  0  0  0  0  0  0  0  0  0  0
   -2.6110   19.8870  -32.4950 C   0  0  0  0  0  0  0  0  0  0  0  0
   -1.7570   18.7460  -32.7260 C   0  0  0  0  0  0  0  0  0  0  0  0
   -1.0680   17.8320  -32.9000 N   0  0  0  0  0  0  0  0  0  0  0  0
   -2.1250   20.8680  -31.6240 C   0  0  0  0  0  0  0  0  0  0  0  0
   -1.1344   20.7435  -31.1622 H   0  0  0  0  0  0  0  0  0  0  0  0
   -2.8840   22.0030  -31.3350 C   0  0  0  0  0  0  0  0  0  0  0  0
   -2.4040   22.9900  -30.4640 C   0  0  0  0  0  0  0  0  0  0  0  0
   -1.4143   22.8733  -29.9983 H   0  0  0  0  0  0  0  0  0  0  0  0
   -3.1800   24.1300  -30.1810 C   0  0  0  0  0  0  0  0  0  0  0  0
   -2.7320   25.1400  -29.3140 O   0  0  0  0  0  0  0  0  0  0  0  0
   -2.2550   24.9170  -27.9900 C   0  0  0  0  0  0  0  0  0  0  0  0
   -3.0052   25.2677  -27.2660 H   0  0  0  0  0  0  0  0  0  0  0  0
   -2.0761   23.8419  -27.8409 H   0  0  0  0  0  0  0  0  0  0  0  0
   -1.3154   25.4692  -27.8409 H   0  0  0  0  0  0  0  0  0  0  0  0
   -4.4420   24.2770  -30.7750 C   0  0  0  0  0  0  0  0  0  0  0  0
   -5.1920   25.4260  -30.4720 O   0  0  0  0  0  0  0  0  0  0  0  0
   -6.3710   25.4350  -29.6750 C   0  0  0  0  0  0  0  0  0  0  0  0
   -6.0940   25.4329  -28.6105 H   0  0  0  0  0  0  0  0  0  0  0  0
   -6.9583   26.3377  -29.8993 H   0  0  0  0  0  0  0  0  0  0  0  0
   -6.9720   24.5414  -29.8993 H   0  0  0  0  0  0  0  0  0  0  0  0
   -4.9220   23.2820  -31.6500 C   0  0  0  0  0  0  0  0  0  0  0  0
   -5.9117   23.3966  -32.1162 H   0  0  0  0  0  0  0  0  0  0  0  0
   -4.1480   22.1470  -31.9310 C   0  0  0  0  0  0  0  0  0  0  0  0
   -4.6140   21.1850  -32.7780 N   0  0  0  0  0  0  0  0  0  0  0  0
   -5.5580   21.3100  -33.2160 H   0  0  0  0  0  0  0  0  0  0  0  0
   -8.0940   19.2060  -31.5800 C   0  0  0  0  0  0  0  0  0  0  0  0
   -8.4256   18.5285  -30.7794 H   0  0  0  0  0  0  0  0  0  0  0  0
  1  2  1  0
  2  3  1  0
  3  4  2  0
  4  5  1  0
  4  6  1  0
  6  7  1  0
  7  8  1  0
  7  9  1  0
  7 10  1  0
 10 11  1  0
 10 12  1  0
 10 13  1  0
 13 14  1  0
 13 15  1  0
 13 16  1  0
 16 17  2  0
 17 18  1  0
 18 19  1  0
 19 20  3  0
 18 21  2  0
 21 22  1  0
 21 23  1  0
 23 24  2  0
 24 25  1  0
 24 26  1  0
 26 27  1  0
 27 28  1  0
 28 29  1  0
 28 30  1  0
 28 31  1  0
 26 32  2  0
 32 33  1  0
 33 34  1  0
 34 35  1  0
 34 36  1  0
 34 37  1  0
 32 38  1  0
 38 39  1  0
 38 40  2  0
 40 41  1  0
 41 42  1  0
  6 43  1  0
 43 44  1  0
 43  2  2  0
 41 17  1  0
 40 23  1  0
M  END
>  <UniqueID>  (21) 
18

>  <SMILES>  (21) 
COc1cc2cc(C#N)/c(=N\CCCn3ccnc3)[nH]c2cc1OC

>  <Energy>  (21) 
79.29085237992578

>  <Genealogy>  (21) 
COc1cc2cc(C#N)/c(=N\CCCn3ccnc3)[nH]c2cc1OC (cis-trans isomerization)
COc1cc2cc(C#N)/c(=N\CCCn3ccnc3)[nH]c2cc1OC (3D coordinates assigned)
COc1cc2cc(C#N)/c(=N\CCCn3ccnc3)[nH]c2cc1OC (optimized conformer: 79.29085237992578 kcal/mol)

>  <smiles>  (21) 
COc1cc2cc(C#N)c(=NCCCn3ccnc3)[nH]c2cc1OC

>  <score_type>  (21) 
oracle

>  <origin>  (21) 
adg

>  <m_score__min__energy>  (21) 
-7.1200000000000001

>  <m_primary>  (21) 
energy

$$$$
21:0
     RDKit          3D

 30 32  0  0  0  0  0  0  0  0999 V2000
   -5.9860   17.8800  -33.5690 C   0  0  0  0  0  0  0  0  0  0  0  0
   -5.7410   19.2440  -34.2020 C   0  0  0  0  0  0  0  0  0  0  0  0
   -5.9980   20.3060  -33.2320 N   0  0  0  0  0  0  0  0  0  0  0  0
   -5.0540   21.1100  -32.7540 N   0  0  0  0  0  0  0  0  0  0  0  0
   -5.6230   21.9360  -31.8430 C   0  0  0  0  0  0  0  0  0  0  0  0
   -4.8720   22.9640  -31.1080 C   0  0  0  0  0  0  0  0  0  0  0  0
   -3.8650   22.6980  -30.2500 N   0  0  0  0  0  0  0  0  0  0  0  0
   -3.4990   23.9210  -29.8220 C   0  0  0  0  0  0  0  0  0  0  0  0
   -2.3580   24.1790  -28.8910 C   0  0  0  0  0  0  0  0  0  0  0  0
   -1.2900   23.3710  -29.2380 F   0  0  0  0  0  0  0  0  0  0  0  0
   -2.7340   23.8990  -27.5900 F   0  0  0  0  0  0  0  0  0  0  0  0
   -1.9720   25.5050  -28.9730 F   0  0  0  0  0  0  0  0  0  0  0  0
   -4.2710   24.8770  -30.4440 C   0  0  0  0  0  0  0  0  0  0  0  0
   -5.1140   24.2510  -31.2260 O   0  0  0  0  0  0  0  0  0  0  0  0
   -6.9700   21.6260  -31.7400 C   0  0  0  0  0  0  0  0  0  0  0  0
   -8.0110   22.1340  -30.9620 C   0  0  0  0  0  0  0  0  0  0  0  0
   -9.2830   21.5520  -31.1100 C   0  0  0  0  0  0  0  0  0  0  0  0
   -9.4840   20.4880  -32.0170 C   0  0  0  0  0  0  0  0  0  0  0  0
   -8.4150   19.9960  -32.7870 C   0  0  0  0  0  0  0  0  0  0  0  0
   -7.1650   20.5960  -32.6230 C   0  0  0  0  0  0  0  0  0  0  0  0
   -5.9688   17.9758  -32.4733 H   0  0  0  0  0  0  0  0  0  0  0  0
   -6.9670   17.4985  -33.8883 H   0  0  0  0  0  0  0  0  0  0  0  0
   -5.1991   17.1809  -33.8883 H   0  0  0  0  0  0  0  0  0  0  0  0
   -4.6957   19.3053  -34.5390 H   0  0  0  0  0  0  0  0  0  0  0  0
   -6.4205   19.3688  -35.0580 H   0  0  0  0  0  0  0  0  0  0  0  0
   -4.1936   25.9659  -30.3087 H   0  0  0  0  0  0  0  0  0  0  0  0
   -7.8427   22.9614  -30.2570 H   0  0  0  0  0  0  0  0  0  0  0  0
  -10.1279   21.9285  -30.5147 H   0  0  0  0  0  0  0  0  0  0  0  0
  -10.4837   20.0411  -32.1218 H   0  0  0  0  0  0  0  0  0  0  0  0
   -8.5588   19.1663  -33.4947 H   0  0  0  0  0  0  0  0  0  0  0  0
  1  2  1  0
  2  3  1  0
  3  4  1  0
  4  5  2  0
  5  6  1  0
  6  7  2  0
  7  8  1  0
  8  9  1  0
  9 10  1  0
  9 11  1  0
  9 12  1  0
  8 13  2  0
 13 14  1  0
  5 15  1  0
 15 16  2  0
 16 17  1  0
 17 18  2  0
 18 19  1  0
 19 20  2  0
 20  3  1  0
 14  6  1  0
 20 15  1  0
  1 21  1  0
  1 22  1  0
  1 23  1  0
  2 24  1  0
  2 25  1  0
 13 26  1  0
 16 27  1  0
 17 28  1  0
 18 29  1  0
 19 30  1  0
M  END
>  <UniqueID>  (22) 
19

>  <SMILES>  (22) 
CCn1nc(-c2nc(C(F)(F)F)co2)c2ccccc21

>  <Energy>  (22) 
96.03985927144203

>  <Genealogy>  (22) 
CCn1nc(-c2nc(C(F)(F)F)co2)c2ccccc21 (3D coordinates assigned)
CCn1nc(-c2nc(C(F)(F)F)co2)c2ccccc21 (optimized conformer: 96.03985927144203 kcal/mol)

>  <smiles>  (22) 
CCn1nc(-c2nc(C(F)(F)F)co2)c2ccccc21

>  <score_type>  (22) 
oracle

>  <origin>  (22) 
adg

>  <m_score__min__energy>  (22) 
-6.1699999999999999

>  <m_primary>  (22) 
energy

$$$$
22:0
     RDKit          3D

 35 35  0  0  0  0  0  0  0  0999 V2000
    1.2498   22.3808  -28.4307 H   0  0  0  0  0  0  0  0  0  0  0  0
    0.2540   22.8230  -28.5820 C   0  0  0  0  0  0  0  0  0  0  0  0
    0.1130   24.1720  -28.6450 N   0  0  0  0  0  0  0  0  0  0  0  0
   -1.0990   24.7680  -28.8450 C   0  0  0  0  0  0  0  0  0  0  0  0
   -1.2000   26.0650  -28.8620 N   0  0  0  0  0  0  0  0  0  0  0  0
   -0.8100   26.9310  -27.7560 C   0  0  0  0  0  0  0  0  0  0  0  0
   -1.0350   26.4314  -26.8022 H   0  0  0  0  0  0  0  0  0  0  0  0
    0.2686   27.1387  -27.8157 H   0  0  0  0  0  0  0  0  0  0  0  0
   -1.3693   27.8763  -27.8157 H   0  0  0  0  0  0  0  0  0  0  0  0
   -2.2470   23.9650  -29.0100 C   0  0  0  0  0  0  0  0  0  0  0  0
   -3.5820   24.5490  -29.2550 C   0  0  0  0  0  0  0  0  0  0  0  0
   -4.4810   24.4070  -28.3850 O   0  0  0  0  0  0  0  0  0  0  0  0
   -3.8950   25.2500  -30.4680 N   0  0  0  0  0  0  0  0  0  0  0  0
   -5.2350   25.6590  -30.8800 C   0  0  0  0  0  0  0  0  0  0  0  0
   -5.6048   26.4321  -30.1904 H   0  0  0  0  0  0  0  0  0  0  0  0
   -5.1848   26.0550  -31.9050 H   0  0  0  0  0  0  0  0  0  0  0  0
   -6.1960   24.4640  -30.8590 C   0  0  0  0  0  0  0  0  0  0  0  0
   -6.2199   24.0448  -29.8423 H   0  0  0  0  0  0  0  0  0  0  0  0
   -7.1905   24.8213  -31.1645 H   0  0  0  0  0  0  0  0  0  0  0  0
   -5.7640   23.3630  -31.8400 C   0  0  0  0  0  0  0  0  0  0  0  0
   -5.1927   23.8206  -32.6612 H   0  0  0  0  0  0  0  0  0  0  0  0
   -5.1483   22.6352  -31.2911 H   0  0  0  0  0  0  0  0  0  0  0  0
   -6.9310   22.6490  -32.4060 N   0  0  0  0  0  0  0  0  0  0  0  0
   -8.1510   23.0040  -31.6630 C   0  0  0  0  0  0  0  0  0  0  0  0
   -7.9522   22.9462  -30.5827 H   0  0  0  0  0  0  0  0  0  0  0  0
   -8.4553   24.0279  -31.9255 H   0  0  0  0  0  0  0  0  0  0  0  0
   -8.9572   22.3032  -31.9255 H   0  0  0  0  0  0  0  0  0  0  0  0
   -6.7380   21.1890  -32.3610 C   0  0  0  0  0  0  0  0  0  0  0  0
   -6.6941   20.8571  -31.3132 H   0  0  0  0  0  0  0  0  0  0  0  0
   -7.5783   20.6923  -32.8681 H   0  0  0  0  0  0  0  0  0  0  0  0
   -5.7975   20.9277  -32.8681 H   0  0  0  0  0  0  0  0  0  0  0  0
   -2.1160   22.5730  -28.9170 C   0  0  0  0  0  0  0  0  0  0  0  0
   -3.0049   21.9316  -29.0084 H   0  0  0  0  0  0  0  0  0  0  0  0
   -0.8630   21.9980  -28.7090 C   0  0  0  0  0  0  0  0  0  0  0  0
   -0.7567   20.9050  -28.6457 H   0  0  0  0  0  0  0  0  0  0  0  0
  1  2  1  0
  2  3  1  0
  3  4  1  0
  4  5  2  0
  5  6  1  0
  6  7  1  0
  6  8  1  0
  6  9  1  0
  4 10  1  0
 10 11  1  0
 11 12  2  0
 11 13  1  0
 13 14  1  0
 14 15  1  0
 14 16  1  0
 14 17  1  0
 17 18  1  0
 17 19  1  0
 17 20  1  0
 20 21  1  0
 20 22  1  0
 20 23  1  0
 23 24  1  0
 24 25  1  0
 24 26  1  0
 24 27  1  0
 23 28  1  0
 28 29  1  0
 28 30  1  0
 28 31  1  0
 10 32  2  0
 32 33  1  0
 32 34  1  0
 34 35  1  0
 34  2  2  0
M  CHG  2   3  -1  13  -1
M  END
>  <UniqueID>  (23) 
20

>  <SMILES>  (23) 
C/N=c1\[n-]cccc1C(=O)[N-]CCCN(C)C

>  <Energy>  (23) 
33.217143797610156

>  <Genealogy>  (23) 
CN=c1[n-]cccc1C(=O)[N-]CCCN(C)C (protonated)
C/N=c1\[n-]cccc1C(=O)[N-]CCCN(C)C (cis-trans isomerization)
C/N=c1\[n-]cccc1C(=O)[N-]CCCN(C)C (3D coordinates assigned)
C/N=c1\[n-]cccc1C(=O)[N-]CCCN(C)C (optimized conformer: 33.217143797610156 kcal/mol)

>  <smiles>  (23) 
CN=c1[nH]cccc1C(=O)NCCCN(C)C

>  <score_type>  (23) 
oracle

>  <origin>  (23) 
adg

>  <m_score__min__energy>  (23) 
-8.2300000000000004

>  <m_primary>  (23) 
energy

$$$$
23:0
     RDKit          3D

 34 34  0  0  0  0  0  0  0  0999 V2000
   -6.4980   24.5270  -29.8810 C   0  0  0  0  0  0  0  0  0  0  0  0
   -5.6510   25.6970  -30.3550 C   0  0  0  0  0  0  0  0  0  0  0  0
   -4.4080   25.2140  -30.8510 O   0  0  0  0  0  0  0  0  0  0  0  0
   -3.4780   24.5540  -30.0450 C   0  0  0  0  0  0  0  0  0  0  0  0
   -2.7320   25.2000  -29.2590 O   0  0  0  0  0  0  0  0  0  0  0  0
   -3.3790   23.0640  -30.1100 C   0  0  0  0  0  0  0  0  0  0  0  0
   -4.1590   22.5610  -31.2390 N   0  0  0  0  0  0  0  0  0  0  0  0
   -3.6550   21.6020  -32.1870 C   0  0  0  0  0  0  0  0  0  0  0  0
   -2.4030   20.6100  -31.7940 S   0  0  0  0  0  0  0  0  0  0  0  0
   -4.2530   21.5170  -33.4950 N   0  0  0  0  0  0  0  0  0  0  0  0
   -4.9810   20.2480  -33.6650 C   0  0  0  0  0  0  0  0  0  0  0  0
   -5.7010   19.8190  -32.3740 C   0  0  0  0  0  0  0  0  0  0  0  0
   -7.0710   20.4220  -32.2770 C   0  0  0  0  0  0  0  0  0  0  0  0
   -8.2680   19.7190  -32.3460 C   0  0  0  0  0  0  0  0  0  0  0  0
   -9.3960   20.5260  -32.1580 C   0  0  0  0  0  0  0  0  0  0  0  0
   -9.0940   21.8600  -31.9190 C   0  0  0  0  0  0  0  0  0  0  0  0
   -7.4220   22.0330  -31.9400 S   0  0  0  0  0  0  0  0  0  0  0  0
   -6.5127   24.5067  -28.7813 H   0  0  0  0  0  0  0  0  0  0  0  0
   -7.5246   24.6405  -30.2594 H   0  0  0  0  0  0  0  0  0  0  0  0
   -6.0696   23.5872  -30.2594 H   0  0  0  0  0  0  0  0  0  0  0  0
   -6.1817   26.2329  -31.1557 H   0  0  0  0  0  0  0  0  0  0  0  0
   -5.4683   26.3814  -29.5134 H   0  0  0  0  0  0  0  0  0  0  0  0
   -2.3255   22.7739  -30.2368 H   0  0  0  0  0  0  0  0  0  0  0  0
   -3.7741   22.6344  -29.1776 H   0  0  0  0  0  0  0  0  0  0  0  0
   -5.0730   23.0250  -31.4430 H   0  0  0  0  0  0  0  0  0  0  0  0
   -3.4880   21.5630  -34.2070 H   0  0  0  0  0  0  0  0  0  0  0  0
   -4.8920   22.3280  -33.6670 H   0  0  0  0  0  0  0  0  0  0  0  0
   -5.7272   20.3709  -34.4638 H   0  0  0  0  0  0  0  0  0  0  0  0
   -4.2489   19.4679  -33.9211 H   0  0  0  0  0  0  0  0  0  0  0  0
   -5.7923   18.7228  -32.3640 H   0  0  0  0  0  0  0  0  0  0  0  0
   -5.1089   20.1727  -31.5171 H   0  0  0  0  0  0  0  0  0  0  0  0
   -8.3233   18.6359  -32.5301 H   0  0  0  0  0  0  0  0  0  0  0  0
  -10.4252   20.1396  -32.1960 H   0  0  0  0  0  0  0  0  0  0  0  0
   -9.8233   22.6651  -31.7457 H   0  0  0  0  0  0  0  0  0  0  0  0
  1  2  1  0
  2  3  1  0
  3  4  1  0
  4  5  2  0
  4  6  1  0
  6  7  1  0
  7  8  1  0
  8  9  2  0
  8 10  1  0
 10 11  1  0
 11 12  1  0
 12 13  1  0
 13 14  2  0
 14 15  1  0
 15 16  2  0
 16 17  1  0
 17 13  1  0
  1 18  1  0
  1 19  1  0
  1 20  1  0
  2 21  1  0
  2 22  1  0
  6 23  1  0
  6 24  1  0
  7 25  1  0
 10 26  1  0
 10 27  1  0
 11 28  1  0
 11 29  1  0
 12 30  1  0
 12 31  1  0
 14 32  1  0
 15 33  1  0
 16 34  1  0
M  CHG  1  10   1
M  END
>  <UniqueID>  (24) 
21

>  <SMILES>  (24) 
CCOC(=O)CNC(=S)[NH2+]CCc1cccs1

>  <Energy>  (24) 
45.47229136684337

>  <Genealogy>  (24) 
CCOC(=O)CNC(=S)[NH2+]CCc1cccs1 (protonated)
CCOC(=O)CNC(=S)[NH2+]CCc1cccs1 (3D coordinates assigned)
CCOC(=O)CNC(=S)[NH2+]CCc1cccs1 (optimized conformer: 45.47229136684337 kcal/mol)

>  <smiles>  (24) 
CCOC(=O)CNC(=S)NCCc1cccs1

>  <score_type>  (24) 
oracle

>  <origin>  (24) 
adg

>  <m_score__min__energy>  (24) 
-5.9500000000000002

>  <m_primary>  (24) 
energy

$$$$
24:0
     RDKit          3D

 25 26  0  0  0  0  0  0  0  0999 V2000
   -6.8400   23.4300  -31.8830 C   0  0  0  0  0  0  0  0  0  0  0  0
   -7.5650   22.1190  -31.9400 C   0  0  0  0  0  0  0  0  0  0  0  0
   -8.9660   22.0850  -31.9200 C   0  0  0  0  0  0  0  0  0  0  0  0
   -9.6410   20.8660  -32.0060 C   0  0  0  0  0  0  0  0  0  0  0  0
   -8.9250   19.6730  -32.1270 C   0  0  0  0  0  0  0  0  0  0  0  0
   -7.5190   19.6870  -32.1690 C   0  0  0  0  0  0  0  0  0  0  0  0
   -6.7560   18.4200  -32.3090 C   0  0  0  0  0  0  0  0  0  0  0  0
   -6.3320   17.9690  -33.5700 C   0  0  0  0  0  0  0  0  0  0  0  0
   -5.6160   16.7770  -33.6860 C   0  0  0  0  0  0  0  0  0  0  0  0
   -5.3290   16.0390  -32.5380 C   0  0  0  0  0  0  0  0  0  0  0  0
   -5.7420   16.4800  -31.3200 N   0  0  0  0  0  0  0  0  0  0  0  0
   -6.4410   17.6390  -31.1820 C   0  0  0  0  0  0  0  0  0  0  0  0
   -6.8470   20.9200  -32.0820 C   0  0  0  0  0  0  0  0  0  0  0  0
   -6.6818   23.7161  -30.8327 H   0  0  0  0  0  0  0  0  0  0  0  0
   -5.8672   23.3332  -32.3872 H   0  0  0  0  0  0  0  0  0  0  0  0
   -7.4391   24.2025  -32.3872 H   0  0  0  0  0  0  0  0  0  0  0  0
   -9.5358   23.0222  -31.8362 H   0  0  0  0  0  0  0  0  0  0  0  0
  -10.7405   20.8451  -31.9784 H   0  0  0  0  0  0  0  0  0  0  0  0
   -9.4640   18.7162  -32.1899 H   0  0  0  0  0  0  0  0  0  0  0  0
   -6.5653   18.5578  -34.4694 H   0  0  0  0  0  0  0  0  0  0  0  0
   -5.2815   16.4232  -34.6724 H   0  0  0  0  0  0  0  0  0  0  0  0
   -4.7666   15.0970  -32.6182 H   0  0  0  0  0  0  0  0  0  0  0  0
   -5.5140   15.9170  -30.4700 H   0  0  0  0  0  0  0  0  0  0  0  0
   -6.7620   17.9677  -30.1825 H   0  0  0  0  0  0  0  0  0  0  0  0
   -5.7482   20.9454  -32.1256 H   0  0  0  0  0  0  0  0  0  0  0  0
  1  2  1  0
  2  3  2  0
  3  4  1  0
  4  5  2  0
  5  6  1  0
  6  7  1  0
  7  8  2  0
  8  9  1  0
  9 10  2  0
 10 11  1  0
 11 12  2  0
  6 13  2  0
 13  2  1  0
 12  7  1  0
  1 14  1  0
  1 15  1  0
  1 16  1  0
  3 17  1  0
  4 18  1  0
  5 19  1  0
  8 20  1  0
  9 21  1  0
 10 22  1  0
 11 23  1  0
 12 24  1  0
 13 25  1  0
M  CHG  1  11   1
M  END
>  <UniqueID>  (25) 
22

>  <SMILES>  (25) 
Cc1cccc(-c2ccc[nH+]c2)c1

>  <Energy>  (25) 
29.97095148709758

>  <Genealogy>  (25) 
Cc1cccc(-c2ccc[nH+]c2)c1 (protonated)
Cc1cccc(-c2ccc[nH+]c2)c1 (3D coordinates assigned)
Cc1cccc(-c2ccc[nH+]c2)c1 (optimized conformer: 29.97095148709758 kcal/mol)

>  <smiles>  (25) 
Cc1cccc(-c2cccnc2)c1

>  <score_type>  (25) 
oracle

>  <origin>  (25) 
adg

>  <m_score__min__energy>  (25) 
-5.8899999999999997

>  <m_primary>  (25) 
energy

$$$$
25:0
     RDKit          3D

 42 45  0  0  0  0  0  0  0  0999 V2000
   -2.8220   15.6310  -35.6650 C   0  0  0  0  0  0  0  0  0  0  0  0
   -4.0070   16.4200  -35.7070 O   0  0  0  0  0  0  0  0  0  0  0  0
   -4.2740   17.4940  -34.8450 C   0  0  0  0  0  0  0  0  0  0  0  0
   -5.4450   18.2680  -34.9450 C   0  0  0  0  0  0  0  0  0  0  0  0
   -5.6650   19.3300  -34.0640 C   0  0  0  0  0  0  0  0  0  0  0  0
   -4.7140   19.6440  -33.0800 C   0  0  0  0  0  0  0  0  0  0  0  0
   -4.9490   20.7570  -32.1330 C   0  0  0  0  0  0  0  0  0  0  0  0
   -3.9120   21.5950  -31.8380 N   0  0  0  0  0  0  0  0  0  0  0  0
   -4.0340   22.5740  -30.8980 C   0  0  0  0  0  0  0  0  0  0  0  0
   -2.9580   23.4200  -30.5910 C   0  0  0  0  0  0  0  0  0  0  0  0
   -3.0930   24.4150  -29.6130 C   0  0  0  0  0  0  0  0  0  0  0  0
   -1.9880   25.2350  -29.3420 O   0  0  0  0  0  0  0  0  0  0  0  0
   -1.1970   25.1550  -28.1600 C   0  0  0  0  0  0  0  0  0  0  0  0
   -4.3220   24.5590  -28.9390 C   0  0  0  0  0  0  0  0  0  0  0  0
   -5.3970   23.7170  -29.2430 C   0  0  0  0  0  0  0  0  0  0  0  0
   -5.2560   22.7270  -30.2190 C   0  0  0  0  0  0  0  0  0  0  0  0
   -6.2940   21.9120  -30.5270 N   0  0  0  0  0  0  0  0  0  0  0  0
   -6.1930   20.9400  -31.4730 C   0  0  0  0  0  0  0  0  0  0  0  0
   -7.4050   20.1570  -31.7910 C   0  0  0  0  0  0  0  0  0  0  0  0
   -8.5300   20.6540  -32.4410 C   0  0  0  0  0  0  0  0  0  0  0  0
   -9.4980   19.6770  -32.7070 C   0  0  0  0  0  0  0  0  0  0  0  0
   -9.1350   18.4030  -32.2930 C   0  0  0  0  0  0  0  0  0  0  0  0
   -7.6070   18.4930  -31.5980 S   0  0  0  0  0  0  0  0  0  0  0  0
   -3.5560   18.8610  -32.9690 C   0  0  0  0  0  0  0  0  0  0  0  0
   -3.3380   17.7980  -33.8500 C   0  0  0  0  0  0  0  0  0  0  0  0
   -2.5424   15.4448  -34.6175 H   0  0  0  0  0  0  0  0  0  0  0  0
   -3.0020   14.6718  -36.1725 H   0  0  0  0  0  0  0  0  0  0  0  0
   -2.0064   16.1670  -36.1725 H   0  0  0  0  0  0  0  0  0  0  0  0
   -6.1903   18.0360  -35.7200 H   0  0  0  0  0  0  0  0  0  0  0  0
   -6.5881   19.9231  -34.1418 H   0  0  0  0  0  0  0  0  0  0  0  0
   -2.9950   21.4620  -32.3210 H   0  0  0  0  0  0  0  0  0  0  0  0
   -2.0016   23.3017  -31.1215 H   0  0  0  0  0  0  0  0  0  0  0  0
   -1.8496   25.2210  -27.2769 H   0  0  0  0  0  0  0  0  0  0  0  0
   -0.6557   24.1975  -28.1452 H   0  0  0  0  0  0  0  0  0  0  0  0
   -0.4749   25.9847  -28.1452 H   0  0  0  0  0  0  0  0  0  0  0  0
   -4.4367   25.3372  -28.1701 H   0  0  0  0  0  0  0  0  0  0  0  0
   -6.3539   23.8343  -28.7134 H   0  0  0  0  0  0  0  0  0  0  0  0
   -8.6480   21.7117  -32.7192 H   0  0  0  0  0  0  0  0  0  0  0  0
  -10.4568   19.8989  -33.1984 H   0  0  0  0  0  0  0  0  0  0  0  0
   -9.7421   17.4921  -32.4010 H   0  0  0  0  0  0  0  0  0  0  0  0
   -2.8165   19.0842  -32.1858 H   0  0  0  0  0  0  0  0  0  0  0  0
   -2.4224   17.1949  -33.7604 H   0  0  0  0  0  0  0  0  0  0  0  0
  1  2  1  0
  2  3  1  0
  3  4  2  0
  4  5  1  0
  5  6  2  0
  6  7  1  0
  7  8  2  0
  8  9  1  0
  9 10  2  0
 10 11  1  0
 11 12  1  0
 12 13  1  0
 11 14  2  0
 14 15  1  0
 15 16  2  0
 16 17  1  0
 17 18  2  0
 18 19  1  0
 19 20  2  0
 20 21  1  0
 21 22  2  0
 22 23  1  0
  6 24  1  0
 24 25  2  0
 25  3  1  0
 18  7  1  0
 23 19  1  0
 16  9  1  0
  1 26  1  0
  1 27  1  0
  1 28  1  0
  4 29  1  0
  5 30  1  0
  8 31  1  0
 10 32  1  0
 13 33  1  0
 13 34  1  0
 13 35  1  0
 14 36  1  0
 15 37  1  0
 20 38  1  0
 21 39  1  0
 22 40  1  0
 24 41  1  0
 25 42  1  0
M  CHG  1   8   1
M  END
>  <UniqueID>  (26) 
23

>  <SMILES>  (26) 
COc1ccc(-c2[nH+]c3cc(OC)ccc3nc2-c2cccs2)cc1

>  <Energy>  (26) 
85.3499872126886

>  <Genealogy>  (26) 
COc1ccc(-c2[nH+]c3cc(OC)ccc3nc2-c2cccs2)cc1 (protonated)
COc1ccc(-c2[nH+]c3cc(OC)ccc3nc2-c2cccs2)cc1 (3D coordinates assigned)
COc1ccc(-c2[nH+]c3cc(OC)ccc3nc2-c2cccs2)cc1 (optimized conformer: 85.3499872126886 kcal/mol)

>  <smiles>  (26) 
COc1ccc(-c2nc3cc(OC)ccc3nc2-c2cccs2)cc1

>  <score_type>  (26) 
oracle

>  <origin>  (26) 
adg

>  <m_score__min__energy>  (26) 
-7.2699999999999996

>  <m_primary>  (26) 
energy

$$$$
26:0
     RDKit          3D

 34 36  0  0  0  0  0  0  0  0999 V2000
   -5.7300   17.8580  -34.7750 C   0  0  0  0  0  0  0  0  0  0  0  0
   -6.5760   17.5490  -33.5770 C   0  0  0  0  0  0  0  0  0  0  0  0
   -6.7750   16.3420  -33.2740 O   0  0  0  0  0  0  0  0  0  0  0  0
   -7.1730   18.5940  -32.7810 N   0  0  0  0  0  0  0  0  0  0  0  0
   -8.6440   18.6430  -32.7110 C   0  0  0  0  0  0  0  0  0  0  0  0
   -9.1300   19.4910  -31.5340 C   0  0  0  0  0  0  0  0  0  0  0  0
   -8.4920   20.8800  -31.5770 C   0  0  0  0  0  0  0  0  0  0  0  0
   -6.9940   20.7670  -31.6040 C   0  0  0  0  0  0  0  0  0  0  0  0
   -6.1980   21.7860  -31.0630 C   0  0  0  0  0  0  0  0  0  0  0  0
   -4.7990   21.6820  -31.0810 C   0  0  0  0  0  0  0  0  0  0  0  0
   -3.9470   22.7520  -30.5010 C   0  0  0  0  0  0  0  0  0  0  0  0
   -2.7010   22.4580  -29.9250 C   0  0  0  0  0  0  0  0  0  0  0  0
   -1.9400   23.4520  -29.4000 N   0  0  0  0  0  0  0  0  0  0  0  0
   -2.3610   24.7430  -29.4220 C   0  0  0  0  0  0  0  0  0  0  0  0
   -1.6150   25.6700  -28.9160 N   0  0  0  0  0  0  0  0  0  0  0  0
   -3.5620   25.0550  -29.9750 N   0  0  0  0  0  0  0  0  0  0  0  0
   -4.3580   24.0930  -30.5090 C   0  0  0  0  0  0  0  0  0  0  0  0
   -4.2260   20.5380  -31.6580 C   0  0  0  0  0  0  0  0  0  0  0  0
   -5.0150   19.5720  -32.1980 N   0  0  0  0  0  0  0  0  0  0  0  0
   -6.3730   19.6580  -32.2080 C   0  0  0  0  0  0  0  0  0  0  0  0
   -4.7444   18.2180  -34.4449 H   0  0  0  0  0  0  0  0  0  0  0  0
   -5.6042   16.9478  -35.3797 H   0  0  0  0  0  0  0  0  0  0  0  0
   -6.2205   18.6350  -35.3797 H   0  0  0  0  0  0  0  0  0  0  0  0
   -9.0305   19.0763  -33.6453 H   0  0  0  0  0  0  0  0  0  0  0  0
   -9.0134   17.6168  -32.5679 H   0  0  0  0  0  0  0  0  0  0  0  0
  -10.2239   19.5930  -31.5883 H   0  0  0  0  0  0  0  0  0  0  0  0
   -8.8422   18.9956  -30.5950 H   0  0  0  0  0  0  0  0  0  0  0  0
   -8.8322   21.4074  -32.4804 H   0  0  0  0  0  0  0  0  0  0  0  0
   -8.7918   21.4387  -30.6781 H   0  0  0  0  0  0  0  0  0  0  0  0
   -6.6738   22.6739  -30.6210 H   0  0  0  0  0  0  0  0  0  0  0  0
   -2.3403   21.4192  -29.8990 H   0  0  0  0  0  0  0  0  0  0  0  0
   -1.5510   26.6170  -29.3500 H   0  0  0  0  0  0  0  0  0  0  0  0
   -5.3283   24.3664  -30.9493 H   0  0  0  0  0  0  0  0  0  0  0  0
   -3.1322   20.4226  -31.6733 H   0  0  0  0  0  0  0  0  0  0  0  0
  1  2  1  0
  2  3  2  0
  2  4  1  0
  4  5  1  0
  5  6  1  0
  6  7  1  0
  7  8  1  0
  8  9  2  0
  9 10  1  0
 10 11  1  0
 11 12  1  0
 12 13  2  0
 13 14  1  0
 14 15  2  3
 14 16  1  0
 16 17  1  0
 10 18  2  0
 18 19  1  0
 19 20  2  0
 20  4  1  0
 20  8  1  0
 17 11  2  0
  1 21  1  0
  1 22  1  0
  1 23  1  0
  5 24  1  0
  5 25  1  0
  6 26  1  0
  6 27  1  0
  7 28  1  0
  7 29  1  0
  9 30  1  0
 12 31  1  0
 15 32  1  0
 17 33  1  0
 18 34  1  0
M  CHG  1  16  -1
M  END
>  <UniqueID>  (27) 
24

>  <SMILES>  (27) 
CC(=O)N1CCCc2cc(-c3cnc(=N)[n-]c3)cnc21

>  <Energy>  (27) 
45.370320825679386

>  <Genealogy>  (27) 
CC(=O)N1CCCc2cc(-c3cnc(=N)[n-]c3)cnc21 (protonated)
CC(=O)N1CCCc2cc(-c3cnc(=N)[n-]c3)cnc21 (3D coordinates assigned)
CC(=O)N1CCCc2cc(-c3cnc(=N)[n-]c3)cnc21 (nonaromatic ring conformer: 45.370320825679386 kcal/mol)

>  <smiles>  (27) 
CC(=O)N1CCCc2cc(-c3cnc(=N)[nH]c3)cnc21

>  <score_type>  (27) 
oracle

>  <origin>  (27) 
adg

>  <m_score__min__energy>  (27) 
-8.5

>  <m_primary>  (27) 
energy

$$$$
27:0
     RDKit          3D

 33 35  0  0  0  0  0  0  0  0999 V2000
    0.1310   22.4390  -27.8330 C   0  0  0  0  0  0  0  0  0  0  0  0
   -0.8620   23.2130  -26.9330 C   0  0  0  0  0  0  0  0  0  0  0  0
   -0.4100   23.0280  -25.4680 C   0  0  0  0  0  0  0  0  0  0  0  0
   -0.8430   24.7250  -27.2690 C   0  0  0  0  0  0  0  0  0  0  0  0
   -1.4140   25.0300  -28.6300 C   0  0  0  0  0  0  0  0  0  0  0  0
   -1.0410   26.0400  -29.2100 O   0  0  0  0  0  0  0  0  0  0  0  0
   -2.3940   24.0950  -29.3050 C   0  0  2  0  0  0  0  0  0  0  0  0
   -3.4040   24.8550  -30.0570 N   0  0  0  0  0  0  0  0  0  0  0  0
   -4.6940   24.2880  -30.3070 C   0  0  0  0  0  0  0  0  0  0  0  0
   -5.5370   24.8040  -31.3010 C   0  0  0  0  0  0  0  0  0  0  0  0
   -6.7940   24.2270  -31.5150 C   0  0  0  0  0  0  0  0  0  0  0  0
   -7.2110   23.1440  -30.7330 C   0  0  0  0  0  0  0  0  0  0  0  0
   -6.3740   22.6370  -29.7340 C   0  0  0  0  0  0  0  0  0  0  0  0
   -5.1120   23.2060  -29.5260 C   0  0  0  0  0  0  0  0  0  0  0  0
   -4.2680   22.7340  -28.4720 N   0  0  0  0  0  0  0  0  0  0  0  0
   -3.0450   23.1510  -28.2980 C   0  0  0  0  0  0  0  0  0  0  0  0
   -2.2990   22.6440  -27.0900 C   0  0  0  0  0  0  0  0  0  0  0  0
    0.8419   21.8849  -27.2025 H   0  0  0  0  0  0  0  0  0  0  0  0
   -0.4237   21.7326  -28.4681 H   0  0  0  0  0  0  0  0  0  0  0  0
    0.6806   23.1494  -28.4681 H   0  0  0  0  0  0  0  0  0  0  0  0
   -1.2132   23.3568  -24.7922 H   0  0  0  0  0  0  0  0  0  0  0  0
   -0.1876   21.9665  -25.2841 H   0  0  0  0  0  0  0  0  0  0  0  0
    0.4928   23.6290  -25.2841 H   0  0  0  0  0  0  0  0  0  0  0  0
   -1.4348   25.2604  -26.5119 H   0  0  0  0  0  0  0  0  0  0  0  0
    0.2080   25.0497  -27.2714 H   0  0  0  0  0  0  0  0  0  0  0  0
   -1.8339   23.4745  -30.0200 H   0  0  0  0  0  0  0  0  0  0  0  0
   -3.1020   25.6740  -30.6330 H   0  0  0  0  0  0  0  0  0  0  0  0
   -5.2116   25.6597  -31.9109 H   0  0  0  0  0  0  0  0  0  0  0  0
   -7.4550   24.6253  -32.2989 H   0  0  0  0  0  0  0  0  0  0  0  0
   -8.1986   22.6909  -30.9044 H   0  0  0  0  0  0  0  0  0  0  0  0
   -6.7067   21.7925  -29.1127 H   0  0  0  0  0  0  0  0  0  0  0  0
   -2.8750   22.9138  -26.1926 H   0  0  0  0  0  0  0  0  0  0  0  0
   -2.1918   21.5573  -27.2226 H   0  0  0  0  0  0  0  0  0  0  0  0
  1  2  1  0
  2  3  1  0
  2  4  1  0
  4  5  1  0
  5  6  2  0
  5  7  1  0
  7  8  1  0
  8  9  1  0
  9 10  2  0
 10 11  1  0
 11 12  2  0
 12 13  1  0
 13 14  2  0
 14 15  1  0
 15 16  2  0
 16 17  1  0
 17  2  1  0
 16  7  1  0
 14  9  1  0
  1 18  1  0
  1 19  1  0
  1 20  1  0
  3 21  1  0
  3 22  1  0
  3 23  1  0
  4 24  1  0
  4 25  1  0
  7 26  1  6
  8 27  1  0
 10 28  1  0
 11 29  1  0
 12 30  1  0
 13 31  1  0
 17 32  1  0
 17 33  1  0
M  END
>  <UniqueID>  (28) 
25

>  <SMILES>  (28) 
CC1(C)CC(=O)[C@@H]2Nc3ccccc3N=C2C1

>  <Energy>  (28) 
37.11711818240396

>  <Genealogy>  (28) 
CC1(C)CC(=O)[C@@H]2Nc3ccccc3N=C2C1 (chirality)
CC1(C)CC(=O)[C@@H]2Nc3ccccc3N=C2C1 (3D coordinates assigned)
CC1(C)CC(=O)[C@@H]2Nc3ccccc3N=C2C1 (nonaromatic ring conformer: 37.11711818240396 kcal/mol)

>  <smiles>  (28) 
CC1(C)CC(=O)C2Nc3ccccc3N=C2C1

>  <score_type>  (28) 
oracle

>  <origin>  (28) 
adg

>  <m_score__min__energy>  (28) 
-7.2000000000000002

>  <m_primary>  (28) 
energy

$$$$
28:0
     RDKit          3D

 40 43  0  0  0  0  0  0  0  0999 V2000
   -6.7180   25.6580  -29.3450 C   0  0  0  0  0  0  0  0  0  0  0  0
   -5.6850   25.8170  -30.4530 C   0  0  0  0  0  0  0  0  0  0  0  0
   -5.2520   24.5090  -30.9310 N   0  0  0  0  0  0  0  0  0  0  0  0
   -6.0560   23.5280  -31.3830 C   0  0  0  0  0  0  0  0  0  0  0  0
   -5.2750   22.4240  -31.6600 C   0  0  0  0  0  0  0  0  0  0  0  0
   -5.7770   21.0970  -32.0690 C   0  0  0  0  0  0  0  0  0  0  0  0
   -7.0200   20.6320  -31.6090 C   0  0  0  0  0  0  0  0  0  0  0  0
   -7.5060   19.3850  -32.0160 C   0  0  0  0  0  0  0  0  0  0  0  0
   -6.7590   18.5960  -32.9020 C   0  0  0  0  0  0  0  0  0  0  0  0
   -7.2120   17.3780  -33.3130 N   0  0  0  0  0  0  0  0  0  0  0  0
   -6.4850   16.6180  -34.1770 C   0  0  0  0  0  0  0  0  0  0  0  0
   -5.2590   17.0900  -34.6510 C   0  0  0  0  0  0  0  0  0  0  0  0
   -4.8030   18.3030  -34.2460 N   0  0  0  0  0  0  0  0  0  0  0  0
   -5.5200   19.0700  -33.3830 C   0  0  0  0  0  0  0  0  0  0  0  0
   -5.0380   20.3170  -32.9730 C   0  0  0  0  0  0  0  0  0  0  0  0
   -3.9760   22.8190  -31.3460 C   0  0  0  0  0  0  0  0  0  0  0  0
   -2.7260   22.0640  -31.5340 C   0  0  0  0  0  0  0  0  0  0  0  0
   -1.7930   21.8020  -30.5340 C   0  0  0  0  0  0  0  0  0  0  0  0
   -0.6500   21.1400  -30.9970 C   0  0  0  0  0  0  0  0  0  0  0  0
   -0.6810   20.8830  -32.3620 C   0  0  0  0  0  0  0  0  0  0  0  0
    0.4240   20.2760  -33.1590 C   0  0  0  0  0  0  0  0  0  0  0  0
   -2.1040   21.5080  -33.0000 S   0  0  0  0  0  0  0  0  0  0  0  0
   -3.9980   24.0900  -30.8960 N   0  0  0  0  0  0  0  0  0  0  0  0
   -6.2210   25.7345  -28.3666 H   0  0  0  0  0  0  0  0  0  0  0  0
   -7.4761   26.4500  -29.4341 H   0  0  0  0  0  0  0  0  0  0  0  0
   -7.2029   24.6747  -29.4341 H   0  0  0  0  0  0  0  0  0  0  0  0
   -6.1306   26.3791  -31.2869 H   0  0  0  0  0  0  0  0  0  0  0  0
   -4.8144   26.3598  -30.0561 H   0  0  0  0  0  0  0  0  0  0  0  0
   -7.1466   23.5948  -31.5096 H   0  0  0  0  0  0  0  0  0  0  0  0
   -7.6156   21.2529  -30.9237 H   0  0  0  0  0  0  0  0  0  0  0  0
   -8.4747   19.0233  -31.6407 H   0  0  0  0  0  0  0  0  0  0  0  0
   -8.1280   17.0100  -32.9680 H   0  0  0  0  0  0  0  0  0  0  0  0
   -6.8614   15.6363  -34.5005 H   0  0  0  0  0  0  0  0  0  0  0  0
   -4.6655   16.4817  -35.3494 H   0  0  0  0  0  0  0  0  0  0  0  0
   -4.0773   20.6879  -33.3597 H   0  0  0  0  0  0  0  0  0  0  0  0
   -1.9401   22.0877  -29.4820 H   0  0  0  0  0  0  0  0  0  0  0  0
    0.1884   20.8522  -30.3457 H   0  0  0  0  0  0  0  0  0  0  0  0
    1.1814   19.8600  -32.4783 H   0  0  0  0  0  0  0  0  0  0  0  0
    0.0204   19.4730  -33.7932 H   0  0  0  0  0  0  0  0  0  0  0  0
    0.8852   21.0474  -33.7932 H   0  0  0  0  0  0  0  0  0  0  0  0
  1  2  1  0
  2  3  1  0
  3  4  1  0
  4  5  2  0
  5  6  1  0
  6  7  2  0
  7  8  1  0
  8  9  2  0
  9 10  1  0
 10 11  2  0
 11 12  1  0
 12 13  2  0
 13 14  1  0
 14 15  2  0
  5 16  1  0
 16 17  1  0
 17 18  2  0
 18 19  1  0
 19 20  2  0
 20 21  1  0
 20 22  1  0
 16 23  2  0
 23  3  1  0
 15  6  1  0
 22 17  1  0
 14  9  1  0
  1 24  1  0
  1 25  1  0
  1 26  1  0
  2 27  1  0
  2 28  1  0
  4 29  1  0
  7 30  1  0
  8 31  1  0
 10 32  1  0
 11 33  1  0
 12 34  1  0
 15 35  1  0
 18 36  1  0
 19 37  1  0
 21 38  1  0
 21 39  1  0
 21 40  1  0
M  CHG  1  10   1
M  END
>  <UniqueID>  (29) 
26

>  <SMILES>  (29) 
CCn1cc(-c2ccc3[nH+]ccnc3c2)c(-c2ccc(C)s2)n1

>  <Energy>  (29) 
105.09778301762036

>  <Genealogy>  (29) 
CCn1cc(-c2ccc3[nH+]ccnc3c2)c(-c2ccc(C)s2)n1 (protonated)
CCn1cc(-c2ccc3[nH+]ccnc3c2)c(-c2ccc(C)s2)n1 (3D coordinates assigned)
CCn1cc(-c2ccc3[nH+]ccnc3c2)c(-c2ccc(C)s2)n1 (optimized conformer: 105.09778301762036 kcal/mol)

>  <smiles>  (29) 
CCn1cc(-c2ccc3nccnc3c2)c(-c2ccc(C)s2)n1

>  <score_type>  (29) 
oracle

>  <origin>  (29) 
adg

>  <m_score__min__energy>  (29) 
-7.6399999999999997

>  <m_primary>  (29) 
energy

$$$$
29:0
     RDKit          3D

 41 42  0  0  0  0  0  0  0  0999 V2000
   -0.6558   25.8825  -26.1923 H   0  0  0  0  0  0  0  0  0  0  0  0
   -0.6630   26.7900  -26.8140 C   0  0  0  0  0  0  0  0  0  0  0  0
    0.2304   27.3927  -26.5934 H   0  0  0  0  0  0  0  0  0  0  0  0
   -1.5659   27.3784  -26.5934 H   0  0  0  0  0  0  0  0  0  0  0  0
   -0.6600   26.4140  -28.2230 N   0  0  0  0  0  0  0  0  0  0  0  0
   -1.1450   25.2990  -28.6780 C   0  0  0  0  0  0  0  0  0  0  0  0
   -2.3630   25.2980  -29.2760 N   0  0  0  0  0  0  0  0  0  0  0  0
   -2.8950   24.1440  -29.7610 C   0  0  0  0  0  0  0  0  0  0  0  0
   -4.1880   24.1430  -30.4000 N   0  0  0  0  0  0  0  0  0  0  0  0
   -4.5990   22.9680  -31.1850 C   0  0  0  0  0  0  0  0  0  0  0  0
   -3.7903   22.7046  -31.8826 H   0  0  0  0  0  0  0  0  0  0  0  0
   -4.8013   22.1424  -30.4868 H   0  0  0  0  0  0  0  0  0  0  0  0
   -5.8770   23.2410  -31.9860 C   0  0  0  0  0  0  0  0  0  0  0  0
   -5.6546   23.9725  -32.7768 H   0  0  0  0  0  0  0  0  0  0  0  0
   -6.2238   22.2915  -32.4198 H   0  0  0  0  0  0  0  0  0  0  0  0
   -6.9900   23.7980  -31.0890 C   0  0  0  0  0  0  0  0  0  0  0  0
   -7.7795   24.2134  -31.7325 H   0  0  0  0  0  0  0  0  0  0  0  0
   -7.3502   22.9644  -30.4682 H   0  0  0  0  0  0  0  0  0  0  0  0
   -6.5130   24.9070  -30.1240 C   0  0  0  0  0  0  0  0  0  0  0  0
   -7.1566   25.7885  -30.2610 H   0  0  0  0  0  0  0  0  0  0  0  0
   -6.5768   24.4989  -29.1045 H   0  0  0  0  0  0  0  0  0  0  0  0
   -5.0570   25.3290  -30.3510 C   0  0  0  0  0  0  0  0  0  0  0  0
   -4.9808   25.8753  -31.3027 H   0  0  0  0  0  0  0  0  0  0  0  0
   -4.7364   25.9759  -29.5211 H   0  0  0  0  0  0  0  0  0  0  0  0
   -2.1900   22.9870  -29.6420 N   0  0  0  0  0  0  0  0  0  0  0  0
   -0.9690   22.9780  -29.0480 C   0  0  0  0  0  0  0  0  0  0  0  0
   -0.2870   21.8780  -28.9290 N   0  0  0  0  0  0  0  0  0  0  0  0
   -0.8260   20.5870  -28.4930 C   0  0  0  0  0  0  0  0  0  0  0  0
   -1.3443   20.1109  -29.3384 H   0  0  0  0  0  0  0  0  0  0  0  0
    0.0093   19.9606  -28.1467 H   0  0  0  0  0  0  0  0  0  0  0  0
   -1.8200   20.7610  -27.3280 C   0  0  0  0  0  0  0  0  0  0  0  0
   -2.6396   21.4013  -27.6861 H   0  0  0  0  0  0  0  0  0  0  0  0
   -2.3800   19.3960  -26.9030 C   0  0  0  0  0  0  0  0  0  0  0  0
   -2.4048   19.3356  -25.8049 H   0  0  0  0  0  0  0  0  0  0  0  0
   -3.3991   19.2781  -27.2998 H   0  0  0  0  0  0  0  0  0  0  0  0
   -1.7373   18.5963  -27.2998 H   0  0  0  0  0  0  0  0  0  0  0  0
   -1.1740   21.4590  -26.1220 C   0  0  0  0  0  0  0  0  0  0  0  0
   -1.5729   21.0280  -25.1919 H   0  0  0  0  0  0  0  0  0  0  0  0
   -0.0840   21.3144  -26.1552 H   0  0  0  0  0  0  0  0  0  0  0  0
   -1.4024   22.5345  -26.1552 H   0  0  0  0  0  0  0  0  0  0  0  0
   -0.4500   24.1350  -28.5660 N   0  0  0  0  0  0  0  0  0  0  0  0
  1  2  1  0
  2  3  1  0
  2  4  1  0
  2  5  1  0
  5  6  2  0
  6  7  1  0
  7  8  1  0
  8  9  1  0
  9 10  1  0
 10 11  1  0
 10 12  1  0
 10 13  1  0
 13 14  1  0
 13 15  1  0
 13 16  1  0
 16 17  1  0
 16 18  1  0
 16 19  1  0
 19 20  1  0
 19 21  1  0
 19 22  1  0
 22 23  1  0
 22 24  1  0
  8 25  2  0
 25 26  1  0
 26 27  2  0
 27 28  1  0
 28 29  1  0
 28 30  1  0
 28 31  1  0
 31 32  1  0
 31 33  1  0
 33 34  1  0
 33 35  1  0
 33 36  1  0
 31 37  1  0
 37 38  1  0
 37 39  1  0
 37 40  1  0
 26 41  1  0
 41  6  1  0
 22  9  1  0
M  CHG  2   7  -1  41  -1
M  END
>  <UniqueID>  (30) 
27

>  <SMILES>  (30) 
C/N=c1/[n-]c(N2CCCCC2)n/c(=N\CC(C)C)[n-]1

>  <Energy>  (30) 
34.44425624858896

>  <Genealogy>  (30) 
CN=c1[n-]c(N2CCCCC2)nc(=NCC(C)C)[n-]1 (protonated)
C/N=c1/[n-]c(N2CCCCC2)n/c(=N\CC(C)C)[n-]1 (cis-trans isomerization)
C/N=c1/[n-]c(N2CCCCC2)n/c(=N\CC(C)C)[n-]1 (3D coordinates assigned)
C/N=c1/[n-]c(N2CCCCC2)n/c(=N\CC(C)C)[n-]1 (nonaromatic ring conformer: 34.44425624858896 kcal/mol)

>  <smiles>  (30) 
CN=c1[nH]c(N2CCCCC2)nc(=NCC(C)C)[nH]1

>  <score_type>  (30) 
oracle

>  <origin>  (30) 
adg

>  <m_score__min__energy>  (30) 
-8.3900000000000006

>  <m_primary>  (30) 
energy

$$$$
30:0
     RDKit          3D

 51 54  0  0  0  0  0  0  0  0999 V2000
   -2.8720   21.3890  -32.2990 C   0  0  0  0  0  0  0  0  0  0  0  0
   -3.9210   22.5050  -32.2140 C   0  0  2  0  0  0  0  0  0  0  0  0
   -3.6330   23.4140  -31.0460 C   0  0  0  0  0  0  0  0  0  0  0  0
   -4.2210   24.5280  -30.9550 O   0  0  0  0  0  0  0  0  0  0  0  0
   -2.7700   22.9660  -29.9890 N   0  0  0  0  0  0  0  0  0  0  0  0
   -2.2750   23.8160  -28.9410 C   0  0  0  0  0  0  0  0  0  0  0  0
   -0.9620   24.3150  -28.9580 C   0  0  0  0  0  0  0  0  0  0  0  0
   -0.4980   25.1200  -27.9140 C   0  0  0  0  0  0  0  0  0  0  0  0
   -1.3360   25.4370  -26.8310 C   0  0  0  0  0  0  0  0  0  0  0  0
   -0.8590   26.2560  -25.7470 N   0  0  0  0  0  0  0  0  0  0  0  0
   -0.5960   25.6690  -24.4300 C   0  0  0  0  0  0  0  0  0  0  0  0
   -0.8310   26.7210  -23.3410 C   0  0  0  0  0  0  0  0  0  0  0  0
   -0.1010   27.9030  -23.6170 O   0  0  0  0  0  0  0  0  0  0  0  0
   -0.5850   28.4990  -24.8070 C   0  0  0  0  0  0  0  0  0  0  0  0
   -0.3200   27.5950  -26.0140 C   0  0  0  0  0  0  0  0  0  0  0  0
   -2.6400   24.9200  -26.8050 C   0  0  0  0  0  0  0  0  0  0  0  0
   -3.1020   24.1110  -27.8470 C   0  0  0  0  0  0  0  0  0  0  0  0
   -5.3400   21.9610  -32.1550 C   0  0  0  0  0  0  0  0  0  0  0  0
   -6.4480   22.8180  -32.0090 C   0  0  0  0  0  0  0  0  0  0  0  0
   -7.7470   22.3060  -31.9670 C   0  0  0  0  0  0  0  0  0  0  0  0
   -7.9640   20.9260  -32.0810 C   0  0  0  0  0  0  0  0  0  0  0  0
   -9.2660   20.4020  -32.0380 C   0  0  0  0  0  0  0  0  0  0  0  0
   -9.4720   19.0240  -32.1560 C   0  0  0  0  0  0  0  0  0  0  0  0
   -8.3840   18.1620  -32.3180 C   0  0  0  0  0  0  0  0  0  0  0  0
   -7.0830   18.6710  -32.3630 C   0  0  0  0  0  0  0  0  0  0  0  0
   -6.8620   20.0530  -32.2430 C   0  0  0  0  0  0  0  0  0  0  0  0
   -5.5600   20.5770  -32.2840 C   0  0  0  0  0  0  0  0  0  0  0  0
   -2.5819   21.0804  -31.2838 H   0  0  0  0  0  0  0  0  0  0  0  0
   -3.2954   20.5280  -32.8371 H   0  0  0  0  0  0  0  0  0  0  0  0
   -1.9865   21.7583  -32.8371 H   0  0  0  0  0  0  0  0  0  0  0  0
   -3.8499   23.0943  -33.1401 H   0  0  0  0  0  0  0  0  0  0  0  0
   -2.5660   21.9420  -29.9260 H   0  0  0  0  0  0  0  0  0  0  0  0
   -0.2951   24.0707  -29.7980 H   0  0  0  0  0  0  0  0  0  0  0  0
    0.5308   25.5084  -27.9401 H   0  0  0  0  0  0  0  0  0  0  0  0
   -1.2723   24.8168  -24.2676 H   0  0  0  0  0  0  0  0  0  0  0  0
    0.4479   25.3249  -24.3857 H   0  0  0  0  0  0  0  0  0  0  0  0
   -1.9035   26.9615  -23.2975 H   0  0  0  0  0  0  0  0  0  0  0  0
   -0.4904   26.3133  -22.3778 H   0  0  0  0  0  0  0  0  0  0  0  0
   -1.6681   28.6658  -24.7122 H   0  0  0  0  0  0  0  0  0  0  0  0
   -0.0626   29.4548  -24.9606 H   0  0  0  0  0  0  0  0  0  0  0  0
   -0.8101   28.0173  -26.9036 H   0  0  0  0  0  0  0  0  0  0  0  0
    0.7634   27.5266  -26.1914 H   0  0  0  0  0  0  0  0  0  0  0  0
   -3.3032   25.1529  -25.9589 H   0  0  0  0  0  0  0  0  0  0  0  0
   -4.1225   23.7023  -27.8089 H   0  0  0  0  0  0  0  0  0  0  0  0
   -6.2886   23.9033  -31.9271 H   0  0  0  0  0  0  0  0  0  0  0  0
   -8.6017   22.9875  -31.8442 H   0  0  0  0  0  0  0  0  0  0  0  0
  -10.1255   21.0767  -31.9113 H   0  0  0  0  0  0  0  0  0  0  0  0
  -10.4934   18.6173  -32.1212 H   0  0  0  0  0  0  0  0  0  0  0  0
   -8.5521   17.0789  -32.4105 H   0  0  0  0  0  0  0  0  0  0  0  0
   -6.2305   17.9880  -32.4926 H   0  0  0  0  0  0  0  0  0  0  0  0
   -4.7039   19.8994  -32.4182 H   0  0  0  0  0  0  0  0  0  0  0  0
  1  2  1  0
  2  3  1  0
  3  4  2  0
  3  5  1  0
  5  6  1  0
  6  7  2  0
  7  8  1  0
  8  9  2  0
  9 10  1  0
 10 11  1  0
 11 12  1  0
 12 13  1  0
 13 14  1  0
 14 15  1  0
  9 16  1  0
 16 17  2  0
  2 18  1  0
 18 19  2  0
 19 20  1  0
 20 21  2  0
 21 22  1  0
 22 23  2  0
 23 24  1  0
 24 25  2  0
 25 26  1  0
 26 27  2  0
 17  6  1  0
 27 18  1  0
 15 10  1  0
 26 21  1  0
  1 28  1  0
  1 29  1  0
  1 30  1  0
  2 31  1  6
  5 32  1  0
  7 33  1  0
  8 34  1  0
 11 35  1  0
 11 36  1  0
 12 37  1  0
 12 38  1  0
 14 39  1  0
 14 40  1  0
 15 41  1  0
 15 42  1  0
 16 43  1  0
 17 44  1  0
 19 45  1  0
 20 46  1  0
 22 47  1  0
 23 48  1  0
 24 49  1  0
 25 50  1  0
 27 51  1  0
M  END
>  <UniqueID>  (31) 
28

>  <SMILES>  (31) 
C[C@H](C(=O)Nc1ccc(N2CCOCC2)cc1)c1ccc2ccccc2c1

>  <Energy>  (31) 
64.87657308800763

>  <Genealogy>  (31) 
C[C@H](C(=O)Nc1ccc(N2CCOCC2)cc1)c1ccc2ccccc2c1 (chirality)
C[C@H](C(=O)Nc1ccc(N2CCOCC2)cc1)c1ccc2ccccc2c1 (3D coordinates assigned)
C[C@H](C(=O)Nc1ccc(N2CCOCC2)cc1)c1ccc2ccccc2c1 (nonaromatic ring conformer: 64.87657308800763 kcal/mol)

>  <smiles>  (31) 
CC(C(=O)Nc1ccc(N2CCOCC2)cc1)c1ccc2ccccc2c1

>  <score_type>  (31) 
oracle

>  <origin>  (31) 
adg

>  <m_score__min__energy>  (31) 
-9.6400000000000006

>  <m_primary>  (31) 
energy

$$$$
31:0
     RDKit          3D

 71 76  0  0  0  0  0  0  0  0999 V2000
   -4.9715   21.9950  -33.5785 H   0  0  0  0  0  0  0  0  0  0  0  0
   -4.0980   21.6230  -33.0230 C   0  0  0  0  0  0  0  0  0  0  0  0
   -3.5020   20.5160  -33.4970 C   0  0  0  0  0  0  0  0  0  0  0  0
   -2.7573   20.6537  -34.2948 H   0  0  0  0  0  0  0  0  0  0  0  0
   -3.7610   19.0870  -33.0330 C   0  0  1  0  0  0  0  0  0  0  0  0
   -3.2806   18.8436  -32.0738 H   0  0  0  0  0  0  0  0  0  0  0  0
   -5.2970   18.9230  -32.7650 C   0  0  2  0  0  0  0  0  0  0  0  0
   -5.6211   19.9480  -32.5321 H   0  0  0  0  0  0  0  0  0  0  0  0
   -5.6090   18.0600  -31.5210 C   0  0  0  0  0  0  0  0  0  0  0  0
   -5.0583   18.4639  -30.6587 H   0  0  0  0  0  0  0  0  0  0  0  0
   -5.3011   17.0254  -31.7329 H   0  0  0  0  0  0  0  0  0  0  0  0
   -7.1110   18.0590  -31.1980 C   0  0  0  0  0  0  0  0  0  0  0  0
   -7.3762   19.0400  -30.7770 H   0  0  0  0  0  0  0  0  0  0  0  0
   -7.2865   17.2363  -30.4892 H   0  0  0  0  0  0  0  0  0  0  0  0
   -8.0110   17.7960  -32.4260 C   0  0  0  0  0  0  0  0  0  0  0  0
   -8.6103   18.6982  -32.6179 H   0  0  0  0  0  0  0  0  0  0  0  0
   -8.6357   16.9225  -32.1878 H   0  0  0  0  0  0  0  0  0  0  0  0
   -7.2260   17.4550  -33.6990 C   0  0  0  0  0  0  0  0  0  0  0  0
   -7.9255   17.3883  -34.5453 H   0  0  0  0  0  0  0  0  0  0  0  0
   -6.7119   16.4947  -33.5455 H   0  0  0  0  0  0  0  0  0  0  0  0
   -6.1660   18.5350  -34.0050 C   0  0  2  0  0  0  0  0  0  0  0  0
   -6.7079   19.4650  -34.2319 H   0  0  0  0  0  0  0  0  0  0  0  0
   -5.3700   18.2100  -35.2840 C   0  0  0  0  0  0  0  0  0  0  0  0
   -5.1188   19.1614  -35.7756 H   0  0  0  0  0  0  0  0  0  0  0  0
   -6.0209   17.5546  -35.8813 H   0  0  0  0  0  0  0  0  0  0  0  0
   -4.0610   17.4240  -35.0800 C   0  0  2  0  0  0  0  0  0  0  0  0
   -3.5325   17.5054  -36.0413 H   0  0  0  0  0  0  0  0  0  0  0  0
   -4.2200   15.8800  -34.9530 C   0  0  0  0  0  0  0  0  0  0  0  0
   -5.2397   15.6250  -35.2774 H   0  0  0  0  0  0  0  0  0  0  0  0
   -3.4135   15.4611  -35.5727 H   0  0  0  0  0  0  0  0  0  0  0  0
   -4.0080   15.2560  -33.5480 C   0  0  1  0  0  0  0  0  0  0  0  0
   -4.9379   15.4502  -32.9935 H   0  0  0  0  0  0  0  0  0  0  0  0
   -3.7640   13.8000  -33.6610 N   0  0  0  0  0  0  0  0  0  0  0  0
   -4.0730   13.3470  -32.7690 H   0  0  0  0  0  0  0  0  0  0  0  0
   -4.5640   13.1790  -34.7240 C   0  0  0  0  0  0  0  0  0  0  0  0
   -5.3569   12.5635  -34.2741 H   0  0  0  0  0  0  0  0  0  0  0  0
   -5.0180   13.9636  -35.3472 H   0  0  0  0  0  0  0  0  0  0  0  0
   -3.9165   12.5446  -35.3472 H   0  0  0  0  0  0  0  0  0  0  0  0
   -2.8530   15.9110  -32.7340 C   0  0  0  0  0  0  0  0  0  0  0  0
   -3.2733   16.2937  -31.7923 H   0  0  0  0  0  0  0  0  0  0  0  0
   -2.0964   15.1262  -32.5869 H   0  0  0  0  0  0  0  0  0  0  0  0
   -2.1420   17.0630  -33.4380 C   0  0  0  0  0  0  0  0  0  0  0  0
   -1.5079   17.5816  -32.7038 H   0  0  0  0  0  0  0  0  0  0  0  0
   -1.5563   16.6274  -34.2609 H   0  0  0  0  0  0  0  0  0  0  0  0
   -3.1050   18.0890  -34.0610 C   0  0  2  0  0  0  0  0  0  0  0  0
   -2.4939   18.7822  -34.6577 H   0  0  0  0  0  0  0  0  0  0  0  0
   -3.6920   22.3860  -31.8290 C   0  0  0  0  0  0  0  0  0  0  0  0
   -2.7090   21.9380  -31.0070 N   0  0  0  0  0  0  0  0  0  0  0  0
   -2.3630   22.6160  -29.8840 C   0  0  0  0  0  0  0  0  0  0  0  0
   -1.5546   22.2370  -29.2414 H   0  0  0  0  0  0  0  0  0  0  0  0
   -3.0340   23.8000  -29.5400 C   0  0  0  0  0  0  0  0  0  0  0  0
   -2.6690   24.5640  -28.3190 C   0  0  0  0  0  0  0  0  0  0  0  0
   -3.5040   24.5400  -27.1870 C   0  0  0  0  0  0  0  0  0  0  0  0
   -4.4331   23.9514  -27.2080 H   0  0  0  0  0  0  0  0  0  0  0  0
   -3.1650   25.2560  -26.0370 C   0  0  0  0  0  0  0  0  0  0  0  0
   -3.8276   25.2282  -25.1594 H   0  0  0  0  0  0  0  0  0  0  0  0
   -1.9840   26.0100  -25.9960 C   0  0  0  0  0  0  0  0  0  0  0  0
   -1.6350   26.7320  -24.8430 C   0  0  0  0  0  0  0  0  0  0  0  0
   -2.2921   26.7101  -23.9611 H   0  0  0  0  0  0  0  0  0  0  0  0
   -0.4540   27.4780  -24.8150 C   0  0  0  0  0  0  0  0  0  0  0  0
   -0.1835   28.0417  -23.9100 H   0  0  0  0  0  0  0  0  0  0  0  0
    0.3850   27.5110  -25.9320 C   0  0  0  0  0  0  0  0  0  0  0  0
    1.3136   28.1000  -25.9035 H   0  0  0  0  0  0  0  0  0  0  0  0
    0.0470   26.7970  -27.0860 C   0  0  0  0  0  0  0  0  0  0  0  0
    0.7094   26.8274  -27.9637 H   0  0  0  0  0  0  0  0  0  0  0  0
   -1.1350   26.0420  -27.1270 C   0  0  0  0  0  0  0  0  0  0  0  0
   -1.4840   25.3220  -28.2790 C   0  0  0  0  0  0  0  0  0  0  0  0
   -0.8252   25.3501  -29.1595 H   0  0  0  0  0  0  0  0  0  0  0  0
   -4.0650   24.2290  -30.3890 C   0  0  0  0  0  0  0  0  0  0  0  0
   -4.6249   25.1456  -30.1518 H   0  0  0  0  0  0  0  0  0  0  0  0
   -4.3740   23.5160  -31.5030 N   0  0  0  0  0  0  0  0  0  0  0  0
  1  2  1  0
  2  3  2  0
  3  4  1  0
  3  5  1  0
  5  6  1  1
  5  7  1  0
  7  8  1  1
  7  9  1  0
  9 10  1  0
  9 11  1  0
  9 12  1  0
 12 13  1  0
 12 14  1  0
 12 15  1  0
 15 16  1  0
 15 17  1  0
 15 18  1  0
 18 19  1  0
 18 20  1  0
 18 21  1  0
 21 22  1  6
 21 23  1  0
 23 24  1  0
 23 25  1  0
 23 26  1  0
 26 27  1  6
 26 28  1  0
 28 29  1  0
 28 30  1  0
 28 31  1  0
 31 32  1  1
 31 33  1  0
 33 34  1  0
 33 35  1  0
 35 36  1  0
 35 37  1  0
 35 38  1  0
 31 39  1  0
 39 40  1  0
 39 41  1  0
 39 42  1  0
 42 43  1  0
 42 44  1  0
 42 45  1  0
 45 46  1  6
  2 47  1  0
 47 48  2  0
 48 49  1  0
 49 50  1  0
 49 51  2  0
 51 52  1  0
 52 53  2  0
 53 54  1  0
 53 55  1  0
 55 56  1  0
 55 57  2  0
 57 58  1  0
 58 59  1  0
 58 60  2  0
 60 61  1  0
 60 62  1  0
 62 63  1  0
 62 64  2  0
 64 65  1  0
 64 66  1  0
 66 67  2  0
 67 68  1  0
 51 69  1  0
 69 70  1  0
 69 71  2  0
 45  5  1  0
 71 47  1  0
 21  7  1  0
 45 26  1  0
 67 52  1  0
 66 57  1  0
M  END
>  <UniqueID>  (32) 
29

>  <SMILES>  (32) 
CN[C@H]1CC[C@H]2C(CC3CCCCC3C2/C=C\c2ncc(-c3ccc4ccccc4c3)cn2)C1

>  <Energy>  (32) 
122.54520418441771

>  <Genealogy>  (32) 
CN[C@H]1CC[C@H]2C(CC3CCCCC3C2C=Cc2ncc(-c3ccc4ccccc4c3)cn2)C1 (chirality)
CN[C@H]1CC[C@H]2C(CC3CCCCC3C2/C=C\c2ncc(-c3ccc4ccccc4c3)cn2)C1 (cis-trans isomerization)
CN[C@H]1CC[C@H]2C(CC3CCCCC3C2/C=C\c2ncc(-c3ccc4ccccc4c3)cn2)C1 (3D coordinates assigned)
CN[C@H]1CC[C@H]2C(CC3CCCCC3C2/C=C\c2ncc(-c3ccc4ccccc4c3)cn2)C1 (nonaromatic ring conformer: 122.54520418441771 kcal/mol)

>  <smiles>  (32) 
CNC1CCC2C(C1)CC1CCCCC1C2C=Cc1ncc(-c2ccc3ccccc3c2)cn1

>  <score_type>  (32) 
oracle

>  <origin>  (32) 
adg

>  <m_score__min__energy>  (32) 
-10.44

>  <m_primary>  (32) 
energy

$$$$
32:0
     RDKit          3D

 44 47  0  0  0  0  0  0  0  0999 V2000
   -1.0660   25.2000  -28.2820 C   0  0  0  0  0  0  0  0  0  0  0  0
   -2.0230   25.2920  -29.3330 O   0  0  0  0  0  0  0  0  0  0  0  0
   -3.2210   24.5650  -29.3760 C   0  0  0  0  0  0  0  0  0  0  0  0
   -3.4000   23.5210  -28.4610 C   0  0  0  0  0  0  0  0  0  0  0  0
   -4.5680   22.7540  -28.4790 C   0  0  0  0  0  0  0  0  0  0  0  0
   -5.5690   23.0250  -29.4140 C   0  0  0  0  0  0  0  0  0  0  0  0
   -5.4170   24.0790  -30.3280 C   0  0  0  0  0  0  0  0  0  0  0  0
   -6.4520   24.3220  -31.3900 C   0  0  0  0  0  0  0  0  0  0  0  0
   -6.4130   23.2370  -32.3710 N   0  0  0  0  0  0  0  0  0  0  0  0
   -7.3090   22.1180  -32.2910 C   0  0  0  0  0  0  0  0  0  0  0  0
   -8.6650   22.3460  -32.0020 C   0  0  0  0  0  0  0  0  0  0  0  0
   -9.5510   21.2780  -31.8600 C   0  0  0  0  0  0  0  0  0  0  0  0
   -9.0950   19.9700  -32.0020 C   0  0  0  0  0  0  0  0  0  0  0  0
   -7.7520   19.7240  -32.2900 C   0  0  0  0  0  0  0  0  0  0  0  0
   -6.8410   20.7870  -32.4430 C   0  0  0  0  0  0  0  0  0  0  0  0
   -5.4360   20.4880  -32.8190 C   0  0  0  0  0  0  0  0  0  0  0  0
   -4.9500   19.2600  -33.2550 C   0  0  0  0  0  0  0  0  0  0  0  0
   -3.6500   19.4320  -33.5320 N   0  0  0  0  0  0  0  0  0  0  0  0
   -2.7300   18.5450  -33.9890 C   0  0  0  0  0  0  0  0  0  0  0  0
   -1.4210   19.0020  -34.2040 C   0  0  0  0  0  0  0  0  0  0  0  0
   -1.1060   20.3500  -33.9430 C   0  0  0  0  0  0  0  0  0  0  0  0
   -2.0930   21.2310  -33.4710 C   0  0  0  0  0  0  0  0  0  0  0  0
   -3.3750   20.7200  -33.2760 C   0  0  0  0  0  0  0  0  0  0  0  0
   -4.4430   21.4120  -32.8400 N   0  0  0  0  0  0  0  0  0  0  0  0
   -4.2410   24.8450  -30.3090 C   0  0  0  0  0  0  0  0  0  0  0  0
   -1.5814   25.2495  -27.3115 H   0  0  0  0  0  0  0  0  0  0  0  0
   -0.5247   24.2457  -28.3614 H   0  0  0  0  0  0  0  0  0  0  0  0
   -0.3528   26.0337  -28.3614 H   0  0  0  0  0  0  0  0  0  0  0  0
   -2.6151   23.3026  -27.7219 H   0  0  0  0  0  0  0  0  0  0  0  0
   -4.6990   21.9357  -27.7556 H   0  0  0  0  0  0  0  0  0  0  0  0
   -6.4806   22.4097  -29.4342 H   0  0  0  0  0  0  0  0  0  0  0  0
   -7.4491   24.3614  -30.9272 H   0  0  0  0  0  0  0  0  0  0  0  0
   -6.2416   25.2772  -31.8933 H   0  0  0  0  0  0  0  0  0  0  0  0
   -5.9090   23.4150  -33.2680 H   0  0  0  0  0  0  0  0  0  0  0  0
   -9.0315   23.3767  -31.8866 H   0  0  0  0  0  0  0  0  0  0  0  0
  -10.6108   21.4692  -31.6357 H   0  0  0  0  0  0  0  0  0  0  0  0
   -9.7948   19.1291  -31.8869 H   0  0  0  0  0  0  0  0  0  0  0  0
   -7.4006   18.6873  -32.3988 H   0  0  0  0  0  0  0  0  0  0  0  0
   -5.5230   18.3262  -33.3536 H   0  0  0  0  0  0  0  0  0  0  0  0
   -3.0029   17.4976  -34.1852 H   0  0  0  0  0  0  0  0  0  0  0  0
   -0.6469   18.3132  -34.5734 H   0  0  0  0  0  0  0  0  0  0  0  0
   -0.0817   20.7146  -34.1097 H   0  0  0  0  0  0  0  0  0  0  0  0
   -1.8624   22.2862  -33.2628 H   0  0  0  0  0  0  0  0  0  0  0  0
   -4.1140   25.6691  -31.0265 H   0  0  0  0  0  0  0  0  0  0  0  0
  1  2  1  0
  2  3  1  0
  3  4  2  0
  4  5  1  0
  5  6  2  0
  6  7  1  0
  7  8  1  0
  8  9  1  0
  9 10  1  0
 10 11  2  0
 11 12  1  0
 12 13  2  0
 13 14  1  0
 14 15  2  0
 15 16  1  0
 16 17  2  0
 17 18  1  0
 18 19  1  0
 19 20  2  0
 20 21  1  0
 21 22  2  0
 22 23  1  0
 23 24  2  0
  7 25  2  0
 25  3  1  0
 15 10  1  0
 24 16  1  0
 23 18  1  0
  1 26  1  0
  1 27  1  0
  1 28  1  0
  4 29  1  0
  5 30  1  0
  6 31  1  0
  8 32  1  0
  8 33  1  0
  9 34  1  0
 11 35  1  0
 12 36  1  0
 13 37  1  0
 14 38  1  0
 17 39  1  0
 19 40  1  0
 20 41  1  0
 21 42  1  0
 22 43  1  0
 25 44  1  0
M  END
>  <UniqueID>  (33) 
30

>  <SMILES>  (33) 
COc1cccc(CNc2ccccc2-c2cn3ccccc3n2)c1

>  <Energy>  (33) 
85.73908555781702

>  <Genealogy>  (33) 
COc1cccc(CNc2ccccc2-c2cn3ccccc3n2)c1 (3D coordinates assigned)
COc1cccc(CNc2ccccc2-c2cn3ccccc3n2)c1 (optimized conformer: 85.73908555781702 kcal/mol)

>  <smiles>  (33) 
COc1cccc(CNc2ccccc2-c2cn3ccccc3n2)c1

>  <score_type>  (33) 
oracle

>  <origin>  (33) 
adg

>  <m_score__min__energy>  (33) 
-9.1999999999999993

>  <m_primary>  (33) 
energy

$$$$
33:0
     RDKit          3D

 54 56  0  0  0  0  0  0  0  0999 V2000
   -2.6660   14.8470  -36.7350 C   0  0  0  0  0  0  0  0  0  0  0  0
   -3.3990   14.8730  -35.3970 C   0  0  0  0  0  0  0  0  0  0  0  0
   -3.2160   16.1740  -34.7360 N   0  0  0  0  0  0  0  0  0  0  0  0
   -1.9350   16.8900  -34.8440 C   0  0  0  0  0  0  0  0  0  0  0  0
   -1.8870   18.0410  -33.8450 C   0  0  0  0  0  0  0  0  0  0  0  0
   -4.3040   16.7660  -34.0000 C   0  0  0  0  0  0  0  0  0  0  0  0
   -4.6700   16.2560  -32.7430 C   0  0  0  0  0  0  0  0  0  0  0  0
   -5.7410   16.8130  -32.0390 C   0  0  0  0  0  0  0  0  0  0  0  0
   -6.4610   17.8900  -32.5790 C   0  0  0  0  0  0  0  0  0  0  0  0
   -7.6380   18.4720  -31.8420 C   0  0  0  0  0  0  0  0  0  0  0  0
   -8.8170   18.5480  -32.7180 N   0  0  0  0  0  0  0  0  0  0  0  0
   -9.5230   19.8370  -32.6180 C   0  0  0  0  0  0  0  0  0  0  0  0
   -8.7270   20.8600  -31.8610 C   0  0  0  0  0  0  0  0  0  0  0  0
   -9.0440   21.3870  -30.6130 C   0  0  0  0  0  0  0  0  0  0  0  0
   -8.1430   22.2870  -30.1360 N   0  0  0  0  0  0  0  0  0  0  0  0
   -7.1050   22.4890  -30.9850 C   0  0  0  0  0  0  0  0  0  0  0  0
   -6.0160   23.4070  -30.7350 N   0  0  0  0  0  0  0  0  0  0  0  0
   -4.6390   22.8830  -30.7200 C   0  0  0  0  0  0  0  0  0  0  0  0
   -3.6410   23.9060  -30.1670 C   0  0  0  0  0  0  0  0  0  0  0  0
   -3.8600   25.1800  -30.7310 O   0  0  0  0  0  0  0  0  0  0  0  0
   -5.0960   25.6760  -30.2670 C   0  0  0  0  0  0  0  0  0  0  0  0
   -6.2630   24.8540  -30.8280 C   0  0  0  0  0  0  0  0  0  0  0  0
   -7.2740   21.5400  -32.3740 S   0  0  0  0  0  0  0  0  0  0  0  0
   -6.0940   18.4020  -33.8330 C   0  0  0  0  0  0  0  0  0  0  0  0
   -5.0230   17.8450  -34.5380 C   0  0  0  0  0  0  0  0  0  0  0  0
   -1.5810   14.8085  -36.5580 H   0  0  0  0  0  0  0  0  0  0  0  0
   -2.9761   13.9593  -37.3058 H   0  0  0  0  0  0  0  0  0  0  0  0
   -2.9124   15.7545  -37.3058 H   0  0  0  0  0  0  0  0  0  0  0  0
   -4.4720   14.7015  -35.5684 H   0  0  0  0  0  0  0  0  0  0  0  0
   -2.9881   14.0838  -34.7502 H   0  0  0  0  0  0  0  0  0  0  0  0
   -1.1106   16.1927  -34.6342 H   0  0  0  0  0  0  0  0  0  0  0  0
   -1.8358   17.2949  -35.8619 H   0  0  0  0  0  0  0  0  0  0  0  0
   -1.9038   17.6389  -32.8213 H   0  0  0  0  0  0  0  0  0  0  0  0
   -0.9639   18.6198  -33.9965 H   0  0  0  0  0  0  0  0  0  0  0  0
   -2.7587   18.6946  -33.9965 H   0  0  0  0  0  0  0  0  0  0  0  0
   -4.1103   15.4135  -32.3106 H   0  0  0  0  0  0  0  0  0  0  0  0
   -6.0212   16.4052  -31.0565 H   0  0  0  0  0  0  0  0  0  0  0  0
   -7.8723   17.8350  -30.9764 H   0  0  0  0  0  0  0  0  0  0  0  0
   -7.3789   19.4884  -31.5105 H   0  0  0  0  0  0  0  0  0  0  0  0
   -8.5080   18.4040  -33.7080 H   0  0  0  0  0  0  0  0  0  0  0  0
   -9.7142   20.2163  -33.6327 H   0  0  0  0  0  0  0  0  0  0  0  0
  -10.4625   19.6670  -32.0717 H   0  0  0  0  0  0  0  0  0  0  0  0
   -9.9490   21.0993  -30.0578 H   0  0  0  0  0  0  0  0  0  0  0  0
   -8.2700   22.7680  -29.2180 H   0  0  0  0  0  0  0  0  0  0  0  0
   -4.6090   21.9815  -30.0904 H   0  0  0  0  0  0  0  0  0  0  0  0
   -4.3514   22.6542  -31.7568 H   0  0  0  0  0  0  0  0  0  0  0  0
   -3.7594   23.9705  -29.0753 H   0  0  0  0  0  0  0  0  0  0  0  0
   -2.6232   23.5782  -30.4250 H   0  0  0  0  0  0  0  0  0  0  0  0
   -5.1149   25.6243  -29.1684 H   0  0  0  0  0  0  0  0  0  0  0  0
   -5.2055   26.7169  -30.6055 H   0  0  0  0  0  0  0  0  0  0  0  0
   -7.1729   25.0957  -30.2590 H   0  0  0  0  0  0  0  0  0  0  0  0
   -6.3773   25.1103  -31.8916 H   0  0  0  0  0  0  0  0  0  0  0  0
   -6.6522   19.2464  -34.2636 H   0  0  0  0  0  0  0  0  0  0  0  0
   -4.7422   18.2544  -35.5196 H   0  0  0  0  0  0  0  0  0  0  0  0
  1  2  1  0
  2  3  1  0
  3  4  1  0
  4  5  1  0
  3  6  1  0
  6  7  2  0
  7  8  1  0
  8  9  2  0
  9 10  1  0
 10 11  1  0
 11 12  1  0
 12 13  1  0
 13 14  2  0
 14 15  1  0
 15 16  2  0
 16 17  1  0
 17 18  1  0
 18 19  1  0
 19 20  1  0
 20 21  1  0
 21 22  1  0
 16 23  1  0
  9 24  1  0
 24 25  2  0
 25  6  1  0
 23 13  1  0
 22 17  1  0
  1 26  1  0
  1 27  1  0
  1 28  1  0
  2 29  1  0
  2 30  1  0
  4 31  1  0
  4 32  1  0
  5 33  1  0
  5 34  1  0
  5 35  1  0
  7 36  1  0
  8 37  1  0
 10 38  1  0
 10 39  1  0
 11 40  1  0
 12 41  1  0
 12 42  1  0
 14 43  1  0
 15 44  1  0
 18 45  1  0
 18 46  1  0
 19 47  1  0
 19 48  1  0
 21 49  1  0
 21 50  1  0
 22 51  1  0
 22 52  1  0
 24 53  1  0
 25 54  1  0
M  CHG  1  15   1
M  END
>  <UniqueID>  (34) 
31

>  <SMILES>  (34) 
CCN(CC)c1ccc(CNCc2c[nH+]c(N3CCOCC3)s2)cc1

>  <Energy>  (34) 
83.18107632816567

>  <Genealogy>  (34) 
CCN(CC)c1ccc(CNCc2c[nH+]c(N3CCOCC3)s2)cc1 (protonated)
CCN(CC)c1ccc(CNCc2c[nH+]c(N3CCOCC3)s2)cc1 (3D coordinates assigned)
CCN(CC)c1ccc(CNCc2c[nH+]c(N3CCOCC3)s2)cc1 (nonaromatic ring conformer: 83.18107632816567 kcal/mol)

>  <smiles>  (34) 
CCN(CC)c1ccc(CNCc2cnc(N3CCOCC3)s2)cc1

>  <score_type>  (34) 
oracle

>  <origin>  (34) 
adg

>  <m_score__min__energy>  (34) 
-7.6799999999999997

>  <m_primary>  (34) 
energy

$$$$
34:0
     RDKit          3D

 50 51  0  0  0  0  0  0  0  0999 V2000
   -6.5442   24.9594  -29.2660 H   0  0  0  0  0  0  0  0  0  0  0  0
   -6.0310   24.5340  -30.1410 C   0  0  0  0  0  0  0  0  0  0  0  0
   -4.5550   24.4180  -30.0790 C   0  0  0  0  0  0  0  0  0  0  0  0
   -3.8600   25.2960  -30.6550 O   0  0  0  0  0  0  0  0  0  0  0  0
   -3.8730   23.3280  -29.3440 C   0  0  0  0  0  0  0  0  0  0  0  0
   -3.2450   23.5950  -28.1180 C   0  0  0  0  0  0  0  0  0  0  0  0
   -3.3409   24.5899  -27.6586 H   0  0  0  0  0  0  0  0  0  0  0  0
   -2.4980   22.6020  -27.4780 C   0  0  0  0  0  0  0  0  0  0  0  0
   -1.9949   22.8248  -26.5255 H   0  0  0  0  0  0  0  0  0  0  0  0
   -2.3860   21.3230  -28.0430 C   0  0  0  0  0  0  0  0  0  0  0  0
   -1.5670   20.3230  -27.4200 N   0  0  0  0  0  0  0  0  0  0  0  0
   -2.0230   19.6560  -26.1970 C   0  0  0  0  0  0  0  0  0  0  0  0
   -2.1704   20.4111  -25.4108 H   0  0  0  0  0  0  0  0  0  0  0  0
   -1.2592   18.9240  -25.8958 H   0  0  0  0  0  0  0  0  0  0  0  0
   -3.3370   18.9140  -26.4260 C   0  0  0  0  0  0  0  0  0  0  0  0
   -3.7882   18.6592  -25.4557 H   0  0  0  0  0  0  0  0  0  0  0  0
   -4.0265   19.5561  -26.9937 H   0  0  0  0  0  0  0  0  0  0  0  0
   -3.1433   17.9919  -26.9937 H   0  0  0  0  0  0  0  0  0  0  0  0
   -0.0580   19.8720  -28.1570 S   0  0  0  0  0  0  0  0  0  0  0  0
   -0.1070   20.1300  -29.6370 O   0  0  0  0  0  0  0  0  0  0  0  0
    1.0660   20.6780  -27.5660 O   0  0  0  0  0  0  0  0  0  0  0  0
    0.2430   18.1440  -27.8620 C   0  0  0  0  0  0  0  0  0  0  0  0
    0.2755   17.9572  -26.7785 H   0  0  0  0  0  0  0  0  0  0  0  0
   -0.5650   17.5489  -28.3125 H   0  0  0  0  0  0  0  0  0  0  0  0
    1.2046   17.8572  -28.3125 H   0  0  0  0  0  0  0  0  0  0  0  0
   -3.0490   21.0430  -29.2460 C   0  0  0  0  0  0  0  0  0  0  0  0
   -2.9806   20.0378  -29.6874 H   0  0  0  0  0  0  0  0  0  0  0  0
   -3.7960   22.0340  -29.8870 C   0  0  0  0  0  0  0  0  0  0  0  0
   -4.3268   21.8004  -30.8217 H   0  0  0  0  0  0  0  0  0  0  0  0
   -6.7910   24.1590  -31.1850 C   0  0  0  0  0  0  0  0  0  0  0  0
   -7.2131   24.9502  -31.8221 H   0  0  0  0  0  0  0  0  0  0  0  0
   -7.0980   22.7550  -31.5350 C   0  0  0  0  0  0  0  0  0  0  0  0
   -8.3100   22.1740  -31.1280 C   0  0  0  0  0  0  0  0  0  0  0  0
   -9.0090   22.7488  -30.5027 H   0  0  0  0  0  0  0  0  0  0  0  0
   -8.6330   20.8720  -31.5120 C   0  0  0  0  0  0  0  0  0  0  0  0
   -9.5914   20.4324  -31.1986 H   0  0  0  0  0  0  0  0  0  0  0  0
   -7.7490   20.1230  -32.2910 C   0  0  0  0  0  0  0  0  0  0  0  0
   -8.1340   18.8270  -32.6700 O   0  0  0  0  0  0  0  0  0  0  0  0
   -7.2540   17.7100  -32.7280 C   0  0  0  0  0  0  0  0  0  0  0  0
   -7.0011   17.3890  -31.7067 H   0  0  0  0  0  0  0  0  0  0  0  0
   -7.7459   16.8830  -33.2611 H   0  0  0  0  0  0  0  0  0  0  0  0
   -6.3349   17.9946  -33.2611 H   0  0  0  0  0  0  0  0  0  0  0  0
   -6.5150   20.6860  -32.6690 C   0  0  0  0  0  0  0  0  0  0  0  0
   -5.8052   20.0933  -33.2647 H   0  0  0  0  0  0  0  0  0  0  0  0
   -6.1810   22.0020  -32.2910 C   0  0  0  0  0  0  0  0  0  0  0  0
   -4.9690   22.6000  -32.6720 O   0  0  0  0  0  0  0  0  0  0  0  0
   -3.8360   21.8900  -33.1620 C   0  0  0  0  0  0  0  0  0  0  0  0
   -3.2419   21.5177  -32.3144 H   0  0  0  0  0  0  0  0  0  0  0  0
   -4.1724   21.0409  -33.7750 H   0  0  0  0  0  0  0  0  0  0  0  0
   -3.2185   22.5630  -33.7750 H   0  0  0  0  0  0  0  0  0  0  0  0
  1  2  1  0
  2  3  1  0
  3  4  2  0
  3  5  1  0
  5  6  2  0
  6  7  1  0
  6  8  1  0
  8  9  1  0
  8 10  2  0
 10 11  1  0
 11 12  1  0
 12 13  1  0
 12 14  1  0
 12 15  1  0
 15 16  1  0
 15 17  1  0
 15 18  1  0
 11 19  1  0
 19 20  2  0
 19 21  2  0
 19 22  1  0
 22 23  1  0
 22 24  1  0
 22 25  1  0
 10 26  1  0
 26 27  1  0
 26 28  2  0
 28 29  1  0
  2 30  2  0
 30 31  1  0
 30 32  1  0
 32 33  2  0
 33 34  1  0
 33 35  1  0
 35 36  1  0
 35 37  2  0
 37 38  1  0
 38 39  1  0
 39 40  1  0
 39 41  1  0
 39 42  1  0
 37 43  1  0
 43 44  1  0
 43 45  2  0
 45 46  1  0
 46 47  1  0
 47 48  1  0
 47 49  1  0
 47 50  1  0
 28  5  1  0
 45 32  1  0
M  END
>  <UniqueID>  (35) 
32

>  <SMILES>  (35) 
CCN(c1ccc(C(=O)/C=C\c2ccc(OC)cc2OC)cc1)S(C)(=O)=O

>  <Energy>  (35) 
56.59746770965729

>  <Genealogy>  (35) 
CCN(c1ccc(C(=O)/C=C\c2ccc(OC)cc2OC)cc1)S(C)(=O)=O (cis-trans isomerization)
CCN(c1ccc(C(=O)/C=C\c2ccc(OC)cc2OC)cc1)S(C)(=O)=O (3D coordinates assigned)
CCN(c1ccc(C(=O)/C=C\c2ccc(OC)cc2OC)cc1)S(C)(=O)=O (optimized conformer: 56.59746770965729 kcal/mol)

>  <smiles>  (35) 
CCN(c1ccc(C(=O)C=Cc2ccc(OC)cc2OC)cc1)S(C)(=O)=O

>  <score_type>  (35) 
oracle

>  <origin>  (35) 
adg

>  <m_score__min__energy>  (35) 
-9.3000000000000007

>  <m_primary>  (35) 
energy

$$$$
35:0
     RDKit          3D

 48 50  0  0  0  0  0  0  0  0999 V2000
   -2.3760   22.0010  -29.4190 C   0  0  0  0  0  0  0  0  0  0  0  0
   -2.4990   22.7970  -30.7190 C   0  0  0  0  0  0  0  0  0  0  0  0
   -3.9110   23.2890  -30.9300 C   0  0  0  0  0  0  0  0  0  0  0  0
   -4.2030   24.5460  -30.4970 N   0  0  0  0  0  0  0  0  0  0  0  0
   -5.4330   25.0950  -30.6620 C   0  0  0  0  0  0  0  0  0  0  0  0
   -5.7260   26.4600  -30.1300 C   0  0  0  0  0  0  0  0  0  0  0  0
   -6.4130   24.3850  -31.2740 N   0  0  0  0  0  0  0  0  0  0  0  0
   -6.1920   23.1260  -31.7390 C   0  0  0  0  0  0  0  0  0  0  0  0
   -4.9230   22.5230  -31.5710 C   0  0  0  0  0  0  0  0  0  0  0  0
   -4.6890   21.1170  -32.0980 C   0  0  0  0  0  0  0  0  0  0  0  0
   -5.5820   20.0940  -31.3760 C   0  0  0  0  0  0  0  0  0  0  0  0
   -6.9250   19.9990  -31.9980 N   0  0  0  0  0  0  0  0  0  0  0  0
   -6.7950   19.8080  -33.4640 C   0  0  0  0  0  0  0  0  0  0  0  0
   -6.1730   18.4610  -33.7410 C   0  0  0  0  0  0  0  0  0  0  0  0
   -5.2980   18.3340  -34.8360 C   0  0  0  0  0  0  0  0  0  0  0  0
   -4.7240   17.0980  -35.1480 C   0  0  0  0  0  0  0  0  0  0  0  0
   -5.0270   15.9740  -34.3760 C   0  0  0  0  0  0  0  0  0  0  0  0
   -5.8990   16.0820  -33.2850 C   0  0  0  0  0  0  0  0  0  0  0  0
   -6.4790   17.3250  -32.9510 C   0  0  0  0  0  0  0  0  0  0  0  0
   -7.3500   17.4620  -31.8520 O   0  0  0  0  0  0  0  0  0  0  0  0
   -8.7200   17.8560  -31.9360 C   0  0  0  0  0  0  0  0  0  0  0  0
   -7.7790   21.1750  -31.6890 C   0  0  0  0  0  0  0  0  0  0  0  0
   -7.3140   22.4240  -32.4560 C   0  0  0  0  0  0  0  0  0  0  0  0
   -2.4811   22.6814  -28.5611 H   0  0  0  0  0  0  0  0  0  0  0  0
   -3.1668   21.2374  -29.3804 H   0  0  0  0  0  0  0  0  0  0  0  0
   -1.3916   21.5117  -29.3804 H   0  0  0  0  0  0  0  0  0  0  0  0
   -1.8210   23.6621  -30.6749 H   0  0  0  0  0  0  0  0  0  0  0  0
   -2.2329   22.1361  -31.5571 H   0  0  0  0  0  0  0  0  0  0  0  0
   -5.7204   26.4339  -29.0303 H   0  0  0  0  0  0  0  0  0  0  0  0
   -4.9585   27.1640  -30.4840 H   0  0  0  0  0  0  0  0  0  0  0  0
   -6.7148   26.7870  -30.4840 H   0  0  0  0  0  0  0  0  0  0  0  0
   -4.9167   21.0951  -33.1740 H   0  0  0  0  0  0  0  0  0  0  0  0
   -3.6376   20.8489  -31.9172 H   0  0  0  0  0  0  0  0  0  0  0  0
   -5.0990   19.1067  -31.4192 H   0  0  0  0  0  0  0  0  0  0  0  0
   -5.7101   20.4264  -30.3353 H   0  0  0  0  0  0  0  0  0  0  0  0
   -7.7903   19.8554  -33.9299 H   0  0  0  0  0  0  0  0  0  0  0  0
   -6.1570   20.6003  -33.8825 H   0  0  0  0  0  0  0  0  0  0  0  0
   -5.0637   19.2149  -35.4517 H   0  0  0  0  0  0  0  0  0  0  0  0
   -4.0344   17.0107  -36.0006 H   0  0  0  0  0  0  0  0  0  0  0  0
   -4.5793   15.0007  -34.6256 H   0  0  0  0  0  0  0  0  0  0  0  0
   -6.1337   15.1912  -32.6838 H   0  0  0  0  0  0  0  0  0  0  0  0
   -9.1304   17.9740  -30.9223 H   0  0  0  0  0  0  0  0  0  0  0  0
   -8.7942   18.8119  -32.4752 H   0  0  0  0  0  0  0  0  0  0  0  0
   -9.2907   17.0856  -32.4752 H   0  0  0  0  0  0  0  0  0  0  0  0
   -8.8173   20.9474  -31.9720 H   0  0  0  0  0  0  0  0  0  0  0  0
   -7.7044   21.3831  -30.6114 H   0  0  0  0  0  0  0  0  0  0  0  0
   -6.9659   22.1212  -33.4546 H   0  0  0  0  0  0  0  0  0  0  0  0
   -8.1635   23.1188  -32.5313 H   0  0  0  0  0  0  0  0  0  0  0  0
  1  2  1  0
  2  3  1  0
  3  4  2  0
  4  5  1  0
  5  6  1  0
  5  7  2  0
  7  8  1  0
  8  9  2  0
  9 10  1  0
 10 11  1  0
 11 12  1  0
 12 13  1  0
 13 14  1  0
 14 15  2  0
 15 16  1  0
 16 17  2  0
 17 18  1  0
 18 19  2  0
 19 20  1  0
 20 21  1  0
 12 22  1  0
 22 23  1  0
  9  3  1  0
 19 14  1  0
 23  8  1  0
  1 24  1  0
  1 25  1  0
  1 26  1  0
  2 27  1  0
  2 28  1  0
  6 29  1  0
  6 30  1  0
  6 31  1  0
 10 32  1  0
 10 33  1  0
 11 34  1  0
 11 35  1  0
 13 36  1  0
 13 37  1  0
 15 38  1  0
 16 39  1  0
 17 40  1  0
 18 41  1  0
 21 42  1  0
 21 43  1  0
 21 44  1  0
 22 45  1  0
 22 46  1  0
 23 47  1  0
 23 48  1  0
M  END
>  <UniqueID>  (36) 
33

>  <SMILES>  (36) 
CCc1nc(C)nc2c1CCN(Cc1ccccc1OC)CC2

>  <Energy>  (36) 
53.86676681182177

>  <Genealogy>  (36) 
CCc1nc(C)nc2c1CCN(Cc1ccccc1OC)CC2 (3D coordinates assigned)
CCc1nc(C)nc2c1CCN(Cc1ccccc1OC)CC2 (nonaromatic ring conformer: 53.86676681182177 kcal/mol)

>  <smiles>  (36) 
CCc1nc(C)nc2c1CCN(Cc1ccccc1OC)CC2

>  <score_type>  (36) 
oracle

>  <origin>  (36) 
adg

>  <m_score__min__energy>  (36) 
-5.8399999999999999

>  <m_primary>  (36) 
energy

$$$$
36:0
     RDKit          3D

 32 33  0  0  0  0  0  0  0  0999 V2000
   -8.7100   22.9370  -31.9660 C   0  0  0  0  0  0  0  0  0  0  0  0
   -7.2340   22.6740  -31.9030 C   0  0  0  0  0  0  0  0  0  0  0  0
   -6.6670   21.6540  -32.6820 C   0  0  0  0  0  0  0  0  0  0  0  0
   -5.2880   21.4400  -32.6590 C   0  0  0  0  0  0  0  0  0  0  0  0
   -4.4640   22.2440  -31.8690 C   0  0  0  0  0  0  0  0  0  0  0  0
   -5.0120   23.2770  -31.0870 C   0  0  0  0  0  0  0  0  0  0  0  0
   -4.1290   24.1350  -30.2610 C   0  0  0  0  0  0  0  0  0  0  0  0
   -3.8700   25.3100  -30.6450 O   0  0  0  0  0  0  0  0  0  0  0  0
   -3.5270   23.6320  -29.0570 N   0  0  0  0  0  0  0  0  0  0  0  0
   -3.0010   24.4790  -28.0170 C   0  0  0  0  0  0  0  0  0  0  0  0
   -3.6330   24.5630  -26.7680 C   0  0  0  0  0  0  0  0  0  0  0  0
   -3.0940   25.3660  -25.7670 C   0  0  0  0  0  0  0  0  0  0  0  0
   -1.9180   26.0740  -26.0110 C   0  0  0  0  0  0  0  0  0  0  0  0
   -1.2880   25.9820  -27.2210 N   0  0  0  0  0  0  0  0  0  0  0  0
   -0.0460   26.7320  -27.4470 C   0  0  0  0  0  0  0  0  0  0  0  0
   -1.8050   25.1950  -28.2200 C   0  0  0  0  0  0  0  0  0  0  0  0
   -1.2150   25.1180  -29.3340 O   0  0  0  0  0  0  0  0  0  0  0  0
   -6.4030   23.4930  -31.1230 C   0  0  0  0  0  0  0  0  0  0  0  0
   -9.1135   23.0089  -30.9452 H   0  0  0  0  0  0  0  0  0  0  0  0
   -8.8917   23.8817  -32.4995 H   0  0  0  0  0  0  0  0  0  0  0  0
   -9.2068   22.1132  -32.4995 H   0  0  0  0  0  0  0  0  0  0  0  0
   -7.3103   21.0220  -33.3118 H   0  0  0  0  0  0  0  0  0  0  0  0
   -4.8485   20.6346  -33.2658 H   0  0  0  0  0  0  0  0  0  0  0  0
   -3.3782   22.0683  -31.8580 H   0  0  0  0  0  0  0  0  0  0  0  0
   -3.3740   22.6010  -28.9790 H   0  0  0  0  0  0  0  0  0  0  0  0
   -4.5553   23.9940  -26.5792 H   0  0  0  0  0  0  0  0  0  0  0  0
   -3.5928   25.4415  -24.7895 H   0  0  0  0  0  0  0  0  0  0  0  0
   -1.4930   26.7126  -25.2226 H   0  0  0  0  0  0  0  0  0  0  0  0
    0.4008   27.0018  -26.4787 H   0  0  0  0  0  0  0  0  0  0  0  0
    0.6601   26.1092  -28.0158 H   0  0  0  0  0  0  0  0  0  0  0  0
   -0.2685   27.6469  -28.0158 H   0  0  0  0  0  0  0  0  0  0  0  0
   -6.8425   24.3115  -30.5341 H   0  0  0  0  0  0  0  0  0  0  0  0
  1  2  1  0
  2  3  2  0
  3  4  1  0
  4  5  2  0
  5  6  1  0
  6  7  1  0
  7  8  2  0
  7  9  1  0
  9 10  1  0
 10 11  2  0
 11 12  1  0
 12 13  2  0
 13 14  1  0
 14 15  1  0
 14 16  1  0
 16 17  2  0
  6 18  2  0
 18  2  1  0
 16 10  1  0
  1 19  1  0
  1 20  1  0
  1 21  1  0
  3 22  1  0
  4 23  1  0
  5 24  1  0
  9 25  1  0
 11 26  1  0
 12 27  1  0
 13 28  1  0
 15 29  1  0
 15 30  1  0
 15 31  1  0
 18 32  1  0
M  END
>  <UniqueID>  (37) 
34

>  <SMILES>  (37) 
Cc1cccc(C(=O)Nc2cccn(C)c2=O)c1

>  <Energy>  (37) 
39.96696816510618

>  <Genealogy>  (37) 
Cc1cccc(C(=O)Nc2cccn(C)c2=O)c1 (3D coordinates assigned)
Cc1cccc(C(=O)Nc2cccn(C)c2=O)c1 (optimized conformer: 39.96696816510618 kcal/mol)

>  <smiles>  (37) 
Cc1cccc(C(=O)Nc2cccn(C)c2=O)c1

>  <score_type>  (37) 
oracle

>  <origin>  (37) 
adg

>  <m_score__min__energy>  (37) 
-7.1399999999999997

>  <m_primary>  (37) 
energy

$$$$
37:0
     RDKit          3D

 43 46  0  0  0  0  0  0  0  0999 V2000
   -5.5530   26.0460  -30.4630 C   0  0  0  0  0  0  0  0  0  0  0  0
   -4.2300   25.5540  -30.6460 O   0  0  0  0  0  0  0  0  0  0  0  0
   -3.9150   24.1910  -30.5990 C   0  0  0  0  0  0  0  0  0  0  0  0
   -4.4810   23.3350  -31.4950 N   0  0  0  0  0  0  0  0  0  0  0  0
   -4.2140   22.0010  -31.5090 C   0  0  0  0  0  0  0  0  0  0  0  0
   -4.8700   21.1560  -32.4730 N   0  0  0  0  0  0  0  0  0  0  0  0
   -4.1130   20.3520  -33.4390 C   0  0  0  0  0  0  0  0  0  0  0  0
   -4.6590   18.9130  -33.4860 C   0  0  0  0  0  0  0  0  0  0  0  0
   -6.1220   18.8120  -33.2400 N   0  0  0  0  0  0  0  0  0  0  0  0
   -6.4170   18.2700  -31.9010 C   0  0  0  0  0  0  0  0  0  0  0  0
   -6.8490   20.0740  -33.4930 C   0  0  0  0  0  0  0  0  0  0  0  0
   -6.3290   21.2210  -32.6090 C   0  0  0  0  0  0  0  0  0  0  0  0
   -3.3430   21.4690  -30.5500 C   0  0  0  0  0  0  0  0  0  0  0  0
   -2.7430   22.3170  -29.6200 C   0  0  0  0  0  0  0  0  0  0  0  0
   -3.0150   23.6960  -29.6290 C   0  0  0  0  0  0  0  0  0  0  0  0
   -2.3640   24.5800  -28.6290 C   0  0  0  0  0  0  0  0  0  0  0  0
   -2.4720   24.3730  -27.2870 N   0  0  0  0  0  0  0  0  0  0  0  0
   -1.7490   25.3780  -26.7720 C   0  0  0  0  0  0  0  0  0  0  0  0
   -1.5100   25.6650  -25.4330 C   0  0  0  0  0  0  0  0  0  0  0  0
   -0.7110   26.7900  -25.1550 C   0  0  0  0  0  0  0  0  0  0  0  0
   -0.2040   27.5500  -26.1790 N   0  0  0  0  0  0  0  0  0  0  0  0
   -0.4510   27.2530  -27.4900 C   0  0  0  0  0  0  0  0  0  0  0  0
   -1.2400   26.1430  -27.7680 C   0  0  0  0  0  0  0  0  0  0  0  0
   -1.6110   25.6630  -28.9630 N   0  0  0  0  0  0  0  0  0  0  0  0
   -5.7688   26.1263  -29.3874 H   0  0  0  0  0  0  0  0  0  0  0  0
   -5.6433   27.0378  -30.9301 H   0  0  0  0  0  0  0  0  0  0  0  0
   -6.2694   25.3542  -30.9301 H   0  0  0  0  0  0  0  0  0  0  0  0
   -4.2021   20.8060  -34.4369 H   0  0  0  0  0  0  0  0  0  0  0  0
   -3.0579   20.3229  -33.1293 H   0  0  0  0  0  0  0  0  0  0  0  0
   -4.4460   18.4947  -34.4808 H   0  0  0  0  0  0  0  0  0  0  0  0
   -4.1616   18.3577  -32.6772 H   0  0  0  0  0  0  0  0  0  0  0  0
   -6.0401   18.9625  -31.1339 H   0  0  0  0  0  0  0  0  0  0  0  0
   -7.5044   18.1509  -31.7850 H   0  0  0  0  0  0  0  0  0  0  0  0
   -5.9266   17.2922  -31.7850 H   0  0  0  0  0  0  0  0  0  0  0  0
   -6.7212   20.3528  -34.5494 H   0  0  0  0  0  0  0  0  0  0  0  0
   -7.9099   19.9112  -33.2522 H   0  0  0  0  0  0  0  0  0  0  0  0
   -6.6057   22.1823  -33.0665 H   0  0  0  0  0  0  0  0  0  0  0  0
   -6.7799   21.1274  -31.6100 H   0  0  0  0  0  0  0  0  0  0  0  0
   -3.1336   20.3893  -30.5306 H   0  0  0  0  0  0  0  0  0  0  0  0
   -2.0504   21.9030  -28.8724 H   0  0  0  0  0  0  0  0  0  0  0  0
   -1.9261   25.0417  -24.6278 H   0  0  0  0  0  0  0  0  0  0  0  0
   -0.4919   27.0613  -24.1117 H   0  0  0  0  0  0  0  0  0  0  0  0
   -0.0384   27.8729  -28.2996 H   0  0  0  0  0  0  0  0  0  0  0  0
  1  2  1  0
  2  3  1  0
  3  4  2  0
  4  5  1  0
  5  6  1  0
  6  7  1  0
  7  8  1  0
  8  9  1  0
  9 10  1  0
  9 11  1  0
 11 12  1  0
  5 13  2  0
 13 14  1  0
 14 15  2  0
 15 16  1  0
 16 17  2  0
 17 18  1  0
 18 19  2  0
 19 20  1  0
 20 21  2  0
 21 22  1  0
 22 23  2  0
 23 24  1  0
 15  3  1  0
 24 16  1  0
 12  6  1  0
 23 18  1  0
  1 25  1  0
  1 26  1  0
  1 27  1  0
  7 28  1  0
  7 29  1  0
  8 30  1  0
  8 31  1  0
 10 32  1  0
 10 33  1  0
 10 34  1  0
 11 35  1  0
 11 36  1  0
 12 37  1  0
 12 38  1  0
 13 39  1  0
 14 40  1  0
 19 41  1  0
 20 42  1  0
 22 43  1  0
M  CHG  1  24  -1
M  END
>  <UniqueID>  (38) 
35

>  <SMILES>  (38) 
COc1nc(N2CCN(C)CC2)ccc1-c1nc2ccncc2[n-]1

>  <Energy>  (38) 
93.5430325174808

>  <Genealogy>  (38) 
COc1nc(N2CCN(C)CC2)ccc1-c1nc2ccncc2[n-]1 (protonated)
COc1nc(N2CCN(C)CC2)ccc1-c1nc2ccncc2[n-]1 (3D coordinates assigned)
COc1nc(N2CCN(C)CC2)ccc1-c1nc2ccncc2[n-]1 (nonaromatic ring conformer: 93.5430325174808 kcal/mol)

>  <smiles>  (38) 
COc1nc(N2CCN(C)CC2)ccc1-c1nc2ccncc2[nH]1

>  <score_type>  (38) 
oracle

>  <origin>  (38) 
adg

>  <m_score__min__energy>  (38) 
-9.3599999999999994

>  <m_primary>  (38) 
energy

$$$$
38:0
     RDKit          3D

 44 47  0  0  0  0  0  0  0  0999 V2000
   -8.5390   20.4790  -31.6120 C   0  0  0  0  0  0  0  0  0  0  0  0
   -8.0630   19.0670  -31.9340 C   0  0  0  0  0  0  0  0  0  0  0  0
   -7.3010   19.0670  -33.1270 O   0  0  0  0  0  0  0  0  0  0  0  0
   -6.0870   18.3690  -32.9380 C   0  0  0  0  0  0  0  0  0  0  0  0
   -4.9810   19.0750  -33.7160 C   0  0  0  0  0  0  0  0  0  0  0  0
   -4.4390   20.1840  -32.9330 N   0  0  0  0  0  0  0  0  0  0  0  0
   -5.0240   21.3920  -32.7570 C   0  0  0  0  0  0  0  0  0  0  0  0
   -4.2490   22.1330  -31.8920 C   0  0  0  0  0  0  0  0  0  0  0  0
   -3.1640   21.3640  -31.5160 C   0  0  0  0  0  0  0  0  0  0  0  0
   -3.3190   20.1630  -32.1750 C   0  0  0  0  0  0  0  0  0  0  0  0
   -2.4630   19.0720  -32.0730 O   0  0  0  0  0  0  0  0  0  0  0  0
   -2.0960   21.8250  -30.5440 C   0  0  2  0  0  0  0  0  0  0  0  0
   -2.0550   20.9230  -29.3310 C   0  0  0  0  0  0  0  0  0  0  0  0
   -0.9580   20.0760  -29.1110 C   0  0  0  0  0  0  0  0  0  0  0  0
   -0.9260   19.2510  -27.9870 C   0  0  0  0  0  0  0  0  0  0  0  0
   -1.9930   19.2770  -27.0870 C   0  0  0  0  0  0  0  0  0  0  0  0
   -3.0520   20.1010  -27.3080 N   0  0  0  0  0  0  0  0  0  0  0  0
   -3.1060   20.9150  -28.3970 C   0  0  0  0  0  0  0  0  0  0  0  0
   -2.4020   23.2530  -30.1360 C   0  0  0  0  0  0  0  0  0  0  0  0
   -3.5050   23.9590  -30.5540 C   0  0  0  0  0  0  0  0  0  0  0  0
   -3.5210   25.1860  -30.0070 N   0  0  0  0  0  0  0  0  0  0  0  0
   -2.4420   25.2890  -29.2390 N   0  0  0  0  0  0  0  0  0  0  0  0
   -1.7400   24.1340  -29.3090 C   0  0  0  0  0  0  0  0  0  0  0  0
   -0.4990   23.8580  -28.5270 C   0  0  0  0  0  0  0  0  0  0  0  0
   -4.4630   23.4360  -31.4290 O   0  0  0  0  0  0  0  0  0  0  0  0
   -8.5835   20.6110  -30.5209 H   0  0  0  0  0  0  0  0  0  0  0  0
   -7.8374   21.2093  -32.0414 H   0  0  0  0  0  0  0  0  0  0  0  0
   -9.5396   20.6355  -32.0414 H   0  0  0  0  0  0  0  0  0  0  0  0
   -7.4413   18.6957  -31.1060 H   0  0  0  0  0  0  0  0  0  0  0  0
   -8.9390   18.4153  -32.0682 H   0  0  0  0  0  0  0  0  0  0  0  0
   -5.8331   18.3540  -31.8678 H   0  0  0  0  0  0  0  0  0  0  0  0
   -6.1930   17.3353  -33.2987 H   0  0  0  0  0  0  0  0  0  0  0  0
   -4.1763   18.3576  -33.9346 H   0  0  0  0  0  0  0  0  0  0  0  0
   -5.3989   19.4696  -34.6539 H   0  0  0  0  0  0  0  0  0  0  0  0
   -5.9612   21.7260  -33.2261 H   0  0  0  0  0  0  0  0  0  0  0  0
   -1.1087   21.7788  -31.0269 H   0  0  0  0  0  0  0  0  0  0  0  0
   -0.1222   20.0627  -29.8260 H   0  0  0  0  0  0  0  0  0  0  0  0
   -0.0678   18.5858  -27.8111 H   0  0  0  0  0  0  0  0  0  0  0  0
   -1.9770   18.6299  -26.1976 H   0  0  0  0  0  0  0  0  0  0  0  0
   -3.8430   20.1090  -26.6250 H   0  0  0  0  0  0  0  0  0  0  0  0
   -3.9766   21.5703  -28.5475 H   0  0  0  0  0  0  0  0  0  0  0  0
   -0.7245   23.9082  -27.4515 H   0  0  0  0  0  0  0  0  0  0  0  0
   -0.1239   22.8545  -28.7766 H   0  0  0  0  0  0  0  0  0  0  0  0
    0.2661   24.6079  -28.7766 H   0  0  0  0  0  0  0  0  0  0  0  0
  1  2  1  0
  2  3  1  0
  3  4  1  0
  4  5  1  0
  5  6  1  0
  6  7  1  0
  7  8  2  0
  8  9  1  0
  9 10  2  0
 10 11  1  0
  9 12  1  0
 12 13  1  0
 13 14  2  0
 14 15  1  0
 15 16  2  0
 16 17  1  0
 17 18  2  0
 12 19  1  0
 19 20  1  0
 20 21  2  0
 21 22  1  0
 22 23  1  0
 23 24  1  0
 20 25  1  0
 10  6  1  0
 18 13  1  0
 23 19  2  0
 25  8  1  0
  1 26  1  0
  1 27  1  0
  1 28  1  0
  2 29  1  0
  2 30  1  0
  4 31  1  0
  4 32  1  0
  5 33  1  0
  5 34  1  0
  7 35  1  0
 12 36  1  6
 14 37  1  0
 15 38  1  0
 16 39  1  0
 17 40  1  0
 18 41  1  0
 24 42  1  0
 24 43  1  0
 24 44  1  0
M  CHG  3  11  -1  17   1  22  -1
M  END
>  <UniqueID>  (39) 
36

>  <SMILES>  (39) 
CCOCCn1cc2c(c1[O-])[C@H](c1ccc[nH+]c1)c1c(n[n-]c1C)O2

>  <Energy>  (39) 
108.61922215582902

>  <Genealogy>  (39) 
CCOCCn1cc2c(c1[O-])C(c1ccc[nH+]c1)c1c(n[n-]c1C)O2 (protonated)
CCOCCn1cc2c(c1[O-])[C@H](c1ccc[nH+]c1)c1c(n[n-]c1C)O2 (chirality)
CCOCCn1cc2c(c1[O-])[C@H](c1ccc[nH+]c1)c1c(n[n-]c1C)O2 (3D coordinates assigned)
CCOCCn1cc2c(c1[O-])[C@H](c1ccc[nH+]c1)c1c(n[n-]c1C)O2 (nonaromatic ring conformer: 108.61922215582902 kcal/mol)

>  <smiles>  (39) 
CCOCCn1cc2c(c1O)C(c1cccnc1)c1c(n[nH]c1C)O2

>  <score_type>  (39) 
oracle

>  <origin>  (39) 
adg

>  <m_score__min__energy>  (39) 
-8.5099999999999998

>  <m_primary>  (39) 
energy

$$$$
39:0
     RDKit          3D

 28 29  0  0  0  0  0  0  0  0999 V2000
   -6.2615   24.2019  -28.9945 H   0  0  0  0  0  0  0  0  0  0  0  0
   -5.9550   24.2460  -30.0500 C   0  0  0  0  0  0  0  0  0  0  0  0
   -4.5390   24.5300  -30.3660 C   0  0  0  0  0  0  0  0  0  0  0  0
   -4.2500   25.6590  -30.8460 O   0  0  0  0  0  0  0  0  0  0  0  0
   -3.4500   23.5480  -30.1520 C   0  0  0  0  0  0  0  0  0  0  0  0
   -3.6580   22.2090  -30.5210 C   0  0  0  0  0  0  0  0  0  0  0  0
   -4.6188   21.9080  -30.9640 H   0  0  0  0  0  0  0  0  0  0  0  0
   -2.6550   21.2570  -30.3300 C   0  0  0  0  0  0  0  0  0  0  0  0
   -2.8301   20.2091  -30.6150 H   0  0  0  0  0  0  0  0  0  0  0  0
   -1.4310   21.6340  -29.7780 C   0  0  0  0  0  0  0  0  0  0  0  0
   -0.6454   20.8805  -29.6195 H   0  0  0  0  0  0  0  0  0  0  0  0
   -1.2000   22.9650  -29.4260 C   0  0  0  0  0  0  0  0  0  0  0  0
   -0.2306   23.2558  -28.9952 H   0  0  0  0  0  0  0  0  0  0  0  0
   -2.2010   23.9390  -29.6190 C   0  0  0  0  0  0  0  0  0  0  0  0
   -1.9810   25.2920  -29.3130 O   0  0  0  0  0  0  0  0  0  0  0  0
   -1.2360   25.7590  -28.1930 C   0  0  0  0  0  0  0  0  0  0  0  0
   -1.7353   25.4460  -27.2642 H   0  0  0  0  0  0  0  0  0  0  0  0
   -0.2215   25.3349  -28.2248 H   0  0  0  0  0  0  0  0  0  0  0  0
   -1.1756   26.8569  -28.2248 H   0  0  0  0  0  0  0  0  0  0  0  0
   -6.8810   24.0400  -30.9980 C   0  0  0  0  0  0  0  0  0  0  0  0
   -7.4085   24.9147  -31.4062 H   0  0  0  0  0  0  0  0  0  0  0  0
   -7.2330   22.7070  -31.5250 C   0  0  0  0  0  0  0  0  0  0  0  0
   -6.3590   22.0330  -32.3230 N   0  0  0  0  0  0  0  0  0  0  0  0
   -6.8320   20.8290  -32.7100 C   0  0  0  0  0  0  0  0  0  0  0  0
   -6.2897   20.1244  -33.3576 H   0  0  0  0  0  0  0  0  0  0  0  0
   -8.3590   20.5520  -32.0700 S   0  0  0  0  0  0  0  0  0  0  0  0
   -8.4270   22.0260  -31.2670 C   0  0  0  0  0  0  0  0  0  0  0  0
   -9.2610   22.3902  -30.6491 H   0  0  0  0  0  0  0  0  0  0  0  0
  1  2  1  0
  2  3  1  0
  3  4  2  0
  3  5  1  0
  5  6  2  0
  6  7  1  0
  6  8  1  0
  8  9  1  0
  8 10  2  0
 10 11  1  0
 10 12  1  0
 12 13  1  0
 12 14  2  0
 14 15  1  0
 15 16  1  0
 16 17  1  0
 16 18  1  0
 16 19  1  0
  2 20  2  0
 20 21  1  0
 20 22  1  0
 22 23  1  0
 23 24  2  0
 24 25  1  0
 24 26  1  0
 26 27  1  0
 27 28  1  0
 14  5  1  0
 27 22  2  0
M  END
>  <UniqueID>  (40) 
37

>  <SMILES>  (40) 
COc1ccccc1C(=O)/C=C/c1cscn1

>  <Energy>  (40) 
63.21731982503102

>  <Genealogy>  (40) 
COc1ccccc1C(=O)/C=C/c1cscn1 (cis-trans isomerization)
COc1ccccc1C(=O)/C=C/c1cscn1 (3D coordinates assigned)
COc1ccccc1C(=O)/C=C/c1cscn1 (optimized conformer: 63.21731982503102 kcal/mol)

>  <smiles>  (40) 
COc1ccccc1C(=O)C=Cc1cscn1

>  <score_type>  (40) 
oracle

>  <origin>  (40) 
adg

>  <m_score__min__energy>  (40) 
-7.1200000000000001

>  <m_primary>  (40) 
energy

$$$$
40:0
     RDKit          3D

 42 43  0  0  0  0  0  0  0  0999 V2000
   -2.8380   23.5600  -29.6730 C   0  0  0  0  0  0  0  0  0  0  0  0
   -2.9400   22.1060  -30.1270 C   0  0  0  0  0  0  0  0  0  0  0  0
   -2.2700   21.9080  -31.4940 C   0  0  0  0  0  0  0  0  0  0  0  0
   -2.9230   20.7820  -32.3130 C   0  0  0  0  0  0  0  0  0  0  0  0
   -3.8600   21.2790  -33.4300 C   0  0  0  0  0  0  0  0  0  0  0  0
   -5.2690   21.3210  -32.9840 N   0  0  0  0  0  0  0  0  0  0  0  0
   -5.7460   22.4230  -32.2940 C   0  0  0  0  0  0  0  0  0  0  0  0
   -4.9680   23.3860  -32.0400 O   0  0  0  0  0  0  0  0  0  0  0  0
   -7.0600   22.4860  -31.8810 N   0  0  0  0  0  0  0  0  0  0  0  0
   -7.5890   23.6650  -31.1760 C   0  0  0  0  0  0  0  0  0  0  0  0
   -6.8570   23.8560  -29.8410 C   0  0  0  0  0  0  0  0  0  0  0  0
   -6.4870   25.3220  -29.5710 C   0  0  0  0  0  0  0  0  0  0  0  0
   -5.3660   25.8240  -30.4800 C   0  0  0  0  0  0  0  0  0  0  0  0
   -7.8660   21.4370  -32.2030 C   0  0  0  0  0  0  0  0  0  0  0  0
   -9.2140   21.2310  -31.9730 C   0  0  0  0  0  0  0  0  0  0  0  0
   -9.5230   20.0260  -32.5110 N   0  0  0  0  0  0  0  0  0  0  0  0
   -8.4070   19.5370  -33.0410 N   0  0  0  0  0  0  0  0  0  0  0  0
   -7.4070   20.3800  -32.8610 N   0  0  0  0  0  0  0  0  0  0  0  0
   -6.1230   20.2820  -33.2640 C   0  0  0  0  0  0  0  0  0  0  0  0
   -5.7330   19.2580  -33.8880 O   0  0  0  0  0  0  0  0  0  0  0  0
   -2.8351   23.6016  -28.5738 H   0  0  0  0  0  0  0  0  0  0  0  0
   -1.9068   24.0002  -30.0590 H   0  0  0  0  0  0  0  0  0  0  0  0
   -3.6987   24.1259  -30.0590 H   0  0  0  0  0  0  0  0  0  0  0  0
   -2.4431   21.4622  -29.3863 H   0  0  0  0  0  0  0  0  0  0  0  0
   -4.0038   21.8407  -30.2165 H   0  0  0  0  0  0  0  0  0  0  0  0
   -2.3448   22.8466  -32.0627 H   0  0  0  0  0  0  0  0  0  0  0  0
   -1.2220   21.6259  -31.3146 H   0  0  0  0  0  0  0  0  0  0  0  0
   -2.1243   20.1820  -32.7736 H   0  0  0  0  0  0  0  0  0  0  0  0
   -3.5426   20.2001  -31.6147 H   0  0  0  0  0  0  0  0  0  0  0  0
   -3.5509   22.2910  -33.7304 H   0  0  0  0  0  0  0  0  0  0  0  0
   -3.7886   20.5778  -34.2745 H   0  0  0  0  0  0  0  0  0  0  0  0
   -7.4434   24.5581  -31.8014 H   0  0  0  0  0  0  0  0  0  0  0  0
   -8.6609   23.5151  -30.9797 H   0  0  0  0  0  0  0  0  0  0  0  0
   -7.5090   23.5025  -29.0287 H   0  0  0  0  0  0  0  0  0  0  0  0
   -5.9204   23.2813  -29.8910 H   0  0  0  0  0  0  0  0  0  0  0  0
   -7.3783   25.9457  -29.7340 H   0  0  0  0  0  0  0  0  0  0  0  0
   -6.1284   25.3886  -28.5332 H   0  0  0  0  0  0  0  0  0  0  0  0
   -4.5339   26.1966  -29.8645 H   0  0  0  0  0  0  0  0  0  0  0  0
   -5.0115   24.9987  -31.1149 H   0  0  0  0  0  0  0  0  0  0  0  0
   -5.7456   26.6381  -31.1149 H   0  0  0  0  0  0  0  0  0  0  0  0
   -9.9027   21.9136  -31.4535 H   0  0  0  0  0  0  0  0  0  0  0  0
   -8.3390   18.6180  -33.5340 H   0  0  0  0  0  0  0  0  0  0  0  0
  1  2  1  0
  2  3  1  0
  3  4  1  0
  4  5  1  0
  5  6  1  0
  6  7  1  0
  7  8  2  0
  7  9  1  0
  9 10  1  0
 10 11  1  0
 11 12  1  0
 12 13  1  0
  9 14  1  0
 14 15  2  0
 15 16  1  0
 16 17  2  0
 17 18  1  0
 18 19  1  0
 19 20  2  0
 19  6  1  0
 18 14  1  0
  1 21  1  0
  1 22  1  0
  1 23  1  0
  2 24  1  0
  2 25  1  0
  3 26  1  0
  3 27  1  0
  4 28  1  0
  4 29  1  0
  5 30  1  0
  5 31  1  0
 10 32  1  0
 10 33  1  0
 11 34  1  0
 11 35  1  0
 12 36  1  0
 12 37  1  0
 13 38  1  0
 13 39  1  0
 13 40  1  0
 15 41  1  0
 17 42  1  0
M  CHG  1  17   1
M  END
>  <UniqueID>  (41) 
38

>  <SMILES>  (41) 
CCCCCn1c(=O)n(CCCC)c2cn[nH+]n2c1=O

>  <Energy>  (41) 
76.98244951291632

>  <Genealogy>  (41) 
CCCCCn1c(=O)n(CCCC)c2cn[nH+]n2c1=O (protonated)
CCCCCn1c(=O)n(CCCC)c2cn[nH+]n2c1=O (3D coordinates assigned)
CCCCCn1c(=O)n(CCCC)c2cn[nH+]n2c1=O (optimized conformer: 76.98244951291632 kcal/mol)

>  <smiles>  (41) 
CCCCCn1c(=O)n(CCCC)c2cnnn2c1=O

>  <score_type>  (41) 
oracle

>  <origin>  (41) 
adg

>  <m_score__min__energy>  (41) 
-6.2999999999999998

>  <m_primary>  (41) 
energy

$$$$
41:0
     RDKit          3D

 41 43  0  0  0  0  0  0  0  0999 V2000
   -1.2733   22.5815  -26.0793 H   0  0  0  0  0  0  0  0  0  0  0  0
   -1.7120   21.8530  -26.7770 C   0  0  0  0  0  0  0  0  0  0  0  0
   -1.3800   20.5640  -26.6090 C   0  0  0  0  0  0  0  0  0  0  0  0
   -0.4542   20.3519  -26.0541 H   0  0  0  0  0  0  0  0  0  0  0  0
   -2.1660   19.3810  -27.1150 C   0  0  0  0  0  0  0  0  0  0  0  0
   -1.4898   18.7301  -27.6887 H   0  0  0  0  0  0  0  0  0  0  0  0
   -2.9851   19.7714  -27.7368 H   0  0  0  0  0  0  0  0  0  0  0  0
   -2.8010   18.5530  -25.9830 C   0  0  0  0  0  0  0  0  0  0  0  0
   -2.3881   18.8895  -25.0206 H   0  0  0  0  0  0  0  0  0  0  0  0
   -2.5693   17.4928  -26.1625 H   0  0  0  0  0  0  0  0  0  0  0  0
   -4.2570   18.7030  -25.9530 N   0  0  0  0  0  0  0  0  0  0  0  0
   -4.5050   19.6850  -26.2100 H   0  0  0  0  0  0  0  0  0  0  0  0
   -4.7020   18.0510  -26.6390 H   0  0  0  0  0  0  0  0  0  0  0  0
   -4.6220   18.5090  -24.9920 H   0  0  0  0  0  0  0  0  0  0  0  0
   -2.6160   22.3750  -27.8190 C   0  0  0  0  0  0  0  0  0  0  0  0
   -3.4760   21.6260  -28.6260 C   0  0  0  0  0  0  0  0  0  0  0  0
   -3.6605   20.5424  -28.5842 H   0  0  0  0  0  0  0  0  0  0  0  0
   -4.0420   22.5410  -29.4850 C   0  0  0  0  0  0  0  0  0  0  0  0
   -4.9590   22.3720  -30.5170 C   0  0  0  0  0  0  0  0  0  0  0  0
   -5.3730   21.3823  -30.7600 H   0  0  0  0  0  0  0  0  0  0  0  0
   -5.3360   23.5260  -31.2400 C   0  0  0  0  0  0  0  0  0  0  0  0
   -6.2900   23.4230  -32.3910 C   0  0  0  0  0  0  0  0  0  0  0  0
   -6.9203   24.3239  -32.4228 H   0  0  0  0  0  0  0  0  0  0  0  0
   -5.7176   23.3334  -33.3260 H   0  0  0  0  0  0  0  0  0  0  0  0
   -7.1640   22.2100  -32.2310 C   0  0  0  0  0  0  0  0  0  0  0  0
   -6.7850   20.9820  -32.8020 C   0  0  0  0  0  0  0  0  0  0  0  0
   -5.8312   20.9005  -33.3439 H   0  0  0  0  0  0  0  0  0  0  0  0
   -7.6170   19.8640  -32.6830 C   0  0  0  0  0  0  0  0  0  0  0  0
   -7.3127   18.9034  -33.1241 H   0  0  0  0  0  0  0  0  0  0  0  0
   -8.8350   19.9660  -32.0040 C   0  0  0  0  0  0  0  0  0  0  0  0
   -9.4873   19.0853  -31.9096 H   0  0  0  0  0  0  0  0  0  0  0  0
   -9.2240   21.1870  -31.4450 C   0  0  0  0  0  0  0  0  0  0  0  0
  -10.1833   21.2670  -30.9127 H   0  0  0  0  0  0  0  0  0  0  0  0
   -8.3950   22.3060  -31.5620 C   0  0  0  0  0  0  0  0  0  0  0  0
   -8.7083   23.2669  -31.1278 H   0  0  0  0  0  0  0  0  0  0  0  0
   -4.7830   24.7420  -30.9270 N   0  0  0  0  0  0  0  0  0  0  0  0
   -3.8780   24.8930  -29.9140 C   0  0  0  0  0  0  0  0  0  0  0  0
   -3.4510   25.8790  -29.6786 H   0  0  0  0  0  0  0  0  0  0  0  0
   -3.5130   23.7640  -29.1900 C   0  0  0  0  0  0  0  0  0  0  0  0
   -2.6310   23.6800  -28.1810 N   0  0  0  0  0  0  0  0  0  0  0  0
   -2.0690   24.4570  -27.7680 H   0  0  0  0  0  0  0  0  0  0  0  0
  1  2  1  0
  2  3  2  0
  3  4  1  0
  3  5  1  0
  5  6  1  0
  5  7  1  0
  5  8  1  0
  8  9  1  0
  8 10  1  0
  8 11  1  0
 11 12  1  0
 11 13  1  0
 11 14  1  0
  2 15  1  0
 15 16  2  0
 16 17  1  0
 16 18  1  0
 18 19  2  0
 19 20  1  0
 19 21  1  0
 21 22  1  0
 22 23  1  0
 22 24  1  0
 22 25  1  0
 25 26  2  0
 26 27  1  0
 26 28  1  0
 28 29  1  0
 28 30  2  0
 30 31  1  0
 30 32  1  0
 32 33  1  0
 32 34  2  0
 34 35  1  0
 21 36  2  0
 36 37  1  0
 37 38  1  0
 37 39  2  0
 39 40  1  0
 40 41  1  0
 40 15  1  0
 39 18  1  0
 34 25  1  0
M  CHG  1  11   1
M  END
>  <UniqueID>  (42) 
39

>  <SMILES>  (42) 
[NH3+]CC/C=C\c1cc2cc(Cc3ccccc3)ncc2[nH]1

>  <Energy>  (42) 
76.17267508707408

>  <Genealogy>  (42) 
[NH3+]CCC=Cc1cc2cc(Cc3ccccc3)ncc2[nH]1 (protonated)
[NH3+]CC/C=C\c1cc2cc(Cc3ccccc3)ncc2[nH]1 (cis-trans isomerization)
[NH3+]CC/C=C\c1cc2cc(Cc3ccccc3)ncc2[nH]1 (3D coordinates assigned)
[NH3+]CC/C=C\c1cc2cc(Cc3ccccc3)ncc2[nH]1 (optimized conformer: 76.17267508707408 kcal/mol)

>  <smiles>  (42) 
NCCC=Cc1cc2cc(Cc3ccccc3)ncc2[nH]1

>  <score_type>  (42) 
oracle

>  <origin>  (42) 
adg

>  <m_score__min__energy>  (42) 
-8.5899999999999999

>  <m_primary>  (42) 
energy

$$$$
42:0
     RDKit          3D

 43 45  0  0  0  0  0  0  0  0999 V2000
   -0.1232   21.1790  -31.3734 H   0  0  0  0  0  0  0  0  0  0  0  0
   -1.1830   21.4620  -31.4560 C   0  0  0  0  0  0  0  0  0  0  0  0
   -2.0840   21.4810  -32.8620 S   0  0  0  0  0  0  0  0  0  0  0  0
   -3.4930   21.9750  -32.1000 C   0  0  0  0  0  0  0  0  0  0  0  0
   -4.6040   22.1060  -32.7740 N   0  0  0  0  0  0  0  0  0  0  0  0
   -5.8310   21.3800  -32.6530 C   0  0  0  0  0  0  0  0  0  0  0  0
   -6.9630   22.0320  -32.1340 C   0  0  0  0  0  0  0  0  0  0  0  0
   -6.9080   23.0997  -31.8753 H   0  0  0  0  0  0  0  0  0  0  0  0
   -8.1550   21.3340  -31.9450 C   0  0  0  0  0  0  0  0  0  0  0  0
   -9.0433   21.8571  -31.5612 H   0  0  0  0  0  0  0  0  0  0  0  0
   -8.2220   19.9740  -32.2420 C   0  0  0  0  0  0  0  0  0  0  0  0
   -9.1673   19.4296  -32.1004 H   0  0  0  0  0  0  0  0  0  0  0  0
   -7.0950   19.2970  -32.7190 C   0  0  0  0  0  0  0  0  0  0  0  0
   -7.2360   17.5730  -33.0480 Cl  0  0  0  0  0  0  0  0  0  0  0  0
   -5.8810   19.9910  -32.9170 C   0  0  0  0  0  0  0  0  0  0  0  0
   -4.6640   19.2440  -33.4030 C   0  0  0  0  0  0  0  0  0  0  0  0
   -4.0834   18.8876  -32.5393 H   0  0  0  0  0  0  0  0  0  0  0  0
   -4.9804   18.3844  -34.0120 H   0  0  0  0  0  0  0  0  0  0  0  0
   -4.0407   19.9153  -34.0120 H   0  0  0  0  0  0  0  0  0  0  0  0
   -3.2980   22.1860  -30.7560 N   0  0  0  0  0  0  0  0  0  0  0  0
   -4.1450   23.0150  -29.8700 C   0  0  0  0  0  0  0  0  0  0  0  0
   -4.3240   22.4712  -28.9307 H   0  0  0  0  0  0  0  0  0  0  0  0
   -5.0964   23.2189  -30.3831 H   0  0  0  0  0  0  0  0  0  0  0  0
   -3.4640   24.3480  -29.5550 C   0  0  0  0  0  0  0  0  0  0  0  0
   -2.3724   24.2232  -29.6081 H   0  0  0  0  0  0  0  0  0  0  0  0
   -3.7480   24.6739  -28.5435 H   0  0  0  0  0  0  0  0  0  0  0  0
   -3.8720   25.3200  -30.4930 O   0  0  0  0  0  0  0  0  0  0  0  0
   -5.2800   25.3310  -30.5740 C   0  0  0  0  0  0  0  0  0  0  0  0
   -5.7056   25.3343  -29.5597 H   0  0  0  0  0  0  0  0  0  0  0  0
   -5.6093   26.2317  -31.1127 H   0  0  0  0  0  0  0  0  0  0  0  0
   -5.6233   24.4355  -31.1127 H   0  0  0  0  0  0  0  0  0  0  0  0
   -2.0040   21.8660  -30.4060 C   0  0  0  0  0  0  0  0  0  0  0  0
   -1.4690   21.9750  -29.0340 C   0  0  0  0  0  0  0  0  0  0  0  0
   -0.5530   22.9890  -28.7080 C   0  0  0  0  0  0  0  0  0  0  0  0
   -0.2193   23.6957  -29.4820 H   0  0  0  0  0  0  0  0  0  0  0  0
   -0.0640   23.1030  -27.4030 C   0  0  0  0  0  0  0  0  0  0  0  0
    0.6602   23.8929  -27.1548 H   0  0  0  0  0  0  0  0  0  0  0  0
   -0.4940   22.2150  -26.4140 C   0  0  0  0  0  0  0  0  0  0  0  0
   -0.1061   22.3043  -25.3885 H   0  0  0  0  0  0  0  0  0  0  0  0
   -1.4170   21.2130  -26.7270 C   0  0  0  0  0  0  0  0  0  0  0  0
   -1.7567   20.5158  -25.9469 H   0  0  0  0  0  0  0  0  0  0  0  0
   -1.9090   21.0960  -28.0310 C   0  0  0  0  0  0  0  0  0  0  0  0
   -2.6430   20.3129  -28.2718 H   0  0  0  0  0  0  0  0  0  0  0  0
  1  2  1  0
  2  3  1  0
  3  4  1  0
  4  5  2  0
  5  6  1  0
  6  7  2  0
  7  8  1  0
  7  9  1  0
  9 10  1  0
  9 11  2  0
 11 12  1  0
 11 13  1  0
 13 14  1  0
 13 15  2  0
 15 16  1  0
 16 17  1  0
 16 18  1  0
 16 19  1  0
  4 20  1  0
 20 21  1  0
 21 22  1  0
 21 23  1  0
 21 24  1  0
 24 25  1  0
 24 26  1  0
 24 27  1  0
 27 28  1  0
 28 29  1  0
 28 30  1  0
 28 31  1  0
 20 32  1  0
 32 33  1  0
 33 34  2  0
 34 35  1  0
 34 36  1  0
 36 37  1  0
 36 38  2  0
 38 39  1  0
 38 40  1  0
 40 41  1  0
 40 42  2  0
 42 43  1  0
 32  2  2  0
 42 33  1  0
 15  6  1  0
M  END
>  <UniqueID>  (43) 
40

>  <SMILES>  (43) 
COCCn1c(-c2ccccc2)cs/c1=N/c1cccc(Cl)c1C

>  <Energy>  (43) 
98.93429326014399

>  <Genealogy>  (43) 
COCCn1c(-c2ccccc2)cs/c1=N/c1cccc(Cl)c1C (cis-trans isomerization)
COCCn1c(-c2ccccc2)cs/c1=N/c1cccc(Cl)c1C (3D coordinates assigned)
COCCn1c(-c2ccccc2)cs/c1=N/c1cccc(Cl)c1C (optimized conformer: 98.93429326014399 kcal/mol)

>  <smiles>  (43) 
COCCn1c(-c2ccccc2)csc1=Nc1cccc(Cl)c1C

>  <score_type>  (43) 
oracle

>  <origin>  (43) 
adg

>  <m_score__min__energy>  (43) 
-8.8499999999999996

>  <m_primary>  (43) 
energy

$$$$
43:0
     RDKit          3D

 22 23  0  0  0  0  0  0  0  0999 V2000
   -9.0780   18.6960  -31.9730 C   0  0  0  0  0  0  0  0  0  0  0  0
   -9.0400   20.0920  -32.2540 O   0  0  0  0  0  0  0  0  0  0  0  0
   -7.9330   20.9190  -32.0100 C   0  0  0  0  0  0  0  0  0  0  0  0
   -6.6770   20.4920  -32.4580 C   0  0  0  0  0  0  0  0  0  0  0  0
   -5.5400   21.2740  -32.2430 C   0  0  0  0  0  0  0  0  0  0  0  0
   -5.6440   22.5010  -31.5740 C   0  0  0  0  0  0  0  0  0  0  0  0
   -4.5060   23.2950  -31.3540 C   0  0  0  0  0  0  0  0  0  0  0  0
   -4.6220   24.5180  -30.6850 C   0  0  0  0  0  0  0  0  0  0  0  0
   -3.4950   25.3000  -30.4680 O   0  0  0  0  0  0  0  0  0  0  0  0
   -5.8710   24.9550  -30.2330 C   0  0  0  0  0  0  0  0  0  0  0  0
   -7.0110   24.1730  -30.4470 C   0  0  0  0  0  0  0  0  0  0  0  0
   -6.9080   22.9440  -31.1170 C   0  0  0  0  0  0  0  0  0  0  0  0
   -8.0450   22.1520  -31.3370 C   0  0  0  0  0  0  0  0  0  0  0  0
   -9.0822   18.5412  -30.8840 H   0  0  0  0  0  0  0  0  0  0  0  0
   -9.9884   18.2589  -32.4090 H   0  0  0  0  0  0  0  0  0  0  0  0
   -8.1928   18.2100  -32.4090 H   0  0  0  0  0  0  0  0  0  0  0  0
   -6.5849   19.5307  -32.9847 H   0  0  0  0  0  0  0  0  0  0  0  0
   -4.5596   20.9256  -32.6000 H   0  0  0  0  0  0  0  0  0  0  0  0
   -3.5220   22.9543  -31.7085 H   0  0  0  0  0  0  0  0  0  0  0  0
   -5.9574   25.9173  -29.7072 H   0  0  0  0  0  0  0  0  0  0  0  0
   -7.9908   24.5222  -30.0892 H   0  0  0  0  0  0  0  0  0  0  0  0
   -9.0282   22.4950  -30.9826 H   0  0  0  0  0  0  0  0  0  0  0  0
  1  2  1  0
  2  3  1  0
  3  4  2  0
  4  5  1  0
  5  6  2  0
  6  7  1  0
  7  8  2  0
  8  9  1  0
  8 10  1  0
 10 11  2  0
 11 12  1  0
 12 13  2  0
 13  3  1  0
 12  6  1  0
  1 14  1  0
  1 15  1  0
  1 16  1  0
  4 17  1  0
  5 18  1  0
  7 19  1  0
 10 20  1  0
 11 21  1  0
 13 22  1  0
M  CHG  1   9  -1
M  END
>  <UniqueID>  (44) 
41

>  <SMILES>  (44) 
COc1ccc2cc([O-])ccc2c1

>  <Energy>  (44) 
25.08582150242827

>  <Genealogy>  (44) 
COc1ccc2cc([O-])ccc2c1 (protonated)
COc1ccc2cc([O-])ccc2c1 (3D coordinates assigned)
COc1ccc2cc([O-])ccc2c1 (optimized conformer: 25.08582150242827 kcal/mol)

>  <smiles>  (44) 
COc1ccc2cc(O)ccc2c1

>  <score_type>  (44) 
oracle

>  <origin>  (44) 
adg

>  <m_score__min__energy>  (44) 
-9.0899999999999999

>  <m_primary>  (44) 
energy

$$$$
44:0
     RDKit          3D

 32 33  0  0  0  0  0  0  0  0999 V2000
   -5.4230   25.3050  -30.1730 C   0  0  0  0  0  0  0  0  0  0  0  0
   -4.9570   24.4400  -31.2040 O   0  0  0  0  0  0  0  0  0  0  0  0
   -5.6720   23.3380  -31.6960 C   0  0  0  0  0  0  0  0  0  0  0  0
   -7.0730   23.2460  -31.6050 C   0  0  0  0  0  0  0  0  0  0  0  0
   -7.7410   22.1260  -32.1120 C   0  0  0  0  0  0  0  0  0  0  0  0
   -7.0210   21.0780  -32.7100 C   0  0  0  0  0  0  0  0  0  0  0  0
   -7.7120   19.9390  -33.2610 N   0  0  0  0  0  0  0  0  0  0  0  0
   -6.9320   18.7470  -33.0390 C   0  0  0  0  0  0  0  0  0  0  0  0
   -6.1740   18.1880  -34.0780 C   0  0  0  0  0  0  0  0  0  0  0  0
   -5.4010   17.0510  -33.8370 C   0  0  0  0  0  0  0  0  0  0  0  0
   -5.3610   16.4890  -32.5910 N   0  0  0  0  0  0  0  0  0  0  0  0
   -4.5720   15.2750  -32.3670 C   0  0  0  0  0  0  0  0  0  0  0  0
   -6.1010   17.0130  -31.5690 C   0  0  0  0  0  0  0  0  0  0  0  0
   -6.8860   18.1490  -31.7720 C   0  0  0  0  0  0  0  0  0  0  0  0
   -5.6220   21.1770  -32.8050 C   0  0  0  0  0  0  0  0  0  0  0  0
   -4.9570   22.2970  -32.3000 C   0  0  0  0  0  0  0  0  0  0  0  0
   -5.1869   24.8667  -29.1921 H   0  0  0  0  0  0  0  0  0  0  0  0
   -4.9303   26.2842  -30.2653 H   0  0  0  0  0  0  0  0  0  0  0  0
   -6.5117   25.4322  -30.2653 H   0  0  0  0  0  0  0  0  0  0  0  0
   -7.6456   24.0581  -31.1332 H   0  0  0  0  0  0  0  0  0  0  0  0
   -8.8371   22.0655  -32.0420 H   0  0  0  0  0  0  0  0  0  0  0  0
   -7.8750   20.0780  -34.2860 H   0  0  0  0  0  0  0  0  0  0  0  0
   -8.6550   19.8400  -32.8160 H   0  0  0  0  0  0  0  0  0  0  0  0
   -6.1885   18.6438  -35.0790 H   0  0  0  0  0  0  0  0  0  0  0  0
   -4.8192   16.6033  -34.6562 H   0  0  0  0  0  0  0  0  0  0  0  0
   -4.4609   15.1041  -31.2860 H   0  0  0  0  0  0  0  0  0  0  0  0
   -5.0844   14.4153  -32.8234 H   0  0  0  0  0  0  0  0  0  0  0  0
   -3.5783   15.3941  -32.8234 H   0  0  0  0  0  0  0  0  0  0  0  0
   -6.0779   16.5357  -30.5782 H   0  0  0  0  0  0  0  0  0  0  0  0
   -7.4669   18.5739  -30.9401 H   0  0  0  0  0  0  0  0  0  0  0  0
   -5.0475   20.3679  -33.2797 H   0  0  0  0  0  0  0  0  0  0  0  0
   -3.8616   22.3615  -32.3777 H   0  0  0  0  0  0  0  0  0  0  0  0
  1  2  1  0
  2  3  1  0
  3  4  2  0
  4  5  1  0
  5  6  2  0
  6  7  1  0
  7  8  1  0
  8  9  2  0
  9 10  1  0
 10 11  2  0
 11 12  1  0
 11 13  1  0
 13 14  2  0
  6 15  1  0
 15 16  2  0
 16  3  1  0
 14  8  1  0
  1 17  1  0
  1 18  1  0
  1 19  1  0
  4 20  1  0
  5 21  1  0
  7 22  1  0
  7 23  1  0
  9 24  1  0
 10 25  1  0
 12 26  1  0
 12 27  1  0
 12 28  1  0
 13 29  1  0
 14 30  1  0
 15 31  1  0
 16 32  1  0
M  CHG  2   7   1  11   1
M  END
>  <UniqueID>  (45) 
42

>  <SMILES>  (45) 
COc1ccc([NH2+]c2cc[n+](C)cc2)cc1

>  <Energy>  (45) 
33.662741159850455

>  <Genealogy>  (45) 
COc1ccc([NH2+]c2cc[n+](C)cc2)cc1 (protonated)
COc1ccc([NH2+]c2cc[n+](C)cc2)cc1 (3D coordinates assigned)
COc1ccc([NH2+]c2cc[n+](C)cc2)cc1 (optimized conformer: 33.662741159850455 kcal/mol)

>  <smiles>  (45) 
COc1ccc(Nc2cc[n+](C)cc2)cc1

>  <score_type>  (45) 
oracle

>  <origin>  (45) 
adg

>  <m_score__min__energy>  (45) 
-5.3899999999999997

>  <m_primary>  (45) 
energy

$$$$
45:0
     RDKit          3D

 56 59  0  0  1  0  0  0  0  0999 V2000
   -6.1240   18.9580  -34.3420 C   0  0  0  0  0  0  0  0  0  0  0  0
   -7.0020   18.8070  -33.2000 N   0  0  0  0  0  0  0  0  0  0  0  0
   -7.1900   17.5050  -32.5990 C   0  0  0  0  0  0  0  0  0  0  0  0
   -7.6740   19.9850  -32.6880 C   0  0  0  0  0  0  0  0  0  0  0  0
   -9.0460   19.9680  -32.5440 C   0  0  0  0  0  0  0  0  0  0  0  0
   -9.4690   21.6510  -31.8700 S   0  0  0  0  0  0  0  0  0  0  0  0
   -7.7550   22.1550  -31.8690 C   0  0  0  0  0  0  0  0  0  0  0  0
   -7.2590   23.5050  -31.4180 C   0  0  0  0  0  0  0  0  0  0  0  0
   -5.9230   23.6170  -31.9450 N   0  0  0  0  0  0  0  0  0  0  0  0
   -4.8730   23.3600  -30.9960 C   0  0  2  0  0  0  0  0  0  0  0  0
   -3.9840   22.3100  -31.6110 C   0  0  0  0  0  0  0  0  0  0  0  0
   -3.0390   21.7820  -30.9410 O   0  0  0  0  0  0  0  0  0  0  0  0
   -4.1440   21.8610  -32.9370 N   0  0  0  0  0  0  0  0  0  0  0  0
   -3.2930   20.8440  -33.5500 C   0  0  0  0  0  0  0  0  0  0  0  0
   -3.2870   19.5700  -32.7640 C   0  0  0  0  0  0  0  0  0  0  0  0
   -1.9690   18.9410  -33.1980 C   0  0  0  0  0  0  0  0  0  0  0  0
   -1.0220   20.1060  -33.2770 C   0  0  0  0  0  0  0  0  0  0  0  0
   -1.8570   21.3340  -33.4410 C   0  0  0  0  0  0  0  0  0  0  0  0
   -5.5010   22.7900  -29.7500 C   0  0  0  0  0  0  0  0  0  0  0  0
   -4.4650   22.3470  -28.7420 C   0  0  0  0  0  0  0  0  0  0  0  0
   -3.5130   23.4380  -28.5150 C   0  0  0  0  0  0  0  0  0  0  0  0
   -2.7050   23.6500  -27.4410 N   0  0  0  0  0  0  0  0  0  0  0  0
   -2.0220   24.7820  -27.7070 C   0  0  0  0  0  0  0  0  0  0  0  0
   -2.3800   25.2750  -28.9080 N   0  0  0  0  0  0  0  0  0  0  0  0
   -3.3090   24.4450  -29.4200 C   0  0  0  0  0  0  0  0  0  0  0  0
   -4.0170   24.5500  -30.7220 C   0  0  0  0  0  0  0  0  0  0  0  0
   -7.0430   21.1170  -32.3340 C   0  0  0  0  0  0  0  0  0  0  0  0
   -5.0959   19.1348  -33.9932 H   0  0  0  0  0  0  0  0  0  0  0  0
   -6.1524   18.0418  -34.9501 H   0  0  0  0  0  0  0  0  0  0  0  0
   -6.4569   19.8121  -34.9501 H   0  0  0  0  0  0  0  0  0  0  0  0
   -7.1761   17.6015  -31.5033 H   0  0  0  0  0  0  0  0  0  0  0  0
   -8.1574   17.0900  -32.9183 H   0  0  0  0  0  0  0  0  0  0  0  0
   -6.3795   16.8333  -32.9183 H   0  0  0  0  0  0  0  0  0  0  0  0
   -9.7363   19.1435  -32.7758 H   0  0  0  0  0  0  0  0  0  0  0  0
   -7.8994   24.3042  -31.8195 H   0  0  0  0  0  0  0  0  0  0  0  0
   -7.2762   23.6022  -30.3224 H   0  0  0  0  0  0  0  0  0  0  0  0
   -5.8550   22.9870  -32.7840 H   0  0  0  0  0  0  0  0  0  0  0  0
   -4.8950   22.2470  -33.5500 H   0  0  0  0  0  0  0  0  0  0  0  0
   -3.6609   20.6757  -34.5729 H   0  0  0  0  0  0  0  0  0  0  0  0
   -3.2994   19.7672  -31.6819 H   0  0  0  0  0  0  0  0  0  0  0  0
   -4.1650   18.9321  -32.9436 H   0  0  0  0  0  0  0  0  0  0  0  0
   -1.6235   18.2052  -32.4569 H   0  0  0  0  0  0  0  0  0  0  0  0
   -2.0518   18.3959  -34.1499 H   0  0  0  0  0  0  0  0  0  0  0  0
   -0.4274   20.1734  -32.3540 H   0  0  0  0  0  0  0  0  0  0  0  0
   -0.3239   19.9894  -34.1190 H   0  0  0  0  0  0  0  0  0  0  0  0
   -1.7424   21.9949  -32.5692 H   0  0  0  0  0  0  0  0  0  0  0  0
   -1.5574   21.9133  -34.3268 H   0  0  0  0  0  0  0  0  0  0  0  0
   -6.1373   23.5601  -29.2894 H   0  0  0  0  0  0  0  0  0  0  0  0
   -6.0894   21.9073  -30.0409 H   0  0  0  0  0  0  0  0  0  0  0  0
   -4.9608   22.0888  -27.7946 H   0  0  0  0  0  0  0  0  0  0  0  0
   -3.9307   21.4654  -29.1257 H   0  0  0  0  0  0  0  0  0  0  0  0
   -1.2777   25.2381  -27.0377 H   0  0  0  0  0  0  0  0  0  0  0  0
   -1.9840   26.1600  -29.3450 H   0  0  0  0  0  0  0  0  0  0  0  0
   -4.6525   25.4477  -30.7081 H   0  0  0  0  0  0  0  0  0  0  0  0
   -3.2573   24.6091  -31.5154 H   0  0  0  0  0  0  0  0  0  0  0  0
   -5.9494   21.1925  -32.4248 H   0  0  0  0  0  0  0  0  0  0  0  0
  1  2  1  0
  2  3  1  0
  2  4  1  0
  4  5  2  0
  5  6  1  0
  6  7  1  0
  7  8  1  0
  8  9  1  0
 10  9  1  6
 10 11  1  0
 11 12  2  0
 11 13  1  0
 13 14  1  0
 14 15  1  0
 15 16  1  0
 16 17  1  0
 17 18  1  0
 10 19  1  0
 19 20  1  0
 20 21  1  0
 21 22  1  0
 22 23  2  0
 23 24  1  0
 24 25  1  0
 25 26  1  0
  7 27  2  0
 27  4  1  0
 26 10  1  0
 18 14  1  0
 25 21  2  0
  1 28  1  0
  1 29  1  0
  1 30  1  0
  3 31  1  0
  3 32  1  0
  3 33  1  0
  5 34  1  0
  8 35  1  0
  8 36  1  0
  9 37  1  0
 13 38  1  0
 14 39  1  0
 15 40  1  0
 15 41  1  0
 16 42  1  0
 16 43  1  0
 17 44  1  0
 17 45  1  0
 18 46  1  0
 18 47  1  0
 19 48  1  0
 19 49  1  0
 20 50  1  0
 20 51  1  0
 23 52  1  0
 24 53  1  0
 26 54  1  0
 26 55  1  0
 27 56  1  0
M  END
>  <smiles>  (46) 
CN(C)c1csc(CNC2(C(=O)NC3CCCC3)CCc3nc[nH]c3C2)c1

>  <score_type>  (46) 
oracle

>  <origin>  (46) 
adg

>  <m_score__min__energy>  (46) 
-9

>  <m_primary>  (46) 
energy

$$$$
46:0
     RDKit          3D

 24 26  0  0  0  0  0  0  0  0999 V2000
   -9.0270   22.8640  -32.1250 O   0  0  0  0  0  0  0  0  0  0  0  0
   -7.9220   22.2760  -31.9690 C   0  0  0  0  0  0  0  0  0  0  0  0
   -6.7270   23.0470  -31.5540 C   0  0  0  0  0  0  0  0  0  0  0  0
   -6.8700   24.2230  -30.7960 C   0  0  0  0  0  0  0  0  0  0  0  0
   -5.7460   24.8540  -30.2550 C   0  0  0  0  0  0  0  0  0  0  0  0
   -4.4730   24.3140  -30.4590 C   0  0  0  0  0  0  0  0  0  0  0  0
   -3.3850   24.9240  -29.9260 F   0  0  0  0  0  0  0  0  0  0  0  0
   -4.3190   23.1570  -31.2260 C   0  0  0  0  0  0  0  0  0  0  0  0
   -5.4380   22.5330  -31.7900 C   0  0  0  0  0  0  0  0  0  0  0  0
   -5.2030   21.1720  -32.9330 S   0  0  0  0  0  0  0  0  0  0  0  0
   -6.5560   20.2240  -32.2410 C   0  0  0  0  0  0  0  0  0  0  0  0
   -6.3770   18.9430  -31.9150 C   0  0  0  0  0  0  0  0  0  0  0  0
   -7.4750   18.1630  -31.5440 O   0  0  0  0  0  0  0  0  0  0  0  0
   -8.7990   18.5540  -31.8990 C   0  0  0  0  0  0  0  0  0  0  0  0
   -9.0020   20.0460  -31.6250 C   0  0  0  0  0  0  0  0  0  0  0  0
   -7.8510   20.8410  -32.0880 N   0  0  0  0  0  0  0  0  0  0  0  0
   -7.8706   24.6481  -30.6281 H   0  0  0  0  0  0  0  0  0  0  0  0
   -5.8635   25.7768  -29.6679 H   0  0  0  0  0  0  0  0  0  0  0  0
   -3.3160   22.7351  -31.3873 H   0  0  0  0  0  0  0  0  0  0  0  0
   -5.3692   18.5027  -31.9382 H   0  0  0  0  0  0  0  0  0  0  0  0
   -8.9617   18.3558  -32.9687 H   0  0  0  0  0  0  0  0  0  0  0  0
   -9.5166   17.9780  -31.2964 H   0  0  0  0  0  0  0  0  0  0  0  0
   -9.9063   20.3863  -32.1508 H   0  0  0  0  0  0  0  0  0  0  0  0
   -9.1045   20.1869  -30.5389 H   0  0  0  0  0  0  0  0  0  0  0  0
  1  2  2  0
  2  3  1  0
  3  4  2  0
  4  5  1  0
  5  6  2  0
  6  7  1  0
  6  8  1  0
  8  9  2  0
  9 10  1  0
 10 11  1  0
 11 12  2  0
 12 13  1  0
 13 14  1  0
 14 15  1  0
 15 16  1  0
 16  2  1  0
  9  3  1  0
 16 11  1  0
  4 17  1  0
  5 18  1  0
  8 19  1  0
 12 20  1  0
 14 21  1  0
 14 22  1  0
 15 23  1  0
 15 24  1  0
M  END
>  <UniqueID>  (47) 
43

>  <SMILES>  (47) 
O=C1c2ccc(F)cc2SC2=COCCN12

>  <Energy>  (47) 
39.87742022270768

>  <Genealogy>  (47) 
O=C1c2ccc(F)cc2SC2=COCCN12 (3D coordinates assigned)
O=C1c2ccc(F)cc2SC2=COCCN12 (nonaromatic ring conformer: 39.87742022270768 kcal/mol)

>  <smiles>  (47) 
O=C1c2ccc(F)cc2SC2=COCCN12

>  <score_type>  (47) 
oracle

>  <origin>  (47) 
adg

>  <m_score__min__energy>  (47) 
-6.79

>  <m_primary>  (47) 
energy

$$$$
47:0
     RDKit          3D

 17 18  0  0  0  0  0  0  0  0999 V2000
   -6.1150   25.6740  -29.8840 C   0  0  0  0  0  0  0  0  0  0  0  0
   -5.6470   24.5150  -30.6330 N   0  0  0  0  0  0  0  0  0  0  0  0
   -4.3680   24.2200  -30.8410 N   0  0  0  0  0  0  0  0  0  0  0  0
   -4.3060   23.0430  -31.5160 C   0  0  0  0  0  0  0  0  0  0  0  0
   -5.5940   22.5920  -31.7190 C   0  0  0  0  0  0  0  0  0  0  0  0
   -6.1210   21.4590  -32.3230 C   0  0  0  0  0  0  0  0  0  0  0  0
   -7.5230   21.3270  -32.3220 C   0  0  0  0  0  0  0  0  0  0  0  0
   -8.3250   22.3280  -31.7170 C   0  0  0  0  0  0  0  0  0  0  0  0
   -7.7480   23.4240  -31.1340 N   0  0  0  0  0  0  0  0  0  0  0  0
   -6.3960   23.5310  -31.1520 C   0  0  0  0  0  0  0  0  0  0  0  0
   -6.0332   25.4713  -28.8059 H   0  0  0  0  0  0  0  0  0  0  0  0
   -5.4998   26.5491  -30.1403 H   0  0  0  0  0  0  0  0  0  0  0  0
   -7.1654   25.8765  -30.1403 H   0  0  0  0  0  0  0  0  0  0  0  0
   -3.3866   22.5363  -31.8445 H   0  0  0  0  0  0  0  0  0  0  0  0
   -5.4725   20.6982  -32.7820 H   0  0  0  0  0  0  0  0  0  0  0  0
   -7.9948   20.4500  -32.7892 H   0  0  0  0  0  0  0  0  0  0  0  0
   -9.4200   22.2229  -31.7162 H   0  0  0  0  0  0  0  0  0  0  0  0
  1  2  1  0
  2  3  1  0
  3  4  2  0
  4  5  1  0
  5  6  2  0
  6  7  1  0
  7  8  2  0
  8  9  1  0
  9 10  2  0
 10  2  1  0
 10  5  1  0
  1 11  1  0
  1 12  1  0
  1 13  1  0
  4 14  1  0
  6 15  1  0
  7 16  1  0
  8 17  1  0
M  END
>  <UniqueID>  (48) 
44

>  <SMILES>  (48) 
Cn1ncc2cccnc21

>  <Energy>  (48) 
57.917905213829435

>  <Genealogy>  (48) 
Cn1ncc2cccnc21 (3D coordinates assigned)
Cn1ncc2cccnc21 (optimized conformer: 57.917905213829435 kcal/mol)

>  <smiles>  (48) 
Cn1ncc2cccnc21

>  <score_type>  (48) 
oracle

>  <origin>  (48) 
adg

>  <m_score__min__energy>  (48) 
-4.6299999999999999

>  <m_primary>  (48) 
energy

$$$$
