0:0
     RDKit          3D

 52 53  0  0  0  0  0  0  0  0999 V2000
   -6.4740   17.6150  -33.5380 C   0  0  0  0  0  0  0  0  0  0  0  0
   -6.0980   18.9280  -34.2410 C   0  0  0  0  0  0  0  0  0  0  0  0
   -6.9240   20.0680  -33.7980 N   0  0  0  0  0  0  0  0  0  0  0  0
   -6.5910   20.5340  -32.4310 C   0  0  2  0  0  0  0  0  0  0  0  0
   -7.8040   21.2780  -31.8020 C   0  0  0  0  0  0  0  0  0  0  0  0
   -7.7840   22.7780  -32.0960 C   0  0  0  0  0  0  0  0  0  0  0  0
   -6.5340   23.3640  -31.5090 C   0  0  0  0  0  0  0  0  0  0  0  0
   -6.5580   24.5890  -30.8290 C   0  0  0  0  0  0  0  0  0  0  0  0
   -5.3860   25.1020  -30.2660 C   0  0  0  0  0  0  0  0  0  0  0  0
   -4.1780   24.4050  -30.3820 C   0  0  0  0  0  0  0  0  0  0  0  0
   -3.0310   24.9600  -29.7960 O   0  0  0  0  0  0  0  0  0  0  0  0
   -1.8980   24.2070  -29.3710 C   0  0  0  0  0  0  0  0  0  0  0  0
   -1.8880   24.1310  -27.8390 C   0  0  0  0  0  0  0  0  0  0  0  0
   -2.9680   24.9010  -27.1610 N   0  0  0  0  0  0  0  0  0  0  0  0
   -4.2390   24.1290  -27.0270 C   0  0  0  0  0  0  0  0  0  0  0  0
   -4.2080   22.6980  -27.5980 C   0  0  0  0  0  0  0  0  0  0  0  0
   -2.5510   25.5800  -25.9060 C   0  0  0  0  0  0  0  0  0  0  0  0
   -1.3370   26.5000  -26.0890 C   0  0  0  0  0  0  0  0  0  0  0  0
   -4.1520   23.1820  -31.0810 C   0  0  0  0  0  0  0  0  0  0  0  0
   -5.3290   22.6530  -31.6320 C   0  0  0  0  0  0  0  0  0  0  0  0
   -5.2830   21.3900  -32.4590 C   0  0  0  0  0  0  0  0  0  0  0  0
   -6.4331   17.7579  -32.4481 H   0  0  0  0  0  0  0  0  0  0  0  0
   -7.4925   17.3207  -33.8312 H   0  0  0  0  0  0  0  0  0  0  0  0
   -5.7656   16.8262  -33.8312 H   0  0  0  0  0  0  0  0  0  0  0  0
   -5.0431   19.1530  -34.0255 H   0  0  0  0  0  0  0  0  0  0  0  0
   -6.2726   18.7899  -35.3182 H   0  0  0  0  0  0  0  0  0  0  0  0
   -7.9320   19.7840  -33.8560 H   0  0  0  0  0  0  0  0  0  0  0  0
   -6.3874   19.6706  -31.7805 H   0  0  0  0  0  0  0  0  0  0  0  0
   -8.7314   20.8503  -32.2107 H   0  0  0  0  0  0  0  0  0  0  0  0
   -7.7473   21.1493  -30.7110 H   0  0  0  0  0  0  0  0  0  0  0  0
   -7.7953   22.9427  -33.1835 H   0  0  0  0  0  0  0  0  0  0  0  0
   -8.6685   23.2595  -31.6536 H   0  0  0  0  0  0  0  0  0  0  0  0
   -7.5010   25.1480  -30.7381 H   0  0  0  0  0  0  0  0  0  0  0  0
   -5.4134   26.0609  -29.7277 H   0  0  0  0  0  0  0  0  0  0  0  0
   -1.9535   23.1912  -29.7893 H   0  0  0  0  0  0  0  0  0  0  0  0
   -0.9771   24.6952  -29.7226 H   0  0  0  0  0  0  0  0  0  0  0  0
   -1.9895   23.0746  -27.5496 H   0  0  0  0  0  0  0  0  0  0  0  0
   -0.9394   24.5846  -27.5160 H   0  0  0  0  0  0  0  0  0  0  0  0
   -3.1990   25.6720  -27.8350 H   0  0  0  0  0  0  0  0  0  0  0  0
   -4.4837   24.0618  -25.9567 H   0  0  0  0  0  0  0  0  0  0  0  0
   -4.9883   24.6748  -27.6191 H   0  0  0  0  0  0  0  0  0  0  0  0
   -4.1923   21.9733  -26.7706 H   0  0  0  0  0  0  0  0  0  0  0  0
   -5.1027   22.5302  -28.2155 H   0  0  0  0  0  0  0  0  0  0  0  0
   -3.3069   22.5691  -28.2155 H   0  0  0  0  0  0  0  0  0  0  0  0
   -3.3942   26.1833  -25.5386 H   0  0  0  0  0  0  0  0  0  0  0  0
   -2.2608   24.7954  -25.1917 H   0  0  0  0  0  0  0  0  0  0  0  0
   -0.9483   26.7946  -25.1031 H   0  0  0  0  0  0  0  0  0  0  0  0
   -0.5537   25.9667  -26.6476 H   0  0  0  0  0  0  0  0  0  0  0  0
   -1.6386   27.3983  -26.6476 H   0  0  0  0  0  0  0  0  0  0  0  0
   -3.2027   22.6382  -31.1955 H   0  0  0  0  0  0  0  0  0  0  0  0
   -5.0825   21.6728  -33.5030 H   0  0  0  0  0  0  0  0  0  0  0  0
   -4.4951   20.7620  -32.0176 H   0  0  0  0  0  0  0  0  0  0  0  0
  1  2  1  0
  2  3  1  0
  3  4  1  0
  4  5  1  0
  5  6  1  0
  6  7  1  0
  7  8  2  0
  8  9  1  0
  9 10  2  0
 10 11  1  0
 11 12  1  0
 12 13  1  0
 13 14  1  0
 14 15  1  0
 15 16  1  0
 14 17  1  0
 17 18  1  0
 10 19  1  0
 19 20  2  0
 20 21  1  0
 21  4  1  0
 20  7  1  0
  1 22  1  0
  1 23  1  0
  1 24  1  0
  2 25  1  0
  2 26  1  0
  3 27  1  0
  4 28  1  1
  5 29  1  0
  5 30  1  0
  6 31  1  0
  6 32  1  0
  8 33  1  0
  9 34  1  0
 12 35  1  0
 12 36  1  0
 13 37  1  0
 13 38  1  0
 14 39  1  0
 15 40  1  0
 15 41  1  0
 16 42  1  0
 16 43  1  0
 16 44  1  0
 17 45  1  0
 17 46  1  0
 18 47  1  0
 18 48  1  0
 18 49  1  0
 19 50  1  0
 21 51  1  0
 21 52  1  0
M  CHG  1  14   1
M  END
>  <UniqueID>  (1) 
1

>  <SMILES>  (1) 
CCN[C@@H]1CCc2ccc(OCC[NH+](CC)CC)cc2C1

>  <Energy>  (1) 
62.869447997266164

>  <Genealogy>  (1) 
CCNC1CCc2ccc(OCC[NH+](CC)CC)cc2C1 (protonated)
CCN[C@@H]1CCc2ccc(OCC[NH+](CC)CC)cc2C1 (chirality)
CCN[C@@H]1CCc2ccc(OCC[NH+](CC)CC)cc2C1 (3D coordinates assigned)
CCN[C@@H]1CCc2ccc(OCC[NH+](CC)CC)cc2C1 (nonaromatic ring conformer: 62.869447997266164 kcal/mol)

>  <smiles>  (1) 
CCNC1CCc2ccc(OCCN(CC)CC)cc2C1

>  <score_type>  (1) 
oracle

>  <origin>  (1) 
adg

>  <m_score__min__energy>  (1) 
-7.04

>  <m_primary>  (1) 
energy

$$$$
1:0
     RDKit          3D

 33 35  0  0  0  0  0  0  0  0999 V2000
   -9.2950   18.1790  -31.6160 C   0  0  0  0  0  0  0  0  0  0  0  0
   -8.1940   19.0160  -31.9560 O   0  0  0  0  0  0  0  0  0  0  0  0
   -8.2310   20.4200  -31.9950 C   0  0  0  0  0  0  0  0  0  0  0  0
   -9.4580   21.1130  -32.0190 C   0  0  0  0  0  0  0  0  0  0  0  0
   -9.4880   22.5050  -31.9740 C   0  0  0  0  0  0  0  0  0  0  0  0
   -8.3010   23.2250  -31.8780 C   0  0  0  0  0  0  0  0  0  0  0  0
   -7.0720   22.5620  -31.8640 C   0  0  0  0  0  0  0  0  0  0  0  0
   -7.0150   21.1530  -31.9910 C   0  0  0  0  0  0  0  0  0  0  0  0
   -5.6500   20.4580  -31.9400 C   0  0  1  0  0  0  0  0  0  0  0  0
   -5.5850   19.2010  -32.7930 C   0  0  0  0  0  0  0  0  0  0  0  0
   -5.7720   19.2800  -34.1850 C   0  0  0  0  0  0  0  0  0  0  0  0
   -5.7170   18.1260  -34.9720 C   0  0  0  0  0  0  0  0  0  0  0  0
   -5.4830   16.8830  -34.3790 C   0  0  0  0  0  0  0  0  0  0  0  0
   -5.3090   16.7900  -32.9970 C   0  0  0  0  0  0  0  0  0  0  0  0
   -5.0860   15.5820  -32.4220 F   0  0  0  0  0  0  0  0  0  0  0  0
   -5.3640   17.9410  -32.2040 C   0  0  0  0  0  0  0  0  0  0  0  0
   -4.4880   21.3820  -32.3630 C   0  0  0  0  0  0  0  0  0  0  0  0
   -4.6430   22.7520  -31.7900 C   0  0  0  0  0  0  0  0  0  0  0  0
   -3.6280   23.4300  -31.4800 O   0  0  0  0  0  0  0  0  0  0  0  0
   -5.9100   23.3180  -31.6880 O   0  0  0  0  0  0  0  0  0  0  0  0
   -9.3814   18.1134  -30.5214 H   0  0  0  0  0  0  0  0  0  0  0  0
  -10.2206   18.6036  -32.0320 H   0  0  0  0  0  0  0  0  0  0  0  0
   -9.1335   17.1736  -32.0320 H   0  0  0  0  0  0  0  0  0  0  0  0
  -10.4010   20.5493  -32.0738 H   0  0  0  0  0  0  0  0  0  0  0  0
  -10.4508   23.0355  -32.0144 H   0  0  0  0  0  0  0  0  0  0  0  0
   -8.3310   24.3227  -31.8128 H   0  0  0  0  0  0  0  0  0  0  0  0
   -5.5340   20.1832  -30.8812 H   0  0  0  0  0  0  0  0  0  0  0  0
   -5.9626   20.2552  -34.6568 H   0  0  0  0  0  0  0  0  0  0  0  0
   -5.8583   18.1969  -36.0606 H   0  0  0  0  0  0  0  0  0  0  0  0
   -5.4358   15.9771  -35.0013 H   0  0  0  0  0  0  0  0  0  0  0  0
   -5.2339   17.8616  -31.1146 H   0  0  0  0  0  0  0  0  0  0  0  0
   -3.5406   20.9508  -32.0074 H   0  0  0  0  0  0  0  0  0  0  0  0
   -4.4933   21.4637  -33.4600 H   0  0  0  0  0  0  0  0  0  0  0  0
  1  2  1  0
  2  3  1  0
  3  4  2  0
  4  5  1  0
  5  6  2  0
  6  7  1  0
  7  8  2  0
  8  9  1  0
  9 10  1  0
 10 11  2  0
 11 12  1  0
 12 13  2  0
 13 14  1  0
 14 15  1  0
 14 16  2  0
  9 17  1  0
 17 18  1  0
 18 19  2  0
 18 20  1  0
  8  3  1  0
 16 10  1  0
 20  7  1  0
  1 21  1  0
  1 22  1  0
  1 23  1  0
  4 24  1  0
  5 25  1  0
  6 26  1  0
  9 27  1  1
 11 28  1  0
 12 29  1  0
 13 30  1  0
 16 31  1  0
 17 32  1  0
 17 33  1  0
M  END
>  <UniqueID>  (2) 
2

>  <SMILES>  (2) 
COc1cccc2c1[C@@H](c1cccc(F)c1)CC(=O)O2

>  <Energy>  (2) 
39.787090471689126

>  <Genealogy>  (2) 
COc1cccc2c1[C@@H](c1cccc(F)c1)CC(=O)O2 (chirality)
COc1cccc2c1[C@@H](c1cccc(F)c1)CC(=O)O2 (3D coordinates assigned)
COc1cccc2c1[C@@H](c1cccc(F)c1)CC(=O)O2 (nonaromatic ring conformer: 39.787090471689126 kcal/mol)

>  <smiles>  (2) 
COc1cccc2c1C(c1cccc(F)c1)CC(=O)O2

>  <score_type>  (2) 
oracle

>  <origin>  (2) 
adg

>  <m_score__min__energy>  (2) 
-7.1299999999999999

>  <m_primary>  (2) 
energy

$$$$
2:0
     RDKit          3D

 73 76  0  0  0  0  0  0  0  0999 V2000
   -0.4730   20.0900  -30.8880 C   0  0  0  0  0  0  0  0  0  0  0  0
   -0.4110   21.6200  -30.8870 C   0  0  0  0  0  0  0  0  0  0  0  0
   -1.2270   22.2160  -29.8140 N   0  0  0  0  0  0  0  0  0  0  0  0
   -2.1100   21.2390  -29.1340 C   0  0  0  0  0  0  0  0  0  0  0  0
   -3.5530   21.7580  -29.0140 C   0  0  0  0  0  0  0  0  0  0  0  0
   -3.6050   23.2080  -29.2570 N   0  0  0  0  0  0  0  0  0  0  0  0
   -4.5330   23.7530  -30.2230 C   0  0  0  0  0  0  0  0  0  0  0  0
   -4.2500   24.8300  -30.8140 O   0  0  0  0  0  0  0  0  0  0  0  0
   -5.8590   23.0830  -30.4900 C   0  0  0  0  0  0  0  0  0  0  0  0
   -6.0780   22.7600  -31.9740 C   0  0  0  0  0  0  0  0  0  0  0  0
   -5.0230   21.7990  -32.4770 C   0  0  0  0  0  0  0  0  0  0  0  0
   -3.7270   22.2840  -32.7180 C   0  0  0  0  0  0  0  0  0  0  0  0
   -2.7260   21.4360  -33.1940 C   0  0  0  0  0  0  0  0  0  0  0  0
   -2.9970   20.0820  -33.4470 C   0  0  0  0  0  0  0  0  0  0  0  0
   -1.9690   19.2140  -33.9690 N   0  0  0  0  0  0  0  0  0  0  0  0
   -2.1500   17.7560  -33.9650 C   0  0  0  0  0  0  0  0  0  0  0  0
   -1.2600   17.1070  -35.0300 C   0  0  0  0  0  0  0  0  0  0  0  0
    0.1720   17.4380  -34.8350 N   0  0  0  0  0  0  0  0  0  0  0  0
    0.9270   17.1800  -36.0710 C   0  0  0  0  0  0  0  0  0  0  0  0
    0.4290   18.8100  -34.3210 C   0  0  0  0  0  0  0  0  0  0  0  0
   -0.7420   19.7740  -34.5510 C   0  0  0  0  0  0  0  0  0  0  0  0
   -4.2850   19.5870  -33.1870 C   0  0  0  0  0  0  0  0  0  0  0  0
   -5.2950   20.4280  -32.6940 C   0  0  0  0  0  0  0  0  0  0  0  0
   -6.6240   19.8460  -32.4310 C   0  0  0  0  0  0  0  0  0  0  0  0
   -7.7680   20.4220  -33.0050 C   0  0  0  0  0  0  0  0  0  0  0  0
   -9.0300   19.8760  -32.7520 C   0  0  0  0  0  0  0  0  0  0  0  0
   -9.1550   18.7520  -31.9290 C   0  0  0  0  0  0  0  0  0  0  0  0
   -8.0170   18.1700  -31.3610 C   0  0  0  0  0  0  0  0  0  0  0  0
   -6.7530   18.7130  -31.6140 C   0  0  0  0  0  0  0  0  0  0  0  0
   -2.8550   24.0880  -28.3930 C   0  0  0  0  0  0  0  0  0  0  0  0
   -3.3410   24.4410  -27.1210 C   0  0  0  0  0  0  0  0  0  0  0  0
   -2.5960   25.3040  -26.3150 C   0  0  0  0  0  0  0  0  0  0  0  0
   -1.3840   25.8170  -26.7790 C   0  0  0  0  0  0  0  0  0  0  0  0
   -0.9330   25.4580  -28.0500 C   0  0  0  0  0  0  0  0  0  0  0  0
   -1.6710   24.6120  -28.8200 N   0  0  0  0  0  0  0  0  0  0  0  0
   -0.4879   19.7230  -29.8511 H   0  0  0  0  0  0  0  0  0  0  0  0
   -1.3852   19.7603  -31.4068 H   0  0  0  0  0  0  0  0  0  0  0  0
    0.4096   19.6876  -31.4068 H   0  0  0  0  0  0  0  0  0  0  0  0
    0.6351   21.9308  -30.7490 H   0  0  0  0  0  0  0  0  0  0  0  0
   -0.8133   21.9720  -31.8484 H   0  0  0  0  0  0  0  0  0  0  0  0
   -1.8310   22.9480  -30.2590 H   0  0  0  0  0  0  0  0  0  0  0  0
   -0.6050   22.7160  -29.1360 H   0  0  0  0  0  0  0  0  0  0  0  0
   -2.1155   20.3026  -29.7111 H   0  0  0  0  0  0  0  0  0  0  0  0
   -1.7203   21.0760  -28.1183 H   0  0  0  0  0  0  0  0  0  0  0  0
   -4.1843   21.2448  -29.7543 H   0  0  0  0  0  0  0  0  0  0  0  0
   -3.9183   21.5562  -27.9963 H   0  0  0  0  0  0  0  0  0  0  0  0
   -5.8996   22.1448  -29.9171 H   0  0  0  0  0  0  0  0  0  0  0  0
   -6.6499   23.7841  -30.1851 H   0  0  0  0  0  0  0  0  0  0  0  0
   -7.0709   22.3040  -32.1009 H   0  0  0  0  0  0  0  0  0  0  0  0
   -6.0082   23.6935  -32.5517 H   0  0  0  0  0  0  0  0  0  0  0  0
   -3.4986   23.3434  -32.5296 H   0  0  0  0  0  0  0  0  0  0  0  0
   -1.7155   21.8322  -33.3726 H   0  0  0  0  0  0  0  0  0  0  0  0
   -1.8796   17.3594  -32.9752 H   0  0  0  0  0  0  0  0  0  0  0  0
   -3.2020   17.5253  -34.1887 H   0  0  0  0  0  0  0  0  0  0  0  0
   -1.3823   16.0151  -34.9775 H   0  0  0  0  0  0  0  0  0  0  0  0
   -1.5675   17.4955  -36.0121 H   0  0  0  0  0  0  0  0  0  0  0  0
    1.9397   16.8339  -35.8166 H   0  0  0  0  0  0  0  0  0  0  0  0
    0.4125   16.4067  -36.6603 H   0  0  0  0  0  0  0  0  0  0  0  0
    0.9933   18.1065  -36.6603 H   0  0  0  0  0  0  0  0  0  0  0  0
    0.6222   18.7472  -33.2399 H   0  0  0  0  0  0  0  0  0  0  0  0
    1.2922   19.2085  -34.8742 H   0  0  0  0  0  0  0  0  0  0  0  0
   -0.5192   20.7397  -34.0738 H   0  0  0  0  0  0  0  0  0  0  0  0
   -0.8860   19.9192  -35.6318 H   0  0  0  0  0  0  0  0  0  0  0  0
   -4.5056   18.5254  -33.3722 H   0  0  0  0  0  0  0  0  0  0  0  0
   -7.6715   21.3043  -33.6548 H   0  0  0  0  0  0  0  0  0  0  0  0
   -9.9255   20.3308  -33.2006 H   0  0  0  0  0  0  0  0  0  0  0  0
  -10.1489   18.3255  -31.7283 H   0  0  0  0  0  0  0  0  0  0  0  0
   -8.1161   17.2851  -30.7152 H   0  0  0  0  0  0  0  0  0  0  0  0
   -5.8584   18.2507  -31.1714 H   0  0  0  0  0  0  0  0  0  0  0  0
   -4.3011   24.0400  -26.7639 H   0  0  0  0  0  0  0  0  0  0  0  0
   -2.9639   25.5792  -25.3156 H   0  0  0  0  0  0  0  0  0  0  0  0
   -0.7907   26.4968  -26.1499 H   0  0  0  0  0  0  0  0  0  0  0  0
    0.0186   25.8585  -28.4295 H   0  0  0  0  0  0  0  0  0  0  0  0
  1  2  1  0
  2  3  1  0
  3  4  1  0
  4  5  1  0
  5  6  1  0
  6  7  1  0
  7  8  2  0
  7  9  1  0
  9 10  1  0
 10 11  1  0
 11 12  2  0
 12 13  1  0
 13 14  2  0
 14 15  1  0
 15 16  1  0
 16 17  1  0
 17 18  1  0
 18 19  1  0
 18 20  1  0
 20 21  1  0
 14 22  1  0
 22 23  2  0
 23 24  1  0
 24 25  2  0
 25 26  1  0
 26 27  2  0
 27 28  1  0
 28 29  2  0
  6 30  1  0
 30 31  2  0
 31 32  1  0
 32 33  2  0
 33 34  1  0
 34 35  2  0
 23 11  1  0
 29 24  1  0
 35 30  1  0
 21 15  1  0
  1 36  1  0
  1 37  1  0
  1 38  1  0
  2 39  1  0
  2 40  1  0
  3 41  1  0
  3 42  1  0
  4 43  1  0
  4 44  1  0
  5 45  1  0
  5 46  1  0
  9 47  1  0
  9 48  1  0
 10 49  1  0
 10 50  1  0
 12 51  1  0
 13 52  1  0
 16 53  1  0
 16 54  1  0
 17 55  1  0
 17 56  1  0
 19 57  1  0
 19 58  1  0
 19 59  1  0
 20 60  1  0
 20 61  1  0
 21 62  1  0
 21 63  1  0
 22 64  1  0
 25 65  1  0
 26 66  1  0
 27 67  1  0
 28 68  1  0
 29 69  1  0
 31 70  1  0
 32 71  1  0
 33 72  1  0
 34 73  1  0
M  CHG  1   3   1
M  END
>  <UniqueID>  (3) 
3

>  <SMILES>  (3) 
CC[NH2+]CCN(C(=O)CCc1ccc(N2CCN(C)CC2)cc1-c1ccccc1)c1ccccn1

>  <Energy>  (3) 
94.80475254892856

>  <Genealogy>  (3) 
CC[NH2+]CCN(C(=O)CCc1ccc(N2CCN(C)CC2)cc1-c1ccccc1)c1ccccn1 (protonated)
CC[NH2+]CCN(C(=O)CCc1ccc(N2CCN(C)CC2)cc1-c1ccccc1)c1ccccn1 (3D coordinates assigned)
CC[NH2+]CCN(C(=O)CCc1ccc(N2CCN(C)CC2)cc1-c1ccccc1)c1ccccn1 (nonaromatic ring conformer: 94.80475254892856 kcal/mol)

>  <smiles>  (3) 
CCNCCN(C(=O)CCc1ccc(N2CCN(C)CC2)cc1-c1ccccc1)c1ccccn1

>  <score_type>  (3) 
oracle

>  <origin>  (3) 
adg

>  <m_score__min__energy>  (3) 
-9.0600000000000005

>  <m_primary>  (3) 
energy

$$$$
3:0
     RDKit          3D

 42 43  0  0  0  0  0  0  0  0999 V2000
   -3.8120   20.5310  -32.6980 C   0  0  0  0  0  0  0  0  0  0  0  0
   -3.7130   19.0130  -32.8580 C   0  0  0  0  0  0  0  0  0  0  0  0
   -5.0410   18.3680  -32.7590 N   0  0  0  0  0  0  0  0  0  0  0  0
   -5.7550   18.7800  -31.5210 C   0  0  0  0  0  0  0  0  0  0  0  0
   -7.2780   18.6350  -31.6610 C   0  0  0  0  0  0  0  0  0  0  0  0
   -7.8090   19.4580  -32.7730 N   0  0  0  0  0  0  0  0  0  0  0  0
   -8.5850   20.6470  -32.3480 C   0  0  0  0  0  0  0  0  0  0  0  0
   -7.7420   21.7450  -31.7310 C   0  0  0  0  0  0  0  0  0  0  0  0
   -6.8780   22.5120  -32.5330 C   0  0  0  0  0  0  0  0  0  0  0  0
   -6.0900   23.5160  -31.9660 C   0  0  0  0  0  0  0  0  0  0  0  0
   -6.1610   23.7790  -30.5940 C   0  0  0  0  0  0  0  0  0  0  0  0
   -5.1720   25.0570  -29.8920 S   0  0  0  0  0  0  0  0  0  0  0  0
   -5.1920   24.9250  -28.3960 O   0  0  0  0  0  0  0  0  0  0  0  0
   -5.7310   26.4050  -30.2580 O   0  0  0  0  0  0  0  0  0  0  0  0
   -3.5340   24.9290  -30.4540 N   0  0  0  0  0  0  0  0  0  0  0  0
   -2.6660   24.5220  -29.3550 C   0  0  0  0  0  0  0  0  0  0  0  0
   -7.0460   23.0430  -29.7950 C   0  0  0  0  0  0  0  0  0  0  0  0
   -7.8350   22.0370  -30.3600 C   0  0  0  0  0  0  0  0  0  0  0  0
   -6.8330   19.7400  -33.8480 C   0  0  0  0  0  0  0  0  0  0  0  0
   -5.8380   18.5820  -33.9970 C   0  0  0  0  0  0  0  0  0  0  0  0
   -3.8287   20.7866  -31.6282 H   0  0  0  0  0  0  0  0  0  0  0  0
   -2.9430   21.0075  -33.1753 H   0  0  0  0  0  0  0  0  0  0  0  0
   -4.7355   20.8906  -33.1753 H   0  0  0  0  0  0  0  0  0  0  0  0
   -3.2778   18.7852  -33.8423 H   0  0  0  0  0  0  0  0  0  0  0  0
   -3.0789   18.6220  -32.0486 H   0  0  0  0  0  0  0  0  0  0  0  0
   -5.4132   18.1493  -30.6871 H   0  0  0  0  0  0  0  0  0  0  0  0
   -5.5298   19.8406  -31.3353 H   0  0  0  0  0  0  0  0  0  0  0  0
   -7.5190   17.5790  -31.8529 H   0  0  0  0  0  0  0  0  0  0  0  0
   -7.7420   18.9828  -30.7263 H   0  0  0  0  0  0  0  0  0  0  0  0
   -9.0977   21.0587  -33.2298 H   0  0  0  0  0  0  0  0  0  0  0  0
   -9.2855   20.3085  -31.5703 H   0  0  0  0  0  0  0  0  0  0  0  0
   -6.8225   22.3197  -33.6146 H   0  0  0  0  0  0  0  0  0  0  0  0
   -5.4103   24.1028  -32.6014 H   0  0  0  0  0  0  0  0  0  0  0  0
   -3.1554   24.7515  -28.3969 H   0  0  0  0  0  0  0  0  0  0  0  0
   -2.4753   23.4406  -29.4196 H   0  0  0  0  0  0  0  0  0  0  0  0
   -1.7127   25.0670  -29.4196 H   0  0  0  0  0  0  0  0  0  0  0  0
   -7.1202   23.2578  -28.7187 H   0  0  0  0  0  0  0  0  0  0  0  0
   -8.5334   21.4701  -29.7269 H   0  0  0  0  0  0  0  0  0  0  0  0
   -7.3715   19.8773  -34.7973 H   0  0  0  0  0  0  0  0  0  0  0  0
   -6.2762   20.6525  -33.5886 H   0  0  0  0  0  0  0  0  0  0  0  0
   -6.3960   17.6615  -34.2235 H   0  0  0  0  0  0  0  0  0  0  0  0
   -5.1413   18.8356  -34.8096 H   0  0  0  0  0  0  0  0  0  0  0  0
  1  2  1  0
  2  3  1  0
  3  4  1  0
  4  5  1  0
  5  6  1  0
  6  7  1  0
  7  8  1  0
  8  9  2  0
  9 10  1  0
 10 11  2  0
 11 12  1  0
 12 13  2  0
 12 14  2  0
 12 15  1  0
 15 16  1  0
 11 17  1  0
 17 18  2  0
  6 19  1  0
 19 20  1  0
 20  3  1  0
 18  8  1  0
  1 21  1  0
  1 22  1  0
  1 23  1  0
  2 24  1  0
  2 25  1  0
  4 26  1  0
  4 27  1  0
  5 28  1  0
  5 29  1  0
  7 30  1  0
  7 31  1  0
  9 32  1  0
 10 33  1  0
 16 34  1  0
 16 35  1  0
 16 36  1  0
 17 37  1  0
 18 38  1  0
 19 39  1  0
 19 40  1  0
 20 41  1  0
 20 42  1  0
M  CHG  1  15  -1
M  END
>  <UniqueID>  (4) 
4

>  <SMILES>  (4) 
CCN1CCN(Cc2ccc(S(=O)(=O)[N-]C)cc2)CC1

>  <Energy>  (4) 
52.28750610888583

>  <Genealogy>  (4) 
CCN1CCN(Cc2ccc(S(=O)(=O)[N-]C)cc2)CC1 (protonated)
CCN1CCN(Cc2ccc(S(=O)(=O)[N-]C)cc2)CC1 (3D coordinates assigned)
CCN1CCN(Cc2ccc(S(=O)(=O)[N-]C)cc2)CC1 (nonaromatic ring conformer: 52.28750610888583 kcal/mol)

>  <smiles>  (4) 
CCN1CCN(Cc2ccc(S(=O)(=O)NC)cc2)CC1

>  <score_type>  (4) 
oracle

>  <origin>  (4) 
adg

>  <m_score__min__energy>  (4) 
-8.9199999999999999

>  <m_primary>  (4) 
energy

$$$$
4:0
     RDKit          3D

 37 39  0  0  0  0  0  0  0  0999 V2000
   -0.8850   25.4620  -27.1490 C   0  0  0  0  0  0  0  0  0  0  0  0
   -1.2920   24.3870  -28.1120 C   0  0  0  0  0  0  0  0  0  0  0  0
   -0.3780   23.3930  -28.4900 C   0  0  0  0  0  0  0  0  0  0  0  0
   -0.7470   22.4160  -29.4180 C   0  0  0  0  0  0  0  0  0  0  0  0
   -2.0300   22.4200  -29.9720 C   0  0  0  0  0  0  0  0  0  0  0  0
   -2.9610   23.4030  -29.5950 C   0  0  0  0  0  0  0  0  0  0  0  0
   -4.2900   23.4330  -30.1410 N   0  0  0  0  0  0  0  0  0  0  0  0
   -4.8550   24.5710  -30.8150 C   0  0  0  0  0  0  0  0  0  0  0  0
   -4.2470   25.6740  -30.8440 O   0  0  0  0  0  0  0  0  0  0  0  0
   -6.1380   24.4300  -31.5740 C   0  0  0  0  0  0  0  0  0  0  0  0
   -7.1450   23.0670  -30.8890 S   0  0  0  0  0  0  0  0  0  0  0  0
   -6.3260   21.7670  -31.8290 C   0  0  0  0  0  0  0  0  0  0  0  0
   -5.0940   22.0260  -32.3420 N   0  0  0  0  0  0  0  0  0  0  0  0
   -4.4200   21.1010  -33.0740 C   0  0  0  0  0  0  0  0  0  0  0  0
   -4.9720   19.8850  -33.3100 N   0  0  0  0  0  0  0  0  0  0  0  0
   -6.1960   19.5640  -32.8190 C   0  0  0  0  0  0  0  0  0  0  0  0
   -6.7450   18.3040  -33.0820 C   0  0  0  0  0  0  0  0  0  0  0  0
   -8.0080   17.9720  -32.5860 C   0  0  0  0  0  0  0  0  0  0  0  0
   -8.7240   18.8930  -31.8170 C   0  0  0  0  0  0  0  0  0  0  0  0
   -8.1830   20.1530  -31.5410 C   0  0  0  0  0  0  0  0  0  0  0  0
   -6.9170   20.5050  -32.0480 C   0  0  0  0  0  0  0  0  0  0  0  0
   -2.5700   24.4040  -28.6910 C   0  0  0  0  0  0  0  0  0  0  0  0
   -1.0213   25.1020  -26.1186 H   0  0  0  0  0  0  0  0  0  0  0  0
    0.1724   25.7183  -27.3110 H   0  0  0  0  0  0  0  0  0  0  0  0
   -1.5075   26.3543  -27.3110 H   0  0  0  0  0  0  0  0  0  0  0  0
    0.6322   23.3825  -28.0547 H   0  0  0  0  0  0  0  0  0  0  0  0
   -0.0249   21.6407  -29.7137 H   0  0  0  0  0  0  0  0  0  0  0  0
   -2.3123   21.6508  -30.7060 H   0  0  0  0  0  0  0  0  0  0  0  0
   -4.7920   22.5210  -30.2340 H   0  0  0  0  0  0  0  0  0  0  0  0
   -6.7053   25.3697  -31.5026 H   0  0  0  0  0  0  0  0  0  0  0  0
   -5.9050   24.2048  -32.6252 H   0  0  0  0  0  0  0  0  0  0  0  0
   -3.4242   21.3390  -33.4762 H   0  0  0  0  0  0  0  0  0  0  0  0
   -6.1809   17.5735  -33.6805 H   0  0  0  0  0  0  0  0  0  0  0  0
   -8.4397   16.9834  -32.8013 H   0  0  0  0  0  0  0  0  0  0  0  0
   -9.7173   18.6261  -31.4270 H   0  0  0  0  0  0  0  0  0  0  0  0
   -8.7473   20.8702  -30.9269 H   0  0  0  0  0  0  0  0  0  0  0  0
   -3.2731   25.2100  -28.4341 H   0  0  0  0  0  0  0  0  0  0  0  0
  1  2  1  0
  2  3  2  0
  3  4  1  0
  4  5  2  0
  5  6  1  0
  6  7  1  0
  7  8  1  0
  8  9  2  0
  8 10  1  0
 10 11  1  0
 11 12  1  0
 12 13  2  0
 13 14  1  0
 14 15  2  0
 15 16  1  0
 16 17  2  0
 17 18  1  0
 18 19  2  0
 19 20  1  0
 20 21  2  0
  6 22  2  0
 22  2  1  0
 21 12  1  0
 21 16  1  0
  1 23  1  0
  1 24  1  0
  1 25  1  0
  3 26  1  0
  4 27  1  0
  5 28  1  0
  7 29  1  0
 10 30  1  0
 10 31  1  0
 14 32  1  0
 17 33  1  0
 18 34  1  0
 19 35  1  0
 20 36  1  0
 22 37  1  0
M  END
>  <UniqueID>  (5) 
5

>  <SMILES>  (5) 
Cc1cccc(NC(=O)CSc2ncnc3ccccc23)c1

>  <Energy>  (5) 
38.25238916155198

>  <Genealogy>  (5) 
Cc1cccc(NC(=O)CSc2ncnc3ccccc23)c1 (3D coordinates assigned)
Cc1cccc(NC(=O)CSc2ncnc3ccccc23)c1 (optimized conformer: 38.25238916155198 kcal/mol)

>  <smiles>  (5) 
Cc1cccc(NC(=O)CSc2ncnc3ccccc23)c1

>  <score_type>  (5) 
oracle

>  <origin>  (5) 
adg

>  <m_score__min__energy>  (5) 
-9.2699999999999996

>  <m_primary>  (5) 
energy

$$$$
5:0
     RDKit          3D

 44 46  0  0  0  0  0  0  0  0999 V2000
   -2.9490   21.0580  -33.2350 C   0  0  0  0  0  0  0  0  0  0  0  0
   -4.2180   21.9010  -33.1560 C   0  0  0  0  0  0  0  0  0  0  0  0
   -4.8900   21.7630  -31.7850 C   0  0  0  0  0  0  0  0  0  0  0  0
   -6.3490   21.8620  -31.9060 N   0  0  0  0  0  0  0  0  0  0  0  0
   -7.2590   20.9310  -32.3000 C   0  0  0  0  0  0  0  0  0  0  0  0
   -6.9930   19.5200  -32.6640 C   0  0  0  0  0  0  0  0  0  0  0  0
   -6.1820   19.1210  -33.7230 C   0  0  0  0  0  0  0  0  0  0  0  0
   -6.1200   17.7320  -33.8930 C   0  0  0  0  0  0  0  0  0  0  0  0
   -6.8860   17.0230  -32.9800 C   0  0  0  0  0  0  0  0  0  0  0  0
   -7.6400   18.1290  -31.9660 S   0  0  0  0  0  0  0  0  0  0  0  0
   -8.5060   21.4490  -32.3310 N   0  0  0  0  0  0  0  0  0  0  0  0
   -8.4000   22.7120  -31.9560 N   0  0  0  0  0  0  0  0  0  0  0  0
   -7.1060   22.9640  -31.7080 C   0  0  0  0  0  0  0  0  0  0  0  0
   -6.4950   24.5670  -31.1740 S   0  0  0  0  0  0  0  0  0  0  0  0
   -5.6490   23.8950  -29.7030 C   0  0  0  0  0  0  0  0  0  0  0  0
   -4.2080   24.3250  -29.6810 C   0  0  0  0  0  0  0  0  0  0  0  0
   -3.8400   25.2450  -30.4620 O   0  0  0  0  0  0  0  0  0  0  0  0
   -3.2330   23.6820  -28.8310 N   0  0  0  0  0  0  0  0  0  0  0  0
   -3.5060   22.3770  -28.2150 C   0  0  0  0  0  0  0  0  0  0  0  0
   -2.1950   21.6410  -27.9230 C   0  0  0  0  0  0  0  0  0  0  0  0
   -1.3020   22.4690  -27.2030 O   0  0  0  0  0  0  0  0  0  0  0  0
   -0.9130   23.5580  -28.0150 C   0  0  0  0  0  0  0  0  0  0  0  0
   -2.1070   24.4700  -28.3110 C   0  0  0  0  0  0  0  0  0  0  0  0
   -2.5993   20.8257  -32.2183 H   0  0  0  0  0  0  0  0  0  0  0  0
   -3.1633   20.1221  -33.7718 H   0  0  0  0  0  0  0  0  0  0  0  0
   -2.1694   21.6184  -33.7718 H   0  0  0  0  0  0  0  0  0  0  0  0
   -3.9586   22.9567  -33.3240 H   0  0  0  0  0  0  0  0  0  0  0  0
   -4.9200   21.5473  -33.9255 H   0  0  0  0  0  0  0  0  0  0  0  0
   -4.6297   20.7855  -31.3528 H   0  0  0  0  0  0  0  0  0  0  0  0
   -4.5347   22.5765  -31.1354 H   0  0  0  0  0  0  0  0  0  0  0  0
   -5.6405   19.8303  -34.3661 H   0  0  0  0  0  0  0  0  0  0  0  0
   -5.5196   17.2486  -34.6777 H   0  0  0  0  0  0  0  0  0  0  0  0
   -6.9827   15.9285  -32.9290 H   0  0  0  0  0  0  0  0  0  0  0  0
   -9.1970   23.3810  -31.8830 H   0  0  0  0  0  0  0  0  0  0  0  0
   -6.1508   24.2646  -28.7966 H   0  0  0  0  0  0  0  0  0  0  0  0
   -5.6916   22.7964  -29.7393 H   0  0  0  0  0  0  0  0  0  0  0  0
   -4.0546   22.5280  -27.2736 H   0  0  0  0  0  0  0  0  0  0  0  0
   -4.1078   21.7728  -28.9098 H   0  0  0  0  0  0  0  0  0  0  0  0
   -2.4115   20.7415  -27.3280 H   0  0  0  0  0  0  0  0  0  0  0  0
   -1.7259   21.3650  -28.8789 H   0  0  0  0  0  0  0  0  0  0  0  0
   -0.1372   24.1376  -27.4934 H   0  0  0  0  0  0  0  0  0  0  0  0
   -0.5240   23.1667  -28.9666 H   0  0  0  0  0  0  0  0  0  0  0  0
   -2.4155   24.9764  -27.3845 H   0  0  0  0  0  0  0  0  0  0  0  0
   -1.8113   25.2135  -29.0658 H   0  0  0  0  0  0  0  0  0  0  0  0
  1  2  1  0
  2  3  1  0
  3  4  1  0
  4  5  1  0
  5  6  1  0
  6  7  2  0
  7  8  1  0
  8  9  2  0
  9 10  1  0
  5 11  2  0
 11 12  1  0
 12 13  2  0
 13 14  1  0
 14 15  1  0
 15 16  1  0
 16 17  2  0
 16 18  1  0
 18 19  1  0
 19 20  1  0
 20 21  1  0
 21 22  1  0
 22 23  1  0
 13  4  1  0
 23 18  1  0
 10  6  1  0
  1 24  1  0
  1 25  1  0
  1 26  1  0
  2 27  1  0
  2 28  1  0
  3 29  1  0
  3 30  1  0
  7 31  1  0
  8 32  1  0
  9 33  1  0
 12 34  1  0
 15 35  1  0
 15 36  1  0
 19 37  1  0
 19 38  1  0
 20 39  1  0
 20 40  1  0
 22 41  1  0
 22 42  1  0
 23 43  1  0
 23 44  1  0
M  CHG  1  12   1
M  END
>  <UniqueID>  (6) 
6

>  <SMILES>  (6) 
CCCn1c(-c2cccs2)n[nH+]c1SCC(=O)N1CCOCC1

>  <Energy>  (6) 
101.52676571711908

>  <Genealogy>  (6) 
CCCn1c(-c2cccs2)n[nH+]c1SCC(=O)N1CCOCC1 (protonated)
CCCn1c(-c2cccs2)n[nH+]c1SCC(=O)N1CCOCC1 (3D coordinates assigned)
CCCn1c(-c2cccs2)n[nH+]c1SCC(=O)N1CCOCC1 (nonaromatic ring conformer: 101.52676571711908 kcal/mol)

>  <smiles>  (6) 
CCCn1c(SCC(=O)N2CCOCC2)nnc1-c1cccs1

>  <score_type>  (6) 
oracle

>  <origin>  (6) 
adg

>  <m_score__min__energy>  (6) 
-7.6900000000000004

>  <m_primary>  (6) 
energy

$$$$
6:0
     RDKit          3D

 34 35  0  0  0  0  0  0  0  0999 V2000
   -3.5100   24.4950  -27.1170 C   0  0  0  0  0  0  0  0  0  0  0  0
   -2.3540   24.7250  -28.0840 C   0  0  0  0  0  0  0  0  0  0  0  0
   -2.8330   25.2080  -29.3410 O   0  0  0  0  0  0  0  0  0  0  0  0
   -3.8580   24.6250  -30.1030 C   0  0  0  0  0  0  0  0  0  0  0  0
   -5.0800   25.3010  -30.1930 C   0  0  0  0  0  0  0  0  0  0  0  0
   -6.1370   24.7720  -30.9380 C   0  0  0  0  0  0  0  0  0  0  0  0
   -5.9870   23.5480  -31.6160 C   0  0  0  0  0  0  0  0  0  0  0  0
   -7.0530   22.9730  -32.3970 N   0  0  0  0  0  0  0  0  0  0  0  0
   -8.1490   22.1800  -31.8410 C   0  0  0  0  0  0  0  0  0  0  0  0
   -7.9550   20.7290  -32.1560 C   0  0  0  0  0  0  0  0  0  0  0  0
   -8.7080   19.6860  -31.6540 C   0  0  0  0  0  0  0  0  0  0  0  0
   -8.1720   18.5400  -32.2040 C   0  0  0  0  0  0  0  0  0  0  0  0
   -7.1230   18.9620  -32.9970 C   0  0  0  0  0  0  0  0  0  0  0  0
   -6.2420   18.0780  -33.8130 C   0  0  0  0  0  0  0  0  0  0  0  0
   -7.0160   20.2700  -32.9500 O   0  0  0  0  0  0  0  0  0  0  0  0
   -4.7620   22.8700  -31.5260 C   0  0  0  0  0  0  0  0  0  0  0  0
   -3.7050   23.4000  -30.7800 C   0  0  0  0  0  0  0  0  0  0  0  0
   -3.1429   24.5680  -26.0827 H   0  0  0  0  0  0  0  0  0  0  0  0
   -4.2859   25.2564  -27.2853 H   0  0  0  0  0  0  0  0  0  0  0  0
   -3.9353   23.4946  -27.2853 H   0  0  0  0  0  0  0  0  0  0  0  0
   -1.6643   25.4652  -27.6522 H   0  0  0  0  0  0  0  0  0  0  0  0
   -1.8354   23.7688  -28.2478 H   0  0  0  0  0  0  0  0  0  0  0  0
   -5.2099   26.2604  -29.6709 H   0  0  0  0  0  0  0  0  0  0  0  0
   -7.0918   25.3153  -30.9949 H   0  0  0  0  0  0  0  0  0  0  0  0
   -7.0610   23.1380  -33.4290 H   0  0  0  0  0  0  0  0  0  0  0  0
   -8.1757   22.3136  -30.7495 H   0  0  0  0  0  0  0  0  0  0  0  0
   -9.0962   22.5184  -32.2863 H   0  0  0  0  0  0  0  0  0  0  0  0
   -9.5585   19.7547  -30.9598 H   0  0  0  0  0  0  0  0  0  0  0  0
   -8.5098   17.5054  -32.0442 H   0  0  0  0  0  0  0  0  0  0  0  0
   -5.6247   17.4586  -33.1456 H   0  0  0  0  0  0  0  0  0  0  0  0
   -6.8618   17.4276  -34.4477 H   0  0  0  0  0  0  0  0  0  0  0  0
   -5.5895   18.6956  -34.4477 H   0  0  0  0  0  0  0  0  0  0  0  0
   -4.6317   21.9107  -32.0482 H   0  0  0  0  0  0  0  0  0  0  0  0
   -2.7498   22.8576  -30.7217 H   0  0  0  0  0  0  0  0  0  0  0  0
  1  2  1  0
  2  3  1  0
  3  4  1  0
  4  5  2  0
  5  6  1  0
  6  7  2  0
  7  8  1  0
  8  9  1  0
  9 10  1  0
 10 11  2  0
 11 12  1  0
 12 13  2  0
 13 14  1  0
 13 15  1  0
  7 16  1  0
 16 17  2  0
 17  4  1  0
 15 10  1  0
  1 18  1  0
  1 19  1  0
  1 20  1  0
  2 21  1  0
  2 22  1  0
  5 23  1  0
  6 24  1  0
  8 25  1  0
  9 26  1  0
  9 27  1  0
 11 28  1  0
 12 29  1  0
 14 30  1  0
 14 31  1  0
 14 32  1  0
 16 33  1  0
 17 34  1  0
M  END
>  <UniqueID>  (7) 
7

>  <SMILES>  (7) 
CCOc1ccc(NCc2ccc(C)o2)cc1

>  <Energy>  (7) 
54.73541809744905

>  <Genealogy>  (7) 
CCOc1ccc(NCc2ccc(C)o2)cc1 (3D coordinates assigned)
CCOc1ccc(NCc2ccc(C)o2)cc1 (optimized conformer: 54.73541809744905 kcal/mol)

>  <smiles>  (7) 
CCOc1ccc(NCc2ccc(C)o2)cc1

>  <score_type>  (7) 
oracle

>  <origin>  (7) 
adg

>  <m_score__min__energy>  (7) 
-6.9400000000000004

>  <m_primary>  (7) 
energy

$$$$
7:0
     RDKit          3D

 42 44  0  0  0  0  0  0  0  0999 V2000
   -8.1160   18.5990  -31.3430 C   0  0  0  0  0  0  0  0  0  0  0  0
   -7.1670   19.1150  -32.3250 N   0  0  0  0  0  0  0  0  0  0  0  0
   -6.7880   18.4910  -33.4570 C   0  0  0  0  0  0  0  0  0  0  0  0
   -5.9460   19.3300  -34.1550 C   0  0  0  0  0  0  0  0  0  0  0  0
   -5.8020   20.4720  -33.4590 N   0  0  0  0  0  0  0  0  0  0  0  0
   -6.5410   20.3160  -32.3400 C   0  0  0  0  0  0  0  0  0  0  0  0
   -6.6950   21.3900  -31.2880 C   0  0  0  0  0  0  0  0  0  0  0  0
   -6.3160   22.7430  -31.7530 N   0  0  0  0  0  0  0  0  0  0  0  0
   -7.3160   23.8060  -31.5360 C   0  0  0  0  0  0  0  0  0  0  0  0
   -7.1790   24.4860  -30.1610 C   0  0  0  0  0  0  0  0  0  0  0  0
   -5.7240   24.5940  -29.6740 C   0  0  0  0  0  0  0  0  0  0  0  0
   -4.7170   24.4810  -30.8220 C   0  0  1  0  0  0  0  0  0  0  0  0
   -3.3530   24.6450  -30.2800 N   0  0  0  0  0  0  0  0  0  0  0  0
   -3.1880   24.0530  -28.9460 C   0  0  0  0  0  0  0  0  0  0  0  0
   -2.2950   24.9050  -28.1010 C   0  0  0  0  0  0  0  0  0  0  0  0
   -1.5670   25.9330  -28.5880 N   0  0  0  0  0  0  0  0  0  0  0  0
   -0.8190   26.5270  -27.6180 C   0  0  0  0  0  0  0  0  0  0  0  0
   -0.9460   25.9700  -26.3520 C   0  0  0  0  0  0  0  0  0  0  0  0
   -2.0310   24.6900  -26.4550 S   0  0  0  0  0  0  0  0  0  0  0  0
   -4.8970   23.1260  -31.5590 C   0  0  0  0  0  0  0  0  0  0  0  0
   -7.7415   18.8026  -30.3290 H   0  0  0  0  0  0  0  0  0  0  0  0
   -9.0898   19.0918  -31.4800 H   0  0  0  0  0  0  0  0  0  0  0  0
   -8.2318   17.5137  -31.4800 H   0  0  0  0  0  0  0  0  0  0  0  0
   -7.0977   17.4833  -33.7710 H   0  0  0  0  0  0  0  0  0  0  0  0
   -5.4708   19.1033  -35.1208 H   0  0  0  0  0  0  0  0  0  0  0  0
   -5.2540   21.3080  -33.7550 H   0  0  0  0  0  0  0  0  0  0  0  0
   -7.7478   21.4152  -30.9701 H   0  0  0  0  0  0  0  0  0  0  0  0
   -6.0118   21.1318  -30.4654 H   0  0  0  0  0  0  0  0  0  0  0  0
   -7.1927   24.5690  -32.3187 H   0  0  0  0  0  0  0  0  0  0  0  0
   -8.3102   23.3368  -31.5747 H   0  0  0  0  0  0  0  0  0  0  0  0
   -7.5995   25.5001  -30.2303 H   0  0  0  0  0  0  0  0  0  0  0  0
   -7.7185   23.8604  -29.4347 H   0  0  0  0  0  0  0  0  0  0  0  0
   -5.5880   25.5667  -29.1787 H   0  0  0  0  0  0  0  0  0  0  0  0
   -5.5385   23.7606  -28.9805 H   0  0  0  0  0  0  0  0  0  0  0  0
   -4.8902   25.2750  -31.5633 H   0  0  0  0  0  0  0  0  0  0  0  0
   -3.1110   25.6630  -30.2300 H   0  0  0  0  0  0  0  0  0  0  0  0
   -4.1726   23.9701  -28.4625 H   0  0  0  0  0  0  0  0  0  0  0  0
   -2.7326   23.0574  -29.0527 H   0  0  0  0  0  0  0  0  0  0  0  0
   -0.1620   27.3854  -27.8219 H   0  0  0  0  0  0  0  0  0  0  0  0
   -0.4278   26.3071  -25.4421 H   0  0  0  0  0  0  0  0  0  0  0  0
   -4.4182   23.2003  -32.5465 H   0  0  0  0  0  0  0  0  0  0  0  0
   -4.4356   22.3510  -30.9293 H   0  0  0  0  0  0  0  0  0  0  0  0
  1  2  1  0
  2  3  1  0
  3  4  2  0
  4  5  1  0
  5  6  2  0
  6  7  1  0
  7  8  1  0
  8  9  1  0
  9 10  1  0
 10 11  1  0
 11 12  1  0
 12 13  1  0
 13 14  1  0
 14 15  1  0
 15 16  2  0
 16 17  1  0
 17 18  2  0
 18 19  1  0
 12 20  1  0
  6  2  1  0
 20  8  1  0
 19 15  1  0
  1 21  1  0
  1 22  1  0
  1 23  1  0
  3 24  1  0
  4 25  1  0
  5 26  1  0
  7 27  1  0
  7 28  1  0
  9 29  1  0
  9 30  1  0
 10 31  1  0
 10 32  1  0
 11 33  1  0
 11 34  1  0
 12 35  1  6
 13 36  1  0
 14 37  1  0
 14 38  1  0
 17 39  1  0
 18 40  1  0
 20 41  1  0
 20 42  1  0
M  CHG  1   5   1
M  END
>  <UniqueID>  (8) 
8

>  <SMILES>  (8) 
Cn1cc[nH+]c1CN1CCC[C@@H](NCc2nccs2)C1

>  <Energy>  (8) 
113.43353368784008

>  <Genealogy>  (8) 
Cn1cc[nH+]c1CN1CCCC(NCc2nccs2)C1 (protonated)
Cn1cc[nH+]c1CN1CCC[C@@H](NCc2nccs2)C1 (chirality)
Cn1cc[nH+]c1CN1CCC[C@@H](NCc2nccs2)C1 (3D coordinates assigned)
Cn1cc[nH+]c1CN1CCC[C@@H](NCc2nccs2)C1 (nonaromatic ring conformer: 113.43353368784008 kcal/mol)

>  <smiles>  (8) 
Cn1ccnc1CN1CCCC(NCc2nccs2)C1

>  <score_type>  (8) 
oracle

>  <origin>  (8) 
adg

>  <m_score__min__energy>  (8) 
-7.3799999999999999

>  <m_primary>  (8) 
energy

$$$$
8:0
     RDKit          3D

 46 48  0  0  0  0  0  0  0  0999 V2000
   -6.0230   25.2620  -30.0630 C   0  0  0  0  0  0  0  0  0  0  0  0
   -5.1280   24.0350  -30.2690 C   0  0  0  0  0  0  0  0  0  0  0  0
   -4.1280   23.9130  -29.1110 C   0  0  0  0  0  0  0  0  0  0  0  0
   -5.9850   22.7640  -30.3990 C   0  0  0  0  0  0  0  0  0  0  0  0
   -6.1450   22.3680  -31.8060 N   0  0  0  0  0  0  0  0  0  0  0  0
   -6.8840   23.2560  -32.7020 C   0  0  0  0  0  0  0  0  0  0  0  0
   -5.1850   21.4700  -32.3810 C   0  0  0  0  0  0  0  0  0  0  0  0
   -3.9030   21.8920  -32.5430 N   0  0  0  0  0  0  0  0  0  0  0  0
   -2.9510   21.0840  -33.0740 C   0  0  0  0  0  0  0  0  0  0  0  0
   -1.6380   21.5420  -33.2320 C   0  0  0  0  0  0  0  0  0  0  0  0
   -0.6680   20.6990  -33.7840 C   0  0  0  0  0  0  0  0  0  0  0  0
   -1.0060   19.4000  -34.1770 C   0  0  0  0  0  0  0  0  0  0  0  0
   -2.3170   18.9370  -34.0230 C   0  0  0  0  0  0  0  0  0  0  0  0
   -3.2970   19.7760  -33.4690 C   0  0  0  0  0  0  0  0  0  0  0  0
   -4.5800   19.3480  -33.3060 N   0  0  0  0  0  0  0  0  0  0  0  0
   -5.5360   20.1590  -32.7670 C   0  0  0  0  0  0  0  0  0  0  0  0
   -6.8740   19.6650  -32.5990 N   0  0  0  0  0  0  0  0  0  0  0  0
   -8.0390   20.3970  -33.0700 C   0  0  0  0  0  0  0  0  0  0  0  0
   -9.2060   19.9130  -32.2200 C   0  0  0  0  0  0  0  0  0  0  0  0
   -8.7330   18.6240  -31.5580 C   0  0  0  0  0  0  0  0  0  0  0  0
   -7.2120   18.6720  -31.5950 C   0  0  0  0  0  0  0  0  0  0  0  0
   -6.1550   25.4429  -28.9860 H   0  0  0  0  0  0  0  0  0  0  0  0
   -5.5526   26.1411  -30.5276 H   0  0  0  0  0  0  0  0  0  0  0  0
   -7.0038   25.0826  -30.5276 H   0  0  0  0  0  0  0  0  0  0  0  0
   -4.5597   24.1570  -31.2029 H   0  0  0  0  0  0  0  0  0  0  0  0
   -4.6658   23.9786  -28.1537 H   0  0  0  0  0  0  0  0  0  0  0  0
   -3.6095   22.9449  -29.1747 H   0  0  0  0  0  0  0  0  0  0  0  0
   -3.3920   24.7280  -29.1747 H   0  0  0  0  0  0  0  0  0  0  0  0
   -5.4970   21.9453  -29.8498 H   0  0  0  0  0  0  0  0  0  0  0  0
   -6.9812   22.9734  -29.9822 H   0  0  0  0  0  0  0  0  0  0  0  0
   -7.4759   23.9672  -32.1072 H   0  0  0  0  0  0  0  0  0  0  0  0
   -6.1757   23.8090  -33.3365 H   0  0  0  0  0  0  0  0  0  0  0  0
   -7.5564   22.6599  -33.3365 H   0  0  0  0  0  0  0  0  0  0  0  0
   -1.3694   22.5629  -32.9227 H   0  0  0  0  0  0  0  0  0  0  0  0
    0.3639   21.0588  -33.9094 H   0  0  0  0  0  0  0  0  0  0  0  0
   -0.2386   18.7405  -34.6085 H   0  0  0  0  0  0  0  0  0  0  0  0
   -2.5801   17.9158  -34.3359 H   0  0  0  0  0  0  0  0  0  0  0  0
   -4.8430   18.3840  -33.6130 H   0  0  0  0  0  0  0  0  0  0  0  0
   -7.8911   21.4788  -32.9367 H   0  0  0  0  0  0  0  0  0  0  0  0
   -8.2196   20.2237  -34.1411 H   0  0  0  0  0  0  0  0  0  0  0  0
   -9.4614   20.6636  -31.4575 H   0  0  0  0  0  0  0  0  0  0  0  0
  -10.1078   19.7480  -32.8279 H   0  0  0  0  0  0  0  0  0  0  0  0
   -9.0894   18.5742  -30.5185 H   0  0  0  0  0  0  0  0  0  0  0  0
   -9.1225   17.7359  -32.0772 H   0  0  0  0  0  0  0  0  0  0  0  0
   -6.8137   18.9683  -30.6134 H   0  0  0  0  0  0  0  0  0  0  0  0
   -6.7807   17.6890  -31.8352 H   0  0  0  0  0  0  0  0  0  0  0  0
  1  2  1  0
  2  3  1  0
  2  4  1  0
  4  5  1  0
  5  6  1  0
  5  7  1  0
  7  8  2  0
  8  9  1  0
  9 10  2  0
 10 11  1  0
 11 12  2  0
 12 13  1  0
 13 14  2  0
 14 15  1  0
 15 16  2  0
 16 17  1  0
 17 18  1  0
 18 19  1  0
 19 20  1  0
 20 21  1  0
 16  7  1  0
 21 17  1  0
 14  9  1  0
  1 22  1  0
  1 23  1  0
  1 24  1  0
  2 25  1  0
  3 26  1  0
  3 27  1  0
  3 28  1  0
  4 29  1  0
  4 30  1  0
  6 31  1  0
  6 32  1  0
  6 33  1  0
 10 34  1  0
 11 35  1  0
 12 36  1  0
 13 37  1  0
 15 38  1  0
 18 39  1  0
 18 40  1  0
 19 41  1  0
 19 42  1  0
 20 43  1  0
 20 44  1  0
 21 45  1  0
 21 46  1  0
M  CHG  1  15   1
M  END
>  <UniqueID>  (9) 
9

>  <SMILES>  (9) 
CC(C)CN(C)c1nc2ccccc2[nH+]c1N1CCCC1

>  <Energy>  (9) 
52.37689892747063

>  <Genealogy>  (9) 
CC(C)CN(C)c1nc2ccccc2[nH+]c1N1CCCC1 (protonated)
CC(C)CN(C)c1nc2ccccc2[nH+]c1N1CCCC1 (3D coordinates assigned)
CC(C)CN(C)c1nc2ccccc2[nH+]c1N1CCCC1 (nonaromatic ring conformer: 52.37689892747063 kcal/mol)

>  <smiles>  (9) 
CC(C)CN(C)c1nc2ccccc2nc1N1CCCC1

>  <score_type>  (9) 
oracle

>  <origin>  (9) 
adg

>  <m_score__min__energy>  (9) 
-6.4400000000000004

>  <m_primary>  (9) 
energy

$$$$
9:0
     RDKit          3D

 57 60  0  0  0  0  0  0  0  0999 V2000
   -2.7640   23.7600  -29.5900 C   0  0  0  0  0  0  0  0  0  0  0  0
   -2.4390   22.4520  -30.3010 C   0  0  0  0  0  0  0  0  0  0  0  0
   -3.5400   22.0690  -31.1820 N   0  0  0  0  0  0  0  0  0  0  0  0
   -4.8520   22.1180  -30.8800 C   0  0  0  0  0  0  0  0  0  0  0  0
   -5.5620   21.6030  -31.9520 C   0  0  0  0  0  0  0  0  0  0  0  0
   -7.0290   21.4140  -32.0420 C   0  0  0  0  0  0  0  0  0  0  0  0
   -7.8750   22.5090  -31.7880 C   0  0  0  0  0  0  0  0  0  0  0  0
   -9.2250   22.3570  -31.8090 N   0  0  0  0  0  0  0  0  0  0  0  0
   -9.8060   21.1610  -32.0800 C   0  0  0  0  0  0  0  0  0  0  0  0
   -9.0150   20.0470  -32.3550 C   0  0  0  0  0  0  0  0  0  0  0  0
   -7.6180   20.1640  -32.3450 C   0  0  0  0  0  0  0  0  0  0  0  0
   -6.8250   19.0250  -32.7190 N   0  0  0  0  0  0  0  0  0  0  0  0
   -6.1670   18.2400  -31.6660 C   0  0  0  0  0  0  0  0  0  0  0  0
   -5.2780   17.1380  -32.2570 C   0  0  0  0  0  0  0  0  0  0  0  0
   -4.4220   17.6790  -33.3240 N   0  0  0  0  0  0  0  0  0  0  0  0
   -3.1030   17.1240  -33.5240 C   0  0  0  0  0  0  0  0  0  0  0  0
   -2.8080   16.0120  -33.0060 O   0  0  0  0  0  0  0  0  0  0  0  0
   -2.0510   17.8280  -34.3430 C   0  0  0  0  0  0  0  0  0  0  0  0
   -1.6640   19.1020  -33.7020 N   0  0  0  0  0  0  0  0  0  0  0  0
   -0.7920   19.8990  -34.5900 C   0  0  0  0  0  0  0  0  0  0  0  0
   -0.2840   21.1640  -33.8650 C   0  0  0  0  0  0  0  0  0  0  0  0
   -0.8410   21.2840  -32.5700 O   0  0  0  0  0  0  0  0  0  0  0  0
   -0.4780   20.1590  -31.7930 C   0  0  0  0  0  0  0  0  0  0  0  0
   -0.9720   18.8410  -32.4250 C   0  0  0  0  0  0  0  0  0  0  0  0
   -4.9730   18.6520  -34.2840 C   0  0  0  0  0  0  0  0  0  0  0  0
   -6.4890   18.7990  -34.1290 C   0  0  0  0  0  0  0  0  0  0  0  0
   -4.5990   21.2300  -32.8780 C   0  0  0  0  0  0  0  0  0  0  0  0
   -3.3860   21.5260  -32.3780 N   0  0  0  0  0  0  0  0  0  0  0  0
   -2.7255   23.6051  -28.5016 H   0  0  0  0  0  0  0  0  0  0  0  0
   -2.0289   24.5261  -29.8776 H   0  0  0  0  0  0  0  0  0  0  0  0
   -3.7722   24.0930  -29.8776 H   0  0  0  0  0  0  0  0  0  0  0  0
   -1.5240   22.5806  -30.8979 H   0  0  0  0  0  0  0  0  0  0  0  0
   -2.2896   21.6627  -29.5495 H   0  0  0  0  0  0  0  0  0  0  0  0
   -5.2846   22.5008  -29.9439 H   0  0  0  0  0  0  0  0  0  0  0  0
   -7.4402   23.4958  -31.5707 H   0  0  0  0  0  0  0  0  0  0  0  0
  -10.9023   21.0707  -32.0826 H   0  0  0  0  0  0  0  0  0  0  0  0
   -9.4856   19.0784  -32.5793 H   0  0  0  0  0  0  0  0  0  0  0  0
   -5.5453   18.9115  -31.0555 H   0  0  0  0  0  0  0  0  0  0  0  0
   -6.9465   17.7627  -31.0539 H   0  0  0  0  0  0  0  0  0  0  0  0
   -4.6434   16.7202  -31.4615 H   0  0  0  0  0  0  0  0  0  0  0  0
   -5.9214   16.3537  -32.6823 H   0  0  0  0  0  0  0  0  0  0  0  0
   -1.1651   17.1814  -34.4276 H   0  0  0  0  0  0  0  0  0  0  0  0
   -2.4607   18.0416  -35.3412 H   0  0  0  0  0  0  0  0  0  0  0  0
    0.0697   19.2867  -34.8942 H   0  0  0  0  0  0  0  0  0  0  0  0
   -1.3725   20.2064  -35.4723 H   0  0  0  0  0  0  0  0  0  0  0  0
    0.8112   21.1097  -33.7784 H   0  0  0  0  0  0  0  0  0  0  0  0
   -0.5898   22.0422  -34.4526 H   0  0  0  0  0  0  0  0  0  0  0  0
    0.6182   20.1240  -31.7080 H   0  0  0  0  0  0  0  0  0  0  0  0
   -0.9488   20.2609  -30.8041 H   0  0  0  0  0  0  0  0  0  0  0  0
   -0.1096   18.1835  -32.6094 H   0  0  0  0  0  0  0  0  0  0  0  0
   -1.6779   18.3594  -31.7323 H   0  0  0  0  0  0  0  0  0  0  0  0
   -4.5000   19.6301  -34.1123 H   0  0  0  0  0  0  0  0  0  0  0  0
   -4.7645   18.2883  -35.3010 H   0  0  0  0  0  0  0  0  0  0  0  0
   -6.8362   19.6534  -34.7286 H   0  0  0  0  0  0  0  0  0  0  0  0
   -6.9805   17.8782  -34.4763 H   0  0  0  0  0  0  0  0  0  0  0  0
   -4.7946   20.7692  -33.8575 H   0  0  0  0  0  0  0  0  0  0  0  0
   -2.4670   21.3380  -32.8370 H   0  0  0  0  0  0  0  0  0  0  0  0
  1  2  1  0
  2  3  1  0
  3  4  1  0
  4  5  2  0
  5  6  1  0
  6  7  2  0
  7  8  1  0
  8  9  2  0
  9 10  1  0
 10 11  2  0
 11 12  1  0
 12 13  1  0
 13 14  1  0
 14 15  1  0
 15 16  1  0
 16 17  2  0
 16 18  1  0
 18 19  1  0
 19 20  1  0
 20 21  1  0
 21 22  1  0
 22 23  1  0
 23 24  1  0
 15 25  1  0
 25 26  1  0
  5 27  1  0
 27 28  2  0
 28  3  1  0
 11  6  1  0
 26 12  1  0
 24 19  1  0
  1 29  1  0
  1 30  1  0
  1 31  1  0
  2 32  1  0
  2 33  1  0
  4 34  1  0
  7 35  1  0
  9 36  1  0
 10 37  1  0
 13 38  1  0
 13 39  1  0
 14 40  1  0
 14 41  1  0
 18 42  1  0
 18 43  1  0
 20 44  1  0
 20 45  1  0
 21 46  1  0
 21 47  1  0
 23 48  1  0
 23 49  1  0
 24 50  1  0
 24 51  1  0
 25 52  1  0
 25 53  1  0
 26 54  1  0
 26 55  1  0
 27 56  1  0
 28 57  1  0
M  CHG  1  28   1
M  END
>  <UniqueID>  (10) 
10

>  <SMILES>  (10) 
CCn1cc(-c2cnccc2N2CCN(C(=O)CN3CCOCC3)CC2)c[nH+]1

>  <Energy>  (10) 
105.38177281004113

>  <Genealogy>  (10) 
CCn1cc(-c2cnccc2N2CCN(C(=O)CN3CCOCC3)CC2)c[nH+]1 (protonated)
CCn1cc(-c2cnccc2N2CCN(C(=O)CN3CCOCC3)CC2)c[nH+]1 (3D coordinates assigned)
CCn1cc(-c2cnccc2N2CCN(C(=O)CN3CCOCC3)CC2)c[nH+]1 (nonaromatic ring conformer: 105.38177281004113 kcal/mol)

>  <smiles>  (10) 
CCn1cc(-c2cnccc2N2CCN(C(=O)CN3CCOCC3)CC2)cn1

>  <score_type>  (10) 
oracle

>  <origin>  (10) 
adg

>  <m_score__min__energy>  (10) 
-8.4600000000000009

>  <m_primary>  (10) 
energy

$$$$
10:0
     RDKit          3D

 41 43  0  0  0  0  0  0  0  0999 V2000
   -1.6090   25.3500  -27.4910 C   0  0  0  0  0  0  0  0  0  0  0  0
   -1.9910   25.3420  -28.8630 O   0  0  0  0  0  0  0  0  0  0  0  0
   -2.2350   24.1800  -29.6130 C   0  0  0  0  0  0  0  0  0  0  0  0
   -1.3990   23.0510  -29.5330 C   0  0  0  0  0  0  0  0  0  0  0  0
   -1.6740   21.9130  -30.2940 C   0  0  0  0  0  0  0  0  0  0  0  0
   -2.7860   21.8810  -31.1480 C   0  0  0  0  0  0  0  0  0  0  0  0
   -3.0760   20.6800  -31.9580 C   0  0  0  0  0  0  0  0  0  0  0  0
   -4.1900   20.5330  -32.7080 N   0  0  0  0  0  0  0  0  0  0  0  0
   -4.0300   19.3140  -33.2560 C   0  0  0  0  0  0  0  0  0  0  0  0
   -5.0580   18.6400  -34.1180 C   0  0  0  0  0  0  0  0  0  0  0  0
   -6.2360   19.4970  -34.3300 N   0  0  0  0  0  0  0  0  0  0  0  0
   -7.2110   19.3210  -33.2800 C   0  0  0  0  0  0  0  0  0  0  0  0
   -7.8770   20.4270  -32.7270 C   0  0  0  0  0  0  0  0  0  0  0  0
   -8.7930   20.2450  -31.6900 C   0  0  0  0  0  0  0  0  0  0  0  0
   -9.0350   18.9580  -31.2090 C   0  0  0  0  0  0  0  0  0  0  0  0
   -8.3810   17.8940  -31.7470 N   0  0  0  0  0  0  0  0  0  0  0  0
   -7.4850   18.0440  -32.7590 C   0  0  0  0  0  0  0  0  0  0  0  0
   -2.8510   18.7600  -32.8150 C   0  0  0  0  0  0  0  0  0  0  0  0
   -2.2820   19.6330  -32.0220 O   0  0  0  0  0  0  0  0  0  0  0  0
   -3.6200   23.0070  -31.2300 C   0  0  0  0  0  0  0  0  0  0  0  0
   -3.3490   24.1590  -30.4650 C   0  0  0  0  0  0  0  0  0  0  0  0
   -4.1640   25.3010  -30.5240 O   0  0  0  0  0  0  0  0  0  0  0  0
   -5.5440   25.3290  -30.1730 C   0  0  0  0  0  0  0  0  0  0  0  0
   -2.5095   25.3311  -26.8595 H   0  0  0  0  0  0  0  0  0  0  0  0
   -0.9924   24.4646  -27.2769 H   0  0  0  0  0  0  0  0  0  0  0  0
   -1.0300   26.2605  -27.2769 H   0  0  0  0  0  0  0  0  0  0  0  0
   -0.5236   23.0650  -28.8670 H   0  0  0  0  0  0  0  0  0  0  0  0
   -1.0141   21.0358  -30.2232 H   0  0  0  0  0  0  0  0  0  0  0  0
   -4.6072   18.4057  -35.0936 H   0  0  0  0  0  0  0  0  0  0  0  0
   -5.3877   17.7237  -33.6064 H   0  0  0  0  0  0  0  0  0  0  0  0
   -5.9250   20.4970  -34.3420 H   0  0  0  0  0  0  0  0  0  0  0  0
   -6.6610   19.2950  -35.2650 H   0  0  0  0  0  0  0  0  0  0  0  0
   -7.6764   21.4378  -33.1117 H   0  0  0  0  0  0  0  0  0  0  0  0
   -9.3192   21.1080  -31.2560 H   0  0  0  0  0  0  0  0  0  0  0  0
   -9.7563   18.8036  -30.3929 H   0  0  0  0  0  0  0  0  0  0  0  0
   -6.9724   17.1626  -33.1718 H   0  0  0  0  0  0  0  0  0  0  0  0
   -2.4585   17.7670  -33.0795 H   0  0  0  0  0  0  0  0  0  0  0  0
   -4.4938   22.9900  -31.8980 H   0  0  0  0  0  0  0  0  0  0  0  0
   -5.6437   25.3310  -29.0775 H   0  0  0  0  0  0  0  0  0  0  0  0
   -6.0088   26.2368  -30.5852 H   0  0  0  0  0  0  0  0  0  0  0  0
   -6.0453   24.4408  -30.5852 H   0  0  0  0  0  0  0  0  0  0  0  0
  1  2  1  0
  2  3  1  0
  3  4  2  0
  4  5  1  0
  5  6  2  0
  6  7  1  0
  7  8  2  0
  8  9  1  0
  9 10  1  0
 10 11  1  0
 11 12  1  0
 12 13  2  0
 13 14  1  0
 14 15  2  0
 15 16  1  0
 16 17  2  0
  9 18  2  0
 18 19  1  0
  6 20  1  0
 20 21  2  0
 21 22  1  0
 22 23  1  0
 21  3  1  0
 19  7  1  0
 17 12  1  0
  1 24  1  0
  1 25  1  0
  1 26  1  0
  4 27  1  0
  5 28  1  0
 10 29  1  0
 10 30  1  0
 11 31  1  0
 11 32  1  0
 13 33  1  0
 14 34  1  0
 15 35  1  0
 17 36  1  0
 18 37  1  0
 20 38  1  0
 23 39  1  0
 23 40  1  0
 23 41  1  0
M  CHG  1  11   1
M  END
>  <UniqueID>  (11) 
11

>  <SMILES>  (11) 
COc1ccc(-c2nc(C[NH2+]c3cccnc3)co2)cc1OC

>  <Energy>  (11) 
72.35610509075245

>  <Genealogy>  (11) 
COc1ccc(-c2nc(C[NH2+]c3cccnc3)co2)cc1OC (protonated)
COc1ccc(-c2nc(C[NH2+]c3cccnc3)co2)cc1OC (3D coordinates assigned)
COc1ccc(-c2nc(C[NH2+]c3cccnc3)co2)cc1OC (optimized conformer: 72.35610509075245 kcal/mol)

>  <smiles>  (11) 
COc1ccc(-c2nc(CNc3cccnc3)co2)cc1OC

>  <score_type>  (11) 
oracle

>  <origin>  (11) 
adg

>  <m_score__min__energy>  (11) 
-7.0499999999999998

>  <m_primary>  (11) 
energy

$$$$
11:0
     RDKit          3D

 40 41  0  0  0  0  0  0  0  0999 V2000
   -0.8800   26.3850  -28.0650 C   0  0  0  0  0  0  0  0  0  0  0  0
   -1.6800   25.6310  -28.9670 O   0  0  0  0  0  0  0  0  0  0  0  0
   -2.1880   24.3660  -28.6560 C   0  0  0  0  0  0  0  0  0  0  0  0
   -2.7720   24.1800  -27.5520 O   0  0  0  0  0  0  0  0  0  0  0  0
   -2.0780   23.2500  -29.6290 C   0  0  0  0  0  0  0  0  0  0  0  0
   -0.8010   22.7460  -29.9440 C   0  0  0  0  0  0  0  0  0  0  0  0
   -0.6550   21.6680  -30.8200 C   0  0  0  0  0  0  0  0  0  0  0  0
   -1.7770   21.0820  -31.4000 C   0  0  0  0  0  0  0  0  0  0  0  0
   -3.0500   21.5730  -31.1100 C   0  0  0  0  0  0  0  0  0  0  0  0
   -3.2180   22.6520  -30.2250 C   0  0  0  0  0  0  0  0  0  0  0  0
   -4.5330   23.1860  -30.0050 N   0  0  0  0  0  0  0  0  0  0  0  0
   -4.9160   24.5120  -30.3960 C   0  0  0  0  0  0  0  0  0  0  0  0
   -4.0580   25.3250  -30.8370 O   0  0  0  0  0  0  0  0  0  0  0  0
   -6.3540   24.9220  -30.3230 C   0  0  0  0  0  0  0  0  0  0  0  0
   -7.1860   23.9410  -31.0620 N   0  0  0  0  0  0  0  0  0  0  0  0
   -6.5270   23.5470  -32.3180 C   0  0  0  0  0  0  0  0  0  0  0  0
   -7.4750   22.7350  -30.2550 C   0  0  0  0  0  0  0  0  0  0  0  0
   -7.9930   21.6200  -31.1120 C   0  0  0  0  0  0  0  0  0  0  0  0
   -9.3010   21.4730  -31.5560 C   0  0  0  0  0  0  0  0  0  0  0  0
   -9.4970   20.3180  -32.3210 C   0  0  0  0  0  0  0  0  0  0  0  0
   -8.3460   19.5580  -32.4850 C   0  0  0  0  0  0  0  0  0  0  0  0
   -7.0840   20.3220  -31.6770 S   0  0  0  0  0  0  0  0  0  0  0  0
   -1.1524   26.1282  -27.0307 H   0  0  0  0  0  0  0  0  0  0  0  0
    0.1817   26.1514  -28.2333 H   0  0  0  0  0  0  0  0  0  0  0  0
   -1.0504   27.4586  -28.2333 H   0  0  0  0  0  0  0  0  0  0  0  0
    0.0913   23.2066  -29.4950 H   0  0  0  0  0  0  0  0  0  0  0  0
    0.3483   21.2812  -31.0521 H   0  0  0  0  0  0  0  0  0  0  0  0
   -1.6594   20.2313  -32.0874 H   0  0  0  0  0  0  0  0  0  0  0  0
   -3.9314   21.1111  -31.5787 H   0  0  0  0  0  0  0  0  0  0  0  0
   -5.2730   22.5510  -29.6280 H   0  0  0  0  0  0  0  0  0  0  0  0
   -6.6731   24.9545  -29.2708 H   0  0  0  0  0  0  0  0  0  0  0  0
   -6.4746   25.9182  -30.7736 H   0  0  0  0  0  0  0  0  0  0  0  0
   -5.6034   22.9948  -32.0899 H   0  0  0  0  0  0  0  0  0  0  0  0
   -7.2035   22.9050  -32.9013 H   0  0  0  0  0  0  0  0  0  0  0  0
   -6.2817   24.4468  -32.9013 H   0  0  0  0  0  0  0  0  0  0  0  0
   -6.5504   22.4058  -29.7583 H   0  0  0  0  0  0  0  0  0  0  0  0
   -8.2453   22.9897  -29.5121 H   0  0  0  0  0  0  0  0  0  0  0  0
  -10.1019   22.1921  -31.3291 H   0  0  0  0  0  0  0  0  0  0  0  0
  -10.4699   20.0385  -32.7515 H   0  0  0  0  0  0  0  0  0  0  0  0
   -8.2723   18.6159  -33.0480 H   0  0  0  0  0  0  0  0  0  0  0  0
  1  2  1  0
  2  3  1  0
  3  4  2  0
  3  5  1  0
  5  6  2  0
  6  7  1  0
  7  8  2  0
  8  9  1  0
  9 10  2  0
 10 11  1  0
 11 12  1  0
 12 13  2  0
 12 14  1  0
 14 15  1  0
 15 16  1  0
 15 17  1  0
 17 18  1  0
 18 19  2  0
 19 20  1  0
 20 21  2  0
 21 22  1  0
 10  5  1  0
 22 18  1  0
  1 23  1  0
  1 24  1  0
  1 25  1  0
  6 26  1  0
  7 27  1  0
  8 28  1  0
  9 29  1  0
 11 30  1  0
 14 31  1  0
 14 32  1  0
 16 33  1  0
 16 34  1  0
 16 35  1  0
 17 36  1  0
 17 37  1  0
 19 38  1  0
 20 39  1  0
 21 40  1  0
M  END
>  <UniqueID>  (12) 
12

>  <SMILES>  (12) 
COC(=O)c1ccccc1NC(=O)CN(C)Cc1cccs1

>  <Energy>  (12) 
68.3767909407267

>  <Genealogy>  (12) 
COC(=O)c1ccccc1NC(=O)CN(C)Cc1cccs1 (3D coordinates assigned)
COC(=O)c1ccccc1NC(=O)CN(C)Cc1cccs1 (optimized conformer: 68.3767909407267 kcal/mol)

>  <smiles>  (12) 
COC(=O)c1ccccc1NC(=O)CN(C)Cc1cccs1

>  <score_type>  (12) 
oracle

>  <origin>  (12) 
adg

>  <m_score__min__energy>  (12) 
-7.8200000000000003

>  <m_primary>  (12) 
energy

$$$$
12:0
     RDKit          3D

 67 71  0  0  0  0  0  0  0  0999 V2000
   -3.8290   21.9050  -32.2580 C   0  0  0  0  0  0  0  0  0  0  0  0
   -3.2160   20.6750  -31.8840 O   0  0  0  0  0  0  0  0  0  0  0  0
   -2.9390   19.6230  -32.7710 C   0  0  0  0  0  0  0  0  0  0  0  0
   -1.8350   19.6430  -33.6370 C   0  0  0  0  0  0  0  0  0  0  0  0
   -1.5990   18.5720  -34.4980 C   0  0  0  0  0  0  0  0  0  0  0  0
   -2.4580   17.4640  -34.5100 C   0  0  0  0  0  0  0  0  0  0  0  0
   -2.2100   16.4280  -35.3610 N   0  0  0  0  0  0  0  0  0  0  0  0
   -3.0190   15.3410  -35.4130 C   0  0  0  0  0  0  0  0  0  0  0  0
   -4.1320   15.2500  -34.5850 C   0  0  0  0  0  0  0  0  0  0  0  0
   -4.4290   16.2780  -33.6750 C   0  0  0  0  0  0  0  0  0  0  0  0
   -5.6780   16.1120  -32.8120 C   0  0  1  0  0  0  0  0  0  0  0  0
   -5.4230   16.5160  -31.4910 O   0  0  0  0  0  0  0  0  0  0  0  0
   -6.8680   16.9040  -33.4130 C   0  0  0  0  0  0  0  0  0  0  0  0
   -7.0320   18.2730  -32.8730 N   0  0  0  0  0  0  0  0  0  0  0  0
   -6.4770   19.3220  -33.7640 C   0  0  0  0  0  0  0  0  0  0  0  0
   -7.0120   20.7320  -33.4340 C   0  0  0  0  0  0  0  0  0  0  0  0
   -7.3350   20.8550  -31.9300 C   0  0  0  0  0  0  0  0  0  0  0  0
   -7.7350   22.2180  -31.5230 N   0  0  0  0  0  0  0  0  0  0  0  0
   -7.5230   22.5200  -30.0980 C   0  0  0  0  0  0  0  0  0  0  0  0
   -6.2270   23.2510  -29.9350 C   0  0  0  0  0  0  0  0  0  0  0  0
   -6.0950   24.5740  -30.3830 C   0  0  0  0  0  0  0  0  0  0  0  0
   -4.8880   25.2450  -30.1860 C   0  0  0  0  0  0  0  0  0  0  0  0
   -3.8280   24.5980  -29.5500 C   0  0  0  0  0  0  0  0  0  0  0  0
   -3.9960   23.2800  -29.0970 C   0  0  0  0  0  0  0  0  0  0  0  0
   -5.1870   22.6490  -29.2950 N   0  0  0  0  0  0  0  0  0  0  0  0
   -2.9250   22.6300  -28.3870 N   0  0  0  0  0  0  0  0  0  0  0  0
   -3.1350   21.3180  -27.7680 C   0  0  0  0  0  0  0  0  0  0  0  0
   -1.7000   23.3560  -28.1740 C   0  0  0  0  0  0  0  0  0  0  0  0
   -0.8360   22.9360  -27.3570 O   0  0  0  0  0  0  0  0  0  0  0  0
   -1.4140   24.5860  -28.9850 C   0  0  0  0  0  0  0  0  0  0  0  0
   -2.6180   25.2660  -29.3440 O   0  0  0  0  0  0  0  0  0  0  0  0
   -8.3710   19.8010  -31.4700 C   0  0  0  0  0  0  0  0  0  0  0  0
   -8.3930   18.5680  -32.3870 C   0  0  0  0  0  0  0  0  0  0  0  0
   -3.5810   17.4230  -33.6400 C   0  0  0  0  0  0  0  0  0  0  0  0
   -3.8030   18.5220  -32.7800 C   0  0  0  0  0  0  0  0  0  0  0  0
   -4.1083   22.4654  -31.3536 H   0  0  0  0  0  0  0  0  0  0  0  0
   -3.1222   22.5004  -32.8546 H   0  0  0  0  0  0  0  0  0  0  0  0
   -4.7299   21.6992  -32.8546 H   0  0  0  0  0  0  0  0  0  0  0  0
   -1.1535   20.5065  -33.6366 H   0  0  0  0  0  0  0  0  0  0  0  0
   -0.7313   18.5966  -35.1737 H   0  0  0  0  0  0  0  0  0  0  0  0
   -1.3830   16.4590  -36.0010 H   0  0  0  0  0  0  0  0  0  0  0  0
   -2.7929   14.5253  -36.1155 H   0  0  0  0  0  0  0  0  0  0  0  0
   -4.7848   14.3666  -34.6429 H   0  0  0  0  0  0  0  0  0  0  0  0
   -5.9505   15.0464  -32.7976 H   0  0  0  0  0  0  0  0  0  0  0  0
   -6.1080   17.1970  -31.2590 H   0  0  0  0  0  0  0  0  0  0  0  0
   -6.7160   16.9797  -34.4998 H   0  0  0  0  0  0  0  0  0  0  0  0
   -7.7794   16.3507  -33.1426 H   0  0  0  0  0  0  0  0  0  0  0  0
   -5.3820   19.3283  -33.6597 H   0  0  0  0  0  0  0  0  0  0  0  0
   -6.7878   19.0821  -34.7915 H   0  0  0  0  0  0  0  0  0  0  0  0
   -6.2503   21.4790  -33.7020 H   0  0  0  0  0  0  0  0  0  0  0  0
   -7.9340   20.9037  -34.0088 H   0  0  0  0  0  0  0  0  0  0  0  0
   -6.3888   20.6455  -31.4095 H   0  0  0  0  0  0  0  0  0  0  0  0
   -8.7550   22.3410  -31.7310 H   0  0  0  0  0  0  0  0  0  0  0  0
   -8.3477   23.1472  -29.7286 H   0  0  0  0  0  0  0  0  0  0  0  0
   -7.4923   21.5827  -29.5232 H   0  0  0  0  0  0  0  0  0  0  0  0
   -6.9349   25.0771  -30.8845 H   0  0  0  0  0  0  0  0  0  0  0  0
   -4.7721   26.2828  -30.5316 H   0  0  0  0  0  0  0  0  0  0  0  0
   -3.1183   21.4223  -26.6731 H   0  0  0  0  0  0  0  0  0  0  0  0
   -4.1090   20.9155  -28.0832 H   0  0  0  0  0  0  0  0  0  0  0  0
   -2.3353   20.6316  -28.0832 H   0  0  0  0  0  0  0  0  0  0  0  0
   -0.7821   25.2653  -28.3940 H   0  0  0  0  0  0  0  0  0  0  0  0
   -0.9011   24.2798  -29.9087 H   0  0  0  0  0  0  0  0  0  0  0  0
   -8.1185   19.4785  -30.4491 H   0  0  0  0  0  0  0  0  0  0  0  0
   -9.3664   20.2675  -31.5085 H   0  0  0  0  0  0  0  0  0  0  0  0
   -8.7738   17.7029  -31.8243 H   0  0  0  0  0  0  0  0  0  0  0  0
   -9.0464   18.7716  -33.2482 H   0  0  0  0  0  0  0  0  0  0  0  0
   -4.6713   18.5120  -32.1048 H   0  0  0  0  0  0  0  0  0  0  0  0
  1  2  1  0
  2  3  1  0
  3  4  2  0
  4  5  1  0
  5  6  2  0
  6  7  1  0
  7  8  2  0
  8  9  1  0
  9 10  2  0
 10 11  1  0
 11 12  1  0
 11 13  1  0
 13 14  1  0
 14 15  1  0
 15 16  1  0
 16 17  1  0
 17 18  1  0
 18 19  1  0
 19 20  1  0
 20 21  2  0
 21 22  1  0
 22 23  2  0
 23 24  1  0
 24 25  2  0
 24 26  1  0
 26 27  1  0
 26 28  1  0
 28 29  2  0
 28 30  1  0
 30 31  1  0
 17 32  1  0
 32 33  1  0
 10 34  1  0
 34 35  2  0
 35  3  1  0
 34  6  1  0
 33 14  1  0
 25 20  1  0
 31 23  1  0
  1 36  1  0
  1 37  1  0
  1 38  1  0
  4 39  1  0
  5 40  1  0
  7 41  1  0
  8 42  1  0
  9 43  1  0
 11 44  1  1
 12 45  1  0
 13 46  1  0
 13 47  1  0
 15 48  1  0
 15 49  1  0
 16 50  1  0
 16 51  1  0
 17 52  1  0
 18 53  1  0
 19 54  1  0
 19 55  1  0
 21 56  1  0
 22 57  1  0
 27 58  1  0
 27 59  1  0
 27 60  1  0
 30 61  1  0
 30 62  1  0
 32 63  1  0
 32 64  1  0
 33 65  1  0
 33 66  1  0
 35 67  1  0
M  CHG  1   7   1
M  END
>  <UniqueID>  (13) 
13

>  <SMILES>  (13) 
COc1ccc2[nH+]ccc([C@@H](O)CN3CCC(NCc4ccc5c(n4)N(C)C(=O)CO5)CC3)c2c1

>  <Energy>  (13) 
93.04343769758869

>  <Genealogy>  (13) 
COc1ccc2[nH+]ccc(C(O)CN3CCC(NCc4ccc5c(n4)N(C)C(=O)CO5)CC3)c2c1 (protonated)
COc1ccc2[nH+]ccc([C@@H](O)CN3CCC(NCc4ccc5c(n4)N(C)C(=O)CO5)CC3)c2c1 (chirality)
COc1ccc2[nH+]ccc([C@@H](O)CN3CCC(NCc4ccc5c(n4)N(C)C(=O)CO5)CC3)c2c1 (3D coordinates assigned)
COc1ccc2[nH+]ccc([C@@H](O)CN3CCC(NCc4ccc5c(n4)N(C)C(=O)CO5)CC3)c2c1 (nonaromatic ring conformer: 93.04343769758869 kcal/mol)

>  <smiles>  (13) 
COc1ccc2nccc(C(O)CN3CCC(NCc4ccc5c(n4)N(C)C(=O)CO5)CC3)c2c1

>  <score_type>  (13) 
oracle

>  <origin>  (13) 
adg

>  <m_score__min__energy>  (13) 
-11.94

>  <m_primary>  (13) 
energy

$$$$
13:0
     RDKit          3D

 48 49  0  0  0  0  0  0  0  0999 V2000
   -3.3070   16.2900  -35.3270 C   0  0  0  0  0  0  0  0  0  0  0  0
   -3.9890   16.7890  -34.1810 O   0  0  0  0  0  0  0  0  0  0  0  0
   -4.1130   18.1460  -33.8440 C   0  0  0  0  0  0  0  0  0  0  0  0
   -2.9700   18.9510  -33.6660 C   0  0  0  0  0  0  0  0  0  0  0  0
   -3.0930   20.3000  -33.3390 C   0  0  0  0  0  0  0  0  0  0  0  0
   -4.3520   20.8670  -33.1750 C   0  0  0  0  0  0  0  0  0  0  0  0
   -5.5080   20.0900  -33.3280 C   0  0  0  0  0  0  0  0  0  0  0  0
   -6.8610   20.7480  -33.1830 C   0  0  0  0  0  0  0  0  0  0  0  0
   -7.8470   19.7870  -32.6660 N   0  0  0  0  0  0  0  0  0  0  0  0
   -8.8300   20.4640  -31.8050 C   0  0  0  0  0  0  0  0  0  0  0  0
   -8.5270   21.9650  -31.6590 C   0  0  0  0  0  0  0  0  0  0  0  0
   -7.5030   22.2590  -30.5510 C   0  0  0  0  0  0  0  0  0  0  0  0
   -6.2550   22.7930  -31.1370 N   0  0  0  0  0  0  0  0  0  0  0  0
   -5.1350   22.6740  -30.1810 C   0  0  0  0  0  0  0  0  0  0  0  0
   -3.9630   23.5760  -30.6030 C   0  0  0  0  0  0  0  0  0  0  0  0
   -4.2860   24.9590  -30.6980 O   0  0  0  0  0  0  0  0  0  0  0  0
   -5.6780   25.2150  -30.7980 C   0  0  0  0  0  0  0  0  0  0  0  0
   -6.4190   24.1750  -31.6580 C   0  0  0  0  0  0  0  0  0  0  0  0
   -5.4020   18.7240  -33.6800 C   0  0  0  0  0  0  0  0  0  0  0  0
   -6.6010   18.0060  -33.8530 O   0  0  0  0  0  0  0  0  0  0  0  0
   -6.8310   16.6400  -33.5290 C   0  0  0  0  0  0  0  0  0  0  0  0
   -2.4577   15.6686  -35.0066 H   0  0  0  0  0  0  0  0  0  0  0  0
   -3.9985   15.6831  -35.9299 H   0  0  0  0  0  0  0  0  0  0  0  0
   -2.9378   17.1328  -35.9299 H   0  0  0  0  0  0  0  0  0  0  0  0
   -1.9697   18.5096  -33.7865 H   0  0  0  0  0  0  0  0  0  0  0  0
   -2.1920   20.9178  -33.2103 H   0  0  0  0  0  0  0  0  0  0  0  0
   -4.4412   21.9341  -32.9231 H   0  0  0  0  0  0  0  0  0  0  0  0
   -6.7793   21.5941  -32.4849 H   0  0  0  0  0  0  0  0  0  0  0  0
   -7.1925   21.1023  -34.1702 H   0  0  0  0  0  0  0  0  0  0  0  0
   -7.3450   19.0550  -32.1120 H   0  0  0  0  0  0  0  0  0  0  0  0
   -8.3410   19.3360  -33.4720 H   0  0  0  0  0  0  0  0  0  0  0  0
   -9.8308   20.3444  -32.2457 H   0  0  0  0  0  0  0  0  0  0  0  0
   -8.7796   20.0072  -30.8056 H   0  0  0  0  0  0  0  0  0  0  0  0
   -8.1287   22.3380  -32.6141 H   0  0  0  0  0  0  0  0  0  0  0  0
   -9.4661   22.4682  -31.3852 H   0  0  0  0  0  0  0  0  0  0  0  0
   -7.9235   22.9998  -29.8550 H   0  0  0  0  0  0  0  0  0  0  0  0
   -7.2768   21.3256  -30.0148 H   0  0  0  0  0  0  0  0  0  0  0  0
   -5.4803   22.9747  -29.1808 H   0  0  0  0  0  0  0  0  0  0  0  0
   -4.7907   21.6294  -30.1674 H   0  0  0  0  0  0  0  0  0  0  0  0
   -3.1576   23.4615  -29.8625 H   0  0  0  0  0  0  0  0  0  0  0  0
   -3.6686   23.2538  -31.6127 H   0  0  0  0  0  0  0  0  0  0  0  0
   -6.1100   25.2057  -29.7864 H   0  0  0  0  0  0  0  0  0  0  0  0
   -5.7991   26.1932  -31.2863 H   0  0  0  0  0  0  0  0  0  0  0  0
   -7.4904   24.4240  -31.6694 H   0  0  0  0  0  0  0  0  0  0  0  0
   -5.9886   24.2066  -32.6698 H   0  0  0  0  0  0  0  0  0  0  0  0
   -6.8511   16.5208  -32.4357 H   0  0  0  0  0  0  0  0  0  0  0  0
   -7.7956   16.3206  -33.9504 H   0  0  0  0  0  0  0  0  0  0  0  0
   -6.0242   16.0223  -33.9504 H   0  0  0  0  0  0  0  0  0  0  0  0
  1  2  1  0
  2  3  1  0
  3  4  2  0
  4  5  1  0
  5  6  2  0
  6  7  1  0
  7  8  1  0
  8  9  1  0
  9 10  1  0
 10 11  1  0
 11 12  1  0
 12 13  1  0
 13 14  1  0
 14 15  1  0
 15 16  1  0
 16 17  1  0
 17 18  1  0
  7 19  2  0
 19 20  1  0
 20 21  1  0
 19  3  1  0
 18 13  1  0
  1 22  1  0
  1 23  1  0
  1 24  1  0
  4 25  1  0
  5 26  1  0
  6 27  1  0
  8 28  1  0
  8 29  1  0
  9 30  1  0
  9 31  1  0
 10 32  1  0
 10 33  1  0
 11 34  1  0
 11 35  1  0
 12 36  1  0
 12 37  1  0
 14 38  1  0
 14 39  1  0
 15 40  1  0
 15 41  1  0
 17 42  1  0
 17 43  1  0
 18 44  1  0
 18 45  1  0
 21 46  1  0
 21 47  1  0
 21 48  1  0
M  CHG  1   9   1
M  END
>  <UniqueID>  (14) 
14

>  <SMILES>  (14) 
COc1cccc(C[NH2+]CCCN2CCOCC2)c1OC

>  <Energy>  (14) 
59.129830375089846

>  <Genealogy>  (14) 
COc1cccc(C[NH2+]CCCN2CCOCC2)c1OC (protonated)
COc1cccc(C[NH2+]CCCN2CCOCC2)c1OC (3D coordinates assigned)
COc1cccc(C[NH2+]CCCN2CCOCC2)c1OC (nonaromatic ring conformer: 59.129830375089846 kcal/mol)

>  <smiles>  (14) 
COc1cccc(CNCCCN2CCOCC2)c1OC

>  <score_type>  (14) 
oracle

>  <origin>  (14) 
adg

>  <m_score__min__energy>  (14) 
-6.6799999999999997

>  <m_primary>  (14) 
energy

$$$$
14:0
     RDKit          3D

 42 44  0  0  0  0  0  0  0  0999 V2000
   -5.9160   25.7450  -30.3660 O   0  0  0  0  0  0  0  0  0  0  0  0
   -5.0070   24.9390  -30.6990 C   0  0  0  0  0  0  0  0  0  0  0  0
   -3.6460   25.2960  -30.4110 N   0  0  0  0  0  0  0  0  0  0  0  0
   -2.8050   24.7830  -29.3320 C   0  0  0  0  0  0  0  0  0  0  0  0
   -3.4590   23.5840  -28.6310 C   0  0  0  0  0  0  0  0  0  0  0  0
   -2.6890   22.2770  -28.8890 C   0  0  0  0  0  0  0  0  0  0  0  0
   -2.3830   21.5720  -27.6240 N   0  0  0  0  0  0  0  0  0  0  0  0
   -0.9150   21.4570  -27.4110 C   0  0  0  0  0  0  0  0  0  0  0  0
   -0.3560   20.1090  -27.8840 C   0  0  0  0  0  0  0  0  0  0  0  0
   -0.9970   18.9400  -27.1160 C   0  0  0  0  0  0  0  0  0  0  0  0
   -2.4060   19.2770  -26.6010 C   0  0  0  0  0  0  0  0  0  0  0  0
   -3.1080   20.2730  -27.5320 C   0  0  0  0  0  0  0  0  0  0  0  0
   -5.3900   23.6740  -31.3590 C   0  0  0  0  0  0  0  0  0  0  0  0
   -6.5240   22.9370  -31.0770 C   0  0  0  0  0  0  0  0  0  0  0  0
   -6.4240   21.8480  -31.9200 C   0  0  0  0  0  0  0  0  0  0  0  0
   -7.3750   20.7310  -32.0450 C   0  0  0  0  0  0  0  0  0  0  0  0
   -8.7450   20.9250  -32.2800 C   0  0  0  0  0  0  0  0  0  0  0  0
   -9.4690   19.7430  -32.3640 C   0  0  0  0  0  0  0  0  0  0  0  0
   -8.4020   18.4630  -32.1470 S   0  0  0  0  0  0  0  0  0  0  0  0
   -7.0150   19.3890  -31.9440 C   0  0  0  0  0  0  0  0  0  0  0  0
   -5.3160   21.9570  -32.6170 O   0  0  0  0  0  0  0  0  0  0  0  0
   -4.6680   23.0400  -32.3030 N   0  0  0  0  0  0  0  0  0  0  0  0
   -1.8380   24.4682  -29.7513 H   0  0  0  0  0  0  0  0  0  0  0  0
   -2.6680   25.5839  -28.5905 H   0  0  0  0  0  0  0  0  0  0  0  0
   -3.4823   23.7749  -27.5479 H   0  0  0  0  0  0  0  0  0  0  0  0
   -4.4751   23.4660  -29.0354 H   0  0  0  0  0  0  0  0  0  0  0  0
   -3.3008   21.6208  -29.5255 H   0  0  0  0  0  0  0  0  0  0  0  0
   -1.7393   22.5267  -29.3848 H   0  0  0  0  0  0  0  0  0  0  0  0
   -0.4136   22.2619  -27.9685 H   0  0  0  0  0  0  0  0  0  0  0  0
   -0.7272   21.5357  -26.3300 H   0  0  0  0  0  0  0  0  0  0  0  0
   -0.5652   19.9907  -28.9574 H   0  0  0  0  0  0  0  0  0  0  0  0
    0.7278   20.0963  -27.6962 H   0  0  0  0  0  0  0  0  0  0  0  0
   -1.0651   18.0716  -27.7877 H   0  0  0  0  0  0  0  0  0  0  0  0
   -0.3637   18.7264  -26.2423 H   0  0  0  0  0  0  0  0  0  0  0  0
   -3.0005   18.3529  -26.5489 H   0  0  0  0  0  0  0  0  0  0  0  0
   -2.3149   19.7334  -25.6043 H   0  0  0  0  0  0  0  0  0  0  0  0
   -3.1719   19.8320  -28.5377 H   0  0  0  0  0  0  0  0  0  0  0  0
   -4.1063   20.4745  -27.1164 H   0  0  0  0  0  0  0  0  0  0  0  0
   -7.3192   23.1642  -30.3518 H   0  0  0  0  0  0  0  0  0  0  0  0
   -9.2022   21.9197  -32.3875 H   0  0  0  0  0  0  0  0  0  0  0  0
  -10.5513   19.6592  -32.5415 H   0  0  0  0  0  0  0  0  0  0  0  0
   -6.0008   19.0034  -31.7631 H   0  0  0  0  0  0  0  0  0  0  0  0
  1  2  2  0
  2  3  1  0
  3  4  1  0
  4  5  1  0
  5  6  1  0
  6  7  1  0
  7  8  1  0
  8  9  1  0
  9 10  1  0
 10 11  1  0
 11 12  1  0
  2 13  1  0
 13 14  1  0
 14 15  2  0
 15 16  1  0
 16 17  1  0
 17 18  2  0
 18 19  1  0
 19 20  1  0
 15 21  1  0
 21 22  1  0
 12  7  1  0
 22 13  2  0
 20 16  2  0
  4 23  1  0
  4 24  1  0
  5 25  1  0
  5 26  1  0
  6 27  1  0
  6 28  1  0
  8 29  1  0
  8 30  1  0
  9 31  1  0
  9 32  1  0
 10 33  1  0
 10 34  1  0
 11 35  1  0
 11 36  1  0
 12 37  1  0
 12 38  1  0
 14 39  1  0
 17 40  1  0
 18 41  1  0
 20 42  1  0
M  CHG  1   3  -1
M  END
>  <UniqueID>  (15) 
15

>  <SMILES>  (15) 
O=C([N-]CCCN1CCCCC1)c1cc(-c2ccsc2)on1

>  <Energy>  (15) 
103.00878729777311

>  <Genealogy>  (15) 
O=C([N-]CCCN1CCCCC1)c1cc(-c2ccsc2)on1 (protonated)
O=C([N-]CCCN1CCCCC1)c1cc(-c2ccsc2)on1 (3D coordinates assigned)
O=C([N-]CCCN1CCCCC1)c1cc(-c2ccsc2)on1 (nonaromatic ring conformer: 103.00878729777311 kcal/mol)

>  <smiles>  (15) 
O=C(NCCCN1CCCCC1)c1cc(-c2ccsc2)on1

>  <score_type>  (15) 
oracle

>  <origin>  (15) 
adg

>  <m_score__min__energy>  (15) 
-9.8699999999999992

>  <m_primary>  (15) 
energy

$$$$
15:0
     RDKit          3D

 59 61  0  0  0  0  0  0  0  0999 V2000
    0.3720   27.3120  -23.1940 C   0  0  0  0  0  0  0  0  0  0  0  0
   -0.9600   26.6770  -23.5800 C   0  0  0  0  0  0  0  0  0  0  0  0
   -0.7540   25.4320  -24.2490 O   0  0  0  0  0  0  0  0  0  0  0  0
   -1.0810   25.1600  -25.5870 C   0  0  0  0  0  0  0  0  0  0  0  0
   -2.4070   25.1320  -26.0590 C   0  0  0  0  0  0  0  0  0  0  0  0
   -2.6710   24.8560  -27.4040 C   0  0  0  0  0  0  0  0  0  0  0  0
   -1.6230   24.6170  -28.3000 C   0  0  0  0  0  0  0  0  0  0  0  0
   -1.9420   24.3200  -29.6680 N   0  0  0  0  0  0  0  0  0  0  0  0
   -3.2550   24.1880  -30.2270 C   0  0  0  0  0  0  0  0  0  0  0  0
   -3.9270   25.2060  -30.5450 O   0  0  0  0  0  0  0  0  0  0  0  0
   -3.8560   22.8260  -30.3740 C   0  0  0  0  0  0  0  0  0  0  0  0
   -2.7960   21.7990  -30.3630 N   0  0  0  0  0  0  0  0  0  0  0  0
   -1.6960   21.9770  -31.3300 C   0  0  0  0  0  0  0  0  0  0  0  0
   -1.9830   21.5170  -32.7760 C   0  0  0  0  0  0  0  0  0  0  0  0
   -3.4470   21.4790  -33.2640 C   0  0  0  0  0  0  0  0  0  0  0  0
   -4.3560   20.6250  -32.4800 N   0  0  0  0  0  0  0  0  0  0  0  0
   -5.5080   20.0710  -33.2200 C   0  0  0  0  0  0  0  0  0  0  0  0
   -6.7920   20.6410  -32.6820 C   0  0  0  0  0  0  0  0  0  0  0  0
   -7.9770   19.8950  -32.7570 C   0  0  0  0  0  0  0  0  0  0  0  0
   -9.1790   20.4330  -32.2900 C   0  0  0  0  0  0  0  0  0  0  0  0
   -9.2080   21.7210  -31.7500 C   0  0  0  0  0  0  0  0  0  0  0  0
   -8.0280   22.4870  -31.6750 C   0  0  0  0  0  0  0  0  0  0  0  0
   -8.0070   23.7870  -31.1490 O   0  0  0  0  0  0  0  0  0  0  0  0
   -6.9230   24.3360  -30.4060 C   0  0  0  0  0  0  0  0  0  0  0  0
   -6.8270   21.9390  -32.1450 C   0  0  0  0  0  0  0  0  0  0  0  0
   -3.6820   19.7320  -31.5170 C   0  0  0  0  0  0  0  0  0  0  0  0
   -3.2560   20.4070  -30.2050 C   0  0  0  0  0  0  0  0  0  0  0  0
   -0.3000   24.6150  -27.8240 C   0  0  0  0  0  0  0  0  0  0  0  0
   -0.0370   24.8910  -26.4790 C   0  0  0  0  0  0  0  0  0  0  0  0
    0.4553   27.3517  -22.0979 H   0  0  0  0  0  0  0  0  0  0  0  0
    1.1972   26.7104  -23.6029 H   0  0  0  0  0  0  0  0  0  0  0  0
    0.4242   28.3319  -23.6029 H   0  0  0  0  0  0  0  0  0  0  0  0
   -1.5538   26.5036  -22.6704 H   0  0  0  0  0  0  0  0  0  0  0  0
   -1.4914   27.3588  -24.2603 H   0  0  0  0  0  0  0  0  0  0  0  0
   -3.2390   25.3281  -25.3667 H   0  0  0  0  0  0  0  0  0  0  0  0
   -3.7111   24.8265  -27.7608 H   0  0  0  0  0  0  0  0  0  0  0  0
   -4.5490   22.6423  -29.5397 H   0  0  0  0  0  0  0  0  0  0  0  0
   -4.3979   22.7733  -31.3298 H   0  0  0  0  0  0  0  0  0  0  0  0
   -1.4456   23.0477  -31.3611 H   0  0  0  0  0  0  0  0  0  0  0  0
   -0.8794   21.3332  -30.9712 H   0  0  0  0  0  0  0  0  0  0  0  0
   -1.4355   22.1957  -33.4466 H   0  0  0  0  0  0  0  0  0  0  0  0
   -1.6694   20.4627  -32.7886 H   0  0  0  0  0  0  0  0  0  0  0  0
   -3.8398   22.5061  -33.2370 H   0  0  0  0  0  0  0  0  0  0  0  0
   -3.4173   21.0414  -34.2728 H   0  0  0  0  0  0  0  0  0  0  0  0
   -5.4139   20.3288  -34.2852 H   0  0  0  0  0  0  0  0  0  0  0  0
   -5.5212   18.9778  -33.0986 H   0  0  0  0  0  0  0  0  0  0  0  0
   -7.9602   18.8819  -33.1853 H   0  0  0  0  0  0  0  0  0  0  0  0
  -10.1044   19.8411  -32.3477 H   0  0  0  0  0  0  0  0  0  0  0  0
  -10.1565   22.1390  -31.3817 H   0  0  0  0  0  0  0  0  0  0  0  0
   -7.1266   24.2329  -29.3299 H   0  0  0  0  0  0  0  0  0  0  0  0
   -5.9968   23.7983  -30.6571 H   0  0  0  0  0  0  0  0  0  0  0  0
   -6.8084   25.4008  -30.6571 H   0  0  0  0  0  0  0  0  0  0  0  0
   -5.9016   22.5314  -32.0930 H   0  0  0  0  0  0  0  0  0  0  0  0
   -4.3710   18.9104  -31.2716 H   0  0  0  0  0  0  0  0  0  0  0  0
   -2.7572   19.3904  -32.0050 H   0  0  0  0  0  0  0  0  0  0  0  0
   -4.1167   20.4038  -29.5201 H   0  0  0  0  0  0  0  0  0  0  0  0
   -2.4009   19.8336  -29.8176 H   0  0  0  0  0  0  0  0  0  0  0  0
    0.5301   24.3957  -28.5116 H   0  0  0  0  0  0  0  0  0  0  0  0
    1.0020   24.8968  -26.1180 H   0  0  0  0  0  0  0  0  0  0  0  0
  1  2  1  0
  2  3  1  0
  3  4  1  0
  4  5  2  0
  5  6  1  0
  6  7  2  0
  7  8  1  0
  8  9  1  0
  9 10  2  0
  9 11  1  0
 11 12  1  0
 12 13  1  0
 13 14  1  0
 14 15  1  0
 15 16  1  0
 16 17  1  0
 17 18  1  0
 18 19  2  0
 19 20  1  0
 20 21  2  0
 21 22  1  0
 22 23  1  0
 23 24  1  0
 22 25  2  0
 16 26  1  0
 26 27  1  0
  7 28  1  0
 28 29  2  0
 29  4  1  0
 27 12  1  0
 25 18  1  0
  1 30  1  0
  1 31  1  0
  1 32  1  0
  2 33  1  0
  2 34  1  0
  5 35  1  0
  6 36  1  0
 11 37  1  0
 11 38  1  0
 13 39  1  0
 13 40  1  0
 14 41  1  0
 14 42  1  0
 15 43  1  0
 15 44  1  0
 17 45  1  0
 17 46  1  0
 19 47  1  0
 20 48  1  0
 21 49  1  0
 24 50  1  0
 24 51  1  0
 24 52  1  0
 25 53  1  0
 26 54  1  0
 26 55  1  0
 27 56  1  0
 27 57  1  0
 28 58  1  0
 29 59  1  0
M  CHG  1   8  -1
M  END
>  <UniqueID>  (16) 
16

>  <SMILES>  (16) 
CCOc1ccc([N-]C(=O)CN2CCCN(Cc3cccc(OC)c3)CC2)cc1

>  <Energy>  (16) 
80.6763741833638

>  <Genealogy>  (16) 
CCOc1ccc([N-]C(=O)CN2CCCN(Cc3cccc(OC)c3)CC2)cc1 (protonated)
CCOc1ccc([N-]C(=O)CN2CCCN(Cc3cccc(OC)c3)CC2)cc1 (3D coordinates assigned)
CCOc1ccc([N-]C(=O)CN2CCCN(Cc3cccc(OC)c3)CC2)cc1 (nonaromatic ring conformer: 80.6763741833638 kcal/mol)

>  <smiles>  (16) 
CCOc1ccc(NC(=O)CN2CCCN(Cc3cccc(OC)c3)CC2)cc1

>  <score_type>  (16) 
oracle

>  <origin>  (16) 
adg

>  <m_score__min__energy>  (16) 
-8.2100000000000009

>  <m_primary>  (16) 
energy

$$$$
16:0
     RDKit          3D

 42 43  0  0  0  0  0  0  0  0999 V2000
   -2.0038   19.9081  -25.3248 H   0  0  0  0  0  0  0  0  0  0  0  0
   -1.9050   20.2970  -26.3490 C   0  0  0  0  0  0  0  0  0  0  0  0
   -2.8270   19.9230  -27.3310 C   0  0  0  0  0  0  0  0  0  0  0  0
   -3.6496   19.2377  -27.0788 H   0  0  0  0  0  0  0  0  0  0  0  0
   -2.7060   20.4180  -28.6330 C   0  0  0  0  0  0  0  0  0  0  0  0
   -3.4329   20.1197  -29.4028 H   0  0  0  0  0  0  0  0  0  0  0  0
   -1.6590   21.2950  -28.9610 C   0  0  0  0  0  0  0  0  0  0  0  0
   -1.5540   21.8620  -30.3540 C   0  0  0  0  0  0  0  0  0  0  0  0
   -2.1447   21.2387  -31.0415 H   0  0  0  0  0  0  0  0  0  0  0  0
   -0.4950   21.8667  -30.6514 H   0  0  0  0  0  0  0  0  0  0  0  0
   -2.0580   23.2370  -30.4010 N   0  0  0  0  0  0  0  0  0  0  0  0
   -1.4070   24.0110  -30.1440 H   0  0  0  0  0  0  0  0  0  0  0  0
   -3.4200   23.5590  -30.7240 C   0  0  0  0  0  0  0  0  0  0  0  0
   -4.2090   22.6120  -31.1480 N   0  0  0  0  0  0  0  0  0  0  0  0
   -4.7090   22.4120  -32.5020 C   0  0  0  0  0  0  0  0  0  0  0  0
   -3.9166   21.9809  -33.1315 H   0  0  0  0  0  0  0  0  0  0  0  0
   -5.0208   23.3729  -32.9374 H   0  0  0  0  0  0  0  0  0  0  0  0
   -5.8850   21.4620  -32.4370 C   0  0  0  0  0  0  0  0  0  0  0  0
   -5.6860   20.0820  -32.6770 C   0  0  0  0  0  0  0  0  0  0  0  0
   -3.9630   19.3440  -33.1000 Br  0  0  0  0  0  0  0  0  0  0  0  0
   -6.7530   19.1860  -32.5670 C   0  0  0  0  0  0  0  0  0  0  0  0
   -6.5874   18.1156  -32.7592 H   0  0  0  0  0  0  0  0  0  0  0  0
   -8.0290   19.6370  -32.2150 C   0  0  0  0  0  0  0  0  0  0  0  0
   -9.1540   18.6590  -32.0520 C   0  0  0  0  0  0  0  0  0  0  0  0
   -9.3440   18.4938  -30.9812 H   0  0  0  0  0  0  0  0  0  0  0  0
  -10.0609   19.0607  -32.5276 H   0  0  0  0  0  0  0  0  0  0  0  0
   -8.8824   17.7051  -32.5276 H   0  0  0  0  0  0  0  0  0  0  0  0
   -8.2250   20.9920  -31.9250 C   0  0  0  0  0  0  0  0  0  0  0  0
   -9.2215   21.3428  -31.6186 H   0  0  0  0  0  0  0  0  0  0  0  0
   -7.1660   21.9100  -32.0200 C   0  0  0  0  0  0  0  0  0  0  0  0
   -7.4260   23.3530  -31.6700 C   0  0  0  0  0  0  0  0  0  0  0  0
   -7.4465   23.4670  -30.5761 H   0  0  0  0  0  0  0  0  0  0  0  0
   -6.6267   23.9817  -32.0892 H   0  0  0  0  0  0  0  0  0  0  0  0
   -8.3945   23.6632  -32.0892 H   0  0  0  0  0  0  0  0  0  0  0  0
   -3.8370   24.9320  -30.6720 N   0  0  0  0  0  0  0  0  0  0  0  0
   -3.1070   25.6740  -30.7510 H   0  0  0  0  0  0  0  0  0  0  0  0
   -5.0780   25.3180  -30.1410 C   0  0  0  0  0  0  0  0  0  0  0  0
   -6.0990   25.6350  -29.7000 N   0  0  0  0  0  0  0  0  0  0  0  0
   -0.7330   21.6640  -27.9690 C   0  0  0  0  0  0  0  0  0  0  0  0
    0.0925   22.3476  -28.2167 H   0  0  0  0  0  0  0  0  0  0  0  0
   -0.8580   21.1650  -26.6690 C   0  0  0  0  0  0  0  0  0  0  0  0
   -0.1308   21.4563  -25.8968 H   0  0  0  0  0  0  0  0  0  0  0  0
  1  2  1  0
  2  3  2  0
  3  4  1  0
  3  5  1  0
  5  6  1  0
  5  7  2  0
  7  8  1  0
  8  9  1  0
  8 10  1  0
  8 11  1  0
 11 12  1  0
 11 13  1  0
 13 14  2  0
 14 15  1  0
 15 16  1  0
 15 17  1  0
 15 18  1  0
 18 19  2  0
 19 20  1  0
 19 21  1  0
 21 22  1  0
 21 23  2  0
 23 24  1  0
 24 25  1  0
 24 26  1  0
 24 27  1  0
 23 28  1  0
 28 29  1  0
 28 30  2  0
 30 31  1  0
 31 32  1  0
 31 33  1  0
 31 34  1  0
 13 35  1  0
 35 36  1  0
 35 37  1  0
 37 38  3  0
  7 39  1  0
 39 40  1  0
 39 41  2  0
 41 42  1  0
 41  2  1  0
 30 18  1  0
M  END
>  <UniqueID>  (17) 
17

>  <SMILES>  (17) 
Cc1cc(C)c(C/N=C(\NC#N)NCc2ccccc2)c(Br)c1

>  <Energy>  (17) 
39.75743478265509

>  <Genealogy>  (17) 
Cc1cc(C)c(C/N=C(\NC#N)NCc2ccccc2)c(Br)c1 (cis-trans isomerization)
Cc1cc(C)c(C/N=C(\NC#N)NCc2ccccc2)c(Br)c1 (3D coordinates assigned)
Cc1cc(C)c(C/N=C(\NC#N)NCc2ccccc2)c(Br)c1 (optimized conformer: 39.75743478265509 kcal/mol)

>  <smiles>  (17) 
Cc1cc(C)c(CN=C(NC#N)NCc2ccccc2)c(Br)c1

>  <score_type>  (17) 
oracle

>  <origin>  (17) 
adg

>  <m_score__min__energy>  (17) 
-8.2200000000000006

>  <m_primary>  (17) 
energy

$$$$
17:0
     RDKit          3D

 33 35  0  0  0  0  0  0  0  0999 V2000
   -5.1910   24.5300  -30.0280 C   0  0  0  0  0  0  0  0  0  0  0  0
   -4.2690   23.8180  -30.8470 O   0  0  0  0  0  0  0  0  0  0  0  0
   -4.6000   22.6970  -31.6220 C   0  0  0  0  0  0  0  0  0  0  0  0
   -3.8260   22.2830  -32.7200 C   0  0  0  0  0  0  0  0  0  0  0  0
   -4.1900   21.1500  -33.4530 C   0  0  0  0  0  0  0  0  0  0  0  0
   -5.3190   20.3960  -33.0910 C   0  0  0  0  0  0  0  0  0  0  0  0
   -6.1290   20.8530  -32.0320 C   0  0  0  0  0  0  0  0  0  0  0  0
   -5.7510   21.9760  -31.2880 C   0  0  0  0  0  0  0  0  0  0  0  0
   -7.3190   20.1950  -31.7160 O   0  0  0  0  0  0  0  0  0  0  0  0
   -7.9150   19.2680  -32.6130 C   0  0  0  0  0  0  0  0  0  0  0  0
   -6.8500   18.3490  -33.2490 C   0  0  1  0  0  0  0  0  0  0  0  0
   -5.6960   19.1470  -33.8790 C   0  0  2  0  0  0  0  0  0  0  0  0
   -4.5710   18.1210  -33.9030 C   0  0  0  0  0  0  0  0  0  0  0  0
   -4.8190   17.2500  -32.6850 C   0  0  0  0  0  0  0  0  0  0  0  0
   -6.2590   17.2960  -32.3810 N   0  0  0  0  0  0  0  0  0  0  0  0
   -6.4860   17.4200  -30.9290 C   0  0  0  0  0  0  0  0  0  0  0  0
   -4.9563   24.3488  -28.9687 H   0  0  0  0  0  0  0  0  0  0  0  0
   -5.1155   25.6065  -30.2413 H   0  0  0  0  0  0  0  0  0  0  0  0
   -6.2134   24.1848  -30.2413 H   0  0  0  0  0  0  0  0  0  0  0  0
   -2.9294   22.8536  -33.0037 H   0  0  0  0  0  0  0  0  0  0  0  0
   -3.5871   20.8458  -34.3213 H   0  0  0  0  0  0  0  0  0  0  0  0
   -6.3647   22.2948  -30.4325 H   0  0  0  0  0  0  0  0  0  0  0  0
   -8.6402   18.6506  -32.0626 H   0  0  0  0  0  0  0  0  0  0  0  0
   -8.4164   19.8298  -33.4149 H   0  0  0  0  0  0  0  0  0  0  0  0
   -7.4444   17.8219  -34.0098 H   0  0  0  0  0  0  0  0  0  0  0  0
   -5.9523   19.5525  -34.8689 H   0  0  0  0  0  0  0  0  0  0  0  0
   -4.6125   17.5211  -34.8241 H   0  0  0  0  0  0  0  0  0  0  0  0
   -3.5772   18.5921  -33.8828 H   0  0  0  0  0  0  0  0  0  0  0  0
   -4.5149   16.2145  -32.8979 H   0  0  0  0  0  0  0  0  0  0  0  0
   -4.2346   17.6151  -31.8276 H   0  0  0  0  0  0  0  0  0  0  0  0
   -5.6464   16.9614  -30.3861 H   0  0  0  0  0  0  0  0  0  0  0  0
   -6.5599   18.4838  -30.6590 H   0  0  0  0  0  0  0  0  0  0  0  0
   -7.4210   16.9074  -30.6590 H   0  0  0  0  0  0  0  0  0  0  0  0
  1  2  1  0
  2  3  1  0
  3  4  2  0
  4  5  1  0
  5  6  2  0
  6  7  1  0
  7  8  2  0
  7  9  1  0
  9 10  1  0
 10 11  1  0
 11 12  1  0
 12 13  1  0
 13 14  1  0
 14 15  1  0
 15 16  1  0
  8  3  1  0
 15 11  1  0
 12  6  1  0
  1 17  1  0
  1 18  1  0
  1 19  1  0
  4 20  1  0
  5 21  1  0
  8 22  1  0
 10 23  1  0
 10 24  1  0
 11 25  1  6
 12 26  1  6
 13 27  1  0
 13 28  1  0
 14 29  1  0
 14 30  1  0
 16 31  1  0
 16 32  1  0
 16 33  1  0
M  END
>  <UniqueID>  (18) 
18

>  <SMILES>  (18) 
COc1ccc2c(c1)OC[C@H]1[C@@H]2CCN1C

>  <Energy>  (18) 
46.94703782982414

>  <Genealogy>  (18) 
COc1ccc2c(c1)OC[C@H]1[C@@H]2CCN1C (chirality)
COc1ccc2c(c1)OC[C@H]1[C@@H]2CCN1C (3D coordinates assigned)
COc1ccc2c(c1)OC[C@H]1[C@@H]2CCN1C (nonaromatic ring conformer: 46.94703782982414 kcal/mol)

>  <smiles>  (18) 
COc1ccc2c(c1)OCC1C2CCN1C

>  <score_type>  (18) 
oracle

>  <origin>  (18) 
adg

>  <m_score__min__energy>  (18) 
-5.8600000000000003

>  <m_primary>  (18) 
energy

$$$$
18:0
     RDKit          3D

 47 49  0  0  0  0  0  0  0  0999 V2000
   -1.2130   21.4190  -31.9630 C   0  0  0  0  0  0  0  0  0  0  0  0
   -1.6150   20.5900  -33.1850 C   0  0  0  0  0  0  0  0  0  0  0  0
   -2.9900   20.8690  -33.6250 N   0  0  0  0  0  0  0  0  0  0  0  0
   -3.9030   19.7210  -33.4630 C   0  0  0  0  0  0  0  0  0  0  0  0
   -4.5070   19.6570  -32.0480 C   0  0  0  0  0  0  0  0  0  0  0  0
   -5.2150   20.9110  -31.7220 N   0  0  0  0  0  0  0  0  0  0  0  0
   -4.4220   21.9200  -31.2420 C   0  0  0  0  0  0  0  0  0  0  0  0
   -4.9500   23.1360  -30.8050 C   0  0  0  0  0  0  0  0  0  0  0  0
   -4.0350   24.1840  -30.2900 C   0  0  0  0  0  0  0  0  0  0  0  0
   -4.0110   25.3160  -30.8480 O   0  0  0  0  0  0  0  0  0  0  0  0
   -3.2020   23.9380  -29.1480 N   0  0  0  0  0  0  0  0  0  0  0  0
   -2.2200   24.9200  -28.6970 C   0  0  0  0  0  0  0  0  0  0  0  0
   -1.6910   24.6610  -27.2980 C   0  0  0  0  0  0  0  0  0  0  0  0
   -0.8310   24.3330  -28.5090 C   0  0  0  0  0  0  0  0  0  0  0  0
   -6.3380   23.3130  -30.8290 C   0  0  0  0  0  0  0  0  0  0  0  0
   -6.8450   24.3680  -30.3530 O   0  0  0  0  0  0  0  0  0  0  0  0
   -7.1640   22.3100  -31.3650 C   0  0  0  0  0  0  0  0  0  0  0  0
   -8.5570   22.5050  -31.4110 C   0  0  0  0  0  0  0  0  0  0  0  0
   -9.3880   21.5430  -31.9610 C   0  0  0  0  0  0  0  0  0  0  0  0
   -8.8510   20.3840  -32.5000 C   0  0  0  0  0  0  0  0  0  0  0  0
   -7.4620   20.1490  -32.4860 C   0  0  0  0  0  0  0  0  0  0  0  0
   -6.9520   19.0030  -33.1160 O   0  0  0  0  0  0  0  0  0  0  0  0
   -7.2360   17.6560  -32.7460 C   0  0  0  0  0  0  0  0  0  0  0  0
   -6.5870   21.1010  -31.8620 C   0  0  0  0  0  0  0  0  0  0  0  0
   -1.4780   20.8725  -31.0459 H   0  0  0  0  0  0  0  0  0  0  0  0
   -0.1279   21.5983  -31.9824 H   0  0  0  0  0  0  0  0  0  0  0  0
   -1.7442   22.3821  -31.9824 H   0  0  0  0  0  0  0  0  0  0  0  0
   -0.9262   20.8215  -34.0108 H   0  0  0  0  0  0  0  0  0  0  0  0
   -1.5629   19.5284  -32.9015 H   0  0  0  0  0  0  0  0  0  0  0  0
   -2.9830   21.2330  -34.6080 H   0  0  0  0  0  0  0  0  0  0  0  0
   -4.7202   19.8117  -34.1938 H   0  0  0  0  0  0  0  0  0  0  0  0
   -3.3227   18.8008  -33.6257 H   0  0  0  0  0  0  0  0  0  0  0  0
   -5.2170   18.8184  -31.9967 H   0  0  0  0  0  0  0  0  0  0  0  0
   -3.6919   19.5141  -31.3233 H   0  0  0  0  0  0  0  0  0  0  0  0
   -3.3336   21.7668  -31.1996 H   0  0  0  0  0  0  0  0  0  0  0  0
   -3.3880   23.1070  -28.5420 H   0  0  0  0  0  0  0  0  0  0  0  0
   -2.6388   25.7926  -29.2197 H   0  0  0  0  0  0  0  0  0  0  0  0
   -1.4236   25.5056  -26.6460 H   0  0  0  0  0  0  0  0  0  0  0  0
   -2.0488   24.0988  -26.4229 H   0  0  0  0  0  0  0  0  0  0  0  0
    0.0581   24.9405  -28.7333 H   0  0  0  0  0  0  0  0  0  0  0  0
   -0.3093   23.4357  -28.8732 H   0  0  0  0  0  0  0  0  0  0  0  0
   -8.9905   23.4313  -31.0058 H   0  0  0  0  0  0  0  0  0  0  0  0
  -10.4768   21.6990  -31.9702 H   0  0  0  0  0  0  0  0  0  0  0  0
   -9.5213   19.6347  -32.9464 H   0  0  0  0  0  0  0  0  0  0  0  0
   -7.2535   17.5729  -31.6493 H   0  0  0  0  0  0  0  0  0  0  0  0
   -8.2156   17.3631  -33.1516 H   0  0  0  0  0  0  0  0  0  0  0  0
   -6.4580   16.9925  -33.1516 H   0  0  0  0  0  0  0  0  0  0  0  0
  1  2  1  0
  2  3  1  0
  3  4  1  0
  4  5  1  0
  5  6  1  0
  6  7  1  0
  7  8  2  0
  8  9  1  0
  9 10  2  0
  9 11  1  0
 11 12  1  0
 12 13  1  0
 13 14  1  0
  8 15  1  0
 15 16  2  0
 15 17  1  0
 17 18  2  0
 18 19  1  0
 19 20  2  0
 20 21  1  0
 21 22  1  0
 22 23  1  0
 21 24  2  0
 24  6  1  0
 14 12  1  0
 24 17  1  0
  1 25  1  0
  1 26  1  0
  1 27  1  0
  2 28  1  0
  2 29  1  0
  3 30  1  0
  4 31  1  0
  4 32  1  0
  5 33  1  0
  5 34  1  0
  7 35  1  0
 11 36  1  0
 12 37  1  0
 13 38  1  0
 13 39  1  0
 14 40  1  0
 14 41  1  0
 18 42  1  0
 19 43  1  0
 20 44  1  0
 23 45  1  0
 23 46  1  0
 23 47  1  0
M  END
>  <UniqueID>  (19) 
19

>  <SMILES>  (19) 
CCNCCn1cc(C(=O)NC2CC2)c(=O)c2cccc(OC)c21

>  <Energy>  (19) 
329.4564043540932

>  <Genealogy>  (19) 
CCNCCn1cc(C(=O)NC2CC2)c(=O)c2cccc(OC)c21 (3D coordinates assigned)
CCNCCn1cc(C(=O)NC2CC2)c(=O)c2cccc(OC)c21 (nonaromatic ring conformer: 329.4564043540932 kcal/mol)

>  <smiles>  (19) 
CCNCCn1cc(C(=O)NC2CC2)c(=O)c2cccc(OC)c21

>  <score_type>  (19) 
oracle

>  <origin>  (19) 
adg

>  <m_score__min__energy>  (19) 
-8.0299999999999994

>  <m_primary>  (19) 
energy

$$$$
19:0
     RDKit          3D

 43 45  0  0  0  0  0  0  0  0999 V2000
   -5.8340   14.2640  -34.2560 C   0  0  0  0  0  0  0  0  0  0  0  0
   -6.7700   15.4700  -34.2150 C   0  0  0  0  0  0  0  0  0  0  0  0
   -6.2640   16.4790  -33.2560 N   0  0  0  0  0  0  0  0  0  0  0  0
   -4.8580   16.8650  -33.5330 C   0  0  0  0  0  0  0  0  0  0  0  0
   -4.7070   18.0360  -34.5150 C   0  0  0  0  0  0  0  0  0  0  0  0
   -7.1890   17.6280  -33.1300 C   0  0  0  0  0  0  0  0  0  0  0  0
   -7.1540   18.2270  -31.7180 C   0  0  0  0  0  0  0  0  0  0  0  0
   -7.7910   19.5430  -31.7140 N   0  0  0  0  0  0  0  0  0  0  0  0
   -8.8900   19.8330  -31.0290 N   0  0  0  0  0  0  0  0  0  0  0  0
   -9.1250   21.1580  -31.1140 C   0  0  0  0  0  0  0  0  0  0  0  0
   -8.1270   21.7180  -31.8820 C   0  0  0  0  0  0  0  0  0  0  0  0
   -7.2910   20.6860  -32.2300 C   0  0  0  0  0  0  0  0  0  0  0  0
   -6.0120   20.8290  -32.9520 C   0  0  0  0  0  0  0  0  0  0  0  0
   -5.1340   21.8210  -32.7250 C   0  0  0  0  0  0  0  0  0  0  0  0
   -5.2340   22.8100  -31.6180 C   0  0  0  0  0  0  0  0  0  0  0  0
   -4.0900   23.0210  -30.8300 C   0  0  0  0  0  0  0  0  0  0  0  0
   -4.1320   23.8740  -29.7240 C   0  0  0  0  0  0  0  0  0  0  0  0
   -5.3170   24.5310  -29.3920 C   0  0  0  0  0  0  0  0  0  0  0  0
   -6.4560   24.3560  -30.1790 C   0  0  0  0  0  0  0  0  0  0  0  0
   -6.4200   23.5200  -31.3030 C   0  0  0  0  0  0  0  0  0  0  0  0
   -7.8860   23.4220  -32.3340 S   0  0  0  0  0  0  0  0  0  0  0  0
   -5.5922   13.9524  -33.2291 H   0  0  0  0  0  0  0  0  0  0  0  0
   -6.3273   13.4348  -34.7842 H   0  0  0  0  0  0  0  0  0  0  0  0
   -4.9083   14.5361  -34.7842 H   0  0  0  0  0  0  0  0  0  0  0  0
   -6.8281   15.9189  -35.2176 H   0  0  0  0  0  0  0  0  0  0  0  0
   -7.7682   15.1383  -33.8931 H   0  0  0  0  0  0  0  0  0  0  0  0
   -4.3849   17.1498  -32.5816 H   0  0  0  0  0  0  0  0  0  0  0  0
   -4.3788   15.9942  -34.0043 H   0  0  0  0  0  0  0  0  0  0  0  0
   -4.5861   18.9733  -33.9521 H   0  0  0  0  0  0  0  0  0  0  0  0
   -3.8226   17.8719  -35.1481 H   0  0  0  0  0  0  0  0  0  0  0  0
   -5.6041   18.1016  -35.1481 H   0  0  0  0  0  0  0  0  0  0  0  0
   -6.8970   18.4028  -33.8541 H   0  0  0  0  0  0  0  0  0  0  0  0
   -8.2106   17.2714  -33.3280 H   0  0  0  0  0  0  0  0  0  0  0  0
   -7.6911   17.5608  -31.0269 H   0  0  0  0  0  0  0  0  0  0  0  0
   -6.1069   18.3331  -31.3980 H   0  0  0  0  0  0  0  0  0  0  0  0
   -9.4560   19.1420  -30.4880 H   0  0  0  0  0  0  0  0  0  0  0  0
   -9.9652   21.6970  -30.6518 H   0  0  0  0  0  0  0  0  0  0  0  0
   -5.7631   20.0813  -33.7195 H   0  0  0  0  0  0  0  0  0  0  0  0
   -4.2770   21.9082  -33.4091 H   0  0  0  0  0  0  0  0  0  0  0  0
   -3.1508   22.5090  -31.0866 H   0  0  0  0  0  0  0  0  0  0  0  0
   -3.2294   24.0276  -29.1143 H   0  0  0  0  0  0  0  0  0  0  0  0
   -5.3536   25.1870  -28.5098 H   0  0  0  0  0  0  0  0  0  0  0  0
   -7.3879   24.8776  -29.9154 H   0  0  0  0  0  0  0  0  0  0  0  0
  1  2  1  0
  2  3  1  0
  3  4  1  0
  4  5  1  0
  3  6  1  0
  6  7  1  0
  7  8  1  0
  8  9  1  0
  9 10  2  0
 10 11  1  0
 11 12  2  0
 12 13  1  0
 13 14  2  0
 14 15  1  0
 15 16  2  0
 16 17  1  0
 17 18  2  0
 18 19  1  0
 19 20  2  0
 20 21  1  0
 12  8  1  0
 20 15  1  0
 21 11  1  0
  1 22  1  0
  1 23  1  0
  1 24  1  0
  2 25  1  0
  2 26  1  0
  4 27  1  0
  4 28  1  0
  5 29  1  0
  5 30  1  0
  5 31  1  0
  6 32  1  0
  6 33  1  0
  7 34  1  0
  7 35  1  0
  9 36  1  0
 10 37  1  0
 13 38  1  0
 14 39  1  0
 16 40  1  0
 17 41  1  0
 18 42  1  0
 19 43  1  0
M  CHG  1   9   1
M  END
>  <UniqueID>  (20) 
20

>  <SMILES>  (20) 
CCN(CC)CCn1[nH+]cc2c1C=Cc1ccccc1S2

>  <Energy>  (20) 
87.306888234187

>  <Genealogy>  (20) 
CCN(CC)CCn1[nH+]cc2c1C=Cc1ccccc1S2 (protonated)
CCN(CC)CCn1[nH+]cc2c1C=Cc1ccccc1S2 (3D coordinates assigned)
CCN(CC)CCn1[nH+]cc2c1C=Cc1ccccc1S2 (nonaromatic ring conformer: 87.306888234187 kcal/mol)

>  <smiles>  (20) 
CCN(CC)CCn1ncc2c1C=Cc1ccccc1S2

>  <score_type>  (20) 
oracle

>  <origin>  (20) 
adg

>  <m_score__min__energy>  (20) 
-5.7699999999999996

>  <m_primary>  (20) 
energy

$$$$
20:0
     RDKit          3D

 50 54  0  0  0  0  0  0  0  0999 V2000
   -5.3742   21.8568  -33.3335 H   0  0  0  0  0  0  0  0  0  0  0  0
   -6.1430   21.8770  -32.5470 C   0  0  0  0  0  0  0  0  0  0  0  0
   -6.3030   22.9940  -31.8300 C   0  0  0  0  0  0  0  0  0  0  0  0
   -7.3083   23.4352  -31.7612 H   0  0  0  0  0  0  0  0  0  0  0  0
   -5.1920   23.6600  -31.1280 C   0  0  0  0  0  0  0  0  0  0  0  0
   -4.9620   24.9930  -31.2210 N   0  0  0  0  0  0  0  0  0  0  0  0
   -3.8720   25.3000  -30.5230 N   0  0  0  0  0  0  0  0  0  0  0  0
   -3.4020   24.1580  -29.9930 C   0  0  0  0  0  0  0  0  0  0  0  0
   -2.2450   23.9910  -29.2380 C   0  0  0  0  0  0  0  0  0  0  0  0
   -1.6210   24.8528  -28.9587 H   0  0  0  0  0  0  0  0  0  0  0  0
   -1.8970   22.6830  -28.8420 C   0  0  0  0  0  0  0  0  0  0  0  0
   -0.3900   22.4090  -27.9030 S   0  0  0  0  0  0  0  0  0  0  0  0
   -0.8110   20.7050  -27.4880 C   0  0  0  0  0  0  0  0  0  0  0  0
   -1.8260   20.5180  -26.5370 C   0  0  0  0  0  0  0  0  0  0  0  0
   -2.3217   21.3930  -26.0912 H   0  0  0  0  0  0  0  0  0  0  0  0
   -2.2130   19.2350  -26.1510 C   0  0  0  0  0  0  0  0  0  0  0  0
   -3.0089   19.1024  -25.4034 H   0  0  0  0  0  0  0  0  0  0  0  0
   -1.5930   18.1230  -26.7110 C   0  0  0  0  0  0  0  0  0  0  0  0
   -1.9186   17.1114  -26.4270 H   0  0  0  0  0  0  0  0  0  0  0  0
   -0.5580   18.2890  -27.6330 C   0  0  0  0  0  0  0  0  0  0  0  0
   -0.0625   17.4024  -28.0554 H   0  0  0  0  0  0  0  0  0  0  0  0
   -0.1370   19.5750  -28.0320 C   0  0  0  0  0  0  0  0  0  0  0  0
    1.0090   19.6780  -28.9810 C   0  0  0  0  0  0  0  0  0  0  0  0
    2.1690   19.9410  -28.5670 O   0  0  0  0  0  0  0  0  0  0  0  0
    0.7970   19.4310  -30.3800 N   0  0  0  0  0  0  0  0  0  0  0  0
   -0.2710   19.9550  -31.1830 C   0  0  0  0  0  0  0  0  0  0  0  0
   -0.2340   21.3020  -31.5660 C   0  0  0  0  0  0  0  0  0  0  0  0
    0.5909   21.9457  -31.2265 H   0  0  0  0  0  0  0  0  0  0  0  0
   -1.2140   21.8170  -32.3560 N   0  0  0  0  0  0  0  0  0  0  0  0
   -2.2480   21.0560  -32.8000 C   0  0  0  0  0  0  0  0  0  0  0  0
   -3.0335   21.5069  -33.4242 H   0  0  0  0  0  0  0  0  0  0  0  0
   -2.3150   19.7020  -32.4650 C   0  0  0  0  0  0  0  0  0  0  0  0
   -3.1438   19.0787  -32.8318 H   0  0  0  0  0  0  0  0  0  0  0  0
   -1.3180   19.1480  -31.6590 C   0  0  0  0  0  0  0  0  0  0  0  0
   -1.3525   18.0802  -31.3969 H   0  0  0  0  0  0  0  0  0  0  0  0
   -2.7030   21.5860  -29.2340 C   0  0  0  0  0  0  0  0  0  0  0  0
   -2.4196   20.5668  -28.9324 H   0  0  0  0  0  0  0  0  0  0  0  0
   -3.8620   21.7870  -30.0050 C   0  0  0  0  0  0  0  0  0  0  0  0
   -4.4863   20.9399  -30.3253 H   0  0  0  0  0  0  0  0  0  0  0  0
   -4.1930   23.1000  -30.3500 C   0  0  0  0  0  0  0  0  0  0  0  0
   -6.9630   20.6680  -32.3200 C   0  0  0  0  0  0  0  0  0  0  0  0
   -8.3250   20.7470  -32.2730 N   0  0  0  0  0  0  0  0  0  0  0  0
   -9.1050   19.6500  -32.0750 C   0  0  0  0  0  0  0  0  0  0  0  0
  -10.1997   19.7525  -32.0402 H   0  0  0  0  0  0  0  0  0  0  0  0
   -8.5160   18.3940  -31.9160 C   0  0  0  0  0  0  0  0  0  0  0  0
   -9.1403   17.5022  -31.7580 H   0  0  0  0  0  0  0  0  0  0  0  0
   -7.1250   18.2840  -31.9600 C   0  0  0  0  0  0  0  0  0  0  0  0
   -6.6464   17.3014  -31.8357 H   0  0  0  0  0  0  0  0  0  0  0  0
   -6.3410   19.4230  -32.1620 C   0  0  0  0  0  0  0  0  0  0  0  0
   -5.2445   19.3425  -32.1966 H   0  0  0  0  0  0  0  0  0  0  0  0
  1  2  1  0
  2  3  2  0
  3  4  1  0
  3  5  1  0
  5  6  1  0
  6  7  1  0
  7  8  2  0
  8  9  1  0
  9 10  1  0
  9 11  2  0
 11 12  1  0
 12 13  1  0
 13 14  2  0
 14 15  1  0
 14 16  1  0
 16 17  1  0
 16 18  2  0
 18 19  1  0
 18 20  1  0
 20 21  1  0
 20 22  2  0
 22 23  1  0
 23 24  2  0
 23 25  1  0
 25 26  1  0
 26 27  2  0
 27 28  1  0
 27 29  1  0
 29 30  2  0
 30 31  1  0
 30 32  1  0
 32 33  1  0
 32 34  2  0
 34 35  1  0
 11 36  1  0
 36 37  1  0
 36 38  2  0
 38 39  1  0
 38 40  1  0
  2 41  1  0
 41 42  2  0
 42 43  1  0
 43 44  1  0
 43 45  2  0
 45 46  1  0
 45 47  1  0
 47 48  1  0
 47 49  2  0
 49 50  1  0
 40  5  2  0
 49 41  1  0
 40  8  1  0
 22 13  1  0
 34 26  1  0
M  CHG  2   6  -1  25  -1
M  END
>  <UniqueID>  (21) 
21

>  <SMILES>  (21) 
O=C([N-]c1cccnc1)c1ccccc1Sc1ccc2c(/C=C/c3ccccn3)[n-]nc2c1

>  <Energy>  (21) 
103.84808722298894

>  <Genealogy>  (21) 
O=C([N-]c1cccnc1)c1ccccc1Sc1ccc2c(C=Cc3ccccn3)[n-]nc2c1 (protonated)
O=C([N-]c1cccnc1)c1ccccc1Sc1ccc2c(/C=C/c3ccccn3)[n-]nc2c1 (cis-trans isomerization)
O=C([N-]c1cccnc1)c1ccccc1Sc1ccc2c(/C=C/c3ccccn3)[n-]nc2c1 (3D coordinates assigned)
O=C([N-]c1cccnc1)c1ccccc1Sc1ccc2c(/C=C/c3ccccn3)[n-]nc2c1 (optimized conformer: 103.84808722298894 kcal/mol)

>  <smiles>  (21) 
O=C(Nc1cccnc1)c1ccccc1Sc1ccc2c(C=Cc3ccccn3)[nH]nc2c1

>  <score_type>  (21) 
oracle

>  <origin>  (21) 
adg

>  <m_score__min__energy>  (21) 
-11.949999999999999

>  <m_primary>  (21) 
energy

$$$$
21:0
     RDKit          3D

 28 29  0  0  0  0  0  0  0  0999 V2000
   -0.8580   26.4570  -27.8980 C   0  0  0  0  0  0  0  0  0  0  0  0
   -1.5670   25.8820  -28.9730 O   0  0  0  0  0  0  0  0  0  0  0  0
   -1.9240   24.5450  -28.6700 C   0  0  0  0  0  0  0  0  0  0  0  0
   -2.8250   23.9680  -29.7610 C   0  0  0  0  0  0  0  0  0  0  0  0
   -3.5070   25.0490  -30.4620 N   0  0  0  0  0  0  0  0  0  0  0  0
   -4.9250   25.2490  -30.5490 C   0  0  0  0  0  0  0  0  0  0  0  0
   -5.3600   26.4310  -30.5500 O   0  0  0  0  0  0  0  0  0  0  0  0
   -5.9050   24.1440  -30.5880 C   0  0  0  0  0  0  0  0  0  0  0  0
   -5.9640   23.0880  -31.4800 C   0  0  0  0  0  0  0  0  0  0  0  0
   -7.0970   22.4020  -31.0980 C   0  0  0  0  0  0  0  0  0  0  0  0
   -7.6390   21.1820  -31.7130 C   0  0  0  0  0  0  0  0  0  0  0  0
   -6.9080   20.0990  -32.1850 C   0  0  0  0  0  0  0  0  0  0  0  0
   -7.7110   19.0830  -32.7170 C   0  0  0  0  0  0  0  0  0  0  0  0
   -9.0700   19.3620  -32.6650 C   0  0  0  0  0  0  0  0  0  0  0  0
   -9.2730   20.8740  -31.9570 S   0  0  0  0  0  0  0  0  0  0  0  0
   -7.6450   23.0200  -30.0800 O   0  0  0  0  0  0  0  0  0  0  0  0
   -6.9600   24.0760  -29.7510 N   0  0  0  0  0  0  0  0  0  0  0  0
   -1.2877   26.1086  -26.9472 H   0  0  0  0  0  0  0  0  0  0  0  0
    0.1991   26.1579  -27.9542 H   0  0  0  0  0  0  0  0  0  0  0  0
   -0.9324   27.5530  -27.9542 H   0  0  0  0  0  0  0  0  0  0  0  0
   -1.0115   23.9354  -28.5950 H   0  0  0  0  0  0  0  0  0  0  0  0
   -2.4703   24.5317  -27.7153 H   0  0  0  0  0  0  0  0  0  0  0  0
   -2.2134   23.3980  -30.4759 H   0  0  0  0  0  0  0  0  0  0  0  0
   -3.5727   23.3051  -29.3012 H   0  0  0  0  0  0  0  0  0  0  0  0
   -5.2704   22.8516  -32.3004 H   0  0  0  0  0  0  0  0  0  0  0  0
   -5.8100   20.0452  -32.1448 H   0  0  0  0  0  0  0  0  0  0  0  0
   -7.3035   18.1514  -33.1367 H   0  0  0  0  0  0  0  0  0  0  0  0
   -9.8763   18.7062  -33.0253 H   0  0  0  0  0  0  0  0  0  0  0  0
  1  2  1  0
  2  3  1  0
  3  4  1  0
  4  5  1  0
  5  6  1  0
  6  7  2  0
  6  8  1  0
  8  9  1  0
  9 10  2  0
 10 11  1  0
 11 12  2  0
 12 13  1  0
 13 14  2  0
 14 15  1  0
 10 16  1  0
 16 17  1  0
 17  8  2  0
 15 11  1  0
  1 18  1  0
  1 19  1  0
  1 20  1  0
  3 21  1  0
  3 22  1  0
  4 23  1  0
  4 24  1  0
  9 25  1  0
 12 26  1  0
 13 27  1  0
 14 28  1  0
M  CHG  1   5  -1
M  END
>  <UniqueID>  (22) 
22

>  <SMILES>  (22) 
COCC[N-]C(=O)c1cc(-c2cccs2)on1

>  <Energy>  (22) 
85.28802377003835

>  <Genealogy>  (22) 
COCC[N-]C(=O)c1cc(-c2cccs2)on1 (protonated)
COCC[N-]C(=O)c1cc(-c2cccs2)on1 (3D coordinates assigned)
COCC[N-]C(=O)c1cc(-c2cccs2)on1 (optimized conformer: 85.28802377003835 kcal/mol)

>  <smiles>  (22) 
COCCNC(=O)c1cc(-c2cccs2)on1

>  <score_type>  (22) 
oracle

>  <origin>  (22) 
adg

>  <m_score__min__energy>  (22) 
-8.7799999999999994

>  <m_primary>  (22) 
energy

$$$$
22:0
     RDKit          3D

 53 54  0  0  0  0  0  0  0  0999 V2000
   -2.5890   20.5860  -31.1700 C   0  0  0  0  0  0  0  0  0  0  0  0
   -1.4180   21.5380  -30.9340 C   0  0  0  0  0  0  0  0  0  0  0  0
   -1.8010   22.6230  -30.0140 N   0  0  0  0  0  0  0  0  0  0  0  0
   -0.6520   23.4660  -29.6390 C   0  0  0  0  0  0  0  0  0  0  0  0
   -0.8120   24.0940  -28.2430 C   0  0  0  0  0  0  0  0  0  0  0  0
   -1.8930   23.4060  -27.5000 N   0  0  0  0  0  0  0  0  0  0  0  0
   -2.9020   24.3690  -26.9990 C   0  0  0  0  0  0  0  0  0  0  0  0
   -4.2220   24.1820  -27.7520 C   0  0  0  0  0  0  0  0  0  0  0  0
   -4.0190   23.4130  -28.9360 O   0  0  0  0  0  0  0  0  0  0  0  0
   -4.5510   23.7590  -30.1840 C   0  0  0  0  0  0  0  0  0  0  0  0
   -4.0600   24.7190  -30.8380 O   0  0  0  0  0  0  0  0  0  0  0  0
   -5.6880   22.9900  -30.7370 C   0  0  0  0  0  0  0  0  0  0  0  0
   -6.9300   22.9710  -30.0810 C   0  0  0  0  0  0  0  0  0  0  0  0
   -8.0010   22.2420  -30.6060 C   0  0  0  0  0  0  0  0  0  0  0  0
   -7.8530   21.5170  -31.8000 C   0  0  0  0  0  0  0  0  0  0  0  0
   -8.9580   20.7670  -32.3380 N   0  0  0  0  0  0  0  0  0  0  0  0
   -8.7820   19.6240  -32.8120 O   0  0  0  0  0  0  0  0  0  0  0  0
  -10.2280   21.2970  -32.3420 O   0  0  0  0  0  0  0  0  0  0  0  0
   -6.6100   21.5350  -32.4570 C   0  0  0  0  0  0  0  0  0  0  0  0
   -5.5400   22.2650  -31.9310 C   0  0  0  0  0  0  0  0  0  0  0  0
   -1.3450   22.5900  -26.3950 C   0  0  0  0  0  0  0  0  0  0  0  0
   -1.0460   21.1960  -26.8800 C   0  0  0  0  0  0  0  0  0  0  0  0
   -1.9520   20.1470  -26.6520 C   0  0  0  0  0  0  0  0  0  0  0  0
   -1.6570   18.8540  -27.0950 C   0  0  0  0  0  0  0  0  0  0  0  0
   -0.4580   18.5990  -27.7670 C   0  0  0  0  0  0  0  0  0  0  0  0
   -0.1740   17.3440  -28.1940 F   0  0  0  0  0  0  0  0  0  0  0  0
    0.4480   19.6380  -27.9970 C   0  0  0  0  0  0  0  0  0  0  0  0
    0.1570   20.9320  -27.5560 C   0  0  0  0  0  0  0  0  0  0  0  0
   -2.9944   20.2564  -30.2020 H   0  0  0  0  0  0  0  0  0  0  0  0
   -3.3745   21.1049  -31.7390 H   0  0  0  0  0  0  0  0  0  0  0  0
   -2.2414   19.7111  -31.7390 H   0  0  0  0  0  0  0  0  0  0  0  0
   -0.5787   20.9758  -30.4986 H   0  0  0  0  0  0  0  0  0  0  0  0
   -1.1247   21.9806  -31.8974 H   0  0  0  0  0  0  0  0  0  0  0  0
   -2.2500   22.2230  -29.1560 H   0  0  0  0  0  0  0  0  0  0  0  0
   -2.5040   23.2350  -30.4930 H   0  0  0  0  0  0  0  0  0  0  0  0
    0.2569   22.8464  -29.6449 H   0  0  0  0  0  0  0  0  0  0  0  0
   -0.5872   24.2864  -30.3689 H   0  0  0  0  0  0  0  0  0  0  0  0
    0.1324   23.9941  -27.6880 H   0  0  0  0  0  0  0  0  0  0  0  0
   -1.0690   25.1579  -28.3525 H   0  0  0  0  0  0  0  0  0  0  0  0
   -3.0676   24.1977  -25.9251 H   0  0  0  0  0  0  0  0  0  0  0  0
   -2.5355   25.3935  -27.1607 H   0  0  0  0  0  0  0  0  0  0  0  0
   -4.9392   23.6609  -27.1008 H   0  0  0  0  0  0  0  0  0  0  0  0
   -4.6132   25.1708  -28.0336 H   0  0  0  0  0  0  0  0  0  0  0  0
   -7.0610   23.5349  -29.1457 H   0  0  0  0  0  0  0  0  0  0  0  0
   -8.9671   22.2360  -30.0801 H   0  0  0  0  0  0  0  0  0  0  0  0
   -6.4785   20.9705  -33.3919 H   0  0  0  0  0  0  0  0  0  0  0  0
   -4.5738   22.2717  -32.4567 H   0  0  0  0  0  0  0  0  0  0  0  0
   -0.4182   23.0533  -26.0256 H   0  0  0  0  0  0  0  0  0  0  0  0
   -2.0864   22.5378  -25.5841 H   0  0  0  0  0  0  0  0  0  0  0  0
   -2.8964   20.3433  -26.1233 H   0  0  0  0  0  0  0  0  0  0  0  0
   -2.3698   18.0359  -26.9144 H   0  0  0  0  0  0  0  0  0  0  0  0
    1.3914   19.4371  -28.5258 H   0  0  0  0  0  0  0  0  0  0  0  0
    0.8728   21.7470  -27.7389 H   0  0  0  0  0  0  0  0  0  0  0  0
  1  2  1  0
  2  3  1  0
  3  4  1  0
  4  5  1  0
  5  6  1  0
  6  7  1  0
  7  8  1  0
  8  9  1  0
  9 10  1  0
 10 11  2  0
 10 12  1  0
 12 13  2  0
 13 14  1  0
 14 15  2  0
 15 16  1  0
 16 17  2  0
 16 18  1  0
 15 19  1  0
 19 20  2  0
  6 21  1  0
 21 22  1  0
 22 23  2  0
 23 24  1  0
 24 25  2  0
 25 26  1  0
 25 27  1  0
 27 28  2  0
 20 12  1  0
 28 22  1  0
  1 29  1  0
  1 30  1  0
  1 31  1  0
  2 32  1  0
  2 33  1  0
  3 34  1  0
  3 35  1  0
  4 36  1  0
  4 37  1  0
  5 38  1  0
  5 39  1  0
  7 40  1  0
  7 41  1  0
  8 42  1  0
  8 43  1  0
 13 44  1  0
 14 45  1  0
 19 46  1  0
 20 47  1  0
 21 48  1  0
 21 49  1  0
 23 50  1  0
 24 51  1  0
 27 52  1  0
 28 53  1  0
M  CHG  3   3   1  16   1  18  -1
M  END
>  <UniqueID>  (23) 
23

>  <SMILES>  (23) 
CC[NH2+]CCN(CCOC(=O)c1ccc([N+](=O)[O-])cc1)Cc1ccc(F)cc1

>  <Energy>  (23) 
50.253585798155335

>  <Genealogy>  (23) 
CC[NH2+]CCN(CCOC(=O)c1ccc([N+](=O)[O-])cc1)Cc1ccc(F)cc1 (protonated)
CC[NH2+]CCN(CCOC(=O)c1ccc([N+](=O)[O-])cc1)Cc1ccc(F)cc1 (3D coordinates assigned)
CC[NH2+]CCN(CCOC(=O)c1ccc([N+](=O)[O-])cc1)Cc1ccc(F)cc1 (optimized conformer: 50.253585798155335 kcal/mol)

>  <smiles>  (23) 
CCNCCN(CCOC(=O)c1ccc([N+](=O)[O-])cc1)Cc1ccc(F)cc1

>  <score_type>  (23) 
oracle

>  <origin>  (23) 
adg

>  <m_score__min__energy>  (23) 
-7.5199999999999996

>  <m_primary>  (23) 
energy

$$$$
23:0
     RDKit          3D

 60 63  0  0  0  0  0  0  0  0999 V2000
   -8.8030   18.6660  -31.6830 C   0  0  0  0  0  0  0  0  0  0  0  0
   -9.1230   19.9970  -32.3490 C   0  0  0  0  0  0  0  0  0  0  0  0
   -7.9140   20.8510  -32.3440 N   0  0  0  0  0  0  0  0  0  0  0  0
   -6.6560   20.0730  -32.3380 C   0  0  0  0  0  0  0  0  0  0  0  0
   -6.2040   19.6160  -33.7340 C   0  0  0  0  0  0  0  0  0  0  0  0
   -7.9430   21.9090  -31.3130 C   0  0  0  0  0  0  0  0  0  0  0  0
   -7.3020   23.1960  -31.8460 C   0  0  0  0  0  0  0  0  0  0  0  0
   -5.8860   22.9800  -32.1410 N   0  0  0  0  0  0  0  0  0  0  0  0
   -4.9050   22.6890  -31.1290 C   0  0  0  0  0  0  0  0  0  0  0  0
   -5.1670   23.0040  -29.7580 C   0  0  0  0  0  0  0  0  0  0  0  0
   -4.1990   22.7700  -28.7520 C   0  0  0  0  0  0  0  0  0  0  0  0
   -2.9840   22.2180  -29.1480 C   0  0  0  0  0  0  0  0  0  0  0  0
   -2.7590   21.9190  -30.4390 C   0  0  0  0  0  0  0  0  0  0  0  0
   -1.5120   21.3970  -30.5130 C   0  0  0  0  0  0  0  0  0  0  0  0
   -0.9640   21.3800  -29.2740 N   0  0  0  0  0  0  0  0  0  0  0  0
   -1.8780   21.8880  -28.4400 N   0  0  0  0  0  0  0  0  0  0  0  0
   -1.6610   22.0810  -27.0100 C   0  0  0  0  0  0  0  0  0  0  0  0
   -1.4760   20.7370  -26.2910 C   0  0  0  0  0  0  0  0  0  0  0  0
   -2.0270   19.6260  -27.1090 N   0  0  0  0  0  0  0  0  0  0  0  0
   -0.9670   18.6690  -27.4890 C   0  0  0  0  0  0  0  0  0  0  0  0
   -3.0850   18.9140  -26.3720 C   0  0  0  0  0  0  0  0  0  0  0  0
   -0.9560   20.9620  -31.8030 C   0  0  0  0  0  0  0  0  0  0  0  0
    0.3300   20.4310  -31.9210 C   0  0  0  0  0  0  0  0  0  0  0  0
    0.7880   20.0400  -33.1820 C   0  0  0  0  0  0  0  0  0  0  0  0
   -0.0120   20.1740  -34.2740 N   0  0  0  0  0  0  0  0  0  0  0  0
   -1.2690   20.6860  -34.1910 C   0  0  0  0  0  0  0  0  0  0  0  0
   -1.7820   21.0990  -32.9520 C   0  0  0  0  0  0  0  0  0  0  0  0
   -3.1730   21.6670  -32.8220 C   0  0  0  0  0  0  0  0  0  0  0  0
   -3.9260   21.7340  -33.8310 O   0  0  0  0  0  0  0  0  0  0  0  0
   -3.6470   22.1180  -31.4760 C   0  0  0  0  0  0  0  0  0  0  0  0
   -8.8320   18.7866  -30.5900 H   0  0  0  0  0  0  0  0  0  0  0  0
   -9.5462   17.9149  -31.9889 H   0  0  0  0  0  0  0  0  0  0  0  0
   -7.7996   18.3348  -31.9889 H   0  0  0  0  0  0  0  0  0  0  0  0
   -9.4439   19.8208  -33.3863 H   0  0  0  0  0  0  0  0  0  0  0  0
   -9.9309   20.4997  -31.7972 H   0  0  0  0  0  0  0  0  0  0  0  0
   -5.8627   20.6994  -31.9041 H   0  0  0  0  0  0  0  0  0  0  0  0
   -6.8438   19.1639  -31.7479 H   0  0  0  0  0  0  0  0  0  0  0  0
   -5.4337   18.8372  -33.6333 H   0  0  0  0  0  0  0  0  0  0  0  0
   -7.0660   19.2103  -34.2839 H   0  0  0  0  0  0  0  0  0  0  0  0
   -5.7888   20.4734  -34.2839 H   0  0  0  0  0  0  0  0  0  0  0  0
   -8.9870   22.1135  -31.0334 H   0  0  0  0  0  0  0  0  0  0  0  0
   -7.3756   21.5660  -30.4353 H   0  0  0  0  0  0  0  0  0  0  0  0
   -7.8203   23.5042  -32.7660 H   0  0  0  0  0  0  0  0  0  0  0  0
   -7.3897   23.9804  -31.0798 H   0  0  0  0  0  0  0  0  0  0  0  0
   -5.5810   23.0480  -33.1370 H   0  0  0  0  0  0  0  0  0  0  0  0
   -6.1396   23.4364  -29.4804 H   0  0  0  0  0  0  0  0  0  0  0  0
   -4.3991   23.0148  -27.6984 H   0  0  0  0  0  0  0  0  0  0  0  0
   -0.7593   22.6937  -26.8632 H   0  0  0  0  0  0  0  0  0  0  0  0
   -2.5438   22.5836  -26.5880 H   0  0  0  0  0  0  0  0  0  0  0  0
   -0.4033   20.5629  -26.1206 H   0  0  0  0  0  0  0  0  0  0  0  0
   -2.0132   20.7712  -25.3317 H   0  0  0  0  0  0  0  0  0  0  0  0
   -0.5061   18.2528  -26.5811 H   0  0  0  0  0  0  0  0  0  0  0  0
   -1.4048   17.8543  -28.0844 H   0  0  0  0  0  0  0  0  0  0  0  0
   -0.2011   19.1876  -28.0844 H   0  0  0  0  0  0  0  0  0  0  0  0
   -2.9179   19.0265  -25.2906 H   0  0  0  0  0  0  0  0  0  0  0  0
   -4.0651   19.3370  -26.6375 H   0  0  0  0  0  0  0  0  0  0  0  0
   -3.0622   17.8468  -26.6375 H   0  0  0  0  0  0  0  0  0  0  0  0
    0.9727   20.3221  -31.0350 H   0  0  0  0  0  0  0  0  0  0  0  0
    1.7996   19.6222  -33.2920 H   0  0  0  0  0  0  0  0  0  0  0  0
   -1.8853   20.7767  -35.0976 H   0  0  0  0  0  0  0  0  0  0  0  0
  1  2  1  0
  2  3  1  0
  3  4  1  0
  4  5  1  0
  3  6  1  0
  6  7  1  0
  7  8  1  0
  8  9  1  0
  9 10  2  0
 10 11  1  0
 11 12  2  0
 12 13  1  0
 13 14  1  0
 14 15  2  0
 15 16  1  0
 16 17  1  0
 17 18  1  0
 18 19  1  0
 19 20  1  0
 19 21  1  0
 14 22  1  0
 22 23  2  0
 23 24  1  0
 24 25  2  0
 25 26  1  0
 26 27  2  0
 27 28  1  0
 28 29  2  0
 28 30  1  0
 30  9  1  0
 16 12  1  0
 27 22  1  0
 30 13  2  0
  1 31  1  0
  1 32  1  0
  1 33  1  0
  2 34  1  0
  2 35  1  0
  4 36  1  0
  4 37  1  0
  5 38  1  0
  5 39  1  0
  5 40  1  0
  6 41  1  0
  6 42  1  0
  7 43  1  0
  7 44  1  0
  8 45  1  0
 10 46  1  0
 11 47  1  0
 17 48  1  0
 17 49  1  0
 18 50  1  0
 18 51  1  0
 20 52  1  0
 20 53  1  0
 20 54  1  0
 21 55  1  0
 21 56  1  0
 21 57  1  0
 23 58  1  0
 24 59  1  0
 26 60  1  0
M  END
>  <UniqueID>  (24) 
24

>  <SMILES>  (24) 
CCN(CC)CCNc1ccc2c3c(nn2CCN(C)C)-c2ccncc2C(=O)c13

>  <Energy>  (24) 
116.98047449225389

>  <Genealogy>  (24) 
CCN(CC)CCNc1ccc2c3c(nn2CCN(C)C)-c2ccncc2C(=O)c13 (3D coordinates assigned)
CCN(CC)CCNc1ccc2c3c(nn2CCN(C)C)-c2ccncc2C(=O)c13 (nonaromatic ring conformer: 116.98047449225389 kcal/mol)

>  <smiles>  (24) 
CCN(CC)CCNc1ccc2c3c(nn2CCN(C)C)-c2ccncc2C(=O)c13

>  <score_type>  (24) 
oracle

>  <origin>  (24) 
adg

>  <m_score__min__energy>  (24) 
-8.5500000000000007

>  <m_primary>  (24) 
energy

$$$$
24:0
     RDKit          3D

 59 61  0  0  0  0  0  0  0  0999 V2000
   -5.4190   17.5670  -32.7180 C   0  0  0  0  0  0  0  0  0  0  0  0
   -5.5660   18.7820  -31.9890 O   0  0  0  0  0  0  0  0  0  0  0  0
   -6.7010   19.6060  -32.0380 C   0  0  0  0  0  0  0  0  0  0  0  0
   -7.9920   19.0730  -32.2090 C   0  0  0  0  0  0  0  0  0  0  0  0
   -9.1080   19.9080  -32.1880 C   0  0  0  0  0  0  0  0  0  0  0  0
   -8.9600   21.2750  -31.9700 C   0  0  0  0  0  0  0  0  0  0  0  0
   -7.6860   21.8300  -31.7650 C   0  0  0  0  0  0  0  0  0  0  0  0
   -7.5440   23.3250  -31.5420 C   0  0  0  0  0  0  0  0  0  0  0  0
   -6.3310   23.7060  -30.7840 N   0  0  0  0  0  0  0  0  0  0  0  0
   -6.4050   24.9960  -30.0660 C   0  0  0  0  0  0  0  0  0  0  0  0
   -5.3010   25.9990  -30.4650 C   0  0  0  0  0  0  0  0  0  0  0  0
   -4.0260   25.3010  -30.5950 N   0  0  0  0  0  0  0  0  0  0  0  0
   -3.6770   24.1920  -29.7600 C   0  0  0  0  0  0  0  0  0  0  0  0
   -3.8770   23.0100  -30.1580 O   0  0  0  0  0  0  0  0  0  0  0  0
   -3.0290   24.4410  -28.4260 C   0  0  0  0  0  0  0  0  0  0  0  0
   -1.6800   25.1440  -28.6050 C   0  0  0  0  0  0  0  0  0  0  0  0
   -1.1160   25.5310  -27.2370 C   0  0  0  0  0  0  0  0  0  0  0  0
   -1.1740   24.4150  -26.2780 N   0  0  0  0  0  0  0  0  0  0  0  0
   -0.5410   24.5670  -24.9880 C   0  0  0  0  0  0  0  0  0  0  0  0
   -0.3660   23.5610  -24.2460 O   0  0  0  0  0  0  0  0  0  0  0  0
   -0.0090   25.9040  -24.5350 C   0  0  0  0  0  0  0  0  0  0  0  0
   -1.0530   27.0120  -24.4940 C   0  0  0  0  0  0  0  0  0  0  0  0
   -0.5320   26.4170  -23.2010 C   0  0  0  0  0  0  0  0  0  0  0  0
   -1.6310   23.0830  -26.7170 C   0  0  0  0  0  0  0  0  0  0  0  0
   -2.9000   23.1460  -27.5930 C   0  0  0  0  0  0  0  0  0  0  0  0
   -6.5460   20.9970  -31.8550 C   0  0  0  0  0  0  0  0  0  0  0  0
   -5.2710   21.5680  -31.7200 O   0  0  0  0  0  0  0  0  0  0  0  0
   -4.2870   21.5360  -32.7480 C   0  0  0  0  0  0  0  0  0  0  0  0
   -5.3174   16.7274  -32.0146 H   0  0  0  0  0  0  0  0  0  0  0  0
   -6.3047   17.4098  -33.3511 H   0  0  0  0  0  0  0  0  0  0  0  0
   -4.5214   17.6256  -33.3511 H   0  0  0  0  0  0  0  0  0  0  0  0
   -8.1213   17.9911  -32.3601 H   0  0  0  0  0  0  0  0  0  0  0  0
  -10.1111   19.4845  -32.3445 H   0  0  0  0  0  0  0  0  0  0  0  0
   -9.8472   21.9252  -31.9582 H   0  0  0  0  0  0  0  0  0  0  0  0
   -7.5085   23.8198  -32.5238 H   0  0  0  0  0  0  0  0  0  0  0  0
   -8.4088   23.6416  -30.9405 H   0  0  0  0  0  0  0  0  0  0  0  0
   -5.5210   23.7500  -31.4480 H   0  0  0  0  0  0  0  0  0  0  0  0
   -6.1170   22.9470  -30.0950 H   0  0  0  0  0  0  0  0  0  0  0  0
   -7.3822   25.4545  -30.2776 H   0  0  0  0  0  0  0  0  0  0  0  0
   -6.2643   24.7750  -28.9977 H   0  0  0  0  0  0  0  0  0  0  0  0
   -5.5616   26.4664  -31.4260 H   0  0  0  0  0  0  0  0  0  0  0  0
   -5.2148   26.7737  -29.6888 H   0  0  0  0  0  0  0  0  0  0  0  0
   -3.6860   25.1121  -27.8533 H   0  0  0  0  0  0  0  0  0  0  0  0
   -0.9780   24.4651  -29.1114 H   0  0  0  0  0  0  0  0  0  0  0  0
   -1.8190   26.0508  -29.2120 H   0  0  0  0  0  0  0  0  0  0  0  0
   -0.0671   25.8388  -27.3600 H   0  0  0  0  0  0  0  0  0  0  0  0
   -1.7290   26.3526  -26.8380 H   0  0  0  0  0  0  0  0  0  0  0  0
    0.9922   25.7748  -24.9720 H   0  0  0  0  0  0  0  0  0  0  0  0
   -0.7767   28.0383  -24.7774 H   0  0  0  0  0  0  0  0  0  0  0  0
   -2.0495   27.1576  -24.9365 H   0  0  0  0  0  0  0  0  0  0  0  0
    0.1219   27.0120  -22.5465 H   0  0  0  0  0  0  0  0  0  0  0  0
   -0.9947   25.9527  -22.3177 H   0  0  0  0  0  0  0  0  0  0  0  0
   -0.8260   22.6088  -27.2977 H   0  0  0  0  0  0  0  0  0  0  0  0
   -1.8788   22.5036  -25.8154 H   0  0  0  0  0  0  0  0  0  0  0  0
   -2.8850   22.2907  -28.2845 H   0  0  0  0  0  0  0  0  0  0  0  0
   -3.7598   23.1235  -26.9072 H   0  0  0  0  0  0  0  0  0  0  0  0
   -3.2849   21.5034  -32.2955 H   0  0  0  0  0  0  0  0  0  0  0  0
   -4.4370   20.6423  -33.3715 H   0  0  0  0  0  0  0  0  0  0  0  0
   -4.3786   22.4376  -33.3715 H   0  0  0  0  0  0  0  0  0  0  0  0
  1  2  1  0
  2  3  1  0
  3  4  2  0
  4  5  1  0
  5  6  2  0
  6  7  1  0
  7  8  1  0
  8  9  1  0
  9 10  1  0
 10 11  1  0
 11 12  1  0
 12 13  1  0
 13 14  2  0
 13 15  1  0
 15 16  1  0
 16 17  1  0
 17 18  1  0
 18 19  1  0
 19 20  2  0
 19 21  1  0
 21 22  1  0
 22 23  1  0
 18 24  1  0
 24 25  1  0
  7 26  2  0
 26 27  1  0
 27 28  1  0
 26  3  1  0
 25 15  1  0
 23 21  1  0
  1 29  1  0
  1 30  1  0
  1 31  1  0
  4 32  1  0
  5 33  1  0
  6 34  1  0
  8 35  1  0
  8 36  1  0
  9 37  1  0
  9 38  1  0
 10 39  1  0
 10 40  1  0
 11 41  1  0
 11 42  1  0
 15 43  1  0
 16 44  1  0
 16 45  1  0
 17 46  1  0
 17 47  1  0
 21 48  1  0
 22 49  1  0
 22 50  1  0
 23 51  1  0
 23 52  1  0
 24 53  1  0
 24 54  1  0
 25 55  1  0
 25 56  1  0
 28 57  1  0
 28 58  1  0
 28 59  1  0
M  CHG  2   9   1  12  -1
M  END
>  <UniqueID>  (25) 
25

>  <SMILES>  (25) 
COc1cccc(C[NH2+]CC[N-]C(=O)C2CCN(C(=O)C3CC3)CC2)c1OC

>  <Energy>  (25) 
329.0062946388725

>  <Genealogy>  (25) 
COc1cccc(C[NH2+]CC[N-]C(=O)C2CCN(C(=O)C3CC3)CC2)c1OC (protonated)
COc1cccc(C[NH2+]CC[N-]C(=O)C2CCN(C(=O)C3CC3)CC2)c1OC (3D coordinates assigned)
COc1cccc(C[NH2+]CC[N-]C(=O)C2CCN(C(=O)C3CC3)CC2)c1OC (nonaromatic ring conformer: 329.0062946388725 kcal/mol)

>  <smiles>  (25) 
COc1cccc(CNCCNC(=O)C2CCN(C(=O)C3CC3)CC2)c1OC

>  <score_type>  (25) 
oracle

>  <origin>  (25) 
adg

>  <m_score__min__energy>  (25) 
-8.8499999999999996

>  <m_primary>  (25) 
energy

$$$$
25:0
     RDKit          3D

 37 40  0  0  0  0  0  0  0  0999 V2000
   -2.9340   22.1350  -31.8340 C   0  0  0  0  0  0  0  0  0  0  0  0
   -4.2980   21.5460  -32.0050 C   0  0  0  0  0  0  0  0  0  0  0  0
   -4.5060   20.3130  -32.5250 N   0  0  0  0  0  0  0  0  0  0  0  0
   -5.8470   20.1690  -32.4830 C   0  0  0  0  0  0  0  0  0  0  0  0
   -6.5670   19.0380  -32.9030 C   0  0  0  0  0  0  0  0  0  0  0  0
   -5.9000   17.8450  -33.4800 C   0  0  0  0  0  0  0  0  0  0  0  0
   -6.1090   16.5730  -32.9250 C   0  0  0  0  0  0  0  0  0  0  0  0
   -5.4810   15.4560  -33.4780 C   0  0  0  0  0  0  0  0  0  0  0  0
   -4.6510   15.6180  -34.5880 C   0  0  0  0  0  0  0  0  0  0  0  0
   -4.4600   16.8520  -35.1250 N   0  0  0  0  0  0  0  0  0  0  0  0
   -5.0610   17.9560  -34.6020 C   0  0  0  0  0  0  0  0  0  0  0  0
   -7.9690   19.0780  -32.7510 C   0  0  0  0  0  0  0  0  0  0  0  0
   -8.6000   20.2140  -32.2180 C   0  0  0  0  0  0  0  0  0  0  0  0
   -7.8290   21.3140  -31.8230 C   0  0  0  0  0  0  0  0  0  0  0  0
   -6.4780   21.2380  -31.9600 N   0  0  0  0  0  0  0  0  0  0  0  0
   -5.5140   22.1300  -31.6630 C   0  0  0  0  0  0  0  0  0  0  0  0
   -5.7330   23.4510  -31.0350 C   0  0  0  0  0  0  0  0  0  0  0  0
   -6.8930   23.7170  -30.2910 C   0  0  0  0  0  0  0  0  0  0  0  0
   -7.0660   24.9780  -29.7170 C   0  0  0  0  0  0  0  0  0  0  0  0
   -6.0890   25.9580  -29.8840 C   0  0  0  0  0  0  0  0  0  0  0  0
   -4.9440   25.6590  -30.6250 C   0  0  0  0  0  0  0  0  0  0  0  0
   -4.7930   24.4260  -31.1770 N   0  0  0  0  0  0  0  0  0  0  0  0
   -2.7085   22.2324  -30.7618 H   0  0  0  0  0  0  0  0  0  0  0  0
   -2.1891   21.4784  -32.3072 H   0  0  0  0  0  0  0  0  0  0  0  0
   -2.9012   23.1275  -32.3072 H   0  0  0  0  0  0  0  0  0  0  0  0
   -6.7689   16.4562  -32.0527 H   0  0  0  0  0  0  0  0  0  0  0  0
   -5.6387   14.4580  -33.0432 H   0  0  0  0  0  0  0  0  0  0  0  0
   -4.1497   14.7443  -35.0299 H   0  0  0  0  0  0  0  0  0  0  0  0
   -3.8420   16.9550  -35.9600 H   0  0  0  0  0  0  0  0  0  0  0  0
   -4.8888   18.9410  -35.0605 H   0  0  0  0  0  0  0  0  0  0  0  0
   -8.5742   18.2105  -33.0530 H   0  0  0  0  0  0  0  0  0  0  0  0
   -9.6945   20.2394  -32.1114 H   0  0  0  0  0  0  0  0  0  0  0  0
   -8.3041   22.2171  -31.4122 H   0  0  0  0  0  0  0  0  0  0  0  0
   -7.6593   22.9386  -30.1612 H   0  0  0  0  0  0  0  0  0  0  0  0
   -7.9723   25.1978  -29.1336 H   0  0  0  0  0  0  0  0  0  0  0  0
   -6.2185   26.9549  -29.4374 H   0  0  0  0  0  0  0  0  0  0  0  0
   -4.1635   26.4219  -30.7622 H   0  0  0  0  0  0  0  0  0  0  0  0
  1  2  1  0
  2  3  1  0
  3  4  2  0
  4  5  1  0
  5  6  1  0
  6  7  2  0
  7  8  1  0
  8  9  2  0
  9 10  1  0
 10 11  2  0
  5 12  2  0
 12 13  1  0
 13 14  2  0
 14 15  1  0
 15 16  1  0
 16 17  1  0
 17 18  2  0
 18 19  1  0
 19 20  2  0
 20 21  1  0
 21 22  2  0
 16  2  2  0
 22 17  1  0
 15  4  1  0
 11  6  1  0
  1 23  1  0
  1 24  1  0
  1 25  1  0
  7 26  1  0
  8 27  1  0
  9 28  1  0
 10 29  1  0
 11 30  1  0
 12 31  1  0
 13 32  1  0
 14 33  1  0
 18 34  1  0
 19 35  1  0
 20 36  1  0
 21 37  1  0
M  CHG  1  10   1
M  END
>  <UniqueID>  (26) 
26

>  <SMILES>  (26) 
Cc1nc2c(-c3ccc[nH+]c3)cccn2c1-c1ccccn1

>  <Energy>  (26) 
86.95501334284445

>  <Genealogy>  (26) 
Cc1nc2c(-c3ccc[nH+]c3)cccn2c1-c1ccccn1 (protonated)
Cc1nc2c(-c3ccc[nH+]c3)cccn2c1-c1ccccn1 (3D coordinates assigned)
Cc1nc2c(-c3ccc[nH+]c3)cccn2c1-c1ccccn1 (optimized conformer: 86.95501334284445 kcal/mol)

>  <smiles>  (26) 
Cc1nc2c(-c3cccnc3)cccn2c1-c1ccccn1

>  <score_type>  (26) 
oracle

>  <origin>  (26) 
adg

>  <m_score__min__energy>  (26) 
-7.6500000000000004

>  <m_primary>  (26) 
energy

$$$$
26:0
     RDKit          3D

 35 38  0  0  0  0  0  0  0  0999 V2000
   -7.5570   23.4030  -32.3380 C   0  0  0  0  0  0  0  0  0  0  0  0
   -6.3620   23.3740  -31.4380 C   0  0  0  0  0  0  0  0  0  0  0  0
   -6.0110   24.5670  -30.3060 S   0  0  0  0  0  0  0  0  0  0  0  0
   -4.6200   23.7970  -29.7500 C   0  0  0  0  0  0  0  0  0  0  0  0
   -3.7280   24.2870  -28.6750 C   0  0  0  0  0  0  0  0  0  0  0  0
   -2.3750   24.5760  -28.9300 C   0  0  0  0  0  0  0  0  0  0  0  0
   -1.5430   25.0380  -27.9050 C   0  0  0  0  0  0  0  0  0  0  0  0
   -2.0520   25.2180  -26.6160 C   0  0  0  0  0  0  0  0  0  0  0  0
   -1.0060   25.7990  -25.3330 Cl  0  0  0  0  0  0  0  0  0  0  0  0
   -3.3940   24.9340  -26.3510 C   0  0  0  0  0  0  0  0  0  0  0  0
   -4.2290   24.4720  -27.3720 C   0  0  0  0  0  0  0  0  0  0  0  0
   -4.4110   22.6420  -30.4210 N   0  0  0  0  0  0  0  0  0  0  0  0
   -5.3630   22.3970  -31.3650 C   0  0  0  0  0  0  0  0  0  0  0  0
   -5.2930   21.1850  -32.2100 C   0  0  0  0  0  0  0  0  0  0  0  0
   -4.2610   20.8110  -33.0710 C   0  0  0  0  0  0  0  0  0  0  0  0
   -4.5200   19.6060  -33.6270 N   0  0  0  0  0  0  0  0  0  0  0  0
   -5.7000   19.2080  -33.1240 C   0  0  0  0  0  0  0  0  0  0  0  0
   -6.3750   18.0210  -33.4030 C   0  0  0  0  0  0  0  0  0  0  0  0
   -7.6070   17.8000  -32.7620 C   0  0  0  0  0  0  0  0  0  0  0  0
   -8.1310   18.7590  -31.8690 C   0  0  0  0  0  0  0  0  0  0  0  0
   -7.4270   19.9480  -31.6060 C   0  0  0  0  0  0  0  0  0  0  0  0
   -6.2020   20.1400  -32.2510 C   0  0  0  0  0  0  0  0  0  0  0  0
   -8.4735   23.4252  -31.7300 H   0  0  0  0  0  0  0  0  0  0  0  0
   -7.5162   24.3004  -32.9728 H   0  0  0  0  0  0  0  0  0  0  0  0
   -7.5598   22.5047  -32.9728 H   0  0  0  0  0  0  0  0  0  0  0  0
   -1.9685   24.4376  -29.9427 H   0  0  0  0  0  0  0  0  0  0  0  0
   -0.4861   25.2601  -28.1139 H   0  0  0  0  0  0  0  0  0  0  0  0
   -3.7944   25.0744  -25.3361 H   0  0  0  0  0  0  0  0  0  0  0  0
   -5.2848   24.2514  -27.1563 H   0  0  0  0  0  0  0  0  0  0  0  0
   -3.3618   21.4126  -33.2699 H   0  0  0  0  0  0  0  0  0  0  0  0
   -3.9120   19.0860  -34.2990 H   0  0  0  0  0  0  0  0  0  0  0  0
   -5.9576   17.2811  -34.1018 H   0  0  0  0  0  0  0  0  0  0  0  0
   -8.1662   16.8732  -32.9580 H   0  0  0  0  0  0  0  0  0  0  0  0
   -9.0966   18.5754  -31.3752 H   0  0  0  0  0  0  0  0  0  0  0  0
   -7.8281   20.7033  -30.9142 H   0  0  0  0  0  0  0  0  0  0  0  0
  1  2  1  0
  2  3  1  0
  3  4  1  0
  4  5  1  0
  5  6  2  0
  6  7  1  0
  7  8  2  0
  8  9  1  0
  8 10  1  0
 10 11  2  0
  4 12  2  0
 12 13  1  0
 13 14  1  0
 14 15  2  0
 15 16  1  0
 16 17  1  0
 17 18  2  0
 18 19  1  0
 19 20  2  0
 20 21  1  0
 21 22  2  0
 13  2  2  0
 22 14  1  0
 11  5  1  0
 22 17  1  0
  1 23  1  0
  1 24  1  0
  1 25  1  0
  6 26  1  0
  7 27  1  0
 10 28  1  0
 11 29  1  0
 15 30  1  0
 16 31  1  0
 18 32  1  0
 19 33  1  0
 20 34  1  0
 21 35  1  0
M  END
>  <UniqueID>  (27) 
27

>  <SMILES>  (27) 
Cc1sc(-c2ccc(Cl)cc2)nc1-c1c[nH]c2ccccc12

>  <Energy>  (27) 
105.44658592152977

>  <Genealogy>  (27) 
Cc1sc(-c2ccc(Cl)cc2)nc1-c1c[nH]c2ccccc12 (3D coordinates assigned)
Cc1sc(-c2ccc(Cl)cc2)nc1-c1c[nH]c2ccccc12 (optimized conformer: 105.44658592152977 kcal/mol)

>  <smiles>  (27) 
Cc1sc(-c2ccc(Cl)cc2)nc1-c1c[nH]c2ccccc12

>  <score_type>  (27) 
oracle

>  <origin>  (27) 
adg

>  <m_score__min__energy>  (27) 
-8.5099999999999998

>  <m_primary>  (27) 
energy

$$$$
27:0
     RDKit          3D

 38 40  0  0  0  0  0  0  0  0999 V2000
   -3.0200   19.8040  -27.1210 C   0  0  0  0  0  0  0  0  0  0  0  0
   -1.9450   20.8670  -27.3280 C   0  0  0  0  0  0  0  0  0  0  0  0
   -2.4700   21.9990  -28.1690 C   0  0  0  0  0  0  0  0  0  0  0  0
   -2.2750   21.9990  -29.5590 C   0  0  0  0  0  0  0  0  0  0  0  0
   -2.7330   23.0660  -30.3370 C   0  0  0  0  0  0  0  0  0  0  0  0
   -3.3830   24.1590  -29.7320 C   0  0  0  0  0  0  0  0  0  0  0  0
   -3.8580   25.2580  -30.4650 O   0  0  0  0  0  0  0  0  0  0  0  0
   -5.2210   25.4840  -30.8230 C   0  0  0  0  0  0  0  0  0  0  0  0
   -6.0300   24.2440  -30.6080 C   0  0  0  0  0  0  0  0  0  0  0  0
   -6.7530   23.9850  -29.5070 N   0  0  0  0  0  0  0  0  0  0  0  0
   -7.3370   22.8110  -29.6820 N   0  0  0  0  0  0  0  0  0  0  0  0
   -6.9420   22.3910  -30.9030 C   0  0  0  0  0  0  0  0  0  0  0  0
   -7.3580   21.1180  -31.5220 C   0  0  0  0  0  0  0  0  0  0  0  0
   -8.6930   20.6840  -31.4400 C   0  0  0  0  0  0  0  0  0  0  0  0
   -9.0790   19.4750  -32.0310 C   0  0  0  0  0  0  0  0  0  0  0  0
   -8.1390   18.6940  -32.7080 C   0  0  0  0  0  0  0  0  0  0  0  0
   -6.8100   19.1190  -32.7950 C   0  0  0  0  0  0  0  0  0  0  0  0
   -6.4200   20.3260  -32.2050 C   0  0  0  0  0  0  0  0  0  0  0  0
   -6.1400   23.2650  -31.4730 O   0  0  0  0  0  0  0  0  0  0  0  0
   -3.5680   24.1590  -28.3450 C   0  0  0  0  0  0  0  0  0  0  0  0
   -3.1110   23.0920  -27.5660 C   0  0  0  0  0  0  0  0  0  0  0  0
   -3.1783   19.6475  -26.0438 H   0  0  0  0  0  0  0  0  0  0  0  0
   -3.9598   20.1377  -27.5850 H   0  0  0  0  0  0  0  0  0  0  0  0
   -2.6968   18.8605  -27.5850 H   0  0  0  0  0  0  0  0  0  0  0  0
   -1.6323   21.2595  -26.3491 H   0  0  0  0  0  0  0  0  0  0  0  0
   -1.0901   20.4086  -27.8467 H   0  0  0  0  0  0  0  0  0  0  0  0
   -1.7588   21.1544  -30.0388 H   0  0  0  0  0  0  0  0  0  0  0  0
   -2.5850   23.0519  -31.4269 H   0  0  0  0  0  0  0  0  0  0  0  0
   -5.6290   26.2950  -30.2019 H   0  0  0  0  0  0  0  0  0  0  0  0
   -5.2690   25.7610  -31.8865 H   0  0  0  0  0  0  0  0  0  0  0  0
   -6.8550   24.5840  -28.6580 H   0  0  0  0  0  0  0  0  0  0  0  0
   -9.4368   21.2967  -30.9095 H   0  0  0  0  0  0  0  0  0  0  0  0
  -10.1243   19.1394  -31.9622 H   0  0  0  0  0  0  0  0  0  0  0  0
   -8.4445   17.7449  -33.1725 H   0  0  0  0  0  0  0  0  0  0  0  0
   -6.0702   18.5037  -33.3279 H   0  0  0  0  0  0  0  0  0  0  0  0
   -5.3733   20.6567  -32.2763 H   0  0  0  0  0  0  0  0  0  0  0  0
   -4.0777   25.0064  -27.8632 H   0  0  0  0  0  0  0  0  0  0  0  0
   -3.2545   23.1093  -26.4755 H   0  0  0  0  0  0  0  0  0  0  0  0
  1  2  1  0
  2  3  1  0
  3  4  2  0
  4  5  1  0
  5  6  2  0
  6  7  1  0
  7  8  1  0
  8  9  1  0
  9 10  2  0
 10 11  1  0
 11 12  2  0
 12 13  1  0
 13 14  2  0
 14 15  1  0
 15 16  2  0
 16 17  1  0
 17 18  2  0
 12 19  1  0
  6 20  1  0
 20 21  2  0
 21  3  1  0
 19  9  1  0
 18 13  1  0
  1 22  1  0
  1 23  1  0
  1 24  1  0
  2 25  1  0
  2 26  1  0
  4 27  1  0
  5 28  1  0
  8 29  1  0
  8 30  1  0
 10 31  1  0
 14 32  1  0
 15 33  1  0
 16 34  1  0
 17 35  1  0
 18 36  1  0
 20 37  1  0
 21 38  1  0
M  CHG  1  10   1
M  END
>  <UniqueID>  (28) 
28

>  <SMILES>  (28) 
CCc1ccc(OCc2[nH+]nc(-c3ccccc3)o2)cc1

>  <Energy>  (28) 
71.22959597374816

>  <Genealogy>  (28) 
CCc1ccc(OCc2[nH+]nc(-c3ccccc3)o2)cc1 (protonated)
CCc1ccc(OCc2[nH+]nc(-c3ccccc3)o2)cc1 (3D coordinates assigned)
CCc1ccc(OCc2[nH+]nc(-c3ccccc3)o2)cc1 (optimized conformer: 71.22959597374816 kcal/mol)

>  <smiles>  (28) 
CCc1ccc(OCc2nnc(-c3ccccc3)o2)cc1

>  <score_type>  (28) 
oracle

>  <origin>  (28) 
adg

>  <m_score__min__energy>  (28) 
-7.9199999999999999

>  <m_primary>  (28) 
energy

$$$$
28:0
     RDKit          3D

 45 46  0  0  0  0  0  0  0  0999 V2000
   -2.5930   21.3990  -27.9810 C   0  0  0  0  0  0  0  0  0  0  0  0
   -3.0190   21.4570  -29.4540 C   0  0  0  0  0  0  0  0  0  0  0  0
   -2.2390   22.4180  -30.2740 N   0  0  0  0  0  0  0  0  0  0  0  0
   -1.1460   21.7990  -31.0570 C   0  0  0  0  0  0  0  0  0  0  0  0
   -1.6510   21.2280  -32.3820 C   0  0  0  0  0  0  0  0  0  0  0  0
   -1.7590   23.5730  -29.4820 C   0  0  0  0  0  0  0  0  0  0  0  0
   -2.9200   24.5380  -29.2110 C   0  0  0  0  0  0  0  0  0  0  0  0
   -3.5040   25.0200  -30.4610 N   0  0  0  0  0  0  0  0  0  0  0  0
   -4.8920   24.9810  -30.8240 C   0  0  0  0  0  0  0  0  0  0  0  0
   -5.5660   26.0410  -30.7480 O   0  0  0  0  0  0  0  0  0  0  0  0
   -5.5670   23.7420  -31.2470 C   0  0  0  0  0  0  0  0  0  0  0  0
   -4.9840   22.6550  -31.8950 C   0  0  0  0  0  0  0  0  0  0  0  0
   -5.9030   21.6400  -32.1880 C   0  0  0  0  0  0  0  0  0  0  0  0
   -7.1920   21.9180  -31.7530 C   0  0  0  0  0  0  0  0  0  0  0  0
   -7.2170   23.4500  -31.0640 S   0  0  0  0  0  0  0  0  0  0  0  0
   -8.3790   21.0460  -32.0180 C   0  0  0  0  0  0  0  0  0  0  0  0
   -7.9390   19.6140  -32.3650 C   0  0  0  0  0  0  0  0  0  0  0  0
   -6.7860   19.6150  -33.3950 C   0  0  2  0  0  0  0  0  0  0  0  0
   -6.4380   18.1840  -33.8200 C   0  0  0  0  0  0  0  0  0  0  0  0
   -5.5380   20.3280  -32.8240 C   0  0  0  0  0  0  0  0  0  0  0  0
   -3.4777   21.5194  -27.3384 H   0  0  0  0  0  0  0  0  0  0  0  0
   -2.1191   20.4281  -27.7743 H   0  0  0  0  0  0  0  0  0  0  0  0
   -1.8768   22.2079  -27.7743 H   0  0  0  0  0  0  0  0  0  0  0  0
   -2.8970   20.4538  -29.8885 H   0  0  0  0  0  0  0  0  0  0  0  0
   -4.0632   21.8026  -29.4685 H   0  0  0  0  0  0  0  0  0  0  0  0
   -0.3815   22.5617  -31.2661 H   0  0  0  0  0  0  0  0  0  0  0  0
   -0.7271   20.9717  -30.4653 H   0  0  0  0  0  0  0  0  0  0  0  0
   -2.3677   20.4177  -32.1827 H   0  0  0  0  0  0  0  0  0  0  0  0
   -2.1471   22.0227  -32.9584 H   0  0  0  0  0  0  0  0  0  0  0  0
   -0.8016   20.8327  -32.9584 H   0  0  0  0  0  0  0  0  0  0  0  0
   -1.3512   23.2150  -28.5252 H   0  0  0  0  0  0  0  0  0  0  0  0
   -0.9749   24.0988  -30.0466 H   0  0  0  0  0  0  0  0  0  0  0  0
   -3.6943   24.0150  -28.6305 H   0  0  0  0  0  0  0  0  0  0  0  0
   -2.5339   25.4013  -28.6491 H   0  0  0  0  0  0  0  0  0  0  0  0
   -3.9152   22.6000  -32.1494 H   0  0  0  0  0  0  0  0  0  0  0  0
   -9.0149   21.0203  -31.1208 H   0  0  0  0  0  0  0  0  0  0  0  0
   -8.9365   21.4597  -32.8712 H   0  0  0  0  0  0  0  0  0  0  0  0
   -7.5995   19.1111  -31.4475 H   0  0  0  0  0  0  0  0  0  0  0  0
   -8.7968   19.0839  -32.8044 H   0  0  0  0  0  0  0  0  0  0  0  0
   -7.1236   20.1693  -34.2831 H   0  0  0  0  0  0  0  0  0  0  0  0
   -6.2868   17.5623  -32.9252 H   0  0  0  0  0  0  0  0  0  0  0  0
   -7.2614   17.7692  -34.4199 H   0  0  0  0  0  0  0  0  0  0  0  0
   -5.5160   18.1936  -34.4199 H   0  0  0  0  0  0  0  0  0  0  0  0
   -5.0701   19.6808  -32.0676 H   0  0  0  0  0  0  0  0  0  0  0  0
   -4.8410   20.5250  -33.6519 H   0  0  0  0  0  0  0  0  0  0  0  0
  1  2  1  0
  2  3  1  0
  3  4  1  0
  4  5  1  0
  3  6  1  0
  6  7  1  0
  7  8  1  0
  8  9  1  0
  9 10  2  0
  9 11  1  0
 11 12  2  0
 12 13  1  0
 13 14  2  0
 14 15  1  0
 14 16  1  0
 16 17  1  0
 17 18  1  0
 18 19  1  0
 18 20  1  0
 15 11  1  0
 20 13  1  0
  1 21  1  0
  1 22  1  0
  1 23  1  0
  2 24  1  0
  2 25  1  0
  4 26  1  0
  4 27  1  0
  5 28  1  0
  5 29  1  0
  5 30  1  0
  6 31  1  0
  6 32  1  0
  7 33  1  0
  7 34  1  0
 12 35  1  0
 16 36  1  0
 16 37  1  0
 17 38  1  0
 17 39  1  0
 18 40  1  6
 19 41  1  0
 19 42  1  0
 19 43  1  0
 20 44  1  0
 20 45  1  0
M  CHG  1   8  -1
M  END
>  <UniqueID>  (29) 
29

>  <SMILES>  (29) 
CCN(CC)CC[N-]C(=O)c1cc2c(s1)CC[C@H](C)C2

>  <Energy>  (29) 
68.54562248004991

>  <Genealogy>  (29) 
CCN(CC)CC[N-]C(=O)c1cc2c(s1)CCC(C)C2 (protonated)
CCN(CC)CC[N-]C(=O)c1cc2c(s1)CC[C@H](C)C2 (chirality)
CCN(CC)CC[N-]C(=O)c1cc2c(s1)CC[C@H](C)C2 (3D coordinates assigned)
CCN(CC)CC[N-]C(=O)c1cc2c(s1)CC[C@H](C)C2 (nonaromatic ring conformer: 68.54562248004991 kcal/mol)

>  <smiles>  (29) 
CCN(CC)CCNC(=O)c1cc2c(s1)CCC(C)C2

>  <score_type>  (29) 
oracle

>  <origin>  (29) 
adg

>  <m_score__min__energy>  (29) 
-9.5700000000000003

>  <m_primary>  (29) 
energy

$$$$
29:0
     RDKit          3D

 60 63  0  0  0  0  0  0  0  0999 V2000
   -6.2070   16.5270  -33.9520 C   0  0  0  0  0  0  0  0  0  0  0  0
   -5.5150   16.4530  -32.5960 C   0  0  0  0  0  0  0  0  0  0  0  0
   -5.6550   17.6860  -31.8920 O   0  0  0  0  0  0  0  0  0  0  0  0
   -6.7230   18.5910  -32.0160 C   0  0  0  0  0  0  0  0  0  0  0  0
   -8.0510   18.2360  -31.7000 C   0  0  0  0  0  0  0  0  0  0  0  0
   -9.0880   19.1560  -31.8730 C   0  0  0  0  0  0  0  0  0  0  0  0
   -8.8160   20.4340  -32.3630 C   0  0  0  0  0  0  0  0  0  0  0  0
   -7.5050   20.7990  -32.6750 C   0  0  0  0  0  0  0  0  0  0  0  0
   -6.4540   19.8860  -32.4970 C   0  0  0  0  0  0  0  0  0  0  0  0
   -5.1060   20.2830  -32.7980 N   0  0  0  0  0  0  0  0  0  0  0  0
   -4.2660   19.4200  -33.6360 C   0  0  0  0  0  0  0  0  0  0  0  0
   -2.7750   19.5040  -33.2350 C   0  0  0  0  0  0  0  0  0  0  0  0
   -2.4050   20.7350  -32.4910 N   0  0  0  0  0  0  0  0  0  0  0  0
   -2.3770   20.5050  -31.0240 C   0  0  0  0  0  0  0  0  0  0  0  0
   -0.9490   20.5170  -30.4330 C   0  0  1  0  0  0  0  0  0  0  0  0
   -0.0110   20.4120  -31.4720 O   0  0  0  0  0  0  0  0  0  0  0  0
   -0.6640   21.7990  -29.6340 C   0  0  0  0  0  0  0  0  0  0  0  0
   -1.4560   21.8370  -28.4580 O   0  0  0  0  0  0  0  0  0  0  0  0
   -2.4180   22.8690  -28.5210 C   0  0  1  0  0  0  0  0  0  0  0  0
   -1.9120   23.9750  -29.4610 C   0  0  0  0  0  0  0  0  0  0  0  0
   -2.9520   24.9220  -29.7180 O   0  0  0  0  0  0  0  0  0  0  0  0
   -4.2750   24.5070  -29.9040 C   0  0  0  0  0  0  0  0  0  0  0  0
   -5.2350   25.3830  -30.4220 C   0  0  0  0  0  0  0  0  0  0  0  0
   -6.5450   24.9330  -30.6280 C   0  0  0  0  0  0  0  0  0  0  0  0
   -6.8930   23.6130  -30.3140 C   0  0  0  0  0  0  0  0  0  0  0  0
   -5.9340   22.7420  -29.7830 C   0  0  0  0  0  0  0  0  0  0  0  0
   -4.6290   23.1950  -29.5660 C   0  0  0  0  0  0  0  0  0  0  0  0
   -3.6620   22.3520  -29.0100 O   0  0  0  0  0  0  0  0  0  0  0  0
   -3.2320   21.8890  -32.9090 C   0  0  0  0  0  0  0  0  0  0  0  0
   -4.7130   21.6780  -32.5720 C   0  0  0  0  0  0  0  0  0  0  0  0
   -7.2909   16.6429  -33.8047 H   0  0  0  0  0  0  0  0  0  0  0  0
   -5.8193   17.3888  -34.5150 H   0  0  0  0  0  0  0  0  0  0  0  0
   -6.0103   15.6027  -34.5150 H   0  0  0  0  0  0  0  0  0  0  0  0
   -5.9678   15.6448  -32.0029 H   0  0  0  0  0  0  0  0  0  0  0  0
   -4.4446   16.2553  -32.7548 H   0  0  0  0  0  0  0  0  0  0  0  0
   -8.2713   17.2293  -31.3153 H   0  0  0  0  0  0  0  0  0  0  0  0
  -10.1209   18.8725  -31.6225 H   0  0  0  0  0  0  0  0  0  0  0  0
   -9.6352   21.1545  -32.5036 H   0  0  0  0  0  0  0  0  0  0  0  0
   -7.2948   21.8069  -33.0622 H   0  0  0  0  0  0  0  0  0  0  0  0
   -4.6056   18.3793  -33.5277 H   0  0  0  0  0  0  0  0  0  0  0  0
   -4.3591   19.7604  -34.6778 H   0  0  0  0  0  0  0  0  0  0  0  0
   -2.5404   18.6361  -32.6012 H   0  0  0  0  0  0  0  0  0  0  0  0
   -2.1997   19.5206  -34.1724 H   0  0  0  0  0  0  0  0  0  0  0  0
   -2.9645   21.2959  -30.5348 H   0  0  0  0  0  0  0  0  0  0  0  0
   -2.7978   19.5051  -30.8418 H   0  0  0  0  0  0  0  0  0  0  0  0
   -0.8689   19.6613  -29.7465 H   0  0  0  0  0  0  0  0  0  0  0  0
   -0.4990   20.5850  -32.3210 H   0  0  0  0  0  0  0  0  0  0  0  0
    0.3998   21.8229  -29.3551 H   0  0  0  0  0  0  0  0  0  0  0  0
   -0.9116   22.6701  -30.2584 H   0  0  0  0  0  0  0  0  0  0  0  0
   -2.5759   23.2816  -27.5136 H   0  0  0  0  0  0  0  0  0  0  0  0
   -1.0608   24.4894  -28.9910 H   0  0  0  0  0  0  0  0  0  0  0  0
   -1.5988   23.5204  -30.4125 H   0  0  0  0  0  0  0  0  0  0  0  0
   -4.9621   26.4202  -30.6663 H   0  0  0  0  0  0  0  0  0  0  0  0
   -7.3024   25.6177  -31.0373 H   0  0  0  0  0  0  0  0  0  0  0  0
   -7.9208   23.2603  -30.4848 H   0  0  0  0  0  0  0  0  0  0  0  0
   -6.2062   21.7049  -29.5374 H   0  0  0  0  0  0  0  0  0  0  0  0
   -2.8736   22.7906  -32.3907 H   0  0  0  0  0  0  0  0  0  0  0  0
   -3.1411   21.9985  -33.9998 H   0  0  0  0  0  0  0  0  0  0  0  0
   -4.8822   21.9335  -31.5156 H   0  0  0  0  0  0  0  0  0  0  0  0
   -5.3182   22.3245  -33.2245 H   0  0  0  0  0  0  0  0  0  0  0  0
  1  2  1  0
  2  3  1  0
  3  4  1  0
  4  5  2  0
  5  6  1  0
  6  7  2  0
  7  8  1  0
  8  9  2  0
  9 10  1  0
 10 11  1  0
 11 12  1  0
 12 13  1  0
 13 14  1  0
 14 15  1  0
 15 16  1  0
 15 17  1  0
 17 18  1  0
 18 19  1  0
 19 20  1  0
 20 21  1  0
 21 22  1  0
 22 23  2  0
 23 24  1  0
 24 25  2  0
 25 26  1  0
 26 27  2  0
 27 28  1  0
 13 29  1  0
 29 30  1  0
  9  4  1  0
 30 10  1  0
 28 19  1  0
 27 22  1  0
  1 31  1  0
  1 32  1  0
  1 33  1  0
  2 34  1  0
  2 35  1  0
  5 36  1  0
  6 37  1  0
  7 38  1  0
  8 39  1  0
 11 40  1  0
 11 41  1  0
 12 42  1  0
 12 43  1  0
 14 44  1  0
 14 45  1  0
 15 46  1  1
 16 47  1  0
 17 48  1  0
 17 49  1  0
 19 50  1  1
 20 51  1  0
 20 52  1  0
 23 53  1  0
 24 54  1  0
 25 55  1  0
 26 56  1  0
 29 57  1  0
 29 58  1  0
 30 59  1  0
 30 60  1  0
M  END
>  <UniqueID>  (30) 
30

>  <SMILES>  (30) 
CCOc1ccccc1N1CCN(C[C@@H](O)CO[C@H]2COc3ccccc3O2)CC1

>  <Energy>  (30) 
76.35781543498004

>  <Genealogy>  (30) 
CCOc1ccccc1N1CCN(C[C@@H](O)CO[C@H]2COc3ccccc3O2)CC1 (chirality)
CCOc1ccccc1N1CCN(C[C@@H](O)CO[C@H]2COc3ccccc3O2)CC1 (3D coordinates assigned)
CCOc1ccccc1N1CCN(C[C@@H](O)CO[C@H]2COc3ccccc3O2)CC1 (nonaromatic ring conformer: 76.35781543498004 kcal/mol)

>  <smiles>  (30) 
CCOc1ccccc1N1CCN(CC(O)COC2COc3ccccc3O2)CC1

>  <score_type>  (30) 
oracle

>  <origin>  (30) 
adg

>  <m_score__min__energy>  (30) 
-8.8499999999999996

>  <m_primary>  (30) 
energy

$$$$
30:0
     RDKit          3D

 24 25  0  0  0  0  0  0  0  0999 V2000
   -4.0710   23.7450  -27.9340 C   0  0  0  0  0  0  0  0  0  0  0  0
   -4.9980   24.1750  -29.0190 C   0  0  0  0  0  0  0  0  0  0  0  0
   -5.7270   25.3040  -28.9990 N   0  0  0  0  0  0  0  0  0  0  0  0
   -6.4490   25.3310  -30.1060 N   0  0  0  0  0  0  0  0  0  0  0  0
   -6.1300   24.2000  -30.7640 C   0  0  0  0  0  0  0  0  0  0  0  0
   -6.8400   23.7190  -32.3360 S   0  0  0  0  0  0  0  0  0  0  0  0
   -8.1710   22.7130  -31.5930 C   0  0  0  0  0  0  0  0  0  0  0  0
   -8.0110   21.2670  -31.9560 C   0  0  0  0  0  0  0  0  0  0  0  0
   -8.9850   20.3260  -31.5900 C   0  0  0  0  0  0  0  0  0  0  0  0
   -8.8260   18.9920  -31.9740 C   0  0  0  0  0  0  0  0  0  0  0  0
   -7.7070   18.6120  -32.7170 C   0  0  0  0  0  0  0  0  0  0  0  0
   -6.7600   19.5750  -33.0670 C   0  0  0  0  0  0  0  0  0  0  0  0
   -6.9310   20.8700  -32.6840 N   0  0  0  0  0  0  0  0  0  0  0  0
   -5.2430   23.4860  -30.1070 O   0  0  0  0  0  0  0  0  0  0  0  0
   -4.5278   23.9569  -26.9560 H   0  0  0  0  0  0  0  0  0  0  0  0
   -3.8784   22.6656  -28.0226 H   0  0  0  0  0  0  0  0  0  0  0  0
   -3.1226   24.2951  -28.0226 H   0  0  0  0  0  0  0  0  0  0  0  0
   -5.7430   26.0370  -28.2560 H   0  0  0  0  0  0  0  0  0  0  0  0
   -8.1331   22.8164  -30.4985 H   0  0  0  0  0  0  0  0  0  0  0  0
   -9.1383   23.0683  -31.9778 H   0  0  0  0  0  0  0  0  0  0  0  0
   -9.8649   20.6352  -31.0067 H   0  0  0  0  0  0  0  0  0  0  0  0
   -9.5806   18.2432  -31.6916 H   0  0  0  0  0  0  0  0  0  0  0  0
   -7.5732   17.5640  -33.0234 H   0  0  0  0  0  0  0  0  0  0  0  0
   -5.8745   19.2875  -33.6529 H   0  0  0  0  0  0  0  0  0  0  0  0
  1  2  1  0
  2  3  2  0
  3  4  1  0
  4  5  2  0
  5  6  1  0
  6  7  1  0
  7  8  1  0
  8  9  2  0
  9 10  1  0
 10 11  2  0
 11 12  1  0
 12 13  2  0
  5 14  1  0
 14  2  1  0
 13  8  1  0
  1 15  1  0
  1 16  1  0
  1 17  1  0
  3 18  1  0
  7 19  1  0
  7 20  1  0
  9 21  1  0
 10 22  1  0
 11 23  1  0
 12 24  1  0
M  CHG  1   3   1
M  END
>  <UniqueID>  (31) 
31

>  <SMILES>  (31) 
Cc1[nH+]nc(SCc2ccccn2)o1

>  <Energy>  (31) 
53.90843701880485

>  <Genealogy>  (31) 
Cc1[nH+]nc(SCc2ccccn2)o1 (protonated)
Cc1[nH+]nc(SCc2ccccn2)o1 (3D coordinates assigned)
Cc1[nH+]nc(SCc2ccccn2)o1 (optimized conformer: 53.90843701880485 kcal/mol)

>  <smiles>  (31) 
Cc1nnc(SCc2ccccn2)o1

>  <score_type>  (31) 
oracle

>  <origin>  (31) 
adg

>  <m_score__min__energy>  (31) 
-5.7699999999999996

>  <m_primary>  (31) 
energy

$$$$
31:0
     RDKit          3D

 27 27  0  0  0  0  0  0  0  0999 V2000
   -6.4880   25.6750  -29.4070 C   0  0  0  0  0  0  0  0  0  0  0  0
   -6.1200   25.0190  -30.3500 C   0  0  0  0  0  0  0  0  0  0  0  0
   -5.6720   24.2220  -31.4990 C   0  0  0  0  0  0  0  0  0  0  0  0
   -4.3600   23.6020  -31.2170 N   0  0  0  0  0  0  0  0  0  0  0  0
   -3.7850   24.1540  -29.9740 C   0  0  0  0  0  0  0  0  0  0  0  0
   -4.4990   22.1340  -31.1130 C   0  0  0  0  0  0  0  0  0  0  0  0
   -5.1390   21.5660  -32.3530 C   0  0  0  0  0  0  0  0  0  0  0  0
   -4.4950   21.6290  -33.4360 O   0  0  0  0  0  0  0  0  0  0  0  0
   -6.4970   20.9530  -32.3390 C   0  0  0  0  0  0  0  0  0  0  0  0
   -7.6090   21.7210  -31.9420 C   0  0  0  0  0  0  0  0  0  0  0  0
   -8.8900   21.1600  -31.9200 C   0  0  0  0  0  0  0  0  0  0  0  0
   -9.0790   19.8290  -32.2940 C   0  0  0  0  0  0  0  0  0  0  0  0
   -7.9880   19.0560  -32.6910 C   0  0  0  0  0  0  0  0  0  0  0  0
   -6.7040   19.6100  -32.7150 C   0  0  0  0  0  0  0  0  0  0  0  0
   -6.8236   26.2732  -28.5471 H   0  0  0  0  0  0  0  0  0  0  0  0
   -6.4100   23.4319  -31.7017 H   0  0  0  0  0  0  0  0  0  0  0  0
   -5.5739   24.8816  -32.3738 H   0  0  0  0  0  0  0  0  0  0  0  0
   -4.2720   23.6865  -29.1055 H   0  0  0  0  0  0  0  0  0  0  0  0
   -2.7053   23.9455  -29.9453 H   0  0  0  0  0  0  0  0  0  0  0  0
   -3.9493   25.2413  -29.9453 H   0  0  0  0  0  0  0  0  0  0  0  0
   -3.5026   21.6860  -30.9843 H   0  0  0  0  0  0  0  0  0  0  0  0
   -5.1389   21.9016  -30.2490 H   0  0  0  0  0  0  0  0  0  0  0  0
   -7.4687   22.7713  -31.6467 H   0  0  0  0  0  0  0  0  0  0  0  0
   -9.7506   21.7695  -31.6071 H   0  0  0  0  0  0  0  0  0  0  0  0
  -10.0874   19.3899  -32.2757 H   0  0  0  0  0  0  0  0  0  0  0  0
   -8.1379   18.0070  -32.9862 H   0  0  0  0  0  0  0  0  0  0  0  0
   -5.8492   18.9933  -33.0296 H   0  0  0  0  0  0  0  0  0  0  0  0
  1  2  3  0
  2  3  1  0
  3  4  1  0
  4  5  1  0
  4  6  1  0
  6  7  1  0
  7  8  2  0
  7  9  1  0
  9 10  2  0
 10 11  1  0
 11 12  2  0
 12 13  1  0
 13 14  2  0
 14  9  1  0
  1 15  1  0
  3 16  1  0
  3 17  1  0
  5 18  1  0
  5 19  1  0
  5 20  1  0
  6 21  1  0
  6 22  1  0
 10 23  1  0
 11 24  1  0
 12 25  1  0
 13 26  1  0
 14 27  1  0
M  END
>  <UniqueID>  (32) 
32

>  <SMILES>  (32) 
C#CCN(C)CC(=O)c1ccccc1

>  <Energy>  (32) 
25.392292756118305

>  <Genealogy>  (32) 
C#CCN(C)CC(=O)c1ccccc1 (3D coordinates assigned)
C#CCN(C)CC(=O)c1ccccc1 (optimized conformer: 25.392292756118305 kcal/mol)

>  <smiles>  (32) 
C#CCN(C)CC(=O)c1ccccc1

>  <score_type>  (32) 
oracle

>  <origin>  (32) 
adg

>  <m_score__min__energy>  (32) 
-5.54

>  <m_primary>  (32) 
energy

$$$$
32:0
     RDKit          3D

 52 53  0  0  0  0  0  0  0  0999 V2000
   -6.3818   25.6937  -31.5311 H   0  0  0  0  0  0  0  0  0  0  0  0
   -6.1900   24.8490  -30.8530 C   0  0  0  0  0  0  0  0  0  0  0  0
   -4.8100   24.5900  -30.4120 C   0  0  0  0  0  0  0  0  0  0  0  0
   -3.8560   25.3080  -30.8210 O   0  0  0  0  0  0  0  0  0  0  0  0
   -4.5720   23.5270  -29.5330 O   0  0  0  0  0  0  0  0  0  0  0  0
   -3.3120   22.8690  -29.4160 C   0  0  0  0  0  0  0  0  0  0  0  0
   -2.9829   22.9070  -28.3671 H   0  0  0  0  0  0  0  0  0  0  0  0
   -2.5885   23.3815  -30.0670 H   0  0  0  0  0  0  0  0  0  0  0  0
   -3.4110   21.4070  -29.8560 C   0  0  0  0  0  0  0  0  0  0  0  0
   -4.4708   21.1193  -29.9192 H   0  0  0  0  0  0  0  0  0  0  0  0
   -2.8898   20.7785  -29.1190 H   0  0  0  0  0  0  0  0  0  0  0  0
   -2.7730   21.2170  -31.1850 N   0  0  0  0  0  0  0  0  0  0  0  0
   -1.3130   21.4590  -31.1160 C   0  0  0  0  0  0  0  0  0  0  0  0
   -0.8805   20.8192  -30.3327 H   0  0  0  0  0  0  0  0  0  0  0  0
   -1.1481   22.5219  -30.8858 H   0  0  0  0  0  0  0  0  0  0  0  0
   -0.6330   21.1430  -32.4490 C   0  0  0  0  0  0  0  0  0  0  0  0
    0.3497   20.6863  -32.2601 H   0  0  0  0  0  0  0  0  0  0  0  0
   -1.2583   20.4432  -33.0228 H   0  0  0  0  0  0  0  0  0  0  0  0
   -0.5013   22.0722  -33.0228 H   0  0  0  0  0  0  0  0  0  0  0  0
   -3.4110   22.0660  -32.2180 C   0  0  0  0  0  0  0  0  0  0  0  0
   -4.2639   22.5994  -31.7729 H   0  0  0  0  0  0  0  0  0  0  0  0
   -2.6705   22.7865  -32.5955 H   0  0  0  0  0  0  0  0  0  0  0  0
   -3.9050   21.2080  -33.3800 C   0  0  0  0  0  0  0  0  0  0  0  0
   -4.4175   20.3178  -32.9865 H   0  0  0  0  0  0  0  0  0  0  0  0
   -4.6051   21.7921  -33.9954 H   0  0  0  0  0  0  0  0  0  0  0  0
   -3.0484   20.8958  -33.9954 H   0  0  0  0  0  0  0  0  0  0  0  0
   -7.2210   24.0900  -30.4560 C   0  0  0  0  0  0  0  0  0  0  0  0
   -7.8839   24.4837  -29.6714 H   0  0  0  0  0  0  0  0  0  0  0  0
   -7.5180   22.7480  -31.0160 C   0  0  0  0  0  0  0  0  0  0  0  0
   -6.4720   21.8170  -31.1200 C   0  0  0  0  0  0  0  0  0  0  0  0
   -5.4618   22.0928  -30.7832 H   0  0  0  0  0  0  0  0  0  0  0  0
   -6.7020   20.5440  -31.6470 C   0  0  0  0  0  0  0  0  0  0  0  0
   -5.8731   19.8247  -31.7212 H   0  0  0  0  0  0  0  0  0  0  0  0
   -7.9840   20.1780  -32.0820 C   0  0  0  0  0  0  0  0  0  0  0  0
   -8.2220   18.8200  -32.6860 C   0  0  0  0  0  0  0  0  0  0  0  0
   -8.7112   18.1728  -31.9432 H   0  0  0  0  0  0  0  0  0  0  0  0
   -8.8656   18.9291  -33.5714 H   0  0  0  0  0  0  0  0  0  0  0  0
   -6.9170   18.2000  -33.1020 C   0  0  0  0  0  0  0  0  0  0  0  0
   -6.2070   18.7110  -34.2020 C   0  0  0  0  0  0  0  0  0  0  0  0
   -6.6204   19.5517  -34.7784 H   0  0  0  0  0  0  0  0  0  0  0  0
   -4.9780   18.1550  -34.5660 C   0  0  0  0  0  0  0  0  0  0  0  0
   -4.4295   18.5555  -35.4313 H   0  0  0  0  0  0  0  0  0  0  0  0
   -4.4440   17.0920  -33.8340 C   0  0  0  0  0  0  0  0  0  0  0  0
   -3.4774   16.6546  -34.1247 H   0  0  0  0  0  0  0  0  0  0  0  0
   -5.1380   16.5840  -32.7320 C   0  0  0  0  0  0  0  0  0  0  0  0
   -4.7162   15.7482  -32.1545 H   0  0  0  0  0  0  0  0  0  0  0  0
   -6.3690   17.1380  -32.3630 C   0  0  0  0  0  0  0  0  0  0  0  0
   -6.9095   16.7406  -31.4913 H   0  0  0  0  0  0  0  0  0  0  0  0
   -9.0270   21.1130  -32.0080 C   0  0  0  0  0  0  0  0  0  0  0  0
  -10.0305   20.8421  -32.3681 H   0  0  0  0  0  0  0  0  0  0  0  0
   -8.7990   22.3880  -31.4790 C   0  0  0  0  0  0  0  0  0  0  0  0
   -9.6243   23.1132  -31.4243 H   0  0  0  0  0  0  0  0  0  0  0  0
  1  2  1  0
  2  3  1  0
  3  4  2  0
  3  5  1  0
  5  6  1  0
  6  7  1  0
  6  8  1  0
  6  9  1  0
  9 10  1  0
  9 11  1  0
  9 12  1  0
 12 13  1  0
 13 14  1  0
 13 15  1  0
 13 16  1  0
 16 17  1  0
 16 18  1  0
 16 19  1  0
 12 20  1  0
 20 21  1  0
 20 22  1  0
 20 23  1  0
 23 24  1  0
 23 25  1  0
 23 26  1  0
  2 27  2  0
 27 28  1  0
 27 29  1  0
 29 30  2  0
 30 31  1  0
 30 32  1  0
 32 33  1  0
 32 34  2  0
 34 35  1  0
 35 36  1  0
 35 37  1  0
 35 38  1  0
 38 39  2  0
 39 40  1  0
 39 41  1  0
 41 42  1  0
 41 43  2  0
 43 44  1  0
 43 45  1  0
 45 46  1  0
 45 47  2  0
 47 48  1  0
 34 49  1  0
 49 50  1  0
 49 51  2  0
 51 52  1  0
 51 29  1  0
 47 38  1  0
M  END
>  <UniqueID>  (33) 
33

>  <SMILES>  (33) 
CCN(CC)CCOC(=O)/C=C/c1ccc(Cc2ccccc2)cc1

>  <Energy>  (33) 
48.22760722104243

>  <Genealogy>  (33) 
CCN(CC)CCOC(=O)/C=C/c1ccc(Cc2ccccc2)cc1 (cis-trans isomerization)
CCN(CC)CCOC(=O)/C=C/c1ccc(Cc2ccccc2)cc1 (3D coordinates assigned)
CCN(CC)CCOC(=O)/C=C/c1ccc(Cc2ccccc2)cc1 (optimized conformer: 48.22760722104243 kcal/mol)

>  <smiles>  (33) 
CCN(CC)CCOC(=O)C=Cc1ccc(Cc2ccccc2)cc1

>  <score_type>  (33) 
oracle

>  <origin>  (33) 
adg

>  <m_score__min__energy>  (33) 
-8.6799999999999997

>  <m_primary>  (33) 
energy

$$$$
33:0
     RDKit          3D

 53 55  0  0  0  0  0  0  0  0999 V2000
   -5.3530   18.1490  -34.6940 C   0  0  0  0  0  0  0  0  0  0  0  0
   -5.8380   17.5850  -33.5840 C   0  0  0  0  0  0  0  0  0  0  0  0
   -7.2340   17.8620  -33.0940 C   0  0  0  0  0  0  0  0  0  0  0  0
   -7.2130   18.2520  -31.6670 N   0  0  0  0  0  0  0  0  0  0  0  0
   -8.3990   19.0530  -31.2720 C   0  0  0  0  0  0  0  0  0  0  0  0
   -8.1740   20.5770  -31.3740 C   0  0  0  0  0  0  0  0  0  0  0  0
   -7.0980   20.8620  -32.3340 N   0  0  0  0  0  0  0  0  0  0  0  0
   -7.0340   22.2790  -32.7550 C   0  0  0  0  0  0  0  0  0  0  0  0
   -6.5940   23.2300  -31.6610 C   0  0  0  0  0  0  0  0  0  0  0  0
   -7.5220   23.7110  -30.7220 C   0  0  0  0  0  0  0  0  0  0  0  0
   -7.1160   24.5920  -29.7180 C   0  0  0  0  0  0  0  0  0  0  0  0
   -5.7800   24.9880  -29.6290 C   0  0  0  0  0  0  0  0  0  0  0  0
   -4.8340   24.4920  -30.5330 C   0  0  0  0  0  0  0  0  0  0  0  0
   -3.4700   24.9240  -30.4150 N   0  0  0  0  0  0  0  0  0  0  0  0
   -2.5430   24.5360  -29.3920 C   0  0  0  0  0  0  0  0  0  0  0  0
   -1.7630   25.4070  -28.9230 O   0  0  0  0  0  0  0  0  0  0  0  0
   -2.5070   23.1620  -28.8380 C   0  0  0  0  0  0  0  0  0  0  0  0
   -1.9080   22.9060  -27.5950 C   0  0  0  0  0  0  0  0  0  0  0  0
   -1.8910   21.6050  -27.0920 C   0  0  0  0  0  0  0  0  0  0  0  0
   -2.4540   20.5600  -27.8250 C   0  0  0  0  0  0  0  0  0  0  0  0
   -2.4210   19.2650  -27.2870 O   0  0  0  0  0  0  0  0  0  0  0  0
   -2.8820   18.9240  -25.9850 C   0  0  0  0  0  0  0  0  0  0  0  0
   -3.0300   20.8490  -29.0750 C   0  0  0  0  0  0  0  0  0  0  0  0
   -3.0390   22.1250  -29.5500 N   0  0  0  0  0  0  0  0  0  0  0  0
   -5.2500   23.6250  -31.5600 C   0  0  0  0  0  0  0  0  0  0  0  0
   -5.8020   20.3300  -31.8690 C   0  0  0  0  0  0  0  0  0  0  0  0
   -5.9500   18.9130  -31.2700 C   0  0  0  0  0  0  0  0  0  0  0  0
   -4.3277   17.9236  -35.0226 H   0  0  0  0  0  0  0  0  0  0  0  0
   -5.9790   18.8387  -35.2792 H   0  0  0  0  0  0  0  0  0  0  0  0
   -5.1980   16.8978  -33.0112 H   0  0  0  0  0  0  0  0  0  0  0  0
   -7.6703   18.6796  -33.6866 H   0  0  0  0  0  0  0  0  0  0  0  0
   -7.8383   16.9496  -33.2052 H   0  0  0  0  0  0  0  0  0  0  0  0
   -9.2381   18.7801  -31.9289 H   0  0  0  0  0  0  0  0  0  0  0  0
   -8.6056   18.8262  -30.2157 H   0  0  0  0  0  0  0  0  0  0  0  0
   -9.1021   21.0606  -31.7126 H   0  0  0  0  0  0  0  0  0  0  0  0
   -7.8897   20.9675  -30.3857 H   0  0  0  0  0  0  0  0  0  0  0  0
   -6.3221   22.3596  -33.5897 H   0  0  0  0  0  0  0  0  0  0  0  0
   -8.0557   22.5722  -33.0382 H   0  0  0  0  0  0  0  0  0  0  0  0
   -8.5732   23.3919  -30.7782 H   0  0  0  0  0  0  0  0  0  0  0  0
   -7.8509   24.9754  -28.9948 H   0  0  0  0  0  0  0  0  0  0  0  0
   -5.4695   25.6935  -28.8442 H   0  0  0  0  0  0  0  0  0  0  0  0
   -1.4543   23.7269  -27.0204 H   0  0  0  0  0  0  0  0  0  0  0  0
   -1.4317   21.4022  -26.1133 H   0  0  0  0  0  0  0  0  0  0  0  0
   -2.2378   19.4005  -25.2314 H   0  0  0  0  0  0  0  0  0  0  0  0
   -3.9165   19.2760  -25.8584 H   0  0  0  0  0  0  0  0  0  0  0  0
   -2.8482   17.8318  -25.8584 H   0  0  0  0  0  0  0  0  0  0  0  0
   -3.4757   20.0398  -29.6722 H   0  0  0  0  0  0  0  0  0  0  0  0
   -3.4830   22.3020  -30.4790 H   0  0  0  0  0  0  0  0  0  0  0  0
   -4.5162   23.2532  -32.2903 H   0  0  0  0  0  0  0  0  0  0  0  0
   -5.1077   20.2865  -32.7211 H   0  0  0  0  0  0  0  0  0  0  0  0
   -5.4185   20.9972  -31.0830 H   0  0  0  0  0  0  0  0  0  0  0  0
   -5.1070   18.2960  -31.6144 H   0  0  0  0  0  0  0  0  0  0  0  0
   -5.9597   19.0156  -30.1748 H   0  0  0  0  0  0  0  0  0  0  0  0
  1  2  2  0
  2  3  1  0
  3  4  1  0
  4  5  1  0
  5  6  1  0
  6  7  1  0
  7  8  1  0
  8  9  1  0
  9 10  2  0
 10 11  1  0
 11 12  2  0
 12 13  1  0
 13 14  1  0
 14 15  1  0
 15 16  2  0
 15 17  1  0
 17 18  2  0
 18 19  1  0
 19 20  2  0
 20 21  1  0
 21 22  1  0
 20 23  1  0
 23 24  2  0
 13 25  2  0
  7 26  1  0
 26 27  1  0
 27  4  1  0
 25  9  1  0
 24 17  1  0
  1 28  1  0
  1 29  1  0
  2 30  1  0
  3 31  1  0
  3 32  1  0
  5 33  1  0
  5 34  1  0
  6 35  1  0
  6 36  1  0
  8 37  1  0
  8 38  1  0
 10 39  1  0
 11 40  1  0
 12 41  1  0
 18 42  1  0
 19 43  1  0
 22 44  1  0
 22 45  1  0
 22 46  1  0
 23 47  1  0
 24 48  1  0
 25 49  1  0
 26 50  1  0
 26 51  1  0
 27 52  1  0
 27 53  1  0
M  CHG  2  14  -1  24   1
M  END
>  <UniqueID>  (34) 
34

>  <SMILES>  (34) 
C=CCN1CCN(Cc2cccc([N-]C(=O)c3ccc(OC)c[nH+]3)c2)CC1

>  <Energy>  (34) 
72.3020642918769

>  <Genealogy>  (34) 
C=CCN1CCN(Cc2cccc([N-]C(=O)c3ccc(OC)c[nH+]3)c2)CC1 (protonated)
C=CCN1CCN(Cc2cccc([N-]C(=O)c3ccc(OC)c[nH+]3)c2)CC1 (3D coordinates assigned)
C=CCN1CCN(Cc2cccc([N-]C(=O)c3ccc(OC)c[nH+]3)c2)CC1 (nonaromatic ring conformer: 72.3020642918769 kcal/mol)

>  <smiles>  (34) 
C=CCN1CCN(Cc2cccc(NC(=O)c3ccc(OC)cn3)c2)CC1

>  <score_type>  (34) 
oracle

>  <origin>  (34) 
adg

>  <m_score__min__energy>  (34) 
-9.5099999999999998

>  <m_primary>  (34) 
energy

$$$$
34:0
     RDKit          3D

 68 71  0  0  0  0  0  0  0  0999 V2000
   -6.9859   18.6573  -32.5142 H   0  0  0  0  0  0  0  0  0  0  0  0
   -5.9240   18.9170  -32.6360 C   0  0  0  0  0  0  0  0  0  0  0  0
   -5.3770   19.9560  -31.8810 C   0  0  0  0  0  0  0  0  0  0  0  0
   -6.0137   20.5082  -31.1741 H   0  0  0  0  0  0  0  0  0  0  0  0
   -4.0200   20.3050  -32.0140 C   0  0  0  0  0  0  0  0  0  0  0  0
   -3.3790   21.3630  -31.1760 C   0  0  0  0  0  0  0  0  0  0  0  0
   -3.8360   22.6410  -31.2760 N   0  0  0  0  0  0  0  0  0  0  0  0
   -3.3070   23.6900  -30.5920 C   0  0  0  0  0  0  0  0  0  0  0  0
   -3.7820   24.8890  -30.7790 N   0  0  0  0  0  0  0  0  0  0  0  0
   -5.1780   25.2830  -30.5700 C   0  0  0  0  0  0  0  0  0  0  0  0
   -5.2812   26.3670  -30.7257 H   0  0  0  0  0  0  0  0  0  0  0  0
   -6.0620   24.5360  -31.5700 C   0  0  0  0  0  0  0  0  0  0  0  0
   -6.7918   23.9193  -31.0250 H   0  0  0  0  0  0  0  0  0  0  0  0
   -6.5947   25.2618  -32.2021 H   0  0  0  0  0  0  0  0  0  0  0  0
   -5.4353   23.8897  -32.2021 H   0  0  0  0  0  0  0  0  0  0  0  0
   -5.6110   24.9580  -29.1350 C   0  0  0  0  0  0  0  0  0  0  0  0
   -4.9385   25.4628  -28.4259 H   0  0  0  0  0  0  0  0  0  0  0  0
   -6.6417   25.3074  -28.9750 H   0  0  0  0  0  0  0  0  0  0  0  0
   -5.5634   23.8707  -28.9750 H   0  0  0  0  0  0  0  0  0  0  0  0
   -2.2270   23.4620  -29.7050 C   0  0  0  0  0  0  0  0  0  0  0  0
   -1.6080   24.4730  -28.9310 C   0  0  0  0  0  0  0  0  0  0  0  0
   -2.0390   25.6600  -28.9660 O   0  0  0  0  0  0  0  0  0  0  0  0
   -0.5340   24.1680  -28.1350 N   0  0  0  0  0  0  0  0  0  0  0  0
    0.1010   25.2020  -27.3070 C   0  0  0  0  0  0  0  0  0  0  0  0
   -0.0464   24.9620  -26.2437 H   0  0  0  0  0  0  0  0  0  0  0  0
    1.1778   25.2391  -27.5287 H   0  0  0  0  0  0  0  0  0  0  0  0
   -0.3529   26.1792  -27.5287 H   0  0  0  0  0  0  0  0  0  0  0  0
   -0.0790   22.8820  -28.0570 C   0  0  0  0  0  0  0  0  0  0  0  0
    0.7706   22.6431  -27.4004 H   0  0  0  0  0  0  0  0  0  0  0  0
   -0.6650   21.8990  -28.7810 N   0  0  0  0  0  0  0  0  0  0  0  0
   -1.7190   22.1520  -29.5970 C   0  0  0  0  0  0  0  0  0  0  0  0
   -2.2850   21.1080  -30.3320 C   0  0  0  0  0  0  0  0  0  0  0  0
   -1.8759   20.0901  -30.2505 H   0  0  0  0  0  0  0  0  0  0  0  0
   -3.2460   19.6180  -32.9710 C   0  0  0  0  0  0  0  0  0  0  0  0
   -2.1993   19.9162  -33.1309 H   0  0  0  0  0  0  0  0  0  0  0  0
   -3.7820   18.5610  -33.7250 C   0  0  0  0  0  0  0  0  0  0  0  0
   -2.8840   17.8140  -34.6940 C   0  0  0  0  0  0  0  0  0  0  0  0
   -2.8272   18.3839  -35.6332 H   0  0  0  0  0  0  0  0  0  0  0  0
   -1.8955   17.7118  -34.2225 H   0  0  0  0  0  0  0  0  0  0  0  0
   -3.3800   16.4580  -34.9930 N   0  0  0  0  0  0  0  0  0  0  0  0
   -3.7730   16.0560  -34.1100 H   0  0  0  0  0  0  0  0  0  0  0  0
   -4.1490   16.5260  -35.6960 H   0  0  0  0  0  0  0  0  0  0  0  0
   -2.3090   15.5740  -35.4910 C   0  0  0  0  0  0  0  0  0  0  0  0
   -2.5896   15.2101  -36.4904 H   0  0  0  0  0  0  0  0  0  0  0  0
   -1.3794   16.1615  -35.5175 H   0  0  0  0  0  0  0  0  0  0  0  0
   -2.0640   14.3540  -34.5710 C   0  0  0  0  0  0  0  0  0  0  0  0
   -1.9808   13.4632  -35.2109 H   0  0  0  0  0  0  0  0  0  0  0  0
   -1.1523   14.5931  -34.0039 H   0  0  0  0  0  0  0  0  0  0  0  0
   -3.1040   14.0810  -33.5500 N   0  0  0  0  0  0  0  0  0  0  0  0
   -4.3620   13.5430  -34.1000 C   0  0  0  0  0  0  0  0  0  0  0  0
   -4.8169   14.2944  -34.7622 H   0  0  0  0  0  0  0  0  0  0  0  0
   -4.1375   12.6243  -34.6618 H   0  0  0  0  0  0  0  0  0  0  0  0
   -5.3500   13.2020  -32.9690 C   0  0  0  0  0  0  0  0  0  0  0  0
   -6.3640   13.5016  -33.2722 H   0  0  0  0  0  0  0  0  0  0  0  0
   -5.3137   12.1188  -32.7808 H   0  0  0  0  0  0  0  0  0  0  0  0
   -5.0000   13.8830  -31.7810 O   0  0  0  0  0  0  0  0  0  0  0  0
   -3.7730   13.3750  -31.2790 C   0  0  0  0  0  0  0  0  0  0  0  0
   -3.4482   14.0053  -30.4380 H   0  0  0  0  0  0  0  0  0  0  0  0
   -3.9465   12.3358  -30.9630 H   0  0  0  0  0  0  0  0  0  0  0  0
   -2.6570   13.3600  -32.3460 C   0  0  0  0  0  0  0  0  0  0  0  0
   -1.7586   13.8487  -31.9409 H   0  0  0  0  0  0  0  0  0  0  0  0
   -2.4256   12.3183  -32.6130 H   0  0  0  0  0  0  0  0  0  0  0  0
   -5.1330   18.1980  -33.5510 C   0  0  0  0  0  0  0  0  0  0  0  0
   -5.6570   17.1260  -34.2920 O   0  0  0  0  0  0  0  0  0  0  0  0
   -6.7370   16.2990  -33.8730 C   0  0  0  0  0  0  0  0  0  0  0  0
   -6.7728   16.2716  -32.7739 H   0  0  0  0  0  0  0  0  0  0  0  0
   -7.6825   16.7062  -34.2606 H   0  0  0  0  0  0  0  0  0  0  0  0
   -6.5904   15.2801  -34.2606 H   0  0  0  0  0  0  0  0  0  0  0  0
  1  2  1  0
  2  3  2  0
  3  4  1  0
  3  5  1  0
  5  6  1  0
  6  7  1  0
  7  8  1  0
  8  9  2  0
  9 10  1  0
 10 11  1  0
 10 12  1  0
 12 13  1  0
 12 14  1  0
 12 15  1  0
 10 16  1  0
 16 17  1  0
 16 18  1  0
 16 19  1  0
  8 20  1  0
 20 21  1  0
 21 22  2  0
 21 23  1  0
 23 24  1  0
 24 25  1  0
 24 26  1  0
 24 27  1  0
 23 28  1  0
 28 29  1  0
 28 30  2  0
 30 31  1  0
 31 32  1  0
 32 33  1  0
  5 34  2  0
 34 35  1  0
 34 36  1  0
 36 37  1  0
 37 38  1  0
 37 39  1  0
 37 40  1  0
 40 41  1  0
 40 42  1  0
 40 43  1  0
 43 44  1  0
 43 45  1  0
 43 46  1  0
 46 47  1  0
 46 48  1  0
 46 49  1  0
 49 50  1  0
 50 51  1  0
 50 52  1  0
 50 53  1  0
 53 54  1  0
 53 55  1  0
 53 56  1  0
 56 57  1  0
 57 58  1  0
 57 59  1  0
 57 60  1  0
 60 61  1  0
 60 62  1  0
 36 63  2  0
 63 64  1  0
 64 65  1  0
 65 66  1  0
 65 67  1  0
 65 68  1  0
 63  2  1  0
 32  6  2  0
 60 49  1  0
 31 20  2  0
M  CHG  2   7  -1  40   1
M  END
>  <UniqueID>  (35) 
35

>  <SMILES>  (35) 
COc1ccc(-c2cc3ncn(C)c(=O)c3/c(=N/C(C)C)[n-]2)cc1C[NH2+]CCN1CCOCC1

>  <Energy>  (35) 
91.41326475957136

>  <Genealogy>  (35) 
COc1ccc(-c2cc3ncn(C)c(=O)c3c(=NC(C)C)[n-]2)cc1C[NH2+]CCN1CCOCC1 (protonated)
COc1ccc(-c2cc3ncn(C)c(=O)c3/c(=N/C(C)C)[n-]2)cc1C[NH2+]CCN1CCOCC1 (cis-trans isomerization)
COc1ccc(-c2cc3ncn(C)c(=O)c3/c(=N/C(C)C)[n-]2)cc1C[NH2+]CCN1CCOCC1 (3D coordinates assigned)
COc1ccc(-c2cc3ncn(C)c(=O)c3/c(=N/C(C)C)[n-]2)cc1C[NH2+]CCN1CCOCC1 (nonaromatic ring conformer: 91.41326475957136 kcal/mol)

>  <smiles>  (35) 
COc1ccc(-c2cc3ncn(C)c(=O)c3c(=NC(C)C)[nH]2)cc1CNCCN1CCOCC1

>  <score_type>  (35) 
oracle

>  <origin>  (35) 
adg

>  <m_score__min__energy>  (35) 
-9.2899999999999991

>  <m_primary>  (35) 
energy

$$$$
35:0
     RDKit          3D

 43 45  0  0  0  0  0  0  0  0999 V2000
   -1.2630   19.0570  -27.6030 C   0  0  0  0  0  0  0  0  0  0  0  0
   -0.5870   20.0650  -28.4590 N   0  0  0  0  0  0  0  0  0  0  0  0
    0.8680   19.9840  -28.1850 C   0  0  0  0  0  0  0  0  0  0  0  0
   -0.8510   19.7200  -29.8750 C   0  0  0  0  0  0  0  0  0  0  0  0
   -1.1390   21.4110  -28.0980 C   0  0  0  0  0  0  0  0  0  0  0  0
   -2.5680   21.4520  -27.4860 C   0  0  0  0  0  0  0  0  0  0  0  0
   -3.4720   22.4130  -28.1430 N   0  0  0  0  0  0  0  0  0  0  0  0
   -3.6510   23.6560  -27.5770 C   0  0  0  0  0  0  0  0  0  0  0  0
   -4.4670   24.5780  -28.1580 N   0  0  0  0  0  0  0  0  0  0  0  0
   -5.0970   24.2640  -29.3120 C   0  0  0  0  0  0  0  0  0  0  0  0
   -6.1140   25.2540  -30.2070 S   0  0  0  0  0  0  0  0  0  0  0  0
   -6.3750   24.1170  -31.4320 C   0  0  0  0  0  0  0  0  0  0  0  0
   -5.6650   22.9500  -31.1360 C   0  0  0  0  0  0  0  0  0  0  0  0
   -5.7000   21.7670  -32.0150 C   0  0  0  0  0  0  0  0  0  0  0  0
   -4.5300   21.3770  -32.6830 C   0  0  0  0  0  0  0  0  0  0  0  0
   -4.5350   20.2570  -33.5180 C   0  0  0  0  0  0  0  0  0  0  0  0
   -5.7100   19.5250  -33.7000 C   0  0  0  0  0  0  0  0  0  0  0  0
   -6.8850   19.9140  -33.0510 C   0  0  0  0  0  0  0  0  0  0  0  0
   -6.8900   21.0350  -32.2110 C   0  0  0  0  0  0  0  0  0  0  0  0
   -8.5430   21.5510  -31.3870 Br  0  0  0  0  0  0  0  0  0  0  0  0
   -4.9330   23.0470  -29.9340 C   0  0  0  0  0  0  0  0  0  0  0  0
   -4.0750   22.1100  -29.3440 C   0  0  0  0  0  0  0  0  0  0  0  0
   -3.8430   21.0120  -29.9200 O   0  0  0  0  0  0  0  0  0  0  0  0
   -1.0970   19.3046  -26.5442 H   0  0  0  0  0  0  0  0  0  0  0  0
   -2.3423   19.0602  -27.8154 H   0  0  0  0  0  0  0  0  0  0  0  0
   -0.8504   18.0597  -27.8154 H   0  0  0  0  0  0  0  0  0  0  0  0
    1.0364   19.9746  -27.0980 H   0  0  0  0  0  0  0  0  0  0  0  0
    1.2735   19.0619  -28.6269 H   0  0  0  0  0  0  0  0  0  0  0  0
    1.3734   20.8554  -28.6269 H   0  0  0  0  0  0  0  0  0  0  0  0
   -1.5189   18.8472  -29.9214 H   0  0  0  0  0  0  0  0  0  0  0  0
   -1.3284   20.5741  -30.3776 H   0  0  0  0  0  0  0  0  0  0  0  0
    0.0982   19.4825  -30.3776 H   0  0  0  0  0  0  0  0  0  0  0  0
   -0.4530   21.8650  -27.3677 H   0  0  0  0  0  0  0  0  0  0  0  0
   -1.2244   21.9483  -29.0541 H   0  0  0  0  0  0  0  0  0  0  0  0
   -3.0096   20.4480  -27.5700 H   0  0  0  0  0  0  0  0  0  0  0  0
   -2.4586   21.7794  -26.4416 H   0  0  0  0  0  0  0  0  0  0  0  0
   -3.1274   23.9071  -26.6427 H   0  0  0  0  0  0  0  0  0  0  0  0
   -4.6000   25.5150  -27.7180 H   0  0  0  0  0  0  0  0  0  0  0  0
   -7.0041   24.2716  -32.3210 H   0  0  0  0  0  0  0  0  0  0  0  0
   -3.6042   21.9557  -32.5488 H   0  0  0  0  0  0  0  0  0  0  0  0
   -3.6121   19.9514  -34.0327 H   0  0  0  0  0  0  0  0  0  0  0  0
   -5.7108   18.6412  -34.3549 H   0  0  0  0  0  0  0  0  0  0  0  0
   -7.8098   19.3375  -33.2004 H   0  0  0  0  0  0  0  0  0  0  0  0
  1  2  1  0
  2  3  1  0
  2  4  1  0
  2  5  1  0
  5  6  1  0
  6  7  1  0
  7  8  1  0
  8  9  2  0
  9 10  1  0
 10 11  1  0
 11 12  1  0
 12 13  2  0
 13 14  1  0
 14 15  2  0
 15 16  1  0
 16 17  2  0
 17 18  1  0
 18 19  2  0
 19 20  1  0
 13 21  1  0
 21 22  1  0
 22 23  2  0
 22  7  1  0
 21 10  2  0
 19 14  1  0
  1 24  1  0
  1 25  1  0
  1 26  1  0
  3 27  1  0
  3 28  1  0
  3 29  1  0
  4 30  1  0
  4 31  1  0
  4 32  1  0
  5 33  1  0
  5 34  1  0
  6 35  1  0
  6 36  1  0
  8 37  1  0
  9 38  1  0
 12 39  1  0
 15 40  1  0
 16 41  1  0
 17 42  1  0
 18 43  1  0
M  CHG  2   2   1   9   1
M  END
>  <UniqueID>  (36) 
36

>  <SMILES>  (36) 
C[N+](C)(C)CCn1c[nH+]c2scc(-c3ccccc3Br)c2c1=O

>  <Energy>  (36) 
95.35901914292491

>  <Genealogy>  (36) 
C[N+](C)(C)CCn1c[nH+]c2scc(-c3ccccc3Br)c2c1=O (protonated)
C[N+](C)(C)CCn1c[nH+]c2scc(-c3ccccc3Br)c2c1=O (3D coordinates assigned)
C[N+](C)(C)CCn1c[nH+]c2scc(-c3ccccc3Br)c2c1=O (optimized conformer: 95.35901914292491 kcal/mol)

>  <smiles>  (36) 
C[N+](C)(C)CCn1cnc2scc(-c3ccccc3Br)c2c1=O

>  <score_type>  (36) 
oracle

>  <origin>  (36) 
adg

>  <m_score__min__energy>  (36) 
-7.4000000000000004

>  <m_primary>  (36) 
energy

$$$$
36:0
     RDKit          3D

 46 48  0  0  0  0  0  0  0  0999 V2000
   -2.9800   23.0560  -29.3980 C   0  0  0  0  0  0  0  0  0  0  0  0
   -3.5100   21.7000  -29.8440 C   0  0  0  0  0  0  0  0  0  0  0  0
   -3.5180   21.6060  -31.3060 N   0  0  0  0  0  0  0  0  0  0  0  0
   -2.7190   20.8100  -32.0450 C   0  0  0  0  0  0  0  0  0  0  0  0
   -3.0180   21.0070  -33.3760 C   0  0  0  0  0  0  0  0  0  0  0  0
   -3.9930   21.9290  -33.4650 N   0  0  0  0  0  0  0  0  0  0  0  0
   -4.2700   22.2920  -32.1980 C   0  0  0  0  0  0  0  0  0  0  0  0
   -5.3270   23.3080  -31.8510 C   0  0  0  0  0  0  0  0  0  0  0  0
   -6.6730   22.6970  -31.8780 N   0  0  0  0  0  0  0  0  0  0  0  0
   -6.9040   21.9370  -30.6310 C   0  0  0  0  0  0  0  0  0  0  0  0
   -8.3980   21.6420  -30.3610 C   0  0  0  0  0  0  0  0  0  0  0  0
   -9.2580   21.8050  -31.5500 N   0  0  0  0  0  0  0  0  0  0  0  0
   -9.5120   20.5800  -32.3380 C   0  0  0  0  0  0  0  0  0  0  0  0
   -8.2900   19.7080  -32.5180 C   0  0  0  0  0  0  0  0  0  0  0  0
   -7.2940   20.0630  -33.4440 C   0  0  0  0  0  0  0  0  0  0  0  0
   -6.1460   19.2790  -33.5850 C   0  0  0  0  0  0  0  0  0  0  0  0
   -5.9690   18.1460  -32.7860 C   0  0  0  0  0  0  0  0  0  0  0  0
   -4.8530   17.3880  -32.9200 F   0  0  0  0  0  0  0  0  0  0  0  0
   -6.9410   17.7980  -31.8440 C   0  0  0  0  0  0  0  0  0  0  0  0
   -8.0990   18.5720  -31.7120 C   0  0  0  0  0  0  0  0  0  0  0  0
   -9.0590   23.0460  -32.3320 C   0  0  0  0  0  0  0  0  0  0  0  0
   -7.7140   23.7240  -32.0450 C   0  0  0  0  0  0  0  0  0  0  0  0
   -2.9630   23.0996  -28.2990 H   0  0  0  0  0  0  0  0  0  0  0  0
   -1.9606   23.1970  -29.7864 H   0  0  0  0  0  0  0  0  0  0  0  0
   -3.6336   23.8510  -29.7864 H   0  0  0  0  0  0  0  0  0  0  0  0
   -2.8665   20.9076  -29.4341 H   0  0  0  0  0  0  0  0  0  0  0  0
   -4.5396   21.5824  -29.4750 H   0  0  0  0  0  0  0  0  0  0  0  0
   -1.9575   20.1202  -31.6522 H   0  0  0  0  0  0  0  0  0  0  0  0
   -2.5391   20.4955  -34.2239 H   0  0  0  0  0  0  0  0  0  0  0  0
   -4.4440   22.2830  -34.3350 H   0  0  0  0  0  0  0  0  0  0  0  0
   -5.1305   23.7027  -30.8432 H   0  0  0  0  0  0  0  0  0  0  0  0
   -5.2934   24.1188  -32.5937 H   0  0  0  0  0  0  0  0  0  0  0  0
   -6.3664   20.9799  -30.7010 H   0  0  0  0  0  0  0  0  0  0  0  0
   -6.5395   22.5579  -29.7993 H   0  0  0  0  0  0  0  0  0  0  0  0
   -8.4888   20.6049  -30.0059 H   0  0  0  0  0  0  0  0  0  0  0  0
   -8.7405   22.3724  -29.6132 H   0  0  0  0  0  0  0  0  0  0  0  0
  -10.2861   19.9911  -31.8243 H   0  0  0  0  0  0  0  0  0  0  0  0
   -9.8267   20.9030  -33.3413 H   0  0  0  0  0  0  0  0  0  0  0  0
   -7.4191   20.9643  -34.0620 H   0  0  0  0  0  0  0  0  0  0  0  0
   -5.3806   19.5539  -34.3257 H   0  0  0  0  0  0  0  0  0  0  0  0
   -6.7954   16.9143  -31.2054 H   0  0  0  0  0  0  0  0  0  0  0  0
   -8.8641   18.2902  -30.9736 H   0  0  0  0  0  0  0  0  0  0  0  0
   -9.1051   22.7973  -33.4025 H   0  0  0  0  0  0  0  0  0  0  0  0
   -9.8521   23.7502  -32.0403 H   0  0  0  0  0  0  0  0  0  0  0  0
   -7.4484   24.3822  -32.8854 H   0  0  0  0  0  0  0  0  0  0  0  0
   -7.7927   24.3197  -31.1236 H   0  0  0  0  0  0  0  0  0  0  0  0
  1  2  1  0
  2  3  1  0
  3  4  1  0
  4  5  2  0
  5  6  1  0
  6  7  2  0
  7  8  1  0
  8  9  1  0
  9 10  1  0
 10 11  1  0
 11 12  1  0
 12 13  1  0
 13 14  1  0
 14 15  2  0
 15 16  1  0
 16 17  2  0
 17 18  1  0
 17 19  1  0
 19 20  2  0
 12 21  1  0
 21 22  1  0
  7  3  1  0
 22  9  1  0
 20 14  1  0
  1 23  1  0
  1 24  1  0
  1 25  1  0
  2 26  1  0
  2 27  1  0
  4 28  1  0
  5 29  1  0
  6 30  1  0
  8 31  1  0
  8 32  1  0
 10 33  1  0
 10 34  1  0
 11 35  1  0
 11 36  1  0
 13 37  1  0
 13 38  1  0
 15 39  1  0
 16 40  1  0
 19 41  1  0
 20 42  1  0
 21 43  1  0
 21 44  1  0
 22 45  1  0
 22 46  1  0
M  CHG  1   6   1
M  END
>  <UniqueID>  (37) 
37

>  <SMILES>  (37) 
CCn1cc[nH+]c1CN1CCN(Cc2ccc(F)cc2)CC1

>  <Energy>  (37) 
86.94742677439618

>  <Genealogy>  (37) 
CCn1cc[nH+]c1CN1CCN(Cc2ccc(F)cc2)CC1 (protonated)
CCn1cc[nH+]c1CN1CCN(Cc2ccc(F)cc2)CC1 (3D coordinates assigned)
CCn1cc[nH+]c1CN1CCN(Cc2ccc(F)cc2)CC1 (nonaromatic ring conformer: 86.94742677439618 kcal/mol)

>  <smiles>  (37) 
CCn1ccnc1CN1CCN(Cc2ccc(F)cc2)CC1

>  <score_type>  (37) 
oracle

>  <origin>  (37) 
adg

>  <m_score__min__energy>  (37) 
-7.3300000000000001

>  <m_primary>  (37) 
energy

$$$$
37:0
     RDKit          3D

 50 53  0  0  0  0  0  0  0  0999 V2000
   -9.3530   19.9970  -32.6560 C   0  0  0  0  0  0  0  0  0  0  0  0
   -9.2100   21.3510  -31.9690 C   0  0  0  0  0  0  0  0  0  0  0  0
   -8.0890   21.3290  -30.9260 C   0  0  0  0  0  0  0  0  0  0  0  0
   -6.7700   21.3420  -31.5880 N   0  0  0  0  0  0  0  0  0  0  0  0
   -6.1670   22.5390  -31.9550 C   0  0  0  0  0  0  0  0  0  0  0  0
   -6.9060   24.1410  -31.5820 S   0  0  0  0  0  0  0  0  0  0  0  0
   -6.0170   24.3730  -30.0030 C   0  0  0  0  0  0  0  0  0  0  0  0
   -4.5310   24.2080  -30.1860 C   0  0  0  0  0  0  0  0  0  0  0  0
   -3.8580   25.1890  -30.4780 O   0  0  0  0  0  0  0  0  0  0  0  0
   -3.8920   22.9190  -29.9860 N   0  0  0  0  0  0  0  0  0  0  0  0
   -4.0540   22.4580  -28.5810 C   0  0  0  0  0  0  0  0  0  0  0  0
   -2.7530   22.6120  -27.7720 C   0  0  0  0  0  0  0  0  0  0  0  0
   -1.6630   21.8880  -28.3270 O   0  0  0  0  0  0  0  0  0  0  0  0
   -1.6640   21.8500  -29.7500 C   0  0  0  0  0  0  0  0  0  0  0  0
   -2.4740   22.9780  -30.4110 C   0  0  0  0  0  0  0  0  0  0  0  0
   -4.9840   22.5410  -32.6400 N   0  0  0  0  0  0  0  0  0  0  0  0
   -4.3960   21.3650  -32.9450 C   0  0  0  0  0  0  0  0  0  0  0  0
   -3.2330   21.2100  -33.6100 N   0  0  0  0  0  0  0  0  0  0  0  0
   -3.0640   19.8720  -33.6790 C   0  0  0  0  0  0  0  0  0  0  0  0
   -2.0070   19.1870  -34.2760 C   0  0  0  0  0  0  0  0  0  0  0  0
   -2.0270   17.7810  -34.2390 C   0  0  0  0  0  0  0  0  0  0  0  0
   -3.0920   17.0940  -33.6130 C   0  0  0  0  0  0  0  0  0  0  0  0
   -4.1500   17.8040  -33.0170 C   0  0  0  0  0  0  0  0  0  0  0  0
   -4.1050   19.1970  -33.0680 C   0  0  0  0  0  0  0  0  0  0  0  0
   -4.9580   20.1710  -32.5950 C   0  0  0  0  0  0  0  0  0  0  0  0
   -6.1690   20.1430  -31.9150 C   0  0  0  0  0  0  0  0  0  0  0  0
   -6.7020   19.0390  -31.6160 O   0  0  0  0  0  0  0  0  0  0  0  0
   -9.4364   19.2069  -31.8953 H   0  0  0  0  0  0  0  0  0  0  0  0
  -10.2560   19.9981  -33.2841 H   0  0  0  0  0  0  0  0  0  0  0  0
   -8.4697   19.8094  -33.2841 H   0  0  0  0  0  0  0  0  0  0  0  0
   -8.9800   22.1148  -32.7264 H   0  0  0  0  0  0  0  0  0  0  0  0
  -10.1559   21.5830  -31.4578 H   0  0  0  0  0  0  0  0  0  0  0  0
   -8.1785   22.2141  -30.2790 H   0  0  0  0  0  0  0  0  0  0  0  0
   -8.1780   20.4115  -30.3258 H   0  0  0  0  0  0  0  0  0  0  0  0
   -6.2215   25.3841  -29.6211 H   0  0  0  0  0  0  0  0  0  0  0  0
   -6.3672   23.6115  -29.2906 H   0  0  0  0  0  0  0  0  0  0  0  0
   -4.3640   22.2140  -30.6010 H   0  0  0  0  0  0  0  0  0  0  0  0
   -4.8442   23.0535  -28.1003 H   0  0  0  0  0  0  0  0  0  0  0  0
   -4.3183   21.3904  -28.6011 H   0  0  0  0  0  0  0  0  0  0  0  0
   -2.4849   23.6783  -27.7396 H   0  0  0  0  0  0  0  0  0  0  0  0
   -2.9407   22.2042  -26.7678 H   0  0  0  0  0  0  0  0  0  0  0  0
   -0.6230   21.9237  -30.0976 H   0  0  0  0  0  0  0  0  0  0  0  0
   -2.1448   20.9042  -30.0403 H   0  0  0  0  0  0  0  0  0  0  0  0
   -2.0485   23.9488  -30.1171 H   0  0  0  0  0  0  0  0  0  0  0  0
   -2.4255   22.8566  -31.5032 H   0  0  0  0  0  0  0  0  0  0  0  0
   -2.6080   21.9570  -33.9890 H   0  0  0  0  0  0  0  0  0  0  0  0
   -1.1823   19.7295  -34.7613 H   0  0  0  0  0  0  0  0  0  0  0  0
   -1.2071   17.2114  -34.7010 H   0  0  0  0  0  0  0  0  0  0  0  0
   -3.0934   15.9942  -33.5917 H   0  0  0  0  0  0  0  0  0  0  0  0
   -4.9837   17.2789  -32.5278 H   0  0  0  0  0  0  0  0  0  0  0  0
  1  2  1  0
  2  3  1  0
  3  4  1  0
  4  5  1  0
  5  6  1  0
  6  7  1  0
  7  8  1  0
  8  9  2  0
  8 10  1  0
 10 11  1  0
 11 12  1  0
 12 13  1  0
 13 14  1  0
 14 15  1  0
  5 16  2  0
 16 17  1  0
 17 18  1  0
 18 19  1  0
 19 20  2  0
 20 21  1  0
 21 22  2  0
 22 23  1  0
 23 24  2  0
 24 25  1  0
 25 26  1  0
 26 27  2  0
 26  4  1  0
 15 10  1  0
 25 17  2  0
 24 19  1  0
  1 28  1  0
  1 29  1  0
  1 30  1  0
  2 31  1  0
  2 32  1  0
  3 33  1  0
  3 34  1  0
  7 35  1  0
  7 36  1  0
 10 37  1  0
 11 38  1  0
 11 39  1  0
 12 40  1  0
 12 41  1  0
 14 42  1  0
 14 43  1  0
 15 44  1  0
 15 45  1  0
 18 46  1  0
 20 47  1  0
 21 48  1  0
 22 49  1  0
 23 50  1  0
M  CHG  1  10   1
M  END
>  <UniqueID>  (38) 
38

>  <SMILES>  (38) 
CCCn1c(SCC(=O)[NH+]2CCOCC2)nc2[nH]c3ccccc3c2c1=O

>  <Energy>  (38) 
104.86695428421937

>  <Genealogy>  (38) 
CCCn1c(SCC(=O)[NH+]2CCOCC2)nc2[nH]c3ccccc3c2c1=O (protonated)
CCCn1c(SCC(=O)[NH+]2CCOCC2)nc2[nH]c3ccccc3c2c1=O (3D coordinates assigned)
CCCn1c(SCC(=O)[NH+]2CCOCC2)nc2[nH]c3ccccc3c2c1=O (nonaromatic ring conformer: 104.86695428421937 kcal/mol)

>  <smiles>  (38) 
CCCn1c(SCC(=O)N2CCOCC2)nc2[nH]c3ccccc3c2c1=O

>  <score_type>  (38) 
oracle

>  <origin>  (38) 
adg

>  <m_score__min__energy>  (38) 
-8.1300000000000008

>  <m_primary>  (38) 
energy

$$$$
38:0
     RDKit          3D

 31 33  0  0  0  0  0  0  0  0999 V2000
   -5.3320   15.3790  -34.2150 C   0  0  0  0  0  0  0  0  0  0  0  0
   -6.6210   16.1910  -34.1750 C   0  0  0  0  0  0  0  0  0  0  0  0
   -6.3590   17.5320  -33.6560 N   0  0  0  0  0  0  0  0  0  0  0  0
   -5.2460   18.2750  -33.8620 C   0  0  0  0  0  0  0  0  0  0  0  0
   -5.3330   19.4850  -33.1790 C   0  0  0  0  0  0  0  0  0  0  0  0
   -6.5470   19.4470  -32.5170 C   0  0  0  0  0  0  0  0  0  0  0  0
   -7.2220   20.3580  -31.7010 C   0  0  0  0  0  0  0  0  0  0  0  0
   -6.6560   21.6220  -31.3220 N   0  0  0  0  0  0  0  0  0  0  0  0
   -5.3420   21.8710  -31.1540 C   0  0  0  0  0  0  0  0  0  0  0  0
   -5.1940   23.2140  -30.8600 C   0  0  0  0  0  0  0  0  0  0  0  0
   -3.9420   23.9350  -30.6050 C   0  0  0  0  0  0  0  0  0  0  0  0
   -3.8590   25.3370  -30.8570 N   0  0  0  0  0  0  0  0  0  0  0  0
   -2.9350   23.3200  -30.1640 O   0  0  0  0  0  0  0  0  0  0  0  0
   -6.4740   23.7400  -30.8800 C   0  0  0  0  0  0  0  0  0  0  0  0
   -7.3360   22.7490  -31.1700 N   0  0  0  0  0  0  0  0  0  0  0  0
   -8.4720   20.0120  -31.2700 N   0  0  0  0  0  0  0  0  0  0  0  0
   -9.0430   18.8120  -31.6020 C   0  0  0  0  0  0  0  0  0  0  0  0
   -8.3720   17.9220  -32.3910 N   0  0  0  0  0  0  0  0  0  0  0  0
   -7.1370   18.2580  -32.8350 C   0  0  0  0  0  0  0  0  0  0  0  0
   -4.9988   15.1691  -33.1879 H   0  0  0  0  0  0  0  0  0  0  0  0
   -5.5121   14.4310  -34.7430 H   0  0  0  0  0  0  0  0  0  0  0  0
   -4.5547   15.9508  -34.7430 H   0  0  0  0  0  0  0  0  0  0  0  0
   -7.0324   16.2694  -35.1922 H   0  0  0  0  0  0  0  0  0  0  0  0
   -7.3420   15.6862  -33.5152 H   0  0  0  0  0  0  0  0  0  0  0  0
   -4.3920   17.9657  -34.4825 H   0  0  0  0  0  0  0  0  0  0  0  0
   -4.5931   20.2989  -33.1681 H   0  0  0  0  0  0  0  0  0  0  0  0
   -4.5292   21.1344  -31.2364 H   0  0  0  0  0  0  0  0  0  0  0  0
   -3.8820   26.0250  -30.0720 H   0  0  0  0  0  0  0  0  0  0  0  0
   -6.7411   24.7902  -30.6908 H   0  0  0  0  0  0  0  0  0  0  0  0
   -8.3640   22.8610  -31.3130 H   0  0  0  0  0  0  0  0  0  0  0  0
  -10.0483   18.5637  -31.2308 H   0  0  0  0  0  0  0  0  0  0  0  0
  1  2  1  0
  2  3  1  0
  3  4  1  0
  4  5  2  0
  5  6  1  0
  6  7  2  0
  7  8  1  0
  8  9  1  0
  9 10  2  0
 10 11  1  0
 11 12  1  0
 11 13  2  0
 10 14  1  0
 14 15  2  0
  7 16  1  0
 16 17  2  0
 17 18  1  0
 18 19  2  0
 19  3  1  0
 19  6  1  0
 15  8  1  0
  1 20  1  0
  1 21  1  0
  1 22  1  0
  2 23  1  0
  2 24  1  0
  4 25  1  0
  5 26  1  0
  9 27  1  0
 12 28  1  0
 14 29  1  0
 15 30  1  0
 17 31  1  0
M  CHG  2  12  -1  15   1
M  END
>  <UniqueID>  (39) 
39

>  <SMILES>  (39) 
CCn1ccc2c(-n3cc(C([NH-])=O)c[nH+]3)ncnc21

>  <Energy>  (39) 
99.19229010159661

>  <Genealogy>  (39) 
CCn1ccc2c(-n3cc(C([NH-])=O)c[nH+]3)ncnc21 (protonated)
CCn1ccc2c(-n3cc(C([NH-])=O)c[nH+]3)ncnc21 (3D coordinates assigned)
CCn1ccc2c(-n3cc(C([NH-])=O)c[nH+]3)ncnc21 (optimized conformer: 99.19229010159661 kcal/mol)

>  <smiles>  (39) 
CCn1ccc2c(-n3cc(C(N)=O)cn3)ncnc21

>  <score_type>  (39) 
oracle

>  <origin>  (39) 
adg

>  <m_score__min__energy>  (39) 
-9.1099999999999994

>  <m_primary>  (39) 
energy

$$$$
39:0
     RDKit          3D

 44 47  0  0  0  0  0  0  0  0999 V2000
    0.2610   23.3360  -28.2490 C   0  0  0  0  0  0  0  0  0  0  0  0
    0.2970   24.7880  -28.0110 N   0  0  0  0  0  0  0  0  0  0  0  0
    1.5920   25.2110  -27.4600 C   0  0  0  0  0  0  0  0  0  0  0  0
   -0.8670   25.2870  -27.2430 C   0  0  0  0  0  0  0  0  0  0  0  0
   -2.2410   25.0510  -27.9050 C   0  0  0  0  0  0  0  0  0  0  0  0
   -2.0990   24.7120  -29.3230 N   0  0  0  0  0  0  0  0  0  0  0  0
   -2.9560   23.7770  -30.0030 C   0  0  0  0  0  0  0  0  0  0  0  0
   -2.3860   22.7650  -30.7800 C   0  0  0  0  0  0  0  0  0  0  0  0
   -3.1890   21.8530  -31.4650 C   0  0  0  0  0  0  0  0  0  0  0  0
   -4.5980   21.9330  -31.4020 C   0  0  0  0  0  0  0  0  0  0  0  0
   -5.1740   22.9770  -30.6420 C   0  0  0  0  0  0  0  0  0  0  0  0
   -4.3530   23.8900  -29.9540 C   0  0  0  0  0  0  0  0  0  0  0  0
   -6.6430   23.1180  -30.5820 C   0  0  0  0  0  0  0  0  0  0  0  0
   -7.1680   24.0470  -29.9070 O   0  0  0  0  0  0  0  0  0  0  0  0
   -7.4960   22.1650  -31.3180 C   0  0  0  0  0  0  0  0  0  0  0  0
   -8.8960   22.2880  -31.2810 C   0  0  0  0  0  0  0  0  0  0  0  0
   -9.7050   21.3850  -31.9690 C   0  0  0  0  0  0  0  0  0  0  0  0
   -9.1330   20.3480  -32.7020 C   0  0  0  0  0  0  0  0  0  0  0  0
   -7.7390   20.2030  -32.7540 C   0  0  0  0  0  0  0  0  0  0  0  0
   -7.1890   19.1820  -33.4670 N   0  0  0  0  0  0  0  0  0  0  0  0
   -5.8450   19.0090  -33.5330 C   0  0  0  0  0  0  0  0  0  0  0  0
   -4.9830   19.8810  -32.8710 C   0  0  0  0  0  0  0  0  0  0  0  0
   -5.4960   20.9620  -32.1230 C   0  0  0  0  0  0  0  0  0  0  0  0
   -6.9050   21.1180  -32.0600 C   0  0  0  0  0  0  0  0  0  0  0  0
    0.2479   22.8066  -27.2848 H   0  0  0  0  0  0  0  0  0  0  0  0
   -0.6438   23.0804  -28.8200 H   0  0  0  0  0  0  0  0  0  0  0  0
    1.1520   23.0358  -28.8200 H   0  0  0  0  0  0  0  0  0  0  0  0
    1.5455   25.1958  -26.3611 H   0  0  0  0  0  0  0  0  0  0  0  0
    2.3788   24.5232  -27.8032 H   0  0  0  0  0  0  0  0  0  0  0  0
    1.8211   26.2307  -27.8032 H   0  0  0  0  0  0  0  0  0  0  0  0
   -0.8699   24.7844  -26.2645 H   0  0  0  0  0  0  0  0  0  0  0  0
   -0.7437   26.3780  -27.1762 H   0  0  0  0  0  0  0  0  0  0  0  0
   -2.7500   24.2240  -27.3884 H   0  0  0  0  0  0  0  0  0  0  0  0
   -2.8270   25.9787  -27.8275 H   0  0  0  0  0  0  0  0  0  0  0  0
   -1.1780   24.9330  -29.7660 H   0  0  0  0  0  0  0  0  0  0  0  0
   -1.2912   22.6866  -30.8523 H   0  0  0  0  0  0  0  0  0  0  0  0
   -2.7179   21.0593  -32.0634 H   0  0  0  0  0  0  0  0  0  0  0  0
   -4.8125   24.7018  -29.3710 H   0  0  0  0  0  0  0  0  0  0  0  0
   -9.3568   23.1036  -30.7044 H   0  0  0  0  0  0  0  0  0  0  0  0
  -10.7992   21.4919  -31.9329 H   0  0  0  0  0  0  0  0  0  0  0  0
   -9.7776   19.6394  -33.2427 H   0  0  0  0  0  0  0  0  0  0  0  0
   -7.8000   18.5060  -33.9780 H   0  0  0  0  0  0  0  0  0  0  0  0
   -5.4316   18.1720  -34.1149 H   0  0  0  0  0  0  0  0  0  0  0  0
   -3.8957   19.7257  -32.9319 H   0  0  0  0  0  0  0  0  0  0  0  0
  1  2  1  0
  2  3  1  0
  2  4  1  0
  4  5  1  0
  5  6  1  0
  6  7  1  0
  7  8  2  0
  8  9  1  0
  9 10  2  0
 10 11  1  0
 11 12  2  0
 11 13  1  0
 13 14  2  0
 13 15  1  0
 15 16  1  0
 16 17  2  0
 17 18  1  0
 18 19  2  0
 19 20  1  0
 20 21  2  0
 21 22  1  0
 22 23  2  0
 23 24  1  0
 12  7  1  0
 24 15  2  0
 23 10  1  0
 24 19  1  0
  1 25  1  0
  1 26  1  0
  1 27  1  0
  3 28  1  0
  3 29  1  0
  3 30  1  0
  4 31  1  0
  4 32  1  0
  5 33  1  0
  5 34  1  0
  6 35  1  0
  8 36  1  0
  9 37  1  0
 12 38  1  0
 16 39  1  0
 17 40  1  0
 18 41  1  0
 20 42  1  0
 21 43  1  0
 22 44  1  0
M  CHG  1  20   1
M  END
>  <UniqueID>  (40) 
40

>  <SMILES>  (40) 
CN(C)CCNc1ccc2c(c1)C(=O)c1cccc3[nH+]ccc-2c13

>  <Energy>  (40) 
64.26023623374073

>  <Genealogy>  (40) 
CN(C)CCNc1ccc2c(c1)C(=O)c1cccc3[nH+]ccc-2c13 (protonated)
CN(C)CCNc1ccc2c(c1)C(=O)c1cccc3[nH+]ccc-2c13 (3D coordinates assigned)
CN(C)CCNc1ccc2c(c1)C(=O)c1cccc3[nH+]ccc-2c13 (nonaromatic ring conformer: 64.26023623374073 kcal/mol)

>  <smiles>  (40) 
CN(C)CCNc1ccc2c(c1)C(=O)c1cccc3nccc-2c13

>  <score_type>  (40) 
oracle

>  <origin>  (40) 
adg

>  <m_score__min__energy>  (40) 
-8.9900000000000002

>  <m_primary>  (40) 
energy

$$$$
40:0
     RDKit          3D

 43 45  0  0  0  0  0  0  0  0999 V2000
   -5.2673   17.1434  -33.5743 H   0  0  0  0  0  0  0  0  0  0  0  0
   -6.0510   17.8740  -33.3250 C   0  0  0  0  0  0  0  0  0  0  0  0
   -5.9610   19.1850  -33.8010 C   0  0  0  0  0  0  0  0  0  0  0  0
   -5.1112   19.4834  -34.4326 H   0  0  0  0  0  0  0  0  0  0  0  0
   -6.9500   20.1170  -33.4750 C   0  0  0  0  0  0  0  0  0  0  0  0
   -6.8764   21.1474  -33.8529 H   0  0  0  0  0  0  0  0  0  0  0  0
   -8.0380   19.7450  -32.6670 C   0  0  0  0  0  0  0  0  0  0  0  0
   -9.0850   20.7630  -32.2780 C   0  0  0  0  0  0  0  0  0  0  0  0
  -10.0766   20.2912  -32.3428 H   0  0  0  0  0  0  0  0  0  0  0  0
   -8.9954   21.6143  -32.9688 H   0  0  0  0  0  0  0  0  0  0  0  0
   -8.8860   21.2990  -30.8480 C   0  0  0  0  0  0  0  0  0  0  0  0
   -8.7638   20.4414  -30.1701 H   0  0  0  0  0  0  0  0  0  0  0  0
   -9.7725   21.9038  -30.6063 H   0  0  0  0  0  0  0  0  0  0  0  0
   -7.6620   22.2170  -30.6940 C   0  0  0  0  0  0  0  0  0  0  0  0
   -6.7485   21.6110  -30.7854 H   0  0  0  0  0  0  0  0  0  0  0  0
   -7.7185   22.7001  -29.7074 H   0  0  0  0  0  0  0  0  0  0  0  0
   -7.6380   23.2980  -31.7450 C   0  0  0  0  0  0  0  0  0  0  0  0
   -8.7310   23.7980  -32.1220 O   0  0  0  0  0  0  0  0  0  0  0  0
   -6.4170   23.8690  -32.2390 N   0  0  0  0  0  0  0  0  0  0  0  0
   -5.3650   24.1750  -31.5390 C   0  0  0  0  0  0  0  0  0  0  0  0
   -5.0130   25.4230  -31.1780 N   0  0  0  0  0  0  0  0  0  0  0  0
   -3.8930   25.2940  -30.4820 N   0  0  0  0  0  0  0  0  0  0  0  0
   -3.6130   23.9760  -30.4410 C   0  0  0  0  0  0  0  0  0  0  0  0
   -2.4360   23.3770  -29.7660 C   0  0  0  0  0  0  0  0  0  0  0  0
   -2.2690   21.9820  -29.8130 C   0  0  0  0  0  0  0  0  0  0  0  0
   -3.0077   21.3626  -30.3428 H   0  0  0  0  0  0  0  0  0  0  0  0
   -1.1750   21.3750  -29.1940 C   0  0  0  0  0  0  0  0  0  0  0  0
   -1.0553   20.2824  -29.2388 H   0  0  0  0  0  0  0  0  0  0  0  0
   -0.2350   22.1500  -28.5200 C   0  0  0  0  0  0  0  0  0  0  0  0
    0.6253   21.6684  -28.0322 H   0  0  0  0  0  0  0  0  0  0  0  0
   -0.3820   23.5370  -28.4620 C   0  0  0  0  0  0  0  0  0  0  0  0
    0.3642   24.1428  -27.9271 H   0  0  0  0  0  0  0  0  0  0  0  0
   -1.4800   24.1680  -29.0840 C   0  0  0  0  0  0  0  0  0  0  0  0
   -1.6430   25.5620  -29.0370 O   0  0  0  0  0  0  0  0  0  0  0  0
   -1.1380   26.4050  -28.0060 C   0  0  0  0  0  0  0  0  0  0  0  0
   -1.3938   25.9780  -27.0251 H   0  0  0  0  0  0  0  0  0  0  0  0
   -0.0446   26.4825  -28.0983 H   0  0  0  0  0  0  0  0  0  0  0  0
   -1.5856   27.4056  -28.0983 H   0  0  0  0  0  0  0  0  0  0  0  0
   -4.5230   23.2810  -31.0850 O   0  0  0  0  0  0  0  0  0  0  0  0
   -8.1310   18.4190  -32.2110 C   0  0  0  0  0  0  0  0  0  0  0  0
   -8.9907   18.1101  -31.5982 H   0  0  0  0  0  0  0  0  0  0  0  0
   -7.1370   17.4910  -32.5320 C   0  0  0  0  0  0  0  0  0  0  0  0
   -7.2089   16.4581  -32.1605 H   0  0  0  0  0  0  0  0  0  0  0  0
  1  2  1  0
  2  3  2  0
  3  4  1  0
  3  5  1  0
  5  6  1  0
  5  7  2  0
  7  8  1  0
  8  9  1  0
  8 10  1  0
  8 11  1  0
 11 12  1  0
 11 13  1  0
 11 14  1  0
 14 15  1  0
 14 16  1  0
 14 17  1  0
 17 18  2  0
 17 19  1  0
 19 20  2  0
 20 21  1  0
 21 22  1  0
 22 23  2  0
 23 24  1  0
 24 25  2  0
 25 26  1  0
 25 27  1  0
 27 28  1  0
 27 29  2  0
 29 30  1  0
 29 31  1  0
 31 32  1  0
 31 33  2  0
 33 34  1  0
 34 35  1  0
 35 36  1  0
 35 37  1  0
 35 38  1  0
 23 39  1  0
  7 40  1  0
 40 41  1  0
 40 42  2  0
 42 43  1  0
 42  2  1  0
 39 20  1  0
 33 24  1  0
M  CHG  1  21  -1
M  END
>  <UniqueID>  (41) 
41

>  <SMILES>  (41) 
COc1ccccc1-c1n[n-]/c(=N\C(=O)CCCc2ccccc2)o1

>  <Energy>  (41) 
81.43371110376434

>  <Genealogy>  (41) 
COc1ccccc1-c1n[n-]c(=NC(=O)CCCc2ccccc2)o1 (protonated)
COc1ccccc1-c1n[n-]/c(=N\C(=O)CCCc2ccccc2)o1 (cis-trans isomerization)
COc1ccccc1-c1n[n-]/c(=N\C(=O)CCCc2ccccc2)o1 (3D coordinates assigned)
COc1ccccc1-c1n[n-]/c(=N\C(=O)CCCc2ccccc2)o1 (optimized conformer: 81.43371110376434 kcal/mol)

>  <smiles>  (41) 
COc1ccccc1-c1n[nH]c(=NC(=O)CCCc2ccccc2)o1

>  <score_type>  (41) 
oracle

>  <origin>  (41) 
adg

>  <m_score__min__energy>  (41) 
-10.18

>  <m_primary>  (41) 
energy

$$$$
41:0
     RDKit          3D

 38 40  0  0  0  0  0  0  0  0999 V2000
   -9.8610   21.5290  -31.7270 C   0  0  0  0  0  0  0  0  0  0  0  0
   -8.5900   21.3660  -30.9040 C   0  0  0  0  0  0  0  0  0  0  0  0
   -7.4500   21.0750  -31.7790 N   0  0  0  0  0  0  0  0  0  0  0  0
   -6.5240   21.9460  -32.2690 C   0  0  0  0  0  0  0  0  0  0  0  0
   -6.4520   23.4020  -31.9100 C   0  0  0  0  0  0  0  0  0  0  0  0
   -6.2810   23.5560  -30.4490 N   0  0  0  0  0  0  0  0  0  0  0  0
   -4.9610   23.0720  -29.9770 C   0  0  0  0  0  0  0  0  0  0  0  0
   -3.9070   24.1960  -29.9100 C   0  0  0  0  0  0  0  0  0  0  0  0
   -4.2070   25.2140  -30.8390 O   0  0  0  0  0  0  0  0  0  0  0  0
   -5.3890   25.8960  -30.4520 C   0  0  0  0  0  0  0  0  0  0  0  0
   -6.5250   24.9430  -30.0080 C   0  0  0  0  0  0  0  0  0  0  0  0
   -5.6400   21.3490  -33.1070 N   0  0  0  0  0  0  0  0  0  0  0  0
   -6.0410   20.0680  -33.1550 C   0  0  0  0  0  0  0  0  0  0  0  0
   -5.4900   19.0210  -33.8890 C   0  0  0  0  0  0  0  0  0  0  0  0
   -6.1060   17.7590  -33.7890 C   0  0  0  0  0  0  0  0  0  0  0  0
   -7.2440   17.5810  -32.9700 C   0  0  0  0  0  0  0  0  0  0  0  0
   -7.7770   18.6610  -32.2430 C   0  0  0  0  0  0  0  0  0  0  0  0
   -7.1380   19.8990  -32.3590 C   0  0  0  0  0  0  0  0  0  0  0  0
  -10.7229   21.6395  -31.0525 H   0  0  0  0  0  0  0  0  0  0  0  0
   -9.7748   22.4234  -32.3615 H   0  0  0  0  0  0  0  0  0  0  0  0
  -10.0033   20.6417  -32.3615 H   0  0  0  0  0  0  0  0  0  0  0  0
   -8.3943   22.2964  -30.3507 H   0  0  0  0  0  0  0  0  0  0  0  0
   -8.7238   20.5303  -30.2014 H   0  0  0  0  0  0  0  0  0  0  0  0
   -5.5974   23.8627  -32.4271 H   0  0  0  0  0  0  0  0  0  0  0  0
   -7.3854   23.8959  -32.2179 H   0  0  0  0  0  0  0  0  0  0  0  0
   -5.0822   22.6421  -28.9717 H   0  0  0  0  0  0  0  0  0  0  0  0
   -4.6035   22.3223  -30.6982 H   0  0  0  0  0  0  0  0  0  0  0  0
   -3.8978   24.6230  -28.8963 H   0  0  0  0  0  0  0  0  0  0  0  0
   -2.9213   23.7728  -30.1537 H   0  0  0  0  0  0  0  0  0  0  0  0
   -5.1474   26.5663  -29.6140 H   0  0  0  0  0  0  0  0  0  0  0  0
   -5.7507   26.4484  -31.3318 H   0  0  0  0  0  0  0  0  0  0  0  0
   -6.5956   24.9604  -28.9104 H   0  0  0  0  0  0  0  0  0  0  0  0
   -7.4614   25.2888  -30.4701 H   0  0  0  0  0  0  0  0  0  0  0  0
   -4.8350   21.7850  -33.6090 H   0  0  0  0  0  0  0  0  0  0  0  0
   -4.6051   19.1743  -34.5242 H   0  0  0  0  0  0  0  0  0  0  0  0
   -5.6990   16.9061  -34.3519 H   0  0  0  0  0  0  0  0  0  0  0  0
   -7.7167   16.5902  -32.9005 H   0  0  0  0  0  0  0  0  0  0  0  0
   -8.6650   18.5358  -31.6059 H   0  0  0  0  0  0  0  0  0  0  0  0
  1  2  1  0
  2  3  1  0
  3  4  1  0
  4  5  1  0
  5  6  1  0
  6  7  1  0
  7  8  1  0
  8  9  1  0
  9 10  1  0
 10 11  1  0
  4 12  2  0
 12 13  1  0
 13 14  2  0
 14 15  1  0
 15 16  2  0
 16 17  1  0
 17 18  2  0
 18  3  1  0
 11  6  1  0
 18 13  1  0
  1 19  1  0
  1 20  1  0
  1 21  1  0
  2 22  1  0
  2 23  1  0
  5 24  1  0
  5 25  1  0
  7 26  1  0
  7 27  1  0
  8 28  1  0
  8 29  1  0
 10 30  1  0
 10 31  1  0
 11 32  1  0
 11 33  1  0
 12 34  1  0
 14 35  1  0
 15 36  1  0
 16 37  1  0
 17 38  1  0
M  CHG  1  12   1
M  END
>  <UniqueID>  (42) 
42

>  <SMILES>  (42) 
CCn1c(CN2CCOCC2)[nH+]c2ccccc21

>  <Energy>  (42) 
84.98397652078877

>  <Genealogy>  (42) 
CCn1c(CN2CCOCC2)[nH+]c2ccccc21 (protonated)
CCn1c(CN2CCOCC2)[nH+]c2ccccc21 (3D coordinates assigned)
CCn1c(CN2CCOCC2)[nH+]c2ccccc21 (nonaromatic ring conformer: 84.98397652078877 kcal/mol)

>  <smiles>  (42) 
CCn1c(CN2CCOCC2)nc2ccccc21

>  <score_type>  (42) 
oracle

>  <origin>  (42) 
adg

>  <m_score__min__energy>  (42) 
-7.5700000000000003

>  <m_primary>  (42) 
energy

$$$$
42:0
     RDKit          3D

 61 63  0  0  0  0  0  0  0  0999 V2000
   -1.9340   25.2760  -27.0730 C   0  0  0  0  0  0  0  0  0  0  0  0
   -1.6290   25.2970  -28.5720 C   0  0  0  0  0  0  0  0  0  0  0  0
   -2.2870   24.1680  -29.2700 N   0  0  0  0  0  0  0  0  0  0  0  0
   -3.7450   24.1480  -29.0100 C   0  0  0  0  0  0  0  0  0  0  0  0
   -4.4840   24.9080  -30.1080 C   0  0  0  0  0  0  0  0  0  0  0  0
   -1.6640   22.8770  -28.8810 C   0  0  0  0  0  0  0  0  0  0  0  0
   -1.2820   22.0640  -30.1190 C   0  0  0  0  0  0  0  0  0  0  0  0
   -2.2400   22.3040  -31.2010 N   0  0  0  0  0  0  0  0  0  0  0  0
   -2.7520   21.2750  -32.0750 C   0  0  0  0  0  0  0  0  0  0  0  0
   -1.8790   20.5170  -32.8550 C   0  0  0  0  0  0  0  0  0  0  0  0
   -2.3610   19.5490  -33.7210 C   0  0  0  0  0  0  0  0  0  0  0  0
   -3.7380   19.3100  -33.8610 C   0  0  0  0  0  0  0  0  0  0  0  0
   -4.1510   18.2390  -34.7350 N   0  0  0  0  0  0  0  0  0  0  0  0
   -3.8790   16.8290  -34.4420 C   0  0  0  0  0  0  0  0  0  0  0  0
   -4.1510   16.4960  -32.9580 C   0  0  0  0  0  0  0  0  0  0  0  0
   -5.5670   16.2070  -32.6310 N   0  0  0  0  0  0  0  0  0  0  0  0
   -6.1160   17.1040  -31.6050 C   0  0  0  0  0  0  0  0  0  0  0  0
   -6.4400   16.1470  -33.8150 C   0  0  0  0  0  0  0  0  0  0  0  0
   -4.6780   20.0780  -33.0910 C   0  0  0  0  0  0  0  0  0  0  0  0
   -6.1050   19.8920  -33.2400 C   0  0  0  0  0  0  0  0  0  0  0  0
   -6.5150   19.0800  -34.1130 O   0  0  0  0  0  0  0  0  0  0  0  0
   -7.1160   20.5690  -32.4840 C   0  0  0  0  0  0  0  0  0  0  0  0
   -8.4840   20.2710  -32.7090 C   0  0  0  0  0  0  0  0  0  0  0  0
   -9.4930   20.9150  -31.9860 C   0  0  0  0  0  0  0  0  0  0  0  0
   -9.1670   21.8700  -31.0240 C   0  0  0  0  0  0  0  0  0  0  0  0
   -7.8320   22.1840  -30.7840 C   0  0  0  0  0  0  0  0  0  0  0  0
   -6.8200   21.5400  -31.5070 C   0  0  0  0  0  0  0  0  0  0  0  0
   -5.2180   21.9300  -31.2320 S   0  0  0  0  0  0  0  0  0  0  0  0
   -4.1430   21.0510  -32.1940 C   0  0  0  0  0  0  0  0  0  0  0  0
   -0.9933   25.3408  -26.5065 H   0  0  0  0  0  0  0  0  0  0  0  0
   -2.5757   26.1321  -26.8174 H   0  0  0  0  0  0  0  0  0  0  0  0
   -2.4523   24.3400  -26.8174 H   0  0  0  0  0  0  0  0  0  0  0  0
   -1.9929   26.2433  -28.9987 H   0  0  0  0  0  0  0  0  0  0  0  0
   -0.5414   25.2027  -28.7068 H   0  0  0  0  0  0  0  0  0  0  0  0
   -4.0966   23.1059  -28.9890 H   0  0  0  0  0  0  0  0  0  0  0  0
   -3.9447   24.6300  -28.0416 H   0  0  0  0  0  0  0  0  0  0  0  0
   -5.1817   25.6255  -29.6515 H   0  0  0  0  0  0  0  0  0  0  0  0
   -3.7576   25.4493  -30.7320 H   0  0  0  0  0  0  0  0  0  0  0  0
   -5.0454   24.1970  -30.7320 H   0  0  0  0  0  0  0  0  0  0  0  0
   -0.7596   23.0772  -28.2877 H   0  0  0  0  0  0  0  0  0  0  0  0
   -2.3895   22.2992  -28.2895 H   0  0  0  0  0  0  0  0  0  0  0  0
   -0.2766   22.3611  -30.4521 H   0  0  0  0  0  0  0  0  0  0  0  0
   -1.2934   20.9945  -29.8620 H   0  0  0  0  0  0  0  0  0  0  0  0
   -2.6170   23.2750  -31.2790 H   0  0  0  0  0  0  0  0  0  0  0  0
   -0.7951   20.6898  -32.7817 H   0  0  0  0  0  0  0  0  0  0  0  0
   -1.6493   18.9542  -34.3123 H   0  0  0  0  0  0  0  0  0  0  0  0
   -4.9180   18.4410  -35.4150 H   0  0  0  0  0  0  0  0  0  0  0  0
   -4.5254   16.2017  -35.0733 H   0  0  0  0  0  0  0  0  0  0  0  0
   -2.8171   16.6319  -34.6508 H   0  0  0  0  0  0  0  0  0  0  0  0
   -3.5519   15.6129  -32.6910 H   0  0  0  0  0  0  0  0  0  0  0  0
   -3.8807   17.3960  -32.3862 H   0  0  0  0  0  0  0  0  0  0  0  0
   -5.8749   16.7101  -30.6066 H   0  0  0  0  0  0  0  0  0  0  0  0
   -5.6760   18.1056  -31.7201 H   0  0  0  0  0  0  0  0  0  0  0  0
   -7.2081   17.1679  -31.7201 H   0  0  0  0  0  0  0  0  0  0  0  0
   -7.4895   16.0749  -33.4935 H   0  0  0  0  0  0  0  0  0  0  0  0
   -6.3030   17.0567  -34.4181 H   0  0  0  0  0  0  0  0  0  0  0  0
   -6.1798   15.2646  -34.4181 H   0  0  0  0  0  0  0  0  0  0  0  0
   -8.7562   19.5202  -33.4654 H   0  0  0  0  0  0  0  0  0  0  0  0
  -10.5476   20.6672  -32.1770 H   0  0  0  0  0  0  0  0  0  0  0  0
   -9.9627   22.3742  -30.4559 H   0  0  0  0  0  0  0  0  0  0  0  0
   -7.5720   22.9380  -30.0264 H   0  0  0  0  0  0  0  0  0  0  0  0
  1  2  1  0
  2  3  1  0
  3  4  1  0
  4  5  1  0
  3  6  1  0
  6  7  1  0
  7  8  1  0
  8  9  1  0
  9 10  2  0
 10 11  1  0
 11 12  2  0
 12 13  1  0
 13 14  1  0
 14 15  1  0
 15 16  1  0
 16 17  1  0
 16 18  1  0
 12 19  1  0
 19 20  1  0
 20 21  2  0
 20 22  1  0
 22 23  2  0
 23 24  1  0
 24 25  2  0
 25 26  1  0
 26 27  2  0
 27 28  1  0
 28 29  1  0
 29  9  1  0
 29 19  2  0
 27 22  1  0
  1 30  1  0
  1 31  1  0
  1 32  1  0
  2 33  1  0
  2 34  1  0
  4 35  1  0
  4 36  1  0
  5 37  1  0
  5 38  1  0
  5 39  1  0
  6 40  1  0
  6 41  1  0
  7 42  1  0
  7 43  1  0
  8 44  1  0
 10 45  1  0
 11 46  1  0
 13 47  1  0
 14 48  1  0
 14 49  1  0
 15 50  1  0
 15 51  1  0
 17 52  1  0
 17 53  1  0
 17 54  1  0
 18 55  1  0
 18 56  1  0
 18 57  1  0
 23 58  1  0
 24 59  1  0
 25 60  1  0
 26 61  1  0
M  END
>  <UniqueID>  (43) 
43

>  <SMILES>  (43) 
CCN(CC)CCNc1ccc(NCCN(C)C)c2c(=O)c3ccccc3sc12

>  <Energy>  (43) 
86.08130560393116

>  <Genealogy>  (43) 
CCN(CC)CCNc1ccc(NCCN(C)C)c2c(=O)c3ccccc3sc12 (3D coordinates assigned)
CCN(CC)CCNc1ccc(NCCN(C)C)c2c(=O)c3ccccc3sc12 (optimized conformer: 86.08130560393116 kcal/mol)

>  <smiles>  (43) 
CCN(CC)CCNc1ccc(NCCN(C)C)c2c(=O)c3ccccc3sc12

>  <score_type>  (43) 
oracle

>  <origin>  (43) 
adg

>  <m_score__min__energy>  (43) 
-8.4499999999999993

>  <m_primary>  (43) 
energy

$$$$
43:0
     RDKit          3D

 46 50  0  0  0  0  0  0  0  0999 V2000
   -5.2450   16.3350  -34.2040 C   0  0  0  0  0  0  0  0  0  0  0  0
   -5.1910   17.5030  -34.9710 C   0  0  0  0  0  0  0  0  0  0  0  0
   -5.9200   18.6300  -34.5820 C   0  0  0  0  0  0  0  0  0  0  0  0
   -6.7230   18.5910  -33.4300 C   0  0  0  0  0  0  0  0  0  0  0  0
   -7.4930   19.7780  -33.0120 C   0  0  0  0  0  0  0  0  0  0  0  0
   -8.8400   19.8400  -33.0630 N   0  0  0  0  0  0  0  0  0  0  0  0
   -9.2330   20.9480  -32.4510 N   0  0  0  0  0  0  0  0  0  0  0  0
   -8.1050   21.5520  -32.0310 C   0  0  0  0  0  0  0  0  0  0  0  0
   -7.0020   20.8710  -32.3860 N   0  0  0  0  0  0  0  0  0  0  0  0
   -5.6740   21.3490  -32.1110 C   0  0  0  0  0  0  0  0  0  0  0  0
   -4.5520   20.9110  -32.8310 C   0  0  0  0  0  0  0  0  0  0  0  0
   -3.2730   21.4120  -32.5370 C   0  0  0  0  0  0  0  0  0  0  0  0
   -2.1170   20.9170  -33.2470 N   0  0  0  0  0  0  0  0  0  0  0  0
   -0.8040   21.5500  -33.0500 C   0  0  0  0  0  0  0  0  0  0  0  0
    0.0020   21.5440  -34.3470 C   0  0  0  0  0  0  0  0  0  0  0  0
    0.4430   19.8540  -34.9010 S   0  0  0  0  0  0  0  0  0  0  0  0
   -0.9800   18.9380  -34.2000 C   0  0  0  0  0  0  0  0  0  0  0  0
   -2.2570   19.7750  -34.1640 C   0  0  0  0  0  0  0  0  0  0  0  0
   -3.1360   22.3930  -31.5410 C   0  0  0  0  0  0  0  0  0  0  0  0
   -4.2580   22.8820  -30.8660 C   0  0  0  0  0  0  0  0  0  0  0  0
   -5.5330   22.3860  -31.1650 C   0  0  0  0  0  0  0  0  0  0  0  0
   -6.7560   22.9000  -30.4270 C   0  0  0  0  0  0  0  0  0  0  0  0
   -8.0310   22.8560  -31.2960 C   0  0  0  0  0  0  0  0  0  0  0  0
   -6.7530   17.4240  -32.6520 C   0  0  0  0  0  0  0  0  0  0  0  0
   -6.0220   16.2980  -33.0430 C   0  0  0  0  0  0  0  0  0  0  0  0
   -4.6763   15.4460  -34.5143 H   0  0  0  0  0  0  0  0  0  0  0  0
   -4.5742   17.5347  -35.8813 H   0  0  0  0  0  0  0  0  0  0  0  0
   -5.8648   19.5514  -35.1803 H   0  0  0  0  0  0  0  0  0  0  0  0
   -9.4860   19.1250  -33.4640 H   0  0  0  0  0  0  0  0  0  0  0  0
   -4.6752   20.1684  -33.6331 H   0  0  0  0  0  0  0  0  0  0  0  0
   -0.9506   22.5895  -32.7215 H   0  0  0  0  0  0  0  0  0  0  0  0
   -0.2498   20.9818  -32.2883 H   0  0  0  0  0  0  0  0  0  0  0  0
   -0.5953   22.0273  -35.1342 H   0  0  0  0  0  0  0  0  0  0  0  0
    0.9403   22.0855  -34.1564 H   0  0  0  0  0  0  0  0  0  0  0  0
   -1.1616   18.0446  -34.8155 H   0  0  0  0  0  0  0  0  0  0  0  0
   -0.7268   18.6718  -33.1632 H   0  0  0  0  0  0  0  0  0  0  0  0
   -2.4687   20.1508  -35.1759 H   0  0  0  0  0  0  0  0  0  0  0  0
   -3.0809   19.1396  -33.8069 H   0  0  0  0  0  0  0  0  0  0  0  0
   -2.1372   22.7797  -31.2901 H   0  0  0  0  0  0  0  0  0  0  0  0
   -4.1390   23.6594  -30.0970 H   0  0  0  0  0  0  0  0  0  0  0  0
   -6.9162   22.2787  -29.5335 H   0  0  0  0  0  0  0  0  0  0  0  0
   -6.5689   23.9506  -30.1600 H   0  0  0  0  0  0  0  0  0  0  0  0
   -8.9156   22.9612  -30.6507 H   0  0  0  0  0  0  0  0  0  0  0  0
   -8.0006   23.6799  -32.0241 H   0  0  0  0  0  0  0  0  0  0  0  0
   -7.3538   17.3947  -31.7310 H   0  0  0  0  0  0  0  0  0  0  0  0
   -6.0586   15.3815  -32.4357 H   0  0  0  0  0  0  0  0  0  0  0  0
  1  2  2  0
  2  3  1  0
  3  4  2  0
  4  5  1  0
  5  6  2  0
  6  7  1  0
  7  8  2  0
  8  9  1  0
  9 10  1  0
 10 11  2  0
 11 12  1  0
 12 13  1  0
 13 14  1  0
 14 15  1  0
 15 16  1  0
 16 17  1  0
 17 18  1  0
 12 19  2  0
 19 20  1  0
 20 21  2  0
 21 22  1  0
 22 23  1  0
  4 24  1  0
 24 25  2  0
 25  1  1  0
  9  5  1  0
 21 10  1  0
 23  8  1  0
 18 13  1  0
  1 26  1  0
  2 27  1  0
  3 28  1  0
  6 29  1  0
 11 30  1  0
 14 31  1  0
 14 32  1  0
 15 33  1  0
 15 34  1  0
 17 35  1  0
 17 36  1  0
 18 37  1  0
 18 38  1  0
 19 39  1  0
 20 40  1  0
 22 41  1  0
 22 42  1  0
 23 43  1  0
 23 44  1  0
 24 45  1  0
 25 46  1  0
M  CHG  1   6   1
M  END
>  <UniqueID>  (44) 
44

>  <SMILES>  (44) 
c1ccc(-c2[nH+]nc3n2-c2cc(N4CCSCC4)ccc2CC3)cc1

>  <Energy>  (44) 
101.06823759974586

>  <Genealogy>  (44) 
c1ccc(-c2[nH+]nc3n2-c2cc(N4CCSCC4)ccc2CC3)cc1 (protonated)
c1ccc(-c2[nH+]nc3n2-c2cc(N4CCSCC4)ccc2CC3)cc1 (3D coordinates assigned)
c1ccc(-c2[nH+]nc3n2-c2cc(N4CCSCC4)ccc2CC3)cc1 (nonaromatic ring conformer: 101.06823759974586 kcal/mol)

>  <smiles>  (44) 
c1ccc(-c2nnc3n2-c2cc(N4CCSCC4)ccc2CC3)cc1

>  <score_type>  (44) 
oracle

>  <origin>  (44) 
adg

>  <m_score__min__energy>  (44) 
-8.7200000000000006

>  <m_primary>  (44) 
energy

$$$$
44:0
     RDKit          3D

 48 51  0  0  0  0  0  0  0  0999 V2000
   -9.1240   19.4360  -32.6760 C   0  0  0  0  0  0  0  0  0  0  0  0
   -8.9450   20.8430  -32.5590 O   0  0  0  0  0  0  0  0  0  0  0  0
   -7.8420   21.4540  -31.9450 C   0  0  0  0  0  0  0  0  0  0  0  0
   -7.9770   22.3360  -30.8560 C   0  0  0  0  0  0  0  0  0  0  0  0
   -6.8460   22.9200  -30.2780 C   0  0  0  0  0  0  0  0  0  0  0  0
   -5.5630   22.6310  -30.7710 C   0  0  0  0  0  0  0  0  0  0  0  0
   -4.3670   23.2610  -30.1590 C   0  0  0  0  0  0  0  0  0  0  0  0
   -4.1890   24.6520  -30.2380 C   0  0  0  0  0  0  0  0  0  0  0  0
   -3.1230   25.2360  -29.7020 O   0  0  0  0  0  0  0  0  0  0  0  0
   -2.1750   24.5560  -29.0670 C   0  0  0  0  0  0  0  0  0  0  0  0
   -1.0820   25.2400  -28.5240 C   0  0  0  0  0  0  0  0  0  0  0  0
   -0.0770   24.5400  -27.8270 C   0  0  0  0  0  0  0  0  0  0  0  0
    1.0280   25.1690  -27.2270 O   0  0  0  0  0  0  0  0  0  0  0  0
    1.0570   26.4770  -26.6530 C   0  0  0  0  0  0  0  0  0  0  0  0
    1.1860   26.4240  -25.1200 C   0  0  0  0  0  0  0  0  0  0  0  0
    0.5970   25.2110  -24.5240 N   0  0  0  0  0  0  0  0  0  0  0  0
   -0.8110   25.4290  -24.1270 C   0  0  0  0  0  0  0  0  0  0  0  0
   -1.6800   26.0780  -25.2000 C   0  0  0  0  0  0  0  0  0  0  0  0
   -1.2190   26.8950  -24.0070 C   0  0  0  0  0  0  0  0  0  0  0  0
   -0.1730   23.1480  -27.7130 C   0  0  0  0  0  0  0  0  0  0  0  0
   -1.2580   22.4560  -28.2560 C   0  0  0  0  0  0  0  0  0  0  0  0
   -2.2700   23.1540  -28.9340 C   0  0  0  0  0  0  0  0  0  0  0  0
   -3.3880   22.5040  -29.4860 C   0  0  0  0  0  0  0  0  0  0  0  0
   -3.5240   21.2550  -29.3600 O   0  0  0  0  0  0  0  0  0  0  0  0
   -5.4330   21.7560  -31.8620 C   0  0  0  0  0  0  0  0  0  0  0  0
   -6.5640   21.1730  -32.4400 C   0  0  0  0  0  0  0  0  0  0  0  0
   -9.1809   18.9889  -31.6726 H   0  0  0  0  0  0  0  0  0  0  0  0
  -10.0557   19.2291  -33.2229 H   0  0  0  0  0  0  0  0  0  0  0  0
   -8.2738   19.0024  -33.2229 H   0  0  0  0  0  0  0  0  0  0  0  0
   -8.9764   22.5665  -30.4584 H   0  0  0  0  0  0  0  0  0  0  0  0
   -6.9618   23.6114  -29.4303 H   0  0  0  0  0  0  0  0  0  0  0  0
   -4.9432   25.2667  -30.7511 H   0  0  0  0  0  0  0  0  0  0  0  0
   -1.0066   26.3311  -28.6419 H   0  0  0  0  0  0  0  0  0  0  0  0
    1.9160   27.0276  -27.0641 H   0  0  0  0  0  0  0  0  0  0  0  0
    0.1108   26.9806  -26.9000 H   0  0  0  0  0  0  0  0  0  0  0  0
    2.2540   26.4575  -24.8587 H   0  0  0  0  0  0  0  0  0  0  0  0
    0.6321   27.2850  -24.7178 H   0  0  0  0  0  0  0  0  0  0  0  0
    1.1780   24.9000  -23.7110 H   0  0  0  0  0  0  0  0  0  0  0  0
    0.6430   24.4560  -25.2480 H   0  0  0  0  0  0  0  0  0  0  0  0
   -0.8937   24.5393  -23.4854 H   0  0  0  0  0  0  0  0  0  0  0  0
   -1.2627   26.2788  -26.1977 H   0  0  0  0  0  0  0  0  0  0  0  0
   -2.6554   25.8479  -25.6534 H   0  0  0  0  0  0  0  0  0  0  0  0
   -0.4677   27.6873  -24.1408 H   0  0  0  0  0  0  0  0  0  0  0  0
   -1.7223   27.5010  -23.2392 H   0  0  0  0  0  0  0  0  0  0  0  0
    0.6174   22.5912  -27.1883 H   0  0  0  0  0  0  0  0  0  0  0  0
   -1.3196   21.3626  -28.1523 H   0  0  0  0  0  0  0  0  0  0  0  0
   -4.4348   21.5282  -32.2640 H   0  0  0  0  0  0  0  0  0  0  0  0
   -6.4483   20.4869  -33.2920 H   0  0  0  0  0  0  0  0  0  0  0  0
  1  2  1  0
  2  3  1  0
  3  4  2  0
  4  5  1  0
  5  6  2  0
  6  7  1  0
  7  8  2  0
  8  9  1  0
  9 10  1  0
 10 11  2  0
 11 12  1  0
 12 13  1  0
 13 14  1  0
 14 15  1  0
 15 16  1  0
 16 17  1  0
 17 18  1  0
 18 19  1  0
 12 20  2  0
 20 21  1  0
 21 22  2  0
 22 23  1  0
 23 24  2  0
  6 25  1  0
 25 26  2  0
 26  3  1  0
 23  7  1  0
 22 10  1  0
 19 17  1  0
  1 27  1  0
  1 28  1  0
  1 29  1  0
  4 30  1  0
  5 31  1  0
  8 32  1  0
 11 33  1  0
 14 34  1  0
 14 35  1  0
 15 36  1  0
 15 37  1  0
 16 38  1  0
 16 39  1  0
 17 40  1  0
 18 41  1  0
 18 42  1  0
 19 43  1  0
 19 44  1  0
 20 45  1  0
 21 46  1  0
 25 47  1  0
 26 48  1  0
M  CHG  1  16   1
M  END
>  <UniqueID>  (45) 
45

>  <SMILES>  (45) 
COc1ccc(-c2coc3cc(OCC[NH2+]C4CC4)ccc3c2=O)cc1

>  <Energy>  (45) 
329.9843250096946

>  <Genealogy>  (45) 
COc1ccc(-c2coc3cc(OCC[NH2+]C4CC4)ccc3c2=O)cc1 (protonated)
COc1ccc(-c2coc3cc(OCC[NH2+]C4CC4)ccc3c2=O)cc1 (3D coordinates assigned)
COc1ccc(-c2coc3cc(OCC[NH2+]C4CC4)ccc3c2=O)cc1 (nonaromatic ring conformer: 329.9843250096946 kcal/mol)

>  <smiles>  (45) 
COc1ccc(-c2coc3cc(OCCNC4CC4)ccc3c2=O)cc1

>  <score_type>  (45) 
oracle

>  <origin>  (45) 
adg

>  <m_score__min__energy>  (45) 
-8.3200000000000003

>  <m_primary>  (45) 
energy

$$$$
45:0
     RDKit          3D

 42 45  0  0  0  0  0  0  0  0999 V2000
   -5.3600   25.7020  -30.1000 C   0  0  0  0  0  0  0  0  0  0  0  0
   -5.3920   24.2400  -30.4310 C   0  0  0  0  0  0  0  0  0  0  0  0
   -6.5120   23.6560  -30.9430 N   0  0  0  0  0  0  0  0  0  0  0  0
   -6.3860   22.3160  -31.1090 C   0  0  0  0  0  0  0  0  0  0  0  0
   -7.4530   21.4270  -31.6310 C   0  0  0  0  0  0  0  0  0  0  0  0
   -8.7980   21.8440  -31.6140 C   0  0  0  0  0  0  0  0  0  0  0  0
   -9.8070   21.0090  -32.1040 C   0  0  0  0  0  0  0  0  0  0  0  0
   -9.4880   19.7490  -32.6120 C   0  0  0  0  0  0  0  0  0  0  0  0
   -8.1600   19.3190  -32.6290 C   0  0  0  0  0  0  0  0  0  0  0  0
   -7.1470   20.1500  -32.1420 C   0  0  0  0  0  0  0  0  0  0  0  0
   -4.8560   21.8080  -30.6180 S   0  0  0  0  0  0  0  0  0  0  0  0
   -4.3320   23.3520  -30.2120 C   0  0  0  0  0  0  0  0  0  0  0  0
   -3.0110   23.6500  -29.6420 C   0  0  0  0  0  0  0  0  0  0  0  0
   -2.8760   24.5250  -28.6090 N   0  0  0  0  0  0  0  0  0  0  0  0
   -1.5920   24.6400  -28.2020 C   0  0  0  0  0  0  0  0  0  0  0  0
   -1.1720   25.5020  -27.1280 N   0  0  0  0  0  0  0  0  0  0  0  0
   -0.8740   26.9130  -27.4040 C   0  0  0  0  0  0  0  0  0  0  0  0
   -0.4610   27.6470  -26.1250 C   0  0  0  0  0  0  0  0  0  0  0  0
   -1.3740   27.3070  -25.0300 N   0  0  0  0  0  0  0  0  0  0  0  0
   -1.3240   25.8770  -24.6670 C   0  0  0  0  0  0  0  0  0  0  0  0
   -0.8570   24.9430  -25.8060 C   0  0  0  0  0  0  0  0  0  0  0  0
   -0.5740   23.6360  -29.0950 S   0  0  0  0  0  0  0  0  0  0  0  0
   -1.8230   23.0410  -30.0490 C   0  0  0  0  0  0  0  0  0  0  0  0
   -1.6120   21.6380  -31.3290 Br  0  0  0  0  0  0  0  0  0  0  0  0
   -5.3572   25.8306  -29.0076 H   0  0  0  0  0  0  0  0  0  0  0  0
   -4.4517   26.1543  -30.5248 H   0  0  0  0  0  0  0  0  0  0  0  0
   -6.2476   26.1936  -30.5248 H   0  0  0  0  0  0  0  0  0  0  0  0
   -7.3850   24.1930  -31.1380 H   0  0  0  0  0  0  0  0  0  0  0  0
   -9.0570   22.8346  -31.2120 H   0  0  0  0  0  0  0  0  0  0  0  0
  -10.8540   21.3459  -32.0890 H   0  0  0  0  0  0  0  0  0  0  0  0
  -10.2830   19.0946  -32.9990 H   0  0  0  0  0  0  0  0  0  0  0  0
   -7.9102   18.3242  -33.0265 H   0  0  0  0  0  0  0  0  0  0  0  0
   -6.1028   19.8044  -32.1578 H   0  0  0  0  0  0  0  0  0  0  0  0
   -0.0526   26.9712  -28.1333 H   0  0  0  0  0  0  0  0  0  0  0  0
   -1.7801   27.3906  -27.8051 H   0  0  0  0  0  0  0  0  0  0  0  0
    0.5622   27.3510  -25.8503 H   0  0  0  0  0  0  0  0  0  0  0  0
   -0.5026   28.7316  -26.3038 H   0  0  0  0  0  0  0  0  0  0  0  0
   -2.3500   27.5490  -25.3240 H   0  0  0  0  0  0  0  0  0  0  0  0
   -0.6301   25.7612  -23.8214 H   0  0  0  0  0  0  0  0  0  0  0  0
   -2.3544   25.5802  -24.4215 H   0  0  0  0  0  0  0  0  0  0  0  0
    0.2311   24.8018  -25.7283 H   0  0  0  0  0  0  0  0  0  0  0  0
   -1.3861   23.9841  -25.7032 H   0  0  0  0  0  0  0  0  0  0  0  0
  1  2  1  0
  2  3  1  0
  3  4  2  0
  4  5  1  0
  5  6  2  0
  6  7  1  0
  7  8  2  0
  8  9  1  0
  9 10  2  0
  4 11  1  0
 11 12  1  0
 12 13  1  0
 13 14  1  0
 14 15  2  0
 15 16  1  0
 16 17  1  0
 17 18  1  0
 18 19  1  0
 19 20  1  0
 20 21  1  0
 15 22  1  0
 22 23  1  0
 23 24  1  0
 12  2  2  0
 23 13  2  0
 10  5  1  0
 21 16  1  0
  1 25  1  0
  1 26  1  0
  1 27  1  0
  3 28  1  0
  6 29  1  0
  7 30  1  0
  8 31  1  0
  9 32  1  0
 10 33  1  0
 17 34  1  0
 17 35  1  0
 18 36  1  0
 18 37  1  0
 19 38  1  0
 20 39  1  0
 20 40  1  0
 21 41  1  0
 21 42  1  0
M  CHG  1   3   1
M  END
>  <UniqueID>  (46) 
46

>  <SMILES>  (46) 
Cc1[nH+]c(-c2ccccc2)sc1-c1nc(N2CCNCC2)sc1Br

>  <Energy>  (46) 
116.09344627508015

>  <Genealogy>  (46) 
Cc1[nH+]c(-c2ccccc2)sc1-c1nc(N2CCNCC2)sc1Br (protonated)
Cc1[nH+]c(-c2ccccc2)sc1-c1nc(N2CCNCC2)sc1Br (3D coordinates assigned)
Cc1[nH+]c(-c2ccccc2)sc1-c1nc(N2CCNCC2)sc1Br (nonaromatic ring conformer: 116.09344627508015 kcal/mol)

>  <smiles>  (46) 
Cc1nc(-c2ccccc2)sc1-c1nc(N2CCNCC2)sc1Br

>  <score_type>  (46) 
oracle

>  <origin>  (46) 
adg

>  <m_score__min__energy>  (46) 
-8.8200000000000003

>  <m_primary>  (46) 
energy

$$$$
46:0
     RDKit          3D

 49 53  0  0  0  0  0  0  0  0999 V2000
   -1.1970   26.3270  -27.1890 C   0  0  0  0  0  0  0  0  0  0  0  0
   -1.5860   26.0940  -28.5390 O   0  0  0  0  0  0  0  0  0  0  0  0
   -1.9170   24.8370  -29.0710 C   0  0  0  0  0  0  0  0  0  0  0  0
   -3.2150   24.5360  -29.5270 C   0  0  0  0  0  0  0  0  0  0  0  0
   -3.5220   23.2710  -30.0720 C   0  0  0  0  0  0  0  0  0  0  0  0
   -2.5120   22.2830  -30.0910 C   0  0  0  0  0  0  0  0  0  0  0  0
   -1.2170   22.5920  -29.6470 C   0  0  0  0  0  0  0  0  0  0  0  0
   -0.9130   23.8660  -29.1410 C   0  0  0  0  0  0  0  0  0  0  0  0
    0.3740   24.2020  -28.6930 O   0  0  0  0  0  0  0  0  0  0  0  0
    0.9800   23.6850  -27.5130 C   0  0  0  0  0  0  0  0  0  0  0  0
   -2.7920   20.8890  -30.6040 C   0  0  2  0  0  0  0  0  0  0  0  0
   -2.2540   20.6960  -32.0060 C   0  0  0  0  0  0  0  0  0  0  0  0
   -1.0660   21.3400  -32.3980 C   0  0  0  0  0  0  0  0  0  0  0  0
   -0.5540   21.1610  -33.6870 C   0  0  0  0  0  0  0  0  0  0  0  0
   -1.2180   20.3350  -34.5960 C   0  0  0  0  0  0  0  0  0  0  0  0
   -2.3970   19.6860  -34.2180 C   0  0  0  0  0  0  0  0  0  0  0  0
   -2.9130   19.8620  -32.9310 C   0  0  0  0  0  0  0  0  0  0  0  0
   -4.2220   20.5850  -30.5680 N   0  0  0  0  0  0  0  0  0  0  0  0
   -5.2150   21.5890  -30.8430 C   0  0  0  0  0  0  0  0  0  0  0  0
   -4.8850   22.9420  -30.5980 C   0  0  0  0  0  0  0  0  0  0  0  0
   -5.8360   23.9390  -30.8870 C   0  0  0  0  0  0  0  0  0  0  0  0
   -7.1020   23.6070  -31.3580 C   0  0  0  0  0  0  0  0  0  0  0  0
   -7.4450   22.2730  -31.5900 C   0  0  0  0  0  0  0  0  0  0  0  0
   -8.7210   21.9550  -32.0830 C   0  0  0  0  0  0  0  0  0  0  0  0
   -9.0600   20.6310  -32.3560 C   0  0  0  0  0  0  0  0  0  0  0  0
   -8.1290   19.6160  -32.1530 C   0  0  0  0  0  0  0  0  0  0  0  0
   -6.8550   19.9140  -31.6610 C   0  0  0  0  0  0  0  0  0  0  0  0
   -6.4960   21.2450  -31.3500 C   0  0  0  0  0  0  0  0  0  0  0  0
   -1.9402   25.8818  -26.5112 H   0  0  0  0  0  0  0  0  0  0  0  0
   -0.2136   25.8691  -27.0065 H   0  0  0  0  0  0  0  0  0  0  0  0
   -1.1367   27.4101  -27.0065 H   0  0  0  0  0  0  0  0  0  0  0  0
   -4.0032   25.3001  -29.4572 H   0  0  0  0  0  0  0  0  0  0  0  0
   -0.4294   21.8257  -29.6961 H   0  0  0  0  0  0  0  0  0  0  0  0
    0.4821   24.1097  -26.6288 H   0  0  0  0  0  0  0  0  0  0  0  0
    0.8801   22.5896  -27.4992 H   0  0  0  0  0  0  0  0  0  0  0  0
    2.0460   23.9562  -27.4992 H   0  0  0  0  0  0  0  0  0  0  0  0
   -2.2707   20.1894  -29.9340 H   0  0  0  0  0  0  0  0  0  0  0  0
   -0.5361   21.9890  -31.6853 H   0  0  0  0  0  0  0  0  0  0  0  0
    0.3734   21.6718  -33.9853 H   0  0  0  0  0  0  0  0  0  0  0  0
   -0.8135   20.1950  -35.6093 H   0  0  0  0  0  0  0  0  0  0  0  0
   -2.9196   19.0356  -34.9348 H   0  0  0  0  0  0  0  0  0  0  0  0
   -3.8394   19.3462  -32.6384 H   0  0  0  0  0  0  0  0  0  0  0  0
   -4.4970   19.6110  -30.3190 H   0  0  0  0  0  0  0  0  0  0  0  0
   -5.5739   24.9969  -30.7380 H   0  0  0  0  0  0  0  0  0  0  0  0
   -7.8387   24.4011  -31.5492 H   0  0  0  0  0  0  0  0  0  0  0  0
   -9.4565   22.7548  -32.2545 H   0  0  0  0  0  0  0  0  0  0  0  0
  -10.0646   20.3877  -32.7324 H   0  0  0  0  0  0  0  0  0  0  0  0
   -8.3974   18.5739  -32.3810 H   0  0  0  0  0  0  0  0  0  0  0  0
   -6.1247   19.1045  -31.5145 H   0  0  0  0  0  0  0  0  0  0  0  0
  1  2  1  0
  2  3  1  0
  3  4  2  0
  4  5  1  0
  5  6  2  0
  6  7  1  0
  7  8  2  0
  8  9  1  0
  9 10  1  0
  6 11  1  0
 11 12  1  0
 12 13  2  0
 13 14  1  0
 14 15  2  0
 15 16  1  0
 16 17  2  0
 11 18  1  0
 18 19  1  0
 19 20  2  0
 20 21  1  0
 21 22  2  0
 22 23  1  0
 23 24  2  0
 24 25  1  0
 25 26  2  0
 26 27  1  0
 27 28  2  0
  8  3  1  0
 17 12  1  0
 28 19  1  0
 20  5  1  0
 28 23  1  0
  1 29  1  0
  1 30  1  0
  1 31  1  0
  4 32  1  0
  7 33  1  0
 10 34  1  0
 10 35  1  0
 10 36  1  0
 11 37  1  1
 13 38  1  0
 14 39  1  0
 15 40  1  0
 16 41  1  0
 17 42  1  0
 18 43  1  0
 21 44  1  0
 22 45  1  0
 24 46  1  0
 25 47  1  0
 26 48  1  0
 27 49  1  0
M  END
>  <UniqueID>  (47) 
47

>  <SMILES>  (47) 
COc1cc2c(cc1OC)[C@H](c1ccccc1)Nc1c-2ccc2ccccc12

>  <Energy>  (47) 
67.99452955980493

>  <Genealogy>  (47) 
COc1cc2c(cc1OC)[C@H](c1ccccc1)Nc1c-2ccc2ccccc12 (chirality)
COc1cc2c(cc1OC)[C@H](c1ccccc1)Nc1c-2ccc2ccccc12 (3D coordinates assigned)
COc1cc2c(cc1OC)[C@H](c1ccccc1)Nc1c-2ccc2ccccc12 (nonaromatic ring conformer: 67.99452955980493 kcal/mol)

>  <smiles>  (47) 
COc1cc2c(cc1OC)C(c1ccccc1)Nc1c-2ccc2ccccc12

>  <score_type>  (47) 
oracle

>  <origin>  (47) 
adg

>  <m_score__min__energy>  (47) 
-9.2699999999999996

>  <m_primary>  (47) 
energy

$$$$
47:0
     RDKit          3D

 27 29  0  0  0  0  0  0  0  0999 V2000
  -10.5626   20.7522  -31.7382 H   0  0  0  0  0  0  0  0  0  0  0  0
   -9.4890   20.8430  -31.9600 C   0  0  0  0  0  0  0  0  0  0  0  0
   -8.8420   19.8400  -32.6910 C   0  0  0  0  0  0  0  0  0  0  0  0
   -9.4099   18.9654  -33.0411 H   0  0  0  0  0  0  0  0  0  0  0  0
   -7.4760   19.9440  -32.9790 C   0  0  0  0  0  0  0  0  0  0  0  0
   -6.9701   19.1537  -33.5530 H   0  0  0  0  0  0  0  0  0  0  0  0
   -6.7550   21.0630  -32.5310 C   0  0  0  0  0  0  0  0  0  0  0  0
   -7.4120   22.0780  -31.7910 C   0  0  0  0  0  0  0  0  0  0  0  0
   -6.7050   23.1650  -31.3570 N   0  0  0  0  0  0  0  0  0  0  0  0
   -5.3690   23.3080  -31.6200 C   0  0  0  0  0  0  0  0  0  0  0  0
   -4.7010   24.3430  -31.2030 N   0  0  0  0  0  0  0  0  0  0  0  0
   -4.8040   24.9190  -29.8620 C   0  0  0  0  0  0  0  0  0  0  0  0
   -3.9651   25.6122  -29.7016 H   0  0  0  0  0  0  0  0  0  0  0  0
   -4.7726   24.1038  -29.1241 H   0  0  0  0  0  0  0  0  0  0  0  0
   -6.1180   25.6770  -29.6990 C   0  0  0  0  0  0  0  0  0  0  0  0
   -6.3378   25.8038  -28.6287 H   0  0  0  0  0  0  0  0  0  0  0  0
   -6.0330   26.6648  -30.1754 H   0  0  0  0  0  0  0  0  0  0  0  0
   -6.9306   25.1089  -30.1754 H   0  0  0  0  0  0  0  0  0  0  0  0
   -4.7370   22.2990  -32.3470 C   0  0  0  0  0  0  0  0  0  0  0  0
   -3.4400   22.2440  -32.7090 N   0  0  0  0  0  0  0  0  0  0  0  0
   -3.3140   21.1050  -33.3820 N   0  0  0  0  0  0  0  0  0  0  0  0
   -2.4240   20.7610  -33.8030 H   0  0  0  0  0  0  0  0  0  0  0  0
   -4.5140   20.4880  -33.4250 C   0  0  0  0  0  0  0  0  0  0  0  0
   -4.7145   19.5249  -33.9172 H   0  0  0  0  0  0  0  0  0  0  0  0
   -5.4270   21.2310  -32.7740 N   0  0  0  0  0  0  0  0  0  0  0  0
   -8.7780   21.9600  -31.5100 C   0  0  0  0  0  0  0  0  0  0  0  0
   -9.2918   22.7450  -30.9358 H   0  0  0  0  0  0  0  0  0  0  0  0
  1  2  1  0
  2  3  2  0
  3  4  1  0
  3  5  1  0
  5  6  1  0
  5  7  2  0
  7  8  1  0
  8  9  1  0
  9 10  1  0
 10 11  2  0
 11 12  1  0
 12 13  1  0
 12 14  1  0
 12 15  1  0
 15 16  1  0
 15 17  1  0
 15 18  1  0
 10 19  1  0
 19 20  2  0
 20 21  1  0
 21 22  1  0
 21 23  2  0
 23 24  1  0
 23 25  1  0
  8 26  2  0
 26 27  1  0
 26  2  1  0
 25  7  1  0
 25 19  1  0
M  CHG  2   9  -1  21   1
M  END
>  <UniqueID>  (48) 
48

>  <SMILES>  (48) 
CC/N=c1\[n-]c2ccccc2n2c[nH+]nc12

>  <Energy>  (48) 
72.59416919365304

>  <Genealogy>  (48) 
CCN=c1[n-]c2ccccc2n2c[nH+]nc12 (protonated)
CC/N=c1\[n-]c2ccccc2n2c[nH+]nc12 (cis-trans isomerization)
CC/N=c1\[n-]c2ccccc2n2c[nH+]nc12 (3D coordinates assigned)
CC/N=c1\[n-]c2ccccc2n2c[nH+]nc12 (optimized conformer: 72.59416919365304 kcal/mol)

>  <smiles>  (48) 
CCN=c1[nH]c2ccccc2n2cnnc12

>  <score_type>  (48) 
oracle

>  <origin>  (48) 
adg

>  <m_score__min__energy>  (48) 
-6.8499999999999996

>  <m_primary>  (48) 
energy

$$$$
