0:0
     RDKit          3D

 38 40  0  0  0  0  0  0  0  0999 V2000
   -2.3700   23.3110  -30.0220 O   0  0  0  0  0  0  0  0  0  0  0  0
   -2.7570   24.4440  -29.6330 C   0  0  0  0  0  0  0  0  0  0  0  0
   -3.6410   25.1970  -30.4740 N   0  0  0  0  0  0  0  0  0  0  0  0
   -5.0840   25.3290  -30.2910 C   0  0  0  0  0  0  0  0  0  0  0  0
   -5.7250   23.9620  -30.0430 C   0  0  0  0  0  0  0  0  0  0  0  0
   -5.4900   23.0520  -31.2140 C   0  0  0  0  0  0  0  0  0  0  0  0
   -4.2860   22.8680  -31.7850 N   0  0  0  0  0  0  0  0  0  0  0  0
   -4.4130   21.9470  -32.7280 N   0  0  0  0  0  0  0  0  0  0  0  0
   -5.7090   21.5720  -32.7210 C   0  0  0  0  0  0  0  0  0  0  0  0
   -6.4090   22.2470  -31.7850 N   0  0  0  0  0  0  0  0  0  0  0  0
   -7.8250   22.0790  -31.4580 C   0  0  0  0  0  0  0  0  0  0  0  0
   -8.2570   20.6750  -31.7340 C   0  0  0  0  0  0  0  0  0  0  0  0
   -9.4370   20.2950  -32.3410 C   0  0  0  0  0  0  0  0  0  0  0  0
   -9.4090   18.9180  -32.3730 C   0  0  0  0  0  0  0  0  0  0  0  0
   -8.2150   18.5440  -31.7890 C   0  0  0  0  0  0  0  0  0  0  0  0
   -7.5500   19.6140  -31.4190 O   0  0  0  0  0  0  0  0  0  0  0  0
   -2.2990   24.9480  -28.3240 C   0  0  0  0  0  0  0  0  0  0  0  0
   -1.0710   25.6200  -28.2120 C   0  0  0  0  0  0  0  0  0  0  0  0
   -0.6360   26.0930  -26.9700 C   0  0  0  0  0  0  0  0  0  0  0  0
   -1.4170   25.8880  -25.8300 C   0  0  0  0  0  0  0  0  0  0  0  0
   -2.6310   25.2040  -25.9290 C   0  0  0  0  0  0  0  0  0  0  0  0
   -3.0710   24.7280  -27.1680 C   0  0  0  0  0  0  0  0  0  0  0  0
   -4.2580   24.0730  -27.2460 F   0  0  0  0  0  0  0  0  0  0  0  0
   -5.2803   25.9818  -29.4277 H   0  0  0  0  0  0  0  0  0  0  0  0
   -5.5180   25.7627  -31.2040 H   0  0  0  0  0  0  0  0  0  0  0  0
   -5.2833   23.5131  -29.1411 H   0  0  0  0  0  0  0  0  0  0  0  0
   -6.8084   24.0958  -29.9076 H   0  0  0  0  0  0  0  0  0  0  0  0
   -3.3910   23.3420  -31.5330 H   0  0  0  0  0  0  0  0  0  0  0  0
   -6.1396   20.8139  -33.3917 H   0  0  0  0  0  0  0  0  0  0  0  0
   -7.9808   22.3040  -30.3926 H   0  0  0  0  0  0  0  0  0  0  0  0
   -8.4199   22.7654  -32.0785 H   0  0  0  0  0  0  0  0  0  0  0  0
  -10.2327   20.9534  -32.7197 H   0  0  0  0  0  0  0  0  0  0  0  0
  -10.1822   18.2508  -32.7816 H   0  0  0  0  0  0  0  0  0  0  0  0
   -7.8729   17.5073  -31.6542 H   0  0  0  0  0  0  0  0  0  0  0  0
   -0.4484   25.7750  -29.1055 H   0  0  0  0  0  0  0  0  0  0  0  0
    0.3223   26.6271  -26.8906 H   0  0  0  0  0  0  0  0  0  0  0  0
   -1.0761   26.2651  -24.8545 H   0  0  0  0  0  0  0  0  0  0  0  0
   -3.2426   25.0394  -25.0297 H   0  0  0  0  0  0  0  0  0  0  0  0
  1  2  2  0
  2  3  1  0
  3  4  1  0
  4  5  1  0
  5  6  1  0
  6  7  2  0
  7  8  1  0
  8  9  2  0
  9 10  1  0
 10 11  1  0
 11 12  1  0
 12 13  2  0
 13 14  1  0
 14 15  2  0
 15 16  1  0
  2 17  1  0
 17 18  2  0
 18 19  1  0
 19 20  2  0
 20 21  1  0
 21 22  2  0
 22 23  1  0
 10  6  1  0
 16 12  1  0
 22 17  1  0
  4 24  1  0
  4 25  1  0
  5 26  1  0
  5 27  1  0
  7 28  1  0
  9 29  1  0
 11 30  1  0
 11 31  1  0
 13 32  1  0
 14 33  1  0
 15 34  1  0
 18 35  1  0
 19 36  1  0
 20 37  1  0
 21 38  1  0
M  CHG  2   3  -1   7   1
M  END
>  <UniqueID>  (1) 
1

>  <SMILES>  (1) 
O=C([N-]CCc1[nH+]ncn1Cc1ccco1)c1ccccc1F

>  <Energy>  (1) 
99.51572319259708

>  <Genealogy>  (1) 
O=C([N-]CCc1[nH+]ncn1Cc1ccco1)c1ccccc1F (protonated)
O=C([N-]CCc1[nH+]ncn1Cc1ccco1)c1ccccc1F (3D coordinates assigned)
O=C([N-]CCc1[nH+]ncn1Cc1ccco1)c1ccccc1F (optimized conformer: 99.51572319259708 kcal/mol)

>  <smiles>  (1) 
O=C(NCCc1nncn1Cc1ccco1)c1ccccc1F

>  <score_type>  (1) 
oracle

>  <origin>  (1) 
adg

>  <m_score__min__energy>  (1) 
-7.9900000000000002

>  <m_primary>  (1) 
energy

$$$$
1:0
     RDKit          3D

 33 34  0  0  1  0  0  0  0  0999 V2000
   -6.9460   25.4290  -29.3420 C   0  0  0  0  0  0  0  0  0  0  0  0
   -5.9410   25.1180  -30.3490 C   0  0  0  0  0  0  0  0  0  0  0  0
   -5.3690   26.2120  -30.7900 O   0  0  0  0  0  0  0  0  0  0  0  0
   -5.4500   23.9280  -30.9520 C   0  0  0  0  0  0  0  0  0  0  0  0
   -4.1880   23.3900  -30.8190 C   0  0  0  0  0  0  0  0  0  0  0  0
   -3.0830   24.0160  -30.1400 C   0  0  0  0  0  0  0  0  0  0  0  0
   -2.8850   25.2910  -29.7150 O   0  0  0  0  0  0  0  0  0  0  0  0
   -2.0600   23.2210  -29.8740 N   0  0  0  0  0  0  0  0  0  0  0  0
   -0.8400   23.8340  -29.7030 O   0  0  0  0  0  0  0  0  0  0  0  0
   -3.8800   22.1440  -31.4150 C   0  0  0  0  0  0  0  0  0  0  0  0
   -4.8100   21.4360  -32.1380 C   0  0  0  0  0  0  0  0  0  0  0  0
   -4.5390   20.1520  -32.7680 C   0  0  0  0  0  0  0  0  0  0  0  0
   -3.3860   19.8650  -33.4660 C   0  0  0  0  0  0  0  0  0  0  0  0
   -3.1590   18.6300  -34.0540 C   0  0  0  0  0  0  0  0  0  0  0  0
   -4.1070   17.6360  -33.9520 C   0  0  0  0  0  0  0  0  0  0  0  0
   -3.8560   16.0620  -34.6820 Cl  0  0  0  0  0  0  0  0  0  0  0  0
   -5.2700   17.8910  -33.2600 C   0  0  0  0  0  0  0  0  0  0  0  0
   -5.4730   19.1270  -32.6840 C   0  0  0  0  0  0  0  0  0  0  0  0
   -6.9980   19.3440  -31.8230 Cl  0  0  0  0  0  0  0  0  0  0  0  0
   -6.0100   21.9700  -32.2540 N   0  0  0  0  0  0  0  0  0  0  0  0
   -6.3530   23.1620  -31.6990 C   0  0  0  0  0  0  0  0  0  0  0  0
   -7.7600   23.5780  -31.9540 C   0  0  0  0  0  0  0  0  0  0  0  0
   -6.5140   25.2953  -28.3393 H   0  0  0  0  0  0  0  0  0  0  0  0
   -7.2761   26.4713  -29.4630 H   0  0  0  0  0  0  0  0  0  0  0  0
   -7.8071   24.7553  -29.4630 H   0  0  0  0  0  0  0  0  0  0  0  0
   -0.7870   24.8150  -29.9660 H   0  0  0  0  0  0  0  0  0  0  0  0
   -2.8676   21.7304  -31.2963 H   0  0  0  0  0  0  0  0  0  0  0  0
   -2.6165   20.6453  -33.5603 H   0  0  0  0  0  0  0  0  0  0  0  0
   -2.2230   18.4443  -34.6012 H   0  0  0  0  0  0  0  0  0  0  0  0
   -6.0372   17.1083  -33.1668 H   0  0  0  0  0  0  0  0  0  0  0  0
   -8.2767   23.7308  -30.9950 H   0  0  0  0  0  0  0  0  0  0  0  0
   -7.7666   24.5165  -32.5277 H   0  0  0  0  0  0  0  0  0  0  0  0
   -8.2759   22.7940  -32.5277 H   0  0  0  0  0  0  0  0  0  0  0  0
  1  2  1  0
  2  3  2  0
  2  4  1  0
  4  5  2  0
  5  6  1  0
  6  7  1  0
  6  8  2  0
  8  9  1  0
  5 10  1  0
 10 11  2  0
 11 12  1  0
 12 13  2  0
 13 14  1  0
 14 15  2  0
 15 16  1  0
 15 17  1  0
 17 18  2  0
 18 19  1  0
 11 20  1  0
 20 21  2  0
 21 22  1  0
 21  4  1  0
 18 12  1  0
  1 23  1  0
  1 24  1  0
  1 25  1  0
  9 26  1  0
 10 27  1  0
 13 28  1  0
 14 29  1  0
 17 30  1  0
 22 31  1  0
 22 32  1  0
 22 33  1  0
M  CHG  1   7  -1
M  END
>  <smiles>  (2) 
CC(=O)c1c(C([O-])=NO)cc(-c2ccc(Cl)cc2Cl)nc1C

>  <score_type>  (2) 
oracle

>  <origin>  (2) 
adg

>  <m_score__min__energy>  (2) 
-11.17

>  <m_primary>  (2) 
energy

$$$$
2:0
     RDKit          3D

 38 41  0  0  0  0  0  0  0  0999 V2000
   -1.6230   25.0670  -27.7400 C   0  0  0  0  0  0  0  0  0  0  0  0
   -2.6950   24.3460  -28.4440 N   0  0  0  0  0  0  0  0  0  0  0  0
   -3.8750   24.1730  -27.5840 C   0  0  0  0  0  0  0  0  0  0  0  0
   -2.2350   23.0810  -29.0580 C   0  0  0  0  0  0  0  0  0  0  0  0
   -2.3260   23.0480  -30.5980 C   0  0  0  0  0  0  0  0  0  0  0  0
   -3.6320   22.5020  -31.0150 N   0  0  0  0  0  0  0  0  0  0  0  0
   -3.7530   21.1310  -31.2350 C   0  0  0  0  0  0  0  0  0  0  0  0
   -2.7760   20.3510  -31.0700 O   0  0  0  0  0  0  0  0  0  0  0  0
   -4.9850   20.6200  -31.6280 C   0  0  0  0  0  0  0  0  0  0  0  0
   -5.5230   19.3350  -31.8310 C   0  0  0  0  0  0  0  0  0  0  0  0
   -6.9010   19.5250  -32.0690 C   0  0  0  0  0  0  0  0  0  0  0  0
   -7.9670   18.6370  -32.2420 C   0  0  0  0  0  0  0  0  0  0  0  0
   -9.2770   19.1840  -32.3460 C   0  0  0  0  0  0  0  0  0  0  0  0
   -9.5010   20.5890  -32.2450 C   0  0  0  0  0  0  0  0  0  0  0  0
   -8.4050   21.4520  -32.0560 C   0  0  0  0  0  0  0  0  0  0  0  0
   -8.4490   22.8560  -31.8360 C   0  0  0  0  0  0  0  0  0  0  0  0
   -7.2370   23.5700  -31.5440 C   0  0  0  0  0  0  0  0  0  0  0  0
   -6.0010   22.8650  -31.4830 C   0  0  0  0  0  0  0  0  0  0  0  0
   -6.0470   21.5330  -31.7690 C   0  0  0  0  0  0  0  0  0  0  0  0
   -7.1640   20.8610  -32.0180 C   0  0  0  0  0  0  0  0  0  0  0  0
   -4.7330   23.3600  -31.1070 C   0  0  0  0  0  0  0  0  0  0  0  0
   -4.6120   24.5870  -30.8380 O   0  0  0  0  0  0  0  0  0  0  0  0
   -1.7676   24.9697  -26.6539 H   0  0  0  0  0  0  0  0  0  0  0  0
   -0.6487   24.6399  -28.0199 H   0  0  0  0  0  0  0  0  0  0  0  0
   -1.6512   26.1304  -28.0199 H   0  0  0  0  0  0  0  0  0  0  0  0
   -3.5691   24.2179  -26.5283 H   0  0  0  0  0  0  0  0  0  0  0  0
   -4.5996   24.9745  -27.7901 H   0  0  0  0  0  0  0  0  0  0  0  0
   -4.3391   23.1972  -27.7901 H   0  0  0  0  0  0  0  0  0  0  0  0
   -1.1847   22.9222  -28.7723 H   0  0  0  0  0  0  0  0  0  0  0  0
   -2.9052   22.2912  -28.6876 H   0  0  0  0  0  0  0  0  0  0  0  0
   -2.2158   24.0693  -30.9914 H   0  0  0  0  0  0  0  0  0  0  0  0
   -1.5240   22.4073  -30.9934 H   0  0  0  0  0  0  0  0  0  0  0  0
   -4.9803   18.3785  -31.8087 H   0  0  0  0  0  0  0  0  0  0  0  0
   -7.7988   17.5513  -32.2960 H   0  0  0  0  0  0  0  0  0  0  0  0
  -10.1320   18.5110  -32.5072 H   0  0  0  0  0  0  0  0  0  0  0  0
  -10.5211   20.9946  -32.3142 H   0  0  0  0  0  0  0  0  0  0  0  0
   -9.4073   23.3934  -31.8892 H   0  0  0  0  0  0  0  0  0  0  0  0
   -7.2635   24.6556  -31.3684 H   0  0  0  0  0  0  0  0  0  0  0  0
  1  2  1  0
  2  3  1  0
  2  4  1  0
  4  5  1  0
  5  6  1  0
  6  7  1  0
  7  8  2  0
  7  9  1  0
  9 10  2  0
 10 11  1  0
 11 12  2  0
 12 13  1  0
 13 14  2  0
 14 15  1  0
 15 16  2  0
 16 17  1  0
 17 18  2  0
 18 19  1  0
 19 20  2  0
 18 21  1  0
 21 22  2  0
 21  6  1  0
 19  9  1  0
 20 11  1  0
 20 15  1  0
  1 23  1  0
  1 24  1  0
  1 25  1  0
  3 26  1  0
  3 27  1  0
  3 28  1  0
  4 29  1  0
  4 30  1  0
  5 31  1  0
  5 32  1  0
 10 33  1  0
 12 34  1  0
 13 35  1  0
 14 36  1  0
 16 37  1  0
 17 38  1  0
M  END
>  <UniqueID>  (3) 
2

>  <SMILES>  (3) 
CN(C)CCn1c(=O)c2cc3cccc4ccc(c-2c43)c1=O

>  <Energy>  (3) 
108.51462446832491

>  <Genealogy>  (3) 
CN(C)CCn1c(=O)c2cc3cccc4ccc(c-2c43)c1=O (3D coordinates assigned)
CN(C)CCn1c(=O)c2cc3cccc4ccc(c-2c43)c1=O (optimized conformer: 108.51462446832491 kcal/mol)

>  <smiles>  (3) 
CN(C)CCn1c(=O)c2cc3cccc4ccc(c-2c43)c1=O

>  <score_type>  (3) 
oracle

>  <origin>  (3) 
adg

>  <m_score__min__energy>  (3) 
-8.2899999999999991

>  <m_primary>  (3) 
energy

$$$$
3:0
     RDKit          3D

 55 57  0  0  0  0  0  0  0  0999 V2000
   -2.9240   24.3880  -29.4670 C   0  0  0  0  0  0  0  0  0  0  0  0
   -3.6040   24.9350  -30.5760 O   0  0  0  0  0  0  0  0  0  0  0  0
   -5.0000   25.0040  -30.3280 C   0  0  0  0  0  0  0  0  0  0  0  0
   -5.7780   24.5520  -31.5720 C   0  0  0  0  0  0  0  0  0  0  0  0
   -5.4080   23.1080  -31.9690 C   0  0  0  0  0  0  0  0  0  0  0  0
   -4.8750   22.3160  -30.8350 N   0  0  0  0  0  0  0  0  0  0  0  0
   -4.8480   20.8610  -31.1310 C   0  0  0  0  0  0  0  0  0  0  0  0
   -3.4630   20.4060  -31.6770 C   0  0  2  0  0  0  0  0  0  0  0  0
   -2.4500   21.5760  -31.4570 C   0  0  0  0  0  0  0  0  0  0  0  0
   -1.4540   21.7290  -32.6000 C   0  0  0  0  0  0  0  0  0  0  0  0
   -0.9470   20.3600  -33.0030 C   0  0  0  0  0  0  0  0  0  0  0  0
   -2.1000   19.4700  -33.5020 C   0  0  0  0  0  0  0  0  0  0  0  0
   -3.4660   19.9300  -33.1000 N   0  0  0  0  0  0  0  0  0  0  0  0
   -4.4190   18.8000  -33.3070 C   0  0  0  0  0  0  0  0  0  0  0  0
   -5.6860   19.1930  -34.0990 C   0  0  0  0  0  0  0  0  0  0  0  0
   -6.8750   19.4110  -33.1980 C   0  0  0  0  0  0  0  0  0  0  0  0
   -7.3930   20.7060  -33.0190 C   0  0  0  0  0  0  0  0  0  0  0  0
   -8.5270   20.9080  -32.2260 C   0  0  0  0  0  0  0  0  0  0  0  0
   -9.1580   19.8210  -31.6140 C   0  0  0  0  0  0  0  0  0  0  0  0
   -8.6540   18.5300  -31.7910 C   0  0  0  0  0  0  0  0  0  0  0  0
   -7.5150   18.3230  -32.5770 C   0  0  0  0  0  0  0  0  0  0  0  0
   -5.6000   22.6160  -29.5850 C   0  0  0  0  0  0  0  0  0  0  0  0
   -5.3440   24.0720  -29.1470 C   0  0  0  0  0  0  0  0  0  0  0  0
   -3.3824   24.7567  -28.5375 H   0  0  0  0  0  0  0  0  0  0  0  0
   -2.9927   23.2906  -29.4995 H   0  0  0  0  0  0  0  0  0  0  0  0
   -1.8668   24.6903  -29.4995 H   0  0  0  0  0  0  0  0  0  0  0  0
   -5.2779   26.0408  -30.0874 H   0  0  0  0  0  0  0  0  0  0  0  0
   -6.8559   24.5999  -31.3578 H   0  0  0  0  0  0  0  0  0  0  0  0
   -5.5176   25.2196  -32.4066 H   0  0  0  0  0  0  0  0  0  0  0  0
   -6.3092   22.6079  -32.3533 H   0  0  0  0  0  0  0  0  0  0  0  0
   -4.6164   23.1678  -32.7305 H   0  0  0  0  0  0  0  0  0  0  0  0
   -5.0659   20.3058  -30.2067 H   0  0  0  0  0  0  0  0  0  0  0  0
   -5.6035   20.6560  -31.9038 H   0  0  0  0  0  0  0  0  0  0  0  0
   -3.1618   19.5115  -31.1122 H   0  0  0  0  0  0  0  0  0  0  0  0
   -3.0155   22.5143  -31.3578 H   0  0  0  0  0  0  0  0  0  0  0  0
   -1.8736   21.3437  -30.5494 H   0  0  0  0  0  0  0  0  0  0  0  0
   -1.9493   22.2057  -33.4587 H   0  0  0  0  0  0  0  0  0  0  0  0
   -0.6103   22.3553  -32.2746 H   0  0  0  0  0  0  0  0  0  0  0  0
   -0.2058   20.4734  -33.8078 H   0  0  0  0  0  0  0  0  0  0  0  0
   -0.4906   19.8822  -32.1235 H   0  0  0  0  0  0  0  0  0  0  0  0
   -2.0584   19.4400  -34.6008 H   0  0  0  0  0  0  0  0  0  0  0  0
   -1.9550   18.4844  -33.0355 H   0  0  0  0  0  0  0  0  0  0  0  0
   -3.8982   18.0031  -33.8581 H   0  0  0  0  0  0  0  0  0  0  0  0
   -4.7513   18.4732  -32.3106 H   0  0  0  0  0  0  0  0  0  0  0  0
   -5.4846   20.1228  -34.6512 H   0  0  0  0  0  0  0  0  0  0  0  0
   -5.9272   18.3660  -34.7830 H   0  0  0  0  0  0  0  0  0  0  0  0
   -6.9043   21.5635  -33.5047 H   0  0  0  0  0  0  0  0  0  0  0  0
   -8.9233   21.9242  -32.0835 H   0  0  0  0  0  0  0  0  0  0  0  0
  -10.0515   19.9821  -30.9930 H   0  0  0  0  0  0  0  0  0  0  0  0
   -9.1533   17.6750  -31.3117 H   0  0  0  0  0  0  0  0  0  0  0  0
   -7.1185   17.3056  -32.7098 H   0  0  0  0  0  0  0  0  0  0  0  0
   -6.6782   22.4717  -29.7485 H   0  0  0  0  0  0  0  0  0  0  0  0
   -5.2417   21.9392  -28.7953 H   0  0  0  0  0  0  0  0  0  0  0  0
   -6.2488   24.4534  -28.6512 H   0  0  0  0  0  0  0  0  0  0  0  0
   -4.4774   24.0649  -28.4695 H   0  0  0  0  0  0  0  0  0  0  0  0
  1  2  1  0
  2  3  1  0
  3  4  1  0
  4  5  1  0
  5  6  1  0
  6  7  1  0
  7  8  1  0
  8  9  1  0
  9 10  1  0
 10 11  1  0
 11 12  1  0
 12 13  1  0
 13 14  1  0
 14 15  1  0
 15 16  1  0
 16 17  2  0
 17 18  1  0
 18 19  2  0
 19 20  1  0
 20 21  2  0
  6 22  1  0
 22 23  1  0
 23  3  1  0
 13  8  1  0
 21 16  1  0
  1 24  1  0
  1 25  1  0
  1 26  1  0
  3 27  1  0
  4 28  1  0
  4 29  1  0
  5 30  1  0
  5 31  1  0
  7 32  1  0
  7 33  1  0
  8 34  1  1
  9 35  1  0
  9 36  1  0
 10 37  1  0
 10 38  1  0
 11 39  1  0
 11 40  1  0
 12 41  1  0
 12 42  1  0
 14 43  1  0
 14 44  1  0
 15 45  1  0
 15 46  1  0
 17 47  1  0
 18 48  1  0
 19 49  1  0
 20 50  1  0
 21 51  1  0
 22 52  1  0
 22 53  1  0
 23 54  1  0
 23 55  1  0
M  END
>  <UniqueID>  (4) 
3

>  <SMILES>  (4) 
COC1CCN(C[C@@H]2CCCCN2CCc2ccccc2)CC1

>  <Energy>  (4) 
72.31366510758528

>  <Genealogy>  (4) 
COC1CCN(C[C@@H]2CCCCN2CCc2ccccc2)CC1 (chirality)
COC1CCN(C[C@@H]2CCCCN2CCc2ccccc2)CC1 (3D coordinates assigned)
COC1CCN(C[C@@H]2CCCCN2CCc2ccccc2)CC1 (nonaromatic ring conformer: 72.31366510758528 kcal/mol)

>  <smiles>  (4) 
COC1CCN(CC2CCCCN2CCc2ccccc2)CC1

>  <score_type>  (4) 
oracle

>  <origin>  (4) 
adg

>  <m_score__min__energy>  (4) 
-8.8000000000000007

>  <m_primary>  (4) 
energy

$$$$
4:0
     RDKit          3D

 33 34  0  0  0  0  0  0  0  0999 V2000
   -1.6540   21.2020  -32.3870 C   0  0  0  0  0  0  0  0  0  0  0  0
   -2.6890   21.4990  -33.4770 C   0  0  0  0  0  0  0  0  0  0  0  0
   -4.0880   21.4720  -32.9760 N   0  0  2  0  0  0  0  0  0  0  0  0
   -4.1700   21.6020  -31.4970 C   0  0  0  0  0  0  0  0  0  0  0  0
   -4.8660   22.8650  -31.0750 C   0  0  0  0  0  0  0  0  0  0  0  0
   -5.3010   23.1580  -29.7980 C   0  0  0  0  0  0  0  0  0  0  0  0
   -5.8960   24.3970  -29.8840 C   0  0  0  0  0  0  0  0  0  0  0  0
   -5.7960   24.7800  -31.2070 C   0  0  0  0  0  0  0  0  0  0  0  0
   -5.1810   23.8440  -31.8920 O   0  0  0  0  0  0  0  0  0  0  0  0
   -4.7150   20.2240  -33.3700 C   0  0  0  0  0  0  0  0  0  0  0  0
   -4.0790   19.4030  -34.0900 O   0  0  0  0  0  0  0  0  0  0  0  0
   -6.0790   19.8550  -32.9040 C   0  0  0  0  0  0  0  0  0  0  0  0
   -6.4970   18.5100  -32.8490 C   0  0  0  0  0  0  0  0  0  0  0  0
   -7.7860   18.1870  -32.4150 C   0  0  0  0  0  0  0  0  0  0  0  0
   -8.6740   19.1960  -32.0390 C   0  0  0  0  0  0  0  0  0  0  0  0
   -8.2770   20.5340  -32.0990 C   0  0  0  0  0  0  0  0  0  0  0  0
   -9.4940   21.9140  -31.5890 Br  0  0  0  0  0  0  0  0  0  0  0  0
   -6.9880   20.8620  -32.5330 C   0  0  0  0  0  0  0  0  0  0  0  0
   -2.1155   21.3344  -31.3973 H   0  0  0  0  0  0  0  0  0  0  0  0
   -1.2995   20.1659  -32.4906 H   0  0  0  0  0  0  0  0  0  0  0  0
   -0.8040   21.8925  -32.4906 H   0  0  0  0  0  0  0  0  0  0  0  0
   -2.4847   22.4974  -33.8910 H   0  0  0  0  0  0  0  0  0  0  0  0
   -2.5983   20.7106  -34.2387 H   0  0  0  0  0  0  0  0  0  0  0  0
   -4.6010   22.2560  -33.4420 H   0  0  0  0  0  0  0  0  0  0  0  0
   -4.7250   20.7410  -31.0961 H   0  0  0  0  0  0  0  0  0  0  0  0
   -3.1432   21.6353  -31.1039 H   0  0  0  0  0  0  0  0  0  0  0  0
   -5.1946   22.5325  -28.8995 H   0  0  0  0  0  0  0  0  0  0  0  0
   -6.3578   24.9667  -29.0641 H   0  0  0  0  0  0  0  0  0  0  0  0
   -6.1740   25.7253  -31.6235 H   0  0  0  0  0  0  0  0  0  0  0  0
   -5.8047   17.7097  -33.1494 H   0  0  0  0  0  0  0  0  0  0  0  0
   -8.1015   17.1342  -32.3697 H   0  0  0  0  0  0  0  0  0  0  0  0
   -9.6865   18.9376  -31.6954 H   0  0  0  0  0  0  0  0  0  0  0  0
   -6.6826   21.9175  -32.5845 H   0  0  0  0  0  0  0  0  0  0  0  0
  1  2  1  0
  2  3  1  0
  3  4  1  0
  4  5  1  0
  5  6  2  0
  6  7  1  0
  7  8  2  0
  8  9  1  0
  3 10  1  0
 10 11  2  0
 10 12  1  0
 12 13  2  0
 13 14  1  0
 14 15  2  0
 15 16  1  0
 16 17  1  0
 16 18  2  0
  9  5  1  0
 18 12  1  0
  1 19  1  0
  1 20  1  0
  1 21  1  0
  2 22  1  0
  2 23  1  0
  3 24  1  6
  4 25  1  0
  4 26  1  0
  6 27  1  0
  7 28  1  0
  8 29  1  0
 13 30  1  0
 14 31  1  0
 15 32  1  0
 18 33  1  0
M  CHG  1   3   1
M  END
>  <UniqueID>  (5) 
4

>  <SMILES>  (5) 
CC[N@H+](Cc1ccco1)C(=O)c1cccc(Br)c1

>  <Energy>  (5) 
64.3424960973105

>  <Genealogy>  (5) 
CC[NH+](Cc1ccco1)C(=O)c1cccc(Br)c1 (protonated)
CC[N@H+](Cc1ccco1)C(=O)c1cccc(Br)c1 (chirality)
CC[N@H+](Cc1ccco1)C(=O)c1cccc(Br)c1 (3D coordinates assigned)
CC[N@H+](Cc1ccco1)C(=O)c1cccc(Br)c1 (optimized conformer: 64.3424960973105 kcal/mol)

>  <smiles>  (5) 
CCN(Cc1ccco1)C(=O)c1cccc(Br)c1

>  <score_type>  (5) 
oracle

>  <origin>  (5) 
adg

>  <m_score__min__energy>  (5) 
-7.3700000000000001

>  <m_primary>  (5) 
energy

$$$$
5:0
     RDKit          3D

 63 67  0  0  0  0  0  0  0  0999 V2000
   -9.8568   20.9919  -32.2753 H   0  0  0  0  0  0  0  0  0  0  0  0
   -8.9970   20.3070  -32.3150 C   0  0  0  0  0  0  0  0  0  0  0  0
   -9.1640   18.9570  -31.9870 C   0  0  0  0  0  0  0  0  0  0  0  0
  -10.1554   18.5832  -31.6912 H   0  0  0  0  0  0  0  0  0  0  0  0
   -8.0750   18.0820  -32.0340 C   0  0  0  0  0  0  0  0  0  0  0  0
   -8.2115   17.0207  -31.7790 H   0  0  0  0  0  0  0  0  0  0  0  0
   -6.8050   18.5570  -32.4070 C   0  0  0  0  0  0  0  0  0  0  0  0
   -5.6710   17.7300  -32.4510 C   0  0  0  0  0  0  0  0  0  0  0  0
   -5.7470   16.5060  -32.1560 O   0  0  0  0  0  0  0  0  0  0  0  0
   -4.4690   18.2540  -32.8130 N   0  0  0  0  0  0  0  0  0  0  0  0
   -4.3350   19.5680  -33.1380 C   0  0  0  0  0  0  0  0  0  0  0  0
   -2.9870   20.0870  -33.5910 C   0  0  0  0  0  0  0  0  0  0  0  0
   -2.7776   21.0174  -33.0427 H   0  0  0  0  0  0  0  0  0  0  0  0
   -3.0619   20.2291  -34.6792 H   0  0  0  0  0  0  0  0  0  0  0  0
   -1.8460   19.1530  -33.3700 N   0  0  1  0  0  0  0  0  0  0  0  0
   -2.2480   18.1870  -33.4400 H   0  0  0  0  0  0  0  0  0  0  0  0
   -0.7930   19.2820  -34.4170 C   0  0  0  0  0  0  0  0  0  0  0  0
   -1.0452   18.6144  -35.2541 H   0  0  0  0  0  0  0  0  0  0  0  0
    0.1687   19.0112  -33.9567 H   0  0  0  0  0  0  0  0  0  0  0  0
   -0.6640   20.7150  -34.9530 C   0  0  0  0  0  0  0  0  0  0  0  0
   -0.6007   21.4178  -34.1092 H   0  0  0  0  0  0  0  0  0  0  0  0
    0.2451   20.7964  -35.5669 H   0  0  0  0  0  0  0  0  0  0  0  0
   -1.5440   20.9574  -35.5669 H   0  0  0  0  0  0  0  0  0  0  0  0
   -1.2780   19.2950  -32.0000 C   0  0  0  0  0  0  0  0  0  0  0  0
   -2.0957   19.5230  -31.3004 H   0  0  0  0  0  0  0  0  0  0  0  0
   -0.7803   18.3482  -31.7434 H   0  0  0  0  0  0  0  0  0  0  0  0
   -0.2260   20.4170  -31.9140 C   0  0  0  0  0  0  0  0  0  0  0  0
    0.7419   20.0087  -32.2402 H   0  0  0  0  0  0  0  0  0  0  0  0
   -0.5811   21.2347  -32.5584 H   0  0  0  0  0  0  0  0  0  0  0  0
   -0.0510   21.0070  -30.5050 C   0  0  0  0  0  0  0  0  0  0  0  0
    0.3399   20.2242  -29.8384 H   0  0  0  0  0  0  0  0  0  0  0  0
    0.6467   21.8545  -30.5761 H   0  0  0  0  0  0  0  0  0  0  0  0
   -1.3160   21.5070  -29.9570 N   0  0  0  0  0  0  0  0  0  0  0  0
   -1.8970   22.6630  -29.7310 C   0  0  0  0  0  0  0  0  0  0  0  0
   -1.1760   23.5540  -28.8960 C   0  0  0  0  0  0  0  0  0  0  0  0
   -1.6130   24.8730  -28.7290 C   0  0  0  0  0  0  0  0  0  0  0  0
   -2.7470   25.2990  -29.3260 N   0  0  0  0  0  0  0  0  0  0  0  0
   -3.5240   24.4760  -30.0690 C   0  0  0  0  0  0  0  0  0  0  0  0
   -4.7140   24.9920  -30.5940 C   0  0  0  0  0  0  0  0  0  0  0  0
   -4.9632   26.0528  -30.4439 H   0  0  0  0  0  0  0  0  0  0  0  0
   -5.5830   24.1720  -31.3040 C   0  0  0  0  0  0  0  0  0  0  0  0
   -6.5183   24.5817  -31.7132 H   0  0  0  0  0  0  0  0  0  0  0  0
   -5.2660   22.8330  -31.4950 C   0  0  0  0  0  0  0  0  0  0  0  0
   -5.9554   22.1827  -32.0533 H   0  0  0  0  0  0  0  0  0  0  0  0
   -4.0780   22.3070  -30.9830 C   0  0  0  0  0  0  0  0  0  0  0  0
   -3.8573   21.2392  -31.1279 H   0  0  0  0  0  0  0  0  0  0  0  0
   -3.1510   23.1150  -30.2820 C   0  0  0  0  0  0  0  0  0  0  0  0
   -0.7800   25.8350  -27.9320 C   0  0  0  0  0  0  0  0  0  0  0  0
    0.0881   26.1443  -28.5326 H   0  0  0  0  0  0  0  0  0  0  0  0
   -1.3974   26.7084  -27.6751 H   0  0  0  0  0  0  0  0  0  0  0  0
   -0.2860   25.1790  -26.6310 C   0  0  0  0  0  0  0  0  0  0  0  0
    0.5460   25.7807  -26.2364 H   0  0  0  0  0  0  0  0  0  0  0  0
   -1.1489   25.1427  -25.9497 H   0  0  0  0  0  0  0  0  0  0  0  0
    0.2080   23.7190  -26.7990 C   0  0  0  0  0  0  0  0  0  0  0  0
    1.2542   23.6698  -26.4627 H   0  0  0  0  0  0  0  0  0  0  0  0
   -0.4673   23.0902  -26.2002 H   0  0  0  0  0  0  0  0  0  0  0  0
    0.1410   23.1830  -28.2390 C   0  0  0  0  0  0  0  0  0  0  0  0
    0.9681   23.6140  -28.8222 H   0  0  0  0  0  0  0  0  0  0  0  0
    0.2214   22.0864  -28.2092 H   0  0  0  0  0  0  0  0  0  0  0  0
   -5.4220   20.3830  -33.1100 N   0  0  0  0  0  0  0  0  0  0  0  0
   -6.6440   19.9180  -32.7420 C   0  0  0  0  0  0  0  0  0  0  0  0
   -7.7400   20.7870  -32.6930 C   0  0  0  0  0  0  0  0  0  0  0  0
   -7.6120   21.8484  -32.9521 H   0  0  0  0  0  0  0  0  0  0  0  0
  1  2  1  0
  2  3  2  0
  3  4  1  0
  3  5  1  0
  5  6  1  0
  5  7  2  0
  7  8  1  0
  8  9  2  0
  8 10  1  0
 10 11  2  0
 11 12  1  0
 12 13  1  0
 12 14  1  0
 12 15  1  0
 15 16  1  1
 15 17  1  0
 17 18  1  0
 17 19  1  0
 17 20  1  0
 20 21  1  0
 20 22  1  0
 20 23  1  0
 15 24  1  0
 24 25  1  0
 24 26  1  0
 24 27  1  0
 27 28  1  0
 27 29  1  0
 27 30  1  0
 30 31  1  0
 30 32  1  0
 30 33  1  0
 33 34  2  0
 34 35  1  0
 35 36  2  0
 36 37  1  0
 37 38  1  0
 38 39  2  0
 39 40  1  0
 39 41  1  0
 41 42  1  0
 41 43  2  0
 43 44  1  0
 43 45  1  0
 45 46  1  0
 45 47  2  0
 36 48  1  0
 48 49  1  0
 48 50  1  0
 48 51  1  0
 51 52  1  0
 51 53  1  0
 51 54  1  0
 54 55  1  0
 54 56  1  0
 54 57  1  0
 57 58  1  0
 57 59  1  0
 11 60  1  0
 60 61  1  0
 61 62  2  0
 62 63  1  0
 62  2  1  0
 61  7  1  0
 47 34  1  0
 57 35  1  0
 47 38  1  0
M  CHG  3  15   1  37  -1  60  -1
M  END
>  <UniqueID>  (6) 
5

>  <SMILES>  (6) 
CC[N@@H+](CCC/N=c1/c2c([n-]c3ccccc13)CCCC2)Cc1nc(=O)c2ccccc2[n-]1

>  <Energy>  (6) 
101.99369221947815

>  <Genealogy>  (6) 
CC[NH+](CCCN=c1c2c([n-]c3ccccc13)CCCC2)Cc1nc(=O)c2ccccc2[n-]1 (protonated)
CC[N@@H+](CCCN=c1c2c([n-]c3ccccc13)CCCC2)Cc1nc(=O)c2ccccc2[n-]1 (chirality)
CC[N@@H+](CCC/N=c1/c2c([n-]c3ccccc13)CCCC2)Cc1nc(=O)c2ccccc2[n-]1 (cis-trans isomerization)
CC[N@@H+](CCC/N=c1/c2c([n-]c3ccccc13)CCCC2)Cc1nc(=O)c2ccccc2[n-]1 (3D coordinates assigned)
CC[N@@H+](CCC/N=c1/c2c([n-]c3ccccc13)CCCC2)Cc1nc(=O)c2ccccc2[n-]1 (nonaromatic ring conformer: 101.99369221947815 kcal/mol)

>  <smiles>  (6) 
CCN(CCCN=c1c2c([nH]c3ccccc13)CCCC2)Cc1nc(=O)c2ccccc2[nH]1

>  <score_type>  (6) 
oracle

>  <origin>  (6) 
adg

>  <m_score__min__energy>  (6) 
-10.5

>  <m_primary>  (6) 
energy

$$$$
6:0
     RDKit          3D

 33 34  0  0  0  0  0  0  0  0999 V2000
   -1.6920   25.9010  -26.9860 C   0  0  0  0  0  0  0  0  0  0  0  0
   -1.1810   24.9170  -27.9860 C   0  0  0  0  0  0  0  0  0  0  0  0
    0.1260   24.6940  -28.2230 N   0  0  0  0  0  0  0  0  0  0  0  0
    0.1970   23.7750  -29.1440 O   0  0  0  0  0  0  0  0  0  0  0  0
   -1.0010   23.3860  -29.5190 C   0  0  0  0  0  0  0  0  0  0  0  0
   -1.2630   22.3400  -30.5510 C   0  0  0  0  0  0  0  0  0  0  0  0
   -1.9410   24.1070  -28.8100 C   0  0  0  0  0  0  0  0  0  0  0  0
   -3.4370   23.9690  -28.8530 C   0  0  0  0  0  0  0  0  0  0  0  0
   -3.9880   24.4420  -30.1730 C   0  0  0  0  0  0  0  0  0  0  0  0
   -3.8720   25.6570  -30.4890 O   0  0  0  0  0  0  0  0  0  0  0  0
   -4.5670   23.5430  -31.1280 N   0  0  0  0  0  0  0  0  0  0  0  0
   -5.7310   23.8030  -31.9710 C   0  0  0  0  0  0  0  0  0  0  0  0
   -6.6490   22.6040  -32.0150 C   0  0  0  0  0  0  0  0  0  0  0  0
   -7.9680   22.7240  -31.5430 C   0  0  0  0  0  0  0  0  0  0  0  0
   -8.8350   21.6280  -31.5660 C   0  0  0  0  0  0  0  0  0  0  0  0
   -8.3920   20.3970  -32.0510 C   0  0  0  0  0  0  0  0  0  0  0  0
   -9.2350   19.3360  -32.0760 F   0  0  0  0  0  0  0  0  0  0  0  0
   -7.0770   20.2550  -32.5020 C   0  0  0  0  0  0  0  0  0  0  0  0
   -6.2000   21.3460  -32.4790 C   0  0  0  0  0  0  0  0  0  0  0  0
   -4.5450   21.0930  -33.0230 Cl  0  0  0  0  0  0  0  0  0  0  0  0
   -1.4974   25.5262  -25.9703 H   0  0  0  0  0  0  0  0  0  0  0  0
   -1.1805   26.8648  -27.1255 H   0  0  0  0  0  0  0  0  0  0  0  0
   -2.7746   26.0369  -27.1255 H   0  0  0  0  0  0  0  0  0  0  0  0
   -1.5016   21.3875  -30.0553 H   0  0  0  0  0  0  0  0  0  0  0  0
   -2.1115   22.6491  -31.1791 H   0  0  0  0  0  0  0  0  0  0  0  0
   -0.3690   22.2126  -31.1791 H   0  0  0  0  0  0  0  0  0  0  0  0
   -3.7044   22.9116  -28.7103 H   0  0  0  0  0  0  0  0  0  0  0  0
   -3.8680   24.5884  -28.0526 H   0  0  0  0  0  0  0  0  0  0  0  0
   -6.2832   24.6636  -31.5656 H   0  0  0  0  0  0  0  0  0  0  0  0
   -5.3824   24.0140  -32.9928 H   0  0  0  0  0  0  0  0  0  0  0  0
   -8.3209   23.6897  -31.1519 H   0  0  0  0  0  0  0  0  0  0  0  0
   -9.8672   21.7360  -31.2015 H   0  0  0  0  0  0  0  0  0  0  0  0
   -6.7292   19.2811  -32.8770 H   0  0  0  0  0  0  0  0  0  0  0  0
  1  2  1  0
  2  3  2  0
  3  4  1  0
  4  5  1  0
  5  6  1  0
  5  7  2  0
  7  8  1  0
  8  9  1  0
  9 10  2  0
  9 11  1  0
 11 12  1  0
 12 13  1  0
 13 14  2  0
 14 15  1  0
 15 16  2  0
 16 17  1  0
 16 18  1  0
 18 19  2  0
 19 20  1  0
  7  2  1  0
 19 13  1  0
  1 21  1  0
  1 22  1  0
  1 23  1  0
  6 24  1  0
  6 25  1  0
  6 26  1  0
  8 27  1  0
  8 28  1  0
 12 29  1  0
 12 30  1  0
 14 31  1  0
 15 32  1  0
 18 33  1  0
M  CHG  1  11  -1
M  END
>  <UniqueID>  (7) 
6

>  <SMILES>  (7) 
Cc1noc(C)c1CC(=O)[N-]Cc1ccc(F)cc1Cl

>  <Energy>  (7) 
58.29232897298832

>  <Genealogy>  (7) 
Cc1noc(C)c1CC(=O)[N-]Cc1ccc(F)cc1Cl (protonated)
Cc1noc(C)c1CC(=O)[N-]Cc1ccc(F)cc1Cl (3D coordinates assigned)
Cc1noc(C)c1CC(=O)[N-]Cc1ccc(F)cc1Cl (optimized conformer: 58.29232897298832 kcal/mol)

>  <smiles>  (7) 
Cc1noc(C)c1CC(=O)NCc1ccc(F)cc1Cl

>  <score_type>  (7) 
oracle

>  <origin>  (7) 
adg

>  <m_score__min__energy>  (7) 
-8.8100000000000005

>  <m_primary>  (7) 
energy

$$$$
7:0
     RDKit          3D

 59 63  0  0  0  0  0  0  0  0999 V2000
   -1.3820   25.6600  -29.3380 O   0  0  0  0  0  0  0  0  0  0  0  0
   -1.6270   24.9670  -28.3130 C   0  0  0  0  0  0  0  0  0  0  0  0
   -1.0160   25.3400  -27.0150 C   0  0  0  0  0  0  0  0  0  0  0  0
   -0.7430   24.3640  -26.0390 C   0  0  0  0  0  0  0  0  0  0  0  0
   -0.1660   24.7190  -24.8150 C   0  0  0  0  0  0  0  0  0  0  0  0
    0.1360   26.0580  -24.5390 C   0  0  0  0  0  0  0  0  0  0  0  0
    0.6950   26.4150  -23.3440 N   0  0  0  0  0  0  0  0  0  0  0  0
    0.9920   27.7160  -23.0580 C   0  0  0  0  0  0  0  0  0  0  0  0
    0.7230   28.7200  -23.9880 C   0  0  0  0  0  0  0  0  0  0  0  0
    0.1500   28.3850  -25.2160 C   0  0  0  0  0  0  0  0  0  0  0  0
   -0.1450   27.0470  -25.5070 C   0  0  0  0  0  0  0  0  0  0  0  0
   -0.7160   26.6850  -26.7360 C   0  0  0  0  0  0  0  0  0  0  0  0
   -2.4650   23.8050  -28.4370 N   0  0  0  0  0  0  0  0  0  0  0  0
   -3.8780   23.8750  -28.0270 C   0  0  0  0  0  0  0  0  0  0  0  0
   -4.8080   23.3180  -29.1210 C   0  0  0  0  0  0  0  0  0  0  0  0
   -4.2430   23.6090  -30.5220 C   0  0  0  0  0  0  0  0  0  0  0  0
   -2.8170   23.0120  -30.7380 C   0  0  2  0  0  0  0  0  0  0  0  0
   -2.7520   21.7840  -31.5800 N   0  0  0  0  0  0  0  0  0  0  0  0
   -3.2960   21.9100  -32.9350 C   0  0  0  0  0  0  0  0  0  0  0  0
   -4.8130   21.8970  -32.9070 C   0  0  0  0  0  0  0  0  0  0  0  0
   -5.3370   20.7680  -32.1290 N   0  0  0  0  0  0  0  0  0  0  0  0
   -6.7450   20.4810  -32.2290 C   0  0  0  0  0  0  0  0  0  0  0  0
   -7.6940   21.4750  -31.9200 C   0  0  0  0  0  0  0  0  0  0  0  0
   -9.0640   21.1840  -31.9680 C   0  0  0  0  0  0  0  0  0  0  0  0
   -9.4980   19.9150  -32.3560 C   0  0  0  0  0  0  0  0  0  0  0  0
   -8.5650   18.9230  -32.6730 C   0  0  0  0  0  0  0  0  0  0  0  0
   -7.1940   19.2010  -32.6130 C   0  0  0  0  0  0  0  0  0  0  0  0
   -6.3100   18.2290  -32.9560 F   0  0  0  0  0  0  0  0  0  0  0  0
   -4.5640   20.0730  -31.0780 C   0  0  0  0  0  0  0  0  0  0  0  0
   -3.0760   20.4830  -30.9710 C   0  0  0  0  0  0  0  0  0  0  0  0
   -2.0890   22.7630  -29.4010 C   0  0  0  0  0  0  0  0  0  0  0  0
   -0.9859   23.3103  -26.2406 H   0  0  0  0  0  0  0  0  0  0  0  0
    0.0513   23.9429  -24.0663 H   0  0  0  0  0  0  0  0  0  0  0  0
    0.9090   25.6850  -22.6260 H   0  0  0  0  0  0  0  0  0  0  0  0
    1.4456   27.9739  -22.0896 H   0  0  0  0  0  0  0  0  0  0  0  0
    0.9607   29.7685  -23.7554 H   0  0  0  0  0  0  0  0  0  0  0  0
   -0.0695   29.1706  -25.9540 H   0  0  0  0  0  0  0  0  0  0  0  0
   -0.9307   27.4593  -27.4872 H   0  0  0  0  0  0  0  0  0  0  0  0
   -4.0137   23.2862  -27.1078 H   0  0  0  0  0  0  0  0  0  0  0  0
   -4.1373   24.9302  -27.8560 H   0  0  0  0  0  0  0  0  0  0  0  0
   -4.9059   22.2301  -28.9909 H   0  0  0  0  0  0  0  0  0  0  0  0
   -5.7897   23.8057  -29.0296 H   0  0  0  0  0  0  0  0  0  0  0  0
   -4.9220   23.1758  -31.2712 H   0  0  0  0  0  0  0  0  0  0  0  0
   -4.1627   24.7012  -30.6252 H   0  0  0  0  0  0  0  0  0  0  0  0
   -2.2995   23.7960  -31.3103 H   0  0  0  0  0  0  0  0  0  0  0  0
   -2.9510   22.8568  -33.3760 H   0  0  0  0  0  0  0  0  0  0  0  0
   -2.9460   21.0587  -33.5373 H   0  0  0  0  0  0  0  0  0  0  0  0
   -5.1683   22.8351  -32.4557 H   0  0  0  0  0  0  0  0  0  0  0  0
   -5.1719   21.7935  -33.9416 H   0  0  0  0  0  0  0  0  0  0  0  0
   -7.3582   22.4843  -31.6397 H   0  0  0  0  0  0  0  0  0  0  0  0
   -9.7990   21.9571  -31.6994 H   0  0  0  0  0  0  0  0  0  0  0  0
  -10.5744   19.6955  -32.4123 H   0  0  0  0  0  0  0  0  0  0  0  0
   -8.9090   17.9214  -32.9704 H   0  0  0  0  0  0  0  0  0  0  0  0
   -5.0440   20.2801  -30.1101 H   0  0  0  0  0  0  0  0  0  0  0  0
   -4.5669   19.0078  -31.3526 H   0  0  0  0  0  0  0  0  0  0  0  0
   -2.8084   20.5273  -29.9050 H   0  0  0  0  0  0  0  0  0  0  0  0
   -2.5040   19.7271  -31.5291 H   0  0  0  0  0  0  0  0  0  0  0  0
   -2.3754   21.7773  -29.0057 H   0  0  0  0  0  0  0  0  0  0  0  0
   -1.0017   22.7906  -29.5651 H   0  0  0  0  0  0  0  0  0  0  0  0
  1  2  2  0
  2  3  1  0
  3  4  2  0
  4  5  1  0
  5  6  2  0
  6  7  1  0
  7  8  2  0
  8  9  1  0
  9 10  2  0
 10 11  1  0
 11 12  2  0
  2 13  1  0
 13 14  1  0
 14 15  1  0
 15 16  1  0
 16 17  1  0
 17 18  1  0
 18 19  1  0
 19 20  1  0
 20 21  1  0
 21 22  1  0
 22 23  2  0
 23 24  1  0
 24 25  2  0
 25 26  1  0
 26 27  2  0
 27 28  1  0
 21 29  1  0
 29 30  1  0
 17 31  1  0
 12  3  1  0
 31 13  1  0
 11  6  1  0
 30 18  1  0
 27 22  1  0
  4 32  1  0
  5 33  1  0
  7 34  1  0
  8 35  1  0
  9 36  1  0
 10 37  1  0
 12 38  1  0
 14 39  1  0
 14 40  1  0
 15 41  1  0
 15 42  1  0
 16 43  1  0
 16 44  1  0
 17 45  1  6
 19 46  1  0
 19 47  1  0
 20 48  1  0
 20 49  1  0
 23 50  1  0
 24 51  1  0
 25 52  1  0
 26 53  1  0
 29 54  1  0
 29 55  1  0
 30 56  1  0
 30 57  1  0
 31 58  1  0
 31 59  1  0
M  CHG  1   7   1
M  END
>  <UniqueID>  (8) 
7

>  <SMILES>  (8) 
O=C(c1ccc2[nH+]cccc2c1)N1CCC[C@H](N2CCN(c3ccccc3F)CC2)C1

>  <Energy>  (8) 
97.393884064404

>  <Genealogy>  (8) 
O=C(c1ccc2[nH+]cccc2c1)N1CCCC(N2CCN(c3ccccc3F)CC2)C1 (protonated)
O=C(c1ccc2[nH+]cccc2c1)N1CCC[C@H](N2CCN(c3ccccc3F)CC2)C1 (chirality)
O=C(c1ccc2[nH+]cccc2c1)N1CCC[C@H](N2CCN(c3ccccc3F)CC2)C1 (3D coordinates assigned)
O=C(c1ccc2[nH+]cccc2c1)N1CCC[C@H](N2CCN(c3ccccc3F)CC2)C1 (nonaromatic ring conformer: 97.393884064404 kcal/mol)

>  <smiles>  (8) 
O=C(c1ccc2ncccc2c1)N1CCCC(N2CCN(c3ccccc3F)CC2)C1

>  <score_type>  (8) 
oracle

>  <origin>  (8) 
adg

>  <m_score__min__energy>  (8) 
-10.85

>  <m_primary>  (8) 
energy

$$$$
8:0
     RDKit          3D

 48 49  0  0  0  0  0  0  0  0999 V2000
   -4.6520   15.0710  -32.3430 C   0  0  0  0  0  0  0  0  0  0  0  0
   -5.5030   15.7040  -33.4520 C   0  0  0  0  0  0  0  0  0  0  0  0
   -4.6770   16.4600  -34.4320 N   0  0  2  0  0  0  0  0  0  0  0  0
   -3.3120   16.6950  -33.8840 C   0  0  0  0  0  0  0  0  0  0  0  0
   -2.2200   16.5210  -34.9530 C   0  0  0  0  0  0  0  0  0  0  0  0
   -2.7500   15.8870  -36.0850 O   0  0  0  0  0  0  0  0  0  0  0  0
   -5.3280   17.7560  -34.7690 C   0  0  0  0  0  0  0  0  0  0  0  0
   -5.9780   18.4140  -33.5340 C   0  0  0  0  0  0  0  0  0  0  0  0
   -6.5330   19.8160  -33.8450 C   0  0  0  0  0  0  0  0  0  0  0  0
   -6.9390   20.5660  -32.5830 C   0  0  0  0  0  0  0  0  0  0  0  0
   -8.2920   20.4730  -32.2280 C   0  0  0  0  0  0  0  0  0  0  0  0
   -8.8450   21.3510  -31.3170 C   0  0  0  0  0  0  0  0  0  0  0  0
   -8.0670   22.3690  -30.7920 C   0  0  0  0  0  0  0  0  0  0  0  0
   -6.7320   22.4800  -31.0970 N   0  0  0  0  0  0  0  0  0  0  0  0
   -6.0280   23.5530  -30.5940 C   0  0  0  0  0  0  0  0  0  0  0  0
   -6.6190   24.4350  -29.9080 O   0  0  0  0  0  0  0  0  0  0  0  0
   -4.6510   23.6900  -30.8410 C   0  0  0  0  0  0  0  0  0  0  0  0
   -3.8700   24.8620  -30.3550 C   0  0  0  0  0  0  0  0  0  0  0  0
   -4.3170   26.0310  -30.5050 O   0  0  0  0  0  0  0  0  0  0  0  0
   -2.6440   24.6960  -29.7200 O   0  0  0  0  0  0  0  0  0  0  0  0
   -3.9980   22.6670  -31.5240 C   0  0  0  0  0  0  0  0  0  0  0  0
   -4.6920   21.5510  -32.0010 C   0  0  0  0  0  0  0  0  0  0  0  0
   -3.8520   20.3810  -32.4530 C   0  0  0  0  0  0  0  0  0  0  0  0
   -6.1160   21.5270  -31.8990 C   0  0  0  0  0  0  0  0  0  0  0  0
   -5.0500   15.3671  -31.3612 H   0  0  0  0  0  0  0  0  0  0  0  0
   -4.6840   13.9754  -32.4364 H   0  0  0  0  0  0  0  0  0  0  0  0
   -3.6119   15.4167  -32.4364 H   0  0  0  0  0  0  0  0  0  0  0  0
   -6.0421   14.9062  -33.9839 H   0  0  0  0  0  0  0  0  0  0  0  0
   -6.1999   16.4123  -32.9802 H   0  0  0  0  0  0  0  0  0  0  0  0
   -4.5930   15.8890  -35.3070 H   0  0  0  0  0  0  0  0  0  0  0  0
   -3.2605   17.7201  -33.4884 H   0  0  0  0  0  0  0  0  0  0  0  0
   -3.1325   15.9517  -33.0932 H   0  0  0  0  0  0  0  0  0  0  0  0
   -1.8300   17.5091  -35.2387 H   0  0  0  0  0  0  0  0  0  0  0  0
   -1.4087   15.9028  -34.5412 H   0  0  0  0  0  0  0  0  0  0  0  0
   -2.0450   15.9200  -36.7850 H   0  0  0  0  0  0  0  0  0  0  0  0
   -4.5688   18.4393  -35.1773 H   0  0  0  0  0  0  0  0  0  0  0  0
   -6.1208   17.5570  -35.5051 H   0  0  0  0  0  0  0  0  0  0  0  0
   -6.8035   17.7756  -33.1861 H   0  0  0  0  0  0  0  0  0  0  0  0
   -5.2020   18.5222  -32.7620 H   0  0  0  0  0  0  0  0  0  0  0  0
   -5.7583   20.3958  -34.3681 H   0  0  0  0  0  0  0  0  0  0  0  0
   -7.4305   19.6936  -34.4691 H   0  0  0  0  0  0  0  0  0  0  0  0
   -8.9203   19.6916  -32.6804 H   0  0  0  0  0  0  0  0  0  0  0  0
   -9.8959   21.2425  -31.0106 H   0  0  0  0  0  0  0  0  0  0  0  0
   -8.5277   23.1046  -30.1162 H   0  0  0  0  0  0  0  0  0  0  0  0
   -2.9132   22.7385  -31.6917 H   0  0  0  0  0  0  0  0  0  0  0  0
   -3.4669   19.8446  -31.5733 H   0  0  0  0  0  0  0  0  0  0  0  0
   -4.4681   19.6991  -33.0575 H   0  0  0  0  0  0  0  0  0  0  0  0
   -3.0089   20.7467  -33.0575 H   0  0  0  0  0  0  0  0  0  0  0  0
  1  2  1  0
  2  3  1  0
  3  4  1  0
  4  5  1  0
  5  6  1  0
  3  7  1  0
  7  8  1  0
  8  9  1  0
  9 10  1  0
 10 11  2  0
 11 12  1  0
 12 13  2  0
 13 14  1  0
 14 15  1  0
 15 16  2  0
 15 17  1  0
 17 18  1  0
 18 19  2  0
 18 20  1  0
 17 21  2  0
 21 22  1  0
 22 23  1  0
 22 24  2  0
 24 10  1  0
 24 14  1  0
  1 25  1  0
  1 26  1  0
  1 27  1  0
  2 28  1  0
  2 29  1  0
  3 30  1  6
  4 31  1  0
  4 32  1  0
  5 33  1  0
  5 34  1  0
  6 35  1  0
  7 36  1  0
  7 37  1  0
  8 38  1  0
  8 39  1  0
  9 40  1  0
  9 41  1  0
 11 42  1  0
 12 43  1  0
 13 44  1  0
 21 45  1  0
 23 46  1  0
 23 47  1  0
 23 48  1  0
M  CHG  2   3   1  20  -1
M  END
>  <UniqueID>  (9) 
8

>  <SMILES>  (9) 
CC[N@H+](CCO)CCCc1cccn2c(=O)c(C(=O)[O-])cc(C)c12

>  <Energy>  (9) 
72.45596198855729

>  <Genealogy>  (9) 
CC[NH+](CCO)CCCc1cccn2c(=O)c(C(=O)[O-])cc(C)c12 (protonated)
CC[N@H+](CCO)CCCc1cccn2c(=O)c(C(=O)[O-])cc(C)c12 (chirality)
CC[N@H+](CCO)CCCc1cccn2c(=O)c(C(=O)[O-])cc(C)c12 (3D coordinates assigned)
CC[N@H+](CCO)CCCc1cccn2c(=O)c(C(=O)[O-])cc(C)c12 (optimized conformer: 72.45596198855729 kcal/mol)

>  <smiles>  (9) 
CCN(CCO)CCCc1cccn2c(=O)c(C(=O)O)cc(C)c12

>  <score_type>  (9) 
oracle

>  <origin>  (9) 
adg

>  <m_score__min__energy>  (9) 
-8.4800000000000004

>  <m_primary>  (9) 
energy

$$$$
9:0
     RDKit          3D

 27 28  0  0  0  0  0  0  0  0999 V2000
   -7.8200   25.3922  -29.7963 H   0  0  0  0  0  0  0  0  0  0  0  0
   -7.0010   24.8070  -30.2400 C   0  0  0  0  0  0  0  0  0  0  0  0
   -5.7160   25.2130  -30.0830 N   0  0  0  0  0  0  0  0  0  0  0  0
   -4.6900   24.5070  -30.6230 C   0  0  0  0  0  0  0  0  0  0  0  0
   -3.4710   24.9210  -30.4560 N   0  0  0  0  0  0  0  0  0  0  0  0
   -2.6260   24.5330  -29.3320 C   0  0  0  0  0  0  0  0  0  0  0  0
   -3.1398   24.7689  -28.3884 H   0  0  0  0  0  0  0  0  0  0  0  0
   -2.4253   23.4525  -29.3800 H   0  0  0  0  0  0  0  0  0  0  0  0
   -1.6757   25.0850  -29.3800 H   0  0  0  0  0  0  0  0  0  0  0  0
   -4.9530   23.3740  -31.3320 N   0  0  0  0  0  0  0  0  0  0  0  0
   -6.2220   22.9230  -31.5200 C   0  0  0  0  0  0  0  0  0  0  0  0
   -6.4640   21.6820  -32.3000 C   0  0  0  0  0  0  0  0  0  0  0  0
   -5.2690   20.8000  -33.1070 S   0  0  0  0  0  0  0  0  0  0  0  0
   -6.3330   19.6400  -33.6870 C   0  0  0  0  0  0  0  0  0  0  0  0
   -5.9360   18.4350  -34.4710 C   0  0  0  0  0  0  0  0  0  0  0  0
   -5.6678   17.6210  -33.7815 H   0  0  0  0  0  0  0  0  0  0  0  0
   -6.7767   18.1166  -35.1049 H   0  0  0  0  0  0  0  0  0  0  0  0
   -5.0707   18.6787  -35.1049 H   0  0  0  0  0  0  0  0  0  0  0  0
   -7.5910   19.8860  -33.2640 N   0  0  0  0  0  0  0  0  0  0  0  0
   -8.4020   19.2690  -33.4930 H   0  0  0  0  0  0  0  0  0  0  0  0
   -7.6860   21.0140  -32.5040 C   0  0  0  0  0  0  0  0  0  0  0  0
   -9.0030   21.4600  -31.9420 C   0  0  0  0  0  0  0  0  0  0  0  0
   -8.9569   21.4444  -30.8431 H   0  0  0  0  0  0  0  0  0  0  0  0
   -9.2210   22.4821  -32.2854 H   0  0  0  0  0  0  0  0  0  0  0  0
   -9.7971   20.7807  -32.2854 H   0  0  0  0  0  0  0  0  0  0  0  0
   -7.2850   23.6490  -30.9630 C   0  0  0  0  0  0  0  0  0  0  0  0
   -8.3236   23.3111  -31.0941 H   0  0  0  0  0  0  0  0  0  0  0  0
  1  2  1  0
  2  3  1  0
  3  4  1  0
  4  5  2  0
  5  6  1  0
  6  7  1  0
  6  8  1  0
  6  9  1  0
  4 10  1  0
 10 11  2  0
 11 12  1  0
 12 13  1  0
 13 14  1  0
 14 15  1  0
 15 16  1  0
 15 17  1  0
 15 18  1  0
 14 19  2  0
 19 20  1  0
 19 21  1  0
 21 22  1  0
 22 23  1  0
 22 24  1  0
 22 25  1  0
 11 26  1  0
 26 27  1  0
 26  2  2  0
 21 12  2  0
M  CHG  2   3  -1  19   1
M  END
>  <UniqueID>  (10) 
9

>  <SMILES>  (10) 
C/N=c1\nc(-c2sc(C)[nH+]c2C)cc[n-]1

>  <Energy>  (10) 
55.08773967819846

>  <Genealogy>  (10) 
CN=c1nc(-c2sc(C)[nH+]c2C)cc[n-]1 (protonated)
C/N=c1\nc(-c2sc(C)[nH+]c2C)cc[n-]1 (cis-trans isomerization)
C/N=c1\nc(-c2sc(C)[nH+]c2C)cc[n-]1 (3D coordinates assigned)
C/N=c1\nc(-c2sc(C)[nH+]c2C)cc[n-]1 (optimized conformer: 55.08773967819846 kcal/mol)

>  <smiles>  (10) 
CN=c1nc(-c2sc(C)nc2C)cc[nH]1

>  <score_type>  (10) 
oracle

>  <origin>  (10) 
adg

>  <m_score__min__energy>  (10) 
-7.46

>  <m_primary>  (10) 
energy

$$$$
10:0
     RDKit          3D

 44 47  0  0  0  0  0  0  0  0999 V2000
   -4.6880   26.0500  -29.5950 H   0  0  0  0  0  0  0  0  0  0  0  0
   -4.2580   25.6140  -30.4410 N   0  0  0  0  0  0  0  0  0  0  0  0
   -3.5110   24.5620  -30.3530 C   0  0  0  0  0  0  0  0  0  0  0  0
   -3.6830   23.5370  -31.2400 N   0  0  0  0  0  0  0  0  0  0  0  0
   -2.8740   22.4540  -31.1260 C   0  0  0  0  0  0  0  0  0  0  0  0
   -1.9250   22.3530  -30.1690 C   0  0  0  0  0  0  0  0  0  0  0  0
   -1.2950   21.1660  -30.2510 N   0  0  0  0  0  0  0  0  0  0  0  0
   -1.9170   20.5690  -31.3050 C   0  0  0  0  0  0  0  0  0  0  0  0
   -1.6632   19.5606  -31.6639 H   0  0  0  0  0  0  0  0  0  0  0  0
   -2.8820   21.3410  -31.8700 N   0  0  0  0  0  0  0  0  0  0  0  0
   -3.7950   20.9660  -32.9500 C   0  0  0  0  0  0  0  0  0  0  0  0
   -4.4097   21.8396  -33.2127 H   0  0  0  0  0  0  0  0  0  0  0  0
   -3.1869   20.6310  -33.8032 H   0  0  0  0  0  0  0  0  0  0  0  0
   -4.7250   19.8090  -32.5530 C   0  0  0  0  0  0  0  0  0  0  0  0
   -4.1897   18.8619  -32.7154 H   0  0  0  0  0  0  0  0  0  0  0  0
   -4.9964   19.9624  -31.4981 H   0  0  0  0  0  0  0  0  0  0  0  0
   -6.0390   19.7680  -33.3540 C   0  0  0  0  0  0  0  0  0  0  0  0
   -5.8503   20.1704  -34.3602 H   0  0  0  0  0  0  0  0  0  0  0  0
   -6.3730   18.7206  -33.3904 H   0  0  0  0  0  0  0  0  0  0  0  0
   -7.1400   20.5750  -32.7100 C   0  0  0  0  0  0  0  0  0  0  0  0
   -6.8830   21.8750  -32.2410 C   0  0  0  0  0  0  0  0  0  0  0  0
   -5.8764   22.3060  -32.3462 H   0  0  0  0  0  0  0  0  0  0  0  0
   -7.9000   22.6220  -31.6420 C   0  0  0  0  0  0  0  0  0  0  0  0
   -7.6933   23.6397  -31.2792 H   0  0  0  0  0  0  0  0  0  0  0  0
   -9.1800   22.0780  -31.5030 C   0  0  0  0  0  0  0  0  0  0  0  0
   -9.9805   22.6690  -31.0341 H   0  0  0  0  0  0  0  0  0  0  0  0
   -9.4430   20.7850  -31.9590 C   0  0  0  0  0  0  0  0  0  0  0  0
  -10.4515   20.3592  -31.8511 H   0  0  0  0  0  0  0  0  0  0  0  0
   -8.4260   20.0300  -32.5530 C   0  0  0  0  0  0  0  0  0  0  0  0
   -8.6335   19.0064  -32.8983 H   0  0  0  0  0  0  0  0  0  0  0  0
   -1.7440   23.3840  -29.2580 C   0  0  0  0  0  0  0  0  0  0  0  0
   -0.5160   23.2870  -27.9540 S   0  0  0  0  0  0  0  0  0  0  0  0
   -1.5870   22.3640  -26.8010 C   0  0  0  0  0  0  0  0  0  0  0  0
   -1.3317   22.6406  -25.7674 H   0  0  0  0  0  0  0  0  0  0  0  0
   -2.6378   22.6149  -27.0081 H   0  0  0  0  0  0  0  0  0  0  0  0
   -1.3920   20.8940  -26.9810 C   0  0  0  0  0  0  0  0  0  0  0  0
   -0.3070   20.3560  -27.4860 O   0  0  0  0  0  0  0  0  0  0  0  0
   -0.4680   19.0530  -27.5300 C   0  0  0  0  0  0  0  0  0  0  0  0
    0.2764   18.3348  -27.9042 H   0  0  0  0  0  0  0  0  0  0  0  0
   -1.7140   18.7220  -27.0350 C   0  0  0  0  0  0  0  0  0  0  0  0
   -2.1416   17.7128  -26.9415 H   0  0  0  0  0  0  0  0  0  0  0  0
   -2.3130   19.9110  -26.6820 C   0  0  0  0  0  0  0  0  0  0  0  0
   -3.3160   20.0482  -26.2517 H   0  0  0  0  0  0  0  0  0  0  0  0
   -2.5540   24.4780  -29.3710 N   0  0  0  0  0  0  0  0  0  0  0  0
  1  2  1  0
  2  3  2  0
  3  4  1  0
  4  5  2  0
  5  6  1  0
  6  7  1  0
  7  8  2  0
  8  9  1  0
  8 10  1  0
 10 11  1  0
 11 12  1  0
 11 13  1  0
 11 14  1  0
 14 15  1  0
 14 16  1  0
 14 17  1  0
 17 18  1  0
 17 19  1  0
 17 20  1  0
 20 21  2  0
 21 22  1  0
 21 23  1  0
 23 24  1  0
 23 25  2  0
 25 26  1  0
 25 27  1  0
 27 28  1  0
 27 29  2  0
 29 30  1  0
  6 31  2  0
 31 32  1  0
 32 33  1  0
 33 34  1  0
 33 35  1  0
 33 36  1  0
 36 37  1  0
 37 38  1  0
 38 39  1  0
 38 40  2  0
 40 41  1  0
 40 42  1  0
 42 43  1  0
 31 44  1  0
 44  3  1  0
 10  5  1  0
 29 20  1  0
 42 36  2  0
M  CHG  1  44  -1
M  END
>  <UniqueID>  (11) 
10

>  <SMILES>  (11) 
[H]/N=c1/nc2c(ncn2CCCc2ccccc2)c(SCc2ccco2)[n-]1

>  <Energy>  (11) 
100.67859555401725

>  <Genealogy>  (11) 
N=c1nc2c(ncn2CCCc2ccccc2)c(SCc2ccco2)[n-]1 (protonated)
[H]/N=c1/nc2c(ncn2CCCc2ccccc2)c(SCc2ccco2)[n-]1 (cis-trans isomerization)
[H]/N=c1/nc2c(ncn2CCCc2ccccc2)c(SCc2ccco2)[n-]1 (3D coordinates assigned)
[H]/N=c1/nc2c(ncn2CCCc2ccccc2)c(SCc2ccco2)[n-]1 (optimized conformer: 100.67859555401725 kcal/mol)

>  <smiles>  (11) 
N=c1nc2c(ncn2CCCc2ccccc2)c(SCc2ccco2)[nH]1

>  <score_type>  (11) 
oracle

>  <origin>  (11) 
adg

>  <m_score__min__energy>  (11) 
-9.7100000000000009

>  <m_primary>  (11) 
energy

$$$$
11:0
     RDKit          3D

 35 36  0  0  0  0  0  0  0  0999 V2000
   -1.9870   25.6590  -29.7380 H   0  0  0  0  0  0  0  0  0  0  0  0
   -1.2270   26.1280  -29.3060 O   0  0  0  0  0  0  0  0  0  0  0  0
   -1.0270   25.5080  -28.0630 C   0  0  0  0  0  0  0  0  0  0  0  0
   -1.4206   26.1582  -27.2678 H   0  0  0  0  0  0  0  0  0  0  0  0
    0.0509   25.3406  -27.9211 H   0  0  0  0  0  0  0  0  0  0  0  0
   -1.7480   24.1530  -28.0090 C   0  0  1  0  0  0  0  0  0  0  0  0
   -1.4331   23.6467  -27.0846 H   0  0  0  0  0  0  0  0  0  0  0  0
   -3.5580   24.4310  -28.0430 S   0  0  0  0  0  0  0  0  0  0  0  0
   -3.4970   24.1430  -29.8040 C   0  0  0  0  0  0  0  0  0  0  0  0
   -4.4010   24.5390  -30.6500 N   0  0  0  0  0  0  0  0  0  0  0  0
   -5.6560   23.8950  -30.9130 C   0  0  0  0  0  0  0  0  0  0  0  0
   -6.4000   23.2870  -29.8870 C   0  0  0  0  0  0  0  0  0  0  0  0
   -6.0366   23.3274  -28.8495 H   0  0  0  0  0  0  0  0  0  0  0  0
   -7.6000   22.6310  -30.1790 C   0  0  0  0  0  0  0  0  0  0  0  0
   -8.1886   22.1784  -29.3674 H   0  0  0  0  0  0  0  0  0  0  0  0
   -8.0560   22.5480  -31.5030 C   0  0  0  0  0  0  0  0  0  0  0  0
   -9.3650   21.8720  -31.8150 C   0  0  0  0  0  0  0  0  0  0  0  0
   -9.9904   21.8610  -30.9101 H   0  0  0  0  0  0  0  0  0  0  0  0
   -9.8675   22.4288  -32.6196 H   0  0  0  0  0  0  0  0  0  0  0  0
   -9.1340   20.4390  -32.2810 C   0  0  0  0  0  0  0  0  0  0  0  0
   -9.0280   19.7814  -31.4056 H   0  0  0  0  0  0  0  0  0  0  0  0
   -9.9904   20.1079  -32.8868 H   0  0  0  0  0  0  0  0  0  0  0  0
   -8.2170   20.3938  -32.8868 H   0  0  0  0  0  0  0  0  0  0  0  0
   -7.3020   23.1380  -32.5300 C   0  0  0  0  0  0  0  0  0  0  0  0
   -7.6571   23.0857  -33.5698 H   0  0  0  0  0  0  0  0  0  0  0  0
   -6.1010   23.7920  -32.2360 C   0  0  0  0  0  0  0  0  0  0  0  0
   -5.5026   24.2280  -33.0495 H   0  0  0  0  0  0  0  0  0  0  0  0
   -2.3330   23.5430  -30.2420 O   0  0  0  0  0  0  0  0  0  0  0  0
   -1.3860   23.2610  -29.2250 C   0  0  2  0  0  0  0  0  0  0  0  0
   -0.3573   23.4738  -29.5512 H   0  0  0  0  0  0  0  0  0  0  0  0
   -1.4610   21.7970  -28.8710 C   0  0  0  0  0  0  0  0  0  0  0  0
   -0.5694   21.1658  -29.0001 H   0  0  0  0  0  0  0  0  0  0  0  0
   -2.5870   21.2500  -28.4040 C   0  0  0  0  0  0  0  0  0  0  0  0
   -2.6155   20.1794  -28.1532 H   0  0  0  0  0  0  0  0  0  0  0  0
   -3.4855   21.8703  -28.2704 H   0  0  0  0  0  0  0  0  0  0  0  0
  1  2  1  0
  2  3  1  0
  3  4  1  0
  3  5  1  0
  3  6  1  0
  6  7  1  1
  6  8  1  0
  8  9  1  0
  9 10  2  0
 10 11  1  0
 11 12  2  0
 12 13  1  0
 12 14  1  0
 14 15  1  0
 14 16  2  0
 16 17  1  0
 17 18  1  0
 17 19  1  0
 17 20  1  0
 20 21  1  0
 20 22  1  0
 20 23  1  0
 16 24  1  0
 24 25  1  0
 24 26  2  0
 26 27  1  0
  9 28  1  0
 28 29  1  0
 29 30  1  6
 29 31  1  0
 31 32  1  0
 31 33  2  0
 33 34  1  0
 33 35  1  0
 29  6  1  0
 26 11  1  0
M  END
>  <UniqueID>  (12) 
11

>  <SMILES>  (12) 
C=C[C@H]1O/C(=N/c2ccc(CC)cc2)S[C@@H]1CO

>  <Energy>  (12) 
41.514262718017015

>  <Genealogy>  (12) 
C=C[C@H]1OC(=Nc2ccc(CC)cc2)S[C@@H]1CO (chirality)
C=C[C@H]1O/C(=N/c2ccc(CC)cc2)S[C@@H]1CO (cis-trans isomerization)
C=C[C@H]1O/C(=N/c2ccc(CC)cc2)S[C@@H]1CO (3D coordinates assigned)
C=C[C@H]1O/C(=N/c2ccc(CC)cc2)S[C@@H]1CO (nonaromatic ring conformer: 41.514262718017015 kcal/mol)

>  <smiles>  (12) 
C=CC1OC(=Nc2ccc(CC)cc2)SC1CO

>  <score_type>  (12) 
oracle

>  <origin>  (12) 
adg

>  <m_score__min__energy>  (12) 
-7.7000000000000002

>  <m_primary>  (12) 
energy

$$$$
12:0
     RDKit          3D

 32 33  0  0  0  0  0  0  0  0999 V2000
   -3.1390   18.1310  -33.0890 C   0  0  0  0  0  0  0  0  0  0  0  0
   -4.1610   17.2360  -33.6610 N   0  0  0  0  0  0  0  0  0  0  0  0
   -5.1680   16.8350  -32.6590 C   0  0  0  0  0  0  0  0  0  0  0  0
   -6.0910   18.0040  -32.2470 C   0  0  0  0  0  0  0  0  0  0  0  0
   -6.1160   19.0880  -33.2570 N   0  0  0  0  0  0  0  0  0  0  0  0
   -7.2760   19.9810  -33.0610 C   0  0  0  0  0  0  0  0  0  0  0  0
   -6.8520   21.2630  -32.3850 C   0  0  0  0  0  0  0  0  0  0  0  0
   -5.5110   21.6790  -32.4620 C   0  0  0  0  0  0  0  0  0  0  0  0
   -5.1040   22.8740  -31.8650 C   0  0  0  0  0  0  0  0  0  0  0  0
   -6.0320   23.6710  -31.1880 C   0  0  0  0  0  0  0  0  0  0  0  0
   -5.5170   25.1730  -30.4410 Cl  0  0  0  0  0  0  0  0  0  0  0  0
   -7.3690   23.2730  -31.1100 C   0  0  0  0  0  0  0  0  0  0  0  0
   -7.7860   22.0760  -31.7050 C   0  0  0  0  0  0  0  0  0  0  0  0
   -9.4850   21.6290  -31.5890 Cl  0  0  0  0  0  0  0  0  0  0  0  0
   -6.1140   18.5260  -34.6160 C   0  0  0  0  0  0  0  0  0  0  0  0
   -4.7810   17.7990  -34.8850 C   0  0  0  0  0  0  0  0  0  0  0  0
   -3.1875   18.0885  -31.9909 H   0  0  0  0  0  0  0  0  0  0  0  0
   -2.1417   17.8105  -33.4246 H   0  0  0  0  0  0  0  0  0  0  0  0
   -3.3251   19.1619  -33.4246 H   0  0  0  0  0  0  0  0  0  0  0  0
   -5.7862   16.0299  -33.0828 H   0  0  0  0  0  0  0  0  0  0  0  0
   -4.6300   16.5010  -31.7596 H   0  0  0  0  0  0  0  0  0  0  0  0
   -7.1130   17.6183  -32.1176 H   0  0  0  0  0  0  0  0  0  0  0  0
   -5.6980   18.4273  -31.3109 H   0  0  0  0  0  0  0  0  0  0  0  0
   -7.7192   20.2178  -34.0395 H   0  0  0  0  0  0  0  0  0  0  0  0
   -8.0125   19.4706  -32.4230 H   0  0  0  0  0  0  0  0  0  0  0  0
   -4.7769   21.0583  -32.9966 H   0  0  0  0  0  0  0  0  0  0  0  0
   -4.0518   23.1887  -31.9275 H   0  0  0  0  0  0  0  0  0  0  0  0
   -8.0975   23.9030  -30.5786 H   0  0  0  0  0  0  0  0  0  0  0  0
   -6.9448   17.8120  -34.7160 H   0  0  0  0  0  0  0  0  0  0  0  0
   -6.2332   19.3420  -35.3440 H   0  0  0  0  0  0  0  0  0  0  0  0
   -4.9684   16.9766  -35.5911 H   0  0  0  0  0  0  0  0  0  0  0  0
   -4.0807   18.5436  -35.2913 H   0  0  0  0  0  0  0  0  0  0  0  0
  1  2  1  0
  2  3  1  0
  3  4  1  0
  4  5  1  0
  5  6  1  0
  6  7  1  0
  7  8  2  0
  8  9  1  0
  9 10  2  0
 10 11  1  0
 10 12  1  0
 12 13  2  0
 13 14  1  0
  5 15  1  0
 15 16  1  0
 16  2  1  0
 13  7  1  0
  1 17  1  0
  1 18  1  0
  1 19  1  0
  3 20  1  0
  3 21  1  0
  4 22  1  0
  4 23  1  0
  6 24  1  0
  6 25  1  0
  8 26  1  0
  9 27  1  0
 12 28  1  0
 15 29  1  0
 15 30  1  0
 16 31  1  0
 16 32  1  0
M  END
>  <UniqueID>  (13) 
12

>  <SMILES>  (13) 
CN1CCN(Cc2ccc(Cl)cc2Cl)CC1

>  <Energy>  (13) 
41.94386578622837

>  <Genealogy>  (13) 
CN1CCN(Cc2ccc(Cl)cc2Cl)CC1 (3D coordinates assigned)
CN1CCN(Cc2ccc(Cl)cc2Cl)CC1 (nonaromatic ring conformer: 41.94386578622837 kcal/mol)

>  <smiles>  (13) 
CN1CCN(Cc2ccc(Cl)cc2Cl)CC1

>  <score_type>  (13) 
oracle

>  <origin>  (13) 
adg

>  <m_score__min__energy>  (13) 
-6.79

>  <m_primary>  (13) 
energy

$$$$
13:0
     RDKit          3D

 40 43  0  0  0  0  0  0  0  0999 V2000
   -2.8580   24.5460  -29.2000 C   0  0  0  0  0  0  0  0  0  0  0  0
   -3.5320   24.6870  -30.4460 O   0  0  0  0  0  0  0  0  0  0  0  0
   -4.7720   24.1010  -30.7560 C   0  0  0  0  0  0  0  0  0  0  0  0
   -5.9840   24.7720  -30.5140 C   0  0  0  0  0  0  0  0  0  0  0  0
   -7.1980   24.1840  -30.8640 C   0  0  0  0  0  0  0  0  0  0  0  0
   -7.2250   22.9180  -31.4420 C   0  0  0  0  0  0  0  0  0  0  0  0
   -6.0340   22.2120  -31.6740 C   0  0  0  0  0  0  0  0  0  0  0  0
   -6.1310   20.8440  -32.2370 C   0  0  0  0  0  0  0  0  0  0  0  0
   -6.7250   19.7380  -31.6350 C   0  0  0  0  0  0  0  0  0  0  0  0
   -6.6200   18.7140  -32.4960 N   0  0  0  0  0  0  0  0  0  0  0  0
   -7.0380   17.4290  -32.3780 C   0  0  0  0  0  0  0  0  0  0  0  0
   -6.7980   16.5540  -33.4480 C   0  0  0  0  0  0  0  0  0  0  0  0
   -6.1390   17.0300  -34.5990 C   0  0  0  0  0  0  0  0  0  0  0  0
   -5.7250   18.3700  -34.6770 C   0  0  0  0  0  0  0  0  0  0  0  0
   -5.9910   19.1910  -33.5830 C   0  0  0  0  0  0  0  0  0  0  0  0
   -5.6810   20.4950  -33.4670 N   0  0  0  0  0  0  0  0  0  0  0  0
   -4.7920   22.8150  -31.3420 C   0  0  0  0  0  0  0  0  0  0  0  0
   -3.5050   22.1510  -31.6600 C   0  0  0  0  0  0  0  0  0  0  0  0
   -2.6300   21.7710  -30.6280 C   0  0  0  0  0  0  0  0  0  0  0  0
   -1.4210   21.1360  -30.9300 C   0  0  0  0  0  0  0  0  0  0  0  0
   -1.0770   20.8810  -32.2600 C   0  0  0  0  0  0  0  0  0  0  0  0
   -1.9390   21.2620  -33.2920 C   0  0  0  0  0  0  0  0  0  0  0  0
   -3.1480   21.8980  -32.9950 C   0  0  0  0  0  0  0  0  0  0  0  0
   -3.5729   24.6956  -28.3774 H   0  0  0  0  0  0  0  0  0  0  0  0
   -2.4241   23.5376  -29.1299 H   0  0  0  0  0  0  0  0  0  0  0  0
   -2.0563   25.2959  -29.1299 H   0  0  0  0  0  0  0  0  0  0  0  0
   -5.9737   25.7672  -30.0455 H   0  0  0  0  0  0  0  0  0  0  0  0
   -8.1396   24.7230  -30.6826 H   0  0  0  0  0  0  0  0  0  0  0  0
   -8.1888   22.4664  -31.7196 H   0  0  0  0  0  0  0  0  0  0  0  0
   -7.1928   19.7090  -30.6399 H   0  0  0  0  0  0  0  0  0  0  0  0
   -7.5509   17.0826  -31.4686 H   0  0  0  0  0  0  0  0  0  0  0  0
   -7.1218   15.5044  -33.3889 H   0  0  0  0  0  0  0  0  0  0  0  0
   -5.9477   16.3485  -35.4410 H   0  0  0  0  0  0  0  0  0  0  0  0
   -5.2099   18.7569  -35.5686 H   0  0  0  0  0  0  0  0  0  0  0  0
   -5.1910   21.0970  -34.1650 H   0  0  0  0  0  0  0  0  0  0  0  0
   -2.8966   21.9735  -29.5802 H   0  0  0  0  0  0  0  0  0  0  0  0
   -0.7401   20.8370  -30.1195 H   0  0  0  0  0  0  0  0  0  0  0  0
   -0.1265   20.3797  -32.4951 H   0  0  0  0  0  0  0  0  0  0  0  0
   -1.6660   21.0613  -34.3385 H   0  0  0  0  0  0  0  0  0  0  0  0
   -3.8222   22.2014  -33.8095 H   0  0  0  0  0  0  0  0  0  0  0  0
  1  2  1  0
  2  3  1  0
  3  4  2  0
  4  5  1  0
  5  6  2  0
  6  7  1  0
  7  8  1  0
  8  9  2  0
  9 10  1  0
 10 11  1  0
 11 12  2  0
 12 13  1  0
 13 14  2  0
 14 15  1  0
 15 16  2  0
  7 17  2  0
 17 18  1  0
 18 19  2  0
 19 20  1  0
 20 21  2  0
 21 22  1  0
 22 23  2  0
 17  3  1  0
 23 18  1  0
 16  8  1  0
 15 10  1  0
  1 24  1  0
  1 25  1  0
  1 26  1  0
  4 27  1  0
  5 28  1  0
  6 29  1  0
  9 30  1  0
 11 31  1  0
 12 32  1  0
 13 33  1  0
 14 34  1  0
 16 35  1  0
 19 36  1  0
 20 37  1  0
 21 38  1  0
 22 39  1  0
 23 40  1  0
M  CHG  1  16   1
M  END
>  <UniqueID>  (14) 
13

>  <SMILES>  (14) 
COc1cccc(-c2cn3ccccc3[nH+]2)c1-c1ccccc1

>  <Energy>  (14) 
91.88201423660948

>  <Genealogy>  (14) 
COc1cccc(-c2cn3ccccc3[nH+]2)c1-c1ccccc1 (protonated)
COc1cccc(-c2cn3ccccc3[nH+]2)c1-c1ccccc1 (3D coordinates assigned)
COc1cccc(-c2cn3ccccc3[nH+]2)c1-c1ccccc1 (optimized conformer: 91.88201423660948 kcal/mol)

>  <smiles>  (14) 
COc1cccc(-c2cn3ccccc3n2)c1-c1ccccc1

>  <score_type>  (14) 
oracle

>  <origin>  (14) 
adg

>  <m_score__min__energy>  (14) 
-8.2400000000000002

>  <m_primary>  (14) 
energy

$$$$
14:0
     RDKit          3D

 50 52  0  0  0  0  0  0  0  0999 V2000
   -3.0080   21.0730  -28.3990 C   0  0  0  0  0  0  0  0  0  0  0  0
   -3.0400   20.8960  -29.8120 O   0  0  0  0  0  0  0  0  0  0  0  0
   -1.9040   20.7090  -30.6160 C   0  0  0  0  0  0  0  0  0  0  0  0
   -0.8180   19.9140  -30.2010 C   0  0  0  0  0  0  0  0  0  0  0  0
    0.2980   19.7580  -31.0260 C   0  0  0  0  0  0  0  0  0  0  0  0
    0.3420   20.3880  -32.2690 C   0  0  0  0  0  0  0  0  0  0  0  0
   -0.7300   21.1750  -32.6940 C   0  0  0  0  0  0  0  0  0  0  0  0
   -1.8650   21.3370  -31.8730 C   0  0  0  0  0  0  0  0  0  0  0  0
   -2.9720   22.1150  -32.2620 O   0  0  0  0  0  0  0  0  0  0  0  0
   -3.7690   21.8970  -33.4260 C   0  0  0  0  0  0  0  0  0  0  0  0
   -5.2230   21.5700  -33.0240 C   0  0  0  0  0  0  0  0  0  0  0  0
   -5.4110   21.2240  -31.5930 N   0  0  2  0  0  0  0  0  0  0  0  0
   -5.2550   19.7710  -31.3390 C   0  0  0  0  0  0  0  0  0  0  0  0
   -5.0980   18.9890  -32.6230 C   0  0  0  0  0  0  0  0  0  0  0  0
   -3.8180   18.6380  -33.0840 C   0  0  0  0  0  0  0  0  0  0  0  0
   -3.6730   17.9180  -34.2750 C   0  0  0  0  0  0  0  0  0  0  0  0
   -4.8010   17.5410  -35.0080 C   0  0  0  0  0  0  0  0  0  0  0  0
   -6.0780   17.8790  -34.5510 C   0  0  0  0  0  0  0  0  0  0  0  0
   -6.2270   18.5960  -33.3600 C   0  0  0  0  0  0  0  0  0  0  0  0
   -6.6700   21.7420  -31.0810 C   0  0  0  0  0  0  0  0  0  0  0  0
   -7.6070   20.9880  -30.8550 O   0  0  0  0  0  0  0  0  0  0  0  0
   -6.8320   23.2100  -30.7930 C   0  0  0  0  0  0  0  0  0  0  0  0
   -5.5000   23.8440  -30.5500 C   0  0  0  0  0  0  0  0  0  0  0  0
   -5.1530   25.1400  -30.8450 C   0  0  0  0  0  0  0  0  0  0  0  0
   -3.8640   25.3300  -30.5140 N   0  0  0  0  0  0  0  0  0  0  0  0
   -3.4680   24.1330  -30.0300 C   0  0  0  0  0  0  0  0  0  0  0  0
   -4.4380   23.1950  -30.0410 N   0  0  0  0  0  0  0  0  0  0  0  0
   -3.1828   20.1062  -27.9043 H   0  0  0  0  0  0  0  0  0  0  0  0
   -2.0244   21.4650  -28.1007 H   0  0  0  0  0  0  0  0  0  0  0  0
   -3.7921   21.7845  -28.1007 H   0  0  0  0  0  0  0  0  0  0  0  0
   -0.8490   19.4134  -29.2220 H   0  0  0  0  0  0  0  0  0  0  0  0
    1.1435   19.1372  -30.6947 H   0  0  0  0  0  0  0  0  0  0  0  0
    1.2230   20.2647  -32.9160 H   0  0  0  0  0  0  0  0  0  0  0  0
   -0.6890   21.6715  -33.6747 H   0  0  0  0  0  0  0  0  0  0  0  0
   -3.7594   22.8043  -34.0479 H   0  0  0  0  0  0  0  0  0  0  0  0
   -3.3540   21.0494  -33.9911 H   0  0  0  0  0  0  0  0  0  0  0  0
   -5.8457   22.4486  -33.2481 H   0  0  0  0  0  0  0  0  0  0  0  0
   -5.5093   20.6767  -33.5985 H   0  0  0  0  0  0  0  0  0  0  0  0
   -4.6320   21.7100  -31.0870 H   0  0  0  0  0  0  0  0  0  0  0  0
   -4.3633   19.6127  -30.7147 H   0  0  0  0  0  0  0  0  0  0  0  0
   -6.1628   19.4139  -30.8307 H   0  0  0  0  0  0  0  0  0  0  0  0
   -2.9279   18.9299  -32.5073 H   0  0  0  0  0  0  0  0  0  0  0  0
   -2.6691   17.6483  -34.6348 H   0  0  0  0  0  0  0  0  0  0  0  0
   -4.6841   16.9777  -35.9456 H   0  0  0  0  0  0  0  0  0  0  0  0
   -6.9656   17.5809  -35.1283 H   0  0  0  0  0  0  0  0  0  0  0  0
   -7.2335   18.8535  -32.9985 H   0  0  0  0  0  0  0  0  0  0  0  0
   -7.3136   23.6971  -31.6537 H   0  0  0  0  0  0  0  0  0  0  0  0
   -7.4537   23.3305  -29.8936 H   0  0  0  0  0  0  0  0  0  0  0  0
   -5.8205   25.8981  -31.2807 H   0  0  0  0  0  0  0  0  0  0  0  0
   -2.4497   23.9406  -29.6612 H   0  0  0  0  0  0  0  0  0  0  0  0
  1  2  1  0
  2  3  1  0
  3  4  2  0
  4  5  1  0
  5  6  2  0
  6  7  1  0
  7  8  2  0
  8  9  1  0
  9 10  1  0
 10 11  1  0
 11 12  1  0
 12 13  1  0
 13 14  1  0
 14 15  2  0
 15 16  1  0
 16 17  2  0
 17 18  1  0
 18 19  2  0
 12 20  1  0
 20 21  2  0
 20 22  1  0
 22 23  1  0
 23 24  2  0
 24 25  1  0
 25 26  1  0
 26 27  2  0
  8  3  1  0
 19 14  1  0
 27 23  1  0
  1 28  1  0
  1 29  1  0
  1 30  1  0
  4 31  1  0
  5 32  1  0
  6 33  1  0
  7 34  1  0
 10 35  1  0
 10 36  1  0
 11 37  1  0
 11 38  1  0
 12 39  1  1
 13 40  1  0
 13 41  1  0
 15 42  1  0
 16 43  1  0
 17 44  1  0
 18 45  1  0
 19 46  1  0
 22 47  1  0
 22 48  1  0
 24 49  1  0
 26 50  1  0
M  CHG  2  12   1  25  -1
M  END
>  <UniqueID>  (15) 
14

>  <SMILES>  (15) 
COc1ccccc1OCC[N@H+](Cc1ccccc1)C(=O)Cc1c[n-]cn1

>  <Energy>  (15) 
77.81570125683662

>  <Genealogy>  (15) 
COc1ccccc1OCC[NH+](Cc1ccccc1)C(=O)Cc1c[n-]cn1 (protonated)
COc1ccccc1OCC[N@H+](Cc1ccccc1)C(=O)Cc1c[n-]cn1 (chirality)
COc1ccccc1OCC[N@H+](Cc1ccccc1)C(=O)Cc1c[n-]cn1 (3D coordinates assigned)
COc1ccccc1OCC[N@H+](Cc1ccccc1)C(=O)Cc1c[n-]cn1 (optimized conformer: 77.81570125683662 kcal/mol)

>  <smiles>  (15) 
COc1ccccc1OCCN(Cc1ccccc1)C(=O)Cc1c[nH]cn1

>  <score_type>  (15) 
oracle

>  <origin>  (15) 
adg

>  <m_score__min__energy>  (15) 
-8.3000000000000007

>  <m_primary>  (15) 
energy

$$$$
15:0
     RDKit          3D

 26 27  0  0  0  0  0  0  0  0999 V2000
   -8.2620   21.7090  -32.3360 O   0  0  0  0  0  0  0  0  0  0  0  0
   -7.1770   21.1620  -31.9970 C   0  0  0  0  0  0  0  0  0  0  0  0
   -6.4490   21.6420  -30.9000 O   0  0  0  0  0  0  0  0  0  0  0  0
   -6.0570   22.9740  -30.7030 C   0  0  0  0  0  0  0  0  0  0  0  0
   -6.9370   23.9600  -30.2230 C   0  0  0  0  0  0  0  0  0  0  0  0
   -6.4890   25.2740  -30.0600 C   0  0  0  0  0  0  0  0  0  0  0  0
   -5.1720   25.5930  -30.3890 C   0  0  0  0  0  0  0  0  0  0  0  0
   -4.3380   24.6330  -30.8710 N   0  0  0  0  0  0  0  0  0  0  0  0
   -4.7510   23.3480  -31.0380 C   0  0  0  0  0  0  0  0  0  0  0  0
   -6.6810   19.9860  -32.7490 C   0  0  0  0  0  0  0  0  0  0  0  0
   -5.4010   20.0390  -33.3400 C   0  0  0  0  0  0  0  0  0  0  0  0
   -4.6490   21.1670  -33.2710 F   0  0  0  0  0  0  0  0  0  0  0  0
   -4.8650   18.9150  -33.9710 C   0  0  0  0  0  0  0  0  0  0  0  0
   -5.5890   17.7260  -34.0190 C   0  0  0  0  0  0  0  0  0  0  0  0
   -6.8620   17.6580  -33.4530 C   0  0  0  0  0  0  0  0  0  0  0  0
   -7.4310   18.7820  -32.8320 C   0  0  0  0  0  0  0  0  0  0  0  0
   -8.7800   18.6950  -32.3440 N   0  0  0  0  0  0  0  0  0  0  0  0
   -9.0120   18.2180  -31.2150 O   0  0  0  0  0  0  0  0  0  0  0  0
   -9.7930   19.3480  -33.0090 O   0  0  0  0  0  0  0  0  0  0  0  0
   -7.9764   23.6977  -29.9761 H   0  0  0  0  0  0  0  0  0  0  0  0
   -7.1687   26.0489  -29.6759 H   0  0  0  0  0  0  0  0  0  0  0  0
   -4.8072   26.6225  -30.2585 H   0  0  0  0  0  0  0  0  0  0  0  0
   -4.0537   22.5977  -31.4391 H   0  0  0  0  0  0  0  0  0  0  0  0
   -3.8676   18.9685  -34.4318 H   0  0  0  0  0  0  0  0  0  0  0  0
   -5.1559   16.8389  -34.5043 H   0  0  0  0  0  0  0  0  0  0  0  0
   -7.4261   16.7145  -33.4934 H   0  0  0  0  0  0  0  0  0  0  0  0
  1  2  2  0
  2  3  1  0
  3  4  1  0
  4  5  2  0
  5  6  1  0
  6  7  2  0
  7  8  1  0
  8  9  2  0
  2 10  1  0
 10 11  2  0
 11 12  1  0
 11 13  1  0
 13 14  2  0
 14 15  1  0
 15 16  2  0
 16 17  1  0
 17 18  2  0
 17 19  1  0
  9  4  1  0
 16 10  1  0
  5 20  1  0
  6 21  1  0
  7 22  1  0
  9 23  1  0
 13 24  1  0
 14 25  1  0
 15 26  1  0
M  CHG  2  17   1  19  -1
M  END
>  <UniqueID>  (16) 
15

>  <SMILES>  (16) 
O=C(Oc1cccnc1)c1c(F)cccc1[N+](=O)[O-]

>  <Energy>  (16) 
41.70032366121204

>  <Genealogy>  (16) 
O=C(Oc1cccnc1)c1c(F)cccc1[N+](=O)[O-] (3D coordinates assigned)
O=C(Oc1cccnc1)c1c(F)cccc1[N+](=O)[O-] (optimized conformer: 41.70032366121204 kcal/mol)

>  <smiles>  (16) 
O=C(Oc1cccnc1)c1c(F)cccc1[N+](=O)[O-]

>  <score_type>  (16) 
oracle

>  <origin>  (16) 
adg

>  <m_score__min__energy>  (16) 
-6.7800000000000002

>  <m_primary>  (16) 
energy

$$$$
16:0
     RDKit          3D

 54 56  0  0  0  0  0  0  0  0999 V2000
   -2.0740   24.7230  -28.2040 C   0  0  0  0  0  0  0  0  0  0  0  0
   -2.7390   25.2620  -29.3430 O   0  0  0  0  0  0  0  0  0  0  0  0
   -3.8040   24.6360  -30.0070 C   0  0  0  0  0  0  0  0  0  0  0  0
   -5.0260   25.3120  -30.0910 C   0  0  0  0  0  0  0  0  0  0  0  0
   -6.1190   24.7310  -30.7390 C   0  0  0  0  0  0  0  0  0  0  0  0
   -6.0080   23.4520  -31.3090 C   0  0  0  0  0  0  0  0  0  0  0  0
   -7.1850   22.8370  -32.0360 C   0  0  2  0  0  0  0  0  0  0  0  0
   -7.7520   23.7730  -32.9160 O   0  0  0  0  0  0  0  0  0  0  0  0
   -8.2480   22.3710  -31.0230 C   0  0  0  0  0  0  0  0  0  0  0  0
   -9.2410   21.3520  -31.6220 C   0  0  0  0  0  0  0  0  0  0  0  0
   -8.7660   19.8710  -31.5940 C   0  0  0  0  0  0  0  0  0  0  0  0
   -7.3900   19.5940  -32.0900 N   0  0  0  0  0  0  0  0  0  0  0  0
   -7.1790   20.0370  -33.4960 C   0  0  0  0  0  0  0  0  0  0  0  0
   -6.0470   19.2760  -34.2130 C   0  0  0  0  0  0  0  0  0  0  0  0
   -5.0160   18.8670  -33.2520 N   0  0  0  0  0  0  0  0  0  0  0  0
   -3.6300   19.2080  -33.4580 C   0  0  0  0  0  0  0  0  0  0  0  0
   -2.7140   18.2340  -33.8930 C   0  0  0  0  0  0  0  0  0  0  0  0
   -1.3720   18.5680  -34.1040 C   0  0  0  0  0  0  0  0  0  0  0  0
   -0.9350   19.8770  -33.8860 C   0  0  0  0  0  0  0  0  0  0  0  0
   -1.8380   20.8550  -33.4630 C   0  0  0  0  0  0  0  0  0  0  0  0
   -3.1800   20.5250  -33.2520 C   0  0  0  0  0  0  0  0  0  0  0  0
   -5.4170   18.0990  -32.0670 C   0  0  0  0  0  0  0  0  0  0  0  0
   -6.9320   18.2080  -31.8350 C   0  0  0  0  0  0  0  0  0  0  0  0
   -4.7780   22.7760  -31.2380 C   0  0  0  0  0  0  0  0  0  0  0  0
   -3.6860   23.3600  -30.5900 C   0  0  0  0  0  0  0  0  0  0  0  0
   -2.5469   25.1063  -27.2878 H   0  0  0  0  0  0  0  0  0  0  0  0
   -2.1464   23.6255  -28.2224 H   0  0  0  0  0  0  0  0  0  0  0  0
   -1.0153   25.0210  -28.2224 H   0  0  0  0  0  0  0  0  0  0  0  0
   -5.1273   26.3112  -29.6423 H   0  0  0  0  0  0  0  0  0  0  0  0
   -7.0712   25.2779  -30.8031 H   0  0  0  0  0  0  0  0  0  0  0  0
   -6.8288   21.9698  -32.6114 H   0  0  0  0  0  0  0  0  0  0  0  0
   -7.1940   23.7670  -33.7380 H   0  0  0  0  0  0  0  0  0  0  0  0
   -7.7374   21.9031  -30.1683 H   0  0  0  0  0  0  0  0  0  0  0  0
   -8.8258   23.2564  -30.7192 H   0  0  0  0  0  0  0  0  0  0  0  0
  -10.1811   21.4189  -31.0548 H   0  0  0  0  0  0  0  0  0  0  0  0
   -9.3492   21.6184  -32.6838 H   0  0  0  0  0  0  0  0  0  0  0  0
   -8.8189   19.5250  -30.5512 H   0  0  0  0  0  0  0  0  0  0  0  0
   -9.4331   19.3434  -32.2915 H   0  0  0  0  0  0  0  0  0  0  0  0
   -6.7700   20.2080  -31.5070 H   0  0  0  0  0  0  0  0  0  0  0  0
   -8.1133   19.8804  -34.0551 H   0  0  0  0  0  0  0  0  0  0  0  0
   -6.8878   21.0972  -33.4626 H   0  0  0  0  0  0  0  0  0  0  0  0
   -6.4634   18.3819  -34.7001 H   0  0  0  0  0  0  0  0  0  0  0  0
   -5.5918   19.9386  -34.9639 H   0  0  0  0  0  0  0  0  0  0  0  0
   -3.0547   17.2029  -34.0685 H   0  0  0  0  0  0  0  0  0  0  0  0
   -0.6607   17.7999  -34.4416 H   0  0  0  0  0  0  0  0  0  0  0  0
    0.1214   20.1377  -34.0477 H   0  0  0  0  0  0  0  0  0  0  0  0
   -1.4929   21.8860  -33.2957 H   0  0  0  0  0  0  0  0  0  0  0  0
   -3.8883   21.2996  -32.9230 H   0  0  0  0  0  0  0  0  0  0  0  0
   -5.1496   17.0422  -32.2143 H   0  0  0  0  0  0  0  0  0  0  0  0
   -4.8949   18.5065  -31.1887 H   0  0  0  0  0  0  0  0  0  0  0  0
   -7.4545   17.5213  -32.5173 H   0  0  0  0  0  0  0  0  0  0  0  0
   -7.1555   17.9423  -30.7912 H   0  0  0  0  0  0  0  0  0  0  0  0
   -4.6740   21.7810  -31.6953 H   0  0  0  0  0  0  0  0  0  0  0  0
   -2.7293   22.8198  -30.5352 H   0  0  0  0  0  0  0  0  0  0  0  0
  1  2  1  0
  2  3  1  0
  3  4  2  0
  4  5  1  0
  5  6  2  0
  6  7  1  0
  7  8  1  0
  7  9  1  0
  9 10  1  0
 10 11  1  0
 11 12  1  0
 12 13  1  0
 13 14  1  0
 14 15  1  0
 15 16  1  0
 16 17  2  0
 17 18  1  0
 18 19  2  0
 19 20  1  0
 20 21  2  0
 15 22  1  0
 22 23  1  0
  6 24  1  0
 24 25  2  0
 25  3  1  0
 23 12  1  0
 21 16  1  0
  1 26  1  0
  1 27  1  0
  1 28  1  0
  4 29  1  0
  5 30  1  0
  7 31  1  6
  8 32  1  0
  9 33  1  0
  9 34  1  0
 10 35  1  0
 10 36  1  0
 11 37  1  0
 11 38  1  0
 12 39  1  0
 13 40  1  0
 13 41  1  0
 14 42  1  0
 14 43  1  0
 17 44  1  0
 18 45  1  0
 19 46  1  0
 20 47  1  0
 21 48  1  0
 22 49  1  0
 22 50  1  0
 23 51  1  0
 23 52  1  0
 24 53  1  0
 25 54  1  0
M  CHG  1  12   1
M  END
>  <UniqueID>  (17) 
16

>  <SMILES>  (17) 
COc1ccc([C@H](O)CCC[NH+]2CCN(c3ccccc3)CC2)cc1

>  <Energy>  (17) 
69.96633328903931

>  <Genealogy>  (17) 
COc1ccc(C(O)CCC[NH+]2CCN(c3ccccc3)CC2)cc1 (protonated)
COc1ccc([C@H](O)CCC[NH+]2CCN(c3ccccc3)CC2)cc1 (chirality)
COc1ccc([C@H](O)CCC[NH+]2CCN(c3ccccc3)CC2)cc1 (3D coordinates assigned)
COc1ccc([C@H](O)CCC[NH+]2CCN(c3ccccc3)CC2)cc1 (nonaromatic ring conformer: 69.96633328903931 kcal/mol)

>  <smiles>  (17) 
COc1ccc(C(O)CCCN2CCN(c3ccccc3)CC2)cc1

>  <score_type>  (17) 
oracle

>  <origin>  (17) 
adg

>  <m_score__min__energy>  (17) 
-8.3599999999999994

>  <m_primary>  (17) 
energy

$$$$
17:0
     RDKit          3D

 35 38  0  0  0  0  0  0  0  0999 V2000
   -9.1270   22.5270  -31.7340 C   0  0  0  0  0  0  0  0  0  0  0  0
   -7.8020   22.9100  -31.9350 C   0  0  0  0  0  0  0  0  0  0  0  0
   -6.8510   21.9670  -32.3360 C   0  0  0  0  0  0  0  0  0  0  0  0
   -7.2100   20.6170  -32.5460 C   0  0  0  0  0  0  0  0  0  0  0  0
   -6.1620   19.6370  -32.9760 C   0  0  0  0  0  0  0  0  0  0  0  0
   -6.4290   18.2770  -33.2080 C   0  0  0  0  0  0  0  0  0  0  0  0
   -5.3860   17.4250  -33.6100 C   0  0  0  0  0  0  0  0  0  0  0  0
   -5.6540   15.9800  -33.8600 C   0  0  0  0  0  0  0  0  0  0  0  0
   -6.8740   15.3990  -34.2160 C   0  0  0  0  0  0  0  0  0  0  0  0
   -6.8070   14.0090  -34.3820 C   0  0  0  0  0  0  0  0  0  0  0  0
   -5.5470   13.4750  -34.1620 C   0  0  0  0  0  0  0  0  0  0  0  0
   -4.5160   14.7370  -33.7600 S   0  0  0  0  0  0  0  0  0  0  0  0
   -4.1290   17.9410  -33.7660 N   0  0  0  0  0  0  0  0  0  0  0  0
   -3.8770   19.2610  -33.5390 C   0  0  0  0  0  0  0  0  0  0  0  0
   -2.5230   19.8340  -33.7020 C   0  0  0  0  0  0  0  0  0  0  0  0
   -2.1190   21.1460  -33.4620 C   0  0  0  0  0  0  0  0  0  0  0  0
   -0.7580   21.3640  -33.7150 C   0  0  0  0  0  0  0  0  0  0  0  0
   -0.0820   20.2360  -34.1550 C   0  0  0  0  0  0  0  0  0  0  0  0
   -1.1780   18.9660  -34.2270 S   0  0  0  0  0  0  0  0  0  0  0  0
   -4.8880   20.0790  -33.1510 N   0  0  0  0  0  0  0  0  0  0  0  0
   -8.5600   20.2510  -32.3380 C   0  0  0  0  0  0  0  0  0  0  0  0
   -9.5050   21.2000  -31.9350 C   0  0  0  0  0  0  0  0  0  0  0  0
   -9.8733   23.2704  -31.4173 H   0  0  0  0  0  0  0  0  0  0  0  0
   -7.5038   23.9571  -31.7777 H   0  0  0  0  0  0  0  0  0  0  0  0
   -5.8081   22.2808  -32.4902 H   0  0  0  0  0  0  0  0  0  0  0  0
   -7.4471   17.8820  -33.0759 H   0  0  0  0  0  0  0  0  0  0  0  0
   -7.7993   15.9778  -34.3530 H   0  0  0  0  0  0  0  0  0  0  0  0
   -7.6767   13.3965  -34.6619 H   0  0  0  0  0  0  0  0  0  0  0  0
   -5.2716   12.4127  -34.2375 H   0  0  0  0  0  0  0  0  0  0  0  0
   -3.3500   17.3190  -34.0630 H   0  0  0  0  0  0  0  0  0  0  0  0
   -2.8014   21.9331  -33.1087 H   0  0  0  0  0  0  0  0  0  0  0  0
   -0.2706   22.3404  -33.5772 H   0  0  0  0  0  0  0  0  0  0  0  0
    0.9862   20.1825  -34.4121 H   0  0  0  0  0  0  0  0  0  0  0  0
   -8.8706   19.2075  -32.4950 H   0  0  0  0  0  0  0  0  0  0  0  0
  -10.5508   20.8983  -31.7759 H   0  0  0  0  0  0  0  0  0  0  0  0
  1  2  2  0
  2  3  1  0
  3  4  2  0
  4  5  1  0
  5  6  2  0
  6  7  1  0
  7  8  1  0
  8  9  2  0
  9 10  1  0
 10 11  2  0
 11 12  1  0
  7 13  2  0
 13 14  1  0
 14 15  1  0
 15 16  2  0
 16 17  1  0
 17 18  2  0
 18 19  1  0
 14 20  2  0
  4 21  1  0
 21 22  2  0
 22  1  1  0
 20  5  1  0
 12  8  1  0
 19 15  1  0
  1 23  1  0
  2 24  1  0
  3 25  1  0
  6 26  1  0
  9 27  1  0
 10 28  1  0
 11 29  1  0
 13 30  1  0
 16 31  1  0
 17 32  1  0
 18 33  1  0
 21 34  1  0
 22 35  1  0
M  CHG  1  13   1
M  END
>  <UniqueID>  (18) 
17

>  <SMILES>  (18) 
c1ccc(-c2cc(-c3cccs3)[nH+]c(-c3cccs3)n2)cc1

>  <Energy>  (18) 
99.68437643726433

>  <Genealogy>  (18) 
c1ccc(-c2cc(-c3cccs3)[nH+]c(-c3cccs3)n2)cc1 (protonated)
c1ccc(-c2cc(-c3cccs3)[nH+]c(-c3cccs3)n2)cc1 (3D coordinates assigned)
c1ccc(-c2cc(-c3cccs3)[nH+]c(-c3cccs3)n2)cc1 (optimized conformer: 99.68437643726433 kcal/mol)

>  <smiles>  (18) 
c1ccc(-c2cc(-c3cccs3)nc(-c3cccs3)n2)cc1

>  <score_type>  (18) 
oracle

>  <origin>  (18) 
adg

>  <m_score__min__energy>  (18) 
-6.96

>  <m_primary>  (18) 
energy

$$$$
18:0
     RDKit          3D

 48 51  0  0  0  0  0  0  0  0999 V2000
   -0.4220   24.6790  -24.3610 C   0  0  0  0  0  0  0  0  0  0  0  0
   -0.7180   26.0880  -24.6730 N   0  0  0  0  0  0  0  0  0  0  0  0
   -1.0850   26.7960  -23.4350 C   0  0  0  0  0  0  0  0  0  0  0  0
    0.4400   26.7580  -25.3080 C   0  0  0  0  0  0  0  0  0  0  0  0
    0.5740   26.3810  -26.7940 C   0  0  0  0  0  0  0  0  0  0  0  0
   -0.4180   25.3840  -27.1980 N   0  0  0  0  0  0  0  0  0  0  0  0
   -0.0970   24.3560  -28.1470 C   0  0  0  0  0  0  0  0  0  0  0  0
    1.1050   24.1840  -28.4940 O   0  0  0  0  0  0  0  0  0  0  0  0
   -1.1500   23.4830  -28.7160 C   0  0  0  0  0  0  0  0  0  0  0  0
   -1.0650   22.0660  -28.6030 C   0  0  0  0  0  0  0  0  0  0  0  0
   -2.0670   21.2340  -29.1370 C   0  0  0  0  0  0  0  0  0  0  0  0
   -3.1470   21.8370  -29.7720 C   0  0  0  0  0  0  0  0  0  0  0  0
   -4.1820   21.2420  -30.3380 O   0  0  0  0  0  0  0  0  0  0  0  0
   -4.9570   22.2020  -30.8090 C   0  0  0  0  0  0  0  0  0  0  0  0
   -6.1670   22.0900  -31.5030 C   0  0  0  0  0  0  0  0  0  0  0  0
   -6.7850   20.7740  -31.7990 C   0  0  0  0  0  0  0  0  0  0  0  0
   -8.1500   20.5540  -31.5410 C   0  0  0  0  0  0  0  0  0  0  0  0
   -8.7320   19.3130  -31.8200 C   0  0  0  0  0  0  0  0  0  0  0  0
   -7.9580   18.2810  -32.3560 C   0  0  0  0  0  0  0  0  0  0  0  0
   -6.6010   18.4860  -32.6120 C   0  0  0  0  0  0  0  0  0  0  0  0
   -6.0150   19.7240  -32.3360 C   0  0  0  0  0  0  0  0  0  0  0  0
   -6.7740   23.3000  -31.9160 C   0  0  0  0  0  0  0  0  0  0  0  0
   -6.1650   24.5420  -31.6200 C   0  0  0  0  0  0  0  0  0  0  0  0
   -4.9850   24.5950  -30.9350 N   0  0  0  0  0  0  0  0  0  0  0  0
   -4.4100   23.4340  -30.5450 C   0  0  0  0  0  0  0  0  0  0  0  0
   -3.2400   23.2080  -29.8730 C   0  0  0  0  0  0  0  0  0  0  0  0
   -2.2690   24.0620  -29.3600 C   0  0  0  0  0  0  0  0  0  0  0  0
   -0.3935   24.5433  -23.2698 H   0  0  0  0  0  0  0  0  0  0  0  0
   -1.2047   24.0362  -24.7901 H   0  0  0  0  0  0  0  0  0  0  0  0
    0.5532   24.4055  -24.7901 H   0  0  0  0  0  0  0  0  0  0  0  0
   -0.7751   26.1982  -22.5651 H   0  0  0  0  0  0  0  0  0  0  0  0
   -0.5796   27.7726  -23.4076 H   0  0  0  0  0  0  0  0  0  0  0  0
   -2.1744   26.9460  -23.4076 H   0  0  0  0  0  0  0  0  0  0  0  0
    0.3094   27.8472  -25.2274 H   0  0  0  0  0  0  0  0  0  0  0  0
    1.3522   26.4297  -24.7883 H   0  0  0  0  0  0  0  0  0  0  0  0
    0.4366   27.2861  -27.4038 H   0  0  0  0  0  0  0  0  0  0  0  0
    1.5733   25.9470  -26.9457 H   0  0  0  0  0  0  0  0  0  0  0  0
   -1.3630   25.3870  -26.7510 H   0  0  0  0  0  0  0  0  0  0  0  0
   -0.2028   21.6145  -28.0904 H   0  0  0  0  0  0  0  0  0  0  0  0
   -1.9977   20.1393  -29.0544 H   0  0  0  0  0  0  0  0  0  0  0  0
   -8.7636   21.3627  -31.1173 H   0  0  0  0  0  0  0  0  0  0  0  0
   -9.8007   19.1495  -31.6170 H   0  0  0  0  0  0  0  0  0  0  0  0
   -8.4179   17.3064  -32.5765 H   0  0  0  0  0  0  0  0  0  0  0  0
   -5.9922   17.6716  -33.0317 H   0  0  0  0  0  0  0  0  0  0  0  0
   -4.9452   19.8796  -32.5394 H   0  0  0  0  0  0  0  0  0  0  0  0
   -7.7240   23.2745  -32.4699 H   0  0  0  0  0  0  0  0  0  0  0  0
   -6.6474   25.4755  -31.9453 H   0  0  0  0  0  0  0  0  0  0  0  0
   -2.3681   25.1536  -29.4522 H   0  0  0  0  0  0  0  0  0  0  0  0
  1  2  1  0
  2  3  1  0
  2  4  1  0
  4  5  1  0
  5  6  1  0
  6  7  1  0
  7  8  2  0
  7  9  1  0
  9 10  2  0
 10 11  1  0
 11 12  2  0
 12 13  1  0
 13 14  1  0
 14 15  2  0
 15 16  1  0
 16 17  2  0
 17 18  1  0
 18 19  2  0
 19 20  1  0
 20 21  2  0
 15 22  1  0
 22 23  2  0
 23 24  1  0
 24 25  2  0
 25 26  1  0
 26 27  2  0
 27  9  1  0
 26 12  1  0
 25 14  1  0
 21 16  1  0
  1 28  1  0
  1 29  1  0
  1 30  1  0
  3 31  1  0
  3 32  1  0
  3 33  1  0
  4 34  1  0
  4 35  1  0
  5 36  1  0
  5 37  1  0
  6 38  1  0
 10 39  1  0
 11 40  1  0
 17 41  1  0
 18 42  1  0
 19 43  1  0
 20 44  1  0
 21 45  1  0
 22 46  1  0
 23 47  1  0
 27 48  1  0
M  END
>  <UniqueID>  (19) 
18

>  <SMILES>  (19) 
CN(C)CCNC(=O)c1ccc2oc3c(-c4ccccc4)ccnc3c2c1

>  <Energy>  (19) 
102.29730283248485

>  <Genealogy>  (19) 
CN(C)CCNC(=O)c1ccc2oc3c(-c4ccccc4)ccnc3c2c1 (3D coordinates assigned)
CN(C)CCNC(=O)c1ccc2oc3c(-c4ccccc4)ccnc3c2c1 (optimized conformer: 102.29730283248485 kcal/mol)

>  <smiles>  (19) 
CN(C)CCNC(=O)c1ccc2oc3c(-c4ccccc4)ccnc3c2c1

>  <score_type>  (19) 
oracle

>  <origin>  (19) 
adg

>  <m_score__min__energy>  (19) 
-8.5199999999999996

>  <m_primary>  (19) 
energy

$$$$
19:0
     RDKit          3D

 55 57  0  0  0  0  0  0  0  0999 V2000
   -3.3270   18.5640  -25.8540 C   0  0  0  0  0  0  0  0  0  0  0  0
   -2.2970   18.8780  -26.7880 O   0  0  0  0  0  0  0  0  0  0  0  0
   -2.0660   20.1580  -27.3150 C   0  0  0  0  0  0  0  0  0  0  0  0
   -3.1080   21.0860  -27.5090 C   0  0  0  0  0  0  0  0  0  0  0  0
   -2.8380   22.3490  -28.0380 C   0  0  0  0  0  0  0  0  0  0  0  0
   -1.5270   22.7140  -28.3680 C   0  0  0  0  0  0  0  0  0  0  0  0
   -1.2440   24.0630  -28.9780 C   0  0  0  0  0  0  0  0  0  0  0  0
   -2.4990   24.9320  -28.9550 C   0  0  0  0  0  0  0  0  0  0  0  0
   -3.1270   24.9240  -30.2710 N   0  0  0  0  0  0  0  0  0  0  0  0
   -4.5330   25.1040  -30.4740 C   0  0  0  0  0  0  0  0  0  0  0  0
   -5.0370   26.2460  -30.3180 O   0  0  0  0  0  0  0  0  0  0  0  0
   -5.3920   23.9870  -30.9050 C   0  0  0  0  0  0  0  0  0  0  0  0
   -4.8580   22.9790  -31.7130 C   0  0  0  0  0  0  0  0  0  0  0  0
   -5.6050   21.8890  -32.0760 N   0  0  0  0  0  0  0  0  0  0  0  0
   -4.9440   20.8280  -32.8630 C   0  0  0  0  0  0  0  0  0  0  0  0
   -3.4650   20.7760  -32.5660 C   0  0  0  0  0  0  0  0  0  0  0  0
   -3.0110   20.4880  -31.2680 C   0  0  0  0  0  0  0  0  0  0  0  0
   -1.6390   20.4300  -30.9960 C   0  0  0  0  0  0  0  0  0  0  0  0
   -0.7130   20.6500  -32.0190 C   0  0  0  0  0  0  0  0  0  0  0  0
   -1.1550   20.9220  -33.3150 C   0  0  0  0  0  0  0  0  0  0  0  0
   -2.5250   20.9820  -33.5910 C   0  0  0  0  0  0  0  0  0  0  0  0
   -6.9200   21.7840  -31.6700 C   0  0  0  0  0  0  0  0  0  0  0  0
   -7.7790   20.6020  -32.0500 C   0  0  0  0  0  0  0  0  0  0  0  0
   -7.4890   22.7930  -30.8760 C   0  0  0  0  0  0  0  0  0  0  0  0
   -6.7250   23.8920  -30.4920 C   0  0  0  0  0  0  0  0  0  0  0  0
   -7.2420   24.7930  -29.7780 O   0  0  0  0  0  0  0  0  0  0  0  0
   -0.4880   21.7890  -28.1880 C   0  0  0  0  0  0  0  0  0  0  0  0
   -0.7510   20.5100  -27.6600 C   0  0  0  0  0  0  0  0  0  0  0  0
    0.2650   19.5610  -27.4670 O   0  0  0  0  0  0  0  0  0  0  0  0
    0.3490   18.3170  -28.1560 C   0  0  0  0  0  0  0  0  0  0  0  0
   -2.9419   18.6814  -24.8303 H   0  0  0  0  0  0  0  0  0  0  0  0
   -4.1789   19.2433  -26.0055 H   0  0  0  0  0  0  0  0  0  0  0  0
   -3.6551   17.5250  -26.0055 H   0  0  0  0  0  0  0  0  0  0  0  0
   -4.1398   20.8138  -27.2422 H   0  0  0  0  0  0  0  0  0  0  0  0
   -3.6603   23.0622  -28.1967 H   0  0  0  0  0  0  0  0  0  0  0  0
   -0.4483   24.5604  -28.4041 H   0  0  0  0  0  0  0  0  0  0  0  0
   -0.9265   23.9228  -30.0218 H   0  0  0  0  0  0  0  0  0  0  0  0
   -3.2049   24.5350  -28.2106 H   0  0  0  0  0  0  0  0  0  0  0  0
   -2.2230   25.9632  -28.6895 H   0  0  0  0  0  0  0  0  0  0  0  0
   -3.8188   23.0623  -32.0640 H   0  0  0  0  0  0  0  0  0  0  0  0
   -5.3961   19.8577  -32.6098 H   0  0  0  0  0  0  0  0  0  0  0  0
   -5.0792   21.0489  -33.9321 H   0  0  0  0  0  0  0  0  0  0  0  0
   -3.7370   20.3072  -30.4617 H   0  0  0  0  0  0  0  0  0  0  0  0
   -1.2897   20.2111  -29.9762 H   0  0  0  0  0  0  0  0  0  0  0  0
    0.3648   20.6089  -31.8031 H   0  0  0  0  0  0  0  0  0  0  0  0
   -0.4247   21.0894  -34.1204 H   0  0  0  0  0  0  0  0  0  0  0  0
   -2.8685   21.1913  -34.6148 H   0  0  0  0  0  0  0  0  0  0  0  0
   -8.1411   20.1038  -31.1386 H   0  0  0  0  0  0  0  0  0  0  0  0
   -8.6374   20.9485  -32.6441 H   0  0  0  0  0  0  0  0  0  0  0  0
   -7.1843   19.8925  -32.6441 H   0  0  0  0  0  0  0  0  0  0  0  0
   -8.5389   22.7151  -30.5572 H   0  0  0  0  0  0  0  0  0  0  0  0
    0.5411   22.0649  -28.4616 H   0  0  0  0  0  0  0  0  0  0  0  0
    0.4044   17.4963  -27.4256 H   0  0  0  0  0  0  0  0  0  0  0  0
   -0.5424   18.1865  -28.7872 H   0  0  0  0  0  0  0  0  0  0  0  0
    1.2498   18.3075  -28.7872 H   0  0  0  0  0  0  0  0  0  0  0  0
  1  2  1  0
  2  3  1  0
  3  4  2  0
  4  5  1  0
  5  6  2  0
  6  7  1  0
  7  8  1  0
  8  9  1  0
  9 10  1  0
 10 11  2  0
 10 12  1  0
 12 13  2  0
 13 14  1  0
 14 15  1  0
 15 16  1  0
 16 17  2  0
 17 18  1  0
 18 19  2  0
 19 20  1  0
 20 21  2  0
 14 22  1  0
 22 23  1  0
 22 24  2  0
 24 25  1  0
 25 26  2  0
  6 27  1  0
 27 28  2  0
 28 29  1  0
 29 30  1  0
 28  3  1  0
 25 12  1  0
 21 16  1  0
  1 31  1  0
  1 32  1  0
  1 33  1  0
  4 34  1  0
  5 35  1  0
  7 36  1  0
  7 37  1  0
  8 38  1  0
  8 39  1  0
 13 40  1  0
 15 41  1  0
 15 42  1  0
 17 43  1  0
 18 44  1  0
 19 45  1  0
 20 46  1  0
 21 47  1  0
 23 48  1  0
 23 49  1  0
 23 50  1  0
 24 51  1  0
 27 52  1  0
 30 53  1  0
 30 54  1  0
 30 55  1  0
M  CHG  1   9  -1
M  END
>  <UniqueID>  (20) 
19

>  <SMILES>  (20) 
COc1ccc(CC[N-]C(=O)c2cn(Cc3ccccc3)c(C)cc2=O)cc1OC

>  <Energy>  (20) 
60.127087148661914

>  <Genealogy>  (20) 
COc1ccc(CC[N-]C(=O)c2cn(Cc3ccccc3)c(C)cc2=O)cc1OC (protonated)
COc1ccc(CC[N-]C(=O)c2cn(Cc3ccccc3)c(C)cc2=O)cc1OC (3D coordinates assigned)
COc1ccc(CC[N-]C(=O)c2cn(Cc3ccccc3)c(C)cc2=O)cc1OC (optimized conformer: 60.127087148661914 kcal/mol)

>  <smiles>  (20) 
COc1ccc(CCNC(=O)c2cn(Cc3ccccc3)c(C)cc2=O)cc1OC

>  <score_type>  (20) 
oracle

>  <origin>  (20) 
adg

>  <m_score__min__energy>  (20) 
-9.7300000000000004

>  <m_primary>  (20) 
energy

$$$$
20:0
     RDKit          3D

 31 33  0  0  0  0  0  0  0  0999 V2000
   -2.4760   24.3030  -28.9310 C   0  0  0  0  0  0  0  0  0  0  0  0
   -3.2980   24.9420  -29.9030 O   0  0  0  0  0  0  0  0  0  0  0  0
   -4.5730   24.4970  -30.2970 C   0  0  0  0  0  0  0  0  0  0  0  0
   -5.7320   25.0970  -29.7750 C   0  0  0  0  0  0  0  0  0  0  0  0
   -7.2370   24.5290  -30.2780 S   0  0  0  0  0  0  0  0  0  0  0  0
   -7.0980   23.2560  -31.3760 C   0  0  0  0  0  0  0  0  0  0  0  0
   -8.3240   22.6400  -31.9820 C   0  0  0  0  0  0  0  0  0  0  0  0
   -8.3110   21.1950  -31.7710 N   0  0  0  0  0  0  0  0  0  0  0  0
   -9.1000   20.5560  -30.9100 N   0  0  0  0  0  0  0  0  0  0  0  0
   -8.9130   19.2420  -31.0040 N   0  0  0  0  0  0  0  0  0  0  0  0
   -7.9910   19.0440  -31.9600 C   0  0  0  0  0  0  0  0  0  0  0  0
   -7.4670   17.8520  -32.4500 C   0  0  0  0  0  0  0  0  0  0  0  0
   -6.5140   17.9440  -33.4840 C   0  0  0  0  0  0  0  0  0  0  0  0
   -6.1220   19.2070  -33.9910 C   0  0  0  0  0  0  0  0  0  0  0  0
   -6.6770   20.3910  -33.4690 C   0  0  0  0  0  0  0  0  0  0  0  0
   -7.6150   20.2600  -32.4440 C   0  0  0  0  0  0  0  0  0  0  0  0
   -5.8100   22.8550  -31.7400 C   0  0  0  0  0  0  0  0  0  0  0  0
   -4.6240   23.4310  -31.2330 C   0  0  0  0  0  0  0  0  0  0  0  0
   -3.5300   22.9600  -31.6480 O   0  0  0  0  0  0  0  0  0  0  0  0
   -2.8232   24.5729  -27.9227 H   0  0  0  0  0  0  0  0  0  0  0  0
   -2.5362   23.2122  -29.0598 H   0  0  0  0  0  0  0  0  0  0  0  0
   -1.4338   24.6304  -29.0598 H   0  0  0  0  0  0  0  0  0  0  0  0
   -5.6581   25.9222  -29.0514 H   0  0  0  0  0  0  0  0  0  0  0  0
   -9.2196   23.0695  -31.5093 H   0  0  0  0  0  0  0  0  0  0  0  0
   -8.3374   22.8479  -33.0621 H   0  0  0  0  0  0  0  0  0  0  0  0
   -9.4130   18.5200  -30.4390 H   0  0  0  0  0  0  0  0  0  0  0  0
   -7.7833   16.8785  -32.0472 H   0  0  0  0  0  0  0  0  0  0  0  0
   -6.0710   17.0275  -33.9007 H   0  0  0  0  0  0  0  0  0  0  0  0
   -5.3779   19.2634  -34.7992 H   0  0  0  0  0  0  0  0  0  0  0  0
   -6.3833   21.3789  -33.8534 H   0  0  0  0  0  0  0  0  0  0  0  0
   -5.7132   22.0371  -32.4692 H   0  0  0  0  0  0  0  0  0  0  0  0
  1  2  1  0
  2  3  1  0
  3  4  2  0
  4  5  1  0
  5  6  1  0
  6  7  1  0
  7  8  1  0
  8  9  1  0
  9 10  2  0
 10 11  1  0
 11 12  2  0
 12 13  1  0
 13 14  2  0
 14 15  1  0
 15 16  2  0
  6 17  2  0
 17 18  1  0
 18 19  2  0
 18  3  1  0
 16  8  1  0
 16 11  1  0
  1 20  1  0
  1 21  1  0
  1 22  1  0
  4 23  1  0
  7 24  1  0
  7 25  1  0
 10 26  1  0
 12 27  1  0
 13 28  1  0
 14 29  1  0
 15 30  1  0
 17 31  1  0
M  CHG  1  10   1
M  END
>  <UniqueID>  (21) 
20

>  <SMILES>  (21) 
COc1csc(Cn2n[nH+]c3ccccc32)cc1=O

>  <Energy>  (21) 
79.75712500686552

>  <Genealogy>  (21) 
COc1csc(Cn2n[nH+]c3ccccc32)cc1=O (protonated)
COc1csc(Cn2n[nH+]c3ccccc32)cc1=O (3D coordinates assigned)
COc1csc(Cn2n[nH+]c3ccccc32)cc1=O (optimized conformer: 79.75712500686552 kcal/mol)

>  <smiles>  (21) 
COc1csc(Cn2nnc3ccccc32)cc1=O

>  <score_type>  (21) 
oracle

>  <origin>  (21) 
adg

>  <m_score__min__energy>  (21) 
-7.9400000000000004

>  <m_primary>  (21) 
energy

$$$$
21:0
     RDKit          3D

 39 41  0  0  0  0  0  0  0  0999 V2000
   -1.5370   20.8155  -34.7509 H   0  0  0  0  0  0  0  0  0  0  0  0
   -1.8920   20.8370  -33.7100 C   0  0  0  0  0  0  0  0  0  0  0  0
   -3.2250   21.1540  -33.4330 C   0  0  0  0  0  0  0  0  0  0  0  0
   -3.9188   21.3758  -34.2573 H   0  0  0  0  0  0  0  0  0  0  0  0
   -3.6800   21.1900  -32.1070 C   0  0  0  0  0  0  0  0  0  0  0  0
   -5.0890   21.5230  -31.8240 C   0  0  0  0  0  0  0  0  0  0  0  0
   -6.1510   20.7290  -32.3180 C   0  0  0  0  0  0  0  0  0  0  0  0
   -7.4780   21.1430  -32.0730 C   0  0  0  0  0  0  0  0  0  0  0  0
   -7.7080   22.2890  -31.3020 C   0  0  0  0  0  0  0  0  0  0  0  0
   -8.7391   22.6165  -31.1027 H   0  0  0  0  0  0  0  0  0  0  0  0
   -6.6360   23.0180  -30.7850 C   0  0  0  0  0  0  0  0  0  0  0  0
   -6.8920   24.0760  -30.0660 N   0  0  0  0  0  0  0  0  0  0  0  0
   -5.9700   25.1080  -29.6900 C   0  0  0  0  0  0  0  0  0  0  0  0
   -6.4150   26.1650  -29.1710 O   0  0  0  0  0  0  0  0  0  0  0  0
   -4.5130   24.9190  -29.8020 C   0  0  0  0  0  0  0  0  0  0  0  0
   -3.8650   25.4780  -30.7250 O   0  0  0  0  0  0  0  0  0  0  0  0
   -3.8480   24.0980  -28.9000 O   0  0  0  0  0  0  0  0  0  0  0  0
   -5.3560   22.6310  -31.0750 N   0  0  0  0  0  0  0  0  0  0  0  0
   -4.5460   23.2080  -30.7580 H   0  0  0  0  0  0  0  0  0  0  0  0
   -8.6580   20.3420  -32.5920 C   0  0  0  0  0  0  0  0  0  0  0  0
   -8.5806   20.2971  -33.6884 H   0  0  0  0  0  0  0  0  0  0  0  0
   -9.5572   20.8624  -32.2306 H   0  0  0  0  0  0  0  0  0  0  0  0
   -8.7670   18.8850  -32.0600 C   0  0  0  0  0  0  0  0  0  0  0  0
   -9.7955   18.5349  -32.2320 H   0  0  0  0  0  0  0  0  0  0  0  0
   -8.4915   18.9248  -30.9958 H   0  0  0  0  0  0  0  0  0  0  0  0
   -7.8460   17.9230  -32.6880 N   0  0  0  0  0  0  0  0  0  0  0  0
   -8.0400   17.8210  -33.7120 H   0  0  0  0  0  0  0  0  0  0  0  0
   -6.4230   18.2160  -32.4410 C   0  0  0  0  0  0  0  0  0  0  0  0
   -5.8281   17.3600  -32.7923 H   0  0  0  0  0  0  0  0  0  0  0  0
   -6.3184   18.3913  -31.3601 H   0  0  0  0  0  0  0  0  0  0  0  0
   -5.9100   19.4840  -33.1480 C   0  0  0  0  0  0  0  0  0  0  0  0
   -6.4324   19.5911  -34.1101 H   0  0  0  0  0  0  0  0  0  0  0  0
   -4.8253   19.3771  -33.2963 H   0  0  0  0  0  0  0  0  0  0  0  0
   -2.7950   20.8860  -31.0590 C   0  0  0  0  0  0  0  0  0  0  0  0
   -3.2250   20.8820  -29.7720 F   0  0  0  0  0  0  0  0  0  0  0  0
   -1.4620   20.5690  -31.3410 C   0  0  0  0  0  0  0  0  0  0  0  0
   -0.7681   20.3364  -30.5198 H   0  0  0  0  0  0  0  0  0  0  0  0
   -1.0090   20.5470  -32.6640 C   0  0  0  0  0  0  0  0  0  0  0  0
    0.2840   20.2380  -32.9340 F   0  0  0  0  0  0  0  0  0  0  0  0
  1  2  1  0
  2  3  2  0
  3  4  1  0
  3  5  1  0
  5  6  1  0
  6  7  2  0
  7  8  1  0
  8  9  2  0
  9 10  1  0
  9 11  1  0
 11 12  2  0
 12 13  1  0
 13 14  2  0
 13 15  1  0
 15 16  2  0
 15 17  1  0
 11 18  1  0
 18 19  1  0
  8 20  1  0
 20 21  1  0
 20 22  1  0
 20 23  1  0
 23 24  1  0
 23 25  1  0
 23 26  1  0
 26 27  1  0
 26 28  1  0
 28 29  1  0
 28 30  1  0
 28 31  1  0
 31 32  1  0
 31 33  1  0
  5 34  2  0
 34 35  1  0
 34 36  1  0
 36 37  1  0
 36 38  2  0
 38 39  1  0
 38  2  1  0
 18  6  1  0
 31  7  1  0
M  CHG  1  17  -1
M  END
>  <UniqueID>  (22) 
21

>  <SMILES>  (22) 
O=C([O-])C(=O)/N=c1/cc2c(c(-c3ccc(F)cc3F)[nH]1)CCNCC2

>  <Energy>  (22) 
69.05215506983905

>  <Genealogy>  (22) 
O=C([O-])C(=O)N=c1cc2c(c(-c3ccc(F)cc3F)[nH]1)CCNCC2 (protonated)
O=C([O-])C(=O)/N=c1/cc2c(c(-c3ccc(F)cc3F)[nH]1)CCNCC2 (cis-trans isomerization)
O=C([O-])C(=O)/N=c1/cc2c(c(-c3ccc(F)cc3F)[nH]1)CCNCC2 (3D coordinates assigned)
O=C([O-])C(=O)/N=c1/cc2c(c(-c3ccc(F)cc3F)[nH]1)CCNCC2 (nonaromatic ring conformer: 69.05215506983905 kcal/mol)

>  <smiles>  (22) 
O=C(O)C(=O)N=c1cc2c(c(-c3ccc(F)cc3F)[nH]1)CCNCC2

>  <score_type>  (22) 
oracle

>  <origin>  (22) 
adg

>  <m_score__min__energy>  (22) 
-8.6199999999999992

>  <m_primary>  (22) 
energy

$$$$
22:0
     RDKit          3D

 30 31  0  0  0  0  0  0  0  0999 V2000
   -3.8500   25.3100  -30.5120 O   0  0  0  0  0  0  0  0  0  0  0  0
   -4.2090   24.1030  -30.4570 C   0  0  0  0  0  0  0  0  0  0  0  0
   -4.1380   23.3660  -29.1580 C   0  0  0  0  0  0  0  0  0  0  0  0
   -3.4400   24.2210  -28.0990 C   0  0  0  0  0  0  0  0  0  0  0  0
   -1.9980   23.9830  -28.1270 N   0  0  0  0  0  0  0  0  0  0  0  0
   -1.3450   22.7210  -27.8120 C   0  0  0  0  0  0  0  0  0  0  0  0
    0.1640   22.9670  -28.0630 C   0  0  0  0  0  0  0  0  0  0  0  0
    0.2870   24.3310  -28.5680 N   0  0  0  0  0  0  0  0  0  0  0  0
   -1.0100   24.8810  -28.5850 C   0  0  0  0  0  0  0  0  0  0  0  0
   -1.2570   26.0490  -28.9840 O   0  0  0  0  0  0  0  0  0  0  0  0
   -4.6930   23.4310  -31.6270 N   0  0  0  0  0  0  0  0  0  0  0  0
   -5.9160   22.6880  -31.7150 C   0  0  0  0  0  0  0  0  0  0  0  0
   -5.8950   21.4340  -32.3420 C   0  0  0  0  0  0  0  0  0  0  0  0
   -7.0680   20.6840  -32.4610 C   0  0  0  0  0  0  0  0  0  0  0  0
   -8.2750   21.1890  -31.9720 C   0  0  0  0  0  0  0  0  0  0  0  0
   -9.4130   20.4610  -32.0930 F   0  0  0  0  0  0  0  0  0  0  0  0
   -8.3120   22.4520  -31.3750 C   0  0  0  0  0  0  0  0  0  0  0  0
   -7.1420   23.2080  -31.2520 C   0  0  0  0  0  0  0  0  0  0  0  0
   -7.2210   24.4610  -30.7380 F   0  0  0  0  0  0  0  0  0  0  0  0
   -5.1574   23.1294  -28.8190 H   0  0  0  0  0  0  0  0  0  0  0  0
   -3.5643   22.4389  -29.3039 H   0  0  0  0  0  0  0  0  0  0  0  0
   -3.6367   25.2839  -28.3029 H   0  0  0  0  0  0  0  0  0  0  0  0
   -3.8289   23.9504  -27.1063 H   0  0  0  0  0  0  0  0  0  0  0  0
   -1.5212   22.4479  -26.7611 H   0  0  0  0  0  0  0  0  0  0  0  0
   -1.7331   21.8944  -28.4253 H   0  0  0  0  0  0  0  0  0  0  0  0
    0.7274   22.8577  -27.1246 H   0  0  0  0  0  0  0  0  0  0  0  0
    0.5697   22.2402  -28.7821 H   0  0  0  0  0  0  0  0  0  0  0  0
   -4.9499   21.0385  -32.7424 H   0  0  0  0  0  0  0  0  0  0  0  0
   -7.0408   19.6944  -32.9405 H   0  0  0  0  0  0  0  0  0  0  0  0
   -9.2653   22.8531  -31.0003 H   0  0  0  0  0  0  0  0  0  0  0  0
  1  2  2  0
  2  3  1  0
  3  4  1  0
  4  5  1  0
  5  6  1  0
  6  7  1  0
  7  8  1  0
  8  9  1  0
  9 10  2  0
  2 11  1  0
 11 12  1  0
 12 13  2  0
 13 14  1  0
 14 15  2  0
 15 16  1  0
 15 17  1  0
 17 18  2  0
 18 19  1  0
  9  5  1  0
 18 12  1  0
  3 20  1  0
  3 21  1  0
  4 22  1  0
  4 23  1  0
  6 24  1  0
  6 25  1  0
  7 26  1  0
  7 27  1  0
 13 28  1  0
 14 29  1  0
 17 30  1  0
M  CHG  2   8  -1  11  -1
M  END
>  <UniqueID>  (23) 
22

>  <SMILES>  (23) 
O=C(CCN1CC[N-]C1=O)[N-]c1ccc(F)cc1F

>  <Energy>  (23) 
42.59498399944548

>  <Genealogy>  (23) 
O=C(CCN1CC[N-]C1=O)[N-]c1ccc(F)cc1F (protonated)
O=C(CCN1CC[N-]C1=O)[N-]c1ccc(F)cc1F (3D coordinates assigned)
O=C(CCN1CC[N-]C1=O)[N-]c1ccc(F)cc1F (nonaromatic ring conformer: 42.59498399944548 kcal/mol)

>  <smiles>  (23) 
O=C(CCN1CCNC1=O)Nc1ccc(F)cc1F

>  <score_type>  (23) 
oracle

>  <origin>  (23) 
adg

>  <m_score__min__energy>  (23) 
-8.8699999999999992

>  <m_primary>  (23) 
energy

$$$$
23:0
     RDKit          3D

 27 28  0  0  0  0  0  0  0  0999 V2000
   -8.4720   18.5250  -31.6550 C   0  0  0  0  0  0  0  0  0  0  0  0
   -8.8360   19.8430  -32.0510 O   0  0  0  0  0  0  0  0  0  0  0  0
   -7.9900   20.9590  -31.9600 C   0  0  0  0  0  0  0  0  0  0  0  0
   -6.6730   20.9500  -32.4550 C   0  0  0  0  0  0  0  0  0  0  0  0
   -5.8680   22.0880  -32.3400 C   0  0  0  0  0  0  0  0  0  0  0  0
   -6.3680   23.2540  -31.7390 C   0  0  0  0  0  0  0  0  0  0  0  0
   -5.5290   24.4170  -31.5910 N   0  0  0  0  0  0  0  0  0  0  0  0
   -4.6280   24.2210  -30.4880 C   0  0  0  0  0  0  0  0  0  0  0  0
   -4.9180   23.2870  -29.4820 C   0  0  0  0  0  0  0  0  0  0  0  0
   -4.0280   23.1580  -28.4140 C   0  0  0  0  0  0  0  0  0  0  0  0
   -4.2560   22.3270  -27.4970 O   0  0  0  0  0  0  0  0  0  0  0  0
   -2.9140   23.9330  -28.3630 N   0  0  0  0  0  0  0  0  0  0  0  0
   -2.6490   24.8400  -29.3400 C   0  0  0  0  0  0  0  0  0  0  0  0
   -1.6140   25.5510  -29.2730 O   0  0  0  0  0  0  0  0  0  0  0  0
   -3.5030   24.9800  -30.3870 N   0  0  0  0  0  0  0  0  0  0  0  0
   -7.6810   23.2570  -31.2370 C   0  0  0  0  0  0  0  0  0  0  0  0
   -8.4840   22.1190  -31.3510 C   0  0  0  0  0  0  0  0  0  0  0  0
   -8.4550   18.4636  -30.5568 H   0  0  0  0  0  0  0  0  0  0  0  0
   -9.2056   17.8074  -32.0511 H   0  0  0  0  0  0  0  0  0  0  0  0
   -7.4741   18.2856  -32.0511 H   0  0  0  0  0  0  0  0  0  0  0  0
   -6.2746   20.0438  -32.9347 H   0  0  0  0  0  0  0  0  0  0  0  0
   -4.8369   22.0692  -32.7228 H   0  0  0  0  0  0  0  0  0  0  0  0
   -6.1190   25.2630  -31.4120 H   0  0  0  0  0  0  0  0  0  0  0  0
   -4.9910   24.5950  -32.4720 H   0  0  0  0  0  0  0  0  0  0  0  0
   -5.8270   22.6697  -29.5336 H   0  0  0  0  0  0  0  0  0  0  0  0
   -8.0787   24.1604  -30.7516 H   0  0  0  0  0  0  0  0  0  0  0  0
   -9.5118   22.1346  -30.9594 H   0  0  0  0  0  0  0  0  0  0  0  0
  1  2  1  0
  2  3  1  0
  3  4  2  0
  4  5  1  0
  5  6  2  0
  6  7  1  0
  7  8  1  0
  8  9  2  0
  9 10  1  0
 10 11  2  0
 10 12  1  0
 12 13  1  0
 13 14  2  0
 13 15  1  0
  6 16  1  0
 16 17  2  0
 17  3  1  0
 15  8  1  0
  1 18  1  0
  1 19  1  0
  1 20  1  0
  4 21  1  0
  5 22  1  0
  7 23  1  0
  7 24  1  0
  9 25  1  0
 16 26  1  0
 17 27  1  0
M  CHG  3   7   1  12  -1  15  -1
M  END
>  <UniqueID>  (24) 
23

>  <SMILES>  (24) 
COc1ccc([NH2+]c2cc(=O)[n-]c(=O)[n-]2)cc1

>  <Energy>  (24) 
29.65145514712549

>  <Genealogy>  (24) 
COc1ccc([NH2+]c2cc(=O)[n-]c(=O)[n-]2)cc1 (protonated)
COc1ccc([NH2+]c2cc(=O)[n-]c(=O)[n-]2)cc1 (3D coordinates assigned)
COc1ccc([NH2+]c2cc(=O)[n-]c(=O)[n-]2)cc1 (optimized conformer: 29.65145514712549 kcal/mol)

>  <smiles>  (24) 
COc1ccc(Nc2cc(=O)[nH]c(=O)[nH]2)cc1

>  <score_type>  (24) 
oracle

>  <origin>  (24) 
adg

>  <m_score__min__energy>  (24) 
-7.54

>  <m_primary>  (24) 
energy

$$$$
24:0
     RDKit          3D

 47 48  0  0  0  0  0  0  0  0999 V2000
   -3.8230   24.6250  -26.6730 C   0  0  0  0  0  0  0  0  0  0  0  0
   -3.6040   24.3280  -28.1630 C   0  0  1  0  0  0  0  0  0  0  0  0
   -2.8350   23.0030  -28.3930 C   0  0  0  0  0  0  0  0  0  0  0  0
   -3.6070   21.9010  -29.1480 C   0  0  0  0  0  0  0  0  0  0  0  0
   -3.1270   21.7040  -30.5640 C   0  0  0  0  0  0  0  0  0  0  0  0
   -1.7640   21.4820  -30.8240 C   0  0  0  0  0  0  0  0  0  0  0  0
   -1.3190   21.2860  -32.1340 C   0  0  0  0  0  0  0  0  0  0  0  0
   -2.2280   21.3080  -33.1940 C   0  0  0  0  0  0  0  0  0  0  0  0
   -3.5860   21.5310  -32.9460 C   0  0  0  0  0  0  0  0  0  0  0  0
   -4.0360   21.7260  -31.6370 C   0  0  0  0  0  0  0  0  0  0  0  0
   -4.8800   24.3390  -28.8850 N   0  0  0  0  0  0  0  0  0  0  0  0
   -4.9900   24.7550  -30.2540 C   0  0  0  0  0  0  0  0  0  0  0  0
   -4.0040   25.2670  -30.8480 O   0  0  0  0  0  0  0  0  0  0  0  0
   -6.2940   24.6050  -30.9750 C   0  0  0  0  0  0  0  0  0  0  0  0
   -6.9390   23.2520  -30.6510 C   0  0  0  0  0  0  0  0  0  0  0  0
   -7.9500   22.8220  -31.7240 C   0  0  0  0  0  0  0  0  0  0  0  0
   -7.8820   21.3410  -32.0010 C   0  0  0  0  0  0  0  0  0  0  0  0
   -6.8870   20.8190  -32.8450 C   0  0  0  0  0  0  0  0  0  0  0  0
   -6.8090   19.4410  -33.0730 C   0  0  0  0  0  0  0  0  0  0  0  0
   -7.7140   18.5760  -32.4540 C   0  0  0  0  0  0  0  0  0  0  0  0
   -8.7030   19.0870  -31.6090 C   0  0  0  0  0  0  0  0  0  0  0  0
   -8.7880   20.4640  -31.3810 C   0  0  0  0  0  0  0  0  0  0  0  0
   -3.2779   23.8857  -26.0678 H   0  0  0  0  0  0  0  0  0  0  0  0
   -3.4512   25.6341  -26.4417 H   0  0  0  0  0  0  0  0  0  0  0  0
   -4.8969   24.5680  -26.4417 H   0  0  0  0  0  0  0  0  0  0  0  0
   -2.9702   25.1308  -28.5676 H   0  0  0  0  0  0  0  0  0  0  0  0
   -1.9277   23.2351  -28.9699 H   0  0  0  0  0  0  0  0  0  0  0  0
   -2.6359   22.5953  -27.3909 H   0  0  0  0  0  0  0  0  0  0  0  0
   -3.4863   20.9533  -28.6028 H   0  0  0  0  0  0  0  0  0  0  0  0
   -4.6596   22.2161  -29.2002 H   0  0  0  0  0  0  0  0  0  0  0  0
   -1.0441   21.4624  -29.9925 H   0  0  0  0  0  0  0  0  0  0  0  0
   -0.2505   21.1140  -32.3307 H   0  0  0  0  0  0  0  0  0  0  0  0
   -1.8757   21.1499  -34.2240 H   0  0  0  0  0  0  0  0  0  0  0  0
   -4.3008   21.5530  -33.7818 H   0  0  0  0  0  0  0  0  0  0  0  0
   -5.1055   21.8974  -31.4453 H   0  0  0  0  0  0  0  0  0  0  0  0
   -5.7530   24.0510  -28.3860 H   0  0  0  0  0  0  0  0  0  0  0  0
   -6.9733   25.4126  -30.6647 H   0  0  0  0  0  0  0  0  0  0  0  0
   -6.1080   24.6583  -32.0578 H   0  0  0  0  0  0  0  0  0  0  0  0
   -6.1489   22.4898  -30.5824 H   0  0  0  0  0  0  0  0  0  0  0  0
   -7.4792   23.3539  -29.6982 H   0  0  0  0  0  0  0  0  0  0  0  0
   -8.9636   23.0727  -31.3781 H   0  0  0  0  0  0  0  0  0  0  0  0
   -7.7052   23.3541  -32.6551 H   0  0  0  0  0  0  0  0  0  0  0  0
   -6.1671   21.4962  -33.3279 H   0  0  0  0  0  0  0  0  0  0  0  0
   -6.0335   19.0381  -33.7410 H   0  0  0  0  0  0  0  0  0  0  0  0
   -7.6484   17.4924  -32.6315 H   0  0  0  0  0  0  0  0  0  0  0  0
   -9.4157   18.4048  -31.1225 H   0  0  0  0  0  0  0  0  0  0  0  0
   -9.5668   20.8620  -30.7140 H   0  0  0  0  0  0  0  0  0  0  0  0
  1  2  1  0
  2  3  1  0
  3  4  1  0
  4  5  1  0
  5  6  2  0
  6  7  1  0
  7  8  2  0
  8  9  1  0
  9 10  2  0
  2 11  1  0
 11 12  1  0
 12 13  2  0
 12 14  1  0
 14 15  1  0
 15 16  1  0
 16 17  1  0
 17 18  2  0
 18 19  1  0
 19 20  2  0
 20 21  1  0
 21 22  2  0
 10  5  1  0
 22 17  1  0
  1 23  1  0
  1 24  1  0
  1 25  1  0
  2 26  1  6
  3 27  1  0
  3 28  1  0
  4 29  1  0
  4 30  1  0
  6 31  1  0
  7 32  1  0
  8 33  1  0
  9 34  1  0
 10 35  1  0
 11 36  1  0
 14 37  1  0
 14 38  1  0
 15 39  1  0
 15 40  1  0
 16 41  1  0
 16 42  1  0
 18 43  1  0
 19 44  1  0
 20 45  1  0
 21 46  1  0
 22 47  1  0
M  END
>  <UniqueID>  (25) 
24

>  <SMILES>  (25) 
C[C@@H](CCc1ccccc1)NC(=O)CCCc1ccccc1

>  <Energy>  (25) 
30.764239460620413

>  <Genealogy>  (25) 
C[C@@H](CCc1ccccc1)NC(=O)CCCc1ccccc1 (chirality)
C[C@@H](CCc1ccccc1)NC(=O)CCCc1ccccc1 (3D coordinates assigned)
C[C@@H](CCc1ccccc1)NC(=O)CCCc1ccccc1 (optimized conformer: 30.764239460620413 kcal/mol)

>  <smiles>  (25) 
CC(CCc1ccccc1)NC(=O)CCCc1ccccc1

>  <score_type>  (25) 
oracle

>  <origin>  (25) 
adg

>  <m_score__min__energy>  (25) 
-8.8800000000000008

>  <m_primary>  (25) 
energy

$$$$
25:0
     RDKit          3D

 73 79  0  0  0  0  0  0  0  0999 V2000
   -6.4980   16.2470  -33.7060 C   0  0  0  0  0  0  0  0  0  0  0  0
   -5.5480   16.7270  -34.6510 O   0  0  0  0  0  0  0  0  0  0  0  0
   -4.2170   17.0540  -34.3460 C   0  0  0  0  0  0  0  0  0  0  0  0
   -3.1320   16.3070  -34.8420 C   0  0  0  0  0  0  0  0  0  0  0  0
   -1.8220   16.6620  -34.5170 C   0  0  0  0  0  0  0  0  0  0  0  0
   -1.5610   17.7700  -33.7000 C   0  0  0  0  0  0  0  0  0  0  0  0
   -0.1150   18.1470  -33.3910 C   0  0  2  0  0  0  0  0  0  0  0  0
    0.1340   18.3160  -31.8920 C   0  0  0  0  0  0  0  0  0  0  0  0
    0.1330   17.1610  -31.0800 C   0  0  0  0  0  0  0  0  0  0  0  0
    0.3340   17.3120  -29.7160 C   0  0  0  0  0  0  0  0  0  0  0  0
    0.5290   18.5250  -29.1460 C   0  0  0  0  0  0  0  0  0  0  0  0
    0.5400   19.6980  -29.8900 C   0  0  0  0  0  0  0  0  0  0  0  0
    0.3240   19.6170  -31.2850 C   0  0  0  0  0  0  0  0  0  0  0  0
    0.3930   20.9030  -32.1130 C   0  0  2  0  0  0  0  0  0  0  0  0
   -0.3320   21.9270  -31.4480 O   0  0  0  0  0  0  0  0  0  0  0  0
   -1.6000   21.4720  -31.0070 C   0  0  2  0  0  0  0  0  0  0  0  0
   -2.5930   21.9190  -31.9340 O   0  0  0  0  0  0  0  0  0  0  0  0
   -3.7810   22.3410  -31.3010 C   0  0  2  0  0  0  0  0  0  0  0  0
   -4.8760   22.6630  -32.3310 C   0  0  0  0  0  0  0  0  0  0  0  0
   -5.3720   23.9860  -32.2010 O   0  0  0  0  0  0  0  0  0  0  0  0
   -5.7060   24.3190  -30.8510 C   0  0  1  0  0  0  0  0  0  0  0  0
   -7.0320   23.6760  -30.4370 C   0  0  0  0  0  0  0  0  0  0  0  0
   -4.6990   24.0180  -29.8820 O   0  0  0  0  0  0  0  0  0  0  0  0
   -3.4970   23.6050  -30.4930 C   0  0  1  0  0  0  0  0  0  0  0  0
   -2.3880   23.3640  -29.4380 C   0  0  2  0  0  0  0  0  0  0  0  0
   -1.3680   24.3170  -29.6210 O   0  0  0  0  0  0  0  0  0  0  0  0
   -1.7870   21.9410  -29.5250 C   0  0  1  0  0  0  0  0  0  0  0  0
   -2.6190   21.0450  -28.8300 O   0  0  0  0  0  0  0  0  0  0  0  0
   -0.2430   20.6620  -33.4870 C   0  0  1  0  0  0  0  0  0  0  0  0
   -0.0870   21.7320  -34.5760 C   0  0  0  0  0  0  0  0  0  0  0  0
   -0.1940   20.9890  -35.7860 O   0  0  0  0  0  0  0  0  0  0  0  0
    0.0350   19.6460  -35.5450 C   0  0  0  0  0  0  0  0  0  0  0  0
    0.0780   18.7770  -36.4560 O   0  0  0  0  0  0  0  0  0  0  0  0
    0.3640   19.4170  -34.1210 C   0  0  2  0  0  0  0  0  0  0  0  0
    0.7040   18.3710  -27.7840 O   0  0  0  0  0  0  0  0  0  0  0  0
    0.6130   16.9710  -27.4810 C   0  0  0  0  0  0  0  0  0  0  0  0
    0.3740   16.3320  -28.7420 O   0  0  0  0  0  0  0  0  0  0  0  0
   -2.6490   18.5120  -33.1980 C   0  0  0  0  0  0  0  0  0  0  0  0
   -3.9740   18.1580  -33.5160 C   0  0  0  0  0  0  0  0  0  0  0  0
   -5.0750   18.8800  -33.0250 O   0  0  0  0  0  0  0  0  0  0  0  0
   -5.9570   19.6510  -33.8330 C   0  0  0  0  0  0  0  0  0  0  0  0
   -6.1282   16.4339  -32.6870 H   0  0  0  0  0  0  0  0  0  0  0  0
   -7.4550   16.7697  -33.8503 H   0  0  0  0  0  0  0  0  0  0  0  0
   -6.6450   15.1665  -33.8503 H   0  0  0  0  0  0  0  0  0  0  0  0
   -3.3178   15.4378  -35.4900 H   0  0  0  0  0  0  0  0  0  0  0  0
   -0.9845   16.0649  -34.9068 H   0  0  0  0  0  0  0  0  0  0  0  0
    0.4716   17.2961  -33.7676 H   0  0  0  0  0  0  0  0  0  0  0  0
   -0.0235   16.1646  -31.5189 H   0  0  0  0  0  0  0  0  0  0  0  0
    0.7131   20.6695  -29.4041 H   0  0  0  0  0  0  0  0  0  0  0  0
    1.4445   21.2021  -32.2353 H   0  0  0  0  0  0  0  0  0  0  0  0
   -1.6948   20.3762  -30.9920 H   0  0  0  0  0  0  0  0  0  0  0  0
   -4.1299   21.5258  -30.6500 H   0  0  0  0  0  0  0  0  0  0  0  0
   -4.4573   22.5408  -33.3408 H   0  0  0  0  0  0  0  0  0  0  0  0
   -5.7142   21.9729  -32.1546 H   0  0  0  0  0  0  0  0  0  0  0  0
   -5.7971   25.4152  -30.8564 H   0  0  0  0  0  0  0  0  0  0  0  0
   -7.0972   23.6444  -29.3394 H   0  0  0  0  0  0  0  0  0  0  0  0
   -7.8677   24.2689  -30.8371 H   0  0  0  0  0  0  0  0  0  0  0  0
   -7.0839   22.6526  -30.8371 H   0  0  0  0  0  0  0  0  0  0  0  0
   -3.1276   24.3956  -31.1627 H   0  0  0  0  0  0  0  0  0  0  0  0
   -2.8443   23.4643  -28.4421 H   0  0  0  0  0  0  0  0  0  0  0  0
   -0.7960   23.9930  -30.3660 H   0  0  0  0  0  0  0  0  0  0  0  0
   -0.7880   21.9606  -29.0651 H   0  0  0  0  0  0  0  0  0  0  0  0
   -3.4910   21.5000  -28.6930 H   0  0  0  0  0  0  0  0  0  0  0  0
   -1.3091   20.6188  -33.2195 H   0  0  0  0  0  0  0  0  0  0  0  0
   -0.8853   22.4855  -34.5048 H   0  0  0  0  0  0  0  0  0  0  0  0
    0.8572   22.2908  -34.4971 H   0  0  0  0  0  0  0  0  0  0  0  0
    1.4472   19.2449  -34.0364 H   0  0  0  0  0  0  0  0  0  0  0  0
    1.5523   16.6099  -27.0367 H   0  0  0  0  0  0  0  0  0  0  0  0
   -0.1831   16.7573  -26.7526 H   0  0  0  0  0  0  0  0  0  0  0  0
   -2.4603   19.3797  -32.5488 H   0  0  0  0  0  0  0  0  0  0  0  0
   -6.6276   20.2372  -33.1875 H   0  0  0  0  0  0  0  0  0  0  0  0
   -5.3715   20.3321  -34.4680 H   0  0  0  0  0  0  0  0  0  0  0  0
   -6.5537   18.9797  -34.4680 H   0  0  0  0  0  0  0  0  0  0  0  0
  1  2  1  0
  2  3  1  0
  3  4  2  0
  4  5  1  0
  5  6  2  0
  6  7  1  0
  7  8  1  0
  8  9  2  0
  9 10  1  0
 10 11  2  0
 11 12  1  0
 12 13  2  0
 13 14  1  0
 14 15  1  0
 15 16  1  0
 16 17  1  0
 17 18  1  0
 18 19  1  0
 19 20  1  0
 20 21  1  0
 21 22  1  0
 21 23  1  0
 23 24  1  0
 24 25  1  0
 25 26  1  0
 25 27  1  0
 27 28  1  0
 14 29  1  0
 29 30  1  0
 30 31  1  0
 31 32  1  0
 32 33  2  0
 32 34  1  0
 11 35  1  0
 35 36  1  0
 36 37  1  0
  6 38  1  0
 38 39  2  0
 39 40  1  0
 40 41  1  0
 39  3  1  0
 34  7  1  0
 13  8  1  0
 27 16  1  0
 34 29  1  0
 37 10  1  0
 24 18  1  0
  1 42  1  0
  1 43  1  0
  1 44  1  0
  4 45  1  0
  5 46  1  0
  7 47  1  6
  9 48  1  0
 12 49  1  0
 14 50  1  6
 16 51  1  1
 18 52  1  1
 19 53  1  0
 19 54  1  0
 21 55  1  6
 22 56  1  0
 22 57  1  0
 22 58  1  0
 24 59  1  6
 25 60  1  1
 26 61  1  0
 27 62  1  1
 28 63  1  0
 29 64  1  1
 30 65  1  0
 30 66  1  0
 34 67  1  6
 36 68  1  0
 36 69  1  0
 38 70  1  0
 41 71  1  0
 41 72  1  0
 41 73  1  0
M  END
>  <UniqueID>  (26) 
25

>  <SMILES>  (26) 
COc1ccc([C@@H]2c3cc4c(cc3[C@H](OC3OC5COC(C)OC5C(O)C3O)C3COC(=O)C32)OCO4)cc1OC

>  <Energy>  (26) 
159.52134294108794

>  <Genealogy>  (26) 
COc1ccc([C@@H]2c3cc4c(cc3[C@H](OC3OC5COC(C)OC5C(O)C3O)C3COC(=O)C32)OCO4)cc1OC (chirality)
COc1ccc([C@@H]2c3cc4c(cc3[C@H](OC3OC5COC(C)OC5C(O)C3O)C3COC(=O)C32)OCO4)cc1OC (3D coordinates assigned)
COc1ccc([C@@H]2c3cc4c(cc3[C@H](OC3OC5COC(C)OC5C(O)C3O)C3COC(=O)C32)OCO4)cc1OC (nonaromatic ring conformer: 159.52134294108794 kcal/mol)

>  <smiles>  (26) 
COc1ccc(C2c3cc4c(cc3C(OC3OC5COC(C)OC5C(O)C3O)C3COC(=O)C23)OCO4)cc1OC

>  <score_type>  (26) 
oracle

>  <origin>  (26) 
adg

>  <m_score__min__energy>  (26) 
-9.5600000000000005

>  <m_primary>  (26) 
energy

$$$$
26:0
     RDKit          3D

 53 55  0  0  0  0  0  0  0  0999 V2000
   -4.6100   24.9090  -26.1120 C   0  0  0  0  0  0  0  0  0  0  0  0
   -3.3100   24.6820  -26.8410 C   0  0  0  0  0  0  0  0  0  0  0  0
   -2.1500   25.1230  -26.2630 N   0  0  0  0  0  0  0  0  0  0  0  0
   -0.9710   24.9020  -26.8880 C   0  0  0  0  0  0  0  0  0  0  0  0
    0.2950   25.2530  -26.4790 C   0  0  0  0  0  0  0  0  0  0  0  0
    0.6980   26.0050  -25.2530 C   0  0  0  0  0  0  0  0  0  0  0  0
    1.1150   24.7840  -27.4980 C   0  0  0  0  0  0  0  0  0  0  0  0
    0.3620   24.1820  -28.4500 N   0  0  0  0  0  0  0  0  0  0  0  0
   -0.9010   24.2660  -28.0590 N   0  0  0  0  0  0  0  0  0  0  0  0
   -1.9980   23.7960  -28.7110 C   0  0  0  0  0  0  0  0  0  0  0  0
   -1.8420   23.0480  -30.0140 C   0  0  0  0  0  0  0  0  0  0  0  0
   -3.2680   23.9890  -28.0940 C   0  0  0  0  0  0  0  0  0  0  0  0
   -4.5460   23.5080  -28.7590 C   0  0  0  0  0  0  0  0  0  0  0  0
   -5.0640   24.6050  -30.0820 S   0  0  0  0  0  0  0  0  0  0  0  0
   -3.8620   25.2590  -30.7090 O   0  0  0  0  0  0  0  0  0  0  0  0
   -5.9380   25.6690  -29.4800 O   0  0  0  0  0  0  0  0  0  0  0  0
   -5.9570   23.6590  -31.3280 C   0  0  0  0  0  0  0  0  0  0  0  0
   -5.8620   22.1160  -31.2150 C   0  0  0  0  0  0  0  0  0  0  0  0
   -4.5980   21.5120  -31.8810 C   0  0  0  0  0  0  0  0  0  0  0  0
   -4.9060   20.7510  -33.1770 C   0  0  0  0  0  0  0  0  0  0  0  0
   -5.9410   19.7250  -32.9560 N   0  0  0  0  0  0  0  0  0  0  0  0
   -5.9610   18.5580  -33.8080 C   0  0  0  0  0  0  0  0  0  0  0  0
   -5.3340   18.5780  -34.9040 O   0  0  0  0  0  0  0  0  0  0  0  0
   -6.7250   17.3150  -33.4390 C   0  0  0  0  0  0  0  0  0  0  0  0
   -6.8390   16.4770  -34.5330 F   0  0  0  0  0  0  0  0  0  0  0  0
   -7.9970   17.6510  -33.0070 F   0  0  0  0  0  0  0  0  0  0  0  0
   -6.0720   16.6540  -32.4140 F   0  0  0  0  0  0  0  0  0  0  0  0
   -6.9480   19.9170  -31.8980 C   0  0  0  0  0  0  0  0  0  0  0  0
   -7.1740   21.4070  -31.6240 C   0  0  0  0  0  0  0  0  0  0  0  0
   -4.4322   24.8779  -25.0269 H   0  0  0  0  0  0  0  0  0  0  0  0
   -5.0187   25.8921  -26.3886 H   0  0  0  0  0  0  0  0  0  0  0  0
   -5.3277   24.1226  -26.3886 H   0  0  0  0  0  0  0  0  0  0  0  0
   -2.1650   25.6200  -25.3440 H   0  0  0  0  0  0  0  0  0  0  0  0
    0.3948   25.4393  -24.3597 H   0  0  0  0  0  0  0  0  0  0  0  0
    1.7896   26.1405  -25.2482 H   0  0  0  0  0  0  0  0  0  0  0  0
    0.2063   26.9890  -25.2482 H   0  0  0  0  0  0  0  0  0  0  0  0
    2.2099   24.8860  -27.5273 H   0  0  0  0  0  0  0  0  0  0  0  0
   -1.6215   21.9907  -29.8057 H   0  0  0  0  0  0  0  0  0  0  0  0
   -2.7747   23.1209  -30.5926 H   0  0  0  0  0  0  0  0  0  0  0  0
   -1.0162   23.4877  -30.5926 H   0  0  0  0  0  0  0  0  0  0  0  0
   -4.3745   22.5044  -29.1754 H   0  0  0  0  0  0  0  0  0  0  0  0
   -5.3409   23.4906  -27.9988 H   0  0  0  0  0  0  0  0  0  0  0  0
   -7.0196   23.9355  -31.2613 H   0  0  0  0  0  0  0  0  0  0  0  0
   -5.4818   23.9134  -32.2869 H   0  0  0  0  0  0  0  0  0  0  0  0
   -5.7294   21.9096  -30.1427 H   0  0  0  0  0  0  0  0  0  0  0  0
   -3.8997   22.3297  -32.1127 H   0  0  0  0  0  0  0  0  0  0  0  0
   -4.1665   20.7905  -31.1716 H   0  0  0  0  0  0  0  0  0  0  0  0
   -5.2622   21.4631  -33.9359 H   0  0  0  0  0  0  0  0  0  0  0  0
   -3.9862   20.2523  -33.5167 H   0  0  0  0  0  0  0  0  0  0  0  0
   -7.8970   19.4612  -32.2168 H   0  0  0  0  0  0  0  0  0  0  0  0
   -6.5845   19.4407  -30.9755 H   0  0  0  0  0  0  0  0  0  0  0  0
   -7.5674   21.8818  -32.5349 H   0  0  0  0  0  0  0  0  0  0  0  0
   -7.8886   21.4995  -30.7928 H   0  0  0  0  0  0  0  0  0  0  0  0
  1  2  1  0
  2  3  2  0
  3  4  1  0
  4  5  2  0
  5  6  1  0
  5  7  1  0
  7  8  2  0
  8  9  1  0
  9 10  1  0
 10 11  1  0
 10 12  2  0
 12 13  1  0
 13 14  1  0
 14 15  2  0
 14 16  2  0
 14 17  1  0
 17 18  1  0
 18 19  1  0
 19 20  1  0
 20 21  1  0
 21 22  1  0
 22 23  2  0
 22 24  1  0
 24 25  1  0
 24 26  1  0
 24 27  1  0
 21 28  1  0
 28 29  1  0
 12  2  1  0
 29 18  1  0
  9  4  1  0
  1 30  1  0
  1 31  1  0
  1 32  1  0
  3 33  1  0
  6 34  1  0
  6 35  1  0
  6 36  1  0
  7 37  1  0
 11 38  1  0
 11 39  1  0
 11 40  1  0
 13 41  1  0
 13 42  1  0
 17 43  1  0
 17 44  1  0
 18 45  1  0
 19 46  1  0
 19 47  1  0
 20 48  1  0
 20 49  1  0
 28 50  1  0
 28 51  1  0
 29 52  1  0
 29 53  1  0
M  CHG  1   3   1
M  END
>  <UniqueID>  (27) 
26

>  <SMILES>  (27) 
Cc1[nH+]c2c(C)cnn2c(C)c1CS(=O)(=O)CC1CCN(C(=O)C(F)(F)F)CC1

>  <Energy>  (27) 
90.85723400642011

>  <Genealogy>  (27) 
Cc1[nH+]c2c(C)cnn2c(C)c1CS(=O)(=O)CC1CCN(C(=O)C(F)(F)F)CC1 (protonated)
Cc1[nH+]c2c(C)cnn2c(C)c1CS(=O)(=O)CC1CCN(C(=O)C(F)(F)F)CC1 (3D coordinates assigned)
Cc1[nH+]c2c(C)cnn2c(C)c1CS(=O)(=O)CC1CCN(C(=O)C(F)(F)F)CC1 (nonaromatic ring conformer: 90.85723400642011 kcal/mol)

>  <smiles>  (27) 
Cc1nc2c(C)cnn2c(C)c1CS(=O)(=O)CC1CCN(C(=O)C(F)(F)F)CC1

>  <score_type>  (27) 
oracle

>  <origin>  (27) 
adg

>  <m_score__min__energy>  (27) 
-9.75

>  <m_primary>  (27) 
energy

$$$$
27:0
     RDKit          3D

 39 42  0  0  0  0  0  0  0  0999 V2000
   -0.4511   25.1152  -23.2221 H   0  0  0  0  0  0  0  0  0  0  0  0
   -0.5790   25.0040  -24.3090 C   0  0  0  0  0  0  0  0  0  0  0  0
   -0.8530   26.1220  -25.0970 C   0  0  0  0  0  0  0  0  0  0  0  0
   -0.9495   27.1129  -24.6292 H   0  0  0  0  0  0  0  0  0  0  0  0
   -1.0050   25.9860  -26.4780 C   0  0  0  0  0  0  0  0  0  0  0  0
   -1.2328   26.8697  -27.0921 H   0  0  0  0  0  0  0  0  0  0  0  0
   -0.8690   24.7280  -27.0890 C   0  0  0  0  0  0  0  0  0  0  0  0
   -1.0130   24.6310  -28.5590 C   0  0  0  0  0  0  0  0  0  0  0  0
   -0.0930   24.0860  -29.2230 O   0  0  0  0  0  0  0  0  0  0  0  0
   -2.1440   25.1670  -29.2640 N   0  0  0  0  0  0  0  0  0  0  0  0
   -3.1090   24.4950  -29.8220 C   0  0  0  0  0  0  0  0  0  0  0  0
   -4.1580   25.1170  -30.4130 N   0  0  0  0  0  0  0  0  0  0  0  0
   -5.0200   24.2170  -30.9500 C   0  0  0  0  0  0  0  0  0  0  0  0
   -6.2070   24.5590  -31.6240 C   0  0  0  0  0  0  0  0  0  0  0  0
   -6.4932   25.6140  -31.7468 H   0  0  0  0  0  0  0  0  0  0  0  0
   -7.0250   23.5330  -32.1400 C   0  0  0  0  0  0  0  0  0  0  0  0
   -7.9586   23.7717  -32.6705 H   0  0  0  0  0  0  0  0  0  0  0  0
   -6.6220   22.2010  -31.9620 C   0  0  0  0  0  0  0  0  0  0  0  0
   -7.3870   20.7900  -32.4620 S   0  0  0  0  0  0  0  0  0  0  0  0
   -6.1770   19.8000  -31.8020 C   0  0  0  0  0  0  0  0  0  0  0  0
   -6.1740   18.3340  -31.8580 C   0  0  0  0  0  0  0  0  0  0  0  0
   -6.0310   17.6650  -30.7980 O   0  0  0  0  0  0  0  0  0  0  0  0
   -6.3300   17.6890  -33.0880 O   0  0  0  0  0  0  0  0  0  0  0  0
   -5.9380   18.2810  -34.3220 C   0  0  0  0  0  0  0  0  0  0  0  0
   -5.9266   19.3758  -34.2157 H   0  0  0  0  0  0  0  0  0  0  0  0
   -6.6525   17.9952  -35.1080 H   0  0  0  0  0  0  0  0  0  0  0  0
   -4.5490   17.7950  -34.7010 C   0  0  0  0  0  0  0  0  0  0  0  0
   -3.9697   17.5923  -33.7881 H   0  0  0  0  0  0  0  0  0  0  0  0
   -4.6325   16.8727  -35.2946 H   0  0  0  0  0  0  0  0  0  0  0  0
   -4.0393   18.5682  -35.2946 H   0  0  0  0  0  0  0  0  0  0  0  0
   -5.2000   20.5310  -31.2070 N   0  0  0  0  0  0  0  0  0  0  0  0
   -4.3600   20.1220  -30.7380 H   0  0  0  0  0  0  0  0  0  0  0  0
   -5.4510   21.8620  -31.2980 C   0  0  0  0  0  0  0  0  0  0  0  0
   -4.6520   22.8830  -30.7930 C   0  0  0  0  0  0  0  0  0  0  0  0
   -3.1980   22.8000  -29.9600 S   0  0  0  0  0  0  0  0  0  0  0  0
   -0.6170   23.5930  -26.2840 C   0  0  0  0  0  0  0  0  0  0  0  0
   -0.5380   21.8160  -27.0050 Br  0  0  0  0  0  0  0  0  0  0  0  0
   -0.4670   23.7430  -24.9000 C   0  0  0  0  0  0  0  0  0  0  0  0
   -0.2597   22.8625  -24.2741 H   0  0  0  0  0  0  0  0  0  0  0  0
  1  2  1  0
  2  3  2  0
  3  4  1  0
  3  5  1  0
  5  6  1  0
  5  7  2  0
  7  8  1  0
  8  9  2  0
  8 10  1  0
 10 11  2  0
 11 12  1  0
 12 13  1  0
 13 14  2  0
 14 15  1  0
 14 16  1  0
 16 17  1  0
 16 18  2  0
 18 19  1  0
 19 20  1  0
 20 21  1  0
 21 22  2  0
 21 23  1  0
 23 24  1  0
 24 25  1  0
 24 26  1  0
 24 27  1  0
 27 28  1  0
 27 29  1  0
 27 30  1  0
 20 31  2  0
 31 32  1  0
 31 33  1  0
 33 34  2  0
 34 35  1  0
  7 36  1  0
 36 37  1  0
 36 38  2  0
 38 39  1  0
 38  2  1  0
 35 11  1  0
 34 13  1  0
 33 18  1  0
M  CHG  2  12  -1  31   1
M  END
>  <UniqueID>  (28) 
27

>  <SMILES>  (28) 
CCOC(=O)c1[nH+]c2c(ccc3[n-]/c(=N/C(=O)c4ccccc4Br)sc32)s1

>  <Energy>  (28) 
118.12794880319575

>  <Genealogy>  (28) 
CCOC(=O)c1[nH+]c2c(ccc3[n-]c(=NC(=O)c4ccccc4Br)sc32)s1 (protonated)
CCOC(=O)c1[nH+]c2c(ccc3[n-]/c(=N/C(=O)c4ccccc4Br)sc32)s1 (cis-trans isomerization)
CCOC(=O)c1[nH+]c2c(ccc3[n-]/c(=N/C(=O)c4ccccc4Br)sc32)s1 (3D coordinates assigned)
CCOC(=O)c1[nH+]c2c(ccc3[n-]/c(=N/C(=O)c4ccccc4Br)sc32)s1 (optimized conformer: 118.12794880319575 kcal/mol)

>  <smiles>  (28) 
CCOC(=O)c1nc2c(ccc3[nH]c(=NC(=O)c4ccccc4Br)sc32)s1

>  <score_type>  (28) 
oracle

>  <origin>  (28) 
adg

>  <m_score__min__energy>  (28) 
-9.9700000000000006

>  <m_primary>  (28) 
energy

$$$$
28:0
     RDKit          3D

 53 56  0  0  0  0  0  0  0  0999 V2000
    1.0310   16.0210  -27.4150 C   0  0  0  0  0  0  0  0  0  0  0  0
    0.2590   16.8870  -28.2400 O   0  0  0  0  0  0  0  0  0  0  0  0
   -0.1360   18.1830  -27.8750 C   0  0  0  0  0  0  0  0  0  0  0  0
    0.6380   19.2620  -28.3180 C   0  0  0  0  0  0  0  0  0  0  0  0
    0.2860   20.5730  -27.9830 C   0  0  0  0  0  0  0  0  0  0  0  0
   -0.8540   20.8210  -27.2050 C   0  0  0  0  0  0  0  0  0  0  0  0
   -1.2190   22.1710  -26.8660 N   0  0  0  0  0  0  0  0  0  0  0  0
   -2.3050   22.7660  -27.4580 C   0  0  0  0  0  0  0  0  0  0  0  0
   -3.2850   21.9250  -28.7170 S   0  0  0  0  0  0  0  0  0  0  0  0
   -2.7990   23.0450  -30.0780 C   0  0  0  0  0  0  0  0  0  0  0  0
   -3.9710   23.8380  -30.5940 C   0  0  0  0  0  0  0  0  0  0  0  0
   -3.8930   25.0960  -30.5640 O   0  0  0  0  0  0  0  0  0  0  0  0
   -5.1770   23.2070  -31.0850 N   0  0  0  0  0  0  0  0  0  0  0  0
   -5.2330   21.7640  -31.3500 C   0  0  0  0  0  0  0  0  0  0  0  0
   -6.3080   21.4570  -32.3970 C   0  0  0  0  0  0  0  0  0  0  0  0
   -7.5440   22.0410  -32.0350 O   0  0  0  0  0  0  0  0  0  0  0  0
   -7.4260   23.4490  -32.0610 C   0  0  0  0  0  0  0  0  0  0  0  0
   -6.4510   23.9320  -30.9830 C   0  0  0  0  0  0  0  0  0  0  0  0
   -2.6560   24.0330  -27.1250 N   0  0  0  0  0  0  0  0  0  0  0  0
   -1.9490   24.7520  -26.2210 C   0  0  0  0  0  0  0  0  0  0  0  0
   -2.3390   26.0570  -25.9070 C   0  0  0  0  0  0  0  0  0  0  0  0
   -1.6090   26.8030  -24.9800 C   0  0  0  0  0  0  0  0  0  0  0  0
   -0.4730   26.2540  -24.3660 C   0  0  0  0  0  0  0  0  0  0  0  0
    0.2870   27.0440  -23.3410 C   0  0  0  0  0  0  0  0  0  0  0  0
   -0.0900   24.9380  -24.6680 C   0  0  0  0  0  0  0  0  0  0  0  0
   -0.8220   24.1820  -25.6020 C   0  0  0  0  0  0  0  0  0  0  0  0
   -0.4730   22.8640  -25.9460 C   0  0  0  0  0  0  0  0  0  0  0  0
    0.5260   22.3160  -25.3980 O   0  0  0  0  0  0  0  0  0  0  0  0
   -1.6290   19.7430  -26.7550 C   0  0  0  0  0  0  0  0  0  0  0  0
   -1.2760   18.4320  -27.0880 C   0  0  0  0  0  0  0  0  0  0  0  0
    0.8299   16.2466  -26.3573 H   0  0  0  0  0  0  0  0  0  0  0  0
    0.7594   14.9760  -27.6251 H   0  0  0  0  0  0  0  0  0  0  0  0
    2.1002   16.1713  -27.6251 H   0  0  0  0  0  0  0  0  0  0  0  0
    1.5301   19.0770  -28.9345 H   0  0  0  0  0  0  0  0  0  0  0  0
    0.9055   21.4128  -28.3309 H   0  0  0  0  0  0  0  0  0  0  0  0
   -2.0320   23.7419  -29.7092 H   0  0  0  0  0  0  0  0  0  0  0  0
   -2.4105   22.4314  -30.9041 H   0  0  0  0  0  0  0  0  0  0  0  0
   -4.2554   21.4255  -31.7237 H   0  0  0  0  0  0  0  0  0  0  0  0
   -5.4823   21.2382  -30.4165 H   0  0  0  0  0  0  0  0  0  0  0  0
   -5.9897   21.8606  -33.3695 H   0  0  0  0  0  0  0  0  0  0  0  0
   -6.4383   20.3665  -32.4587 H   0  0  0  0  0  0  0  0  0  0  0  0
   -7.0560   23.7619  -33.0485 H   0  0  0  0  0  0  0  0  0  0  0  0
   -8.4147   23.8898  -31.8659 H   0  0  0  0  0  0  0  0  0  0  0  0
   -6.2675   25.0084  -31.1159 H   0  0  0  0  0  0  0  0  0  0  0  0
   -6.8911   23.7439  -29.9926 H   0  0  0  0  0  0  0  0  0  0  0  0
   -3.2231   26.4971  -26.3914 H   0  0  0  0  0  0  0  0  0  0  0  0
   -1.9259   27.8262  -24.7297 H   0  0  0  0  0  0  0  0  0  0  0  0
   -0.0184   26.7266  -22.3330 H   0  0  0  0  0  0  0  0  0  0  0  0
    1.3655   26.8696  -23.4693 H   0  0  0  0  0  0  0  0  0  0  0  0
    0.0710   28.1149  -23.4693 H   0  0  0  0  0  0  0  0  0  0  0  0
    0.7866   24.4955  -24.1722 H   0  0  0  0  0  0  0  0  0  0  0  0
   -2.5194   19.9297  -26.1367 H   0  0  0  0  0  0  0  0  0  0  0  0
   -1.8914   17.5919  -26.7337 H   0  0  0  0  0  0  0  0  0  0  0  0
  1  2  1  0
  2  3  1  0
  3  4  2  0
  4  5  1  0
  5  6  2  0
  6  7  1  0
  7  8  1  0
  8  9  1  0
  9 10  1  0
 10 11  1  0
 11 12  2  0
 11 13  1  0
 13 14  1  0
 14 15  1  0
 15 16  1  0
 16 17  1  0
 17 18  1  0
  8 19  2  0
 19 20  1  0
 20 21  2  0
 21 22  1  0
 22 23  2  0
 23 24  1  0
 23 25  1  0
 25 26  2  0
 26 27  1  0
 27 28  2  0
  6 29  1  0
 29 30  2  0
 30  3  1  0
 27  7  1  0
 18 13  1  0
 26 20  1  0
  1 31  1  0
  1 32  1  0
  1 33  1  0
  4 34  1  0
  5 35  1  0
 10 36  1  0
 10 37  1  0
 14 38  1  0
 14 39  1  0
 15 40  1  0
 15 41  1  0
 17 42  1  0
 17 43  1  0
 18 44  1  0
 18 45  1  0
 21 46  1  0
 22 47  1  0
 24 48  1  0
 24 49  1  0
 24 50  1  0
 25 51  1  0
 29 52  1  0
 30 53  1  0
M  END
>  <UniqueID>  (29) 
28

>  <SMILES>  (29) 
COc1ccc(-n2c(SCC(=O)N3CCOCC3)nc3ccc(C)cc3c2=O)cc1

>  <Energy>  (29) 
65.89960473702862

>  <Genealogy>  (29) 
COc1ccc(-n2c(SCC(=O)N3CCOCC3)nc3ccc(C)cc3c2=O)cc1 (3D coordinates assigned)
COc1ccc(-n2c(SCC(=O)N3CCOCC3)nc3ccc(C)cc3c2=O)cc1 (nonaromatic ring conformer: 65.89960473702862 kcal/mol)

>  <smiles>  (29) 
COc1ccc(-n2c(SCC(=O)N3CCOCC3)nc3ccc(C)cc3c2=O)cc1

>  <score_type>  (29) 
oracle

>  <origin>  (29) 
adg

>  <m_score__min__energy>  (29) 
-8.3599999999999994

>  <m_primary>  (29) 
energy

$$$$
29:0
     RDKit          3D

 41 43  0  0  0  0  0  0  0  0999 V2000
   -2.1030   15.0260  -36.1560 C   0  0  0  0  0  0  0  0  0  0  0  0
   -3.4920   14.8470  -35.9010 O   0  0  0  0  0  0  0  0  0  0  0  0
   -4.2110   15.5420  -34.9190 C   0  0  0  0  0  0  0  0  0  0  0  0
   -4.6110   14.8380  -33.7580 C   0  0  0  0  0  0  0  0  0  0  0  0
   -5.3340   15.4810  -32.7360 C   0  0  0  0  0  0  0  0  0  0  0  0
   -5.6460   16.8270  -32.9080 C   0  0  0  0  0  0  0  0  0  0  0  0
   -6.3130   17.6250  -32.0570 N   0  0  0  0  0  0  0  0  0  0  0  0
   -6.3570   18.8400  -32.6540 C   0  0  0  0  0  0  0  0  0  0  0  0
   -6.9680   20.0390  -32.0510 C   0  0  0  0  0  0  0  0  0  0  0  0
   -7.9450   19.8980  -31.2660 O   0  0  0  0  0  0  0  0  0  0  0  0
   -6.4610   21.3590  -32.3240 N   0  0  0  0  0  0  0  0  0  0  0  0
   -5.0080   21.6030  -32.3300 C   0  0  0  0  0  0  0  0  0  0  0  0
   -4.6770   23.0410  -31.8980 C   0  0  0  0  0  0  0  0  0  0  0  0
   -5.5960   23.4730  -30.7400 C   0  0  0  0  0  0  0  0  0  0  0  0
   -5.2090   24.8350  -30.2200 C   0  0  0  0  0  0  0  0  0  0  0  0
   -5.8760   25.3930  -29.0880 N   0  0  0  0  0  0  0  0  0  0  0  0
   -4.3180   25.5050  -30.8090 O   0  0  0  0  0  0  0  0  0  0  0  0
   -7.0920   23.4440  -31.1490 C   0  0  0  0  0  0  0  0  0  0  0  0
   -7.3760   22.5080  -32.3370 C   0  0  0  0  0  0  0  0  0  0  0  0
   -5.7000   18.8150  -33.8820 C   0  0  0  0  0  0  0  0  0  0  0  0
   -5.2610   17.5180  -34.0250 C   0  0  0  0  0  0  0  0  0  0  0  0
   -4.5420   16.9140  -35.0550 C   0  0  0  0  0  0  0  0  0  0  0  0
   -1.5610   15.0959  -35.2014 H   0  0  0  0  0  0  0  0  0  0  0  0
   -1.7226   14.1695  -36.7318 H   0  0  0  0  0  0  0  0  0  0  0  0
   -1.9521   15.9510  -36.7318 H   0  0  0  0  0  0  0  0  0  0  0  0
   -4.3532   13.7738  -33.6531 H   0  0  0  0  0  0  0  0  0  0  0  0
   -5.6426   14.9378  -31.8306 H   0  0  0  0  0  0  0  0  0  0  0  0
   -6.6740   17.3630  -31.1130 H   0  0  0  0  0  0  0  0  0  0  0  0
   -4.5246   20.9006  -31.6350 H   0  0  0  0  0  0  0  0  0  0  0  0
   -4.6374   21.4564  -33.3552 H   0  0  0  0  0  0  0  0  0  0  0  0
   -3.6289   23.0890  -31.5675 H   0  0  0  0  0  0  0  0  0  0  0  0
   -4.8328   23.7172  -32.7515 H   0  0  0  0  0  0  0  0  0  0  0  0
   -5.4615   22.7426  -29.9285 H   0  0  0  0  0  0  0  0  0  0  0  0
   -5.6130   26.3410  -28.7390 H   0  0  0  0  0  0  0  0  0  0  0  0
   -6.6370   24.8690  -28.6010 H   0  0  0  0  0  0  0  0  0  0  0  0
   -7.6840   23.1041  -30.2865 H   0  0  0  0  0  0  0  0  0  0  0  0
   -7.3659   24.4624  -31.4616 H   0  0  0  0  0  0  0  0  0  0  0  0
   -8.4123   22.1450  -32.2708 H   0  0  0  0  0  0  0  0  0  0  0  0
   -7.2264   23.0682  -33.2718 H   0  0  0  0  0  0  0  0  0  0  0  0
   -5.5619   19.6500  -34.5847 H   0  0  0  0  0  0  0  0  0  0  0  0
   -4.2406   17.4842  -35.9461 H   0  0  0  0  0  0  0  0  0  0  0  0
  1  2  1  0
  2  3  1  0
  3  4  2  0
  4  5  1  0
  5  6  2  0
  6  7  1  0
  7  8  1  0
  8  9  1  0
  9 10  2  0
  9 11  1  0
 11 12  1  0
 12 13  1  0
 13 14  1  0
 14 15  1  0
 15 16  1  0
 15 17  2  0
 14 18  1  0
 18 19  1  0
  8 20  2  0
 20 21  1  0
 21 22  2  0
 22  3  1  0
 21  6  1  0
 19 11  1  0
  1 23  1  0
  1 24  1  0
  1 25  1  0
  4 26  1  0
  5 27  1  0
  7 28  1  0
 12 29  1  0
 12 30  1  0
 13 31  1  0
 13 32  1  0
 14 33  1  0
 16 34  1  0
 16 35  1  0
 18 36  1  0
 18 37  1  0
 19 38  1  0
 19 39  1  0
 20 40  1  0
 22 41  1  0
M  END
>  <UniqueID>  (30) 
29

>  <SMILES>  (30) 
COc1ccc2[nH]c(C(=O)N3CCC(C(N)=O)CC3)cc2c1

>  <Energy>  (30) 
78.29653271824913

>  <Genealogy>  (30) 
COc1ccc2[nH]c(C(=O)N3CCC(C(N)=O)CC3)cc2c1 (3D coordinates assigned)
COc1ccc2[nH]c(C(=O)N3CCC(C(N)=O)CC3)cc2c1 (nonaromatic ring conformer: 78.29653271824913 kcal/mol)

>  <smiles>  (30) 
COc1ccc2[nH]c(C(=O)N3CCC(C(N)=O)CC3)cc2c1

>  <score_type>  (30) 
oracle

>  <origin>  (30) 
adg

>  <m_score__min__energy>  (30) 
-8.6799999999999997

>  <m_primary>  (30) 
energy

$$$$
30:0
     RDKit          3D

 47 50  0  0  0  0  0  0  0  0999 V2000
   -6.8180   15.7360  -33.9700 C   0  0  0  0  0  0  0  0  0  0  0  0
   -6.9780   16.7150  -32.9490 O   0  0  0  0  0  0  0  0  0  0  0  0
   -6.2850   17.9340  -32.9060 C   0  0  0  0  0  0  0  0  0  0  0  0
   -4.9800   18.0440  -32.3890 C   0  0  0  0  0  0  0  0  0  0  0  0
   -4.3350   19.2820  -32.3610 C   0  0  0  0  0  0  0  0  0  0  0  0
   -4.9830   20.4360  -32.8350 C   0  0  0  0  0  0  0  0  0  0  0  0
   -4.3230   21.7630  -32.7700 C   0  0  0  0  0  0  0  0  0  0  0  0
   -3.8780   22.2810  -33.8290 O   0  0  0  0  0  0  0  0  0  0  0  0
   -4.1530   22.4980  -31.4920 C   0  0  0  0  0  0  0  0  0  0  0  0
   -2.8540   22.8180  -31.0700 C   0  0  0  0  0  0  0  0  0  0  0  0
   -2.6420   23.4400  -29.8360 C   0  0  0  0  0  0  0  0  0  0  0  0
   -1.3490   23.7490  -29.3880 C   0  0  0  0  0  0  0  0  0  0  0  0
   -1.1560   24.3630  -28.1430 C   0  0  0  0  0  0  0  0  0  0  0  0
    0.1560   24.6520  -27.7410 O   0  0  0  0  0  0  0  0  0  0  0  0
    0.5110   25.1570  -26.4580 C   0  0  0  0  0  0  0  0  0  0  0  0
   -2.2750   24.6670  -27.3430 C   0  0  0  0  0  0  0  0  0  0  0  0
   -3.5650   24.3610  -27.7860 C   0  0  0  0  0  0  0  0  0  0  0  0
   -3.7540   23.7480  -29.0280 C   0  0  0  0  0  0  0  0  0  0  0  0
   -5.0080   23.4590  -29.4620 N   0  0  0  0  0  0  0  0  0  0  0  0
   -5.2470   22.8650  -30.6640 C   0  0  0  0  0  0  0  0  0  0  0  0
   -6.6570   22.6470  -31.0590 C   0  0  0  0  0  0  0  0  0  0  0  0
   -7.2720   23.5300  -31.9640 C   0  0  0  0  0  0  0  0  0  0  0  0
   -8.6090   23.3460  -32.3260 C   0  0  0  0  0  0  0  0  0  0  0  0
   -9.3370   22.2750  -31.8020 C   0  0  0  0  0  0  0  0  0  0  0  0
   -8.7260   21.3780  -30.9220 C   0  0  0  0  0  0  0  0  0  0  0  0
   -7.3880   21.5570  -30.5570 C   0  0  0  0  0  0  0  0  0  0  0  0
   -6.2770   20.3190  -33.3680 C   0  0  0  0  0  0  0  0  0  0  0  0
   -6.9200   19.0790  -33.3990 C   0  0  0  0  0  0  0  0  0  0  0  0
   -6.6568   14.7498  -33.5103 H   0  0  0  0  0  0  0  0  0  0  0  0
   -7.7232   15.7060  -34.5943 H   0  0  0  0  0  0  0  0  0  0  0  0
   -5.9504   15.9957  -34.5943 H   0  0  0  0  0  0  0  0  0  0  0  0
   -4.4661   17.1503  -32.0053 H   0  0  0  0  0  0  0  0  0  0  0  0
   -3.3114   19.3550  -31.9648 H   0  0  0  0  0  0  0  0  0  0  0  0
   -1.9958   22.5777  -31.7148 H   0  0  0  0  0  0  0  0  0  0  0  0
   -0.4804   23.5077  -30.0184 H   0  0  0  0  0  0  0  0  0  0  0  0
    0.0650   24.5225  -25.6780 H   0  0  0  0  0  0  0  0  0  0  0  0
    1.6059   25.1528  -26.3524 H   0  0  0  0  0  0  0  0  0  0  0  0
    0.1364   26.1858  -26.3524 H   0  0  0  0  0  0  0  0  0  0  0  0
   -2.1328   25.1480  -26.3640 H   0  0  0  0  0  0  0  0  0  0  0  0
   -4.4334   24.6031  -27.1558 H   0  0  0  0  0  0  0  0  0  0  0  0
   -6.6991   24.3678  -32.3881 H   0  0  0  0  0  0  0  0  0  0  0  0
   -9.0895   24.0461  -33.0253 H   0  0  0  0  0  0  0  0  0  0  0  0
  -10.3918   22.1378  -32.0823 H   0  0  0  0  0  0  0  0  0  0  0  0
   -9.2978   20.5305  -30.5161 H   0  0  0  0  0  0  0  0  0  0  0  0
   -6.9059   20.8418  -29.8743 H   0  0  0  0  0  0  0  0  0  0  0  0
   -6.7876   21.2094  -33.7636 H   0  0  0  0  0  0  0  0  0  0  0  0
   -7.9354   19.0022  -33.8151 H   0  0  0  0  0  0  0  0  0  0  0  0
  1  2  1  0
  2  3  1  0
  3  4  2  0
  4  5  1  0
  5  6  2  0
  6  7  1  0
  7  8  2  0
  7  9  1  0
  9 10  2  0
 10 11  1  0
 11 12  2  0
 12 13  1  0
 13 14  1  0
 14 15  1  0
 13 16  2  0
 16 17  1  0
 17 18  2  0
 18 19  1  0
 19 20  2  0
 20 21  1  0
 21 22  2  0
 22 23  1  0
 23 24  2  0
 24 25  1  0
 25 26  2  0
  6 27  1  0
 27 28  2  0
 28  3  1  0
 20  9  1  0
 26 21  1  0
 18 11  1  0
  1 29  1  0
  1 30  1  0
  1 31  1  0
  4 32  1  0
  5 33  1  0
 10 34  1  0
 12 35  1  0
 15 36  1  0
 15 37  1  0
 15 38  1  0
 16 39  1  0
 17 40  1  0
 22 41  1  0
 23 42  1  0
 24 43  1  0
 25 44  1  0
 26 45  1  0
 27 46  1  0
 28 47  1  0
M  END
>  <UniqueID>  (31) 
30

>  <SMILES>  (31) 
COc1ccc(C(=O)c2cc3cc(OC)ccc3nc2-c2ccccc2)cc1

>  <Energy>  (31) 
65.38884265046383

>  <Genealogy>  (31) 
COc1ccc(C(=O)c2cc3cc(OC)ccc3nc2-c2ccccc2)cc1 (3D coordinates assigned)
COc1ccc(C(=O)c2cc3cc(OC)ccc3nc2-c2ccccc2)cc1 (optimized conformer: 65.38884265046383 kcal/mol)

>  <smiles>  (31) 
COc1ccc(C(=O)c2cc3cc(OC)ccc3nc2-c2ccccc2)cc1

>  <score_type>  (31) 
oracle

>  <origin>  (31) 
adg

>  <m_score__min__energy>  (31) 
-8.3800000000000008

>  <m_primary>  (31) 
energy

$$$$
31:0
     RDKit          3D

 45 48  0  0  0  0  0  0  0  0999 V2000
   -5.0470   16.0760  -33.8060 C   0  0  0  0  0  0  0  0  0  0  0  0
   -5.7980   17.3200  -33.4330 C   0  0  0  0  0  0  0  0  0  0  0  0
   -6.5080   17.3820  -32.2260 C   0  0  0  0  0  0  0  0  0  0  0  0
   -7.1770   18.5540  -31.8600 C   0  0  0  0  0  0  0  0  0  0  0  0
   -7.1430   19.6830  -32.6940 C   0  0  0  0  0  0  0  0  0  0  0  0
   -7.8200   20.8980  -32.3230 N   0  0  0  0  0  0  0  0  0  0  0  0
   -9.1270   21.0140  -32.0250 C   0  0  0  0  0  0  0  0  0  0  0  0
   -9.3630   22.3050  -31.6110 C   0  0  0  0  0  0  0  0  0  0  0  0
   -8.2110   23.0020  -31.6260 N   0  0  0  0  0  0  0  0  0  0  0  0
   -7.2930   22.1200  -32.0740 C   0  0  0  0  0  0  0  0  0  0  0  0
   -5.5470   22.5300  -32.1870 S   0  0  0  0  0  0  0  0  0  0  0  0
   -5.4600   23.3190  -30.5410 C   0  0  0  0  0  0  0  0  0  0  0  0
   -4.8940   24.6960  -30.6580 C   0  0  0  0  0  0  0  0  0  0  0  0
   -5.6440   25.6480  -31.0090 O   0  0  0  0  0  0  0  0  0  0  0  0
   -3.4900   24.9000  -30.4590 N   0  0  0  0  0  0  0  0  0  0  0  0
   -2.7530   24.6720  -29.2510 C   0  0  0  0  0  0  0  0  0  0  0  0
   -3.4650   24.4350  -28.0650 C   0  0  0  0  0  0  0  0  0  0  0  0
   -2.7880   24.2160  -26.8610 C   0  0  0  0  0  0  0  0  0  0  0  0
   -1.3930   24.2460  -26.8330 C   0  0  0  0  0  0  0  0  0  0  0  0
   -0.6730   24.5320  -28.0010 C   0  0  0  0  0  0  0  0  0  0  0  0
   -1.3460   24.7350  -29.2100 C   0  0  0  0  0  0  0  0  0  0  0  0
    0.7220   24.6160  -27.9360 O   0  0  0  0  0  0  0  0  0  0  0  0
    1.4010   24.6840  -26.6790 C   0  0  0  0  0  0  0  0  0  0  0  0
    0.7170   23.7670  -25.6560 C   0  0  0  0  0  0  0  0  0  0  0  0
   -0.6930   24.0000  -25.6470 O   0  0  0  0  0  0  0  0  0  0  0  0
   -6.4040   19.6270  -33.8870 C   0  0  0  0  0  0  0  0  0  0  0  0
   -5.7350   18.4560  -34.2530 C   0  0  0  0  0  0  0  0  0  0  0  0
   -4.7302   15.5512  -32.8926 H   0  0  0  0  0  0  0  0  0  0  0  0
   -5.6990   15.4181  -34.3994 H   0  0  0  0  0  0  0  0  0  0  0  0
   -4.1612   16.3465  -34.3994 H   0  0  0  0  0  0  0  0  0  0  0  0
   -6.5390   16.5044  -31.5635 H   0  0  0  0  0  0  0  0  0  0  0  0
   -7.7338   18.5918  -30.9121 H   0  0  0  0  0  0  0  0  0  0  0  0
   -9.8782   20.2139  -32.0995 H   0  0  0  0  0  0  0  0  0  0  0  0
  -10.3430   22.7062  -31.3133 H   0  0  0  0  0  0  0  0  0  0  0  0
   -6.4713   23.3771  -30.1121 H   0  0  0  0  0  0  0  0  0  0  0  0
   -4.8093   22.7179  -29.8889 H   0  0  0  0  0  0  0  0  0  0  0  0
   -4.5648   24.4214  -28.0826 H   0  0  0  0  0  0  0  0  0  0  0  0
   -3.3538   24.0205  -25.9381 H   0  0  0  0  0  0  0  0  0  0  0  0
   -0.7774   24.9437  -30.1282 H   0  0  0  0  0  0  0  0  0  0  0  0
    2.4450   24.3643  -26.8124 H   0  0  0  0  0  0  0  0  0  0  0  0
    1.3692   25.7197  -26.3098 H   0  0  0  0  0  0  0  0  0  0  0  0
    0.9098   22.7175  -25.9232 H   0  0  0  0  0  0  0  0  0  0  0  0
    1.1218   23.9813  -24.6559 H   0  0  0  0  0  0  0  0  0  0  0  0
   -6.3514   20.5118  -34.5384 H   0  0  0  0  0  0  0  0  0  0  0  0
   -5.1566   18.4251  -35.1881 H   0  0  0  0  0  0  0  0  0  0  0  0
  1  2  1  0
  2  3  2  0
  3  4  1  0
  4  5  2  0
  5  6  1  0
  6  7  1  0
  7  8  2  0
  8  9  1  0
  9 10  2  0
 10 11  1  0
 11 12  1  0
 12 13  1  0
 13 14  2  0
 13 15  1  0
 15 16  1  0
 16 17  2  0
 17 18  1  0
 18 19  2  0
 19 20  1  0
 20 21  2  0
 20 22  1  0
 22 23  1  0
 23 24  1  0
 24 25  1  0
  5 26  1  0
 26 27  2  0
 27  2  1  0
 10  6  1  0
 21 16  1  0
 25 19  1  0
  1 28  1  0
  1 29  1  0
  1 30  1  0
  3 31  1  0
  4 32  1  0
  7 33  1  0
  8 34  1  0
 12 35  1  0
 12 36  1  0
 17 37  1  0
 18 38  1  0
 21 39  1  0
 23 40  1  0
 23 41  1  0
 24 42  1  0
 24 43  1  0
 26 44  1  0
 27 45  1  0
M  CHG  1  15  -1
M  END
>  <UniqueID>  (32) 
31

>  <SMILES>  (32) 
Cc1ccc(-n2ccnc2SCC(=O)[N-]c2ccc3c(c2)OCCO3)cc1

>  <Energy>  (32) 
82.45197218253601

>  <Genealogy>  (32) 
Cc1ccc(-n2ccnc2SCC(=O)[N-]c2ccc3c(c2)OCCO3)cc1 (protonated)
Cc1ccc(-n2ccnc2SCC(=O)[N-]c2ccc3c(c2)OCCO3)cc1 (3D coordinates assigned)
Cc1ccc(-n2ccnc2SCC(=O)[N-]c2ccc3c(c2)OCCO3)cc1 (nonaromatic ring conformer: 82.45197218253601 kcal/mol)

>  <smiles>  (32) 
Cc1ccc(-n2ccnc2SCC(=O)Nc2ccc3c(c2)OCCO3)cc1

>  <score_type>  (32) 
oracle

>  <origin>  (32) 
adg

>  <m_score__min__energy>  (32) 
-10.74

>  <m_primary>  (32) 
energy

$$$$
32:0
     RDKit          3D

 41 43  0  0  0  0  0  0  0  0999 V2000
   -1.4060   23.1840  -29.4880 C   0  0  0  0  0  0  0  0  0  0  0  0
   -2.2590   24.1050  -28.6250 C   0  0  0  0  0  0  0  0  0  0  0  0
   -3.4890   24.5240  -29.3620 C   0  0  0  0  0  0  0  0  0  0  0  0
   -4.7340   24.1280  -29.0370 N   0  0  0  0  0  0  0  0  0  0  0  0
   -5.4630   24.7480  -29.9890 C   0  0  0  0  0  0  0  0  0  0  0  0
   -6.9510   24.6260  -30.1050 C   0  0  0  0  0  0  0  0  0  0  0  0
   -7.3870   23.6500  -31.1260 N   0  0  0  0  0  0  0  0  0  0  0  0
   -6.7740   23.7820  -32.4640 C   0  0  0  0  0  0  0  0  0  0  0  0
   -5.5570   22.8690  -32.6610 C   0  0  0  0  0  0  0  0  0  0  0  0
   -5.8650   21.5130  -32.2100 N   0  0  0  0  0  0  0  0  0  0  0  0
   -5.2380   20.3940  -32.8590 C   0  0  0  0  0  0  0  0  0  0  0  0
   -4.0450   20.4880  -33.2550 O   0  0  0  0  0  0  0  0  0  0  0  0
   -5.9730   19.1430  -33.0950 C   0  0  0  0  0  0  0  0  0  0  0  0
   -5.5010   18.0090  -33.7240 C   0  0  0  0  0  0  0  0  0  0  0  0
   -6.5720   17.1420  -33.6660 C   0  0  0  0  0  0  0  0  0  0  0  0
   -6.5810   15.7290  -34.1440 C   0  0  0  0  0  0  0  0  0  0  0  0
   -7.5990   17.7260  -33.0190 N   0  0  0  0  0  0  0  0  0  0  0  0
   -7.2060   18.9240  -32.6970 O   0  0  0  0  0  0  0  0  0  0  0  0
   -6.3870   21.3660  -30.8520 C   0  0  0  0  0  0  0  0  0  0  0  0
   -7.6110   22.2660  -30.6580 C   0  0  0  0  0  0  0  0  0  0  0  0
   -4.7020   25.4560  -30.8470 N   0  0  0  0  0  0  0  0  0  0  0  0
   -3.4860   25.2940  -30.4230 O   0  0  0  0  0  0  0  0  0  0  0  0
   -0.8015   22.5313  -28.8411 H   0  0  0  0  0  0  0  0  0  0  0  0
   -2.0592   22.5676  -30.1230 H   0  0  0  0  0  0  0  0  0  0  0  0
   -0.7414   23.7881  -30.1230 H   0  0  0  0  0  0  0  0  0  0  0  0
   -2.5507   23.5733  -27.7073 H   0  0  0  0  0  0  0  0  0  0  0  0
   -1.6724   25.0012  -28.3746 H   0  0  0  0  0  0  0  0  0  0  0  0
   -7.3512   24.3114  -29.1299 H   0  0  0  0  0  0  0  0  0  0  0  0
   -7.3320   25.6100  -30.4159 H   0  0  0  0  0  0  0  0  0  0  0  0
   -7.5294   23.5269  -33.2219 H   0  0  0  0  0  0  0  0  0  0  0  0
   -6.4247   24.8203  -32.5638 H   0  0  0  0  0  0  0  0  0  0  0  0
   -5.2895   22.8452  -33.7277 H   0  0  0  0  0  0  0  0  0  0  0  0
   -4.7151   23.2609  -32.0714 H   0  0  0  0  0  0  0  0  0  0  0  0
   -4.5083   17.8376  -34.1658 H   0  0  0  0  0  0  0  0  0  0  0  0
   -6.5853   15.0494  -33.2791 H   0  0  0  0  0  0  0  0  0  0  0  0
   -7.4803   15.5536  -34.7527 H   0  0  0  0  0  0  0  0  0  0  0  0
   -5.6840   15.5421  -34.7527 H   0  0  0  0  0  0  0  0  0  0  0  0
   -6.6760   20.3179  -30.6848 H   0  0  0  0  0  0  0  0  0  0  0  0
   -5.6075   21.6587  -30.1332 H   0  0  0  0  0  0  0  0  0  0  0  0
   -8.4542   21.8377  -31.2197 H   0  0  0  0  0  0  0  0  0  0  0  0
   -7.8193   22.3120  -29.5789 H   0  0  0  0  0  0  0  0  0  0  0  0
  1  2  1  0
  2  3  1  0
  3  4  2  0
  4  5  1  0
  5  6  1  0
  6  7  1  0
  7  8  1  0
  8  9  1  0
  9 10  1  0
 10 11  1  0
 11 12  2  0
 11 13  1  0
 13 14  2  0
 14 15  1  0
 15 16  1  0
 15 17  2  0
 17 18  1  0
 10 19  1  0
 19 20  1  0
  5 21  2  0
 21 22  1  0
 22  3  1  0
 20  7  1  0
 18 13  1  0
  1 23  1  0
  1 24  1  0
  1 25  1  0
  2 26  1  0
  2 27  1  0
  6 28  1  0
  6 29  1  0
  8 30  1  0
  8 31  1  0
  9 32  1  0
  9 33  1  0
 14 34  1  0
 16 35  1  0
 16 36  1  0
 16 37  1  0
 19 38  1  0
 19 39  1  0
 20 40  1  0
 20 41  1  0
M  END
>  <UniqueID>  (33) 
32

>  <SMILES>  (33) 
CCc1nc(CN2CCN(C(=O)c3cc(C)no3)CC2)no1

>  <Energy>  (33) 
109.0936119761916

>  <Genealogy>  (33) 
CCc1nc(CN2CCN(C(=O)c3cc(C)no3)CC2)no1 (3D coordinates assigned)
CCc1nc(CN2CCN(C(=O)c3cc(C)no3)CC2)no1 (nonaromatic ring conformer: 109.0936119761916 kcal/mol)

>  <smiles>  (33) 
CCc1nc(CN2CCN(C(=O)c3cc(C)no3)CC2)no1

>  <score_type>  (33) 
oracle

>  <origin>  (33) 
adg

>  <m_score__min__energy>  (33) 
-7.8600000000000003

>  <m_primary>  (33) 
energy

$$$$
33:0
     RDKit          3D

 33 34  0  0  0  0  0  0  0  0999 V2000
   -3.4940   25.2960  -30.3610 F   0  0  0  0  0  0  0  0  0  0  0  0
   -4.6090   24.5380  -30.4950 C   0  0  0  0  0  0  0  0  0  0  0  0
   -5.8710   25.1080  -30.3070 C   0  0  0  0  0  0  0  0  0  0  0  0
   -7.0220   24.3270  -30.4440 C   0  0  0  0  0  0  0  0  0  0  0  0
   -6.9170   22.9640  -30.7650 C   0  0  0  0  0  0  0  0  0  0  0  0
   -8.1470   22.1070  -30.8930 C   0  0  0  0  0  0  0  0  0  0  0  0
   -8.4070   21.7200  -32.2930 N   0  0  0  0  0  0  0  0  0  0  0  0
   -7.9900   20.3580  -32.7090 C   0  0  0  0  0  0  0  0  0  0  0  0
   -6.6240   20.3710  -33.4440 C   0  0  0  0  0  0  0  0  0  0  0  0
   -5.8770   19.0260  -33.3550 C   0  0  0  0  0  0  0  0  0  0  0  0
   -6.8480   17.8400  -33.3540 C   0  0  0  0  0  0  0  0  0  0  0  0
   -7.8120   17.8790  -32.1480 C   0  0  0  0  0  0  0  0  0  0  0  0
   -8.0370   19.2970  -31.5860 C   0  0  0  0  0  0  0  0  0  0  0  0
   -5.6460   22.3980  -30.9610 C   0  0  0  0  0  0  0  0  0  0  0  0
   -4.4970   23.1830  -30.8240 C   0  0  0  0  0  0  0  0  0  0  0  0
   -5.9587   26.1741  -30.0505 H   0  0  0  0  0  0  0  0  0  0  0  0
   -8.0133   24.7815  -30.2999 H   0  0  0  0  0  0  0  0  0  0  0  0
   -8.0093   21.1959  -30.2923 H   0  0  0  0  0  0  0  0  0  0  0  0
   -9.0076   22.6919  -30.5364 H   0  0  0  0  0  0  0  0  0  0  0  0
   -9.4410   21.7930  -32.4420 H   0  0  0  0  0  0  0  0  0  0  0  0
   -8.7574   20.0347  -33.4277 H   0  0  0  0  0  0  0  0  0  0  0  0
   -6.7993   20.6046  -34.5045 H   0  0  0  0  0  0  0  0  0  0  0  0
   -5.9949   21.1287  -32.9539 H   0  0  0  0  0  0  0  0  0  0  0  0
   -5.2026   18.9344  -34.2192 H   0  0  0  0  0  0  0  0  0  0  0  0
   -5.3116   19.0084  -32.4116 H   0  0  0  0  0  0  0  0  0  0  0  0
   -7.4390   17.8648  -34.2814 H   0  0  0  0  0  0  0  0  0  0  0  0
   -6.2545   16.9165  -33.2833 H   0  0  0  0  0  0  0  0  0  0  0  0
   -8.7834   17.4721  -32.4655 H   0  0  0  0  0  0  0  0  0  0  0  0
   -7.3517   17.2826  -31.3465 H   0  0  0  0  0  0  0  0  0  0  0  0
   -9.0210   19.3367  -31.0960 H   0  0  0  0  0  0  0  0  0  0  0  0
   -7.2355   19.5171  -30.8655 H   0  0  0  0  0  0  0  0  0  0  0  0
   -5.5545   21.3336  -31.2231 H   0  0  0  0  0  0  0  0  0  0  0  0
   -3.5040   22.7346  -30.9751 H   0  0  0  0  0  0  0  0  0  0  0  0
  1  2  1  0
  2  3  2  0
  3  4  1  0
  4  5  2  0
  5  6  1  0
  6  7  1  0
  7  8  1  0
  8  9  1  0
  9 10  1  0
 10 11  1  0
 11 12  1  0
 12 13  1  0
  5 14  1  0
 14 15  2  0
 15  2  1  0
 13  8  1  0
  3 16  1  0
  4 17  1  0
  6 18  1  0
  6 19  1  0
  7 20  1  0
  8 21  1  0
  9 22  1  0
  9 23  1  0
 10 24  1  0
 10 25  1  0
 11 26  1  0
 11 27  1  0
 12 28  1  0
 12 29  1  0
 13 30  1  0
 13 31  1  0
 14 32  1  0
 15 33  1  0
M  END
>  <UniqueID>  (34) 
33

>  <SMILES>  (34) 
Fc1ccc(CNC2CCCCC2)cc1

>  <Energy>  (34) 
39.40887955788648

>  <Genealogy>  (34) 
Fc1ccc(CNC2CCCCC2)cc1 (3D coordinates assigned)
Fc1ccc(CNC2CCCCC2)cc1 (nonaromatic ring conformer: 39.40887955788648 kcal/mol)

>  <smiles>  (34) 
Fc1ccc(CNC2CCCCC2)cc1

>  <score_type>  (34) 
oracle

>  <origin>  (34) 
adg

>  <m_score__min__energy>  (34) 
-6.7300000000000004

>  <m_primary>  (34) 
energy

$$$$
34:0
     RDKit          3D

 49 52  0  0  0  0  0  0  0  0999 V2000
   -3.1120   21.9770  -28.7780 C   0  0  0  0  0  0  0  0  0  0  0  0
   -3.6710   21.1390  -29.7830 O   0  0  0  0  0  0  0  0  0  0  0  0
   -3.2680   21.1340  -31.1280 C   0  0  0  0  0  0  0  0  0  0  0  0
   -2.0910   20.4870  -31.5560 C   0  0  0  0  0  0  0  0  0  0  0  0
   -1.7250   20.5040  -32.9090 C   0  0  0  0  0  0  0  0  0  0  0  0
   -0.5190   19.7810  -33.3580 C   0  0  0  0  0  0  0  0  0  0  0  0
    0.7120   20.4540  -33.3080 C   0  0  0  0  0  0  0  0  0  0  0  0
    1.8810   19.8230  -33.7320 C   0  0  0  0  0  0  0  0  0  0  0  0
    1.8350   18.5140  -34.2080 C   0  0  0  0  0  0  0  0  0  0  0  0
    0.6190   17.8290  -34.2610 C   0  0  0  0  0  0  0  0  0  0  0  0
   -0.5740   18.4450  -33.8330 C   0  0  0  0  0  0  0  0  0  0  0  0
   -1.8860   17.6870  -33.8870 C   0  0  0  0  0  0  0  0  0  0  0  0
   -2.8000   18.3930  -34.6460 F   0  0  0  0  0  0  0  0  0  0  0  0
   -1.7320   16.4330  -34.4500 F   0  0  0  0  0  0  0  0  0  0  0  0
   -2.3830   17.5260  -32.6070 F   0  0  0  0  0  0  0  0  0  0  0  0
   -2.5360   21.1620  -33.8420 C   0  0  0  0  0  0  0  0  0  0  0  0
   -3.7010   21.8070  -33.4260 C   0  0  0  0  0  0  0  0  0  0  0  0
   -4.0700   21.7990  -32.0730 C   0  0  0  0  0  0  0  0  0  0  0  0
   -5.3040   22.4240  -31.6660 N   0  0  0  0  0  0  0  0  0  0  0  0
   -5.2130   23.6840  -31.1250 C   0  0  0  0  0  0  0  0  0  0  0  0
   -4.0900   24.2440  -30.9790 O   0  0  0  0  0  0  0  0  0  0  0  0
   -6.3540   24.3760  -30.7280 C   0  0  0  0  0  0  0  0  0  0  0  0
   -7.6010   23.7930  -30.8840 C   0  0  0  0  0  0  0  0  0  0  0  0
   -7.7110   22.5130  -31.4310 C   0  0  0  0  0  0  0  0  0  0  0  0
   -8.9800   21.9420  -31.5830 C   0  0  0  0  0  0  0  0  0  0  0  0
   -9.1140   20.6690  -32.1200 C   0  0  0  0  0  0  0  0  0  0  0  0
   -7.9890   19.9500  -32.5060 C   0  0  0  0  0  0  0  0  0  0  0  0
   -6.6950   20.4920  -32.3650 C   0  0  0  0  0  0  0  0  0  0  0  0
   -5.5730   19.7370  -32.7470 O   0  0  0  0  0  0  0  0  0  0  0  0
   -5.5930   18.6310  -33.6450 C   0  0  0  0  0  0  0  0  0  0  0  0
   -6.5380   21.8080  -31.8250 C   0  0  0  0  0  0  0  0  0  0  0  0
   -3.3744   21.5836  -27.7848 H   0  0  0  0  0  0  0  0  0  0  0  0
   -2.0176   21.9992  -28.8861 H   0  0  0  0  0  0  0  0  0  0  0  0
   -3.5119   22.9960  -28.8861 H   0  0  0  0  0  0  0  0  0  0  0  0
   -1.4563   19.9659  -30.8242 H   0  0  0  0  0  0  0  0  0  0  0  0
    0.7547   21.4867  -32.9316 H   0  0  0  0  0  0  0  0  0  0  0  0
    2.8406   20.3591  -33.6907 H   0  0  0  0  0  0  0  0  0  0  0  0
    2.7586   18.0191  -34.5428 H   0  0  0  0  0  0  0  0  0  0  0  0
    0.5922   16.7971  -34.6411 H   0  0  0  0  0  0  0  0  0  0  0  0
   -2.2538   21.1703  -34.9052 H   0  0  0  0  0  0  0  0  0  0  0  0
   -4.3332   22.3243  -34.1627 H   0  0  0  0  0  0  0  0  0  0  0  0
   -6.2657   25.3820  -30.2920 H   0  0  0  0  0  0  0  0  0  0  0  0
   -8.5052   24.3389  -30.5767 H   0  0  0  0  0  0  0  0  0  0  0  0
   -9.8742   22.5041  -31.2758 H   0  0  0  0  0  0  0  0  0  0  0  0
  -10.1143   20.2276  -32.2405 H   0  0  0  0  0  0  0  0  0  0  0  0
   -8.1101   18.9416  -32.9284 H   0  0  0  0  0  0  0  0  0  0  0  0
   -5.6100   17.6928  -33.0709 H   0  0  0  0  0  0  0  0  0  0  0  0
   -6.4902   18.6894  -34.2787 H   0  0  0  0  0  0  0  0  0  0  0  0
   -4.6942   18.6569  -34.2787 H   0  0  0  0  0  0  0  0  0  0  0  0
  1  2  1  0
  2  3  1  0
  3  4  2  0
  4  5  1  0
  5  6  1  0
  6  7  2  0
  7  8  1  0
  8  9  2  0
  9 10  1  0
 10 11  2  0
 11 12  1  0
 12 13  1  0
 12 14  1  0
 12 15  1  0
  5 16  2  0
 16 17  1  0
 17 18  2  0
 18 19  1  0
 19 20  1  0
 20 21  2  0
 20 22  1  0
 22 23  2  0
 23 24  1  0
 24 25  2  0
 25 26  1  0
 26 27  2  0
 27 28  1  0
 28 29  1  0
 29 30  1  0
 28 31  2  0
 18  3  1  0
 31 19  1  0
 11  6  1  0
 31 24  1  0
  1 32  1  0
  1 33  1  0
  1 34  1  0
  4 35  1  0
  7 36  1  0
  8 37  1  0
  9 38  1  0
 10 39  1  0
 16 40  1  0
 17 41  1  0
 22 42  1  0
 23 43  1  0
 25 44  1  0
 26 45  1  0
 27 46  1  0
 30 47  1  0
 30 48  1  0
 30 49  1  0
M  END
>  <UniqueID>  (35) 
34

>  <SMILES>  (35) 
COc1cc(-c2ccccc2C(F)(F)F)ccc1-n1c(=O)ccc2cccc(OC)c21

>  <Energy>  (35) 
80.480920854503

>  <Genealogy>  (35) 
COc1cc(-c2ccccc2C(F)(F)F)ccc1-n1c(=O)ccc2cccc(OC)c21 (3D coordinates assigned)
COc1cc(-c2ccccc2C(F)(F)F)ccc1-n1c(=O)ccc2cccc(OC)c21 (optimized conformer: 80.480920854503 kcal/mol)

>  <smiles>  (35) 
COc1cc(-c2ccccc2C(F)(F)F)ccc1-n1c(=O)ccc2cccc(OC)c21

>  <score_type>  (35) 
oracle

>  <origin>  (35) 
adg

>  <m_score__min__energy>  (35) 
-7.9100000000000001

>  <m_primary>  (35) 
energy

$$$$
35:0
     RDKit          3D

 42 46  0  0  1  0  0  0  0  0999 V2000
   -1.0960   20.2850  -34.3750 C   0  0  0  0  0  0  0  0  0  0  0  0
   -0.6710   21.1690  -33.4090 C   0  0  0  0  0  0  0  0  0  0  0  0
   -1.4430   21.5100  -32.3230 C   0  0  0  0  0  0  0  0  0  0  0  0
   -2.7430   20.9440  -32.1520 C   0  0  0  0  0  0  0  0  0  0  0  0
   -3.5380   21.3390  -31.2160 N   0  0  0  0  0  0  0  0  0  0  0  0
   -3.9260   22.2750  -30.5720 C   0  0  0  0  0  0  0  0  0  0  0  0
   -2.9770   22.9860  -29.8890 N   0  0  0  0  0  0  0  0  0  0  0  0
   -3.2000   24.1750  -29.3320 C   0  0  0  0  0  0  0  0  0  0  0  0
   -2.2070   24.9170  -28.6180 C   0  0  0  0  0  0  0  0  0  0  0  0
   -1.7040   24.5350  -27.3750 C   0  0  0  0  0  0  0  0  0  0  0  0
   -0.7720   25.4950  -27.0120 C   0  0  0  0  0  0  0  0  0  0  0  0
   -0.7570   26.4140  -28.0610 C   0  0  0  0  0  0  0  0  0  0  0  0
   -1.6140   26.0250  -28.9680 O   0  0  0  0  0  0  0  0  0  0  0  0
   -4.4270   24.6790  -29.4610 N   0  0  0  0  0  0  0  0  0  0  0  0
   -5.3880   23.9730  -30.1380 C   0  0  0  0  0  0  0  0  0  0  0  0
   -7.0570   24.5470  -30.4200 S   0  0  0  0  0  0  0  0  0  0  0  0
   -7.4610   23.0180  -31.3420 C   0  0  0  0  0  0  0  0  0  0  0  0
   -6.3400   22.2340  -31.3510 C   0  0  0  0  0  0  0  0  0  0  0  0
   -5.2410   22.7520  -30.7260 C   0  0  0  0  0  0  0  0  0  0  0  0
   -6.7140   20.8470  -31.8800 C   0  0  0  0  0  0  0  0  0  0  0  0
   -8.1710   20.5890  -31.3230 C   0  0  0  0  0  0  0  0  0  0  0  0
   -9.0330   21.3710  -32.3110 C   0  0  0  0  0  0  0  0  0  0  0  0
   -8.7470   22.8370  -31.9750 C   0  0  0  0  0  0  0  0  0  0  0  0
   -3.1370   20.0390  -33.1700 C   0  0  0  0  0  0  0  0  0  0  0  0
   -2.3410   19.7350  -34.2250 C   0  0  0  0  0  0  0  0  0  0  0  0
   -0.4594   20.0301  -35.2351 H   0  0  0  0  0  0  0  0  0  0  0  0
    0.3267   21.6211  -33.5098 H   0  0  0  0  0  0  0  0  0  0  0  0
   -1.0563   22.2238  -31.5808 H   0  0  0  0  0  0  0  0  0  0  0  0
   -1.9908   23.6452  -26.7953 H   0  0  0  0  0  0  0  0  0  0  0  0
   -0.1712   25.5255  -26.0911 H   0  0  0  0  0  0  0  0  0  0  0  0
   -0.1290   27.3154  -28.1159 H   0  0  0  0  0  0  0  0  0  0  0  0
   -4.6420   25.5920  -29.0540 H   0  0  0  0  0  0  0  0  0  0  0  0
   -6.7110   20.8368  -32.9799 H   0  0  0  0  0  0  0  0  0  0  0  0
   -6.0015   20.0721  -31.5609 H   0  0  0  0  0  0  0  0  0  0  0  0
   -8.4199   19.5176  -31.3366 H   0  0  0  0  0  0  0  0  0  0  0  0
   -8.3062   20.8980  -30.2760 H   0  0  0  0  0  0  0  0  0  0  0  0
   -8.7430   21.1439  -33.3475 H   0  0  0  0  0  0  0  0  0  0  0  0
  -10.1009   21.1196  -32.2314 H   0  0  0  0  0  0  0  0  0  0  0  0
   -8.7678   23.4229  -32.9057 H   0  0  0  0  0  0  0  0  0  0  0  0
   -9.5186   23.1748  -31.2676 H   0  0  0  0  0  0  0  0  0  0  0  0
   -4.1272   19.5649  -33.1013 H   0  0  0  0  0  0  0  0  0  0  0  0
   -2.7062   19.0258  -34.9824 H   0  0  0  0  0  0  0  0  0  0  0  0
  1  2  2  0
  2  3  1  0
  3  4  2  0
  4  5  1  0
  5  6  2  0
  6  7  1  0
  7  8  2  0
  8  9  1  0
  9 10  2  0
 10 11  1  0
 11 12  2  0
 12 13  1  0
  8 14  1  0
 14 15  1  0
 15 16  1  0
 16 17  1  0
 17 18  2  0
 18 19  1  0
 18 20  1  0
 20 21  1  0
 21 22  1  0
 22 23  1  0
  4 24  1  0
 24 25  2  0
 25  1  1  0
 19  6  1  0
 13  9  1  0
 19 15  2  0
 23 17  1  0
  1 26  1  0
  2 27  1  0
  3 28  1  0
 10 29  1  0
 11 30  1  0
 12 31  1  0
 14 32  1  0
 20 33  1  0
 20 34  1  0
 21 35  1  0
 21 36  1  0
 22 37  1  0
 22 38  1  0
 23 39  1  0
 23 40  1  0
 24 41  1  0
 25 42  1  0
M  END
>  <smiles>  (36) 
c1ccc(N=c2nc(-c3ccco3)[nH]c3sc4c(c23)CCCC4)cc1

>  <score_type>  (36) 
oracle

>  <origin>  (36) 
adg

>  <m_score__min__energy>  (36) 
-9.4199999999999999

>  <m_primary>  (36) 
energy

$$$$
36:0
     RDKit          3D

 37 37  0  0  0  0  0  0  0  0999 V2000
   -3.9540   24.1640  -27.3650 C   0  0  0  0  0  0  0  0  0  0  0  0
   -2.8300   23.9490  -28.3790 C   0  0  0  0  0  0  0  0  0  0  0  0
   -3.3270   23.2610  -29.6590 C   0  0  0  0  0  0  0  0  0  0  0  0
   -4.2590   24.1340  -30.4660 C   0  0  0  0  0  0  0  0  0  0  0  0
   -3.8820   25.2930  -30.7900 O   0  0  0  0  0  0  0  0  0  0  0  0
   -5.5870   23.6940  -30.8250 N   0  0  0  0  0  0  0  0  0  0  0  0
   -6.6880   23.9090  -29.8810 C   0  0  0  0  0  0  0  0  0  0  0  0
   -7.5830   22.6790  -29.8430 C   0  0  0  0  0  0  0  0  0  0  0  0
   -8.1130   22.3460  -31.2410 C   0  0  0  0  0  0  0  0  0  0  0  0
   -7.0120   22.2530  -32.3260 C   0  0  2  0  0  0  0  0  0  0  0  0
   -6.4740   20.8170  -32.5860 C   0  0  0  0  0  0  0  0  0  0  0  0
   -7.2600   19.6280  -32.0070 C   0  0  0  0  0  0  0  0  0  0  0  0
   -8.6210   19.4080  -32.6630 C   0  0  0  0  0  0  0  0  0  0  0  0
   -5.9140   23.3450  -32.2140 C   0  0  0  0  0  0  0  0  0  0  0  0
   -3.5480   24.0863  -26.3456 H   0  0  0  0  0  0  0  0  0  0  0  0
   -4.3926   25.1623  -27.5099 H   0  0  0  0  0  0  0  0  0  0  0  0
   -4.7301   23.3980  -27.5099 H   0  0  0  0  0  0  0  0  0  0  0  0
   -2.4017   24.9265  -28.6457 H   0  0  0  0  0  0  0  0  0  0  0  0
   -2.0770   23.2951  -27.9148 H   0  0  0  0  0  0  0  0  0  0  0  0
   -2.4570   23.0054  -30.2816 H   0  0  0  0  0  0  0  0  0  0  0  0
   -3.8890   22.3647  -29.3576 H   0  0  0  0  0  0  0  0  0  0  0  0
   -6.2775   24.0929  -28.8772 H   0  0  0  0  0  0  0  0  0  0  0  0
   -7.2793   24.7781  -30.2050 H   0  0  0  0  0  0  0  0  0  0  0  0
   -7.0041   21.8238  -29.4640 H   0  0  0  0  0  0  0  0  0  0  0  0
   -8.4381   22.8865  -29.1829 H   0  0  0  0  0  0  0  0  0  0  0  0
   -8.6333   21.3781  -31.1922 H   0  0  0  0  0  0  0  0  0  0  0  0
   -8.7795   23.1707  -31.5336 H   0  0  0  0  0  0  0  0  0  0  0  0
   -7.5393   22.4994  -33.2594 H   0  0  0  0  0  0  0  0  0  0  0  0
   -6.4297   20.6782  -33.6763 H   0  0  0  0  0  0  0  0  0  0  0  0
   -5.5098   20.7884  -32.0574 H   0  0  0  0  0  0  0  0  0  0  0  0
   -6.6590   18.7167  -32.1422 H   0  0  0  0  0  0  0  0  0  0  0  0
   -7.4492   19.8557  -30.9476 H   0  0  0  0  0  0  0  0  0  0  0  0
   -9.3877   19.2841  -31.8841 H   0  0  0  0  0  0  0  0  0  0  0  0
   -8.8712   20.2774  -33.2888 H   0  0  0  0  0  0  0  0  0  0  0  0
   -8.5846   18.5041  -33.2888 H   0  0  0  0  0  0  0  0  0  0  0  0
   -5.0020   22.9761  -32.7061 H   0  0  0  0  0  0  0  0  0  0  0  0
   -6.3044   24.2530  -32.6968 H   0  0  0  0  0  0  0  0  0  0  0  0
  1  2  1  0
  2  3  1  0
  3  4  1  0
  4  5  2  0
  4  6  1  0
  6  7  1  0
  7  8  1  0
  8  9  1  0
  9 10  1  0
 10 11  1  0
 11 12  1  0
 12 13  1  0
 10 14  1  0
 14  6  1  0
  1 15  1  0
  1 16  1  0
  1 17  1  0
  2 18  1  0
  2 19  1  0
  3 20  1  0
  3 21  1  0
  7 22  1  0
  7 23  1  0
  8 24  1  0
  8 25  1  0
  9 26  1  0
  9 27  1  0
 10 28  1  6
 11 29  1  0
 11 30  1  0
 12 31  1  0
 12 32  1  0
 13 33  1  0
 13 34  1  0
 13 35  1  0
 14 36  1  0
 14 37  1  0
M  END
>  <UniqueID>  (37) 
35

>  <SMILES>  (37) 
CCCC(=O)N1CCC[C@H](CCC)C1

>  <Energy>  (37) 
31.590084175389723

>  <Genealogy>  (37) 
CCCC(=O)N1CCC[C@H](CCC)C1 (chirality)
CCCC(=O)N1CCC[C@H](CCC)C1 (3D coordinates assigned)
CCCC(=O)N1CCC[C@H](CCC)C1 (nonaromatic ring conformer: 31.590084175389723 kcal/mol)

>  <smiles>  (37) 
CCCC(=O)N1CCCC(CCC)C1

>  <score_type>  (37) 
oracle

>  <origin>  (37) 
adg

>  <m_score__min__energy>  (37) 
-6.3600000000000003

>  <m_primary>  (37) 
energy

$$$$
37:0
     RDKit          3D

 45 48  0  0  0  0  0  0  0  0999 V2000
   -0.1290   20.2110  -35.2670 C   0  0  0  0  0  0  0  0  0  0  0  0
   -1.2870   20.5320  -34.4170 N   0  0  0  0  0  0  0  0  0  0  0  0
   -2.1110   19.3170  -34.1860 C   0  0  0  0  0  0  0  0  0  0  0  0
   -3.0060   19.4110  -32.9310 C   0  0  0  0  0  0  0  0  0  0  0  0
   -3.2060   20.8060  -32.5220 N   0  0  0  0  0  0  0  0  0  0  0  0
   -4.5060   21.2720  -32.1140 C   0  0  0  0  0  0  0  0  0  0  0  0
   -5.5940   20.6820  -32.6520 C   0  0  0  0  0  0  0  0  0  0  0  0
   -7.0040   21.0130  -32.3340 C   0  0  0  0  0  0  0  0  0  0  0  0
   -7.9350   19.9630  -32.2670 C   0  0  0  0  0  0  0  0  0  0  0  0
   -9.2790   20.2220  -31.9930 C   0  0  0  0  0  0  0  0  0  0  0  0
   -9.7130   21.5330  -31.7960 C   0  0  0  0  0  0  0  0  0  0  0  0
   -8.8060   22.5910  -31.8850 C   0  0  0  0  0  0  0  0  0  0  0  0
   -7.4510   22.3440  -32.1700 C   0  0  0  0  0  0  0  0  0  0  0  0
   -6.4900   23.4900  -32.2870 C   0  0  0  0  0  0  0  0  0  0  0  0
   -5.5030   23.4140  -31.1590 C   0  0  0  0  0  0  0  0  0  0  0  0
   -5.5200   24.3970  -30.1540 C   0  0  0  0  0  0  0  0  0  0  0  0
   -4.6190   24.3340  -29.0890 C   0  0  0  0  0  0  0  0  0  0  0  0
   -3.7010   23.2890  -29.0120 C   0  0  0  0  0  0  0  0  0  0  0  0
   -3.6800   22.3010  -29.9990 C   0  0  0  0  0  0  0  0  0  0  0  0
   -4.5820   22.3430  -31.0790 C   0  0  0  0  0  0  0  0  0  0  0  0
   -2.0470   21.6920  -32.3780 C   0  0  0  0  0  0  0  0  0  0  0  0
   -0.8400   21.1390  -33.1470 C   0  0  0  0  0  0  0  0  0  0  0  0
    0.7366   19.9711  -34.6321 H   0  0  0  0  0  0  0  0  0  0  0  0
   -0.3690   19.3455  -35.9021 H   0  0  0  0  0  0  0  0  0  0  0  0
    0.1108   21.0765  -35.9021 H   0  0  0  0  0  0  0  0  0  0  0  0
   -1.8690   21.2340  -34.9370 H   0  0  0  0  0  0  0  0  0  0  0  0
   -2.7562   19.1615  -35.0633 H   0  0  0  0  0  0  0  0  0  0  0  0
   -1.4160   18.4794  -34.0266 H   0  0  0  0  0  0  0  0  0  0  0  0
   -3.9839   18.9592  -33.1536 H   0  0  0  0  0  0  0  0  0  0  0  0
   -2.5082   18.8761  -32.1087 H   0  0  0  0  0  0  0  0  0  0  0  0
   -5.4196   19.8860  -33.3909 H   0  0  0  0  0  0  0  0  0  0  0  0
   -7.6019   18.9277  -32.4319 H   0  0  0  0  0  0  0  0  0  0  0  0
   -9.9971   19.3909  -31.9323 H   0  0  0  0  0  0  0  0  0  0  0  0
  -10.7708   21.7336  -31.5703 H   0  0  0  0  0  0  0  0  0  0  0  0
   -9.1532   23.6234  -31.7314 H   0  0  0  0  0  0  0  0  0  0  0  0
   -5.9580   23.4291  -33.2479 H   0  0  0  0  0  0  0  0  0  0  0  0
   -7.0382   24.4424  -32.2389 H   0  0  0  0  0  0  0  0  0  0  0  0
   -6.2473   25.2206  -30.2069 H   0  0  0  0  0  0  0  0  0  0  0  0
   -4.6341   25.1104  -28.3100 H   0  0  0  0  0  0  0  0  0  0  0  0
   -2.9916   23.2419  -28.1726 H   0  0  0  0  0  0  0  0  0  0  0  0
   -2.9503   21.4807  -29.9317 H   0  0  0  0  0  0  0  0  0  0  0  0
   -2.3018   22.6864  -32.7734 H   0  0  0  0  0  0  0  0  0  0  0  0
   -1.7851   21.7597  -31.3118 H   0  0  0  0  0  0  0  0  0  0  0  0
   -0.1381   21.9583  -33.3617 H   0  0  0  0  0  0  0  0  0  0  0  0
   -0.3417   20.3724  -32.5354 H   0  0  0  0  0  0  0  0  0  0  0  0
  1  2  1  0
  2  3  1  0
  3  4  1  0
  4  5  1  0
  5  6  1  0
  6  7  2  0
  7  8  1  0
  8  9  2  0
  9 10  1  0
 10 11  2  0
 11 12  1  0
 12 13  2  0
 13 14  1  0
 14 15  1  0
 15 16  2  0
 16 17  1  0
 17 18  2  0
 18 19  1  0
 19 20  2  0
  5 21  1  0
 21 22  1  0
 22  2  1  0
 20  6  1  0
 13  8  1  0
 20 15  1  0
  1 23  1  0
  1 24  1  0
  1 25  1  0
  2 26  1  0
  3 27  1  0
  3 28  1  0
  4 29  1  0
  4 30  1  0
  7 31  1  0
  9 32  1  0
 10 33  1  0
 11 34  1  0
 12 35  1  0
 14 36  1  0
 14 37  1  0
 16 38  1  0
 17 39  1  0
 18 40  1  0
 19 41  1  0
 21 42  1  0
 21 43  1  0
 22 44  1  0
 22 45  1  0
M  CHG  1   2   1
M  END
>  <UniqueID>  (38) 
36

>  <SMILES>  (38) 
C[NH+]1CCN(C2=Cc3ccccc3Cc3ccccc32)CC1

>  <Energy>  (38) 
70.45786353485113

>  <Genealogy>  (38) 
C[NH+]1CCN(C2=Cc3ccccc3Cc3ccccc32)CC1 (protonated)
C[NH+]1CCN(C2=Cc3ccccc3Cc3ccccc32)CC1 (3D coordinates assigned)
C[NH+]1CCN(C2=Cc3ccccc3Cc3ccccc32)CC1 (nonaromatic ring conformer: 70.45786353485113 kcal/mol)

>  <smiles>  (38) 
CN1CCN(C2=Cc3ccccc3Cc3ccccc32)CC1

>  <score_type>  (38) 
oracle

>  <origin>  (38) 
adg

>  <m_score__min__energy>  (38) 
-6.9800000000000004

>  <m_primary>  (38) 
energy

$$$$
38:0
     RDKit          3D

 45 49  0  0  0  0  0  0  0  0999 V2000
   -9.1950   19.1190  -32.2570 C   0  0  0  0  0  0  0  0  0  0  0  0
   -9.4010   20.4890  -32.0690 C   0  0  0  0  0  0  0  0  0  0  0  0
   -8.3100   21.3600  -31.9860 C   0  0  0  0  0  0  0  0  0  0  0  0
   -7.0020   20.8620  -32.0910 C   0  0  0  0  0  0  0  0  0  0  0  0
   -5.8990   21.7250  -32.0110 C   0  0  0  0  0  0  0  0  0  0  0  0
   -4.5980   21.2200  -32.1320 C   0  0  0  0  0  0  0  0  0  0  0  0
   -3.1880   22.3280  -32.0530 S   0  0  0  0  0  0  0  0  0  0  0  0
   -2.9430   22.0710  -30.2760 C   0  0  0  0  0  0  0  0  0  0  0  0
   -3.7450   22.7710  -29.3400 C   0  0  0  0  0  0  0  0  0  0  0  0
   -4.7120   23.8120  -29.7500 C   0  0  0  0  0  0  0  0  0  0  0  0
   -5.9140   23.8910  -29.2960 N   0  0  0  0  0  0  0  0  0  0  0  0
   -6.6230   25.0020  -29.9160 C   0  0  0  0  0  0  0  0  0  0  0  0
   -5.6010   25.6210  -30.8850 C   0  0  0  0  0  0  0  0  0  0  0  0
   -4.4230   24.7900  -30.7300 N   0  0  0  0  0  0  0  0  0  0  0  0
   -3.6510   22.4650  -27.9760 C   0  0  0  0  0  0  0  0  0  0  0  0
   -2.7460   21.5100  -27.5200 C   0  0  0  0  0  0  0  0  0  0  0  0
   -1.9090   20.8430  -28.4200 C   0  0  0  0  0  0  0  0  0  0  0  0
   -0.9870   19.8960  -27.9460 C   0  0  0  0  0  0  0  0  0  0  0  0
   -0.1440   19.2300  -28.8360 C   0  0  0  0  0  0  0  0  0  0  0  0
   -0.2080   19.5070  -30.2000 C   0  0  0  0  0  0  0  0  0  0  0  0
   -1.1200   20.4460  -30.6880 C   0  0  0  0  0  0  0  0  0  0  0  0
   -1.9930   21.1230  -29.8090 C   0  0  0  0  0  0  0  0  0  0  0  0
   -4.3960   19.8460  -32.3030 C   0  0  0  0  0  0  0  0  0  0  0  0
   -5.4860   18.9750  -32.3830 C   0  0  0  0  0  0  0  0  0  0  0  0
   -6.7930   19.4730  -32.2820 C   0  0  0  0  0  0  0  0  0  0  0  0
   -7.8980   18.6110  -32.3630 C   0  0  0  0  0  0  0  0  0  0  0  0
  -10.0571   18.4388  -32.3217 H   0  0  0  0  0  0  0  0  0  0  0  0
  -10.4246   20.8831  -31.9861 H   0  0  0  0  0  0  0  0  0  0  0  0
   -8.4773   22.4371  -31.8382 H   0  0  0  0  0  0  0  0  0  0  0  0
   -6.0563   22.8021  -31.8527 H   0  0  0  0  0  0  0  0  0  0  0  0
   -6.3390   23.2320  -28.6050 H   0  0  0  0  0  0  0  0  0  0  0  0
   -7.5075   24.6421  -30.4620 H   0  0  0  0  0  0  0  0  0  0  0  0
   -6.9896   25.7284  -29.1758 H   0  0  0  0  0  0  0  0  0  0  0  0
   -5.9717   25.5847  -31.9200 H   0  0  0  0  0  0  0  0  0  0  0  0
   -5.4024   26.6814  -30.6704 H   0  0  0  0  0  0  0  0  0  0  0  0
   -3.5080   24.9260  -31.2170 H   0  0  0  0  0  0  0  0  0  0  0  0
   -4.3001   22.9856  -27.2565 H   0  0  0  0  0  0  0  0  0  0  0  0
   -2.6892   21.2790  -26.4460 H   0  0  0  0  0  0  0  0  0  0  0  0
   -0.9292   19.6785  -26.8693 H   0  0  0  0  0  0  0  0  0  0  0  0
    0.5725   18.4848  -28.4602 H   0  0  0  0  0  0  0  0  0  0  0  0
    0.4633   18.9834  -30.8965 H   0  0  0  0  0  0  0  0  0  0  0  0
   -1.1582   20.6597  -31.7664 H   0  0  0  0  0  0  0  0  0  0  0  0
   -3.3727   19.4489  -32.3749 H   0  0  0  0  0  0  0  0  0  0  0  0
   -5.3184   17.8972  -32.5254 H   0  0  0  0  0  0  0  0  0  0  0  0
   -7.7421   17.5321  -32.5104 H   0  0  0  0  0  0  0  0  0  0  0  0
  1  2  2  0
  2  3  1  0
  3  4  2  0
  4  5  1  0
  5  6  2  0
  6  7  1  0
  7  8  1  0
  8  9  1  0
  9 10  1  0
 10 11  2  0
 11 12  1  0
 12 13  1  0
 13 14  1  0
  9 15  2  0
 15 16  1  0
 16 17  2  0
 17 18  1  0
 18 19  2  0
 19 20  1  0
 20 21  2  0
 21 22  1  0
  6 23  1  0
 23 24  2  0
 24 25  1  0
 25 26  2  0
 26  1  1  0
 25  4  1  0
 22  8  2  0
 14 10  1  0
 22 17  1  0
  1 27  1  0
  2 28  1  0
  3 29  1  0
  5 30  1  0
 11 31  1  0
 12 32  1  0
 12 33  1  0
 13 34  1  0
 13 35  1  0
 14 36  1  0
 15 37  1  0
 16 38  1  0
 18 39  1  0
 19 40  1  0
 20 41  1  0
 21 42  1  0
 23 43  1  0
 24 44  1  0
 26 45  1  0
M  CHG  1  11   1
M  END
>  <UniqueID>  (39) 
37

>  <SMILES>  (39) 
c1ccc2cc(Sc3c(C4=[NH+]CCN4)ccc4ccccc34)ccc2c1

>  <Energy>  (39) 
70.00877997563012

>  <Genealogy>  (39) 
c1ccc2cc(Sc3c(C4=[NH+]CCN4)ccc4ccccc34)ccc2c1 (protonated)
c1ccc2cc(Sc3c(C4=[NH+]CCN4)ccc4ccccc34)ccc2c1 (3D coordinates assigned)
c1ccc2cc(Sc3c(C4=[NH+]CCN4)ccc4ccccc34)ccc2c1 (nonaromatic ring conformer: 70.00877997563012 kcal/mol)

>  <smiles>  (39) 
c1ccc2cc(Sc3c(C4=NCCN4)ccc4ccccc34)ccc2c1

>  <score_type>  (39) 
oracle

>  <origin>  (39) 
adg

>  <m_score__min__energy>  (39) 
-8.75

>  <m_primary>  (39) 
energy

$$$$
39:0
     RDKit          3D

 41 43  0  0  0  0  0  0  0  0999 V2000
   -6.6940   25.6630  -29.3650 C   0  0  0  0  0  0  0  0  0  0  0  0
   -5.4210   25.0270  -29.8110 C   0  0  0  0  0  0  0  0  0  0  0  0
   -5.0780   23.7030  -29.6470 C   0  0  0  0  0  0  0  0  0  0  0  0
   -3.8520   23.6000  -30.2730 C   0  0  0  0  0  0  0  0  0  0  0  0
   -2.9930   22.4050  -30.3540 C   0  0  0  0  0  0  0  0  0  0  0  0
   -2.4900   21.9520  -29.2900 O   0  0  0  0  0  0  0  0  0  0  0  0
   -2.7130   21.7500  -31.6060 N   0  0  0  0  0  0  0  0  0  0  0  0
   -1.3610   21.5130  -32.0910 C   0  0  0  0  0  0  0  0  0  0  0  0
   -1.4500   20.2770  -32.9730 C   0  0  0  0  0  0  0  0  0  0  0  0
   -2.9130   20.1780  -33.3840 C   0  0  0  0  0  0  0  0  0  0  0  0
   -3.6940   20.9120  -32.2870 C   0  0  2  0  0  0  0  0  0  0  0  0
   -4.8390   21.7700  -32.8560 C   0  0  0  0  0  0  0  0  0  0  0  0
   -6.1380   21.2100  -32.4860 N   0  0  0  0  0  0  0  0  0  0  0  0
   -6.3870   19.9090  -32.4510 N   0  0  0  0  0  0  0  0  0  0  0  0
   -7.6600   19.7540  -32.0400 C   0  0  0  0  0  0  0  0  0  0  0  0
   -8.3460   18.4330  -31.9380 C   0  0  0  0  0  0  0  0  0  0  0  0
   -8.2470   20.9870  -31.8240 C   0  0  0  0  0  0  0  0  0  0  0  0
   -7.2400   21.8900  -32.1030 C   0  0  0  0  0  0  0  0  0  0  0  0
   -7.3680   23.3800  -32.0540 C   0  0  0  0  0  0  0  0  0  0  0  0
   -3.4970   24.8020  -30.7710 N   0  0  0  0  0  0  0  0  0  0  0  0
   -4.4600   25.6690  -30.5010 N   0  0  0  0  0  0  0  0  0  0  0  0
   -6.7295   25.6808  -28.2657 H   0  0  0  0  0  0  0  0  0  0  0  0
   -6.7443   26.6921  -29.7502 H   0  0  0  0  0  0  0  0  0  0  0  0
   -7.5471   25.0852  -29.7502 H   0  0  0  0  0  0  0  0  0  0  0  0
   -5.6478   22.9126  -29.1365 H   0  0  0  0  0  0  0  0  0  0  0  0
   -1.0062   22.3755  -32.6743 H   0  0  0  0  0  0  0  0  0  0  0  0
   -0.6520   21.3698  -31.2623 H   0  0  0  0  0  0  0  0  0  0  0  0
   -0.8081   20.3895  -33.8591 H   0  0  0  0  0  0  0  0  0  0  0  0
   -1.1111   19.3730  -32.4458 H   0  0  0  0  0  0  0  0  0  0  0  0
   -3.0725   20.6613  -34.3592 H   0  0  0  0  0  0  0  0  0  0  0  0
   -3.2389   19.1326  -33.4889 H   0  0  0  0  0  0  0  0  0  0  0  0
   -4.1758   20.1938  -31.6073 H   0  0  0  0  0  0  0  0  0  0  0  0
   -4.7586   22.7911  -32.4550 H   0  0  0  0  0  0  0  0  0  0  0  0
   -4.7593   21.7832  -33.9530 H   0  0  0  0  0  0  0  0  0  0  0  0
   -8.4819   18.1713  -30.8783 H   0  0  0  0  0  0  0  0  0  0  0  0
   -9.3280   18.4908  -32.4303 H   0  0  0  0  0  0  0  0  0  0  0  0
   -7.7339   17.6630  -32.4303 H   0  0  0  0  0  0  0  0  0  0  0  0
   -9.2777   21.1996  -31.5039 H   0  0  0  0  0  0  0  0  0  0  0  0
   -7.3965   23.7113  -31.0055 H   0  0  0  0  0  0  0  0  0  0  0  0
   -6.5060   23.8389  -32.5603 H   0  0  0  0  0  0  0  0  0  0  0  0
   -8.2957   23.6852  -32.5603 H   0  0  0  0  0  0  0  0  0  0  0  0
  1  2  1  0
  2  3  1  0
  3  4  2  0
  4  5  1  0
  5  6  2  0
  5  7  1  0
  7  8  1  0
  8  9  1  0
  9 10  1  0
 10 11  1  0
 11 12  1  0
 12 13  1  0
 13 14  1  0
 14 15  2  0
 15 16  1  0
 15 17  1  0
 17 18  2  0
 18 19  1  0
  4 20  1  0
 20 21  1  0
 21  2  2  0
 11  7  1  0
 18 13  1  0
  1 22  1  0
  1 23  1  0
  1 24  1  0
  3 25  1  0
  8 26  1  0
  8 27  1  0
  9 28  1  0
  9 29  1  0
 10 30  1  0
 10 31  1  0
 11 32  1  1
 12 33  1  0
 12 34  1  0
 16 35  1  0
 16 36  1  0
 16 37  1  0
 17 38  1  0
 19 39  1  0
 19 40  1  0
 19 41  1  0
M  CHG  1  20  -1
M  END
>  <UniqueID>  (40) 
38

>  <SMILES>  (40) 
Cc1cc(C(=O)N2CCC[C@@H]2Cn2nc(C)cc2C)[n-]n1

>  <Energy>  (40) 
96.94027446989897

>  <Genealogy>  (40) 
Cc1cc(C(=O)N2CCCC2Cn2nc(C)cc2C)[n-]n1 (protonated)
Cc1cc(C(=O)N2CCC[C@@H]2Cn2nc(C)cc2C)[n-]n1 (chirality)
Cc1cc(C(=O)N2CCC[C@@H]2Cn2nc(C)cc2C)[n-]n1 (3D coordinates assigned)
Cc1cc(C(=O)N2CCC[C@@H]2Cn2nc(C)cc2C)[n-]n1 (nonaromatic ring conformer: 96.94027446989897 kcal/mol)

>  <smiles>  (40) 
Cc1cc(C(=O)N2CCCC2Cn2nc(C)cc2C)[nH]n1

>  <score_type>  (40) 
oracle

>  <origin>  (40) 
adg

>  <m_score__min__energy>  (40) 
-9.6799999999999997

>  <m_primary>  (40) 
energy

$$$$
40:0
     RDKit          3D

 37 39  0  0  0  0  0  0  0  0999 V2000
   -7.0060   17.7300  -32.5670 C   0  0  0  0  0  0  0  0  0  0  0  0
   -6.9980   18.9950  -33.2200 O   0  0  0  0  0  0  0  0  0  0  0  0
   -7.5370   20.1710  -32.6770 C   0  0  0  0  0  0  0  0  0  0  0  0
   -8.9130   20.2170  -32.4240 C   0  0  0  0  0  0  0  0  0  0  0  0
   -9.4980   21.3670  -31.8880 C   0  0  0  0  0  0  0  0  0  0  0  0
   -8.7120   22.4830  -31.5970 C   0  0  0  0  0  0  0  0  0  0  0  0
   -7.3290   22.4560  -31.8370 C   0  0  0  0  0  0  0  0  0  0  0  0
   -6.4780   23.6610  -31.5470 C   0  0  0  0  0  0  0  0  0  0  0  0
   -5.4900   23.3470  -30.5170 N   0  0  0  0  0  0  0  0  0  0  0  0
   -4.3720   24.2060  -30.2370 C   0  0  0  0  0  0  0  0  0  0  0  0
   -4.2620   25.3060  -30.8460 O   0  0  0  0  0  0  0  0  0  0  0  0
   -3.3510   23.8100  -29.2440 C   0  0  0  0  0  0  0  0  0  0  0  0
   -3.5650   22.7220  -28.3790 C   0  0  0  0  0  0  0  0  0  0  0  0
   -2.5850   22.3730  -27.4480 C   0  0  0  0  0  0  0  0  0  0  0  0
   -1.3960   23.1060  -27.3840 C   0  0  0  0  0  0  0  0  0  0  0  0
   -0.3830   22.7950  -26.4680 C   0  0  0  0  0  0  0  0  0  0  0  0
    0.7860   23.5590  -26.4440 C   0  0  0  0  0  0  0  0  0  0  0  0
    0.9280   24.6270  -27.3360 C   0  0  0  0  0  0  0  0  0  0  0  0
   -0.0650   24.9180  -28.2190 N   0  0  0  0  0  0  0  0  0  0  0  0
   -1.2120   24.1910  -28.2650 C   0  0  0  0  0  0  0  0  0  0  0  0
   -2.1830   24.5090  -29.1610 N   0  0  0  0  0  0  0  0  0  0  0  0
   -6.7460   21.2990  -32.3800 C   0  0  0  0  0  0  0  0  0  0  0  0
   -7.0051   17.8799  -31.4773 H   0  0  0  0  0  0  0  0  0  0  0  0
   -7.9077   17.1720  -32.8596 H   0  0  0  0  0  0  0  0  0  0  0  0
   -6.1114   17.1607  -32.8596 H   0  0  0  0  0  0  0  0  0  0  0  0
   -9.5387   19.3407  -32.6490 H   0  0  0  0  0  0  0  0  0  0  0  0
  -10.5806   21.3929  -31.6949 H   0  0  0  0  0  0  0  0  0  0  0  0
   -9.1779   23.3871  -31.1780 H   0  0  0  0  0  0  0  0  0  0  0  0
   -5.9586   23.9685  -32.4666 H   0  0  0  0  0  0  0  0  0  0  0  0
   -7.1227   24.4769  -31.1882 H   0  0  0  0  0  0  0  0  0  0  0  0
   -5.6140   22.4640  -29.9730 H   0  0  0  0  0  0  0  0  0  0  0  0
   -4.5015   22.1478  -28.4358 H   0  0  0  0  0  0  0  0  0  0  0  0
   -2.7476   21.5244  -26.7672 H   0  0  0  0  0  0  0  0  0  0  0  0
   -0.5075   21.9532  -25.7710 H   0  0  0  0  0  0  0  0  0  0  0  0
    1.5883   23.3228  -25.7295 H   0  0  0  0  0  0  0  0  0  0  0  0
    1.8456   25.2335  -27.3234 H   0  0  0  0  0  0  0  0  0  0  0  0
   -5.6637   21.2732  -32.5749 H   0  0  0  0  0  0  0  0  0  0  0  0
  1  2  1  0
  2  3  1  0
  3  4  2  0
  4  5  1  0
  5  6  2  0
  6  7  1  0
  7  8  1  0
  8  9  1  0
  9 10  1  0
 10 11  2  0
 10 12  1  0
 12 13  2  0
 13 14  1  0
 14 15  2  0
 15 16  1  0
 16 17  2  0
 17 18  1  0
 18 19  2  0
 19 20  1  0
 20 21  2  0
  7 22  2  0
 22  3  1  0
 21 12  1  0
 20 15  1  0
  1 23  1  0
  1 24  1  0
  1 25  1  0
  4 26  1  0
  5 27  1  0
  6 28  1  0
  8 29  1  0
  8 30  1  0
  9 31  1  0
 13 32  1  0
 14 33  1  0
 16 34  1  0
 17 35  1  0
 18 36  1  0
 22 37  1  0
M  END
>  <UniqueID>  (41) 
39

>  <SMILES>  (41) 
COc1cccc(CNC(=O)c2ccc3cccnc3n2)c1

>  <Energy>  (41) 
40.39676165692822

>  <Genealogy>  (41) 
COc1cccc(CNC(=O)c2ccc3cccnc3n2)c1 (3D coordinates assigned)
COc1cccc(CNC(=O)c2ccc3cccnc3n2)c1 (optimized conformer: 40.39676165692822 kcal/mol)

>  <smiles>  (41) 
COc1cccc(CNC(=O)c2ccc3cccnc3n2)c1

>  <score_type>  (41) 
oracle

>  <origin>  (41) 
adg

>  <m_score__min__energy>  (41) 
-8.1699999999999999

>  <m_primary>  (41) 
energy

$$$$
41:0
     RDKit          3D

 47 51  0  0  0  0  0  0  0  0999 V2000
   -4.5560   23.8830  -28.2940 C   0  0  0  0  0  0  0  0  0  0  0  0
   -4.7770   24.9190  -29.3190 N   0  0  0  0  0  0  0  0  0  0  0  0
   -4.2740   24.4940  -30.6510 C   0  0  0  0  0  0  0  0  0  0  0  0
   -5.3830   24.0840  -31.6390 C   0  0  0  0  0  0  0  0  0  0  0  0
   -6.5150   23.4970  -30.9160 N   0  0  0  0  0  0  0  0  0  0  0  0
   -7.0080   22.1830  -31.2410 C   0  0  0  0  0  0  0  0  0  0  0  0
   -8.3490   21.8440  -30.9850 C   0  0  0  0  0  0  0  0  0  0  0  0
   -8.8380   20.5750  -31.3130 C   0  0  0  0  0  0  0  0  0  0  0  0
   -7.9910   19.6300  -31.9060 C   0  0  0  0  0  0  0  0  0  0  0  0
   -8.4510   18.3530  -32.2480 C   0  0  0  0  0  0  0  0  0  0  0  0
   -7.5810   17.4340  -32.8400 C   0  0  0  0  0  0  0  0  0  0  0  0
   -6.2450   17.7960  -33.0860 C   0  0  0  0  0  0  0  0  0  0  0  0
   -5.2780   16.8680  -33.7130 C   0  0  0  0  0  0  0  0  0  0  0  0
   -4.6450   17.0490  -34.9460 C   0  0  0  0  0  0  0  0  0  0  0  0
   -3.8160   16.0070  -35.1850 N   0  0  0  0  0  0  0  0  0  0  0  0
   -3.8930   15.1830  -34.1570 N   0  0  0  0  0  0  0  0  0  0  0  0
   -3.2140   14.0250  -33.9730 C   0  0  0  0  0  0  0  0  0  0  0  0
   -3.4360   13.3180  -32.7850 C   0  0  0  0  0  0  0  0  0  0  0  0
   -4.3430   13.8440  -31.8430 C   0  0  0  0  0  0  0  0  0  0  0  0
   -4.9930   15.0190  -32.0880 N   0  0  0  0  0  0  0  0  0  0  0  0
   -4.7570   15.6660  -33.2560 C   0  0  0  0  0  0  0  0  0  0  0  0
   -5.8240   19.0480  -32.7490 N   0  0  0  0  0  0  0  0  0  0  0  0
   -6.6470   19.9630  -32.1730 C   0  0  0  0  0  0  0  0  0  0  0  0
   -6.1640   21.2340  -31.8440 C   0  0  0  0  0  0  0  0  0  0  0  0
   -7.1350   24.2730  -29.8370 C   0  0  0  0  0  0  0  0  0  0  0  0
   -6.1840   25.3760  -29.3430 C   0  0  0  0  0  0  0  0  0  0  0  0
   -4.6515   24.3306  -27.2937 H   0  0  0  0  0  0  0  0  0  0  0  0
   -5.3042   23.0853  -28.4117 H   0  0  0  0  0  0  0  0  0  0  0  0
   -3.5474   23.4600  -28.4117 H   0  0  0  0  0  0  0  0  0  0  0  0
   -3.7109   25.3303  -31.0909 H   0  0  0  0  0  0  0  0  0  0  0  0
   -3.6502   23.6032  -30.4858 H   0  0  0  0  0  0  0  0  0  0  0  0
   -5.7253   24.9725  -32.1898 H   0  0  0  0  0  0  0  0  0  0  0  0
   -4.9804   23.3385  -32.3406 H   0  0  0  0  0  0  0  0  0  0  0  0
   -9.0193   22.5835  -30.5226 H   0  0  0  0  0  0  0  0  0  0  0  0
   -9.8875   20.3193  -31.1053 H   0  0  0  0  0  0  0  0  0  0  0  0
   -9.4964   18.0733  -32.0509 H   0  0  0  0  0  0  0  0  0  0  0  0
   -7.9401   16.4307  -33.1127 H   0  0  0  0  0  0  0  0  0  0  0  0
   -4.7974   17.9063  -35.6182 H   0  0  0  0  0  0  0  0  0  0  0  0
   -3.2100   15.8720  -36.0250 H   0  0  0  0  0  0  0  0  0  0  0  0
   -2.5110   13.6523  -34.7325 H   0  0  0  0  0  0  0  0  0  0  0  0
   -2.9126   12.3702  -32.5906 H   0  0  0  0  0  0  0  0  0  0  0  0
   -4.5285   13.3034  -30.9031 H   0  0  0  0  0  0  0  0  0  0  0  0
   -5.1166   21.4927  -32.0586 H   0  0  0  0  0  0  0  0  0  0  0  0
   -8.0605   24.7353  -30.2108 H   0  0  0  0  0  0  0  0  0  0  0  0
   -7.3571   23.5967  -28.9984 H   0  0  0  0  0  0  0  0  0  0  0  0
   -6.2652   26.2432  -30.0149 H   0  0  0  0  0  0  0  0  0  0  0  0
   -6.4742   25.6426  -28.3160 H   0  0  0  0  0  0  0  0  0  0  0  0
  1  2  1  0
  2  3  1  0
  3  4  1  0
  4  5  1  0
  5  6  1  0
  6  7  2  0
  7  8  1  0
  8  9  2  0
  9 10  1  0
 10 11  2  0
 11 12  1  0
 12 13  1  0
 13 14  1  0
 14 15  2  0
 15 16  1  0
 16 17  1  0
 17 18  2  0
 18 19  1  0
 19 20  2  0
 20 21  1  0
 12 22  2  0
 22 23  1  0
 23 24  2  0
  5 25  1  0
 25 26  1  0
 26  2  1  0
 24  6  1  0
 23  9  1  0
 21 13  2  0
 21 16  1  0
  1 27  1  0
  1 28  1  0
  1 29  1  0
  3 30  1  0
  3 31  1  0
  4 32  1  0
  4 33  1  0
  7 34  1  0
  8 35  1  0
 10 36  1  0
 11 37  1  0
 14 38  1  0
 15 39  1  0
 17 40  1  0
 18 41  1  0
 19 42  1  0
 24 43  1  0
 25 44  1  0
 25 45  1  0
 26 46  1  0
 26 47  1  0
M  CHG  1  15   1
M  END
>  <UniqueID>  (42) 
40

>  <SMILES>  (42) 
CN1CCN(c2ccc3ccc(-c4c[nH+]n5cccnc45)nc3c2)CC1

>  <Energy>  (42) 
107.36566684084009

>  <Genealogy>  (42) 
CN1CCN(c2ccc3ccc(-c4c[nH+]n5cccnc45)nc3c2)CC1 (protonated)
CN1CCN(c2ccc3ccc(-c4c[nH+]n5cccnc45)nc3c2)CC1 (3D coordinates assigned)
CN1CCN(c2ccc3ccc(-c4c[nH+]n5cccnc45)nc3c2)CC1 (nonaromatic ring conformer: 107.36566684084009 kcal/mol)

>  <smiles>  (42) 
CN1CCN(c2ccc3ccc(-c4cnn5cccnc45)nc3c2)CC1

>  <score_type>  (42) 
oracle

>  <origin>  (42) 
adg

>  <m_score__min__energy>  (42) 
-8.4499999999999993

>  <m_primary>  (42) 
energy

$$$$
42:0
     RDKit          3D

 48 50  0  0  0  0  0  0  0  0999 V2000
   -3.2770   24.5040  -29.4750 C   0  0  0  0  0  0  0  0  0  0  0  0
   -3.8610   25.3310  -30.4550 O   0  0  0  0  0  0  0  0  0  0  0  0
   -5.1300   24.8210  -30.8050 C   0  0  0  0  0  0  0  0  0  0  0  0
   -4.9890   23.3690  -31.2590 C   0  0  0  0  0  0  0  0  0  0  0  0
   -6.3000   22.7290  -31.3440 N   0  0  0  0  0  0  0  0  0  0  0  0
   -7.2620   22.7650  -30.3980 C   0  0  0  0  0  0  0  0  0  0  0  0
   -8.2990   21.9420  -30.7770 C   0  0  0  0  0  0  0  0  0  0  0  0
   -9.4190   21.6850  -30.0570 F   0  0  0  0  0  0  0  0  0  0  0  0
   -7.9520   21.3790  -31.9890 C   0  0  0  0  0  0  0  0  0  0  0  0
   -8.7170   20.3320  -32.7530 C   0  0  0  0  0  0  0  0  0  0  0  0
   -7.9050   19.1110  -32.9770 N   0  0  0  0  0  0  0  0  0  0  0  0
   -6.7100   19.4030  -33.8010 C   0  0  0  0  0  0  0  0  0  0  0  0
   -6.0240   18.0930  -34.2200 C   0  0  0  0  0  0  0  0  0  0  0  0
   -6.1290   17.0900  -33.1540 N   0  0  0  0  0  0  0  0  0  0  0  0
   -5.9770   15.6900  -33.4590 C   0  0  0  0  0  0  0  0  0  0  0  0
   -4.8780   14.9670  -32.9620 C   0  0  0  0  0  0  0  0  0  0  0  0
   -4.7240   13.6120  -33.2710 C   0  0  0  0  0  0  0  0  0  0  0  0
   -5.6610   12.9680  -34.0830 C   0  0  0  0  0  0  0  0  0  0  0  0
   -6.7530   13.6790  -34.5910 C   0  0  0  0  0  0  0  0  0  0  0  0
   -7.9210   12.8740  -35.6220 Cl  0  0  0  0  0  0  0  0  0  0  0  0
   -6.9100   15.0350  -34.2820 C   0  0  0  0  0  0  0  0  0  0  0  0
   -6.3190   17.5480  -31.7730 C   0  0  0  0  0  0  0  0  0  0  0  0
   -7.5180   18.5160  -31.6710 C   0  0  0  0  0  0  0  0  0  0  0  0
   -6.7060   21.8830  -32.3120 C   0  0  0  0  0  0  0  0  0  0  0  0
   -3.5411   24.8780  -28.4748 H   0  0  0  0  0  0  0  0  0  0  0  0
   -3.6506   23.4761  -29.5926 H   0  0  0  0  0  0  0  0  0  0  0  0
   -2.1833   24.5123  -29.5926 H   0  0  0  0  0  0  0  0  0  0  0  0
   -5.7977   24.8689  -29.9321 H   0  0  0  0  0  0  0  0  0  0  0  0
   -5.5528   25.4214  -31.6240 H   0  0  0  0  0  0  0  0  0  0  0  0
   -4.5094   23.3442  -32.2486 H   0  0  0  0  0  0  0  0  0  0  0  0
   -4.3749   22.8254  -30.5259 H   0  0  0  0  0  0  0  0  0  0  0  0
   -7.2238   23.3573  -29.4719 H   0  0  0  0  0  0  0  0  0  0  0  0
   -9.6173   20.0612  -32.1820 H   0  0  0  0  0  0  0  0  0  0  0  0
   -8.9829   20.7509  -33.7347 H   0  0  0  0  0  0  0  0  0  0  0  0
   -8.4990   18.4100  -33.4830 H   0  0  0  0  0  0  0  0  0  0  0  0
   -7.0151   19.9577  -34.7005 H   0  0  0  0  0  0  0  0  0  0  0  0
   -6.0043   20.0059  -33.2106 H   0  0  0  0  0  0  0  0  0  0  0  0
   -6.5081   17.7063  -35.1289 H   0  0  0  0  0  0  0  0  0  0  0  0
   -4.9600   18.2959  -34.4119 H   0  0  0  0  0  0  0  0  0  0  0  0
   -4.1349   15.4705  -32.3262 H   0  0  0  0  0  0  0  0  0  0  0  0
   -3.8641   13.0524  -32.8743 H   0  0  0  0  0  0  0  0  0  0  0  0
   -5.5398   11.9013  -34.3229 H   0  0  0  0  0  0  0  0  0  0  0  0
   -7.7686   15.5917  -34.6855 H   0  0  0  0  0  0  0  0  0  0  0  0
   -6.5040   16.6769  -31.1273 H   0  0  0  0  0  0  0  0  0  0  0  0
   -5.4111   18.0796  -31.4520 H   0  0  0  0  0  0  0  0  0  0  0  0
   -8.3802   17.9631  -31.2699 H   0  0  0  0  0  0  0  0  0  0  0  0
   -7.2142   19.3434  -31.0129 H   0  0  0  0  0  0  0  0  0  0  0  0
   -6.1346   21.6327  -33.2180 H   0  0  0  0  0  0  0  0  0  0  0  0
  1  2  1  0
  2  3  1  0
  3  4  1  0
  4  5  1  0
  5  6  1  0
  6  7  2  0
  7  8  1  0
  7  9  1  0
  9 10  1  0
 10 11  1  0
 11 12  1  0
 12 13  1  0
 13 14  1  0
 14 15  1  0
 15 16  2  0
 16 17  1  0
 17 18  2  0
 18 19  1  0
 19 20  1  0
 19 21  2  0
 14 22  1  0
 22 23  1  0
  9 24  2  0
 24  5  1  0
 23 11  1  0
 21 15  1  0
  1 25  1  0
  1 26  1  0
  1 27  1  0
  3 28  1  0
  3 29  1  0
  4 30  1  0
  4 31  1  0
  6 32  1  0
 10 33  1  0
 10 34  1  0
 11 35  1  0
 12 36  1  0
 12 37  1  0
 13 38  1  0
 13 39  1  0
 16 40  1  0
 17 41  1  0
 18 42  1  0
 21 43  1  0
 22 44  1  0
 22 45  1  0
 23 46  1  0
 23 47  1  0
 24 48  1  0
M  CHG  1  11   1
M  END
>  <UniqueID>  (43) 
41

>  <SMILES>  (43) 
COCCn1cc(F)c(C[NH+]2CCN(c3cccc(Cl)c3)CC2)c1

>  <Energy>  (43) 
82.88688870320189

>  <Genealogy>  (43) 
COCCn1cc(F)c(C[NH+]2CCN(c3cccc(Cl)c3)CC2)c1 (protonated)
COCCn1cc(F)c(C[NH+]2CCN(c3cccc(Cl)c3)CC2)c1 (3D coordinates assigned)
COCCn1cc(F)c(C[NH+]2CCN(c3cccc(Cl)c3)CC2)c1 (nonaromatic ring conformer: 82.88688870320189 kcal/mol)

>  <smiles>  (43) 
COCCn1cc(F)c(CN2CCN(c3cccc(Cl)c3)CC2)c1

>  <score_type>  (43) 
oracle

>  <origin>  (43) 
adg

>  <m_score__min__energy>  (43) 
-7.29

>  <m_primary>  (43) 
energy

$$$$
43:0
     RDKit          3D

 38 41  0  0  0  0  0  0  0  0999 V2000
   -2.2400   21.9200  -32.1150 C   0  0  0  0  0  0  0  0  0  0  0  0
   -2.6210   22.6260  -30.8360 C   0  0  0  0  0  0  0  0  0  0  0  0
   -1.5660   23.1860  -30.0990 C   0  0  0  0  0  0  0  0  0  0  0  0
   -1.8290   24.1380  -29.1200 C   0  0  0  0  0  0  0  0  0  0  0  0
   -3.0980   24.5680  -28.9180 N   0  0  0  0  0  0  0  0  0  0  0  0
   -4.1550   24.0220  -29.5750 C   0  0  0  0  0  0  0  0  0  0  0  0
   -5.4220   24.5820  -29.3940 C   0  0  0  0  0  0  0  0  0  0  0  0
   -6.5170   24.0760  -30.0860 C   0  0  0  0  0  0  0  0  0  0  0  0
   -6.3870   22.9170  -30.8530 C   0  0  0  0  0  0  0  0  0  0  0  0
   -7.4880   22.3850  -31.4320 N   0  0  0  0  0  0  0  0  0  0  0  0
   -7.4490   21.1970  -32.0830 C   0  0  0  0  0  0  0  0  0  0  0  0
   -8.7160   20.6860  -32.7100 C   0  0  0  0  0  0  0  0  0  0  0  0
   -6.2980   20.4530  -32.0650 N   0  0  0  0  0  0  0  0  0  0  0  0
   -6.2780   19.1270  -32.6280 C   0  0  0  0  0  0  0  0  0  0  0  0
   -6.4580   18.0070  -31.8040 C   0  0  0  0  0  0  0  0  0  0  0  0
   -6.4570   16.7220  -32.3550 C   0  0  0  0  0  0  0  0  0  0  0  0
   -6.2810   16.5520  -33.7330 C   0  0  0  0  0  0  0  0  0  0  0  0
   -6.1040   17.6660  -34.5590 C   0  0  0  0  0  0  0  0  0  0  0  0
   -6.1020   18.9520  -34.0100 C   0  0  0  0  0  0  0  0  0  0  0  0
   -5.1660   20.9440  -31.4670 C   0  0  0  0  0  0  0  0  0  0  0  0
   -4.1810   20.1770  -31.2870 O   0  0  0  0  0  0  0  0  0  0  0  0
   -5.1350   22.2710  -30.9720 C   0  0  0  0  0  0  0  0  0  0  0  0
   -3.9670   22.9290  -30.4650 C   0  0  0  0  0  0  0  0  0  0  0  0
   -1.7302   20.9754  -31.8745 H   0  0  0  0  0  0  0  0  0  0  0  0
   -3.1465   21.7086  -32.7012 H   0  0  0  0  0  0  0  0  0  0  0  0
   -1.5657   22.5617  -32.7012 H   0  0  0  0  0  0  0  0  0  0  0  0
   -0.5304   22.8717  -30.2959 H   0  0  0  0  0  0  0  0  0  0  0  0
   -1.0074   24.5417  -28.5100 H   0  0  0  0  0  0  0  0  0  0  0  0
   -5.5540   25.4264  -28.7015 H   0  0  0  0  0  0  0  0  0  0  0  0
   -7.4877   24.5902  -30.0288 H   0  0  0  0  0  0  0  0  0  0  0  0
   -9.4262   20.3996  -31.9204 H   0  0  0  0  0  0  0  0  0  0  0  0
   -9.1604   21.4752  -33.3342 H   0  0  0  0  0  0  0  0  0  0  0  0
   -8.4885   19.8093  -33.3342 H   0  0  0  0  0  0  0  0  0  0  0  0
   -6.6004   18.1396  -30.7213 H   0  0  0  0  0  0  0  0  0  0  0  0
   -6.5945   15.8449  -31.7056 H   0  0  0  0  0  0  0  0  0  0  0  0
   -6.2819   15.5410  -34.1665 H   0  0  0  0  0  0  0  0  0  0  0  0
   -5.9662   17.5307  -35.6419 H   0  0  0  0  0  0  0  0  0  0  0  0
   -5.9624   19.8273  -34.6614 H   0  0  0  0  0  0  0  0  0  0  0  0
  1  2  1  0
  2  3  2  0
  3  4  1  0
  4  5  2  0
  5  6  1  0
  6  7  2  0
  7  8  1  0
  8  9  2  0
  9 10  1  0
 10 11  2  0
 11 12  1  0
 11 13  1  0
 13 14  1  0
 14 15  2  0
 15 16  1  0
 16 17  2  0
 17 18  1  0
 18 19  2  0
 13 20  1  0
 20 21  2  0
 20 22  1  0
 22 23  2  0
 23  2  1  0
 23  6  1  0
 22  9  1  0
 19 14  1  0
  1 24  1  0
  1 25  1  0
  1 26  1  0
  3 27  1  0
  4 28  1  0
  7 29  1  0
  8 30  1  0
 12 31  1  0
 12 32  1  0
 12 33  1  0
 15 34  1  0
 16 35  1  0
 17 36  1  0
 18 37  1  0
 19 38  1  0
M  END
>  <UniqueID>  (44) 
42

>  <SMILES>  (44) 
Cc1ccnc2ccc3nc(C)n(-c4ccccc4)c(=O)c3c12

>  <Energy>  (44) 
80.24047295602705

>  <Genealogy>  (44) 
Cc1ccnc2ccc3nc(C)n(-c4ccccc4)c(=O)c3c12 (3D coordinates assigned)
Cc1ccnc2ccc3nc(C)n(-c4ccccc4)c(=O)c3c12 (optimized conformer: 80.24047295602705 kcal/mol)

>  <smiles>  (44) 
Cc1ccnc2ccc3nc(C)n(-c4ccccc4)c(=O)c3c12

>  <score_type>  (44) 
oracle

>  <origin>  (44) 
adg

>  <m_score__min__energy>  (44) 
-7.8399999999999999

>  <m_primary>  (44) 
energy

$$$$
44:0
     RDKit          3D

 39 41  0  0  0  0  0  0  0  0999 V2000
   -1.8950   24.9240  -28.2520 C   0  0  0  0  0  0  0  0  0  0  0  0
   -2.7240   25.2850  -29.3510 O   0  0  0  0  0  0  0  0  0  0  0  0
   -3.9430   24.6670  -29.6630 C   0  0  0  0  0  0  0  0  0  0  0  0
   -4.1930   23.3890  -29.1480 C   0  0  0  0  0  0  0  0  0  0  0  0
   -5.3950   22.7310  -29.4230 C   0  0  0  0  0  0  0  0  0  0  0  0
   -6.3650   23.3440  -30.2300 C   0  0  0  0  0  0  0  0  0  0  0  0
   -7.6720   22.6480  -30.5040 C   0  0  0  0  0  0  0  0  0  0  0  0
   -7.7630   22.2250  -31.9730 C   0  0  0  0  0  0  0  0  0  0  0  0
   -7.1070   20.9210  -32.1670 N   0  0  0  0  0  0  0  0  0  0  0  0
   -7.8480   19.6800  -32.0600 C   0  0  0  0  0  0  0  0  0  0  0  0
   -9.0900   19.6070  -31.3430 N   0  0  0  0  0  0  0  0  0  0  0  0
   -7.3740   18.5880  -32.5880 N   0  0  0  0  0  0  0  0  0  0  0  0
   -6.1560   18.5050  -33.4010 C   0  0  0  0  0  0  0  0  0  0  0  0
   -5.2360   19.6710  -33.1720 C   0  0  0  0  0  0  0  0  0  0  0  0
   -3.9090   19.6280  -33.6160 C   0  0  0  0  0  0  0  0  0  0  0  0
   -3.0900   20.7460  -33.4700 C   0  0  0  0  0  0  0  0  0  0  0  0
   -3.6150   21.9070  -32.9010 C   0  0  0  0  0  0  0  0  0  0  0  0
   -4.9130   21.9420  -32.5000 N   0  0  0  0  0  0  0  0  0  0  0  0
   -5.7370   20.8600  -32.6170 C   0  0  0  0  0  0  0  0  0  0  0  0
   -6.1270   24.6310  -30.7360 C   0  0  0  0  0  0  0  0  0  0  0  0
   -4.9230   25.2880  -30.4620 C   0  0  0  0  0  0  0  0  0  0  0  0
   -2.4157   25.1507  -27.3099 H   0  0  0  0  0  0  0  0  0  0  0  0
   -1.6729   23.8477  -28.2983 H   0  0  0  0  0  0  0  0  0  0  0  0
   -0.9557   25.4946  -28.2983 H   0  0  0  0  0  0  0  0  0  0  0  0
   -3.4351   22.8976  -28.5202 H   0  0  0  0  0  0  0  0  0  0  0  0
   -5.5808   21.7303  -29.0057 H   0  0  0  0  0  0  0  0  0  0  0  0
   -7.7462   21.7550  -29.8659 H   0  0  0  0  0  0  0  0  0  0  0  0
   -8.4956   23.3435  -30.2848 H   0  0  0  0  0  0  0  0  0  0  0  0
   -8.8209   22.1466  -32.2639 H   0  0  0  0  0  0  0  0  0  0  0  0
   -7.2576   22.9778  -32.5958 H   0  0  0  0  0  0  0  0  0  0  0  0
   -9.6380   18.7180  -31.3450 H   0  0  0  0  0  0  0  0  0  0  0  0
   -9.4690   20.4000  -30.7770 H   0  0  0  0  0  0  0  0  0  0  0  0
   -5.6223   17.5779  -33.1448 H   0  0  0  0  0  0  0  0  0  0  0  0
   -6.4566   18.5167  -34.4591 H   0  0  0  0  0  0  0  0  0  0  0  0
   -3.5131   18.7125  -34.0797 H   0  0  0  0  0  0  0  0  0  0  0  0
   -2.0411   20.7137  -33.7997 H   0  0  0  0  0  0  0  0  0  0  0  0
   -2.9775   22.7948  -32.7769 H   0  0  0  0  0  0  0  0  0  0  0  0
   -6.8921   25.1263  -31.3520 H   0  0  0  0  0  0  0  0  0  0  0  0
   -4.7408   26.2925  -30.8716 H   0  0  0  0  0  0  0  0  0  0  0  0
  1  2  1  0
  2  3  1  0
  3  4  2  0
  4  5  1  0
  5  6  2  0
  6  7  1  0
  7  8  1  0
  8  9  1  0
  9 10  1  0
 10 11  1  0
 10 12  2  0
 12 13  1  0
 13 14  1  0
 14 15  2  0
 15 16  1  0
 16 17  2  0
 17 18  1  0
 18 19  2  0
  6 20  1  0
 20 21  2  0
 21  3  1  0
 19  9  1  0
 19 14  1  0
  1 22  1  0
  1 23  1  0
  1 24  1  0
  4 25  1  0
  5 26  1  0
  7 27  1  0
  7 28  1  0
  8 29  1  0
  8 30  1  0
 11 31  1  0
 11 32  1  0
 13 33  1  0
 13 34  1  0
 15 35  1  0
 16 36  1  0
 17 37  1  0
 20 38  1  0
 21 39  1  0
M  END
>  <UniqueID>  (45) 
43

>  <SMILES>  (45) 
COc1ccc(CCN2C(N)=NCc3cccnc32)cc1

>  <Energy>  (45) 
43.39910438461455

>  <Genealogy>  (45) 
COc1ccc(CCN2C(N)=NCc3cccnc32)cc1 (3D coordinates assigned)
COc1ccc(CCN2C(N)=NCc3cccnc32)cc1 (nonaromatic ring conformer: 43.39910438461455 kcal/mol)

>  <smiles>  (45) 
COc1ccc(CCN2C(N)=NCc3cccnc32)cc1

>  <score_type>  (45) 
oracle

>  <origin>  (45) 
adg

>  <m_score__min__energy>  (45) 
-7.4900000000000002

>  <m_primary>  (45) 
energy

$$$$
45:0
     RDKit          3D

 41 43  0  0  1  0  0  0  0  0999 V2000
   -2.6590   20.1730  -27.4290 C   0  0  0  0  0  0  0  0  0  0  0  0
   -2.2310   21.5680  -27.0590 C   0  0  0  0  0  0  0  0  0  0  0  0
   -2.8430   22.5570  -27.9850 C   0  0  0  0  0  0  0  0  0  0  0  0
   -4.1900   22.8580  -27.9620 C   0  0  0  0  0  0  0  0  0  0  0  0
   -4.7580   23.7520  -28.7890 N   0  0  0  0  0  0  0  0  0  0  0  0
   -4.0060   24.4010  -29.6900 C   0  0  0  0  0  0  0  0  0  0  0  0
   -4.5930   25.2490  -30.4640 N   0  0  0  0  0  0  0  0  0  0  0  0
   -5.9950   25.0030  -30.7700 C   0  0  0  0  0  0  0  0  0  0  0  0
   -6.1780   23.6510  -31.3630 C   0  0  0  0  0  0  0  0  0  0  0  0
   -5.2040   23.0190  -32.1080 C   0  0  0  0  0  0  0  0  0  0  0  0
   -5.4210   21.7600  -32.6400 C   0  0  0  0  0  0  0  0  0  0  0  0
   -6.6410   21.1500  -32.4060 C   0  0  0  0  0  0  0  0  0  0  0  0
   -6.8820   19.8950  -32.9240 C   0  0  0  0  0  0  0  0  0  0  0  0
   -8.1080   19.2560  -32.7020 C   0  0  0  0  0  0  0  0  0  0  0  0
   -9.1080   19.8580  -31.9590 C   0  0  0  0  0  0  0  0  0  0  0  0
   -8.8590   21.1310  -31.4350 C   0  0  0  0  0  0  0  0  0  0  0  0
   -7.6420   21.7650  -31.6560 C   0  0  0  0  0  0  0  0  0  0  0  0
   -7.3860   23.0240  -31.1420 C   0  0  0  0  0  0  0  0  0  0  0  0
   -2.6890   24.1370  -29.7460 N   0  0  0  0  0  0  0  0  0  0  0  0
   -2.0810   23.2390  -28.9260 C   0  0  0  0  0  0  0  0  0  0  0  0
   -0.6060   22.9860  -29.0380 C   0  0  0  0  0  0  0  0  0  0  0  0
    0.0510   24.1790  -29.3450 O   0  0  0  0  0  0  0  0  0  0  0  0
   -2.8380   19.5895  -26.5138 H   0  0  0  0  0  0  0  0  0  0  0  0
   -3.5845   20.2185  -28.0218 H   0  0  0  0  0  0  0  0  0  0  0  0
   -1.8672   19.6916  -28.0218 H   0  0  0  0  0  0  0  0  0  0  0  0
   -2.5536   21.7859  -26.0302 H   0  0  0  0  0  0  0  0  0  0  0  0
   -1.1357   21.6381  -27.1328 H   0  0  0  0  0  0  0  0  0  0  0  0
   -4.8294   22.3410  -27.2313 H   0  0  0  0  0  0  0  0  0  0  0  0
   -5.7910   23.8950  -28.6780 H   0  0  0  0  0  0  0  0  0  0  0  0
   -6.5838   25.0729  -29.8435 H   0  0  0  0  0  0  0  0  0  0  0  0
   -6.3339   25.7554  -31.4974 H   0  0  0  0  0  0  0  0  0  0  0  0
   -4.2416   23.5227  -32.2816 H   0  0  0  0  0  0  0  0  0  0  0  0
   -4.6436   21.2569  -33.2337 H   0  0  0  0  0  0  0  0  0  0  0  0
   -6.1043   19.3914  -33.5169 H   0  0  0  0  0  0  0  0  0  0  0  0
   -8.2795   18.2558  -33.1266 H   0  0  0  0  0  0  0  0  0  0  0  0
  -10.0689   19.3514  -31.7857 H   0  0  0  0  0  0  0  0  0  0  0  0
   -9.6352   21.6360  -30.8413 H   0  0  0  0  0  0  0  0  0  0  0  0
   -8.1589   23.5330  -30.5473 H   0  0  0  0  0  0  0  0  0  0  0  0
   -0.2278   22.5952  -28.0819 H   0  0  0  0  0  0  0  0  0  0  0  0
   -0.4206   22.2509  -29.8350 H   0  0  0  0  0  0  0  0  0  0  0  0
   -0.5470   24.7070  -29.9270 H   0  0  0  0  0  0  0  0  0  0  0  0
  1  2  1  0
  2  3  1  0
  3  4  2  0
  4  5  1  0
  5  6  1  0
  6  7  2  0
  7  8  1  0
  8  9  1  0
  9 10  2  0
 10 11  1  0
 11 12  2  0
 12 13  1  0
 13 14  2  0
 14 15  1  0
 15 16  2  0
 16 17  1  0
 17 18  2  0
  6 19  1  0
 19 20  2  0
 20 21  1  0
 21 22  1  0
 20  3  1  0
 18  9  1  0
 17 12  1  0
  1 23  1  0
  1 24  1  0
  1 25  1  0
  2 26  1  0
  2 27  1  0
  4 28  1  0
  5 29  1  0
  8 30  1  0
  8 31  1  0
 10 32  1  0
 11 33  1  0
 13 34  1  0
 14 35  1  0
 15 36  1  0
 16 37  1  0
 18 38  1  0
 21 39  1  0
 21 40  1  0
 22 41  1  0
M  END
>  <smiles>  (46) 
CCc1c[nH]c(=NCc2ccc3ccccc3c2)nc1CO

>  <score_type>  (46) 
oracle

>  <origin>  (46) 
adg

>  <m_score__min__energy>  (46) 
-9

>  <m_primary>  (46) 
energy

$$$$
46:0
     RDKit          3D

 38 40  0  0  1  0  0  0  0  0999 V2000
   -6.5660   16.3150  -33.4580 C   0  0  0  0  0  0  0  0  0  0  0  0
   -7.5200   17.0590  -32.7720 O   0  0  0  0  0  0  0  0  0  0  0  0
   -7.5400   18.4310  -32.6070 C   0  0  0  0  0  0  0  0  0  0  0  0
   -8.3200   18.9570  -31.5980 C   0  0  0  0  0  0  0  0  0  0  0  0
   -8.3950   20.3050  -31.3690 C   0  0  0  0  0  0  0  0  0  0  0  0
   -7.6910   21.2330  -32.1360 C   0  0  0  0  0  0  0  0  0  0  0  0
   -7.7730   22.6020  -31.7260 C   0  0  0  0  0  0  0  0  0  0  0  0
   -6.8320   23.4920  -31.6740 C   0  0  0  0  0  0  0  0  0  0  0  0
   -5.9560   23.7790  -30.5640 C   0  0  0  0  0  0  0  0  0  0  0  0
   -6.1680   24.6940  -29.6060 N   0  0  0  0  0  0  0  0  0  0  0  0
   -5.3710   24.9610  -28.5990 N   0  0  0  0  0  0  0  0  0  0  0  0
   -4.2310   24.2640  -28.4990 C   0  0  0  0  0  0  0  0  0  0  0  0
   -3.1940   24.5600  -27.2510 S   0  0  0  0  0  0  0  0  0  0  0  0
   -3.9730   23.3400  -29.4300 N   0  0  0  0  0  0  0  0  0  0  0  0
   -4.7910   23.0680  -30.4630 C   0  0  0  0  0  0  0  0  0  0  0  0
   -4.3530   22.0320  -31.3820 C   0  0  0  0  0  0  0  0  0  0  0  0
   -4.4050   20.6870  -31.0020 C   0  0  0  0  0  0  0  0  0  0  0  0
   -3.9810   19.6750  -31.8360 C   0  0  0  0  0  0  0  0  0  0  0  0
   -3.4820   19.9550  -33.0940 C   0  0  0  0  0  0  0  0  0  0  0  0
   -3.4260   21.2670  -33.4800 C   0  0  0  0  0  0  0  0  0  0  0  0
   -3.8520   22.2740  -32.6410 C   0  0  0  0  0  0  0  0  0  0  0  0
   -6.9130   20.7060  -33.1370 C   0  0  0  0  0  0  0  0  0  0  0  0
   -6.8360   19.3190  -33.3730 C   0  0  0  0  0  0  0  0  0  0  0  0
   -5.9111   15.8043  -32.7367 H   0  0  0  0  0  0  0  0  0  0  0  0
   -7.0685   15.5679  -34.0899 H   0  0  0  0  0  0  0  0  0  0  0  0
   -5.9638   16.9844  -34.0899 H   0  0  0  0  0  0  0  0  0  0  0  0
   -8.8985   18.2737  -30.9589 H   0  0  0  0  0  0  0  0  0  0  0  0
   -9.0335   20.6690  -30.5506 H   0  0  0  0  0  0  0  0  0  0  0  0
   -8.7699   22.9454  -31.4125 H   0  0  0  0  0  0  0  0  0  0  0  0
   -6.6844   24.0980  -32.5801 H   0  0  0  0  0  0  0  0  0  0  0  0
   -5.5870   25.6900  -27.8780 H   0  0  0  0  0  0  0  0  0  0  0  0
   -4.7963   20.4289  -30.0069 H   0  0  0  0  0  0  0  0  0  0  0  0
   -4.0406   18.6306  -31.4959 H   0  0  0  0  0  0  0  0  0  0  0  0
   -3.1413   19.1506  -33.7625 H   0  0  0  0  0  0  0  0  0  0  0  0
   -3.0347   21.5218  -34.4760 H   0  0  0  0  0  0  0  0  0  0  0  0
   -3.7890   23.3145  -32.9921 H   0  0  0  0  0  0  0  0  0  0  0  0
   -6.3315   21.3880  -33.7748 H   0  0  0  0  0  0  0  0  0  0  0  0
   -6.1987   18.9439  -34.1873 H   0  0  0  0  0  0  0  0  0  0  0  0
  1  2  1  0
  2  3  1  0
  3  4  2  0
  4  5  1  0
  5  6  2  0
  6  7  1  0
  7  8  2  0
  8  9  1  0
  9 10  2  0
 10 11  1  0
 11 12  1  0
 12 13  2  0
 12 14  1  0
 14 15  2  0
 15 16  1  0
 16 17  2  0
 17 18  1  0
 18 19  2  0
 19 20  1  0
 20 21  2  0
  6 22  1  0
 22 23  2  0
 23  3  1  0
 15  9  1  0
 21 16  1  0
  1 24  1  0
  1 25  1  0
  1 26  1  0
  4 27  1  0
  5 28  1  0
  7 29  1  0
  8 30  1  0
 11 31  1  0
 17 32  1  0
 18 33  1  0
 19 34  1  0
 20 35  1  0
 21 36  1  0
 22 37  1  0
 23 38  1  0
M  END
>  <smiles>  (47) 
COc1ccc(C=Cc2n[nH]c(=S)nc2-c2ccccc2)cc1

>  <score_type>  (47) 
oracle

>  <origin>  (47) 
adg

>  <m_score__min__energy>  (47) 
-8.1099999999999994

>  <m_primary>  (47) 
energy

$$$$
47:0
     RDKit          3D

 35 36  0  0  0  0  0  0  0  0999 V2000
   -9.0140   20.3210  -32.4500 C   0  0  0  0  0  0  0  0  0  0  0  0
   -8.0430   21.3210  -31.8940 C   0  0  0  0  0  0  0  0  0  0  0  0
   -6.8550   21.6130  -32.5820 C   0  0  0  0  0  0  0  0  0  0  0  0
   -5.9350   22.5170  -32.0450 C   0  0  0  0  0  0  0  0  0  0  0  0
   -6.1850   23.1290  -30.8100 C   0  0  0  0  0  0  0  0  0  0  0  0
   -5.0380   24.2750  -30.1220 S   0  0  0  0  0  0  0  0  0  0  0  0
   -4.6470   25.2480  -31.1990 O   0  0  0  0  0  0  0  0  0  0  0  0
   -5.6610   25.0260  -28.9790 O   0  0  0  0  0  0  0  0  0  0  0  0
   -3.6350   23.4260  -29.5430 N   0  0  0  0  0  0  0  0  0  0  0  0
   -3.4660   22.0130  -29.8810 C   0  0  0  0  0  0  0  0  0  0  0  0
   -2.6890   24.0890  -28.6830 C   0  0  0  0  0  0  0  0  0  0  0  0
   -1.4060   23.9290  -28.8660 N   0  0  0  0  0  0  0  0  0  0  0  0
   -0.4410   24.6250  -28.0650 C   0  0  0  0  0  0  0  0  0  0  0  0
    0.7870   24.3910  -28.2200 O   0  0  0  0  0  0  0  0  0  0  0  0
   -0.8810   25.6860  -27.1020 C   0  0  0  0  0  0  0  0  0  0  0  0
   -2.2570   25.3390  -26.5380 C   0  0  0  0  0  0  0  0  0  0  0  0
   -3.1600   24.9190  -27.6070 N   0  0  0  0  0  0  0  0  0  0  0  0
   -7.3600   22.8230  -30.1120 C   0  0  0  0  0  0  0  0  0  0  0  0
   -8.2830   21.9190  -30.6470 C   0  0  0  0  0  0  0  0  0  0  0  0
   -9.5189   19.8010  -31.6226 H   0  0  0  0  0  0  0  0  0  0  0  0
   -9.7618   20.8402  -33.0675 H   0  0  0  0  0  0  0  0  0  0  0  0
   -8.4731   19.5888  -33.0675 H   0  0  0  0  0  0  0  0  0  0  0  0
   -6.6475   21.1284  -33.5475 H   0  0  0  0  0  0  0  0  0  0  0  0
   -5.0106   22.7491  -32.5942 H   0  0  0  0  0  0  0  0  0  0  0  0
   -3.3952   21.4208  -28.9567 H   0  0  0  0  0  0  0  0  0  0  0  0
   -4.3297   21.6711  -30.4702 H   0  0  0  0  0  0  0  0  0  0  0  0
   -2.5461   21.8844  -30.4702 H   0  0  0  0  0  0  0  0  0  0  0  0
   -1.0540   23.3130  -29.6320 H   0  0  0  0  0  0  0  0  0  0  0  0
   -0.1557   25.7538  -26.2778 H   0  0  0  0  0  0  0  0  0  0  0  0
   -0.9383   26.6505  -27.6278 H   0  0  0  0  0  0  0  0  0  0  0  0
   -2.1535   24.5209  -25.8100 H   0  0  0  0  0  0  0  0  0  0  0  0
   -2.6758   26.2317  -26.0504 H   0  0  0  0  0  0  0  0  0  0  0  0
   -4.1850   25.0320  -27.4510 H   0  0  0  0  0  0  0  0  0  0  0  0
   -7.5577   23.2958  -29.1387 H   0  0  0  0  0  0  0  0  0  0  0  0
   -9.1994   21.6759  -30.0892 H   0  0  0  0  0  0  0  0  0  0  0  0
  1  2  1  0
  2  3  2  0
  3  4  1  0
  4  5  2  0
  5  6  1  0
  6  7  2  0
  6  8  2  0
  6  9  1  0
  9 10  1  0
  9 11  1  0
 11 12  2  0
 12 13  1  0
 13 14  2  0
 13 15  1  0
 15 16  1  0
 16 17  1  0
  5 18  1  0
 18 19  2  0
 19  2  1  0
 17 11  1  0
  1 20  1  0
  1 21  1  0
  1 22  1  0
  3 23  1  0
  4 24  1  0
 10 25  1  0
 10 26  1  0
 10 27  1  0
 12 28  1  0
 15 29  1  0
 15 30  1  0
 16 31  1  0
 16 32  1  0
 17 33  1  0
 18 34  1  0
 19 35  1  0
M  CHG  1  12   1
M  END
>  <UniqueID>  (48) 
44

>  <SMILES>  (48) 
Cc1ccc(S(=O)(=O)N(C)C2=[NH+]C(=O)CCN2)cc1

>  <Energy>  (48) 
35.236060511131456

>  <Genealogy>  (48) 
Cc1ccc(S(=O)(=O)N(C)C2=[NH+]C(=O)CCN2)cc1 (protonated)
Cc1ccc(S(=O)(=O)N(C)C2=[NH+]C(=O)CCN2)cc1 (3D coordinates assigned)
Cc1ccc(S(=O)(=O)N(C)C2=[NH+]C(=O)CCN2)cc1 (nonaromatic ring conformer: 35.236060511131456 kcal/mol)

>  <smiles>  (48) 
Cc1ccc(S(=O)(=O)N(C)C2=NC(=O)CCN2)cc1

>  <score_type>  (48) 
oracle

>  <origin>  (48) 
adg

>  <m_score__min__energy>  (48) 
-6.8799999999999999

>  <m_primary>  (48) 
energy

$$$$
48:0
     RDKit          3D

 36 37  0  0  1  0  0  0  0  0999 V2000
   -6.6080   18.3280  -32.3420 C   0  0  0  0  0  0  0  0  0  0  0  0
   -5.6930   18.8350  -33.3370 N   0  0  0  0  0  0  0  0  0  0  0  0
   -5.7350   18.1230  -34.5730 C   0  0  0  0  0  0  0  0  0  0  0  0
   -5.7570   20.2750  -33.4640 C   0  0  0  0  0  0  0  0  0  0  0  0
   -4.8500   20.9840  -32.5050 C   0  0  0  0  0  0  0  0  0  0  0  0
   -4.9620   22.4320  -32.6320 N   0  0  0  0  0  0  0  0  0  0  0  0
   -5.0130   23.1720  -31.5770 C   0  0  0  0  0  0  0  0  0  0  0  0
   -3.8650   23.7600  -31.1880 N   0  0  0  0  0  0  0  0  0  0  0  0
   -3.7880   24.5590  -30.0960 C   0  0  0  0  0  0  0  0  0  0  0  0
   -4.9020   24.7850  -29.3570 N   0  0  0  0  0  0  0  0  0  0  0  0
   -6.0640   24.2100  -29.7250 C   0  0  0  0  0  0  0  0  0  0  0  0
   -6.1520   23.3860  -30.8450 C   0  0  0  0  0  0  0  0  0  0  0  0
   -7.4020   22.7590  -31.2540 C   0  0  0  0  0  0  0  0  0  0  0  0
   -7.6150   21.4370  -30.9000 C   0  0  0  0  0  0  0  0  0  0  0  0
   -8.7530   20.7480  -31.2310 C   0  0  0  0  0  0  0  0  0  0  0  0
   -9.7240   21.4170  -31.9530 C   0  0  0  0  0  0  0  0  0  0  0  0
   -9.5240   22.7270  -32.3090 C   0  0  0  0  0  0  0  0  0  0  0  0
   -8.3720   23.4230  -31.9720 C   0  0  0  0  0  0  0  0  0  0  0  0
   -6.2152   18.5457  -31.3378 H   0  0  0  0  0  0  0  0  0  0  0  0
   -7.5883   18.8116  -32.4650 H   0  0  0  0  0  0  0  0  0  0  0  0
   -6.7177   17.2404  -32.4650 H   0  0  0  0  0  0  0  0  0  0  0  0
   -5.7987   17.0434  -34.3722 H   0  0  0  0  0  0  0  0  0  0  0  0
   -6.6159   18.4413  -35.1498 H   0  0  0  0  0  0  0  0  0  0  0  0
   -4.8228   18.3355  -35.1498 H   0  0  0  0  0  0  0  0  0  0  0  0
   -5.4687   20.5504  -34.4892 H   0  0  0  0  0  0  0  0  0  0  0  0
   -6.7877   20.5821  -33.2331 H   0  0  0  0  0  0  0  0  0  0  0  0
   -5.1185   20.6937  -31.4785 H   0  0  0  0  0  0  0  0  0  0  0  0
   -3.8133   20.6973  -32.7355 H   0  0  0  0  0  0  0  0  0  0  0  0
   -2.8305   25.0199  -29.8119 H   0  0  0  0  0  0  0  0  0  0  0  0
   -4.8100   25.4100  -28.5160 H   0  0  0  0  0  0  0  0  0  0  0  0
   -6.9670   24.3962  -29.1251 H   0  0  0  0  0  0  0  0  0  0  0  0
   -6.8345   20.9155  -30.3264 H   0  0  0  0  0  0  0  0  0  0  0  0
   -8.8891   19.6981  -30.9322 H   0  0  0  0  0  0  0  0  0  0  0  0
  -10.6523   20.9016  -32.2406 H   0  0  0  0  0  0  0  0  0  0  0  0
  -10.3064   23.2449  -32.8832 H   0  0  0  0  0  0  0  0  0  0  0  0
   -8.2374   24.4735  -32.2693 H   0  0  0  0  0  0  0  0  0  0  0  0
  1  2  1  0
  2  3  1  0
  2  4  1  0
  4  5  1  0
  5  6  1  0
  6  7  2  0
  7  8  1  0
  8  9  2  0
  9 10  1  0
 10 11  1  0
 11 12  2  0
 12 13  1  0
 13 14  2  0
 14 15  1  0
 15 16  2  0
 16 17  1  0
 17 18  2  0
 12  7  1  0
 18 13  1  0
  1 19  1  0
  1 20  1  0
  1 21  1  0
  3 22  1  0
  3 23  1  0
  3 24  1  0
  4 25  1  0
  4 26  1  0
  5 27  1  0
  5 28  1  0
  9 29  1  0
 10 30  1  0
 11 31  1  0
 14 32  1  0
 15 33  1  0
 16 34  1  0
 17 35  1  0
 18 36  1  0
M  END
>  <smiles>  (49) 
CN(C)CCN=c1nc[nH]cc1-c1ccccc1

>  <score_type>  (49) 
oracle

>  <origin>  (49) 
adg

>  <m_score__min__energy>  (49) 
-6.6699999999999999

>  <m_primary>  (49) 
energy

$$$$
