0:0
     RDKit          3D

 42 44  0  0  0  0  0  0  0  0999 V2000
   -8.9640   23.2510  -32.0790 C   0  0  0  0  0  0  0  0  0  0  0  0
   -7.8220   22.5390  -31.4840 N   0  0  0  0  0  0  0  0  0  0  0  0
   -7.5460   23.0580  -30.1220 C   0  0  0  0  0  0  0  0  0  0  0  0
   -6.1270   22.6990  -29.6660 C   0  0  0  0  0  0  0  0  0  0  0  0
   -5.0500   23.3870  -30.5720 C   0  0  0  0  0  0  0  0  0  0  0  0
   -5.6160   23.6240  -32.0080 C   0  0  0  0  0  0  0  0  0  0  0  0
   -6.6440   22.5490  -32.3910 C   0  0  0  0  0  0  0  0  0  0  0  0
   -3.7630   22.5310  -30.5890 C   0  0  0  0  0  0  0  0  0  0  0  0
   -2.9530   23.0260  -29.4860 N   0  0  0  0  0  0  0  0  0  0  0  0
   -1.6620   22.4750  -29.1680 C   0  0  0  0  0  0  0  0  0  0  0  0
   -0.6210   23.1030  -29.5040 O   0  0  0  0  0  0  0  0  0  0  0  0
   -1.5240   21.1950  -28.4450 C   0  0  0  0  0  0  0  0  0  0  0  0
   -0.3300   20.4590  -28.5410 C   0  0  0  0  0  0  0  0  0  0  0  0
   -0.1960   19.2410  -27.8680 C   0  0  0  0  0  0  0  0  0  0  0  0
   -1.2550   18.7420  -27.1050 C   0  0  0  0  0  0  0  0  0  0  0  0
   -2.4530   19.4560  -27.0210 C   0  0  0  0  0  0  0  0  0  0  0  0
   -3.4870   18.9620  -26.2970 F   0  0  0  0  0  0  0  0  0  0  0  0
   -2.5910   20.6760  -27.6920 C   0  0  0  0  0  0  0  0  0  0  0  0
   -3.4420   24.2940  -28.9640 C   0  0  0  0  0  0  0  0  0  0  0  0
   -4.5730   24.7110  -29.9080 C   0  0  1  0  0  0  0  0  0  0  0  0
   -4.1010   25.6460  -30.8530 O   0  0  0  0  0  0  0  0  0  0  0  0
   -9.6044   23.6503  -31.2787 H   0  0  0  0  0  0  0  0  0  0  0  0
   -8.5955   24.0796  -32.7015 H   0  0  0  0  0  0  0  0  0  0  0  0
   -9.5458   22.5553  -32.7015 H   0  0  0  0  0  0  0  0  0  0  0  0
   -7.6546   24.1526  -30.1268 H   0  0  0  0  0  0  0  0  0  0  0  0
   -8.2615   22.5990  -29.4239 H   0  0  0  0  0  0  0  0  0  0  0  0
   -5.9886   23.0332  -28.6272 H   0  0  0  0  0  0  0  0  0  0  0  0
   -6.0018   21.6088  -29.7425 H   0  0  0  0  0  0  0  0  0  0  0  0
   -6.1006   24.6109  -32.0431 H   0  0  0  0  0  0  0  0  0  0  0  0
   -4.7805   23.5731  -32.7216 H   0  0  0  0  0  0  0  0  0  0  0  0
   -6.9904   22.7418  -33.4171 H   0  0  0  0  0  0  0  0  0  0  0  0
   -6.1501   21.5696  -32.3082 H   0  0  0  0  0  0  0  0  0  0  0  0
   -4.0059   21.4684  -30.4411 H   0  0  0  0  0  0  0  0  0  0  0  0
   -3.2342   22.6077  -31.5505 H   0  0  0  0  0  0  0  0  0  0  0  0
    0.5026   20.8433  -29.1485 H   0  0  0  0  0  0  0  0  0  0  0  0
    0.7443   18.6747  -27.9392 H   0  0  0  0  0  0  0  0  0  0  0  0
   -1.1454   17.7869  -26.5704 H   0  0  0  0  0  0  0  0  0  0  0  0
   -3.5386   21.2312  -27.6299 H   0  0  0  0  0  0  0  0  0  0  0  0
   -3.8221   24.1679  -27.9395 H   0  0  0  0  0  0  0  0  0  0  0  0
   -2.6464   25.0522  -28.9175 H   0  0  0  0  0  0  0  0  0  0  0  0
   -5.4039   25.2099  -29.3878 H   0  0  0  0  0  0  0  0  0  0  0  0
   -3.1100   25.6820  -30.7840 H   0  0  0  0  0  0  0  0  0  0  0  0
  1  2  1  0
  2  3  1  0
  3  4  1  0
  4  5  1  0
  5  6  1  0
  6  7  1  0
  5  8  1  0
  8  9  1  0
  9 10  1  0
 10 11  2  0
 10 12  1  0
 12 13  2  0
 13 14  1  0
 14 15  2  0
 15 16  1  0
 16 17  1  0
 16 18  2  0
  9 19  1  0
 19 20  1  0
 20 21  1  0
  7  2  1  0
 18 12  1  0
 20  5  1  0
  1 22  1  0
  1 23  1  0
  1 24  1  0
  3 25  1  0
  3 26  1  0
  4 27  1  0
  4 28  1  0
  6 29  1  0
  6 30  1  0
  7 31  1  0
  7 32  1  0
  8 33  1  0
  8 34  1  0
 13 35  1  0
 14 36  1  0
 15 37  1  0
 18 38  1  0
 19 39  1  0
 19 40  1  0
 20 41  1  1
 21 42  1  0
M  END
>  <UniqueID>  (1) 
1

>  <SMILES>  (1) 
CN1CCC2(CC1)CN(C(=O)c1cccc(F)c1)C[C@H]2O

>  <Energy>  (1) 
61.934082776838984

>  <Genealogy>  (1) 
CN1CCC2(CC1)CN(C(=O)c1cccc(F)c1)C[C@H]2O (chirality)
CN1CCC2(CC1)CN(C(=O)c1cccc(F)c1)C[C@H]2O (3D coordinates assigned)
CN1CCC2(CC1)CN(C(=O)c1cccc(F)c1)C[C@H]2O (nonaromatic ring conformer: 61.934082776838984 kcal/mol)

>  <smiles>  (1) 
CN1CCC2(CC1)CN(C(=O)c1cccc(F)c1)CC2O

>  <score_type>  (1) 
oracle

>  <origin>  (1) 
adg

>  <m_score__min__energy>  (1) 
-7.9299999999999997

>  <m_primary>  (1) 
energy

$$$$
1:0
     RDKit          3D

 33 36  0  0  0  0  0  0  0  0999 V2000
   -8.7780   19.3180  -32.3980 C   0  0  0  0  0  0  0  0  0  0  0  0
   -9.1120   20.4190  -31.5860 C   0  0  0  0  0  0  0  0  0  0  0  0
   -8.1730   21.4370  -31.3550 C   0  0  0  0  0  0  0  0  0  0  0  0
   -6.9070   21.3190  -31.9390 C   0  0  0  0  0  0  0  0  0  0  0  0
   -6.5890   20.2570  -32.7400 C   0  0  0  0  0  0  0  0  0  0  0  0
   -7.5050   19.2340  -32.9860 C   0  0  0  0  0  0  0  0  0  0  0  0
   -5.2040   20.3950  -33.2670 C   0  0  0  0  0  0  0  0  0  0  0  0
   -4.7200   21.7340  -32.6600 C   0  0  0  0  0  0  0  0  0  0  0  0
   -5.8340   22.2430  -31.8540 N   0  0  0  0  0  0  0  0  0  0  0  0
   -5.6960   23.2810  -30.8680 C   0  0  0  0  0  0  0  0  0  0  0  0
   -6.4860   24.4360  -30.9470 C   0  0  0  0  0  0  0  0  0  0  0  0
   -6.3650   25.4300  -29.9730 C   0  0  0  0  0  0  0  0  0  0  0  0
   -5.4860   25.2850  -28.9450 N   0  0  0  0  0  0  0  0  0  0  0  0
   -4.7040   24.1720  -28.8340 C   0  0  0  0  0  0  0  0  0  0  0  0
   -3.7970   24.0300  -27.7760 C   0  0  0  0  0  0  0  0  0  0  0  0
   -3.0010   22.8870  -27.6900 C   0  0  0  0  0  0  0  0  0  0  0  0
   -3.1170   21.8960  -28.6670 C   0  0  0  0  0  0  0  0  0  0  0  0
   -4.0000   22.0440  -29.6900 N   0  0  0  0  0  0  0  0  0  0  0  0
   -4.7960   23.1430  -29.7980 C   0  0  0  0  0  0  0  0  0  0  0  0
   -9.5162   18.5213  -32.5724 H   0  0  0  0  0  0  0  0  0  0  0  0
  -10.1117   20.4817  -31.1313 H   0  0  0  0  0  0  0  0  0  0  0  0
   -8.4265   22.3061  -30.7302 H   0  0  0  0  0  0  0  0  0  0  0  0
   -7.2365   18.3807  -33.6261 H   0  0  0  0  0  0  0  0  0  0  0  0
   -4.5708   19.5599  -32.9329 H   0  0  0  0  0  0  0  0  0  0  0  0
   -5.1597   20.3812  -34.3660 H   0  0  0  0  0  0  0  0  0  0  0  0
   -3.8357   21.5684  -32.0271 H   0  0  0  0  0  0  0  0  0  0  0  0
   -4.4325   22.4495  -33.4445 H   0  0  0  0  0  0  0  0  0  0  0  0
   -7.2001   24.5596  -31.7746 H   0  0  0  0  0  0  0  0  0  0  0  0
   -6.9849   26.3364  -30.0378 H   0  0  0  0  0  0  0  0  0  0  0  0
   -5.4190   26.0470  -28.2330 H   0  0  0  0  0  0  0  0  0  0  0  0
   -3.7123   24.8186  -27.0138 H   0  0  0  0  0  0  0  0  0  0  0  0
   -2.2887   22.7678  -26.8603 H   0  0  0  0  0  0  0  0  0  0  0  0
   -2.4919   20.9928  -28.6087 H   0  0  0  0  0  0  0  0  0  0  0  0
  1  2  2  0
  2  3  1  0
  3  4  2  0
  4  5  1  0
  5  6  2  0
  5  7  1  0
  7  8  1  0
  8  9  1  0
  9 10  1  0
 10 11  2  0
 11 12  1  0
 12 13  2  0
 13 14  1  0
 14 15  2  0
 15 16  1  0
 16 17  2  0
 17 18  1  0
 18 19  2  0
  6  1  1  0
 19 10  1  0
  9  4  1  0
 19 14  1  0
  1 20  1  0
  2 21  1  0
  3 22  1  0
  6 23  1  0
  7 24  1  0
  7 25  1  0
  8 26  1  0
  8 27  1  0
 11 28  1  0
 12 29  1  0
 13 30  1  0
 15 31  1  0
 16 32  1  0
 17 33  1  0
M  CHG  1  13   1
M  END
>  <UniqueID>  (2) 
2

>  <SMILES>  (2) 
c1ccc2c(c1)CCN2c1cc[nH+]c2cccnc12

>  <Energy>  (2) 
60.852453504029015

>  <Genealogy>  (2) 
c1ccc2c(c1)CCN2c1cc[nH+]c2cccnc12 (protonated)
c1ccc2c(c1)CCN2c1cc[nH+]c2cccnc12 (3D coordinates assigned)
c1ccc2c(c1)CCN2c1cc[nH+]c2cccnc12 (nonaromatic ring conformer: 60.852453504029015 kcal/mol)

>  <smiles>  (2) 
c1ccc2c(c1)CCN2c1ccnc2cccnc12

>  <score_type>  (2) 
oracle

>  <origin>  (2) 
adg

>  <m_score__min__energy>  (2) 
-7.0999999999999996

>  <m_primary>  (2) 
energy

$$$$
2:0
     RDKit          3D

 58 61  0  0  0  0  0  0  0  0999 V2000
   -6.5740   25.6660  -29.3350 C   0  0  0  0  0  0  0  0  0  0  0  0
   -5.3130   24.9200  -29.3390 N   0  0  0  0  0  0  0  0  0  0  0  0
   -5.1090   24.2090  -30.6100 C   0  0  0  0  0  0  0  0  0  0  0  0
   -5.1310   22.6870  -30.4170 C   0  0  0  0  0  0  0  0  0  0  0  0
   -3.7730   22.1210  -30.4120 N   0  0  0  0  0  0  0  0  0  0  0  0
   -3.2240   21.4900  -31.5850 C   0  0  0  0  0  0  0  0  0  0  0  0
   -3.9650   20.5330  -32.2960 C   0  0  0  0  0  0  0  0  0  0  0  0
   -3.4320   19.9130  -33.4300 C   0  0  0  0  0  0  0  0  0  0  0  0
   -4.2170   18.9620  -34.0980 O   0  0  0  0  0  0  0  0  0  0  0  0
   -5.6400   18.9180  -34.0550 C   0  0  0  0  0  0  0  0  0  0  0  0
   -2.1380   20.2610  -33.8620 C   0  0  0  0  0  0  0  0  0  0  0  0
   -1.3900   21.2210  -33.1730 C   0  0  0  0  0  0  0  0  0  0  0  0
   -0.1070   21.5330  -33.6500 O   0  0  0  0  0  0  0  0  0  0  0  0
    0.3420   21.2720  -34.9760 C   0  0  0  0  0  0  0  0  0  0  0  0
   -1.9410   21.8380  -32.0350 C   0  0  0  0  0  0  0  0  0  0  0  0
   -2.9870   22.1750  -29.2130 C   0  0  0  0  0  0  0  0  0  0  0  0
   -2.4700   20.9900  -28.6690 C   0  0  0  0  0  0  0  0  0  0  0  0
   -1.7140   21.0230  -27.4920 C   0  0  0  0  0  0  0  0  0  0  0  0
   -1.4790   22.2430  -26.8500 C   0  0  0  0  0  0  0  0  0  0  0  0
   -0.7530   22.2950  -25.7040 N   0  0  0  0  0  0  0  0  0  0  0  0
   -0.5230   23.4740  -25.0670 C   0  0  0  0  0  0  0  0  0  0  0  0
   -1.0480   24.6670  -25.5980 C   0  0  0  0  0  0  0  0  0  0  0  0
   -0.8310   25.9720  -24.9420 C   0  0  0  0  0  0  0  0  0  0  0  0
   -0.4870   26.2270  -23.6220 C   0  0  0  0  0  0  0  0  0  0  0  0
   -0.3800   27.5580  -23.4600 N   0  0  0  0  0  0  0  0  0  0  0  0
   -0.6510   28.1510  -24.6110 N   0  0  0  0  0  0  0  0  0  0  0  0
   -0.5570   29.5880  -24.8410 C   0  0  0  0  0  0  0  0  0  0  0  0
   -0.9180   27.2170  -25.5430 C   0  0  0  0  0  0  0  0  0  0  0  0
   -1.7760   24.6100  -26.7470 N   0  0  0  0  0  0  0  0  0  0  0  0
   -2.0040   23.4330  -27.3880 C   0  0  0  0  0  0  0  0  0  0  0  0
   -2.7570   23.3980  -28.5660 C   0  0  0  0  0  0  0  0  0  0  0  0
   -6.8871   25.8512  -28.2969 H   0  0  0  0  0  0  0  0  0  0  0  0
   -6.4335   26.6264  -29.8525 H   0  0  0  0  0  0  0  0  0  0  0  0
   -7.3481   25.0804  -29.8525 H   0  0  0  0  0  0  0  0  0  0  0  0
   -4.5400   25.6200  -29.2380 H   0  0  0  0  0  0  0  0  0  0  0  0
   -5.9097   24.4915  -31.3093 H   0  0  0  0  0  0  0  0  0  0  0  0
   -4.1225   24.4908  -31.0068 H   0  0  0  0  0  0  0  0  0  0  0  0
   -5.6173   22.4560  -29.4578 H   0  0  0  0  0  0  0  0  0  0  0  0
   -5.6856   22.2422  -31.2564 H   0  0  0  0  0  0  0  0  0  0  0  0
   -4.9772   20.2677  -31.9568 H   0  0  0  0  0  0  0  0  0  0  0  0
   -5.9750   18.9076  -33.0073 H   0  0  0  0  0  0  0  0  0  0  0  0
   -6.0497   19.8039  -34.5622 H   0  0  0  0  0  0  0  0  0  0  0  0
   -5.9942   18.0085  -34.5622 H   0  0  0  0  0  0  0  0  0  0  0  0
   -1.7110   19.7729  -34.7505 H   0  0  0  0  0  0  0  0  0  0  0  0
    1.2925   20.7195  -34.9392 H   0  0  0  0  0  0  0  0  0  0  0  0
   -0.4112   20.6710  -35.5065 H   0  0  0  0  0  0  0  0  0  0  0  0
    0.4915   22.2239  -35.5065 H   0  0  0  0  0  0  0  0  0  0  0  0
   -1.3612   22.5998  -31.4932 H   0  0  0  0  0  0  0  0  0  0  0  0
   -2.6599   20.0295  -29.1704 H   0  0  0  0  0  0  0  0  0  0  0  0
   -1.3055   20.0917  -27.0727 H   0  0  0  0  0  0  0  0  0  0  0  0
    0.0705   23.4953  -24.1411 H   0  0  0  0  0  0  0  0  0  0  0  0
   -0.3287   25.4691  -22.8406 H   0  0  0  0  0  0  0  0  0  0  0  0
   -0.1130   28.0520  -22.5790 H   0  0  0  0  0  0  0  0  0  0  0  0
   -0.5227   30.1125  -23.8747 H   0  0  0  0  0  0  0  0  0  0  0  0
    0.3575   29.8091  -25.4109 H   0  0  0  0  0  0  0  0  0  0  0  0
   -1.4349   29.9263  -25.4109 H   0  0  0  0  0  0  0  0  0  0  0  0
   -1.1627   27.4090  -26.5981 H   0  0  0  0  0  0  0  0  0  0  0  0
   -3.1683   24.3284  -28.9846 H   0  0  0  0  0  0  0  0  0  0  0  0
  1  2  1  0
  2  3  1  0
  3  4  1  0
  4  5  1  0
  5  6  1  0
  6  7  2  0
  7  8  1  0
  8  9  1  0
  9 10  1  0
  8 11  2  0
 11 12  1  0
 12 13  1  0
 13 14  1  0
 12 15  2  0
  5 16  1  0
 16 17  2  0
 17 18  1  0
 18 19  2  0
 19 20  1  0
 20 21  2  0
 21 22  1  0
 22 23  1  0
 23 24  1  0
 24 25  2  0
 25 26  1  0
 26 27  1  0
 26 28  1  0
 22 29  2  0
 29 30  1  0
 30 31  2  0
 15  6  1  0
 31 16  1  0
 30 19  1  0
 28 23  2  0
  1 32  1  0
  1 33  1  0
  1 34  1  0
  2 35  1  0
  3 36  1  0
  3 37  1  0
  4 38  1  0
  4 39  1  0
  7 40  1  0
 10 41  1  0
 10 42  1  0
 10 43  1  0
 11 44  1  0
 14 45  1  0
 14 46  1  0
 14 47  1  0
 15 48  1  0
 17 49  1  0
 18 50  1  0
 21 51  1  0
 24 52  1  0
 25 53  1  0
 27 54  1  0
 27 55  1  0
 27 56  1  0
 28 57  1  0
 31 58  1  0
M  CHG  1  25   1
M  END
>  <UniqueID>  (3) 
3

>  <SMILES>  (3) 
CNCCN(c1cc(OC)cc(OC)c1)c1ccc2ncc(-c3c[nH+]n(C)c3)nc2c1

>  <Energy>  (3) 
101.50348842556431

>  <Genealogy>  (3) 
CNCCN(c1cc(OC)cc(OC)c1)c1ccc2ncc(-c3c[nH+]n(C)c3)nc2c1 (protonated)
CNCCN(c1cc(OC)cc(OC)c1)c1ccc2ncc(-c3c[nH+]n(C)c3)nc2c1 (3D coordinates assigned)
CNCCN(c1cc(OC)cc(OC)c1)c1ccc2ncc(-c3c[nH+]n(C)c3)nc2c1 (optimized conformer: 101.50348842556431 kcal/mol)

>  <smiles>  (3) 
CNCCN(c1cc(OC)cc(OC)c1)c1ccc2ncc(-c3cnn(C)c3)nc2c1

>  <score_type>  (3) 
oracle

>  <origin>  (3) 
adg

>  <m_score__min__energy>  (3) 
-8.5800000000000001

>  <m_primary>  (3) 
energy

$$$$
3:0
     RDKit          3D

 34 37  0  0  0  0  0  0  0  0999 V2000
   -5.7220   26.0540  -30.2400 C   0  0  0  0  0  0  0  0  0  0  0  0
   -4.8160   25.1540  -30.8710 O   0  0  0  0  0  0  0  0  0  0  0  0
   -5.1290   23.8340  -31.2250 C   0  0  0  0  0  0  0  0  0  0  0  0
   -4.3610   22.7340  -30.8000 C   0  0  0  0  0  0  0  0  0  0  0  0
   -4.7160   21.4360  -31.1810 C   0  0  0  0  0  0  0  0  0  0  0  0
   -5.8380   21.2210  -31.9930 C   0  0  0  0  0  0  0  0  0  0  0  0
   -6.2070   19.8820  -32.3790 N   0  0  0  0  0  0  0  0  0  0  0  0
   -7.4970   19.4080  -32.1740 C   0  0  0  0  0  0  0  0  0  0  0  0
   -8.6710   20.3540  -31.5190 S   0  0  0  0  0  0  0  0  0  0  0  0
   -7.8360   18.1360  -32.5390 N   0  0  0  0  0  0  0  0  0  0  0  0
   -6.8970   17.3440  -33.1020 C   0  0  0  0  0  0  0  0  0  0  0  0
   -7.0690   16.0690  -33.5170 N   0  0  0  0  0  0  0  0  0  0  0  0
   -5.8870   15.7040  -33.9990 N   0  0  0  0  0  0  0  0  0  0  0  0
   -5.5630   14.5020  -34.5330 C   0  0  0  0  0  0  0  0  0  0  0  0
   -4.2500   14.3180  -34.9890 C   0  0  0  0  0  0  0  0  0  0  0  0
   -3.3320   15.3820  -34.8720 C   0  0  0  0  0  0  0  0  0  0  0  0
   -3.7160   16.5730  -34.3240 N   0  0  0  0  0  0  0  0  0  0  0  0
   -4.9970   16.7080  -33.8970 C   0  0  0  0  0  0  0  0  0  0  0  0
   -5.6230   17.7860  -33.3200 C   0  0  0  0  0  0  0  0  0  0  0  0
   -5.2550   19.0730  -32.9580 C   0  0  0  0  0  0  0  0  0  0  0  0
   -4.0760   19.4790  -33.1510 O   0  0  0  0  0  0  0  0  0  0  0  0
   -6.6070   22.3150  -32.4140 C   0  0  0  0  0  0  0  0  0  0  0  0
   -6.2520   23.6110  -32.0330 C   0  0  0  0  0  0  0  0  0  0  0  0
   -5.6293   25.9619  -29.1478 H   0  0  0  0  0  0  0  0  0  0  0  0
   -5.4852   27.0848  -30.5425 H   0  0  0  0  0  0  0  0  0  0  0  0
   -6.7512   25.8104  -30.5425 H   0  0  0  0  0  0  0  0  0  0  0  0
   -3.4774   22.8958  -30.1652 H   0  0  0  0  0  0  0  0  0  0  0  0
   -4.1126   20.5809  -30.8422 H   0  0  0  0  0  0  0  0  0  0  0  0
   -6.3071   13.6952  -34.6066 H   0  0  0  0  0  0  0  0  0  0  0  0
   -3.9410   13.3592  -35.4309 H   0  0  0  0  0  0  0  0  0  0  0  0
   -2.2983   15.2519  -35.2249 H   0  0  0  0  0  0  0  0  0  0  0  0
   -3.0310   17.3570  -34.2410 H   0  0  0  0  0  0  0  0  0  0  0  0
   -7.4924   22.1523  -33.0461 H   0  0  0  0  0  0  0  0  0  0  0  0
   -6.8592   24.4640  -32.3701 H   0  0  0  0  0  0  0  0  0  0  0  0
  1  2  1  0
  2  3  1  0
  3  4  2  0
  4  5  1  0
  5  6  2  0
  6  7  1  0
  7  8  1  0
  8  9  2  0
  8 10  1  0
 10 11  1  0
 11 12  2  0
 12 13  1  0
 13 14  1  0
 14 15  2  0
 15 16  1  0
 16 17  2  0
 17 18  1  0
 18 19  2  0
 19 20  1  0
 20 21  2  0
  6 22  1  0
 22 23  2  0
 23  3  1  0
 20  7  1  0
 19 11  1  0
 18 13  1  0
  1 24  1  0
  1 25  1  0
  1 26  1  0
  4 27  1  0
  5 28  1  0
 14 29  1  0
 15 30  1  0
 16 31  1  0
 17 32  1  0
 22 33  1  0
 23 34  1  0
M  CHG  2  10  -1  17   1
M  END
>  <UniqueID>  (4) 
4

>  <SMILES>  (4) 
COc1ccc(-n2c(=S)[n-]c3nn4ccc[nH+]c4c3c2=O)cc1

>  <Energy>  (4) 
98.58387069341778

>  <Genealogy>  (4) 
COc1ccc(-n2c(=S)[n-]c3nn4ccc[nH+]c4c3c2=O)cc1 (protonated)
COc1ccc(-n2c(=S)[n-]c3nn4ccc[nH+]c4c3c2=O)cc1 (3D coordinates assigned)
COc1ccc(-n2c(=S)[n-]c3nn4ccc[nH+]c4c3c2=O)cc1 (optimized conformer: 98.58387069341778 kcal/mol)

>  <smiles>  (4) 
COc1ccc(-n2c(=S)[nH]c3nn4cccnc4c3c2=O)cc1

>  <score_type>  (4) 
oracle

>  <origin>  (4) 
adg

>  <m_score__min__energy>  (4) 
-7.1900000000000004

>  <m_primary>  (4) 
energy

$$$$
4:0
     RDKit          3D

 48 51  0  0  0  0  0  0  0  0999 V2000
   -5.6690   25.7260  -30.1550 C   0  0  0  0  0  0  0  0  0  0  0  0
   -5.1130   24.8960  -31.1700 O   0  0  0  0  0  0  0  0  0  0  0  0
   -5.5800   23.6110  -31.4890 C   0  0  0  0  0  0  0  0  0  0  0  0
   -6.9490   23.3660  -31.4010 C   0  0  0  0  0  0  0  0  0  0  0  0
   -7.4800   22.1180  -31.7520 C   0  0  0  0  0  0  0  0  0  0  0  0
   -6.6290   21.0920  -32.2210 C   0  0  0  0  0  0  0  0  0  0  0  0
   -5.2210   21.2880  -32.1660 C   0  0  0  0  0  0  0  0  0  0  0  0
   -4.7190   22.5640  -31.8510 C   0  0  0  0  0  0  0  0  0  0  0  0
   -4.2440   20.1270  -32.1640 C   0  0  0  0  0  0  0  0  0  0  0  0
   -4.0150   19.5160  -33.4950 N   0  0  1  0  0  0  0  0  0  0  0  0
   -3.1270   18.3330  -33.3450 C   0  0  0  0  0  0  0  0  0  0  0  0
   -1.6900   18.7250  -33.0800 C   0  0  0  0  0  0  0  0  0  0  0  0
   -1.1670   19.9200  -33.6040 C   0  0  0  0  0  0  0  0  0  0  0  0
    0.1610   20.2780  -33.3530 C   0  0  0  0  0  0  0  0  0  0  0  0
    0.9780   19.4450  -32.5810 C   0  0  0  0  0  0  0  0  0  0  0  0
    0.4670   18.2530  -32.0610 C   0  0  0  0  0  0  0  0  0  0  0  0
   -0.8610   17.8920  -32.3100 C   0  0  0  0  0  0  0  0  0  0  0  0
   -5.2640   19.1630  -34.2220 C   0  0  0  0  0  0  0  0  0  0  0  0
   -6.4310   18.7290  -33.3080 C   0  0  0  0  0  0  0  0  0  0  0  0
   -7.3160   19.9310  -32.9270 C   0  0  1  0  0  0  0  0  0  0  0  0
   -8.4790   19.5010  -32.1330 N   0  0  0  0  0  0  0  0  0  0  0  0
   -9.4820   20.5760  -32.1270 C   0  0  0  0  0  0  0  0  0  0  0  0
   -8.9380   21.8450  -31.4520 C   0  0  0  0  0  0  0  0  0  0  0  0
   -5.4008   25.3256  -29.1662 H   0  0  0  0  0  0  0  0  0  0  0  0
   -5.2716   26.7466  -30.2574 H   0  0  0  0  0  0  0  0  0  0  0  0
   -6.7640   25.7469  -30.2574 H   0  0  0  0  0  0  0  0  0  0  0  0
   -7.6216   24.1631  -31.0513 H   0  0  0  0  0  0  0  0  0  0  0  0
   -3.6344   22.7436  -31.8891 H   0  0  0  0  0  0  0  0  0  0  0  0
   -3.2787   20.4905  -31.7818 H   0  0  0  0  0  0  0  0  0  0  0  0
   -4.6886   19.3442  -31.5319 H   0  0  0  0  0  0  0  0  0  0  0  0
   -3.5080   20.2350  -34.0670 H   0  0  0  0  0  0  0  0  0  0  0  0
   -3.4885   17.7235  -32.5037 H   0  0  0  0  0  0  0  0  0  0  0  0
   -3.1539   17.7695  -34.2893 H   0  0  0  0  0  0  0  0  0  0  0  0
   -1.8052   20.5761  -34.2140 H   0  0  0  0  0  0  0  0  0  0  0  0
    0.5640   21.2158  -33.7630 H   0  0  0  0  0  0  0  0  0  0  0  0
    2.0224   19.7284  -32.3834 H   0  0  0  0  0  0  0  0  0  0  0  0
    1.1100   17.5977  -31.4551 H   0  0  0  0  0  0  0  0  0  0  0  0
   -1.2584   16.9514  -31.9010 H   0  0  0  0  0  0  0  0  0  0  0  0
   -5.5869   20.0422  -34.7989 H   0  0  0  0  0  0  0  0  0  0  0  0
   -5.0242   18.2984  -34.8583 H   0  0  0  0  0  0  0  0  0  0  0  0
   -7.0444   17.9853  -33.8378 H   0  0  0  0  0  0  0  0  0  0  0  0
   -6.0110   18.2994  -32.3866 H   0  0  0  0  0  0  0  0  0  0  0  0
   -7.6212   20.3319  -33.9048 H   0  0  0  0  0  0  0  0  0  0  0  0
   -8.9240   18.6780  -32.6020 H   0  0  0  0  0  0  0  0  0  0  0  0
   -9.7591   20.8131  -33.1648 H   0  0  0  0  0  0  0  0  0  0  0  0
  -10.3581   20.2296  -31.5592 H   0  0  0  0  0  0  0  0  0  0  0  0
   -9.5306   22.7041  -31.7995 H   0  0  0  0  0  0  0  0  0  0  0  0
   -9.0186   21.6904  -30.3659 H   0  0  0  0  0  0  0  0  0  0  0  0
  1  2  1  0
  2  3  1  0
  3  4  2  0
  4  5  1  0
  5  6  2  0
  6  7  1  0
  7  8  2  0
  7  9  1  0
  9 10  1  0
 10 11  1  0
 11 12  1  0
 12 13  2  0
 13 14  1  0
 14 15  2  0
 15 16  1  0
 16 17  2  0
 10 18  1  0
 18 19  1  0
 19 20  1  0
 20 21  1  0
 21 22  1  0
 22 23  1  0
  8  3  1  0
 17 12  1  0
 23  5  1  0
 20  6  1  0
  1 24  1  0
  1 25  1  0
  1 26  1  0
  4 27  1  0
  8 28  1  0
  9 29  1  0
  9 30  1  0
 10 31  1  6
 11 32  1  0
 11 33  1  0
 13 34  1  0
 14 35  1  0
 15 36  1  0
 16 37  1  0
 17 38  1  0
 18 39  1  0
 18 40  1  0
 19 41  1  0
 19 42  1  0
 20 43  1  6
 21 44  1  0
 22 45  1  0
 22 46  1  0
 23 47  1  0
 23 48  1  0
M  CHG  1  10   1
M  END
>  <UniqueID>  (5) 
5

>  <SMILES>  (5) 
COc1cc2c3c(c1)C[N@@H+](Cc1ccccc1)CC[C@H]3NCC2

>  <Energy>  (5) 
78.37275746509843

>  <Genealogy>  (5) 
COc1cc2c3c(c1)C[NH+](Cc1ccccc1)CCC3NCC2 (protonated)
COc1cc2c3c(c1)C[N@@H+](Cc1ccccc1)CC[C@H]3NCC2 (chirality)
COc1cc2c3c(c1)C[N@@H+](Cc1ccccc1)CC[C@H]3NCC2 (3D coordinates assigned)
COc1cc2c3c(c1)C[N@@H+](Cc1ccccc1)CC[C@H]3NCC2 (nonaromatic ring conformer: 78.37275746509843 kcal/mol)

>  <smiles>  (5) 
COc1cc2c3c(c1)CN(Cc1ccccc1)CCC3NCC2

>  <score_type>  (5) 
oracle

>  <origin>  (5) 
adg

>  <m_score__min__energy>  (5) 
-6.3700000000000001

>  <m_primary>  (5) 
energy

$$$$
5:0
     RDKit          3D

 47 48  0  0  0  0  0  0  0  0999 V2000
   -7.7607   24.4278  -30.5988 H   0  0  0  0  0  0  0  0  0  0  0  0
   -6.7250   24.4840  -30.9650 C   0  0  0  0  0  0  0  0  0  0  0  0
   -5.7410   25.2040  -30.1210 C   0  0  0  0  0  0  0  0  0  0  0  0
   -6.1040   25.7320  -29.0390 O   0  0  0  0  0  0  0  0  0  0  0  0
   -4.3510   25.2530  -30.4730 N   0  0  0  0  0  0  0  0  0  0  0  0
   -3.5020   24.0980  -30.7480 C   0  0  0  0  0  0  0  0  0  0  0  0
   -2.4772   24.3144  -30.4119 H   0  0  0  0  0  0  0  0  0  0  0  0
   -3.5136   23.8989  -31.8298 H   0  0  0  0  0  0  0  0  0  0  0  0
   -4.0230   22.8570  -30.0110 C   0  0  0  0  0  0  0  0  0  0  0  0
   -3.8438   21.9724  -30.6397 H   0  0  0  0  0  0  0  0  0  0  0  0
   -5.0959   23.0076  -29.8205 H   0  0  0  0  0  0  0  0  0  0  0  0
   -3.3340   22.6450  -28.6550 C   0  0  0  0  0  0  0  0  0  0  0  0
   -2.4163   23.2509  -28.6277 H   0  0  0  0  0  0  0  0  0  0  0  0
   -3.1149   21.5715  -28.5573 H   0  0  0  0  0  0  0  0  0  0  0  0
   -4.2280   23.0490  -27.4650 C   0  0  0  0  0  0  0  0  0  0  0  0
   -3.7040   22.7997  -26.5305 H   0  0  0  0  0  0  0  0  0  0  0  0
   -5.1756   22.4984  -27.5591 H   0  0  0  0  0  0  0  0  0  0  0  0
   -4.5480   24.4890  -27.4570 N   0  0  0  0  0  0  0  0  0  0  0  0
   -5.5900   24.5980  -27.4440 H   0  0  0  0  0  0  0  0  0  0  0  0
   -4.2060   24.9190  -28.3490 H   0  0  0  0  0  0  0  0  0  0  0  0
   -3.9760   25.2430  -26.3250 C   0  0  0  0  0  0  0  0  0  0  0  0
   -4.3079   24.7738  -25.3871 H   0  0  0  0  0  0  0  0  0  0  0  0
   -4.3271   26.2821  -26.4091 H   0  0  0  0  0  0  0  0  0  0  0  0
   -2.4440   25.2720  -26.3420 C   0  0  0  0  0  0  0  0  0  0  0  0
   -2.0659   25.2792  -25.3090 H   0  0  0  0  0  0  0  0  0  0  0  0
   -2.0662   24.3808  -26.8646 H   0  0  0  0  0  0  0  0  0  0  0  0
   -2.1002   26.1768  -26.8646 H   0  0  0  0  0  0  0  0  0  0  0  0
   -6.4530   23.8960  -32.1390 C   0  0  0  0  0  0  0  0  0  0  0  0
   -6.3604   24.5417  -33.0247 H   0  0  0  0  0  0  0  0  0  0  0  0
   -6.2690   22.4430  -32.3270 C   0  0  0  0  0  0  0  0  0  0  0  0
   -5.2586   22.0360  -32.4805 H   0  0  0  0  0  0  0  0  0  0  0  0
   -7.3230   21.6170  -32.3120 C   0  0  0  0  0  0  0  0  0  0  0  0
   -8.3122   22.0433  -32.0888 H   0  0  0  0  0  0  0  0  0  0  0  0
   -7.2340   20.1600  -32.5790 C   0  0  0  0  0  0  0  0  0  0  0  0
   -8.1030   19.2160  -31.9600 C   0  0  0  0  0  0  0  0  0  0  0  0
   -8.8791   19.5647  -31.2628 H   0  0  0  0  0  0  0  0  0  0  0  0
   -7.9770   17.8410  -32.2330 C   0  0  0  0  0  0  0  0  0  0  0  0
   -8.6491   17.1061  -31.7659 H   0  0  0  0  0  0  0  0  0  0  0  0
   -6.9770   17.4410  -33.1110 C   0  0  0  0  0  0  0  0  0  0  0  0
   -6.1360   18.3310  -33.6950 C   0  0  0  0  0  0  0  0  0  0  0  0
   -6.2260   19.6980  -33.4540 C   0  0  0  0  0  0  0  0  0  0  0  0
   -5.5294   20.4018  -33.9330 H   0  0  0  0  0  0  0  0  0  0  0  0
   -5.2470   17.6570  -34.5090 O   0  0  0  0  0  0  0  0  0  0  0  0
   -5.5480   16.2560  -34.4310 C   0  0  0  0  0  0  0  0  0  0  0  0
   -5.8214   15.8639  -35.4217 H   0  0  0  0  0  0  0  0  0  0  0  0
   -4.6853   15.6674  -34.0855 H   0  0  0  0  0  0  0  0  0  0  0  0
   -6.6580   16.1630  -33.5290 O   0  0  0  0  0  0  0  0  0  0  0  0
  1  2  1  0
  2  3  1  0
  3  4  2  0
  3  5  1  0
  5  6  1  0
  6  7  1  0
  6  8  1  0
  6  9  1  0
  9 10  1  0
  9 11  1  0
  9 12  1  0
 12 13  1  0
 12 14  1  0
 12 15  1  0
 15 16  1  0
 15 17  1  0
 15 18  1  0
 18 19  1  0
 18 20  1  0
 18 21  1  0
 21 22  1  0
 21 23  1  0
 21 24  1  0
 24 25  1  0
 24 26  1  0
 24 27  1  0
  2 28  2  0
 28 29  1  0
 28 30  1  0
 30 31  1  0
 30 32  2  0
 32 33  1  0
 32 34  1  0
 34 35  2  0
 35 36  1  0
 35 37  1  0
 37 38  1  0
 37 39  2  0
 39 40  1  0
 40 41  2  0
 41 42  1  0
 40 43  1  0
 43 44  1  0
 44 45  1  0
 44 46  1  0
 44 47  1  0
 41 34  1  0
 47 39  1  0
M  CHG  2   5  -1  18   1
M  END
>  <UniqueID>  (6) 
6

>  <SMILES>  (6) 
CC[NH2+]CCCC[N-]C(=O)/C=C\C=C\c1ccc2c(c1)OCO2

>  <Energy>  (6) 
72.2387109650924

>  <Genealogy>  (6) 
CC[NH2+]CCCC[N-]C(=O)C=CC=Cc1ccc2c(c1)OCO2 (protonated)
CC[NH2+]CCCC[N-]C(=O)/C=C\C=C\c1ccc2c(c1)OCO2 (cis-trans isomerization)
CC[NH2+]CCCC[N-]C(=O)/C=C\C=C\c1ccc2c(c1)OCO2 (3D coordinates assigned)
CC[NH2+]CCCC[N-]C(=O)/C=C\C=C\c1ccc2c(c1)OCO2 (nonaromatic ring conformer: 72.2387109650924 kcal/mol)

>  <smiles>  (6) 
CCNCCCCNC(=O)C=CC=Cc1ccc2c(c1)OCO2

>  <score_type>  (6) 
oracle

>  <origin>  (6) 
adg

>  <m_score__min__energy>  (6) 
-8.6099999999999994

>  <m_primary>  (6) 
energy

$$$$
6:0
     RDKit          3D

 48 48  0  0  0  0  0  0  0  0999 V2000
   -1.5650   25.1850  -28.2440 C   0  0  0  0  0  0  0  0  0  0  0  0
   -2.2240   24.2150  -29.2110 C   0  0  0  0  0  0  0  0  0  0  0  0
   -3.1440   24.9190  -30.0400 O   0  0  0  0  0  0  0  0  0  0  0  0
   -4.3860   24.4160  -30.4530 C   0  0  0  0  0  0  0  0  0  0  0  0
   -4.5070   23.2540  -31.2390 C   0  0  0  0  0  0  0  0  0  0  0  0
   -5.7680   22.7920  -31.6260 C   0  0  0  0  0  0  0  0  0  0  0  0
   -6.9260   23.4880  -31.2440 C   0  0  0  0  0  0  0  0  0  0  0  0
   -8.2840   22.9690  -31.6300 C   0  0  0  0  0  0  0  0  0  0  0  0
   -8.4210   21.4890  -31.2650 C   0  0  0  0  0  0  0  0  0  0  0  0
   -9.0010   20.7490  -32.3910 N   0  0  0  0  0  0  0  0  0  0  0  0
   -9.1440   19.3150  -32.0890 C   0  0  0  0  0  0  0  0  0  0  0  0
   -8.0080   18.5090  -32.7440 C   0  0  0  0  0  0  0  0  0  0  0  0
   -6.7230   19.2680  -32.8170 N   0  0  0  0  0  0  0  0  0  0  0  0
   -6.1330   19.2350  -34.1860 C   0  0  0  0  0  0  0  0  0  0  0  0
   -5.7510   17.8330  -34.6930 C   0  0  0  0  0  0  0  0  0  0  0  0
   -5.7830   18.8230  -31.7550 C   0  0  0  0  0  0  0  0  0  0  0  0
   -6.1340   17.4420  -31.1860 C   0  0  0  0  0  0  0  0  0  0  0  0
   -6.8050   24.6380  -30.4490 C   0  0  0  0  0  0  0  0  0  0  0  0
   -5.5430   25.0990  -30.0630 C   0  0  0  0  0  0  0  0  0  0  0  0
   -1.7768   24.8732  -27.2106 H   0  0  0  0  0  0  0  0  0  0  0  0
   -0.4777   25.1872  -28.4108 H   0  0  0  0  0  0  0  0  0  0  0  0
   -1.9635   26.1966  -28.4108 H   0  0  0  0  0  0  0  0  0  0  0  0
   -1.4534   23.7426  -29.8380 H   0  0  0  0  0  0  0  0  0  0  0  0
   -2.7615   23.4412  -28.6433 H   0  0  0  0  0  0  0  0  0  0  0  0
   -3.6046   22.7072  -31.5500 H   0  0  0  0  0  0  0  0  0  0  0  0
   -5.8537   21.8786  -32.2329 H   0  0  0  0  0  0  0  0  0  0  0  0
   -9.0554   23.5451  -31.0980 H   0  0  0  0  0  0  0  0  0  0  0  0
   -8.4085   23.0782  -32.7175 H   0  0  0  0  0  0  0  0  0  0  0  0
   -7.4281   21.0776  -31.0309 H   0  0  0  0  0  0  0  0  0  0  0  0
   -9.0797   21.3913  -30.3895 H   0  0  0  0  0  0  0  0  0  0  0  0
   -9.9510   21.1460  -32.5860 H   0  0  0  0  0  0  0  0  0  0  0  0
   -9.1090   19.1696  -30.9992 H   0  0  0  0  0  0  0  0  0  0  0  0
  -10.1062   18.9620  -32.4886 H   0  0  0  0  0  0  0  0  0  0  0  0
   -7.8424   17.5944  -32.1558 H   0  0  0  0  0  0  0  0  0  0  0  0
   -8.3164   18.2825  -33.7753 H   0  0  0  0  0  0  0  0  0  0  0  0
   -6.9270   20.2750  -32.6090 H   0  0  0  0  0  0  0  0  0  0  0  0
   -6.8668   19.6629  -34.8848 H   0  0  0  0  0  0  0  0  0  0  0  0
   -5.1965   19.8096  -34.1324 H   0  0  0  0  0  0  0  0  0  0  0  0
   -5.5702   17.1693  -33.8346 H   0  0  0  0  0  0  0  0  0  0  0  0
   -6.5715   17.4277  -35.3034 H   0  0  0  0  0  0  0  0  0  0  0  0
   -4.8383   17.8999  -35.3034 H   0  0  0  0  0  0  0  0  0  0  0  0
   -4.7691   18.7802  -32.1794 H   0  0  0  0  0  0  0  0  0  0  0  0
   -5.8516   19.5468  -30.9295 H   0  0  0  0  0  0  0  0  0  0  0  0
   -6.1231   17.4847  -30.0869 H   0  0  0  0  0  0  0  0  0  0  0  0
   -7.1357   17.1468  -31.5316 H   0  0  0  0  0  0  0  0  0  0  0  0
   -5.3948   16.7044  -31.5316 H   0  0  0  0  0  0  0  0  0  0  0  0
   -7.7073   25.1792  -30.1281 H   0  0  0  0  0  0  0  0  0  0  0  0
   -5.4589   26.0066  -29.4473 H   0  0  0  0  0  0  0  0  0  0  0  0
  1  2  1  0
  2  3  1  0
  3  4  1  0
  4  5  2  0
  5  6  1  0
  6  7  2  0
  7  8  1  0
  8  9  1  0
  9 10  1  0
 10 11  1  0
 11 12  1  0
 12 13  1  0
 13 14  1  0
 14 15  1  0
 13 16  1  0
 16 17  1  0
  7 18  1  0
 18 19  2  0
 19  4  1  0
  1 20  1  0
  1 21  1  0
  1 22  1  0
  2 23  1  0
  2 24  1  0
  5 25  1  0
  6 26  1  0
  8 27  1  0
  8 28  1  0
  9 29  1  0
  9 30  1  0
 10 31  1  0
 11 32  1  0
 11 33  1  0
 12 34  1  0
 12 35  1  0
 13 36  1  0
 14 37  1  0
 14 38  1  0
 15 39  1  0
 15 40  1  0
 15 41  1  0
 16 42  1  0
 16 43  1  0
 17 44  1  0
 17 45  1  0
 17 46  1  0
 18 47  1  0
 19 48  1  0
M  CHG  1  13   1
M  END
>  <UniqueID>  (7) 
7

>  <SMILES>  (7) 
CCOc1ccc(CCNCC[NH+](CC)CC)cc1

>  <Energy>  (7) 
43.28803683217517

>  <Genealogy>  (7) 
CCOc1ccc(CCNCC[NH+](CC)CC)cc1 (protonated)
CCOc1ccc(CCNCC[NH+](CC)CC)cc1 (3D coordinates assigned)
CCOc1ccc(CCNCC[NH+](CC)CC)cc1 (optimized conformer: 43.28803683217517 kcal/mol)

>  <smiles>  (7) 
CCOc1ccc(CCNCCN(CC)CC)cc1

>  <score_type>  (7) 
oracle

>  <origin>  (7) 
adg

>  <m_score__min__energy>  (7) 
-6.2300000000000004

>  <m_primary>  (7) 
energy

$$$$
7:0
     RDKit          3D

 55 58  0  0  0  0  0  0  0  0999 V2000
   -3.2710   17.0800  -33.4240 C   0  0  0  0  0  0  0  0  0  0  0  0
   -4.3720   18.0590  -33.1100 C   0  0  0  0  0  0  0  0  0  0  0  0
   -5.6480   17.5950  -32.9580 N   0  0  0  0  0  0  0  0  0  0  0  0
   -6.6810   18.4390  -32.6790 C   0  0  0  0  0  0  0  0  0  0  0  0
   -7.9900   17.9560  -32.5280 C   0  0  0  0  0  0  0  0  0  0  0  0
   -9.0330   18.8420  -32.2430 C   0  0  0  0  0  0  0  0  0  0  0  0
   -8.7770   20.2100  -32.1120 C   0  0  0  0  0  0  0  0  0  0  0  0
   -7.4760   20.7010  -32.2660 C   0  0  0  0  0  0  0  0  0  0  0  0
   -6.4280   19.8180  -32.5490 C   0  0  0  0  0  0  0  0  0  0  0  0
   -5.1600   20.2780  -32.6860 N   0  0  0  0  0  0  0  0  0  0  0  0
   -4.1200   19.4430  -32.9480 C   0  0  0  0  0  0  0  0  0  0  0  0
   -2.7680   20.0260  -33.0770 C   0  0  0  0  0  0  0  0  0  0  0  0
   -2.0740   19.9270  -34.2950 C   0  0  0  0  0  0  0  0  0  0  0  0
   -0.7970   20.4770  -34.4240 C   0  0  0  0  0  0  0  0  0  0  0  0
   -0.1950   21.1100  -33.3350 C   0  0  0  0  0  0  0  0  0  0  0  0
   -0.8680   21.1980  -32.1140 C   0  0  0  0  0  0  0  0  0  0  0  0
   -2.1660   20.6690  -31.9770 C   0  0  0  0  0  0  0  0  0  0  0  0
   -2.8820   20.7600  -30.7710 O   0  0  0  0  0  0  0  0  0  0  0  0
   -2.7000   21.7650  -29.7710 C   0  0  0  0  0  0  0  0  0  0  0  0
   -2.5640   23.1480  -30.4160 C   0  0  0  0  0  0  0  0  0  0  0  0
   -3.8970   23.7250  -30.6970 N   0  0  0  0  0  0  0  0  0  0  0  0
   -4.5910   24.1850  -29.4630 C   0  0  0  0  0  0  0  0  0  0  0  0
   -5.5640   25.3610  -29.6730 C   0  0  0  0  0  0  0  0  0  0  0  0
   -6.9870   24.9700  -30.1540 C   0  0  0  0  0  0  0  0  0  0  0  0
   -7.0870   23.6880  -31.0020 C   0  0  0  0  0  0  0  0  0  0  0  0
   -6.0110   23.5620  -32.0940 C   0  0  0  0  0  0  0  0  0  0  0  0
   -4.6880   22.9130  -31.6490 C   0  0  0  0  0  0  0  0  0  0  0  0
   -2.8415   16.6981  -32.4861 H   0  0  0  0  0  0  0  0  0  0  0  0
   -3.6806   16.2423  -34.0076 H   0  0  0  0  0  0  0  0  0  0  0  0
   -2.4870   17.5847  -34.0076 H   0  0  0  0  0  0  0  0  0  0  0  0
   -5.8350   16.5720  -33.0580 H   0  0  0  0  0  0  0  0  0  0  0  0
   -8.1952   16.8805  -32.6339 H   0  0  0  0  0  0  0  0  0  0  0  0
  -10.0580   18.4617  -32.1215 H   0  0  0  0  0  0  0  0  0  0  0  0
   -9.6013   20.9028  -31.8871 H   0  0  0  0  0  0  0  0  0  0  0  0
   -7.2775   21.7782  -32.1649 H   0  0  0  0  0  0  0  0  0  0  0  0
   -2.5386   19.4142  -35.1501 H   0  0  0  0  0  0  0  0  0  0  0  0
   -0.2649   20.4114  -35.3845 H   0  0  0  0  0  0  0  0  0  0  0  0
    0.8119   21.5406  -33.4387 H   0  0  0  0  0  0  0  0  0  0  0  0
   -0.3815   21.6831  -31.2549 H   0  0  0  0  0  0  0  0  0  0  0  0
   -3.5683   21.7647  -29.0957 H   0  0  0  0  0  0  0  0  0  0  0  0
   -1.7809   21.5437  -29.2085 H   0  0  0  0  0  0  0  0  0  0  0  0
   -2.0188   23.8142  -29.7312 H   0  0  0  0  0  0  0  0  0  0  0  0
   -2.0153   23.0448  -31.3638 H   0  0  0  0  0  0  0  0  0  0  0  0
   -5.1607   23.3376  -29.0540 H   0  0  0  0  0  0  0  0  0  0  0  0
   -3.8070   24.5478  -28.7820 H   0  0  0  0  0  0  0  0  0  0  0  0
   -5.6638   25.8939  -28.7159 H   0  0  0  0  0  0  0  0  0  0  0  0
   -5.1300   25.9736  -30.4770 H   0  0  0  0  0  0  0  0  0  0  0  0
   -7.6174   24.8336  -29.2629 H   0  0  0  0  0  0  0  0  0  0  0  0
   -7.3106   25.7876  -30.8149 H   0  0  0  0  0  0  0  0  0  0  0  0
   -6.9969   22.8226  -30.3290 H   0  0  0  0  0  0  0  0  0  0  0  0
   -8.0564   23.7296  -31.5202 H   0  0  0  0  0  0  0  0  0  0  0  0
   -6.4276   22.9558  -32.9119 H   0  0  0  0  0  0  0  0  0  0  0  0
   -5.7583   24.5911  -32.3891 H   0  0  0  0  0  0  0  0  0  0  0  0
   -4.9213   21.9510  -31.1693 H   0  0  0  0  0  0  0  0  0  0  0  0
   -4.0726   22.8035  -32.5542 H   0  0  0  0  0  0  0  0  0  0  0  0
  1  2  1  0
  2  3  2  0
  3  4  1  0
  4  5  2  0
  5  6  1  0
  6  7  2  0
  7  8  1  0
  8  9  2  0
  9 10  1  0
 10 11  2  0
 11 12  1  0
 12 13  2  0
 13 14  1  0
 14 15  2  0
 15 16  1  0
 16 17  2  0
 17 18  1  0
 18 19  1  0
 19 20  1  0
 20 21  1  0
 21 22  1  0
 22 23  1  0
 23 24  1  0
 24 25  1  0
 25 26  1  0
 26 27  1  0
 11  2  1  0
 17 12  1  0
 27 21  1  0
  9  4  1  0
  1 28  1  0
  1 29  1  0
  1 30  1  0
  3 31  1  0
  5 32  1  0
  6 33  1  0
  7 34  1  0
  8 35  1  0
 13 36  1  0
 14 37  1  0
 15 38  1  0
 16 39  1  0
 19 40  1  0
 19 41  1  0
 20 42  1  0
 20 43  1  0
 22 44  1  0
 22 45  1  0
 23 46  1  0
 23 47  1  0
 24 48  1  0
 24 49  1  0
 25 50  1  0
 25 51  1  0
 26 52  1  0
 26 53  1  0
 27 54  1  0
 27 55  1  0
M  CHG  1   3   1
M  END
>  <UniqueID>  (8) 
8

>  <SMILES>  (8) 
Cc1[nH+]c2ccccc2nc1-c1ccccc1OCCN1CCCCCC1

>  <Energy>  (8) 
82.70083355280097

>  <Genealogy>  (8) 
Cc1[nH+]c2ccccc2nc1-c1ccccc1OCCN1CCCCCC1 (protonated)
Cc1[nH+]c2ccccc2nc1-c1ccccc1OCCN1CCCCCC1 (3D coordinates assigned)
Cc1[nH+]c2ccccc2nc1-c1ccccc1OCCN1CCCCCC1 (nonaromatic ring conformer: 82.70083355280097 kcal/mol)

>  <smiles>  (8) 
Cc1nc2ccccc2nc1-c1ccccc1OCCN1CCCCCC1

>  <score_type>  (8) 
oracle

>  <origin>  (8) 
adg

>  <m_score__min__energy>  (8) 
-6.5599999999999996

>  <m_primary>  (8) 
energy

$$$$
8:0
     RDKit          3D

 57 61  0  0  0  0  0  0  0  0999 V2000
   -0.4760   26.0210  -23.7510 C   0  0  0  0  0  0  0  0  0  0  0  0
   -1.5940   26.4850  -24.4980 O   0  0  0  0  0  0  0  0  0  0  0  0
   -2.0920   25.8080  -25.6140 C   0  0  0  0  0  0  0  0  0  0  0  0
   -1.2700   25.6180  -26.7260 C   0  0  0  0  0  0  0  0  0  0  0  0
   -1.7660   24.9410  -27.8410 C   0  0  0  0  0  0  0  0  0  0  0  0
   -3.0820   24.4450  -27.8420 C   0  0  0  0  0  0  0  0  0  0  0  0
   -3.6470   23.7270  -29.0130 C   0  0  0  0  0  0  0  0  0  0  0  0
   -2.8500   22.9150  -29.8380 C   0  0  0  0  0  0  0  0  0  0  0  0
   -3.4190   22.2620  -30.9430 C   0  0  0  0  0  0  0  0  0  0  0  0
   -2.5400   21.4600  -31.8240 C   0  0  0  0  0  0  0  0  0  0  0  0
   -1.5560   20.6230  -31.2790 C   0  0  0  0  0  0  0  0  0  0  0  0
   -0.7310   19.8780  -32.1210 C   0  0  0  0  0  0  0  0  0  0  0  0
   -0.8900   19.9810  -33.5030 C   0  0  0  0  0  0  0  0  0  0  0  0
   -1.8400   20.8040  -34.0230 N   0  0  0  0  0  0  0  0  0  0  0  0
   -2.6570   21.5410  -33.2200 C   0  0  0  0  0  0  0  0  0  0  0  0
   -4.8080   22.3960  -31.1810 C   0  0  0  0  0  0  0  0  0  0  0  0
   -5.5570   23.2120  -30.3370 C   0  0  0  0  0  0  0  0  0  0  0  0
   -4.9720   23.8550  -29.2930 N   0  0  0  0  0  0  0  0  0  0  0  0
   -6.9990   23.4250  -30.6510 C   0  0  0  0  0  0  0  0  0  0  0  0
   -7.6810   22.1000  -31.0480 C   0  0  0  0  0  0  0  0  0  0  0  0
   -6.8280   21.1220  -31.7960 N   0  0  0  0  0  0  0  0  0  0  0  0
   -7.6190   20.4160  -32.8550 C   0  0  0  0  0  0  0  0  0  0  0  0
   -6.8940   19.1970  -33.4760 C   0  0  0  0  0  0  0  0  0  0  0  0
   -6.6500   18.0980  -32.4180 C   0  0  0  0  0  0  0  0  0  0  0  0
   -7.3700   18.3210  -31.2150 O   0  0  0  0  0  0  0  0  0  0  0  0
   -8.7380   18.5480  -31.4970 C   0  0  0  0  0  0  0  0  0  0  0  0
   -8.9500   19.8680  -32.2740 C   0  0  0  0  0  0  0  0  0  0  0  0
   -5.5520   21.6970  -32.2950 C   0  0  0  0  0  0  0  0  0  0  0  0
   -3.8750   24.6700  -26.7030 C   0  0  0  0  0  0  0  0  0  0  0  0
   -3.3670   25.3330  -25.6300 N   0  0  0  0  0  0  0  0  0  0  0  0
   -0.6908   26.1102  -22.6759 H   0  0  0  0  0  0  0  0  0  0  0  0
   -0.2806   24.9675  -23.9997 H   0  0  0  0  0  0  0  0  0  0  0  0
    0.4080   26.6265  -23.9997 H   0  0  0  0  0  0  0  0  0  0  0  0
   -0.2382   25.9993  -26.7235 H   0  0  0  0  0  0  0  0  0  0  0  0
   -1.1249   24.7947  -28.7228 H   0  0  0  0  0  0  0  0  0  0  0  0
   -1.7794   22.7910  -29.6178 H   0  0  0  0  0  0  0  0  0  0  0  0
   -1.4349   20.5540  -30.1879 H   0  0  0  0  0  0  0  0  0  0  0  0
    0.0385   19.2148  -31.6990 H   0  0  0  0  0  0  0  0  0  0  0  0
   -0.2452   19.3949  -34.1743 H   0  0  0  0  0  0  0  0  0  0  0  0
   -1.9440   20.8750  -35.0600 H   0  0  0  0  0  0  0  0  0  0  0  0
   -3.4124   22.2031  -33.6682 H   0  0  0  0  0  0  0  0  0  0  0  0
   -7.5029   23.8371  -29.7643 H   0  0  0  0  0  0  0  0  0  0  0  0
   -7.0734   24.1241  -31.4970 H   0  0  0  0  0  0  0  0  0  0  0  0
   -8.0262   21.6095  -30.1259 H   0  0  0  0  0  0  0  0  0  0  0  0
   -8.4902   22.3779  -31.7394 H   0  0  0  0  0  0  0  0  0  0  0  0
   -7.7772   21.1796  -33.6308 H   0  0  0  0  0  0  0  0  0  0  0  0
   -7.5134   18.7848  -34.2862 H   0  0  0  0  0  0  0  0  0  0  0  0
   -5.9206   19.5300  -33.8654 H   0  0  0  0  0  0  0  0  0  0  0  0
   -6.9605   17.1303  -32.8388 H   0  0  0  0  0  0  0  0  0  0  0  0
   -5.5786   18.1108  -32.1692 H   0  0  0  0  0  0  0  0  0  0  0  0
   -9.1207   17.7128  -32.1019 H   0  0  0  0  0  0  0  0  0  0  0  0
   -9.2776   18.6220  -30.5413 H   0  0  0  0  0  0  0  0  0  0  0  0
   -9.6511   19.6851  -33.1017 H   0  0  0  0  0  0  0  0  0  0  0  0
   -9.3506   20.6159  -31.5739 H   0  0  0  0  0  0  0  0  0  0  0  0
   -4.9240   20.8878  -32.6961 H   0  0  0  0  0  0  0  0  0  0  0  0
   -5.7793   22.4306  -33.0825 H   0  0  0  0  0  0  0  0  0  0  0  0
   -4.9132   24.3073  -26.6797 H   0  0  0  0  0  0  0  0  0  0  0  0
  1  2  1  0
  2  3  1  0
  3  4  2  0
  4  5  1  0
  5  6  2  0
  6  7  1  0
  7  8  2  0
  8  9  1  0
  9 10  1  0
 10 11  2  0
 11 12  1  0
 12 13  2  0
 13 14  1  0
 14 15  2  0
  9 16  2  0
 16 17  1  0
 17 18  2  0
 17 19  1  0
 19 20  1  0
 20 21  1  0
 21 22  1  0
 22 23  1  0
 23 24  1  0
 24 25  1  0
 25 26  1  0
 26 27  1  0
 21 28  1  0
  6 29  1  0
 29 30  2  0
 30  3  1  0
 18  7  1  0
 27 22  1  0
 15 10  1  0
 28 16  1  0
  1 31  1  0
  1 32  1  0
  1 33  1  0
  4 34  1  0
  5 35  1  0
  8 36  1  0
 11 37  1  0
 12 38  1  0
 13 39  1  0
 14 40  1  0
 15 41  1  0
 19 42  1  0
 19 43  1  0
 20 44  1  0
 20 45  1  0
 22 46  1  0
 23 47  1  0
 23 48  1  0
 24 49  1  0
 24 50  1  0
 26 51  1  0
 26 52  1  0
 27 53  1  0
 27 54  1  0
 28 55  1  0
 28 56  1  0
 29 57  1  0
M  CHG  1  14   1
M  END
>  <UniqueID>  (9) 
9

>  <SMILES>  (9) 
COc1ccc(-c2cc(-c3ccc[nH+]c3)c3c(n2)CCN(C2CCOCC2)C3)cn1

>  <Energy>  (9) 
96.16038759251873

>  <Genealogy>  (9) 
COc1ccc(-c2cc(-c3ccc[nH+]c3)c3c(n2)CCN(C2CCOCC2)C3)cn1 (protonated)
COc1ccc(-c2cc(-c3ccc[nH+]c3)c3c(n2)CCN(C2CCOCC2)C3)cn1 (3D coordinates assigned)
COc1ccc(-c2cc(-c3ccc[nH+]c3)c3c(n2)CCN(C2CCOCC2)C3)cn1 (nonaromatic ring conformer: 96.16038759251873 kcal/mol)

>  <smiles>  (9) 
COc1ccc(-c2cc(-c3cccnc3)c3c(n2)CCN(C2CCOCC2)C3)cn1

>  <score_type>  (9) 
oracle

>  <origin>  (9) 
adg

>  <m_score__min__energy>  (9) 
-9.1799999999999997

>  <m_primary>  (9) 
energy

$$$$
9:0
     RDKit          3D

 30 31  0  0  0  0  0  0  0  0999 V2000
   -3.1510   25.6580  -29.3340 H   0  0  0  0  0  0  0  0  0  0  0  0
   -3.5310   25.2940  -30.2350 N   0  0  0  0  0  0  0  0  0  0  0  0
   -4.9360   25.1420  -30.4300 C   0  0  0  0  0  0  0  0  0  0  0  0
   -5.7070   26.0860  -30.1100 O   0  0  0  0  0  0  0  0  0  0  0  0
   -5.4750   23.9040  -31.0440 C   0  0  0  0  0  0  0  0  0  0  0  0
   -6.6460   23.9900  -31.8180 C   0  0  0  0  0  0  0  0  0  0  0  0
   -7.0878   24.9751  -32.0287 H   0  0  0  0  0  0  0  0  0  0  0  0
   -7.2540   22.8380  -32.3220 C   0  0  0  0  0  0  0  0  0  0  0  0
   -8.1660   22.9203  -32.9314 H   0  0  0  0  0  0  0  0  0  0  0  0
   -6.7070   21.5840  -32.0540 C   0  0  0  0  0  0  0  0  0  0  0  0
   -7.1990   20.6769  -32.4349 H   0  0  0  0  0  0  0  0  0  0  0  0
   -5.5360   21.4790  -31.3030 C   0  0  0  0  0  0  0  0  0  0  0  0
   -5.1137   20.4862  -31.0884 H   0  0  0  0  0  0  0  0  0  0  0  0
   -4.8920   22.6270  -30.8190 C   0  0  0  0  0  0  0  0  0  0  0  0
   -3.6480   22.4510  -30.1250 N   0  0  0  0  0  0  0  0  0  0  0  0
   -3.5450   22.4510  -28.8310 C   0  0  0  0  0  0  0  0  0  0  0  0
   -4.2408   21.8552  -28.2220 H   0  0  0  0  0  0  0  0  0  0  0  0
   -2.4690   23.2700  -28.1660 C   0  0  2  0  0  0  0  0  0  0  0  0
   -2.0194   22.6108  -27.4088 H   0  0  0  0  0  0  0  0  0  0  0  0
   -3.0120   24.4640  -27.5190 N   0  0  0  0  0  0  0  0  0  0  0  0
   -3.7440   24.8860  -28.1400 H   0  0  0  0  0  0  0  0  0  0  0  0
   -1.8900   25.3970  -27.4950 C   0  0  0  0  0  0  0  0  0  0  0  0
   -2.2416   26.4167  -27.7109 H   0  0  0  0  0  0  0  0  0  0  0  0
   -1.4096   25.4087  -26.5055 H   0  0  0  0  0  0  0  0  0  0  0  0
   -0.9130   24.9430  -28.5680 C   0  0  0  0  0  0  0  0  0  0  0  0
   -0.8339   25.7063  -29.3561 H   0  0  0  0  0  0  0  0  0  0  0  0
    0.0923   24.7903  -28.1485 H   0  0  0  0  0  0  0  0  0  0  0  0
   -1.4450   23.7010  -29.1220 N   0  0  0  0  0  0  0  0  0  0  0  0
   -0.6920   22.9780  -29.2110 H   0  0  0  0  0  0  0  0  0  0  0  0
   -1.8690   23.8950  -30.0610 H   0  0  0  0  0  0  0  0  0  0  0  0
  1  2  1  0
  2  3  1  0
  3  4  2  0
  3  5  1  0
  5  6  2  0
  6  7  1  0
  6  8  1  0
  8  9  1  0
  8 10  2  0
 10 11  1  0
 10 12  1  0
 12 13  1  0
 12 14  2  0
 14 15  1  0
 15 16  2  0
 16 17  1  0
 16 18  1  0
 18 19  1  1
 18 20  1  0
 20 21  1  0
 20 22  1  0
 22 23  1  0
 22 24  1  0
 22 25  1  0
 25 26  1  0
 25 27  1  0
 25 28  1  0
 28 29  1  0
 28 30  1  0
 14  5  1  0
 28 18  1  0
M  CHG  2   2  -1  28   1
M  END
>  <UniqueID>  (10) 
10

>  <SMILES>  (10) 
[NH-]C(=O)c1ccccc1/N=C/[C@@H]1NCC[NH2+]1

>  <Energy>  (10) 
38.647071732122164

>  <Genealogy>  (10) 
[NH-]C(=O)c1ccccc1N=CC1NCC[NH2+]1 (protonated)
[NH-]C(=O)c1ccccc1N=C[C@@H]1NCC[NH2+]1 (chirality)
[NH-]C(=O)c1ccccc1/N=C/[C@@H]1NCC[NH2+]1 (cis-trans isomerization)
[NH-]C(=O)c1ccccc1/N=C/[C@@H]1NCC[NH2+]1 (3D coordinates assigned)
[NH-]C(=O)c1ccccc1/N=C/[C@@H]1NCC[NH2+]1 (nonaromatic ring conformer: 38.647071732122164 kcal/mol)

>  <smiles>  (10) 
NC(=O)c1ccccc1N=CC1NCCN1

>  <score_type>  (10) 
oracle

>  <origin>  (10) 
adg

>  <m_score__min__energy>  (10) 
-7.3099999999999996

>  <m_primary>  (10) 
energy

$$$$
10:0
     RDKit          3D

 34 36  0  0  0  0  0  0  0  0999 V2000
   -4.2150   23.9430  -28.2740 C   0  0  0  0  0  0  0  0  0  0  0  0
   -3.2150   24.2000  -29.3950 C   0  0  0  0  0  0  0  0  0  0  0  0
   -3.8570   24.8130  -30.5100 O   0  0  0  0  0  0  0  0  0  0  0  0
   -5.1730   24.5330  -30.8940 C   0  0  0  0  0  0  0  0  0  0  0  0
   -6.0850   25.3840  -30.7070 O   0  0  0  0  0  0  0  0  0  0  0  0
   -5.5040   23.2470  -31.5280 C   0  0  0  0  0  0  0  0  0  0  0  0
   -4.5890   22.4200  -32.0870 N   0  0  0  0  0  0  0  0  0  0  0  0
   -5.2010   21.3430  -32.5660 N   0  0  0  0  0  0  0  0  0  0  0  0
   -4.5290   20.2300  -33.1780 C   0  0  0  0  0  0  0  0  0  0  0  0
   -3.3330   20.3570  -33.5590 O   0  0  0  0  0  0  0  0  0  0  0  0
   -5.2110   18.9380  -33.3700 C   0  0  0  0  0  0  0  0  0  0  0  0
   -5.4630   18.3280  -34.5940 C   0  0  0  0  0  0  0  0  0  0  0  0
   -6.0830   17.0780  -34.4750 C   0  0  0  0  0  0  0  0  0  0  0  0
   -6.3120   16.6920  -33.1610 C   0  0  0  0  0  0  0  0  0  0  0  0
   -5.7410   17.9060  -32.1490 S   0  0  0  0  0  0  0  0  0  0  0  0
   -6.5200   21.4630  -32.3080 C   0  0  0  0  0  0  0  0  0  0  0  0
   -7.5630   20.5920  -32.6350 C   0  0  0  0  0  0  0  0  0  0  0  0
   -8.8680   20.9640  -32.2640 C   0  0  0  0  0  0  0  0  0  0  0  0
   -9.1030   22.1820  -31.5910 C   0  0  0  0  0  0  0  0  0  0  0  0
   -8.0380   23.0460  -31.2830 C   0  0  0  0  0  0  0  0  0  0  0  0
   -6.7510   22.6540  -31.6610 C   0  0  0  0  0  0  0  0  0  0  0  0
   -3.7168   24.0710  -27.3017 H   0  0  0  0  0  0  0  0  0  0  0  0
   -5.0486   24.6561  -28.3556 H   0  0  0  0  0  0  0  0  0  0  0  0
   -4.6014   22.9164  -28.3556 H   0  0  0  0  0  0  0  0  0  0  0  0
   -2.4204   24.8647  -29.0251 H   0  0  0  0  0  0  0  0  0  0  0  0
   -2.7882   23.2385  -29.7164 H   0  0  0  0  0  0  0  0  0  0  0  0
   -3.5560   22.5760  -32.1060 H   0  0  0  0  0  0  0  0  0  0  0  0
   -5.2010   18.7827  -35.5608 H   0  0  0  0  0  0  0  0  0  0  0  0
   -6.3623   16.4600  -35.3411 H   0  0  0  0  0  0  0  0  0  0  0  0
   -6.7856   15.7532  -32.8381 H   0  0  0  0  0  0  0  0  0  0  0  0
   -7.3700   19.6474  -33.1646 H   0  0  0  0  0  0  0  0  0  0  0  0
   -9.7124   20.2999  -32.5005 H   0  0  0  0  0  0  0  0  0  0  0  0
  -10.1288   22.4576  -31.3049 H   0  0  0  0  0  0  0  0  0  0  0  0
   -8.2118   23.9990  -30.7618 H   0  0  0  0  0  0  0  0  0  0  0  0
  1  2  1  0
  2  3  1  0
  3  4  1  0
  4  5  2  0
  4  6  1  0
  6  7  2  0
  7  8  1  0
  8  9  1  0
  9 10  2  0
  9 11  1  0
 11 12  2  0
 12 13  1  0
 13 14  2  0
 14 15  1  0
  8 16  1  0
 16 17  2  0
 17 18  1  0
 18 19  2  0
 19 20  1  0
 20 21  2  0
 21  6  1  0
 15 11  1  0
 21 16  1  0
  1 22  1  0
  1 23  1  0
  1 24  1  0
  2 25  1  0
  2 26  1  0
  7 27  1  0
 12 28  1  0
 13 29  1  0
 14 30  1  0
 17 31  1  0
 18 32  1  0
 19 33  1  0
 20 34  1  0
M  CHG  1   7   1
M  END
>  <UniqueID>  (11) 
11

>  <SMILES>  (11) 
CCOC(=O)c1[nH+]n(C(=O)c2cccs2)c2ccccc12

>  <Energy>  (11) 
101.81712168848219

>  <Genealogy>  (11) 
CCOC(=O)c1[nH+]n(C(=O)c2cccs2)c2ccccc12 (protonated)
CCOC(=O)c1[nH+]n(C(=O)c2cccs2)c2ccccc12 (3D coordinates assigned)
CCOC(=O)c1[nH+]n(C(=O)c2cccs2)c2ccccc12 (optimized conformer: 101.81712168848219 kcal/mol)

>  <smiles>  (11) 
CCOC(=O)c1nn(C(=O)c2cccs2)c2ccccc12

>  <score_type>  (11) 
oracle

>  <origin>  (11) 
adg

>  <m_score__min__energy>  (11) 
-7.3700000000000001

>  <m_primary>  (11) 
energy

$$$$
11:0
     RDKit          3D

 43 45  0  0  0  0  0  0  0  0999 V2000
   -4.6610   23.0620  -29.0580 C   0  0  0  0  0  0  0  0  0  0  0  0
   -4.7280   22.6040  -30.4480 N   0  0  0  0  0  0  0  0  0  0  0  0
   -5.8150   22.4610  -31.2610 C   0  0  0  0  0  0  0  0  0  0  0  0
   -7.2410   22.7930  -30.8820 C   0  0  0  0  0  0  0  0  0  0  0  0
   -8.2550   22.3150  -31.8570 N   0  0  2  0  0  0  0  0  0  0  0  0
   -9.1080   23.4250  -32.3220 C   0  0  0  0  0  0  0  0  0  0  0  0
   -9.1070   21.2030  -31.3590 C   0  0  0  0  0  0  0  0  0  0  0  0
   -9.2260   20.0160  -32.3370 C   0  0  0  0  0  0  0  0  0  0  0  0
   -7.9310   19.2550  -32.4760 C   0  0  0  0  0  0  0  0  0  0  0  0
   -7.6150   18.2140  -31.5860 C   0  0  0  0  0  0  0  0  0  0  0  0
   -6.4020   17.5280  -31.7070 C   0  0  0  0  0  0  0  0  0  0  0  0
   -5.4970   17.8760  -32.7130 C   0  0  0  0  0  0  0  0  0  0  0  0
   -5.8040   18.9090  -33.6020 C   0  0  0  0  0  0  0  0  0  0  0  0
   -7.0150   19.5990  -33.4850 C   0  0  0  0  0  0  0  0  0  0  0  0
   -5.5010   21.9630  -32.4870 N   0  0  0  0  0  0  0  0  0  0  0  0
   -4.1730   21.7740  -32.4140 C   0  0  0  0  0  0  0  0  0  0  0  0
   -3.3350   21.2560  -33.3980 C   0  0  0  0  0  0  0  0  0  0  0  0
   -1.9680   21.1240  -33.0910 C   0  0  0  0  0  0  0  0  0  0  0  0
   -1.4800   21.5060  -31.8220 C   0  0  0  0  0  0  0  0  0  0  0  0
   -2.3530   22.0240  -30.8480 C   0  0  0  0  0  0  0  0  0  0  0  0
   -3.7030   22.1470  -31.1890 C   0  0  0  0  0  0  0  0  0  0  0  0
   -4.7867   22.2030  -28.3825 H   0  0  0  0  0  0  0  0  0  0  0  0
   -3.6843   23.5334  -28.8739 H   0  0  0  0  0  0  0  0  0  0  0  0
   -5.4617   23.7934  -28.8739 H   0  0  0  0  0  0  0  0  0  0  0  0
   -7.4554   22.3319  -29.9066 H   0  0  0  0  0  0  0  0  0  0  0  0
   -7.3157   23.8902  -30.8590 H   0  0  0  0  0  0  0  0  0  0  0  0
   -7.7360   21.9760  -32.7010 H   0  0  0  0  0  0  0  0  0  0  0  0
   -9.5192   23.9601  -31.4534 H   0  0  0  0  0  0  0  0  0  0  0  0
   -8.5083   24.1186  -32.9297 H   0  0  0  0  0  0  0  0  0  0  0  0
   -9.9326   23.0240  -32.9297 H   0  0  0  0  0  0  0  0  0  0  0  0
   -8.6765   20.8329  -30.4169 H   0  0  0  0  0  0  0  0  0  0  0  0
  -10.1201   21.6118  -31.2306 H   0  0  0  0  0  0  0  0  0  0  0  0
  -10.0015   19.3293  -31.9668 H   0  0  0  0  0  0  0  0  0  0  0  0
   -9.4857   20.4206  -33.3264 H   0  0  0  0  0  0  0  0  0  0  0  0
   -8.3240   17.9378  -30.7916 H   0  0  0  0  0  0  0  0  0  0  0  0
   -6.1602   16.7131  -31.0089 H   0  0  0  0  0  0  0  0  0  0  0  0
   -4.5428   17.3366  -32.8050 H   0  0  0  0  0  0  0  0  0  0  0  0
   -5.0920   19.1802  -34.3954 H   0  0  0  0  0  0  0  0  0  0  0  0
   -7.2514   20.4138  -34.1852 H   0  0  0  0  0  0  0  0  0  0  0  0
   -3.7281   20.9600  -34.3818 H   0  0  0  0  0  0  0  0  0  0  0  0
   -1.2752   20.7207  -33.8442 H   0  0  0  0  0  0  0  0  0  0  0  0
   -0.4095   21.3977  -31.5935 H   0  0  0  0  0  0  0  0  0  0  0  0
   -1.9866   22.3214  -29.8544 H   0  0  0  0  0  0  0  0  0  0  0  0
  1  2  1  0
  2  3  1  0
  3  4  1  0
  4  5  1  0
  5  6  1  0
  5  7  1  0
  7  8  1  0
  8  9  1  0
  9 10  2  0
 10 11  1  0
 11 12  2  0
 12 13  1  0
 13 14  2  0
  3 15  2  0
 15 16  1  0
 16 17  2  0
 17 18  1  0
 18 19  2  0
 19 20  1  0
 20 21  2  0
 21  2  1  0
 14  9  1  0
 21 16  1  0
  1 22  1  0
  1 23  1  0
  1 24  1  0
  4 25  1  0
  4 26  1  0
  5 27  1  6
  6 28  1  0
  6 29  1  0
  6 30  1  0
  7 31  1  0
  7 32  1  0
  8 33  1  0
  8 34  1  0
 10 35  1  0
 11 36  1  0
 12 37  1  0
 13 38  1  0
 14 39  1  0
 17 40  1  0
 18 41  1  0
 19 42  1  0
 20 43  1  0
M  CHG  1   5   1
M  END
>  <UniqueID>  (12) 
12

>  <SMILES>  (12) 
Cn1c(C[N@H+](C)CCc2ccccc2)nc2ccccc21

>  <Energy>  (12) 
84.61689416694388

>  <Genealogy>  (12) 
Cn1c(C[NH+](C)CCc2ccccc2)nc2ccccc21 (protonated)
Cn1c(C[N@H+](C)CCc2ccccc2)nc2ccccc21 (chirality)
Cn1c(C[N@H+](C)CCc2ccccc2)nc2ccccc21 (3D coordinates assigned)
Cn1c(C[N@H+](C)CCc2ccccc2)nc2ccccc21 (optimized conformer: 84.61689416694388 kcal/mol)

>  <smiles>  (12) 
CN(CCc1ccccc1)Cc1nc2ccccc2n1C

>  <score_type>  (12) 
oracle

>  <origin>  (12) 
adg

>  <m_score__min__energy>  (12) 
-6.6399999999999997

>  <m_primary>  (12) 
energy

$$$$
12:0
     RDKit          3D

 59 60  0  0  0  0  0  0  0  0999 V2000
   -3.7790   22.8210  -27.7840 C   0  0  0  0  0  0  0  0  0  0  0  0
   -3.4380   24.2670  -28.1680 C   0  0  0  0  0  0  0  0  0  0  0  0
   -2.5130   24.8750  -27.1140 C   0  0  0  0  0  0  0  0  0  0  0  0
   -2.7740   24.3030  -29.4200 O   0  0  0  0  0  0  0  0  0  0  0  0
   -1.4560   23.7860  -29.3390 C   0  0  0  0  0  0  0  0  0  0  0  0
   -1.4090   22.3690  -29.9060 C   0  0  0  0  0  0  0  0  0  0  0  0
   -2.4810   22.1700  -30.8840 N   0  0  0  0  0  0  0  0  0  0  0  0
   -2.4150   21.2480  -31.9890 C   0  0  0  0  0  0  0  0  0  0  0  0
   -1.6060   21.5620  -33.0930 C   0  0  0  0  0  0  0  0  0  0  0  0
   -1.5030   20.6780  -34.1720 C   0  0  0  0  0  0  0  0  0  0  0  0
   -2.2260   19.4810  -34.1700 C   0  0  0  0  0  0  0  0  0  0  0  0
   -3.0650   19.1720  -33.0930 C   0  0  0  0  0  0  0  0  0  0  0  0
   -4.0100   17.6490  -33.0890 S   0  0  0  0  0  0  0  0  0  0  0  0
   -5.5720   18.4960  -32.8350 C   0  0  0  0  0  0  0  0  0  0  0  0
   -5.9780   19.4910  -33.7300 C   0  0  0  0  0  0  0  0  0  0  0  0
   -7.2100   20.1260  -33.5610 C   0  0  0  0  0  0  0  0  0  0  0  0
   -8.0520   19.7760  -32.4930 C   0  0  0  0  0  0  0  0  0  0  0  0
   -9.3300   20.4230  -32.3660 N   0  0  0  0  0  0  0  0  0  0  0  0
   -9.4880   21.7830  -31.8450 C   0  0  0  0  0  0  0  0  0  0  0  0
   -8.2510   22.2420  -31.2030 C   0  0  0  0  0  0  0  0  0  0  0  0
   -7.2460   22.6300  -30.6630 C   0  0  0  0  0  0  0  0  0  0  0  0
   -6.0230   23.1160  -30.0110 C   0  0  0  0  0  0  0  0  0  0  0  0
   -5.1800   23.8440  -30.9800 N   0  0  0  0  0  0  0  0  0  0  0  0
   -5.4330   25.2890  -30.8830 C   0  0  0  0  0  0  0  0  0  0  0  0
   -5.4470   23.3890  -32.3570 C   0  0  0  0  0  0  0  0  0  0  0  0
   -7.6260   18.7880  -31.5840 C   0  0  0  0  0  0  0  0  0  0  0  0
   -6.3960   18.1490  -31.7590 C   0  0  0  0  0  0  0  0  0  0  0  0
   -3.1600   20.0530  -32.0060 C   0  0  0  0  0  0  0  0  0  0  0  0
   -3.8009   22.7281  -26.6882 H   0  0  0  0  0  0  0  0  0  0  0  0
   -4.7644   22.5553  -28.1943 H   0  0  0  0  0  0  0  0  0  0  0  0
   -3.0161   22.1430  -28.1943 H   0  0  0  0  0  0  0  0  0  0  0  0
   -4.3756   24.8388  -28.2304 H   0  0  0  0  0  0  0  0  0  0  0  0
   -2.8887   24.6280  -26.1101 H   0  0  0  0  0  0  0  0  0  0  0  0
   -1.4990   24.4667  -27.2367 H   0  0  0  0  0  0  0  0  0  0  0  0
   -2.4856   25.9678  -27.2367 H   0  0  0  0  0  0  0  0  0  0  0  0
   -0.7768   24.4308  -29.9159 H   0  0  0  0  0  0  0  0  0  0  0  0
   -1.1448   23.7608  -28.2842 H   0  0  0  0  0  0  0  0  0  0  0  0
   -0.4376   22.2077  -30.3963 H   0  0  0  0  0  0  0  0  0  0  0  0
   -1.5426   21.6524  -29.0822 H   0  0  0  0  0  0  0  0  0  0  0  0
   -3.2240   22.9050  -30.9070 H   0  0  0  0  0  0  0  0  0  0  0  0
   -1.0490   22.5104  -33.1093 H   0  0  0  0  0  0  0  0  0  0  0  0
   -0.8521   20.9248  -35.0237 H   0  0  0  0  0  0  0  0  0  0  0  0
   -2.1354   18.7823  -35.0147 H   0  0  0  0  0  0  0  0  0  0  0  0
   -5.3253   19.7740  -34.5690 H   0  0  0  0  0  0  0  0  0  0  0  0
   -7.5235   20.9065  -34.2699 H   0  0  0  0  0  0  0  0  0  0  0  0
  -10.1860   19.8590  -32.5740 H   0  0  0  0  0  0  0  0  0  0  0  0
   -9.7364   22.4606  -32.6751 H   0  0  0  0  0  0  0  0  0  0  0  0
  -10.2944   21.7825  -31.0968 H   0  0  0  0  0  0  0  0  0  0  0  0
   -6.2952   23.7921  -29.1871 H   0  0  0  0  0  0  0  0  0  0  0  0
   -5.4590   22.2555  -29.6219 H   0  0  0  0  0  0  0  0  0  0  0  0
   -5.4843   25.5820  -29.8240 H   0  0  0  0  0  0  0  0  0  0  0  0
   -4.6173   25.8380  -31.3762 H   0  0  0  0  0  0  0  0  0  0  0  0
   -6.3867   25.5282  -31.3762 H   0  0  0  0  0  0  0  0  0  0  0  0
   -6.0035   22.4406  -32.3284 H   0  0  0  0  0  0  0  0  0  0  0  0
   -6.0429   24.1480  -32.8849 H   0  0  0  0  0  0  0  0  0  0  0  0
   -4.4937   23.2389  -32.8849 H   0  0  0  0  0  0  0  0  0  0  0  0
   -8.2658   18.5178  -30.7309 H   0  0  0  0  0  0  0  0  0  0  0  0
   -6.0750   17.3719  -31.0497 H   0  0  0  0  0  0  0  0  0  0  0  0
   -3.8208   19.8090  -31.1611 H   0  0  0  0  0  0  0  0  0  0  0  0
  1  2  1  0
  2  3  1  0
  2  4  1  0
  4  5  1  0
  5  6  1  0
  6  7  1  0
  7  8  1  0
  8  9  2  0
  9 10  1  0
 10 11  2  0
 11 12  1  0
 12 13  1  0
 13 14  1  0
 14 15  2  0
 15 16  1  0
 16 17  2  0
 17 18  1  0
 18 19  1  0
 19 20  1  0
 20 21  3  0
 21 22  1  0
 22 23  1  0
 23 24  1  0
 23 25  1  0
 17 26  1  0
 26 27  2  0
 12 28  2  0
 28  8  1  0
 27 14  1  0
  1 29  1  0
  1 30  1  0
  1 31  1  0
  2 32  1  0
  3 33  1  0
  3 34  1  0
  3 35  1  0
  5 36  1  0
  5 37  1  0
  6 38  1  0
  6 39  1  0
  7 40  1  0
  9 41  1  0
 10 42  1  0
 11 43  1  0
 15 44  1  0
 16 45  1  0
 18 46  1  0
 19 47  1  0
 19 48  1  0
 22 49  1  0
 22 50  1  0
 24 51  1  0
 24 52  1  0
 24 53  1  0
 25 54  1  0
 25 55  1  0
 25 56  1  0
 26 57  1  0
 27 58  1  0
 28 59  1  0
M  END
>  <UniqueID>  (13) 
13

>  <SMILES>  (13) 
CC(C)OCCNc1cccc(Sc2ccc(NCC#CCN(C)C)cc2)c1

>  <Energy>  (13) 
45.54982096237517

>  <Genealogy>  (13) 
CC(C)OCCNc1cccc(Sc2ccc(NCC#CCN(C)C)cc2)c1 (3D coordinates assigned)
CC(C)OCCNc1cccc(Sc2ccc(NCC#CCN(C)C)cc2)c1 (optimized conformer: 45.54982096237517 kcal/mol)

>  <smiles>  (13) 
CC(C)OCCNc1cccc(Sc2ccc(NCC#CCN(C)C)cc2)c1

>  <score_type>  (13) 
oracle

>  <origin>  (13) 
adg

>  <m_score__min__energy>  (13) 
-7.8499999999999996

>  <m_primary>  (13) 
energy

$$$$
13:0
     RDKit          3D

 57 60  0  0  0  0  0  0  0  0999 V2000
   -1.0920   21.0770  -31.4090 C   0  0  0  0  0  0  0  0  0  0  0  0
   -0.2190   21.0630  -30.2850 O   0  0  0  0  0  0  0  0  0  0  0  0
   -0.3060   20.1500  -29.2220 C   0  0  0  0  0  0  0  0  0  0  0  0
    0.5000   18.9940  -29.1620 C   0  0  0  0  0  0  0  0  0  0  0  0
    0.3680   18.0980  -28.0980 C   0  0  0  0  0  0  0  0  0  0  0  0
   -0.5690   18.3370  -27.0940 C   0  0  0  0  0  0  0  0  0  0  0  0
   -1.3700   19.4800  -27.1400 C   0  0  0  0  0  0  0  0  0  0  0  0
   -1.2380   20.3950  -28.1950 C   0  0  0  0  0  0  0  0  0  0  0  0
   -2.0370   21.5880  -28.2120 N   0  0  0  0  0  0  0  0  0  0  0  0
   -3.4890   21.4900  -28.0110 C   0  0  0  0  0  0  0  0  0  0  0  0
   -4.1460   22.8730  -28.0520 C   0  0  0  0  0  0  0  0  0  0  0  0
   -3.6220   23.6420  -29.1930 N   0  0  0  0  0  0  0  0  0  0  0  0
   -4.4850   24.3450  -30.1120 C   0  0  0  0  0  0  0  0  0  0  0  0
   -4.0150   25.2790  -30.8160 O   0  0  0  0  0  0  0  0  0  0  0  0
   -5.9340   23.9840  -30.2850 C   0  0  0  0  0  0  0  0  0  0  0  0
   -6.0830   22.9120  -31.2670 N   0  0  0  0  0  0  0  0  0  0  0  0
   -7.2290   22.6310  -32.0530 C   0  0  0  0  0  0  0  0  0  0  0  0
   -8.1940   23.4280  -32.1970 O   0  0  0  0  0  0  0  0  0  0  0  0
   -7.1850   21.3470  -32.6590 N   0  0  0  0  0  0  0  0  0  0  0  0
   -5.9480   20.6810  -32.2420 C   0  0  0  0  0  0  0  0  0  0  0  0
   -6.2800   19.4000  -31.4480 C   0  0  0  0  0  0  0  0  0  0  0  0
   -6.9520   18.3250  -32.3260 C   0  0  0  0  0  0  0  0  0  0  0  0
   -6.4650   18.3220  -33.7910 C   0  0  0  0  0  0  0  0  0  0  0  0
   -5.0660   18.9290  -33.9330 C   0  0  0  0  0  0  0  0  0  0  0  0
   -5.0410   20.4000  -33.4750 C   0  0  0  0  0  0  0  0  0  0  0  0
   -5.3220   21.7140  -31.3370 C   0  0  0  0  0  0  0  0  0  0  0  0
   -4.2480   21.5430  -30.6990 O   0  0  0  0  0  0  0  0  0  0  0  0
   -2.1650   23.7400  -29.3860 C   0  0  0  0  0  0  0  0  0  0  0  0
   -1.3940   22.8970  -28.3640 C   0  0  0  0  0  0  0  0  0  0  0  0
   -2.1358   21.0937  -31.0624 H   0  0  0  0  0  0  0  0  0  0  0  0
   -0.8930   21.9721  -32.0167 H   0  0  0  0  0  0  0  0  0  0  0  0
   -0.9218   20.1760  -32.0167 H   0  0  0  0  0  0  0  0  0  0  0  0
    1.2354   18.7971  -29.9560 H   0  0  0  0  0  0  0  0  0  0  0  0
    1.0048   17.2022  -28.0525 H   0  0  0  0  0  0  0  0  0  0  0  0
   -0.6777   17.6237  -26.2637 H   0  0  0  0  0  0  0  0  0  0  0  0
   -2.1079   19.6637  -26.3452 H   0  0  0  0  0  0  0  0  0  0  0  0
   -3.9202   20.8637  -28.8059 H   0  0  0  0  0  0  0  0  0  0  0  0
   -3.6756   21.0437  -27.0231 H   0  0  0  0  0  0  0  0  0  0  0  0
   -5.2346   22.7568  -28.1593 H   0  0  0  0  0  0  0  0  0  0  0  0
   -3.9200   23.4096  -27.1187 H   0  0  0  0  0  0  0  0  0  0  0  0
   -6.3409   23.6490  -29.3195 H   0  0  0  0  0  0  0  0  0  0  0  0
   -6.4802   24.8699  -30.6412 H   0  0  0  0  0  0  0  0  0  0  0  0
   -7.9150   20.9580  -33.2970 H   0  0  0  0  0  0  0  0  0  0  0  0
   -5.3473   18.9877  -31.0357 H   0  0  0  0  0  0  0  0  0  0  0  0
   -6.9862   19.6723  -30.6498 H   0  0  0  0  0  0  0  0  0  0  0  0
   -6.7406   17.3382  -31.8884 H   0  0  0  0  0  0  0  0  0  0  0  0
   -8.0274   18.5552  -32.3468 H   0  0  0  0  0  0  0  0  0  0  0  0
   -6.4402   17.2841  -34.1546 H   0  0  0  0  0  0  0  0  0  0  0  0
   -7.1622   18.9346  -34.3815 H   0  0  0  0  0  0  0  0  0  0  0  0
   -4.3611   18.3508  -33.3176 H   0  0  0  0  0  0  0  0  0  0  0  0
   -4.7794   18.8925  -34.9944 H   0  0  0  0  0  0  0  0  0  0  0  0
   -4.0061   20.6660  -33.2139 H   0  0  0  0  0  0  0  0  0  0  0  0
   -5.4295   21.0050  -34.3075 H   0  0  0  0  0  0  0  0  0  0  0  0
   -1.9160   23.3874  -30.3978 H   0  0  0  0  0  0  0  0  0  0  0  0
   -1.8734   24.7918  -29.2490 H   0  0  0  0  0  0  0  0  0  0  0  0
   -0.3598   22.7574  -28.7119 H   0  0  0  0  0  0  0  0  0  0  0  0
   -1.3925   23.4152  -27.3937 H   0  0  0  0  0  0  0  0  0  0  0  0
  1  2  1  0
  2  3  1  0
  3  4  2  0
  4  5  1  0
  5  6  2  0
  6  7  1  0
  7  8  2  0
  8  9  1  0
  9 10  1  0
 10 11  1  0
 11 12  1  0
 12 13  1  0
 13 14  2  0
 13 15  1  0
 15 16  1  0
 16 17  1  0
 17 18  2  0
 17 19  1  0
 19 20  1  0
 20 21  1  0
 21 22  1  0
 22 23  1  0
 23 24  1  0
 24 25  1  0
 20 26  1  0
 26 27  2  0
 12 28  1  0
 28 29  1  0
  8  3  1  0
 29  9  1  0
 26 16  1  0
 25 20  1  0
  1 30  1  0
  1 31  1  0
  1 32  1  0
  4 33  1  0
  5 34  1  0
  6 35  1  0
  7 36  1  0
 10 37  1  0
 10 38  1  0
 11 39  1  0
 11 40  1  0
 15 41  1  0
 15 42  1  0
 19 43  1  0
 21 44  1  0
 21 45  1  0
 22 46  1  0
 22 47  1  0
 23 48  1  0
 23 49  1  0
 24 50  1  0
 24 51  1  0
 25 52  1  0
 25 53  1  0
 28 54  1  0
 28 55  1  0
 29 56  1  0
 29 57  1  0
M  END
>  <UniqueID>  (14) 
14

>  <SMILES>  (14) 
COc1ccccc1N1CCN(C(=O)CN2C(=O)NC3(CCCCC3)C2=O)CC1

>  <Energy>  (14) 
82.91895865351101

>  <Genealogy>  (14) 
COc1ccccc1N1CCN(C(=O)CN2C(=O)NC3(CCCCC3)C2=O)CC1 (3D coordinates assigned)
COc1ccccc1N1CCN(C(=O)CN2C(=O)NC3(CCCCC3)C2=O)CC1 (nonaromatic ring conformer: 82.91895865351101 kcal/mol)

>  <smiles>  (14) 
COc1ccccc1N1CCN(C(=O)CN2C(=O)NC3(CCCCC3)C2=O)CC1

>  <score_type>  (14) 
oracle

>  <origin>  (14) 
adg

>  <m_score__min__energy>  (14) 
-9.5999999999999996

>  <m_primary>  (14) 
energy

$$$$
14:0
     RDKit          3D

 51 54  0  0  0  0  0  0  0  0999 V2000
   -6.1100   17.2460  -31.5000 C   0  0  0  0  0  0  0  0  0  0  0  0
   -5.9940   16.6620  -32.5480 C   0  0  0  0  0  0  0  0  0  0  0  0
   -5.8550   15.9510  -33.8260 C   0  0  0  0  0  0  0  0  0  0  0  0
   -4.6350   16.4400  -34.6200 C   0  0  0  0  0  0  0  0  0  0  0  0
   -4.8550   17.7980  -35.3050 C   0  0  0  0  0  0  0  0  0  0  0  0
   -5.0870   18.8530  -34.3220 N   0  0  0  0  0  0  0  0  0  0  0  0
   -4.1390   19.5300  -33.6450 C   0  0  0  0  0  0  0  0  0  0  0  0
   -4.7630   20.4710  -32.8450 C   0  0  0  0  0  0  0  0  0  0  0  0
   -4.0890   21.3500  -31.8740 C   0  0  0  0  0  0  0  0  0  0  0  0
   -3.4300   20.8650  -30.7860 N   0  0  0  0  0  0  0  0  0  0  0  0
   -3.0150   21.9860  -30.1810 C   0  0  0  0  0  0  0  0  0  0  0  0
   -2.2820   22.1340  -29.0140 C   0  0  0  0  0  0  0  0  0  0  0  0
   -1.9080   21.1170  -28.3670 O   0  0  0  0  0  0  0  0  0  0  0  0
   -1.9790   23.4110  -28.5880 N   0  0  0  0  0  0  0  0  0  0  0  0
   -1.2140   23.6050  -27.3390 C   0  0  0  0  0  0  0  0  0  0  0  0
   -1.9680   24.5080  -26.3500 C   0  0  0  0  0  0  0  0  0  0  0  0
   -1.1470   25.7240  -25.9270 C   0  0  0  0  0  0  0  0  0  0  0  0
   -2.4130   24.5030  -29.3260 C   0  0  0  0  0  0  0  0  0  0  0  0
   -2.1540   25.6780  -28.9510 O   0  0  0  0  0  0  0  0  0  0  0  0
   -3.1340   24.3260  -30.4740 N   0  0  0  0  0  0  0  0  0  0  0  0
   -3.4170   23.0660  -30.8740 C   0  0  0  0  0  0  0  0  0  0  0  0
   -4.1130   22.7100  -31.9590 N   0  0  0  0  0  0  0  0  0  0  0  0
   -6.1240   20.3170  -33.1010 C   0  0  0  0  0  0  0  0  0  0  0  0
   -7.2460   21.1160  -32.5690 C   0  0  0  0  0  0  0  0  0  0  0  0
   -7.1040   22.4950  -32.3440 C   0  0  0  0  0  0  0  0  0  0  0  0
   -8.1820   23.2470  -31.8660 C   0  0  0  0  0  0  0  0  0  0  0  0
   -9.4120   22.6290  -31.6230 C   0  0  0  0  0  0  0  0  0  0  0  0
   -9.5670   21.2620  -31.8650 C   0  0  0  0  0  0  0  0  0  0  0  0
   -8.4920   20.5080  -32.3440 C   0  0  0  0  0  0  0  0  0  0  0  0
   -6.2800   19.3230  -33.9970 N   0  0  0  0  0  0  0  0  0  0  0  0
   -6.2159   17.7790  -30.5436 H   0  0  0  0  0  0  0  0  0  0  0  0
   -5.7413   14.8756  -33.6248 H   0  0  0  0  0  0  0  0  0  0  0  0
   -6.7554   16.1474  -34.4266 H   0  0  0  0  0  0  0  0  0  0  0  0
   -3.7839   16.5320  -33.9293 H   0  0  0  0  0  0  0  0  0  0  0  0
   -4.4488   15.7026  -35.4147 H   0  0  0  0  0  0  0  0  0  0  0  0
   -3.9633   18.0496  -35.8979 H   0  0  0  0  0  0  0  0  0  0  0  0
   -5.7417   17.7228  -35.9516 H   0  0  0  0  0  0  0  0  0  0  0  0
   -3.0541   19.3632  -33.7161 H   0  0  0  0  0  0  0  0  0  0  0  0
   -1.0428   22.6253  -26.8691 H   0  0  0  0  0  0  0  0  0  0  0  0
   -0.2599   24.0910  -27.5911 H   0  0  0  0  0  0  0  0  0  0  0  0
   -2.8955   24.8571  -26.8274 H   0  0  0  0  0  0  0  0  0  0  0  0
   -2.1767   23.9148  -25.4475 H   0  0  0  0  0  0  0  0  0  0  0  0
   -1.1106   25.7779  -24.8289 H   0  0  0  0  0  0  0  0  0  0  0  0
   -0.1251   25.6325  -26.3237 H   0  0  0  0  0  0  0  0  0  0  0  0
   -1.6138   26.6376  -26.3237 H   0  0  0  0  0  0  0  0  0  0  0  0
   -6.1403   22.9860  -32.5447 H   0  0  0  0  0  0  0  0  0  0  0  0
   -8.0619   24.3247  -31.6813 H   0  0  0  0  0  0  0  0  0  0  0  0
  -10.2580   23.2192  -31.2411 H   0  0  0  0  0  0  0  0  0  0  0  0
  -10.5370   20.7780  -31.6782 H   0  0  0  0  0  0  0  0  0  0  0  0
   -8.6223   19.4345  -32.5455 H   0  0  0  0  0  0  0  0  0  0  0  0
   -7.1840   18.9880  -34.4030 H   0  0  0  0  0  0  0  0  0  0  0  0
  1  2  3  0
  2  3  1  0
  3  4  1  0
  4  5  1  0
  5  6  1  0
  6  7  1  0
  7  8  2  0
  8  9  1  0
  9 10  2  0
 10 11  1  0
 11 12  1  0
 12 13  2  0
 12 14  1  0
 14 15  1  0
 15 16  1  0
 16 17  1  0
 14 18  1  0
 18 19  2  0
 18 20  1  0
 20 21  1  0
 21 22  1  0
  8 23  1  0
 23 24  1  0
 24 25  2  0
 25 26  1  0
 26 27  2  0
 27 28  1  0
 28 29  2  0
 23 30  2  0
 30  6  1  0
 22  9  1  0
 29 24  1  0
 21 11  2  0
  1 31  1  0
  3 32  1  0
  3 33  1  0
  4 34  1  0
  4 35  1  0
  5 36  1  0
  5 37  1  0
  7 38  1  0
 15 39  1  0
 15 40  1  0
 16 41  1  0
 16 42  1  0
 17 43  1  0
 17 44  1  0
 17 45  1  0
 25 46  1  0
 26 47  1  0
 27 48  1  0
 28 49  1  0
 29 50  1  0
 30 51  1  0
M  CHG  3  20  -1  22  -1  30   1
M  END
>  <UniqueID>  (15) 
15

>  <SMILES>  (15) 
C#CCCCn1cc(-c2nc3c(=O)n(CCC)c(=O)[n-]c3[n-]2)c(-c2ccccc2)[nH+]1

>  <Energy>  (15) 
120.42120201520447

>  <Genealogy>  (15) 
C#CCCCn1cc(-c2nc3c(=O)n(CCC)c(=O)[n-]c3[n-]2)c(-c2ccccc2)[nH+]1 (protonated)
C#CCCCn1cc(-c2nc3c(=O)n(CCC)c(=O)[n-]c3[n-]2)c(-c2ccccc2)[nH+]1 (3D coordinates assigned)
C#CCCCn1cc(-c2nc3c(=O)n(CCC)c(=O)[n-]c3[n-]2)c(-c2ccccc2)[nH+]1 (optimized conformer: 120.42120201520447 kcal/mol)

>  <smiles>  (15) 
C#CCCCn1cc(-c2nc3c(=O)n(CCC)c(=O)[nH]c3[nH]2)c(-c2ccccc2)n1

>  <score_type>  (15) 
oracle

>  <origin>  (15) 
adg

>  <m_score__min__energy>  (15) 
-11.06

>  <m_primary>  (15) 
energy

$$$$
15:0
     RDKit          3D

 50 53  0  0  0  0  0  0  0  0999 V2000
   -5.2190   25.6480  -30.5140 C   0  0  0  0  0  0  0  0  0  0  0  0
   -3.8620   25.2190  -30.4670 O   0  0  0  0  0  0  0  0  0  0  0  0
   -3.2930   24.4820  -29.4140 C   0  0  0  0  0  0  0  0  0  0  0  0
   -2.3240   25.0400  -28.5570 C   0  0  0  0  0  0  0  0  0  0  0  0
   -1.7640   24.2740  -27.5300 C   0  0  0  0  0  0  0  0  0  0  0  0
   -2.1620   22.9500  -27.3460 C   0  0  0  0  0  0  0  0  0  0  0  0
   -3.1240   22.3860  -28.1860 C   0  0  0  0  0  0  0  0  0  0  0  0
   -3.6950   23.1440  -29.2230 C   0  0  0  0  0  0  0  0  0  0  0  0
   -4.7280   22.5360  -30.0980 C   0  0  0  0  0  0  0  0  0  0  0  0
   -6.0390   22.6770  -29.7760 N   0  0  0  0  0  0  0  0  0  0  0  0
   -7.0150   22.1310  -30.5440 C   0  0  0  0  0  0  0  0  0  0  0  0
   -8.3600   22.2720  -30.1730 C   0  0  0  0  0  0  0  0  0  0  0  0
   -9.3410   21.7310  -30.9370 N   0  0  0  0  0  0  0  0  0  0  0  0
   -9.0600   21.0450  -32.0720 C   0  0  0  0  0  0  0  0  0  0  0  0
   -7.7380   20.8760  -32.4860 C   0  0  0  0  0  0  0  0  0  0  0  0
   -6.6760   21.4190  -31.7210 C   0  0  0  0  0  0  0  0  0  0  0  0
   -5.3420   21.2960  -32.0810 N   0  0  0  0  0  0  0  0  0  0  0  0
   -4.9150   20.5850  -33.3150 C   0  0  0  0  0  0  0  0  0  0  0  0
   -4.7320   19.0480  -33.1350 C   0  0  0  0  0  0  0  0  0  0  0  0
   -5.6450   18.4310  -32.0430 C   0  0  0  0  0  0  0  0  0  0  0  0
   -5.7050   16.9060  -32.1700 C   0  0  0  0  0  0  0  0  0  0  0  0
   -6.3300   16.4760  -33.5140 C   0  0  0  0  0  0  0  0  0  0  0  0
   -6.1180   17.5050  -34.6440 C   0  0  0  0  0  0  0  0  0  0  0  0
   -4.7930   18.2580  -34.4740 C   0  0  0  0  0  0  0  0  0  0  0  0
   -4.3730   21.8240  -31.2560 C   0  0  0  0  0  0  0  0  0  0  0  0
   -3.1490   21.6820  -31.5310 O   0  0  0  0  0  0  0  0  0  0  0  0
   -5.6011   25.7688  -29.4896 H   0  0  0  0  0  0  0  0  0  0  0  0
   -5.2814   26.6097  -31.0444 H   0  0  0  0  0  0  0  0  0  0  0  0
   -5.8228   24.8969  -31.0444 H   0  0  0  0  0  0  0  0  0  0  0  0
   -2.0063   26.0838  -28.6965 H   0  0  0  0  0  0  0  0  0  0  0  0
   -1.0075   24.7168  -26.8654 H   0  0  0  0  0  0  0  0  0  0  0  0
   -1.7176   22.3497  -26.5384 H   0  0  0  0  0  0  0  0  0  0  0  0
   -3.4370   21.3423  -28.0355 H   0  0  0  0  0  0  0  0  0  0  0  0
   -6.2970   23.1990  -28.9050 H   0  0  0  0  0  0  0  0  0  0  0  0
   -8.6205   22.8241  -29.2579 H   0  0  0  0  0  0  0  0  0  0  0  0
   -9.8789   20.6190  -32.6702 H   0  0  0  0  0  0  0  0  0  0  0  0
   -7.5197   20.3194  -33.4093 H   0  0  0  0  0  0  0  0  0  0  0  0
   -5.6761   20.7533  -34.0911 H   0  0  0  0  0  0  0  0  0  0  0  0
   -3.9301   20.9909  -33.5892 H   0  0  0  0  0  0  0  0  0  0  0  0
   -3.7041   18.9364  -32.7595 H   0  0  0  0  0  0  0  0  0  0  0  0
   -5.2468   18.6934  -31.0517 H   0  0  0  0  0  0  0  0  0  0  0  0
   -6.6613   18.8320  -32.1705 H   0  0  0  0  0  0  0  0  0  0  0  0
   -4.6843   16.5012  -32.1044 H   0  0  0  0  0  0  0  0  0  0  0  0
   -6.3334   16.5157  -31.3559 H   0  0  0  0  0  0  0  0  0  0  0  0
   -5.8757   15.5223  -33.8208 H   0  0  0  0  0  0  0  0  0  0  0  0
   -7.4147   16.3868  -33.3546 H   0  0  0  0  0  0  0  0  0  0  0  0
   -6.1093   16.9789  -35.6100 H   0  0  0  0  0  0  0  0  0  0  0  0
   -6.9390   18.2360  -34.6049 H   0  0  0  0  0  0  0  0  0  0  0  0
   -3.9676   17.5311  -34.4941 H   0  0  0  0  0  0  0  0  0  0  0  0
   -4.7091   18.9828  -35.2972 H   0  0  0  0  0  0  0  0  0  0  0  0
  1  2  1  0
  2  3  1  0
  3  4  2  0
  4  5  1  0
  5  6  2  0
  6  7  1  0
  7  8  2  0
  8  9  1  0
  9 10  2  0
 10 11  1  0
 11 12  2  0
 12 13  1  0
 13 14  2  0
 14 15  1  0
 15 16  2  0
 16 17  1  0
 17 18  1  0
 18 19  1  0
 19 20  1  0
 20 21  1  0
 21 22  1  0
 22 23  1  0
 23 24  1  0
 17 25  1  0
 25 26  2  0
  8  3  1  0
 25  9  1  0
 16 11  1  0
 24 19  1  0
  1 27  1  0
  1 28  1  0
  1 29  1  0
  4 30  1  0
  5 31  1  0
  6 32  1  0
  7 33  1  0
 10 34  1  0
 12 35  1  0
 14 36  1  0
 15 37  1  0
 18 38  1  0
 18 39  1  0
 19 40  1  0
 20 41  1  0
 20 42  1  0
 21 43  1  0
 21 44  1  0
 22 45  1  0
 22 46  1  0
 23 47  1  0
 23 48  1  0
 24 49  1  0
 24 50  1  0
M  CHG  1  10   1
M  END
>  <UniqueID>  (16) 
16

>  <SMILES>  (16) 
COc1ccccc1-c1[nH+]c2cnccc2n(CC2CCCCC2)c1=O

>  <Energy>  (16) 
76.07018104467735

>  <Genealogy>  (16) 
COc1ccccc1-c1[nH+]c2cnccc2n(CC2CCCCC2)c1=O (protonated)
COc1ccccc1-c1[nH+]c2cnccc2n(CC2CCCCC2)c1=O (3D coordinates assigned)
COc1ccccc1-c1[nH+]c2cnccc2n(CC2CCCCC2)c1=O (nonaromatic ring conformer: 76.07018104467735 kcal/mol)

>  <smiles>  (16) 
COc1ccccc1-c1nc2cnccc2n(CC2CCCCC2)c1=O

>  <score_type>  (16) 
oracle

>  <origin>  (16) 
adg

>  <m_score__min__energy>  (16) 
-8.5199999999999996

>  <m_primary>  (16) 
energy

$$$$
16:0
     RDKit          3D

 58 60  0  0  0  0  0  0  0  0999 V2000
   -4.7230   20.7410  -33.0520 C   0  0  0  0  0  0  0  0  0  0  0  0
   -6.2530   20.6770  -32.9500 C   0  0  0  0  0  0  0  0  0  0  0  0
   -6.8030   21.5180  -31.8560 N   0  0  0  0  0  0  0  0  0  0  0  0
   -7.9710   20.8330  -31.2440 C   0  0  0  0  0  0  0  0  0  0  0  0
   -8.7450   19.9500  -32.2320 C   0  0  0  0  0  0  0  0  0  0  0  0
   -7.0710   22.9290  -32.2650 C   0  0  0  0  0  0  0  0  0  0  0  0
   -5.9860   23.9650  -31.8870 C   0  0  0  0  0  0  0  0  0  0  0  0
   -4.8410   23.3640  -31.2830 O   0  0  0  0  0  0  0  0  0  0  0  0
   -3.9620   24.0500  -30.4340 C   0  0  0  0  0  0  0  0  0  0  0  0
   -3.8750   25.3080  -30.5050 O   0  0  0  0  0  0  0  0  0  0  0  0
   -3.0910   23.2630  -29.4610 C   0  0  0  0  0  0  0  0  0  0  0  0
   -2.7020   24.1760  -28.2690 C   0  0  0  0  0  0  0  0  0  0  0  0
   -3.5480   24.3670  -27.1500 C   0  0  0  0  0  0  0  0  0  0  0  0
   -3.1830   25.2160  -26.1030 C   0  0  0  0  0  0  0  0  0  0  0  0
   -1.9790   25.9230  -26.1500 C   0  0  0  0  0  0  0  0  0  0  0  0
   -1.6090   26.7810  -25.1030 C   0  0  0  0  0  0  0  0  0  0  0  0
   -0.4100   27.4950  -25.1710 C   0  0  0  0  0  0  0  0  0  0  0  0
    0.4260   27.3590  -26.2820 C   0  0  0  0  0  0  0  0  0  0  0  0
    0.0670   26.5070  -27.3310 C   0  0  0  0  0  0  0  0  0  0  0  0
   -1.1330   25.7810  -27.2720 C   0  0  0  0  0  0  0  0  0  0  0  0
   -1.5030   24.9250  -28.3200 C   0  0  0  0  0  0  0  0  0  0  0  0
   -3.8640   21.9740  -29.0430 C   0  0  0  0  0  0  0  0  0  0  0  0
   -3.0120   20.9290  -28.2800 C   0  0  0  0  0  0  0  0  0  0  0  0
   -1.5340   21.3130  -28.0970 C   0  0  0  0  0  0  0  0  0  0  0  0
   -0.8890   21.8930  -29.3670 C   0  0  0  0  0  0  0  0  0  0  0  0
   -1.8340   22.7610  -30.2270 C   0  0  0  0  0  0  0  0  0  0  0  0
   -4.2886   20.7592  -32.0416 H   0  0  0  0  0  0  0  0  0  0  0  0
   -4.3544   19.8575  -33.5938 H   0  0  0  0  0  0  0  0  0  0  0  0
   -4.4294   21.6522  -33.5938 H   0  0  0  0  0  0  0  0  0  0  0  0
   -6.6814   21.0198  -33.9034 H   0  0  0  0  0  0  0  0  0  0  0  0
   -6.5220   19.6340  -32.7269 H   0  0  0  0  0  0  0  0  0  0  0  0
   -6.0660   21.5610  -31.1110 H   0  0  0  0  0  0  0  0  0  0  0  0
   -7.6116   20.2008  -30.4187 H   0  0  0  0  0  0  0  0  0  0  0  0
   -8.6619   21.6156  -30.8972 H   0  0  0  0  0  0  0  0  0  0  0  0
   -9.3701   19.2369  -31.6745 H   0  0  0  0  0  0  0  0  0  0  0  0
   -9.3853   20.5821  -32.8648 H   0  0  0  0  0  0  0  0  0  0  0  0
   -8.0345   19.3980  -32.8648 H   0  0  0  0  0  0  0  0  0  0  0  0
   -7.1852   22.9459  -33.3589 H   0  0  0  0  0  0  0  0  0  0  0  0
   -7.9729   23.2306  -31.7122 H   0  0  0  0  0  0  0  0  0  0  0  0
   -5.6680   24.4911  -32.7992 H   0  0  0  0  0  0  0  0  0  0  0  0
   -6.4261   24.6561  -31.1531 H   0  0  0  0  0  0  0  0  0  0  0  0
   -4.5107   23.8368  -27.1044 H   0  0  0  0  0  0  0  0  0  0  0  0
   -3.8487   25.3289  -25.2346 H   0  0  0  0  0  0  0  0  0  0  0  0
   -2.2646   26.8917  -24.2266 H   0  0  0  0  0  0  0  0  0  0  0  0
   -0.1235   28.1659  -24.3477 H   0  0  0  0  0  0  0  0  0  0  0  0
    1.3688   27.9235  -26.3317 H   0  0  0  0  0  0  0  0  0  0  0  0
    0.7269   26.4053  -28.2052 H   0  0  0  0  0  0  0  0  0  0  0  0
   -0.8478   24.8344  -29.1989 H   0  0  0  0  0  0  0  0  0  0  0  0
   -4.7023   22.2715  -28.3958 H   0  0  0  0  0  0  0  0  0  0  0  0
   -4.1891   21.4897  -29.9756 H   0  0  0  0  0  0  0  0  0  0  0  0
   -3.4551   20.7880  -27.2831 H   0  0  0  0  0  0  0  0  0  0  0  0
   -3.0214   20.0149  -28.8918 H   0  0  0  0  0  0  0  0  0  0  0  0
   -1.4662   22.0653  -27.2974 H   0  0  0  0  0  0  0  0  0  0  0  0
   -0.9883   20.3905  -27.8494 H   0  0  0  0  0  0  0  0  0  0  0  0
   -0.0327   22.5137  -29.0646 H   0  0  0  0  0  0  0  0  0  0  0  0
   -0.5993   21.0343  -29.9905 H   0  0  0  0  0  0  0  0  0  0  0  0
   -1.2723   23.6366  -30.5844 H   0  0  0  0  0  0  0  0  0  0  0  0
   -2.1917   22.1270  -31.0517 H   0  0  0  0  0  0  0  0  0  0  0  0
  1  2  1  0
  2  3  1  0
  3  4  1  0
  4  5  1  0
  3  6  1  0
  6  7  1  0
  7  8  1  0
  8  9  1  0
  9 10  2  0
  9 11  1  0
 11 12  1  0
 12 13  2  0
 13 14  1  0
 14 15  2  0
 15 16  1  0
 16 17  2  0
 17 18  1  0
 18 19  2  0
 19 20  1  0
 20 21  2  0
 11 22  1  0
 22 23  1  0
 23 24  1  0
 24 25  1  0
 25 26  1  0
 26 11  1  0
 21 12  1  0
 20 15  1  0
  1 27  1  0
  1 28  1  0
  1 29  1  0
  2 30  1  0
  2 31  1  0
  3 32  1  0
  4 33  1  0
  4 34  1  0
  5 35  1  0
  5 36  1  0
  5 37  1  0
  6 38  1  0
  6 39  1  0
  7 40  1  0
  7 41  1  0
 13 42  1  0
 14 43  1  0
 16 44  1  0
 17 45  1  0
 18 46  1  0
 19 47  1  0
 21 48  1  0
 22 49  1  0
 22 50  1  0
 23 51  1  0
 23 52  1  0
 24 53  1  0
 24 54  1  0
 25 55  1  0
 25 56  1  0
 26 57  1  0
 26 58  1  0
M  CHG  1   3   1
M  END
>  <UniqueID>  (17) 
17

>  <SMILES>  (17) 
CC[NH+](CC)CCOC(=O)C1(c2ccc3ccccc3c2)CCCCC1

>  <Energy>  (17) 
77.1691476952492

>  <Genealogy>  (17) 
CC[NH+](CC)CCOC(=O)C1(c2ccc3ccccc3c2)CCCCC1 (protonated)
CC[NH+](CC)CCOC(=O)C1(c2ccc3ccccc3c2)CCCCC1 (3D coordinates assigned)
CC[NH+](CC)CCOC(=O)C1(c2ccc3ccccc3c2)CCCCC1 (nonaromatic ring conformer: 77.1691476952492 kcal/mol)

>  <smiles>  (17) 
CCN(CC)CCOC(=O)C1(c2ccc3ccccc3c2)CCCCC1

>  <score_type>  (17) 
oracle

>  <origin>  (17) 
adg

>  <m_score__min__energy>  (17) 
-7.9000000000000004

>  <m_primary>  (17) 
energy

$$$$
17:0
     RDKit          3D

 59 61  0  0  0  0  0  0  0  0999 V2000
   -5.9250   15.8510  -33.4680 C   0  0  0  0  0  0  0  0  0  0  0  0
   -6.9260   16.9580  -33.7930 C   0  0  0  0  0  0  0  0  0  0  0  0
   -6.8060   18.1030  -32.8760 N   0  0  0  0  0  0  0  0  0  0  0  0
   -7.5540   18.1570  -31.6120 C   0  0  0  0  0  0  0  0  0  0  0  0
   -9.0110   18.5490  -31.8460 C   0  0  0  0  0  0  0  0  0  0  0  0
   -5.6620   18.9570  -33.0210 C   0  0  0  0  0  0  0  0  0  0  0  0
   -4.4410   18.3940  -33.2210 N   0  0  0  0  0  0  0  0  0  0  0  0
   -3.3110   19.1390  -33.3720 C   0  0  0  0  0  0  0  0  0  0  0  0
   -2.0680   18.5130  -33.5850 C   0  0  0  0  0  0  0  0  0  0  0  0
   -1.9630   17.0120  -33.6370 C   0  0  0  0  0  0  0  0  0  0  0  0
   -0.9140   19.3010  -33.7250 C   0  0  0  0  0  0  0  0  0  0  0  0
   -0.9910   20.7010  -33.6540 C   0  0  0  0  0  0  0  0  0  0  0  0
    0.2430   21.5330  -33.8500 C   0  0  0  0  0  0  0  0  0  0  0  0
   -2.2340   21.3200  -33.4650 C   0  0  0  0  0  0  0  0  0  0  0  0
   -3.3930   20.5460  -33.3170 C   0  0  0  0  0  0  0  0  0  0  0  0
   -4.6400   21.1480  -33.1110 C   0  0  0  0  0  0  0  0  0  0  0  0
   -5.7920   20.3600  -32.9720 C   0  0  0  0  0  0  0  0  0  0  0  0
   -7.1220   21.0210  -32.7050 C   0  0  0  0  0  0  0  0  0  0  0  0
   -6.9250   22.4520  -32.1890 C   0  0  0  0  0  0  0  0  0  0  0  0
   -7.1020   22.5090  -30.6920 C   0  0  0  0  0  0  0  0  0  0  0  0
   -7.8560   21.7070  -30.1550 O   0  0  0  0  0  0  0  0  0  0  0  0
   -6.3920   23.4920  -29.8910 N   0  0  0  0  0  0  0  0  0  0  0  0
   -6.4830   24.8250  -30.5320 C   0  0  0  0  0  0  0  0  0  0  0  0
   -5.3030   25.7160  -30.1130 C   0  0  0  0  0  0  0  0  0  0  0  0
   -4.0340   25.1960  -30.4900 O   0  0  0  0  0  0  0  0  0  0  0  0
   -4.0010   23.7770  -30.5850 C   0  0  0  0  0  0  0  0  0  0  0  0
   -4.9910   23.0690  -29.6390 C   0  0  0  0  0  0  0  0  0  0  0  0
   -5.8327   15.7489  -32.3766 H   0  0  0  0  0  0  0  0  0  0  0  0
   -6.2769   14.9010  -33.8967 H   0  0  0  0  0  0  0  0  0  0  0  0
   -4.9445   16.1058  -33.8967 H   0  0  0  0  0  0  0  0  0  0  0  0
   -6.7469   17.3070  -34.8207 H   0  0  0  0  0  0  0  0  0  0  0  0
   -7.9380   16.5413  -33.6822 H   0  0  0  0  0  0  0  0  0  0  0  0
   -7.5217   17.1669  -31.1339 H   0  0  0  0  0  0  0  0  0  0  0  0
   -7.0896   18.9165  -30.9659 H   0  0  0  0  0  0  0  0  0  0  0  0
   -9.5144   18.6844  -30.8774 H   0  0  0  0  0  0  0  0  0  0  0  0
   -9.0508   19.4898  -32.4146 H   0  0  0  0  0  0  0  0  0  0  0  0
   -9.5175   17.7552  -32.4146 H   0  0  0  0  0  0  0  0  0  0  0  0
   -1.9349   16.6107  -32.6132 H   0  0  0  0  0  0  0  0  0  0  0  0
   -2.8346   16.6016  -34.1679 H   0  0  0  0  0  0  0  0  0  0  0  0
   -1.0427   16.7270  -34.1679 H   0  0  0  0  0  0  0  0  0  0  0  0
    0.0594   18.8167  -33.8919 H   0  0  0  0  0  0  0  0  0  0  0  0
    0.6567   21.8119  -32.8697 H   0  0  0  0  0  0  0  0  0  0  0  0
    0.9904   20.9537  -34.4120 H   0  0  0  0  0  0  0  0  0  0  0  0
   -0.0138   22.4431  -34.4120 H   0  0  0  0  0  0  0  0  0  0  0  0
   -2.3003   22.4175  -33.4327 H   0  0  0  0  0  0  0  0  0  0  0  0
   -4.7167   22.2440  -33.0579 H   0  0  0  0  0  0  0  0  0  0  0  0
   -7.7037   21.0510  -33.6382 H   0  0  0  0  0  0  0  0  0  0  0  0
   -7.6569   20.4404  -31.9390 H   0  0  0  0  0  0  0  0  0  0  0  0
   -5.9108   22.7918  -32.4457 H   0  0  0  0  0  0  0  0  0  0  0  0
   -7.6766   23.1035  -32.6587 H   0  0  0  0  0  0  0  0  0  0  0  0
   -6.8610   23.5660  -28.9570 H   0  0  0  0  0  0  0  0  0  0  0  0
   -6.4704   24.7008  -31.6249 H   0  0  0  0  0  0  0  0  0  0  0  0
   -7.4185   25.3064  -30.2111 H   0  0  0  0  0  0  0  0  0  0  0  0
   -5.4281   26.7025  -30.5834 H   0  0  0  0  0  0  0  0  0  0  0  0
   -5.3151   25.7713  -29.0145 H   0  0  0  0  0  0  0  0  0  0  0  0
   -4.2451   23.4925  -31.6191 H   0  0  0  0  0  0  0  0  0  0  0  0
   -2.9905   23.4586  -30.2893 H   0  0  0  0  0  0  0  0  0  0  0  0
   -4.9141   21.9823  -29.7914 H   0  0  0  0  0  0  0  0  0  0  0  0
   -4.7317   23.3422  -28.6055 H   0  0  0  0  0  0  0  0  0  0  0  0
  1  2  1  0
  2  3  1  0
  3  4  1  0
  4  5  1  0
  3  6  1  0
  6  7  2  0
  7  8  1  0
  8  9  2  0
  9 10  1  0
  9 11  1  0
 11 12  2  0
 12 13  1  0
 12 14  1  0
 14 15  2  0
 15 16  1  0
 16 17  2  0
 17 18  1  0
 18 19  1  0
 19 20  1  0
 20 21  2  0
 20 22  1  0
 22 23  1  0
 23 24  1  0
 24 25  1  0
 25 26  1  0
 26 27  1  0
 17  6  1  0
 27 22  1  0
 15  8  1  0
  1 28  1  0
  1 29  1  0
  1 30  1  0
  2 31  1  0
  2 32  1  0
  4 33  1  0
  4 34  1  0
  5 35  1  0
  5 36  1  0
  5 37  1  0
 10 38  1  0
 10 39  1  0
 10 40  1  0
 11 41  1  0
 13 42  1  0
 13 43  1  0
 13 44  1  0
 14 45  1  0
 16 46  1  0
 18 47  1  0
 18 48  1  0
 19 49  1  0
 19 50  1  0
 22 51  1  0
 23 52  1  0
 23 53  1  0
 24 54  1  0
 24 55  1  0
 26 56  1  0
 26 57  1  0
 27 58  1  0
 27 59  1  0
M  CHG  1  22   1
M  END
>  <UniqueID>  (18) 
18

>  <SMILES>  (18) 
CCN(CC)c1nc2c(C)cc(C)cc2cc1CCC(=O)[NH+]1CCOCC1

>  <Energy>  (18) 
71.69607207272497

>  <Genealogy>  (18) 
CCN(CC)c1nc2c(C)cc(C)cc2cc1CCC(=O)[NH+]1CCOCC1 (protonated)
CCN(CC)c1nc2c(C)cc(C)cc2cc1CCC(=O)[NH+]1CCOCC1 (3D coordinates assigned)
CCN(CC)c1nc2c(C)cc(C)cc2cc1CCC(=O)[NH+]1CCOCC1 (nonaromatic ring conformer: 71.69607207272497 kcal/mol)

>  <smiles>  (18) 
CCN(CC)c1nc2c(C)cc(C)cc2cc1CCC(=O)N1CCOCC1

>  <score_type>  (18) 
oracle

>  <origin>  (18) 
adg

>  <m_score__min__energy>  (18) 
-8.2200000000000006

>  <m_primary>  (18) 
energy

$$$$
18:0
     RDKit          3D

 50 53  0  0  0  0  0  0  0  0999 V2000
   -4.9980   17.1440  -35.3270 C   0  0  0  0  0  0  0  0  0  0  0  0
   -5.2290   16.6870  -33.8750 C   0  0  2  0  0  0  0  0  0  0  0  0
   -6.6360   17.0370  -33.3580 C   0  0  0  0  0  0  0  0  0  0  0  0
   -6.7200   18.4700  -32.9230 C   0  0  0  0  0  0  0  0  0  0  0  0
   -7.9440   19.0540  -32.7280 N   0  0  0  0  0  0  0  0  0  0  0  0
   -8.0120   20.3440  -32.3150 C   0  0  0  0  0  0  0  0  0  0  0  0
   -9.3960   21.2580  -32.0660 S   0  0  0  0  0  0  0  0  0  0  0  0
   -8.5640   22.6710  -31.6450 C   0  0  0  0  0  0  0  0  0  0  0  0
   -7.1890   22.4280  -31.6990 C   0  0  0  0  0  0  0  0  0  0  0  0
   -6.1520   23.4920  -31.4720 C   0  0  0  0  0  0  0  0  0  0  0  0
   -5.0290   22.9160  -30.7030 N   0  0  0  0  0  0  0  0  0  0  0  0
   -3.8620   22.6740  -31.5710 C   0  0  0  0  0  0  0  0  0  0  0  0
   -4.6590   23.7370  -29.5320 C   0  0  0  0  0  0  0  0  0  0  0  0
   -3.8590   24.9210  -29.9820 C   0  0  0  0  0  0  0  0  0  0  0  0
   -4.2900   25.6520  -30.9120 O   0  0  0  0  0  0  0  0  0  0  0  0
   -2.6040   25.1980  -29.3450 N   0  0  0  0  0  0  0  0  0  0  0  0
   -1.6900   24.2540  -28.7720 C   0  0  0  0  0  0  0  0  0  0  0  0
   -1.2710   23.1700  -29.5550 C   0  0  0  0  0  0  0  0  0  0  0  0
   -0.4150   22.2020  -29.0240 C   0  0  0  0  0  0  0  0  0  0  0  0
    0.0250   22.3050  -27.7020 C   0  0  0  0  0  0  0  0  0  0  0  0
    0.8530   21.3640  -27.1870 F   0  0  0  0  0  0  0  0  0  0  0  0
   -0.4020   23.3730  -26.9060 C   0  0  0  0  0  0  0  0  0  0  0  0
   -1.2620   24.3420  -27.4340 C   0  0  0  0  0  0  0  0  0  0  0  0
   -6.8870   21.1070  -32.0740 C   0  0  0  0  0  0  0  0  0  0  0  0
   -5.6240   20.5340  -32.2380 C   0  0  0  0  0  0  0  0  0  0  0  0
   -5.5360   19.1940  -32.6500 C   0  0  0  0  0  0  0  0  0  0  0  0
   -4.1850   18.5680  -32.8950 C   0  0  0  0  0  0  0  0  0  0  0  0
   -4.2280   17.1510  -32.9800 O   0  0  0  0  0  0  0  0  0  0  0  0
   -4.5018   18.1257  -35.3279 H   0  0  0  0  0  0  0  0  0  0  0  0
   -4.3620   16.4112  -35.8453 H   0  0  0  0  0  0  0  0  0  0  0  0
   -5.9652   17.2216  -35.8453 H   0  0  0  0  0  0  0  0  0  0  0  0
   -5.1524   15.5901  -33.9044 H   0  0  0  0  0  0  0  0  0  0  0  0
   -7.3659   16.8641  -34.1626 H   0  0  0  0  0  0  0  0  0  0  0  0
   -6.8535   16.3987  -32.4889 H   0  0  0  0  0  0  0  0  0  0  0  0
   -8.8230   18.5180  -32.9060 H   0  0  0  0  0  0  0  0  0  0  0  0
   -9.0316   23.6285  -31.3722 H   0  0  0  0  0  0  0  0  0  0  0  0
   -5.7842   23.8607  -32.4409 H   0  0  0  0  0  0  0  0  0  0  0  0
   -6.5952   24.3280  -30.9111 H   0  0  0  0  0  0  0  0  0  0  0  0
   -2.9740   22.4898  -30.9485 H   0  0  0  0  0  0  0  0  0  0  0  0
   -4.0531   21.7964  -32.2060 H   0  0  0  0  0  0  0  0  0  0  0  0
   -3.6883   23.5552  -32.2060 H   0  0  0  0  0  0  0  0  0  0  0  0
   -5.5714   24.0830  -29.0243 H   0  0  0  0  0  0  0  0  0  0  0  0
   -4.0580   23.1325  -28.8368 H   0  0  0  0  0  0  0  0  0  0  0  0
   -1.6185   23.0807  -30.5948 H   0  0  0  0  0  0  0  0  0  0  0  0
   -0.0869   21.3574  -29.6477 H   0  0  0  0  0  0  0  0  0  0  0  0
   -0.0610   23.4511  -25.8631 H   0  0  0  0  0  0  0  0  0  0  0  0
   -1.6045   25.1746  -26.8020 H   0  0  0  0  0  0  0  0  0  0  0  0
   -4.7139   21.1218  -32.0478 H   0  0  0  0  0  0  0  0  0  0  0  0
   -3.7841   18.9622  -33.8405 H   0  0  0  0  0  0  0  0  0  0  0  0
   -3.5478   18.8230  -32.0354 H   0  0  0  0  0  0  0  0  0  0  0  0
  1  2  1  0
  2  3  1  0
  3  4  1  0
  4  5  2  0
  5  6  1  0
  6  7  1  0
  7  8  1  0
  8  9  2  0
  9 10  1  0
 10 11  1  0
 11 12  1  0
 11 13  1  0
 13 14  1  0
 14 15  2  0
 14 16  1  0
 16 17  1  0
 17 18  2  0
 18 19  1  0
 19 20  2  0
 20 21  1  0
 20 22  1  0
 22 23  2  0
  9 24  1  0
 24 25  1  0
 25 26  2  0
 26 27  1  0
 27 28  1  0
 28  2  1  0
 26  4  1  0
 24  6  2  0
 23 17  1  0
  1 29  1  0
  1 30  1  0
  1 31  1  0
  2 32  1  6
  3 33  1  0
  3 34  1  0
  5 35  1  0
  8 36  1  0
 10 37  1  0
 10 38  1  0
 12 39  1  0
 12 40  1  0
 12 41  1  0
 13 42  1  0
 13 43  1  0
 18 44  1  0
 19 45  1  0
 22 46  1  0
 23 47  1  0
 25 48  1  0
 27 49  1  0
 27 50  1  0
M  CHG  2   5   1  16  -1
M  END
>  <UniqueID>  (19) 
19

>  <SMILES>  (19) 
C[C@@H]1Cc2[nH+]c3scc(CN(C)CC(=O)[N-]c4ccc(F)cc4)c3cc2CO1

>  <Energy>  (19) 
92.3615711693337

>  <Genealogy>  (19) 
CC1Cc2[nH+]c3scc(CN(C)CC(=O)[N-]c4ccc(F)cc4)c3cc2CO1 (protonated)
C[C@@H]1Cc2[nH+]c3scc(CN(C)CC(=O)[N-]c4ccc(F)cc4)c3cc2CO1 (chirality)
C[C@@H]1Cc2[nH+]c3scc(CN(C)CC(=O)[N-]c4ccc(F)cc4)c3cc2CO1 (3D coordinates assigned)
C[C@@H]1Cc2[nH+]c3scc(CN(C)CC(=O)[N-]c4ccc(F)cc4)c3cc2CO1 (nonaromatic ring conformer: 92.3615711693337 kcal/mol)

>  <smiles>  (19) 
CC1Cc2nc3scc(CN(C)CC(=O)Nc4ccc(F)cc4)c3cc2CO1

>  <score_type>  (19) 
oracle

>  <origin>  (19) 
adg

>  <m_score__min__energy>  (19) 
-10.619999999999999

>  <m_primary>  (19) 
energy

$$$$
19:0
     RDKit          3D

 25 27  0  0  0  0  0  0  0  0999 V2000
   -4.3110   20.7590  -32.8160 C   0  0  0  0  0  0  0  0  0  0  0  0
   -5.4400   21.5170  -32.2760 N   0  0  0  0  0  0  0  0  0  0  0  0
   -5.3890   22.6680  -31.5580 C   0  0  0  0  0  0  0  0  0  0  0  0
   -4.2620   23.4230  -31.2170 C   0  0  0  0  0  0  0  0  0  0  0  0
   -4.4530   24.5870  -30.4500 C   0  0  0  0  0  0  0  0  0  0  0  0
   -5.7460   24.9710  -30.0340 C   0  0  0  0  0  0  0  0  0  0  0  0
   -6.8650   24.1940  -30.3770 C   0  0  0  0  0  0  0  0  0  0  0  0
   -6.6510   23.0480  -31.1410 C   0  0  0  0  0  0  0  0  0  0  0  0
   -7.5190   22.0850  -31.6020 C   0  0  0  0  0  0  0  0  0  0  0  0
   -8.8970   21.9400  -31.4570 C   0  0  0  0  0  0  0  0  0  0  0  0
   -9.5000   20.8060  -32.0290 C   0  0  0  0  0  0  0  0  0  0  0  0
   -8.7200   19.8510  -32.7180 C   0  0  0  0  0  0  0  0  0  0  0  0
   -7.3290   20.0190  -32.8460 C   0  0  0  0  0  0  0  0  0  0  0  0
   -6.7490   21.1600  -32.2790 C   0  0  0  0  0  0  0  0  0  0  0  0
   -3.7103   20.3557  -31.9874 H   0  0  0  0  0  0  0  0  0  0  0  0
   -4.6876   19.9300  -33.4333 H   0  0  0  0  0  0  0  0  0  0  0  0
   -3.6863   21.4214  -33.4333 H   0  0  0  0  0  0  0  0  0  0  0  0
   -3.2560   23.1158  -31.5390 H   0  0  0  0  0  0  0  0  0  0  0  0
   -3.5859   25.2040  -30.1717 H   0  0  0  0  0  0  0  0  0  0  0  0
   -5.8784   25.8853  -29.4369 H   0  0  0  0  0  0  0  0  0  0  0  0
   -7.8765   24.4805  -30.0534 H   0  0  0  0  0  0  0  0  0  0  0  0
   -9.4932   22.6876  -30.9133 H   0  0  0  0  0  0  0  0  0  0  0  0
  -10.5868   20.6615  -31.9393 H   0  0  0  0  0  0  0  0  0  0  0  0
   -9.2048   18.9674  -33.1587 H   0  0  0  0  0  0  0  0  0  0  0  0
   -6.7153   19.2757  -33.3760 H   0  0  0  0  0  0  0  0  0  0  0  0
  1  2  1  0
  2  3  1  0
  3  4  2  0
  4  5  1  0
  5  6  2  0
  6  7  1  0
  7  8  2  0
  8  9  1  0
  9 10  2  0
 10 11  1  0
 11 12  2  0
 12 13  1  0
 13 14  2  0
 14  2  1  0
  8  3  1  0
 14  9  1  0
  1 15  1  0
  1 16  1  0
  1 17  1  0
  4 18  1  0
  5 19  1  0
  6 20  1  0
  7 21  1  0
 10 22  1  0
 11 23  1  0
 12 24  1  0
 13 25  1  0
M  END
>  <UniqueID>  (20) 
20

>  <SMILES>  (20) 
Cn1c2ccccc2c2ccccc21

>  <Energy>  (20) 
69.4438041227414

>  <Genealogy>  (20) 
Cn1c2ccccc2c2ccccc21 (3D coordinates assigned)
Cn1c2ccccc2c2ccccc21 (optimized conformer: 69.4438041227414 kcal/mol)

>  <smiles>  (20) 
Cn1c2ccccc2c2ccccc21

>  <score_type>  (20) 
oracle

>  <origin>  (20) 
adg

>  <m_score__min__energy>  (20) 
-6.5499999999999998

>  <m_primary>  (20) 
energy

$$$$
20:0
     RDKit          3D

 40 42  0  0  0  0  0  0  0  0999 V2000
   -5.7040   18.0080  -34.6710 C   0  0  0  0  0  0  0  0  0  0  0  0
   -6.8580   18.1520  -33.8490 O   0  0  0  0  0  0  0  0  0  0  0  0
   -7.0650   19.2120  -32.9530 C   0  0  0  0  0  0  0  0  0  0  0  0
   -8.2480   19.3460  -32.2040 C   0  0  0  0  0  0  0  0  0  0  0  0
   -8.4090   20.4220  -31.3240 C   0  0  0  0  0  0  0  0  0  0  0  0
   -7.3920   21.3850  -31.1810 C   0  0  0  0  0  0  0  0  0  0  0  0
   -7.5280   22.5090  -30.2890 N   0  0  0  0  0  0  0  0  0  0  0  0
   -7.0340   23.8580  -30.5770 C   0  0  0  0  0  0  0  0  0  0  0  0
   -5.5900   24.0050  -30.1560 C   0  0  0  0  0  0  0  0  0  0  0  0
   -4.9970   23.0180  -29.3530 C   0  0  0  0  0  0  0  0  0  0  0  0
   -3.6630   23.1440  -28.9480 C   0  0  0  0  0  0  0  0  0  0  0  0
   -3.0460   22.1630  -28.1580 C   0  0  0  0  0  0  0  0  0  0  0  0
   -1.7000   22.3120  -27.7650 C   0  0  0  0  0  0  0  0  0  0  0  0
   -1.0370   21.3600  -26.9760 O   0  0  0  0  0  0  0  0  0  0  0  0
   -1.6280   20.1550  -26.5020 C   0  0  0  0  0  0  0  0  0  0  0  0
   -0.9890   23.4480  -28.1710 C   0  0  0  0  0  0  0  0  0  0  0  0
   -1.6000   24.4300  -28.9570 C   0  0  0  0  0  0  0  0  0  0  0  0
   -2.9340   24.2820  -29.3480 C   0  0  0  0  0  0  0  0  0  0  0  0
   -3.5310   25.2370  -30.1090 N   0  0  0  0  0  0  0  0  0  0  0  0
   -4.8240   25.1330  -30.5150 C   0  0  0  0  0  0  0  0  0  0  0  0
   -5.3230   26.0580  -31.2100 O   0  0  0  0  0  0  0  0  0  0  0  0
   -6.2130   21.2410  -31.9270 C   0  0  0  0  0  0  0  0  0  0  0  0
   -6.0530   20.1660  -32.8050 C   0  0  0  0  0  0  0  0  0  0  0  0
   -4.8129   17.8968  -34.0357 H   0  0  0  0  0  0  0  0  0  0  0  0
   -5.8151   17.1168  -35.3061 H   0  0  0  0  0  0  0  0  0  0  0  0
   -5.5927   18.8992  -35.3061 H   0  0  0  0  0  0  0  0  0  0  0  0
   -9.0505   18.6013  -32.3105 H   0  0  0  0  0  0  0  0  0  0  0  0
   -9.3364   20.5161  -30.7400 H   0  0  0  0  0  0  0  0  0  0  0  0
   -7.9710   22.3540  -29.3560 H   0  0  0  0  0  0  0  0  0  0  0  0
   -7.1153   24.0482  -31.6574 H   0  0  0  0  0  0  0  0  0  0  0  0
   -7.6400   24.5820  -30.0126 H   0  0  0  0  0  0  0  0  0  0  0  0
   -5.5834   22.1414  -29.0405 H   0  0  0  0  0  0  0  0  0  0  0  0
   -3.6138   21.2747  -27.8441 H   0  0  0  0  0  0  0  0  0  0  0  0
   -1.6282   20.1547  -25.4020 H   0  0  0  0  0  0  0  0  0  0  0  0
   -2.6627   20.0850  -26.8688 H   0  0  0  0  0  0  0  0  0  0  0  0
   -1.0499   19.2941  -26.8688 H   0  0  0  0  0  0  0  0  0  0  0  0
    0.0616   23.5692  -27.8683 H   0  0  0  0  0  0  0  0  0  0  0  0
   -1.0311   25.3188  -29.2676 H   0  0  0  0  0  0  0  0  0  0  0  0
   -5.4066   21.9815  -31.8198 H   0  0  0  0  0  0  0  0  0  0  0  0
   -5.1232   20.0691  -33.3848 H   0  0  0  0  0  0  0  0  0  0  0  0
  1  2  1  0
  2  3  1  0
  3  4  2  0
  4  5  1  0
  5  6  2  0
  6  7  1  0
  7  8  1  0
  8  9  1  0
  9 10  2  0
 10 11  1  0
 11 12  2  0
 12 13  1  0
 13 14  1  0
 14 15  1  0
 13 16  2  0
 16 17  1  0
 17 18  2  0
 18 19  1  0
 19 20  1  0
 20 21  2  0
  6 22  1  0
 22 23  2  0
 23  3  1  0
 20  9  1  0
 18 11  1  0
  1 24  1  0
  1 25  1  0
  1 26  1  0
  4 27  1  0
  5 28  1  0
  7 29  1  0
  8 30  1  0
  8 31  1  0
 10 32  1  0
 12 33  1  0
 15 34  1  0
 15 35  1  0
 15 36  1  0
 16 37  1  0
 17 38  1  0
 22 39  1  0
 23 40  1  0
M  CHG  1  19  -1
M  END
>  <UniqueID>  (21) 
21

>  <SMILES>  (21) 
COc1ccc(NCc2cc3cc(OC)ccc3[n-]c2=O)cc1

>  <Energy>  (21) 
44.79403299556587

>  <Genealogy>  (21) 
COc1ccc(NCc2cc3cc(OC)ccc3[n-]c2=O)cc1 (protonated)
COc1ccc(NCc2cc3cc(OC)ccc3[n-]c2=O)cc1 (3D coordinates assigned)
COc1ccc(NCc2cc3cc(OC)ccc3[n-]c2=O)cc1 (optimized conformer: 44.79403299556587 kcal/mol)

>  <smiles>  (21) 
COc1ccc(NCc2cc3cc(OC)ccc3[nH]c2=O)cc1

>  <score_type>  (21) 
oracle

>  <origin>  (21) 
adg

>  <m_score__min__energy>  (21) 
-9.3100000000000005

>  <m_primary>  (21) 
energy

$$$$
21:0
     RDKit          3D

 32 34  0  0  0  0  0  0  0  0999 V2000
   -1.6450   25.3300  -27.6530 C   0  0  0  0  0  0  0  0  0  0  0  0
   -2.1920   25.4930  -28.9570 O   0  0  0  0  0  0  0  0  0  0  0  0
   -3.0060   24.5480  -29.5990 C   0  0  0  0  0  0  0  0  0  0  0  0
   -4.2990   24.9290  -29.9750 C   0  0  0  0  0  0  0  0  0  0  0  0
   -5.1490   24.0240  -30.6180 C   0  0  0  0  0  0  0  0  0  0  0  0
   -4.7160   22.7160  -30.8970 C   0  0  0  0  0  0  0  0  0  0  0  0
   -5.5960   21.7390  -31.5770 C   0  0  0  0  0  0  0  0  0  0  0  0
   -6.9560   21.8300  -31.8040 C   0  0  0  0  0  0  0  0  0  0  0  0
   -7.3660   20.7250  -32.4540 N   0  0  0  0  0  0  0  0  0  0  0  0
   -6.2340   20.0010  -32.5980 C   0  0  0  0  0  0  0  0  0  0  0  0
   -6.1780   18.6850  -33.2640 C   0  0  0  0  0  0  0  0  0  0  0  0
   -6.9830   17.6270  -32.8060 C   0  0  0  0  0  0  0  0  0  0  0  0
   -6.9330   16.3790  -33.4340 C   0  0  0  0  0  0  0  0  0  0  0  0
   -6.0820   16.1760  -34.5230 C   0  0  0  0  0  0  0  0  0  0  0  0
   -5.2780   17.2210  -34.9860 C   0  0  0  0  0  0  0  0  0  0  0  0
   -5.3240   18.4710  -34.3600 C   0  0  0  0  0  0  0  0  0  0  0  0
   -5.1840   20.6000  -32.0790 O   0  0  0  0  0  0  0  0  0  0  0  0
   -3.4180   22.3340  -30.5190 C   0  0  0  0  0  0  0  0  0  0  0  0
   -2.5690   23.2400  -29.8770 C   0  0  0  0  0  0  0  0  0  0  0  0
   -2.4146   25.5593  -26.9013 H   0  0  0  0  0  0  0  0  0  0  0  0
   -1.3053   24.2916  -27.5250 H   0  0  0  0  0  0  0  0  0  0  0  0
   -0.7924   26.0131  -27.5250 H   0  0  0  0  0  0  0  0  0  0  0  0
   -4.6498   25.9497  -29.7628 H   0  0  0  0  0  0  0  0  0  0  0  0
   -6.1629   24.3375  -30.9074 H   0  0  0  0  0  0  0  0  0  0  0  0
   -7.5994   22.6696  -31.5023 H   0  0  0  0  0  0  0  0  0  0  0  0
   -7.6554   17.7821  -31.9494 H   0  0  0  0  0  0  0  0  0  0  0  0
   -7.5649   15.5555  -33.0700 H   0  0  0  0  0  0  0  0  0  0  0  0
   -6.0447   15.1934  -35.0161 H   0  0  0  0  0  0  0  0  0  0  0  0
   -4.6082   17.0604  -35.8437 H   0  0  0  0  0  0  0  0  0  0  0  0
   -4.6888   19.2906  -34.7271 H   0  0  0  0  0  0  0  0  0  0  0  0
   -3.0668   21.3132  -30.7301 H   0  0  0  0  0  0  0  0  0  0  0  0
   -1.5544   22.9288  -29.5878 H   0  0  0  0  0  0  0  0  0  0  0  0
  1  2  1  0
  2  3  1  0
  3  4  2  0
  4  5  1  0
  5  6  2  0
  6  7  1  0
  7  8  2  0
  8  9  1  0
  9 10  2  0
 10 11  1  0
 11 12  2  0
 12 13  1  0
 13 14  2  0
 14 15  1  0
 15 16  2  0
 10 17  1  0
  6 18  1  0
 18 19  2  0
 19  3  1  0
 17  7  1  0
 16 11  1  0
  1 20  1  0
  1 21  1  0
  1 22  1  0
  4 23  1  0
  5 24  1  0
  8 25  1  0
 12 26  1  0
 13 27  1  0
 14 28  1  0
 15 29  1  0
 16 30  1  0
 18 31  1  0
 19 32  1  0
M  END
>  <UniqueID>  (22) 
22

>  <SMILES>  (22) 
COc1ccc(-c2cnc(-c3ccccc3)o2)cc1

>  <Energy>  (22) 
64.72067399401392

>  <Genealogy>  (22) 
COc1ccc(-c2cnc(-c3ccccc3)o2)cc1 (3D coordinates assigned)
COc1ccc(-c2cnc(-c3ccccc3)o2)cc1 (optimized conformer: 64.72067399401392 kcal/mol)

>  <smiles>  (22) 
COc1ccc(-c2cnc(-c3ccccc3)o2)cc1

>  <score_type>  (22) 
oracle

>  <origin>  (22) 
adg

>  <m_score__min__energy>  (22) 
-6.5300000000000002

>  <m_primary>  (22) 
energy

$$$$
22:0
     RDKit          3D

 50 52  0  0  0  0  0  0  0  0999 V2000
   -1.6010   25.4560  -27.3590 C   0  0  0  0  0  0  0  0  0  0  0  0
   -2.0160   25.3750  -28.7190 O   0  0  0  0  0  0  0  0  0  0  0  0
   -2.3120   24.1850  -29.4030 C   0  0  0  0  0  0  0  0  0  0  0  0
   -1.6290   22.9970  -29.0930 C   0  0  0  0  0  0  0  0  0  0  0  0
   -1.9200   21.8140  -29.7580 C   0  0  0  0  0  0  0  0  0  0  0  0
   -2.9050   21.7760  -30.7470 C   0  0  0  0  0  0  0  0  0  0  0  0
   -3.2280   20.4530  -31.4120 C   0  0  0  0  0  0  0  0  0  0  0  0
   -3.4840   20.5900  -32.8590 N   0  0  0  0  0  0  0  0  0  0  0  0
   -3.2160   19.3710  -33.6460 C   0  0  0  0  0  0  0  0  0  0  0  0
   -4.4930   18.7510  -34.2360 C   0  0  0  0  0  0  0  0  0  0  0  0
   -5.4250   18.3300  -33.1390 C   0  0  0  0  0  0  0  0  0  0  0  0
   -5.3070   17.1960  -32.3410 C   0  0  0  0  0  0  0  0  0  0  0  0
   -6.3730   17.0870  -31.5150 N   0  0  0  0  0  0  0  0  0  0  0  0
   -7.1680   18.1340  -31.7940 C   0  0  0  0  0  0  0  0  0  0  0  0
   -8.4010   18.4370  -31.2160 C   0  0  0  0  0  0  0  0  0  0  0  0
   -9.0820   19.5770  -31.6790 C   0  0  0  0  0  0  0  0  0  0  0  0
   -8.5250   20.3780  -32.7010 C   0  0  0  0  0  0  0  0  0  0  0  0
   -7.2810   20.0460  -33.2670 C   0  0  0  0  0  0  0  0  0  0  0  0
   -6.6260   18.9140  -32.7830 C   0  0  0  0  0  0  0  0  0  0  0  0
   -3.5970   22.9540  -31.0980 C   0  0  0  0  0  0  0  0  0  0  0  0
   -4.5560   22.8460  -32.1270 O   0  0  0  0  0  0  0  0  0  0  0  0
   -5.9710   22.8070  -31.9850 C   0  0  0  0  0  0  0  0  0  0  0  0
   -3.3060   24.1730  -30.4200 C   0  0  0  0  0  0  0  0  0  0  0  0
   -4.0250   25.3270  -30.7860 O   0  0  0  0  0  0  0  0  0  0  0  0
   -5.3750   25.6400  -30.4670 C   0  0  0  0  0  0  0  0  0  0  0  0
   -2.4661   25.2871  -26.7010 H   0  0  0  0  0  0  0  0  0  0  0  0
   -0.8361   24.6902  -27.1628 H   0  0  0  0  0  0  0  0  0  0  0  0
   -1.1802   26.4532  -27.1628 H   0  0  0  0  0  0  0  0  0  0  0  0
   -0.8534   23.0045  -28.3130 H   0  0  0  0  0  0  0  0  0  0  0  0
   -1.3689   20.8967  -29.5033 H   0  0  0  0  0  0  0  0  0  0  0  0
   -2.3777   19.7701  -31.2682 H   0  0  0  0  0  0  0  0  0  0  0  0
   -4.1460   20.0633  -30.9478 H   0  0  0  0  0  0  0  0  0  0  0  0
   -4.4840   20.8630  -33.0070 H   0  0  0  0  0  0  0  0  0  0  0  0
   -2.8950   21.3730  -33.2290 H   0  0  0  0  0  0  0  0  0  0  0  0
   -2.5360   19.6279  -34.4716 H   0  0  0  0  0  0  0  0  0  0  0  0
   -2.7705   18.6292  -32.9668 H   0  0  0  0  0  0  0  0  0  0  0  0
   -4.9954   19.4936  -34.8733 H   0  0  0  0  0  0  0  0  0  0  0  0
   -4.2187   17.8668  -34.8300 H   0  0  0  0  0  0  0  0  0  0  0  0
   -4.4658   16.4882  -32.3768 H   0  0  0  0  0  0  0  0  0  0  0  0
   -6.5470   16.3310  -30.8150 H   0  0  0  0  0  0  0  0  0  0  0  0
   -8.8270   17.8044  -30.4233 H   0  0  0  0  0  0  0  0  0  0  0  0
  -10.0549   19.8469  -31.2425 H   0  0  0  0  0  0  0  0  0  0  0  0
   -9.0675   21.2666  -33.0561 H   0  0  0  0  0  0  0  0  0  0  0  0
   -6.8389   20.6596  -34.0658 H   0  0  0  0  0  0  0  0  0  0  0  0
   -6.2322   22.7998  -30.9165 H   0  0  0  0  0  0  0  0  0  0  0  0
   -6.4122   23.6933  -32.4644 H   0  0  0  0  0  0  0  0  0  0  0  0
   -6.3627   21.8977  -32.4644 H   0  0  0  0  0  0  0  0  0  0  0  0
   -5.4965   25.6682  -29.3741 H   0  0  0  0  0  0  0  0  0  0  0  0
   -5.6336   26.6219  -30.8901 H   0  0  0  0  0  0  0  0  0  0  0  0
   -6.0393   24.8720  -30.8901 H   0  0  0  0  0  0  0  0  0  0  0  0
  1  2  1  0
  2  3  1  0
  3  4  2  0
  4  5  1  0
  5  6  2  0
  6  7  1  0
  7  8  1  0
  8  9  1  0
  9 10  1  0
 10 11  1  0
 11 12  2  0
 12 13  1  0
 13 14  1  0
 14 15  2  0
 15 16  1  0
 16 17  2  0
 17 18  1  0
 18 19  2  0
  6 20  1  0
 20 21  1  0
 21 22  1  0
 20 23  2  0
 23 24  1  0
 24 25  1  0
 23  3  1  0
 19 11  1  0
 19 14  1  0
  1 26  1  0
  1 27  1  0
  1 28  1  0
  4 29  1  0
  5 30  1  0
  7 31  1  0
  7 32  1  0
  8 33  1  0
  8 34  1  0
  9 35  1  0
  9 36  1  0
 10 37  1  0
 10 38  1  0
 12 39  1  0
 13 40  1  0
 15 41  1  0
 16 42  1  0
 17 43  1  0
 18 44  1  0
 22 45  1  0
 22 46  1  0
 22 47  1  0
 25 48  1  0
 25 49  1  0
 25 50  1  0
M  CHG  1   8   1
M  END
>  <UniqueID>  (23) 
23

>  <SMILES>  (23) 
COc1ccc(C[NH2+]CCc2c[nH]c3ccccc23)c(OC)c1OC

>  <Energy>  (23) 
87.58404874763646

>  <Genealogy>  (23) 
COc1ccc(C[NH2+]CCc2c[nH]c3ccccc23)c(OC)c1OC (protonated)
COc1ccc(C[NH2+]CCc2c[nH]c3ccccc23)c(OC)c1OC (3D coordinates assigned)
COc1ccc(C[NH2+]CCc2c[nH]c3ccccc23)c(OC)c1OC (optimized conformer: 87.58404874763646 kcal/mol)

>  <smiles>  (23) 
COc1ccc(CNCCc2c[nH]c3ccccc23)c(OC)c1OC

>  <score_type>  (23) 
oracle

>  <origin>  (23) 
adg

>  <m_score__min__energy>  (23) 
-8.3100000000000005

>  <m_primary>  (23) 
energy

$$$$
23:0
     RDKit          3D

 42 44  0  0  0  0  0  0  0  0999 V2000
   -2.3810   17.1010  -34.2380 C   0  0  0  0  0  0  0  0  0  0  0  0
   -3.8000   15.9620  -34.2400 S   0  0  0  0  0  0  0  0  0  0  0  0
   -4.9830   17.2290  -33.7740 C   0  0  0  0  0  0  0  0  0  0  0  0
   -6.1090   16.8900  -33.0150 C   0  0  0  0  0  0  0  0  0  0  0  0
   -7.0460   17.8690  -32.6730 C   0  0  0  0  0  0  0  0  0  0  0  0
   -6.8720   19.1950  -33.1010 C   0  0  0  0  0  0  0  0  0  0  0  0
   -7.8620   20.2590  -32.7140 C   0  0  0  0  0  0  0  0  0  0  0  0
   -7.1930   21.5550  -32.6500 N   0  0  0  0  0  0  0  0  0  0  0  0
   -7.4130   22.4760  -31.5720 C   0  0  0  0  0  0  0  0  0  0  0  0
   -8.5040   22.4540  -30.9400 O   0  0  0  0  0  0  0  0  0  0  0  0
   -6.3750   23.4630  -31.2070 C   0  0  0  0  0  0  0  0  0  0  0  0
   -6.7160   24.6010  -30.4670 C   0  0  0  0  0  0  0  0  0  0  0  0
   -5.7280   25.5260  -30.1370 C   0  0  0  0  0  0  0  0  0  0  0  0
   -4.4470   25.3040  -30.5240 N   0  0  0  0  0  0  0  0  0  0  0  0
   -4.1070   24.2120  -31.2100 N   0  0  0  0  0  0  0  0  0  0  0  0
   -5.0300   23.2750  -31.5660 C   0  0  0  0  0  0  0  0  0  0  0  0
   -4.6380   22.1090  -32.2340 O   0  0  0  0  0  0  0  0  0  0  0  0
   -3.3430   21.5830  -32.2020 C   0  0  0  0  0  0  0  0  0  0  0  0
   -2.6560   21.4320  -33.4120 C   0  0  0  0  0  0  0  0  0  0  0  0
   -1.3560   20.9210  -33.4280 C   0  0  0  0  0  0  0  0  0  0  0  0
   -0.5080   20.7340  -34.9530 Cl  0  0  0  0  0  0  0  0  0  0  0  0
   -0.7310   20.5640  -32.2300 C   0  0  0  0  0  0  0  0  0  0  0  0
   -1.4020   20.7300  -31.0160 C   0  0  0  0  0  0  0  0  0  0  0  0
   -2.7040   21.2450  -30.9930 C   0  0  0  0  0  0  0  0  0  0  0  0
   -3.4710   21.5380  -29.4370 Cl  0  0  0  0  0  0  0  0  0  0  0  0
   -5.7320   19.5320  -33.8500 C   0  0  0  0  0  0  0  0  0  0  0  0
   -4.7960   18.5520  -34.1900 C   0  0  0  0  0  0  0  0  0  0  0  0
   -2.0959   17.3298  -33.2005 H   0  0  0  0  0  0  0  0  0  0  0  0
   -1.5324   16.6305  -34.7561 H   0  0  0  0  0  0  0  0  0  0  0  0
   -2.6568   18.0313  -34.7561 H   0  0  0  0  0  0  0  0  0  0  0  0
   -6.2569   15.8505  -32.6869 H   0  0  0  0  0  0  0  0  0  0  0  0
   -7.9231   17.5997  -32.0662 H   0  0  0  0  0  0  0  0  0  0  0  0
   -8.6665   20.2996  -33.4631 H   0  0  0  0  0  0  0  0  0  0  0  0
   -8.2866   20.0196  -31.7279 H   0  0  0  0  0  0  0  0  0  0  0  0
   -6.4610   21.7700  -33.3650 H   0  0  0  0  0  0  0  0  0  0  0  0
   -7.7562   24.7637  -30.1484 H   0  0  0  0  0  0  0  0  0  0  0  0
   -5.9850   26.4306  -29.5663 H   0  0  0  0  0  0  0  0  0  0  0  0
   -3.1428   21.7175  -34.3562 H   0  0  0  0  0  0  0  0  0  0  0  0
    0.2890   20.1524  -32.2430 H   0  0  0  0  0  0  0  0  0  0  0  0
   -0.9053   20.4549  -30.0739 H   0  0  0  0  0  0  0  0  0  0  0  0
   -5.5756   20.5726  -34.1703 H   0  0  0  0  0  0  0  0  0  0  0  0
   -3.9110   18.8207  -34.7854 H   0  0  0  0  0  0  0  0  0  0  0  0
  1  2  1  0
  2  3  1  0
  3  4  2  0
  4  5  1  0
  5  6  2  0
  6  7  1  0
  7  8  1  0
  8  9  1  0
  9 10  2  0
  9 11  1  0
 11 12  2  0
 12 13  1  0
 13 14  2  0
 14 15  1  0
 15 16  2  0
 16 17  1  0
 17 18  1  0
 18 19  2  0
 19 20  1  0
 20 21  1  0
 20 22  2  0
 22 23  1  0
 23 24  2  0
 24 25  1  0
  6 26  1  0
 26 27  2  0
 27  3  1  0
 16 11  1  0
 24 18  1  0
  1 28  1  0
  1 29  1  0
  1 30  1  0
  4 31  1  0
  5 32  1  0
  7 33  1  0
  7 34  1  0
  8 35  1  0
 12 36  1  0
 13 37  1  0
 19 38  1  0
 22 39  1  0
 23 40  1  0
 26 41  1  0
 27 42  1  0
M  END
>  <UniqueID>  (24) 
24

>  <SMILES>  (24) 
CSc1ccc(CNC(=O)c2ccnnc2Oc2cc(Cl)ccc2Cl)cc1

>  <Energy>  (24) 
47.33366796598209

>  <Genealogy>  (24) 
CSc1ccc(CNC(=O)c2ccnnc2Oc2cc(Cl)ccc2Cl)cc1 (3D coordinates assigned)
CSc1ccc(CNC(=O)c2ccnnc2Oc2cc(Cl)ccc2Cl)cc1 (optimized conformer: 47.33366796598209 kcal/mol)

>  <smiles>  (24) 
CSc1ccc(CNC(=O)c2ccnnc2Oc2cc(Cl)ccc2Cl)cc1

>  <score_type>  (24) 
oracle

>  <origin>  (24) 
adg

>  <m_score__min__energy>  (24) 
-9.4700000000000006

>  <m_primary>  (24) 
energy

$$$$
24:0
     RDKit          3D

 60 62  0  0  0  0  0  0  0  0999 V2000
   -2.9860   19.5170  -27.0830 C   0  0  0  0  0  0  0  0  0  0  0  0
   -2.4030   20.2680  -27.8240 C   0  0  0  0  0  0  0  0  0  0  0  0
   -1.6910   21.1810  -28.7250 C   0  0  0  0  0  0  0  0  0  0  0  0
   -2.4700   21.3940  -29.9490 N   0  0  0  0  0  0  0  0  0  0  0  0
   -2.3560   20.4250  -31.0430 C   0  0  0  0  0  0  0  0  0  0  0  0
   -3.1620   22.6490  -30.1320 C   0  0  0  0  0  0  0  0  0  0  0  0
   -3.0360   23.2640  -31.2270 O   0  0  0  0  0  0  0  0  0  0  0  0
   -3.9730   23.3070  -29.0300 C   0  0  2  0  0  0  0  0  0  0  0  0
   -5.2550   23.9490  -29.6010 C   0  0  0  0  0  0  0  0  0  0  0  0
   -4.9890   24.5920  -30.8320 O   0  0  0  0  0  0  0  0  0  0  0  0
   -6.1320   24.5720  -31.6640 C   0  0  0  0  0  0  0  0  0  0  0  0
   -6.5660   23.1530  -31.9110 C   0  0  0  0  0  0  0  0  0  0  0  0
   -5.6300   22.2020  -32.3460 C   0  0  0  0  0  0  0  0  0  0  0  0
   -6.0370   20.8990  -32.6660 C   0  0  0  0  0  0  0  0  0  0  0  0
   -5.0300   19.8880  -33.1290 C   0  0  0  0  0  0  0  0  0  0  0  0
   -7.3810   20.5340  -32.5030 C   0  0  0  0  0  0  0  0  0  0  0  0
   -8.3220   21.4710  -32.0480 C   0  0  0  0  0  0  0  0  0  0  0  0
   -9.7690   21.0920  -31.9280 C   0  0  0  0  0  0  0  0  0  0  0  0
   -7.9140   22.7850  -31.7780 C   0  0  0  0  0  0  0  0  0  0  0  0
   -3.1180   24.1920  -28.1310 C   0  0  0  0  0  0  0  0  0  0  0  0
   -3.5930   24.5020  -26.8450 C   0  0  0  0  0  0  0  0  0  0  0  0
   -2.8480   25.3060  -25.9780 C   0  0  0  0  0  0  0  0  0  0  0  0
   -1.6080   25.8300  -26.3810 C   0  0  0  0  0  0  0  0  0  0  0  0
   -0.8130   26.6840  -25.4620 C   0  0  0  0  0  0  0  0  0  0  0  0
   -0.6530   26.3250  -24.1100 C   0  0  0  0  0  0  0  0  0  0  0  0
    0.1000   27.1310  -23.2490 C   0  0  0  0  0  0  0  0  0  0  0  0
    0.6950   28.3010  -23.7250 C   0  0  0  0  0  0  0  0  0  0  0  0
    0.5390   28.6700  -25.0630 C   0  0  0  0  0  0  0  0  0  0  0  0
   -0.2090   27.8670  -25.9280 C   0  0  0  0  0  0  0  0  0  0  0  0
   -1.1350   25.5360  -27.6690 C   0  0  0  0  0  0  0  0  0  0  0  0
   -1.8810   24.7330  -28.5360 C   0  0  0  0  0  0  0  0  0  0  0  0
   -3.5180   18.8317  -26.4068 H   0  0  0  0  0  0  0  0  0  0  0  0
   -1.5386   22.1456  -28.2188 H   0  0  0  0  0  0  0  0  0  0  0  0
   -0.7195   20.7385  -28.9902 H   0  0  0  0  0  0  0  0  0  0  0  0
   -2.2371   19.4139  -30.6264 H   0  0  0  0  0  0  0  0  0  0  0  0
   -3.2647   20.4620  -31.6618 H   0  0  0  0  0  0  0  0  0  0  0  0
   -1.4807   20.6719  -31.6618 H   0  0  0  0  0  0  0  0  0  0  0  0
   -4.3358   22.5344  -28.3361 H   0  0  0  0  0  0  0  0  0  0  0  0
   -6.0110   23.1657  -29.7592 H   0  0  0  0  0  0  0  0  0  0  0  0
   -5.6237   24.6978  -28.8845 H   0  0  0  0  0  0  0  0  0  0  0  0
   -6.9486   25.1223  -31.1738 H   0  0  0  0  0  0  0  0  0  0  0  0
   -5.8860   25.0461  -32.6256 H   0  0  0  0  0  0  0  0  0  0  0  0
   -4.5698   22.4808  -32.4365 H   0  0  0  0  0  0  0  0  0  0  0  0
   -4.5580   19.4141  -32.2557 H   0  0  0  0  0  0  0  0  0  0  0  0
   -5.5332   19.1205  -33.7354 H   0  0  0  0  0  0  0  0  0  0  0  0
   -4.2605   20.3881  -33.7354 H   0  0  0  0  0  0  0  0  0  0  0  0
   -7.7000   19.5067  -32.7332 H   0  0  0  0  0  0  0  0  0  0  0  0
  -10.0423   21.0204  -30.8649 H   0  0  0  0  0  0  0  0  0  0  0  0
  -10.3902   21.8577  -32.4156 H   0  0  0  0  0  0  0  0  0  0  0  0
   -9.9351   20.1200  -32.4156 H   0  0  0  0  0  0  0  0  0  0  0  0
   -8.6554   23.5326  -31.4597 H   0  0  0  0  0  0  0  0  0  0  0  0
   -4.5652   24.1061  -26.5162 H   0  0  0  0  0  0  0  0  0  0  0  0
   -3.2350   25.5302  -24.9730 H   0  0  0  0  0  0  0  0  0  0  0  0
   -1.1224   25.4062  -23.7286 H   0  0  0  0  0  0  0  0  0  0  0  0
    0.2235   26.8422  -22.1948 H   0  0  0  0  0  0  0  0  0  0  0  0
    1.2868   28.9324  -23.0460 H   0  0  0  0  0  0  0  0  0  0  0  0
    1.0054   29.5937  -25.4362 H   0  0  0  0  0  0  0  0  0  0  0  0
   -0.3268   28.1616  -26.9813 H   0  0  0  0  0  0  0  0  0  0  0  0
   -0.1674   25.9416  -27.9995 H   0  0  0  0  0  0  0  0  0  0  0  0
   -1.4987   24.5208  -29.5454 H   0  0  0  0  0  0  0  0  0  0  0  0
  1  2  3  0
  2  3  1  0
  3  4  1  0
  4  5  1  0
  4  6  1  0
  6  7  2  0
  6  8  1  0
  8  9  1  0
  9 10  1  0
 10 11  1  0
 11 12  1  0
 12 13  2  0
 13 14  1  0
 14 15  1  0
 14 16  2  0
 16 17  1  0
 17 18  1  0
 17 19  2  0
  8 20  1  0
 20 21  2  0
 21 22  1  0
 22 23  2  0
 23 24  1  0
 24 25  2  0
 25 26  1  0
 26 27  2  0
 27 28  1  0
 28 29  2  0
 23 30  1  0
 30 31  2  0
 19 12  1  0
 31 20  1  0
 29 24  1  0
  1 32  1  0
  3 33  1  0
  3 34  1  0
  5 35  1  0
  5 36  1  0
  5 37  1  0
  8 38  1  1
  9 39  1  0
  9 40  1  0
 11 41  1  0
 11 42  1  0
 13 43  1  0
 15 44  1  0
 15 45  1  0
 15 46  1  0
 16 47  1  0
 18 48  1  0
 18 49  1  0
 18 50  1  0
 19 51  1  0
 21 52  1  0
 22 53  1  0
 25 54  1  0
 26 55  1  0
 27 56  1  0
 28 57  1  0
 29 58  1  0
 30 59  1  0
 31 60  1  0
M  END
>  <UniqueID>  (25) 
25

>  <SMILES>  (25) 
C#CCN(C)C(=O)[C@H](COCc1cc(C)cc(C)c1)c1ccc(-c2ccccc2)cc1

>  <Energy>  (25) 
66.13981334673537

>  <Genealogy>  (25) 
C#CCN(C)C(=O)[C@H](COCc1cc(C)cc(C)c1)c1ccc(-c2ccccc2)cc1 (chirality)
C#CCN(C)C(=O)[C@H](COCc1cc(C)cc(C)c1)c1ccc(-c2ccccc2)cc1 (3D coordinates assigned)
C#CCN(C)C(=O)[C@H](COCc1cc(C)cc(C)c1)c1ccc(-c2ccccc2)cc1 (optimized conformer: 66.13981334673537 kcal/mol)

>  <smiles>  (25) 
C#CCN(C)C(=O)C(COCc1cc(C)cc(C)c1)c1ccc(-c2ccccc2)cc1

>  <score_type>  (25) 
oracle

>  <origin>  (25) 
adg

>  <m_score__min__energy>  (25) 
-9.5500000000000007

>  <m_primary>  (25) 
energy

$$$$
25:0
     RDKit          3D

 26 28  0  0  0  0  0  0  0  0999 V2000
   -6.8600   17.4280  -33.8090 Cl  0  0  0  0  0  0  0  0  0  0  0  0
   -6.6970   19.0000  -33.0390 C   0  0  0  0  0  0  0  0  0  0  0  0
   -5.5680   19.7750  -33.3150 C   0  0  0  0  0  0  0  0  0  0  0  0
   -5.3970   21.0320  -32.7130 C   0  0  0  0  0  0  0  0  0  0  0  0
   -6.4000   21.5380  -31.8540 C   0  0  0  0  0  0  0  0  0  0  0  0
   -7.5260   20.7430  -31.5680 C   0  0  0  0  0  0  0  0  0  0  0  0
   -7.6760   19.4830  -32.1580 C   0  0  0  0  0  0  0  0  0  0  0  0
   -9.1020   18.5280  -31.7700 Cl  0  0  0  0  0  0  0  0  0  0  0  0
   -6.1860   22.8770  -31.2390 C   0  0  0  0  0  0  0  0  0  0  0  0
   -7.2270   23.6260  -30.6550 C   0  0  0  0  0  0  0  0  0  0  0  0
   -6.9620   24.8760  -30.0880 C   0  0  0  0  0  0  0  0  0  0  0  0
   -5.6660   25.3940  -30.0990 C   0  0  0  0  0  0  0  0  0  0  0  0
   -4.6290   24.6710  -30.6900 C   0  0  0  0  0  0  0  0  0  0  0  0
   -4.8870   23.4240  -31.2780 C   0  0  0  0  0  0  0  0  0  0  0  0
   -3.7700   22.6180  -31.8940 C   0  0  0  0  0  0  0  0  0  0  0  0
   -4.2520   21.8490  -33.0530 N   0  0  0  0  0  0  0  0  0  0  0  0
   -4.8050   19.3966  -34.0112 H   0  0  0  0  0  0  0  0  0  0  0  0
   -8.2946   21.1155  -30.8748 H   0  0  0  0  0  0  0  0  0  0  0  0
   -8.2515   23.2257  -30.6453 H   0  0  0  0  0  0  0  0  0  0  0  0
   -7.7787   25.4541  -29.6310 H   0  0  0  0  0  0  0  0  0  0  0  0
   -5.4618   26.3732  -29.6413 H   0  0  0  0  0  0  0  0  0  0  0  0
   -3.6077   25.0797  -30.6947 H   0  0  0  0  0  0  0  0  0  0  0  0
   -2.9721   23.3006  -32.2218 H   0  0  0  0  0  0  0  0  0  0  0  0
   -3.3887   21.9137  -31.1399 H   0  0  0  0  0  0  0  0  0  0  0  0
   -4.5260   22.5060  -33.8200 H   0  0  0  0  0  0  0  0  0  0  0  0
   -3.4650   21.2470  -33.3940 H   0  0  0  0  0  0  0  0  0  0  0  0
  1  2  1  0
  2  3  2  0
  3  4  1  0
  4  5  2  0
  5  6  1  0
  6  7  2  0
  7  8  1  0
  5  9  1  0
  9 10  2  0
 10 11  1  0
 11 12  2  0
 12 13  1  0
 13 14  2  0
 14 15  1  0
 15 16  1  0
  7  2  1  0
 14  9  1  0
 16  4  1  0
  3 17  1  0
  6 18  1  0
 10 19  1  0
 11 20  1  0
 12 21  1  0
 13 22  1  0
 15 23  1  0
 15 24  1  0
 16 25  1  0
 16 26  1  0
M  CHG  1  16   1
M  END
>  <UniqueID>  (26) 
26

>  <SMILES>  (26) 
Clc1cc2c(cc1Cl)-c1ccccc1C[NH2+]2

>  <Energy>  (26) 
38.09237242315105

>  <Genealogy>  (26) 
Clc1cc2c(cc1Cl)-c1ccccc1C[NH2+]2 (protonated)
Clc1cc2c(cc1Cl)-c1ccccc1C[NH2+]2 (3D coordinates assigned)
Clc1cc2c(cc1Cl)-c1ccccc1C[NH2+]2 (nonaromatic ring conformer: 38.09237242315105 kcal/mol)

>  <smiles>  (26) 
Clc1cc2c(cc1Cl)-c1ccccc1CN2

>  <score_type>  (26) 
oracle

>  <origin>  (26) 
adg

>  <m_score__min__energy>  (26) 
-7.2400000000000002

>  <m_primary>  (26) 
energy

$$$$
26:0
     RDKit          3D

 49 51  0  0  0  0  0  0  0  0999 V2000
   -9.4770   21.6560  -30.8200 C   0  0  0  0  0  0  0  0  0  0  0  0
   -8.9720   22.5390  -31.9560 C   0  0  0  0  0  0  0  0  0  0  0  0
   -7.5010   22.5800  -31.9640 N   0  0  0  0  0  0  0  0  0  0  0  0
   -6.7980   23.8040  -31.5370 C   0  0  0  0  0  0  0  0  0  0  0  0
   -6.4690   23.7620  -30.0410 C   0  0  0  0  0  0  0  0  0  0  0  0
   -5.0720   23.3870  -29.8250 N   0  0  0  0  0  0  0  0  0  0  0  0
   -3.9840   24.2890  -30.0840 C   0  0  0  0  0  0  0  0  0  0  0  0
   -4.1740   25.2860  -30.8330 O   0  0  0  0  0  0  0  0  0  0  0  0
   -2.6480   24.0680  -29.4710 C   0  0  0  0  0  0  0  0  0  0  0  0
   -2.1920   24.9270  -28.4540 C   0  0  0  0  0  0  0  0  0  0  0  0
   -0.9220   24.7620  -27.9040 C   0  0  0  0  0  0  0  0  0  0  0  0
   -0.1070   23.7320  -28.3640 C   0  0  0  0  0  0  0  0  0  0  0  0
   -0.5520   22.9000  -29.3380 N   0  0  0  0  0  0  0  0  0  0  0  0
   -1.7860   23.0270  -29.8960 C   0  0  0  0  0  0  0  0  0  0  0  0
   -2.2220   21.8840  -31.2150 S   0  0  0  0  0  0  0  0  0  0  0  0
   -3.1450   20.7720  -30.1090 C   0  0  0  0  0  0  0  0  0  0  0  0
   -6.7550   21.4310  -32.4210 C   0  0  0  0  0  0  0  0  0  0  0  0
   -5.3860   21.5440  -32.7170 C   0  0  0  0  0  0  0  0  0  0  0  0
   -4.6490   20.4260  -33.1120 C   0  0  0  0  0  0  0  0  0  0  0  0
   -5.2710   19.1770  -33.2330 C   0  0  0  0  0  0  0  0  0  0  0  0
   -4.5370   18.0450  -33.6220 C   0  0  0  0  0  0  0  0  0  0  0  0
   -5.1690   16.8060  -33.7420 C   0  0  0  0  0  0  0  0  0  0  0  0
   -6.5370   16.6860  -33.4810 C   0  0  0  0  0  0  0  0  0  0  0  0
   -7.2800   17.8050  -33.0940 C   0  0  0  0  0  0  0  0  0  0  0  0
   -6.6540   19.0550  -32.9620 C   0  0  0  0  0  0  0  0  0  0  0  0
   -7.3840   20.1810  -32.5500 C   0  0  0  0  0  0  0  0  0  0  0  0
   -9.2149   22.1144  -29.8550 H   0  0  0  0  0  0  0  0  0  0  0  0
  -10.5699   21.5542  -30.8927 H   0  0  0  0  0  0  0  0  0  0  0  0
   -9.0106   20.6624  -30.8927 H   0  0  0  0  0  0  0  0  0  0  0  0
   -9.3278   22.1337  -32.9147 H   0  0  0  0  0  0  0  0  0  0  0  0
   -9.3549   23.5597  -31.8095 H   0  0  0  0  0  0  0  0  0  0  0  0
   -5.8622   23.8976  -32.1075 H   0  0  0  0  0  0  0  0  0  0  0  0
   -7.4551   24.6660  -31.7246 H   0  0  0  0  0  0  0  0  0  0  0  0
   -6.6468   24.7561  -29.6050 H   0  0  0  0  0  0  0  0  0  0  0  0
   -7.1132   23.0112  -29.5601 H   0  0  0  0  0  0  0  0  0  0  0  0
   -4.8790   22.4310  -29.4560 H   0  0  0  0  0  0  0  0  0  0  0  0
   -2.8432   25.7354  -28.0901 H   0  0  0  0  0  0  0  0  0  0  0  0
   -0.5671   25.4397  -27.1136 H   0  0  0  0  0  0  0  0  0  0  0  0
    0.8975   23.5929  -27.9378 H   0  0  0  0  0  0  0  0  0  0  0  0
   -2.9284   21.0329  -29.0626 H   0  0  0  0  0  0  0  0  0  0  0  0
   -4.2233   20.8791  -30.2979 H   0  0  0  0  0  0  0  0  0  0  0  0
   -2.8412   19.7318  -30.2979 H   0  0  0  0  0  0  0  0  0  0  0  0
   -4.8903   22.5227  -32.6367 H   0  0  0  0  0  0  0  0  0  0  0  0
   -3.5753   20.5265  -33.3291 H   0  0  0  0  0  0  0  0  0  0  0  0
   -3.4611   18.1347  -33.8328 H   0  0  0  0  0  0  0  0  0  0  0  0
   -4.5886   15.9214  -34.0429 H   0  0  0  0  0  0  0  0  0  0  0  0
   -7.0304   15.7079  -33.5805 H   0  0  0  0  0  0  0  0  0  0  0  0
   -8.3569   17.7062  -32.8925 H   0  0  0  0  0  0  0  0  0  0  0  0
   -8.4567   20.0841  -32.3264 H   0  0  0  0  0  0  0  0  0  0  0  0
  1  2  1  0
  2  3  1  0
  3  4  1  0
  4  5  1  0
  5  6  1  0
  6  7  1  0
  7  8  2  0
  7  9  1  0
  9 10  2  0
 10 11  1  0
 11 12  2  0
 12 13  1  0
 13 14  2  0
 14 15  1  0
 15 16  1  0
  3 17  1  0
 17 18  2  0
 18 19  1  0
 19 20  2  0
 20 21  1  0
 21 22  2  0
 22 23  1  0
 23 24  2  0
 24 25  1  0
 25 26  2  0
 14  9  1  0
 26 17  1  0
 25 20  1  0
  1 27  1  0
  1 28  1  0
  1 29  1  0
  2 30  1  0
  2 31  1  0
  4 32  1  0
  4 33  1  0
  5 34  1  0
  5 35  1  0
  6 36  1  0
 10 37  1  0
 11 38  1  0
 12 39  1  0
 16 40  1  0
 16 41  1  0
 16 42  1  0
 18 43  1  0
 19 44  1  0
 21 45  1  0
 22 46  1  0
 23 47  1  0
 24 48  1  0
 26 49  1  0
M  END
>  <UniqueID>  (27) 
27

>  <SMILES>  (27) 
CCN(CCNC(=O)c1cccnc1SC)c1ccc2ccccc2c1

>  <Energy>  (27) 
47.53125876888421

>  <Genealogy>  (27) 
CCN(CCNC(=O)c1cccnc1SC)c1ccc2ccccc2c1 (3D coordinates assigned)
CCN(CCNC(=O)c1cccnc1SC)c1ccc2ccccc2c1 (optimized conformer: 47.53125876888421 kcal/mol)

>  <smiles>  (27) 
CCN(CCNC(=O)c1cccnc1SC)c1ccc2ccccc2c1

>  <score_type>  (27) 
oracle

>  <origin>  (27) 
adg

>  <m_score__min__energy>  (27) 
-8.5299999999999994

>  <m_primary>  (27) 
energy

$$$$
27:0
     RDKit          3D

 65 68  0  0  0  0  0  0  0  0999 V2000
   -5.4110   25.8160  -30.5610 C   0  0  0  0  0  0  0  0  0  0  0  0
   -4.5330   24.6330  -30.6120 N   0  0  0  0  0  0  0  0  0  0  0  0
   -5.2930   23.3830  -30.8380 C   0  0  0  0  0  0  0  0  0  0  0  0
   -5.6130   23.1810  -32.3250 C   0  0  0  0  0  0  0  0  0  0  0  0
   -5.4750   21.7470  -32.6770 N   0  0  0  0  0  0  0  0  0  0  0  0
   -6.8000   21.0760  -32.7260 C   0  0  0  0  0  0  0  0  0  0  0  0
   -6.6340   19.6100  -33.0280 C   0  0  0  0  0  0  0  0  0  0  0  0
   -7.0570   18.6380  -32.1060 C   0  0  0  0  0  0  0  0  0  0  0  0
   -6.8630   17.2800  -32.3760 C   0  0  0  0  0  0  0  0  0  0  0  0
   -6.2590   16.8820  -33.5710 C   0  0  0  0  0  0  0  0  0  0  0  0
   -5.8530   17.8420  -34.5020 C   0  0  0  0  0  0  0  0  0  0  0  0
   -6.0440   19.2010  -34.2360 C   0  0  0  0  0  0  0  0  0  0  0  0
   -4.5440   21.0610  -31.7500 C   0  0  0  0  0  0  0  0  0  0  0  0
   -3.3180   20.5680  -32.4750 C   0  0  0  0  0  0  0  0  0  0  0  0
   -3.0250   19.1960  -32.5320 C   0  0  0  0  0  0  0  0  0  0  0  0
   -1.9110   18.7440  -33.2470 C   0  0  0  0  0  0  0  0  0  0  0  0
   -1.0840   19.6560  -33.9070 C   0  0  0  0  0  0  0  0  0  0  0  0
   -1.3620   21.0260  -33.8490 C   0  0  0  0  0  0  0  0  0  0  0  0
   -0.5310   21.9250  -34.5150 O   0  0  0  0  0  0  0  0  0  0  0  0
   -2.4730   21.4820  -33.1270 C   0  0  0  0  0  0  0  0  0  0  0  0
   -3.6600   24.5450  -29.4170 C   0  0  0  0  0  0  0  0  0  0  0  0
   -2.9090   23.2330  -29.3070 C   0  0  0  0  0  0  0  0  0  0  0  0
   -3.3420   22.2370  -28.4180 C   0  0  0  0  0  0  0  0  0  0  0  0
   -2.6320   21.0400  -28.2930 C   0  0  0  0  0  0  0  0  0  0  0  0
   -1.4770   20.8110  -29.0600 C   0  0  0  0  0  0  0  0  0  0  0  0
   -0.7140   19.5440  -28.9190 C   0  0  0  0  0  0  0  0  0  0  0  0
   -0.0970   18.9510  -30.0370 C   0  0  0  0  0  0  0  0  0  0  0  0
    0.6240   17.7600  -29.9000 C   0  0  0  0  0  0  0  0  0  0  0  0
    0.7370   17.1500  -28.6500 C   0  0  0  0  0  0  0  0  0  0  0  0
    0.1280   17.7280  -27.5330 C   0  0  0  0  0  0  0  0  0  0  0  0
   -0.5930   18.9180  -27.6640 C   0  0  0  0  0  0  0  0  0  0  0  0
   -1.0530   21.8050  -29.9630 C   0  0  0  0  0  0  0  0  0  0  0  0
   -1.7640   23.0020  -30.0860 C   0  0  0  0  0  0  0  0  0  0  0  0
   -5.6080   26.0814  -29.5118 H   0  0  0  0  0  0  0  0  0  0  0  0
   -4.9189   26.6599  -31.0666 H   0  0  0  0  0  0  0  0  0  0  0  0
   -6.3613   25.5894  -31.0666 H   0  0  0  0  0  0  0  0  0  0  0  0
   -4.6945   22.5314  -30.4822 H   0  0  0  0  0  0  0  0  0  0  0  0
   -6.2424   23.4516  -30.2867 H   0  0  0  0  0  0  0  0  0  0  0  0
   -6.6439   23.5087  -32.5247 H   0  0  0  0  0  0  0  0  0  0  0  0
   -4.9123   23.7735  -32.9316 H   0  0  0  0  0  0  0  0  0  0  0  0
   -7.3012   21.1915  -31.7536 H   0  0  0  0  0  0  0  0  0  0  0  0
   -7.4053   21.5380  -33.5198 H   0  0  0  0  0  0  0  0  0  0  0  0
   -7.5425   18.9465  -31.1684 H   0  0  0  0  0  0  0  0  0  0  0  0
   -7.1866   16.5235  -31.6460 H   0  0  0  0  0  0  0  0  0  0  0  0
   -6.1030   15.8132  -33.7792 H   0  0  0  0  0  0  0  0  0  0  0  0
   -5.3825   17.5278  -35.4454 H   0  0  0  0  0  0  0  0  0  0  0  0
   -5.7312   19.9532  -34.9752 H   0  0  0  0  0  0  0  0  0  0  0  0
   -4.2366   21.7658  -30.9634 H   0  0  0  0  0  0  0  0  0  0  0  0
   -5.0625   20.1947  -31.3133 H   0  0  0  0  0  0  0  0  0  0  0  0
   -3.6733   18.4746  -32.0130 H   0  0  0  0  0  0  0  0  0  0  0  0
   -1.6857   17.6682  -33.2896 H   0  0  0  0  0  0  0  0  0  0  0  0
   -0.2124   19.2963  -34.4735 H   0  0  0  0  0  0  0  0  0  0  0  0
   -0.8640   22.4680  -35.3030 H   0  0  0  0  0  0  0  0  0  0  0  0
   -2.6845   22.5600  -33.0704 H   0  0  0  0  0  0  0  0  0  0  0  0
   -2.9257   25.3628  -29.4622 H   0  0  0  0  0  0  0  0  0  0  0  0
   -4.3136   24.6164  -28.5351 H   0  0  0  0  0  0  0  0  0  0  0  0
   -4.2474   22.4000  -27.8149 H   0  0  0  0  0  0  0  0  0  0  0  0
   -2.9801   20.2705  -27.5883 H   0  0  0  0  0  0  0  0  0  0  0  0
   -0.1824   19.4274  -31.0248 H   0  0  0  0  0  0  0  0  0  0  0  0
    1.1026   17.3036  -30.7790 H   0  0  0  0  0  0  0  0  0  0  0  0
    1.3054   16.2142  -28.5440 H   0  0  0  0  0  0  0  0  0  0  0  0
    0.2163   17.2453  -26.5485 H   0  0  0  0  0  0  0  0  0  0  0  0
   -1.0691   19.3684  -26.7806 H   0  0  0  0  0  0  0  0  0  0  0  0
   -0.1552   21.6380  -30.5763 H   0  0  0  0  0  0  0  0  0  0  0  0
   -1.4241   23.7684  -30.7981 H   0  0  0  0  0  0  0  0  0  0  0  0
  1  2  1  0
  2  3  1  0
  3  4  1  0
  4  5  1  0
  5  6  1  0
  6  7  1  0
  7  8  2  0
  8  9  1  0
  9 10  2  0
 10 11  1  0
 11 12  2  0
  5 13  1  0
 13 14  1  0
 14 15  2  0
 15 16  1  0
 16 17  2  0
 17 18  1  0
 18 19  1  0
 18 20  2  0
  2 21  1  0
 21 22  1  0
 22 23  2  0
 23 24  1  0
 24 25  2  0
 25 26  1  0
 26 27  2  0
 27 28  1  0
 28 29  2  0
 29 30  1  0
 30 31  2  0
 25 32  1  0
 32 33  2  0
 12  7  1  0
 20 14  1  0
 33 22  1  0
 31 26  1  0
  1 34  1  0
  1 35  1  0
  1 36  1  0
  3 37  1  0
  3 38  1  0
  4 39  1  0
  4 40  1  0
  6 41  1  0
  6 42  1  0
  8 43  1  0
  9 44  1  0
 10 45  1  0
 11 46  1  0
 12 47  1  0
 13 48  1  0
 13 49  1  0
 15 50  1  0
 16 51  1  0
 17 52  1  0
 19 53  1  0
 20 54  1  0
 21 55  1  0
 21 56  1  0
 23 57  1  0
 24 58  1  0
 27 59  1  0
 28 60  1  0
 29 61  1  0
 30 62  1  0
 31 63  1  0
 32 64  1  0
 33 65  1  0
M  END
>  <UniqueID>  (28) 
28

>  <SMILES>  (28) 
CN(CCN(Cc1ccccc1)Cc1cccc(O)c1)Cc1ccc(-c2ccccc2)cc1

>  <Energy>  (28) 
76.14711466809796

>  <Genealogy>  (28) 
CN(CCN(Cc1ccccc1)Cc1cccc(O)c1)Cc1ccc(-c2ccccc2)cc1 (3D coordinates assigned)
CN(CCN(Cc1ccccc1)Cc1cccc(O)c1)Cc1ccc(-c2ccccc2)cc1 (optimized conformer: 76.14711466809796 kcal/mol)

>  <smiles>  (28) 
CN(CCN(Cc1ccccc1)Cc1cccc(O)c1)Cc1ccc(-c2ccccc2)cc1

>  <score_type>  (28) 
oracle

>  <origin>  (28) 
adg

>  <m_score__min__energy>  (28) 
-10.4

>  <m_primary>  (28) 
energy

$$$$
28:0
     RDKit          3D

 44 47  0  0  0  0  0  0  0  0999 V2000
   -0.3520   25.3660  -26.6280 C   0  0  0  0  0  0  0  0  0  0  0  0
    0.1920   24.7190  -27.7750 O   0  0  0  0  0  0  0  0  0  0  0  0
   -0.5180   23.8310  -28.5970 C   0  0  0  0  0  0  0  0  0  0  0  0
   -0.0500   22.5180  -28.7120 C   0  0  0  0  0  0  0  0  0  0  0  0
   -0.7160   21.5920  -29.5170 C   0  0  0  0  0  0  0  0  0  0  0  0
   -1.8640   21.9690  -30.2190 C   0  0  0  0  0  0  0  0  0  0  0  0
   -2.5010   21.0640  -31.0050 N   0  0  0  0  0  0  0  0  0  0  0  0
   -3.6210   21.3740  -31.7140 C   0  0  0  0  0  0  0  0  0  0  0  0
   -4.2570   20.3320  -32.5580 C   0  0  0  0  0  0  0  0  0  0  0  0
   -5.6580   20.2540  -32.6960 C   0  0  0  0  0  0  0  0  0  0  0  0
   -6.2370   19.2700  -33.5030 C   0  0  0  0  0  0  0  0  0  0  0  0
   -5.4290   18.3580  -34.1860 C   0  0  0  0  0  0  0  0  0  0  0  0
   -4.0390   18.4320  -34.0680 C   0  0  0  0  0  0  0  0  0  0  0  0
   -3.4550   19.4150  -33.2630 C   0  0  0  0  0  0  0  0  0  0  0  0
   -4.1540   22.6700  -31.6210 C   0  0  0  0  0  0  0  0  0  0  0  0
   -3.5150   23.6450  -30.8300 C   0  0  0  0  0  0  0  0  0  0  0  0
   -4.0050   24.9610  -30.7330 O   0  0  0  0  0  0  0  0  0  0  0  0
   -5.3160   25.3270  -30.3000 C   0  0  0  0  0  0  0  0  0  0  0  0
   -6.3130   24.2700  -30.6790 C   0  0  0  0  0  0  0  0  0  0  0  0
   -6.8220   23.3810  -29.7200 C   0  0  0  0  0  0  0  0  0  0  0  0
   -7.7440   22.4080  -30.1100 C   0  0  0  0  0  0  0  0  0  0  0  0
   -8.1570   22.3350  -31.4410 C   0  0  0  0  0  0  0  0  0  0  0  0
   -7.6400   23.2440  -32.3670 C   0  0  0  0  0  0  0  0  0  0  0  0
   -6.7390   24.1830  -31.9700 N   0  0  0  0  0  0  0  0  0  0  0  0
   -2.3560   23.2890  -30.1160 C   0  0  0  0  0  0  0  0  0  0  0  0
   -1.6760   24.2160  -29.3020 C   0  0  0  0  0  0  0  0  0  0  0  0
    0.0453   24.8935  -25.7176 H   0  0  0  0  0  0  0  0  0  0  0  0
   -0.0732   26.4300  -26.6405 H   0  0  0  0  0  0  0  0  0  0  0  0
   -1.4481   25.2740  -26.6405 H   0  0  0  0  0  0  0  0  0  0  0  0
    0.8523   22.2118  -28.1624 H   0  0  0  0  0  0  0  0  0  0  0  0
   -0.3361   20.5629  -29.5989 H   0  0  0  0  0  0  0  0  0  0  0  0
   -6.3000   20.9723  -32.1650 H   0  0  0  0  0  0  0  0  0  0  0  0
   -7.3313   19.2139  -33.6003 H   0  0  0  0  0  0  0  0  0  0  0  0
   -5.8871   17.5818  -34.8166 H   0  0  0  0  0  0  0  0  0  0  0  0
   -3.4030   17.7160  -34.6091 H   0  0  0  0  0  0  0  0  0  0  0  0
   -2.3596   19.4721  -33.1800 H   0  0  0  0  0  0  0  0  0  0  0  0
   -5.0738   22.9247  -32.1678 H   0  0  0  0  0  0  0  0  0  0  0  0
   -5.3150   25.4473  -29.2066 H   0  0  0  0  0  0  0  0  0  0  0  0
   -5.5990   26.2719  -30.7870 H   0  0  0  0  0  0  0  0  0  0  0  0
   -6.4977   23.4501  -28.6712 H   0  0  0  0  0  0  0  0  0  0  0  0
   -8.1443   21.7000  -29.3694 H   0  0  0  0  0  0  0  0  0  0  0  0
   -8.8816   21.5702  -31.7574 H   0  0  0  0  0  0  0  0  0  0  0  0
   -7.9616   23.2006  -33.4181 H   0  0  0  0  0  0  0  0  0  0  0  0
   -2.0511   25.2465  -29.2161 H   0  0  0  0  0  0  0  0  0  0  0  0
  1  2  1  0
  2  3  1  0
  3  4  2  0
  4  5  1  0
  5  6  2  0
  6  7  1  0
  7  8  2  0
  8  9  1  0
  9 10  2  0
 10 11  1  0
 11 12  2  0
 12 13  1  0
 13 14  2  0
  8 15  1  0
 15 16  2  0
 16 17  1  0
 17 18  1  0
 18 19  1  0
 19 20  2  0
 20 21  1  0
 21 22  2  0
 22 23  1  0
 23 24  2  0
 16 25  1  0
 25 26  2  0
 26  3  1  0
 25  6  1  0
 14  9  1  0
 24 19  1  0
  1 27  1  0
  1 28  1  0
  1 29  1  0
  4 30  1  0
  5 31  1  0
 10 32  1  0
 11 33  1  0
 12 34  1  0
 13 35  1  0
 14 36  1  0
 15 37  1  0
 18 38  1  0
 18 39  1  0
 20 40  1  0
 21 41  1  0
 22 42  1  0
 23 43  1  0
 26 44  1  0
M  END
>  <UniqueID>  (29) 
29

>  <SMILES>  (29) 
COc1ccc2nc(-c3ccccc3)cc(OCc3ccccn3)c2c1

>  <Energy>  (29) 
55.55615816214861

>  <Genealogy>  (29) 
COc1ccc2nc(-c3ccccc3)cc(OCc3ccccn3)c2c1 (3D coordinates assigned)
COc1ccc2nc(-c3ccccc3)cc(OCc3ccccn3)c2c1 (optimized conformer: 55.55615816214861 kcal/mol)

>  <smiles>  (29) 
COc1ccc2nc(-c3ccccc3)cc(OCc3ccccn3)c2c1

>  <score_type>  (29) 
oracle

>  <origin>  (29) 
adg

>  <m_score__min__energy>  (29) 
-8.5999999999999996

>  <m_primary>  (29) 
energy

$$$$
29:0
     RDKit          3D

 51 54  0  0  0  0  0  0  0  0999 V2000
   -5.3810   25.7550  -30.5120 C   0  0  0  0  0  0  0  0  0  0  0  0
   -4.0300   25.3040  -30.4730 O   0  0  0  0  0  0  0  0  0  0  0  0
   -3.5770   24.2090  -29.7230 C   0  0  0  0  0  0  0  0  0  0  0  0
   -3.9140   24.1550  -28.3710 C   0  0  0  0  0  0  0  0  0  0  0  0
   -3.5090   23.0830  -27.5820 C   0  0  0  0  0  0  0  0  0  0  0  0
   -2.7380   22.0480  -28.1300 C   0  0  0  0  0  0  0  0  0  0  0  0
   -2.3820   20.9560  -27.3300 C   0  0  0  0  0  0  0  0  0  0  0  0
   -1.6610   19.8980  -27.8680 C   0  0  0  0  0  0  0  0  0  0  0  0
   -1.2460   19.9360  -29.1960 C   0  0  0  0  0  0  0  0  0  0  0  0
   -1.5150   21.0500  -30.0160 C   0  0  0  0  0  0  0  0  0  0  0  0
   -0.9050   21.0530  -31.4190 C   0  0  0  0  0  0  0  0  0  0  0  0
   -1.8460   20.6520  -32.4950 N   0  0  0  0  0  0  0  0  0  0  0  0
   -2.5370   19.3560  -32.2860 C   0  0  0  0  0  0  0  0  0  0  0  0
   -4.0120   19.5450  -31.9040 C   0  0  0  0  0  0  0  0  0  0  0  0
   -4.8090   20.2780  -33.0250 C   0  0  0  0  0  0  0  0  0  0  0  0
   -5.3310   19.2720  -33.9800 C   0  0  0  0  0  0  0  0  0  0  0  0
   -5.7400   18.4860  -34.7250 N   0  0  0  0  0  0  0  0  0  0  0  0
   -6.0090   20.9940  -32.3720 C   0  0  0  0  0  0  0  0  0  0  0  0
   -7.2940   20.4070  -32.2700 C   0  0  0  0  0  0  0  0  0  0  0  0
   -8.3650   21.1200  -31.7250 C   0  0  0  0  0  0  0  0  0  0  0  0
   -8.1890   22.4330  -31.2900 C   0  0  0  0  0  0  0  0  0  0  0  0
   -6.9410   23.0430  -31.4070 C   0  0  0  0  0  0  0  0  0  0  0  0
   -5.8640   22.3370  -31.9510 C   0  0  0  0  0  0  0  0  0  0  0  0
   -3.8650   21.2220  -33.8430 C   0  0  0  0  0  0  0  0  0  0  0  0
   -2.7130   21.7530  -32.9770 C   0  0  0  0  0  0  0  0  0  0  0  0
   -2.3380   22.0970  -29.4960 C   0  0  0  0  0  0  0  0  0  0  0  0
   -2.8030   23.1750  -30.2850 C   0  0  0  0  0  0  0  0  0  0  0  0
   -5.7556   25.8800  -29.4853 H   0  0  0  0  0  0  0  0  0  0  0  0
   -5.4308   26.7185  -31.0404 H   0  0  0  0  0  0  0  0  0  0  0  0
   -5.9996   25.0146  -31.0404 H   0  0  0  0  0  0  0  0  0  0  0  0
   -4.5056   24.9676  -27.9241 H   0  0  0  0  0  0  0  0  0  0  0  0
   -3.7957   23.0472  -26.5206 H   0  0  0  0  0  0  0  0  0  0  0  0
   -2.6748   20.9357  -26.2699 H   0  0  0  0  0  0  0  0  0  0  0  0
   -1.4170   19.0268  -27.2423 H   0  0  0  0  0  0  0  0  0  0  0  0
   -0.6970   19.0792  -29.6138 H   0  0  0  0  0  0  0  0  0  0  0  0
   -0.5461   22.0698  -31.6365 H   0  0  0  0  0  0  0  0  0  0  0  0
   -0.0969   20.3067  -31.4128 H   0  0  0  0  0  0  0  0  0  0  0  0
   -2.4833   18.7710  -33.2160 H   0  0  0  0  0  0  0  0  0  0  0  0
   -2.0360   18.8338  -31.4576 H   0  0  0  0  0  0  0  0  0  0  0  0
   -4.4650   18.5574  -31.7322 H   0  0  0  0  0  0  0  0  0  0  0  0
   -4.0540   20.1620  -30.9943 H   0  0  0  0  0  0  0  0  0  0  0  0
   -7.4507   19.3774  -32.6241 H   0  0  0  0  0  0  0  0  0  0  0  0
   -9.3524   20.6429  -31.6387 H   0  0  0  0  0  0  0  0  0  0  0  0
   -9.0340   22.9869  -30.8550 H   0  0  0  0  0  0  0  0  0  0  0  0
   -6.8035   24.0813  -31.0708 H   0  0  0  0  0  0  0  0  0  0  0  0
   -4.8879   22.8337  -32.0534 H   0  0  0  0  0  0  0  0  0  0  0  0
   -3.4455   20.6608  -34.6910 H   0  0  0  0  0  0  0  0  0  0  0  0
   -4.4559   22.0802  -34.1957 H   0  0  0  0  0  0  0  0  0  0  0  0
   -2.1073   22.4496  -33.5753 H   0  0  0  0  0  0  0  0  0  0  0  0
   -3.1440   22.2621  -32.1023 H   0  0  0  0  0  0  0  0  0  0  0  0
   -2.5558   23.2064  -31.3564 H   0  0  0  0  0  0  0  0  0  0  0  0
  1  2  1  0
  2  3  1  0
  3  4  2  0
  4  5  1  0
  5  6  2  0
  6  7  1  0
  7  8  2  0
  8  9  1  0
  9 10  2  0
 10 11  1  0
 11 12  1  0
 12 13  1  0
 13 14  1  0
 14 15  1  0
 15 16  1  0
 16 17  3  0
 15 18  1  0
 18 19  2  0
 19 20  1  0
 20 21  2  0
 21 22  1  0
 22 23  2  0
 15 24  1  0
 24 25  1  0
 10 26  1  0
 26 27  2  0
 27  3  1  0
 26  6  1  0
 25 12  1  0
 23 18  1  0
  1 28  1  0
  1 29  1  0
  1 30  1  0
  4 31  1  0
  5 32  1  0
  7 33  1  0
  8 34  1  0
  9 35  1  0
 11 36  1  0
 11 37  1  0
 13 38  1  0
 13 39  1  0
 14 40  1  0
 14 41  1  0
 19 42  1  0
 20 43  1  0
 21 44  1  0
 22 45  1  0
 23 46  1  0
 24 47  1  0
 24 48  1  0
 25 49  1  0
 25 50  1  0
 27 51  1  0
M  END
>  <UniqueID>  (30) 
30

>  <SMILES>  (30) 
COc1ccc2cccc(CN3CCC(C#N)(c4ccccc4)CC3)c2c1

>  <Energy>  (30) 
80.1823177711855

>  <Genealogy>  (30) 
COc1ccc2cccc(CN3CCC(C#N)(c4ccccc4)CC3)c2c1 (3D coordinates assigned)
COc1ccc2cccc(CN3CCC(C#N)(c4ccccc4)CC3)c2c1 (nonaromatic ring conformer: 80.1823177711855 kcal/mol)

>  <smiles>  (30) 
COc1ccc2cccc(CN3CCC(C#N)(c4ccccc4)CC3)c2c1

>  <score_type>  (30) 
oracle

>  <origin>  (30) 
adg

>  <m_score__min__energy>  (30) 
-9.3499999999999996

>  <m_primary>  (30) 
energy

$$$$
30:0
     RDKit          3D

 56 58  0  0  0  0  0  0  0  0999 V2000
   -6.6985   21.0293  -30.5322 H   0  0  0  0  0  0  0  0  0  0  0  0
   -7.3820   21.8510  -30.7920 C   0  0  0  0  0  0  0  0  0  0  0  0
   -6.8740   23.0220  -31.2010 C   0  0  0  0  0  0  0  0  0  0  0  0
   -7.3868   23.9497  -30.9072 H   0  0  0  0  0  0  0  0  0  0  0  0
   -5.6290   23.1220  -32.0470 C   0  0  0  0  0  0  0  0  0  0  0  0
   -5.6521   24.0714  -32.6020 H   0  0  0  0  0  0  0  0  0  0  0  0
   -5.6134   22.2612  -32.7316 H   0  0  0  0  0  0  0  0  0  0  0  0
   -4.3940   23.0770  -31.2260 N   0  0  0  0  0  0  0  0  0  0  0  0
   -4.0210   24.1710  -30.4610 C   0  0  0  0  0  0  0  0  0  0  0  0
   -4.8930   25.4120  -30.3760 C   0  0  0  0  0  0  0  0  0  0  0  0
   -5.0701   25.6641  -29.3200 H   0  0  0  0  0  0  0  0  0  0  0  0
   -4.3853   26.2516  -30.8732 H   0  0  0  0  0  0  0  0  0  0  0  0
   -5.8550   25.2189  -30.8732 H   0  0  0  0  0  0  0  0  0  0  0  0
   -2.8080   24.1560  -29.7330 C   0  0  0  0  0  0  0  0  0  0  0  0
   -2.4550   25.2810  -28.9660 O   0  0  0  0  0  0  0  0  0  0  0  0
   -1.1350   25.5930  -28.5380 C   0  0  0  0  0  0  0  0  0  0  0  0
   -0.4233   24.8906  -28.9964 H   0  0  0  0  0  0  0  0  0  0  0  0
   -0.8788   26.6183  -28.8430 H   0  0  0  0  0  0  0  0  0  0  0  0
   -1.0640   25.4770  -27.0450 C   0  0  0  0  0  0  0  0  0  0  0  0
   -0.5670   24.3030  -26.4530 C   0  0  0  0  0  0  0  0  0  0  0  0
   -0.2569   23.4591  -27.0868 H   0  0  0  0  0  0  0  0  0  0  0  0
   -0.4650   24.2030  -25.0620 C   0  0  0  0  0  0  0  0  0  0  0  0
   -0.0758   23.2818  -24.6038 H   0  0  0  0  0  0  0  0  0  0  0  0
   -0.8570   25.2720  -24.2550 C   0  0  0  0  0  0  0  0  0  0  0  0
   -0.7810   25.1911  -23.1606 H   0  0  0  0  0  0  0  0  0  0  0  0
   -1.3460   26.4450  -24.8360 C   0  0  0  0  0  0  0  0  0  0  0  0
   -1.6544   27.2865  -24.1981 H   0  0  0  0  0  0  0  0  0  0  0  0
   -1.4440   26.5510  -26.2270 C   0  0  0  0  0  0  0  0  0  0  0  0
   -1.8203   27.4796  -26.6810 H   0  0  0  0  0  0  0  0  0  0  0  0
   -1.9990   23.0130  -29.7800 C   0  0  0  0  0  0  0  0  0  0  0  0
   -0.9330   22.9420  -29.1140 O   0  0  0  0  0  0  0  0  0  0  0  0
   -2.3870   21.9260  -30.5450 C   0  0  0  0  0  0  0  0  0  0  0  0
   -1.7525   21.0280  -30.5770 H   0  0  0  0  0  0  0  0  0  0  0  0
   -3.5790   21.9590  -31.2780 C   0  0  0  0  0  0  0  0  0  0  0  0
   -3.9440   20.7000  -32.0460 C   0  0  0  0  0  0  0  0  0  0  0  0
   -5.0317   20.6793  -32.2085 H   0  0  0  0  0  0  0  0  0  0  0  0
   -3.6278   19.8249  -31.4593 H   0  0  0  0  0  0  0  0  0  0  0  0
   -3.2340   20.6650  -33.4000 C   0  0  0  0  0  0  0  0  0  0  0  0
   -2.1466   20.6114  -33.2426 H   0  0  0  0  0  0  0  0  0  0  0  0
   -3.5665   19.7822  -33.9657 H   0  0  0  0  0  0  0  0  0  0  0  0
   -3.4781   21.5763  -33.9657 H   0  0  0  0  0  0  0  0  0  0  0  0
   -8.8620   21.6370  -30.6810 C   0  0  0  0  0  0  0  0  0  0  0  0
   -9.0636   20.9244  -29.8677 H   0  0  0  0  0  0  0  0  0  0  0  0
   -9.3439   22.6032  -30.4706 H   0  0  0  0  0  0  0  0  0  0  0  0
   -9.5390   20.9710  -32.2440 S   0  0  0  0  0  0  0  0  0  0  0  0
   -8.2010   19.8000  -32.5010 C   0  0  0  0  0  0  0  0  0  0  0  0
   -8.1270   18.6340  -31.7230 C   0  0  0  0  0  0  0  0  0  0  0  0
   -8.8628   18.4552  -30.9251 H   0  0  0  0  0  0  0  0  0  0  0  0
   -7.1140   17.7000  -31.9660 C   0  0  0  0  0  0  0  0  0  0  0  0
   -7.0764   16.7683  -31.3824 H   0  0  0  0  0  0  0  0  0  0  0  0
   -6.1500   17.9460  -32.9470 C   0  0  0  0  0  0  0  0  0  0  0  0
   -5.3534   17.2105  -33.1329 H   0  0  0  0  0  0  0  0  0  0  0  0
   -6.1990   19.1280  -33.6920 C   0  0  0  0  0  0  0  0  0  0  0  0
   -5.4273   19.3323  -34.4488 H   0  0  0  0  0  0  0  0  0  0  0  0
   -7.2270   20.0510  -33.4770 C   0  0  0  0  0  0  0  0  0  0  0  0
   -7.2713   20.9740  -34.0738 H   0  0  0  0  0  0  0  0  0  0  0  0
  1  2  1  0
  2  3  2  0
  3  4  1  0
  3  5  1  0
  5  6  1  0
  5  7  1  0
  5  8  1  0
  8  9  1  0
  9 10  1  0
 10 11  1  0
 10 12  1  0
 10 13  1  0
  9 14  2  0
 14 15  1  0
 15 16  1  0
 16 17  1  0
 16 18  1  0
 16 19  1  0
 19 20  2  0
 20 21  1  0
 20 22  1  0
 22 23  1  0
 22 24  2  0
 24 25  1  0
 24 26  1  0
 26 27  1  0
 26 28  2  0
 28 29  1  0
 14 30  1  0
 30 31  2  0
 30 32  1  0
 32 33  1  0
 32 34  2  0
 34 35  1  0
 35 36  1  0
 35 37  1  0
 35 38  1  0
 38 39  1  0
 38 40  1  0
 38 41  1  0
  2 42  1  0
 42 43  1  0
 42 44  1  0
 42 45  1  0
 45 46  1  0
 46 47  2  0
 47 48  1  0
 47 49  1  0
 49 50  1  0
 49 51  2  0
 51 52  1  0
 51 53  1  0
 53 54  1  0
 53 55  2  0
 55 56  1  0
 34  8  1  0
 55 46  1  0
 28 19  1  0
M  END
>  <UniqueID>  (31) 
31

>  <SMILES>  (31) 
CCc1cc(=O)c(OCc2ccccc2)c(C)n1C/C=C/CSc1ccccc1

>  <Energy>  (31) 
59.387994954699465

>  <Genealogy>  (31) 
CCc1cc(=O)c(OCc2ccccc2)c(C)n1C/C=C/CSc1ccccc1 (cis-trans isomerization)
CCc1cc(=O)c(OCc2ccccc2)c(C)n1C/C=C/CSc1ccccc1 (3D coordinates assigned)
CCc1cc(=O)c(OCc2ccccc2)c(C)n1C/C=C/CSc1ccccc1 (optimized conformer: 59.387994954699465 kcal/mol)

>  <smiles>  (31) 
CCc1cc(=O)c(OCc2ccccc2)c(C)n1CC=CCSc1ccccc1

>  <score_type>  (31) 
oracle

>  <origin>  (31) 
adg

>  <m_score__min__energy>  (31) 
-9.3100000000000005

>  <m_primary>  (31) 
energy

$$$$
31:0
     RDKit          3D

 56 58  0  0  0  0  0  0  0  0999 V2000
   -4.0300   24.2420  -27.2200 C   0  0  0  0  0  0  0  0  0  0  0  0
   -3.1240   23.0990  -27.6700 C   0  0  0  0  0  0  0  0  0  0  0  0
   -3.7870   22.2730  -28.7780 C   0  0  0  0  0  0  0  0  0  0  0  0
   -4.9440   23.0450  -29.4330 C   0  0  0  0  0  0  0  0  0  0  0  0
   -4.5650   23.5310  -30.7800 N   0  0  0  0  0  0  0  0  0  0  0  0
   -4.6400   25.0080  -30.8440 C   0  0  0  0  0  0  0  0  0  0  0  0
   -5.8510   25.5280  -30.0700 C   0  0  0  0  0  0  0  0  0  0  0  0
   -3.2290   23.0290  -31.1950 C   0  0  0  0  0  0  0  0  0  0  0  0
   -3.4080   21.8980  -32.2130 C   0  0  0  0  0  0  0  0  0  0  0  0
   -4.5540   22.1590  -33.0980 N   0  0  0  0  0  0  0  0  0  0  0  0
   -5.5960   21.1640  -32.8980 C   0  0  0  0  0  0  0  0  0  0  0  0
   -5.3610   19.7950  -33.1930 C   0  0  0  0  0  0  0  0  0  0  0  0
   -4.1800   19.3660  -33.8480 C   0  0  0  0  0  0  0  0  0  0  0  0
   -3.9780   18.0230  -34.1560 C   0  0  0  0  0  0  0  0  0  0  0  0
   -4.9450   17.0810  -33.8390 C   0  0  0  0  0  0  0  0  0  0  0  0
   -6.1160   17.4720  -33.1970 C   0  0  0  0  0  0  0  0  0  0  0  0
   -6.3410   18.8270  -32.8370 C   0  0  0  0  0  0  0  0  0  0  0  0
   -7.4870   19.2100  -32.1720 N   0  0  0  0  0  0  0  0  0  0  0  0
   -8.3390   18.1920  -31.5160 C   0  0  0  0  0  0  0  0  0  0  0  0
   -7.8380   20.5430  -32.1130 C   0  0  0  0  0  0  0  0  0  0  0  0
   -9.1440   20.9460  -31.7350 C   0  0  0  0  0  0  0  0  0  0  0  0
   -9.4870   22.2930  -31.6450 C   0  0  0  0  0  0  0  0  0  0  0  0
   -8.5490   23.2710  -31.9440 C   0  0  0  0  0  0  0  0  0  0  0  0
   -7.2670   22.9090  -32.3490 C   0  0  0  0  0  0  0  0  0  0  0  0
   -6.8880   21.5470  -32.4510 C   0  0  0  0  0  0  0  0  0  0  0  0
   -4.0577   24.2770  -26.1209 H   0  0  0  0  0  0  0  0  0  0  0  0
   -3.6388   25.1943  -27.6074 H   0  0  0  0  0  0  0  0  0  0  0  0
   -5.0465   24.0785  -27.6074 H   0  0  0  0  0  0  0  0  0  0  0  0
   -2.1799   23.5169  -28.0495 H   0  0  0  0  0  0  0  0  0  0  0  0
   -2.9369   22.4414  -26.8083 H   0  0  0  0  0  0  0  0  0  0  0  0
   -3.0358   22.0340  -29.5452 H   0  0  0  0  0  0  0  0  0  0  0  0
   -4.1921   21.3533  -28.3307 H   0  0  0  0  0  0  0  0  0  0  0  0
   -5.8149   22.3791  -29.5231 H   0  0  0  0  0  0  0  0  0  0  0  0
   -5.1856   23.9138  -28.8030 H   0  0  0  0  0  0  0  0  0  0  0  0
   -3.7243   25.4341  -30.4082 H   0  0  0  0  0  0  0  0  0  0  0  0
   -4.7411   25.3089  -31.8972 H   0  0  0  0  0  0  0  0  0  0  0  0
   -5.6589   25.4455  -28.9900 H   0  0  0  0  0  0  0  0  0  0  0  0
   -6.0284   26.5816  -30.3315 H   0  0  0  0  0  0  0  0  0  0  0  0
   -6.7372   24.9311  -30.3315 H   0  0  0  0  0  0  0  0  0  0  0  0
   -2.6544   23.8479  -31.6525 H   0  0  0  0  0  0  0  0  0  0  0  0
   -2.6873   22.6512  -30.3153 H   0  0  0  0  0  0  0  0  0  0  0  0
   -2.4956   21.8147  -32.8217 H   0  0  0  0  0  0  0  0  0  0  0  0
   -3.5946   20.9619  -31.6663 H   0  0  0  0  0  0  0  0  0  0  0  0
   -4.9230   23.1240  -32.9400 H   0  0  0  0  0  0  0  0  0  0  0  0
   -4.2530   22.1740  -34.0980 H   0  0  0  0  0  0  0  0  0  0  0  0
   -3.4110   20.1050  -34.1173 H   0  0  0  0  0  0  0  0  0  0  0  0
   -3.0482   17.7083  -34.6524 H   0  0  0  0  0  0  0  0  0  0  0  0
   -4.7862   16.0232  -34.0954 H   0  0  0  0  0  0  0  0  0  0  0  0
   -6.8816   16.7173  -32.9640 H   0  0  0  0  0  0  0  0  0  0  0  0
   -8.2551   18.2923  -30.4238 H   0  0  0  0  0  0  0  0  0  0  0  0
   -9.3862   18.3402  -31.8184 H   0  0  0  0  0  0  0  0  0  0  0  0
   -8.0087   17.1873  -31.8184 H   0  0  0  0  0  0  0  0  0  0  0  0
   -9.9006   20.1803  -31.5086 H   0  0  0  0  0  0  0  0  0  0  0  0
  -10.5026   22.5819  -31.3366 H   0  0  0  0  0  0  0  0  0  0  0  0
   -8.8188   24.3342  -31.8609 H   0  0  0  0  0  0  0  0  0  0  0  0
   -6.5358   23.6934  -32.5940 H   0  0  0  0  0  0  0  0  0  0  0  0
  1  2  1  0
  2  3  1  0
  3  4  1  0
  4  5  1  0
  5  6  1  0
  6  7  1  0
  5  8  1  0
  8  9  1  0
  9 10  1  0
 10 11  1  0
 11 12  2  0
 12 13  1  0
 13 14  2  0
 14 15  1  0
 15 16  2  0
 16 17  1  0
 17 18  2  0
 18 19  1  0
 18 20  1  0
 20 21  2  0
 21 22  1  0
 22 23  2  0
 23 24  1  0
 24 25  2  0
 25 11  1  0
 17 12  1  0
 25 20  1  0
  1 26  1  0
  1 27  1  0
  1 28  1  0
  2 29  1  0
  2 30  1  0
  3 31  1  0
  3 32  1  0
  4 33  1  0
  4 34  1  0
  6 35  1  0
  6 36  1  0
  7 37  1  0
  7 38  1  0
  7 39  1  0
  8 40  1  0
  8 41  1  0
  9 42  1  0
  9 43  1  0
 10 44  1  0
 10 45  1  0
 13 46  1  0
 14 47  1  0
 15 48  1  0
 16 49  1  0
 19 50  1  0
 19 51  1  0
 19 52  1  0
 21 53  1  0
 22 54  1  0
 23 55  1  0
 24 56  1  0
M  CHG  2  10   1  18   1
M  END
>  <UniqueID>  (32) 
32

>  <SMILES>  (32) 
CCCCN(CC)CC[NH2+]c1c2ccccc2[n+](C)c2ccccc12

>  <Energy>  (32) 
77.40112108263013

>  <Genealogy>  (32) 
CCCCN(CC)CC[NH2+]c1c2ccccc2[n+](C)c2ccccc12 (protonated)
CCCCN(CC)CC[NH2+]c1c2ccccc2[n+](C)c2ccccc12 (3D coordinates assigned)
CCCCN(CC)CC[NH2+]c1c2ccccc2[n+](C)c2ccccc12 (optimized conformer: 77.40112108263013 kcal/mol)

>  <smiles>  (32) 
CCCCN(CC)CCNc1c2ccccc2[n+](C)c2ccccc12

>  <score_type>  (32) 
oracle

>  <origin>  (32) 
adg

>  <m_score__min__energy>  (32) 
-7.6699999999999999

>  <m_primary>  (32) 
energy

$$$$
32:0
     RDKit          3D

 90 93  0  0  0  0  0  0  0  0999 V2000
   -0.4390   19.4490  -28.5590 C   0  0  0  0  0  0  0  0  0  0  0  0
   -0.1820   20.6020  -27.5890 C   0  0  0  0  0  0  0  0  0  0  0  0
   -1.4590   21.1120  -27.0350 N   0  0  0  0  0  0  0  0  0  0  0  0
   -2.6250   20.3310  -27.5180 C   0  0  0  0  0  0  0  0  0  0  0  0
   -3.0310   19.1730  -26.5970 C   0  0  0  0  0  0  0  0  0  0  0  0
   -1.5910   22.5760  -27.2330 C   0  0  0  0  0  0  0  0  0  0  0  0
   -3.0140   22.9720  -27.6570 C   0  0  0  0  0  0  0  0  0  0  0  0
   -2.9940   24.1670  -28.6170 C   0  0  0  0  0  0  0  0  0  0  0  0
   -3.7740   23.8600  -29.8370 N   0  0  0  0  0  0  0  0  0  0  0  0
   -5.0250   24.6510  -29.8810 C   0  0  0  0  0  0  0  0  0  0  0  0
   -6.1220   23.8340  -30.5030 C   0  0  0  0  0  0  0  0  0  0  0  0
   -6.3090   23.8250  -31.8950 C   0  0  0  0  0  0  0  0  0  0  0  0
   -7.3220   23.0490  -32.4650 C   0  0  0  0  0  0  0  0  0  0  0  0
   -8.1510   22.2720  -31.6520 C   0  0  0  0  0  0  0  0  0  0  0  0
   -9.1350   21.5220  -32.2070 F   0  0  0  0  0  0  0  0  0  0  0  0
   -7.9640   22.2670  -30.2680 C   0  0  0  0  0  0  0  0  0  0  0  0
   -6.9580   23.0500  -29.6920 C   0  0  0  0  0  0  0  0  0  0  0  0
   -4.0530   22.4110  -29.9450 C   0  0  0  0  0  0  0  0  0  0  0  0
   -3.2140   21.8040  -31.0390 C   0  0  0  0  0  0  0  0  0  0  0  0
   -3.7550   21.5800  -32.3160 C   0  0  0  0  0  0  0  0  0  0  0  0
   -2.9500   21.0880  -33.3450 C   0  0  0  0  0  0  0  0  0  0  0  0
   -1.5940   20.8190  -33.1120 C   0  0  0  0  0  0  0  0  0  0  0  0
   -0.7350   20.3450  -34.2130 C   0  0  0  0  0  0  0  0  0  0  0  0
   -0.0950   21.2950  -35.0230 C   0  0  0  0  0  0  0  0  0  0  0  0
    0.7240   20.8880  -36.0790 C   0  0  0  0  0  0  0  0  0  0  0  0
    0.9020   19.5290  -36.3420 C   0  0  0  0  0  0  0  0  0  0  0  0
    0.2660   18.5720  -35.5480 C   0  0  0  0  0  0  0  0  0  0  0  0
   -0.5470   18.9630  -34.4690 C   0  0  0  0  0  0  0  0  0  0  0  0
   -1.2790   17.8950  -33.6900 C   0  0  0  0  0  0  0  0  0  0  0  0
   -1.7710   16.8620  -34.6120 N   0  0  0  0  0  0  0  0  0  0  0  0
   -3.1720   17.0950  -34.9930 C   0  0  0  0  0  0  0  0  0  0  0  0
   -3.9710   17.6550  -33.8050 C   0  0  0  0  0  0  0  0  0  0  0  0
   -5.5020   17.6920  -34.0570 C   0  0  0  0  0  0  0  0  0  0  0  0
   -6.0120   19.1540  -34.2350 C   0  0  0  0  0  0  0  0  0  0  0  0
   -6.7830   19.7090  -33.0200 C   0  0  0  0  0  0  0  0  0  0  0  0
   -6.1980   19.2020  -31.6980 C   0  0  0  0  0  0  0  0  0  0  0  0
   -6.2340   17.6620  -31.5980 C   0  0  0  0  0  0  0  0  0  0  0  0
   -6.3150   16.9590  -32.9650 C   0  0  0  0  0  0  0  0  0  0  0  0
   -1.0570   21.0150  -31.8320 C   0  0  0  0  0  0  0  0  0  0  0  0
   -1.8640   21.5070  -30.8020 C   0  0  0  0  0  0  0  0  0  0  0  0
   -0.6438   18.5300  -27.9902 H   0  0  0  0  0  0  0  0  0  0  0  0
   -1.3057   19.6890  -29.1924 H   0  0  0  0  0  0  0  0  0  0  0  0
    0.4476   19.2982  -29.1924 H   0  0  0  0  0  0  0  0  0  0  0  0
    0.4533   20.2461  -26.7645 H   0  0  0  0  0  0  0  0  0  0  0  0
    0.3199   21.4168  -28.1315 H   0  0  0  0  0  0  0  0  0  0  0  0
   -3.4824   21.0137  -27.6124 H   0  0  0  0  0  0  0  0  0  0  0  0
   -2.3296   19.8828  -28.4781 H   0  0  0  0  0  0  0  0  0  0  0  0
   -2.9221   19.4837  -25.5474 H   0  0  0  0  0  0  0  0  0  0  0  0
   -4.0786   18.8997  -26.7916 H   0  0  0  0  0  0  0  0  0  0  0  0
   -2.3835   18.3054  -26.7916 H   0  0  0  0  0  0  0  0  0  0  0  0
   -1.3465   23.0858  -26.2894 H   0  0  0  0  0  0  0  0  0  0  0  0
   -0.9010   22.8745  -28.0360 H   0  0  0  0  0  0  0  0  0  0  0  0
   -3.4900   22.1166  -28.1587 H   0  0  0  0  0  0  0  0  0  0  0  0
   -3.5789   23.2574  -26.7573 H   0  0  0  0  0  0  0  0  0  0  0  0
   -3.4336   25.0421  -28.1161 H   0  0  0  0  0  0  0  0  0  0  0  0
   -1.9530   24.3790  -28.9022 H   0  0  0  0  0  0  0  0  0  0  0  0
   -5.3149   24.9331  -28.8581 H   0  0  0  0  0  0  0  0  0  0  0  0
   -4.8609   25.5570  -30.4829 H   0  0  0  0  0  0  0  0  0  0  0  0
   -5.6554   24.4313  -32.5393 H   0  0  0  0  0  0  0  0  0  0  0  0
   -7.4668   23.0500  -33.5554 H   0  0  0  0  0  0  0  0  0  0  0  0
   -8.6093   21.6459  -29.6294 H   0  0  0  0  0  0  0  0  0  0  0  0
   -6.8215   23.0515  -28.6005 H   0  0  0  0  0  0  0  0  0  0  0  0
   -3.8141   21.9220  -28.9891 H   0  0  0  0  0  0  0  0  0  0  0  0
   -5.1169   22.2653  -30.1834 H   0  0  0  0  0  0  0  0  0  0  0  0
   -4.8173   21.7932  -32.5059 H   0  0  0  0  0  0  0  0  0  0  0  0
   -3.3809   20.9109  -34.3415 H   0  0  0  0  0  0  0  0  0  0  0  0
   -0.2390   22.3675  -34.8253 H   0  0  0  0  0  0  0  0  0  0  0  0
    1.2291   21.6394  -36.7038 H   0  0  0  0  0  0  0  0  0  0  0  0
    1.5445   19.2109  -37.1763 H   0  0  0  0  0  0  0  0  0  0  0  0
    0.4022   17.5030  -35.7685 H   0  0  0  0  0  0  0  0  0  0  0  0
   -0.5931   17.4385  -32.9612 H   0  0  0  0  0  0  0  0  0  0  0  0
   -2.1305   18.3478  -33.1609 H   0  0  0  0  0  0  0  0  0  0  0  0
   -1.1940   16.9220  -35.4850 H   0  0  0  0  0  0  0  0  0  0  0  0
   -3.2056   17.8161  -35.8230 H   0  0  0  0  0  0  0  0  0  0  0  0
   -3.6191   16.1383  -35.3010 H   0  0  0  0  0  0  0  0  0  0  0  0
   -3.7772   17.0236  -32.9254 H   0  0  0  0  0  0  0  0  0  0  0  0
   -3.6412   18.6931  -33.6512 H   0  0  0  0  0  0  0  0  0  0  0  0
   -5.6681   17.1441  -34.9962 H   0  0  0  0  0  0  0  0  0  0  0  0
   -5.1424   19.8026  -34.4169 H   0  0  0  0  0  0  0  0  0  0  0  0
   -6.7189   19.1409  -35.0777 H   0  0  0  0  0  0  0  0  0  0  0  0
   -6.7296   20.8076  -33.0354 H   0  0  0  0  0  0  0  0  0  0  0  0
   -7.8253   19.3640  -33.0885 H   0  0  0  0  0  0  0  0  0  0  0  0
   -5.1534   19.5379  -31.6208 H   0  0  0  0  0  0  0  0  0  0  0  0
   -6.8103   19.6083  -30.8795 H   0  0  0  0  0  0  0  0  0  0  0  0
   -5.3201   17.3249  -31.0869 H   0  0  0  0  0  0  0  0  0  0  0  0
   -7.1454   17.3953  -31.0428 H   0  0  0  0  0  0  0  0  0  0  0  0
   -5.9228   15.9367  -32.8597 H   0  0  0  0  0  0  0  0  0  0  0  0
   -7.3695   16.9574  -33.2780 H   0  0  0  0  0  0  0  0  0  0  0  0
    0.0003   20.7815  -31.6379 H   0  0  0  0  0  0  0  0  0  0  0  0
   -1.4377   21.6621  -29.7999 H   0  0  0  0  0  0  0  0  0  0  0  0
  1  2  1  0
  2  3  1  0
  3  4  1  0
  4  5  1  0
  3  6  1  0
  6  7  1  0
  7  8  1  0
  8  9  1  0
  9 10  1  0
 10 11  1  0
 11 12  2  0
 12 13  1  0
 13 14  2  0
 14 15  1  0
 14 16  1  0
 16 17  2  0
  9 18  1  0
 18 19  1  0
 19 20  2  0
 20 21  1  0
 21 22  2  0
 22 23  1  0
 23 24  2  0
 24 25  1  0
 25 26  2  0
 26 27  1  0
 27 28  2  0
 28 29  1  0
 29 30  1  0
 30 31  1  0
 31 32  1  0
 32 33  1  0
 33 34  1  0
 34 35  1  0
 35 36  1  0
 36 37  1  0
 37 38  1  0
 22 39  1  0
 39 40  2  0
 17 11  1  0
 40 19  1  0
 28 23  1  0
 38 33  1  0
  1 41  1  0
  1 42  1  0
  1 43  1  0
  2 44  1  0
  2 45  1  0
  4 46  1  0
  4 47  1  0
  5 48  1  0
  5 49  1  0
  5 50  1  0
  6 51  1  0
  6 52  1  0
  7 53  1  0
  7 54  1  0
  8 55  1  0
  8 56  1  0
 10 57  1  0
 10 58  1  0
 12 59  1  0
 13 60  1  0
 16 61  1  0
 17 62  1  0
 18 63  1  0
 18 64  1  0
 20 65  1  0
 21 66  1  0
 24 67  1  0
 25 68  1  0
 26 69  1  0
 27 70  1  0
 29 71  1  0
 29 72  1  0
 30 73  1  0
 31 74  1  0
 31 75  1  0
 32 76  1  0
 32 77  1  0
 33 78  1  0
 34 79  1  0
 34 80  1  0
 35 81  1  0
 35 82  1  0
 36 83  1  0
 36 84  1  0
 37 85  1  0
 37 86  1  0
 38 87  1  0
 38 88  1  0
 39 89  1  0
 40 90  1  0
M  END
>  <UniqueID>  (33) 
33

>  <SMILES>  (33) 
CCN(CC)CCCN(Cc1ccc(F)cc1)Cc1ccc(-c2ccccc2CNCCC2CCCCC2)cc1

>  <Energy>  (33) 
96.97066531470023

>  <Genealogy>  (33) 
CCN(CC)CCCN(Cc1ccc(F)cc1)Cc1ccc(-c2ccccc2CNCCC2CCCCC2)cc1 (3D coordinates assigned)
CCN(CC)CCCN(Cc1ccc(F)cc1)Cc1ccc(-c2ccccc2CNCCC2CCCCC2)cc1 (nonaromatic ring conformer: 96.97066531470023 kcal/mol)

>  <smiles>  (33) 
CCN(CC)CCCN(Cc1ccc(F)cc1)Cc1ccc(-c2ccccc2CNCCC2CCCCC2)cc1

>  <score_type>  (33) 
oracle

>  <origin>  (33) 
adg

>  <m_score__min__energy>  (33) 
-10.06

>  <m_primary>  (33) 
energy

$$$$
33:0
     RDKit          3D

 52 55  0  0  0  0  0  0  0  0999 V2000
   -0.8600   27.0500  -23.8900 C   0  0  0  0  0  0  0  0  0  0  0  0
   -1.4490   27.3410  -25.1520 O   0  0  0  0  0  0  0  0  0  0  0  0
   -1.6530   26.3960  -26.1680 C   0  0  0  0  0  0  0  0  0  0  0  0
   -2.5160   25.2940  -26.0130 C   0  0  0  0  0  0  0  0  0  0  0  0
   -2.6840   24.3780  -27.0560 C   0  0  0  0  0  0  0  0  0  0  0  0
   -1.9930   24.5460  -28.2650 C   0  0  0  0  0  0  0  0  0  0  0  0
   -2.1930   23.5780  -29.4040 C   0  0  0  0  0  0  0  0  0  0  0  0
   -3.3190   23.9990  -30.2640 N   0  0  0  0  0  0  0  0  0  0  0  0
   -4.4340   24.5610  -29.4610 C   0  0  0  0  0  0  0  0  0  0  0  0
   -5.7710   24.4490  -30.2000 C   0  0  0  0  0  0  0  0  0  0  0  0
   -6.1430   23.0330  -30.4210 N   0  0  0  0  0  0  0  0  0  0  0  0
   -7.1400   22.9210  -31.5050 C   0  0  0  0  0  0  0  0  0  0  0  0
   -7.2740   21.4880  -31.9490 C   0  0  0  0  0  0  0  0  0  0  0  0
   -8.2890   20.6790  -31.4110 C   0  0  0  0  0  0  0  0  0  0  0  0
   -8.4110   19.3420  -31.8050 C   0  0  0  0  0  0  0  0  0  0  0  0
   -7.5190   18.8070  -32.7370 C   0  0  0  0  0  0  0  0  0  0  0  0
   -6.5220   19.6150  -33.3000 C   0  0  0  0  0  0  0  0  0  0  0  0
   -6.3880   20.9470  -32.8980 C   0  0  0  0  0  0  0  0  0  0  0  0
   -5.6690   19.0690  -34.2650 O   0  0  0  0  0  0  0  0  0  0  0  0
   -5.9600   17.8120  -34.8810 C   0  0  0  0  0  0  0  0  0  0  0  0
   -6.5460   16.8380  -33.8510 C   0  0  0  0  0  0  0  0  0  0  0  0
   -7.6050   17.4650  -33.1220 O   0  0  0  0  0  0  0  0  0  0  0  0
   -4.9710   22.1450  -30.6400 C   0  0  0  0  0  0  0  0  0  0  0  0
   -3.7460   22.9070  -31.1760 C   0  0  0  0  0  0  0  0  0  0  0  0
   -1.1390   25.6470  -28.4220 C   0  0  0  0  0  0  0  0  0  0  0  0
   -0.9700   26.5620  -27.3780 C   0  0  0  0  0  0  0  0  0  0  0  0
   -1.5329   27.3825  -23.0859 H   0  0  0  0  0  0  0  0  0  0  0  0
   -0.6937   25.9660  -23.8042 H   0  0  0  0  0  0  0  0  0  0  0  0
    0.1020   27.5765  -23.8042 H   0  0  0  0  0  0  0  0  0  0  0  0
   -3.0602   25.1532  -25.0675 H   0  0  0  0  0  0  0  0  0  0  0  0
   -3.3617   23.5211  -26.9277 H   0  0  0  0  0  0  0  0  0  0  0  0
   -1.2744   23.5379  -30.0078 H   0  0  0  0  0  0  0  0  0  0  0  0
   -2.4223   22.5867  -28.9859 H   0  0  0  0  0  0  0  0  0  0  0  0
   -4.5034   24.0102  -28.5113 H   0  0  0  0  0  0  0  0  0  0  0  0
   -4.2272   25.6264  -29.2820 H   0  0  0  0  0  0  0  0  0  0  0  0
   -6.5542   24.9365  -29.6009 H   0  0  0  0  0  0  0  0  0  0  0  0
   -5.6702   24.9398  -31.1792 H   0  0  0  0  0  0  0  0  0  0  0  0
   -8.1137   23.2801  -31.1404 H   0  0  0  0  0  0  0  0  0  0  0  0
   -6.8084   23.5297  -32.3591 H   0  0  0  0  0  0  0  0  0  0  0  0
   -8.9915   21.0990  -30.6761 H   0  0  0  0  0  0  0  0  0  0  0  0
   -9.2081   18.7133  -31.3814 H   0  0  0  0  0  0  0  0  0  0  0  0
   -5.5895   21.5723  -33.3239 H   0  0  0  0  0  0  0  0  0  0  0  0
   -6.6881   17.9648  -35.6913 H   0  0  0  0  0  0  0  0  0  0  0  0
   -5.0294   17.3878  -35.2860 H   0  0  0  0  0  0  0  0  0  0  0  0
   -6.9386   15.9521  -34.3716 H   0  0  0  0  0  0  0  0  0  0  0  0
   -5.7539   16.5413  -33.1477 H   0  0  0  0  0  0  0  0  0  0  0  0
   -4.7022   21.6734  -29.6833 H   0  0  0  0  0  0  0  0  0  0  0  0
   -5.2552   21.3965  -31.3943 H   0  0  0  0  0  0  0  0  0  0  0  0
   -2.9127   22.1988  -31.2946 H   0  0  0  0  0  0  0  0  0  0  0  0
   -4.0263   23.3615  -32.1377 H   0  0  0  0  0  0  0  0  0  0  0  0
   -0.6000   25.7915  -29.3699 H   0  0  0  0  0  0  0  0  0  0  0  0
   -0.2941   27.4199  -27.5092 H   0  0  0  0  0  0  0  0  0  0  0  0
  1  2  1  0
  2  3  1  0
  3  4  2  0
  4  5  1  0
  5  6  2  0
  6  7  1  0
  7  8  1  0
  8  9  1  0
  9 10  1  0
 10 11  1  0
 11 12  1  0
 12 13  1  0
 13 14  2  0
 14 15  1  0
 15 16  2  0
 16 17  1  0
 17 18  2  0
 17 19  1  0
 19 20  1  0
 20 21  1  0
 21 22  1  0
 11 23  1  0
 23 24  1  0
  6 25  1  0
 25 26  2  0
 26  3  1  0
 24  8  1  0
 18 13  1  0
 22 16  1  0
  1 27  1  0
  1 28  1  0
  1 29  1  0
  4 30  1  0
  5 31  1  0
  7 32  1  0
  7 33  1  0
  9 34  1  0
  9 35  1  0
 10 36  1  0
 10 37  1  0
 12 38  1  0
 12 39  1  0
 14 40  1  0
 15 41  1  0
 18 42  1  0
 20 43  1  0
 20 44  1  0
 21 45  1  0
 21 46  1  0
 23 47  1  0
 23 48  1  0
 24 49  1  0
 24 50  1  0
 25 51  1  0
 26 52  1  0
M  END
>  <UniqueID>  (34) 
34

>  <SMILES>  (34) 
COc1ccc(CN2CCN(Cc3ccc4c(c3)OCCO4)CC2)cc1

>  <Energy>  (34) 
67.53247981831774

>  <Genealogy>  (34) 
COc1ccc(CN2CCN(Cc3ccc4c(c3)OCCO4)CC2)cc1 (3D coordinates assigned)
COc1ccc(CN2CCN(Cc3ccc4c(c3)OCCO4)CC2)cc1 (nonaromatic ring conformer: 67.53247981831774 kcal/mol)

>  <smiles>  (34) 
COc1ccc(CN2CCN(Cc3ccc4c(c3)OCCO4)CC2)cc1

>  <score_type>  (34) 
oracle

>  <origin>  (34) 
adg

>  <m_score__min__energy>  (34) 
-8.3399999999999999

>  <m_primary>  (34) 
energy

$$$$
34:0
     RDKit          3D

 35 37  0  0  0  0  0  0  0  0999 V2000
   -5.3600   25.9790  -30.4690 C   0  0  0  0  0  0  0  0  0  0  0  0
   -4.1080   25.3090  -30.5650 O   0  0  0  0  0  0  0  0  0  0  0  0
   -3.9340   23.9180  -30.4690 C   0  0  0  0  0  0  0  0  0  0  0  0
   -4.5130   23.0350  -31.4030 C   0  0  0  0  0  0  0  0  0  0  0  0
   -4.3030   21.6490  -31.3140 C   0  0  0  0  0  0  0  0  0  0  0  0
   -4.9160   20.7260  -32.3030 C   0  0  0  0  0  0  0  0  0  0  0  0
   -6.3010   20.7490  -32.5420 C   0  0  0  0  0  0  0  0  0  0  0  0
   -6.8570   19.8730  -33.4760 C   0  0  0  0  0  0  0  0  0  0  0  0
   -6.0630   19.0020  -34.1530 N   0  0  0  0  0  0  0  0  0  0  0  0
   -4.7210   18.9550  -33.9460 C   0  0  0  0  0  0  0  0  0  0  0  0
   -4.1240   19.8130  -33.0200 C   0  0  0  0  0  0  0  0  0  0  0  0
   -3.5000   21.1470  -30.2770 C   0  0  0  0  0  0  0  0  0  0  0  0
   -2.9280   22.0120  -29.3440 C   0  0  0  0  0  0  0  0  0  0  0  0
   -3.1430   23.3970  -29.4230 C   0  0  0  0  0  0  0  0  0  0  0  0
   -2.5330   24.2880  -28.4060 C   0  0  0  0  0  0  0  0  0  0  0  0
   -1.3330   24.9700  -28.6780 C   0  0  0  0  0  0  0  0  0  0  0  0
   -0.7680   25.8140  -27.7180 C   0  0  0  0  0  0  0  0  0  0  0  0
   -1.3950   25.9900  -26.4820 C   0  0  0  0  0  0  0  0  0  0  0  0
   -2.5910   25.3230  -26.2050 C   0  0  0  0  0  0  0  0  0  0  0  0
   -3.1600   24.4770  -27.1610 C   0  0  0  0  0  0  0  0  0  0  0  0
   -5.6209   26.1186  -29.4095 H   0  0  0  0  0  0  0  0  0  0  0  0
   -5.2896   26.9600  -30.9616 H   0  0  0  0  0  0  0  0  0  0  0  0
   -6.1372   25.3762  -30.9616 H   0  0  0  0  0  0  0  0  0  0  0  0
   -5.1385   23.4373  -32.2135 H   0  0  0  0  0  0  0  0  0  0  0  0
   -6.9441   21.4544  -31.9953 H   0  0  0  0  0  0  0  0  0  0  0  0
   -7.9406   19.8877  -33.6646 H   0  0  0  0  0  0  0  0  0  0  0  0
   -4.1035   18.2396  -34.5090 H   0  0  0  0  0  0  0  0  0  0  0  0
   -3.0375   19.7744  -32.8524 H   0  0  0  0  0  0  0  0  0  0  0  0
   -3.3209   20.0644  -30.1999 H   0  0  0  0  0  0  0  0  0  0  0  0
   -2.3013   21.6042  -28.5372 H   0  0  0  0  0  0  0  0  0  0  0  0
   -0.8370   24.8383  -29.6510 H   0  0  0  0  0  0  0  0  0  0  0  0
    0.1726   26.3410  -27.9361 H   0  0  0  0  0  0  0  0  0  0  0  0
   -0.9473   26.6533  -25.7273 H   0  0  0  0  0  0  0  0  0  0  0  0
   -3.0857   25.4640  -25.2327 H   0  0  0  0  0  0  0  0  0  0  0  0
   -4.1031   23.9562  -26.9387 H   0  0  0  0  0  0  0  0  0  0  0  0
  1  2  1  0
  2  3  1  0
  3  4  2  0
  4  5  1  0
  5  6  1  0
  6  7  2  0
  7  8  1  0
  8  9  2  0
  9 10  1  0
 10 11  2  0
  5 12  2  0
 12 13  1  0
 13 14  2  0
 14 15  1  0
 15 16  2  0
 16 17  1  0
 17 18  2  0
 18 19  1  0
 19 20  2  0
 14  3  1  0
 20 15  1  0
 11  6  1  0
  1 21  1  0
  1 22  1  0
  1 23  1  0
  4 24  1  0
  7 25  1  0
  8 26  1  0
 10 27  1  0
 11 28  1  0
 12 29  1  0
 13 30  1  0
 16 31  1  0
 17 32  1  0
 18 33  1  0
 19 34  1  0
 20 35  1  0
M  END
>  <UniqueID>  (35) 
35

>  <SMILES>  (35) 
COc1cc(-c2ccncc2)ccc1-c1ccccc1

>  <Energy>  (35) 
49.876559817982695

>  <Genealogy>  (35) 
COc1cc(-c2ccncc2)ccc1-c1ccccc1 (3D coordinates assigned)
COc1cc(-c2ccncc2)ccc1-c1ccccc1 (optimized conformer: 49.876559817982695 kcal/mol)

>  <smiles>  (35) 
COc1cc(-c2ccncc2)ccc1-c1ccccc1

>  <score_type>  (35) 
oracle

>  <origin>  (35) 
adg

>  <m_score__min__energy>  (35) 
-7.4299999999999997

>  <m_primary>  (35) 
energy

$$$$
35:0
     RDKit          3D

 47 51  0  0  0  0  0  0  0  0999 V2000
    0.6630   17.0470  -28.3970 C   0  0  0  0  0  0  0  0  0  0  0  0
    0.7960   18.3410  -28.0960 C   0  0  0  0  0  0  0  0  0  0  0  0
    0.9190   19.3980  -29.1670 C   0  0  0  0  0  0  0  0  0  0  0  0
   -0.3270   20.1910  -29.3220 N   0  0  2  0  0  0  0  0  0  0  0  0
   -0.1020   21.3790  -30.2200 C   0  0  0  0  0  0  0  0  0  0  0  0
   -1.2720   22.4260  -30.2480 C   0  0  0  0  0  0  0  0  0  0  0  0
   -1.7520   22.6850  -28.7990 C   0  0  1  0  0  0  0  0  0  0  0  0
   -0.6080   23.3020  -28.1230 C   0  0  0  0  0  0  0  0  0  0  0  0
    0.2950   22.6550  -27.3190 C   0  0  0  0  0  0  0  0  0  0  0  0
    1.2940   23.4480  -26.7170 C   0  0  0  0  0  0  0  0  0  0  0  0
    1.3160   24.8520  -26.9400 C   0  0  0  0  0  0  0  0  0  0  0  0
    0.2890   25.4800  -27.6870 C   0  0  0  0  0  0  0  0  0  0  0  0
    0.2360   26.8620  -27.8110 O   0  0  0  0  0  0  0  0  0  0  0  0
   -0.6990   24.6700  -28.2430 C   0  0  0  0  0  0  0  0  0  0  0  0
   -1.9700   25.0230  -28.7430 O   0  0  0  0  0  0  0  0  0  0  0  0
   -2.7170   23.8300  -28.4770 C   0  0  1  0  0  0  0  0  0  0  0  0
   -4.1490   23.4620  -28.8520 C   0  0  2  0  0  0  0  0  0  0  0  0
   -4.9930   24.5650  -28.6060 O   0  0  0  0  0  0  0  0  0  0  0  0
   -5.3160   25.3670  -30.0660 S   0  0  0  0  0  0  0  0  0  0  0  0
   -6.1810   24.5040  -30.9430 O   0  0  0  0  0  0  0  0  0  0  0  0
   -6.0050   26.6790  -29.8110 O   0  0  0  0  0  0  0  0  0  0  0  0
   -3.8630   25.6620  -30.8540 O   0  0  0  0  0  0  0  0  0  0  0  0
   -4.4870   22.2910  -27.8800 C   0  0  0  0  0  0  0  0  0  0  0  0
   -3.5130   21.4140  -27.4670 C   0  0  0  0  0  0  0  0  0  0  0  0
   -2.2430   21.3310  -28.2930 C   0  0  2  0  0  0  0  0  0  0  0  0
   -0.9740   20.4940  -27.9900 C   0  0  2  0  0  0  0  0  0  0  0  0
   -0.0030   21.2120  -26.9670 C   0  0  0  0  0  0  0  0  0  0  0  0
    0.5757   16.3014  -27.5929 H   0  0  0  0  0  0  0  0  0  0  0  0
    0.6407   16.7265  -29.4490 H   0  0  0  0  0  0  0  0  0  0  0  0
    0.8165   18.6452  -27.0391 H   0  0  0  0  0  0  0  0  0  0  0  0
    1.7406   20.0788  -28.8994 H   0  0  0  0  0  0  0  0  0  0  0  0
    1.1145   18.8883  -30.1220 H   0  0  0  0  0  0  0  0  0  0  0  0
   -1.0040   19.5700  -29.8290 H   0  0  0  0  0  0  0  0  0  0  0  0
    0.8084   21.8948  -29.8806 H   0  0  0  0  0  0  0  0  0  0  0  0
   -0.0250   20.9794  -31.2419 H   0  0  0  0  0  0  0  0  0  0  0  0
   -0.9143   23.3669  -30.6917 H   0  0  0  0  0  0  0  0  0  0  0  0
   -2.1051   22.0360  -30.8512 H   0  0  0  0  0  0  0  0  0  0  0  0
    2.0555   22.9806  -26.0754 H   0  0  0  0  0  0  0  0  0  0  0  0
    2.1380   25.4562  -26.5287 H   0  0  0  0  0  0  0  0  0  0  0  0
   -3.0542   24.0773  -27.4596 H   0  0  0  0  0  0  0  0  0  0  0  0
   -4.2742   23.1863  -29.9095 H   0  0  0  0  0  0  0  0  0  0  0  0
   -5.5188   22.1651  -27.5200 H   0  0  0  0  0  0  0  0  0  0  0  0
   -3.6493   20.7938  -26.5688 H   0  0  0  0  0  0  0  0  0  0  0  0
   -2.7577   20.6493  -28.9861 H   0  0  0  0  0  0  0  0  0  0  0  0
   -1.2378   19.5554  -27.4807 H   0  0  0  0  0  0  0  0  0  0  0  0
   -0.4684   21.1868  -25.9706 H   0  0  0  0  0  0  0  0  0  0  0  0
    0.9536   20.6699  -26.9979 H   0  0  0  0  0  0  0  0  0  0  0  0
  1  2  2  0
  2  3  1  0
  3  4  1  0
  4  5  1  0
  5  6  1  0
  7  6  1  6
  7  8  1  0
  8  9  2  0
  9 10  1  0
 10 11  2  0
 11 12  1  0
 12 13  1  0
 12 14  2  0
 14 15  1  0
 15 16  1  0
 16 17  1  0
 17 18  1  0
 18 19  1  0
 19 20  2  0
 19 21  2  0
 19 22  1  0
 17 23  1  0
 23 24  2  0
 24 25  1  0
 25 26  1  0
 26 27  1  0
 26  4  1  0
 16  7  1  0
 25  7  1  0
 14  8  1  0
 27  9  1  0
  1 28  1  0
  1 29  1  0
  2 30  1  0
  3 31  1  0
  3 32  1  0
  4 33  1  6
  5 34  1  0
  5 35  1  0
  6 36  1  0
  6 37  1  0
 10 38  1  0
 11 39  1  0
 16 40  1  1
 17 41  1  6
 23 42  1  0
 24 43  1  0
 25 44  1  6
 26 45  1  1
 27 46  1  0
 27 47  1  0
M  CHG  3   4   1  13  -1  22  -1
M  END
>  <UniqueID>  (36) 
36

>  <SMILES>  (36) 
C=CC[N@@H+]1CC[C@@]23c4c5ccc([O-])c4OC2C(OS(=O)(=O)[O-])C=CC3C1C5

>  <Energy>  (36) 
169.83550642329138

>  <Genealogy>  (36) 
C=CC[NH+]1CCC23c4c5ccc([O-])c4OC2C(OS(=O)(=O)[O-])C=CC3C1C5 (protonated)
C=CC[N@@H+]1CC[C@@]23c4c5ccc([O-])c4OC2C(OS(=O)(=O)[O-])C=CC3C1C5 (chirality)
C=CC[N@@H+]1CC[C@@]23c4c5ccc([O-])c4OC2C(OS(=O)(=O)[O-])C=CC3C1C5 (3D coordinates assigned)
C=CC[N@@H+]1CC[C@@]23c4c5ccc([O-])c4OC2C(OS(=O)(=O)[O-])C=CC3C1C5 (nonaromatic ring conformer: 169.83550642329138 kcal/mol)

>  <smiles>  (36) 
C=CCN1CCC23c4c5ccc(O)c4OC2C(OS(=O)(=O)O)C=CC3C1C5

>  <score_type>  (36) 
oracle

>  <origin>  (36) 
adg

>  <m_score__min__energy>  (36) 
-9.4100000000000001

>  <m_primary>  (36) 
energy

$$$$
36:0
     RDKit          3D

 52 54  0  0  0  0  0  0  0  0999 V2000
   -1.9470   26.1400  -25.3310 C   0  0  0  0  0  0  0  0  0  0  0  0
   -0.8280   25.4230  -24.5660 C   0  0  0  0  0  0  0  0  0  0  0  0
   -0.2100   24.3110  -25.3370 N   0  0  0  0  0  0  0  0  0  0  0  0
    0.4720   23.2810  -24.5060 C   0  0  0  0  0  0  0  0  0  0  0  0
   -0.4610   22.3320  -23.7470 C   0  0  0  0  0  0  0  0  0  0  0  0
    0.6160   24.7700  -26.4930 C   0  0  0  0  0  0  0  0  0  0  0  0
    0.3250   24.0860  -27.8470 C   0  0  0  0  0  0  0  0  0  0  0  0
   -0.7770   23.2100  -27.7150 O   0  0  0  0  0  0  0  0  0  0  0  0
   -1.6540   23.3370  -28.8170 C   0  0  0  0  0  0  0  0  0  0  0  0
   -2.4220   24.6590  -28.7330 C   0  0  0  0  0  0  0  0  0  0  0  0
   -3.1120   24.9230  -29.9550 O   0  0  0  0  0  0  0  0  0  0  0  0
   -4.2990   24.3010  -30.3750 C   0  0  0  0  0  0  0  0  0  0  0  0
   -5.4460   25.0920  -30.5030 C   0  0  0  0  0  0  0  0  0  0  0  0
   -6.6580   24.5330  -30.9160 C   0  0  0  0  0  0  0  0  0  0  0  0
   -6.7400   23.1600  -31.2090 C   0  0  0  0  0  0  0  0  0  0  0  0
   -7.9390   22.5560  -31.6280 C   0  0  0  0  0  0  0  0  0  0  0  0
   -8.9910   23.2440  -31.7550 O   0  0  0  0  0  0  0  0  0  0  0  0
   -7.9530   21.1780  -31.9040 C   0  0  0  0  0  0  0  0  0  0  0  0
   -9.1170   20.5100  -32.3280 C   0  0  0  0  0  0  0  0  0  0  0  0
   -9.0810   19.1370  -32.5910 C   0  0  0  0  0  0  0  0  0  0  0  0
   -7.8920   18.4210  -32.4350 C   0  0  0  0  0  0  0  0  0  0  0  0
   -6.7300   19.0730  -32.0130 C   0  0  0  0  0  0  0  0  0  0  0  0
   -6.7520   20.4470  -31.7470 C   0  0  0  0  0  0  0  0  0  0  0  0
   -5.6390   21.0550  -31.3480 O   0  0  0  0  0  0  0  0  0  0  0  0
   -5.5870   22.3550  -31.0780 C   0  0  0  0  0  0  0  0  0  0  0  0
   -4.3780   22.9240  -30.6630 C   0  0  0  0  0  0  0  0  0  0  0  0
   -2.6502   26.5906  -24.6151 H   0  0  0  0  0  0  0  0  0  0  0  0
   -1.5122   26.9281  -25.9633 H   0  0  0  0  0  0  0  0  0  0  0  0
   -2.4813   25.4157  -25.9633 H   0  0  0  0  0  0  0  0  0  0  0  0
   -0.0454   26.1566  -24.3224 H   0  0  0  0  0  0  0  0  0  0  0  0
   -1.2784   24.9841  -23.6635 H   0  0  0  0  0  0  0  0  0  0  0  0
   -1.0120   23.7980  -25.7770 H   0  0  0  0  0  0  0  0  0  0  0  0
    1.1075   22.6753  -25.1688 H   0  0  0  0  0  0  0  0  0  0  0  0
    1.0360   23.8322  -23.7392 H   0  0  0  0  0  0  0  0  0  0  0  0
   -0.3241   22.4713  -22.6645 H   0  0  0  0  0  0  0  0  0  0  0  0
   -1.5049   22.5513  -24.0158 H   0  0  0  0  0  0  0  0  0  0  0  0
   -0.2239   21.2920  -24.0158 H   0  0  0  0  0  0  0  0  0  0  0  0
    0.4485   25.8499  -26.6186 H   0  0  0  0  0  0  0  0  0  0  0  0
    1.6528   24.5015  -26.2419 H   0  0  0  0  0  0  0  0  0  0  0  0
    0.0935   24.8528  -28.6010 H   0  0  0  0  0  0  0  0  0  0  0  0
    1.2092   23.5119  -28.1609 H   0  0  0  0  0  0  0  0  0  0  0  0
   -1.0711   23.3142  -29.7496 H   0  0  0  0  0  0  0  0  0  0  0  0
   -2.3719   22.5037  -28.8019 H   0  0  0  0  0  0  0  0  0  0  0  0
   -3.1518   24.6006  -27.9121 H   0  0  0  0  0  0  0  0  0  0  0  0
   -1.7046   25.4726  -28.5503 H   0  0  0  0  0  0  0  0  0  0  0  0
   -5.3929   26.1670  -30.2757 H   0  0  0  0  0  0  0  0  0  0  0  0
   -7.5506   25.1686  -31.0123 H   0  0  0  0  0  0  0  0  0  0  0  0
  -10.0563   21.0687  -32.4527 H   0  0  0  0  0  0  0  0  0  0  0  0
   -9.9930   18.6187  -32.9221 H   0  0  0  0  0  0  0  0  0  0  0  0
   -7.8700   17.3414  -32.6448 H   0  0  0  0  0  0  0  0  0  0  0  0
   -5.7961   18.5051  -31.8896 H   0  0  0  0  0  0  0  0  0  0  0  0
   -3.4833   22.2922  -30.5609 H   0  0  0  0  0  0  0  0  0  0  0  0
  1  2  1  0
  2  3  1  0
  3  4  1  0
  4  5  1  0
  3  6  1  0
  6  7  1  0
  7  8  1  0
  8  9  1  0
  9 10  1  0
 10 11  1  0
 11 12  1  0
 12 13  2  0
 13 14  1  0
 14 15  2  0
 15 16  1  0
 16 17  2  0
 16 18  1  0
 18 19  2  0
 19 20  1  0
 20 21  2  0
 21 22  1  0
 22 23  2  0
 23 24  1  0
 24 25  1  0
 25 26  2  0
 26 12  1  0
 25 15  1  0
 23 18  1  0
  1 27  1  0
  1 28  1  0
  1 29  1  0
  2 30  1  0
  2 31  1  0
  3 32  1  0
  4 33  1  0
  4 34  1  0
  5 35  1  0
  5 36  1  0
  5 37  1  0
  6 38  1  0
  6 39  1  0
  7 40  1  0
  7 41  1  0
  9 42  1  0
  9 43  1  0
 10 44  1  0
 10 45  1  0
 13 46  1  0
 14 47  1  0
 19 48  1  0
 20 49  1  0
 21 50  1  0
 22 51  1  0
 26 52  1  0
M  CHG  1   3   1
M  END
>  <UniqueID>  (37) 
37

>  <SMILES>  (37) 
CC[NH+](CC)CCOCCOc1ccc2c(=O)c3ccccc3oc2c1

>  <Energy>  (37) 
70.47498440370181

>  <Genealogy>  (37) 
CC[NH+](CC)CCOCCOc1ccc2c(=O)c3ccccc3oc2c1 (protonated)
CC[NH+](CC)CCOCCOc1ccc2c(=O)c3ccccc3oc2c1 (3D coordinates assigned)
CC[NH+](CC)CCOCCOc1ccc2c(=O)c3ccccc3oc2c1 (optimized conformer: 70.47498440370181 kcal/mol)

>  <smiles>  (37) 
CCN(CC)CCOCCOc1ccc2c(=O)c3ccccc3oc2c1

>  <score_type>  (37) 
oracle

>  <origin>  (37) 
adg

>  <m_score__min__energy>  (37) 
-8.4600000000000009

>  <m_primary>  (37) 
energy

$$$$
37:0
     RDKit          3D

 51 54  0  0  0  0  0  0  0  0999 V2000
   -0.5480   26.3570  -23.7500 C   0  0  0  0  0  0  0  0  0  0  0  0
   -0.3370   25.4000  -24.7840 O   0  0  0  0  0  0  0  0  0  0  0  0
   -1.2650   25.1080  -25.7950 C   0  0  0  0  0  0  0  0  0  0  0  0
   -0.7890   24.5990  -27.0070 C   0  0  0  0  0  0  0  0  0  0  0  0
   -1.6730   24.2950  -28.0460 C   0  0  0  0  0  0  0  0  0  0  0  0
   -3.0560   24.4850  -27.8860 C   0  0  0  0  0  0  0  0  0  0  0  0
   -3.9810   24.1630  -29.0010 C   0  0  0  0  0  0  0  0  0  0  0  0
   -3.6800   23.1430  -29.8460 N   0  0  0  0  0  0  0  0  0  0  0  0
   -4.4920   22.8080  -30.8810 C   0  0  0  0  0  0  0  0  0  0  0  0
   -4.0780   21.6930  -31.7640 C   0  0  0  0  0  0  0  0  0  0  0  0
   -4.2150   20.3680  -31.3150 C   0  0  0  0  0  0  0  0  0  0  0  0
   -3.8070   19.3020  -32.1230 C   0  0  0  0  0  0  0  0  0  0  0  0
   -3.2480   19.5490  -33.3790 C   0  0  0  0  0  0  0  0  0  0  0  0
   -2.8600   18.5150  -34.1640 F   0  0  0  0  0  0  0  0  0  0  0  0
   -3.0810   20.8640  -33.8220 C   0  0  0  0  0  0  0  0  0  0  0  0
   -3.4810   21.9330  -33.0140 C   0  0  0  0  0  0  0  0  0  0  0  0
   -5.6920   23.5250  -31.0480 C   0  0  0  0  0  0  0  0  0  0  0  0
   -6.9190   23.1190  -32.3020 S   0  0  0  0  0  0  0  0  0  0  0  0
   -7.6380   21.7110  -31.3780 C   0  0  1  0  0  0  0  0  0  0  0  0
   -9.1360   21.9400  -31.1750 C   0  0  0  0  0  0  0  0  0  0  0  0
   -7.3860   20.4070  -32.1040 C   0  0  0  0  0  0  0  0  0  0  0  0
   -6.7370   20.4090  -33.3530 C   0  0  0  0  0  0  0  0  0  0  0  0
   -6.4890   19.2070  -34.0220 C   0  0  0  0  0  0  0  0  0  0  0  0
   -6.8830   17.9930  -33.4540 C   0  0  0  0  0  0  0  0  0  0  0  0
   -7.5300   17.9790  -32.2150 C   0  0  0  0  0  0  0  0  0  0  0  0
   -7.7840   19.1780  -31.5440 C   0  0  0  0  0  0  0  0  0  0  0  0
   -5.9660   24.5370  -30.1870 N   0  0  0  0  0  0  0  0  0  0  0  0
   -5.1380   24.8580  -29.1930 N   0  0  0  0  0  0  0  0  0  0  0  0
   -3.5330   25.0060  -26.6700 C   0  0  0  0  0  0  0  0  0  0  0  0
   -2.6480   25.3120  -25.6320 C   0  0  0  0  0  0  0  0  0  0  0  0
   -0.4402   25.8682  -22.7705 H   0  0  0  0  0  0  0  0  0  0  0  0
    0.1937   27.1642  -23.8406 H   0  0  0  0  0  0  0  0  0  0  0  0
   -1.5604   26.7775  -23.8406 H   0  0  0  0  0  0  0  0  0  0  0  0
    0.2903   24.4364  -27.1440 H   0  0  0  0  0  0  0  0  0  0  0  0
   -1.2827   23.9037  -28.9971 H   0  0  0  0  0  0  0  0  0  0  0  0
   -4.6455   20.1685  -30.3226 H   0  0  0  0  0  0  0  0  0  0  0  0
   -3.9265   18.2674  -31.7689 H   0  0  0  0  0  0  0  0  0  0  0  0
   -2.6341   21.0585  -34.8081 H   0  0  0  0  0  0  0  0  0  0  0  0
   -3.3278   22.9665  -33.3581 H   0  0  0  0  0  0  0  0  0  0  0  0
   -7.1517   21.6449  -30.3936 H   0  0  0  0  0  0  0  0  0  0  0  0
   -9.3591   21.9741  -30.0984 H   0  0  0  0  0  0  0  0  0  0  0  0
   -9.4276   22.8932  -31.6403 H   0  0  0  0  0  0  0  0  0  0  0  0
   -9.6990   21.1175  -31.6403 H   0  0  0  0  0  0  0  0  0  0  0  0
   -6.4233   21.3615  -33.8050 H   0  0  0  0  0  0  0  0  0  0  0  0
   -5.9823   19.2170  -34.9983 H   0  0  0  0  0  0  0  0  0  0  0  0
   -6.6842   17.0485  -33.9816 H   0  0  0  0  0  0  0  0  0  0  0  0
   -7.8396   17.0229  -31.7677 H   0  0  0  0  0  0  0  0  0  0  0  0
   -8.2983   19.1616  -30.5718 H   0  0  0  0  0  0  0  0  0  0  0  0
   -5.4190   25.6250  -28.5460 H   0  0  0  0  0  0  0  0  0  0  0  0
   -4.6116   25.1742  -26.5345 H   0  0  0  0  0  0  0  0  0  0  0  0
   -3.0342   25.7140  -24.6837 H   0  0  0  0  0  0  0  0  0  0  0  0
  1  2  1  0
  2  3  1  0
  3  4  2  0
  4  5  1  0
  5  6  2  0
  6  7  1  0
  7  8  2  0
  8  9  1  0
  9 10  1  0
 10 11  2  0
 11 12  1  0
 12 13  2  0
 13 14  1  0
 13 15  1  0
 15 16  2  0
  9 17  2  0
 17 18  1  0
 18 19  1  0
 19 20  1  0
 19 21  1  0
 21 22  2  0
 22 23  1  0
 23 24  2  0
 24 25  1  0
 25 26  2  0
 17 27  1  0
 27 28  2  0
  6 29  1  0
 29 30  2  0
 30  3  1  0
 28  7  1  0
 16 10  1  0
 26 21  1  0
  1 31  1  0
  1 32  1  0
  1 33  1  0
  4 34  1  0
  5 35  1  0
 11 36  1  0
 12 37  1  0
 15 38  1  0
 16 39  1  0
 19 40  1  1
 20 41  1  0
 20 42  1  0
 20 43  1  0
 22 44  1  0
 23 45  1  0
 24 46  1  0
 25 47  1  0
 26 48  1  0
 28 49  1  0
 29 50  1  0
 30 51  1  0
M  CHG  1  28   1
M  END
>  <UniqueID>  (38) 
38

>  <SMILES>  (38) 
COc1ccc(-c2nc(-c3ccc(F)cc3)c(S[C@@H](C)c3ccccc3)n[nH+]2)cc1

>  <Energy>  (38) 
56.519629481715796

>  <Genealogy>  (38) 
COc1ccc(-c2nc(-c3ccc(F)cc3)c(SC(C)c3ccccc3)n[nH+]2)cc1 (protonated)
COc1ccc(-c2nc(-c3ccc(F)cc3)c(S[C@@H](C)c3ccccc3)n[nH+]2)cc1 (chirality)
COc1ccc(-c2nc(-c3ccc(F)cc3)c(S[C@@H](C)c3ccccc3)n[nH+]2)cc1 (3D coordinates assigned)
COc1ccc(-c2nc(-c3ccc(F)cc3)c(S[C@@H](C)c3ccccc3)n[nH+]2)cc1 (optimized conformer: 56.519629481715796 kcal/mol)

>  <smiles>  (38) 
COc1ccc(-c2nnc(SC(C)c3ccccc3)c(-c3ccc(F)cc3)n2)cc1

>  <score_type>  (38) 
oracle

>  <origin>  (38) 
adg

>  <m_score__min__energy>  (38) 
-8.6899999999999995

>  <m_primary>  (38) 
energy

$$$$
38:0
     RDKit          3D

 44 46  0  0  0  0  0  0  0  0999 V2000
    0.2030   24.3380  -24.1000 N   0  0  0  0  0  0  0  0  0  0  0  0
    0.5720   23.8670  -25.4350 C   0  0  0  0  0  0  0  0  0  0  0  0
   -0.5200   22.9690  -26.0400 C   0  0  0  0  0  0  0  0  0  0  0  0
   -1.1700   23.6250  -27.1970 N   0  0  0  0  0  0  0  0  0  0  0  0
   -1.0210   22.8320  -28.4520 C   0  0  0  0  0  0  0  0  0  0  0  0
   -2.3520   22.4380  -29.1070 C   0  0  0  0  0  0  0  0  0  0  0  0
   -3.2190   23.6160  -29.2090 N   0  0  0  0  0  0  0  0  0  0  0  0
   -3.9460   23.9000  -30.4180 C   0  0  0  0  0  0  0  0  0  0  0  0
   -4.0950   25.0940  -30.7900 O   0  0  0  0  0  0  0  0  0  0  0  0
   -4.4710   22.8200  -31.2650 C   0  0  0  0  0  0  0  0  0  0  0  0
   -3.5520   21.9600  -32.3820 S   0  0  0  0  0  0  0  0  0  0  0  0
   -4.7890   20.9600  -32.9270 C   0  0  0  0  0  0  0  0  0  0  0  0
   -5.9550   21.3120  -32.2540 C   0  0  0  0  0  0  0  0  0  0  0  0
   -5.7820   22.3410  -31.3090 C   0  0  0  0  0  0  0  0  0  0  0  0
   -6.9570   22.9890  -30.6180 C   0  0  0  0  0  0  0  0  0  0  0  0
   -8.1710   22.0470  -30.5780 C   0  0  0  0  0  0  0  0  0  0  0  0
   -8.4500   21.4490  -31.9660 C   0  0  0  0  0  0  0  0  0  0  0  0
   -7.2660   20.5980  -32.4490 C   0  0  0  0  0  0  0  0  0  0  0  0
   -3.2980   24.5500  -28.0840 C   0  0  0  0  0  0  0  0  0  0  0  0
   -2.5650   23.9870  -26.8630 C   0  0  0  0  0  0  0  0  0  0  0  0
   -0.0010   23.5270  -23.4730 H   0  0  0  0  0  0  0  0  0  0  0  0
   -0.6600   24.9270  -24.1730 H   0  0  0  0  0  0  0  0  0  0  0  0
    0.9750   24.9190  -23.6940 H   0  0  0  0  0  0  0  0  0  0  0  0
    0.7232   24.7367  -26.0913 H   0  0  0  0  0  0  0  0  0  0  0  0
    1.4952   23.2753  -25.3482 H   0  0  0  0  0  0  0  0  0  0  0  0
   -0.0649   22.0242  -26.3719 H   0  0  0  0  0  0  0  0  0  0  0  0
   -1.2836   22.7815  -25.2707 H   0  0  0  0  0  0  0  0  0  0  0  0
   -0.4455   23.4313  -29.1728 H   0  0  0  0  0  0  0  0  0  0  0  0
   -0.5139   21.8955  -28.1767 H   0  0  0  0  0  0  0  0  0  0  0  0
   -2.1600   22.0368  -30.1131 H   0  0  0  0  0  0  0  0  0  0  0  0
   -2.8481   21.6720  -28.4929 H   0  0  0  0  0  0  0  0  0  0  0  0
   -4.6933   20.1667  -33.6830 H   0  0  0  0  0  0  0  0  0  0  0  0
   -6.6694   23.2466  -29.5880 H   0  0  0  0  0  0  0  0  0  0  0  0
   -7.2364   23.8914  -31.1815 H   0  0  0  0  0  0  0  0  0  0  0  0
   -7.9698   21.2308  -29.8685 H   0  0  0  0  0  0  0  0  0  0  0  0
   -9.0523   22.6243  -30.2615 H   0  0  0  0  0  0  0  0  0  0  0  0
   -9.3483   20.8165  -31.9109 H   0  0  0  0  0  0  0  0  0  0  0  0
   -8.6013   22.2737  -32.6780 H   0  0  0  0  0  0  0  0  0  0  0  0
   -7.2477   19.6564  -31.8807 H   0  0  0  0  0  0  0  0  0  0  0  0
   -7.3965   20.4052  -33.5241 H   0  0  0  0  0  0  0  0  0  0  0  0
   -2.8361   25.5052  -28.3742 H   0  0  0  0  0  0  0  0  0  0  0  0
   -4.3558   24.7023  -27.8233 H   0  0  0  0  0  0  0  0  0  0  0  0
   -2.5580   24.7462  -26.0670 H   0  0  0  0  0  0  0  0  0  0  0  0
   -3.0900   23.0799  -26.5289 H   0  0  0  0  0  0  0  0  0  0  0  0
  1  2  1  0
  2  3  1  0
  3  4  1  0
  4  5  1  0
  5  6  1  0
  6  7  1  0
  7  8  1  0
  8  9  2  0
  8 10  1  0
 10 11  1  0
 11 12  1  0
 12 13  2  0
 13 14  1  0
 14 15  1  0
 15 16  1  0
 16 17  1  0
 17 18  1  0
  7 19  1  0
 19 20  1  0
 20  4  1  0
 14 10  2  0
 18 13  1  0
  1 21  1  0
  1 22  1  0
  1 23  1  0
  2 24  1  0
  2 25  1  0
  3 26  1  0
  3 27  1  0
  5 28  1  0
  5 29  1  0
  6 30  1  0
  6 31  1  0
 12 32  1  0
 15 33  1  0
 15 34  1  0
 16 35  1  0
 16 36  1  0
 17 37  1  0
 17 38  1  0
 18 39  1  0
 18 40  1  0
 19 41  1  0
 19 42  1  0
 20 43  1  0
 20 44  1  0
M  CHG  1   1   1
M  END
>  <UniqueID>  (39) 
39

>  <SMILES>  (39) 
[NH3+]CCN1CCN(C(=O)c2scc3c2CCCC3)CC1

>  <Energy>  (39) 
77.86728770316638

>  <Genealogy>  (39) 
[NH3+]CCN1CCN(C(=O)c2scc3c2CCCC3)CC1 (protonated)
[NH3+]CCN1CCN(C(=O)c2scc3c2CCCC3)CC1 (3D coordinates assigned)
[NH3+]CCN1CCN(C(=O)c2scc3c2CCCC3)CC1 (nonaromatic ring conformer: 77.86728770316638 kcal/mol)

>  <smiles>  (39) 
NCCN1CCN(C(=O)c2scc3c2CCCC3)CC1

>  <score_type>  (39) 
oracle

>  <origin>  (39) 
adg

>  <m_score__min__energy>  (39) 
-7.8899999999999997

>  <m_primary>  (39) 
energy

$$$$
39:0
     RDKit          3D

 46 48  0  0  0  0  0  0  0  0999 V2000
   -1.0820   22.9100  -30.3030 C   0  0  0  0  0  0  0  0  0  0  0  0
   -2.3670   22.2260  -30.6920 C   0  0  0  0  0  0  0  0  0  0  0  0
   -2.3530   20.8610  -31.0270 C   0  0  0  0  0  0  0  0  0  0  0  0
   -3.5270   20.2070  -31.4070 C   0  0  0  0  0  0  0  0  0  0  0  0
   -4.7400   20.9050  -31.4550 C   0  0  0  0  0  0  0  0  0  0  0  0
   -5.8950   20.2750  -31.8210 N   0  0  0  0  0  0  0  0  0  0  0  0
   -7.0850   20.9490  -31.8720 C   0  0  0  0  0  0  0  0  0  0  0  0
   -8.2960   20.3110  -32.2470 C   0  0  0  0  0  0  0  0  0  0  0  0
   -8.3440   18.8480  -32.6030 C   0  0  0  0  0  0  0  0  0  0  0  0
   -9.4860   21.0600  -32.2790 C   0  0  0  0  0  0  0  0  0  0  0  0
   -9.4850   22.4170  -31.9460 C   0  0  0  0  0  0  0  0  0  0  0  0
   -8.2990   23.0480  -31.5780 C   0  0  0  0  0  0  0  0  0  0  0  0
   -7.1050   22.3240  -31.5360 C   0  0  0  0  0  0  0  0  0  0  0  0
   -5.9520   22.9440  -31.1750 N   0  0  0  0  0  0  0  0  0  0  0  0
   -4.7700   22.2760  -31.1230 C   0  0  0  0  0  0  0  0  0  0  0  0
   -3.5860   22.9430  -30.7470 C   0  0  0  0  0  0  0  0  0  0  0  0
   -3.6190   24.3920  -30.4630 C   0  0  0  0  0  0  0  0  0  0  0  0
   -4.2880   25.1540  -31.2090 O   0  0  0  0  0  0  0  0  0  0  0  0
   -2.8930   24.9440  -29.3590 N   0  0  0  0  0  0  0  0  0  0  0  0
   -3.0980   24.5220  -27.9780 C   0  0  0  0  0  0  0  0  0  0  0  0
   -1.8460   24.8060  -27.1380 C   0  0  0  0  0  0  0  0  0  0  0  0
   -0.7350   25.3410  -27.9580 N   0  0  0  0  0  0  0  0  0  0  0  0
   -0.4590   26.7340  -27.5690 C   0  0  0  0  0  0  0  0  0  0  0  0
    0.4900   24.5340  -27.8000 C   0  0  0  0  0  0  0  0  0  0  0  0
   -1.0057   22.9506  -29.2064 H   0  0  0  0  0  0  0  0  0  0  0  0
   -0.2291   22.3465  -30.7093 H   0  0  0  0  0  0  0  0  0  0  0  0
   -1.0731   23.9322  -30.7093 H   0  0  0  0  0  0  0  0  0  0  0  0
   -1.4066   20.3015  -30.9894 H   0  0  0  0  0  0  0  0  0  0  0  0
   -3.4987   19.1392  -31.6697 H   0  0  0  0  0  0  0  0  0  0  0  0
   -5.8480   19.2610  -32.0680 H   0  0  0  0  0  0  0  0  0  0  0  0
   -8.3637   18.2470  -31.6819 H   0  0  0  0  0  0  0  0  0  0  0  0
   -9.2493   18.6438  -33.1935 H   0  0  0  0  0  0  0  0  0  0  0  0
   -7.4540   18.5849  -33.1935 H   0  0  0  0  0  0  0  0  0  0  0  0
  -10.4281   20.5720  -32.5694 H   0  0  0  0  0  0  0  0  0  0  0  0
  -10.4241   22.9890  -31.9746 H   0  0  0  0  0  0  0  0  0  0  0  0
   -8.3026   24.1174  -31.3202 H   0  0  0  0  0  0  0  0  0  0  0  0
   -3.9509   25.0724  -27.5541 H   0  0  0  0  0  0  0  0  0  0  0  0
   -3.2991   23.4406  -27.9625 H   0  0  0  0  0  0  0  0  0  0  0  0
   -2.0997   25.5420  -26.3608 H   0  0  0  0  0  0  0  0  0  0  0  0
   -1.5129   23.8561  -26.6944 H   0  0  0  0  0  0  0  0  0  0  0  0
   -0.4435   26.8121  -26.4719 H   0  0  0  0  0  0  0  0  0  0  0  0
    0.5174   27.0407  -27.9722 H   0  0  0  0  0  0  0  0  0  0  0  0
   -1.2447   27.3898  -27.9722 H   0  0  0  0  0  0  0  0  0  0  0  0
    0.7017   24.3945  -26.7296 H   0  0  0  0  0  0  0  0  0  0  0  0
    0.3467   23.5529  -28.2763 H   0  0  0  0  0  0  0  0  0  0  0  0
    1.3349   25.0529  -28.2763 H   0  0  0  0  0  0  0  0  0  0  0  0
  1  2  1  0
  2  3  2  0
  3  4  1  0
  4  5  2  0
  5  6  1  0
  6  7  2  0
  7  8  1  0
  8  9  1  0
  8 10  2  0
 10 11  1  0
 11 12  2  0
 12 13  1  0
 13 14  2  0
 14 15  1  0
 15 16  2  0
 16 17  1  0
 17 18  2  0
 17 19  1  0
 19 20  1  0
 20 21  1  0
 21 22  1  0
 22 23  1  0
 22 24  1  0
 16  2  1  0
 15  5  1  0
 13  7  1  0
  1 25  1  0
  1 26  1  0
  1 27  1  0
  3 28  1  0
  4 29  1  0
  6 30  1  0
  9 31  1  0
  9 32  1  0
  9 33  1  0
 10 34  1  0
 11 35  1  0
 12 36  1  0
 20 37  1  0
 20 38  1  0
 21 39  1  0
 21 40  1  0
 23 41  1  0
 23 42  1  0
 23 43  1  0
 24 44  1  0
 24 45  1  0
 24 46  1  0
M  CHG  2   6   1  19  -1
M  END
>  <UniqueID>  (40) 
40

>  <SMILES>  (40) 
Cc1ccc2[nH+]c3c(C)cccc3nc2c1C(=O)[N-]CCN(C)C

>  <Energy>  (40) 
60.76115447890286

>  <Genealogy>  (40) 
Cc1ccc2[nH+]c3c(C)cccc3nc2c1C(=O)[N-]CCN(C)C (protonated)
Cc1ccc2[nH+]c3c(C)cccc3nc2c1C(=O)[N-]CCN(C)C (3D coordinates assigned)
Cc1ccc2[nH+]c3c(C)cccc3nc2c1C(=O)[N-]CCN(C)C (optimized conformer: 60.76115447890286 kcal/mol)

>  <smiles>  (40) 
Cc1ccc2nc3c(C)cccc3nc2c1C(=O)NCCN(C)C

>  <score_type>  (40) 
oracle

>  <origin>  (40) 
adg

>  <m_score__min__energy>  (40) 
-8.9800000000000004

>  <m_primary>  (40) 
energy

$$$$
40:0
     RDKit          3D

 37 38  0  0  0  0  0  0  0  0999 V2000
   -9.4550   20.6140  -32.5710 C   0  0  0  0  0  0  0  0  0  0  0  0
   -7.9460   20.7980  -32.3410 C   0  0  1  0  0  0  0  0  0  0  0  0
   -7.6040   21.1290  -30.8710 C   0  0  0  0  0  0  0  0  0  0  0  0
   -6.7600   22.3310  -30.7700 N   0  0  0  0  0  0  0  0  0  0  0  0
   -5.3160   22.1770  -30.5300 C   0  0  0  0  0  0  0  0  0  0  0  0
   -4.4980   23.1230  -31.4180 C   0  0  0  0  0  0  0  0  0  0  0  0
   -4.3560   24.4730  -30.8450 N   0  0  0  0  0  0  0  0  0  0  0  0
   -5.5250   25.3570  -31.0070 C   0  0  0  0  0  0  0  0  0  0  0  0
   -6.7730   24.8670  -30.2600 C   0  0  0  0  0  0  0  0  0  0  0  0
   -7.3760   23.6350  -30.8820 C   0  0  0  0  0  0  0  0  0  0  0  0
   -8.4050   23.7770  -31.5990 O   0  0  0  0  0  0  0  0  0  0  0  0
   -7.1860   19.6120  -32.8100 N   0  0  0  0  0  0  0  0  0  0  0  0
   -6.2560   19.7860  -33.8040 C   0  0  0  0  0  0  0  0  0  0  0  0
   -5.5050   18.7120  -34.2840 C   0  0  0  0  0  0  0  0  0  0  0  0
   -5.7000   17.4460  -33.7480 C   0  0  0  0  0  0  0  0  0  0  0  0
   -6.6400   17.2630  -32.7370 C   0  0  0  0  0  0  0  0  0  0  0  0
   -7.3800   18.3570  -32.2730 C   0  0  0  0  0  0  0  0  0  0  0  0
   -8.2220   18.1650  -31.3540 O   0  0  0  0  0  0  0  0  0  0  0  0
   -9.9689   20.5513  -31.6004 H   0  0  0  0  0  0  0  0  0  0  0  0
   -9.8466   21.4710  -33.1386 H   0  0  0  0  0  0  0  0  0  0  0  0
   -9.6292   19.6880  -33.1386 H   0  0  0  0  0  0  0  0  0  0  0  0
   -7.6395   21.6676  -32.9409 H   0  0  0  0  0  0  0  0  0  0  0  0
   -8.5385   21.3010  -30.3168 H   0  0  0  0  0  0  0  0  0  0  0  0
   -7.0473   20.2803  -30.4470 H   0  0  0  0  0  0  0  0  0  0  0  0
   -5.1024   22.4023  -29.4747 H   0  0  0  0  0  0  0  0  0  0  0  0
   -5.0327   21.1422  -30.7728 H   0  0  0  0  0  0  0  0  0  0  0  0
   -3.4947   22.6937  -31.5562 H   0  0  0  0  0  0  0  0  0  0  0  0
   -5.0362   23.2258  -32.3718 H   0  0  0  0  0  0  0  0  0  0  0  0
   -3.5320   24.9280  -31.3030 H   0  0  0  0  0  0  0  0  0  0  0  0
   -5.2617   26.3552  -30.6271 H   0  0  0  0  0  0  0  0  0  0  0  0
   -5.7741   25.3699  -32.0783 H   0  0  0  0  0  0  0  0  0  0  0  0
   -6.4936   24.6362  -29.2214 H   0  0  0  0  0  0  0  0  0  0  0  0
   -7.5260   25.6673  -30.3102 H   0  0  0  0  0  0  0  0  0  0  0  0
   -6.0999   20.7883  -34.2294 H   0  0  0  0  0  0  0  0  0  0  0  0
   -4.7636   18.8674  -35.0816 H   0  0  0  0  0  0  0  0  0  0  0  0
   -5.1150   16.5920  -34.1201 H   0  0  0  0  0  0  0  0  0  0  0  0
   -6.8002   16.2640  -32.3052 H   0  0  0  0  0  0  0  0  0  0  0  0
  1  2  1  0
  2  3  1  0
  3  4  1  0
  4  5  1  0
  5  6  1  0
  6  7  1  0
  7  8  1  0
  8  9  1  0
  9 10  1  0
 10 11  2  0
  2 12  1  0
 12 13  1  0
 13 14  2  0
 14 15  1  0
 15 16  2  0
 16 17  1  0
 17 18  2  0
 10  4  1  0
 17 12  1  0
  1 19  1  0
  1 20  1  0
  1 21  1  0
  2 22  1  6
  3 23  1  0
  3 24  1  0
  5 25  1  0
  5 26  1  0
  6 27  1  0
  6 28  1  0
  7 29  1  0
  8 30  1  0
  8 31  1  0
  9 32  1  0
  9 33  1  0
 13 34  1  0
 14 35  1  0
 15 36  1  0
 16 37  1  0
M  END
>  <UniqueID>  (41) 
41

>  <SMILES>  (41) 
C[C@@H](CN1CCNCCC1=O)n1ccccc1=O

>  <Energy>  (41) 
45.537022549832656

>  <Genealogy>  (41) 
C[C@@H](CN1CCNCCC1=O)n1ccccc1=O (chirality)
C[C@@H](CN1CCNCCC1=O)n1ccccc1=O (3D coordinates assigned)
C[C@@H](CN1CCNCCC1=O)n1ccccc1=O (nonaromatic ring conformer: 45.537022549832656 kcal/mol)

>  <smiles>  (41) 
CC(CN1CCNCCC1=O)n1ccccc1=O

>  <score_type>  (41) 
oracle

>  <origin>  (41) 
adg

>  <m_score__min__energy>  (41) 
-5.3799999999999999

>  <m_primary>  (41) 
energy

$$$$
41:0
     RDKit          3D

 48 49  0  0  0  0  0  0  0  0999 V2000
   -4.0260   24.0960  -28.0500 C   0  0  0  0  0  0  0  0  0  0  0  0
   -4.2090   23.4300  -29.3460 N   0  0  0  0  0  0  0  0  0  0  0  0
   -2.9110   22.9490  -29.8560 C   0  0  0  0  0  0  0  0  0  0  0  0
   -3.1030   21.8730  -30.8940 C   0  0  0  0  0  0  0  0  0  0  0  0
   -2.4150   21.9290  -32.1170 C   0  0  0  0  0  0  0  0  0  0  0  0
   -2.6140   20.9390  -33.0830 C   0  0  0  0  0  0  0  0  0  0  0  0
   -3.4960   19.8760  -32.8380 C   0  0  0  0  0  0  0  0  0  0  0  0
   -3.7320   18.8260  -33.8990 C   0  0  0  0  0  0  0  0  0  0  0  0
   -5.1100   18.2780  -33.8370 N   0  0  2  0  0  0  0  0  0  0  0  0
   -5.2170   16.9910  -34.5530 C   0  0  0  0  0  0  0  0  0  0  0  0
   -6.1170   19.2580  -34.3150 C   0  0  0  0  0  0  0  0  0  0  0  0
   -7.0120   19.8040  -33.2200 C   0  0  0  0  0  0  0  0  0  0  0  0
   -6.8730   21.1320  -32.7820 C   0  0  0  0  0  0  0  0  0  0  0  0
   -7.7040   21.6340  -31.7760 C   0  0  0  0  0  0  0  0  0  0  0  0
   -8.6750   20.8150  -31.1940 C   0  0  0  0  0  0  0  0  0  0  0  0
   -8.8140   19.4900  -31.6160 C   0  0  0  0  0  0  0  0  0  0  0  0
   -7.9850   18.9830  -32.6210 C   0  0  0  0  0  0  0  0  0  0  0  0
   -4.1800   19.8190  -31.6130 C   0  0  0  0  0  0  0  0  0  0  0  0
   -3.9830   20.8090  -30.6470 C   0  0  0  0  0  0  0  0  0  0  0  0
   -4.9710   24.5380  -30.4720 S   0  0  0  0  0  0  0  0  0  0  0  0
   -6.4400   25.2940  -29.7950 C   0  0  0  0  0  0  0  0  0  0  0  0
   -3.9990   25.6230  -30.8430 O   0  0  0  0  0  0  0  0  0  0  0  0
   -5.3510   23.7970  -31.7230 O   0  0  0  0  0  0  0  0  0  0  0  0
   -4.2228   23.3798  -27.2387 H   0  0  0  0  0  0  0  0  0  0  0  0
   -2.9930   24.4656  -27.9703 H   0  0  0  0  0  0  0  0  0  0  0  0
   -4.7251   24.9415  -27.9703 H   0  0  0  0  0  0  0  0  0  0  0  0
   -2.3676   23.7918  -30.3080 H   0  0  0  0  0  0  0  0  0  0  0  0
   -2.3392   22.5274  -29.0162 H   0  0  0  0  0  0  0  0  0  0  0  0
   -1.7167   22.7554  -32.3154 H   0  0  0  0  0  0  0  0  0  0  0  0
   -2.0760   20.9936  -34.0409 H   0  0  0  0  0  0  0  0  0  0  0  0
   -3.5732   19.2785  -34.8890 H   0  0  0  0  0  0  0  0  0  0  0  0
   -3.0277   17.9994  -33.7239 H   0  0  0  0  0  0  0  0  0  0  0  0
   -5.3400   18.0900  -32.8310 H   0  0  0  0  0  0  0  0  0  0  0  0
   -5.2852   16.1703  -33.8238 H   0  0  0  0  0  0  0  0  0  0  0  0
   -6.1178   16.9964  -35.1843 H   0  0  0  0  0  0  0  0  0  0  0  0
   -4.3277   16.8476  -35.1843 H   0  0  0  0  0  0  0  0  0  0  0  0
   -5.5857   20.1012  -34.7805 H   0  0  0  0  0  0  0  0  0  0  0  0
   -6.7685   18.7258  -35.0237 H   0  0  0  0  0  0  0  0  0  0  0  0
   -6.1067   21.7797  -33.2328 H   0  0  0  0  0  0  0  0  0  0  0  0
   -7.5931   22.6762  -31.4419 H   0  0  0  0  0  0  0  0  0  0  0  0
   -9.3294   21.2128  -30.4044 H   0  0  0  0  0  0  0  0  0  0  0  0
   -9.5772   18.8447  -31.1565 H   0  0  0  0  0  0  0  0  0  0  0  0
   -8.0939   17.9374  -32.9449 H   0  0  0  0  0  0  0  0  0  0  0  0
   -4.8749   18.9902  -31.4128 H   0  0  0  0  0  0  0  0  0  0  0  0
   -4.5203   20.7538  -29.6887 H   0  0  0  0  0  0  0  0  0  0  0  0
   -6.3920   25.2693  -28.6963 H   0  0  0  0  0  0  0  0  0  0  0  0
   -6.5055   26.3378  -30.1358 H   0  0  0  0  0  0  0  0  0  0  0  0
   -7.3275   24.7406  -30.1358 H   0  0  0  0  0  0  0  0  0  0  0  0
  1  2  1  0
  2  3  1  0
  3  4  1  0
  4  5  2  0
  5  6  1  0
  6  7  2  0
  7  8  1  0
  8  9  1  0
  9 10  1  0
  9 11  1  0
 11 12  1  0
 12 13  2  0
 13 14  1  0
 14 15  2  0
 15 16  1  0
 16 17  2  0
  7 18  1  0
 18 19  2  0
  2 20  1  0
 20 21  1  0
 20 22  2  0
 20 23  2  0
 19  4  1  0
 17 12  1  0
  1 24  1  0
  1 25  1  0
  1 26  1  0
  3 27  1  0
  3 28  1  0
  5 29  1  0
  6 30  1  0
  8 31  1  0
  8 32  1  0
  9 33  1  1
 10 34  1  0
 10 35  1  0
 10 36  1  0
 11 37  1  0
 11 38  1  0
 13 39  1  0
 14 40  1  0
 15 41  1  0
 16 42  1  0
 17 43  1  0
 18 44  1  0
 19 45  1  0
 21 46  1  0
 21 47  1  0
 21 48  1  0
M  CHG  1   9   1
M  END
>  <UniqueID>  (42) 
42

>  <SMILES>  (42) 
CN(Cc1ccc(C[N@H+](C)Cc2ccccc2)cc1)S(C)(=O)=O

>  <Energy>  (42) 
45.0498440875457

>  <Genealogy>  (42) 
CN(Cc1ccc(C[NH+](C)Cc2ccccc2)cc1)S(C)(=O)=O (protonated)
CN(Cc1ccc(C[N@H+](C)Cc2ccccc2)cc1)S(C)(=O)=O (chirality)
CN(Cc1ccc(C[N@H+](C)Cc2ccccc2)cc1)S(C)(=O)=O (3D coordinates assigned)
CN(Cc1ccc(C[N@H+](C)Cc2ccccc2)cc1)S(C)(=O)=O (optimized conformer: 45.0498440875457 kcal/mol)

>  <smiles>  (42) 
CN(Cc1ccccc1)Cc1ccc(CN(C)S(C)(=O)=O)cc1

>  <score_type>  (42) 
oracle

>  <origin>  (42) 
adg

>  <m_score__min__energy>  (42) 
-7.9100000000000001

>  <m_primary>  (42) 
energy

$$$$
42:0
     RDKit          3D

 27 28  0  0  0  0  0  0  0  0999 V2000
   -9.4900   21.2580  -31.8200 C   0  0  0  0  0  0  0  0  0  0  0  0
   -8.0700   21.7200  -31.9680 C   0  0  0  0  0  0  0  0  0  0  0  0
   -7.1090   20.8750  -32.5450 C   0  0  0  0  0  0  0  0  0  0  0  0
   -5.7800   21.2940  -32.6580 C   0  0  0  0  0  0  0  0  0  0  0  0
   -5.3980   22.5510  -32.1800 C   0  0  0  0  0  0  0  0  0  0  0  0
   -6.3420   23.3920  -31.5690 C   0  0  0  0  0  0  0  0  0  0  0  0
   -5.9380   24.7550  -31.0790 C   0  0  0  0  0  0  0  0  0  0  0  0
   -4.8030   24.6330  -30.1110 C   0  0  0  0  0  0  0  0  0  0  0  0
   -3.5700   24.7280  -30.4690 N   0  0  0  0  0  0  0  0  0  0  0  0
   -2.7070   24.4940  -29.3170 C   0  0  0  0  0  0  0  0  0  0  0  0
   -3.6640   24.1860  -28.1540 C   0  0  0  0  0  0  0  0  0  0  0  0
   -4.9800   24.3030  -28.7490 N   0  0  0  0  0  0  0  0  0  0  0  0
   -7.6790   22.9730  -31.4710 C   0  0  0  0  0  0  0  0  0  0  0  0
   -9.7397   21.1768  -30.7518 H   0  0  0  0  0  0  0  0  0  0  0  0
  -10.1635   21.9834  -32.2999 H   0  0  0  0  0  0  0  0  0  0  0  0
   -9.6077   20.2752  -32.2999 H   0  0  0  0  0  0  0  0  0  0  0  0
   -7.4027   19.8796  -32.9096 H   0  0  0  0  0  0  0  0  0  0  0  0
   -5.0337   20.6336  -33.1238 H   0  0  0  0  0  0  0  0  0  0  0  0
   -4.3542   22.8824  -32.2829 H   0  0  0  0  0  0  0  0  0  0  0  0
   -5.6234   25.3714  -31.9340 H   0  0  0  0  0  0  0  0  0  0  0  0
   -6.7943   25.2270  -30.5751 H   0  0  0  0  0  0  0  0  0  0  0  0
   -2.0382   23.6407  -29.5028 H   0  0  0  0  0  0  0  0  0  0  0  0
   -2.0634   25.3598  -29.1022 H   0  0  0  0  0  0  0  0  0  0  0  0
   -3.4974   23.1695  -27.7681 H   0  0  0  0  0  0  0  0  0  0  0  0
   -3.5231   24.8610  -27.2970 H   0  0  0  0  0  0  0  0  0  0  0  0
   -5.8910   24.1420  -28.2660 H   0  0  0  0  0  0  0  0  0  0  0  0
   -8.4248   23.6314  -31.0015 H   0  0  0  0  0  0  0  0  0  0  0  0
  1  2  1  0
  2  3  2  0
  3  4  1  0
  4  5  2  0
  5  6  1  0
  6  7  1  0
  7  8  1  0
  8  9  2  0
  9 10  1  0
 10 11  1  0
 11 12  1  0
  6 13  2  0
 13  2  1  0
 12  8  1  0
  1 14  1  0
  1 15  1  0
  1 16  1  0
  3 17  1  0
  4 18  1  0
  5 19  1  0
  7 20  1  0
  7 21  1  0
 10 22  1  0
 10 23  1  0
 11 24  1  0
 11 25  1  0
 12 26  1  0
 13 27  1  0
M  END
>  <UniqueID>  (43) 
43

>  <SMILES>  (43) 
Cc1cccc(CC2=NCCN2)c1

>  <Energy>  (43) 
34.86286670925464

>  <Genealogy>  (43) 
Cc1cccc(CC2=NCCN2)c1 (3D coordinates assigned)
Cc1cccc(CC2=NCCN2)c1 (nonaromatic ring conformer: 34.86286670925464 kcal/mol)

>  <smiles>  (43) 
Cc1cccc(CC2=NCCN2)c1

>  <score_type>  (43) 
oracle

>  <origin>  (43) 
adg

>  <m_score__min__energy>  (43) 
-6.1900000000000004

>  <m_primary>  (43) 
energy

$$$$
43:0
     RDKit          3D

 53 56  0  0  0  0  0  0  0  0999 V2000
   -1.1287   22.3087  -31.8335 H   0  0  0  0  0  0  0  0  0  0  0  0
   -2.0060   22.2980  -31.1700 C   0  0  0  0  0  0  0  0  0  0  0  0
   -3.1290   21.7290  -31.6280 C   0  0  0  0  0  0  0  0  0  0  0  0
   -4.4300   22.2390  -31.3510 N   0  0  0  0  0  0  0  0  0  0  0  0
   -5.2890   21.4760  -31.9650 C   0  0  0  0  0  0  0  0  0  0  0  0
   -6.7400   21.7680  -31.9400 C   0  0  0  0  0  0  0  0  0  0  0  0
   -7.1950   23.0960  -32.0280 C   0  0  0  0  0  0  0  0  0  0  0  0
   -6.4692   23.9181  -32.1147 H   0  0  0  0  0  0  0  0  0  0  0  0
   -8.5630   23.3770  -32.0060 C   0  0  0  0  0  0  0  0  0  0  0  0
   -8.9103   24.4189  -32.0676 H   0  0  0  0  0  0  0  0  0  0  0  0
   -9.4910   22.3380  -31.9060 C   0  0  0  0  0  0  0  0  0  0  0  0
  -10.5678   22.5617  -31.8847 H   0  0  0  0  0  0  0  0  0  0  0  0
   -9.0500   21.0140  -31.8330 C   0  0  0  0  0  0  0  0  0  0  0  0
   -9.7808   20.1953  -31.7573 H   0  0  0  0  0  0  0  0  0  0  0  0
   -7.6820   20.7280  -31.8560 C   0  0  0  0  0  0  0  0  0  0  0  0
   -7.3407   19.6834  -31.8081 H   0  0  0  0  0  0  0  0  0  0  0  0
   -4.6920   20.4050  -32.7220 N   0  0  0  0  0  0  0  0  0  0  0  0
   -5.2970   19.1590  -33.1030 C   0  0  0  0  0  0  0  0  0  0  0  0
   -5.7080   18.2510  -32.1180 C   0  0  0  0  0  0  0  0  0  0  0  0
   -5.5670   18.4960  -31.0550 H   0  0  0  0  0  0  0  0  0  0  0  0
   -6.2960   17.0360  -32.4790 C   0  0  0  0  0  0  0  0  0  0  0  0
   -6.6115   16.3295  -31.6971 H   0  0  0  0  0  0  0  0  0  0  0  0
   -6.4870   16.7100  -33.8260 C   0  0  0  0  0  0  0  0  0  0  0  0
   -7.0790   15.4770  -34.1370 O   0  0  0  0  0  0  0  0  0  0  0  0
   -6.3710   14.2440  -34.2210 C   0  0  0  0  0  0  0  0  0  0  0  0
   -6.1583   13.8735  -33.2073 H   0  0  0  0  0  0  0  0  0  0  0  0
   -6.9828   13.5059  -34.7603 H   0  0  0  0  0  0  0  0  0  0  0  0
   -5.4251   14.4003  -34.7603 H   0  0  0  0  0  0  0  0  0  0  0  0
   -6.0830   17.6250  -34.8170 C   0  0  0  0  0  0  0  0  0  0  0  0
   -6.2300   17.3818  -35.8797 H   0  0  0  0  0  0  0  0  0  0  0  0
   -5.4960   18.8410  -34.4560 C   0  0  0  0  0  0  0  0  0  0  0  0
   -5.1882   19.5528  -35.2362 H   0  0  0  0  0  0  0  0  0  0  0  0
   -3.3010   20.5850  -32.5030 C   0  0  0  0  0  0  0  0  0  0  0  0
   -2.3990   19.8730  -33.0180 O   0  0  0  0  0  0  0  0  0  0  0  0
   -1.8670   22.9110  -29.8360 C   0  0  0  0  0  0  0  0  0  0  0  0
   -2.7560   23.9020  -29.3980 C   0  0  0  0  0  0  0  0  0  0  0  0
   -3.5948   24.2070  -30.0410 H   0  0  0  0  0  0  0  0  0  0  0  0
   -2.5830   24.5050  -28.1490 C   0  0  0  0  0  0  0  0  0  0  0  0
   -3.2979   25.2700  -27.8118 H   0  0  0  0  0  0  0  0  0  0  0  0
   -1.5030   24.1450  -27.3150 C   0  0  0  0  0  0  0  0  0  0  0  0
   -1.3230   24.7680  -26.0160 N   0  0  0  0  0  0  0  0  0  0  0  0
   -0.4690   24.1410  -25.0000 C   0  0  0  0  0  0  0  0  0  0  0  0
   -0.8343   24.4092  -23.9977 H   0  0  0  0  0  0  0  0  0  0  0  0
   -0.4979   23.0480  -25.1205 H   0  0  0  0  0  0  0  0  0  0  0  0
    0.5652   24.4959  -25.1205 H   0  0  0  0  0  0  0  0  0  0  0  0
   -1.9910   26.0360  -25.6970 C   0  0  0  0  0  0  0  0  0  0  0  0
   -2.0528   26.1533  -24.6050 H   0  0  0  0  0  0  0  0  0  0  0  0
   -1.4157   26.8709  -26.1235 H   0  0  0  0  0  0  0  0  0  0  0  0
   -3.0050   26.0337  -26.1235 H   0  0  0  0  0  0  0  0  0  0  0  0
   -0.5980   23.1690  -27.7830 C   0  0  0  0  0  0  0  0  0  0  0  0
    0.2572   22.8765  -27.1560 H   0  0  0  0  0  0  0  0  0  0  0  0
   -0.7740   22.5690  -29.0330 C   0  0  0  0  0  0  0  0  0  0  0  0
   -0.0479   21.8227  -29.3877 H   0  0  0  0  0  0  0  0  0  0  0  0
  1  2  1  0
  2  3  2  0
  3  4  1  0
  4  5  2  0
  5  6  1  0
  6  7  2  0
  7  8  1  0
  7  9  1  0
  9 10  1  0
  9 11  2  0
 11 12  1  0
 11 13  1  0
 13 14  1  0
 13 15  2  0
 15 16  1  0
  5 17  1  0
 17 18  1  0
 18 19  2  0
 19 20  1  0
 19 21  1  0
 21 22  1  0
 21 23  2  0
 23 24  1  0
 24 25  1  0
 25 26  1  0
 25 27  1  0
 25 28  1  0
 23 29  1  0
 29 30  1  0
 29 31  2  0
 31 32  1  0
 17 33  1  0
 33 34  2  0
  2 35  1  0
 35 36  2  0
 36 37  1  0
 36 38  1  0
 38 39  1  0
 38 40  2  0
 40 41  1  0
 41 42  1  0
 42 43  1  0
 42 44  1  0
 42 45  1  0
 41 46  1  0
 46 47  1  0
 46 48  1  0
 46 49  1  0
 40 50  1  0
 50 51  1  0
 50 52  2  0
 52 53  1  0
 33  3  1  0
 52 35  1  0
 15  6  1  0
 31 18  1  0
M  END
>  <UniqueID>  (44) 
44

>  <SMILES>  (44) 
COc1ccc(N2C(=O)/C(=C\c3ccc(N(C)C)cc3)N=C2c2ccccc2)cc1

>  <Energy>  (44) 
101.54202707309862

>  <Genealogy>  (44) 
COc1ccc(N2C(=O)/C(=C\c3ccc(N(C)C)cc3)N=C2c2ccccc2)cc1 (cis-trans isomerization)
COc1ccc(N2C(=O)/C(=C\c3ccc(N(C)C)cc3)N=C2c2ccccc2)cc1 (3D coordinates assigned)
COc1ccc(N2C(=O)/C(=C\c3ccc(N(C)C)cc3)N=C2c2ccccc2)cc1 (nonaromatic ring conformer: 101.54202707309862 kcal/mol)

>  <smiles>  (44) 
COc1ccc(N2C(=O)C(=Cc3ccc(N(C)C)cc3)N=C2c2ccccc2)cc1

>  <score_type>  (44) 
oracle

>  <origin>  (44) 
adg

>  <m_score__min__energy>  (44) 
-8.5899999999999999

>  <m_primary>  (44) 
energy

$$$$
44:0
     RDKit          3D

 55 57  0  0  0  0  0  0  0  0999 V2000
   -2.7300   20.4190  -28.4810 C   0  0  0  0  0  0  0  0  0  0  0  0
   -1.2860   20.4150  -28.9910 C   0  0  0  0  0  0  0  0  0  0  0  0
   -1.0970   21.2290  -30.2240 N   0  0  0  0  0  0  0  0  0  0  0  0
   -0.8310   22.6660  -29.9390 C   0  0  0  0  0  0  0  0  0  0  0  0
   -2.0050   23.4070  -29.2810 C   0  0  0  0  0  0  0  0  0  0  0  0
   -0.0330   20.6480  -31.0930 C   0  0  0  0  0  0  0  0  0  0  0  0
   -0.5860   19.6860  -32.1650 C   0  0  0  0  0  0  0  0  0  0  0  0
   -1.9950   19.5130  -32.0480 O   0  0  0  0  0  0  0  0  0  0  0  0
   -2.9150   20.0950  -32.9260 C   0  0  0  0  0  0  0  0  0  0  0  0
   -2.9020   19.8080  -34.1540 O   0  0  0  0  0  0  0  0  0  0  0  0
   -3.8970   21.0510  -32.4020 C   0  0  0  0  0  0  0  0  0  0  0  0
   -3.5500   22.2070  -31.7840 N   0  0  0  0  0  0  0  0  0  0  0  0
   -4.7400   22.7680  -31.4750 C   0  0  0  0  0  0  0  0  0  0  0  0
   -4.9190   23.9690  -30.7910 C   0  0  0  0  0  0  0  0  0  0  0  0
   -6.2390   24.3820  -30.5190 C   0  0  0  0  0  0  0  0  0  0  0  0
   -6.4870   25.6450  -29.7480 C   0  0  0  0  0  0  0  0  0  0  0  0
   -7.3250   23.5660  -30.9080 C   0  0  0  0  0  0  0  0  0  0  0  0
   -7.0830   22.3650  -31.5900 C   0  0  0  0  0  0  0  0  0  0  0  0
   -5.7960   22.0280  -31.8570 N   0  0  0  0  0  0  0  0  0  0  0  0
   -5.2800   20.9430  -32.4500 C   0  0  0  0  0  0  0  0  0  0  0  0
   -6.0450   19.7960  -32.8410 N   0  0  0  0  0  0  0  0  0  0  0  0
   -6.0370   19.3310  -34.2280 C   0  0  0  0  0  0  0  0  0  0  0  0
   -6.1120   17.8020  -34.2470 C   0  0  0  0  0  0  0  0  0  0  0  0
   -7.2050   17.3440  -33.4710 O   0  0  0  0  0  0  0  0  0  0  0  0
   -6.9980   17.6690  -32.1080 C   0  0  0  0  0  0  0  0  0  0  0  0
   -6.9860   19.1870  -31.9020 C   0  0  0  0  0  0  0  0  0  0  0  0
   -2.7304   20.4190  -27.3810 H   0  0  0  0  0  0  0  0  0  0  0  0
   -3.2459   21.3186  -28.8478 H   0  0  0  0  0  0  0  0  0  0  0  0
   -3.2509   19.5223  -28.8478 H   0  0  0  0  0  0  0  0  0  0  0  0
   -0.6353   20.8197  -28.2018 H   0  0  0  0  0  0  0  0  0  0  0  0
   -1.0314   19.3751  -29.2436 H   0  0  0  0  0  0  0  0  0  0  0  0
   -2.0030   21.2070  -30.7510 H   0  0  0  0  0  0  0  0  0  0  0  0
    0.0369   22.7290  -29.2661 H   0  0  0  0  0  0  0  0  0  0  0  0
   -0.6551   23.1527  -30.9096 H   0  0  0  0  0  0  0  0  0  0  0  0
   -1.9096   23.3468  -28.1868 H   0  0  0  0  0  0  0  0  0  0  0  0
   -1.9936   24.4619  -29.5925 H   0  0  0  0  0  0  0  0  0  0  0  0
   -2.9524   22.9429  -29.5925 H   0  0  0  0  0  0  0  0  0  0  0  0
    0.4938   21.4705  -31.5989 H   0  0  0  0  0  0  0  0  0  0  0  0
    0.6386   20.0660  -30.4448 H   0  0  0  0  0  0  0  0  0  0  0  0
   -0.3595   20.0951  -33.1607 H   0  0  0  0  0  0  0  0  0  0  0  0
   -0.1092   18.7052  -32.0211 H   0  0  0  0  0  0  0  0  0  0  0  0
   -4.0578   24.5752  -30.4736 H   0  0  0  0  0  0  0  0  0  0  0  0
   -6.4449   25.4307  -28.6699 H   0  0  0  0  0  0  0  0  0  0  0  0
   -5.7176   26.3882  -30.0044 H   0  0  0  0  0  0  0  0  0  0  0  0
   -7.4803   26.0421  -30.0044 H   0  0  0  0  0  0  0  0  0  0  0  0
   -8.3561   23.8717  -30.6768 H   0  0  0  0  0  0  0  0  0  0  0  0
   -7.9136   21.7139  -31.9001 H   0  0  0  0  0  0  0  0  0  0  0  0
   -6.9040   19.7485  -34.7610 H   0  0  0  0  0  0  0  0  0  0  0  0
   -5.1121   19.6617  -34.7232 H   0  0  0  0  0  0  0  0  0  0  0  0
   -6.2375   17.4596  -35.2848 H   0  0  0  0  0  0  0  0  0  0  0  0
   -5.1821   17.3973  -33.8211 H   0  0  0  0  0  0  0  0  0  0  0  0
   -7.8080   17.2306  -31.5065 H   0  0  0  0  0  0  0  0  0  0  0  0
   -6.0240   17.2649  -31.7951 H   0  0  0  0  0  0  0  0  0  0  0  0
   -7.9942   19.5896  -32.0794 H   0  0  0  0  0  0  0  0  0  0  0  0
   -6.6774   19.4160  -30.8713 H   0  0  0  0  0  0  0  0  0  0  0  0
  1  2  1  0
  2  3  1  0
  3  4  1  0
  4  5  1  0
  3  6  1  0
  6  7  1  0
  7  8  1  0
  8  9  1  0
  9 10  2  0
  9 11  1  0
 11 12  1  0
 12 13  2  0
 13 14  1  0
 14 15  2  0
 15 16  1  0
 15 17  1  0
 17 18  2  0
 18 19  1  0
 19 20  1  0
 20 21  1  0
 21 22  1  0
 22 23  1  0
 23 24  1  0
 24 25  1  0
 25 26  1  0
 20 11  2  0
 26 21  1  0
 19 13  1  0
  1 27  1  0
  1 28  1  0
  1 29  1  0
  2 30  1  0
  2 31  1  0
  3 32  1  0
  4 33  1  0
  4 34  1  0
  5 35  1  0
  5 36  1  0
  5 37  1  0
  6 38  1  0
  6 39  1  0
  7 40  1  0
  7 41  1  0
 14 42  1  0
 16 43  1  0
 16 44  1  0
 16 45  1  0
 17 46  1  0
 18 47  1  0
 22 48  1  0
 22 49  1  0
 23 50  1  0
 23 51  1  0
 25 52  1  0
 25 53  1  0
 26 54  1  0
 26 55  1  0
M  CHG  1   3   1
M  END
>  <UniqueID>  (45) 
45

>  <SMILES>  (45) 
CC[NH+](CC)CCOC(=O)c1nc2cc(C)ccn2c1N1CCOCC1

>  <Energy>  (45) 
97.19062879897486

>  <Genealogy>  (45) 
CC[NH+](CC)CCOC(=O)c1nc2cc(C)ccn2c1N1CCOCC1 (protonated)
CC[NH+](CC)CCOC(=O)c1nc2cc(C)ccn2c1N1CCOCC1 (3D coordinates assigned)
CC[NH+](CC)CCOC(=O)c1nc2cc(C)ccn2c1N1CCOCC1 (nonaromatic ring conformer: 97.19062879897486 kcal/mol)

>  <smiles>  (45) 
CCN(CC)CCOC(=O)c1nc2cc(C)ccn2c1N1CCOCC1

>  <score_type>  (45) 
oracle

>  <origin>  (45) 
adg

>  <m_score__min__energy>  (45) 
-5.7999999999999998

>  <m_primary>  (45) 
energy

$$$$
45:0
     RDKit          3D

 35 36  0  0  0  0  0  0  0  0999 V2000
   -5.1150   18.7890  -33.7130 C   0  0  0  0  0  0  0  0  0  0  0  0
   -6.3750   18.0360  -33.8510 N   0  0  0  0  0  0  0  0  0  0  0  0
   -6.1050   16.7640  -34.5470 C   0  0  0  0  0  0  0  0  0  0  0  0
   -6.9850   17.8110  -32.5130 C   0  0  0  0  0  0  0  0  0  0  0  0
   -8.2630   18.6400  -32.2850 C   0  0  0  0  0  0  0  0  0  0  0  0
   -8.1790   19.9450  -32.9410 N   0  0  0  0  0  0  0  0  0  0  0  0
   -7.6800   21.1340  -32.3020 C   0  0  0  0  0  0  0  0  0  0  0  0
   -8.5730   22.1700  -31.9930 C   0  0  0  0  0  0  0  0  0  0  0  0
   -8.1210   23.3470  -31.3890 C   0  0  0  0  0  0  0  0  0  0  0  0
   -6.7600   23.5110  -31.0990 C   0  0  0  0  0  0  0  0  0  0  0  0
   -6.2940   24.6900  -30.4960 C   0  0  0  0  0  0  0  0  0  0  0  0
   -4.9320   24.8460  -30.2220 C   0  0  0  0  0  0  0  0  0  0  0  0
   -4.0280   23.8320  -30.5470 C   0  0  0  0  0  0  0  0  0  0  0  0
   -4.4790   22.6530  -31.1480 C   0  0  0  0  0  0  0  0  0  0  0  0
   -5.8450   22.4820  -31.4260 C   0  0  0  0  0  0  0  0  0  0  0  0
   -6.3100   21.3030  -32.0300 C   0  0  0  0  0  0  0  0  0  0  0  0
   -4.8850   18.9265  -32.6461 H   0  0  0  0  0  0  0  0  0  0  0  0
   -4.2992   18.2302  -34.1949 H   0  0  0  0  0  0  0  0  0  0  0  0
   -5.2207   19.7721  -34.1949 H   0  0  0  0  0  0  0  0  0  0  0  0
   -7.0180   18.6110  -34.4460 H   0  0  0  0  0  0  0  0  0  0  0  0
   -5.9363   15.9690  -33.8057 H   0  0  0  0  0  0  0  0  0  0  0  0
   -6.9673   16.5007  -35.1772 H   0  0  0  0  0  0  0  0  0  0  0  0
   -5.2101   16.8736  -35.1772 H   0  0  0  0  0  0  0  0  0  0  0  0
   -7.2378   16.7446  -32.4182 H   0  0  0  0  0  0  0  0  0  0  0  0
   -6.2492   18.1282  -31.7593 H   0  0  0  0  0  0  0  0  0  0  0  0
   -9.1237   18.0896  -32.6927 H   0  0  0  0  0  0  0  0  0  0  0  0
   -8.3800   18.8039  -31.2036 H   0  0  0  0  0  0  0  0  0  0  0  0
   -8.6780   20.0480  -33.8530 H   0  0  0  0  0  0  0  0  0  0  0  0
   -9.6413   22.0553  -32.2285 H   0  0  0  0  0  0  0  0  0  0  0  0
   -8.8352   24.1460  -31.1409 H   0  0  0  0  0  0  0  0  0  0  0  0
   -7.0014   25.4921  -30.2388 H   0  0  0  0  0  0  0  0  0  0  0  0
   -4.5708   25.7709  -29.7486 H   0  0  0  0  0  0  0  0  0  0  0  0
   -2.9576   23.9615  -30.3293 H   0  0  0  0  0  0  0  0  0  0  0  0
   -3.7629   21.8581  -31.4035 H   0  0  0  0  0  0  0  0  0  0  0  0
   -5.5985   20.5061  -32.2923 H   0  0  0  0  0  0  0  0  0  0  0  0
  1  2  1  0
  2  3  1  0
  2  4  1  0
  4  5  1  0
  5  6  1  0
  6  7  1  0
  7  8  2  0
  8  9  1  0
  9 10  2  0
 10 11  1  0
 11 12  2  0
 12 13  1  0
 13 14  2  0
 14 15  1  0
 15 16  2  0
 16  7  1  0
 15 10  1  0
  1 17  1  0
  1 18  1  0
  1 19  1  0
  2 20  1  0
  3 21  1  0
  3 22  1  0
  3 23  1  0
  4 24  1  0
  4 25  1  0
  5 26  1  0
  5 27  1  0
  6 28  1  0
  8 29  1  0
  9 30  1  0
 11 31  1  0
 12 32  1  0
 13 33  1  0
 14 34  1  0
 16 35  1  0
M  CHG  1   2   1
M  END
>  <UniqueID>  (46) 
46

>  <SMILES>  (46) 
C[NH+](C)CCNc1ccc2ccccc2c1

>  <Energy>  (46) 
40.29764222933354

>  <Genealogy>  (46) 
C[NH+](C)CCNc1ccc2ccccc2c1 (protonated)
C[NH+](C)CCNc1ccc2ccccc2c1 (3D coordinates assigned)
C[NH+](C)CCNc1ccc2ccccc2c1 (optimized conformer: 40.29764222933354 kcal/mol)

>  <smiles>  (46) 
CN(C)CCNc1ccc2ccccc2c1

>  <score_type>  (46) 
oracle

>  <origin>  (46) 
adg

>  <m_score__min__energy>  (46) 
-5.8600000000000003

>  <m_primary>  (46) 
energy

$$$$
46:0
     RDKit          3D

 37 39  0  0  0  0  0  0  0  0999 V2000
   -3.1960   21.5880  -32.0410 C   0  0  0  0  0  0  0  0  0  0  0  0
   -3.1590   22.7480  -31.0990 C   0  0  0  0  0  0  0  0  0  0  0  0
   -2.1220   22.8710  -30.1680 C   0  0  0  0  0  0  0  0  0  0  0  0
   -2.1130   23.9840  -29.3200 C   0  0  0  0  0  0  0  0  0  0  0  0
   -1.0380   24.1510  -28.2930 C   0  0  0  0  0  0  0  0  0  0  0  0
   -3.1100   24.9020  -29.4080 N   0  0  0  0  0  0  0  0  0  0  0  0
   -4.1020   24.7760  -30.3280 C   0  0  0  0  0  0  0  0  0  0  0  0
   -5.3620   26.0430  -30.4590 S   0  0  0  0  0  0  0  0  0  0  0  0
   -6.7280   24.9650  -29.8980 C   0  0  0  0  0  0  0  0  0  0  0  0
   -6.9840   23.8720  -30.8870 C   0  0  0  0  0  0  0  0  0  0  0  0
   -7.2940   22.5600  -30.5950 C   0  0  0  0  0  0  0  0  0  0  0  0
   -7.3000   21.9010  -31.7690 N   0  0  0  0  0  0  0  0  0  0  0  0
   -7.5050   20.4890  -31.9720 C   0  0  0  0  0  0  0  0  0  0  0  0
   -8.7590   19.9020  -31.7150 C   0  0  0  0  0  0  0  0  0  0  0  0
   -8.9500   18.5300  -31.9000 C   0  0  0  0  0  0  0  0  0  0  0  0
   -7.8970   17.7300  -32.3480 C   0  0  0  0  0  0  0  0  0  0  0  0
   -6.6490   18.3000  -32.6100 C   0  0  0  0  0  0  0  0  0  0  0  0
   -6.4520   19.6720  -32.4230 C   0  0  0  0  0  0  0  0  0  0  0  0
   -7.0090   22.7780  -32.7210 N   0  0  0  0  0  0  0  0  0  0  0  0
   -6.8000   23.9850  -32.2180 N   0  0  0  0  0  0  0  0  0  0  0  0
   -4.1210   23.7070  -31.1640 N   0  0  0  0  0  0  0  0  0  0  0  0
   -3.2259   20.6502  -31.4668 H   0  0  0  0  0  0  0  0  0  0  0  0
   -4.0923   21.6587  -32.6747 H   0  0  0  0  0  0  0  0  0  0  0  0
   -2.2970   21.6014  -32.6747 H   0  0  0  0  0  0  0  0  0  0  0  0
   -1.3309   22.1093  -30.1040 H   0  0  0  0  0  0  0  0  0  0  0  0
   -1.4780   24.0826  -27.2872 H   0  0  0  0  0  0  0  0  0  0  0  0
   -0.2849   23.3591  -28.4184 H   0  0  0  0  0  0  0  0  0  0  0  0
   -0.5607   25.1341  -28.4184 H   0  0  0  0  0  0  0  0  0  0  0  0
   -6.4603   24.5188  -28.9289 H   0  0  0  0  0  0  0  0  0  0  0  0
   -7.6395   25.5731  -29.8014 H   0  0  0  0  0  0  0  0  0  0  0  0
   -7.4962   22.1362  -29.6002 H   0  0  0  0  0  0  0  0  0  0  0  0
   -9.5938   20.5276  -31.3663 H   0  0  0  0  0  0  0  0  0  0  0  0
   -9.9318   18.0795  -31.6923 H   0  0  0  0  0  0  0  0  0  0  0  0
   -8.0503   16.6506  -32.4946 H   0  0  0  0  0  0  0  0  0  0  0  0
   -5.8202   17.6691  -32.9638 H   0  0  0  0  0  0  0  0  0  0  0  0
   -5.4669   20.1155  -32.6300 H   0  0  0  0  0  0  0  0  0  0  0  0
   -6.9040   22.5530  -33.7340 H   0  0  0  0  0  0  0  0  0  0  0  0
  1  2  1  0
  2  3  2  0
  3  4  1  0
  4  5  1  0
  4  6  2  0
  6  7  1  0
  7  8  1  0
  8  9  1  0
  9 10  1  0
 10 11  2  0
 11 12  1  0
 12 13  1  0
 13 14  2  0
 14 15  1  0
 15 16  2  0
 16 17  1  0
 17 18  2  0
 12 19  1  0
 19 20  2  0
  7 21  2  0
 21  2  1  0
 20 10  1  0
 18 13  1  0
  1 22  1  0
  1 23  1  0
  1 24  1  0
  3 25  1  0
  5 26  1  0
  5 27  1  0
  5 28  1  0
  9 29  1  0
  9 30  1  0
 11 31  1  0
 14 32  1  0
 15 33  1  0
 16 34  1  0
 17 35  1  0
 18 36  1  0
 19 37  1  0
M  CHG  1  19   1
M  END
>  <UniqueID>  (47) 
47

>  <SMILES>  (47) 
Cc1cc(C)nc(SCc2cn(-c3ccccc3)[nH+]n2)n1

>  <Energy>  (47) 
68.93846454117082

>  <Genealogy>  (47) 
Cc1cc(C)nc(SCc2cn(-c3ccccc3)[nH+]n2)n1 (protonated)
Cc1cc(C)nc(SCc2cn(-c3ccccc3)[nH+]n2)n1 (3D coordinates assigned)
Cc1cc(C)nc(SCc2cn(-c3ccccc3)[nH+]n2)n1 (optimized conformer: 68.93846454117082 kcal/mol)

>  <smiles>  (47) 
Cc1cc(C)nc(SCc2cn(-c3ccccc3)nn2)n1

>  <score_type>  (47) 
oracle

>  <origin>  (47) 
adg

>  <m_score__min__energy>  (47) 
-8.3900000000000006

>  <m_primary>  (47) 
energy

$$$$
