0:0
     RDKit          3D

 54 58  0  0  0  0  0  0  0  0999 V2000
   -2.5000   17.9900  -32.9640 C   0  0  0  0  0  0  0  0  0  0  0  0
   -3.6480   18.7820  -33.4010 N   0  0  0  0  0  0  0  0  0  0  0  0
   -4.8430   18.3690  -33.8910 C   0  0  0  0  0  0  0  0  0  0  0  0
   -5.2510   16.9660  -34.1220 C   0  0  0  0  0  0  0  0  0  0  0  0
   -6.6020   16.5830  -34.0910 C   0  0  0  0  0  0  0  0  0  0  0  0
   -6.9430   15.2400  -34.2800 C   0  0  0  0  0  0  0  0  0  0  0  0
   -5.9710   14.3100  -34.4720 N   0  0  0  0  0  0  0  0  0  0  0  0
   -4.6540   14.6500  -34.4840 C   0  0  0  0  0  0  0  0  0  0  0  0
   -4.2720   15.9800  -34.3040 C   0  0  0  0  0  0  0  0  0  0  0  0
   -5.6500   19.4160  -34.1630 N   0  0  0  0  0  0  0  0  0  0  0  0
   -4.9600   20.5060  -33.8710 N   0  0  0  0  0  0  0  0  0  0  0  0
   -3.7520   20.1260  -33.4240 C   0  0  0  0  0  0  0  0  0  0  0  0
   -2.4510   21.2710  -32.9500 S   0  0  0  0  0  0  0  0  0  0  0  0
   -2.5340   20.8790  -31.1620 C   0  0  0  0  0  0  0  0  0  0  0  0
   -3.6220   21.6910  -30.4530 C   0  0  0  0  0  0  0  0  0  0  0  0
   -3.5790   23.1890  -30.8400 C   0  0  0  0  0  0  0  0  0  0  0  0
   -4.8740   23.7410  -31.2990 N   0  0  0  0  0  0  0  0  0  0  0  0
   -5.8140   24.0430  -30.2050 C   0  0  0  0  0  0  0  0  0  0  0  0
   -7.0760   23.2240  -30.4150 C   0  0  1  0  0  0  0  0  0  0  0  0
   -7.9580   23.6570  -31.5790 C   0  0  0  0  0  0  0  0  0  0  0  0
   -6.9280   22.5460  -31.7560 C   0  0  2  0  0  0  0  0  0  0  0  0
   -7.4450   21.1360  -31.8700 C   0  0  0  0  0  0  0  0  0  0  0  0
   -8.7320   20.8750  -32.3700 C   0  0  0  0  0  0  0  0  0  0  0  0
   -9.2120   19.5630  -32.4320 C   0  0  0  0  0  0  0  0  0  0  0  0
   -8.4160   18.5040  -31.9860 C   0  0  0  0  0  0  0  0  0  0  0  0
   -7.1400   18.7560  -31.4730 C   0  0  0  0  0  0  0  0  0  0  0  0
   -6.1430   17.4290  -30.9030 Cl  0  0  0  0  0  0  0  0  0  0  0  0
   -6.6570   20.0690  -31.4090 C   0  0  0  0  0  0  0  0  0  0  0  0
   -5.5620   22.9170  -32.3070 C   0  0  0  0  0  0  0  0  0  0  0  0
   -2.4672   17.9674  -31.8647 H   0  0  0  0  0  0  0  0  0  0  0  0
   -2.5944   16.9640  -33.3492 H   0  0  0  0  0  0  0  0  0  0  0  0
   -1.5743   18.4425  -33.3492 H   0  0  0  0  0  0  0  0  0  0  0  0
   -7.3867   17.3345  -33.9192 H   0  0  0  0  0  0  0  0  0  0  0  0
   -8.0001   14.9359  -34.2732 H   0  0  0  0  0  0  0  0  0  0  0  0
   -3.8884   13.8749  -34.6359 H   0  0  0  0  0  0  0  0  0  0  0  0
   -3.2065   16.2534  -34.3050 H   0  0  0  0  0  0  0  0  0  0  0  0
   -5.3150   21.4810  -33.9800 H   0  0  0  0  0  0  0  0  0  0  0  0
   -2.7536   19.8079  -31.0419 H   0  0  0  0  0  0  0  0  0  0  0  0
   -1.5649   21.1364  -30.7096 H   0  0  0  0  0  0  0  0  0  0  0  0
   -4.6053   21.2821  -30.7283 H   0  0  0  0  0  0  0  0  0  0  0  0
   -3.4468   21.6169  -29.3696 H   0  0  0  0  0  0  0  0  0  0  0  0
   -3.2537   23.7623  -29.9594 H   0  0  0  0  0  0  0  0  0  0  0  0
   -2.8840   23.2736  -31.6884 H   0  0  0  0  0  0  0  0  0  0  0  0
   -5.3570   23.7797  -29.2397 H   0  0  0  0  0  0  0  0  0  0  0  0
   -6.0568   25.1159  -30.2017 H   0  0  0  0  0  0  0  0  0  0  0  0
   -7.3167   22.9664  -29.3730 H   0  0  0  0  0  0  0  0  0  0  0  0
   -9.0318   23.4185  -31.5761 H   0  0  0  0  0  0  0  0  0  0  0  0
   -8.1736   24.6103  -32.0836 H   0  0  0  0  0  0  0  0  0  0  0  0
   -9.3647   21.7064  -32.7142 H   0  0  0  0  0  0  0  0  0  0  0  0
  -10.2171   19.3641  -32.8322 H   0  0  0  0  0  0  0  0  0  0  0  0
   -8.7936   17.4722  -32.0386 H   0  0  0  0  0  0  0  0  0  0  0  0
   -5.6565   20.2652  -30.9960 H   0  0  0  0  0  0  0  0  0  0  0  0
   -4.9791   22.0054  -32.5052 H   0  0  0  0  0  0  0  0  0  0  0  0
   -5.6683   23.4748  -33.2491 H   0  0  0  0  0  0  0  0  0  0  0  0
  1  2  1  0
  2  3  1  0
  3  4  1  0
  4  5  2  0
  5  6  1  0
  6  7  2  0
  7  8  1  0
  8  9  2  0
  3 10  2  0
 10 11  1  0
 11 12  2  0
 12 13  1  0
 13 14  1  0
 14 15  1  0
 15 16  1  0
 16 17  1  0
 17 18  1  0
 18 19  1  0
 19 20  1  0
 20 21  1  0
 21 22  1  1
 22 23  2  0
 23 24  1  0
 24 25  2  0
 25 26  1  0
 26 27  1  0
 26 28  2  0
 21 29  1  0
 12  2  1  0
 29 17  1  0
  9  4  1  0
 21 19  1  0
 28 22  1  0
  1 30  1  0
  1 31  1  0
  1 32  1  0
  5 33  1  0
  6 34  1  0
  8 35  1  0
  9 36  1  0
 11 37  1  0
 14 38  1  0
 14 39  1  0
 15 40  1  0
 15 41  1  0
 16 42  1  0
 16 43  1  0
 18 44  1  0
 18 45  1  0
 19 46  1  1
 20 47  1  0
 20 48  1  0
 23 49  1  0
 24 50  1  0
 25 51  1  0
 28 52  1  0
 29 53  1  0
 29 54  1  0
M  CHG  1  11   1
M  END
>  <UniqueID>  (1) 
1

>  <SMILES>  (1) 
Cn1c(-c2ccncc2)n[nH+]c1SCCCN1C[C@H]2C[C@@]2(c2cccc(Cl)c2)C1

>  <Energy>  (1) 
368.2269532046132

>  <Genealogy>  (1) 
Cn1c(-c2ccncc2)n[nH+]c1SCCCN1CC2CC2(c2cccc(Cl)c2)C1 (protonated)
Cn1c(-c2ccncc2)n[nH+]c1SCCCN1C[C@H]2C[C@@]2(c2cccc(Cl)c2)C1 (chirality)
Cn1c(-c2ccncc2)n[nH+]c1SCCCN1C[C@H]2C[C@@]2(c2cccc(Cl)c2)C1 (3D coordinates assigned)
Cn1c(-c2ccncc2)n[nH+]c1SCCCN1C[C@H]2C[C@@]2(c2cccc(Cl)c2)C1 (nonaromatic ring conformer: 368.2269532046132 kcal/mol)

>  <smiles>  (1) 
Cn1c(SCCCN2CC3CC3(c3cccc(Cl)c3)C2)nnc1-c1ccncc1

>  <score_type>  (1) 
oracle

>  <origin>  (1) 
adg

>  <m_score__min__energy>  (1) 
-9.5899999999999999

>  <m_primary>  (1) 
energy

$$$$
1:0
     RDKit          3D

 58 62  0  0  0  0  0  0  0  0999 V2000
   -0.4810   14.0190  -31.5460 C   0  0  0  0  0  0  0  0  0  0  0  0
   -1.5120   13.3460  -32.4670 C   0  0  0  0  0  0  0  0  0  0  0  0
   -2.6320   14.2210  -32.9300 N   0  0  1  0  0  0  0  0  0  0  0  0
   -2.2270   15.6520  -33.0070 C   0  0  0  0  0  0  0  0  0  0  0  0
   -3.3690   16.5040  -33.6180 C   0  0  0  0  0  0  0  0  0  0  0  0
   -4.5820   15.6700  -33.8460 N   0  0  1  0  0  0  0  0  0  0  0  0
   -5.7470   16.4810  -34.3190 C   0  0  0  0  0  0  0  0  0  0  0  0
   -6.8810   16.7280  -33.2830 C   0  0  0  0  0  0  0  0  0  0  0  0
   -7.0040   18.1810  -32.8800 C   0  0  0  0  0  0  0  0  0  0  0  0
   -8.1370   18.6430  -32.1990 C   0  0  0  0  0  0  0  0  0  0  0  0
   -8.2510   19.9870  -31.8480 C   0  0  0  0  0  0  0  0  0  0  0  0
   -7.2270   20.9070  -32.1440 C   0  0  0  0  0  0  0  0  0  0  0  0
   -6.0680   20.4390  -32.8000 C   0  0  0  0  0  0  0  0  0  0  0  0
   -5.9610   19.0800  -33.1480 C   0  0  0  0  0  0  0  0  0  0  0  0
   -4.9180   21.3570  -33.0870 C   0  0  0  0  0  0  0  0  0  0  0  0
   -4.3480   21.8710  -31.7670 C   0  0  0  0  0  0  0  0  0  0  0  0
   -5.0400   23.1190  -31.3040 C   0  0  0  0  0  0  0  0  0  0  0  0
   -4.2490   24.1130  -30.8100 N   0  0  0  0  0  0  0  0  0  0  0  0
   -4.7540   25.2930  -30.3750 C   0  0  0  0  0  0  0  0  0  0  0  0
   -6.1240   25.5050  -30.4280 C   0  0  0  0  0  0  0  0  0  0  0  0
   -6.9280   24.5220  -30.9040 N   0  0  0  0  0  0  0  0  0  0  0  0
   -6.4480   23.3220  -31.3410 C   0  0  0  0  0  0  0  0  0  0  0  0
   -7.4630   22.3440  -31.8260 C   0  0  0  0  0  0  0  0  0  0  0  0
   -8.6470   22.7640  -31.9410 O   0  0  0  0  0  0  0  0  0  0  0  0
   -4.2450   14.5880  -34.8100 C   0  0  0  0  0  0  0  0  0  0  0  0
   -3.0370   13.7700  -34.2930 C   0  0  0  0  0  0  0  0  0  0  0  0
   -4.9590   15.0230  -32.5560 C   0  0  0  0  0  0  0  0  0  0  0  0
   -3.8180   14.1120  -32.0380 C   0  0  0  0  0  0  0  0  0  0  0  0
   -0.7553   13.8399  -30.4959 H   0  0  0  0  0  0  0  0  0  0  0  0
    0.5159   13.5972  -31.7416 H   0  0  0  0  0  0  0  0  0  0  0  0
   -0.4660   15.1014  -31.7416 H   0  0  0  0  0  0  0  0  0  0  0  0
   -0.9810   12.9766  -33.3567 H   0  0  0  0  0  0  0  0  0  0  0  0
   -1.9790   12.5515  -31.8664 H   0  0  0  0  0  0  0  0  0  0  0  0
   -2.0016   16.0200  -31.9952 H   0  0  0  0  0  0  0  0  0  0  0  0
   -1.3363   15.7371  -33.6469 H   0  0  0  0  0  0  0  0  0  0  0  0
   -3.6182   17.3230  -32.9272 H   0  0  0  0  0  0  0  0  0  0  0  0
   -3.0312   16.9093  -34.5832 H   0  0  0  0  0  0  0  0  0  0  0  0
   -5.3650   17.4620  -34.6380 H   0  0  0  0  0  0  0  0  0  0  0  0
   -6.2085   15.8898  -35.1236 H   0  0  0  0  0  0  0  0  0  0  0  0
   -7.8355   16.4039  -33.7234 H   0  0  0  0  0  0  0  0  0  0  0  0
   -6.6320   16.1544  -32.3780 H   0  0  0  0  0  0  0  0  0  0  0  0
   -8.9425   17.9404  -31.9393 H   0  0  0  0  0  0  0  0  0  0  0  0
   -9.1571   20.3352  -31.3305 H   0  0  0  0  0  0  0  0  0  0  0  0
   -5.0454   18.7168  -33.6377 H   0  0  0  0  0  0  0  0  0  0  0  0
   -4.1381   20.8098  -33.6368 H   0  0  0  0  0  0  0  0  0  0  0  0
   -5.2636   22.2048  -33.6967 H   0  0  0  0  0  0  0  0  0  0  0  0
   -4.4701   21.0919  -31.0001 H   0  0  0  0  0  0  0  0  0  0  0  0
   -3.2861   22.1102  -31.9257 H   0  0  0  0  0  0  0  0  0  0  0  0
   -4.0851   26.0740  -29.9843 H   0  0  0  0  0  0  0  0  0  0  0  0
   -6.5531   26.4591  -30.0880 H   0  0  0  0  0  0  0  0  0  0  0  0
   -5.1124   13.9215  -34.9262 H   0  0  0  0  0  0  0  0  0  0  0  0
   -3.9855   15.0384  -35.7794 H   0  0  0  0  0  0  0  0  0  0  0  0
   -3.3134   12.7060  -34.2528 H   0  0  0  0  0  0  0  0  0  0  0  0
   -2.1907   13.9219  -34.9790 H   0  0  0  0  0  0  0  0  0  0  0  0
   -5.1638   15.8035  -31.8084 H   0  0  0  0  0  0  0  0  0  0  0  0
   -5.8534   14.4046  -32.7221 H   0  0  0  0  0  0  0  0  0  0  0  0
   -3.5379   14.4226  -31.0206 H   0  0  0  0  0  0  0  0  0  0  0  0
   -4.1665   13.0687  -32.0281 H   0  0  0  0  0  0  0  0  0  0  0  0
  1  2  1  0
  3  2  1  1
  3  4  1  0
  4  5  1  0
  5  6  1  0
  6  7  1  6
  7  8  1  0
  8  9  1  0
  9 10  2  0
 10 11  1  0
 11 12  2  0
 12 13  1  0
 13 14  2  0
 13 15  1  0
 15 16  1  0
 16 17  1  0
 17 18  2  0
 18 19  1  0
 19 20  2  0
 20 21  1  0
 21 22  2  0
 22 23  1  0
 23 24  2  0
  6 25  1  0
 25 26  1  0
  6 27  1  0
 27 28  1  0
 26  3  1  0
 28  3  1  0
 14  9  1  0
 22 17  1  0
 23 12  1  0
  1 29  1  0
  1 30  1  0
  1 31  1  0
  2 32  1  0
  2 33  1  0
  4 34  1  0
  4 35  1  0
  5 36  1  0
  5 37  1  0
  7 38  1  0
  7 39  1  0
  8 40  1  0
  8 41  1  0
 10 42  1  0
 11 43  1  0
 14 44  1  0
 15 45  1  0
 15 46  1  0
 16 47  1  0
 16 48  1  0
 19 49  1  0
 20 50  1  0
 25 51  1  0
 25 52  1  0
 26 53  1  0
 26 54  1  0
 27 55  1  0
 27 56  1  0
 28 57  1  0
 28 58  1  0
M  CHG  2   3   1   6   1
M  END
>  <UniqueID>  (2) 
2

>  <SMILES>  (2) 
CC[N+]12CC[N+](CCc3ccc4c(c3)CCc3nccnc3C4=O)(CC1)CC2

>  <Energy>  (2) 
107.2605971868749

>  <Genealogy>  (2) 
CC[N+]12CC[N+](CCc3ccc4c(c3)CCc3nccnc3C4=O)(CC1)CC2 (3D coordinates assigned)
CC[N+]12CC[N+](CCc3ccc4c(c3)CCc3nccnc3C4=O)(CC1)CC2 (nonaromatic ring conformer: 107.2605971868749 kcal/mol)

>  <smiles>  (2) 
CC[N+]12CC[N+](CCc3ccc4c(c3)CCc3nccnc3C4=O)(CC1)CC2

>  <score_type>  (2) 
oracle

>  <origin>  (2) 
adg

>  <m_score__min__energy>  (2) 
-6.8099999999999996

>  <m_primary>  (2) 
energy

$$$$
2:0
     RDKit          3D

 50 53  0  0  0  0  0  0  0  0999 V2000
   -6.1720   25.6690  -29.5090 C   0  0  0  0  0  0  0  0  0  0  0  0
   -5.4380   25.5400  -30.8330 C   0  0  0  0  0  0  0  0  0  0  0  0
   -4.1830   24.9110  -30.6070 O   0  0  0  0  0  0  0  0  0  0  0  0
   -4.2370   23.5460  -30.8000 N   0  0  0  0  0  0  0  0  0  0  0  0
   -4.8640   22.8030  -29.6930 C   0  0  0  0  0  0  0  0  0  0  0  0
   -2.9630   22.9610  -31.2600 C   0  0  0  0  0  0  0  0  0  0  0  0
   -3.2010   21.8370  -32.2760 C   0  0  0  0  0  0  0  0  0  0  0  0
   -4.4680   22.0360  -32.9770 N   0  0  0  0  0  0  0  0  0  0  0  0
   -5.5610   21.1210  -32.8140 C   0  0  0  0  0  0  0  0  0  0  0  0
   -5.3960   19.7650  -33.0730 C   0  0  0  0  0  0  0  0  0  0  0  0
   -6.4260   18.8650  -32.8570 C   0  0  0  0  0  0  0  0  0  0  0  0
   -7.6430   19.2510  -32.3570 N   0  0  0  0  0  0  0  0  0  0  0  0
   -8.6520   18.2320  -32.0150 C   0  0  0  0  0  0  0  0  0  0  0  0
   -7.8880   20.6050  -32.1930 C   0  0  0  0  0  0  0  0  0  0  0  0
   -9.1710   21.0930  -31.8400 C   0  0  0  0  0  0  0  0  0  0  0  0
   -9.3910   22.4560  -31.6360 C   0  0  0  0  0  0  0  0  0  0  0  0
   -8.3520   23.3670  -31.7860 C   0  0  0  0  0  0  0  0  0  0  0  0
   -7.0850   22.9290  -32.1670 C   0  0  0  0  0  0  0  0  0  0  0  0
   -6.8370   21.5610  -32.3940 C   0  0  0  0  0  0  0  0  0  0  0  0
   -5.9590   17.5400  -33.3030 C   0  0  0  0  0  0  0  0  0  0  0  0
   -6.6400   16.3680  -33.3850 N   0  0  0  0  0  0  0  0  0  0  0  0
   -6.0250   15.2620  -33.9010 C   0  0  0  0  0  0  0  0  0  0  0  0
   -4.6990   15.3350  -34.3730 C   0  0  0  0  0  0  0  0  0  0  0  0
   -4.0070   16.5550  -34.3190 C   0  0  0  0  0  0  0  0  0  0  0  0
   -4.6680   17.6520  -33.7730 C   0  0  0  0  0  0  0  0  0  0  0  0
   -4.2610   19.0430  -33.6590 C   0  0  0  0  0  0  0  0  0  0  0  0
   -3.1790   19.5370  -34.0720 O   0  0  0  0  0  0  0  0  0  0  0  0
   -5.4590   25.5437  -28.6808 H   0  0  0  0  0  0  0  0  0  0  0  0
   -6.6387   26.6629  -29.4438 H   0  0  0  0  0  0  0  0  0  0  0  0
   -6.9497   24.8938  -29.4438 H   0  0  0  0  0  0  0  0  0  0  0  0
   -6.0354   24.9319  -31.5282 H   0  0  0  0  0  0  0  0  0  0  0  0
   -5.2807   26.5374  -31.2695 H   0  0  0  0  0  0  0  0  0  0  0  0
   -4.5175   23.2136  -28.7331 H   0  0  0  0  0  0  0  0  0  0  0  0
   -5.9577   22.8996  -29.7597 H   0  0  0  0  0  0  0  0  0  0  0  0
   -4.5849   21.7411  -29.7597 H   0  0  0  0  0  0  0  0  0  0  0  0
   -2.3569   23.7483  -31.7320 H   0  0  0  0  0  0  0  0  0  0  0  0
   -2.4409   22.5374  -30.3894 H   0  0  0  0  0  0  0  0  0  0  0  0
   -2.3799   21.8317  -33.0080 H   0  0  0  0  0  0  0  0  0  0  0  0
   -3.2396   20.8772  -31.7400 H   0  0  0  0  0  0  0  0  0  0  0  0
   -4.6230   22.9260  -33.5000 H   0  0  0  0  0  0  0  0  0  0  0  0
   -8.7337   18.1495  -30.9211 H   0  0  0  0  0  0  0  0  0  0  0  0
   -9.6258   18.5250  -32.4343 H   0  0  0  0  0  0  0  0  0  0  0  0
   -8.3494   17.2611  -32.4343 H   0  0  0  0  0  0  0  0  0  0  0  0
  -10.0063   20.3865  -31.7250 H   0  0  0  0  0  0  0  0  0  0  0  0
  -10.3932   22.8116  -31.3547 H   0  0  0  0  0  0  0  0  0  0  0  0
   -8.5303   24.4370  -31.6034 H   0  0  0  0  0  0  0  0  0  0  0  0
   -6.2710   23.6583  -32.2916 H   0  0  0  0  0  0  0  0  0  0  0  0
   -6.5692   14.3072  -33.9483 H   0  0  0  0  0  0  0  0  0  0  0  0
   -4.2084   14.4395  -34.7821 H   0  0  0  0  0  0  0  0  0  0  0  0
   -2.9770   16.6415  -34.6954 H   0  0  0  0  0  0  0  0  0  0  0  0
  1  2  1  0
  2  3  1  0
  3  4  1  0
  4  5  1  0
  4  6  1  0
  6  7  1  0
  7  8  1  0
  8  9  1  0
  9 10  2  0
 10 11  1  0
 11 12  2  0
 12 13  1  0
 12 14  1  0
 14 15  2  0
 15 16  1  0
 16 17  2  0
 17 18  1  0
 18 19  2  0
 11 20  1  0
 20 21  2  0
 21 22  1  0
 22 23  2  0
 23 24  1  0
 24 25  2  0
 25 26  1  0
 26 27  2  0
 19  9  1  0
 25 20  1  0
 26 10  1  0
 19 14  1  0
  1 28  1  0
  1 29  1  0
  1 30  1  0
  2 31  1  0
  2 32  1  0
  5 33  1  0
  5 34  1  0
  5 35  1  0
  6 36  1  0
  6 37  1  0
  7 38  1  0
  7 39  1  0
  8 40  1  0
 13 41  1  0
 13 42  1  0
 13 43  1  0
 15 44  1  0
 16 45  1  0
 17 46  1  0
 18 47  1  0
 22 48  1  0
 23 49  1  0
 24 50  1  0
M  CHG  1  12   1
M  END
>  <UniqueID>  (3) 
3

>  <SMILES>  (3) 
CCON(C)CCNc1c2c([n+](C)c3ccccc13)-c1ncccc1C2=O

>  <Energy>  (3) 
113.52665593278458

>  <Genealogy>  (3) 
CCON(C)CCNc1c2c([n+](C)c3ccccc13)-c1ncccc1C2=O (3D coordinates assigned)
CCON(C)CCNc1c2c([n+](C)c3ccccc13)-c1ncccc1C2=O (nonaromatic ring conformer: 113.52665593278458 kcal/mol)

>  <smiles>  (3) 
CCON(C)CCNc1c2c([n+](C)c3ccccc13)-c1ncccc1C2=O

>  <score_type>  (3) 
oracle

>  <origin>  (3) 
adg

>  <m_score__min__energy>  (3) 
-9.8800000000000008

>  <m_primary>  (3) 
energy

$$$$
3:0
     RDKit          3D

 46 47  0  0  0  0  0  0  0  0999 V2000
   -5.7170   17.1390  -34.6820 C   0  0  0  0  0  0  0  0  0  0  0  0
   -6.4510   16.2600  -33.6750 C   0  0  0  0  0  0  0  0  0  0  0  0
   -6.8220   17.0140  -32.5200 O   0  0  0  0  0  0  0  0  0  0  0  0
   -6.8670   18.4150  -32.4390 C   0  0  0  0  0  0  0  0  0  0  0  0
   -5.7500   19.1950  -32.0790 C   0  0  0  0  0  0  0  0  0  0  0  0
   -5.8550   20.5880  -32.0130 C   0  0  0  0  0  0  0  0  0  0  0  0
   -7.0710   21.2220  -32.3080 C   0  0  0  0  0  0  0  0  0  0  0  0
   -7.1760   22.7230  -32.2190 C   0  0  0  0  0  0  0  0  0  0  0  0
   -7.4710   23.1380  -30.8310 N   0  0  0  0  0  0  0  0  0  0  0  0
   -8.3350   22.1350  -30.1840 C   0  0  0  0  0  0  0  0  0  0  0  0
   -6.2250   23.3290  -30.0550 C   0  0  0  0  0  0  0  0  0  0  0  0
   -6.0090   24.8180  -29.7110 C   0  0  0  0  0  0  0  0  0  0  0  0
   -5.3070   25.5760  -30.8450 C   0  0  0  0  0  0  0  0  0  0  0  0
   -3.8700   25.3110  -30.8300 N   0  0  0  0  0  0  0  0  0  0  0  0
   -3.2060   24.3060  -30.0510 C   0  0  0  0  0  0  0  0  0  0  0  0
   -3.2360   23.1130  -30.4510 O   0  0  0  0  0  0  0  0  0  0  0  0
   -2.4690   24.6150  -28.8150 C   0  0  0  0  0  0  0  0  0  0  0  0
   -2.4240   23.8490  -27.6640 C   0  0  0  0  0  0  0  0  0  0  0  0
   -1.5970   24.5260  -26.7950 C   0  0  0  0  0  0  0  0  0  0  0  0
   -1.1810   25.6520  -27.4740 C   0  0  0  0  0  0  0  0  0  0  0  0
   -0.0050   26.9880  -26.7910 Br  0  0  0  0  0  0  0  0  0  0  0  0
   -1.7090   25.6760  -28.6750 O   0  0  0  0  0  0  0  0  0  0  0  0
   -8.1810   20.4460  -32.6730 C   0  0  0  0  0  0  0  0  0  0  0  0
   -8.0750   19.0550  -32.7380 C   0  0  0  0  0  0  0  0  0  0  0  0
   -5.1016   17.8760  -34.1453 H   0  0  0  0  0  0  0  0  0  0  0  0
   -5.0706   16.5118  -35.3135 H   0  0  0  0  0  0  0  0  0  0  0  0
   -6.4494   17.6632  -35.3135 H   0  0  0  0  0  0  0  0  0  0  0  0
   -7.3575   15.8518  -34.1458 H   0  0  0  0  0  0  0  0  0  0  0  0
   -5.7811   15.4448  -33.3640 H   0  0  0  0  0  0  0  0  0  0  0  0
   -4.7917   18.7063  -31.8490 H   0  0  0  0  0  0  0  0  0  0  0  0
   -4.9793   21.1897  -31.7282 H   0  0  0  0  0  0  0  0  0  0  0  0
   -6.2236   23.1724  -32.5369 H   0  0  0  0  0  0  0  0  0  0  0  0
   -7.9918   23.0629  -32.8739 H   0  0  0  0  0  0  0  0  0  0  0  0
   -8.2528   22.2304  -29.0912 H   0  0  0  0  0  0  0  0  0  0  0  0
   -9.3791   22.2991  -30.4889 H   0  0  0  0  0  0  0  0  0  0  0  0
   -8.0181   21.1267  -30.4889 H   0  0  0  0  0  0  0  0  0  0  0  0
   -6.2904   22.7503  -29.1218 H   0  0  0  0  0  0  0  0  0  0  0  0
   -5.3768   22.9840  -30.6645 H   0  0  0  0  0  0  0  0  0  0  0  0
   -6.9876   25.2847  -29.5249 H   0  0  0  0  0  0  0  0  0  0  0  0
   -5.3662   24.8701  -28.8199 H   0  0  0  0  0  0  0  0  0  0  0  0
   -5.7243   25.2508  -31.8094 H   0  0  0  0  0  0  0  0  0  0  0  0
   -5.4696   26.6547  -30.7036 H   0  0  0  0  0  0  0  0  0  0  0  0
   -2.9418   22.8960  -27.4806 H   0  0  0  0  0  0  0  0  0  0  0  0
   -1.3247   24.2298  -25.7712 H   0  0  0  0  0  0  0  0  0  0  0  0
   -9.1379   20.9346  -32.9088 H   0  0  0  0  0  0  0  0  0  0  0  0
   -8.9509   18.4558  -33.0275 H   0  0  0  0  0  0  0  0  0  0  0  0
  1  2  1  0
  2  3  1  0
  3  4  1  0
  4  5  2  0
  5  6  1  0
  6  7  2  0
  7  8  1  0
  8  9  1  0
  9 10  1  0
  9 11  1  0
 11 12  1  0
 12 13  1  0
 13 14  1  0
 14 15  1  0
 15 16  2  0
 15 17  1  0
 17 18  2  0
 18 19  1  0
 19 20  2  0
 20 21  1  0
 20 22  1  0
  7 23  1  0
 23 24  2  0
 24  4  1  0
 22 17  1  0
  1 25  1  0
  1 26  1  0
  1 27  1  0
  2 28  1  0
  2 29  1  0
  5 30  1  0
  6 31  1  0
  8 32  1  0
  8 33  1  0
 10 34  1  0
 10 35  1  0
 10 36  1  0
 11 37  1  0
 11 38  1  0
 12 39  1  0
 12 40  1  0
 13 41  1  0
 13 42  1  0
 18 43  1  0
 19 44  1  0
 23 45  1  0
 24 46  1  0
M  CHG  1  14  -1
M  END
>  <UniqueID>  (4) 
4

>  <SMILES>  (4) 
CCOc1ccc(CN(C)CCC[N-]C(=O)c2ccc(Br)o2)cc1

>  <Energy>  (4) 
71.73479662795776

>  <Genealogy>  (4) 
CCOc1ccc(CN(C)CCC[N-]C(=O)c2ccc(Br)o2)cc1 (protonated)
CCOc1ccc(CN(C)CCC[N-]C(=O)c2ccc(Br)o2)cc1 (3D coordinates assigned)
CCOc1ccc(CN(C)CCC[N-]C(=O)c2ccc(Br)o2)cc1 (optimized conformer: 71.73479662795776 kcal/mol)

>  <smiles>  (4) 
CCOc1ccc(CN(C)CCCNC(=O)c2ccc(Br)o2)cc1

>  <score_type>  (4) 
oracle

>  <origin>  (4) 
adg

>  <m_score__min__energy>  (4) 
-9.9199999999999999

>  <m_primary>  (4) 
energy

$$$$
4:0
     RDKit          3D

 68 71  0  0  0  0  0  0  0  0999 V2000
   -4.1650   23.8950  -28.5680 C   0  0  0  0  0  0  0  0  0  0  0  0
   -3.5630   24.5140  -29.8280 C   0  0  0  0  0  0  0  0  0  0  0  0
   -4.5870   24.9180  -30.8280 N   0  0  0  0  0  0  0  0  0  0  0  0
   -5.6330   25.7170  -30.1360 C   0  0  0  0  0  0  0  0  0  0  0  0
   -6.9370   24.9350  -30.0040 C   0  0  0  0  0  0  0  0  0  0  0  0
   -5.2140   23.7380  -31.4880 C   0  0  0  0  0  0  0  0  0  0  0  0
   -4.1950   22.6650  -31.8930 C   0  0  0  0  0  0  0  0  0  0  0  0
   -4.6380   21.8910  -33.0560 N   0  0  0  0  0  0  0  0  0  0  0  0
   -5.1200   20.5390  -32.9130 C   0  0  0  0  0  0  0  0  0  0  0  0
   -6.4800   20.3230  -32.6270 C   0  0  0  0  0  0  0  0  0  0  0  0
   -7.2850   21.3660  -32.1280 C   0  0  0  0  0  0  0  0  0  0  0  0
   -8.6510   21.1880  -31.9350 C   0  0  0  0  0  0  0  0  0  0  0  0
   -9.2420   19.9690  -32.2440 C   0  0  0  0  0  0  0  0  0  0  0  0
   -8.4630   18.9130  -32.7130 C   0  0  0  0  0  0  0  0  0  0  0  0
   -7.0600   19.0510  -32.8810 C   0  0  0  0  0  0  0  0  0  0  0  0
   -6.2740   18.0050  -33.3240 N   0  0  0  0  0  0  0  0  0  0  0  0
   -6.8340   16.6360  -33.3830 C   0  0  0  0  0  0  0  0  0  0  0  0
   -4.9510   18.2250  -33.6590 C   0  0  0  0  0  0  0  0  0  0  0  0
   -4.2000   17.2620  -34.3760 C   0  0  0  0  0  0  0  0  0  0  0  0
   -2.8460   17.4510  -34.6270 C   0  0  0  0  0  0  0  0  0  0  0  0
   -2.1890   18.5660  -34.1230 C   0  0  0  0  0  0  0  0  0  0  0  0
   -2.8960   19.5560  -33.4220 C   0  0  0  0  0  0  0  0  0  0  0  0
   -2.1750   20.5740  -32.6940 N   0  0  0  0  0  0  0  0  0  0  0  0
   -1.3370   20.2900  -31.5230 C   0  0  0  0  0  0  0  0  0  0  0  0
   -1.7810   21.0990  -30.2980 C   0  0  0  0  0  0  0  0  0  0  0  0
   -1.7320   20.2910  -29.0810 N   0  0  0  0  0  0  0  0  0  0  0  0
   -0.7010   19.5330  -28.6550 C   0  0  0  0  0  0  0  0  0  0  0  0
   -1.0610   18.9500  -27.4570 C   0  0  0  0  0  0  0  0  0  0  0  0
   -2.3040   19.3640  -27.1440 N   0  0  0  0  0  0  0  0  0  0  0  0
   -3.1120   18.9240  -26.0130 C   0  0  0  0  0  0  0  0  0  0  0  0
   -2.6990   20.1650  -28.1510 C   0  0  0  0  0  0  0  0  0  0  0  0
   -4.3150   19.4500  -33.3170 C   0  0  0  0  0  0  0  0  0  0  0  0
   -3.7131   24.3597  -27.6793 H   0  0  0  0  0  0  0  0  0  0  0  0
   -5.2516   24.0659  -28.5587 H   0  0  0  0  0  0  0  0  0  0  0  0
   -3.9639   22.8136  -28.5587 H   0  0  0  0  0  0  0  0  0  0  0  0
   -2.9861   25.4048  -29.5388 H   0  0  0  0  0  0  0  0  0  0  0  0
   -2.9302   23.7474  -30.2990 H   0  0  0  0  0  0  0  0  0  0  0  0
   -5.2729   25.9840  -29.1315 H   0  0  0  0  0  0  0  0  0  0  0  0
   -5.8302   26.6193  -30.7335 H   0  0  0  0  0  0  0  0  0  0  0  0
   -7.1734   24.7933  -28.9391 H   0  0  0  0  0  0  0  0  0  0  0  0
   -7.7507   25.4943  -30.4889 H   0  0  0  0  0  0  0  0  0  0  0  0
   -6.8268   23.9538  -30.4889 H   0  0  0  0  0  0  0  0  0  0  0  0
   -5.9367   23.2894  -30.7906 H   0  0  0  0  0  0  0  0  0  0  0  0
   -5.6986   24.0953  -32.4086 H   0  0  0  0  0  0  0  0  0  0  0  0
   -3.2415   23.1562  -32.1368 H   0  0  0  0  0  0  0  0  0  0  0  0
   -4.0829   21.9699  -31.0478 H   0  0  0  0  0  0  0  0  0  0  0  0
   -4.5710   22.3230  -34.0050 H   0  0  0  0  0  0  0  0  0  0  0  0
   -6.8261   22.3363  -31.8872 H   0  0  0  0  0  0  0  0  0  0  0  0
   -9.2628   22.0115  -31.5381 H   0  0  0  0  0  0  0  0  0  0  0  0
  -10.3268   19.8373  -32.1182 H   0  0  0  0  0  0  0  0  0  0  0  0
   -8.9441   17.9545  -32.9576 H   0  0  0  0  0  0  0  0  0  0  0  0
   -6.9884   16.2586  -32.3613 H   0  0  0  0  0  0  0  0  0  0  0  0
   -7.7962   16.6561  -33.9157 H   0  0  0  0  0  0  0  0  0  0  0  0
   -6.1336   15.9760  -33.9157 H   0  0  0  0  0  0  0  0  0  0  0  0
   -4.6960   16.3501  -34.7400 H   0  0  0  0  0  0  0  0  0  0  0  0
   -2.2924   16.7142  -35.2275 H   0  0  0  0  0  0  0  0  0  0  0  0
   -1.1049   18.6745  -34.2744 H   0  0  0  0  0  0  0  0  0  0  0  0
   -2.3080   21.5700  -32.9790 H   0  0  0  0  0  0  0  0  0  0  0  0
   -1.4065   19.2180  -31.2865 H   0  0  0  0  0  0  0  0  0  0  0  0
   -0.3022   20.5741  -31.7649 H   0  0  0  0  0  0  0  0  0  0  0  0
   -1.1137   21.9654  -30.1798 H   0  0  0  0  0  0  0  0  0  0  0  0
   -2.8194   21.4258  -30.4559 H   0  0  0  0  0  0  0  0  0  0  0  0
    0.2606   19.4021  -29.1729 H   0  0  0  0  0  0  0  0  0  0  0  0
   -0.4400   18.2654  -26.8606 H   0  0  0  0  0  0  0  0  0  0  0  0
   -2.6087   19.1981  -25.0741 H   0  0  0  0  0  0  0  0  0  0  0  0
   -4.0980   19.4097  -26.0558 H   0  0  0  0  0  0  0  0  0  0  0  0
   -3.2390   17.8322  -26.0558 H   0  0  0  0  0  0  0  0  0  0  0  0
   -3.6831   20.6532  -28.2075 H   0  0  0  0  0  0  0  0  0  0  0  0
  1  2  1  0
  2  3  1  0
  3  4  1  0
  4  5  1  0
  3  6  1  0
  6  7  1  0
  7  8  1  0
  8  9  1  0
  9 10  2  0
 10 11  1  0
 11 12  2  0
 12 13  1  0
 13 14  2  0
 14 15  1  0
 15 16  2  0
 16 17  1  0
 16 18  1  0
 18 19  2  0
 19 20  1  0
 20 21  2  0
 21 22  1  0
 22 23  1  0
 23 24  1  0
 24 25  1  0
 25 26  1  0
 26 27  1  0
 27 28  2  0
 28 29  1  0
 29 30  1  0
 29 31  1  0
 22 32  2  0
 32  9  1  0
 15 10  1  0
 32 18  1  0
 31 26  2  0
  1 33  1  0
  1 34  1  0
  1 35  1  0
  2 36  1  0
  2 37  1  0
  4 38  1  0
  4 39  1  0
  5 40  1  0
  5 41  1  0
  5 42  1  0
  6 43  1  0
  6 44  1  0
  7 45  1  0
  7 46  1  0
  8 47  1  0
 11 48  1  0
 12 49  1  0
 13 50  1  0
 14 51  1  0
 17 52  1  0
 17 53  1  0
 17 54  1  0
 19 55  1  0
 20 56  1  0
 21 57  1  0
 23 58  1  0
 24 59  1  0
 24 60  1  0
 25 61  1  0
 25 62  1  0
 27 63  1  0
 28 64  1  0
 30 65  1  0
 30 66  1  0
 30 67  1  0
 31 68  1  0
M  CHG  2  16   1  26   1
M  END
>  <UniqueID>  (5) 
5

>  <SMILES>  (5) 
CCN(CC)CCNc1c2ccccc2[n+](C)c2cccc(NCC[n+]3ccn(C)c3)c12

>  <Energy>  (5) 
127.92608349633991

>  <Genealogy>  (5) 
CCN(CC)CCNc1c2ccccc2[n+](C)c2cccc(NCC[n+]3ccn(C)c3)c12 (3D coordinates assigned)
CCN(CC)CCNc1c2ccccc2[n+](C)c2cccc(NCC[n+]3ccn(C)c3)c12 (optimized conformer: 127.92608349633991 kcal/mol)

>  <smiles>  (5) 
CCN(CC)CCNc1c2ccccc2[n+](C)c2cccc(NCC[n+]3ccn(C)c3)c12

>  <score_type>  (5) 
oracle

>  <origin>  (5) 
adg

>  <m_score__min__energy>  (5) 
-8.9199999999999999

>  <m_primary>  (5) 
energy

$$$$
5:0
     RDKit          3D

 85 88  0  0  0  0  0  0  0  0999 V2000
   -0.7970   30.5020  -26.4110 C   0  0  0  0  0  0  0  0  0  0  0  0
   -0.9220   29.9830  -24.9830 C   0  0  0  0  0  0  0  0  0  0  0  0
    0.2550   29.0650  -24.6200 C   0  0  0  0  0  0  0  0  0  0  0  0
   -0.2180   27.6680  -24.1210 C   0  0  0  0  0  0  0  0  0  0  0  0
   -0.1800   26.5590  -25.1320 N   0  0  1  0  0  0  0  0  0  0  0  0
    1.2310   26.2860  -25.5200 C   0  0  0  0  0  0  0  0  0  0  0  0
   -0.8350   25.3410  -24.5740 C   0  0  0  0  0  0  0  0  0  0  0  0
   -1.0860   24.2340  -25.6200 C   0  0  0  0  0  0  0  0  0  0  0  0
   -1.8550   24.6940  -26.8120 N   0  0  2  0  0  0  0  0  0  0  0  0
   -3.2730   24.9710  -26.4560 C   0  0  0  0  0  0  0  0  0  0  0  0
   -1.7980   23.6510  -27.8890 C   0  0  0  0  0  0  0  0  0  0  0  0
   -1.7380   24.1830  -29.3390 C   0  0  0  0  0  0  0  0  0  0  0  0
   -2.9170   24.9340  -29.6320 O   0  0  0  0  0  0  0  0  0  0  0  0
   -4.1050   24.3550  -30.0900 C   0  0  0  0  0  0  0  0  0  0  0  0
   -5.3240   25.0350  -30.0340 C   0  0  0  0  0  0  0  0  0  0  0  0
   -6.4830   24.4470  -30.5390 C   0  0  0  0  0  0  0  0  0  0  0  0
   -6.4590   23.1500  -31.1100 C   0  0  0  0  0  0  0  0  0  0  0  0
   -5.2350   22.4330  -31.0840 C   0  0  0  0  0  0  0  0  0  0  0  0
   -4.0620   23.0710  -30.6280 C   0  0  0  0  0  0  0  0  0  0  0  0
   -5.2110   21.0870  -31.4830 C   0  0  0  0  0  0  0  0  0  0  0  0
   -4.0040   20.3170  -31.3340 N   0  0  0  0  0  0  0  0  0  0  0  0
   -3.1290   20.0340  -32.4750 C   0  0  0  0  0  0  0  0  0  0  0  0
   -2.3150   21.2800  -32.8580 C   0  0  0  0  0  0  0  0  0  0  0  0
   -1.7390   21.1790  -34.2120 N   0  0  0  0  0  0  0  0  0  0  0  0
   -0.5280   20.3420  -34.2390 C   0  0  0  0  0  0  0  0  0  0  0  0
    0.3260   20.5750  -32.9950 C   0  0  0  0  0  0  0  0  0  0  0  0
   -6.3970   20.4730  -31.9250 C   0  0  0  0  0  0  0  0  0  0  0  0
   -6.4030   19.1250  -32.3410 C   0  0  0  0  0  0  0  0  0  0  0  0
   -7.5890   18.5000  -32.7110 C   0  0  0  0  0  0  0  0  0  0  0  0
   -8.7870   19.2030  -32.6770 C   0  0  0  0  0  0  0  0  0  0  0  0
   -8.8000   20.5480  -32.3090 C   0  0  0  0  0  0  0  0  0  0  0  0
   -7.6020   21.2250  -31.9650 C   0  0  0  0  0  0  0  0  0  0  0  0
   -7.5890   22.5730  -31.6600 N   0  0  0  0  0  0  0  0  0  0  0  0
   -8.7720   23.4110  -31.9670 C   0  0  0  0  0  0  0  0  0  0  0  0
   -1.2230   25.9250  -27.3690 C   0  0  0  0  0  0  0  0  0  0  0  0
   -0.9490   27.0290  -26.3210 C   0  0  0  0  0  0  0  0  0  0  0  0
   -0.5395   31.5712  -26.3913 H   0  0  0  0  0  0  0  0  0  0  0  0
   -0.0075   29.9443  -26.9360 H   0  0  0  0  0  0  0  0  0  0  0  0
   -1.7538   30.3649  -26.9360 H   0  0  0  0  0  0  0  0  0  0  0  0
   -0.9371   30.8377  -24.2907 H   0  0  0  0  0  0  0  0  0  0  0  0
   -1.8532   29.4029  -24.9037 H   0  0  0  0  0  0  0  0  0  0  0  0
    0.8847   28.9278  -25.5114 H   0  0  0  0  0  0  0  0  0  0  0  0
    0.8150   29.5427  -23.8026 H   0  0  0  0  0  0  0  0  0  0  0  0
    0.4255   27.3765  -23.2778 H   0  0  0  0  0  0  0  0  0  0  0  0
   -1.2787   27.7916  -23.8571 H   0  0  0  0  0  0  0  0  0  0  0  0
    1.8439   26.1674  -24.6143 H   0  0  0  0  0  0  0  0  0  0  0  0
    1.2752   25.3626  -26.1162 H   0  0  0  0  0  0  0  0  0  0  0  0
    1.6165   27.1262  -26.1162 H   0  0  0  0  0  0  0  0  0  0  0  0
   -0.1891   24.9312  -23.7835 H   0  0  0  0  0  0  0  0  0  0  0  0
   -1.8194   25.6521  -24.1943 H   0  0  0  0  0  0  0  0  0  0  0  0
   -0.1124   23.8528  -25.9616 H   0  0  0  0  0  0  0  0  0  0  0  0
   -1.6925   23.4599  -25.1272 H   0  0  0  0  0  0  0  0  0  0  0  0
   -3.3789   24.9917  -25.3613 H   0  0  0  0  0  0  0  0  0  0  0  0
   -3.5720   25.9445  -26.8718 H   0  0  0  0  0  0  0  0  0  0  0  0
   -3.9164   24.1816  -26.8718 H   0  0  0  0  0  0  0  0  0  0  0  0
   -0.9013   23.0375  -27.7174 H   0  0  0  0  0  0  0  0  0  0  0  0
   -2.7432   23.0932  -27.8146 H   0  0  0  0  0  0  0  0  0  0  0  0
   -0.8559   24.8301  -29.4536 H   0  0  0  0  0  0  0  0  0  0  0  0
   -1.6691   23.3327  -30.0335 H   0  0  0  0  0  0  0  0  0  0  0  0
   -5.3698   26.0399  -29.5890 H   0  0  0  0  0  0  0  0  0  0  0  0
   -7.4330   24.9996  -30.4934 H   0  0  0  0  0  0  0  0  0  0  0  0
   -3.0980   22.5458  -30.6985 H   0  0  0  0  0  0  0  0  0  0  0  0
   -3.7770   19.9070  -30.4010 H   0  0  0  0  0  0  0  0  0  0  0  0
   -2.4390   19.2201  -32.2077 H   0  0  0  0  0  0  0  0  0  0  0  0
   -3.7512   19.7406  -33.3334 H   0  0  0  0  0  0  0  0  0  0  0  0
   -2.9750   22.1592  -32.8192 H   0  0  0  0  0  0  0  0  0  0  0  0
   -1.4826   21.3701  -32.1445 H   0  0  0  0  0  0  0  0  0  0  0  0
   -1.4830   22.1450  -34.5240 H   0  0  0  0  0  0  0  0  0  0  0  0
   -2.4530   20.8000  -34.8780 H   0  0  0  0  0  0  0  0  0  0  0  0
   -0.8234   19.2832  -34.2794 H   0  0  0  0  0  0  0  0  0  0  0  0
    0.0642   20.6110  -35.1261 H   0  0  0  0  0  0  0  0  0  0  0  0
   -0.2841   20.4085  -32.0950 H   0  0  0  0  0  0  0  0  0  0  0  0
    1.1751   19.8757  -32.9969 H   0  0  0  0  0  0  0  0  0  0  0  0
    0.7023   21.6086  -32.9969 H   0  0  0  0  0  0  0  0  0  0  0  0
   -5.4587   18.5618  -32.3731 H   0  0  0  0  0  0  0  0  0  0  0  0
   -7.5786   17.4476  -33.0310 H   0  0  0  0  0  0  0  0  0  0  0  0
   -9.7275   18.6973  -32.9410 H   0  0  0  0  0  0  0  0  0  0  0  0
   -9.7552   21.0930  -32.2851 H   0  0  0  0  0  0  0  0  0  0  0  0
   -9.2400   23.7425  -31.0284 H   0  0  0  0  0  0  0  0  0  0  0  0
   -8.4579   24.2891  -32.5503 H   0  0  0  0  0  0  0  0  0  0  0  0
   -9.4962   22.8234  -32.5503 H   0  0  0  0  0  0  0  0  0  0  0  0
   -0.2652   25.6422  -27.8301 H   0  0  0  0  0  0  0  0  0  0  0  0
   -1.9371   26.3466  -28.0918 H   0  0  0  0  0  0  0  0  0  0  0  0
   -0.3772   27.8332  -26.8071 H   0  0  0  0  0  0  0  0  0  0  0  0
   -1.9283   27.3688  -25.9529 H   0  0  0  0  0  0  0  0  0  0  0  0
  1  2  1  0
  2  3  1  0
  3  4  1  0
  5  4  1  1
  5  6  1  0
  5  7  1  0
  7  8  1  0
  8  9  1  0
  9 10  1  1
  9 11  1  0
 11 12  1  0
 12 13  1  0
 13 14  1  0
 14 15  2  0
 15 16  1  0
 16 17  2  0
 17 18  1  0
 18 19  2  0
 18 20  1  0
 20 21  1  0
 21 22  1  0
 22 23  1  0
 23 24  1  0
 24 25  1  0
 25 26  1  0
 20 27  2  0
 27 28  1  0
 28 29  2  0
 29 30  1  0
 30 31  2  0
 31 32  1  0
 32 33  2  0
 33 34  1  0
  9 35  1  0
 35 36  1  0
 36  5  1  0
 19 14  1  0
 32 27  1  0
 33 17  1  0
  1 37  1  0
  1 38  1  0
  1 39  1  0
  2 40  1  0
  2 41  1  0
  3 42  1  0
  3 43  1  0
  4 44  1  0
  4 45  1  0
  6 46  1  0
  6 47  1  0
  6 48  1  0
  7 49  1  0
  7 50  1  0
  8 51  1  0
  8 52  1  0
 10 53  1  0
 10 54  1  0
 10 55  1  0
 11 56  1  0
 11 57  1  0
 12 58  1  0
 12 59  1  0
 15 60  1  0
 16 61  1  0
 19 62  1  0
 21 63  1  0
 22 64  1  0
 22 65  1  0
 23 66  1  0
 23 67  1  0
 24 68  1  0
 24 69  1  0
 25 70  1  0
 25 71  1  0
 26 72  1  0
 26 73  1  0
 26 74  1  0
 28 75  1  0
 29 76  1  0
 30 77  1  0
 31 78  1  0
 34 79  1  0
 34 80  1  0
 34 81  1  0
 35 82  1  0
 35 83  1  0
 36 84  1  0
 36 85  1  0
M  CHG  4   5   1   9   1  24   1  33   1
M  END
>  <UniqueID>  (6) 
6

>  <SMILES>  (6) 
CCCC[N+]1(C)CC[N+](C)(CCOc2ccc3c(c2)c(NCC[NH2+]CC)c2ccccc2[n+]3C)CC1

>  <Energy>  (6) 
133.76996927096934

>  <Genealogy>  (6) 
CCCC[N+]1(C)CC[N+](C)(CCOc2ccc3c(c2)c(NCC[NH2+]CC)c2ccccc2[n+]3C)CC1 (protonated)
CCCC[N+]1(C)CC[N+](C)(CCOc2ccc3c(c2)c(NCC[NH2+]CC)c2ccccc2[n+]3C)CC1 (3D coordinates assigned)
CCCC[N+]1(C)CC[N+](C)(CCOc2ccc3c(c2)c(NCC[NH2+]CC)c2ccccc2[n+]3C)CC1 (nonaromatic ring conformer: 133.76996927096934 kcal/mol)

>  <smiles>  (6) 
CCCC[N+]1(C)CC[N+](C)(CCOc2ccc3c(c2)c(NCCNCC)c2ccccc2[n+]3C)CC1

>  <score_type>  (6) 
oracle

>  <origin>  (6) 
adg

>  <m_score__min__energy>  (6) 
-7.9199999999999999

>  <m_primary>  (6) 
energy

$$$$
6:0
     RDKit          3D

 49 51  0  0  0  0  0  0  0  0999 V2000
   -6.5660   25.0870  -29.7400 C   0  0  0  0  0  0  0  0  0  0  0  0
   -5.3530   25.6740  -30.4530 C   0  0  0  0  0  0  0  0  0  0  0  0
   -4.6650   24.6290  -31.2210 N   0  0  0  0  0  0  0  0  0  0  0  0
   -4.1600   23.5860  -30.3210 C   0  0  0  0  0  0  0  0  0  0  0  0
   -3.8100   22.3180  -31.1330 C   0  0  0  0  0  0  0  0  0  0  0  0
   -4.3970   22.2290  -32.4990 N   0  0  0  0  0  0  0  0  0  0  0  0
   -5.4010   21.1950  -32.7100 C   0  0  0  0  0  0  0  0  0  0  0  0
   -6.7630   21.4820  -32.4220 C   0  0  0  0  0  0  0  0  0  0  0  0
   -7.2110   22.8080  -32.1910 C   0  0  0  0  0  0  0  0  0  0  0  0
   -8.5560   23.0830  -31.9580 C   0  0  0  0  0  0  0  0  0  0  0  0
   -9.4860   22.0550  -31.9550 C   0  0  0  0  0  0  0  0  0  0  0  0
   -9.0730   20.7410  -32.1590 C   0  0  0  0  0  0  0  0  0  0  0  0
   -7.7040   20.4240  -32.3590 C   0  0  0  0  0  0  0  0  0  0  0  0
   -7.2830   19.1200  -32.4840 N   0  0  0  0  0  0  0  0  0  0  0  0
   -8.1670   18.0170  -32.0400 C   0  0  0  0  0  0  0  0  0  0  0  0
   -6.0350   18.8410  -33.0050 C   0  0  0  0  0  0  0  0  0  0  0  0
   -5.7130   17.5270  -33.4260 C   0  0  0  0  0  0  0  0  0  0  0  0
   -4.4530   17.2100  -33.9060 C   0  0  0  0  0  0  0  0  0  0  0  0
   -3.4900   18.1930  -34.0240 C   0  0  0  0  0  0  0  0  0  0  0  0
   -3.7650   19.5180  -33.6740 C   0  0  0  0  0  0  0  0  0  0  0  0
   -2.7610   20.4860  -34.0000 N   0  0  0  0  0  0  0  0  0  0  0  0
   -1.5130   20.5530  -33.2490 C   0  0  0  0  0  0  0  0  0  0  0  0
   -5.0510   19.8730  -33.1360 C   0  0  0  0  0  0  0  0  0  0  0  0
   -6.4211   25.1571  -28.6518 H   0  0  0  0  0  0  0  0  0  0  0  0
   -7.4673   25.6486  -30.0269 H   0  0  0  0  0  0  0  0  0  0  0  0
   -6.6848   24.0317  -30.0269 H   0  0  0  0  0  0  0  0  0  0  0  0
   -5.6828   26.4704  -31.1364 H   0  0  0  0  0  0  0  0  0  0  0  0
   -4.6600   26.0863  -29.7048 H   0  0  0  0  0  0  0  0  0  0  0  0
   -5.3690   24.1870  -31.8590 H   0  0  0  0  0  0  0  0  0  0  0  0
   -3.2582   23.9516  -29.8080 H   0  0  0  0  0  0  0  0  0  0  0  0
   -4.9343   23.3401  -29.5794 H   0  0  0  0  0  0  0  0  0  0  0  0
   -2.7155   22.2761  -31.2347 H   0  0  0  0  0  0  0  0  0  0  0  0
   -4.2450   21.4788  -30.5704 H   0  0  0  0  0  0  0  0  0  0  0  0
   -3.6240   22.0970  -33.1910 H   0  0  0  0  0  0  0  0  0  0  0  0
   -4.7620   23.1580  -32.8020 H   0  0  0  0  0  0  0  0  0  0  0  0
   -6.4835   23.6330  -32.1960 H   0  0  0  0  0  0  0  0  0  0  0  0
   -8.8812   24.1180  -31.7760 H   0  0  0  0  0  0  0  0  0  0  0  0
  -10.5508   22.2775  -31.7914 H   0  0  0  0  0  0  0  0  0  0  0  0
   -9.8209   19.9344  -32.1653 H   0  0  0  0  0  0  0  0  0  0  0  0
   -8.1914   17.9865  -30.9407 H   0  0  0  0  0  0  0  0  0  0  0  0
   -9.1838   18.1845  -32.4248 H   0  0  0  0  0  0  0  0  0  0  0  0
   -7.7821   17.0611  -32.4248 H   0  0  0  0  0  0  0  0  0  0  0  0
   -6.4807   16.7412  -33.3704 H   0  0  0  0  0  0  0  0  0  0  0  0
   -4.2191   16.1743  -34.1935 H   0  0  0  0  0  0  0  0  0  0  0  0
   -2.4904   17.9289  -34.3995 H   0  0  0  0  0  0  0  0  0  0  0  0
   -2.7420   20.8460  -34.9780 H   0  0  0  0  0  0  0  0  0  0  0  0
   -1.7326   20.5412  -32.1712 H   0  0  0  0  0  0  0  0  0  0  0  0
   -0.8843   19.6873  -33.5046 H   0  0  0  0  0  0  0  0  0  0  0  0
   -0.9806   21.4810  -33.5046 H   0  0  0  0  0  0  0  0  0  0  0  0
  1  2  1  0
  2  3  1  0
  3  4  1  0
  4  5  1  0
  5  6  1  0
  6  7  1  0
  7  8  2  0
  8  9  1  0
  9 10  2  0
 10 11  1  0
 11 12  2  0
 12 13  1  0
 13 14  2  0
 14 15  1  0
 14 16  1  0
 16 17  2  0
 17 18  1  0
 18 19  2  0
 19 20  1  0
 20 21  1  0
 21 22  1  0
 20 23  2  0
 23  7  1  0
 13  8  1  0
 23 16  1  0
  1 24  1  0
  1 25  1  0
  1 26  1  0
  2 27  1  0
  2 28  1  0
  3 29  1  0
  4 30  1  0
  4 31  1  0
  5 32  1  0
  5 33  1  0
  6 34  1  0
  6 35  1  0
  9 36  1  0
 10 37  1  0
 11 38  1  0
 12 39  1  0
 15 40  1  0
 15 41  1  0
 15 42  1  0
 17 43  1  0
 18 44  1  0
 19 45  1  0
 21 46  1  0
 22 47  1  0
 22 48  1  0
 22 49  1  0
M  CHG  2   6   1  14   1
M  END
>  <UniqueID>  (7) 
7

>  <SMILES>  (7) 
CCNCC[NH2+]c1c2ccccc2[n+](C)c2cccc(NC)c12

>  <Energy>  (7) 
91.31609219344806

>  <Genealogy>  (7) 
CCNCC[NH2+]c1c2ccccc2[n+](C)c2cccc(NC)c12 (protonated)
CCNCC[NH2+]c1c2ccccc2[n+](C)c2cccc(NC)c12 (3D coordinates assigned)
CCNCC[NH2+]c1c2ccccc2[n+](C)c2cccc(NC)c12 (optimized conformer: 91.31609219344806 kcal/mol)

>  <smiles>  (7) 
CCNCCNc1c2ccccc2[n+](C)c2cccc(NC)c12

>  <score_type>  (7) 
oracle

>  <origin>  (7) 
adg

>  <m_score__min__energy>  (7) 
-8.25

>  <m_primary>  (7) 
energy

$$$$
7:0
     RDKit          3D

 59 62  0  0  0  0  0  0  0  0999 V2000
   -0.8760   20.7950  -32.2790 C   0  0  0  0  0  0  0  0  0  0  0  0
   -1.3870   20.8120  -33.7160 C   0  0  0  0  0  0  0  0  0  0  0  0
   -2.5020   19.9330  -33.8610 O   0  0  0  0  0  0  0  0  0  0  0  0
   -3.8200   20.2040  -33.4470 C   0  0  0  0  0  0  0  0  0  0  0  0
   -4.2170   21.4880  -33.0440 C   0  0  0  0  0  0  0  0  0  0  0  0
   -5.5300   21.7400  -32.6590 C   0  0  0  0  0  0  0  0  0  0  0  0
   -6.4960   20.7200  -32.6720 C   0  0  0  0  0  0  0  0  0  0  0  0
   -7.9240   21.0770  -32.3190 C   0  0  0  0  0  0  0  0  0  0  0  0
   -7.9600   22.4370  -31.7510 N   0  0  0  0  0  0  0  0  0  0  0  0
   -7.9240   22.4520  -30.2810 C   0  0  0  0  0  0  0  0  0  0  0  0
   -6.8220   23.3840  -29.7660 C   0  0  0  0  0  0  0  0  0  0  0  0
   -6.5160   24.4970  -30.7770 C   0  0  0  0  0  0  0  0  0  0  0  0
   -5.7260   25.6470  -30.1400 C   0  0  0  0  0  0  0  0  0  0  0  0
   -4.3170   25.5740  -30.5330 N   0  0  0  0  0  0  0  0  0  0  0  0
   -3.4190   24.5710  -30.0370 C   0  0  0  0  0  0  0  0  0  0  0  0
   -3.6980   23.2160  -30.2560 C   0  0  0  0  0  0  0  0  0  0  0  0
   -2.8210   22.2380  -29.7790 C   0  0  0  0  0  0  0  0  0  0  0  0
   -3.0740   21.0220  -29.9940 O   0  0  0  0  0  0  0  0  0  0  0  0
   -1.6740   22.6230  -29.0610 C   0  0  0  0  0  0  0  0  0  0  0  0
   -0.7680   21.6810  -28.5430 C   0  0  0  0  0  0  0  0  0  0  0  0
    0.3450   22.1060  -27.8100 C   0  0  0  0  0  0  0  0  0  0  0  0
    0.5640   23.4680  -27.5920 C   0  0  0  0  0  0  0  0  0  0  0  0
   -0.3160   24.4160  -28.1190 C   0  0  0  0  0  0  0  0  0  0  0  0
   -1.4350   24.0020  -28.8510 C   0  0  0  0  0  0  0  0  0  0  0  0
   -2.3010   24.9260  -29.3460 N   0  0  0  0  0  0  0  0  0  0  0  0
   -6.1130   19.4080  -33.0590 C   0  0  0  0  0  0  0  0  0  0  0  0
   -7.0350   18.3390  -33.0830 C   0  0  0  0  0  0  0  0  0  0  0  0
   -6.6320   17.0570  -33.4610 C   0  0  0  0  0  0  0  0  0  0  0  0
   -5.3120   16.8160  -33.8280 C   0  0  0  0  0  0  0  0  0  0  0  0
   -4.3820   17.8550  -33.8190 C   0  0  0  0  0  0  0  0  0  0  0  0
   -4.7640   19.1560  -33.4390 C   0  0  0  0  0  0  0  0  0  0  0  0
   -1.7297   20.8234  -31.5859 H   0  0  0  0  0  0  0  0  0  0  0  0
   -0.2947   19.8770  -32.1074 H   0  0  0  0  0  0  0  0  0  0  0  0
   -0.2350   21.6723  -32.1074 H   0  0  0  0  0  0  0  0  0  0  0  0
   -1.6959   21.8347  -33.9782 H   0  0  0  0  0  0  0  0  0  0  0  0
   -0.5803   20.4762  -34.3842 H   0  0  0  0  0  0  0  0  0  0  0  0
   -3.4811   22.3055  -33.0323 H   0  0  0  0  0  0  0  0  0  0  0  0
   -5.8160   22.7530  -32.3397 H   0  0  0  0  0  0  0  0  0  0  0  0
   -8.5466   21.0406  -33.2251 H   0  0  0  0  0  0  0  0  0  0  0  0
   -8.3117   20.3591  -31.5812 H   0  0  0  0  0  0  0  0  0  0  0  0
   -8.8530   22.8950  -32.0470 H   0  0  0  0  0  0  0  0  0  0  0  0
   -8.8958   22.8005  -29.9013 H   0  0  0  0  0  0  0  0  0  0  0  0
   -7.7135   21.4323  -29.9261 H   0  0  0  0  0  0  0  0  0  0  0  0
   -7.1508   23.8394  -28.8202 H   0  0  0  0  0  0  0  0  0  0  0  0
   -5.9080   22.7909  -29.6151 H   0  0  0  0  0  0  0  0  0  0  0  0
   -5.9252   24.0745  -31.6031 H   0  0  0  0  0  0  0  0  0  0  0  0
   -7.4729   24.9006  -31.1397 H   0  0  0  0  0  0  0  0  0  0  0  0
   -6.1472   26.6062  -30.4754 H   0  0  0  0  0  0  0  0  0  0  0  0
   -5.7970   25.5669  -29.0452 H   0  0  0  0  0  0  0  0  0  0  0  0
   -3.9190   26.3940  -31.0450 H   0  0  0  0  0  0  0  0  0  0  0  0
   -4.6061   22.9220  -30.8027 H   0  0  0  0  0  0  0  0  0  0  0  0
   -0.9347   20.6073  -28.7145 H   0  0  0  0  0  0  0  0  0  0  0  0
    1.0498   21.3654  -27.4041 H   0  0  0  0  0  0  0  0  0  0  0  0
    1.4332   23.7955  -27.0028 H   0  0  0  0  0  0  0  0  0  0  0  0
   -0.1297   25.4882  -27.9588 H   0  0  0  0  0  0  0  0  0  0  0  0
   -8.0829   18.5184  -32.8006 H   0  0  0  0  0  0  0  0  0  0  0  0
   -7.3615   16.2337  -33.4687 H   0  0  0  0  0  0  0  0  0  0  0  0
   -5.0012   15.8037  -34.1259 H   0  0  0  0  0  0  0  0  0  0  0  0
   -3.3403   17.6565  -34.1114 H   0  0  0  0  0  0  0  0  0  0  0  0
  1  2  1  0
  2  3  1  0
  3  4  1  0
  4  5  2  0
  5  6  1  0
  6  7  2  0
  7  8  1  0
  8  9  1  0
  9 10  1  0
 10 11  1  0
 11 12  1  0
 12 13  1  0
 13 14  1  0
 14 15  1  0
 15 16  2  0
 16 17  1  0
 17 18  2  0
 17 19  1  0
 19 20  2  0
 20 21  1  0
 21 22  2  0
 22 23  1  0
 23 24  2  0
 24 25  1  0
  7 26  1  0
 26 27  2  0
 27 28  1  0
 28 29  2  0
 29 30  1  0
 30 31  2  0
 31  4  1  0
 25 15  1  0
 31 26  1  0
 24 19  1  0
  1 32  1  0
  1 33  1  0
  1 34  1  0
  2 35  1  0
  2 36  1  0
  5 37  1  0
  6 38  1  0
  8 39  1  0
  8 40  1  0
  9 41  1  0
 10 42  1  0
 10 43  1  0
 11 44  1  0
 11 45  1  0
 12 46  1  0
 12 47  1  0
 13 48  1  0
 13 49  1  0
 14 50  1  0
 16 51  1  0
 20 52  1  0
 21 53  1  0
 22 54  1  0
 23 55  1  0
 27 56  1  0
 28 57  1  0
 29 58  1  0
 30 59  1  0
M  CHG  1  25  -1
M  END
>  <UniqueID>  (8) 
8

>  <SMILES>  (8) 
CCOc1ccc(CNCCCCNc2cc(=O)c3ccccc3[n-]2)c2ccccc12

>  <Energy>  (8) 
61.87836197280734

>  <Genealogy>  (8) 
CCOc1ccc(CNCCCCNc2cc(=O)c3ccccc3[n-]2)c2ccccc12 (protonated)
CCOc1ccc(CNCCCCNc2cc(=O)c3ccccc3[n-]2)c2ccccc12 (3D coordinates assigned)
CCOc1ccc(CNCCCCNc2cc(=O)c3ccccc3[n-]2)c2ccccc12 (optimized conformer: 61.87836197280734 kcal/mol)

>  <smiles>  (8) 
CCOc1ccc(CNCCCCNc2cc(=O)c3ccccc3[nH]2)c2ccccc12

>  <score_type>  (8) 
oracle

>  <origin>  (8) 
adg

>  <m_score__min__energy>  (8) 
-12.24

>  <m_primary>  (8) 
energy

$$$$
8:0
     RDKit          3D

 54 56  0  0  0  0  0  0  0  0999 V2000
   -3.1650   20.8130  -29.8450 C   0  0  0  0  0  0  0  0  0  0  0  0
   -2.8370   22.0370  -29.0980 N   0  0  0  0  0  0  0  0  0  0  0  0
   -3.8240   22.2980  -28.0390 C   0  0  0  0  0  0  0  0  0  0  0  0
   -2.5880   23.2120  -29.9650 C   0  0  0  0  0  0  0  0  0  0  0  0
   -3.1750   24.5410  -29.4500 C   0  0  0  0  0  0  0  0  0  0  0  0
   -3.8650   25.1950  -30.4920 O   0  0  0  0  0  0  0  0  0  0  0  0
   -5.2170   25.3880  -30.1300 C   0  0  0  0  0  0  0  0  0  0  0  0
   -6.1150   24.7820  -31.2100 C   0  0  0  0  0  0  0  0  0  0  0  0
   -5.9610   23.2550  -31.2750 C   0  0  0  0  0  0  0  0  0  0  0  0
   -5.8850   22.7930  -32.6700 N   0  0  0  0  0  0  0  0  0  0  0  0
   -5.7560   21.3430  -32.7170 C   0  0  0  0  0  0  0  0  0  0  0  0
   -6.8850   20.5080  -32.5090 C   0  0  0  0  0  0  0  0  0  0  0  0
   -8.1390   21.0350  -32.1080 C   0  0  0  0  0  0  0  0  0  0  0  0
   -9.2630   20.2210  -32.0140 C   0  0  0  0  0  0  0  0  0  0  0  0
   -9.1740   18.8720  -32.3180 C   0  0  0  0  0  0  0  0  0  0  0  0
   -7.9450   18.3150  -32.6600 C   0  0  0  0  0  0  0  0  0  0  0  0
   -6.7650   19.1030  -32.7030 C   0  0  0  0  0  0  0  0  0  0  0  0
   -5.5290   18.5330  -32.9330 N   0  0  0  0  0  0  0  0  0  0  0  0
   -5.3650   17.0630  -32.8310 C   0  0  0  0  0  0  0  0  0  0  0  0
   -4.4320   19.3280  -33.1970 C   0  0  0  0  0  0  0  0  0  0  0  0
   -3.2080   18.7710  -33.6520 C   0  0  0  0  0  0  0  0  0  0  0  0
   -2.0730   19.5590  -33.8220 C   0  0  0  0  0  0  0  0  0  0  0  0
   -2.1250   20.9190  -33.5530 C   0  0  0  0  0  0  0  0  0  0  0  0
   -3.3250   21.5090  -33.1650 C   0  0  0  0  0  0  0  0  0  0  0  0
   -4.5090   20.7400  -33.0270 C   0  0  0  0  0  0  0  0  0  0  0  0
   -3.3831   19.9992  -29.1378 H   0  0  0  0  0  0  0  0  0  0  0  0
   -4.0461   20.9947  -30.4779 H   0  0  0  0  0  0  0  0  0  0  0  0
   -2.3111   20.5298  -30.4779 H   0  0  0  0  0  0  0  0  0  0  0  0
   -3.3482   22.1722  -27.0552 H   0  0  0  0  0  0  0  0  0  0  0  0
   -4.2013   23.3268  -28.1349 H   0  0  0  0  0  0  0  0  0  0  0  0
   -4.6606   21.5902  -28.1349 H   0  0  0  0  0  0  0  0  0  0  0  0
   -1.4997   23.3365  -30.0658 H   0  0  0  0  0  0  0  0  0  0  0  0
   -3.0952   23.0022  -30.9183 H   0  0  0  0  0  0  0  0  0  0  0  0
   -3.8711   24.3365  -28.6232 H   0  0  0  0  0  0  0  0  0  0  0  0
   -2.3572   25.1857  -29.0956 H   0  0  0  0  0  0  0  0  0  0  0  0
   -5.4146   24.8946  -29.1669 H   0  0  0  0  0  0  0  0  0  0  0  0
   -5.4256   26.4639  -30.0349 H   0  0  0  0  0  0  0  0  0  0  0  0
   -7.1631   25.0267  -30.9828 H   0  0  0  0  0  0  0  0  0  0  0  0
   -5.8183   25.2016  -32.1826 H   0  0  0  0  0  0  0  0  0  0  0  0
   -5.0403   22.9633  -30.7485 H   0  0  0  0  0  0  0  0  0  0  0  0
   -6.8388   22.7931  -30.7995 H   0  0  0  0  0  0  0  0  0  0  0  0
   -6.7140   23.1230  -33.2090 H   0  0  0  0  0  0  0  0  0  0  0  0
   -5.0870   23.2490  -33.1660 H   0  0  0  0  0  0  0  0  0  0  0  0
   -8.2242   22.1050  -31.8674 H   0  0  0  0  0  0  0  0  0  0  0  0
  -10.2254   20.6494  -31.6974 H   0  0  0  0  0  0  0  0  0  0  0  0
  -10.0747   18.2412  -32.2891 H   0  0  0  0  0  0  0  0  0  0  0  0
   -7.8870   17.2434  -32.9016 H   0  0  0  0  0  0  0  0  0  0  0  0
   -5.3324   16.7704  -31.7711 H   0  0  0  0  0  0  0  0  0  0  0  0
   -6.2131   16.5644  -33.3231 H   0  0  0  0  0  0  0  0  0  0  0  0
   -4.4279   16.7636  -33.3231 H   0  0  0  0  0  0  0  0  0  0  0  0
   -3.1554   17.6951  -33.8747 H   0  0  0  0  0  0  0  0  0  0  0  0
   -1.1343   19.1030  -34.1698 H   0  0  0  0  0  0  0  0  0  0  0  0
   -1.2166   21.5323  -33.6464 H   0  0  0  0  0  0  0  0  0  0  0  0
   -3.3554   22.5897  -32.9621 H   0  0  0  0  0  0  0  0  0  0  0  0
  1  2  1  0
  2  3  1  0
  2  4  1  0
  4  5  1  0
  5  6  1  0
  6  7  1  0
  7  8  1  0
  8  9  1  0
  9 10  1  0
 10 11  1  0
 11 12  2  0
 12 13  1  0
 13 14  2  0
 14 15  1  0
 15 16  2  0
 16 17  1  0
 17 18  2  0
 18 19  1  0
 18 20  1  0
 20 21  2  0
 21 22  1  0
 22 23  2  0
 23 24  1  0
 24 25  2  0
 25 11  1  0
 17 12  1  0
 25 20  1  0
  1 26  1  0
  1 27  1  0
  1 28  1  0
  3 29  1  0
  3 30  1  0
  3 31  1  0
  4 32  1  0
  4 33  1  0
  5 34  1  0
  5 35  1  0
  7 36  1  0
  7 37  1  0
  8 38  1  0
  8 39  1  0
  9 40  1  0
  9 41  1  0
 10 42  1  0
 10 43  1  0
 13 44  1  0
 14 45  1  0
 15 46  1  0
 16 47  1  0
 19 48  1  0
 19 49  1  0
 19 50  1  0
 21 51  1  0
 22 52  1  0
 23 53  1  0
 24 54  1  0
M  CHG  2  10   1  18   1
M  END
>  <UniqueID>  (9) 
9

>  <SMILES>  (9) 
CN(C)CCOCCC[NH2+]c1c2ccccc2[n+](C)c2ccccc12

>  <Energy>  (9) 
82.20779613443698

>  <Genealogy>  (9) 
CN(C)CCOCCC[NH2+]c1c2ccccc2[n+](C)c2ccccc12 (protonated)
CN(C)CCOCCC[NH2+]c1c2ccccc2[n+](C)c2ccccc12 (3D coordinates assigned)
CN(C)CCOCCC[NH2+]c1c2ccccc2[n+](C)c2ccccc12 (optimized conformer: 82.20779613443698 kcal/mol)

>  <smiles>  (9) 
CN(C)CCOCCCNc1c2ccccc2[n+](C)c2ccccc12

>  <score_type>  (9) 
oracle

>  <origin>  (9) 
adg

>  <m_score__min__energy>  (9) 
-7.5899999999999999

>  <m_primary>  (9) 
energy

$$$$
9:0
     RDKit          3D

 41 42  0  0  0  0  0  0  0  0999 V2000
   -9.0550   18.7610  -31.9880 C   0  0  0  0  0  0  0  0  0  0  0  0
   -8.9530   20.0650  -32.7730 C   0  0  0  0  0  0  0  0  0  0  0  0
   -8.9760   21.2770  -31.8370 C   0  0  0  0  0  0  0  0  0  0  0  0
   -7.6860   22.0400  -31.9310 C   0  0  0  0  0  0  0  0  0  0  0  0
   -7.6180   23.3830  -31.9910 N   0  0  0  0  0  0  0  0  0  0  0  0
   -6.3430   23.7360  -31.9450 N   0  0  0  0  0  0  0  0  0  0  0  0
   -5.6430   22.5890  -31.8550 C   0  0  0  0  0  0  0  0  0  0  0  0
   -3.8570   22.5400  -31.6990 S   0  0  0  0  0  0  0  0  0  0  0  0
   -3.8680   23.2620  -30.0260 C   0  0  0  0  0  0  0  0  0  0  0  0
   -3.5150   24.7170  -30.1080 C   0  0  0  0  0  0  0  0  0  0  0  0
   -4.2040   25.4660  -30.8500 O   0  0  0  0  0  0  0  0  0  0  0  0
   -2.4490   25.2960  -29.3430 N   0  0  0  0  0  0  0  0  0  0  0  0
   -1.8870   24.7570  -28.1050 C   0  0  0  0  0  0  0  0  0  0  0  0
   -2.8410   24.9300  -26.9210 C   0  0  0  0  0  0  0  0  0  0  0  0
   -1.9790   25.3090  -25.7170 C   0  0  0  0  0  0  0  0  0  0  0  0
   -0.5410   25.3940  -26.2120 C   0  0  0  0  0  0  0  0  0  0  0  0
   -0.6290   25.5180  -27.7220 C   0  0  0  0  0  0  0  0  0  0  0  0
   -6.4490   21.5050  -31.8540 N   0  0  0  0  0  0  0  0  0  0  0  0
   -6.0730   20.1110  -31.6330 C   0  0  0  0  0  0  0  0  0  0  0  0
   -9.0379   18.9796  -30.9101 H   0  0  0  0  0  0  0  0  0  0  0  0
   -9.9957   18.2516  -32.2439 H   0  0  0  0  0  0  0  0  0  0  0  0
   -8.2049   18.1115  -32.2439 H   0  0  0  0  0  0  0  0  0  0  0  0
   -8.0117   20.0687  -33.3421 H   0  0  0  0  0  0  0  0  0  0  0  0
   -9.8162   20.1320  -33.4516 H   0  0  0  0  0  0  0  0  0  0  0  0
   -9.8085   21.9375  -32.1208 H   0  0  0  0  0  0  0  0  0  0  0  0
   -9.1060   20.9250  -30.8030 H   0  0  0  0  0  0  0  0  0  0  0  0
   -8.4180   24.0530  -32.0340 H   0  0  0  0  0  0  0  0  0  0  0  0
   -4.8699   23.1519  -29.5856 H   0  0  0  0  0  0  0  0  0  0  0  0
   -3.1318   22.7407  -29.3965 H   0  0  0  0  0  0  0  0  0  0  0  0
   -1.6922   23.6920  -28.2994 H   0  0  0  0  0  0  0  0  0  0  0  0
   -3.5683   25.7275  -27.1331 H   0  0  0  0  0  0  0  0  0  0  0  0
   -3.4063   24.0061  -26.7289 H   0  0  0  0  0  0  0  0  0  0  0  0
   -2.2985   26.2814  -25.3141 H   0  0  0  0  0  0  0  0  0  0  0  0
   -2.0755   24.5641  -24.9134 H   0  0  0  0  0  0  0  0  0  0  0  0
   -0.0402   26.2750  -25.7840 H   0  0  0  0  0  0  0  0  0  0  0  0
    0.0428   24.5113  -25.9120 H   0  0  0  0  0  0  0  0  0  0  0  0
   -0.7100   26.5739  -28.0194 H   0  0  0  0  0  0  0  0  0  0  0  0
    0.2650   25.1181  -28.2228 H   0  0  0  0  0  0  0  0  0  0  0  0
   -6.0195   19.9126  -30.5524 H   0  0  0  0  0  0  0  0  0  0  0  0
   -6.8253   19.4514  -32.0901 H   0  0  0  0  0  0  0  0  0  0  0  0
   -5.0910   19.9192  -32.0901 H   0  0  0  0  0  0  0  0  0  0  0  0
  1  2  1  0
  2  3  1  0
  3  4  1  0
  4  5  2  0
  5  6  1  0
  6  7  2  0
  7  8  1  0
  8  9  1  0
  9 10  1  0
 10 11  2  0
 10 12  1  0
 12 13  1  0
 13 14  1  0
 14 15  1  0
 15 16  1  0
 16 17  1  0
  7 18  1  0
 18 19  1  0
 18  4  1  0
 17 13  1  0
  1 20  1  0
  1 21  1  0
  1 22  1  0
  2 23  1  0
  2 24  1  0
  3 25  1  0
  3 26  1  0
  5 27  1  0
  9 28  1  0
  9 29  1  0
 13 30  1  0
 14 31  1  0
 14 32  1  0
 15 33  1  0
 15 34  1  0
 16 35  1  0
 16 36  1  0
 17 37  1  0
 17 38  1  0
 19 39  1  0
 19 40  1  0
 19 41  1  0
M  CHG  2   5   1  12  -1
M  END
>  <UniqueID>  (10) 
10

>  <SMILES>  (10) 
CCCc1[nH+]nc(SCC(=O)[N-]C2CCCC2)n1C

>  <Energy>  (10) 
61.12625474377482

>  <Genealogy>  (10) 
CCCc1[nH+]nc(SCC(=O)[N-]C2CCCC2)n1C (protonated)
CCCc1[nH+]nc(SCC(=O)[N-]C2CCCC2)n1C (3D coordinates assigned)
CCCc1[nH+]nc(SCC(=O)[N-]C2CCCC2)n1C (nonaromatic ring conformer: 61.12625474377482 kcal/mol)

>  <smiles>  (10) 
CCCc1nnc(SCC(=O)NC2CCCC2)n1C

>  <score_type>  (10) 
oracle

>  <origin>  (10) 
adg

>  <m_score__min__energy>  (10) 
-8.9900000000000002

>  <m_primary>  (10) 
energy

$$$$
10:0
     RDKit          3D

 67 70  0  0  0  0  0  0  0  0999 V2000
   -3.1100   20.8030  -29.7420 C   0  0  0  0  0  0  0  0  0  0  0  0
   -1.6150   21.0320  -29.5020 C   0  0  0  0  0  0  0  0  0  0  0  0
   -1.3100   22.0840  -28.5020 N   0  0  0  0  0  0  0  0  0  0  0  0
   -0.9180   21.5800  -27.1620 C   0  0  0  0  0  0  0  0  0  0  0  0
   -1.6050   20.2670  -26.7470 C   0  0  0  0  0  0  0  0  0  0  0  0
   -0.5290   23.2360  -29.0070 C   0  0  0  0  0  0  0  0  0  0  0  0
   -1.0520   24.5670  -28.4430 C   0  0  0  0  0  0  0  0  0  0  0  0
   -2.0060   25.1650  -29.3040 O   0  0  0  0  0  0  0  0  0  0  0  0
   -3.2780   24.5630  -29.1660 C   0  0  0  0  0  0  0  0  0  0  0  0
   -3.6600   23.8670  -30.4740 C   0  0  0  0  0  0  0  0  0  0  0  0
   -4.5870   24.6470  -31.2080 O   0  0  0  0  0  0  0  0  0  0  0  0
   -5.9030   24.4490  -30.7320 C   0  0  0  0  0  0  0  0  0  0  0  0
   -6.3820   23.0520  -31.1370 C   0  0  0  0  0  0  0  0  0  0  0  0
   -5.9010   22.6960  -32.4810 N   0  0  0  0  0  0  0  0  0  0  0  0
   -5.8940   21.2570  -32.6530 C   0  0  0  0  0  0  0  0  0  0  0  0
   -4.6930   20.5780  -32.9040 C   0  0  0  0  0  0  0  0  0  0  0  0
   -4.6550   19.1960  -33.0110 C   0  0  0  0  0  0  0  0  0  0  0  0
   -5.7840   18.4240  -32.9690 N   0  0  0  0  0  0  0  0  0  0  0  0
   -5.7030   16.9780  -33.2480 C   0  0  0  0  0  0  0  0  0  0  0  0
   -6.9930   19.0370  -32.6770 C   0  0  0  0  0  0  0  0  0  0  0  0
   -8.1730   18.2770  -32.4750 C   0  0  0  0  0  0  0  0  0  0  0  0
   -9.3990   18.8940  -32.2400 C   0  0  0  0  0  0  0  0  0  0  0  0
   -9.4860   20.2790  -32.1940 C   0  0  0  0  0  0  0  0  0  0  0  0
   -8.3450   21.0610  -32.3460 C   0  0  0  0  0  0  0  0  0  0  0  0
   -7.0780   20.4680  -32.5570 C   0  0  0  0  0  0  0  0  0  0  0  0
   -3.2420   18.7960  -33.1690 C   0  0  0  0  0  0  0  0  0  0  0  0
   -2.6920   17.5540  -33.1660 N   0  0  0  0  0  0  0  0  0  0  0  0
   -1.3370   17.4130  -33.2520 C   0  0  0  0  0  0  0  0  0  0  0  0
   -0.5010   18.5480  -33.3140 C   0  0  0  0  0  0  0  0  0  0  0  0
   -1.0680   19.8310  -33.2790 C   0  0  0  0  0  0  0  0  0  0  0  0
   -2.4550   19.9250  -33.2010 C   0  0  0  0  0  0  0  0  0  0  0  0
   -3.3180   21.0840  -33.0610 C   0  0  0  0  0  0  0  0  0  0  0  0
   -2.9440   22.2860  -33.1020 O   0  0  0  0  0  0  0  0  0  0  0  0
   -3.6286   20.7236  -28.7752 H   0  0  0  0  0  0  0  0  0  0  0  0
   -3.5236   21.6483  -30.3116 H   0  0  0  0  0  0  0  0  0  0  0  0
   -3.2516   19.8727  -30.3116 H   0  0  0  0  0  0  0  0  0  0  0  0
   -1.1737   20.0868  -29.1528 H   0  0  0  0  0  0  0  0  0  0  0  0
   -1.1921   21.3748  -30.4578 H   0  0  0  0  0  0  0  0  0  0  0  0
    0.1693   21.4135  -27.1623 H   0  0  0  0  0  0  0  0  0  0  0  0
   -1.2366   22.3424  -26.4359 H   0  0  0  0  0  0  0  0  0  0  0  0
   -1.6390   20.2020  -25.6495 H   0  0  0  0  0  0  0  0  0  0  0  0
   -2.6293   20.2466  -27.1475 H   0  0  0  0  0  0  0  0  0  0  0  0
   -1.0377   19.4139  -27.1475 H   0  0  0  0  0  0  0  0  0  0  0  0
    0.5228   23.1115  -28.7101 H   0  0  0  0  0  0  0  0  0  0  0  0
   -0.6281   23.2645  -30.1022 H   0  0  0  0  0  0  0  0  0  0  0  0
   -1.5220   24.3797  -27.4663 H   0  0  0  0  0  0  0  0  0  0  0  0
   -0.1998   25.2557  -28.3461 H   0  0  0  0  0  0  0  0  0  0  0  0
   -3.2466   23.8228  -28.3529 H   0  0  0  0  0  0  0  0  0  0  0  0
   -4.0248   25.3358  -28.9313 H   0  0  0  0  0  0  0  0  0  0  0  0
   -2.7546   23.7177  -31.0806 H   0  0  0  0  0  0  0  0  0  0  0  0
   -4.1254   22.8994  -30.2351 H   0  0  0  0  0  0  0  0  0  0  0  0
   -5.9147   24.5381  -29.6357 H   0  0  0  0  0  0  0  0  0  0  0  0
   -6.5704   25.2080  -31.1662 H   0  0  0  0  0  0  0  0  0  0  0  0
   -6.0004   22.3174  -30.4126 H   0  0  0  0  0  0  0  0  0  0  0  0
   -7.4819   23.0493  -31.1475 H   0  0  0  0  0  0  0  0  0  0  0  0
   -4.9510   23.0970  -32.6490 H   0  0  0  0  0  0  0  0  0  0  0  0
   -6.5040   23.1420  -33.2060 H   0  0  0  0  0  0  0  0  0  0  0  0
   -5.6719   16.4226  -32.2990 H   0  0  0  0  0  0  0  0  0  0  0  0
   -6.5851   16.6662  -33.8265 H   0  0  0  0  0  0  0  0  0  0  0  0
   -4.7916   16.7667  -33.8265 H   0  0  0  0  0  0  0  0  0  0  0  0
   -8.1188   17.1787  -32.5045 H   0  0  0  0  0  0  0  0  0  0  0  0
  -10.3010   18.2825  -32.0904 H   0  0  0  0  0  0  0  0  0  0  0  0
  -10.4623   20.7608  -32.0365 H   0  0  0  0  0  0  0  0  0  0  0  0
   -8.4295   22.1568  -32.3014 H   0  0  0  0  0  0  0  0  0  0  0  0
   -0.8933   16.4067  -33.2731 H   0  0  0  0  0  0  0  0  0  0  0  0
    0.5898   18.4276  -33.3894 H   0  0  0  0  0  0  0  0  0  0  0  0
   -0.4380   20.7321  -33.3121 H   0  0  0  0  0  0  0  0  0  0  0  0
  1  2  1  0
  2  3  1  0
  3  4  1  0
  4  5  1  0
  3  6  1  0
  6  7  1  0
  7  8  1  0
  8  9  1  0
  9 10  1  0
 10 11  1  0
 11 12  1  0
 12 13  1  0
 13 14  1  0
 14 15  1  0
 15 16  2  0
 16 17  1  0
 17 18  2  0
 18 19  1  0
 18 20  1  0
 20 21  2  0
 21 22  1  0
 22 23  2  0
 23 24  1  0
 24 25  2  0
 17 26  1  0
 26 27  2  0
 27 28  1  0
 28 29  2  0
 29 30  1  0
 30 31  2  0
 31 32  1  0
 32 33  2  0
 25 15  1  0
 31 26  1  0
 32 16  1  0
 25 20  1  0
  1 34  1  0
  1 35  1  0
  1 36  1  0
  2 37  1  0
  2 38  1  0
  4 39  1  0
  4 40  1  0
  5 41  1  0
  5 42  1  0
  5 43  1  0
  6 44  1  0
  6 45  1  0
  7 46  1  0
  7 47  1  0
  9 48  1  0
  9 49  1  0
 10 50  1  0
 10 51  1  0
 12 52  1  0
 12 53  1  0
 13 54  1  0
 13 55  1  0
 14 56  1  0
 14 57  1  0
 19 58  1  0
 19 59  1  0
 19 60  1  0
 21 61  1  0
 22 62  1  0
 23 63  1  0
 24 64  1  0
 28 65  1  0
 29 66  1  0
 30 67  1  0
M  CHG  2  14   1  18   1
M  END
>  <UniqueID>  (11) 
11

>  <SMILES>  (11) 
CCN(CC)CCOCCOCC[NH2+]c1c2c([n+](C)c3ccccc13)-c1ncccc1C2=O

>  <Energy>  (11) 
130.87243263752197

>  <Genealogy>  (11) 
CCN(CC)CCOCCOCC[NH2+]c1c2c([n+](C)c3ccccc13)-c1ncccc1C2=O (protonated)
CCN(CC)CCOCCOCC[NH2+]c1c2c([n+](C)c3ccccc13)-c1ncccc1C2=O (3D coordinates assigned)
CCN(CC)CCOCCOCC[NH2+]c1c2c([n+](C)c3ccccc13)-c1ncccc1C2=O (nonaromatic ring conformer: 130.87243263752197 kcal/mol)

>  <smiles>  (11) 
CCN(CC)CCOCCOCCNc1c2c([n+](C)c3ccccc13)-c1ncccc1C2=O

>  <score_type>  (11) 
oracle

>  <origin>  (11) 
adg

>  <m_score__min__energy>  (11) 
-8.3800000000000008

>  <m_primary>  (11) 
energy

$$$$
11:0
     RDKit          3D

 34 36  0  0  0  0  0  0  0  0999 V2000
   -6.6550   17.6530  -31.2050 C   0  0  0  0  0  0  0  0  0  0  0  0
   -7.9200   17.7720  -32.0570 C   0  0  0  0  0  0  0  0  0  0  0  0
   -8.9210   18.6630  -31.4500 N   0  0  0  0  0  0  0  0  0  0  0  0
   -8.6020   20.0970  -31.5970 C   0  0  0  0  0  0  0  0  0  0  0  0
   -7.9800   20.4440  -32.9660 C   0  0  0  0  0  0  0  0  0  0  0  0
   -6.5070   20.8170  -32.8610 C   0  0  0  0  0  0  0  0  0  0  0  0
   -6.0460   22.0170  -32.2240 C   0  0  0  0  0  0  0  0  0  0  0  0
   -6.9050   22.9570  -31.6200 C   0  0  0  0  0  0  0  0  0  0  0  0
   -6.3840   24.1020  -31.0210 C   0  0  0  0  0  0  0  0  0  0  0  0
   -5.0050   24.3030  -31.0250 C   0  0  0  0  0  0  0  0  0  0  0  0
   -4.5180   25.3310  -30.4890 O   0  0  0  0  0  0  0  0  0  0  0  0
   -4.2010   23.4130  -31.5930 O   0  0  0  0  0  0  0  0  0  0  0  0
   -4.6480   22.3050  -32.1780 C   0  0  0  0  0  0  0  0  0  0  0  0
   -3.7190   21.4290  -32.7470 C   0  0  0  0  0  0  0  0  0  0  0  0
   -4.1830   20.2740  -33.3520 C   0  0  0  0  0  0  0  0  0  0  0  0
   -3.2680   19.0780  -34.0900 S   0  0  0  0  0  0  0  0  0  0  0  0
   -4.5840   18.1130  -34.5120 C   0  0  0  0  0  0  0  0  0  0  0  0
   -5.7550   18.7270  -34.0750 C   0  0  0  0  0  0  0  0  0  0  0  0
   -5.5310   19.9540  -33.4180 C   0  0  0  0  0  0  0  0  0  0  0  0
   -6.9269   17.6786  -30.1394 H   0  0  0  0  0  0  0  0  0  0  0  0
   -6.1484   16.7032  -31.4315 H   0  0  0  0  0  0  0  0  0  0  0  0
   -5.9802   18.4916  -31.4315 H   0  0  0  0  0  0  0  0  0  0  0  0
   -7.6449   18.1702  -33.0448 H   0  0  0  0  0  0  0  0  0  0  0  0
   -8.3666   16.7700  -32.1375 H   0  0  0  0  0  0  0  0  0  0  0  0
   -9.0890   18.3880  -30.4580 H   0  0  0  0  0  0  0  0  0  0  0  0
   -9.5299   20.6756  -31.4778 H   0  0  0  0  0  0  0  0  0  0  0  0
   -7.8575   20.3470  -30.8268 H   0  0  0  0  0  0  0  0  0  0  0  0
   -8.0763   19.5711  -33.6284 H   0  0  0  0  0  0  0  0  0  0  0  0
   -8.5176   21.3167  -33.3652 H   0  0  0  0  0  0  0  0  0  0  0  0
   -7.9916   22.7859  -31.6215 H   0  0  0  0  0  0  0  0  0  0  0  0
   -7.0527   24.8380  -30.5509 H   0  0  0  0  0  0  0  0  0  0  0  0
   -2.6425   21.6529  -32.7146 H   0  0  0  0  0  0  0  0  0  0  0  0
   -4.5270   17.1532  -35.0463 H   0  0  0  0  0  0  0  0  0  0  0  0
   -6.7560   18.2970  -34.2274 H   0  0  0  0  0  0  0  0  0  0  0  0
  1  2  1  0
  2  3  1  0
  3  4  1  0
  4  5  1  0
  5  6  1  0
  6  7  2  0
  7  8  1  0
  8  9  2  0
  9 10  1  0
 10 11  2  0
 10 12  1  0
 12 13  1  0
 13 14  2  0
 14 15  1  0
 15 16  1  0
 16 17  1  0
 17 18  2  0
 18 19  1  0
 19  6  1  0
 13  7  1  0
 19 15  2  0
  1 20  1  0
  1 21  1  0
  1 22  1  0
  2 23  1  0
  2 24  1  0
  3 25  1  0
  4 26  1  0
  4 27  1  0
  5 28  1  0
  5 29  1  0
  8 30  1  0
  9 31  1  0
 14 32  1  0
 17 33  1  0
 18 34  1  0
M  END
>  <UniqueID>  (12) 
12

>  <SMILES>  (12) 
CCNCCc1c2ccc(=O)oc2cc2sccc12

>  <Energy>  (12) 
74.70479501670012

>  <Genealogy>  (12) 
CCNCCc1c2ccc(=O)oc2cc2sccc12 (3D coordinates assigned)
CCNCCc1c2ccc(=O)oc2cc2sccc12 (optimized conformer: 74.70479501670012 kcal/mol)

>  <smiles>  (12) 
CCNCCc1c2ccc(=O)oc2cc2sccc12

>  <score_type>  (12) 
oracle

>  <origin>  (12) 
adg

>  <m_score__min__energy>  (12) 
-7.9900000000000002

>  <m_primary>  (12) 
energy

$$$$
12:0
     RDKit          3D

 66 68  0  0  0  0  0  0  0  0999 V2000
   -9.4460   21.3660  -30.9340 C   0  0  0  0  0  0  0  0  0  0  0  0
   -9.9230   21.0110  -32.3400 C   0  0  0  0  0  0  0  0  0  0  0  0
   -9.0230   20.0310  -32.9650 N   0  0  0  0  0  0  0  0  0  0  0  0
   -8.6510   18.9290  -32.0610 C   0  0  0  0  0  0  0  0  0  0  0  0
   -7.1840   18.4900  -32.2350 C   0  0  0  0  0  0  0  0  0  0  0  0
   -6.5980   19.0920  -33.4490 N   0  0  0  0  0  0  0  0  0  0  0  0
   -5.3720   19.8160  -33.1460 C   0  0  0  0  0  0  0  0  0  0  0  0
   -5.4580   21.0860  -32.5050 C   0  0  0  0  0  0  0  0  0  0  0  0
   -6.6940   21.7700  -32.3580 C   0  0  0  0  0  0  0  0  0  0  0  0
   -6.7600   23.0200  -31.7510 C   0  0  0  0  0  0  0  0  0  0  0  0
   -5.6050   23.6290  -31.2800 C   0  0  0  0  0  0  0  0  0  0  0  0
   -5.7010   25.3590  -30.4730 Br  0  0  0  0  0  0  0  0  0  0  0  0
   -4.3800   22.9800  -31.4020 C   0  0  0  0  0  0  0  0  0  0  0  0
   -4.2840   21.6900  -31.9870 C   0  0  0  0  0  0  0  0  0  0  0  0
   -3.0830   21.0250  -32.0500 N   0  0  0  0  0  0  0  0  0  0  0  0
   -1.9570   21.4610  -31.1910 C   0  0  0  0  0  0  0  0  0  0  0  0
   -2.9290   19.9520  -32.9020 C   0  0  0  0  0  0  0  0  0  0  0  0
   -1.6340   19.4990  -33.2470 C   0  0  0  0  0  0  0  0  0  0  0  0
   -1.4460   18.3950  -34.0560 C   0  0  0  0  0  0  0  0  0  0  0  0
   -2.5350   17.7180  -34.5680 C   0  0  0  0  0  0  0  0  0  0  0  0
   -3.8480   18.1460  -34.3030 C   0  0  0  0  0  0  0  0  0  0  0  0
   -4.9160   17.4540  -34.8940 O   0  0  0  0  0  0  0  0  0  0  0  0
   -5.3090   16.1150  -34.5870 C   0  0  0  0  0  0  0  0  0  0  0  0
   -5.0800   15.8370  -33.0920 C   0  0  0  0  0  0  0  0  0  0  0  0
   -4.9900   14.3270  -32.7440 C   0  0  0  0  0  0  0  0  0  0  0  0
   -3.6100   13.7470  -32.7020 N   0  0  0  0  0  0  0  0  0  0  0  0
   -3.3940   12.9530  -31.4660 C   0  0  0  0  0  0  0  0  0  0  0  0
   -2.5690   14.7970  -32.8020 C   0  0  0  0  0  0  0  0  0  0  0  0
   -3.4610   12.8340  -33.8630 C   0  0  0  0  0  0  0  0  0  0  0  0
   -4.0710   19.2920  -33.4600 C   0  0  0  0  0  0  0  0  0  0  0  0
  -10.0977   20.8810  -30.1923 H   0  0  0  0  0  0  0  0  0  0  0  0
   -8.4121   21.0159  -30.7983 H   0  0  0  0  0  0  0  0  0  0  0  0
   -9.4845   22.4569  -30.7983 H   0  0  0  0  0  0  0  0  0  0  0  0
  -10.9351   20.5843  -32.2804 H   0  0  0  0  0  0  0  0  0  0  0  0
   -9.9281   21.9252  -32.9518 H   0  0  0  0  0  0  0  0  0  0  0  0
   -9.4900   19.6350  -33.8150 H   0  0  0  0  0  0  0  0  0  0  0  0
   -8.7990   19.2599  -31.0224 H   0  0  0  0  0  0  0  0  0  0  0  0
   -9.2884   18.0668  -32.3065 H   0  0  0  0  0  0  0  0  0  0  0  0
   -6.6046   18.8117  -31.3570 H   0  0  0  0  0  0  0  0  0  0  0  0
   -7.1526   17.3949  -32.3337 H   0  0  0  0  0  0  0  0  0  0  0  0
   -6.4000   18.3480  -34.1570 H   0  0  0  0  0  0  0  0  0  0  0  0
   -7.2840   19.6900  -33.9530 H   0  0  0  0  0  0  0  0  0  0  0  0
   -7.6170   21.3023  -32.7313 H   0  0  0  0  0  0  0  0  0  0  0  0
   -7.7302   23.5272  -31.6440 H   0  0  0  0  0  0  0  0  0  0  0  0
   -3.4683   23.4762  -31.0380 H   0  0  0  0  0  0  0  0  0  0  0  0
   -2.2390   21.3518  -30.1334 H   0  0  0  0  0  0  0  0  0  0  0  0
   -1.0738   20.8399  -31.4010 H   0  0  0  0  0  0  0  0  0  0  0  0
   -1.7224   22.5150  -31.4010 H   0  0  0  0  0  0  0  0  0  0  0  0
   -0.7561   20.0385  -32.8621 H   0  0  0  0  0  0  0  0  0  0  0  0
   -0.4271   18.0548  -34.2926 H   0  0  0  0  0  0  0  0  0  0  0  0
   -2.3727   16.8283  -35.1941 H   0  0  0  0  0  0  0  0  0  0  0  0
   -6.3750   15.9834  -34.8242 H   0  0  0  0  0  0  0  0  0  0  0  0
   -4.7081   15.4132  -35.1841 H   0  0  0  0  0  0  0  0  0  0  0  0
   -4.1390   16.3197  -32.7893 H   0  0  0  0  0  0  0  0  0  0  0  0
   -5.9507   16.2393  -32.5535 H   0  0  0  0  0  0  0  0  0  0  0  0
   -5.4472   14.1814  -31.7542 H   0  0  0  0  0  0  0  0  0  0  0  0
   -5.5091   13.8020  -33.5594 H   0  0  0  0  0  0  0  0  0  0  0  0
   -3.5673   13.5899  -30.5861 H   0  0  0  0  0  0  0  0  0  0  0  0
   -4.0940   12.1047  -31.4481 H   0  0  0  0  0  0  0  0  0  0  0  0
   -2.3607   12.5762  -31.4481 H   0  0  0  0  0  0  0  0  0  0  0  0
   -2.2622   15.1065  -31.7920 H   0  0  0  0  0  0  0  0  0  0  0  0
   -1.6983   14.3996  -33.3441 H   0  0  0  0  0  0  0  0  0  0  0  0
   -2.9739   15.6643  -33.3441 H   0  0  0  0  0  0  0  0  0  0  0  0
   -3.2936   11.8080  -33.5035 H   0  0  0  0  0  0  0  0  0  0  0  0
   -4.3759   12.8641  -34.4729 H   0  0  0  0  0  0  0  0  0  0  0  0
   -2.6031   13.1534  -34.4729 H   0  0  0  0  0  0  0  0  0  0  0  0
  1  2  1  0
  2  3  1  0
  3  4  1  0
  4  5  1  0
  5  6  1  0
  6  7  1  0
  7  8  2  0
  8  9  1  0
  9 10  2  0
 10 11  1  0
 11 12  1  0
 11 13  2  0
 13 14  1  0
 14 15  2  0
 15 16  1  0
 15 17  1  0
 17 18  2  0
 18 19  1  0
 19 20  2  0
 20 21  1  0
 21 22  1  0
 22 23  1  0
 23 24  1  0
 24 25  1  0
 25 26  1  0
 26 27  1  0
 26 28  1  0
 26 29  1  0
 21 30  2  0
 30  7  1  0
 14  8  1  0
 30 17  1  0
  1 31  1  0
  1 32  1  0
  1 33  1  0
  2 34  1  0
  2 35  1  0
  3 36  1  0
  4 37  1  0
  4 38  1  0
  5 39  1  0
  5 40  1  0
  6 41  1  0
  6 42  1  0
  9 43  1  0
 10 44  1  0
 13 45  1  0
 16 46  1  0
 16 47  1  0
 16 48  1  0
 18 49  1  0
 19 50  1  0
 20 51  1  0
 23 52  1  0
 23 53  1  0
 24 54  1  0
 24 55  1  0
 25 56  1  0
 25 57  1  0
 27 58  1  0
 27 59  1  0
 27 60  1  0
 28 61  1  0
 28 62  1  0
 28 63  1  0
 29 64  1  0
 29 65  1  0
 29 66  1  0
M  CHG  3   6   1  15   1  26   1
M  END
>  <UniqueID>  (13) 
13

>  <SMILES>  (13) 
CCNCC[NH2+]c1c2ccc(Br)cc2[n+](C)c2cccc(OCCC[N+](C)(C)C)c12

>  <Energy>  (13) 
103.66234293763245

>  <Genealogy>  (13) 
CCNCC[NH2+]c1c2ccc(Br)cc2[n+](C)c2cccc(OCCC[N+](C)(C)C)c12 (protonated)
CCNCC[NH2+]c1c2ccc(Br)cc2[n+](C)c2cccc(OCCC[N+](C)(C)C)c12 (3D coordinates assigned)
CCNCC[NH2+]c1c2ccc(Br)cc2[n+](C)c2cccc(OCCC[N+](C)(C)C)c12 (optimized conformer: 103.66234293763245 kcal/mol)

>  <smiles>  (13) 
CCNCCNc1c2ccc(Br)cc2[n+](C)c2cccc(OCCC[N+](C)(C)C)c12

>  <score_type>  (13) 
oracle

>  <origin>  (13) 
adg

>  <m_score__min__energy>  (13) 
-6.8399999999999999

>  <m_primary>  (13) 
energy

$$$$
13:0
     RDKit          3D

 62 64  0  0  0  0  0  0  0  0999 V2000
   -6.1110   25.5870  -29.4820 C   0  0  0  0  0  0  0  0  0  0  0  0
   -5.3860   25.4890  -30.8160 C   0  0  0  0  0  0  0  0  0  0  0  0
   -4.0070   25.2720  -30.5810 O   0  0  0  0  0  0  0  0  0  0  0  0
   -3.7010   23.9460  -30.7730 N   0  0  0  0  0  0  0  0  0  0  0  0
   -3.7740   23.2440  -29.4890 C   0  0  0  0  0  0  0  0  0  0  0  0
   -2.3780   23.1480  -28.8690 C   0  0  0  0  0  0  0  0  0  0  0  0
   -1.8800   21.6950  -28.8570 C   0  0  0  0  0  0  0  0  0  0  0  0
   -1.1330   21.3090  -30.1510 C   0  0  0  0  0  0  0  0  0  0  0  0
   -1.7740   21.8370  -31.3670 N   0  0  0  0  0  0  0  0  0  0  0  0
   -1.0420   21.4970  -32.5990 C   0  0  0  0  0  0  0  0  0  0  0  0
   -1.9910   20.8010  -33.5810 C   0  0  0  0  0  0  0  0  0  0  0  0
   -3.4420   21.3100  -33.4680 C   0  0  0  0  0  0  0  0  0  0  0  0
   -4.0540   21.0800  -32.1390 N   0  0  0  0  0  0  0  0  0  0  0  0
   -5.3700   20.4540  -32.2110 C   0  0  0  0  0  0  0  0  0  0  0  0
   -5.4850   19.0710  -32.5370 C   0  0  0  0  0  0  0  0  0  0  0  0
   -4.3480   18.2800  -32.8430 C   0  0  0  0  0  0  0  0  0  0  0  0
   -4.4760   16.9450  -33.2160 C   0  0  0  0  0  0  0  0  0  0  0  0
   -5.7320   16.3650  -33.3030 C   0  0  0  0  0  0  0  0  0  0  0  0
   -6.8650   17.1060  -32.9870 C   0  0  0  0  0  0  0  0  0  0  0  0
   -6.7680   18.4560  -32.5580 C   0  0  0  0  0  0  0  0  0  0  0  0
   -7.8870   19.1660  -32.1810 N   0  0  0  0  0  0  0  0  0  0  0  0
   -9.1500   18.4500  -31.8870 C   0  0  0  0  0  0  0  0  0  0  0  0
   -7.8260   20.5360  -32.0450 C   0  0  0  0  0  0  0  0  0  0  0  0
   -9.0090   21.3140  -31.9700 C   0  0  0  0  0  0  0  0  0  0  0  0
   -8.9600   22.6880  -31.7670 C   0  0  0  0  0  0  0  0  0  0  0  0
   -7.7370   23.3260  -31.6380 C   0  0  0  0  0  0  0  0  0  0  0  0
   -6.5540   22.6000  -31.7520 C   0  0  0  0  0  0  0  0  0  0  0  0
   -6.5650   21.2010  -31.9940 C   0  0  0  0  0  0  0  0  0  0  0  0
   -5.3846   25.4888  -28.6618 H   0  0  0  0  0  0  0  0  0  0  0  0
   -6.6160   26.5616  -29.4099 H   0  0  0  0  0  0  0  0  0  0  0  0
   -6.8566   24.7815  -29.4099 H   0  0  0  0  0  0  0  0  0  0  0  0
   -5.7967   24.6503  -31.3973 H   0  0  0  0  0  0  0  0  0  0  0  0
   -5.5224   26.4232  -31.3804 H   0  0  0  0  0  0  0  0  0  0  0  0
   -2.7680   23.7870  -31.2270 H   0  0  0  0  0  0  0  0  0  0  0  0
   -4.4384   23.7964  -28.8083 H   0  0  0  0  0  0  0  0  0  0  0  0
   -4.1690   22.2303  -29.6518 H   0  0  0  0  0  0  0  0  0  0  0  0
   -1.6803   23.7626  -29.4568 H   0  0  0  0  0  0  0  0  0  0  0  0
   -2.4297   23.5094  -27.8314 H   0  0  0  0  0  0  0  0  0  0  0  0
   -1.1972   21.5644  -28.0045 H   0  0  0  0  0  0  0  0  0  0  0  0
   -2.7622   21.0428  -28.7763 H   0  0  0  0  0  0  0  0  0  0  0  0
   -0.1083   21.7050  -30.0952 H   0  0  0  0  0  0  0  0  0  0  0  0
   -1.1468   20.2114  -30.2229 H   0  0  0  0  0  0  0  0  0  0  0  0
   -1.8950   22.8720  -31.2980 H   0  0  0  0  0  0  0  0  0  0  0  0
   -0.6492   22.4164  -33.0578 H   0  0  0  0  0  0  0  0  0  0  0  0
   -0.2072   20.8233  -32.3556 H   0  0  0  0  0  0  0  0  0  0  0  0
   -1.6330   20.9828  -34.6051 H   0  0  0  0  0  0  0  0  0  0  0  0
   -1.9949   19.7287  -33.3359 H   0  0  0  0  0  0  0  0  0  0  0  0
   -3.4470   22.3913  -33.6697 H   0  0  0  0  0  0  0  0  0  0  0  0
   -4.0384   20.7430  -34.1980 H   0  0  0  0  0  0  0  0  0  0  0  0
   -4.0410   21.9520  -31.5720 H   0  0  0  0  0  0  0  0  0  0  0  0
   -3.4230   20.4610  -31.5810 H   0  0  0  0  0  0  0  0  0  0  0  0
   -3.3460   18.7301  -32.7844 H   0  0  0  0  0  0  0  0  0  0  0  0
   -3.5792   16.3495  -33.4420 H   0  0  0  0  0  0  0  0  0  0  0  0
   -5.8323   15.3172  -33.6225 H   0  0  0  0  0  0  0  0  0  0  0  0
   -7.8565   16.6371  -33.0710 H   0  0  0  0  0  0  0  0  0  0  0  0
   -9.2836   18.3743  -30.7978 H   0  0  0  0  0  0  0  0  0  0  0  0
   -9.9951   19.0033  -32.3225 H   0  0  0  0  0  0  0  0  0  0  0  0
   -9.1092   17.4407  -32.3225 H   0  0  0  0  0  0  0  0  0  0  0  0
   -9.9861   20.8197  -32.0747 H   0  0  0  0  0  0  0  0  0  0  0  0
   -9.8923   23.2690  -31.7088 H   0  0  0  0  0  0  0  0  0  0  0  0
   -7.7003   24.4083  -31.4451 H   0  0  0  0  0  0  0  0  0  0  0  0
   -5.5906   23.1215  -31.6524 H   0  0  0  0  0  0  0  0  0  0  0  0
  1  2  1  0
  2  3  1  0
  3  4  1  0
  4  5  1  0
  5  6  1  0
  6  7  1  0
  7  8  1  0
  8  9  1  0
  9 10  1  0
 10 11  1  0
 11 12  1  0
 12 13  1  0
 13 14  1  0
 14 15  2  0
 15 16  1  0
 16 17  2  0
 17 18  1  0
 18 19  2  0
 19 20  1  0
 20 21  2  0
 21 22  1  0
 21 23  1  0
 23 24  2  0
 24 25  1  0
 25 26  2  0
 26 27  1  0
 27 28  2  0
 28 14  1  0
 20 15  1  0
 28 23  1  0
  1 29  1  0
  1 30  1  0
  1 31  1  0
  2 32  1  0
  2 33  1  0
  4 34  1  0
  5 35  1  0
  5 36  1  0
  6 37  1  0
  6 38  1  0
  7 39  1  0
  7 40  1  0
  8 41  1  0
  8 42  1  0
  9 43  1  0
 10 44  1  0
 10 45  1  0
 11 46  1  0
 11 47  1  0
 12 48  1  0
 12 49  1  0
 13 50  1  0
 13 51  1  0
 16 52  1  0
 17 53  1  0
 18 54  1  0
 19 55  1  0
 22 56  1  0
 22 57  1  0
 22 58  1  0
 24 59  1  0
 25 60  1  0
 26 61  1  0
 27 62  1  0
M  CHG  2  13   1  21   1
M  END
>  <UniqueID>  (14) 
14

>  <SMILES>  (14) 
CCONCCCCNCCC[NH2+]c1c2ccccc2[n+](C)c2ccccc12

>  <Energy>  (14) 
90.5769694268223

>  <Genealogy>  (14) 
CCONCCCCNCCC[NH2+]c1c2ccccc2[n+](C)c2ccccc12 (protonated)
CCONCCCCNCCC[NH2+]c1c2ccccc2[n+](C)c2ccccc12 (3D coordinates assigned)
CCONCCCCNCCC[NH2+]c1c2ccccc2[n+](C)c2ccccc12 (optimized conformer: 90.5769694268223 kcal/mol)

>  <smiles>  (14) 
CCONCCCCNCCCNc1c2ccccc2[n+](C)c2ccccc12

>  <score_type>  (14) 
oracle

>  <origin>  (14) 
adg

>  <m_score__min__energy>  (14) 
-9.0099999999999998

>  <m_primary>  (14) 
energy

$$$$
14:0
     RDKit          3D

 50 52  0  0  0  0  0  0  0  0999 V2000
   -1.4540   25.4840  -27.8637 H   0  0  0  0  0  0  0  0  0  0  0  0
   -1.8580   24.4650  -27.7720 C   0  0  0  0  0  0  0  0  0  0  0  0
   -1.6300   23.7970  -26.6330 C   0  0  0  0  0  0  0  0  0  0  0  0
   -2.3787   23.0769  -26.2712 H   0  0  0  0  0  0  0  0  0  0  0  0
   -0.3730   24.0120  -25.8410 C   0  0  0  0  0  0  0  0  0  0  0  0
    0.1959   24.8401  -26.2889 H   0  0  0  0  0  0  0  0  0  0  0  0
    0.2143   23.0821  -25.8609 H   0  0  0  0  0  0  0  0  0  0  0  0
   -0.6900   24.3560  -24.3760 C   0  0  0  0  0  0  0  0  0  0  0  0
   -0.5611   23.4509  -23.7643 H   0  0  0  0  0  0  0  0  0  0  0  0
   -1.7252   24.7255  -24.3335 H   0  0  0  0  0  0  0  0  0  0  0  0
    0.1890   25.4150  -23.8470 N   0  0  0  0  0  0  0  0  0  0  0  0
   -0.1610   25.6580  -22.8910 H   0  0  0  0  0  0  0  0  0  0  0  0
    1.1580   25.0370  -23.7220 H   0  0  0  0  0  0  0  0  0  0  0  0
    0.1800   26.6470  -24.6680 C   0  0  0  0  0  0  0  0  0  0  0  0
    0.6241   26.4233  -25.6492 H   0  0  0  0  0  0  0  0  0  0  0  0
    0.7597   27.4150  -24.1350 H   0  0  0  0  0  0  0  0  0  0  0  0
   -1.2370   27.1850  -24.8780 C   0  0  0  0  0  0  0  0  0  0  0  0
   -1.7096   27.3644  -23.9010 H   0  0  0  0  0  0  0  0  0  0  0  0
   -1.1912   28.1283  -25.4420 H   0  0  0  0  0  0  0  0  0  0  0  0
   -1.8288   26.4490  -25.4420 H   0  0  0  0  0  0  0  0  0  0  0  0
   -2.6230   23.9120  -28.9170 C   0  0  0  0  0  0  0  0  0  0  0  0
   -2.2390   22.6660  -29.4400 C   0  0  0  0  0  0  0  0  0  0  0  0
   -1.3815   22.1326  -29.0040 H   0  0  0  0  0  0  0  0  0  0  0  0
   -2.9360   22.0990  -30.5080 C   0  0  0  0  0  0  0  0  0  0  0  0
   -2.6175   21.1283  -30.9158 H   0  0  0  0  0  0  0  0  0  0  0  0
   -4.0390   22.7600  -31.0630 C   0  0  0  0  0  0  0  0  0  0  0  0
   -4.4290   24.0030  -30.5580 C   0  0  0  0  0  0  0  0  0  0  0  0
   -3.7370   24.5700  -29.4760 C   0  0  0  0  0  0  0  0  0  0  0  0
   -4.0665   25.5343  -29.0617 H   0  0  0  0  0  0  0  0  0  0  0  0
   -5.6290   24.6780  -31.1510 C   0  0  0  0  0  0  0  0  0  0  0  0
   -5.6826   25.7143  -30.7861 H   0  0  0  0  0  0  0  0  0  0  0  0
   -5.5424   24.6753  -32.2476 H   0  0  0  0  0  0  0  0  0  0  0  0
   -6.8980   23.9300  -30.7430 C   0  0  0  0  0  0  0  0  0  0  0  0
   -6.8628   23.7828  -29.6535 H   0  0  0  0  0  0  0  0  0  0  0  0
   -7.7301   24.5579  -31.0943 H   0  0  0  0  0  0  0  0  0  0  0  0
   -7.1240   22.5680  -31.3860 C   0  0  0  0  0  0  0  0  0  0  0  0
   -8.4320   22.0570  -31.2800 C   0  0  0  0  0  0  0  0  0  0  0  0
   -9.2040   22.6534  -30.7718 H   0  0  0  0  0  0  0  0  0  0  0  0
   -8.7680   20.8110  -31.8060 C   0  0  0  0  0  0  0  0  0  0  0  0
   -9.7994   20.4383  -31.7199 H   0  0  0  0  0  0  0  0  0  0  0  0
   -7.8020   20.0390  -32.4390 C   0  0  0  0  0  0  0  0  0  0  0  0
   -8.0688   19.0562  -32.8548 H   0  0  0  0  0  0  0  0  0  0  0  0
   -6.4950   20.5100  -32.5470 C   0  0  0  0  0  0  0  0  0  0  0  0
   -5.7377   19.8885  -33.0472 H   0  0  0  0  0  0  0  0  0  0  0  0
   -6.1240   21.7670  -32.0280 C   0  0  0  0  0  0  0  0  0  0  0  0
   -4.7480   22.1910  -32.1720 N   0  0  0  0  0  0  0  0  0  0  0  0
   -3.9950   21.8760  -33.3900 C   0  0  0  0  0  0  0  0  0  0  0  0
   -3.0119   21.4647  -33.1172 H   0  0  0  0  0  0  0  0  0  0  0  0
   -4.5507   21.1349  -33.9833 H   0  0  0  0  0  0  0  0  0  0  0  0
   -3.8575   22.7920  -33.9833 H   0  0  0  0  0  0  0  0  0  0  0  0
  1  2  1  0
  2  3  2  0
  3  4  1  0
  3  5  1  0
  5  6  1  0
  5  7  1  0
  5  8  1  0
  8  9  1  0
  8 10  1  0
  8 11  1  0
 11 12  1  0
 11 13  1  0
 11 14  1  0
 14 15  1  0
 14 16  1  0
 14 17  1  0
 17 18  1  0
 17 19  1  0
 17 20  1  0
  2 21  1  0
 21 22  2  0
 22 23  1  0
 22 24  1  0
 24 25  1  0
 24 26  2  0
 26 27  1  0
 27 28  2  0
 28 29  1  0
 27 30  1  0
 30 31  1  0
 30 32  1  0
 30 33  1  0
 33 34  1  0
 33 35  1  0
 33 36  1  0
 36 37  2  0
 37 38  1  0
 37 39  1  0
 39 40  1  0
 39 41  2  0
 41 42  1  0
 41 43  1  0
 43 44  1  0
 43 45  2  0
 45 46  1  0
 46 47  1  0
 47 48  1  0
 47 49  1  0
 47 50  1  0
 28 21  1  0
 45 36  1  0
 46 26  1  0
M  CHG  1  11   1
M  END
>  <UniqueID>  (15) 
15

>  <SMILES>  (15) 
CC[NH2+]CC/C=C/c1ccc2c(c1)CCc1ccccc1N2C

>  <Energy>  (15) 
66.64312329576991

>  <Genealogy>  (15) 
CC[NH2+]CCC=Cc1ccc2c(c1)CCc1ccccc1N2C (protonated)
CC[NH2+]CC/C=C/c1ccc2c(c1)CCc1ccccc1N2C (cis-trans isomerization)
CC[NH2+]CC/C=C/c1ccc2c(c1)CCc1ccccc1N2C (3D coordinates assigned)
CC[NH2+]CC/C=C/c1ccc2c(c1)CCc1ccccc1N2C (nonaromatic ring conformer: 66.64312329576991 kcal/mol)

>  <smiles>  (15) 
CCNCCC=Cc1ccc2c(c1)CCc1ccccc1N2C

>  <score_type>  (15) 
oracle

>  <origin>  (15) 
adg

>  <m_score__min__energy>  (15) 
-7.2000000000000002

>  <m_primary>  (15) 
energy

$$$$
15:0
     RDKit          3D

 46 48  0  0  0  0  0  0  0  0999 V2000
   -0.9840   26.2270  -24.3150 C   0  0  0  0  0  0  0  0  0  0  0  0
   -2.0300   26.4760  -25.2500 O   0  0  0  0  0  0  0  0  0  0  0  0
   -2.3760   25.6130  -26.2990 C   0  0  0  0  0  0  0  0  0  0  0  0
   -1.5020   25.3350  -27.3680 C   0  0  0  0  0  0  0  0  0  0  0  0
   -1.8950   24.4670  -28.3920 C   0  0  0  0  0  0  0  0  0  0  0  0
   -3.1650   23.8720  -28.3680 C   0  0  0  0  0  0  0  0  0  0  0  0
   -3.5670   22.9040  -29.4470 C   0  0  0  0  0  0  0  0  0  0  0  0
   -4.7020   23.4360  -30.1980 N   0  0  0  0  0  0  0  0  0  0  0  0
   -5.8600   22.7950  -30.4480 C   0  0  0  0  0  0  0  0  0  0  0  0
   -6.7190   23.6450  -31.1220 C   0  0  0  0  0  0  0  0  0  0  0  0
   -8.1160   23.3270  -31.5630 C   0  0  0  0  0  0  0  0  0  0  0  0
   -8.5020   21.9870  -31.1170 N   0  0  0  0  0  0  0  0  0  0  0  0
   -8.0830   20.7640  -31.7530 C   0  0  0  0  0  0  0  0  0  0  0  0
   -8.6900   19.5280  -31.4650 C   0  0  0  0  0  0  0  0  0  0  0  0
   -8.2540   18.3590  -32.0980 C   0  0  0  0  0  0  0  0  0  0  0  0
   -7.2050   18.4060  -33.0330 C   0  0  0  0  0  0  0  0  0  0  0  0
   -6.7320   17.2620  -33.6920 O   0  0  0  0  0  0  0  0  0  0  0  0
   -5.6010   17.2430  -34.5570 C   0  0  0  0  0  0  0  0  0  0  0  0
   -6.6050   19.6370  -33.3230 C   0  0  0  0  0  0  0  0  0  0  0  0
   -7.0390   20.8040  -32.6910 C   0  0  0  0  0  0  0  0  0  0  0  0
   -6.0710   24.8580  -31.2700 C   0  0  0  0  0  0  0  0  0  0  0  0
   -4.8360   24.6860  -30.6840 C   0  0  0  0  0  0  0  0  0  0  0  0
   -3.8560   25.6670  -30.5930 O   0  0  0  0  0  0  0  0  0  0  0  0
   -4.0300   24.1380  -27.2960 C   0  0  0  0  0  0  0  0  0  0  0  0
   -3.6380   25.0070  -26.2740 C   0  0  0  0  0  0  0  0  0  0  0  0
   -1.3769   26.3205  -23.2918 H   0  0  0  0  0  0  0  0  0  0  0  0
   -0.5918   25.2104  -24.4657 H   0  0  0  0  0  0  0  0  0  0  0  0
   -0.1758   26.9579  -24.4657 H   0  0  0  0  0  0  0  0  0  0  0  0
   -0.5066   25.8023  -27.3977 H   0  0  0  0  0  0  0  0  0  0  0  0
   -1.2046   24.2499  -29.2204 H   0  0  0  0  0  0  0  0  0  0  0  0
   -2.7193   22.7474  -30.1303 H   0  0  0  0  0  0  0  0  0  0  0  0
   -3.8555   21.9481  -28.9854 H   0  0  0  0  0  0  0  0  0  0  0  0
   -6.0873   21.7577  -30.1611 H   0  0  0  0  0  0  0  0  0  0  0  0
   -8.8084   24.0653  -31.1324 H   0  0  0  0  0  0  0  0  0  0  0  0
   -8.1590   23.3624  -32.6616 H   0  0  0  0  0  0  0  0  0  0  0  0
   -9.1470   21.9270  -30.2960 H   0  0  0  0  0  0  0  0  0  0  0  0
   -9.5132   19.4803  -30.7370 H   0  0  0  0  0  0  0  0  0  0  0  0
   -8.7345   17.3978  -31.8629 H   0  0  0  0  0  0  0  0  0  0  0  0
   -4.6799   17.2275  -33.9559 H   0  0  0  0  0  0  0  0  0  0  0  0
   -5.6398   16.3454  -35.1916 H   0  0  0  0  0  0  0  0  0  0  0  0
   -5.6096   18.1414  -35.1916 H   0  0  0  0  0  0  0  0  0  0  0  0
   -5.7850   19.6854  -34.0546 H   0  0  0  0  0  0  0  0  0  0  0  0
   -6.5583   21.7640  -32.9303 H   0  0  0  0  0  0  0  0  0  0  0  0
   -6.4592   25.7669  -31.7530 H   0  0  0  0  0  0  0  0  0  0  0  0
   -5.0205   23.6608  -27.2597 H   0  0  0  0  0  0  0  0  0  0  0  0
   -4.3270   25.2167  -25.4426 H   0  0  0  0  0  0  0  0  0  0  0  0
  1  2  1  0
  2  3  1  0
  3  4  2  0
  4  5  1  0
  5  6  2  0
  6  7  1  0
  7  8  1  0
  8  9  1  0
  9 10  2  0
 10 11  1  0
 11 12  1  0
 12 13  1  0
 13 14  2  0
 14 15  1  0
 15 16  2  0
 16 17  1  0
 17 18  1  0
 16 19  1  0
 19 20  2  0
 10 21  1  0
 21 22  2  0
 22 23  1  0
  6 24  1  0
 24 25  2  0
 25  3  1  0
 22  8  1  0
 20 13  1  0
  1 26  1  0
  1 27  1  0
  1 28  1  0
  4 29  1  0
  5 30  1  0
  7 31  1  0
  7 32  1  0
  9 33  1  0
 11 34  1  0
 11 35  1  0
 12 36  1  0
 14 37  1  0
 15 38  1  0
 18 39  1  0
 18 40  1  0
 18 41  1  0
 19 42  1  0
 20 43  1  0
 21 44  1  0
 24 45  1  0
 25 46  1  0
M  CHG  1  23  -1
M  END
>  <UniqueID>  (16) 
16

>  <SMILES>  (16) 
COc1ccc(Cn2cc(CNc3ccc(OC)cc3)cc2[O-])cc1

>  <Energy>  (16) 
70.5431186874343

>  <Genealogy>  (16) 
COc1ccc(Cn2cc(CNc3ccc(OC)cc3)cc2[O-])cc1 (protonated)
COc1ccc(Cn2cc(CNc3ccc(OC)cc3)cc2[O-])cc1 (3D coordinates assigned)
COc1ccc(Cn2cc(CNc3ccc(OC)cc3)cc2[O-])cc1 (optimized conformer: 70.5431186874343 kcal/mol)

>  <smiles>  (16) 
COc1ccc(Cn2cc(CNc3ccc(OC)cc3)cc2O)cc1

>  <score_type>  (16) 
oracle

>  <origin>  (16) 
adg

>  <m_score__min__energy>  (16) 
-11.09

>  <m_primary>  (16) 
energy

$$$$
16:0
     RDKit          3D

 46 48  0  0  0  0  0  0  0  0999 V2000
   -0.9160   22.0320  -26.3660 C   0  0  0  0  0  0  0  0  0  0  0  0
   -1.5570   22.8520  -27.4450 C   0  0  0  0  0  0  0  0  0  0  0  0
   -2.0760   24.1220  -27.1500 C   0  0  0  0  0  0  0  0  0  0  0  0
   -2.7320   24.8610  -28.1380 C   0  0  0  0  0  0  0  0  0  0  0  0
   -2.8670   24.3500  -29.4330 C   0  0  0  0  0  0  0  0  0  0  0  0
   -3.5400   25.1400  -30.4200 N   0  0  0  0  0  0  0  0  0  0  0  0
   -4.9390   25.0310  -30.7190 C   0  0  0  0  0  0  0  0  0  0  0  0
   -5.6660   26.0620  -30.7460 O   0  0  0  0  0  0  0  0  0  0  0  0
   -5.5440   23.6890  -31.0330 C   0  0  0  0  0  0  0  0  0  0  0  0
   -6.4210   23.1950  -29.8610 C   0  0  0  0  0  0  0  0  0  0  0  0
   -7.5880   22.2980  -30.3240 C   0  0  0  0  0  0  0  0  0  0  0  0
   -7.2590   21.4890  -31.5180 N   0  0  0  0  0  0  0  0  0  0  0  0
   -6.3140   20.3880  -31.2230 C   0  0  0  0  0  0  0  0  0  0  0  0
   -6.3700   19.3300  -32.2970 C   0  0  0  0  0  0  0  0  0  0  0  0
   -5.6780   19.5190  -33.5030 C   0  0  0  0  0  0  0  0  0  0  0  0
   -5.7380   18.5500  -34.5090 C   0  0  0  0  0  0  0  0  0  0  0  0
   -6.4880   17.3880  -34.3150 C   0  0  0  0  0  0  0  0  0  0  0  0
   -7.1830   17.1950  -33.1200 C   0  0  0  0  0  0  0  0  0  0  0  0
   -7.1270   18.1620  -32.1130 C   0  0  0  0  0  0  0  0  0  0  0  0
   -6.8520   22.3080  -32.6920 C   0  0  0  0  0  0  0  0  0  0  0  0
   -6.3480   23.7210  -32.3360 C   0  0  0  0  0  0  0  0  0  0  0  0
   -2.3950   23.0540  -29.7190 C   0  0  0  0  0  0  0  0  0  0  0  0
   -2.7110   22.2080  -31.4100 Br  0  0  0  0  0  0  0  0  0  0  0  0
   -1.7440   22.3150  -28.7220 C   0  0  0  0  0  0  0  0  0  0  0  0
   -1.2189   22.4195  -25.3821 H   0  0  0  0  0  0  0  0  0  0  0  0
   -1.2370   20.9843  -26.4621 H   0  0  0  0  0  0  0  0  0  0  0  0
    0.1782   22.0905  -26.4621 H   0  0  0  0  0  0  0  0  0  0  0  0
   -1.9660   24.5373  -26.1373 H   0  0  0  0  0  0  0  0  0  0  0  0
   -3.1450   25.8513  -27.8957 H   0  0  0  0  0  0  0  0  0  0  0  0
   -4.7160   22.9784  -31.1725 H   0  0  0  0  0  0  0  0  0  0  0  0
   -5.7896   22.6201  -29.1676 H   0  0  0  0  0  0  0  0  0  0  0  0
   -6.8566   24.0815  -29.3768 H   0  0  0  0  0  0  0  0  0  0  0  0
   -7.8538   21.6171  -29.5020 H   0  0  0  0  0  0  0  0  0  0  0  0
   -8.4231   22.9603  -30.5961 H   0  0  0  0  0  0  0  0  0  0  0  0
   -5.2930   20.7939  -31.1699 H   0  0  0  0  0  0  0  0  0  0  0  0
   -6.5953   19.9304  -30.2631 H   0  0  0  0  0  0  0  0  0  0  0  0
   -5.0860   20.4332  -33.6575 H   0  0  0  0  0  0  0  0  0  0  0  0
   -5.1946   18.7028  -35.4531 H   0  0  0  0  0  0  0  0  0  0  0  0
   -6.5311   16.6238  -35.1050 H   0  0  0  0  0  0  0  0  0  0  0  0
   -7.7756   16.2804  -32.9708 H   0  0  0  0  0  0  0  0  0  0  0  0
   -7.6776   18.0077  -31.1733 H   0  0  0  0  0  0  0  0  0  0  0  0
   -6.0456   21.7773  -33.2193 H   0  0  0  0  0  0  0  0  0  0  0  0
   -7.7520   22.4411  -33.3104 H   0  0  0  0  0  0  0  0  0  0  0  0
   -5.7064   24.0923  -33.1487 H   0  0  0  0  0  0  0  0  0  0  0  0
   -7.2143   24.3859  -32.2042 H   0  0  0  0  0  0  0  0  0  0  0  0
   -1.3767   21.3027  -28.9464 H   0  0  0  0  0  0  0  0  0  0  0  0
  1  2  1  0
  2  3  2  0
  3  4  1  0
  4  5  2  0
  5  6  1  0
  6  7  1  0
  7  8  2  0
  7  9  1  0
  9 10  1  0
 10 11  1  0
 11 12  1  0
 12 13  1  0
 13 14  1  0
 14 15  2  0
 15 16  1  0
 16 17  2  0
 17 18  1  0
 18 19  2  0
 12 20  1  0
 20 21  1  0
  5 22  1  0
 22 23  1  0
 22 24  2  0
 24  2  1  0
 21  9  1  0
 19 14  1  0
  1 25  1  0
  1 26  1  0
  1 27  1  0
  3 28  1  0
  4 29  1  0
  9 30  1  0
 10 31  1  0
 10 32  1  0
 11 33  1  0
 11 34  1  0
 13 35  1  0
 13 36  1  0
 15 37  1  0
 16 38  1  0
 17 39  1  0
 18 40  1  0
 19 41  1  0
 20 42  1  0
 20 43  1  0
 21 44  1  0
 21 45  1  0
 24 46  1  0
M  CHG  1   6  -1
M  END
>  <UniqueID>  (17) 
17

>  <SMILES>  (17) 
Cc1ccc([N-]C(=O)C2CCN(Cc3ccccc3)CC2)c(Br)c1

>  <Energy>  (17) 
62.438293210451455

>  <Genealogy>  (17) 
Cc1ccc([N-]C(=O)C2CCN(Cc3ccccc3)CC2)c(Br)c1 (protonated)
Cc1ccc([N-]C(=O)C2CCN(Cc3ccccc3)CC2)c(Br)c1 (3D coordinates assigned)
Cc1ccc([N-]C(=O)C2CCN(Cc3ccccc3)CC2)c(Br)c1 (nonaromatic ring conformer: 62.438293210451455 kcal/mol)

>  <smiles>  (17) 
Cc1ccc(NC(=O)C2CCN(Cc3ccccc3)CC2)c(Br)c1

>  <score_type>  (17) 
oracle

>  <origin>  (17) 
adg

>  <m_score__min__energy>  (17) 
-10.57

>  <m_primary>  (17) 
energy

$$$$
17:0
     RDKit          3D

 59 59  0  0  0  0  0  0  0  0999 V2000
   -4.3640   17.9410  -34.4150 C   0  0  0  0  0  0  0  0  0  0  0  0
   -5.7600   18.4600  -34.7460 C   0  0  0  0  0  0  0  0  0  0  0  0
   -6.1600   19.6270  -33.8340 C   0  0  0  0  0  0  0  0  0  0  0  0
   -5.4840   19.5080  -32.5190 N   0  0  0  0  0  0  0  0  0  0  0  0
   -5.0160   20.7990  -31.9620 C   0  0  0  0  0  0  0  0  0  0  0  0
   -4.2880   21.6250  -33.0340 C   0  0  0  0  0  0  0  0  0  0  0  0
   -2.8520   21.1650  -33.2710 C   0  0  0  0  0  0  0  0  0  0  0  0
   -6.2480   18.6840  -31.5500 C   0  0  0  0  0  0  0  0  0  0  0  0
   -7.5800   18.1260  -32.1070 C   0  0  0  0  0  0  0  0  0  0  0  0
   -8.8050   18.9290  -31.6330 C   0  0  0  0  0  0  0  0  0  0  0  0
   -8.9720   20.2590  -32.3770 C   0  0  0  0  0  0  0  0  0  0  0  0
   -9.0760   21.3270  -31.4400 O   0  0  0  0  0  0  0  0  0  0  0  0
   -8.0990   22.3100  -31.2370 C   0  0  0  0  0  0  0  0  0  0  0  0
   -7.6020   23.1050  -32.2900 C   0  0  0  0  0  0  0  0  0  0  0  0
   -6.6300   24.0800  -32.0440 C   0  0  0  0  0  0  0  0  0  0  0  0
   -6.1300   24.2650  -30.7460 C   0  0  0  0  0  0  0  0  0  0  0  0
   -5.0980   25.3220  -30.4690 C   0  0  0  0  0  0  0  0  0  0  0  0
   -3.7300   24.8220  -30.6770 N   0  0  0  0  0  0  0  0  0  0  0  0
   -3.1600   23.9880  -29.5950 C   0  0  0  0  0  0  0  0  0  0  0  0
   -2.0680   24.7340  -28.8260 C   0  0  0  0  0  0  0  0  0  0  0  0
   -2.6870   22.5980  -30.0530 C   0  0  0  0  0  0  0  0  0  0  0  0
   -6.6260   23.4700  -29.6980 C   0  0  0  0  0  0  0  0  0  0  0  0
   -7.5990   22.4980  -29.9480 C   0  0  0  0  0  0  0  0  0  0  0  0
   -4.2394   17.8947  -33.3231 H   0  0  0  0  0  0  0  0  0  0  0  0
   -4.2360   16.9352  -34.8416 H   0  0  0  0  0  0  0  0  0  0  0  0
   -3.6101   18.6189  -34.8416 H   0  0  0  0  0  0  0  0  0  0  0  0
   -5.7749   18.8025  -35.7912 H   0  0  0  0  0  0  0  0  0  0  0  0
   -6.4773   17.6406  -34.5906 H   0  0  0  0  0  0  0  0  0  0  0  0
   -5.8667   20.5752  -34.3083 H   0  0  0  0  0  0  0  0  0  0  0  0
   -7.2489   19.6037  -33.6799 H   0  0  0  0  0  0  0  0  0  0  0  0
   -5.8825   21.3685  -31.5949 H   0  0  0  0  0  0  0  0  0  0  0  0
   -4.3154   20.5942  -31.1391 H   0  0  0  0  0  0  0  0  0  0  0  0
   -4.8437   21.5392  -33.9794 H   0  0  0  0  0  0  0  0  0  0  0  0
   -4.2448   22.6638  -32.6747 H   0  0  0  0  0  0  0  0  0  0  0  0
   -2.3537   21.0054  -32.3034 H   0  0  0  0  0  0  0  0  0  0  0  0
   -2.8577   20.2237  -33.8402 H   0  0  0  0  0  0  0  0  0  0  0  0
   -2.3097   21.9344  -33.8402 H   0  0  0  0  0  0  0  0  0  0  0  0
   -5.6180   17.8350  -31.2462 H   0  0  0  0  0  0  0  0  0  0  0  0
   -6.5074   19.3431  -30.7084 H   0  0  0  0  0  0  0  0  0  0  0  0
   -7.5425   18.1572  -33.2059 H   0  0  0  0  0  0  0  0  0  0  0  0
   -7.6918   17.0976  -31.7328 H   0  0  0  0  0  0  0  0  0  0  0  0
   -9.7072   18.3208  -31.7948 H   0  0  0  0  0  0  0  0  0  0  0  0
   -8.6541   19.1632  -30.5689 H   0  0  0  0  0  0  0  0  0  0  0  0
   -8.0997   20.4263  -33.0259 H   0  0  0  0  0  0  0  0  0  0  0  0
   -9.8865   20.2212  -32.9872 H   0  0  0  0  0  0  0  0  0  0  0  0
   -7.9813   22.9574  -33.3119 H   0  0  0  0  0  0  0  0  0  0  0  0
   -6.2566   24.7033  -32.8699 H   0  0  0  0  0  0  0  0  0  0  0  0
   -5.2716   26.1736  -31.1432 H   0  0  0  0  0  0  0  0  0  0  0  0
   -5.1938   25.6238  -29.4156 H   0  0  0  0  0  0  0  0  0  0  0  0
   -3.1110   25.6550  -30.7840 H   0  0  0  0  0  0  0  0  0  0  0  0
   -3.9946   23.7948  -28.9050 H   0  0  0  0  0  0  0  0  0  0  0  0
   -2.2367   24.6187  -27.7451 H   0  0  0  0  0  0  0  0  0  0  0  0
   -1.0844   24.3182  -29.0900 H   0  0  0  0  0  0  0  0  0  0  0  0
   -2.0977   25.8014  -29.0900 H   0  0  0  0  0  0  0  0  0  0  0  0
   -2.4748   21.9743  -29.1721 H   0  0  0  0  0  0  0  0  0  0  0  0
   -3.4742   22.1235  -30.6572 H   0  0  0  0  0  0  0  0  0  0  0  0
   -1.7737   22.7021  -30.6572 H   0  0  0  0  0  0  0  0  0  0  0  0
   -6.2463   23.6136  -28.6756 H   0  0  0  0  0  0  0  0  0  0  0  0
   -7.9736   21.8761  -29.1216 H   0  0  0  0  0  0  0  0  0  0  0  0
  1  2  1  0
  2  3  1  0
  3  4  1  0
  4  5  1  0
  5  6  1  0
  6  7  1  0
  4  8  1  0
  8  9  1  0
  9 10  1  0
 10 11  1  0
 11 12  1  0
 12 13  1  0
 13 14  2  0
 14 15  1  0
 15 16  2  0
 16 17  1  0
 17 18  1  0
 18 19  1  0
 19 20  1  0
 19 21  1  0
 16 22  1  0
 22 23  2  0
 23 13  1  0
  1 24  1  0
  1 25  1  0
  1 26  1  0
  2 27  1  0
  2 28  1  0
  3 29  1  0
  3 30  1  0
  5 31  1  0
  5 32  1  0
  6 33  1  0
  6 34  1  0
  7 35  1  0
  7 36  1  0
  7 37  1  0
  8 38  1  0
  8 39  1  0
  9 40  1  0
  9 41  1  0
 10 42  1  0
 10 43  1  0
 11 44  1  0
 11 45  1  0
 14 46  1  0
 15 47  1  0
 17 48  1  0
 17 49  1  0
 18 50  1  0
 19 51  1  0
 20 52  1  0
 20 53  1  0
 20 54  1  0
 21 55  1  0
 21 56  1  0
 21 57  1  0
 22 58  1  0
 23 59  1  0
M  END
>  <UniqueID>  (18) 
18

>  <SMILES>  (18) 
CCCN(CCC)CCCCOc1ccc(CNC(C)C)cc1

>  <Energy>  (18) 
52.50599858985091

>  <Genealogy>  (18) 
CCCN(CCC)CCCCOc1ccc(CNC(C)C)cc1 (3D coordinates assigned)
CCCN(CCC)CCCCOc1ccc(CNC(C)C)cc1 (optimized conformer: 52.50599858985091 kcal/mol)

>  <smiles>  (18) 
CCCN(CCC)CCCCOc1ccc(CNC(C)C)cc1

>  <score_type>  (18) 
oracle

>  <origin>  (18) 
adg

>  <m_score__min__energy>  (18) 
-7.6299999999999999

>  <m_primary>  (18) 
energy

$$$$
18:0
     RDKit          3D

 79 82  0  0  0  0  0  0  0  0999 V2000
    0.9390   21.9020  -35.7390 C   0  0  0  0  0  0  0  0  0  0  0  0
    0.1470   20.8260  -34.9750 C   0  0  0  0  0  0  0  0  0  0  0  0
    0.9900   20.3130  -33.7960 C   0  0  0  0  0  0  0  0  0  0  0  0
   -1.1510   21.3470  -34.4900 N   0  0  0  0  0  0  0  0  0  0  0  0
   -1.2310   21.3690  -33.0200 C   0  0  0  0  0  0  0  0  0  0  0  0
   -2.6620   21.6670  -32.5270 C   0  0  0  0  0  0  0  0  0  0  0  0
   -3.7200   21.2790  -33.4730 N   0  0  0  0  0  0  0  0  0  0  0  0
   -4.9780   20.6800  -33.1050 C   0  0  0  0  0  0  0  0  0  0  0  0
   -5.9620   21.4560  -32.4620 C   0  0  0  0  0  0  0  0  0  0  0  0
   -5.6880   22.7760  -32.0410 C   0  0  0  0  0  0  0  0  0  0  0  0
   -6.6930   23.5780  -31.5050 C   0  0  0  0  0  0  0  0  0  0  0  0
   -7.9830   23.0810  -31.3760 C   0  0  0  0  0  0  0  0  0  0  0  0
   -8.2620   21.7610  -31.7250 C   0  0  0  0  0  0  0  0  0  0  0  0
   -7.2440   20.9010  -32.2160 C   0  0  0  0  0  0  0  0  0  0  0  0
   -7.4780   19.5620  -32.4550 N   0  0  0  0  0  0  0  0  0  0  0  0
   -8.7030   18.9230  -31.9200 C   0  0  0  0  0  0  0  0  0  0  0  0
   -6.5480   18.8040  -33.1430 C   0  0  0  0  0  0  0  0  0  0  0  0
   -6.8660   17.5020  -33.6030 C   0  0  0  0  0  0  0  0  0  0  0  0
   -5.9170   16.7060  -34.2270 C   0  0  0  0  0  0  0  0  0  0  0  0
   -4.6320   17.1800  -34.4300 C   0  0  0  0  0  0  0  0  0  0  0  0
   -4.2800   18.4850  -34.0510 C   0  0  0  0  0  0  0  0  0  0  0  0
   -2.9810   18.9650  -34.3010 O   0  0  0  0  0  0  0  0  0  0  0  0
   -1.8330   18.1470  -34.5180 C   0  0  0  0  0  0  0  0  0  0  0  0
   -1.4360   17.4080  -33.2210 C   0  0  0  0  0  0  0  0  0  0  0  0
   -0.9850   15.9840  -33.3690 N   0  0  0  0  0  0  0  0  0  0  0  0
    0.2120   16.0280  -34.2570 C   0  0  0  0  0  0  0  0  0  0  0  0
   -2.0370   15.1370  -34.0350 C   0  0  0  0  0  0  0  0  0  0  0  0
   -2.6860   14.1010  -33.0910 C   0  0  0  0  0  0  0  0  0  0  0  0
   -1.6880   13.1860  -32.4570 N   0  0  0  0  0  0  0  0  0  0  0  0
   -2.3060   12.5980  -31.2410 C   0  0  0  0  0  0  0  0  0  0  0  0
   -1.3750   12.0700  -33.3880 C   0  0  0  0  0  0  0  0  0  0  0  0
   -0.4180   13.8930  -32.0780 C   0  0  0  0  0  0  0  0  0  0  0  0
   -0.5720   15.4250  -32.0460 C   0  0  0  0  0  0  0  0  0  0  0  0
   -5.2520   19.3260  -33.4270 C   0  0  0  0  0  0  0  0  0  0  0  0
    1.4329   22.5730  -35.0207 H   0  0  0  0  0  0  0  0  0  0  0  0
    1.6984   21.4186  -36.3712 H   0  0  0  0  0  0  0  0  0  0  0  0
    0.2518   22.4835  -36.3712 H   0  0  0  0  0  0  0  0  0  0  0  0
   -0.0679   19.9974  -35.6658 H   0  0  0  0  0  0  0  0  0  0  0  0
    0.5117   20.6041  -32.8492 H   0  0  0  0  0  0  0  0  0  0  0  0
    1.0638   19.2167  -33.8477 H   0  0  0  0  0  0  0  0  0  0  0  0
    1.9976   20.7512  -33.8477 H   0  0  0  0  0  0  0  0  0  0  0  0
   -1.9390   20.7840  -34.8910 H   0  0  0  0  0  0  0  0  0  0  0  0
   -1.2590   22.3280  -34.8220 H   0  0  0  0  0  0  0  0  0  0  0  0
   -0.9180   20.3885  -32.6320 H   0  0  0  0  0  0  0  0  0  0  0  0
   -0.5705   22.1690  -32.6542 H   0  0  0  0  0  0  0  0  0  0  0  0
   -2.8233   21.1204  -31.5862 H   0  0  0  0  0  0  0  0  0  0  0  0
   -2.7328   22.7578  -32.4044 H   0  0  0  0  0  0  0  0  0  0  0  0
   -3.4600   21.2350  -34.4830 H   0  0  0  0  0  0  0  0  0  0  0  0
   -4.6678   23.1759  -32.1376 H   0  0  0  0  0  0  0  0  0  0  0  0
   -6.4646   24.6050  -31.1840 H   0  0  0  0  0  0  0  0  0  0  0  0
   -8.7862   23.7303  -30.9976 H   0  0  0  0  0  0  0  0  0  0  0  0
   -9.2879   21.3788  -31.6184 H   0  0  0  0  0  0  0  0  0  0  0  0
   -8.6741   18.9381  -30.8205 H   0  0  0  0  0  0  0  0  0  0  0  0
   -9.5876   19.4746  -32.2712 H   0  0  0  0  0  0  0  0  0  0  0  0
   -8.7568   17.8819  -32.2712 H   0  0  0  0  0  0  0  0  0  0  0  0
   -7.8860   17.1148  -33.4624 H   0  0  0  0  0  0  0  0  0  0  0  0
   -6.1864   15.6935  -34.5621 H   0  0  0  0  0  0  0  0  0  0  0  0
   -3.8783   16.5265  -34.8936 H   0  0  0  0  0  0  0  0  0  0  0  0
   -2.0593   17.4074  -35.3002 H   0  0  0  0  0  0  0  0  0  0  0  0
   -0.9956   18.7884  -34.8300 H   0  0  0  0  0  0  0  0  0  0  0  0
   -0.6145   17.9713  -32.7543 H   0  0  0  0  0  0  0  0  0  0  0  0
   -2.3572   17.3593  -32.6219 H   0  0  0  0  0  0  0  0  0  0  0  0
    1.1236   16.0615  -33.6422 H   0  0  0  0  0  0  0  0  0  0  0  0
    0.2307   15.1299  -34.8919 H   0  0  0  0  0  0  0  0  0  0  0  0
    0.1648   16.9250  -34.8919 H   0  0  0  0  0  0  0  0  0  0  0  0
   -2.8262   15.8005  -34.4184 H   0  0  0  0  0  0  0  0  0  0  0  0
   -1.5374   14.5739  -34.8371 H   0  0  0  0  0  0  0  0  0  0  0  0
   -3.2236   14.6388  -32.2962 H   0  0  0  0  0  0  0  0  0  0  0  0
   -3.3636   13.4814  -33.6968 H   0  0  0  0  0  0  0  0  0  0  0  0
   -1.8435   13.0381  -30.3452 H   0  0  0  0  0  0  0  0  0  0  0  0
   -3.3852   12.8109  -31.2386 H   0  0  0  0  0  0  0  0  0  0  0  0
   -2.1470   11.5096  -31.2386 H   0  0  0  0  0  0  0  0  0  0  0  0
   -1.1224   11.1694  -32.8091 H   0  0  0  0  0  0  0  0  0  0  0  0
   -2.2503   11.8649  -34.0219 H   0  0  0  0  0  0  0  0  0  0  0  0
   -0.5207   12.3500  -34.0219 H   0  0  0  0  0  0  0  0  0  0  0  0
   -0.1100   13.5502  -31.0792 H   0  0  0  0  0  0  0  0  0  0  0  0
    0.3348   13.6527  -32.8432 H   0  0  0  0  0  0  0  0  0  0  0  0
   -1.3345   15.6878  -31.2979 H   0  0  0  0  0  0  0  0  0  0  0  0
    0.4078   15.8552  -31.7913 H   0  0  0  0  0  0  0  0  0  0  0  0
  1  2  1  0
  2  3  1  0
  2  4  1  0
  4  5  1  0
  5  6  1  0
  6  7  1  0
  7  8  1  0
  8  9  2  0
  9 10  1  0
 10 11  2  0
 11 12  1  0
 12 13  2  0
 13 14  1  0
 14 15  2  0
 15 16  1  0
 15 17  1  0
 17 18  2  0
 18 19  1  0
 19 20  2  0
 20 21  1  0
 21 22  1  0
 22 23  1  0
 23 24  1  0
 24 25  1  0
 25 26  1  0
 25 27  1  0
 27 28  1  0
 28 29  1  0
 29 30  1  0
 29 31  1  0
 29 32  1  0
 32 33  1  0
 21 34  2  0
 34  8  1  0
 14  9  1  0
 34 17  1  0
 33 25  1  0
  1 35  1  0
  1 36  1  0
  1 37  1  0
  2 38  1  0
  3 39  1  0
  3 40  1  0
  3 41  1  0
  4 42  1  0
  4 43  1  0
  5 44  1  0
  5 45  1  0
  6 46  1  0
  6 47  1  0
  7 48  1  0
 10 49  1  0
 11 50  1  0
 12 51  1  0
 13 52  1  0
 16 53  1  0
 16 54  1  0
 16 55  1  0
 18 56  1  0
 19 57  1  0
 20 58  1  0
 23 59  1  0
 23 60  1  0
 24 61  1  0
 24 62  1  0
 26 63  1  0
 26 64  1  0
 26 65  1  0
 27 66  1  0
 27 67  1  0
 28 68  1  0
 28 69  1  0
 30 70  1  0
 30 71  1  0
 30 72  1  0
 31 73  1  0
 31 74  1  0
 31 75  1  0
 32 76  1  0
 32 77  1  0
 33 78  1  0
 33 79  1  0
M  CHG  4   4   1  15   1  25   1  29   1
M  END
>  <UniqueID>  (19) 
19

>  <SMILES>  (19) 
CC(C)[NH2+]CCNc1c2ccccc2[n+](C)c2cccc(OCC[N+]3(C)CC[N+](C)(C)CC3)c12

>  <Energy>  (19) 
135.130311123419

>  <Genealogy>  (19) 
CC(C)[NH2+]CCNc1c2ccccc2[n+](C)c2cccc(OCC[N+]3(C)CC[N+](C)(C)CC3)c12 (protonated)
CC(C)[NH2+]CCNc1c2ccccc2[n+](C)c2cccc(OCC[N+]3(C)CC[N+](C)(C)CC3)c12 (3D coordinates assigned)
CC(C)[NH2+]CCNc1c2ccccc2[n+](C)c2cccc(OCC[N+]3(C)CC[N+](C)(C)CC3)c12 (nonaromatic ring conformer: 135.130311123419 kcal/mol)

>  <smiles>  (19) 
CC(C)NCCNc1c2ccccc2[n+](C)c2cccc(OCC[N+]3(C)CC[N+](C)(C)CC3)c12

>  <score_type>  (19) 
oracle

>  <origin>  (19) 
adg

>  <m_score__min__energy>  (19) 
-7

>  <m_primary>  (19) 
energy

$$$$
19:0
     RDKit          3D

 64 66  0  0  0  0  0  0  0  0999 V2000
   -5.0296   26.5978  -30.1330 H   0  0  0  0  0  0  0  0  0  0  0  0
   -4.9970   25.5450  -30.4500 C   0  0  0  0  0  0  0  0  0  0  0  0
   -3.8460   24.9570  -30.4850 N   0  0  0  0  0  0  0  0  0  0  0  0
   -3.2800   24.1760  -29.4060 C   0  0  0  0  0  0  0  0  0  0  0  0
   -3.5903   24.6042  -28.4415 H   0  0  0  0  0  0  0  0  0  0  0  0
   -3.6370   23.1380  -29.4782 H   0  0  0  0  0  0  0  0  0  0  0  0
   -2.1825   24.1921  -29.4782 H   0  0  0  0  0  0  0  0  0  0  0  0
   -6.2970   24.8760  -30.8170 C   0  0  0  0  0  0  0  0  0  0  0  0
   -6.8676   25.5396  -31.4834 H   0  0  0  0  0  0  0  0  0  0  0  0
   -6.8624   24.6781  -29.8944 H   0  0  0  0  0  0  0  0  0  0  0  0
   -6.0570   23.6040  -31.4990 N   0  0  0  0  0  0  0  0  0  0  0  0
   -5.0930   23.2060  -31.5140 H   0  0  0  0  0  0  0  0  0  0  0  0
   -7.1160   22.7660  -31.9760 C   0  0  0  0  0  0  0  0  0  0  0  0
   -8.4300   23.2180  -31.8050 C   0  0  0  0  0  0  0  0  0  0  0  0
   -8.6152   24.2754  -31.5650 H   0  0  0  0  0  0  0  0  0  0  0  0
   -9.4990   22.3470  -31.9350 C   0  0  0  0  0  0  0  0  0  0  0  0
  -10.5294   22.7257  -31.8654 H   0  0  0  0  0  0  0  0  0  0  0  0
   -9.2690   20.9970  -32.1530 C   0  0  0  0  0  0  0  0  0  0  0  0
  -10.1226   20.3049  -32.2026 H   0  0  0  0  0  0  0  0  0  0  0  0
   -7.9550   20.4930  -32.3130 C   0  0  0  0  0  0  0  0  0  0  0  0
   -6.8730   21.4170  -32.3790 C   0  0  0  0  0  0  0  0  0  0  0  0
   -5.6200   20.9630  -32.8970 C   0  0  0  0  0  0  0  0  0  0  0  0
   -4.6160   21.9060  -33.3810 N   0  0  0  0  0  0  0  0  0  0  0  0
   -4.3770   21.6460  -34.3620 H   0  0  0  0  0  0  0  0  0  0  0  0
   -5.0030   22.8690  -33.4790 H   0  0  0  0  0  0  0  0  0  0  0  0
   -3.4030   21.9320  -32.5340 C   0  0  0  0  0  0  0  0  0  0  0  0
   -3.0759   22.9758  -32.4183 H   0  0  0  0  0  0  0  0  0  0  0  0
   -2.6355   21.3203  -33.0306 H   0  0  0  0  0  0  0  0  0  0  0  0
   -3.6470   21.3320  -31.1340 C   0  0  0  0  0  0  0  0  0  0  0  0
   -4.3803   20.5173  -31.2259 H   0  0  0  0  0  0  0  0  0  0  0  0
   -4.0111   22.1453  -30.4890 H   0  0  0  0  0  0  0  0  0  0  0  0
   -2.3710   20.7700  -30.4840 C   0  0  0  0  0  0  0  0  0  0  0  0
   -2.2484   19.7187  -30.7835 H   0  0  0  0  0  0  0  0  0  0  0  0
   -2.4703   20.8517  -29.3915 H   0  0  0  0  0  0  0  0  0  0  0  0
   -1.1740   21.5370  -30.9070 N   0  0  0  0  0  0  0  0  0  0  0  0
   -0.5570   22.2270  -29.7520 C   0  0  0  0  0  0  0  0  0  0  0  0
   -0.8720   23.2809  -29.7533 H   0  0  0  0  0  0  0  0  0  0  0  0
    0.5365   22.1494  -29.8429 H   0  0  0  0  0  0  0  0  0  0  0  0
   -0.9810   21.5810  -28.4320 C   0  0  0  0  0  0  0  0  0  0  0  0
   -0.5915   22.1744  -27.5916 H   0  0  0  0  0  0  0  0  0  0  0  0
   -2.0791   21.5448  -28.3775 H   0  0  0  0  0  0  0  0  0  0  0  0
   -0.5773   20.5592  -28.3775 H   0  0  0  0  0  0  0  0  0  0  0  0
   -0.1980   20.6810  -31.6320 C   0  0  0  0  0  0  0  0  0  0  0  0
    0.8241   20.9845  -31.3613 H   0  0  0  0  0  0  0  0  0  0  0  0
   -0.3620   19.6300  -31.3518 H   0  0  0  0  0  0  0  0  0  0  0  0
   -0.3880   20.8330  -33.1400 C   0  0  0  0  0  0  0  0  0  0  0  0
   -1.2331   21.5091  -33.3368 H   0  0  0  0  0  0  0  0  0  0  0  0
    0.5272   21.2510  -33.5846 H   0  0  0  0  0  0  0  0  0  0  0  0
   -0.5949   19.8484  -33.5846 H   0  0  0  0  0  0  0  0  0  0  0  0
   -5.4620   19.5760  -33.1780 C   0  0  0  0  0  0  0  0  0  0  0  0
   -4.2540   19.0630  -33.7200 C   0  0  0  0  0  0  0  0  0  0  0  0
   -3.4113   19.7464  -33.9009 H   0  0  0  0  0  0  0  0  0  0  0  0
   -4.1150   17.7120  -34.0270 C   0  0  0  0  0  0  0  0  0  0  0  0
   -3.1640   17.3360  -34.4322 H   0  0  0  0  0  0  0  0  0  0  0  0
   -5.1720   16.8410  -33.8230 C   0  0  0  0  0  0  0  0  0  0  0  0
   -5.0632   15.7762  -34.0765 H   0  0  0  0  0  0  0  0  0  0  0  0
   -6.3710   17.3110  -33.2980 C   0  0  0  0  0  0  0  0  0  0  0  0
   -7.2082   16.6115  -33.1570 H   0  0  0  0  0  0  0  0  0  0  0  0
   -6.5370   18.6760  -32.9400 C   0  0  0  0  0  0  0  0  0  0  0  0
   -7.7290   19.1380  -32.4260 N   0  0  0  0  0  0  0  0  0  0  0  0
   -8.7560   18.1780  -31.9610 C   0  0  0  0  0  0  0  0  0  0  0  0
   -8.7724   18.1627  -30.8612 H   0  0  0  0  0  0  0  0  0  0  0  0
   -9.7426   18.4852  -32.3382 H   0  0  0  0  0  0  0  0  0  0  0  0
   -8.5160   17.1730  -32.3382 H   0  0  0  0  0  0  0  0  0  0  0  0
  1  2  1  0
  2  3  2  0
  3  4  1  0
  4  5  1  0
  4  6  1  0
  4  7  1  0
  2  8  1  0
  8  9  1  0
  8 10  1  0
  8 11  1  0
 11 12  1  0
 11 13  1  0
 13 14  2  0
 14 15  1  0
 14 16  1  0
 16 17  1  0
 16 18  2  0
 18 19  1  0
 18 20  1  0
 20 21  2  0
 21 22  1  0
 22 23  1  0
 23 24  1  0
 23 25  1  0
 23 26  1  0
 26 27  1  0
 26 28  1  0
 26 29  1  0
 29 30  1  0
 29 31  1  0
 29 32  1  0
 32 33  1  0
 32 34  1  0
 32 35  1  0
 35 36  1  0
 36 37  1  0
 36 38  1  0
 36 39  1  0
 39 40  1  0
 39 41  1  0
 39 42  1  0
 35 43  1  0
 43 44  1  0
 43 45  1  0
 43 46  1  0
 46 47  1  0
 46 48  1  0
 46 49  1  0
 22 50  2  0
 50 51  1  0
 51 52  1  0
 51 53  2  0
 53 54  1  0
 53 55  1  0
 55 56  1  0
 55 57  2  0
 57 58  1  0
 57 59  1  0
 59 60  2  0
 60 61  1  0
 61 62  1  0
 61 63  1  0
 61 64  1  0
 21 13  1  0
 59 50  1  0
 60 20  1  0
M  CHG  2  23   1  60   1
M  END
>  <UniqueID>  (20) 
20

>  <SMILES>  (20) 
CCN(CC)CCC[NH2+]c1c2ccccc2[n+](C)c2cccc(NC/C=N\C)c12

>  <Energy>  (20) 
101.88555462757603

>  <Genealogy>  (20) 
CCN(CC)CCC[NH2+]c1c2ccccc2[n+](C)c2cccc(NCC=NC)c12 (protonated)
CCN(CC)CCC[NH2+]c1c2ccccc2[n+](C)c2cccc(NC/C=N\C)c12 (cis-trans isomerization)
CCN(CC)CCC[NH2+]c1c2ccccc2[n+](C)c2cccc(NC/C=N\C)c12 (3D coordinates assigned)
CCN(CC)CCC[NH2+]c1c2ccccc2[n+](C)c2cccc(NC/C=N\C)c12 (optimized conformer: 101.88555462757603 kcal/mol)

>  <smiles>  (20) 
CCN(CC)CCCNc1c2ccccc2[n+](C)c2cccc(NCC=NC)c12

>  <score_type>  (20) 
oracle

>  <origin>  (20) 
adg

>  <m_score__min__energy>  (20) 
-8.1199999999999992

>  <m_primary>  (20) 
energy

$$$$
20:0
     RDKit          3D

 75 78  0  0  0  0  0  0  0  0999 V2000
    1.0130   23.6110  -36.0650 C   0  0  0  0  0  0  0  0  0  0  0  0
    1.0700   22.2290  -35.4240 C   0  0  0  0  0  0  0  0  0  0  0  0
   -0.1580   21.9720  -34.6570 N   0  0  0  0  0  0  0  0  0  0  0  0
    0.0380   20.9810  -33.5840 C   0  0  0  0  0  0  0  0  0  0  0  0
   -1.1860   20.8780  -32.6590 C   0  0  0  0  0  0  0  0  0  0  0  0
   -2.3850   21.3650  -33.3350 N   0  0  0  0  0  0  0  0  0  0  0  0
   -3.6800   21.1370  -32.7620 C   0  0  0  0  0  0  0  0  0  0  0  0
   -4.1840   22.0050  -31.7810 C   0  0  0  0  0  0  0  0  0  0  0  0
   -3.4010   23.0750  -31.2980 C   0  0  0  0  0  0  0  0  0  0  0  0
   -3.8730   23.9070  -30.2710 C   0  0  0  0  0  0  0  0  0  0  0  0
   -3.1180   24.9680  -29.7420 O   0  0  0  0  0  0  0  0  0  0  0  0
   -2.3390   24.9240  -28.5470 C   0  0  0  0  0  0  0  0  0  0  0  0
   -2.4590   23.5700  -27.7930 C   0  0  0  0  0  0  0  0  0  0  0  0
   -1.6160   22.4220  -28.2790 N   0  0  0  0  0  0  0  0  0  0  0  0
   -0.7180   22.8710  -29.3760 C   0  0  0  0  0  0  0  0  0  0  0  0
   -2.5540   21.3840  -28.8340 C   0  0  0  0  0  0  0  0  0  0  0  0
   -2.0270   19.9440  -28.6650 C   0  0  0  0  0  0  0  0  0  0  0  0
   -1.8590   19.5710  -27.2240 N   0  0  0  0  0  0  0  0  0  0  0  0
   -3.1110   18.9550  -26.7190 C   0  0  0  0  0  0  0  0  0  0  0  0
   -0.7780   18.5600  -27.1140 C   0  0  0  0  0  0  0  0  0  0  0  0
   -1.5230   20.7590  -26.3770 C   0  0  0  0  0  0  0  0  0  0  0  0
   -0.7780   21.8440  -27.1770 C   0  0  0  0  0  0  0  0  0  0  0  0
   -5.1360   23.6740  -29.7370 C   0  0  0  0  0  0  0  0  0  0  0  0
   -5.9280   22.6270  -30.2070 C   0  0  0  0  0  0  0  0  0  0  0  0
   -5.4840   21.7870  -31.2560 C   0  0  0  0  0  0  0  0  0  0  0  0
   -6.2720   20.7660  -31.7560 N   0  0  0  0  0  0  0  0  0  0  0  0
   -7.7130   20.7120  -31.4230 C   0  0  0  0  0  0  0  0  0  0  0  0
   -5.7180   19.8080  -32.5870 C   0  0  0  0  0  0  0  0  0  0  0  0
   -6.4030   18.6080  -32.9080 C   0  0  0  0  0  0  0  0  0  0  0  0
   -5.8520   17.6770  -33.7900 C   0  0  0  0  0  0  0  0  0  0  0  0
   -6.8050   16.0740  -34.2060 Br  0  0  0  0  0  0  0  0  0  0  0  0
   -4.6050   17.9090  -34.3610 C   0  0  0  0  0  0  0  0  0  0  0  0
   -3.8890   19.0580  -34.0330 C   0  0  0  0  0  0  0  0  0  0  0  0
   -4.4220   20.0030  -33.1320 C   0  0  0  0  0  0  0  0  0  0  0  0
    0.9813   24.3791  -35.2782 H   0  0  0  0  0  0  0  0  0  0  0  0
    1.9057   23.7626  -36.6897 H   0  0  0  0  0  0  0  0  0  0  0  0
    0.1109   23.6885  -36.6897 H   0  0  0  0  0  0  0  0  0  0  0  0
    1.1723   21.4676  -36.2113 H   0  0  0  0  0  0  0  0  0  0  0  0
    1.9331   22.1852  -34.7435 H   0  0  0  0  0  0  0  0  0  0  0  0
   -0.9090   21.6410  -35.3080 H   0  0  0  0  0  0  0  0  0  0  0  0
    0.2216   19.9968  -34.0397 H   0  0  0  0  0  0  0  0  0  0  0  0
    0.8949   21.3062  -32.9758 H   0  0  0  0  0  0  0  0  0  0  0  0
   -1.3348   19.8265  -32.3724 H   0  0  0  0  0  0  0  0  0  0  0  0
   -1.0078   21.4949  -31.7659 H   0  0  0  0  0  0  0  0  0  0  0  0
   -2.3180   21.9480  -34.2020 H   0  0  0  0  0  0  0  0  0  0  0  0
   -2.4073   23.2595  -31.7323 H   0  0  0  0  0  0  0  0  0  0  0  0
   -1.2834   25.0860  -28.8106 H   0  0  0  0  0  0  0  0  0  0  0  0
   -2.7201   25.7086  -27.8768 H   0  0  0  0  0  0  0  0  0  0  0  0
   -2.1896   23.7539  -26.7425 H   0  0  0  0  0  0  0  0  0  0  0  0
   -3.4960   23.2463  -27.9658 H   0  0  0  0  0  0  0  0  0  0  0  0
    0.1877   23.3238  -28.9463 H   0  0  0  0  0  0  0  0  0  0  0  0
   -0.4371   22.0073  -29.9966 H   0  0  0  0  0  0  0  0  0  0  0  0
   -1.2404   23.6140  -29.9966 H   0  0  0  0  0  0  0  0  0  0  0  0
   -3.5185   21.4679  -28.3117 H   0  0  0  0  0  0  0  0  0  0  0  0
   -2.6537   21.5736  -29.9129 H   0  0  0  0  0  0  0  0  0  0  0  0
   -2.7405   19.2482  -29.1306 H   0  0  0  0  0  0  0  0  0  0  0  0
   -1.0401   19.8857  -29.1473 H   0  0  0  0  0  0  0  0  0  0  0  0
   -3.1037   18.9586  -25.6190 H   0  0  0  0  0  0  0  0  0  0  0  0
   -3.9752   19.5308  -27.0818 H   0  0  0  0  0  0  0  0  0  0  0  0
   -3.1822   17.9190  -27.0818 H   0  0  0  0  0  0  0  0  0  0  0  0
   -0.5671   18.3627  -26.0526 H   0  0  0  0  0  0  0  0  0  0  0  0
   -1.0964   17.6280  -27.6039 H   0  0  0  0  0  0  0  0  0  0  0  0
    0.1306   18.9399  -27.6039 H   0  0  0  0  0  0  0  0  0  0  0  0
   -2.4551   21.1873  -25.9798 H   0  0  0  0  0  0  0  0  0  0  0  0
   -0.8629   20.4218  -25.5642 H   0  0  0  0  0  0  0  0  0  0  0  0
   -0.4907   22.6539  -26.4903 H   0  0  0  0  0  0  0  0  0  0  0  0
    0.1029   21.3736  -27.6383 H   0  0  0  0  0  0  0  0  0  0  0  0
   -5.5147   24.3236  -28.9341 H   0  0  0  0  0  0  0  0  0  0  0  0
   -6.9151   22.4508  -29.7546 H   0  0  0  0  0  0  0  0  0  0  0  0
   -7.8368   20.7074  -30.3300 H   0  0  0  0  0  0  0  0  0  0  0  0
   -8.2202   21.5918  -31.8457 H   0  0  0  0  0  0  0  0  0  0  0  0
   -8.1530   19.7967  -31.8457 H   0  0  0  0  0  0  0  0  0  0  0  0
   -7.3848   18.4078  -32.4542 H   0  0  0  0  0  0  0  0  0  0  0  0
   -4.1836   17.1839  -35.0728 H   0  0  0  0  0  0  0  0  0  0  0  0
   -2.8990   19.2298  -34.4807 H   0  0  0  0  0  0  0  0  0  0  0  0
  1  2  1  0
  2  3  1  0
  3  4  1  0
  4  5  1  0
  5  6  1  0
  6  7  1  0
  7  8  2  0
  8  9  1  0
  9 10  2  0
 10 11  1  0
 11 12  1  0
 12 13  1  0
 13 14  1  0
 14 15  1  0
 14 16  1  0
 16 17  1  0
 17 18  1  0
 18 19  1  0
 18 20  1  0
 18 21  1  0
 21 22  1  0
 10 23  1  0
 23 24  2  0
 24 25  1  0
 25 26  2  0
 26 27  1  0
 26 28  1  0
 28 29  2  0
 29 30  1  0
 30 31  1  0
 30 32  2  0
 32 33  1  0
 33 34  2  0
 34  7  1  0
 25  8  1  0
 34 28  1  0
 22 14  1  0
  1 35  1  0
  1 36  1  0
  1 37  1  0
  2 38  1  0
  2 39  1  0
  3 40  1  0
  4 41  1  0
  4 42  1  0
  5 43  1  0
  5 44  1  0
  6 45  1  0
  9 46  1  0
 12 47  1  0
 12 48  1  0
 13 49  1  0
 13 50  1  0
 15 51  1  0
 15 52  1  0
 15 53  1  0
 16 54  1  0
 16 55  1  0
 17 56  1  0
 17 57  1  0
 19 58  1  0
 19 59  1  0
 19 60  1  0
 20 61  1  0
 20 62  1  0
 20 63  1  0
 21 64  1  0
 21 65  1  0
 22 66  1  0
 22 67  1  0
 23 68  1  0
 24 69  1  0
 27 70  1  0
 27 71  1  0
 27 72  1  0
 29 73  1  0
 32 74  1  0
 33 75  1  0
M  CHG  3  14   1  18   1  26   1
M  END
>  <UniqueID>  (21) 
21

>  <SMILES>  (21) 
CCNCCNc1c2cc(OCC[N+]3(C)CC[N+](C)(C)CC3)ccc2[n+](C)c2cc(Br)ccc12

>  <Energy>  (21) 
128.03918868027966

>  <Genealogy>  (21) 
CCNCCNc1c2cc(OCC[N+]3(C)CC[N+](C)(C)CC3)ccc2[n+](C)c2cc(Br)ccc12 (3D coordinates assigned)
CCNCCNc1c2cc(OCC[N+]3(C)CC[N+](C)(C)CC3)ccc2[n+](C)c2cc(Br)ccc12 (nonaromatic ring conformer: 128.03918868027966 kcal/mol)

>  <smiles>  (21) 
CCNCCNc1c2cc(OCC[N+]3(C)CC[N+](C)(C)CC3)ccc2[n+](C)c2cc(Br)ccc12

>  <score_type>  (21) 
oracle

>  <origin>  (21) 
adg

>  <m_score__min__energy>  (21) 
-8.7799999999999994

>  <m_primary>  (21) 
energy

$$$$
21:0
     RDKit          3D

 53 55  0  0  0  0  0  0  0  0999 V2000
   -0.4110   26.8100  -23.4780 C   0  0  0  0  0  0  0  0  0  0  0  0
   -0.3230   28.0560  -24.3590 C   0  0  0  0  0  0  0  0  0  0  0  0
    0.3830   27.7810  -25.6920 C   0  0  0  0  0  0  0  0  0  0  0  0
   -0.3280   26.7310  -26.4880 C   0  0  0  0  0  0  0  0  0  0  0  0
    0.2660   26.0130  -27.4770 N   0  0  0  0  0  0  0  0  0  0  0  0
   -0.7380   25.1920  -27.8280 C   0  0  0  0  0  0  0  0  0  0  0  0
   -0.6680   24.2270  -28.7680 N   0  0  0  0  0  0  0  0  0  0  0  0
   -1.7600   23.4460  -29.0150 C   0  0  0  0  0  0  0  0  0  0  0  0
   -1.6050   22.3370  -30.0180 C   0  0  0  0  0  0  0  0  0  0  0  0
   -2.9760   23.6570  -28.2870 C   0  0  0  0  0  0  0  0  0  0  0  0
   -4.2270   22.8500  -28.6060 C   0  0  0  0  0  0  0  0  0  0  0  0
   -5.2390   23.6370  -29.4540 C   0  0  0  0  0  0  0  0  0  0  0  0
   -4.6230   24.1940  -30.6990 C   0  0  0  0  0  0  0  0  0  0  0  0
   -4.5160   25.4430  -30.8350 O   0  0  0  0  0  0  0  0  0  0  0  0
   -4.2550   23.3040  -31.7610 N   0  0  0  0  0  0  0  0  0  0  0  0
   -5.0000   22.1610  -32.2070 C   0  0  0  0  0  0  0  0  0  0  0  0
   -4.3900   21.0990  -32.8980 C   0  0  0  0  0  0  0  0  0  0  0  0
   -5.1500   20.0000  -33.3080 C   0  0  0  0  0  0  0  0  0  0  0  0
   -6.5160   19.9430  -33.0210 C   0  0  0  0  0  0  0  0  0  0  0  0
   -7.1290   20.9800  -32.3010 C   0  0  0  0  0  0  0  0  0  0  0  0
   -8.6060   20.9330  -32.0130 C   0  0  0  0  0  0  0  0  0  0  0  0
   -9.1160   22.3040  -31.5830 C   0  0  0  0  0  0  0  0  0  0  0  0
   -6.3640   22.0870  -31.9000 C   0  0  0  0  0  0  0  0  0  0  0  0
   -2.9780   24.6620  -27.2750 C   0  0  0  0  0  0  0  0  0  0  0  0
   -4.1580   24.8930  -26.3620 C   0  0  0  0  0  0  0  0  0  0  0  0
   -1.8410   25.3880  -27.1100 N   0  0  0  0  0  0  0  0  0  0  0  0
   -1.6070   26.3560  -26.2450 N   0  0  0  0  0  0  0  0  0  0  0  0
   -0.3900   27.1074  -22.4192 H   0  0  0  0  0  0  0  0  0  0  0  0
   -1.3491   26.2763  -23.6904 H   0  0  0  0  0  0  0  0  0  0  0  0
    0.4427   26.1497  -23.6904 H   0  0  0  0  0  0  0  0  0  0  0  0
   -1.3420   28.4146  -24.5664 H   0  0  0  0  0  0  0  0  0  0  0  0
    0.2669   28.8093  -23.8163 H   0  0  0  0  0  0  0  0  0  0  0  0
    0.4148   28.7118  -26.2774 H   0  0  0  0  0  0  0  0  0  0  0  0
    1.3982   27.4179  -25.4742 H   0  0  0  0  0  0  0  0  0  0  0  0
   -1.4714   21.3812  -29.4901 H   0  0  0  0  0  0  0  0  0  0  0  0
   -2.5046   22.2848  -30.6489 H   0  0  0  0  0  0  0  0  0  0  0  0
   -0.7256   22.5335  -30.6489 H   0  0  0  0  0  0  0  0  0  0  0  0
   -3.9315   21.9463  -29.1591 H   0  0  0  0  0  0  0  0  0  0  0  0
   -4.7147   22.6011  -27.6519 H   0  0  0  0  0  0  0  0  0  0  0  0
   -6.0626   22.9648  -29.7367 H   0  0  0  0  0  0  0  0  0  0  0  0
   -5.6005   24.4819  -28.8495 H   0  0  0  0  0  0  0  0  0  0  0  0
   -3.3124   21.1333  -33.1163 H   0  0  0  0  0  0  0  0  0  0  0  0
   -4.6708   19.1770  -33.8586 H   0  0  0  0  0  0  0  0  0  0  0  0
   -7.1125   19.0833  -33.3602 H   0  0  0  0  0  0  0  0  0  0  0  0
   -9.1409   20.6174  -32.9209 H   0  0  0  0  0  0  0  0  0  0  0  0
   -8.7841   20.2178  -31.1965 H   0  0  0  0  0  0  0  0  0  0  0  0
   -9.1367   22.3596  -30.4846 H   0  0  0  0  0  0  0  0  0  0  0  0
   -8.4478   23.0839  -31.9771 H   0  0  0  0  0  0  0  0  0  0  0  0
  -10.1314   22.4576  -31.9771 H   0  0  0  0  0  0  0  0  0  0  0  0
   -6.8411   22.9042  -31.3391 H   0  0  0  0  0  0  0  0  0  0  0  0
   -3.8291   24.8286  -25.3143 H   0  0  0  0  0  0  0  0  0  0  0  0
   -4.5798   25.8908  -26.5532 H   0  0  0  0  0  0  0  0  0  0  0  0
   -4.9249   24.1279  -26.5532 H   0  0  0  0  0  0  0  0  0  0  0  0
  1  2  1  0
  2  3  1  0
  3  4  1  0
  4  5  1  0
  5  6  2  0
  6  7  1  0
  7  8  2  0
  8  9  1  0
  8 10  1  0
 10 11  1  0
 11 12  1  0
 12 13  1  0
 13 14  2  0
 13 15  1  0
 15 16  1  0
 16 17  2  0
 17 18  1  0
 18 19  2  0
 19 20  1  0
 20 21  1  0
 21 22  1  0
 20 23  2  0
 10 24  2  0
 24 25  1  0
 24 26  1  0
 26 27  1  0
 27  4  2  0
 26  6  1  0
 23 16  1  0
  1 28  1  0
  1 29  1  0
  1 30  1  0
  2 31  1  0
  2 32  1  0
  3 33  1  0
  3 34  1  0
  9 35  1  0
  9 36  1  0
  9 37  1  0
 11 38  1  0
 11 39  1  0
 12 40  1  0
 12 41  1  0
 17 42  1  0
 18 43  1  0
 19 44  1  0
 21 45  1  0
 21 46  1  0
 22 47  1  0
 22 48  1  0
 22 49  1  0
 23 50  1  0
 25 51  1  0
 25 52  1  0
 25 53  1  0
M  CHG  1  15  -1
M  END
>  <UniqueID>  (22) 
22

>  <SMILES>  (22) 
CCCc1nc2nc(C)c(CCC(=O)[N-]c3cccc(CC)c3)c(C)n2n1

>  <Energy>  (22) 
87.37282435426735

>  <Genealogy>  (22) 
CCCc1nc2nc(C)c(CCC(=O)[N-]c3cccc(CC)c3)c(C)n2n1 (protonated)
CCCc1nc2nc(C)c(CCC(=O)[N-]c3cccc(CC)c3)c(C)n2n1 (3D coordinates assigned)
CCCc1nc2nc(C)c(CCC(=O)[N-]c3cccc(CC)c3)c(C)n2n1 (optimized conformer: 87.37282435426735 kcal/mol)

>  <smiles>  (22) 
CCCc1nc2nc(C)c(CCC(=O)Nc3cccc(CC)c3)c(C)n2n1

>  <score_type>  (22) 
oracle

>  <origin>  (22) 
adg

>  <m_score__min__energy>  (22) 
-10.800000000000001

>  <m_primary>  (22) 
energy

$$$$
22:0
     RDKit          3D

 61 64  0  0  0  0  0  0  0  0999 V2000
   -2.4850   25.2790  -26.3200 C   0  0  0  0  0  0  0  0  0  0  0  0
   -3.8890   24.7620  -26.6190 C   0  0  0  0  0  0  0  0  0  0  0  0
   -3.8430   23.5540  -27.5650 C   0  0  0  0  0  0  0  0  0  0  0  0
   -4.2370   23.9170  -29.0070 C   0  0  0  0  0  0  0  0  0  0  0  0
   -5.4580   24.7460  -29.0570 N   0  0  0  0  0  0  0  0  0  0  0  0
   -6.2430   24.5280  -30.2890 C   0  0  0  0  0  0  0  0  0  0  0  0
   -5.4650   23.7870  -31.3980 C   0  0  0  0  0  0  0  0  0  0  0  0
   -5.9220   22.3660  -31.6120 C   0  0  0  0  0  0  0  0  0  0  0  0
   -5.1220   21.2440  -31.8680 C   0  0  0  0  0  0  0  0  0  0  0  0
   -3.6540   21.2540  -32.0210 C   0  0  0  0  0  0  0  0  0  0  0  0
   -3.0660   21.1840  -33.2910 C   0  0  0  0  0  0  0  0  0  0  0  0
   -1.6750   21.1970  -33.4240 C   0  0  0  0  0  0  0  0  0  0  0  0
   -0.8630   21.2960  -32.2920 C   0  0  0  0  0  0  0  0  0  0  0  0
   -1.4360   21.3980  -31.0180 C   0  0  0  0  0  0  0  0  0  0  0  0
   -0.5920   21.5010  -29.9030 O   0  0  0  0  0  0  0  0  0  0  0  0
   -0.9240   21.1090  -28.5980 C   0  0  0  0  0  0  0  0  0  0  0  0
   -0.6940   22.0050  -27.5460 C   0  0  0  0  0  0  0  0  0  0  0  0
   -1.0210   21.6510  -26.2330 C   0  0  0  0  0  0  0  0  0  0  0  0
   -1.5920   20.4050  -25.9640 C   0  0  0  0  0  0  0  0  0  0  0  0
   -1.8450   19.5130  -27.0100 C   0  0  0  0  0  0  0  0  0  0  0  0
   -1.5210   19.8630  -28.3230 C   0  0  0  0  0  0  0  0  0  0  0  0
   -2.8350   21.3520  -30.8860 C   0  0  0  0  0  0  0  0  0  0  0  0
   -5.8980   20.1530  -32.1040 N   0  0  0  0  0  0  0  0  0  0  0  0
   -5.4430   18.8100  -32.4680 C   0  0  0  0  0  0  0  0  0  0  0  0
   -7.1760   20.5800  -32.0450 C   0  0  0  0  0  0  0  0  0  0  0  0
   -8.3390   19.8440  -32.2950 C   0  0  0  0  0  0  0  0  0  0  0  0
   -9.5720   20.5150  -32.2430 C   0  0  0  0  0  0  0  0  0  0  0  0
   -9.6220   21.8970  -31.9680 C   0  0  0  0  0  0  0  0  0  0  0  0
   -8.4400   22.6190  -31.7330 C   0  0  0  0  0  0  0  0  0  0  0  0
   -7.2280   21.9240  -31.7580 C   0  0  0  0  0  0  0  0  0  0  0  0
   -2.3383   25.3330  -25.2312 H   0  0  0  0  0  0  0  0  0  0  0  0
   -1.7419   24.5955  -26.7566 H   0  0  0  0  0  0  0  0  0  0  0  0
   -2.3626   26.2812  -26.7566 H   0  0  0  0  0  0  0  0  0  0  0  0
   -4.3697   24.4619  -25.6762 H   0  0  0  0  0  0  0  0  0  0  0  0
   -4.4610   25.5656  -27.1059 H   0  0  0  0  0  0  0  0  0  0  0  0
   -2.8201   23.1494  -27.5704 H   0  0  0  0  0  0  0  0  0  0  0  0
   -4.5696   22.8146  -27.1970 H   0  0  0  0  0  0  0  0  0  0  0  0
   -3.4102   24.4749  -29.4709 H   0  0  0  0  0  0  0  0  0  0  0  0
   -4.4403   22.9813  -29.5485 H   0  0  0  0  0  0  0  0  0  0  0  0
   -5.2190   25.7580  -28.9590 H   0  0  0  0  0  0  0  0  0  0  0  0
   -6.0680   24.4860  -28.2470 H   0  0  0  0  0  0  0  0  0  0  0  0
   -7.1330   23.9343  -30.0332 H   0  0  0  0  0  0  0  0  0  0  0  0
   -6.5007   25.5210  -30.6858 H   0  0  0  0  0  0  0  0  0  0  0  0
   -5.5935   24.3390  -32.3407 H   0  0  0  0  0  0  0  0  0  0  0  0
   -4.4134   23.7422  -31.0784 H   0  0  0  0  0  0  0  0  0  0  0  0
   -3.7016   21.1186  -34.1864 H   0  0  0  0  0  0  0  0  0  0  0  0
   -1.2186   21.1291  -34.4225 H   0  0  0  0  0  0  0  0  0  0  0  0
    0.2315   21.2939  -32.4015 H   0  0  0  0  0  0  0  0  0  0  0  0
   -0.2541   22.9916  -27.7536 H   0  0  0  0  0  0  0  0  0  0  0  0
   -0.8281   22.3554  -25.4104 H   0  0  0  0  0  0  0  0  0  0  0  0
   -1.8424   20.1259  -24.9299 H   0  0  0  0  0  0  0  0  0  0  0  0
   -2.2999   18.5340  -26.7989 H   0  0  0  0  0  0  0  0  0  0  0  0
   -1.7327   19.1633  -29.1449 H   0  0  0  0  0  0  0  0  0  0  0  0
   -3.2907   21.3931  -29.8857 H   0  0  0  0  0  0  0  0  0  0  0  0
   -5.2463   18.2294  -31.5546 H   0  0  0  0  0  0  0  0  0  0  0  0
   -6.2211   18.3075  -33.0614 H   0  0  0  0  0  0  0  0  0  0  0  0
   -4.5198   18.8839  -33.0614 H   0  0  0  0  0  0  0  0  0  0  0  0
   -8.2894   18.7697  -32.5259 H   0  0  0  0  0  0  0  0  0  0  0  0
  -10.5046   19.9586  -32.4180 H   0  0  0  0  0  0  0  0  0  0  0  0
  -10.5929   22.4132  -31.9373 H   0  0  0  0  0  0  0  0  0  0  0  0
   -8.4678   23.7007  -31.5349 H   0  0  0  0  0  0  0  0  0  0  0  0
  1  2  1  0
  2  3  1  0
  3  4  1  0
  4  5  1  0
  5  6  1  0
  6  7  1  0
  7  8  1  0
  8  9  2  0
  9 10  1  0
 10 11  2  0
 11 12  1  0
 12 13  2  0
 13 14  1  0
 14 15  1  0
 15 16  1  0
 16 17  2  0
 17 18  1  0
 18 19  2  0
 19 20  1  0
 20 21  2  0
 14 22  2  0
  9 23  1  0
 23 24  1  0
 23 25  1  0
 25 26  2  0
 26 27  1  0
 27 28  2  0
 28 29  1  0
 29 30  2  0
 30  8  1  0
 22 10  1  0
 30 25  1  0
 21 16  1  0
  1 31  1  0
  1 32  1  0
  1 33  1  0
  2 34  1  0
  2 35  1  0
  3 36  1  0
  3 37  1  0
  4 38  1  0
  4 39  1  0
  5 40  1  0
  5 41  1  0
  6 42  1  0
  6 43  1  0
  7 44  1  0
  7 45  1  0
 11 46  1  0
 12 47  1  0
 13 48  1  0
 17 49  1  0
 18 50  1  0
 19 51  1  0
 20 52  1  0
 21 53  1  0
 22 54  1  0
 24 55  1  0
 24 56  1  0
 24 57  1  0
 26 58  1  0
 27 59  1  0
 28 60  1  0
 29 61  1  0
M  CHG  1   5   1
M  END
>  <UniqueID>  (23) 
23

>  <SMILES>  (23) 
CCCC[NH2+]CCc1c(-c2cccc(Oc3ccccc3)c2)n(C)c2ccccc12

>  <Energy>  (23) 
102.72604715952927

>  <Genealogy>  (23) 
CCCC[NH2+]CCc1c(-c2cccc(Oc3ccccc3)c2)n(C)c2ccccc12 (protonated)
CCCC[NH2+]CCc1c(-c2cccc(Oc3ccccc3)c2)n(C)c2ccccc12 (3D coordinates assigned)
CCCC[NH2+]CCc1c(-c2cccc(Oc3ccccc3)c2)n(C)c2ccccc12 (optimized conformer: 102.72604715952927 kcal/mol)

>  <smiles>  (23) 
CCCCNCCc1c(-c2cccc(Oc3ccccc3)c2)n(C)c2ccccc12

>  <score_type>  (23) 
oracle

>  <origin>  (23) 
adg

>  <m_score__min__energy>  (23) 
-9.7400000000000002

>  <m_primary>  (23) 
energy

$$$$
23:0
     RDKit          3D

 74 77  0  0  0  0  0  0  0  0999 V2000
   -7.4710   18.1810  -31.6130 C   0  0  0  0  0  0  0  0  0  0  0  0
   -6.1450   18.9370  -31.5090 C   0  0  0  0  0  0  0  0  0  0  0  0
   -6.1340   20.1530  -32.3530 N   0  0  0  0  0  0  0  0  0  0  0  0
   -7.4100   20.4320  -33.0630 C   0  0  0  0  0  0  0  0  0  0  0  0
   -8.4930   21.0940  -32.1970 C   0  0  0  0  0  0  0  0  0  0  0  0
   -4.9700   20.1870  -33.2650 C   0  0  0  0  0  0  0  0  0  0  0  0
   -4.4200   21.5370  -33.3140 N   0  0  0  0  0  0  0  0  0  0  0  0
   -3.9710   22.1850  -32.1120 C   0  0  0  0  0  0  0  0  0  0  0  0
   -4.8620   23.0290  -31.4210 C   0  0  0  0  0  0  0  0  0  0  0  0
   -6.1130   23.3760  -31.9800 C   0  0  0  0  0  0  0  0  0  0  0  0
   -7.0220   24.1550  -31.2690 C   0  0  0  0  0  0  0  0  0  0  0  0
   -6.7120   24.5890  -29.9890 C   0  0  0  0  0  0  0  0  0  0  0  0
   -5.4800   24.2720  -29.4210 C   0  0  0  0  0  0  0  0  0  0  0  0
   -4.5150   23.5140  -30.1350 C   0  0  0  0  0  0  0  0  0  0  0  0
   -3.2850   23.2090  -29.5880 N   0  0  0  0  0  0  0  0  0  0  0  0
   -2.8250   23.9110  -28.3680 C   0  0  0  0  0  0  0  0  0  0  0  0
   -2.4650   22.2770  -30.1960 C   0  0  0  0  0  0  0  0  0  0  0  0
   -1.3610   21.7180  -29.5080 C   0  0  0  0  0  0  0  0  0  0  0  0
   -0.4890   20.8440  -30.1390 C   0  0  0  0  0  0  0  0  0  0  0  0
   -0.6590   20.5310  -31.4780 C   0  0  0  0  0  0  0  0  0  0  0  0
   -1.7500   21.0380  -32.2040 C   0  0  0  0  0  0  0  0  0  0  0  0
   -1.7880   20.8490  -33.6370 N   0  0  0  0  0  0  0  0  0  0  0  0
   -1.4540   19.5950  -34.3210 C   0  0  0  0  0  0  0  0  0  0  0  0
   -2.2040   18.4120  -33.6950 C   0  0  0  0  0  0  0  0  0  0  0  0
   -2.0210   17.1270  -34.5360 C   0  0  0  0  0  0  0  0  0  0  0  0
   -3.2900   16.3990  -34.8640 N   0  0  0  0  0  0  0  0  0  0  0  0
   -3.1090   15.6100  -36.1130 C   0  0  0  0  0  0  0  0  0  0  0  0
   -3.5890   15.4420  -33.7470 C   0  0  0  0  0  0  0  0  0  0  0  0
   -4.5240   16.0640  -32.6890 C   0  0  0  0  0  0  0  0  0  0  0  0
   -5.7940   16.4360  -33.2060 O   0  0  0  0  0  0  0  0  0  0  0  0
   -5.7670   16.7820  -34.5850 C   0  0  0  0  0  0  0  0  0  0  0  0
   -4.4180   17.3710  -35.0410 C   0  0  0  0  0  0  0  0  0  0  0  0
   -2.7290   21.8350  -31.5260 C   0  0  0  0  0  0  0  0  0  0  0  0
   -7.8500   17.9649  -30.6032 H   0  0  0  0  0  0  0  0  0  0  0  0
   -8.2030   18.7975  -32.1553 H   0  0  0  0  0  0  0  0  0  0  0  0
   -7.3133   17.2370  -32.1553 H   0  0  0  0  0  0  0  0  0  0  0  0
   -5.9843   19.2303  -30.4611 H   0  0  0  0  0  0  0  0  0  0  0  0
   -5.3444   18.2703  -31.8620 H   0  0  0  0  0  0  0  0  0  0  0  0
   -7.1925   21.0995  -33.9098 H   0  0  0  0  0  0  0  0  0  0  0  0
   -7.8129   19.4569  -33.3743 H   0  0  0  0  0  0  0  0  0  0  0  0
   -8.2527   20.9471  -31.1337 H   0  0  0  0  0  0  0  0  0  0  0  0
   -8.5324   22.1707  -32.4187 H   0  0  0  0  0  0  0  0  0  0  0  0
   -9.4692   20.6381  -32.4187 H   0  0  0  0  0  0  0  0  0  0  0  0
   -4.1996   19.4918  -32.8999 H   0  0  0  0  0  0  0  0  0  0  0  0
   -5.2904   19.8885  -34.2741 H   0  0  0  0  0  0  0  0  0  0  0  0
   -4.6220   22.1250  -34.1540 H   0  0  0  0  0  0  0  0  0  0  0  0
   -6.3719   23.0260  -32.9902 H   0  0  0  0  0  0  0  0  0  0  0  0
   -7.9866   24.4263  -31.7229 H   0  0  0  0  0  0  0  0  0  0  0  0
   -7.4409   25.1853  -29.4205 H   0  0  0  0  0  0  0  0  0  0  0  0
   -5.2509   24.6151  -28.4013 H   0  0  0  0  0  0  0  0  0  0  0  0
   -3.1794   23.3702  -27.4781 H   0  0  0  0  0  0  0  0  0  0  0  0
   -1.7257   23.9499  -28.3598 H   0  0  0  0  0  0  0  0  0  0  0  0
   -3.2282   24.9344  -28.3598 H   0  0  0  0  0  0  0  0  0  0  0  0
   -1.1920   21.9819  -28.4536 H   0  0  0  0  0  0  0  0  0  0  0  0
    0.3420   20.3968  -29.5737 H   0  0  0  0  0  0  0  0  0  0  0  0
    0.0697   19.8770  -31.9793 H   0  0  0  0  0  0  0  0  0  0  0  0
   -1.9320   21.6860  -34.2440 H   0  0  0  0  0  0  0  0  0  0  0  0
   -1.7338   19.6779  -35.3816 H   0  0  0  0  0  0  0  0  0  0  0  0
   -0.3730   19.4178  -34.2209 H   0  0  0  0  0  0  0  0  0  0  0  0
   -1.8148   18.2361  -32.6813 H   0  0  0  0  0  0  0  0  0  0  0  0
   -3.2758   18.6571  -33.6613 H   0  0  0  0  0  0  0  0  0  0  0  0
   -1.5326   17.4047  -35.4817 H   0  0  0  0  0  0  0  0  0  0  0  0
   -1.4220   16.4394  -33.9209 H   0  0  0  0  0  0  0  0  0  0  0  0
   -2.8698   14.5674  -35.8566 H   0  0  0  0  0  0  0  0  0  0  0  0
   -4.0371   15.6389  -36.7027 H   0  0  0  0  0  0  0  0  0  0  0  0
   -2.2863   16.0406  -36.7027 H   0  0  0  0  0  0  0  0  0  0  0  0
   -4.0720   14.5469  -34.1658 H   0  0  0  0  0  0  0  0  0  0  0  0
   -2.6393   15.1872  -33.2540 H   0  0  0  0  0  0  0  0  0  0  0  0
   -4.6768   15.3299  -31.8842 H   0  0  0  0  0  0  0  0  0  0  0  0
   -4.0391   16.9829  -32.3277 H   0  0  0  0  0  0  0  0  0  0  0  0
   -5.9699   15.8766  -35.1759 H   0  0  0  0  0  0  0  0  0  0  0  0
   -6.5301   17.5589  -34.7402 H   0  0  0  0  0  0  0  0  0  0  0  0
   -4.4902   17.6408  -36.1049 H   0  0  0  0  0  0  0  0  0  0  0  0
   -4.2059   18.2533  -34.4193 H   0  0  0  0  0  0  0  0  0  0  0  0
  1  2  1  0
  2  3  1  0
  3  4  1  0
  4  5  1  0
  3  6  1  0
  6  7  1  0
  7  8  1  0
  8  9  2  0
  9 10  1  0
 10 11  2  0
 11 12  1  0
 12 13  2  0
 13 14  1  0
 14 15  2  0
 15 16  1  0
 15 17  1  0
 17 18  2  0
 18 19  1  0
 19 20  2  0
 20 21  1  0
 21 22  1  0
 22 23  1  0
 23 24  1  0
 24 25  1  0
 25 26  1  0
 26 27  1  0
 26 28  1  0
 28 29  1  0
 29 30  1  0
 30 31  1  0
 31 32  1  0
 21 33  2  0
 33  8  1  0
 14  9  1  0
 33 17  1  0
 32 26  1  0
  1 34  1  0
  1 35  1  0
  1 36  1  0
  2 37  1  0
  2 38  1  0
  4 39  1  0
  4 40  1  0
  5 41  1  0
  5 42  1  0
  5 43  1  0
  6 44  1  0
  6 45  1  0
  7 46  1  0
 10 47  1  0
 11 48  1  0
 12 49  1  0
 13 50  1  0
 16 51  1  0
 16 52  1  0
 16 53  1  0
 18 54  1  0
 19 55  1  0
 20 56  1  0
 22 57  1  0
 23 58  1  0
 23 59  1  0
 24 60  1  0
 24 61  1  0
 25 62  1  0
 25 63  1  0
 27 64  1  0
 27 65  1  0
 27 66  1  0
 28 67  1  0
 28 68  1  0
 29 69  1  0
 29 70  1  0
 31 71  1  0
 31 72  1  0
 32 73  1  0
 32 74  1  0
M  CHG  2  15   1  26   1
M  END
>  <UniqueID>  (24) 
24

>  <SMILES>  (24) 
CCN(CC)CNc1c2ccccc2[n+](C)c2cccc(NCCC[N+]3(C)CCOCC3)c12

>  <Energy>  (24) 
130.3659824030803

>  <Genealogy>  (24) 
CCN(CC)CNc1c2ccccc2[n+](C)c2cccc(NCCC[N+]3(C)CCOCC3)c12 (3D coordinates assigned)
CCN(CC)CNc1c2ccccc2[n+](C)c2cccc(NCCC[N+]3(C)CCOCC3)c12 (nonaromatic ring conformer: 130.3659824030803 kcal/mol)

>  <smiles>  (24) 
CCN(CC)CNc1c2ccccc2[n+](C)c2cccc(NCCC[N+]3(C)CCOCC3)c12

>  <score_type>  (24) 
oracle

>  <origin>  (24) 
adg

>  <m_score__min__energy>  (24) 
-8.7699999999999996

>  <m_primary>  (24) 
energy

$$$$
