0:0
     RDKit          3D

 36 36  0  0  0  0  0  0  0  0999 V2000
   -6.6740   25.2590  -29.7170 C   0  0  0  0  0  0  0  0  0  0  0  0
   -5.4000   25.6430  -30.4690 C   0  0  0  0  0  0  0  0  0  0  0  0
   -4.7360   24.4650  -31.0690 N   0  0  0  0  0  0  0  0  0  0  0  0
   -3.9150   23.7640  -30.0680 C   0  0  0  0  0  0  0  0  0  0  0  0
   -5.6420   23.5410  -31.7950 C   0  0  0  0  0  0  0  0  0  0  0  0
   -4.9530   22.2950  -32.3810 C   0  0  0  0  0  0  0  0  0  0  0  0
   -5.7010   20.7860  -31.6610 S   0  0  0  0  0  0  0  0  0  0  0  0
   -6.8020   20.3390  -33.0680 C   0  0  0  0  0  0  0  0  0  0  0  0
   -6.4890   18.9250  -33.5910 C   0  0  0  0  0  0  0  0  0  0  0  0
   -6.7680   17.8300  -32.5410 C   0  0  0  0  0  0  0  0  0  0  0  0
   -7.9400   18.1680  -31.5970 C   0  0  0  0  0  0  0  0  0  0  0  0
   -8.9440   19.1220  -32.2490 C   0  0  0  0  0  0  0  0  0  0  0  0
   -8.2880   20.4630  -32.6420 C   0  0  0  0  0  0  0  0  0  0  0  0
   -6.4911   25.3141  -28.6337 H   0  0  0  0  0  0  0  0  0  0  0  0
   -7.4831   25.9532  -29.9880 H   0  0  0  0  0  0  0  0  0  0  0  0
   -6.9647   24.2333  -29.9880 H   0  0  0  0  0  0  0  0  0  0  0  0
   -5.6597   26.3509  -31.2699 H   0  0  0  0  0  0  0  0  0  0  0  0
   -4.7031   26.0965  -29.7488 H   0  0  0  0  0  0  0  0  0  0  0  0
   -4.2468   24.0473  -29.0582 H   0  0  0  0  0  0  0  0  0  0  0  0
   -4.0256   22.6774  -30.1989 H   0  0  0  0  0  0  0  0  0  0  0  0
   -2.8592   24.0435  -30.1989 H   0  0  0  0  0  0  0  0  0  0  0  0
   -6.4213   23.2047  -31.0953 H   0  0  0  0  0  0  0  0  0  0  0  0
   -6.0431   24.1058  -32.6495 H   0  0  0  0  0  0  0  0  0  0  0  0
   -5.0839   22.2835  -33.4731 H   0  0  0  0  0  0  0  0  0  0  0  0
   -3.8801   22.3225  -32.1398 H   0  0  0  0  0  0  0  0  0  0  0  0
   -6.6165   21.0422  -33.8933 H   0  0  0  0  0  0  0  0  0  0  0  0
   -7.1118   18.7309  -34.4767 H   0  0  0  0  0  0  0  0  0  0  0  0
   -5.4167   18.8889  -33.8338 H   0  0  0  0  0  0  0  0  0  0  0  0
   -7.0043   16.8940  -33.0683 H   0  0  0  0  0  0  0  0  0  0  0  0
   -5.8657   17.7412  -31.9181 H   0  0  0  0  0  0  0  0  0  0  0  0
   -8.4589   17.2363  -31.3272 H   0  0  0  0  0  0  0  0  0  0  0  0
   -7.5271   18.6653  -30.7069 H   0  0  0  0  0  0  0  0  0  0  0  0
   -9.3516   18.6464  -33.1533 H   0  0  0  0  0  0  0  0  0  0  0  0
   -9.7402   19.3315  -31.5195 H   0  0  0  0  0  0  0  0  0  0  0  0
   -8.8539   20.8914  -33.4824 H   0  0  0  0  0  0  0  0  0  0  0  0
   -8.3095   21.1016  -31.7466 H   0  0  0  0  0  0  0  0  0  0  0  0
  1  2  1  0
  2  3  1  0
  3  4  1  0
  3  5  1  0
  5  6  1  0
  6  7  1  0
  7  8  1  0
  8  9  1  0
  9 10  1  0
 10 11  1  0
 11 12  1  0
 12 13  1  0
 13  8  1  0
  1 14  1  0
  1 15  1  0
  1 16  1  0
  2 17  1  0
  2 18  1  0
  4 19  1  0
  4 20  1  0
  4 21  1  0
  5 22  1  0
  5 23  1  0
  6 24  1  0
  6 25  1  0
  8 26  1  0
  9 27  1  0
  9 28  1  0
 10 29  1  0
 10 30  1  0
 11 31  1  0
 11 32  1  0
 12 33  1  0
 12 34  1  0
 13 35  1  0
 13 36  1  0
M  END
>  <UniqueID>  (1) 
1

>  <SMILES>  (1) 
CCN(C)CCSC1CCCCC1

>  <Energy>  (1) 
33.83615651284664

>  <Genealogy>  (1) 
CCN(C)CCSC1CCCCC1 (3D coordinates assigned)
CCN(C)CCSC1CCCCC1 (nonaromatic ring conformer: 33.83615651284664 kcal/mol)

>  <smiles>  (1) 
CCN(C)CCSC1CCCCC1

>  <score_type>  (1) 
oracle

>  <origin>  (1) 
adg

>  <m_score__min__energy>  (1) 
-6.2800000000000002

>  <m_primary>  (1) 
energy

$$$$
1:0
     RDKit          3D

 44 46  0  0  0  0  0  0  0  0999 V2000
   -5.2670   25.1380  -30.5340 C   0  0  0  0  0  0  0  0  0  0  0  0
   -4.0510   24.3160  -30.6380 N   0  0  0  0  0  0  0  0  0  0  0  0
   -3.2200   24.5200  -29.4370 C   0  0  0  0  0  0  0  0  0  0  0  0
   -4.4090   22.8900  -30.8020 C   0  0  0  0  0  0  0  0  0  0  0  0
   -3.6720   22.2780  -31.9970 C   0  0  0  0  0  0  0  0  0  0  0  0
   -4.6040   21.9680  -33.0790 N   0  0  0  0  0  0  0  0  0  0  0  0
   -5.7180   21.0980  -32.8430 C   0  0  0  0  0  0  0  0  0  0  0  0
   -6.9520   21.6380  -32.4970 C   0  0  0  0  0  0  0  0  0  0  0  0
   -8.0260   20.8310  -32.2260 C   0  0  0  0  0  0  0  0  0  0  0  0
   -7.9420   19.4610  -32.2920 N   0  0  0  0  0  0  0  0  0  0  0  0
   -9.1200   18.6310  -31.9810 C   0  0  0  0  0  0  0  0  0  0  0  0
   -6.7400   18.8790  -32.6600 C   0  0  0  0  0  0  0  0  0  0  0  0
   -6.5960   17.4740  -32.7680 C   0  0  0  0  0  0  0  0  0  0  0  0
   -5.3840   16.9040  -33.1580 C   0  0  0  0  0  0  0  0  0  0  0  0
   -4.2900   17.7120  -33.4550 C   0  0  0  0  0  0  0  0  0  0  0  0
   -4.3960   19.0980  -33.3580 C   0  0  0  0  0  0  0  0  0  0  0  0
   -5.6040   19.6970  -32.9500 C   0  0  0  0  0  0  0  0  0  0  0  0
   -9.2220   21.6370  -31.8530 C   0  0  0  0  0  0  0  0  0  0  0  0
   -8.7540   23.1000  -31.9550 C   0  0  0  0  0  0  0  0  0  0  0  0
   -7.2670   23.0780  -32.3350 C   0  0  0  0  0  0  0  0  0  0  0  0
   -5.5093   25.3018  -29.4736 H   0  0  0  0  0  0  0  0  0  0  0  0
   -5.0974   26.1074  -31.0253 H   0  0  0  0  0  0  0  0  0  0  0  0
   -6.1034   24.6193  -31.0253 H   0  0  0  0  0  0  0  0  0  0  0  0
   -3.8337   24.3694  -28.5366 H   0  0  0  0  0  0  0  0  0  0  0  0
   -2.3891   23.7992  -29.4393 H   0  0  0  0  0  0  0  0  0  0  0  0
   -2.8174   25.5437  -29.4393 H   0  0  0  0  0  0  0  0  0  0  0  0
   -4.1334   22.3417  -29.8891 H   0  0  0  0  0  0  0  0  0  0  0  0
   -5.4919   22.8167  -30.9806 H   0  0  0  0  0  0  0  0  0  0  0  0
   -2.9208   22.9937  -32.3623 H   0  0  0  0  0  0  0  0  0  0  0  0
   -3.1870   21.3458  -31.6719 H   0  0  0  0  0  0  0  0  0  0  0  0
   -4.6110   22.5490  -33.9490 H   0  0  0  0  0  0  0  0  0  0  0  0
   -9.2341   18.5506  -30.8899 H   0  0  0  0  0  0  0  0  0  0  0  0
  -10.0197   19.0958  -32.4105 H   0  0  0  0  0  0  0  0  0  0  0  0
   -8.9851   17.6274  -32.4105 H   0  0  0  0  0  0  0  0  0  0  0  0
   -7.4528   16.8226  -32.5409 H   0  0  0  0  0  0  0  0  0  0  0  0
   -5.2923   15.8103  -33.2312 H   0  0  0  0  0  0  0  0  0  0  0  0
   -3.3393   17.2551  -33.7671 H   0  0  0  0  0  0  0  0  0  0  0  0
   -3.5292   19.7297  -33.6021 H   0  0  0  0  0  0  0  0  0  0  0  0
  -10.0515   21.4455  -32.5496 H   0  0  0  0  0  0  0  0  0  0  0  0
   -9.5950   21.3882  -30.8485 H   0  0  0  0  0  0  0  0  0  0  0  0
   -9.3323   23.6272  -32.7280 H   0  0  0  0  0  0  0  0  0  0  0  0
   -8.9042   23.6245  -30.9998 H   0  0  0  0  0  0  0  0  0  0  0  0
   -7.0970   23.6224  -33.2756 H   0  0  0  0  0  0  0  0  0  0  0  0
   -6.6327   23.5648  -31.5795 H   0  0  0  0  0  0  0  0  0  0  0  0
  1  2  1  0
  2  3  1  0
  2  4  1  0
  4  5  1  0
  5  6  1  0
  6  7  1  0
  7  8  2  0
  8  9  1  0
  9 10  2  0
 10 11  1  0
 10 12  1  0
 12 13  2  0
 13 14  1  0
 14 15  2  0
 15 16  1  0
 16 17  2  0
  9 18  1  0
 18 19  1  0
 19 20  1  0
 17  7  1  0
 20  8  1  0
 17 12  1  0
  1 21  1  0
  1 22  1  0
  1 23  1  0
  3 24  1  0
  3 25  1  0
  3 26  1  0
  4 27  1  0
  4 28  1  0
  5 29  1  0
  5 30  1  0
  6 31  1  0
 11 32  1  0
 11 33  1  0
 11 34  1  0
 13 35  1  0
 14 36  1  0
 15 37  1  0
 16 38  1  0
 18 39  1  0
 18 40  1  0
 19 41  1  0
 19 42  1  0
 20 43  1  0
 20 44  1  0
M  CHG  1  10   1
M  END
>  <UniqueID>  (2) 
2

>  <SMILES>  (2) 
CN(C)CCNc1c2c([n+](C)c3ccccc13)CCC2

>  <Energy>  (2) 
65.74032614802613

>  <Genealogy>  (2) 
CN(C)CCNc1c2c([n+](C)c3ccccc13)CCC2 (3D coordinates assigned)
CN(C)CCNc1c2c([n+](C)c3ccccc13)CCC2 (nonaromatic ring conformer: 65.74032614802613 kcal/mol)

>  <smiles>  (2) 
CN(C)CCNc1c2c([n+](C)c3ccccc13)CCC2

>  <score_type>  (2) 
oracle

>  <origin>  (2) 
adg

>  <m_score__min__energy>  (2) 
-7.9400000000000004

>  <m_primary>  (2) 
energy

$$$$
2:0
     RDKit          3D

 59 61  0  0  0  0  0  0  0  0999 V2000
   -2.1450   19.2740  -26.3580 C   0  0  0  0  0  0  0  0  0  0  0  0
   -3.0750   19.9680  -27.3480 C   0  0  0  0  0  0  0  0  0  0  0  0
   -2.4730   21.2990  -27.8250 C   0  0  0  0  0  0  0  0  0  0  0  0
   -3.0700   21.7970  -29.0840 N   0  0  0  0  0  0  0  0  0  0  0  0
   -2.8380   23.2360  -29.3620 C   0  0  0  0  0  0  0  0  0  0  0  0
   -2.8390   24.1440  -28.1140 C   0  0  0  0  0  0  0  0  0  0  0  0
   -4.2070   24.1530  -27.4360 C   0  0  0  0  0  0  0  0  0  0  0  0
   -2.9630   20.8580  -30.2240 C   0  0  0  0  0  0  0  0  0  0  0  0
   -2.3130   21.5290  -31.4400 C   0  0  0  0  0  0  0  0  0  0  0  0
   -2.5510   20.7240  -32.7260 C   0  0  0  0  0  0  0  0  0  0  0  0
   -3.6310   21.3180  -33.5300 N   0  0  0  0  0  0  0  0  0  0  0  0
   -4.9230   20.8000  -33.1030 C   0  0  0  0  0  0  0  0  0  0  0  0
   -5.3510   19.5040  -33.4950 C   0  0  0  0  0  0  0  0  0  0  0  0
   -4.6020   18.7130  -34.4010 C   0  0  0  0  0  0  0  0  0  0  0  0
   -4.9750   17.4040  -34.6900 C   0  0  0  0  0  0  0  0  0  0  0  0
   -6.0930   16.8500  -34.0870 C   0  0  0  0  0  0  0  0  0  0  0  0
   -6.8800   17.6200  -33.2380 C   0  0  0  0  0  0  0  0  0  0  0  0
   -6.5660   18.9770  -32.9750 C   0  0  0  0  0  0  0  0  0  0  0  0
   -7.4100   19.7760  -32.2320 N   0  0  0  0  0  0  0  0  0  0  0  0
   -8.8010   19.3380  -31.9720 C   0  0  0  0  0  0  0  0  0  0  0  0
   -6.9840   21.0080  -31.7800 C   0  0  0  0  0  0  0  0  0  0  0  0
   -7.7410   21.7450  -30.8300 C   0  0  0  0  0  0  0  0  0  0  0  0
   -7.3650   23.0280  -30.4430 C   0  0  0  0  0  0  0  0  0  0  0  0
   -6.2260   23.6080  -30.9790 C   0  0  0  0  0  0  0  0  0  0  0  0
   -5.7360   25.3830  -30.4730 Br  0  0  0  0  0  0  0  0  0  0  0  0
   -5.4300   22.8920  -31.8700 C   0  0  0  0  0  0  0  0  0  0  0  0
   -5.7660   21.5680  -32.2530 C   0  0  0  0  0  0  0  0  0  0  0  0
   -2.4609   19.5097  -25.3310 H   0  0  0  0  0  0  0  0  0  0  0  0
   -2.1889   18.1861  -26.5145 H   0  0  0  0  0  0  0  0  0  0  0  0
   -1.1146   19.6257  -26.5145 H   0  0  0  0  0  0  0  0  0  0  0  0
   -3.2310   19.3114  -28.2166 H   0  0  0  0  0  0  0  0  0  0  0  0
   -4.0317   20.1747  -26.8460 H   0  0  0  0  0  0  0  0  0  0  0  0
   -2.6320   22.0542  -27.0412 H   0  0  0  0  0  0  0  0  0  0  0  0
   -1.4053   21.1206  -28.0205 H   0  0  0  0  0  0  0  0  0  0  0  0
   -1.8608   23.3358  -29.8571 H   0  0  0  0  0  0  0  0  0  0  0  0
   -3.6779   23.5699  -29.9889 H   0  0  0  0  0  0  0  0  0  0  0  0
   -2.0879   23.7736  -27.4007 H   0  0  0  0  0  0  0  0  0  0  0  0
   -2.6017   25.1703  -28.4309 H   0  0  0  0  0  0  0  0  0  0  0  0
   -4.0750   24.1521  -26.3439 H   0  0  0  0  0  0  0  0  0  0  0  0
   -4.7599   25.0548  -27.7378 H   0  0  0  0  0  0  0  0  0  0  0  0
   -4.7717   23.2586  -27.7378 H   0  0  0  0  0  0  0  0  0  0  0  0
   -2.3513   19.9953  -29.9213 H   0  0  0  0  0  0  0  0  0  0  0  0
   -3.9768   20.5370  -30.5055 H   0  0  0  0  0  0  0  0  0  0  0  0
   -2.7415   22.5345  -31.5641 H   0  0  0  0  0  0  0  0  0  0  0  0
   -1.2285   21.5824  -31.2640 H   0  0  0  0  0  0  0  0  0  0  0  0
   -1.6251   20.7134  -33.3198 H   0  0  0  0  0  0  0  0  0  0  0  0
   -2.8439   19.7006  -32.4487 H   0  0  0  0  0  0  0  0  0  0  0  0
   -3.4750   21.1400  -34.5460 H   0  0  0  0  0  0  0  0  0  0  0  0
   -3.5980   22.3600  -33.4730 H   0  0  0  0  0  0  0  0  0  0  0  0
   -3.7110   19.1407  -34.8839 H   0  0  0  0  0  0  0  0  0  0  0  0
   -4.3813   16.8077  -35.3985 H   0  0  0  0  0  0  0  0  0  0  0  0
   -6.3580   15.8000  -34.2803 H   0  0  0  0  0  0  0  0  0  0  0  0
   -7.7624   17.1679  -32.7617 H   0  0  0  0  0  0  0  0  0  0  0  0
   -8.9717   19.2843  -30.8867 H   0  0  0  0  0  0  0  0  0  0  0  0
   -9.5019   20.0589  -32.4181 H   0  0  0  0  0  0  0  0  0  0  0  0
   -8.9624   18.3456  -32.4181 H   0  0  0  0  0  0  0  0  0  0  0  0
   -8.6426   21.2924  -30.3914 H   0  0  0  0  0  0  0  0  0  0  0  0
   -7.9719   23.5818  -29.7116 H   0  0  0  0  0  0  0  0  0  0  0  0
   -4.5253   23.3613  -32.2838 H   0  0  0  0  0  0  0  0  0  0  0  0
  1  2  1  0
  2  3  1  0
  3  4  1  0
  4  5  1  0
  5  6  1  0
  6  7  1  0
  4  8  1  0
  8  9  1  0
  9 10  1  0
 10 11  1  0
 11 12  1  0
 12 13  2  0
 13 14  1  0
 14 15  2  0
 15 16  1  0
 16 17  2  0
 17 18  1  0
 18 19  2  0
 19 20  1  0
 19 21  1  0
 21 22  2  0
 22 23  1  0
 23 24  2  0
 24 25  1  0
 24 26  1  0
 26 27  2  0
 27 12  1  0
 18 13  1  0
 27 21  1  0
  1 28  1  0
  1 29  1  0
  1 30  1  0
  2 31  1  0
  2 32  1  0
  3 33  1  0
  3 34  1  0
  5 35  1  0
  5 36  1  0
  6 37  1  0
  6 38  1  0
  7 39  1  0
  7 40  1  0
  7 41  1  0
  8 42  1  0
  8 43  1  0
  9 44  1  0
  9 45  1  0
 10 46  1  0
 10 47  1  0
 11 48  1  0
 11 49  1  0
 14 50  1  0
 15 51  1  0
 16 52  1  0
 17 53  1  0
 20 54  1  0
 20 55  1  0
 20 56  1  0
 22 57  1  0
 23 58  1  0
 26 59  1  0
M  CHG  2  11   1  19   1
M  END
>  <UniqueID>  (3) 
3

>  <SMILES>  (3) 
CCCN(CCC)CCC[NH2+]c1c2ccccc2[n+](C)c2ccc(Br)cc12

>  <Energy>  (3) 
86.69847101383195

>  <Genealogy>  (3) 
CCCN(CCC)CCC[NH2+]c1c2ccccc2[n+](C)c2ccc(Br)cc12 (protonated)
CCCN(CCC)CCC[NH2+]c1c2ccccc2[n+](C)c2ccc(Br)cc12 (3D coordinates assigned)
CCCN(CCC)CCC[NH2+]c1c2ccccc2[n+](C)c2ccc(Br)cc12 (optimized conformer: 86.69847101383195 kcal/mol)

>  <smiles>  (3) 
CCCN(CCC)CCCNc1c2ccccc2[n+](C)c2ccc(Br)cc12

>  <score_type>  (3) 
oracle

>  <origin>  (3) 
adg

>  <m_score__min__energy>  (3) 
-8.6199999999999992

>  <m_primary>  (3) 
energy

$$$$
3:0
     RDKit          3D

 48 51  0  0  0  0  0  0  0  0999 V2000
   -0.1190   17.7050  -31.8960 C   0  0  0  0  0  0  0  0  0  0  0  0
   -0.6350   16.9430  -33.1160 C   0  0  0  0  0  0  0  0  0  0  0  0
   -0.9840   17.8690  -34.2030 N   0  0  0  0  0  0  0  0  0  0  0  0
   -2.0950   18.6990  -33.8070 C   0  0  0  0  0  0  0  0  0  0  0  0
   -1.9460   20.0870  -33.7260 C   0  0  0  0  0  0  0  0  0  0  0  0
   -3.0190   20.8900  -33.3530 C   0  0  0  0  0  0  0  0  0  0  0  0
   -4.2670   20.3220  -33.0280 C   0  0  0  0  0  0  0  0  0  0  0  0
   -5.3660   21.1380  -32.7150 C   0  0  0  0  0  0  0  0  0  0  0  0
   -5.2320   22.5700  -32.7170 N   0  0  0  0  0  0  0  0  0  0  0  0
   -5.3150   23.3700  -31.5230 C   0  0  0  0  0  0  0  0  0  0  0  0
   -6.4410   24.1710  -31.2480 C   0  0  0  0  0  0  0  0  0  0  0  0
   -6.4920   24.9380  -30.0800 C   0  0  0  0  0  0  0  0  0  0  0  0
   -5.4270   24.9130  -29.1760 C   0  0  0  0  0  0  0  0  0  0  0  0
   -4.3060   24.1190  -29.4390 C   0  0  0  0  0  0  0  0  0  0  0  0
   -2.8510   24.0850  -28.2020 Br  0  0  0  0  0  0  0  0  0  0  0  0
   -4.2510   23.3510  -30.6060 C   0  0  0  0  0  0  0  0  0  0  0  0
   -6.6160   20.5520  -32.4590 C   0  0  0  0  0  0  0  0  0  0  0  0
   -7.7540   21.3540  -32.2350 C   0  0  0  0  0  0  0  0  0  0  0  0
   -9.0050   20.7730  -32.0400 C   0  0  0  0  0  0  0  0  0  0  0  0
   -9.1440   19.3900  -32.0800 C   0  0  0  0  0  0  0  0  0  0  0  0
   -8.0290   18.5780  -32.2880 C   0  0  0  0  0  0  0  0  0  0  0  0
   -6.7350   19.1370  -32.4490 C   0  0  0  0  0  0  0  0  0  0  0  0
   -5.6130   18.3450  -32.6130 N   0  0  0  0  0  0  0  0  0  0  0  0
   -5.6820   16.8950  -32.3200 C   0  0  0  0  0  0  0  0  0  0  0  0
   -4.4180   18.9110  -33.0200 C   0  0  0  0  0  0  0  0  0  0  0  0
   -3.3230   18.1200  -33.4500 C   0  0  0  0  0  0  0  0  0  0  0  0
   -0.4594   17.2023  -30.9787 H   0  0  0  0  0  0  0  0  0  0  0  0
    0.9806   17.7270  -31.9155 H   0  0  0  0  0  0  0  0  0  0  0  0
   -0.5068   18.7342  -31.9155 H   0  0  0  0  0  0  0  0  0  0  0  0
    0.1468   16.2534  -33.4672 H   0  0  0  0  0  0  0  0  0  0  0  0
   -1.5374   16.3847  -32.8262 H   0  0  0  0  0  0  0  0  0  0  0  0
   -0.1580   18.4710  -34.4340 H   0  0  0  0  0  0  0  0  0  0  0  0
   -1.2370   17.3270  -35.0630 H   0  0  0  0  0  0  0  0  0  0  0  0
   -0.9742   20.5468  -33.9587 H   0  0  0  0  0  0  0  0  0  0  0  0
   -2.8917   21.9818  -33.3112 H   0  0  0  0  0  0  0  0  0  0  0  0
   -4.9870   23.0300  -33.6230 H   0  0  0  0  0  0  0  0  0  0  0  0
   -7.2834   24.1931  -31.9550 H   0  0  0  0  0  0  0  0  0  0  0  0
   -7.3731   25.5629  -29.8723 H   0  0  0  0  0  0  0  0  0  0  0  0
   -5.4701   25.5174  -28.2580 H   0  0  0  0  0  0  0  0  0  0  0  0
   -3.3678   22.7271  -30.8077 H   0  0  0  0  0  0  0  0  0  0  0  0
   -7.6529   22.4491  -32.2140 H   0  0  0  0  0  0  0  0  0  0  0  0
   -9.8834   21.4086  -31.8543 H   0  0  0  0  0  0  0  0  0  0  0  0
  -10.1365   18.9348  -31.9472 H   0  0  0  0  0  0  0  0  0  0  0  0
   -8.1551   17.4860  -32.3279 H   0  0  0  0  0  0  0  0  0  0  0  0
   -5.6893   16.7409  -31.2309 H   0  0  0  0  0  0  0  0  0  0  0  0
   -6.6011   16.4762  -32.7557 H   0  0  0  0  0  0  0  0  0  0  0  0
   -4.8068   16.3908  -32.7557 H   0  0  0  0  0  0  0  0  0  0  0  0
   -3.4382   17.0274  -33.5052 H   0  0  0  0  0  0  0  0  0  0  0  0
  1  2  1  0
  2  3  1  0
  3  4  1  0
  4  5  2  0
  5  6  1  0
  6  7  2  0
  7  8  1  0
  8  9  1  0
  9 10  1  0
 10 11  2  0
 11 12  1  0
 12 13  2  0
 13 14  1  0
 14 15  1  0
 14 16  2  0
  8 17  2  0
 17 18  1  0
 18 19  2  0
 19 20  1  0
 20 21  2  0
 21 22  1  0
 22 23  2  0
 23 24  1  0
 23 25  1  0
 25 26  2  0
 26  4  1  0
 25  7  1  0
 16 10  1  0
 22 17  1  0
  1 27  1  0
  1 28  1  0
  1 29  1  0
  2 30  1  0
  2 31  1  0
  3 32  1  0
  3 33  1  0
  5 34  1  0
  6 35  1  0
  9 36  1  0
 11 37  1  0
 12 38  1  0
 13 39  1  0
 16 40  1  0
 18 41  1  0
 19 42  1  0
 20 43  1  0
 21 44  1  0
 24 45  1  0
 24 46  1  0
 24 47  1  0
 26 48  1  0
M  CHG  2   3   1  23   1
M  END
>  <UniqueID>  (4) 
4

>  <SMILES>  (4) 
CC[NH2+]c1ccc2c(Nc3cccc(Br)c3)c3ccccc3[n+](C)c2c1

>  <Energy>  (4) 
77.98035549153876

>  <Genealogy>  (4) 
CC[NH2+]c1ccc2c(Nc3cccc(Br)c3)c3ccccc3[n+](C)c2c1 (protonated)
CC[NH2+]c1ccc2c(Nc3cccc(Br)c3)c3ccccc3[n+](C)c2c1 (3D coordinates assigned)
CC[NH2+]c1ccc2c(Nc3cccc(Br)c3)c3ccccc3[n+](C)c2c1 (optimized conformer: 77.98035549153876 kcal/mol)

>  <smiles>  (4) 
CCNc1ccc2c(Nc3cccc(Br)c3)c3ccccc3[n+](C)c2c1

>  <score_type>  (4) 
oracle

>  <origin>  (4) 
adg

>  <m_score__min__energy>  (4) 
-8.5600000000000005

>  <m_primary>  (4) 
energy

$$$$
4:0
     RDKit          3D

 50 52  0  0  0  0  0  0  0  0999 V2000
   -0.4910   26.8610  -22.9660 C   0  0  0  0  0  0  0  0  0  0  0  0
   -0.4090   25.9950  -24.1770 C   0  0  0  0  0  0  0  0  0  0  0  0
   -0.9060   26.3010  -25.4300 C   0  0  0  0  0  0  0  0  0  0  0  0
   -0.6450   25.1730  -26.1930 C   0  0  0  0  0  0  0  0  0  0  0  0
   -0.9960   24.9990  -27.6530 C   0  0  0  0  0  0  0  0  0  0  0  0
   -1.5910   23.6810  -27.9780 N   0  0  0  0  0  0  0  0  0  0  0  0
   -2.7050   23.2460  -27.1020 C   0  0  0  0  0  0  0  0  0  0  0  0
   -4.0730   23.2800  -27.8090 C   0  0  0  0  0  0  0  0  0  0  0  0
   -4.0610   24.3160  -28.8500 N   0  0  0  0  0  0  0  0  0  0  0  0
   -5.4010   24.7420  -29.3040 C   0  0  0  0  0  0  0  0  0  0  0  0
   -5.4310   25.3440  -30.7230 C   0  0  0  0  0  0  0  0  0  0  0  0
   -5.3540   24.3070  -31.7010 O   0  0  0  0  0  0  0  0  0  0  0  0
   -6.2300   23.2140  -31.8010 C   0  0  0  0  0  0  0  0  0  0  0  0
   -7.5850   23.4250  -31.5110 C   0  0  0  0  0  0  0  0  0  0  0  0
   -8.5020   22.3730  -31.5930 C   0  0  0  0  0  0  0  0  0  0  0  0
   -8.0720   21.0970  -31.9690 C   0  0  0  0  0  0  0  0  0  0  0  0
   -6.7250   20.8750  -32.2650 C   0  0  0  0  0  0  0  0  0  0  0  0
   -5.8050   21.9240  -32.1850 C   0  0  0  0  0  0  0  0  0  0  0  0
   -3.1360   23.9840  -29.9480 C   0  0  0  0  0  0  0  0  0  0  0  0
   -1.8000   23.4160  -29.4150 C   0  0  0  0  0  0  0  0  0  0  0  0
   -0.0560   24.2440  -25.4040 N   0  0  0  0  0  0  0  0  0  0  0  0
    0.2760   22.8650  -25.7570 C   0  0  0  0  0  0  0  0  0  0  0  0
    0.0790   24.7410  -24.1850 N   0  0  0  0  0  0  0  0  0  0  0  0
   -0.4318   26.2354  -22.0632 H   0  0  0  0  0  0  0  0  0  0  0  0
    0.3433   27.5779  -22.9707 H   0  0  0  0  0  0  0  0  0  0  0  0
   -1.4450   27.4086  -22.9707 H   0  0  0  0  0  0  0  0  0  0  0  0
   -1.3983   27.2311  -25.7502 H   0  0  0  0  0  0  0  0  0  0  0  0
   -1.7171   25.7818  -27.9309 H   0  0  0  0  0  0  0  0  0  0  0  0
   -0.0543   25.0703  -28.2170 H   0  0  0  0  0  0  0  0  0  0  0  0
   -2.5078   22.2164  -26.7688 H   0  0  0  0  0  0  0  0  0  0  0  0
   -2.7532   23.9482  -26.2566 H   0  0  0  0  0  0  0  0  0  0  0  0
   -4.2725   22.3008  -28.2686 H   0  0  0  0  0  0  0  0  0  0  0  0
   -4.8596   23.5076  -27.0745 H   0  0  0  0  0  0  0  0  0  0  0  0
   -6.0646   23.8648  -29.2883 H   0  0  0  0  0  0  0  0  0  0  0  0
   -5.7264   25.5381  -28.6182 H   0  0  0  0  0  0  0  0  0  0  0  0
   -6.3679   25.9039  -30.8603 H   0  0  0  0  0  0  0  0  0  0  0  0
   -4.5695   26.0169  -30.8453 H   0  0  0  0  0  0  0  0  0  0  0  0
   -7.9298   24.4271  -31.2163 H   0  0  0  0  0  0  0  0  0  0  0  0
   -9.5628   22.5494  -31.3615 H   0  0  0  0  0  0  0  0  0  0  0  0
   -8.7934   20.2690  -32.0317 H   0  0  0  0  0  0  0  0  0  0  0  0
   -6.3873   19.8712  -32.5621 H   0  0  0  0  0  0  0  0  0  0  0  0
   -4.7461   21.7437  -32.4221 H   0  0  0  0  0  0  0  0  0  0  0  0
   -3.6088   23.2334  -30.5984 H   0  0  0  0  0  0  0  0  0  0  0  0
   -2.9192   24.9068  -30.5060 H   0  0  0  0  0  0  0  0  0  0  0  0
   -1.7935   22.3277  -29.5750 H   0  0  0  0  0  0  0  0  0  0  0  0
   -0.9884   23.9174  -29.9627 H   0  0  0  0  0  0  0  0  0  0  0  0
    0.4179   22.2756  -24.8392 H   0  0  0  0  0  0  0  0  0  0  0  0
   -0.5432   22.4306  -26.3487 H   0  0  0  0  0  0  0  0  0  0  0  0
    1.2032   22.8510  -26.3487 H   0  0  0  0  0  0  0  0  0  0  0  0
    0.4750   24.2260  -23.3670 H   0  0  0  0  0  0  0  0  0  0  0  0
  1  2  1  0
  2  3  1  0
  3  4  2  0
  4  5  1  0
  5  6  1  0
  6  7  1  0
  7  8  1  0
  8  9  1  0
  9 10  1  0
 10 11  1  0
 11 12  1  0
 12 13  1  0
 13 14  2  0
 14 15  1  0
 15 16  2  0
 16 17  1  0
 17 18  2  0
  9 19  1  0
 19 20  1  0
  4 21  1  0
 21 22  1  0
 21 23  1  0
 23  2  2  0
 20  6  1  0
 18 13  1  0
  1 24  1  0
  1 25  1  0
  1 26  1  0
  3 27  1  0
  5 28  1  0
  5 29  1  0
  7 30  1  0
  7 31  1  0
  8 32  1  0
  8 33  1  0
 10 34  1  0
 10 35  1  0
 11 36  1  0
 11 37  1  0
 14 38  1  0
 15 39  1  0
 16 40  1  0
 17 41  1  0
 18 42  1  0
 19 43  1  0
 19 44  1  0
 20 45  1  0
 20 46  1  0
 22 47  1  0
 22 48  1  0
 22 49  1  0
 23 50  1  0
M  CHG  1  23   1
M  END
>  <UniqueID>  (5) 
5

>  <SMILES>  (5) 
Cc1cc(CN2CCN(CCOc3ccccc3)CC2)n(C)[nH+]1

>  <Energy>  (5) 
94.2819486148479

>  <Genealogy>  (5) 
Cc1cc(CN2CCN(CCOc3ccccc3)CC2)n(C)[nH+]1 (protonated)
Cc1cc(CN2CCN(CCOc3ccccc3)CC2)n(C)[nH+]1 (3D coordinates assigned)
Cc1cc(CN2CCN(CCOc3ccccc3)CC2)n(C)[nH+]1 (nonaromatic ring conformer: 94.2819486148479 kcal/mol)

>  <smiles>  (5) 
Cc1cc(CN2CCN(CCOc3ccccc3)CC2)n(C)n1

>  <score_type>  (5) 
oracle

>  <origin>  (5) 
adg

>  <m_score__min__energy>  (5) 
-8.0700000000000003

>  <m_primary>  (5) 
energy

$$$$
5:0
     RDKit          3D

 58 62  0  0  0  0  0  0  0  0999 V2000
   -9.4080   20.0990  -32.3350 C   0  0  0  0  0  0  0  0  0  0  0  0
   -9.1640   18.5950  -32.2870 C   0  0  0  0  0  0  0  0  0  0  0  0
   -7.9020   18.3080  -31.6070 N   0  0  0  0  0  0  0  0  0  0  0  0
   -6.6760   19.0330  -31.8400 C   0  0  0  0  0  0  0  0  0  0  0  0
   -6.5100   20.3440  -31.3410 C   0  0  0  0  0  0  0  0  0  0  0  0
   -5.3690   21.0210  -31.6400 N   0  0  0  0  0  0  0  0  0  0  0  0
   -4.9570   22.2600  -31.2860 C   0  0  0  0  0  0  0  0  0  0  0  0
   -5.7350   23.1870  -30.3670 C   0  0  0  0  0  0  0  0  0  0  0  0
   -4.9290   23.4880  -29.0930 C   0  0  0  0  0  0  0  0  0  0  0  0
   -3.7640   24.4680  -29.3660 C   0  0  0  0  0  0  0  0  0  0  0  0
   -3.8630   25.1400  -30.6120 O   0  0  0  0  0  0  0  0  0  0  0  0
   -5.1680   25.6480  -30.7980 C   0  0  0  0  0  0  0  0  0  0  0  0
   -6.1710   24.5050  -31.0510 C   0  0  0  0  0  0  0  0  0  0  0  0
   -3.7230   22.5220  -31.7830 N   0  0  0  0  0  0  0  0  0  0  0  0
   -3.3680   21.4250  -32.4860 C   0  0  0  0  0  0  0  0  0  0  0  0
   -2.0550   21.2480  -33.1810 C   0  0  0  0  0  0  0  0  0  0  0  0
   -4.3860   20.5010  -32.3880 C   0  0  0  0  0  0  0  0  0  0  0  0
   -4.4750   19.2140  -32.9090 C   0  0  0  0  0  0  0  0  0  0  0  0
   -5.6340   18.4620  -32.6290 C   0  0  0  0  0  0  0  0  0  0  0  0
   -5.7100   17.0690  -33.1290 C   0  0  0  0  0  0  0  0  0  0  0  0
   -6.8170   16.6500  -33.8810 C   0  0  0  0  0  0  0  0  0  0  0  0
   -6.8880   15.3410  -34.3570 C   0  0  0  0  0  0  0  0  0  0  0  0
   -5.8550   14.4390  -34.0910 C   0  0  0  0  0  0  0  0  0  0  0  0
   -4.7310   14.8340  -33.3490 C   0  0  0  0  0  0  0  0  0  0  0  0
   -3.6510   13.7960  -33.0970 C   0  0  0  0  0  0  0  0  0  0  0  0
   -2.4130   14.2420  -32.3300 C   0  0  0  0  0  0  0  0  0  0  0  0
   -3.4440   13.3440  -31.6570 C   0  0  0  0  0  0  0  0  0  0  0  0
   -4.6650   16.1650  -32.8780 C   0  0  0  0  0  0  0  0  0  0  0  0
   -9.4719   20.4930  -31.3100 H   0  0  0  0  0  0  0  0  0  0  0  0
   -8.5775   20.5885  -32.8648 H   0  0  0  0  0  0  0  0  0  0  0  0
  -10.3506   20.3008  -32.8648 H   0  0  0  0  0  0  0  0  0  0  0  0
   -9.9881   18.1107  -31.7426 H   0  0  0  0  0  0  0  0  0  0  0  0
   -9.1131   18.2074  -33.3152 H   0  0  0  0  0  0  0  0  0  0  0  0
   -7.8960   17.5020  -30.9420 H   0  0  0  0  0  0  0  0  0  0  0  0
   -7.2904   20.8095  -30.7211 H   0  0  0  0  0  0  0  0  0  0  0  0
   -6.6583   22.6518  -30.1002 H   0  0  0  0  0  0  0  0  0  0  0  0
   -5.6005   23.9335  -28.3442 H   0  0  0  0  0  0  0  0  0  0  0  0
   -4.5010   22.5424  -28.7289 H   0  0  0  0  0  0  0  0  0  0  0  0
   -3.7497   25.2219  -28.5651 H   0  0  0  0  0  0  0  0  0  0  0  0
   -2.8414   23.8697  -29.3962 H   0  0  0  0  0  0  0  0  0  0  0  0
   -5.4714   26.2008  -29.8967 H   0  0  0  0  0  0  0  0  0  0  0  0
   -5.1650   26.3139  -31.6735 H   0  0  0  0  0  0  0  0  0  0  0  0
   -7.1539   24.8015  -30.6560 H   0  0  0  0  0  0  0  0  0  0  0  0
   -6.2146   24.3260  -32.1355 H   0  0  0  0  0  0  0  0  0  0  0  0
   -3.1450   23.3820  -31.6510 H   0  0  0  0  0  0  0  0  0  0  0  0
   -1.2558   21.1403  -32.4329 H   0  0  0  0  0  0  0  0  0  0  0  0
   -2.0919   20.3467  -33.8105 H   0  0  0  0  0  0  0  0  0  0  0  0
   -1.8519   22.1269  -33.8105 H   0  0  0  0  0  0  0  0  0  0  0  0
   -3.6636   18.7950  -33.5223 H   0  0  0  0  0  0  0  0  0  0  0  0
   -7.6323   17.3563  -34.0962 H   0  0  0  0  0  0  0  0  0  0  0  0
   -7.7604   15.0177  -34.9439 H   0  0  0  0  0  0  0  0  0  0  0  0
   -5.9233   13.4076  -34.4673 H   0  0  0  0  0  0  0  0  0  0  0  0
   -3.8287   13.2879  -34.0563 H   0  0  0  0  0  0  0  0  0  0  0  0
   -1.4250   13.8398  -32.5986 H   0  0  0  0  0  0  0  0  0  0  0  0
   -1.9532   15.2125  -32.0919 H   0  0  0  0  0  0  0  0  0  0  0  0
   -3.2003   12.2935  -31.4398 H   0  0  0  0  0  0  0  0  0  0  0  0
   -4.0368   13.3977  -30.7319 H   0  0  0  0  0  0  0  0  0  0  0  0
   -3.7846   16.4967  -32.3080 H   0  0  0  0  0  0  0  0  0  0  0  0
  1  2  1  0
  2  3  1  0
  3  4  1  0
  4  5  2  0
  5  6  1  0
  6  7  1  0
  7  8  1  0
  8  9  1  0
  9 10  1  0
 10 11  1  0
 11 12  1  0
 12 13  1  0
  7 14  2  0
 14 15  1  0
 15 16  1  0
 15 17  2  0
 17 18  1  0
 18 19  2  0
 19 20  1  0
 20 21  2  0
 21 22  1  0
 22 23  2  0
 23 24  1  0
 24 25  1  0
 25 26  1  0
 26 27  1  0
 24 28  2  0
 19  4  1  0
 28 20  1  0
 17  6  1  0
 27 25  1  0
 13  8  1  0
  1 29  1  0
  1 30  1  0
  1 31  1  0
  2 32  1  0
  2 33  1  0
  3 34  1  0
  5 35  1  0
  8 36  1  0
  9 37  1  0
  9 38  1  0
 10 39  1  0
 10 40  1  0
 12 41  1  0
 12 42  1  0
 13 43  1  0
 13 44  1  0
 14 45  1  0
 16 46  1  0
 16 47  1  0
 16 48  1  0
 18 49  1  0
 21 50  1  0
 22 51  1  0
 23 52  1  0
 25 53  1  0
 26 54  1  0
 26 55  1  0
 27 56  1  0
 27 57  1  0
 28 58  1  0
M  CHG  1  14   1
M  END
>  <UniqueID>  (6) 
6

>  <SMILES>  (6) 
CCNc1cn2c(C3CCOCC3)[nH+]c(C)c2cc1-c1cccc(C2CC2)c1

>  <Energy>  (6) 
377.3523394827878

>  <Genealogy>  (6) 
CCNc1cn2c(C3CCOCC3)[nH+]c(C)c2cc1-c1cccc(C2CC2)c1 (protonated)
CCNc1cn2c(C3CCOCC3)[nH+]c(C)c2cc1-c1cccc(C2CC2)c1 (3D coordinates assigned)
CCNc1cn2c(C3CCOCC3)[nH+]c(C)c2cc1-c1cccc(C2CC2)c1 (nonaromatic ring conformer: 377.3523394827878 kcal/mol)

>  <smiles>  (6) 
CCNc1cn2c(C3CCOCC3)nc(C)c2cc1-c1cccc(C2CC2)c1

>  <score_type>  (6) 
oracle

>  <origin>  (6) 
adg

>  <m_score__min__energy>  (6) 
-8.6699999999999999

>  <m_primary>  (6) 
energy

$$$$
6:0
     RDKit          3D

 81 83  0  0  0  0  0  0  0  0999 V2000
    0.2730   23.9540  -36.0960 C   0  0  0  0  0  0  0  0  0  0  0  0
    0.5880   22.6470  -35.4900 N   0  0  0  0  0  0  0  0  0  0  0  0
    2.0080   22.6230  -35.0760 C   0  0  0  0  0  0  0  0  0  0  0  0
    0.2950   21.5600  -36.4530 C   0  0  0  0  0  0  0  0  0  0  0  0
    0.5770   20.1630  -35.8770 C   0  0  0  0  0  0  0  0  0  0  0  0
   -0.0280   19.9390  -34.4750 C   0  0  0  0  0  0  0  0  0  0  0  0
   -1.2310   20.7490  -34.2560 N   0  0  0  0  0  0  0  0  0  0  0  0
   -2.4500   20.2200  -33.6810 C   0  0  0  0  0  0  0  0  0  0  0  0
   -2.9430   18.9900  -34.1280 C   0  0  0  0  0  0  0  0  0  0  0  0
   -4.2590   18.6140  -33.8830 C   0  0  0  0  0  0  0  0  0  0  0  0
   -5.1380   19.4400  -33.1470 C   0  0  0  0  0  0  0  0  0  0  0  0
   -4.6070   20.6240  -32.5550 C   0  0  0  0  0  0  0  0  0  0  0  0
   -3.2450   21.0020  -32.7960 C   0  0  0  0  0  0  0  0  0  0  0  0
   -2.7470   22.1950  -32.2220 O   0  0  0  0  0  0  0  0  0  0  0  0
   -1.7590   22.2940  -31.1860 C   0  0  0  0  0  0  0  0  0  0  0  0
   -1.3780   20.8690  -30.7080 C   0  0  0  0  0  0  0  0  0  0  0  0
   -1.2590   20.6730  -29.2280 N   0  0  0  0  0  0  0  0  0  0  0  0
   -0.5130   19.4250  -28.9290 C   0  0  0  0  0  0  0  0  0  0  0  0
   -2.5790   20.6360  -28.5510 C   0  0  0  0  0  0  0  0  0  0  0  0
   -0.4920   21.8190  -28.6690 C   0  0  0  0  0  0  0  0  0  0  0  0
   -5.4810   21.4210  -31.7750 C   0  0  0  0  0  0  0  0  0  0  0  0
   -4.9790   22.4160  -30.8680 N   0  0  0  0  0  0  0  0  0  0  0  0
   -5.3510   23.8280  -30.9700 C   0  0  0  0  0  0  0  0  0  0  0  0
   -4.5250   24.7140  -30.0210 C   0  0  0  0  0  0  0  0  0  0  0  0
   -3.5970   23.9250  -29.1770 N   0  0  0  0  0  0  0  0  0  0  0  0
   -2.3410   24.6500  -28.9330 C   0  0  0  0  0  0  0  0  0  0  0  0
   -4.2400   23.6070  -27.8830 C   0  0  0  0  0  0  0  0  0  0  0  0
   -6.8720   21.2130  -31.8610 C   0  0  0  0  0  0  0  0  0  0  0  0
   -7.7770   22.1410  -31.2940 C   0  0  0  0  0  0  0  0  0  0  0  0
   -9.1480   21.9570  -31.4220 C   0  0  0  0  0  0  0  0  0  0  0  0
   -9.6480   20.8580  -32.1120 C   0  0  0  0  0  0  0  0  0  0  0  0
   -8.7730   19.9240  -32.6660 C   0  0  0  0  0  0  0  0  0  0  0  0
   -7.3670   20.0670  -32.5320 C   0  0  0  0  0  0  0  0  0  0  0  0
   -6.4820   19.1240  -33.0250 N   0  0  0  0  0  0  0  0  0  0  0  0
   -6.9760   17.7950  -33.4540 C   0  0  0  0  0  0  0  0  0  0  0  0
    0.0948   24.6933  -35.3012 H   0  0  0  0  0  0  0  0  0  0  0  0
    1.1177   24.2823  -36.7194 H   0  0  0  0  0  0  0  0  0  0  0  0
   -0.6285   23.8614  -36.7194 H   0  0  0  0  0  0  0  0  0  0  0  0
    2.0698   22.6220  -33.9777 H   0  0  0  0  0  0  0  0  0  0  0  0
    2.4899   21.7166  -35.4712 H   0  0  0  0  0  0  0  0  0  0  0  0
    2.5202   23.5126  -35.4712 H   0  0  0  0  0  0  0  0  0  0  0  0
   -0.7669   21.6165  -36.7346 H   0  0  0  0  0  0  0  0  0  0  0  0
    0.9551   21.6999  -37.3218 H   0  0  0  0  0  0  0  0  0  0  0  0
    0.1548   19.4128  -36.5618 H   0  0  0  0  0  0  0  0  0  0  0  0
    1.6684   20.0701  -35.7759 H   0  0  0  0  0  0  0  0  0  0  0  0
   -0.2919   18.8764  -34.3685 H   0  0  0  0  0  0  0  0  0  0  0  0
    0.7232   20.2410  -33.7303 H   0  0  0  0  0  0  0  0  0  0  0  0
   -1.2450   21.7370  -34.5990 H   0  0  0  0  0  0  0  0  0  0  0  0
   -2.2795   18.3096  -34.6819 H   0  0  0  0  0  0  0  0  0  0  0  0
   -4.6241   17.6516  -34.2710 H   0  0  0  0  0  0  0  0  0  0  0  0
   -0.8653   22.8022  -31.5771 H   0  0  0  0  0  0  0  0  0  0  0  0
   -2.1646   22.8711  -30.3420 H   0  0  0  0  0  0  0  0  0  0  0  0
   -2.1479   20.1753  -31.0767 H   0  0  0  0  0  0  0  0  0  0  0  0
   -0.3703   20.6858  -31.1091 H   0  0  0  0  0  0  0  0  0  0  0  0
   -0.4359   19.2960  -27.8393 H   0  0  0  0  0  0  0  0  0  0  0  0
   -1.0461   18.5663  -29.3631 H   0  0  0  0  0  0  0  0  0  0  0  0
    0.4958   19.4879  -29.3631 H   0  0  0  0  0  0  0  0  0  0  0  0
   -2.4322   20.6401  -27.4608 H   0  0  0  0  0  0  0  0  0  0  0  0
   -3.1668   21.5180  -28.8452 H   0  0  0  0  0  0  0  0  0  0  0  0
   -3.1165   19.7224  -28.8452 H   0  0  0  0  0  0  0  0  0  0  0  0
   -0.5197   21.7776  -27.5701 H   0  0  0  0  0  0  0  0  0  0  0  0
    0.5518   21.7637  -29.0118 H   0  0  0  0  0  0  0  0  0  0  0  0
   -0.9410   22.7628  -29.0118 H   0  0  0  0  0  0  0  0  0  0  0  0
   -4.2670   22.1260  -30.1590 H   0  0  0  0  0  0  0  0  0  0  0  0
   -5.1851   24.1647  -32.0040 H   0  0  0  0  0  0  0  0  0  0  0  0
   -6.4094   23.9210  -30.6850 H   0  0  0  0  0  0  0  0  0  0  0  0
   -3.9386   25.4246  -30.6219 H   0  0  0  0  0  0  0  0  0  0  0  0
   -5.2264   25.2347  -29.3524 H   0  0  0  0  0  0  0  0  0  0  0  0
   -2.1769   24.7447  -27.8494 H   0  0  0  0  0  0  0  0  0  0  0  0
   -1.5043   24.0959  -29.3835 H   0  0  0  0  0  0  0  0  0  0  0  0
   -2.4023   25.6516  -29.3835 H   0  0  0  0  0  0  0  0  0  0  0  0
   -3.5863   23.9303  -27.0595 H   0  0  0  0  0  0  0  0  0  0  0  0
   -5.2040   24.1322  -27.8137 H   0  0  0  0  0  0  0  0  0  0  0  0
   -4.4077   22.5221  -27.8137 H   0  0  0  0  0  0  0  0  0  0  0  0
   -7.3921   23.0148  -30.7477 H   0  0  0  0  0  0  0  0  0  0  0  0
   -9.8417   22.6844  -30.9752 H   0  0  0  0  0  0  0  0  0  0  0  0
  -10.7345   20.7253  -32.2209 H   0  0  0  0  0  0  0  0  0  0  0  0
   -9.1790   19.0622  -33.2159 H   0  0  0  0  0  0  0  0  0  0  0  0
   -7.2029   17.1845  -32.5675 H   0  0  0  0  0  0  0  0  0  0  0  0
   -7.8878   17.9197  -34.0565 H   0  0  0  0  0  0  0  0  0  0  0  0
   -6.2041   17.2939  -34.0565 H   0  0  0  0  0  0  0  0  0  0  0  0
  1  2  1  0
  2  3  1  0
  2  4  1  0
  4  5  1  0
  5  6  1  0
  6  7  1  0
  7  8  1  0
  8  9  2  0
  9 10  1  0
 10 11  2  0
 11 12  1  0
 12 13  2  0
 13 14  1  0
 14 15  1  0
 15 16  1  0
 16 17  1  0
 17 18  1  0
 17 19  1  0
 17 20  1  0
 12 21  1  0
 21 22  1  0
 22 23  1  0
 23 24  1  0
 24 25  1  0
 25 26  1  0
 25 27  1  0
 21 28  2  0
 28 29  1  0
 29 30  2  0
 30 31  1  0
 31 32  2  0
 32 33  1  0
 33 34  2  0
 34 35  1  0
 13  8  1  0
 33 28  1  0
 34 11  1  0
  1 36  1  0
  1 37  1  0
  1 38  1  0
  3 39  1  0
  3 40  1  0
  3 41  1  0
  4 42  1  0
  4 43  1  0
  5 44  1  0
  5 45  1  0
  6 46  1  0
  6 47  1  0
  7 48  1  0
  9 49  1  0
 10 50  1  0
 15 51  1  0
 15 52  1  0
 16 53  1  0
 16 54  1  0
 18 55  1  0
 18 56  1  0
 18 57  1  0
 19 58  1  0
 19 59  1  0
 19 60  1  0
 20 61  1  0
 20 62  1  0
 20 63  1  0
 22 64  1  0
 23 65  1  0
 23 66  1  0
 24 67  1  0
 24 68  1  0
 26 69  1  0
 26 70  1  0
 26 71  1  0
 27 72  1  0
 27 73  1  0
 27 74  1  0
 29 75  1  0
 30 76  1  0
 31 77  1  0
 32 78  1  0
 35 79  1  0
 35 80  1  0
 35 81  1  0
M  CHG  2  17   1  34   1
M  END
>  <UniqueID>  (7) 
7

>  <SMILES>  (7) 
CN(C)CCCNc1ccc2c(c1OCC[N+](C)(C)C)c(NCCN(C)C)c1ccccc1[n+]2C

>  <Energy>  (7) 
125.42845522441748

>  <Genealogy>  (7) 
CN(C)CCCNc1ccc2c(c1OCC[N+](C)(C)C)c(NCCN(C)C)c1ccccc1[n+]2C (3D coordinates assigned)
CN(C)CCCNc1ccc2c(c1OCC[N+](C)(C)C)c(NCCN(C)C)c1ccccc1[n+]2C (optimized conformer: 125.42845522441748 kcal/mol)

>  <smiles>  (7) 
CN(C)CCCNc1ccc2c(c1OCC[N+](C)(C)C)c(NCCN(C)C)c1ccccc1[n+]2C

>  <score_type>  (7) 
oracle

>  <origin>  (7) 
adg

>  <m_score__min__energy>  (7) 
-7.8499999999999996

>  <m_primary>  (7) 
energy

$$$$
7:0
     RDKit          3D

 55 56  0  0  0  0  0  0  0  0999 V2000
   -2.9390   20.5650  -32.8800 C   0  0  0  0  0  0  0  0  0  0  0  0
   -3.8910   21.6440  -33.3860 C   0  0  0  0  0  0  0  0  0  0  0  0
   -4.2960   22.4840  -32.3220 O   0  0  0  0  0  0  0  0  0  0  0  0
   -3.4950   22.2830  -31.1720 C   0  0  0  0  0  0  0  0  0  0  0  0
   -3.4430   23.5470  -30.3100 C   0  0  0  0  0  0  0  0  0  0  0  0
   -4.2960   24.5420  -30.8490 O   0  0  0  0  0  0  0  0  0  0  0  0
   -5.2980   24.9270  -29.9250 C   0  0  0  0  0  0  0  0  0  0  0  0
   -6.6350   24.2370  -30.2380 C   0  0  0  0  0  0  0  0  0  0  0  0
   -6.5310   23.3820  -31.4330 N   0  0  0  0  0  0  0  0  0  0  0  0
   -7.8530   23.1220  -32.0500 C   0  0  0  0  0  0  0  0  0  0  0  0
   -8.1030   21.6240  -32.3210 C   0  0  2  0  0  0  0  0  0  0  0  0
   -9.2360   21.0560  -31.4390 C   0  0  0  0  0  0  0  0  0  0  0  0
   -9.1130   19.5330  -31.2780 C   0  0  0  0  0  0  0  0  0  0  0  0
   -8.3510   18.9170  -32.4530 C   0  0  0  0  0  0  0  0  0  0  0  0
   -6.9330   19.5840  -32.6080 C   0  0  0  0  0  0  0  0  0  0  0  0
   -5.8900   18.7710  -31.7950 C   0  0  0  0  0  0  0  0  0  0  0  0
   -5.6390   17.3450  -32.3310 C   0  0  0  0  0  0  0  0  0  0  0  0
   -5.8610   17.2100  -33.8470 C   0  0  0  0  0  0  0  0  0  0  0  0
   -5.5580   18.5190  -34.5710 C   0  0  0  0  0  0  0  0  0  0  0  0
   -6.4910   19.6560  -34.1090 C   0  0  0  0  0  0  0  0  0  0  0  0
   -6.9070   20.9080  -32.0660 O   0  0  0  0  0  0  0  0  0  0  0  0
   -2.9378   20.5636  -31.7800 H   0  0  0  0  0  0  0  0  0  0  0  0
   -3.2698   19.5824  -33.2475 H   0  0  0  0  0  0  0  0  0  0  0  0
   -1.9229   20.7708  -33.2475 H   0  0  0  0  0  0  0  0  0  0  0  0
   -3.3804   22.2482  -34.1504 H   0  0  0  0  0  0  0  0  0  0  0  0
   -4.7803   21.1611  -33.8172 H   0  0  0  0  0  0  0  0  0  0  0  0
   -3.9191   21.4600  -30.5780 H   0  0  0  0  0  0  0  0  0  0  0  0
   -2.4727   22.0384  -31.4962 H   0  0  0  0  0  0  0  0  0  0  0  0
   -3.7690   23.3036  -29.2880 H   0  0  0  0  0  0  0  0  0  0  0  0
   -2.4114   23.9286  -30.2941 H   0  0  0  0  0  0  0  0  0  0  0  0
   -4.9780   24.6465  -28.9106 H   0  0  0  0  0  0  0  0  0  0  0  0
   -5.4412   26.0152  -29.9987 H   0  0  0  0  0  0  0  0  0  0  0  0
   -6.9276   23.6165  -29.3782 H   0  0  0  0  0  0  0  0  0  0  0  0
   -7.3888   25.0141  -30.4325 H   0  0  0  0  0  0  0  0  0  0  0  0
   -6.1180   22.4630  -31.1440 H   0  0  0  0  0  0  0  0  0  0  0  0
   -5.8720   23.8190  -32.1200 H   0  0  0  0  0  0  0  0  0  0  0  0
   -8.6361   23.4918  -31.3717 H   0  0  0  0  0  0  0  0  0  0  0  0
   -7.8736   23.6415  -33.0194 H   0  0  0  0  0  0  0  0  0  0  0  0
   -8.4115   21.5131  -33.3710 H   0  0  0  0  0  0  0  0  0  0  0  0
   -9.1857   21.5259  -30.4457 H   0  0  0  0  0  0  0  0  0  0  0  0
  -10.1970   21.2754  -31.9271 H   0  0  0  0  0  0  0  0  0  0  0  0
   -8.5743   19.3123  -30.3446 H   0  0  0  0  0  0  0  0  0  0  0  0
  -10.1242   19.1008  -31.2509 H   0  0  0  0  0  0  0  0  0  0  0  0
   -8.2254   17.8386  -32.2763 H   0  0  0  0  0  0  0  0  0  0  0  0
   -8.9251   19.0883  -33.3755 H   0  0  0  0  0  0  0  0  0  0  0  0
   -4.9362   19.3187  -31.8129 H   0  0  0  0  0  0  0  0  0  0  0  0
   -6.2993   18.6588  -30.7801 H   0  0  0  0  0  0  0  0  0  0  0  0
   -4.5990   17.0666  -32.1055 H   0  0  0  0  0  0  0  0  0  0  0  0
   -6.3653   16.6822  -31.8380 H   0  0  0  0  0  0  0  0  0  0  0  0
   -5.1989   16.4231  -34.2374 H   0  0  0  0  0  0  0  0  0  0  0  0
   -6.9162   16.9530  -34.0217 H   0  0  0  0  0  0  0  0  0  0  0  0
   -4.5164   18.8070  -34.3656 H   0  0  0  0  0  0  0  0  0  0  0  0
   -5.7184   18.3602  -35.6476 H   0  0  0  0  0  0  0  0  0  0  0  0
   -5.9676   20.6109  -34.2647 H   0  0  0  0  0  0  0  0  0  0  0  0
   -7.4108   19.5586  -34.7043 H   0  0  0  0  0  0  0  0  0  0  0  0
  1  2  1  0
  2  3  1  0
  3  4  1  0
  4  5  1  0
  5  6  1  0
  6  7  1  0
  7  8  1  0
  8  9  1  0
  9 10  1  0
 10 11  1  0
 11 12  1  0
 12 13  1  0
 13 14  1  0
 14 15  1  0
 15 16  1  0
 16 17  1  0
 17 18  1  0
 18 19  1  0
 19 20  1  0
 15 21  1  0
 21 11  1  0
 20 15  1  0
  1 22  1  0
  1 23  1  0
  1 24  1  0
  2 25  1  0
  2 26  1  0
  4 27  1  0
  4 28  1  0
  5 29  1  0
  5 30  1  0
  7 31  1  0
  7 32  1  0
  8 33  1  0
  8 34  1  0
  9 35  1  0
  9 36  1  0
 10 37  1  0
 10 38  1  0
 11 39  1  6
 12 40  1  0
 12 41  1  0
 13 42  1  0
 13 43  1  0
 14 44  1  0
 14 45  1  0
 16 46  1  0
 16 47  1  0
 17 48  1  0
 17 49  1  0
 18 50  1  0
 18 51  1  0
 19 52  1  0
 19 53  1  0
 20 54  1  0
 20 55  1  0
M  CHG  1   9   1
M  END
>  <UniqueID>  (8) 
8

>  <SMILES>  (8) 
CCOCCOCC[NH2+]C[C@@H]1CCCC2(CCCCC2)O1

>  <Energy>  (8) 
67.16260087233061

>  <Genealogy>  (8) 
CCOCCOCC[NH2+]CC1CCCC2(CCCCC2)O1 (protonated)
CCOCCOCC[NH2+]C[C@@H]1CCCC2(CCCCC2)O1 (chirality)
CCOCCOCC[NH2+]C[C@@H]1CCCC2(CCCCC2)O1 (3D coordinates assigned)
CCOCCOCC[NH2+]C[C@@H]1CCCC2(CCCCC2)O1 (nonaromatic ring conformer: 67.16260087233061 kcal/mol)

>  <smiles>  (8) 
CCOCCOCCNCC1CCCC2(CCCCC2)O1

>  <score_type>  (8) 
oracle

>  <origin>  (8) 
adg

>  <m_score__min__energy>  (8) 
-7.6299999999999999

>  <m_primary>  (8) 
energy

$$$$
8:0
     RDKit          3D

 58 60  0  0  0  0  0  0  0  0999 V2000
   -3.2650   24.1710  -27.6300 C   0  0  0  0  0  0  0  0  0  0  0  0
   -2.4190   24.5030  -28.8510 C   0  0  0  0  0  0  0  0  0  0  0  0
   -3.2430   25.1000  -29.8460 O   0  0  0  0  0  0  0  0  0  0  0  0
   -4.5460   24.6810  -30.1650 C   0  0  0  0  0  0  0  0  0  0  0  0
   -5.6850   25.3970  -29.7400 C   0  0  0  0  0  0  0  0  0  0  0  0
   -6.9650   24.9470  -30.0680 C   0  0  0  0  0  0  0  0  0  0  0  0
   -7.1290   23.7820  -30.8200 C   0  0  0  0  0  0  0  0  0  0  0  0
   -6.0110   23.0630  -31.2470 C   0  0  0  0  0  0  0  0  0  0  0  0
   -4.7150   23.5030  -30.9250 C   0  0  0  0  0  0  0  0  0  0  0  0
   -3.5160   22.7120  -31.3930 C   0  0  0  0  0  0  0  0  0  0  0  0
   -3.9310   21.5780  -32.2430 N   0  0  0  0  0  0  0  0  0  0  0  0
   -3.9980   20.3330  -31.4460 C   0  0  0  0  0  0  0  0  0  0  0  0
   -3.8930   19.0940  -32.3420 C   0  0  0  0  0  0  0  0  0  0  0  0
   -2.5690   19.0280  -33.0130 N   0  0  0  0  0  0  0  0  0  0  0  0
   -2.6650   18.1710  -34.2190 C   0  0  0  0  0  0  0  0  0  0  0  0
   -3.2450   16.8100  -33.9020 C   0  0  0  0  0  0  0  0  0  0  0  0
   -2.9330   16.2530  -32.8600 O   0  0  0  0  0  0  0  0  0  0  0  0
   -4.2100   16.1350  -34.8400 C   0  0  0  0  0  0  0  0  0  0  0  0
   -5.5810   15.9550  -34.1730 C   0  0  0  0  0  0  0  0  0  0  0  0
   -6.1510   17.2860  -33.7620 C   0  0  0  0  0  0  0  0  0  0  0  0
   -6.8360   17.4180  -32.5410 C   0  0  0  0  0  0  0  0  0  0  0  0
   -7.3390   18.6620  -32.1480 C   0  0  0  0  0  0  0  0  0  0  0  0
   -7.1580   19.7810  -32.9670 C   0  0  0  0  0  0  0  0  0  0  0  0
   -6.4740   19.6590  -34.1810 C   0  0  0  0  0  0  0  0  0  0  0  0
   -5.9730   18.4160  -34.5790 C   0  0  0  0  0  0  0  0  0  0  0  0
   -2.0080   20.3730  -33.3270 C   0  0  0  0  0  0  0  0  0  0  0  0
   -3.0960   21.4520  -33.4660 C   0  0  0  0  0  0  0  0  0  0  0  0
   -2.6944   24.3949  -26.7166 H   0  0  0  0  0  0  0  0  0  0  0  0
   -4.1841   24.7751  -27.6455 H   0  0  0  0  0  0  0  0  0  0  0  0
   -3.5279   23.1030  -27.6455 H   0  0  0  0  0  0  0  0  0  0  0  0
   -1.6211   25.2043  -28.5655 H   0  0  0  0  0  0  0  0  0  0  0  0
   -1.9693   23.5815  -29.2493 H   0  0  0  0  0  0  0  0  0  0  0  0
   -5.5636   26.3153  -29.1467 H   0  0  0  0  0  0  0  0  0  0  0  0
   -7.8473   25.5120  -29.7330 H   0  0  0  0  0  0  0  0  0  0  0  0
   -8.1394   23.4306  -31.0761 H   0  0  0  0  0  0  0  0  0  0  0  0
   -6.1450   22.1459  -31.8395 H   0  0  0  0  0  0  0  0  0  0  0  0
   -2.8529   23.3719  -31.9717 H   0  0  0  0  0  0  0  0  0  0  0  0
   -2.9906   22.3161  -30.5114 H   0  0  0  0  0  0  0  0  0  0  0  0
   -3.1685   20.3245  -30.7236 H   0  0  0  0  0  0  0  0  0  0  0  0
   -4.9666   20.3048  -30.9254 H   0  0  0  0  0  0  0  0  0  0  0  0
   -4.0285   18.1929  -31.7259 H   0  0  0  0  0  0  0  0  0  0  0  0
   -4.6731   19.1556  -33.1151 H   0  0  0  0  0  0  0  0  0  0  0  0
   -1.9140   18.5620  -32.3390 H   0  0  0  0  0  0  0  0  0  0  0  0
   -3.3101   18.6687  -34.9580 H   0  0  0  0  0  0  0  0  0  0  0  0
   -1.6487   18.0240  -34.6133 H   0  0  0  0  0  0  0  0  0  0  0  0
   -4.3264   16.7518  -35.7433 H   0  0  0  0  0  0  0  0  0  0  0  0
   -3.8122   15.1436  -35.1026 H   0  0  0  0  0  0  0  0  0  0  0  0
   -6.2677   15.4719  -34.8836 H   0  0  0  0  0  0  0  0  0  0  0  0
   -5.4588   15.3302  -33.2760 H   0  0  0  0  0  0  0  0  0  0  0  0
   -6.9765   16.5401  -31.8933 H   0  0  0  0  0  0  0  0  0  0  0  0
   -7.8775   18.7606  -31.1939 H   0  0  0  0  0  0  0  0  0  0  0  0
   -7.5542   20.7589  -32.6560 H   0  0  0  0  0  0  0  0  0  0  0  0
   -6.3303   20.5410  -34.8225 H   0  0  0  0  0  0  0  0  0  0  0  0
   -5.4374   18.3218  -35.5352 H   0  0  0  0  0  0  0  0  0  0  0  0
   -1.3228   20.6662  -32.5180 H   0  0  0  0  0  0  0  0  0  0  0  0
   -1.4879   20.2989  -34.2934 H   0  0  0  0  0  0  0  0  0  0  0  0
   -2.6106   22.4192  -33.6631 H   0  0  0  0  0  0  0  0  0  0  0  0
   -3.7573   21.1557  -34.2936 H   0  0  0  0  0  0  0  0  0  0  0  0
  1  2  1  0
  2  3  1  0
  3  4  1  0
  4  5  2  0
  5  6  1  0
  6  7  2  0
  7  8  1  0
  8  9  2  0
  9 10  1  0
 10 11  1  0
 11 12  1  0
 12 13  1  0
 13 14  1  0
 14 15  1  0
 15 16  1  0
 16 17  2  0
 16 18  1  0
 18 19  1  0
 19 20  1  0
 20 21  2  0
 21 22  1  0
 22 23  2  0
 23 24  1  0
 24 25  2  0
 14 26  1  0
 26 27  1  0
  9  4  1  0
 27 11  1  0
 25 20  1  0
  1 28  1  0
  1 29  1  0
  1 30  1  0
  2 31  1  0
  2 32  1  0
  5 33  1  0
  6 34  1  0
  7 35  1  0
  8 36  1  0
 10 37  1  0
 10 38  1  0
 12 39  1  0
 12 40  1  0
 13 41  1  0
 13 42  1  0
 14 43  1  0
 15 44  1  0
 15 45  1  0
 18 46  1  0
 18 47  1  0
 19 48  1  0
 19 49  1  0
 21 50  1  0
 22 51  1  0
 23 52  1  0
 24 53  1  0
 25 54  1  0
 26 55  1  0
 26 56  1  0
 27 57  1  0
 27 58  1  0
M  CHG  1  14   1
M  END
>  <UniqueID>  (9) 
9

>  <SMILES>  (9) 
CCOc1ccccc1CN1CC[NH+](CC(=O)CCc2ccccc2)CC1

>  <Energy>  (9) 
63.77221006898746

>  <Genealogy>  (9) 
CCOc1ccccc1CN1CC[NH+](CC(=O)CCc2ccccc2)CC1 (protonated)
CCOc1ccccc1CN1CC[NH+](CC(=O)CCc2ccccc2)CC1 (3D coordinates assigned)
CCOc1ccccc1CN1CC[NH+](CC(=O)CCc2ccccc2)CC1 (nonaromatic ring conformer: 63.77221006898746 kcal/mol)

>  <smiles>  (9) 
CCOc1ccccc1CN1CCN(CC(=O)CCc2ccccc2)CC1

>  <score_type>  (9) 
oracle

>  <origin>  (9) 
adg

>  <m_score__min__energy>  (9) 
-8.1199999999999992

>  <m_primary>  (9) 
energy

$$$$
9:0
     RDKit          3D

 91 95  0  0  0  0  0  0  0  0999 V2000
   -1.7390   23.8400  -29.1560 C   0  0  0  0  0  0  0  0  0  0  0  0
   -3.0760   24.5940  -29.2050 C   0  0  0  0  0  0  0  0  0  0  0  0
   -3.8320   24.4110  -30.4690 N   0  0  0  0  0  0  0  0  0  0  0  0
   -4.9850   25.3360  -30.5660 C   0  0  0  0  0  0  0  0  0  0  0  0
   -6.1760   24.7750  -29.7940 C   0  0  0  0  0  0  0  0  0  0  0  0
   -4.2320   23.0100  -30.7400 C   0  0  0  0  0  0  0  0  0  0  0  0
   -3.5260   22.4480  -31.9810 C   0  0  0  0  0  0  0  0  0  0  0  0
   -4.4930   22.1650  -33.0420 N   0  0  0  0  0  0  0  0  0  0  0  0
   -5.4390   21.0870  -32.9390 C   0  0  0  0  0  0  0  0  0  0  0  0
   -6.7610   21.3360  -32.5330 C   0  0  0  0  0  0  0  0  0  0  0  0
   -7.2190   22.6550  -32.3300 C   0  0  0  0  0  0  0  0  0  0  0  0
   -8.5410   22.9020  -31.9690 C   0  0  0  0  0  0  0  0  0  0  0  0
   -9.4320   21.8460  -31.8280 C   0  0  0  0  0  0  0  0  0  0  0  0
   -9.0040   20.5340  -32.0300 C   0  0  0  0  0  0  0  0  0  0  0  0
   -7.6540   20.2450  -32.3610 C   0  0  0  0  0  0  0  0  0  0  0  0
   -7.2100   18.9490  -32.5400 N   0  0  0  0  0  0  0  0  0  0  0  0
   -8.0380   17.8120  -32.0810 C   0  0  0  0  0  0  0  0  0  0  0  0
   -5.9800   18.7150  -33.1310 C   0  0  0  0  0  0  0  0  0  0  0  0
   -5.6030   17.4260  -33.5870 C   0  0  0  0  0  0  0  0  0  0  0  0
   -4.3280   17.1930  -34.1300 C   0  0  0  0  0  0  0  0  0  0  0  0
   -3.9140   15.9310  -34.5760 O   0  0  0  0  0  0  0  0  0  0  0  0
   -3.0770   15.6920  -35.7070 C   0  0  0  0  0  0  0  0  0  0  0  0
   -1.6310   16.1290  -35.3780 C   0  0  0  0  0  0  0  0  0  0  0  0
   -0.9520   15.4090  -34.2460 N   0  0  1  0  0  0  0  0  0  0  0  0
   -1.0840   13.9410  -34.4430 C   0  0  0  0  0  0  0  0  0  0  0  0
    0.5120   15.7620  -34.2960 C   0  0  0  0  0  0  0  0  0  0  0  0
    1.1670   15.8220  -32.8990 C   0  0  0  0  0  0  0  0  0  0  0  0
    0.5410   16.8620  -32.0100 N   0  0  1  0  0  0  0  0  0  0  0  0
    0.6680   16.3910  -30.6060 C   0  0  0  0  0  0  0  0  0  0  0  0
    1.2870   18.1560  -32.1790 C   0  0  0  0  0  0  0  0  0  0  0  0
    0.6480   19.1500  -33.1490 C   0  0  0  0  0  0  0  0  0  0  0  0
    0.9360   19.0560  -34.5260 C   0  0  0  0  0  0  0  0  0  0  0  0
    0.3520   19.9360  -35.4400 C   0  0  0  0  0  0  0  0  0  0  0  0
   -0.5100   20.9350  -34.9950 C   0  0  0  0  0  0  0  0  0  0  0  0
   -0.7720   21.0750  -33.6320 C   0  0  0  0  0  0  0  0  0  0  0  0
   -0.1890   20.2030  -32.7030 C   0  0  0  0  0  0  0  0  0  0  0  0
   -0.5070   20.5030  -30.9970 Cl  0  0  0  0  0  0  0  0  0  0  0  0
   -0.9110   17.0460  -32.3390 C   0  0  0  0  0  0  0  0  0  0  0  0
   -1.5390   15.7650  -32.9120 C   0  0  0  0  0  0  0  0  0  0  0  0
   -3.4270   18.2470  -34.2410 C   0  0  0  0  0  0  0  0  0  0  0  0
   -3.7880   19.5290  -33.8440 C   0  0  0  0  0  0  0  0  0  0  0  0
   -5.0640   19.7850  -33.3060 C   0  0  0  0  0  0  0  0  0  0  0  0
   -1.4486   23.6762  -28.1077 H   0  0  0  0  0  0  0  0  0  0  0  0
   -1.8466   22.8695  -29.6626 H   0  0  0  0  0  0  0  0  0  0  0  0
   -0.9642   24.4342  -29.6626 H   0  0  0  0  0  0  0  0  0  0  0  0
   -3.7028   24.2390  -28.3737 H   0  0  0  0  0  0  0  0  0  0  0  0
   -2.8374   25.6653  -29.1318 H   0  0  0  0  0  0  0  0  0  0  0  0
   -4.7047   26.3119  -30.1430 H   0  0  0  0  0  0  0  0  0  0  0  0
   -5.2647   25.4519  -31.6235 H   0  0  0  0  0  0  0  0  0  0  0  0
   -5.9875   24.8638  -28.7139 H   0  0  0  0  0  0  0  0  0  0  0  0
   -7.0822   25.3410  -30.0558 H   0  0  0  0  0  0  0  0  0  0  0  0
   -6.3167   23.7159  -30.0558 H   0  0  0  0  0  0  0  0  0  0  0  0
   -3.9706   22.3900  -29.8698 H   0  0  0  0  0  0  0  0  0  0  0  0
   -5.3162   22.9927  -30.9251 H   0  0  0  0  0  0  0  0  0  0  0  0
   -2.7952   23.1849  -32.3455 H   0  0  0  0  0  0  0  0  0  0  0  0
   -3.0186   21.5116  -31.7058 H   0  0  0  0  0  0  0  0  0  0  0  0
   -4.4610   22.7240  -33.9240 H   0  0  0  0  0  0  0  0  0  0  0  0
   -6.5238   23.4978  -32.4584 H   0  0  0  0  0  0  0  0  0  0  0  0
   -8.8798   23.9340  -31.7954 H   0  0  0  0  0  0  0  0  0  0  0  0
  -10.4791   22.0451  -31.5560 H   0  0  0  0  0  0  0  0  0  0  0  0
   -9.7248   19.7090  -31.9311 H   0  0  0  0  0  0  0  0  0  0  0  0
   -8.0538   17.7903  -30.9813 H   0  0  0  0  0  0  0  0  0  0  0  0
   -9.0639   17.9289  -32.4602 H   0  0  0  0  0  0  0  0  0  0  0  0
   -7.6119   16.8715  -32.4602 H   0  0  0  0  0  0  0  0  0  0  0  0
   -6.3203   16.5952  -33.5144 H   0  0  0  0  0  0  0  0  0  0  0  0
   -3.0894   14.6198  -35.9525 H   0  0  0  0  0  0  0  0  0  0  0  0
   -3.4482   16.2688  -36.5669 H   0  0  0  0  0  0  0  0  0  0  0  0
   -1.0228   15.9784  -36.2821 H   0  0  0  0  0  0  0  0  0  0  0  0
   -1.7116   17.1757  -35.0496 H   0  0  0  0  0  0  0  0  0  0  0  0
   -1.1289   13.4422  -33.4636 H   0  0  0  0  0  0  0  0  0  0  0  0
   -2.0049   13.7279  -35.0056 H   0  0  0  0  0  0  0  0  0  0  0  0
   -0.2159   13.5670  -35.0056 H   0  0  0  0  0  0  0  0  0  0  0  0
    1.0352   15.0028  -34.8960 H   0  0  0  0  0  0  0  0  0  0  0  0
    0.5933   16.7649  -34.7405 H   0  0  0  0  0  0  0  0  0  0  0  0
    1.0619   14.8382  -32.4182 H   0  0  0  0  0  0  0  0  0  0  0  0
    2.2234   16.0952  -33.0381 H   0  0  0  0  0  0  0  0  0  0  0  0
    0.4443   17.2207  -29.9193 H   0  0  0  0  0  0  0  0  0  0  0  0
   -0.0403   15.5681  -30.4298 H   0  0  0  0  0  0  0  0  0  0  0  0
    1.6940   16.0357  -30.4298 H   0  0  0  0  0  0  0  0  0  0  0  0
    1.3587   18.6394  -31.1935 H   0  0  0  0  0  0  0  0  0  0  0  0
    2.2644   17.8926  -32.6094 H   0  0  0  0  0  0  0  0  0  0  0  0
    1.6288   18.2805  -34.8847 H   0  0  0  0  0  0  0  0  0  0  0  0
    0.5734   19.8397  -36.5132 H   0  0  0  0  0  0  0  0  0  0  0  0
   -0.9846   21.6141  -35.7186 H   0  0  0  0  0  0  0  0  0  0  0  0
   -1.4411   21.8757  -33.2840 H   0  0  0  0  0  0  0  0  0  0  0  0
   -1.4501   17.3262  -31.4220 H   0  0  0  0  0  0  0  0  0  0  0  0
   -0.9889   17.8335  -33.1031 H   0  0  0  0  0  0  0  0  0  0  0  0
   -1.3607   14.9361  -32.2112 H   0  0  0  0  0  0  0  0  0  0  0  0
   -2.6163   15.9416  -33.0471 H   0  0  0  0  0  0  0  0  0  0  0  0
   -2.4208   18.0643  -34.6462 H   0  0  0  0  0  0  0  0  0  0  0  0
   -3.0682   20.3538  -33.9513 H   0  0  0  0  0  0  0  0  0  0  0  0
  1  2  1  0
  2  3  1  0
  3  4  1  0
  4  5  1  0
  3  6  1  0
  6  7  1  0
  7  8  1  0
  8  9  1  0
  9 10  2  0
 10 11  1  0
 11 12  2  0
 12 13  1  0
 13 14  2  0
 14 15  1  0
 15 16  2  0
 16 17  1  0
 16 18  1  0
 18 19  2  0
 19 20  1  0
 20 21  1  0
 21 22  1  0
 22 23  1  0
 24 23  1  6
 24 25  1  0
 24 26  1  0
 26 27  1  0
 27 28  1  0
 28 29  1  1
 28 30  1  0
 30 31  1  0
 31 32  2  0
 32 33  1  0
 33 34  2  0
 34 35  1  0
 35 36  2  0
 36 37  1  0
 28 38  1  0
 38 39  1  0
 20 40  2  0
 40 41  1  0
 41 42  2  0
 42  9  1  0
 15 10  1  0
 42 18  1  0
 39 24  1  0
 36 31  1  0
  1 43  1  0
  1 44  1  0
  1 45  1  0
  2 46  1  0
  2 47  1  0
  4 48  1  0
  4 49  1  0
  5 50  1  0
  5 51  1  0
  5 52  1  0
  6 53  1  0
  6 54  1  0
  7 55  1  0
  7 56  1  0
  8 57  1  0
 11 58  1  0
 12 59  1  0
 13 60  1  0
 14 61  1  0
 17 62  1  0
 17 63  1  0
 17 64  1  0
 19 65  1  0
 22 66  1  0
 22 67  1  0
 23 68  1  0
 23 69  1  0
 25 70  1  0
 25 71  1  0
 25 72  1  0
 26 73  1  0
 26 74  1  0
 27 75  1  0
 27 76  1  0
 29 77  1  0
 29 78  1  0
 29 79  1  0
 30 80  1  0
 30 81  1  0
 32 82  1  0
 33 83  1  0
 34 84  1  0
 35 85  1  0
 38 86  1  0
 38 87  1  0
 39 88  1  0
 39 89  1  0
 40 90  1  0
 41 91  1  0
M  CHG  3  16   1  24   1  28   1
M  END
>  <UniqueID>  (10) 
10

>  <SMILES>  (10) 
CCN(CC)CCNc1c2ccccc2[n+](C)c2cc(OCC[N+]3(C)CC[N+](C)(Cc4ccccc4Cl)CC3)ccc12

>  <Energy>  (10) 
155.38204973898587

>  <Genealogy>  (10) 
CCN(CC)CCNc1c2ccccc2[n+](C)c2cc(OCC[N+]3(C)CC[N+](C)(Cc4ccccc4Cl)CC3)ccc12 (3D coordinates assigned)
CCN(CC)CCNc1c2ccccc2[n+](C)c2cc(OCC[N+]3(C)CC[N+](C)(Cc4ccccc4Cl)CC3)ccc12 (nonaromatic ring conformer: 155.38204973898587 kcal/mol)

>  <smiles>  (10) 
CCN(CC)CCNc1c2ccccc2[n+](C)c2cc(OCC[N+]3(C)CC[N+](C)(Cc4ccccc4Cl)CC3)ccc12

>  <score_type>  (10) 
oracle

>  <origin>  (10) 
adg

>  <m_score__min__energy>  (10) 
-9.3699999999999992

>  <m_primary>  (10) 
energy

$$$$
10:0
     RDKit          3D

 71 74  0  0  0  0  0  0  0  0999 V2000
   -9.2210   20.9220  -32.3160 C   0  0  0  0  0  0  0  0  0  0  0  0
   -8.5940   22.0990  -31.6880 N   0  0  0  0  0  0  0  0  0  0  0  0
   -8.2150   21.7920  -30.2880 C   0  0  0  0  0  0  0  0  0  0  0  0
   -7.2090   22.8130  -29.7130 C   0  0  0  0  0  0  0  0  0  0  0  0
   -7.2510   24.0720  -30.4840 N   0  0  0  0  0  0  0  0  0  0  0  0
   -6.3970   25.1100  -29.8620 C   0  0  0  0  0  0  0  0  0  0  0  0
   -5.2620   25.5490  -30.7940 C   0  0  0  0  0  0  0  0  0  0  0  0
   -4.1850   24.5400  -30.7980 N   0  0  0  0  0  0  0  0  0  0  0  0
   -3.6760   24.1340  -29.4650 C   0  0  0  0  0  0  0  0  0  0  0  0
   -4.0770   22.6910  -29.0640 C   0  0  0  0  0  0  0  0  0  0  0  0
   -3.1630   22.1910  -27.9370 C   0  0  0  0  0  0  0  0  0  0  0  0
   -1.7390   22.0860  -28.3590 N   0  0  0  0  0  0  0  0  0  0  0  0
   -1.4090   20.7400  -28.8800 C   0  0  0  0  0  0  0  0  0  0  0  0
   -1.2220   20.7620  -30.3760 C   0  0  0  0  0  0  0  0  0  0  0  0
    0.0570   20.5940  -30.9270 C   0  0  0  0  0  0  0  0  0  0  0  0
    0.2370   20.6470  -32.3110 C   0  0  0  0  0  0  0  0  0  0  0  0
   -0.8560   20.8510  -33.1560 C   0  0  0  0  0  0  0  0  0  0  0  0
   -2.1470   21.0020  -32.6260 C   0  0  0  0  0  0  0  0  0  0  0  0
   -3.2570   21.1960  -33.5240 N   0  0  0  0  0  0  0  0  0  0  0  0
   -4.6520   21.3470  -33.1010 C   0  0  0  0  0  0  0  0  0  0  0  0
   -5.3240   20.0030  -32.9770 C   0  0  0  0  0  0  0  0  0  0  0  0
   -5.4780   19.1840  -34.1080 C   0  0  0  0  0  0  0  0  0  0  0  0
   -6.0900   17.9330  -33.9940 C   0  0  0  0  0  0  0  0  0  0  0  0
   -6.5470   17.4860  -32.7490 C   0  0  0  0  0  0  0  0  0  0  0  0
   -6.3790   18.2850  -31.6160 C   0  0  0  0  0  0  0  0  0  0  0  0
   -5.7690   19.5390  -31.7260 C   0  0  0  0  0  0  0  0  0  0  0  0
   -2.3210   20.9590  -31.2290 C   0  0  0  0  0  0  0  0  0  0  0  0
   -1.3000   23.1340  -29.3220 C   0  0  0  0  0  0  0  0  0  0  0  0
   -2.1590   24.4130  -29.2890 C   0  0  0  0  0  0  0  0  0  0  0  0
   -6.8100   23.8280  -31.8790 C   0  0  0  0  0  0  0  0  0  0  0  0
   -7.4210   22.5370  -32.4700 C   0  0  0  0  0  0  0  0  0  0  0  0
   -9.5847   20.2393  -31.5340 H   0  0  0  0  0  0  0  0  0  0  0  0
  -10.0658   21.2465  -32.9413 H   0  0  0  0  0  0  0  0  0  0  0  0
   -8.4804   20.4019  -32.9413 H   0  0  0  0  0  0  0  0  0  0  0  0
   -9.3060   22.8690  -31.6870 H   0  0  0  0  0  0  0  0  0  0  0  0
   -9.1223   21.8015  -29.6662 H   0  0  0  0  0  0  0  0  0  0  0  0
   -7.7315   20.8040  -30.2804 H   0  0  0  0  0  0  0  0  0  0  0  0
   -7.4655   23.0223  -28.6640 H   0  0  0  0  0  0  0  0  0  0  0  0
   -6.1959   22.3895  -29.7788 H   0  0  0  0  0  0  0  0  0  0  0  0
   -7.0186   25.9851  -29.6217 H   0  0  0  0  0  0  0  0  0  0  0  0
   -5.9469   24.6825  -28.9539 H   0  0  0  0  0  0  0  0  0  0  0  0
   -5.6548   25.6649  -31.8149 H   0  0  0  0  0  0  0  0  0  0  0  0
   -4.8548   26.5063  -30.4366 H   0  0  0  0  0  0  0  0  0  0  0  0
   -3.3820   24.9160  -31.3580 H   0  0  0  0  0  0  0  0  0  0  0  0
   -4.1898   24.7872  -28.7444 H   0  0  0  0  0  0  0  0  0  0  0  0
   -5.1209   22.6852  -28.7172 H   0  0  0  0  0  0  0  0  0  0  0  0
   -3.9724   22.0295  -29.9366 H   0  0  0  0  0  0  0  0  0  0  0  0
   -3.2293   22.8924  -27.0922 H   0  0  0  0  0  0  0  0  0  0  0  0
   -3.5022   21.1833  -27.6551 H   0  0  0  0  0  0  0  0  0  0  0  0
   -0.4788   20.3912  -28.4078 H   0  0  0  0  0  0  0  0  0  0  0  0
   -2.2430   20.0626  -28.6444 H   0  0  0  0  0  0  0  0  0  0  0  0
    0.9201   20.4201  -30.2676 H   0  0  0  0  0  0  0  0  0  0  0  0
    1.2440   20.5275  -32.7373 H   0  0  0  0  0  0  0  0  0  0  0  0
   -0.7042   20.8937  -34.2446 H   0  0  0  0  0  0  0  0  0  0  0  0
   -3.0700   21.1870  -34.5540 H   0  0  0  0  0  0  0  0  0  0  0  0
   -4.6798   21.8551  -32.1258 H   0  0  0  0  0  0  0  0  0  0  0  0
   -5.1870   21.9395  -33.8578 H   0  0  0  0  0  0  0  0  0  0  0  0
   -5.1153   19.5290  -35.0875 H   0  0  0  0  0  0  0  0  0  0  0  0
   -6.2128   17.2986  -34.8842 H   0  0  0  0  0  0  0  0  0  0  0  0
   -7.0384   16.5056  -32.6629 H   0  0  0  0  0  0  0  0  0  0  0  0
   -6.7269   17.9277  -30.6355 H   0  0  0  0  0  0  0  0  0  0  0  0
   -5.6368   20.1645  -30.8309 H   0  0  0  0  0  0  0  0  0  0  0  0
   -3.3272   21.0808  -30.8015 H   0  0  0  0  0  0  0  0  0  0  0  0
   -0.2614   23.4084  -29.0853 H   0  0  0  0  0  0  0  0  0  0  0  0
   -1.4050   22.7053  -30.3296 H   0  0  0  0  0  0  0  0  0  0  0  0
   -2.0052   24.9129  -28.3213 H   0  0  0  0  0  0  0  0  0  0  0  0
   -1.8417   25.0424  -30.1335 H   0  0  0  0  0  0  0  0  0  0  0  0
   -7.1166   24.6816  -32.5014 H   0  0  0  0  0  0  0  0  0  0  0  0
   -5.7164   23.7095  -31.8704 H   0  0  0  0  0  0  0  0  0  0  0  0
   -7.7320   22.7288  -33.5076 H   0  0  0  0  0  0  0  0  0  0  0  0
   -6.6610   21.7426  -32.4353 H   0  0  0  0  0  0  0  0  0  0  0  0
  1  2  1  0
  2  3  1  0
  3  4  1  0
  4  5  1  0
  5  6  1  0
  6  7  1  0
  7  8  1  0
  8  9  1  0
  9 10  1  0
 10 11  1  0
 11 12  1  0
 12 13  1  0
 13 14  1  0
 14 15  2  0
 15 16  1  0
 16 17  2  0
 17 18  1  0
 18 19  1  0
 19 20  1  0
 20 21  1  0
 21 22  2  0
 22 23  1  0
 23 24  2  0
 24 25  1  0
 25 26  2  0
 18 27  2  0
 12 28  1  0
 28 29  1  0
  5 30  1  0
 30 31  1  0
 31  2  1  0
 29  9  1  0
 27 14  1  0
 26 21  1  0
  1 32  1  0
  1 33  1  0
  1 34  1  0
  2 35  1  0
  3 36  1  0
  3 37  1  0
  4 38  1  0
  4 39  1  0
  6 40  1  0
  6 41  1  0
  7 42  1  0
  7 43  1  0
  8 44  1  0
  9 45  1  0
 10 46  1  0
 10 47  1  0
 11 48  1  0
 11 49  1  0
 13 50  1  0
 13 51  1  0
 15 52  1  0
 16 53  1  0
 17 54  1  0
 19 55  1  0
 20 56  1  0
 20 57  1  0
 22 58  1  0
 23 59  1  0
 24 60  1  0
 25 61  1  0
 26 62  1  0
 27 63  1  0
 28 64  1  0
 28 65  1  0
 29 66  1  0
 29 67  1  0
 30 68  1  0
 30 69  1  0
 31 70  1  0
 31 71  1  0
M  CHG  1   2   1
M  END
>  <UniqueID>  (11) 
11

>  <SMILES>  (11) 
C[NH+]1CCN(CCNC2CCN(Cc3cccc(NCc4ccccc4)c3)CC2)CC1

>  <Energy>  (11) 
93.66022023505823

>  <Genealogy>  (11) 
C[NH+]1CCN(CCNC2CCN(Cc3cccc(NCc4ccccc4)c3)CC2)CC1 (protonated)
C[NH+]1CCN(CCNC2CCN(Cc3cccc(NCc4ccccc4)c3)CC2)CC1 (3D coordinates assigned)
C[NH+]1CCN(CCNC2CCN(Cc3cccc(NCc4ccccc4)c3)CC2)CC1 (nonaromatic ring conformer: 93.66022023505823 kcal/mol)

>  <smiles>  (11) 
CN1CCN(CCNC2CCN(Cc3cccc(NCc4ccccc4)c3)CC2)CC1

>  <score_type>  (11) 
oracle

>  <origin>  (11) 
adg

>  <m_score__min__energy>  (11) 
-9.9499999999999993

>  <m_primary>  (11) 
energy

$$$$
11:0
     RDKit          3D

 67 69  0  0  1  0  0  0  0  0999 V2000
   -3.9570   19.8220  -31.9500 C   0  0  0  0  0  0  0  0  0  0  0  0
   -4.0090   19.7310  -33.4640 C   0  0  0  0  0  0  0  0  0  0  0  0
   -3.6190   18.4150  -33.8590 N   0  0  0  0  0  0  0  0  0  0  0  0
   -2.2410   18.2610  -34.2160 C   0  0  0  0  0  0  0  0  0  0  0  0
   -1.4210   17.6040  -33.1220 C   0  0  0  0  0  0  0  0  0  0  0  0
   -4.5240   17.6930  -34.6860 C   0  0  0  0  0  0  0  0  0  0  0  0
   -5.9030   18.2960  -34.6050 C   0  0  0  0  0  0  0  0  0  0  0  0
   -6.8640   17.4530  -34.0990 O   0  0  0  0  0  0  0  0  0  0  0  0
   -6.6750   17.0960  -32.7750 C   0  0  0  0  0  0  0  0  0  0  0  0
   -6.8120   18.2690  -31.8180 C   0  0  0  0  0  0  0  0  0  0  0  0
   -8.1500   18.5180  -31.5950 O   0  0  0  0  0  0  0  0  0  0  0  0
   -8.6410   19.1620  -32.7110 N   0  0  0  0  0  0  0  0  0  0  0  0
   -9.1090   20.4420  -32.2120 C   0  0  0  0  0  0  0  0  0  0  0  0
   -8.0270   21.4010  -31.9740 C   0  0  0  0  0  0  0  0  0  0  0  0
   -8.2260   22.3300  -30.9450 C   0  0  0  0  0  0  0  0  0  0  0  0
   -7.2240   23.2460  -30.7100 C   0  0  0  0  0  0  0  0  0  0  0  0
   -6.0630   23.2570  -31.4590 C   0  0  0  0  0  0  0  0  0  0  0  0
   -1.1990   21.4970  -30.6300 N   0  0  0  0  0  0  0  0  0  0  0  0
   -0.8930   21.3320  -31.8890 C   0  0  0  0  0  0  0  0  0  0  0  0
   -3.1550   22.8880  -30.9230 N   0  0  0  0  0  0  0  0  0  0  0  0
   -2.0490   22.5870  -30.2290 C   0  0  0  0  0  0  0  0  0  0  0  0
   -5.0300   24.2160  -31.2080 N   0  0  0  0  0  0  0  0  0  0  0  0
   -3.9620   23.9160  -30.5520 C   0  0  0  0  0  0  0  0  0  0  0  0
    0.2630   20.7960  -32.4190 C   0  0  0  0  0  0  0  0  0  0  0  0
    0.0820   20.8500  -33.7920 C   0  0  0  0  0  0  0  0  0  0  0  0
    1.0600   20.3800  -34.8370 C   0  0  0  0  0  0  0  0  0  0  0  0
   -1.1330   21.3970  -34.0690 N   0  0  0  0  0  0  0  0  0  0  0  0
   -1.7080   21.6820  -32.9030 N   0  0  0  0  0  0  0  0  0  0  0  0
   -1.7360   23.3470  -29.1200 C   0  0  0  0  0  0  0  0  0  0  0  0
   -0.1830   22.9530  -28.1140 Br  0  0  0  0  0  0  0  0  0  0  0  0
   -2.5660   24.4020  -28.7420 C   0  0  0  0  0  0  0  0  0  0  0  0
   -3.6790   24.6710  -29.4770 N   0  0  0  0  0  0  0  0  0  0  0  0
   -5.8550   22.3410  -32.4810 C   0  0  0  0  0  0  0  0  0  0  0  0
   -6.8640   21.4130  -32.7230 C   0  0  0  0  0  0  0  0  0  0  0  0
   -4.4577   18.9457  -31.5126 H   0  0  0  0  0  0  0  0  0  0  0  0
   -2.9080   19.8475  -31.6200 H   0  0  0  0  0  0  0  0  0  0  0  0
   -4.4676   20.7387  -31.6200 H   0  0  0  0  0  0  0  0  0  0  0  0
   -5.0328   19.9333  -33.8117 H   0  0  0  0  0  0  0  0  0  0  0  0
   -3.3272   20.4719  -33.9069 H   0  0  0  0  0  0  0  0  0  0  0  0
   -2.1798   17.6403  -35.1221 H   0  0  0  0  0  0  0  0  0  0  0  0
   -1.8272   19.2666  -34.3819 H   0  0  0  0  0  0  0  0  0  0  0  0
   -1.8065   17.9129  -32.1392 H   0  0  0  0  0  0  0  0  0  0  0  0
   -1.4925   16.5104  -33.2167 H   0  0  0  0  0  0  0  0  0  0  0  0
   -0.3693   17.9123  -33.2167 H   0  0  0  0  0  0  0  0  0  0  0  0
   -4.1723   17.7306  -35.7276 H   0  0  0  0  0  0  0  0  0  0  0  0
   -4.5693   16.6497  -34.3404 H   0  0  0  0  0  0  0  0  0  0  0  0
   -5.8519   19.1856  -33.9600 H   0  0  0  0  0  0  0  0  0  0  0  0
   -6.2036   18.5303  -35.6369 H   0  0  0  0  0  0  0  0  0  0  0  0
   -7.4232   16.3356  -32.5068 H   0  0  0  0  0  0  0  0  0  0  0  0
   -5.6482   16.7129  -32.6810 H   0  0  0  0  0  0  0  0  0  0  0  0
   -6.3191   18.0260  -30.8651 H   0  0  0  0  0  0  0  0  0  0  0  0
   -6.3379   19.1601  -32.2552 H   0  0  0  0  0  0  0  0  0  0  0  0
   -7.8580   19.2400  -33.3770 H   0  0  0  0  0  0  0  0  0  0  0  0
   -9.8014   20.8727  -32.9503 H   0  0  0  0  0  0  0  0  0  0  0  0
   -9.5985   20.2558  -31.2447 H   0  0  0  0  0  0  0  0  0  0  0  0
   -9.1487   22.3284  -30.3462 H   0  0  0  0  0  0  0  0  0  0  0  0
   -7.3514   23.9865  -29.9066 H   0  0  0  0  0  0  0  0  0  0  0  0
    1.1361   20.4106  -31.8720 H   0  0  0  0  0  0  0  0  0  0  0  0
    1.9465   19.9540  -34.3444 H   0  0  0  0  0  0  0  0  0  0  0  0
    0.5848   19.6119  -35.4649 H   0  0  0  0  0  0  0  0  0  0  0  0
    1.3629   21.2309  -35.4649 H   0  0  0  0  0  0  0  0  0  0  0  0
   -1.5830   21.5810  -34.9800 H   0  0  0  0  0  0  0  0  0  0  0  0
   -2.6660   22.1200  -32.7930 H   0  0  0  0  0  0  0  0  0  0  0  0
   -2.3233   25.0106  -27.8584 H   0  0  0  0  0  0  0  0  0  0  0  0
   -4.2930   25.4690  -29.1800 H   0  0  0  0  0  0  0  0  0  0  0  0
   -4.9298   22.3481  -33.0759 H   0  0  0  0  0  0  0  0  0  0  0  0
   -6.7338   20.6735  -33.5269 H   0  0  0  0  0  0  0  0  0  0  0  0
  1  2  1  0
  2  3  1  0
  3  4  1  0
  4  5  1  0
  3  6  1  0
  6  7  1  0
  7  8  1  0
  8  9  1  0
  9 10  1  0
 10 11  1  0
 11 12  1  0
 12 13  1  0
 13 14  1  0
 14 15  2  0
 15 16  1  0
 16 17  2  0
 17 18  1  0
 18 19  2  0
 19 20  1  0
 20 21  2  0
 21 22  1  0
 22 23  2  0
 23 24  1  0
 24 25  2  0
 25 26  1  0
 25 27  1  0
 27 28  1  0
 21 29  1  0
 29 30  1  0
 29 31  2  0
 31 32  1  0
 17 33  1  0
 33 34  2  0
 34 14  1  0
 32 19  1  0
 28 23  1  0
  1 35  1  0
  1 36  1  0
  1 37  1  0
  2 38  1  0
  2 39  1  0
  4 40  1  0
  4 41  1  0
  5 42  1  0
  5 43  1  0
  5 44  1  0
  6 45  1  0
  6 46  1  0
  7 47  1  0
  7 48  1  0
  9 49  1  0
  9 50  1  0
 10 51  1  0
 10 52  1  0
 12 53  1  0
 13 54  1  0
 13 55  1  0
 15 56  1  0
 16 57  1  0
 24 58  1  0
 26 59  1  0
 26 60  1  0
 26 61  1  0
 27 62  1  0
 28 63  1  0
 31 64  1  0
 32 65  1  0
 33 66  1  0
 34 67  1  0
M  END
>  <smiles>  (12) 
CCN(CC)CCOCCONCc1ccc(N=c2nc(N=c3cc(C)[nH][nH]3)c(Br)c[nH]2)cc1

>  <score_type>  (12) 
oracle

>  <origin>  (12) 
adg

>  <m_score__min__energy>  (12) 
-10.34

>  <m_primary>  (12) 
energy

$$$$
12:0
     RDKit          3D

 46 49  0  0  0  0  0  0  0  0999 V2000
    4.2320   24.6310  -27.6390 C   0  0  0  0  0  0  0  0  0  0  0  0
    2.9960   25.4040  -28.1050 C   0  0  0  0  0  0  0  0  0  0  0  0
    1.7510   24.6090  -28.0560 N   0  0  0  0  0  0  0  0  0  0  0  0
    0.9700   24.6070  -26.7780 C   0  0  2  0  0  0  0  0  0  0  0  0
    1.1320   25.8960  -25.9820 C   0  0  0  0  0  0  0  0  0  0  0  0
   -0.0080   26.1980  -25.3470 C   0  0  0  0  0  0  0  0  0  0  0  0
   -1.0530   25.1380  -25.6220 C   0  0  2  0  0  0  0  0  0  0  0  0
   -2.4880   25.6960  -25.5860 C   0  0  0  0  0  0  0  0  0  0  0  0
   -0.8520   24.0840  -24.5050 C   0  0  0  0  0  0  0  0  0  0  0  0
    0.5860   23.4920  -24.4560 C   0  0  0  0  0  0  0  0  0  0  0  0
    1.3120   23.4150  -25.8320 C   0  0  0  0  0  0  0  0  0  0  0  0
   -0.5830   24.6450  -27.0360 C   0  0  1  0  0  0  0  0  0  0  0  0
   -0.8720   25.7390  -28.0880 C   0  0  0  0  0  0  0  0  0  0  0  0
   -0.6390   26.9700  -27.9370 O   0  0  0  0  0  0  0  0  0  0  0  0
   -1.3810   25.2580  -29.3050 N   0  0  0  0  0  0  0  0  0  0  0  0
   -1.5600   23.8810  -29.0930 C   0  0  0  0  0  0  0  0  0  0  0  0
   -2.0350   23.0530  -30.1030 C   0  0  0  0  0  0  0  0  0  0  0  0
   -2.2230   21.7080  -29.8400 C   0  0  0  0  0  0  0  0  0  0  0  0
   -1.9830   21.2120  -28.5630 C   0  0  0  0  0  0  0  0  0  0  0  0
   -1.5100   22.0390  -27.5140 C   0  0  0  0  0  0  0  0  0  0  0  0
   -1.5490   21.3800  -26.1630 C   0  0  0  0  0  0  0  0  0  0  0  0
   -1.2380   23.4300  -27.7990 C   0  0  0  0  0  0  0  0  0  0  0  0
    4.2604   24.6132  -26.5395 H   0  0  0  0  0  0  0  0  0  0  0  0
    4.1857   23.6006  -28.0213 H   0  0  0  0  0  0  0  0  0  0  0  0
    5.1382   25.1236  -28.0213 H   0  0  0  0  0  0  0  0  0  0  0  0
    2.8722   26.2853  -27.4585 H   0  0  0  0  0  0  0  0  0  0  0  0
    3.1635   25.6788  -29.1569 H   0  0  0  0  0  0  0  0  0  0  0  0
    2.0350   23.6230  -28.2650 H   0  0  0  0  0  0  0  0  0  0  0  0
    1.1420   24.9200  -28.8490 H   0  0  0  0  0  0  0  0  0  0  0  0
    2.0542   26.4937  -25.9354 H   0  0  0  0  0  0  0  0  0  0  0  0
   -0.1623   27.0867  -24.7175 H   0  0  0  0  0  0  0  0  0  0  0  0
   -2.8070   25.8201  -24.5406 H   0  0  0  0  0  0  0  0  0  0  0  0
   -2.5154   26.6703  -26.0958 H   0  0  0  0  0  0  0  0  0  0  0  0
   -3.1664   24.9962  -26.0958 H   0  0  0  0  0  0  0  0  0  0  0  0
   -1.0651   24.5595  -23.5363 H   0  0  0  0  0  0  0  0  0  0  0  0
   -1.5359   23.2503  -24.7224 H   0  0  0  0  0  0  0  0  0  0  0  0
    1.1911   24.1198  -23.7853 H   0  0  0  0  0  0  0  0  0  0  0  0
    0.4803   22.4549  -24.1050 H   0  0  0  0  0  0  0  0  0  0  0  0
    2.3975   23.4108  -25.6542 H   0  0  0  0  0  0  0  0  0  0  0  0
    0.9698   22.4957  -26.3298 H   0  0  0  0  0  0  0  0  0  0  0  0
   -2.2587   23.4621  -31.0993 H   0  0  0  0  0  0  0  0  0  0  0  0
   -2.5616   21.0322  -30.6391 H   0  0  0  0  0  0  0  0  0  0  0  0
   -2.1658   20.1462  -28.3613 H   0  0  0  0  0  0  0  0  0  0  0  0
   -1.5035   22.1495  -25.3782 H   0  0  0  0  0  0  0  0  0  0  0  0
   -2.4826   20.8073  -26.0612 H   0  0  0  0  0  0  0  0  0  0  0  0
   -0.6895   20.7012  -26.0612 H   0  0  0  0  0  0  0  0  0  0  0  0
  1  2  1  0
  2  3  1  0
  4  3  1  6
  4  5  1  0
  5  6  2  0
  6  7  1  0
  7  8  1  6
  7  9  1  0
  9 10  1  0
 10 11  1  0
  7 12  1  0
 12 13  1  6
 13 14  2  0
 13 15  1  0
 15 16  1  0
 16 17  2  0
 17 18  1  0
 18 19  2  0
 19 20  1  0
 20 21  1  0
 20 22  2  0
 11  4  1  0
 22 12  1  0
 12  4  1  0
 22 16  1  0
  1 23  1  0
  1 24  1  0
  1 25  1  0
  2 26  1  0
  2 27  1  0
  3 28  1  0
  3 29  1  0
  5 30  1  0
  6 31  1  0
  8 32  1  0
  8 33  1  0
  8 34  1  0
  9 35  1  0
  9 36  1  0
 10 37  1  0
 10 38  1  0
 11 39  1  0
 11 40  1  0
 17 41  1  0
 18 42  1  0
 19 43  1  0
 21 44  1  0
 21 45  1  0
 21 46  1  0
M  CHG  2   3   1  15  -1
M  END
>  <UniqueID>  (13) 
12

>  <SMILES>  (13) 
CC[NH2+][C@]12C=C[C@](C)(CCC1)C21C(=O)[N-]c2cccc(C)c21

>  <Energy>  (13) 
132.84751533511556

>  <Genealogy>  (13) 
CC[NH2+]C12C=CC(C)(CCC1)C21C(=O)[N-]c2cccc(C)c21 (protonated)
CC[NH2+][C@]12C=C[C@](C)(CCC1)C21C(=O)[N-]c2cccc(C)c21 (chirality)
CC[NH2+][C@]12C=C[C@](C)(CCC1)C21C(=O)[N-]c2cccc(C)c21 (3D coordinates assigned)
CC[NH2+][C@]12C=C[C@](C)(CCC1)C21C(=O)[N-]c2cccc(C)c21 (nonaromatic ring conformer: 132.84751533511556 kcal/mol)

>  <smiles>  (13) 
CCNC12C=CC(C)(CCC1)C21C(=O)Nc2cccc(C)c21

>  <score_type>  (13) 
oracle

>  <origin>  (13) 
adg

>  <m_score__min__energy>  (13) 
-7.1500000000000004

>  <m_primary>  (13) 
energy

$$$$
13:0
     RDKit          3D

 49 52  0  0  0  0  0  0  0  0999 V2000
   -7.8980   19.2550  -31.4970 C   0  0  0  0  0  0  0  0  0  0  0  0
   -6.6670   19.8690  -32.0230 N   0  0  0  0  0  0  0  0  0  0  0  0
   -6.3390   21.1940  -31.7690 C   0  0  0  0  0  0  0  0  0  0  0  0
   -7.2760   22.1020  -31.2240 C   0  0  0  0  0  0  0  0  0  0  0  0
   -6.9140   23.4130  -30.9130 C   0  0  0  0  0  0  0  0  0  0  0  0
   -5.6110   23.8710  -31.1360 C   0  0  0  0  0  0  0  0  0  0  0  0
   -5.2460   25.2190  -30.7850 N   0  0  0  0  0  0  0  0  0  0  0  0
   -6.1120   26.0430  -30.4250 O   0  0  0  0  0  0  0  0  0  0  0  0
   -3.9320   25.6260  -30.8450 O   0  0  0  0  0  0  0  0  0  0  0  0
   -4.6740   23.0050  -31.7200 C   0  0  0  0  0  0  0  0  0  0  0  0
   -5.0260   21.6880  -32.0750 C   0  0  0  0  0  0  0  0  0  0  0  0
   -4.0940   20.8410  -32.7190 C   0  0  0  0  0  0  0  0  0  0  0  0
   -2.7910   21.2860  -33.1180 N   0  0  0  0  0  0  0  0  0  0  0  0
   -1.6630   21.2430  -32.1880 C   0  0  0  0  0  0  0  0  0  0  0  0
   -1.0580   19.8280  -32.1000 C   0  0  0  0  0  0  0  0  0  0  0  0
   -1.2020   19.0440  -33.3530 N   0  0  0  0  0  0  0  0  0  0  0  0
   -0.7380   17.6540  -33.1790 C   0  0  0  0  0  0  0  0  0  0  0  0
   -0.4350   19.6870  -34.4360 C   0  0  0  0  0  0  0  0  0  0  0  0
   -4.5060   19.5580  -33.0380 C   0  0  0  0  0  0  0  0  0  0  0  0
   -3.8140   18.6430  -33.6820 O   0  0  0  0  0  0  0  0  0  0  0  0
   -4.6020   17.6030  -33.8290 C   0  0  0  0  0  0  0  0  0  0  0  0
   -4.2960   16.4130  -34.4850 C   0  0  0  0  0  0  0  0  0  0  0  0
   -5.3020   15.4400  -34.5910 C   0  0  0  0  0  0  0  0  0  0  0  0
   -6.5870   15.6790  -34.0610 C   0  0  0  0  0  0  0  0  0  0  0  0
   -6.8760   16.8870  -33.4000 C   0  0  0  0  0  0  0  0  0  0  0  0
   -5.8460   17.8280  -33.2660 C   0  0  0  0  0  0  0  0  0  0  0  0
   -5.7690   19.1080  -32.7270 C   0  0  0  0  0  0  0  0  0  0  0  0
   -7.8730   19.2675  -30.3974 H   0  0  0  0  0  0  0  0  0  0  0  0
   -8.7711   19.8232  -31.8504 H   0  0  0  0  0  0  0  0  0  0  0  0
   -7.9693   18.2158  -31.8504 H   0  0  0  0  0  0  0  0  0  0  0  0
   -8.3084   21.7689  -31.0420 H   0  0  0  0  0  0  0  0  0  0  0  0
   -7.6634   24.0960  -30.4866 H   0  0  0  0  0  0  0  0  0  0  0  0
   -3.6491   23.3599  -31.9034 H   0  0  0  0  0  0  0  0  0  0  0  0
   -2.7290   21.9450  -33.9280 H   0  0  0  0  0  0  0  0  0  0  0  0
   -0.8877   21.9425  -32.5337 H   0  0  0  0  0  0  0  0  0  0  0  0
   -2.0276   21.5255  -31.1894 H   0  0  0  0  0  0  0  0  0  0  0  0
    0.0133   19.9210  -31.8685 H   0  0  0  0  0  0  0  0  0  0  0  0
   -1.6087   19.2885  -31.3153 H   0  0  0  0  0  0  0  0  0  0  0  0
   -2.2040   19.0220  -33.6520 H   0  0  0  0  0  0  0  0  0  0  0  0
   -0.6614   17.4246  -32.1059 H   0  0  0  0  0  0  0  0  0  0  0  0
   -1.4553   16.9662  -33.6507 H   0  0  0  0  0  0  0  0  0  0  0  0
    0.2486   17.5350  -33.6507 H   0  0  0  0  0  0  0  0  0  0  0  0
    0.3394   20.3362  -34.0014 H   0  0  0  0  0  0  0  0  0  0  0  0
    0.0409   18.9139  -35.0572 H   0  0  0  0  0  0  0  0  0  0  0  0
   -1.1131   20.2905  -35.0572 H   0  0  0  0  0  0  0  0  0  0  0  0
   -3.2951   16.2408  -34.9077 H   0  0  0  0  0  0  0  0  0  0  0  0
   -5.0867   14.4842  -35.0910 H   0  0  0  0  0  0  0  0  0  0  0  0
   -7.3705   14.9140  -34.1654 H   0  0  0  0  0  0  0  0  0  0  0  0
   -7.8810   17.0870  -33.0001 H   0  0  0  0  0  0  0  0  0  0  0  0
  1  2  1  0
  2  3  2  0
  3  4  1  0
  4  5  2  0
  5  6  1  0
  6  7  1  0
  7  8  2  0
  7  9  1  0
  6 10  2  0
 10 11  1  0
 11 12  2  0
 12 13  1  0
 13 14  1  0
 14 15  1  0
 15 16  1  0
 16 17  1  0
 16 18  1  0
 12 19  1  0
 19 20  1  0
 20 21  1  0
 21 22  2  0
 22 23  1  0
 23 24  2  0
 24 25  1  0
 25 26  2  0
 26 27  1  0
 27  2  1  0
 11  3  1  0
 27 19  2  0
 26 21  1  0
  1 28  1  0
  1 29  1  0
  1 30  1  0
  4 31  1  0
  5 32  1  0
 10 33  1  0
 13 34  1  0
 14 35  1  0
 14 36  1  0
 15 37  1  0
 15 38  1  0
 16 39  1  0
 17 40  1  0
 17 41  1  0
 17 42  1  0
 18 43  1  0
 18 44  1  0
 18 45  1  0
 22 46  1  0
 23 47  1  0
 24 48  1  0
 25 49  1  0
M  CHG  4   2   1   7   1   9  -1  16   1
M  END
>  <UniqueID>  (14) 
13

>  <SMILES>  (14) 
C[n+]1c2ccc([N+](=O)[O-])cc2c(NCC[NH+](C)C)c2oc3ccccc3c21

>  <Energy>  (14) 
114.70854547803762

>  <Genealogy>  (14) 
C[n+]1c2ccc([N+](=O)[O-])cc2c(NCC[NH+](C)C)c2oc3ccccc3c21 (protonated)
C[n+]1c2ccc([N+](=O)[O-])cc2c(NCC[NH+](C)C)c2oc3ccccc3c21 (3D coordinates assigned)
C[n+]1c2ccc([N+](=O)[O-])cc2c(NCC[NH+](C)C)c2oc3ccccc3c21 (optimized conformer: 114.70854547803762 kcal/mol)

>  <smiles>  (14) 
CN(C)CCNc1c2cc([N+](=O)[O-])ccc2[n+](C)c2c1oc1ccccc12

>  <score_type>  (14) 
oracle

>  <origin>  (14) 
adg

>  <m_score__min__energy>  (14) 
-7.5300000000000002

>  <m_primary>  (14) 
energy

$$$$
14:0
     RDKit          3D

 37 38  0  0  0  0  0  0  0  0999 V2000
   -4.2410   24.2140  -29.1450 C   0  0  0  0  0  0  0  0  0  0  0  0
   -4.1210   24.3660  -30.6050 N   0  0  0  0  0  0  0  0  0  0  0  0
   -3.8080   23.0590  -31.2060 C   0  0  0  0  0  0  0  0  0  0  0  0
   -5.3670   24.9120  -31.1890 C   0  0  0  0  0  0  0  0  0  0  0  0
   -6.5170   23.9060  -31.0470 C   0  0  0  0  0  0  0  0  0  0  0  0
   -6.6400   23.0760  -32.2490 N   0  0  0  0  0  0  0  0  0  0  0  0
   -7.3900   21.8410  -32.2770 C   0  0  0  0  0  0  0  0  0  0  0  0
   -8.7440   21.8250  -31.8880 C   0  0  0  0  0  0  0  0  0  0  0  0
   -9.4940   20.6530  -31.9660 C   0  0  0  0  0  0  0  0  0  0  0  0
   -8.9170   19.4800  -32.4420 C   0  0  0  0  0  0  0  0  0  0  0  0
   -7.5730   19.4630  -32.8320 C   0  0  0  0  0  0  0  0  0  0  0  0
   -6.7850   20.6330  -32.7180 C   0  0  0  0  0  0  0  0  0  0  0  0
   -5.3190   20.5870  -33.1090 C   0  0  0  0  0  0  0  0  0  0  0  0
   -4.7460   19.1640  -33.1070 C   0  0  0  0  0  0  0  0  0  0  0  0
   -5.6530   18.2220  -33.8930 C   0  0  0  0  0  0  0  0  0  0  0  0
   -6.9950   18.2440  -33.3240 N   0  0  0  0  0  0  0  0  0  0  0  0
   -3.6338   24.9831  -28.6452 H   0  0  0  0  0  0  0  0  0  0  0  0
   -5.2943   24.3292  -28.8497 H   0  0  0  0  0  0  0  0  0  0  0  0
   -3.8845   23.2162  -28.8497 H   0  0  0  0  0  0  0  0  0  0  0  0
   -3.6314   22.3218  -30.4089 H   0  0  0  0  0  0  0  0  0  0  0  0
   -4.6528   22.7302  -31.8291 H   0  0  0  0  0  0  0  0  0  0  0  0
   -2.9059   23.1485  -31.8291 H   0  0  0  0  0  0  0  0  0  0  0  0
   -5.6339   25.8422  -30.6660 H   0  0  0  0  0  0  0  0  0  0  0  0
   -5.1999   25.1106  -32.2580 H   0  0  0  0  0  0  0  0  0  0  0  0
   -6.3225   23.2573  -30.1802 H   0  0  0  0  0  0  0  0  0  0  0  0
   -7.4552   24.4633  -30.9083 H   0  0  0  0  0  0  0  0  0  0  0  0
   -6.1520   23.3940  -33.1150 H   0  0  0  0  0  0  0  0  0  0  0  0
   -9.2145   22.7481  -31.5185 H   0  0  0  0  0  0  0  0  0  0  0  0
  -10.5475   20.6554  -31.6496 H   0  0  0  0  0  0  0  0  0  0  0  0
   -9.5195   18.5623  -32.5121 H   0  0  0  0  0  0  0  0  0  0  0  0
   -5.2118   21.0073  -34.1199 H   0  0  0  0  0  0  0  0  0  0  0  0
   -4.7594   21.1697  -32.3625 H   0  0  0  0  0  0  0  0  0  0  0  0
   -3.7479   19.1750  -33.5692 H   0  0  0  0  0  0  0  0  0  0  0  0
   -4.6788   18.8089  -32.0681 H   0  0  0  0  0  0  0  0  0  0  0  0
   -5.6956   18.5469  -34.9431 H   0  0  0  0  0  0  0  0  0  0  0  0
   -5.2510   17.1995  -33.8389 H   0  0  0  0  0  0  0  0  0  0  0  0
   -7.5450   17.3550  -33.2980 H   0  0  0  0  0  0  0  0  0  0  0  0
  1  2  1  0
  2  3  1  0
  2  4  1  0
  4  5  1  0
  5  6  1  0
  6  7  1  0
  7  8  2  0
  8  9  1  0
  9 10  2  0
 10 11  1  0
 11 12  2  0
 12 13  1  0
 13 14  1  0
 14 15  1  0
 15 16  1  0
 12  7  1  0
 16 11  1  0
  1 17  1  0
  1 18  1  0
  1 19  1  0
  3 20  1  0
  3 21  1  0
  3 22  1  0
  4 23  1  0
  4 24  1  0
  5 25  1  0
  5 26  1  0
  6 27  1  0
  8 28  1  0
  9 29  1  0
 10 30  1  0
 13 31  1  0
 13 32  1  0
 14 33  1  0
 14 34  1  0
 15 35  1  0
 15 36  1  0
 16 37  1  0
M  END
>  <UniqueID>  (15) 
14

>  <SMILES>  (15) 
CN(C)CCNc1cccc2c1CCCN2

>  <Energy>  (15) 
35.70361720075384

>  <Genealogy>  (15) 
CN(C)CCNc1cccc2c1CCCN2 (3D coordinates assigned)
CN(C)CCNc1cccc2c1CCCN2 (nonaromatic ring conformer: 35.70361720075384 kcal/mol)

>  <smiles>  (15) 
CN(C)CCNc1cccc2c1CCCN2

>  <score_type>  (15) 
oracle

>  <origin>  (15) 
adg

>  <m_score__min__energy>  (15) 
-6.8600000000000003

>  <m_primary>  (15) 
energy

$$$$
15:0
     RDKit          3D

 92 96  0  0  0  0  0  0  0  0999 V2000
    1.6550   19.6790  -33.5580 C   0  0  0  0  0  0  0  0  0  0  0  0
    0.7180   20.8810  -33.4110 C   0  0  0  0  0  0  0  0  0  0  0  0
   -0.4290   20.8090  -34.3470 N   0  0  0  0  0  0  0  0  0  0  0  0
   -0.1040   21.2510  -35.7310 C   0  0  0  0  0  0  0  0  0  0  0  0
    0.6220   22.6020  -35.8240 C   0  0  0  0  0  0  0  0  0  0  0  0
   -1.6280   21.4640  -33.7680 C   0  0  0  0  0  0  0  0  0  0  0  0
   -2.8780   20.5760  -33.8440 C   0  0  0  0  0  0  0  0  0  0  0  0
   -3.7180   20.7560  -32.6580 N   0  0  0  0  0  0  0  0  0  0  0  0
   -3.1280   21.0220  -31.3710 C   0  0  0  0  0  0  0  0  0  0  0  0
   -3.5600   22.1190  -30.6010 C   0  0  0  0  0  0  0  0  0  0  0  0
   -4.5020   23.0400  -31.1090 C   0  0  0  0  0  0  0  0  0  0  0  0
   -4.9040   24.1380  -30.3530 C   0  0  0  0  0  0  0  0  0  0  0  0
   -4.3680   24.3480  -29.0880 C   0  0  0  0  0  0  0  0  0  0  0  0
   -3.4450   23.4480  -28.5620 C   0  0  0  0  0  0  0  0  0  0  0  0
   -3.0470   22.2950  -29.2880 C   0  0  0  0  0  0  0  0  0  0  0  0
   -2.1760   21.3630  -28.7530 N   0  0  0  0  0  0  0  0  0  0  0  0
   -1.8700   21.3810  -27.3040 C   0  0  0  0  0  0  0  0  0  0  0  0
   -1.6040   20.4040  -29.5680 C   0  0  0  0  0  0  0  0  0  0  0  0
   -0.5150   19.6090  -29.1330 C   0  0  0  0  0  0  0  0  0  0  0  0
    0.0200   18.6110  -29.9440 C   0  0  0  0  0  0  0  0  0  0  0  0
   -0.4930   18.3910  -31.2270 C   0  0  0  0  0  0  0  0  0  0  0  0
   -0.0160   17.3720  -32.0650 O   0  0  0  0  0  0  0  0  0  0  0  0
    0.5790   16.1480  -31.6240 C   0  0  0  0  0  0  0  0  0  0  0  0
    0.3610   14.9950  -32.6380 C   0  0  0  0  0  0  0  0  0  0  0  0
   -1.0400   14.4660  -32.7710 N   0  0  2  0  0  0  0  0  0  0  0  0
   -1.4080   13.6500  -31.5870 C   0  0  0  0  0  0  0  0  0  0  0  0
   -1.2570   13.7030  -34.0110 C   0  0  0  0  0  0  0  0  0  0  0  0
   -1.5520   14.7360  -35.0690 C   0  0  0  0  0  0  0  0  0  0  0  0
   -2.2840   15.8230  -34.3780 N   0  0  1  0  0  0  0  0  0  0  0  0
   -1.7850   17.1490  -34.8240 C   0  0  0  0  0  0  0  0  0  0  0  0
   -3.7650   15.7120  -34.5900 C   0  0  0  0  0  0  0  0  0  0  0  0
   -4.5830   16.8920  -34.0890 C   0  0  0  0  0  0  0  0  0  0  0  0
   -5.0430   17.8740  -34.9830 C   0  0  0  0  0  0  0  0  0  0  0  0
   -5.8260   18.9390  -34.5250 C   0  0  0  0  0  0  0  0  0  0  0  0
   -6.1890   19.0280  -33.1770 C   0  0  0  0  0  0  0  0  0  0  0  0
   -6.9830   20.1100  -32.7720 O   0  0  0  0  0  0  0  0  0  0  0  0
   -8.3720   20.0150  -32.4710 C   0  0  0  0  0  0  0  0  0  0  0  0
   -5.7490   18.0330  -32.2820 C   0  0  0  0  0  0  0  0  0  0  0  0
   -4.9610   16.9730  -32.7380 C   0  0  0  0  0  0  0  0  0  0  0  0
   -1.9750   15.6190  -32.9230 C   0  0  0  0  0  0  0  0  0  0  0  0
   -1.5170   19.2070  -31.7010 C   0  0  0  0  0  0  0  0  0  0  0  0
   -2.0920   20.2050  -30.8860 C   0  0  0  0  0  0  0  0  0  0  0  0
    1.9406   19.3126  -32.5609 H   0  0  0  0  0  0  0  0  0  0  0  0
    1.1404   18.8782  -34.1094 H   0  0  0  0  0  0  0  0  0  0  0  0
    2.5571   19.9826  -34.1094 H   0  0  0  0  0  0  0  0  0  0  0  0
    0.3342   20.9081  -32.3805 H   0  0  0  0  0  0  0  0  0  0  0  0
    1.2917   21.7896  -33.6461 H   0  0  0  0  0  0  0  0  0  0  0  0
    0.5374   20.4857  -36.1925 H   0  0  0  0  0  0  0  0  0  0  0  0
   -1.0663   21.3813  -36.2477 H   0  0  0  0  0  0  0  0  0  0  0  0
    0.8250   22.9797  -34.8110 H   0  0  0  0  0  0  0  0  0  0  0  0
    1.5715   22.4716  -36.3638 H   0  0  0  0  0  0  0  0  0  0  0  0
   -0.0108   23.3219  -36.3638 H   0  0  0  0  0  0  0  0  0  0  0  0
   -1.4262   21.6993  -32.7126 H   0  0  0  0  0  0  0  0  0  0  0  0
   -1.8279   22.3730  -34.3543 H   0  0  0  0  0  0  0  0  0  0  0  0
   -3.4570   20.8446  -34.7399 H   0  0  0  0  0  0  0  0  0  0  0  0
   -2.5601   19.5241  -33.8940 H   0  0  0  0  0  0  0  0  0  0  0  0
   -4.7100   20.4360  -32.7040 H   0  0  0  0  0  0  0  0  0  0  0  0
   -4.9232   22.8883  -32.1138 H   0  0  0  0  0  0  0  0  0  0  0  0
   -5.6473   24.8406  -30.7578 H   0  0  0  0  0  0  0  0  0  0  0  0
   -4.6735   25.2269  -28.5013 H   0  0  0  0  0  0  0  0  0  0  0  0
   -3.0166   23.6338  -27.5660 H   0  0  0  0  0  0  0  0  0  0  0  0
   -2.8071   21.3259  -26.7306 H   0  0  0  0  0  0  0  0  0  0  0  0
   -1.2351   20.5187  -27.0526 H   0  0  0  0  0  0  0  0  0  0  0  0
   -1.3405   22.3118  -27.0526 H   0  0  0  0  0  0  0  0  0  0  0  0
   -0.0839   19.7832  -28.1361 H   0  0  0  0  0  0  0  0  0  0  0  0
    0.8506   17.9922  -29.5737 H   0  0  0  0  0  0  0  0  0  0  0  0
    1.6597   16.3058  -31.4933 H   0  0  0  0  0  0  0  0  0  0  0  0
    0.1002   15.8607  -30.6763 H   0  0  0  0  0  0  0  0  0  0  0  0
    0.6751   15.3582  -33.6277 H   0  0  0  0  0  0  0  0  0  0  0  0
    0.9512   14.1527  -32.2479 H   0  0  0  0  0  0  0  0  0  0  0  0
   -1.1588   14.2026  -30.6691 H   0  0  0  0  0  0  0  0  0  0  0  0
   -2.4877   13.4406  -31.6072 H   0  0  0  0  0  0  0  0  0  0  0  0
   -0.8502   12.7021  -31.6072 H   0  0  0  0  0  0  0  0  0  0  0  0
   -0.3555   13.1299  -34.2732 H   0  0  0  0  0  0  0  0  0  0  0  0
   -2.0772   12.9774  -33.9071 H   0  0  0  0  0  0  0  0  0  0  0  0
   -0.6162   15.1192  -35.5019 H   0  0  0  0  0  0  0  0  0  0  0  0
   -2.1414   14.3124  -35.8956 H   0  0  0  0  0  0  0  0  0  0  0  0
   -1.5521   17.7678  -33.9449 H   0  0  0  0  0  0  0  0  0  0  0  0
   -0.8761   17.0143  -35.4287 H   0  0  0  0  0  0  0  0  0  0  0  0
   -2.5573   17.6469  -35.4287 H   0  0  0  0  0  0  0  0  0  0  0  0
   -3.9468   15.6063  -35.6697 H   0  0  0  0  0  0  0  0  0  0  0  0
   -4.0925   14.8426  -34.0010 H   0  0  0  0  0  0  0  0  0  0  0  0
   -4.7856   17.8047  -36.0502 H   0  0  0  0  0  0  0  0  0  0  0  0
   -6.1593   19.7136  -35.2314 H   0  0  0  0  0  0  0  0  0  0  0  0
   -8.5109   20.0055  -31.3798 H   0  0  0  0  0  0  0  0  0  0  0  0
   -8.9002   20.8791  -32.9004 H   0  0  0  0  0  0  0  0  0  0  0  0
   -8.7776   19.0870  -32.9004 H   0  0  0  0  0  0  0  0  0  0  0  0
   -6.0271   18.0908  -31.2193 H   0  0  0  0  0  0  0  0  0  0  0  0
   -4.6335   16.1948  -32.0329 H   0  0  0  0  0  0  0  0  0  0  0  0
   -1.5063   16.5274  -32.5166 H   0  0  0  0  0  0  0  0  0  0  0  0
   -2.9062   15.4111  -32.3756 H   0  0  0  0  0  0  0  0  0  0  0  0
   -1.8841   19.0711  -32.7290 H   0  0  0  0  0  0  0  0  0  0  0  0
  1  2  1  0
  2  3  1  0
  3  4  1  0
  4  5  1  0
  3  6  1  0
  6  7  1  0
  7  8  1  0
  8  9  1  0
  9 10  2  0
 10 11  1  0
 11 12  2  0
 12 13  1  0
 13 14  2  0
 14 15  1  0
 15 16  2  0
 16 17  1  0
 16 18  1  0
 18 19  2  0
 19 20  1  0
 20 21  2  0
 21 22  1  0
 22 23  1  0
 23 24  1  0
 25 24  1  1
 25 26  1  0
 25 27  1  0
 27 28  1  0
 28 29  1  0
 29 30  1  6
 29 31  1  0
 31 32  1  0
 32 33  2  0
 33 34  1  0
 34 35  2  0
 35 36  1  0
 36 37  1  0
 35 38  1  0
 38 39  2  0
 29 40  1  0
 21 41  1  0
 41 42  2  0
 42  9  1  0
 15 10  1  0
 42 18  1  0
 40 25  1  0
 39 32  1  0
  1 43  1  0
  1 44  1  0
  1 45  1  0
  2 46  1  0
  2 47  1  0
  4 48  1  0
  4 49  1  0
  5 50  1  0
  5 51  1  0
  5 52  1  0
  6 53  1  0
  6 54  1  0
  7 55  1  0
  7 56  1  0
  8 57  1  0
 11 58  1  0
 12 59  1  0
 13 60  1  0
 14 61  1  0
 17 62  1  0
 17 63  1  0
 17 64  1  0
 19 65  1  0
 20 66  1  0
 23 67  1  0
 23 68  1  0
 24 69  1  0
 24 70  1  0
 26 71  1  0
 26 72  1  0
 26 73  1  0
 27 74  1  0
 27 75  1  0
 28 76  1  0
 28 77  1  0
 30 78  1  0
 30 79  1  0
 30 80  1  0
 31 81  1  0
 31 82  1  0
 33 83  1  0
 34 84  1  0
 37 85  1  0
 37 86  1  0
 37 87  1  0
 38 88  1  0
 39 89  1  0
 40 90  1  0
 40 91  1  0
 41 92  1  0
M  CHG  3  16   1  25   1  29   1
M  END
>  <UniqueID>  (16) 
15

>  <SMILES>  (16) 
CCN(CC)CCNc1c2ccccc2[n+](C)c2ccc(OCC[N@+]3(C)CC[N@@+](C)(Cc4ccc(OC)cc4)C3)cc12

>  <Energy>  (16) 
145.47482732353384

>  <Genealogy>  (16) 
CCN(CC)CCNc1c2ccccc2[n+](C)c2ccc(OCC[N@+]3(C)CC[N@@+](C)(Cc4ccc(OC)cc4)C3)cc12 (chirality)
CCN(CC)CCNc1c2ccccc2[n+](C)c2ccc(OCC[N@+]3(C)CC[N@@+](C)(Cc4ccc(OC)cc4)C3)cc12 (3D coordinates assigned)
CCN(CC)CCNc1c2ccccc2[n+](C)c2ccc(OCC[N@+]3(C)CC[N@@+](C)(Cc4ccc(OC)cc4)C3)cc12 (nonaromatic ring conformer: 145.47482732353384 kcal/mol)

>  <smiles>  (16) 
CCN(CC)CCNc1c2ccccc2[n+](C)c2ccc(OCC[N+]3(C)CC[N+](C)(Cc4ccc(OC)cc4)C3)cc12

>  <score_type>  (16) 
oracle

>  <origin>  (16) 
adg

>  <m_score__min__energy>  (16) 
-8.3599999999999994

>  <m_primary>  (16) 
energy

$$$$
16:0
     RDKit          3D

 91 95  0  0  0  0  0  0  0  0999 V2000
    0.1350   21.1030  -32.9200 C   0  0  0  0  0  0  0  0  0  0  0  0
   -0.8170   20.8390  -31.7580 C   0  0  0  0  0  0  0  0  0  0  0  0
   -1.6020   19.6090  -32.0070 N   0  0  0  0  0  0  0  0  0  0  0  0
   -0.7750   18.3950  -31.8070 C   0  0  0  0  0  0  0  0  0  0  0  0
   -1.2300   17.2820  -32.7450 C   0  0  0  0  0  0  0  0  0  0  0  0
   -2.2070   19.6180  -33.3600 C   0  0  0  0  0  0  0  0  0  0  0  0
   -3.6720   20.0750  -33.2710 C   0  0  0  0  0  0  0  0  0  0  0  0
   -4.1560   20.1490  -31.8770 N   0  0  0  0  0  0  0  0  0  0  0  0
   -5.4070   20.8940  -31.7790 C   0  0  0  0  0  0  0  0  0  0  0  0
   -6.6410   20.2610  -32.1030 C   0  0  0  0  0  0  0  0  0  0  0  0
   -6.6990   18.9070  -32.5250 C   0  0  0  0  0  0  0  0  0  0  0  0
   -7.9170   18.2710  -32.7420 C   0  0  0  0  0  0  0  0  0  0  0  0
   -9.1070   18.9570  -32.5420 C   0  0  0  0  0  0  0  0  0  0  0  0
   -9.0820   20.2980  -32.1770 C   0  0  0  0  0  0  0  0  0  0  0  0
   -7.8570   20.9920  -32.0010 C   0  0  0  0  0  0  0  0  0  0  0  0
   -7.8360   22.3430  -31.7310 N   0  0  0  0  0  0  0  0  0  0  0  0
   -9.0500   23.1570  -31.9790 C   0  0  0  0  0  0  0  0  0  0  0  0
   -6.6790   22.9440  -31.2780 C   0  0  0  0  0  0  0  0  0  0  0  0
   -6.7010   24.2640  -30.7580 C   0  0  0  0  0  0  0  0  0  0  0  0
   -5.5310   24.9070  -30.3720 C   0  0  0  0  0  0  0  0  0  0  0  0
   -4.3100   24.2540  -30.4500 C   0  0  0  0  0  0  0  0  0  0  0  0
   -3.1490   24.9510  -30.0970 O   0  0  0  0  0  0  0  0  0  0  0  0
   -2.4830   24.8150  -28.8380 C   0  0  0  0  0  0  0  0  0  0  0  0
   -2.9530   23.5390  -28.1050 C   0  0  0  0  0  0  0  0  0  0  0  0
   -2.0120   22.3700  -28.1380 N   0  0  1  0  0  0  0  0  0  0  0  0
   -0.7710   22.7450  -28.8710 C   0  0  0  0  0  0  0  0  0  0  0  0
   -1.6790   22.0480  -26.7160 C   0  0  0  0  0  0  0  0  0  0  0  0
   -0.9390   20.7030  -26.5260 C   0  0  0  0  0  0  0  0  0  0  0  0
   -1.6170   19.5350  -27.1660 N   0  0  2  0  0  0  0  0  0  0  0  0
   -2.8870   19.2370  -26.4460 C   0  0  0  0  0  0  0  0  0  0  0  0
   -0.7720   18.2720  -27.1420 C   0  0  0  0  0  0  0  0  0  0  0  0
    0.3340   18.1890  -28.1700 C   0  0  0  0  0  0  0  0  0  0  0  0
    0.6250   16.9750  -28.8120 C   0  0  0  0  0  0  0  0  0  0  0  0
    1.6290   16.9350  -29.7810 C   0  0  0  0  0  0  0  0  0  0  0  0
    2.3320   18.0970  -30.0990 C   0  0  0  0  0  0  0  0  0  0  0  0
    2.0160   19.2890  -29.4410 C   0  0  0  0  0  0  0  0  0  0  0  0
    1.0330   19.3110  -28.5020 N   0  0  0  0  0  0  0  0  0  0  0  0
   -1.9080   19.8700  -28.5870 C   0  0  0  0  0  0  0  0  0  0  0  0
   -2.6720   21.1980  -28.7830 C   0  0  0  0  0  0  0  0  0  0  0  0
   -4.2630   22.9360  -30.9220 C   0  0  0  0  0  0  0  0  0  0  0  0
   -5.4370   22.2470  -31.3230 C   0  0  0  0  0  0  0  0  0  0  0  0
    1.1253   21.3776  -32.5276 H   0  0  0  0  0  0  0  0  0  0  0  0
    0.2232   20.1954  -33.5352 H   0  0  0  0  0  0  0  0  0  0  0  0
   -0.2568   21.9264  -33.5352 H   0  0  0  0  0  0  0  0  0  0  0  0
   -0.2351   20.7171  -30.8325 H   0  0  0  0  0  0  0  0  0  0  0  0
   -1.5068   21.6902  -31.6597 H   0  0  0  0  0  0  0  0  0  0  0  0
    0.2782   18.6356  -32.0140 H   0  0  0  0  0  0  0  0  0  0  0  0
   -0.8872   18.0538  -30.7673 H   0  0  0  0  0  0  0  0  0  0  0  0
   -1.5808   16.4239  -32.1528 H   0  0  0  0  0  0  0  0  0  0  0  0
   -2.0501   17.6495  -33.3794 H   0  0  0  0  0  0  0  0  0  0  0  0
   -0.3873   16.9698  -33.3794 H   0  0  0  0  0  0  0  0  0  0  0  0
   -1.6470   20.3101  -34.0061 H   0  0  0  0  0  0  0  0  0  0  0  0
   -2.1676   18.6032  -33.7828 H   0  0  0  0  0  0  0  0  0  0  0  0
   -3.7595   21.0715  -33.7285 H   0  0  0  0  0  0  0  0  0  0  0  0
   -4.2873   19.3326  -33.8003 H   0  0  0  0  0  0  0  0  0  0  0  0
   -4.2910   19.1830  -31.5070 H   0  0  0  0  0  0  0  0  0  0  0  0
   -3.4070   20.5010  -31.2470 H   0  0  0  0  0  0  0  0  0  0  0  0
   -5.7636   18.3503  -32.6834 H   0  0  0  0  0  0  0  0  0  0  0  0
   -7.9371   17.2221  -33.0728 H   0  0  0  0  0  0  0  0  0  0  0  0
  -10.0691   18.4398  -32.6722 H   0  0  0  0  0  0  0  0  0  0  0  0
  -10.0310   20.8320  -32.0215 H   0  0  0  0  0  0  0  0  0  0  0  0
   -9.4943   23.4549  -31.0179 H   0  0  0  0  0  0  0  0  0  0  0  0
   -8.7780   24.0560  -32.5516 H   0  0  0  0  0  0  0  0  0  0  0  0
   -9.7784   22.5640  -32.5516 H   0  0  0  0  0  0  0  0  0  0  0  0
   -7.6628   24.7885  -30.6585 H   0  0  0  0  0  0  0  0  0  0  0  0
   -5.5737   25.9419  -30.0017 H   0  0  0  0  0  0  0  0  0  0  0  0
   -1.3980   24.7542  -29.0085 H   0  0  0  0  0  0  0  0  0  0  0  0
   -2.7238   25.6890  -28.2150 H   0  0  0  0  0  0  0  0  0  0  0  0
   -3.1246   23.8018  -27.0507 H   0  0  0  0  0  0  0  0  0  0  0  0
   -3.8537   23.2065  -28.6418 H   0  0  0  0  0  0  0  0  0  0  0  0
    0.0231   22.9850  -28.1487 H   0  0  0  0  0  0  0  0  0  0  0  0
   -0.4500   21.9038  -29.5029 H   0  0  0  0  0  0  0  0  0  0  0  0
   -0.9696   23.6233  -29.5029 H   0  0  0  0  0  0  0  0  0  0  0  0
   -2.6169   22.0096  -26.1425 H   0  0  0  0  0  0  0  0  0  0  0  0
   -0.9964   22.8361  -26.3654 H   0  0  0  0  0  0  0  0  0  0  0  0
   -0.8553   20.5047  -25.4473 H   0  0  0  0  0  0  0  0  0  0  0  0
    0.0396   20.8085  -27.0171 H   0  0  0  0  0  0  0  0  0  0  0  0
   -2.7116   19.2781  -25.3608 H   0  0  0  0  0  0  0  0  0  0  0  0
   -3.6486   19.9808  -26.7228 H   0  0  0  0  0  0  0  0  0  0  0  0
   -3.2383   18.2320  -26.7228 H   0  0  0  0  0  0  0  0  0  0  0  0
   -0.3110   18.1955  -26.1462 H   0  0  0  0  0  0  0  0  0  0  0  0
   -1.4625   17.4511  -27.3856 H   0  0  0  0  0  0  0  0  0  0  0  0
    0.0667   16.0631  -28.5537 H   0  0  0  0  0  0  0  0  0  0  0  0
    1.8650   15.9900  -30.2922 H   0  0  0  0  0  0  0  0  0  0  0  0
    3.1265   18.0755  -30.8594 H   0  0  0  0  0  0  0  0  0  0  0  0
    2.5639   20.2115  -29.6835 H   0  0  0  0  0  0  0  0  0  0  0  0
   -2.5134   19.0577  -29.0155 H   0  0  0  0  0  0  0  0  0  0  0  0
   -0.9360   19.9886  -29.0882 H   0  0  0  0  0  0  0  0  0  0  0  0
   -3.6785   21.0863  -28.3535 H   0  0  0  0  0  0  0  0  0  0  0  0
   -2.6971   21.3980  -29.8644 H   0  0  0  0  0  0  0  0  0  0  0  0
   -3.2922   22.4224  -30.9833 H   0  0  0  0  0  0  0  0  0  0  0  0
  1  2  1  0
  2  3  1  0
  3  4  1  0
  4  5  1  0
  3  6  1  0
  6  7  1  0
  7  8  1  0
  8  9  1  0
  9 10  2  0
 10 11  1  0
 11 12  2  0
 12 13  1  0
 13 14  2  0
 14 15  1  0
 15 16  2  0
 16 17  1  0
 16 18  1  0
 18 19  2  0
 19 20  1  0
 20 21  2  0
 21 22  1  0
 22 23  1  0
 23 24  1  0
 25 24  1  1
 25 26  1  0
 25 27  1  0
 27 28  1  0
 28 29  1  0
 29 30  1  1
 29 31  1  0
 31 32  1  0
 32 33  2  0
 33 34  1  0
 34 35  2  0
 35 36  1  0
 36 37  2  0
 29 38  1  0
 38 39  1  0
 21 40  1  0
 40 41  2  0
 41  9  1  0
 15 10  1  0
 41 18  1  0
 39 25  1  0
 37 32  1  0
  1 42  1  0
  1 43  1  0
  1 44  1  0
  2 45  1  0
  2 46  1  0
  4 47  1  0
  4 48  1  0
  5 49  1  0
  5 50  1  0
  5 51  1  0
  6 52  1  0
  6 53  1  0
  7 54  1  0
  7 55  1  0
  8 56  1  0
  8 57  1  0
 11 58  1  0
 12 59  1  0
 13 60  1  0
 14 61  1  0
 17 62  1  0
 17 63  1  0
 17 64  1  0
 19 65  1  0
 20 66  1  0
 23 67  1  0
 23 68  1  0
 24 69  1  0
 24 70  1  0
 26 71  1  0
 26 72  1  0
 26 73  1  0
 27 74  1  0
 27 75  1  0
 28 76  1  0
 28 77  1  0
 30 78  1  0
 30 79  1  0
 30 80  1  0
 31 81  1  0
 31 82  1  0
 33 83  1  0
 34 84  1  0
 35 85  1  0
 36 86  1  0
 38 87  1  0
 38 88  1  0
 39 89  1  0
 39 90  1  0
 40 91  1  0
M  CHG  4   8   1  16   1  25   1  29   1
M  END
>  <UniqueID>  (17) 
16

>  <SMILES>  (17) 
CCN(CC)CC[NH2+]c1c2ccccc2[n+](C)c2ccc(OCC[N+]3(C)CC[N+](C)(Cc4ccccn4)CC3)cc12

>  <Energy>  (17) 
153.91645882744078

>  <Genealogy>  (17) 
CCN(CC)CC[NH2+]c1c2ccccc2[n+](C)c2ccc(OCC[N+]3(C)CC[N+](C)(Cc4ccccn4)CC3)cc12 (protonated)
CCN(CC)CC[NH2+]c1c2ccccc2[n+](C)c2ccc(OCC[N+]3(C)CC[N+](C)(Cc4ccccn4)CC3)cc12 (3D coordinates assigned)
CCN(CC)CC[NH2+]c1c2ccccc2[n+](C)c2ccc(OCC[N+]3(C)CC[N+](C)(Cc4ccccn4)CC3)cc12 (nonaromatic ring conformer: 153.91645882744078 kcal/mol)

>  <smiles>  (17) 
CCN(CC)CCNc1c2ccccc2[n+](C)c2ccc(OCC[N+]3(C)CC[N+](C)(Cc4ccccn4)CC3)cc12

>  <score_type>  (17) 
oracle

>  <origin>  (17) 
adg

>  <m_score__min__energy>  (17) 
-8.8200000000000003

>  <m_primary>  (17) 
energy

$$$$
17:0
     RDKit          3D

 66 68  0  0  0  0  0  0  0  0999 V2000
   -5.0710   25.5290  -30.6540 C   0  0  0  0  0  0  0  0  0  0  0  0
   -4.2240   24.3300  -30.5350 N   0  0  0  0  0  0  0  0  0  0  0  0
   -3.2420   24.5380  -29.4540 C   0  0  0  0  0  0  0  0  0  0  0  0
   -5.0680   23.1460  -30.2620 C   0  0  0  0  0  0  0  0  0  0  0  0
   -6.2010   23.0070  -31.2870 C   0  0  0  0  0  0  0  0  0  0  0  0
   -5.7250   22.4100  -32.5370 N   0  0  0  0  0  0  0  0  0  0  0  0
   -5.6540   20.9810  -32.6830 C   0  0  0  0  0  0  0  0  0  0  0  0
   -6.8150   20.2120  -32.5050 C   0  0  0  0  0  0  0  0  0  0  0  0
   -7.9410   20.7470  -31.8430 C   0  0  0  0  0  0  0  0  0  0  0  0
   -9.0740   19.9670  -31.6260 C   0  0  0  0  0  0  0  0  0  0  0  0
   -9.1000   18.6440  -32.0530 C   0  0  0  0  0  0  0  0  0  0  0  0
   -8.0030   18.1000  -32.7210 C   0  0  0  0  0  0  0  0  0  0  0  0
   -6.8500   18.8820  -32.9900 C   0  0  0  0  0  0  0  0  0  0  0  0
   -5.7830   18.3860  -33.7120 N   0  0  0  0  0  0  0  0  0  0  0  0
   -5.9470   17.1520  -34.5140 C   0  0  0  0  0  0  0  0  0  0  0  0
   -4.5670   19.0460  -33.6870 C   0  0  0  0  0  0  0  0  0  0  0  0
   -3.3930   18.4430  -34.2010 C   0  0  0  0  0  0  0  0  0  0  0  0
   -2.1770   19.1130  -34.1950 C   0  0  0  0  0  0  0  0  0  0  0  0
   -2.0710   20.3670  -33.6150 C   0  0  0  0  0  0  0  0  0  0  0  0
   -3.1900   20.9890  -33.0360 C   0  0  0  0  0  0  0  0  0  0  0  0
   -2.9920   22.1560  -32.2120 N   0  0  0  0  0  0  0  0  0  0  0  0
   -1.9730   22.2300  -31.1640 C   0  0  0  0  0  0  0  0  0  0  0  0
   -2.0120   20.9730  -30.2870 C   0  0  0  0  0  0  0  0  0  0  0  0
   -1.1860   21.0670  -28.9770 C   0  0  0  0  0  0  0  0  0  0  0  0
   -1.9300   20.9810  -27.6750 N   0  0  0  0  0  0  0  0  0  0  0  0
   -1.1960   21.6290  -26.5610 C   0  0  0  0  0  0  0  0  0  0  0  0
   -3.2880   21.5710  -27.7880 C   0  0  0  0  0  0  0  0  0  0  0  0
   -2.0960   19.5440  -27.3400 C   0  0  0  0  0  0  0  0  0  0  0  0
   -4.4660   20.3550  -33.1250 C   0  0  0  0  0  0  0  0  0  0  0  0
   -5.3302   25.8959  -29.6499 H   0  0  0  0  0  0  0  0  0  0  0  0
   -4.5241   26.3115  -31.2005 H   0  0  0  0  0  0  0  0  0  0  0  0
   -5.9913   25.2751  -31.2005 H   0  0  0  0  0  0  0  0  0  0  0  0
   -3.7414   24.4322  -28.4796 H   0  0  0  0  0  0  0  0  0  0  0  0
   -2.4401   23.7898  -29.5382 H   0  0  0  0  0  0  0  0  0  0  0  0
   -2.8123   25.5471  -29.5382 H   0  0  0  0  0  0  0  0  0  0  0  0
   -4.4397   22.2439  -30.3009 H   0  0  0  0  0  0  0  0  0  0  0  0
   -5.5199   23.2697  -29.2667 H   0  0  0  0  0  0  0  0  0  0  0  0
   -6.9896   22.3678  -30.8634 H   0  0  0  0  0  0  0  0  0  0  0  0
   -6.5888   24.0118  -31.5106 H   0  0  0  0  0  0  0  0  0  0  0  0
   -5.1450   23.0070  -33.1680 H   0  0  0  0  0  0  0  0  0  0  0  0
   -7.9233   21.7904  -31.4951 H   0  0  0  0  0  0  0  0  0  0  0  0
   -9.9487   20.3976  -31.1166 H   0  0  0  0  0  0  0  0  0  0  0  0
   -9.9888   18.0242  -31.8634 H   0  0  0  0  0  0  0  0  0  0  0  0
   -8.0322   17.0489  -33.0441 H   0  0  0  0  0  0  0  0  0  0  0  0
   -6.0616   16.2897  -33.8408 H   0  0  0  0  0  0  0  0  0  0  0  0
   -6.8409   17.2432  -35.1485 H   0  0  0  0  0  0  0  0  0  0  0  0
   -5.0603   17.0065  -35.1485 H   0  0  0  0  0  0  0  0  0  0  0  0
   -3.4457   17.4244  -34.6128 H   0  0  0  0  0  0  0  0  0  0  0  0
   -1.2928   18.6458  -34.6532 H   0  0  0  0  0  0  0  0  0  0  0  0
   -1.0989   20.8818  -33.6078 H   0  0  0  0  0  0  0  0  0  0  0  0
   -3.8010   22.8090  -32.1200 H   0  0  0  0  0  0  0  0  0  0  0  0
   -0.9802   22.3156  -31.6299 H   0  0  0  0  0  0  0  0  0  0  0  0
   -2.1737   23.1093  -30.5343 H   0  0  0  0  0  0  0  0  0  0  0  0
   -3.0601   20.7765  -30.0172 H   0  0  0  0  0  0  0  0  0  0  0  0
   -1.5581   20.1666  -30.8817 H   0  0  0  0  0  0  0  0  0  0  0  0
   -0.4529   20.2470  -28.9913 H   0  0  0  0  0  0  0  0  0  0  0  0
   -0.7614   22.0817  -28.9882 H   0  0  0  0  0  0  0  0  0  0  0  0
   -1.5985   21.2737  -25.6009 H   0  0  0  0  0  0  0  0  0  0  0  0
   -0.1281   21.3737  -26.6279 H   0  0  0  0  0  0  0  0  0  0  0  0
   -1.3170   22.7203  -26.6279 H   0  0  0  0  0  0  0  0  0  0  0  0
   -3.6957   21.7481  -26.7818 H   0  0  0  0  0  0  0  0  0  0  0  0
   -3.2292   22.5247  -28.3329 H   0  0  0  0  0  0  0  0  0  0  0  0
   -3.9450   20.8772  -28.3329 H   0  0  0  0  0  0  0  0  0  0  0  0
   -2.1101   19.4216  -26.2469 H   0  0  0  0  0  0  0  0  0  0  0  0
   -3.0426   19.1760  -27.7625 H   0  0  0  0  0  0  0  0  0  0  0  0
   -1.2582   18.9699  -27.7625 H   0  0  0  0  0  0  0  0  0  0  0  0
  1  2  1  0
  2  3  1  0
  2  4  1  0
  4  5  1  0
  5  6  1  0
  6  7  1  0
  7  8  2  0
  8  9  1  0
  9 10  2  0
 10 11  1  0
 11 12  2  0
 12 13  1  0
 13 14  2  0
 14 15  1  0
 14 16  1  0
 16 17  2  0
 17 18  1  0
 18 19  2  0
 19 20  1  0
 20 21  1  0
 21 22  1  0
 22 23  1  0
 23 24  1  0
 24 25  1  0
 25 26  1  0
 25 27  1  0
 25 28  1  0
 20 29  2  0
 29  7  1  0
 13  8  1  0
 29 16  1  0
  1 30  1  0
  1 31  1  0
  1 32  1  0
  3 33  1  0
  3 34  1  0
  3 35  1  0
  4 36  1  0
  4 37  1  0
  5 38  1  0
  5 39  1  0
  6 40  1  0
  9 41  1  0
 10 42  1  0
 11 43  1  0
 12 44  1  0
 15 45  1  0
 15 46  1  0
 15 47  1  0
 17 48  1  0
 18 49  1  0
 19 50  1  0
 21 51  1  0
 22 52  1  0
 22 53  1  0
 23 54  1  0
 23 55  1  0
 24 56  1  0
 24 57  1  0
 26 58  1  0
 26 59  1  0
 26 60  1  0
 27 61  1  0
 27 62  1  0
 27 63  1  0
 28 64  1  0
 28 65  1  0
 28 66  1  0
M  CHG  2  14   1  25   1
M  END
>  <UniqueID>  (18) 
17

>  <SMILES>  (18) 
CN(C)CCNc1c2ccccc2[n+](C)c2cccc(NCCC[N+](C)(C)C)c12

>  <Energy>  (18) 
106.57129245421397

>  <Genealogy>  (18) 
CN(C)CCNc1c2ccccc2[n+](C)c2cccc(NCCC[N+](C)(C)C)c12 (3D coordinates assigned)
CN(C)CCNc1c2ccccc2[n+](C)c2cccc(NCCC[N+](C)(C)C)c12 (optimized conformer: 106.57129245421397 kcal/mol)

>  <smiles>  (18) 
CN(C)CCNc1c2ccccc2[n+](C)c2cccc(NCCC[N+](C)(C)C)c12

>  <score_type>  (18) 
oracle

>  <origin>  (18) 
adg

>  <m_score__min__energy>  (18) 
-7.7300000000000004

>  <m_primary>  (18) 
energy

$$$$
18:0
     RDKit          3D

 43 45  0  0  0  0  0  0  0  0999 V2000
    0.3350   23.9300  -25.8810 C   0  0  0  0  0  0  0  0  0  0  0  0
   -0.1520   25.2050  -25.2470 C   0  0  0  0  0  0  0  0  0  0  0  0
    0.0720   25.4140  -23.9170 N   0  0  0  0  0  0  0  0  0  0  0  0
   -0.3420   26.5510  -23.3000 C   0  0  0  0  0  0  0  0  0  0  0  0
   -0.9890   27.5120  -24.0060 N   0  0  0  0  0  0  0  0  0  0  0  0
   -1.2340   27.3600  -25.3300 C   0  0  0  0  0  0  0  0  0  0  0  0
   -0.8210   26.2010  -25.9990 C   0  0  0  0  0  0  0  0  0  0  0  0
   -1.1290   26.0630  -27.4740 C   0  0  0  0  0  0  0  0  0  0  0  0
   -2.3740   25.3110  -27.6780 N   0  0  0  0  0  0  0  0  0  0  0  0
   -2.1000   23.9000  -27.9830 C   0  0  0  0  0  0  0  0  0  0  0  0
   -2.1500   23.6710  -29.4940 C   0  0  0  0  0  0  0  0  0  0  0  0
   -3.1090   24.5370  -30.1020 O   0  0  0  0  0  0  0  0  0  0  0  0
   -4.4280   24.1880  -30.4330 C   0  0  0  0  0  0  0  0  0  0  0  0
   -5.5450   24.9850  -30.0740 C   0  0  0  0  0  0  0  0  0  0  0  0
   -6.8430   24.5890  -30.4310 C   0  0  0  0  0  0  0  0  0  0  0  0
   -7.0130   23.4000  -31.1410 C   0  0  0  0  0  0  0  0  0  0  0  0
   -5.9400   22.6230  -31.4870 C   0  0  0  0  0  0  0  0  0  0  0  0
   -4.6380   22.9950  -31.1430 C   0  0  0  0  0  0  0  0  0  0  0  0
   -6.3470   21.4100  -32.2320 C   0  0  0  0  0  0  0  0  0  0  0  0
   -7.8800   21.5210  -32.3200 C   0  0  0  0  0  0  0  0  0  0  0  0
   -8.2950   22.8210  -31.6030 C   0  0  0  0  0  0  0  0  0  0  0  0
    0.6096   23.2112  -25.0949 H   0  0  0  0  0  0  0  0  0  0  0  0
   -0.4633   23.5030  -26.5058 H   0  0  0  0  0  0  0  0  0  0  0  0
    1.2147   24.1439  -26.5058 H   0  0  0  0  0  0  0  0  0  0  0  0
    0.5690   24.6930  -23.3460 H   0  0  0  0  0  0  0  0  0  0  0  0
   -0.1523   26.6929  -22.2258 H   0  0  0  0  0  0  0  0  0  0  0  0
   -1.7606   28.1519  -25.8828 H   0  0  0  0  0  0  0  0  0  0  0  0
   -1.2362   27.0648  -27.9154 H   0  0  0  0  0  0  0  0  0  0  0  0
   -0.3045   25.5183  -27.9572 H   0  0  0  0  0  0  0  0  0  0  0  0
   -2.8560   25.7270  -28.5100 H   0  0  0  0  0  0  0  0  0  0  0  0
   -1.1010   23.6337  -27.6073 H   0  0  0  0  0  0  0  0  0  0  0  0
   -2.8615   23.2718  -27.4977 H   0  0  0  0  0  0  0  0  0  0  0  0
   -1.1575   23.8726  -29.9233 H   0  0  0  0  0  0  0  0  0  0  0  0
   -2.4425   22.6280  -29.6852 H   0  0  0  0  0  0  0  0  0  0  0  0
   -5.3929   25.9187  -29.5126 H   0  0  0  0  0  0  0  0  0  0  0  0
   -7.7115   25.2054  -30.1558 H   0  0  0  0  0  0  0  0  0  0  0  0
   -3.7858   22.3595  -31.4256 H   0  0  0  0  0  0  0  0  0  0  0  0
   -5.8979   21.3992  -33.2361 H   0  0  0  0  0  0  0  0  0  0  0  0
   -6.0181   20.4823  -31.7408 H   0  0  0  0  0  0  0  0  0  0  0  0
   -8.1936   21.5573  -33.3737 H   0  0  0  0  0  0  0  0  0  0  0  0
   -8.3582   20.6500  -31.8481 H   0  0  0  0  0  0  0  0  0  0  0  0
   -8.8052   23.5048  -32.2974 H   0  0  0  0  0  0  0  0  0  0  0  0
   -9.0008   22.6429  -30.7783 H   0  0  0  0  0  0  0  0  0  0  0  0
  1  2  1  0
  2  3  2  0
  3  4  1  0
  4  5  2  0
  5  6  1  0
  6  7  2  0
  7  8  1  0
  8  9  1  0
  9 10  1  0
 10 11  1  0
 11 12  1  0
 12 13  1  0
 13 14  2  0
 14 15  1  0
 15 16  2  0
 16 17  1  0
 17 18  2  0
 17 19  1  0
 19 20  1  0
 20 21  1  0
  7  2  1  0
 18 13  1  0
 21 16  1  0
  1 22  1  0
  1 23  1  0
  1 24  1  0
  3 25  1  0
  4 26  1  0
  6 27  1  0
  8 28  1  0
  8 29  1  0
  9 30  1  0
 10 31  1  0
 10 32  1  0
 11 33  1  0
 11 34  1  0
 14 35  1  0
 15 36  1  0
 18 37  1  0
 19 38  1  0
 19 39  1  0
 20 40  1  0
 20 41  1  0
 21 42  1  0
 21 43  1  0
M  CHG  1   3   1
M  END
>  <UniqueID>  (19) 
18

>  <SMILES>  (19) 
Cc1[nH+]cncc1CNCCOc1ccc2c(c1)CCC2

>  <Energy>  (19) 
50.11038457359457

>  <Genealogy>  (19) 
Cc1[nH+]cncc1CNCCOc1ccc2c(c1)CCC2 (protonated)
Cc1[nH+]cncc1CNCCOc1ccc2c(c1)CCC2 (3D coordinates assigned)
Cc1[nH+]cncc1CNCCOc1ccc2c(c1)CCC2 (nonaromatic ring conformer: 50.11038457359457 kcal/mol)

>  <smiles>  (19) 
Cc1ncncc1CNCCOc1ccc2c(c1)CCC2

>  <score_type>  (19) 
oracle

>  <origin>  (19) 
adg

>  <m_score__min__energy>  (19) 
-8.5399999999999991

>  <m_primary>  (19) 
energy

$$$$
19:0
     RDKit          3D

 46 46  0  0  0  0  0  0  0  0999 V2000
   -6.2980   17.3780  -31.5950 C   0  0  0  0  0  0  0  0  0  0  0  0
   -6.8660   17.6120  -32.9920 C   0  0  0  0  0  0  0  0  0  0  0  0
   -6.7010   19.0110  -33.3880 N   0  0  0  0  0  0  0  0  0  0  0  0
   -7.6610   20.0000  -32.9230 C   0  0  0  0  0  0  0  0  0  0  0  0
   -8.9160   19.3250  -32.3720 C   0  0  0  0  0  0  0  0  0  0  0  0
   -5.7650   19.4010  -34.1320 N   0  0  0  0  0  0  0  0  0  0  0  0
   -4.4130   18.8720  -34.1230 C   0  0  0  0  0  0  0  0  0  0  0  0
   -3.4410   19.9270  -33.5920 C   0  0  0  0  0  0  0  0  0  0  0  0
   -3.9410   20.5640  -32.2860 C   0  0  0  0  0  0  0  0  0  0  0  0
   -4.9820   21.5610  -32.5490 N   0  0  0  0  0  0  0  0  0  0  0  0
   -5.1840   22.7750  -31.7940 C   0  0  0  0  0  0  0  0  0  0  0  0
   -4.0740   23.3450  -31.1470 C   0  0  0  0  0  0  0  0  0  0  0  0
   -4.2040   24.5200  -30.3870 C   0  0  0  0  0  0  0  0  0  0  0  0
   -3.1200   25.1090  -29.7170 O   0  0  0  0  0  0  0  0  0  0  0  0
   -2.4660   24.5390  -28.5880 C   0  0  0  0  0  0  0  0  0  0  0  0
   -5.4550   25.1310  -30.2860 C   0  0  0  0  0  0  0  0  0  0  0  0
   -6.5630   24.5900  -30.9380 C   0  0  0  0  0  0  0  0  0  0  0  0
   -6.4430   23.4160  -31.7070 C   0  0  0  0  0  0  0  0  0  0  0  0
   -7.5420   22.8860  -32.3980 O   0  0  0  0  0  0  0  0  0  0  0  0
   -8.8970   22.9910  -31.9760 C   0  0  0  0  0  0  0  0  0  0  0  0
   -7.0393   17.6834  -30.8419 H   0  0  0  0  0  0  0  0  0  0  0  0
   -6.0648   16.3105  -31.4681 H   0  0  0  0  0  0  0  0  0  0  0  0
   -5.3805   17.9714  -31.4681 H   0  0  0  0  0  0  0  0  0  0  0  0
   -6.3365   16.9683  -33.7099 H   0  0  0  0  0  0  0  0  0  0  0  0
   -7.9391   17.3704  -32.9833 H   0  0  0  0  0  0  0  0  0  0  0  0
   -7.1990   20.6046  -32.1286 H   0  0  0  0  0  0  0  0  0  0  0  0
   -7.9488   20.6368  -33.7725 H   0  0  0  0  0  0  0  0  0  0  0  0
   -8.8878   19.3402  -31.2725 H   0  0  0  0  0  0  0  0  0  0  0  0
   -9.8073   19.8654  -32.7234 H   0  0  0  0  0  0  0  0  0  0  0  0
   -8.9565   18.2834  -32.7234 H   0  0  0  0  0  0  0  0  0  0  0  0
   -4.3742   17.9829  -33.4765 H   0  0  0  0  0  0  0  0  0  0  0  0
   -4.1251   18.6004  -35.1493 H   0  0  0  0  0  0  0  0  0  0  0  0
   -2.4672   19.4508  -33.4049 H   0  0  0  0  0  0  0  0  0  0  0  0
   -3.3561   20.7221  -34.3474 H   0  0  0  0  0  0  0  0  0  0  0  0
   -4.3532   19.7770  -31.6375 H   0  0  0  0  0  0  0  0  0  0  0  0
   -3.0936   21.0654  -31.7955 H   0  0  0  0  0  0  0  0  0  0  0  0
   -5.5100   21.4560  -33.4450 H   0  0  0  0  0  0  0  0  0  0  0  0
   -3.0887   22.8642  -31.2369 H   0  0  0  0  0  0  0  0  0  0  0  0
   -2.9175   24.9325  -27.6654 H   0  0  0  0  0  0  0  0  0  0  0  0
   -2.5777   23.4450  -28.6132 H   0  0  0  0  0  0  0  0  0  0  0  0
   -1.3975   24.7991  -28.6132 H   0  0  0  0  0  0  0  0  0  0  0  0
   -5.5679   26.0468  -29.6872 H   0  0  0  0  0  0  0  0  0  0  0  0
   -7.5412   25.0856  -30.8507 H   0  0  0  0  0  0  0  0  0  0  0  0
   -8.9395   22.9943  -30.8768 H   0  0  0  0  0  0  0  0  0  0  0  0
   -9.3301   23.9254  -32.3625 H   0  0  0  0  0  0  0  0  0  0  0  0
   -9.4688   22.1345  -32.3625 H   0  0  0  0  0  0  0  0  0  0  0  0
  1  2  1  0
  2  3  1  0
  3  4  1  0
  4  5  1  0
  3  6  2  3
  6  7  1  0
  7  8  1  0
  8  9  1  0
  9 10  1  0
 10 11  1  0
 11 12  2  0
 12 13  1  0
 13 14  1  0
 14 15  1  0
 13 16  2  0
 16 17  1  0
 17 18  2  0
 18 19  1  0
 19 20  1  0
 18 11  1  0
  1 21  1  0
  1 22  1  0
  1 23  1  0
  2 24  1  0
  2 25  1  0
  4 26  1  0
  4 27  1  0
  5 28  1  0
  5 29  1  0
  5 30  1  0
  7 31  1  0
  7 32  1  0
  8 33  1  0
  8 34  1  0
  9 35  1  0
  9 36  1  0
 10 37  1  0
 12 38  1  0
 15 39  1  0
 15 40  1  0
 15 41  1  0
 16 42  1  0
 17 43  1  0
 20 44  1  0
 20 45  1  0
 20 46  1  0
M  CHG  1   3   1
M  END
>  <UniqueID>  (20) 
19

>  <SMILES>  (20) 
CC[N+](CC)=NCCCNc1cc(OC)ccc1OC

>  <Energy>  (20) 
36.55234235732407

>  <Genealogy>  (20) 
CC[N+](CC)=NCCCNc1cc(OC)ccc1OC (3D coordinates assigned)
CC[N+](CC)=NCCCNc1cc(OC)ccc1OC (optimized conformer: 36.55234235732407 kcal/mol)

>  <smiles>  (20) 
CC[N+](CC)=NCCCNc1cc(OC)ccc1OC

>  <score_type>  (20) 
oracle

>  <origin>  (20) 
adg

>  <m_score__min__energy>  (20) 
-5.9000000000000004

>  <m_primary>  (20) 
energy

$$$$
20:0
     RDKit          3D

 53 55  0  0  0  0  0  0  0  0999 V2000
   -7.3970   18.2410  -32.6050 C   0  0  0  0  0  0  0  0  0  0  0  0
   -8.3070   19.4600  -32.4840 C   0  0  0  0  0  0  0  0  0  0  0  0
   -7.9450   20.2600  -31.2910 N   0  0  0  0  0  0  0  0  0  0  0  0
   -6.5620   20.7640  -31.3350 C   0  0  0  0  0  0  0  0  0  0  0  0
   -6.3820   21.8680  -32.3870 C   0  0  0  0  0  0  0  0  0  0  0  0
   -7.3730   22.9510  -32.2500 N   0  0  0  0  0  0  0  0  0  0  0  0
   -6.9160   24.1900  -31.5860 C   0  0  0  0  0  0  0  0  0  0  0  0
   -5.7750   23.9650  -30.5810 C   0  0  0  0  0  0  0  0  0  0  0  0
   -4.9090   25.2160  -30.4200 C   0  0  0  0  0  0  0  0  0  0  0  0
   -3.4960   24.8720  -30.5370 N   0  0  0  0  0  0  0  0  0  0  0  0
   -2.6450   24.5500  -29.4320 C   0  0  0  0  0  0  0  0  0  0  0  0
   -1.9450   25.4680  -28.9260 O   0  0  0  0  0  0  0  0  0  0  0  0
   -2.6130   23.1540  -28.8380 C   0  0  1  0  0  0  0  0  0  0  0  0
   -3.4140   22.1210  -29.6580 C   0  0  0  0  0  0  0  0  0  0  0  0
   -2.6510   21.6210  -30.8560 C   0  0  0  0  0  0  0  0  0  0  0  0
   -3.3350   20.9250  -31.8650 C   0  0  0  0  0  0  0  0  0  0  0  0
   -2.6400   20.4040  -32.9580 C   0  0  0  0  0  0  0  0  0  0  0  0
   -1.2570   20.5650  -33.0490 C   0  0  0  0  0  0  0  0  0  0  0  0
   -0.5640   21.2440  -32.0440 C   0  0  0  0  0  0  0  0  0  0  0  0
   -1.2490   21.7600  -30.9330 C   0  0  0  0  0  0  0  0  0  0  0  0
   -0.4870   22.5490  -29.8960 C   0  0  0  0  0  0  0  0  0  0  0  0
   -1.2270   22.6980  -28.6320 N   0  0  0  0  0  0  0  0  0  0  0  0
   -8.7670   22.5390  -31.9910 C   0  0  0  0  0  0  0  0  0  0  0  0
   -8.8880   21.3590  -31.0060 C   0  0  0  0  0  0  0  0  0  0  0  0
   -7.1292   17.8822  -31.6002 H   0  0  0  0  0  0  0  0  0  0  0  0
   -7.9227   17.4438  -33.1510 H   0  0  0  0  0  0  0  0  0  0  0  0
   -6.4832   18.5183  -33.1510 H   0  0  0  0  0  0  0  0  0  0  0  0
   -8.1995   20.0830  -33.3841 H   0  0  0  0  0  0  0  0  0  0  0  0
   -9.3477   19.1188  -32.3817 H   0  0  0  0  0  0  0  0  0  0  0  0
   -6.3010   21.1701  -30.3466 H   0  0  0  0  0  0  0  0  0  0  0  0
   -5.9047   19.9254  -31.6085 H   0  0  0  0  0  0  0  0  0  0  0  0
   -5.3748   22.2967  -32.2785 H   0  0  0  0  0  0  0  0  0  0  0  0
   -6.5246   21.4102  -33.3770 H   0  0  0  0  0  0  0  0  0  0  0  0
   -6.5656   24.8898  -32.3590 H   0  0  0  0  0  0  0  0  0  0  0  0
   -7.7714   24.5865  -31.0193 H   0  0  0  0  0  0  0  0  0  0  0  0
   -6.2069   23.7021  -29.6041 H   0  0  0  0  0  0  0  0  0  0  0  0
   -5.1378   23.1530  -30.9612 H   0  0  0  0  0  0  0  0  0  0  0  0
   -5.1717   25.9425  -31.2031 H   0  0  0  0  0  0  0  0  0  0  0  0
   -5.0903   25.6513  -29.4262 H   0  0  0  0  0  0  0  0  0  0  0  0
   -3.1127   23.2275  -27.8608 H   0  0  0  0  0  0  0  0  0  0  0  0
   -3.6539   21.2652  -29.0099 H   0  0  0  0  0  0  0  0  0  0  0  0
   -4.3245   22.6177  -30.0244 H   0  0  0  0  0  0  0  0  0  0  0  0
   -4.4243   20.7894  -31.7941 H   0  0  0  0  0  0  0  0  0  0  0  0
   -3.1835   19.8658  -33.7486 H   0  0  0  0  0  0  0  0  0  0  0  0
   -0.7119   20.1569  -33.9129 H   0  0  0  0  0  0  0  0  0  0  0  0
    0.5252   21.3751  -32.1238 H   0  0  0  0  0  0  0  0  0  0  0  0
    0.4615   22.0320  -29.6886 H   0  0  0  0  0  0  0  0  0  0  0  0
   -0.3228   23.5575  -30.3033 H   0  0  0  0  0  0  0  0  0  0  0  0
   -1.2480   21.7690  -28.1480 H   0  0  0  0  0  0  0  0  0  0  0  0
   -9.3119   23.3983  -31.5731 H   0  0  0  0  0  0  0  0  0  0  0  0
   -9.1882   22.2035  -32.9502 H   0  0  0  0  0  0  0  0  0  0  0  0
   -8.6927   21.7315  -29.9896 H   0  0  0  0  0  0  0  0  0  0  0  0
   -9.9042   20.9510  -31.1105 H   0  0  0  0  0  0  0  0  0  0  0  0
  1  2  1  0
  2  3  1  0
  3  4  1  0
  4  5  1  0
  5  6  1  0
  6  7  1  0
  7  8  1  0
  8  9  1  0
  9 10  1  0
 10 11  1  0
 11 12  2  0
 11 13  1  0
 13 14  1  0
 14 15  1  0
 15 16  2  0
 16 17  1  0
 17 18  2  0
 18 19  1  0
 19 20  2  0
 20 21  1  0
 21 22  1  0
  6 23  1  0
 23 24  1  0
 24  3  1  0
 22 13  1  0
 20 15  1  0
  1 25  1  0
  1 26  1  0
  1 27  1  0
  2 28  1  0
  2 29  1  0
  4 30  1  0
  4 31  1  0
  5 32  1  0
  5 33  1  0
  7 34  1  0
  7 35  1  0
  8 36  1  0
  8 37  1  0
  9 38  1  0
  9 39  1  0
 13 40  1  1
 14 41  1  0
 14 42  1  0
 16 43  1  0
 17 44  1  0
 18 45  1  0
 19 46  1  0
 21 47  1  0
 21 48  1  0
 22 49  1  0
 23 50  1  0
 23 51  1  0
 24 52  1  0
 24 53  1  0
M  CHG  1  10  -1
M  END
>  <UniqueID>  (21) 
20

>  <SMILES>  (21) 
CCN1CCN(CCC[N-]C(=O)[C@H]2Cc3ccccc3CN2)CC1

>  <Energy>  (21) 
64.86722064701863

>  <Genealogy>  (21) 
CCN1CCN(CCC[N-]C(=O)C2Cc3ccccc3CN2)CC1 (protonated)
CCN1CCN(CCC[N-]C(=O)[C@H]2Cc3ccccc3CN2)CC1 (chirality)
CCN1CCN(CCC[N-]C(=O)[C@H]2Cc3ccccc3CN2)CC1 (3D coordinates assigned)
CCN1CCN(CCC[N-]C(=O)[C@H]2Cc3ccccc3CN2)CC1 (nonaromatic ring conformer: 64.86722064701863 kcal/mol)

>  <smiles>  (21) 
CCN1CCN(CCCNC(=O)C2Cc3ccccc3CN2)CC1

>  <score_type>  (21) 
oracle

>  <origin>  (21) 
adg

>  <m_score__min__energy>  (21) 
-10.43

>  <m_primary>  (21) 
energy

$$$$
21:0
     RDKit          3D

 37 39  0  0  0  0  0  0  0  0999 V2000
   -1.5206   22.9339  -26.7821 H   0  0  0  0  0  0  0  0  0  0  0  0
   -1.9160   23.5420  -27.6090 C   0  0  0  0  0  0  0  0  0  0  0  0
   -3.2790   23.1930  -28.5310 S   0  0  0  0  0  0  0  0  0  0  0  0
   -3.1210   24.5780  -29.4800 C   0  0  0  0  0  0  0  0  0  0  0  0
   -3.8730   24.9140  -30.4850 N   0  0  0  0  0  0  0  0  0  0  0  0
   -5.2780   25.2010  -30.4410 C   0  0  0  0  0  0  0  0  0  0  0  0
   -5.6590   26.3880  -30.6240 O   0  0  0  0  0  0  0  0  0  0  0  0
   -6.2800   24.1750  -29.9780 C   0  0  0  0  0  0  0  0  0  0  0  0
   -5.8479   23.6016  -29.1446 H   0  0  0  0  0  0  0  0  0  0  0  0
   -7.1921   24.6986  -29.6557 H   0  0  0  0  0  0  0  0  0  0  0  0
   -6.6340   23.2460  -31.0700 N   0  0  0  0  0  0  0  0  0  0  0  0
   -5.5190   22.3000  -31.3390 C   0  0  0  0  0  0  0  0  0  0  0  0
   -5.2480   21.7799  -30.4084 H   0  0  0  0  0  0  0  0  0  0  0  0
   -4.6497   22.8587  -31.7161 H   0  0  0  0  0  0  0  0  0  0  0  0
   -5.9450   21.2990  -32.3610 C   0  0  0  0  0  0  0  0  0  0  0  0
   -5.2070   20.4040  -33.1080 C   0  0  0  0  0  0  0  0  0  0  0  0
   -4.1098   20.3345  -33.1431 H   0  0  0  0  0  0  0  0  0  0  0  0
   -6.0800   19.6280  -33.7890 N   0  0  0  0  0  0  0  0  0  0  0  0
   -5.7310   18.4990  -34.6420 C   0  0  0  0  0  0  0  0  0  0  0  0
   -5.4639   17.6350  -34.0157 H   0  0  0  0  0  0  0  0  0  0  0  0
   -6.5909   18.2397  -35.2771 H   0  0  0  0  0  0  0  0  0  0  0  0
   -4.8747   18.7702  -35.2771 H   0  0  0  0  0  0  0  0  0  0  0  0
   -7.3210   19.9700  -33.4710 N   0  0  0  0  0  0  0  0  0  0  0  0
   -8.1860   19.5090  -33.8330 H   0  0  0  0  0  0  0  0  0  0  0  0
   -7.2540   20.9810  -32.5890 C   0  0  0  0  0  0  0  0  0  0  0  0
   -8.3960   21.7100  -31.9590 C   0  0  0  0  0  0  0  0  0  0  0  0
   -9.1547   20.9858  -31.6274 H   0  0  0  0  0  0  0  0  0  0  0  0
   -8.8408   22.3979  -32.6931 H   0  0  0  0  0  0  0  0  0  0  0  0
   -7.8870   22.5150  -30.7430 C   0  0  0  0  0  0  0  0  0  0  0  0
   -7.6921   21.8230  -29.9104 H   0  0  0  0  0  0  0  0  0  0  0  0
   -8.6568   23.2496  -30.4639 H   0  0  0  0  0  0  0  0  0  0  0  0
   -2.0370   25.3000  -29.1260 N   0  0  0  0  0  0  0  0  0  0  0  0
   -1.3770   24.7370  -28.0780 C   0  0  0  0  0  0  0  0  0  0  0  0
   -0.1220   25.3310  -27.5270 C   0  0  0  0  0  0  0  0  0  0  0  0
   -0.1597   25.3131  -26.4278 H   0  0  0  0  0  0  0  0  0  0  0  0
    0.7432   24.7468  -27.8737 H   0  0  0  0  0  0  0  0  0  0  0  0
   -0.0253   26.3704  -27.8737 H   0  0  0  0  0  0  0  0  0  0  0  0
  1  2  1  0
  2  3  1  0
  3  4  1  0
  4  5  2  0
  5  6  1  0
  6  7  2  0
  6  8  1  0
  8  9  1  0
  8 10  1  0
  8 11  1  0
 11 12  1  0
 12 13  1  0
 12 14  1  0
 12 15  1  0
 15 16  2  0
 16 17  1  0
 16 18  1  0
 18 19  1  0
 19 20  1  0
 19 21  1  0
 19 22  1  0
 18 23  1  0
 23 24  1  0
 23 25  2  0
 25 26  1  0
 26 27  1  0
 26 28  1  0
 26 29  1  0
 29 30  1  0
 29 31  1  0
  4 32  1  0
 32 33  1  0
 33 34  1  0
 34 35  1  0
 34 36  1  0
 34 37  1  0
 33  2  2  0
 29 11  1  0
 25 15  1  0
M  CHG  2  23   1  32  -1
M  END
>  <UniqueID>  (22) 
21

>  <SMILES>  (22) 
Cc1cs/c(=N\C(=O)CN2CCc3[nH+]n(C)cc3C2)[n-]1

>  <Energy>  (22) 
108.63043425157908

>  <Genealogy>  (22) 
Cc1csc(=NC(=O)CN2CCc3[nH+]n(C)cc3C2)[n-]1 (protonated)
Cc1cs/c(=N\C(=O)CN2CCc3[nH+]n(C)cc3C2)[n-]1 (cis-trans isomerization)
Cc1cs/c(=N\C(=O)CN2CCc3[nH+]n(C)cc3C2)[n-]1 (3D coordinates assigned)
Cc1cs/c(=N\C(=O)CN2CCc3[nH+]n(C)cc3C2)[n-]1 (nonaromatic ring conformer: 108.63043425157908 kcal/mol)

>  <smiles>  (22) 
Cc1csc(=NC(=O)CN2CCc3nn(C)cc3C2)[nH]1

>  <score_type>  (22) 
oracle

>  <origin>  (22) 
adg

>  <m_score__min__energy>  (22) 
-9.3699999999999992

>  <m_primary>  (22) 
energy

$$$$
22:0
     RDKit          3D

 61 63  0  0  0  0  0  0  0  0999 V2000
   -6.1930   25.5150  -29.4890 C   0  0  0  0  0  0  0  0  0  0  0  0
   -5.3670   25.6260  -30.7730 C   0  0  0  0  0  0  0  0  0  0  0  0
   -4.4140   24.5140  -30.9210 N   0  0  0  0  0  0  0  0  0  0  0  0
   -4.3050   23.6710  -29.7110 C   0  0  0  0  0  0  0  0  0  0  0  0
   -2.9770   22.9100  -29.6470 C   0  0  0  0  0  0  0  0  0  0  0  0
   -2.3260   22.9810  -30.9000 O   0  0  0  0  0  0  0  0  0  0  0  0
   -1.7660   21.7270  -31.2410 C   0  0  0  0  0  0  0  0  0  0  0  0
   -1.7240   21.5490  -32.7660 C   0  0  0  0  0  0  0  0  0  0  0  0
   -3.1120   21.6960  -33.4050 C   0  0  0  0  0  0  0  0  0  0  0  0
   -4.1710   21.6770  -32.3910 N   0  0  0  0  0  0  0  0  0  0  0  0
   -5.3160   20.8120  -32.5070 C   0  0  0  0  0  0  0  0  0  0  0  0
   -6.6130   21.3250  -32.3640 C   0  0  0  0  0  0  0  0  0  0  0  0
   -7.7110   20.4460  -32.3460 C   0  0  0  0  0  0  0  0  0  0  0  0
   -7.5270   19.0880  -32.5080 N   0  0  0  0  0  0  0  0  0  0  0  0
   -8.6880   18.1880  -32.3460 C   0  0  0  0  0  0  0  0  0  0  0  0
   -6.2770   18.5900  -32.8380 C   0  0  0  0  0  0  0  0  0  0  0  0
   -5.1410   19.4450  -32.7980 C   0  0  0  0  0  0  0  0  0  0  0  0
   -3.7490   18.9370  -33.1470 C   0  0  0  0  0  0  0  0  0  0  0  0
   -3.6210   17.4200  -33.0650 C   0  0  0  0  0  0  0  0  0  0  0  0
   -4.7600   16.7730  -33.8340 C   0  0  0  0  0  0  0  0  0  0  0  0
   -6.0960   17.1110  -33.1720 C   0  0  0  0  0  0  0  0  0  0  0  0
   -9.0910   21.0900  -32.2290 C   0  0  0  0  0  0  0  0  0  0  0  0
   -9.0970   22.1770  -31.1380 C   0  0  0  0  0  0  0  0  0  0  0  0
   -7.8890   23.1430  -31.2070 C   0  0  0  0  0  0  0  0  0  0  0  0
   -6.8980   22.8130  -32.3320 C   0  0  0  0  0  0  0  0  0  0  0  0
   -5.5287   25.6043  -28.6168 H   0  0  0  0  0  0  0  0  0  0  0  0
   -6.9416   26.3206  -29.4638 H   0  0  0  0  0  0  0  0  0  0  0  0
   -6.7023   24.5403  -29.4638 H   0  0  0  0  0  0  0  0  0  0  0  0
   -6.0505   25.6234  -31.6349 H   0  0  0  0  0  0  0  0  0  0  0  0
   -4.7890   26.5605  -30.7221 H   0  0  0  0  0  0  0  0  0  0  0  0
   -3.4850   24.8920  -31.2210 H   0  0  0  0  0  0  0  0  0  0  0  0
   -4.3861   24.3153  -28.8231 H   0  0  0  0  0  0  0  0  0  0  0  0
   -5.1157   22.9284  -29.7455 H   0  0  0  0  0  0  0  0  0  0  0  0
   -2.3348   23.3596  -28.8753 H   0  0  0  0  0  0  0  0  0  0  0  0
   -3.1725   21.8567  -29.3973 H   0  0  0  0  0  0  0  0  0  0  0  0
   -0.7426   21.6678  -30.8420 H   0  0  0  0  0  0  0  0  0  0  0  0
   -2.3902   20.9311  -30.8087 H   0  0  0  0  0  0  0  0  0  0  0  0
   -1.0548   22.3103  -33.1933 H   0  0  0  0  0  0  0  0  0  0  0  0
   -1.3605   20.5326  -32.9776 H   0  0  0  0  0  0  0  0  0  0  0  0
   -3.1558   22.6500  -33.9508 H   0  0  0  0  0  0  0  0  0  0  0  0
   -3.2708   20.8486  -34.0882 H   0  0  0  0  0  0  0  0  0  0  0  0
   -4.2110   22.4750  -31.7180 H   0  0  0  0  0  0  0  0  0  0  0  0
   -8.8862   18.0344  -31.2750 H   0  0  0  0  0  0  0  0  0  0  0  0
   -9.5712   18.6397  -32.8212 H   0  0  0  0  0  0  0  0  0  0  0  0
   -8.4707   17.2200  -32.8212 H   0  0  0  0  0  0  0  0  0  0  0  0
   -3.5097   19.2523  -34.1733 H   0  0  0  0  0  0  0  0  0  0  0  0
   -3.0531   19.3624  -32.4090 H   0  0  0  0  0  0  0  0  0  0  0  0
   -2.6605   17.1090  -33.5018 H   0  0  0  0  0  0  0  0  0  0  0  0
   -3.6643   17.1050  -32.0120 H   0  0  0  0  0  0  0  0  0  0  0  0
   -4.7607   17.1480  -34.8681 H   0  0  0  0  0  0  0  0  0  0  0  0
   -4.6223   15.6816  -33.8331 H   0  0  0  0  0  0  0  0  0  0  0  0
   -6.9043   16.8109  -33.8551 H   0  0  0  0  0  0  0  0  0  0  0  0
   -6.1195   16.5676  -32.2159 H   0  0  0  0  0  0  0  0  0  0  0  0
   -9.3591   21.5458  -33.1936 H   0  0  0  0  0  0  0  0  0  0  0  0
   -9.8205   20.3131  -31.9564 H   0  0  0  0  0  0  0  0  0  0  0  0
  -10.0190   22.7677  -31.2429 H   0  0  0  0  0  0  0  0  0  0  0  0
   -9.0353   21.6578  -30.1702 H   0  0  0  0  0  0  0  0  0  0  0  0
   -8.2687   24.1629  -31.3669 H   0  0  0  0  0  0  0  0  0  0  0  0
   -7.3425   23.0424  -30.2577 H   0  0  0  0  0  0  0  0  0  0  0  0
   -7.3286   23.1206  -33.2964 H   0  0  0  0  0  0  0  0  0  0  0  0
   -5.9573   23.3530  -32.1492 H   0  0  0  0  0  0  0  0  0  0  0  0
  1  2  1  0
  2  3  1  0
  3  4  1  0
  4  5  1  0
  5  6  1  0
  6  7  1  0
  7  8  1  0
  8  9  1  0
  9 10  1  0
 10 11  1  0
 11 12  2  0
 12 13  1  0
 13 14  2  0
 14 15  1  0
 14 16  1  0
 16 17  2  0
 17 18  1  0
 18 19  1  0
 19 20  1  0
 20 21  1  0
 13 22  1  0
 22 23  1  0
 23 24  1  0
 24 25  1  0
 17 11  1  0
 25 12  1  0
 21 16  1  0
  1 26  1  0
  1 27  1  0
  1 28  1  0
  2 29  1  0
  2 30  1  0
  3 31  1  0
  4 32  1  0
  4 33  1  0
  5 34  1  0
  5 35  1  0
  7 36  1  0
  7 37  1  0
  8 38  1  0
  8 39  1  0
  9 40  1  0
  9 41  1  0
 10 42  1  0
 15 43  1  0
 15 44  1  0
 15 45  1  0
 18 46  1  0
 18 47  1  0
 19 48  1  0
 19 49  1  0
 20 50  1  0
 20 51  1  0
 21 52  1  0
 21 53  1  0
 22 54  1  0
 22 55  1  0
 23 56  1  0
 23 57  1  0
 24 58  1  0
 24 59  1  0
 25 60  1  0
 25 61  1  0
M  CHG  1  14   1
M  END
>  <UniqueID>  (23) 
22

>  <SMILES>  (23) 
CCNCCOCCCNc1c2c([n+](C)c3c1CCCC3)CCCC2

>  <Energy>  (23) 
76.67650987369906

>  <Genealogy>  (23) 
CCNCCOCCCNc1c2c([n+](C)c3c1CCCC3)CCCC2 (3D coordinates assigned)
CCNCCOCCCNc1c2c([n+](C)c3c1CCCC3)CCCC2 (nonaromatic ring conformer: 76.67650987369906 kcal/mol)

>  <smiles>  (23) 
CCNCCOCCCNc1c2c([n+](C)c3c1CCCC3)CCCC2

>  <score_type>  (23) 
oracle

>  <origin>  (23) 
adg

>  <m_score__min__energy>  (23) 
-9.5199999999999996

>  <m_primary>  (23) 
energy

$$$$
23:0
     RDKit          3D

 67 69  0  0  0  0  0  0  0  0999 V2000
   -0.0820   19.2490  -29.0870 C   0  0  0  0  0  0  0  0  0  0  0  0
   -0.8310   19.3350  -27.7480 C   0  0  0  0  0  0  0  0  0  0  0  0
   -1.8830   20.3930  -27.7530 N   0  0  0  0  0  0  0  0  0  0  0  0
   -3.1200   19.8970  -27.0890 C   0  0  0  0  0  0  0  0  0  0  0  0
   -2.8470   18.7460  -26.1060 C   0  0  0  0  0  0  0  0  0  0  0  0
   -2.1780   20.8040  -29.1550 C   0  0  0  0  0  0  0  0  0  0  0  0
   -3.2980   21.8650  -29.2920 C   0  0  0  0  0  0  0  0  0  0  0  0
   -2.9180   23.1050  -30.1240 C   0  0  0  0  0  0  0  0  0  0  0  0
   -3.2870   24.3650  -29.4290 N   0  0  0  0  0  0  0  0  0  0  0  0
   -2.7170   24.3800  -28.0680 C   0  0  0  0  0  0  0  0  0  0  0  0
   -4.7600   24.5630  -29.3520 C   0  0  0  0  0  0  0  0  0  0  0  0
   -5.4000   24.7190  -30.7510 C   0  0  0  0  0  0  0  0  0  0  0  0
   -6.3960   23.5950  -31.0960 C   0  0  0  0  0  0  0  0  0  0  0  0
   -6.0640   22.9140  -32.3500 N   0  0  0  0  0  0  0  0  0  0  0  0
   -5.9320   21.4860  -32.4720 C   0  0  0  0  0  0  0  0  0  0  0  0
   -7.0730   20.6680  -32.3750 C   0  0  0  0  0  0  0  0  0  0  0  0
   -8.3540   21.2340  -32.1820 C   0  0  0  0  0  0  0  0  0  0  0  0
   -9.4870   20.4300  -32.1270 C   0  0  0  0  0  0  0  0  0  0  0  0
   -9.3710   19.0510  -32.2760 C   0  0  0  0  0  0  0  0  0  0  0  0
   -8.1180   18.4670  -32.4510 C   0  0  0  0  0  0  0  0  0  0  0  0
   -6.9370   19.2560  -32.4670 C   0  0  0  0  0  0  0  0  0  0  0  0
   -5.6810   18.6830  -32.5660 N   0  0  0  0  0  0  0  0  0  0  0  0
   -5.5100   17.2320  -32.3410 C   0  0  0  0  0  0  0  0  0  0  0  0
   -4.5800   19.4780  -32.8360 C   0  0  0  0  0  0  0  0  0  0  0  0
   -3.3250   18.9190  -33.1930 C   0  0  0  0  0  0  0  0  0  0  0  0
   -2.2150   19.7310  -33.4330 C   0  0  0  0  0  0  0  0  0  0  0  0
   -2.3320   21.1130  -33.3690 C   0  0  0  0  0  0  0  0  0  0  0  0
   -3.5600   21.6960  -33.0670 C   0  0  0  0  0  0  0  0  0  0  0  0
   -4.6890   20.8980  -32.7820 C   0  0  0  0  0  0  0  0  0  0  0  0
    0.9945   19.1254  -28.8977 H   0  0  0  0  0  0  0  0  0  0  0  0
   -0.4546   18.3877  -29.6609 H   0  0  0  0  0  0  0  0  0  0  0  0
   -0.2497   20.1723  -29.6609 H   0  0  0  0  0  0  0  0  0  0  0  0
   -1.3071   18.3641  -27.5463 H   0  0  0  0  0  0  0  0  0  0  0  0
   -0.0983   19.5935  -26.9693 H   0  0  0  0  0  0  0  0  0  0  0  0
   -1.5230   21.2170  -27.2210 H   0  0  0  0  0  0  0  0  0  0  0  0
   -3.5806   20.7294  -26.5367 H   0  0  0  0  0  0  0  0  0  0  0  0
   -3.7862   19.5112  -27.8747 H   0  0  0  0  0  0  0  0  0  0  0  0
   -2.9349   19.1165  -25.0740 H   0  0  0  0  0  0  0  0  0  0  0  0
   -3.5793   17.9419  -26.2705 H   0  0  0  0  0  0  0  0  0  0  0  0
   -1.8315   18.3564  -26.2705 H   0  0  0  0  0  0  0  0  0  0  0  0
   -1.2575   21.2179  -29.5924 H   0  0  0  0  0  0  0  0  0  0  0  0
   -2.5352   19.9035  -29.6760 H   0  0  0  0  0  0  0  0  0  0  0  0
   -4.1659   21.3862  -29.7690 H   0  0  0  0  0  0  0  0  0  0  0  0
   -3.5058   22.2277  -28.2745 H   0  0  0  0  0  0  0  0  0  0  0  0
   -1.8319   23.0986  -30.2984 H   0  0  0  0  0  0  0  0  0  0  0  0
   -3.4693   23.0629  -31.0750 H   0  0  0  0  0  0  0  0  0  0  0  0
   -3.5316   24.3586  -27.3291 H   0  0  0  0  0  0  0  0  0  0  0  0
   -2.0736   23.4985  -27.9302 H   0  0  0  0  0  0  0  0  0  0  0  0
   -2.1209   25.2941  -27.9302 H   0  0  0  0  0  0  0  0  0  0  0  0
   -5.2092   23.6925  -28.8516 H   0  0  0  0  0  0  0  0  0  0  0  0
   -4.9483   25.4886  -28.7883 H   0  0  0  0  0  0  0  0  0  0  0  0
   -5.9333   25.6804  -30.7854 H   0  0  0  0  0  0  0  0  0  0  0  0
   -4.5854   24.6694  -31.4886 H   0  0  0  0  0  0  0  0  0  0  0  0
   -6.3895   22.8560  -30.2812 H   0  0  0  0  0  0  0  0  0  0  0  0
   -7.3879   24.0545  -31.2186 H   0  0  0  0  0  0  0  0  0  0  0  0
   -5.9860   23.4930  -33.2160 H   0  0  0  0  0  0  0  0  0  0  0  0
   -8.4556   22.3240  -32.0740 H   0  0  0  0  0  0  0  0  0  0  0  0
  -10.4758   20.8841  -31.9656 H   0  0  0  0  0  0  0  0  0  0  0  0
  -10.2717   18.4199  -32.2555 H   0  0  0  0  0  0  0  0  0  0  0  0
   -8.0422   17.3771  -32.5789 H   0  0  0  0  0  0  0  0  0  0  0  0
   -5.4861   17.0289  -31.2602 H   0  0  0  0  0  0  0  0  0  0  0  0
   -6.3503   16.6886  -32.7977 H   0  0  0  0  0  0  0  0  0  0  0  0
   -4.5664   16.8988  -32.7977 H   0  0  0  0  0  0  0  0  0  0  0  0
   -3.2253   17.8272  -33.2821 H   0  0  0  0  0  0  0  0  0  0  0  0
   -1.2438   19.2740  -33.6738 H   0  0  0  0  0  0  0  0  0  0  0  0
   -1.4537   21.7480  -33.5571 H   0  0  0  0  0  0  0  0  0  0  0  0
   -3.6514   22.7921  -33.0503 H   0  0  0  0  0  0  0  0  0  0  0  0
  1  2  1  0
  2  3  1  0
  3  4  1  0
  4  5  1  0
  3  6  1  0
  6  7  1  0
  7  8  1  0
  8  9  1  0
  9 10  1  0
  9 11  1  0
 11 12  1  0
 12 13  1  0
 13 14  1  0
 14 15  1  0
 15 16  2  0
 16 17  1  0
 17 18  2  0
 18 19  1  0
 19 20  2  0
 20 21  1  0
 21 22  2  0
 22 23  1  0
 22 24  1  0
 24 25  2  0
 25 26  1  0
 26 27  2  0
 27 28  1  0
 28 29  2  0
 29 15  1  0
 21 16  1  0
 29 24  1  0
  1 30  1  0
  1 31  1  0
  1 32  1  0
  2 33  1  0
  2 34  1  0
  3 35  1  0
  4 36  1  0
  4 37  1  0
  5 38  1  0
  5 39  1  0
  5 40  1  0
  6 41  1  0
  6 42  1  0
  7 43  1  0
  7 44  1  0
  8 45  1  0
  8 46  1  0
 10 47  1  0
 10 48  1  0
 10 49  1  0
 11 50  1  0
 11 51  1  0
 12 52  1  0
 12 53  1  0
 13 54  1  0
 13 55  1  0
 14 56  1  0
 17 57  1  0
 18 58  1  0
 19 59  1  0
 20 60  1  0
 23 61  1  0
 23 62  1  0
 23 63  1  0
 25 64  1  0
 26 65  1  0
 27 66  1  0
 28 67  1  0
M  CHG  2   3   1  22   1
M  END
>  <UniqueID>  (24) 
23

>  <SMILES>  (24) 
CC[NH+](CC)CCCN(C)CCCNc1c2ccccc2[n+](C)c2ccccc12

>  <Energy>  (24) 
97.73133006464413

>  <Genealogy>  (24) 
CC[NH+](CC)CCCN(C)CCCNc1c2ccccc2[n+](C)c2ccccc12 (protonated)
CC[NH+](CC)CCCN(C)CCCNc1c2ccccc2[n+](C)c2ccccc12 (3D coordinates assigned)
CC[NH+](CC)CCCN(C)CCCNc1c2ccccc2[n+](C)c2ccccc12 (optimized conformer: 97.73133006464413 kcal/mol)

>  <smiles>  (24) 
CC[N+](CC)CCCN(C)CCCNc1c2ccccc2[n+](C)c2ccccc12

>  <score_type>  (24) 
oracle

>  <origin>  (24) 
adg

>  <m_score__min__energy>  (24) 
-8.6099999999999994

>  <m_primary>  (24) 
energy

$$$$
24:0
     RDKit          3D

 34 34  0  0  0  0  0  0  0  0999 V2000
   -1.6260   21.8610  -31.5650 C   0  0  0  0  0  0  0  0  0  0  0  0
   -2.7040   22.4280  -30.7410 N   0  0  0  0  0  0  0  0  0  0  0  0
   -3.6590   21.3930  -30.3200 C   0  0  0  0  0  0  0  0  0  0  0  0
   -2.2100   23.2670  -29.6230 C   0  0  0  0  0  0  0  0  0  0  0  0
   -3.0560   24.5240  -29.3210 C   0  0  0  0  0  0  0  0  0  0  0  0
   -3.8600   24.9210  -30.4880 N   0  0  0  0  0  0  0  0  0  0  0  0
   -5.3110   24.7560  -30.2760 C   0  0  0  0  0  0  0  0  0  0  0  0
   -6.0890   24.5380  -31.5860 C   0  0  0  0  0  0  0  0  0  0  0  0
   -6.7100   23.1670  -31.6550 C   0  0  0  0  0  0  0  0  0  0  0  0
   -7.9830   22.9340  -31.1080 C   0  0  0  0  0  0  0  0  0  0  0  0
   -8.5730   21.6710  -31.2120 C   0  0  0  0  0  0  0  0  0  0  0  0
   -7.8990   20.6340  -31.8640 C   0  0  0  0  0  0  0  0  0  0  0  0
   -8.7100   18.9100  -32.0090 Br  0  0  0  0  0  0  0  0  0  0  0  0
   -6.6340   20.8600  -32.4140 C   0  0  0  0  0  0  0  0  0  0  0  0
   -6.0410   22.1220  -32.3130 C   0  0  0  0  0  0  0  0  0  0  0  0
   -0.8429   21.4491  -30.9115 H   0  0  0  0  0  0  0  0  0  0  0  0
   -2.0325   21.0600  -32.2000 H   0  0  0  0  0  0  0  0  0  0  0  0
   -1.1963   22.6498  -32.2000 H   0  0  0  0  0  0  0  0  0  0  0  0
   -3.6958   21.3531  -29.2213 H   0  0  0  0  0  0  0  0  0  0  0  0
   -4.6580   21.6347  -30.7118 H   0  0  0  0  0  0  0  0  0  0  0  0
   -3.3379   20.4166  -30.7118 H   0  0  0  0  0  0  0  0  0  0  0  0
   -2.1873   22.6458  -28.7155 H   0  0  0  0  0  0  0  0  0  0  0  0
   -1.2189   23.6323  -29.9299 H   0  0  0  0  0  0  0  0  0  0  0  0
   -3.7296   24.3086  -28.4785 H   0  0  0  0  0  0  0  0  0  0  0  0
   -2.3735   25.3501  -29.0725 H   0  0  0  0  0  0  0  0  0  0  0  0
   -3.5440   24.3780  -31.3260 H   0  0  0  0  0  0  0  0  0  0  0  0
   -5.4732   23.8858  -29.6230 H   0  0  0  0  0  0  0  0  0  0  0  0
   -5.6850   25.6854  -29.8218 H   0  0  0  0  0  0  0  0  0  0  0  0
   -6.8865   25.2925  -31.6546 H   0  0  0  0  0  0  0  0  0  0  0  0
   -5.3790   24.6306  -32.4210 H   0  0  0  0  0  0  0  0  0  0  0  0
   -8.5171   23.7481  -30.5962 H   0  0  0  0  0  0  0  0  0  0  0  0
   -9.5689   21.4928  -30.7803 H   0  0  0  0  0  0  0  0  0  0  0  0
   -6.1043   20.0437  -32.9270 H   0  0  0  0  0  0  0  0  0  0  0  0
   -5.0470   22.2971  -32.7504 H   0  0  0  0  0  0  0  0  0  0  0  0
  1  2  1  0
  2  3  1  0
  2  4  1  0
  4  5  1  0
  5  6  1  0
  6  7  1  0
  7  8  1  0
  8  9  1  0
  9 10  2  0
 10 11  1  0
 11 12  2  0
 12 13  1  0
 12 14  1  0
 14 15  2  0
 15  9  1  0
  1 16  1  0
  1 17  1  0
  1 18  1  0
  3 19  1  0
  3 20  1  0
  3 21  1  0
  4 22  1  0
  4 23  1  0
  5 24  1  0
  5 25  1  0
  6 26  1  0
  7 27  1  0
  7 28  1  0
  8 29  1  0
  8 30  1  0
 10 31  1  0
 11 32  1  0
 14 33  1  0
 15 34  1  0
M  END
>  <UniqueID>  (25) 
24

>  <SMILES>  (25) 
CN(C)CCNCCc1ccc(Br)cc1

>  <Energy>  (25) 
33.86940187916294

>  <Genealogy>  (25) 
CN(C)CCNCCc1ccc(Br)cc1 (3D coordinates assigned)
CN(C)CCNCCc1ccc(Br)cc1 (optimized conformer: 33.86940187916294 kcal/mol)

>  <smiles>  (25) 
CN(C)CCNCCc1ccc(Br)cc1

>  <score_type>  (25) 
oracle

>  <origin>  (25) 
adg

>  <m_score__min__energy>  (25) 
-6.7999999999999998

>  <m_primary>  (25) 
energy

$$$$
25:0
     RDKit          3D

 54 55  0  0  0  0  0  0  0  0999 V2000
    0.0130   21.1760  -35.4290 C   0  0  0  0  0  0  0  0  0  0  0  0
   -0.1110   21.1230  -33.9110 C   0  0  0  0  0  0  0  0  0  0  0  0
   -1.5320   21.2270  -33.5050 N   0  0  0  0  0  0  0  0  0  0  0  0
   -2.3440   20.1520  -34.1190 C   0  0  0  0  0  0  0  0  0  0  0  0
   -2.1230   18.8280  -33.3890 C   0  0  0  0  0  0  0  0  0  0  0  0
   -1.6630   21.2290  -32.0280 C   0  0  0  0  0  0  0  0  0  0  0  0
   -3.1010   21.5590  -31.6340 C   0  0  0  0  0  0  0  0  0  0  0  0
   -3.2300   22.9560  -31.4660 O   0  0  0  0  0  0  0  0  0  0  0  0
   -2.8410   23.3100  -30.1560 C   0  0  0  0  0  0  0  0  0  0  0  0
   -3.6390   24.5300  -29.6950 C   0  0  0  0  0  0  0  0  0  0  0  0
   -4.2880   25.2160  -30.8250 N   0  0  0  0  0  0  0  0  0  0  0  0
   -5.6210   25.7130  -30.4550 C   0  0  0  0  0  0  0  0  0  0  0  0
   -6.6830   24.6160  -30.5890 C   0  0  0  0  0  0  0  0  0  0  0  0
   -6.3640   23.7130  -31.6480 O   0  0  0  0  0  0  0  0  0  0  0  0
   -6.8150   22.3870  -31.7820 C   0  0  0  0  0  0  0  0  0  0  0  0
   -7.9780   21.9010  -31.1520 C   0  0  0  0  0  0  0  0  0  0  0  0
   -8.3810   20.5750  -31.3340 C   0  0  0  0  0  0  0  0  0  0  0  0
   -7.6310   19.7130  -32.1450 C   0  0  0  0  0  0  0  0  0  0  0  0
   -8.0200   18.3750  -32.3190 C   0  0  0  0  0  0  0  0  0  0  0  0
   -7.2540   17.5220  -33.1190 C   0  0  0  0  0  0  0  0  0  0  0  0
   -6.1020   17.9970  -33.7530 C   0  0  0  0  0  0  0  0  0  0  0  0
   -5.7080   19.3290  -33.5900 C   0  0  0  0  0  0  0  0  0  0  0  0
   -6.4650   20.1940  -32.7840 C   0  0  0  0  0  0  0  0  0  0  0  0
   -6.0720   21.5270  -32.5990 C   0  0  0  0  0  0  0  0  0  0  0  0
    0.9927   21.5948  -35.7025 H   0  0  0  0  0  0  0  0  0  0  0  0
   -0.0791   20.1599  -35.8401 H   0  0  0  0  0  0  0  0  0  0  0  0
   -0.7851   21.8116  -35.8401 H   0  0  0  0  0  0  0  0  0  0  0  0
    0.3013   20.1705  -33.5467 H   0  0  0  0  0  0  0  0  0  0  0  0
    0.4465   21.9665  -33.4778 H   0  0  0  0  0  0  0  0  0  0  0  0
   -3.4082   20.4242  -34.0600 H   0  0  0  0  0  0  0  0  0  0  0  0
   -2.0394   20.0332  -35.1693 H   0  0  0  0  0  0  0  0  0  0  0  0
   -2.1515   18.9990  -32.3027 H   0  0  0  0  0  0  0  0  0  0  0  0
   -2.9151   18.1181  -33.6694 H   0  0  0  0  0  0  0  0  0  0  0  0
   -1.1433   18.4138  -33.6694 H   0  0  0  0  0  0  0  0  0  0  0  0
   -1.3964   20.2360  -31.6369 H   0  0  0  0  0  0  0  0  0  0  0  0
   -0.9885   21.9884  -31.6057 H   0  0  0  0  0  0  0  0  0  0  0  0
   -3.7859   21.2192  -32.4248 H   0  0  0  0  0  0  0  0  0  0  0  0
   -3.3511   21.0498  -30.6916 H   0  0  0  0  0  0  0  0  0  0  0  0
   -3.0355   22.4673  -29.4762 H   0  0  0  0  0  0  0  0  0  0  0  0
   -1.7678   23.5511  -30.1466 H   0  0  0  0  0  0  0  0  0  0  0  0
   -4.4128   24.2022  -28.9852 H   0  0  0  0  0  0  0  0  0  0  0  0
   -2.9417   25.2361  -29.2204 H   0  0  0  0  0  0  0  0  0  0  0  0
   -4.4240   24.4940  -31.5700 H   0  0  0  0  0  0  0  0  0  0  0  0
   -5.5963   26.0619  -29.4121 H   0  0  0  0  0  0  0  0  0  0  0  0
   -5.8851   26.5360  -31.1354 H   0  0  0  0  0  0  0  0  0  0  0  0
   -6.7401   24.0550  -29.6445 H   0  0  0  0  0  0  0  0  0  0  0  0
   -7.6479   25.0923  -30.8171 H   0  0  0  0  0  0  0  0  0  0  0  0
   -8.5728   22.5698  -30.5125 H   0  0  0  0  0  0  0  0  0  0  0  0
   -9.2912   20.2065  -30.8382 H   0  0  0  0  0  0  0  0  0  0  0  0
   -8.9279   17.9979  -31.8256 H   0  0  0  0  0  0  0  0  0  0  0  0
   -7.5588   16.4732  -33.2501 H   0  0  0  0  0  0  0  0  0  0  0  0
   -5.5038   17.3212  -34.3818 H   0  0  0  0  0  0  0  0  0  0  0  0
   -4.8033   19.6995  -34.0942 H   0  0  0  0  0  0  0  0  0  0  0  0
   -5.1685   21.9017  -33.1022 H   0  0  0  0  0  0  0  0  0  0  0  0
  1  2  1  0
  2  3  1  0
  3  4  1  0
  4  5  1  0
  3  6  1  0
  6  7  1  0
  7  8  1  0
  8  9  1  0
  9 10  1  0
 10 11  1  0
 11 12  1  0
 12 13  1  0
 13 14  1  0
 14 15  1  0
 15 16  2  0
 16 17  1  0
 17 18  2  0
 18 19  1  0
 19 20  2  0
 20 21  1  0
 21 22  2  0
 22 23  1  0
 23 24  2  0
 24 15  1  0
 23 18  1  0
  1 25  1  0
  1 26  1  0
  1 27  1  0
  2 28  1  0
  2 29  1  0
  4 30  1  0
  4 31  1  0
  5 32  1  0
  5 33  1  0
  5 34  1  0
  6 35  1  0
  6 36  1  0
  7 37  1  0
  7 38  1  0
  9 39  1  0
  9 40  1  0
 10 41  1  0
 10 42  1  0
 11 43  1  0
 12 44  1  0
 12 45  1  0
 13 46  1  0
 13 47  1  0
 16 48  1  0
 17 49  1  0
 19 50  1  0
 20 51  1  0
 21 52  1  0
 22 53  1  0
 24 54  1  0
M  END
>  <UniqueID>  (26) 
25

>  <SMILES>  (26) 
CCN(CC)CCOCCNCCOc1ccc2ccccc2c1

>  <Energy>  (26) 
45.86778498884542

>  <Genealogy>  (26) 
CCN(CC)CCOCCNCCOc1ccc2ccccc2c1 (3D coordinates assigned)
CCN(CC)CCOCCNCCOc1ccc2ccccc2c1 (optimized conformer: 45.86778498884542 kcal/mol)

>  <smiles>  (26) 
CCN(CC)CCOCCNCCOc1ccc2ccccc2c1

>  <score_type>  (26) 
oracle

>  <origin>  (26) 
adg

>  <m_score__min__energy>  (26) 
-7.9299999999999997

>  <m_primary>  (26) 
energy

$$$$
26:0
     RDKit          3D

 52 54  0  0  0  0  0  0  0  0999 V2000
   -2.9330   21.2170  -29.7740 C   0  0  0  0  0  0  0  0  0  0  0  0
   -1.6750   22.0700  -29.9410 C   0  0  0  0  0  0  0  0  0  0  0  0
   -1.3600   22.9170  -28.6960 C   0  0  0  0  0  0  0  0  0  0  0  0
   -0.8650   24.3300  -29.0260 C   0  0  0  0  0  0  0  0  0  0  0  0
   -1.9870   25.2570  -29.1090 N   0  0  0  0  0  0  0  0  0  0  0  0
   -3.3230   24.8310  -29.3820 C   0  0  0  0  0  0  0  0  0  0  0  0
   -3.9540   24.1400  -28.5370 O   0  0  0  0  0  0  0  0  0  0  0  0
   -3.9430   25.2060  -30.6150 N   0  0  0  0  0  0  0  0  0  0  0  0
   -5.3550   24.9320  -30.8760 C   0  0  0  0  0  0  0  0  0  0  0  0
   -5.6340   23.4260  -30.9270 C   0  0  0  0  0  0  0  0  0  0  0  0
   -5.6840   22.9310  -32.3080 N   0  0  0  0  0  0  0  0  0  0  0  0
   -5.6460   21.5270  -32.6260 C   0  0  0  0  0  0  0  0  0  0  0  0
   -6.8090   20.7470  -32.4920 C   0  0  0  0  0  0  0  0  0  0  0  0
   -8.0460   21.3460  -32.1720 C   0  0  0  0  0  0  0  0  0  0  0  0
   -9.1780   20.5680  -31.9450 C   0  0  0  0  0  0  0  0  0  0  0  0
   -9.0960   19.1840  -32.0200 C   0  0  0  0  0  0  0  0  0  0  0  0
   -7.8920   18.5700  -32.3670 C   0  0  0  0  0  0  0  0  0  0  0  0
   -6.7340   19.3380  -32.6590 C   0  0  0  0  0  0  0  0  0  0  0  0
   -5.5540   18.7480  -33.0740 N   0  0  0  0  0  0  0  0  0  0  0  0
   -5.5480   17.3330  -33.5070 C   0  0  0  0  0  0  0  0  0  0  0  0
   -4.3890   19.4930  -33.1320 C   0  0  0  0  0  0  0  0  0  0  0  0
   -3.1230   18.8850  -33.3420 C   0  0  0  0  0  0  0  0  0  0  0  0
   -1.9710   19.6560  -33.4950 C   0  0  0  0  0  0  0  0  0  0  0  0
   -2.0450   21.0420  -33.4420 C   0  0  0  0  0  0  0  0  0  0  0  0
   -3.2640   21.6650  -33.1820 C   0  0  0  0  0  0  0  0  0  0  0  0
   -4.4330   20.9040  -32.9710 C   0  0  0  0  0  0  0  0  0  0  0  0
   -3.1409   21.0760  -28.7031 H   0  0  0  0  0  0  0  0  0  0  0  0
   -3.7856   21.7240  -30.2494 H   0  0  0  0  0  0  0  0  0  0  0  0
   -2.7775   20.2373  -30.2494 H   0  0  0  0  0  0  0  0  0  0  0  0
   -0.8221   21.4038  -30.1379 H   0  0  0  0  0  0  0  0  0  0  0  0
   -1.8529   22.7627  -30.7768 H   0  0  0  0  0  0  0  0  0  0  0  0
   -2.2752   23.0011  -28.0916 H   0  0  0  0  0  0  0  0  0  0  0  0
   -0.5482   22.4080  -28.1557 H   0  0  0  0  0  0  0  0  0  0  0  0
   -0.1756   24.6656  -28.2373 H   0  0  0  0  0  0  0  0  0  0  0  0
   -0.3483   24.3085  -29.9969 H   0  0  0  0  0  0  0  0  0  0  0  0
   -3.3690   25.7240  -31.3210 H   0  0  0  0  0  0  0  0  0  0  0  0
   -5.9604   25.3809  -30.0748 H   0  0  0  0  0  0  0  0  0  0  0  0
   -5.6161   25.3650  -31.8529 H   0  0  0  0  0  0  0  0  0  0  0  0
   -4.8351   22.8967  -30.3870 H   0  0  0  0  0  0  0  0  0  0  0  0
   -6.6130   23.2420  -30.4605 H   0  0  0  0  0  0  0  0  0  0  0  0
   -5.8530   23.6150  -33.0790 H   0  0  0  0  0  0  0  0  0  0  0  0
   -8.1167   22.4414  -32.1010 H   0  0  0  0  0  0  0  0  0  0  0  0
  -10.1376   21.0499  -31.7062 H   0  0  0  0  0  0  0  0  0  0  0  0
   -9.9829   18.5697  -31.8052 H   0  0  0  0  0  0  0  0  0  0  0  0
   -7.8391   17.4723  -32.4152 H   0  0  0  0  0  0  0  0  0  0  0  0
   -5.5452   16.6789  -32.6226 H   0  0  0  0  0  0  0  0  0  0  0  0
   -6.4453   17.1303  -34.1101 H   0  0  0  0  0  0  0  0  0  0  0  0
   -4.6490   17.1379  -34.1101 H   0  0  0  0  0  0  0  0  0  0  0  0
   -3.0498   17.7883  -33.3847 H   0  0  0  0  0  0  0  0  0  0  0  0
   -1.0004   19.1648  -33.6582 H   0  0  0  0  0  0  0  0  0  0  0  0
   -1.1414   21.6477  -33.6053 H   0  0  0  0  0  0  0  0  0  0  0  0
   -3.3154   22.7630  -33.1408 H   0  0  0  0  0  0  0  0  0  0  0  0
  1  2  1  0
  2  3  1  0
  3  4  1  0
  4  5  1  0
  5  6  1  0
  6  7  2  0
  6  8  1  0
  8  9  1  0
  9 10  1  0
 10 11  1  0
 11 12  1  0
 12 13  2  0
 13 14  1  0
 14 15  2  0
 15 16  1  0
 16 17  2  0
 17 18  1  0
 18 19  2  0
 19 20  1  0
 19 21  1  0
 21 22  2  0
 22 23  1  0
 23 24  2  0
 24 25  1  0
 25 26  2  0
 26 12  1  0
 18 13  1  0
 26 21  1  0
  1 27  1  0
  1 28  1  0
  1 29  1  0
  2 30  1  0
  2 31  1  0
  3 32  1  0
  3 33  1  0
  4 34  1  0
  4 35  1  0
  8 36  1  0
  9 37  1  0
  9 38  1  0
 10 39  1  0
 10 40  1  0
 11 41  1  0
 14 42  1  0
 15 43  1  0
 16 44  1  0
 17 45  1  0
 20 46  1  0
 20 47  1  0
 20 48  1  0
 22 49  1  0
 23 50  1  0
 24 51  1  0
 25 52  1  0
M  CHG  2   5  -1  19   1
M  END
>  <UniqueID>  (27) 
26

>  <SMILES>  (27) 
CCCC[N-]C(=O)NCCNc1c2ccccc2[n+](C)c2ccccc12

>  <Energy>  (27) 
65.80283716499497

>  <Genealogy>  (27) 
CCCC[N-]C(=O)NCCNc1c2ccccc2[n+](C)c2ccccc12 (protonated)
CCCC[N-]C(=O)NCCNc1c2ccccc2[n+](C)c2ccccc12 (3D coordinates assigned)
CCCC[N-]C(=O)NCCNc1c2ccccc2[n+](C)c2ccccc12 (optimized conformer: 65.80283716499497 kcal/mol)

>  <smiles>  (27) 
CCCCNC(=O)NCCNc1c2ccccc2[n+](C)c2ccccc12

>  <score_type>  (27) 
oracle

>  <origin>  (27) 
adg

>  <m_score__min__energy>  (27) 
-10.16

>  <m_primary>  (27) 
energy

$$$$
