0:0
     RDKit          3D

 36 38  0  0  0  0  0  0  0  0999 V2000
   -1.9610   24.9310  -28.2060 C   0  0  0  0  0  0  0  0  0  0  0  0
   -2.7270   25.2970  -29.3490 O   0  0  0  0  0  0  0  0  0  0  0  0
   -3.8320   24.5780  -29.8250 C   0  0  0  0  0  0  0  0  0  0  0  0
   -5.0680   25.1910  -30.1070 C   0  0  0  0  0  0  0  0  0  0  0  0
   -6.1410   24.4290  -30.5810 C   0  0  0  0  0  0  0  0  0  0  0  0
   -5.9990   23.0470  -30.7810 C   0  0  0  0  0  0  0  0  0  0  0  0
   -7.1370   22.2480  -31.2820 C   0  0  0  0  0  0  0  0  0  0  0  0
   -7.0450   20.9450  -31.6270 N   0  0  0  0  0  0  0  0  0  0  0  0
   -8.2960   20.6470  -32.0230 C   0  0  0  0  0  0  0  0  0  0  0  0
   -8.7410   19.2810  -32.4370 C   0  0  0  0  0  0  0  0  0  0  0  0
   -7.5780   18.4670  -32.7790 N   0  0  0  0  0  0  0  0  0  0  0  0
   -7.0480   17.4840  -32.0250 C   0  0  0  0  0  0  0  0  0  0  0  0
   -5.9170   17.0200  -32.6680 C   0  0  0  0  0  0  0  0  0  0  0  0
   -5.0460   15.8830  -32.2470 C   0  0  0  0  0  0  0  0  0  0  0  0
   -5.8150   17.7620  -33.8300 C   0  0  0  0  0  0  0  0  0  0  0  0
   -6.8330   18.6420  -33.8590 N   0  0  0  0  0  0  0  0  0  0  0  0
   -9.1020   21.7540  -31.8870 C   0  0  0  0  0  0  0  0  0  0  0  0
   -8.3540   22.7270  -31.4340 O   0  0  0  0  0  0  0  0  0  0  0  0
   -4.7650   22.4380  -30.5000 C   0  0  0  0  0  0  0  0  0  0  0  0
   -3.6930   23.1990  -30.0260 C   0  0  0  0  0  0  0  0  0  0  0  0
   -2.5150   25.1957  -27.2933 H   0  0  0  0  0  0  0  0  0  0  0  0
   -1.7753   23.8469  -28.2208 H   0  0  0  0  0  0  0  0  0  0  0  0
   -1.0009   25.4677  -28.2208 H   0  0  0  0  0  0  0  0  0  0  0  0
   -5.1902   26.2734  -29.9539 H   0  0  0  0  0  0  0  0  0  0  0  0
   -7.1029   24.9163  -30.7985 H   0  0  0  0  0  0  0  0  0  0  0  0
   -9.2876   18.8076  -31.6080 H   0  0  0  0  0  0  0  0  0  0  0  0
   -9.3992   19.3627  -33.3146 H   0  0  0  0  0  0  0  0  0  0  0  0
   -7.4454   17.1163  -31.0675 H   0  0  0  0  0  0  0  0  0  0  0  0
   -5.0099   15.8359  -31.1486 H   0  0  0  0  0  0  0  0  0  0  0  0
   -5.4561   14.9415  -32.6411 H   0  0  0  0  0  0  0  0  0  0  0  0
   -4.0302   16.0338  -32.6411 H   0  0  0  0  0  0  0  0  0  0  0  0
   -5.0359   17.6521  -34.5987 H   0  0  0  0  0  0  0  0  0  0  0  0
   -7.0140   19.3510  -34.6040 H   0  0  0  0  0  0  0  0  0  0  0  0
  -10.1763   21.8103  -32.1167 H   0  0  0  0  0  0  0  0  0  0  0  0
   -4.6416   21.3558  -30.6539 H   0  0  0  0  0  0  0  0  0  0  0  0
   -2.7316   22.7106  -29.8089 H   0  0  0  0  0  0  0  0  0  0  0  0
  1  2  1  0
  2  3  1  0
  3  4  2  0
  4  5  1  0
  5  6  2  0
  6  7  1  0
  7  8  2  0
  8  9  1  0
  9 10  1  0
 10 11  1  0
 11 12  1  0
 12 13  2  0
 13 14  1  0
 13 15  1  0
 15 16  2  0
  9 17  2  0
 17 18  1  0
  6 19  1  0
 19 20  2  0
 20  3  1  0
 18  7  1  0
 16 11  1  0
  1 21  1  0
  1 22  1  0
  1 23  1  0
  4 24  1  0
  5 25  1  0
 10 26  1  0
 10 27  1  0
 12 28  1  0
 14 29  1  0
 14 30  1  0
 14 31  1  0
 15 32  1  0
 16 33  1  0
 17 34  1  0
 19 35  1  0
 20 36  1  0
M  CHG  1  16   1
M  END
>  <UniqueID>  (1) 
1

>  <SMILES>  (1) 
COc1ccc(-c2nc(Cn3cc(C)c[nH+]3)co2)cc1

>  <Energy>  (1) 
93.92076157334235

>  <Genealogy>  (1) 
COc1ccc(-c2nc(Cn3cc(C)c[nH+]3)co2)cc1 (protonated)
COc1ccc(-c2nc(Cn3cc(C)c[nH+]3)co2)cc1 (3D coordinates assigned)
COc1ccc(-c2nc(Cn3cc(C)c[nH+]3)co2)cc1 (optimized conformer: 93.92076157334235 kcal/mol)

>  <smiles>  (1) 
COc1ccc(-c2nc(Cn3cc(C)cn3)co2)cc1

>  <score_type>  (1) 
oracle

>  <origin>  (1) 
adg

>  <m_score__min__energy>  (1) 
-7.4000000000000004

>  <m_primary>  (1) 
energy

$$$$
1:0
     RDKit          3D

 40 42  0  0  0  0  0  0  0  0999 V2000
   -8.7110   18.9790  -31.7860 C   0  0  0  0  0  0  0  0  0  0  0  0
   -8.3240   20.2650  -32.5210 C   0  0  0  0  0  0  0  0  0  0  0  0
   -8.6420   21.4990  -31.6720 C   0  0  0  0  0  0  0  0  0  0  0  0
   -6.8660   20.2440  -32.8850 C   0  0  0  0  0  0  0  0  0  0  0  0
   -6.2750   19.2450  -33.5710 N   0  0  0  0  0  0  0  0  0  0  0  0
   -5.0290   19.5950  -33.6590 O   0  0  0  0  0  0  0  0  0  0  0  0
   -4.8510   20.7480  -33.0610 C   0  0  0  0  0  0  0  0  0  0  0  0
   -3.5200   21.4570  -32.9430 C   0  0  2  0  0  0  0  0  0  0  0  0
   -2.4860   20.7990  -33.8500 C   0  0  0  0  0  0  0  0  0  0  0  0
   -1.7590   19.8010  -32.9580 C   0  0  0  0  0  0  0  0  0  0  0  0
   -2.1830   20.1350  -31.5300 C   0  0  0  0  0  0  0  0  0  0  0  0
   -2.9440   21.3900  -31.5900 N   0  0  0  0  0  0  0  0  0  0  0  0
   -3.9150   21.5480  -30.4900 C   0  0  0  0  0  0  0  0  0  0  0  0
   -4.3650   22.9720  -30.4010 C   0  0  0  0  0  0  0  0  0  0  0  0
   -5.4080   23.4580  -29.6460 C   0  0  0  0  0  0  0  0  0  0  0  0
   -5.4890   24.7680  -29.9330 N   0  0  0  0  0  0  0  0  0  0  0  0
   -6.4910   25.7040  -29.4430 C   0  0  0  0  0  0  0  0  0  0  0  0
   -4.5680   25.0620  -30.8380 N   0  0  0  0  0  0  0  0  0  0  0  0
   -3.8630   23.9800  -31.1420 N   0  0  0  0  0  0  0  0  0  0  0  0
   -6.0000   21.2190  -32.5380 N   0  0  0  0  0  0  0  0  0  0  0  0
   -8.6602   19.1478  -30.7002 H   0  0  0  0  0  0  0  0  0  0  0  0
   -9.7355   18.6914  -32.0648 H   0  0  0  0  0  0  0  0  0  0  0  0
   -8.0154   18.1738  -32.0648 H   0  0  0  0  0  0  0  0  0  0  0  0
   -8.9183   20.3211  -33.4449 H   0  0  0  0  0  0  0  0  0  0  0  0
   -8.5747   21.2377  -30.6056 H   0  0  0  0  0  0  0  0  0  0  0  0
   -7.9202   22.2970  -31.9002 H   0  0  0  0  0  0  0  0  0  0  0  0
   -9.6596   21.8488  -31.9002 H   0  0  0  0  0  0  0  0  0  0  0  0
   -3.7294   22.5020  -33.2151 H   0  0  0  0  0  0  0  0  0  0  0  0
   -2.9785   20.2825  -34.6870 H   0  0  0  0  0  0  0  0  0  0  0  0
   -1.7986   21.5337  -34.2946 H   0  0  0  0  0  0  0  0  0  0  0  0
   -2.0532   18.7726  -33.2145 H   0  0  0  0  0  0  0  0  0  0  0  0
   -0.6680   19.8660  -33.0825 H   0  0  0  0  0  0  0  0  0  0  0  0
   -2.8137   19.3298  -31.1252 H   0  0  0  0  0  0  0  0  0  0  0  0
   -1.3059   20.2389  -30.8744 H   0  0  0  0  0  0  0  0  0  0  0  0
   -4.7857   20.9025  -30.6779 H   0  0  0  0  0  0  0  0  0  0  0  0
   -3.4346   21.2627  -29.5424 H   0  0  0  0  0  0  0  0  0  0  0  0
   -6.0443   22.8907  -28.9508 H   0  0  0  0  0  0  0  0  0  0  0  0
   -6.4883   25.7015  -28.3430 H   0  0  0  0  0  0  0  0  0  0  0  0
   -6.2577   26.7152  -29.8079 H   0  0  0  0  0  0  0  0  0  0  0  0
   -7.4839   25.4025  -29.8079 H   0  0  0  0  0  0  0  0  0  0  0  0
  1  2  1  0
  2  3  1  0
  2  4  1  0
  4  5  2  0
  5  6  1  0
  6  7  1  0
  7  8  1  0
  8  9  1  0
  9 10  1  0
 10 11  1  0
 11 12  1  0
 12 13  1  0
 13 14  1  0
 14 15  2  0
 15 16  1  0
 16 17  1  0
 16 18  1  0
 18 19  2  0
  7 20  2  0
 20  4  1  0
 12  8  1  0
 19 14  1  0
  1 21  1  0
  1 22  1  0
  1 23  1  0
  2 24  1  0
  3 25  1  0
  3 26  1  0
  3 27  1  0
  8 28  1  6
  9 29  1  0
  9 30  1  0
 10 31  1  0
 10 32  1  0
 11 33  1  0
 11 34  1  0
 13 35  1  0
 13 36  1  0
 15 37  1  0
 17 38  1  0
 17 39  1  0
 17 40  1  0
M  END
>  <UniqueID>  (2) 
2

>  <SMILES>  (2) 
CC(C)c1noc([C@@H]2CCCN2Cc2cn(C)nn2)n1

>  <Energy>  (2) 
106.74767489775019

>  <Genealogy>  (2) 
CC(C)c1noc([C@@H]2CCCN2Cc2cn(C)nn2)n1 (chirality)
CC(C)c1noc([C@@H]2CCCN2Cc2cn(C)nn2)n1 (3D coordinates assigned)
CC(C)c1noc([C@@H]2CCCN2Cc2cn(C)nn2)n1 (nonaromatic ring conformer: 106.74767489775019 kcal/mol)

>  <smiles>  (2) 
CC(C)c1noc(C2CCCN2Cc2cn(C)nn2)n1

>  <score_type>  (2) 
oracle

>  <origin>  (2) 
adg

>  <m_score__min__energy>  (2) 
-8.1799999999999997

>  <m_primary>  (2) 
energy

$$$$
2:0
     RDKit          3D

 26 27  0  0  0  0  0  0  0  0999 V2000
   -8.7710   18.5350  -31.2490 C   0  0  0  0  0  0  0  0  0  0  0  0
   -8.6890   19.2850  -32.5760 C   0  0  0  0  0  0  0  0  0  0  0  0
   -7.6180   20.2920  -32.5370 N   0  0  0  0  0  0  0  0  0  0  0  0
   -7.9830   21.7010  -32.3310 C   0  0  0  0  0  0  0  0  0  0  0  0
   -6.8310   22.4690  -31.7480 C   0  0  0  0  0  0  0  0  0  0  0  0
   -7.0540   23.5680  -30.9050 C   0  0  0  0  0  0  0  0  0  0  0  0
   -5.9730   24.2930  -30.3940 C   0  0  0  0  0  0  0  0  0  0  0  0
   -6.2550   25.6620  -29.3350 Cl  0  0  0  0  0  0  0  0  0  0  0  0
   -4.6660   23.9330  -30.7380 C   0  0  0  0  0  0  0  0  0  0  0  0
   -4.4380   22.8500  -31.5900 C   0  0  0  0  0  0  0  0  0  0  0  0
   -5.5160   22.1010  -32.0940 C   0  0  0  0  0  0  0  0  0  0  0  0
   -5.2820   21.0300  -33.0330 N   0  0  0  0  0  0  0  0  0  0  0  0
   -6.2420   19.9680  -32.8560 C   0  0  0  0  0  0  0  0  0  0  0  0
   -5.7800   18.4200  -33.1710 S   0  0  0  0  0  0  0  0  0  0  0  0
   -8.6927   19.2511  -30.4177 H   0  0  0  0  0  0  0  0  0  0  0  0
   -9.7325   18.0044  -31.1865 H   0  0  0  0  0  0  0  0  0  0  0  0
   -7.9469   17.8091  -31.1865 H   0  0  0  0  0  0  0  0  0  0  0  0
   -8.4816   18.5680  -33.3841 H   0  0  0  0  0  0  0  0  0  0  0  0
   -9.6475   19.7940  -32.7551 H   0  0  0  0  0  0  0  0  0  0  0  0
   -8.2618   22.1466  -33.2973 H   0  0  0  0  0  0  0  0  0  0  0  0
   -8.8296   21.7478  -31.6302 H   0  0  0  0  0  0  0  0  0  0  0  0
   -8.0822   23.8602  -30.6453 H   0  0  0  0  0  0  0  0  0  0  0  0
   -3.8158   24.5040  -30.3367 H   0  0  0  0  0  0  0  0  0  0  0  0
   -3.4083   22.5812  -31.8686 H   0  0  0  0  0  0  0  0  0  0  0  0
   -5.3760   21.4080  -34.0030 H   0  0  0  0  0  0  0  0  0  0  0  0
   -4.3140   20.6510  -32.9060 H   0  0  0  0  0  0  0  0  0  0  0  0
  1  2  1  0
  2  3  1  0
  3  4  1  0
  4  5  1  0
  5  6  2  0
  6  7  1  0
  7  8  1  0
  7  9  2  0
  9 10  1  0
 10 11  2  0
 11 12  1  0
 12 13  1  0
 13 14  2  0
 13  3  1  0
 11  5  1  0
  1 15  1  0
  1 16  1  0
  1 17  1  0
  2 18  1  0
  2 19  1  0
  4 20  1  0
  4 21  1  0
  6 22  1  0
  9 23  1  0
 10 24  1  0
 12 25  1  0
 12 26  1  0
M  CHG  1  12   1
M  END
>  <UniqueID>  (3) 
3

>  <SMILES>  (3) 
CCN1Cc2cc(Cl)ccc2[NH2+]C1=S

>  <Energy>  (3) 
28.81484163766585

>  <Genealogy>  (3) 
CCN1Cc2cc(Cl)ccc2[NH2+]C1=S (protonated)
CCN1Cc2cc(Cl)ccc2[NH2+]C1=S (3D coordinates assigned)
CCN1Cc2cc(Cl)ccc2[NH2+]C1=S (nonaromatic ring conformer: 28.81484163766585 kcal/mol)

>  <smiles>  (3) 
CCN1Cc2cc(Cl)ccc2NC1=S

>  <score_type>  (3) 
oracle

>  <origin>  (3) 
adg

>  <m_score__min__energy>  (3) 
-5.8799999999999999

>  <m_primary>  (3) 
energy

$$$$
3:0
     RDKit          3D

 56 55  0  0  0  0  0  0  0  0999 V2000
   -4.2950   18.9360  -33.7710 C   0  0  0  0  0  0  0  0  0  0  0  0
   -5.7380   18.7830  -34.2470 C   0  0  0  0  0  0  0  0  0  0  0  0
   -6.2820   17.3790  -33.9280 C   0  0  0  0  0  0  0  0  0  0  0  0
   -7.2340   17.3750  -32.7130 C   0  0  0  0  0  0  0  0  0  0  0  0
   -7.4310   18.7600  -32.0610 C   0  0  0  0  0  0  0  0  0  0  0  0
   -8.8940   19.0780  -31.6710 C   0  0  0  0  0  0  0  0  0  0  0  0
   -9.4170   20.3860  -32.2960 C   0  0  0  0  0  0  0  0  0  0  0  0
   -9.4130   21.5550  -31.2920 C   0  0  0  0  0  0  0  0  0  0  0  0
   -8.8970   22.8640  -31.9120 C   0  0  0  0  0  0  0  0  0  0  0  0
   -7.4500   23.1960  -31.5080 C   0  0  0  0  0  0  0  0  0  0  0  0
   -6.5900   21.9210  -31.3680 C   0  0  0  0  0  0  0  0  0  0  0  0
   -5.5310   21.7540  -32.4710 C   0  0  0  0  0  0  0  0  0  0  0  0
   -4.2990   22.6660  -32.3280 C   0  0  0  0  0  0  0  0  0  0  0  0
   -3.7730   22.8220  -30.8880 C   0  0  0  0  0  0  0  0  0  0  0  0
   -4.2050   24.1120  -30.2280 C   0  0  0  0  0  0  0  0  0  0  0  0
   -3.9100   25.1830  -30.7390 O   0  0  0  0  0  0  0  0  0  0  0  0
   -4.9160   24.0990  -28.9000 C   0  0  0  0  0  0  0  0  0  0  0  0
   -3.9700   23.8030  -27.7670 C   0  0  0  0  0  0  0  0  0  0  0  0
   -3.7990   22.6040  -27.4200 O   0  0  0  0  0  0  0  0  0  0  0  0
   -3.2720   24.8340  -27.0480 N   0  0  0  0  0  0  0  0  0  0  0  0
   -1.9840   24.9250  -26.9150 C   0  0  0  0  0  0  0  0  0  0  0  0
   -1.1480   25.2550  -28.0720 C   0  0  0  0  0  0  0  0  0  0  0  0
   -1.5890   26.0300  -28.9600 O   0  0  0  0  0  0  0  0  0  0  0  0
    0.1310   24.7230  -28.1980 O   0  0  0  0  0  0  0  0  0  0  0  0
   -4.2700   18.9387  -32.6713 H   0  0  0  0  0  0  0  0  0  0  0  0
   -3.6931   18.0966  -34.1494 H   0  0  0  0  0  0  0  0  0  0  0  0
   -3.8825   19.8829  -34.1494 H   0  0  0  0  0  0  0  0  0  0  0  0
   -6.3640   19.5338  -33.7425 H   0  0  0  0  0  0  0  0  0  0  0  0
   -5.7629   18.9274  -35.3372 H   0  0  0  0  0  0  0  0  0  0  0  0
   -6.8292   17.0050  -34.8059 H   0  0  0  0  0  0  0  0  0  0  0  0
   -5.4238   16.7364  -33.6818 H   0  0  0  0  0  0  0  0  0  0  0  0
   -8.2160   17.0069  -33.0450 H   0  0  0  0  0  0  0  0  0  0  0  0
   -6.7728   16.7291  -31.9514 H   0  0  0  0  0  0  0  0  0  0  0  0
   -6.8147   18.8031  -31.1508 H   0  0  0  0  0  0  0  0  0  0  0  0
   -7.1361   19.5068  -32.8128 H   0  0  0  0  0  0  0  0  0  0  0  0
   -9.5339   18.2491  -32.0077 H   0  0  0  0  0  0  0  0  0  0  0  0
   -8.9218   19.2031  -30.5785 H   0  0  0  0  0  0  0  0  0  0  0  0
   -8.7766   20.6509  -33.1503 H   0  0  0  0  0  0  0  0  0  0  0  0
  -10.4570   20.2164  -32.6117 H   0  0  0  0  0  0  0  0  0  0  0  0
  -10.4406   21.7156  -30.9340 H   0  0  0  0  0  0  0  0  0  0  0  0
   -8.7346   21.2856  -30.4691 H   0  0  0  0  0  0  0  0  0  0  0  0
   -8.9424   22.7739  -33.0074 H   0  0  0  0  0  0  0  0  0  0  0  0
   -9.5360   23.6774  -31.5379 H   0  0  0  0  0  0  0  0  0  0  0  0
   -7.0046   23.8438  -32.2774 H   0  0  0  0  0  0  0  0  0  0  0  0
   -7.4738   23.7028  -30.5320 H   0  0  0  0  0  0  0  0  0  0  0  0
   -6.0747   21.9567  -30.3968 H   0  0  0  0  0  0  0  0  0  0  0  0
   -7.2754   21.0649  -31.4538 H   0  0  0  0  0  0  0  0  0  0  0  0
   -5.1865   20.7094  -32.4590 H   0  0  0  0  0  0  0  0  0  0  0  0
   -6.0194   22.0397  -33.4143 H   0  0  0  0  0  0  0  0  0  0  0  0
   -3.4899   22.2469  -32.9442 H   0  0  0  0  0  0  0  0  0  0  0  0
   -4.6169   23.6682  -32.6514 H   0  0  0  0  0  0  0  0  0  0  0  0
   -4.1473   21.9803  -30.2868 H   0  0  0  0  0  0  0  0  0  0  0  0
   -2.6745   22.8371  -30.9431 H   0  0  0  0  0  0  0  0  0  0  0  0
   -5.3767   25.0837  -28.7322 H   0  0  0  0  0  0  0  0  0  0  0  0
   -5.6791   23.3072  -28.9264 H   0  0  0  0  0  0  0  0  0  0  0  0
   -1.5197   24.7542  -25.9325 H   0  0  0  0  0  0  0  0  0  0  0  0
  1  2  1  0
  2  3  1  0
  3  4  1  0
  4  5  1  0
  5  6  1  0
  6  7  1  0
  7  8  1  0
  8  9  1  0
  9 10  1  0
 10 11  1  0
 11 12  1  0
 12 13  1  0
 13 14  1  0
 14 15  1  0
 15 16  2  0
 15 17  1  0
 17 18  1  0
 18 19  2  0
 18 20  1  0
 20 21  2  3
 21 22  1  0
 22 23  2  0
 22 24  1  0
  1 25  1  0
  1 26  1  0
  1 27  1  0
  2 28  1  0
  2 29  1  0
  3 30  1  0
  3 31  1  0
  4 32  1  0
  4 33  1  0
  5 34  1  0
  5 35  1  0
  6 36  1  0
  6 37  1  0
  7 38  1  0
  7 39  1  0
  8 40  1  0
  8 41  1  0
  9 42  1  0
  9 43  1  0
 10 44  1  0
 10 45  1  0
 11 46  1  0
 11 47  1  0
 12 48  1  0
 12 49  1  0
 13 50  1  0
 13 51  1  0
 14 52  1  0
 14 53  1  0
 17 54  1  0
 17 55  1  0
 21 56  1  0
M  CHG  1  24  -1
M  END
>  <UniqueID>  (4) 
4

>  <SMILES>  (4) 
CCCCCCCCCCCCCCC(=O)CC(=O)N=CC(=O)[O-]

>  <Energy>  (4) 
31.5080894972692

>  <Genealogy>  (4) 
CCCCCCCCCCCCCCC(=O)CC(=O)N=CC(=O)[O-] (protonated)
CCCCCCCCCCCCCCC(=O)CC(=O)N=CC(=O)[O-] (3D coordinates assigned)
CCCCCCCCCCCCCCC(=O)CC(=O)N=CC(=O)[O-] (optimized conformer: 31.5080894972692 kcal/mol)

>  <smiles>  (4) 
CCCCCCCCCCCCCCC(=O)CC(=O)N=CC(=O)O

>  <score_type>  (4) 
oracle

>  <origin>  (4) 
adg

>  <m_score__min__energy>  (4) 
-9.6999999999999993

>  <m_primary>  (4) 
energy

$$$$
4:0
     RDKit          3D

 39 42  0  0  0  0  0  0  0  0999 V2000
   -6.4090   16.6800  -33.0870 C   0  0  0  0  0  0  0  0  0  0  0  0
   -6.7150   18.0910  -32.7140 C   0  0  0  0  0  0  0  0  0  0  0  0
   -5.7210   18.9160  -32.2870 N   0  0  0  0  0  0  0  0  0  0  0  0
   -5.9820   20.1710  -31.9170 N   0  0  0  0  0  0  0  0  0  0  0  0
   -7.2480   20.6590  -31.9530 C   0  0  0  0  0  0  0  0  0  0  0  0
   -7.5620   21.9690  -31.5640 C   0  0  0  0  0  0  0  0  0  0  0  0
   -6.5460   22.8860  -31.1260 N   0  0  0  0  0  0  0  0  0  0  0  0
   -5.2440   22.9350  -31.7970 C   0  0  0  0  0  0  0  0  0  0  0  0
   -4.1350   23.0530  -30.7510 C   0  0  0  0  0  0  0  0  0  0  0  0
   -4.4230   24.1180  -29.7760 N   0  0  0  0  0  0  0  0  0  0  0  0
   -3.3820   24.5050  -28.8550 C   0  0  0  0  0  0  0  0  0  0  0  0
   -3.5910   24.4930  -27.4630 C   0  0  0  0  0  0  0  0  0  0  0  0
   -2.5590   24.8870  -26.6090 C   0  0  0  0  0  0  0  0  0  0  0  0
   -1.3350   25.2960  -27.1380 C   0  0  0  0  0  0  0  0  0  0  0  0
   -1.1620   25.3100  -28.5230 C   0  0  0  0  0  0  0  0  0  0  0  0
   -2.1780   24.9210  -29.3400 N   0  0  0  0  0  0  0  0  0  0  0  0
   -5.7110   24.8320  -29.8150 C   0  0  0  0  0  0  0  0  0  0  0  0
   -6.8710   23.8600  -30.0770 C   0  0  0  0  0  0  0  0  0  0  0  0
   -8.8650   22.3650  -31.5740 N   0  0  0  0  0  0  0  0  0  0  0  0
   -9.8580   21.5280  -31.9750 C   0  0  0  0  0  0  0  0  0  0  0  0
   -9.5670   20.2590  -32.3690 N   0  0  0  0  0  0  0  0  0  0  0  0
   -8.2860   19.8120  -32.3630 C   0  0  0  0  0  0  0  0  0  0  0  0
   -7.9980   18.5400  -32.7360 N   0  0  0  0  0  0  0  0  0  0  0  0
   -6.2788   16.0795  -32.1746 H   0  0  0  0  0  0  0  0  0  0  0  0
   -7.2390   16.2695  -33.6808 H   0  0  0  0  0  0  0  0  0  0  0  0
   -5.4835   16.6502  -33.6808 H   0  0  0  0  0  0  0  0  0  0  0  0
   -5.0988   22.0155  -32.3830 H   0  0  0  0  0  0  0  0  0  0  0  0
   -5.2098   23.8066  -32.4672 H   0  0  0  0  0  0  0  0  0  0  0  0
   -4.0436   22.0954  -30.2175 H   0  0  0  0  0  0  0  0  0  0  0  0
   -3.1977   23.3041  -31.2691 H   0  0  0  0  0  0  0  0  0  0  0  0
   -4.5603   24.1755  -27.0510 H   0  0  0  0  0  0  0  0  0  0  0  0
   -2.7112   24.8748  -25.5197 H   0  0  0  0  0  0  0  0  0  0  0  0
   -0.5157   25.6039  -26.4717 H   0  0  0  0  0  0  0  0  0  0  0  0
   -0.2038   25.6357  -28.9541 H   0  0  0  0  0  0  0  0  0  0  0  0
   -5.8734   25.3342  -28.8499 H   0  0  0  0  0  0  0  0  0  0  0  0
   -5.6792   25.5682  -30.6317 H   0  0  0  0  0  0  0  0  0  0  0  0
   -7.0972   23.3180  -29.1469 H   0  0  0  0  0  0  0  0  0  0  0  0
   -7.7369   24.4478  -30.4156 H   0  0  0  0  0  0  0  0  0  0  0  0
  -10.9008   21.8781  -31.9809 H   0  0  0  0  0  0  0  0  0  0  0  0
  1  2  1  0
  2  3  2  0
  3  4  1  0
  4  5  2  0
  5  6  1  0
  6  7  1  0
  7  8  1  0
  8  9  1  0
  9 10  1  0
 10 11  1  0
 11 12  2  0
 12 13  1  0
 13 14  2  0
 14 15  1  0
 15 16  2  0
 10 17  1  0
 17 18  1  0
  6 19  2  0
 19 20  1  0
 20 21  2  0
 21 22  1  0
 22 23  2  0
 23  2  1  0
 22  5  1  0
 18  7  1  0
 16 11  1  0
  1 24  1  0
  1 25  1  0
  1 26  1  0
  8 27  1  0
  8 28  1  0
  9 29  1  0
  9 30  1  0
 12 31  1  0
 13 32  1  0
 14 33  1  0
 15 34  1  0
 17 35  1  0
 17 36  1  0
 18 37  1  0
 18 38  1  0
 20 39  1  0
M  END
>  <UniqueID>  (5) 
5

>  <SMILES>  (5) 
Cc1nnc2c(N3CCN(c4ccccn4)CC3)ncnc2n1

>  <Energy>  (5) 
54.61774479869402

>  <Genealogy>  (5) 
Cc1nnc2c(N3CCN(c4ccccn4)CC3)ncnc2n1 (3D coordinates assigned)
Cc1nnc2c(N3CCN(c4ccccn4)CC3)ncnc2n1 (nonaromatic ring conformer: 54.61774479869402 kcal/mol)

>  <smiles>  (5) 
Cc1nnc2c(N3CCN(c4ccccn4)CC3)ncnc2n1

>  <score_type>  (5) 
oracle

>  <origin>  (5) 
adg

>  <m_score__min__energy>  (5) 
-7.9500000000000002

>  <m_primary>  (5) 
energy

$$$$
5:0
     RDKit          3D

 46 47  0  0  0  0  0  0  0  0999 V2000
   -5.8900   25.7080  -30.4310 C   0  0  0  0  0  0  0  0  0  0  0  0
   -4.9910   24.5610  -30.7680 C   0  0  0  0  0  0  0  0  0  0  0  0
   -3.7440   24.4270  -30.2720 N   0  0  0  0  0  0  0  0  0  0  0  0
   -3.2560   23.2780  -30.7140 N   0  0  0  0  0  0  0  0  0  0  0  0
   -1.9210   22.7950  -30.3820 C   0  0  0  0  0  0  0  0  0  0  0  0
   -4.1840   22.6570  -31.4740 C   0  0  0  0  0  0  0  0  0  0  0  0
   -4.0250   21.3520  -32.0570 N   0  0  0  0  0  0  0  0  0  0  0  0
   -4.5650   20.1780  -31.3730 C   0  0  0  0  0  0  0  0  0  0  0  0
   -3.4890   21.2110  -33.4110 C   0  0  0  0  0  0  0  0  0  0  0  0
   -5.3150   23.4520  -31.5370 C   0  0  0  0  0  0  0  0  0  0  0  0
   -6.6090   23.1720  -32.2520 C   0  0  0  0  0  0  0  0  0  0  0  0
   -7.7410   23.1750  -31.3150 N   0  0  0  0  0  0  0  0  0  0  0  0
   -8.8100   22.2710  -31.7580 C   0  0  0  0  0  0  0  0  0  0  0  0
   -8.7140   20.9380  -31.0070 C   0  0  0  0  0  0  0  0  0  0  0  0
   -9.1340   19.7470  -31.8810 C   0  0  0  0  0  0  0  0  0  0  0  0
   -7.9610   19.1280  -32.5870 C   0  0  0  0  0  0  0  0  0  0  0  0
   -7.1700   19.8860  -33.4620 C   0  0  0  0  0  0  0  0  0  0  0  0
   -6.1160   19.2690  -34.1410 C   0  0  0  0  0  0  0  0  0  0  0  0
   -5.8640   17.9110  -33.9450 C   0  0  0  0  0  0  0  0  0  0  0  0
   -6.6760   17.1850  -33.0700 C   0  0  0  0  0  0  0  0  0  0  0  0
   -7.6980   17.8020  -32.4190 N   0  0  0  0  0  0  0  0  0  0  0  0
   -5.9662   25.8053  -29.3380 H   0  0  0  0  0  0  0  0  0  0  0  0
   -5.4756   26.6352  -30.8536 H   0  0  0  0  0  0  0  0  0  0  0  0
   -6.8893   25.5271  -30.8536 H   0  0  0  0  0  0  0  0  0  0  0  0
   -1.8073   22.7539  -29.2887 H   0  0  0  0  0  0  0  0  0  0  0  0
   -1.7798   21.7888  -30.8034 H   0  0  0  0  0  0  0  0  0  0  0  0
   -1.1687   23.4779  -30.8034 H   0  0  0  0  0  0  0  0  0  0  0  0
   -4.4977   20.3244  -30.2849 H   0  0  0  0  0  0  0  0  0  0  0  0
   -5.6178   20.0385  -31.6598 H   0  0  0  0  0  0  0  0  0  0  0  0
   -3.9858   19.2879  -31.6598 H   0  0  0  0  0  0  0  0  0  0  0  0
   -2.4265   20.9315  -33.3575 H   0  0  0  0  0  0  0  0  0  0  0  0
   -4.0473   20.4292  -33.9468 H   0  0  0  0  0  0  0  0  0  0  0  0
   -3.5903   22.1663  -33.9468 H   0  0  0  0  0  0  0  0  0  0  0  0
   -6.7725   23.9464  -33.0159 H   0  0  0  0  0  0  0  0  0  0  0  0
   -6.5432   22.1779  -32.7182 H   0  0  0  0  0  0  0  0  0  0  0  0
   -8.1300   24.1470  -31.3010 H   0  0  0  0  0  0  0  0  0  0  0  0
   -9.7866   22.7344  -31.5543 H   0  0  0  0  0  0  0  0  0  0  0  0
   -8.7026   22.0861  -32.8370 H   0  0  0  0  0  0  0  0  0  0  0  0
   -7.6738   20.7890  -30.6817 H   0  0  0  0  0  0  0  0  0  0  0  0
   -9.3998   20.9846  -30.1482 H   0  0  0  0  0  0  0  0  0  0  0  0
   -9.6062   18.9862  -31.2421 H   0  0  0  0  0  0  0  0  0  0  0  0
   -9.8353   20.1152  -32.6443 H   0  0  0  0  0  0  0  0  0  0  0  0
   -7.3771   20.9558  -33.6125 H   0  0  0  0  0  0  0  0  0  0  0  0
   -5.4864   19.8528  -34.8285 H   0  0  0  0  0  0  0  0  0  0  0  0
   -5.0352   17.4173  -34.4735 H   0  0  0  0  0  0  0  0  0  0  0  0
   -6.4884   16.1134  -32.9076 H   0  0  0  0  0  0  0  0  0  0  0  0
  1  2  1  0
  2  3  2  0
  3  4  1  0
  4  5  1  0
  4  6  1  0
  6  7  1  0
  7  8  1  0
  7  9  1  0
  6 10  2  0
 10 11  1  0
 11 12  1  0
 12 13  1  0
 13 14  1  0
 14 15  1  0
 15 16  1  0
 16 17  2  0
 17 18  1  0
 18 19  2  0
 19 20  1  0
 20 21  2  0
 10  2  1  0
 21 16  1  0
  1 22  1  0
  1 23  1  0
  1 24  1  0
  5 25  1  0
  5 26  1  0
  5 27  1  0
  8 28  1  0
  8 29  1  0
  8 30  1  0
  9 31  1  0
  9 32  1  0
  9 33  1  0
 11 34  1  0
 11 35  1  0
 12 36  1  0
 13 37  1  0
 13 38  1  0
 14 39  1  0
 14 40  1  0
 15 41  1  0
 15 42  1  0
 17 43  1  0
 18 44  1  0
 19 45  1  0
 20 46  1  0
M  END
>  <UniqueID>  (6) 
6

>  <SMILES>  (6) 
Cc1nn(C)c(N(C)C)c1CNCCCc1ccccn1

>  <Energy>  (6) 
70.6184719683672

>  <Genealogy>  (6) 
Cc1nn(C)c(N(C)C)c1CNCCCc1ccccn1 (3D coordinates assigned)
Cc1nn(C)c(N(C)C)c1CNCCCc1ccccn1 (optimized conformer: 70.6184719683672 kcal/mol)

>  <smiles>  (6) 
Cc1nn(C)c(N(C)C)c1CNCCCc1ccccn1

>  <score_type>  (6) 
oracle

>  <origin>  (6) 
adg

>  <m_score__min__energy>  (6) 
-7.4500000000000002

>  <m_primary>  (6) 
energy

$$$$
6:0
     RDKit          3D

 39 41  0  0  0  0  0  0  0  0999 V2000
    0.6480   27.8930  -23.5870 C   0  0  0  0  0  0  0  0  0  0  0  0
    0.0090   26.7410  -24.3040 C   0  0  0  0  0  0  0  0  0  0  0  0
   -0.7240   26.9720  -25.4830 C   0  0  0  0  0  0  0  0  0  0  0  0
   -1.2610   25.8620  -26.1230 C   0  0  0  0  0  0  0  0  0  0  0  0
   -1.9920   25.8810  -27.2540 N   0  0  0  0  0  0  0  0  0  0  0  0
   -2.2740   24.5720  -27.4740 C   0  0  0  0  0  0  0  0  0  0  0  0
   -3.0730   24.0910  -28.6280 C   0  0  0  0  0  0  0  0  0  0  0  0
   -2.4750   23.4080  -29.7000 C   0  0  0  0  0  0  0  0  0  0  0  0
   -3.2450   22.9630  -30.7790 C   0  0  0  0  0  0  0  0  0  0  0  0
   -4.6360   23.1860  -30.8170 C   0  0  0  0  0  0  0  0  0  0  0  0
   -5.4350   22.7230  -31.9380 N   0  0  0  0  0  0  0  0  0  0  0  0
   -5.0200   21.5490  -32.7170 C   0  0  0  0  0  0  0  0  0  0  0  0
   -6.6720   23.4200  -32.3120 C   0  0  0  0  0  0  0  0  0  0  0  0
   -5.2300   23.8720  -29.7390 C   0  0  0  0  0  0  0  0  0  0  0  0
   -4.4590   24.3170  -28.6620 C   0  0  0  0  0  0  0  0  0  0  0  0
   -1.7050   23.7920  -26.4710 C   0  0  0  0  0  0  0  0  0  0  0  0
   -1.0730   24.6300  -25.6340 N   0  0  0  0  0  0  0  0  0  0  0  0
   -0.3540   24.3920  -24.5030 C   0  0  0  0  0  0  0  0  0  0  0  0
   -0.1550   22.9930  -23.9940 C   0  0  0  0  0  0  0  0  0  0  0  0
    0.1900   25.4610  -23.8470 N   0  0  0  0  0  0  0  0  0  0  0  0
    0.5637   27.7411  -22.5008 H   0  0  0  0  0  0  0  0  0  0  0  0
    1.7099   27.9558  -23.8672 H   0  0  0  0  0  0  0  0  0  0  0  0
    0.1391   28.8271  -23.8672 H   0  0  0  0  0  0  0  0  0  0  0  0
   -0.8656   27.9878  -25.8807 H   0  0  0  0  0  0  0  0  0  0  0  0
   -1.3910   23.2215  -29.6905 H   0  0  0  0  0  0  0  0  0  0  0  0
   -2.7582   22.4314  -31.6099 H   0  0  0  0  0  0  0  0  0  0  0  0
   -4.7331   20.7373  -32.0323 H   0  0  0  0  0  0  0  0  0  0  0  0
   -5.8549   21.2159  -33.3511 H   0  0  0  0  0  0  0  0  0  0  0  0
   -4.1613   21.8146  -33.3511 H   0  0  0  0  0  0  0  0  0  0  0  0
   -7.2111   23.7237  -31.4025 H   0  0  0  0  0  0  0  0  0  0  0  0
   -6.4249   24.3117  -32.9068 H   0  0  0  0  0  0  0  0  0  0  0  0
   -7.3067   22.7467  -32.9068 H   0  0  0  0  0  0  0  0  0  0  0  0
   -6.3139   24.0595  -29.7454 H   0  0  0  0  0  0  0  0  0  0  0  0
   -4.9432   24.8507  -27.8309 H   0  0  0  0  0  0  0  0  0  0  0  0
   -1.7624   22.6972  -26.3814 H   0  0  0  0  0  0  0  0  0  0  0  0
   -0.1559   22.9994  -22.8940 H   0  0  0  0  0  0  0  0  0  0  0  0
   -0.9709   22.3510  -24.3576 H   0  0  0  0  0  0  0  0  0  0  0  0
    0.8075   22.6040  -24.3576 H   0  0  0  0  0  0  0  0  0  0  0  0
    0.7570   25.3020  -22.9830 H   0  0  0  0  0  0  0  0  0  0  0  0
  1  2  1  0
  2  3  2  0
  3  4  1  0
  4  5  2  0
  5  6  1  0
  6  7  1  0
  7  8  2  0
  8  9  1  0
  9 10  2  0
 10 11  1  0
 11 12  1  0
 11 13  1  0
 10 14  1  0
 14 15  2  0
  6 16  2  0
 16 17  1  0
 17 18  1  0
 18 19  1  0
 18 20  2  0
 20  2  1  0
 17  4  1  0
 15  7  1  0
  1 21  1  0
  1 22  1  0
  1 23  1  0
  3 24  1  0
  8 25  1  0
  9 26  1  0
 12 27  1  0
 12 28  1  0
 12 29  1  0
 13 30  1  0
 13 31  1  0
 13 32  1  0
 14 33  1  0
 15 34  1  0
 16 35  1  0
 19 36  1  0
 19 37  1  0
 19 38  1  0
 20 39  1  0
M  CHG  1  20   1
M  END
>  <UniqueID>  (7) 
7

>  <SMILES>  (7) 
Cc1cc2nc(-c3ccc(N(C)C)cc3)cn2c(C)[nH+]1

>  <Energy>  (7) 
77.21635511573035

>  <Genealogy>  (7) 
Cc1cc2nc(-c3ccc(N(C)C)cc3)cn2c(C)[nH+]1 (protonated)
Cc1cc2nc(-c3ccc(N(C)C)cc3)cn2c(C)[nH+]1 (3D coordinates assigned)
Cc1cc2nc(-c3ccc(N(C)C)cc3)cn2c(C)[nH+]1 (optimized conformer: 77.21635511573035 kcal/mol)

>  <smiles>  (7) 
Cc1cc2nc(-c3ccc(N(C)C)cc3)cn2c(C)n1

>  <score_type>  (7) 
oracle

>  <origin>  (7) 
adg

>  <m_score__min__energy>  (7) 
-6.25

>  <m_primary>  (7) 
energy

$$$$
7:0
     RDKit          3D

 49 52  0  0  0  0  0  0  0  0999 V2000
   -1.2240   16.9350  -32.5070 C   0  0  0  0  0  0  0  0  0  0  0  0
   -2.0460   15.7610  -33.0520 C   0  0  0  0  0  0  0  0  0  0  0  0
   -2.2230   15.8340  -34.5270 N   0  0  0  0  0  0  0  0  0  0  0  0
   -3.0310   14.6960  -35.0240 C   0  0  0  0  0  0  0  0  0  0  0  0
   -4.4770   14.7550  -34.5070 C   0  0  0  0  0  0  0  0  0  0  0  0
   -4.9880   16.1280  -34.5410 N   0  0  0  0  0  0  0  0  0  0  0  0
   -6.3070   16.3990  -34.0310 C   0  0  0  0  0  0  0  0  0  0  0  0
   -7.2130   15.5330  -34.1680 O   0  0  0  0  0  0  0  0  0  0  0  0
   -6.6180   17.6640  -33.3250 C   0  0  0  0  0  0  0  0  0  0  0  0
   -7.8650   17.8240  -32.6700 C   0  0  0  0  0  0  0  0  0  0  0  0
   -8.1720   19.0120  -31.9860 C   0  0  0  0  0  0  0  0  0  0  0  0
   -7.2220   20.0330  -31.9530 C   0  0  0  0  0  0  0  0  0  0  0  0
   -7.3980   21.2230  -31.3240 N   0  0  0  0  0  0  0  0  0  0  0  0
   -6.3000   22.0060  -31.4610 C   0  0  0  0  0  0  0  0  0  0  0  0
   -6.2040   23.3220  -30.8990 N   0  0  0  0  0  0  0  0  0  0  0  0
   -5.1390   24.2560  -31.2120 C   0  0  0  0  0  0  0  0  0  0  0  0
   -5.3560   25.4460  -30.2850 C   0  0  0  0  0  0  0  0  0  0  0  0
   -6.7840   25.3130  -29.7560 C   0  0  0  0  0  0  0  0  0  0  0  0
   -7.1720   23.8540  -29.9580 C   0  0  0  0  0  0  0  0  0  0  0  0
   -5.0750   21.2540  -32.3630 S   0  0  0  0  0  0  0  0  0  0  0  0
   -6.0000   19.8710  -32.5830 C   0  0  0  0  0  0  0  0  0  0  0  0
   -5.6680   18.7060  -33.2670 C   0  0  0  0  0  0  0  0  0  0  0  0
   -4.2700   17.1260  -35.3400 C   0  0  0  0  0  0  0  0  0  0  0  0
   -2.7740   17.1540  -34.9650 C   0  0  0  0  0  0  0  0  0  0  0  0
   -1.2389   16.9138  -31.4073 H   0  0  0  0  0  0  0  0  0  0  0  0
   -0.1860   16.8516  -32.8614 H   0  0  0  0  0  0  0  0  0  0  0  0
   -1.6574   17.8819  -32.8614 H   0  0  0  0  0  0  0  0  0  0  0  0
   -1.5299   14.8219  -32.8035 H   0  0  0  0  0  0  0  0  0  0  0  0
   -3.0434   15.8048  -32.5903 H   0  0  0  0  0  0  0  0  0  0  0  0
   -1.2780   15.7240  -34.9670 H   0  0  0  0  0  0  0  0  0  0  0  0
   -3.0445   14.7221  -36.1236 H   0  0  0  0  0  0  0  0  0  0  0  0
   -2.5739   13.7654  -34.6566 H   0  0  0  0  0  0  0  0  0  0  0  0
   -5.1123   14.1183  -35.1403 H   0  0  0  0  0  0  0  0  0  0  0  0
   -4.4933   14.3992  -33.4663 H   0  0  0  0  0  0  0  0  0  0  0  0
   -8.6016   17.0075  -32.6977 H   0  0  0  0  0  0  0  0  0  0  0  0
   -9.1438   19.1349  -31.4855 H   0  0  0  0  0  0  0  0  0  0  0  0
   -4.1573   23.7966  -31.0245 H   0  0  0  0  0  0  0  0  0  0  0  0
   -5.1560   24.5547  -32.2705 H   0  0  0  0  0  0  0  0  0  0  0  0
   -4.6363   25.4190  -29.4535 H   0  0  0  0  0  0  0  0  0  0  0  0
   -5.2090   26.3999  -30.8127 H   0  0  0  0  0  0  0  0  0  0  0  0
   -6.8220   25.5743  -28.6882 H   0  0  0  0  0  0  0  0  0  0  0  0
   -7.4733   25.9899  -30.2820 H   0  0  0  0  0  0  0  0  0  0  0  0
   -7.1220   23.3074  -29.0047 H   0  0  0  0  0  0  0  0  0  0  0  0
   -8.2018   23.7536  -30.3314 H   0  0  0  0  0  0  0  0  0  0  0  0
   -4.6865   18.5993  -33.7520 H   0  0  0  0  0  0  0  0  0  0  0  0
   -4.3700   16.8743  -36.4061 H   0  0  0  0  0  0  0  0  0  0  0  0
   -4.7028   18.1170  -35.1385 H   0  0  0  0  0  0  0  0  0  0  0  0
   -2.2049   17.4899  -35.8444 H   0  0  0  0  0  0  0  0  0  0  0  0
   -2.6777   17.8353  -34.1068 H   0  0  0  0  0  0  0  0  0  0  0  0
  1  2  1  0
  2  3  1  0
  3  4  1  0
  4  5  1  0
  5  6  1  0
  6  7  1  0
  7  8  2  0
  7  9  1  0
  9 10  2  0
 10 11  1  0
 11 12  2  0
 12 13  1  0
 13 14  2  0
 14 15  1  0
 15 16  1  0
 16 17  1  0
 17 18  1  0
 18 19  1  0
 14 20  1  0
 20 21  1  0
 21 22  2  0
  6 23  1  0
 23 24  1  0
 24  3  1  0
 22  9  1  0
 21 12  1  0
 19 15  1  0
  1 25  1  0
  1 26  1  0
  1 27  1  0
  2 28  1  0
  2 29  1  0
  3 30  1  0
  4 31  1  0
  4 32  1  0
  5 33  1  0
  5 34  1  0
 10 35  1  0
 11 36  1  0
 16 37  1  0
 16 38  1  0
 17 39  1  0
 17 40  1  0
 18 41  1  0
 18 42  1  0
 19 43  1  0
 19 44  1  0
 22 45  1  0
 23 46  1  0
 23 47  1  0
 24 48  1  0
 24 49  1  0
M  CHG  1   3   1
M  END
>  <UniqueID>  (8) 
8

>  <SMILES>  (8) 
CC[NH+]1CCN(C(=O)c2ccc3nc(N4CCCC4)sc3c2)CC1

>  <Energy>  (8) 
95.08803774292694

>  <Genealogy>  (8) 
CC[NH+]1CCN(C(=O)c2ccc3nc(N4CCCC4)sc3c2)CC1 (protonated)
CC[NH+]1CCN(C(=O)c2ccc3nc(N4CCCC4)sc3c2)CC1 (3D coordinates assigned)
CC[NH+]1CCN(C(=O)c2ccc3nc(N4CCCC4)sc3c2)CC1 (nonaromatic ring conformer: 95.08803774292694 kcal/mol)

>  <smiles>  (8) 
CCN1CCN(C(=O)c2ccc3nc(N4CCCC4)sc3c2)CC1

>  <score_type>  (8) 
oracle

>  <origin>  (8) 
adg

>  <m_score__min__energy>  (8) 
-7.7000000000000002

>  <m_primary>  (8) 
energy

$$$$
8:0
     RDKit          3D

 30 31  0  0  0  0  0  0  0  0999 V2000
   -5.7200   23.9690  -31.5250 C   0  0  0  0  0  0  0  0  0  0  0  0
   -6.1070   23.2120  -32.7180 N   0  0  0  0  0  0  0  0  0  0  0  0
   -7.2140   22.3300  -32.4210 C   0  0  0  0  0  0  0  0  0  0  0  0
   -8.4070   22.8790  -31.9120 C   0  0  0  0  0  0  0  0  0  0  0  0
   -9.5030   22.0650  -31.6270 C   0  0  0  0  0  0  0  0  0  0  0  0
   -9.4270   20.6890  -31.8400 C   0  0  0  0  0  0  0  0  0  0  0  0
   -8.2530   20.1230  -32.3370 C   0  0  0  0  0  0  0  0  0  0  0  0
   -7.1360   20.9260  -32.6300 C   0  0  0  0  0  0  0  0  0  0  0  0
   -5.9080   20.2690  -33.1360 C   0  0  0  0  0  0  0  0  0  0  0  0
   -4.9260   20.9860  -33.4690 O   0  0  0  0  0  0  0  0  0  0  0  0
   -5.7950   18.7900  -33.2310 C   0  0  0  0  0  0  0  0  0  0  0  0
   -5.7830   17.9870  -32.0730 C   0  0  0  0  0  0  0  0  0  0  0  0
   -5.6860   16.5960  -32.1770 C   0  0  0  0  0  0  0  0  0  0  0  0
   -5.6070   15.9910  -33.4340 C   0  0  0  0  0  0  0  0  0  0  0  0
   -5.6280   16.7750  -34.5890 C   0  0  0  0  0  0  0  0  0  0  0  0
   -5.7260   18.1660  -34.4900 C   0  0  0  0  0  0  0  0  0  0  0  0
   -6.0076   23.4065  -30.6245 H   0  0  0  0  0  0  0  0  0  0  0  0
   -4.6312   24.1256  -31.5273 H   0  0  0  0  0  0  0  0  0  0  0  0
   -6.2306   24.9433  -31.5273 H   0  0  0  0  0  0  0  0  0  0  0  0
   -5.2820   22.6850  -33.0830 H   0  0  0  0  0  0  0  0  0  0  0  0
   -6.3890   23.8870  -33.4670 H   0  0  0  0  0  0  0  0  0  0  0  0
   -8.4751   23.9629  -31.7371 H   0  0  0  0  0  0  0  0  0  0  0  0
  -10.4292   22.5093  -31.2334 H   0  0  0  0  0  0  0  0  0  0  0  0
  -10.2935   20.0495  -31.6159 H   0  0  0  0  0  0  0  0  0  0  0  0
   -8.2002   19.0367  -32.5016 H   0  0  0  0  0  0  0  0  0  0  0  0
   -5.8504   18.4575  -31.0810 H   0  0  0  0  0  0  0  0  0  0  0  0
   -5.6719   15.9770  -31.2678 H   0  0  0  0  0  0  0  0  0  0  0  0
   -5.5282   14.8967  -33.5136 H   0  0  0  0  0  0  0  0  0  0  0  0
   -5.5674   16.2976  -35.5781 H   0  0  0  0  0  0  0  0  0  0  0  0
   -5.7494   18.7776  -35.4040 H   0  0  0  0  0  0  0  0  0  0  0  0
  1  2  1  0
  2  3  1  0
  3  4  2  0
  4  5  1  0
  5  6  2  0
  6  7  1  0
  7  8  2  0
  8  9  1  0
  9 10  2  0
  9 11  1  0
 11 12  2  0
 12 13  1  0
 13 14  2  0
 14 15  1  0
 15 16  2  0
  8  3  1  0
 16 11  1  0
  1 17  1  0
  1 18  1  0
  1 19  1  0
  2 20  1  0
  2 21  1  0
  4 22  1  0
  5 23  1  0
  6 24  1  0
  7 25  1  0
 12 26  1  0
 13 27  1  0
 14 28  1  0
 15 29  1  0
 16 30  1  0
M  CHG  1   2   1
M  END
>  <UniqueID>  (9) 
9

>  <SMILES>  (9) 
C[NH2+]c1ccccc1C(=O)c1ccccc1

>  <Energy>  (9) 
39.67327884209581

>  <Genealogy>  (9) 
C[NH2+]c1ccccc1C(=O)c1ccccc1 (protonated)
C[NH2+]c1ccccc1C(=O)c1ccccc1 (3D coordinates assigned)
C[NH2+]c1ccccc1C(=O)c1ccccc1 (optimized conformer: 39.67327884209581 kcal/mol)

>  <smiles>  (9) 
CNc1ccccc1C(=O)c1ccccc1

>  <score_type>  (9) 
oracle

>  <origin>  (9) 
adg

>  <m_score__min__energy>  (9) 
-6.0199999999999996

>  <m_primary>  (9) 
energy

$$$$
9:0
     RDKit          3D

 75 79  0  0  0  0  0  0  0  0999 V2000
   -3.4780   19.7790  -33.6740 C   0  0  0  0  0  0  0  0  0  0  0  0
   -4.2810   18.6450  -34.3040 C   0  0  0  0  0  0  0  0  0  0  0  0
   -3.5480   17.3630  -34.1990 N   0  0  0  0  0  0  0  0  0  0  0  0
   -2.1500   17.4800  -34.6630 C   0  0  0  0  0  0  0  0  0  0  0  0
   -4.2600   16.2350  -34.8500 C   0  0  0  0  0  0  0  0  0  0  0  0
   -5.6080   15.8740  -34.1800 C   0  0  0  0  0  0  0  0  0  0  0  0
   -5.8330   16.7010  -32.9060 C   0  0  0  0  0  0  0  0  0  0  0  0
   -7.2340   17.1140  -32.8070 N   0  0  0  0  0  0  0  0  0  0  0  0
   -7.6800   18.4540  -32.5180 C   0  0  0  0  0  0  0  0  0  0  0  0
   -9.0090   18.8600  -32.7340 C   0  0  0  0  0  0  0  0  0  0  0  0
   -9.4020   20.1660  -32.4500 C   0  0  0  0  0  0  0  0  0  0  0  0
   -8.4820   21.0960  -31.9360 C   0  0  0  0  0  0  0  0  0  0  0  0
   -8.8900   22.4130  -31.6820 C   0  0  0  0  0  0  0  0  0  0  0  0
   -8.0060   23.3330  -31.2250 N   0  0  0  0  0  0  0  0  0  0  0  0
   -6.7110   23.0230  -30.9640 C   0  0  0  0  0  0  0  0  0  0  0  0
   -5.8700   24.0010  -30.5320 N   0  0  0  0  0  0  0  0  0  0  0  0
   -4.5690   23.7620  -30.2350 C   0  0  0  0  0  0  0  0  0  0  0  0
   -3.7360   24.8150  -29.8440 C   0  0  0  0  0  0  0  0  0  0  0  0
   -2.3890   24.5790  -29.5190 C   0  0  0  0  0  0  0  0  0  0  0  0
   -1.5840   25.6760  -29.1960 O   0  0  0  0  0  0  0  0  0  0  0  0
   -0.7430   25.7340  -28.0460 C   0  0  0  0  0  0  0  0  0  0  0  0
   -1.5600   26.1880  -26.8210 C   0  0  0  0  0  0  0  0  0  0  0  0
   -0.7880   26.9170  -25.7900 N   0  0  0  0  0  0  0  0  0  0  0  0
   -0.6990   28.3760  -25.9780 C   0  0  0  0  0  0  0  0  0  0  0  0
    0.2010   28.9960  -24.8810 C   0  0  0  0  0  0  0  0  0  0  0  0
    0.9310   27.9960  -24.1900 O   0  0  0  0  0  0  0  0  0  0  0  0
    0.0510   27.1290  -23.4910 C   0  0  0  0  0  0  0  0  0  0  0  0
   -1.0790   26.5740  -24.3880 C   0  0  0  0  0  0  0  0  0  0  0  0
   -1.8740   23.2680  -29.5800 C   0  0  0  0  0  0  0  0  0  0  0  0
   -0.5190   23.0670  -29.2530 O   0  0  0  0  0  0  0  0  0  0  0  0
   -0.0450   22.3060  -28.1450 C   0  0  0  0  0  0  0  0  0  0  0  0
   -2.7130   22.2100  -29.9900 C   0  0  0  0  0  0  0  0  0  0  0  0
   -4.0530   22.4560  -30.3350 C   0  0  0  0  0  0  0  0  0  0  0  0
   -4.8900   21.4250  -30.8020 C   0  0  0  0  0  0  0  0  0  0  0  0
   -6.2350   21.6940  -31.1530 C   0  0  0  0  0  0  0  0  0  0  0  0
   -7.1400   20.7140  -31.6800 C   0  0  0  0  0  0  0  0  0  0  0  0
   -6.7600   19.3820  -31.9850 C   0  0  0  0  0  0  0  0  0  0  0  0
   -3.5325   19.7020  -32.5781 H   0  0  0  0  0  0  0  0  0  0  0  0
   -2.4283   19.7073  -33.9949 H   0  0  0  0  0  0  0  0  0  0  0  0
   -3.8943   20.7453  -33.9949 H   0  0  0  0  0  0  0  0  0  0  0  0
   -5.2456   18.5530  -33.7833 H   0  0  0  0  0  0  0  0  0  0  0  0
   -4.4416   18.8742  -35.3678 H   0  0  0  0  0  0  0  0  0  0  0  0
   -1.4786   17.5362  -33.7935 H   0  0  0  0  0  0  0  0  0  0  0  0
   -1.8905   16.6004  -35.2705 H   0  0  0  0  0  0  0  0  0  0  0  0
   -2.0403   18.3905  -35.2705 H   0  0  0  0  0  0  0  0  0  0  0  0
   -4.4559   16.5074  -35.8976 H   0  0  0  0  0  0  0  0  0  0  0  0
   -3.6109   15.3518  -34.7577 H   0  0  0  0  0  0  0  0  0  0  0  0
   -6.4258   16.0752  -34.8876 H   0  0  0  0  0  0  0  0  0  0  0  0
   -5.5866   14.8091  -33.9052 H   0  0  0  0  0  0  0  0  0  0  0  0
   -5.5715   16.0924  -32.0278 H   0  0  0  0  0  0  0  0  0  0  0  0
   -5.1982   17.5985  -32.9462 H   0  0  0  0  0  0  0  0  0  0  0  0
   -7.9530   16.3830  -33.0180 H   0  0  0  0  0  0  0  0  0  0  0  0
   -9.7426   18.1421  -33.1296 H   0  0  0  0  0  0  0  0  0  0  0  0
  -10.4430   20.4725  -32.6299 H   0  0  0  0  0  0  0  0  0  0  0  0
   -9.9371   22.7022  -31.8552 H   0  0  0  0  0  0  0  0  0  0  0  0
   -8.3410   24.3140  -31.0640 H   0  0  0  0  0  0  0  0  0  0  0  0
   -4.1386   25.8373  -29.7903 H   0  0  0  0  0  0  0  0  0  0  0  0
   -0.3198   24.7372  -27.8530 H   0  0  0  0  0  0  0  0  0  0  0  0
    0.0687   26.4540  -28.2269 H   0  0  0  0  0  0  0  0  0  0  0  0
   -2.3662   26.8480  -27.1739 H   0  0  0  0  0  0  0  0  0  0  0  0
   -1.9270   25.2700  -26.3387 H   0  0  0  0  0  0  0  0  0  0  0  0
   -0.2682   28.5905  -26.9672 H   0  0  0  0  0  0  0  0  0  0  0  0
   -1.7066   28.8118  -25.9082 H   0  0  0  0  0  0  0  0  0  0  0  0
    0.9077   29.6962  -25.3503 H   0  0  0  0  0  0  0  0  0  0  0  0
   -0.4420   29.5195  -24.1582 H   0  0  0  0  0  0  0  0  0  0  0  0
    0.6321   26.2836  -23.0939 H   0  0  0  0  0  0  0  0  0  0  0  0
   -0.4204   27.7129  -22.6868 H   0  0  0  0  0  0  0  0  0  0  0  0
   -1.1334   25.4808  -24.2791 H   0  0  0  0  0  0  0  0  0  0  0  0
   -2.0418   27.0141  -24.0891 H   0  0  0  0  0  0  0  0  0  0  0  0
   -0.3493   22.7946  -27.2076 H   0  0  0  0  0  0  0  0  0  0  0  0
   -0.4723   21.2932  -28.1861 H   0  0  0  0  0  0  0  0  0  0  0  0
    1.0524   22.2429  -28.1861 H   0  0  0  0  0  0  0  0  0  0  0  0
   -2.3154   21.1856  -30.0399 H   0  0  0  0  0  0  0  0  0  0  0  0
   -4.4959   20.4022  -30.8950 H   0  0  0  0  0  0  0  0  0  0  0  0
   -5.7229   19.0645  -31.8016 H   0  0  0  0  0  0  0  0  0  0  0  0
  1  2  1  0
  2  3  1  0
  3  4  1  0
  3  5  1  0
  5  6  1  0
  6  7  1  0
  7  8  1  0
  8  9  1  0
  9 10  2  0
 10 11  1  0
 11 12  2  0
 12 13  1  0
 13 14  2  0
 14 15  1  0
 15 16  2  0
 16 17  1  0
 17 18  2  0
 18 19  1  0
 19 20  1  0
 20 21  1  0
 21 22  1  0
 22 23  1  0
 23 24  1  0
 24 25  1  0
 25 26  1  0
 26 27  1  0
 27 28  1  0
 19 29  2  0
 29 30  1  0
 30 31  1  0
 29 32  1  0
 32 33  2  0
 33 34  1  0
 34 35  2  0
 35 36  1  0
 36 37  2  0
 37  9  1  0
 36 12  1  0
 35 15  1  0
 33 17  1  0
 28 23  1  0
  1 38  1  0
  1 39  1  0
  1 40  1  0
  2 41  1  0
  2 42  1  0
  4 43  1  0
  4 44  1  0
  4 45  1  0
  5 46  1  0
  5 47  1  0
  6 48  1  0
  6 49  1  0
  7 50  1  0
  7 51  1  0
  8 52  1  0
 10 53  1  0
 11 54  1  0
 13 55  1  0
 14 56  1  0
 18 57  1  0
 21 58  1  0
 21 59  1  0
 22 60  1  0
 22 61  1  0
 24 62  1  0
 24 63  1  0
 25 64  1  0
 25 65  1  0
 27 66  1  0
 27 67  1  0
 28 68  1  0
 28 69  1  0
 31 70  1  0
 31 71  1  0
 31 72  1  0
 32 73  1  0
 34 74  1  0
 37 75  1  0
M  CHG  1  14   1
M  END
>  <UniqueID>  (10) 
10

>  <SMILES>  (10) 
CCN(C)CCCNc1ccc2c[nH+]c3nc4cc(OCCN5CCOCC5)c(OC)cc4cc3c2c1

>  <Energy>  (10) 
109.82847972598543

>  <Genealogy>  (10) 
CCN(C)CCCNc1ccc2c[nH+]c3nc4cc(OCCN5CCOCC5)c(OC)cc4cc3c2c1 (protonated)
CCN(C)CCCNc1ccc2c[nH+]c3nc4cc(OCCN5CCOCC5)c(OC)cc4cc3c2c1 (3D coordinates assigned)
CCN(C)CCCNc1ccc2c[nH+]c3nc4cc(OCCN5CCOCC5)c(OC)cc4cc3c2c1 (nonaromatic ring conformer: 109.82847972598543 kcal/mol)

>  <smiles>  (10) 
CCN(C)CCCNc1ccc2cnc3nc4cc(OCCN5CCOCC5)c(OC)cc4cc3c2c1

>  <score_type>  (10) 
oracle

>  <origin>  (10) 
adg

>  <m_score__min__energy>  (10) 
-9.5600000000000005

>  <m_primary>  (10) 
energy

$$$$
10:0
     RDKit          3D

 58 59  0  0  0  0  0  0  0  0999 V2000
   -2.3010   20.5660  -27.9960 C   0  0  0  0  0  0  0  0  0  0  0  0
   -3.1350   21.3320  -29.0380 C   0  0  0  0  0  0  0  0  0  0  0  0
   -2.3620   21.8350  -30.2050 N   0  0  0  0  0  0  0  0  0  0  0  0
   -1.6610   20.7490  -30.9310 C   0  0  0  0  0  0  0  0  0  0  0  0
   -1.1260   21.2680  -32.2640 C   0  0  0  0  0  0  0  0  0  0  0  0
   -1.4730   22.9810  -29.9070 C   0  0  0  0  0  0  0  0  0  0  0  0
   -2.2440   24.1260  -29.3010 C   0  0  0  0  0  0  0  0  0  0  0  0
   -2.1900   24.3190  -28.0570 O   0  0  0  0  0  0  0  0  0  0  0  0
   -3.1330   24.9300  -30.0880 N   0  0  0  0  0  0  0  0  0  0  0  0
   -4.5200   24.6560  -30.3330 C   0  0  0  0  0  0  0  0  0  0  0  0
   -5.5370   25.3610  -29.6660 C   0  0  0  0  0  0  0  0  0  0  0  0
   -6.8780   25.0370  -29.8840 C   0  0  0  0  0  0  0  0  0  0  0  0
   -7.2150   23.9890  -30.7440 C   0  0  0  0  0  0  0  0  0  0  0  0
   -6.2080   23.2560  -31.3920 C   0  0  0  0  0  0  0  0  0  0  0  0
   -6.5770   22.0710  -32.2490 C   0  0  0  0  0  0  0  0  0  0  0  0
   -5.5820   20.9870  -32.1040 N   0  0  0  0  0  0  0  0  0  0  0  0
   -6.2380   19.6630  -31.9260 C   0  0  0  0  0  0  0  0  0  0  0  0
   -6.3140   18.8490  -33.2290 C   0  0  0  0  0  0  0  0  0  0  0  0
   -4.9080   18.6240  -33.8630 C   0  0  0  0  0  0  0  0  0  0  0  0
   -4.3640   17.2470  -33.7000 N   0  0  0  0  0  0  0  0  0  0  0  0
   -5.3790   16.1800  -33.6130 C   0  0  0  0  0  0  0  0  0  0  0  0
   -3.3680   16.9270  -34.7380 C   0  0  0  0  0  0  0  0  0  0  0  0
   -3.8810   19.6750  -33.3900 C   0  0  0  0  0  0  0  0  0  0  0  0
   -4.5680   21.0290  -33.1910 C   0  0  0  0  0  0  0  0  0  0  0  0
   -4.8610   23.5900  -31.1750 C   0  0  0  0  0  0  0  0  0  0  0  0
   -2.6195   20.8585  -26.9846 H   0  0  0  0  0  0  0  0  0  0  0  0
   -2.4512   19.4845  -28.1293 H   0  0  0  0  0  0  0  0  0  0  0  0
   -1.2361   20.8074  -28.1293 H   0  0  0  0  0  0  0  0  0  0  0  0
   -3.9196   20.6577  -29.4117 H   0  0  0  0  0  0  0  0  0  0  0  0
   -3.5349   22.2189  -28.5247 H   0  0  0  0  0  0  0  0  0  0  0  0
   -0.8223   20.3851  -30.3194 H   0  0  0  0  0  0  0  0  0  0  0  0
   -2.3688   19.9289  -31.1222 H   0  0  0  0  0  0  0  0  0  0  0  0
   -0.3479   22.0229  -32.0779 H   0  0  0  0  0  0  0  0  0  0  0  0
   -0.6970   20.4328  -32.8371 H   0  0  0  0  0  0  0  0  0  0  0  0
   -1.9478   21.7221  -32.8371 H   0  0  0  0  0  0  0  0  0  0  0  0
   -0.6956   22.6575  -29.1992 H   0  0  0  0  0  0  0  0  0  0  0  0
   -1.0210   23.3253  -30.8489 H   0  0  0  0  0  0  0  0  0  0  0  0
   -5.2756   26.1712  -28.9695 H   0  0  0  0  0  0  0  0  0  0  0  0
   -7.6701   25.6080  -29.3776 H   0  0  0  0  0  0  0  0  0  0  0  0
   -8.2723   23.7374  -30.9140 H   0  0  0  0  0  0  0  0  0  0  0  0
   -7.5647   21.6972  -31.9413 H   0  0  0  0  0  0  0  0  0  0  0  0
   -6.5989   22.3906  -33.3013 H   0  0  0  0  0  0  0  0  0  0  0  0
   -5.6661   19.0854  -31.1849 H   0  0  0  0  0  0  0  0  0  0  0  0
   -7.2701   19.8495  -31.5943 H   0  0  0  0  0  0  0  0  0  0  0  0
   -6.7649   17.8699  -33.0097 H   0  0  0  0  0  0  0  0  0  0  0  0
   -6.9227   19.4169  -33.9480 H   0  0  0  0  0  0  0  0  0  0  0  0
   -5.0765   18.7543  -34.9422 H   0  0  0  0  0  0  0  0  0  0  0  0
   -5.5891   15.9591  -32.5561 H   0  0  0  0  0  0  0  0  0  0  0  0
   -6.3031   16.5117  -34.1090 H   0  0  0  0  0  0  0  0  0  0  0  0
   -5.0016   15.2736  -34.1090 H   0  0  0  0  0  0  0  0  0  0  0  0
   -2.4247   16.6239  -34.2601 H   0  0  0  0  0  0  0  0  0  0  0  0
   -3.7426   16.1040  -35.3644 H   0  0  0  0  0  0  0  0  0  0  0  0
   -3.1932   17.8142  -35.3644 H   0  0  0  0  0  0  0  0  0  0  0  0
   -3.4382   19.3482  -32.4376 H   0  0  0  0  0  0  0  0  0  0  0  0
   -3.0946   19.7786  -34.1521 H   0  0  0  0  0  0  0  0  0  0  0  0
   -3.8054   21.7797  -32.9360 H   0  0  0  0  0  0  0  0  0  0  0  0
   -5.0850   21.2875  -34.1269 H   0  0  0  0  0  0  0  0  0  0  0  0
   -4.0681   23.0101  -31.6700 H   0  0  0  0  0  0  0  0  0  0  0  0
  1  2  1  0
  2  3  1  0
  3  4  1  0
  4  5  1  0
  3  6  1  0
  6  7  1  0
  7  8  2  0
  7  9  1  0
  9 10  1  0
 10 11  2  0
 11 12  1  0
 12 13  2  0
 13 14  1  0
 14 15  1  0
 15 16  1  0
 16 17  1  0
 17 18  1  0
 18 19  1  0
 19 20  1  0
 20 21  1  0
 20 22  1  0
 19 23  1  0
 23 24  1  0
 14 25  2  0
 25 10  1  0
 24 16  1  0
  1 26  1  0
  1 27  1  0
  1 28  1  0
  2 29  1  0
  2 30  1  0
  4 31  1  0
  4 32  1  0
  5 33  1  0
  5 34  1  0
  5 35  1  0
  6 36  1  0
  6 37  1  0
 11 38  1  0
 12 39  1  0
 13 40  1  0
 15 41  1  0
 15 42  1  0
 17 43  1  0
 17 44  1  0
 18 45  1  0
 18 46  1  0
 19 47  1  0
 21 48  1  0
 21 49  1  0
 21 50  1  0
 22 51  1  0
 22 52  1  0
 22 53  1  0
 23 54  1  0
 23 55  1  0
 24 56  1  0
 24 57  1  0
 25 58  1  0
M  CHG  1   9  -1
M  END
>  <UniqueID>  (11) 
11

>  <SMILES>  (11) 
CCN(CC)CC(=O)[N-]c1cccc(CN2CCC(N(C)C)CC2)c1

>  <Energy>  (11) 
79.19796375927555

>  <Genealogy>  (11) 
CCN(CC)CC(=O)[N-]c1cccc(CN2CCC(N(C)C)CC2)c1 (protonated)
CCN(CC)CC(=O)[N-]c1cccc(CN2CCC(N(C)C)CC2)c1 (3D coordinates assigned)
CCN(CC)CC(=O)[N-]c1cccc(CN2CCC(N(C)C)CC2)c1 (nonaromatic ring conformer: 79.19796375927555 kcal/mol)

>  <smiles>  (11) 
CCN(CC)CC(=O)Nc1cccc(CN2CCC(N(C)C)CC2)c1

>  <score_type>  (11) 
oracle

>  <origin>  (11) 
adg

>  <m_score__min__energy>  (11) 
-9.5600000000000005

>  <m_primary>  (11) 
energy

$$$$
11:0
     RDKit          3D

 45 47  0  0  1  0  0  0  0  0999 V2000
   -5.7970   18.4010  -34.5850 C   0  0  0  0  0  0  0  0  0  0  0  0
   -4.5150   18.9760  -34.4340 O   0  0  0  0  0  0  0  0  0  0  0  0
   -4.2400   19.8740  -33.4300 C   0  0  0  0  0  0  0  0  0  0  0  0
   -3.2850   20.8510  -33.4810 C   0  0  0  0  0  0  0  0  0  0  0  0
   -3.0310   21.7380  -32.4560 C   0  0  0  0  0  0  0  0  0  0  0  0
   -3.7980   21.6170  -31.3190 C   0  0  0  0  0  0  0  0  0  0  0  0
   -3.6480   22.4810  -30.1530 C   0  0  0  0  0  0  0  0  0  0  0  0
   -3.0550   21.9270  -29.0270 C   0  0  0  0  0  0  0  0  0  0  0  0
   -2.9100   22.7020  -27.9500 N   0  0  0  0  0  0  0  0  0  0  0  0
   -3.3290   23.9760  -27.9680 C   0  0  0  0  0  0  0  0  0  0  0  0
   -3.1300   24.7780  -26.7190 C   0  0  0  0  0  0  0  0  0  0  0  0
   -3.9100   24.5560  -29.0350 N   0  0  0  0  0  0  0  0  0  0  0  0
   -4.0680   23.7960  -30.1340 C   0  0  0  0  0  0  0  0  0  0  0  0
   -4.6110   24.3100  -31.1580 N   0  0  0  0  0  0  0  0  0  0  0  0
   -6.0230   24.3470  -31.4230 C   0  0  0  0  0  0  0  0  0  0  0  0
   -6.7270   24.1280  -30.0900 C   0  0  0  0  0  0  0  0  0  0  0  0
   -7.1800   22.6930  -29.9100 C   0  0  0  0  0  0  0  0  0  0  0  0
   -8.2400   22.3110  -30.9110 C   0  0  0  0  0  0  0  0  0  0  0  0
   -8.0140   23.0950  -32.1640 C   0  0  0  0  0  0  0  0  0  0  0  0
   -6.5050   23.2510  -32.3430 C   0  0  0  0  0  0  0  0  0  0  0  0
   -4.7870   20.6340  -31.2200 C   0  0  0  0  0  0  0  0  0  0  0  0
   -5.0060   19.7670  -32.2690 C   0  0  0  0  0  0  0  0  0  0  0  0
   -6.2308   18.2065  -33.5930 H   0  0  0  0  0  0  0  0  0  0  0  0
   -6.4466   19.0940  -35.1398 H   0  0  0  0  0  0  0  0  0  0  0  0
   -5.7115   17.4550  -35.1398 H   0  0  0  0  0  0  0  0  0  0  0  0
   -2.6815   20.9348  -34.3968 H   0  0  0  0  0  0  0  0  0  0  0  0
   -2.2503   22.5080  -32.5430 H   0  0  0  0  0  0  0  0  0  0  0  0
   -2.7148   20.8809  -29.0223 H   0  0  0  0  0  0  0  0  0  0  0  0
   -2.4640   22.2840  -27.1060 H   0  0  0  0  0  0  0  0  0  0  0  0
   -3.2896   24.1349  -25.8410 H   0  0  0  0  0  0  0  0  0  0  0  0
   -2.1054   25.1778  -26.6993 H   0  0  0  0  0  0  0  0  0  0  0  0
   -3.8488   25.6104  -26.6993 H   0  0  0  0  0  0  0  0  0  0  0  0
   -6.2395   25.3106  -31.9075 H   0  0  0  0  0  0  0  0  0  0  0  0
   -6.0327   24.3848  -29.2764 H   0  0  0  0  0  0  0  0  0  0  0  0
   -7.6208   24.7688  -30.0712 H   0  0  0  0  0  0  0  0  0  0  0  0
   -6.3135   22.0274  -30.0374 H   0  0  0  0  0  0  0  0  0  0  0  0
   -7.6098   22.5939  -28.9023 H   0  0  0  0  0  0  0  0  0  0  0  0
   -8.1734   21.2350  -31.1295 H   0  0  0  0  0  0  0  0  0  0  0  0
   -9.2385   22.5297  -30.5045 H   0  0  0  0  0  0  0  0  0  0  0  0
   -8.4407   22.5588  -33.0245 H   0  0  0  0  0  0  0  0  0  0  0  0
   -8.4998   24.0797  -32.0975 H   0  0  0  0  0  0  0  0  0  0  0  0
   -6.0019   22.3062  -32.0897 H   0  0  0  0  0  0  0  0  0  0  0  0
   -6.2744   23.5078  -33.3875 H   0  0  0  0  0  0  0  0  0  0  0  0
   -5.3909   20.5523  -30.3043 H   0  0  0  0  0  0  0  0  0  0  0  0
   -5.7831   18.9924  -32.1908 H   0  0  0  0  0  0  0  0  0  0  0  0
  1  2  1  0
  2  3  1  0
  3  4  2  0
  4  5  1  0
  5  6  2  0
  6  7  1  0
  7  8  2  0
  8  9  1  0
  9 10  1  0
 10 11  1  0
 10 12  2  0
 12 13  1  0
 13 14  2  0
 14 15  1  0
 15 16  1  0
 16 17  1  0
 17 18  1  0
 18 19  1  0
 19 20  1  0
  6 21  1  0
 21 22  2  0
 22  3  1  0
 13  7  1  0
 20 15  1  0
  1 23  1  0
  1 24  1  0
  1 25  1  0
  4 26  1  0
  5 27  1  0
  8 28  1  0
  9 29  1  0
 11 30  1  0
 11 31  1  0
 11 32  1  0
 15 33  1  0
 16 34  1  0
 16 35  1  0
 17 36  1  0
 17 37  1  0
 18 38  1  0
 18 39  1  0
 19 40  1  0
 19 41  1  0
 20 42  1  0
 20 43  1  0
 21 44  1  0
 22 45  1  0
M  END
>  <smiles>  (12) 
COc1ccc(-c2c[nH]c(C)nc2=NC2CCCCC2)cc1

>  <score_type>  (12) 
oracle

>  <origin>  (12) 
adg

>  <m_score__min__energy>  (12) 
-8.1300000000000008

>  <m_primary>  (12) 
energy

$$$$
12:0
     RDKit          3D

 45 46  0  0  0  0  0  0  0  0999 V2000
   -5.8370   24.9750  -29.5240 C   0  0  0  0  0  0  0  0  0  0  0  0
   -5.6600   24.7040  -30.8180 C   0  0  0  0  0  0  0  0  0  0  0  0
   -4.6200   23.8980  -31.3030 O   0  0  0  0  0  0  0  0  0  0  0  0
   -3.6350   23.2680  -30.4860 C   0  0  0  0  0  0  0  0  0  0  0  0
   -3.1250   22.0060  -31.1850 C   0  0  0  0  0  0  0  0  0  0  0  0
   -4.2000   21.3520  -31.9470 N   0  0  0  0  0  0  0  0  0  0  0  0
   -4.5790   20.0190  -31.4270 C   0  0  0  0  0  0  0  0  0  0  0  0
   -5.5190   19.1510  -32.3480 C   0  0  0  0  0  0  0  0  0  0  0  0
   -6.9670   19.7020  -32.2850 C   0  0  0  0  0  0  0  0  0  0  0  0
   -8.1170   18.8760  -32.2980 C   0  0  0  0  0  0  0  0  0  0  0  0
   -9.4000   19.4280  -32.2210 C   0  0  0  0  0  0  0  0  0  0  0  0
   -9.5670   20.8070  -32.1260 C   0  0  0  0  0  0  0  0  0  0  0  0
   -8.4530   21.6440  -32.1080 C   0  0  0  0  0  0  0  0  0  0  0  0
   -8.6620   23.3810  -31.9790 Cl  0  0  0  0  0  0  0  0  0  0  0  0
   -7.1670   21.0990  -32.1850 C   0  0  0  0  0  0  0  0  0  0  0  0
   -4.9900   19.2850  -33.8090 C   0  0  0  0  0  0  0  0  0  0  0  0
   -5.8330   18.5020  -34.8350 C   0  0  0  0  0  0  0  0  0  0  0  0
   -6.4280   17.1980  -34.2770 C   0  0  0  0  0  0  0  0  0  0  0  0
   -5.5960   16.6260  -33.1270 C   0  0  0  0  0  0  0  0  0  0  0  0
   -5.3690   17.6280  -31.9680 C   0  0  0  0  0  0  0  0  0  0  0  0
   -6.6730   25.6150  -29.2054 H   0  0  0  0  0  0  0  0  0  0  0  0
   -5.1470   24.5585  -28.7754 H   0  0  0  0  0  0  0  0  0  0  0  0
   -6.3666   25.1352  -31.5424 H   0  0  0  0  0  0  0  0  0  0  0  0
   -2.7965   23.9609  -30.3222 H   0  0  0  0  0  0  0  0  0  0  0  0
   -4.0804   22.9966  -29.5175 H   0  0  0  0  0  0  0  0  0  0  0  0
   -2.3121   22.2802  -31.8735 H   0  0  0  0  0  0  0  0  0  0  0  0
   -2.7627   21.3044  -30.4192 H   0  0  0  0  0  0  0  0  0  0  0  0
   -3.8730   21.2040  -32.9320 H   0  0  0  0  0  0  0  0  0  0  0  0
   -5.0310   21.9840  -32.0000 H   0  0  0  0  0  0  0  0  0  0  0  0
   -3.6533   19.4486  -31.2607 H   0  0  0  0  0  0  0  0  0  0  0  0
   -5.1620   20.2150  -30.5150 H   0  0  0  0  0  0  0  0  0  0  0  0
   -7.9998   17.7846  -32.3697 H   0  0  0  0  0  0  0  0  0  0  0  0
  -10.2810   18.7696  -32.2356 H   0  0  0  0  0  0  0  0  0  0  0  0
  -10.5782   21.2357  -32.0652 H   0  0  0  0  0  0  0  0  0  0  0  0
   -6.2949   21.7692  -32.1675 H   0  0  0  0  0  0  0  0  0  0  0  0
   -4.9996   20.3490  -34.0880 H   0  0  0  0  0  0  0  0  0  0  0  0
   -3.9750   18.8614  -33.8290 H   0  0  0  0  0  0  0  0  0  0  0  0
   -6.6596   19.1460  -35.1697 H   0  0  0  0  0  0  0  0  0  0  0  0
   -5.1600   18.2225  -35.6590 H   0  0  0  0  0  0  0  0  0  0  0  0
   -7.4451   17.4014  -33.9108 H   0  0  0  0  0  0  0  0  0  0  0  0
   -6.4346   16.4563  -35.0893 H   0  0  0  0  0  0  0  0  0  0  0  0
   -6.1163   15.7433  -32.7268 H   0  0  0  0  0  0  0  0  0  0  0  0
   -4.6061   16.3776  -33.5373 H   0  0  0  0  0  0  0  0  0  0  0  0
   -6.0995   17.4025  -31.1771 H   0  0  0  0  0  0  0  0  0  0  0  0
   -4.3225   17.4964  -31.6557 H   0  0  0  0  0  0  0  0  0  0  0  0
  1  2  2  0
  2  3  1  0
  3  4  1  0
  4  5  1  0
  5  6  1  0
  6  7  1  0
  7  8  1  0
  8  9  1  0
  9 10  2  0
 10 11  1  0
 11 12  2  0
 12 13  1  0
 13 14  1  0
 13 15  2  0
  8 16  1  0
 16 17  1  0
 17 18  1  0
 18 19  1  0
 19 20  1  0
 20  8  1  0
 15  9  1  0
  1 21  1  0
  1 22  1  0
  2 23  1  0
  4 24  1  0
  4 25  1  0
  5 26  1  0
  5 27  1  0
  6 28  1  0
  6 29  1  0
  7 30  1  0
  7 31  1  0
 10 32  1  0
 11 33  1  0
 12 34  1  0
 15 35  1  0
 16 36  1  0
 16 37  1  0
 17 38  1  0
 17 39  1  0
 18 40  1  0
 18 41  1  0
 19 42  1  0
 19 43  1  0
 20 44  1  0
 20 45  1  0
M  CHG  1   6   1
M  END
>  <UniqueID>  (13) 
12

>  <SMILES>  (13) 
C=COCC[NH2+]CC1(c2cccc(Cl)c2)CCCCC1

>  <Energy>  (13) 
57.11765772781457

>  <Genealogy>  (13) 
C=COCC[NH2+]CC1(c2cccc(Cl)c2)CCCCC1 (protonated)
C=COCC[NH2+]CC1(c2cccc(Cl)c2)CCCCC1 (3D coordinates assigned)
C=COCC[NH2+]CC1(c2cccc(Cl)c2)CCCCC1 (nonaromatic ring conformer: 57.11765772781457 kcal/mol)

>  <smiles>  (13) 
C=COCCNCC1(c2cccc(Cl)c2)CCCCC1

>  <score_type>  (13) 
oracle

>  <origin>  (13) 
adg

>  <m_score__min__energy>  (13) 
-6.8700000000000001

>  <m_primary>  (13) 
energy

$$$$
13:0
     RDKit          3D

 64 67  0  0  0  0  0  0  0  0999 V2000
    2.0290   24.1540  -36.4770 C   0  0  0  0  0  0  0  0  0  0  0  0
    2.4570   23.0260  -35.5940 C   0  0  0  0  0  0  0  0  0  0  0  0
    1.7360   22.7020  -34.6120 O   0  0  0  0  0  0  0  0  0  0  0  0
    3.6550   22.2990  -35.8930 N   0  0  0  0  0  0  0  0  0  0  0  0
    4.1480   21.1920  -35.0720 C   0  0  0  0  0  0  0  0  0  0  0  0
    3.2390   19.9680  -35.2190 C   0  0  1  0  0  0  0  0  0  0  0  0
    2.0540   19.9750  -34.2090 C   0  0  0  0  0  0  0  0  0  0  0  0
    0.8560   20.0950  -35.0290 N   0  0  0  0  0  0  0  0  0  0  0  0
   -0.4740   19.8420  -34.5680 C   0  0  0  0  0  0  0  0  0  0  0  0
   -0.9910   18.5450  -34.5850 C   0  0  0  0  0  0  0  0  0  0  0  0
   -2.2920   18.3040  -34.1390 C   0  0  0  0  0  0  0  0  0  0  0  0
   -3.0940   19.3570  -33.6680 C   0  0  0  0  0  0  0  0  0  0  0  0
   -4.4760   19.0550  -33.2270 C   0  0  0  0  0  0  0  0  0  0  0  0
   -5.4000   18.4870  -34.1170 C   0  0  0  0  0  0  0  0  0  0  0  0
   -6.7040   18.2090  -33.6980 C   0  0  0  0  0  0  0  0  0  0  0  0
   -7.1010   18.4860  -32.3800 C   0  0  0  0  0  0  0  0  0  0  0  0
   -8.5100   18.1860  -31.9240 C   0  0  0  0  0  0  0  0  0  0  0  0
   -9.5100   19.0220  -32.6110 N   0  0  0  0  0  0  0  0  0  0  0  0
   -9.1600   20.4510  -32.6280 C   0  0  0  0  0  0  0  0  0  0  0  0
   -8.9200   20.9920  -31.2110 C   0  0  0  0  0  0  0  0  0  0  0  0
   -7.8300   22.0310  -31.1920 C   0  0  0  0  0  0  0  0  0  0  0  0
   -7.4870   22.6830  -29.9980 C   0  0  0  0  0  0  0  0  0  0  0  0
   -6.4570   23.6250  -29.9880 C   0  0  0  0  0  0  0  0  0  0  0  0
   -5.7720   23.9020  -31.1730 C   0  0  0  0  0  0  0  0  0  0  0  0
   -6.1080   23.2560  -32.3210 N   0  0  0  0  0  0  0  0  0  0  0  0
   -7.1070   22.3340  -32.3550 C   0  0  0  0  0  0  0  0  0  0  0  0
   -6.1700   19.0350  -31.4850 C   0  0  0  0  0  0  0  0  0  0  0  0
   -4.8660   19.3140  -31.9040 C   0  0  0  0  0  0  0  0  0  0  0  0
   -2.5580   20.6680  -33.6160 C   0  0  0  0  0  0  0  0  0  0  0  0
   -3.3490   21.8330  -33.0790 C   0  0  0  0  0  0  0  0  0  0  0  0
   -1.2550   20.8980  -34.0920 C   0  0  0  0  0  0  0  0  0  0  0  0
    1.2650   20.0380  -36.3770 C   0  0  0  0  0  0  0  0  0  0  0  0
    0.4700   20.0320  -37.3540 O   0  0  0  0  0  0  0  0  0  0  0  0
    2.6320   19.9740  -36.5090 O   0  0  0  0  0  0  0  0  0  0  0  0
    1.7067   25.0033  -35.8567 H   0  0  0  0  0  0  0  0  0  0  0  0
    2.8724   24.4629  -37.1120 H   0  0  0  0  0  0  0  0  0  0  0  0
    1.1929   23.8257  -37.1120 H   0  0  0  0  0  0  0  0  0  0  0  0
    4.2130   22.5730  -36.7340 H   0  0  0  0  0  0  0  0  0  0  0  0
    5.1659   20.9276  -35.3945 H   0  0  0  0  0  0  0  0  0  0  0  0
    4.1535   21.5062  -34.0178 H   0  0  0  0  0  0  0  0  0  0  0  0
    3.8820   19.0926  -35.0454 H   0  0  0  0  0  0  0  0  0  0  0  0
    2.0340   19.0394  -33.6309 H   0  0  0  0  0  0  0  0  0  0  0  0
    2.1384   20.7951  -33.4808 H   0  0  0  0  0  0  0  0  0  0  0  0
   -0.3725   17.7119  -34.9503 H   0  0  0  0  0  0  0  0  0  0  0  0
   -2.6929   17.2798  -34.1566 H   0  0  0  0  0  0  0  0  0  0  0  0
   -5.0966   18.2594  -35.1495 H   0  0  0  0  0  0  0  0  0  0  0  0
   -7.4236   17.7706  -34.4050 H   0  0  0  0  0  0  0  0  0  0  0  0
   -8.7310   17.1284  -32.1306 H   0  0  0  0  0  0  0  0  0  0  0  0
   -8.5695   18.4061  -30.8479 H   0  0  0  0  0  0  0  0  0  0  0  0
   -9.6150   18.6890  -33.5990 H   0  0  0  0  0  0  0  0  0  0  0  0
   -8.2440   20.5870  -33.2217 H   0  0  0  0  0  0  0  0  0  0  0  0
  -10.0010   21.0056  -33.0698 H   0  0  0  0  0  0  0  0  0  0  0  0
   -9.8511   21.4445  -30.8391 H   0  0  0  0  0  0  0  0  0  0  0  0
   -8.6078   20.1538  -30.5708 H   0  0  0  0  0  0  0  0  0  0  0  0
   -8.0298   22.4518  -29.0696 H   0  0  0  0  0  0  0  0  0  0  0  0
   -6.1876   24.1439  -29.0562 H   0  0  0  0  0  0  0  0  0  0  0  0
   -4.9597   24.6437  -31.1775 H   0  0  0  0  0  0  0  0  0  0  0  0
   -7.3491   21.8236  -33.2988 H   0  0  0  0  0  0  0  0  0  0  0  0
   -6.4681   19.2470  -30.4476 H   0  0  0  0  0  0  0  0  0  0  0  0
   -4.1419   19.7387  -31.1932 H   0  0  0  0  0  0  0  0  0  0  0  0
   -3.3339   21.8107  -31.9793 H   0  0  0  0  0  0  0  0  0  0  0  0
   -2.9022   22.7738  -33.4329 H   0  0  0  0  0  0  0  0  0  0  0  0
   -4.3883   21.7648  -33.4329 H   0  0  0  0  0  0  0  0  0  0  0  0
   -0.8467   21.9194  -34.0895 H   0  0  0  0  0  0  0  0  0  0  0  0
  1  2  1  0
  2  3  2  0
  2  4  1  0
  4  5  1  0
  5  6  1  0
  6  7  1  0
  7  8  1  0
  8  9  1  0
  9 10  2  0
 10 11  1  0
 11 12  2  0
 12 13  1  0
 13 14  2  0
 14 15  1  0
 15 16  2  0
 16 17  1  0
 17 18  1  0
 18 19  1  0
 19 20  1  0
 20 21  1  0
 21 22  2  0
 22 23  1  0
 23 24  2  0
 24 25  1  0
 25 26  2  0
 16 27  1  0
 27 28  2  0
 12 29  1  0
 29 30  1  0
 29 31  2  0
  8 32  1  0
 32 33  2  0
 32 34  1  0
 34  6  1  0
 31  9  1  0
 28 13  1  0
 26 21  1  0
  1 35  1  0
  1 36  1  0
  1 37  1  0
  4 38  1  0
  5 39  1  0
  5 40  1  0
  6 41  1  6
  7 42  1  0
  7 43  1  0
 10 44  1  0
 11 45  1  0
 14 46  1  0
 15 47  1  0
 17 48  1  0
 17 49  1  0
 18 50  1  0
 19 51  1  0
 19 52  1  0
 20 53  1  0
 20 54  1  0
 22 55  1  0
 23 56  1  0
 24 57  1  0
 26 58  1  0
 27 59  1  0
 28 60  1  0
 30 61  1  0
 30 62  1  0
 30 63  1  0
 31 64  1  0
M  END
>  <UniqueID>  (14) 
13

>  <SMILES>  (14) 
CC(=O)NC[C@H]1CN(c2ccc(-c3ccc(CNCCc4cccnc4)cc3)c(C)c2)C(=O)O1

>  <Energy>  (14) 
91.07590403728813

>  <Genealogy>  (14) 
CC(=O)NC[C@H]1CN(c2ccc(-c3ccc(CNCCc4cccnc4)cc3)c(C)c2)C(=O)O1 (chirality)
CC(=O)NC[C@H]1CN(c2ccc(-c3ccc(CNCCc4cccnc4)cc3)c(C)c2)C(=O)O1 (3D coordinates assigned)
CC(=O)NC[C@H]1CN(c2ccc(-c3ccc(CNCCc4cccnc4)cc3)c(C)c2)C(=O)O1 (nonaromatic ring conformer: 91.07590403728813 kcal/mol)

>  <smiles>  (14) 
CC(=O)NCC1CN(c2ccc(-c3ccc(CNCCc4cccnc4)cc3)c(C)c2)C(=O)O1

>  <score_type>  (14) 
oracle

>  <origin>  (14) 
adg

>  <m_score__min__energy>  (14) 
-9.6600000000000001

>  <m_primary>  (14) 
energy

$$$$
14:0
     RDKit          3D

 48 49  0  0  0  0  0  0  0  0999 V2000
   -2.9850   24.5030  -29.1750 C   0  0  0  0  0  0  0  0  0  0  0  0
   -3.5060   24.7770  -30.4630 O   0  0  0  0  0  0  0  0  0  0  0  0
   -4.7280   24.2290  -30.8270 C   0  0  0  0  0  0  0  0  0  0  0  0
   -5.9440   24.8000  -30.4480 C   0  0  0  0  0  0  0  0  0  0  0  0
   -7.1500   24.2370  -30.8230 C   0  0  0  0  0  0  0  0  0  0  0  0
   -7.1440   23.0740  -31.5980 C   0  0  0  0  0  0  0  0  0  0  0  0
   -8.4630   22.5200  -31.9680 C   0  0  0  0  0  0  0  0  0  0  0  0
   -8.5850   21.0860  -31.5270 C   0  0  0  0  0  0  0  0  0  0  0  0
   -8.9450   20.2910  -32.6640 N   0  0  0  0  0  0  0  0  0  0  0  0
   -9.2940   18.9310  -32.3170 C   0  0  0  0  0  0  0  0  0  0  0  0
   -8.1170   18.0730  -31.9510 C   0  0  0  0  0  0  0  0  0  0  0  0
   -6.8600   18.6050  -32.5420 C   0  0  0  0  0  0  0  0  0  0  0  0
   -5.6620   18.7480  -31.8570 C   0  0  0  0  0  0  0  0  0  0  0  0
   -4.7190   19.2620  -32.6920 N   0  0  0  0  0  0  0  0  0  0  0  0
   -5.3270   19.4370  -33.8810 C   0  0  0  0  0  0  0  0  0  0  0  0
   -6.6120   19.0400  -33.7790 N   0  0  0  0  0  0  0  0  0  0  0  0
   -5.9460   22.5050  -31.9750 C   0  0  0  0  0  0  0  0  0  0  0  0
   -4.7220   23.0690  -31.5990 C   0  0  0  0  0  0  0  0  0  0  0  0
   -3.4420   22.4300  -32.0210 C   0  0  0  0  0  0  0  0  0  0  0  0
   -3.2390   21.1930  -31.2600 N   0  0  0  0  0  0  0  0  0  0  0  0
   -3.4750   21.3750  -29.8530 C   0  0  0  0  0  0  0  0  0  0  0  0
   -1.8990   20.7040  -31.4900 C   0  0  0  0  0  0  0  0  0  0  0  0
   -3.6849   24.8711  -28.4104 H   0  0  0  0  0  0  0  0  0  0  0  0
   -2.8507   23.4176  -29.0571 H   0  0  0  0  0  0  0  0  0  0  0  0
   -2.0146   25.0074  -29.0571 H   0  0  0  0  0  0  0  0  0  0  0  0
   -5.9429   25.7160  -29.8389 H   0  0  0  0  0  0  0  0  0  0  0  0
   -8.1004   24.6978  -30.5158 H   0  0  0  0  0  0  0  0  0  0  0  0
   -9.2521   23.1142  -31.4840 H   0  0  0  0  0  0  0  0  0  0  0  0
   -8.5679   22.5618  -33.0622 H   0  0  0  0  0  0  0  0  0  0  0  0
   -7.6233   20.7393  -31.1210 H   0  0  0  0  0  0  0  0  0  0  0  0
   -9.3531   20.9957  -30.7448 H   0  0  0  0  0  0  0  0  0  0  0  0
   -8.2920   20.3510  -33.4480 H   0  0  0  0  0  0  0  0  0  0  0  0
   -9.9821   18.9585  -31.4592 H   0  0  0  0  0  0  0  0  0  0  0  0
   -9.7500   18.4813  -33.2113 H   0  0  0  0  0  0  0  0  0  0  0  0
   -8.0168   18.0493  -30.8558 H   0  0  0  0  0  0  0  0  0  0  0  0
   -8.2871   17.0607  -32.3465 H   0  0  0  0  0  0  0  0  0  0  0  0
   -5.4996   18.4860  -30.8011 H   0  0  0  0  0  0  0  0  0  0  0  0
   -3.7180   19.4670  -32.4190 H   0  0  0  0  0  0  0  0  0  0  0  0
   -4.8524   19.8387  -34.7884 H   0  0  0  0  0  0  0  0  0  0  0  0
   -5.9527   21.5889  -32.5838 H   0  0  0  0  0  0  0  0  0  0  0  0
   -3.4853   22.1968  -33.0951 H   0  0  0  0  0  0  0  0  0  0  0  0
   -2.6070   23.1199  -31.8289 H   0  0  0  0  0  0  0  0  0  0  0  0
   -2.7317   20.8018  -29.2794 H   0  0  0  0  0  0  0  0  0  0  0  0
   -3.3884   22.4424  -29.6017 H   0  0  0  0  0  0  0  0  0  0  0  0
   -4.4854   21.0200  -29.6017 H   0  0  0  0  0  0  0  0  0  0  0  0
   -1.4039   20.5233  -30.5245 H   0  0  0  0  0  0  0  0  0  0  0  0
   -1.9444   19.7645  -32.0603 H   0  0  0  0  0  0  0  0  0  0  0  0
   -1.3286   21.4519  -32.0603 H   0  0  0  0  0  0  0  0  0  0  0  0
  1  2  1  0
  2  3  1  0
  3  4  2  0
  4  5  1  0
  5  6  2  0
  6  7  1  0
  7  8  1  0
  8  9  1  0
  9 10  1  0
 10 11  1  0
 11 12  1  0
 12 13  2  0
 13 14  1  0
 14 15  1  0
 15 16  2  0
  6 17  1  0
 17 18  2  0
 18 19  1  0
 19 20  1  0
 20 21  1  0
 20 22  1  0
 18  3  1  0
 16 12  1  0
  1 23  1  0
  1 24  1  0
  1 25  1  0
  4 26  1  0
  5 27  1  0
  7 28  1  0
  7 29  1  0
  8 30  1  0
  8 31  1  0
  9 32  1  0
 10 33  1  0
 10 34  1  0
 11 35  1  0
 11 36  1  0
 13 37  1  0
 14 38  1  0
 15 39  1  0
 17 40  1  0
 19 41  1  0
 19 42  1  0
 21 43  1  0
 21 44  1  0
 21 45  1  0
 22 46  1  0
 22 47  1  0
 22 48  1  0
M  END
>  <smiles>  (15) 
COc1ccc(CCNCCc2c[nH]cn2)cc1CN(C)C

>  <score_type>  (15) 
oracle

>  <origin>  (15) 
adg

>  <m_score__min__energy>  (15) 
-7.1500000000000004

>  <m_primary>  (15) 
energy

$$$$
15:0
     RDKit          3D

 44 45  0  0  0  0  0  0  0  0999 V2000
   -5.6080   25.6930  -30.0990 C   0  0  0  0  0  0  0  0  0  0  0  0
   -4.7360   24.8400  -30.8350 O   0  0  0  0  0  0  0  0  0  0  0  0
   -5.0940   23.5830  -31.3510 C   0  0  0  0  0  0  0  0  0  0  0  0
   -6.3820   23.3380  -31.8650 C   0  0  0  0  0  0  0  0  0  0  0  0
   -6.7310   22.0690  -32.3300 C   0  0  0  0  0  0  0  0  0  0  0  0
   -5.8080   21.0150  -32.2850 C   0  0  0  0  0  0  0  0  0  0  0  0
   -6.1840   19.6680  -32.7800 C   0  0  0  0  0  0  0  0  0  0  0  0
   -5.4660   19.0830  -33.8390 C   0  0  0  0  0  0  0  0  0  0  0  0
   -5.8080   17.8120  -34.3100 C   0  0  0  0  0  0  0  0  0  0  0  0
   -6.8690   17.1120  -33.7310 C   0  0  0  0  0  0  0  0  0  0  0  0
   -7.2000   15.8800  -34.1890 F   0  0  0  0  0  0  0  0  0  0  0  0
   -7.5940   17.6850  -32.6830 C   0  0  0  0  0  0  0  0  0  0  0  0
   -7.2580   18.9560  -32.2070 C   0  0  0  0  0  0  0  0  0  0  0  0
   -8.0020   19.5030  -31.2130 F   0  0  0  0  0  0  0  0  0  0  0  0
   -4.5190   21.2580  -31.7860 C   0  0  0  0  0  0  0  0  0  0  0  0
   -4.1490   22.5350  -31.3310 C   0  0  0  0  0  0  0  0  0  0  0  0
   -2.7720   22.7470  -30.8340 C   0  0  0  0  0  0  0  0  0  0  0  0
   -1.8090   22.1930  -31.4320 O   0  0  0  0  0  0  0  0  0  0  0  0
   -2.5200   23.6140  -29.7160 N   0  0  0  0  0  0  0  0  0  0  0  0
   -1.1720   23.8940  -29.2250 C   0  0  0  0  0  0  0  0  0  0  0  0
   -1.1940   24.2230  -27.7310 C   0  0  0  0  0  0  0  0  0  0  0  0
   -2.4920   24.8410  -27.3670 N   0  0  0  0  0  0  0  0  0  0  0  0
   -3.5130   23.8180  -27.0890 C   0  0  0  0  0  0  0  0  0  0  0  0
   -2.3520   25.7360  -26.2080 C   0  0  0  0  0  0  0  0  0  0  0  0
   -5.4494   25.5379  -29.0216 H   0  0  0  0  0  0  0  0  0  0  0  0
   -5.3959   26.7419  -30.3536 H   0  0  0  0  0  0  0  0  0  0  0  0
   -6.6520   25.4578  -30.3536 H   0  0  0  0  0  0  0  0  0  0  0  0
   -7.1193   24.1536  -31.9003 H   0  0  0  0  0  0  0  0  0  0  0  0
   -7.7387   21.8946  -32.7351 H   0  0  0  0  0  0  0  0  0  0  0  0
   -4.6298   19.6294  -34.2996 H   0  0  0  0  0  0  0  0  0  0  0  0
   -5.2405   17.3623  -35.1381 H   0  0  0  0  0  0  0  0  0  0  0  0
   -8.4320   17.1343  -32.2309 H   0  0  0  0  0  0  0  0  0  0  0  0
   -3.7878   20.4370  -31.7505 H   0  0  0  0  0  0  0  0  0  0  0  0
   -3.2980   24.2070  -29.3490 H   0  0  0  0  0  0  0  0  0  0  0  0
   -0.5376   23.0107  -29.3902 H   0  0  0  0  0  0  0  0  0  0  0  0
   -0.7717   24.7612  -29.7706 H   0  0  0  0  0  0  0  0  0  0  0  0
   -1.0559   23.2979  -27.1522 H   0  0  0  0  0  0  0  0  0  0  0  0
   -0.3816   24.9293  -27.5047 H   0  0  0  0  0  0  0  0  0  0  0  0
   -3.6290   23.7018  -26.0013 H   0  0  0  0  0  0  0  0  0  0  0  0
   -4.4723   24.1283  -27.5290 H   0  0  0  0  0  0  0  0  0  0  0  0
   -3.2008   22.8594  -27.5290 H   0  0  0  0  0  0  0  0  0  0  0  0
   -2.4434   25.1518  -25.2805 H   0  0  0  0  0  0  0  0  0  0  0  0
   -1.3666   26.2239  -26.2384 H   0  0  0  0  0  0  0  0  0  0  0  0
   -3.1413   26.5015  -26.2384 H   0  0  0  0  0  0  0  0  0  0  0  0
  1  2  1  0
  2  3  1  0
  3  4  2  0
  4  5  1  0
  5  6  2  0
  6  7  1  0
  7  8  2  0
  8  9  1  0
  9 10  2  0
 10 11  1  0
 10 12  1  0
 12 13  2  0
 13 14  1  0
  6 15  1  0
 15 16  2  0
 16 17  1  0
 17 18  2  0
 17 19  1  0
 19 20  1  0
 20 21  1  0
 21 22  1  0
 22 23  1  0
 22 24  1  0
 16  3  1  0
 13  7  1  0
  1 25  1  0
  1 26  1  0
  1 27  1  0
  4 28  1  0
  5 29  1  0
  8 30  1  0
  9 31  1  0
 12 32  1  0
 15 33  1  0
 19 34  1  0
 20 35  1  0
 20 36  1  0
 21 37  1  0
 21 38  1  0
 23 39  1  0
 23 40  1  0
 23 41  1  0
 24 42  1  0
 24 43  1  0
 24 44  1  0
M  END
>  <UniqueID>  (16) 
14

>  <SMILES>  (16) 
COc1ccc(-c2ccc(F)cc2F)cc1C(=O)NCCN(C)C

>  <Energy>  (16) 
51.90819867196166

>  <Genealogy>  (16) 
COc1ccc(-c2ccc(F)cc2F)cc1C(=O)NCCN(C)C (3D coordinates assigned)
COc1ccc(-c2ccc(F)cc2F)cc1C(=O)NCCN(C)C (optimized conformer: 51.90819867196166 kcal/mol)

>  <smiles>  (16) 
COc1ccc(-c2ccc(F)cc2F)cc1C(=O)NCCN(C)C

>  <score_type>  (16) 
oracle

>  <origin>  (16) 
adg

>  <m_score__min__energy>  (16) 
-7.5099999999999998

>  <m_primary>  (16) 
energy

$$$$
16:0
     RDKit          3D

 29 29  0  0  0  0  0  0  0  0999 V2000
   -9.1180   21.9080  -31.3510 C   0  0  0  0  0  0  0  0  0  0  0  0
   -7.9560   22.3740  -30.8870 C   0  0  0  0  0  0  0  0  0  0  0  0
   -7.2400   23.5180  -31.5510 C   0  0  0  0  0  0  0  0  0  0  0  0
   -5.7990   23.4720  -31.2630 N   0  0  0  0  0  0  0  0  0  0  0  0
   -4.9160   22.5140  -31.8970 C   0  0  0  0  0  0  0  0  0  0  0  0
   -5.4050   21.4500  -32.6820 C   0  0  0  0  0  0  0  0  0  0  0  0
   -4.5110   20.5540  -33.2690 C   0  0  0  0  0  0  0  0  0  0  0  0
   -3.1330   20.7220  -33.0980 C   0  0  0  0  0  0  0  0  0  0  0  0
   -2.1690   19.7410  -33.6970 C   0  0  0  0  0  0  0  0  0  0  0  0
   -2.6790   21.7790  -32.3040 C   0  0  0  0  0  0  0  0  0  0  0  0
   -3.5670   22.6370  -31.7360 N   0  0  0  0  0  0  0  0  0  0  0  0
   -5.1230   24.6820  -30.2010 S   0  0  0  0  0  0  0  0  0  0  0  0
   -4.6390   23.9180  -28.6690 C   0  0  0  0  0  0  0  0  0  0  0  0
   -6.1430   25.7530  -29.9360 O   0  0  0  0  0  0  0  0  0  0  0  0
   -3.9170   25.3190  -30.8310 O   0  0  0  0  0  0  0  0  0  0  0  0
   -9.6168   21.0697  -30.8426 H   0  0  0  0  0  0  0  0  0  0  0  0
   -9.5765   22.3624  -32.2417 H   0  0  0  0  0  0  0  0  0  0  0  0
   -7.5104   21.9089  -29.9953 H   0  0  0  0  0  0  0  0  0  0  0  0
   -7.3922   23.4557  -32.6386 H   0  0  0  0  0  0  0  0  0  0  0  0
   -7.6469   24.4622  -31.1600 H   0  0  0  0  0  0  0  0  0  0  0  0
   -6.4878   21.3266  -32.8312 H   0  0  0  0  0  0  0  0  0  0  0  0
   -4.8909   19.7132  -33.8679 H   0  0  0  0  0  0  0  0  0  0  0  0
   -1.6431   19.2059  -32.8926 H   0  0  0  0  0  0  0  0  0  0  0  0
   -2.7191   19.0194  -34.3188 H   0  0  0  0  0  0  0  0  0  0  0  0
   -1.4379   20.2784  -34.3188 H   0  0  0  0  0  0  0  0  0  0  0  0
   -1.6003   21.9168  -32.1384 H   0  0  0  0  0  0  0  0  0  0  0  0
   -5.0172   24.5150  -27.8260 H   0  0  0  0  0  0  0  0  0  0  0  0
   -5.0590   22.9027  -28.6169 H   0  0  0  0  0  0  0  0  0  0  0  0
   -3.5416   23.8640  -28.6169 H   0  0  0  0  0  0  0  0  0  0  0  0
  1  2  2  0
  2  3  1  0
  3  4  1  0
  4  5  1  0
  5  6  2  0
  6  7  1  0
  7  8  2  0
  8  9  1  0
  8 10  1  0
 10 11  2  0
  4 12  1  0
 12 13  1  0
 12 14  2  0
 12 15  2  0
 11  5  1  0
  1 16  1  0
  1 17  1  0
  2 18  1  0
  3 19  1  0
  3 20  1  0
  6 21  1  0
  7 22  1  0
  9 23  1  0
  9 24  1  0
  9 25  1  0
 10 26  1  0
 13 27  1  0
 13 28  1  0
 13 29  1  0
M  END
>  <UniqueID>  (17) 
15

>  <SMILES>  (17) 
C=CCN(c1ccc(C)cn1)S(C)(=O)=O

>  <Energy>  (17) 
22.661619258067976

>  <Genealogy>  (17) 
C=CCN(c1ccc(C)cn1)S(C)(=O)=O (3D coordinates assigned)
C=CCN(c1ccc(C)cn1)S(C)(=O)=O (optimized conformer: 22.661619258067976 kcal/mol)

>  <smiles>  (17) 
C=CCN(c1ccc(C)cn1)S(C)(=O)=O

>  <score_type>  (17) 
oracle

>  <origin>  (17) 
adg

>  <m_score__min__energy>  (17) 
-6.2699999999999996

>  <m_primary>  (17) 
energy

$$$$
17:0
     RDKit          3D

 35 36  0  0  0  0  0  0  0  0999 V2000
   -2.6040   20.5210  -28.3800 C   0  0  0  0  0  0  0  0  0  0  0  0
   -2.2930   20.6020  -29.8180 N   0  0  0  0  0  0  0  0  0  0  0  0
   -1.3900   21.7370  -30.1150 C   0  0  0  0  0  0  0  0  0  0  0  0
   -2.1220   23.0890  -30.0470 C   0  0  0  0  0  0  0  0  0  0  0  0
   -3.4310   23.0120  -30.7020 N   0  0  0  0  0  0  0  0  0  0  0  0
   -4.3350   24.1290  -30.5960 C   0  0  0  0  0  0  0  0  0  0  0  0
   -3.8710   25.2950  -30.4740 O   0  0  0  0  0  0  0  0  0  0  0  0
   -5.8270   23.9390  -30.6180 C   0  0  0  0  0  0  0  0  0  0  0  0
   -6.2430   23.3490  -31.8500 O   0  0  0  0  0  0  0  0  0  0  0  0
   -7.1620   22.2920  -31.9670 C   0  0  0  0  0  0  0  0  0  0  0  0
   -8.5250   22.5770  -31.8120 C   0  0  0  0  0  0  0  0  0  0  0  0
   -9.4780   21.5600  -31.9130 C   0  0  0  0  0  0  0  0  0  0  0  0
   -9.0780   20.2470  -32.1720 C   0  0  0  0  0  0  0  0  0  0  0  0
   -7.7210   19.9490  -32.3310 C   0  0  0  0  0  0  0  0  0  0  0  0
   -7.1740   18.1540  -32.6850 Br  0  0  0  0  0  0  0  0  0  0  0  0
   -6.7650   20.9650  -32.2310 C   0  0  0  0  0  0  0  0  0  0  0  0
   -3.7500   21.8230  -31.4980 C   0  0  0  0  0  0  0  0  0  0  0  0
   -3.5240   20.5600  -30.6530 C   0  0  0  0  0  0  0  0  0  0  0  0
   -1.7019   20.7559  -27.7960 H   0  0  0  0  0  0  0  0  0  0  0  0
   -3.3975   21.2424  -28.1353 H   0  0  0  0  0  0  0  0  0  0  0  0
   -2.9447   19.5041  -28.1353 H   0  0  0  0  0  0  0  0  0  0  0  0
   -0.5700   21.7398  -29.3817 H   0  0  0  0  0  0  0  0  0  0  0  0
   -1.0080   21.6085  -31.1385 H   0  0  0  0  0  0  0  0  0  0  0  0
   -2.2634   23.3687  -28.9926 H   0  0  0  0  0  0  0  0  0  0  0  0
   -1.5137   23.8431  -30.5679 H   0  0  0  0  0  0  0  0  0  0  0  0
   -6.1195   23.2816  -29.7860 H   0  0  0  0  0  0  0  0  0  0  0  0
   -6.3100   24.9220  -30.5160 H   0  0  0  0  0  0  0  0  0  0  0  0
   -8.8473   23.6090  -31.6093 H   0  0  0  0  0  0  0  0  0  0  0  0
  -10.5456   21.7940  -31.7883 H   0  0  0  0  0  0  0  0  0  0  0  0
   -9.8299   19.4480  -32.2508 H   0  0  0  0  0  0  0  0  0  0  0  0
   -5.6985   20.7278  -32.3589 H   0  0  0  0  0  0  0  0  0  0  0  0
   -4.8021   21.8670  -31.8160 H   0  0  0  0  0  0  0  0  0  0  0  0
   -3.0982   21.7910  -32.3835 H   0  0  0  0  0  0  0  0  0  0  0  0
   -4.3895   20.4303  -29.9867 H   0  0  0  0  0  0  0  0  0  0  0  0
   -3.4022   19.7238  -31.3573 H   0  0  0  0  0  0  0  0  0  0  0  0
  1  2  1  0
  2  3  1  0
  3  4  1  0
  4  5  1  0
  5  6  1  0
  6  7  2  0
  6  8  1  0
  8  9  1  0
  9 10  1  0
 10 11  2  0
 11 12  1  0
 12 13  2  0
 13 14  1  0
 14 15  1  0
 14 16  2  0
  5 17  1  0
 17 18  1  0
 18  2  1  0
 16 10  1  0
  1 19  1  0
  1 20  1  0
  1 21  1  0
  3 22  1  0
  3 23  1  0
  4 24  1  0
  4 25  1  0
  8 26  1  0
  8 27  1  0
 11 28  1  0
 12 29  1  0
 13 30  1  0
 16 31  1  0
 17 32  1  0
 17 33  1  0
 18 34  1  0
 18 35  1  0
M  END
>  <UniqueID>  (18) 
16

>  <SMILES>  (18) 
CN1CCN(C(=O)COc2cccc(Br)c2)CC1

>  <Energy>  (18) 
41.28454041006458

>  <Genealogy>  (18) 
CN1CCN(C(=O)COc2cccc(Br)c2)CC1 (3D coordinates assigned)
CN1CCN(C(=O)COc2cccc(Br)c2)CC1 (nonaromatic ring conformer: 41.28454041006458 kcal/mol)

>  <smiles>  (18) 
CN1CCN(C(=O)COc2cccc(Br)c2)CC1

>  <score_type>  (18) 
oracle

>  <origin>  (18) 
adg

>  <m_score__min__energy>  (18) 
-7.0700000000000003

>  <m_primary>  (18) 
energy

$$$$
18:0
     RDKit          3D

 56 60  0  0  0  0  0  0  0  0999 V2000
   -6.9120   21.6810  -32.4030 C   0  0  0  0  0  0  0  0  0  0  0  0
   -7.1240   20.1950  -32.4270 C   0  0  0  0  0  0  0  0  0  0  0  0
   -8.2910   19.6400  -31.8840 C   0  0  0  0  0  0  0  0  0  0  0  0
   -8.5040   18.2610  -31.9410 C   0  0  0  0  0  0  0  0  0  0  0  0
   -7.5630   17.4280  -32.5500 C   0  0  0  0  0  0  0  0  0  0  0  0
   -6.3960   17.9680  -33.1160 C   0  0  0  0  0  0  0  0  0  0  0  0
   -5.3980   17.0900  -33.7770 C   0  0  0  0  0  0  0  0  0  0  0  0
   -4.9020   17.4180  -35.0390 C   0  0  0  0  0  0  0  0  0  0  0  0
   -3.9270   16.6270  -35.6320 C   0  0  0  0  0  0  0  0  0  0  0  0
   -3.4590   15.4590  -35.0040 C   0  0  0  0  0  0  0  0  0  0  0  0
   -4.0520   15.0170  -33.7850 C   0  0  0  0  0  0  0  0  0  0  0  0
   -4.9460   15.9200  -33.1490 C   0  0  0  0  0  0  0  0  0  0  0  0
   -3.7070   13.6550  -33.0830 C   0  0  2  0  0  0  0  0  0  0  0  0
   -2.6740   13.9950  -31.9670 C   0  0  0  0  0  0  0  0  0  0  0  0
   -2.0330   12.7650  -31.2940 C   0  0  0  0  0  0  0  0  0  0  0  0
   -1.4520   11.7320  -32.2820 C   0  0  0  0  0  0  0  0  0  0  0  0
   -1.6790   12.0950  -33.7560 C   0  0  0  0  0  0  0  0  0  0  0  0
   -3.1660   12.4750  -34.0030 C   0  0  2  0  0  0  0  0  0  0  0  0
   -3.5390   12.5810  -35.4350 N   0  0  1  0  0  0  0  0  0  0  0  0
   -4.9270   12.9460  -35.7210 C   0  0  0  0  0  0  0  0  0  0  0  0
   -6.0020   12.8780  -34.8930 C   0  0  0  0  0  0  0  0  0  0  0  0
   -7.2950   13.1530  -35.4780 C   0  0  0  0  0  0  0  0  0  0  0  0
   -8.3300   13.3720  -35.9460 N   0  0  0  0  0  0  0  0  0  0  0  0
   -6.0070   12.5470  -33.4410 C   0  0  0  0  0  0  0  0  0  0  0  0
   -6.9680   11.8650  -32.9930 O   0  0  0  0  0  0  0  0  0  0  0  0
   -4.9940   13.0470  -32.4360 C   0  0  0  0  0  0  0  0  0  0  0  0
   -2.6040   13.4140  -36.2320 C   0  0  0  0  0  0  0  0  0  0  0  0
   -2.2740   14.7780  -35.6150 C   0  0  0  0  0  0  0  0  0  0  0  0
   -6.1880   19.3570  -33.0560 C   0  0  0  0  0  0  0  0  0  0  0  0
   -6.8626   22.0275  -31.3602 H   0  0  0  0  0  0  0  0  0  0  0  0
   -5.9699   21.9253  -32.9156 H   0  0  0  0  0  0  0  0  0  0  0  0
   -7.7482   22.1790  -32.9156 H   0  0  0  0  0  0  0  0  0  0  0  0
   -9.0407   20.2921  -31.4120 H   0  0  0  0  0  0  0  0  0  0  0  0
   -9.4167   17.8292  -31.5044 H   0  0  0  0  0  0  0  0  0  0  0  0
   -7.7366   16.3424  -32.5868 H   0  0  0  0  0  0  0  0  0  0  0  0
   -5.2841   18.3051  -35.5654 H   0  0  0  0  0  0  0  0  0  0  0  0
   -3.5139   16.9187  -36.6089 H   0  0  0  0  0  0  0  0  0  0  0  0
   -5.2951   15.6941  -32.1306 H   0  0  0  0  0  0  0  0  0  0  0  0
   -1.8712   14.5994  -32.4144 H   0  0  0  0  0  0  0  0  0  0  0  0
   -3.2271   14.5296  -31.1806 H   0  0  0  0  0  0  0  0  0  0  0  0
   -1.2187   13.1142  -30.6421 H   0  0  0  0  0  0  0  0  0  0  0  0
   -2.8350   12.2550  -30.7401 H   0  0  0  0  0  0  0  0  0  0  0  0
   -0.3690   11.6537  -32.1061 H   0  0  0  0  0  0  0  0  0  0  0  0
   -1.9757   10.7820  -32.0998 H   0  0  0  0  0  0  0  0  0  0  0  0
   -1.0387   12.9494  -34.0207 H   0  0  0  0  0  0  0  0  0  0  0  0
   -1.4274   11.2238  -34.3787 H   0  0  0  0  0  0  0  0  0  0  0  0
   -3.7291   11.5980  -33.6512 H   0  0  0  0  0  0  0  0  0  0  0  0
   -3.4480   11.6170  -35.8370 H   0  0  0  0  0  0  0  0  0  0  0  0
   -5.1251   13.3233  -36.7351 H   0  0  0  0  0  0  0  0  0  0  0  0
   -5.4715   13.8229  -31.8196 H   0  0  0  0  0  0  0  0  0  0  0  0
   -4.6736   12.1762  -31.8451 H   0  0  0  0  0  0  0  0  0  0  0  0
   -1.6638   12.8554  -36.3505 H   0  0  0  0  0  0  0  0  0  0  0  0
   -3.1094   13.6199  -37.1871 H   0  0  0  0  0  0  0  0  0  0  0  0
   -1.5147   14.6318  -34.8327 H   0  0  0  0  0  0  0  0  0  0  0  0
   -1.9142   15.4234  -36.4299 H   0  0  0  0  0  0  0  0  0  0  0  0
   -5.2835   19.7921  -33.5060 H   0  0  0  0  0  0  0  0  0  0  0  0
  1  2  1  0
  2  3  2  0
  3  4  1  0
  4  5  2  0
  5  6  1  0
  6  7  1  0
  7  8  2  0
  8  9  1  0
  9 10  2  0
 10 11  1  0
 11 12  2  0
 11 13  1  0
 13 14  1  1
 14 15  1  0
 15 16  1  0
 16 17  1  0
 17 18  1  0
 18 19  1  0
 19 20  1  0
 20 21  2  0
 21 22  1  0
 22 23  3  0
 21 24  1  0
 24 25  2  0
 24 26  1  0
 19 27  1  0
 27 28  1  0
  6 29  2  0
 29  2  1  0
 12  7  1  0
 18 13  1  0
 28 10  1  0
 26 13  1  0
  1 30  1  0
  1 31  1  0
  1 32  1  0
  3 33  1  0
  4 34  1  0
  5 35  1  0
  8 36  1  0
  9 37  1  0
 12 38  1  0
 14 39  1  0
 14 40  1  0
 15 41  1  0
 15 42  1  0
 16 43  1  0
 16 44  1  0
 17 45  1  0
 17 46  1  0
 18 47  1  1
 19 48  1  6
 20 49  1  0
 26 50  1  0
 26 51  1  0
 27 52  1  0
 27 53  1  0
 28 54  1  0
 28 55  1  0
 29 56  1  0
M  CHG  1  19   1
M  END
>  <UniqueID>  (19) 
17

>  <SMILES>  (19) 
Cc1cccc(-c2ccc3c(c2)[C@]24CCCC[C@@H]2[NH+](C=C(C#N)C(=O)C4)CC3)c1

>  <Energy>  (19) 
123.50466489356857

>  <Genealogy>  (19) 
Cc1cccc(-c2ccc3c(c2)C24CCCCC2[NH+](C=C(C#N)C(=O)C4)CC3)c1 (protonated)
Cc1cccc(-c2ccc3c(c2)[C@]24CCCC[C@@H]2[NH+](C=C(C#N)C(=O)C4)CC3)c1 (chirality)
Cc1cccc(-c2ccc3c(c2)[C@]24CCCC[C@@H]2[NH+](C=C(C#N)C(=O)C4)CC3)c1 (3D coordinates assigned)
Cc1cccc(-c2ccc3c(c2)[C@]24CCCC[C@@H]2[NH+](C=C(C#N)C(=O)C4)CC3)c1 (nonaromatic ring conformer: 123.50466489356857 kcal/mol)

>  <smiles>  (19) 
Cc1cccc(-c2ccc3c(c2)C24CCCCC2N(C=C(C#N)C(=O)C4)CC3)c1

>  <score_type>  (19) 
oracle

>  <origin>  (19) 
adg

>  <m_score__min__energy>  (19) 
-4.2699999999999996

>  <m_primary>  (19) 
energy

$$$$
19:0
     RDKit          3D

 36 38  0  0  0  0  0  0  0  0999 V2000
    0.0270   26.7110  -26.4450 C   0  0  0  0  0  0  0  0  0  0  0  0
   -1.0480   25.9670  -27.1860 C   0  0  0  0  0  0  0  0  0  0  0  0
   -1.0810   25.9610  -28.5850 C   0  0  0  0  0  0  0  0  0  0  0  0
   -2.0500   25.2720  -29.2410 N   0  0  0  0  0  0  0  0  0  0  0  0
   -3.0020   24.5710  -28.5650 C   0  0  0  0  0  0  0  0  0  0  0  0
   -4.0510   23.8270  -29.3040 C   0  0  0  0  0  0  0  0  0  0  0  0
   -5.3650   24.3170  -29.3720 C   0  0  0  0  0  0  0  0  0  0  0  0
   -6.3540   23.6170  -30.0680 C   0  0  0  0  0  0  0  0  0  0  0  0
   -6.0640   22.3990  -30.7260 C   0  0  0  0  0  0  0  0  0  0  0  0
   -7.0980   21.6670  -31.4560 N   0  0  0  0  0  0  0  0  0  0  0  0
   -8.5210   21.9730  -31.1990 C   0  0  0  0  0  0  0  0  0  0  0  0
   -9.4890   21.1880  -32.0900 C   0  0  0  0  0  0  0  0  0  0  0  0
   -9.0360   19.8700  -32.2870 O   0  0  0  0  0  0  0  0  0  0  0  0
   -7.8800   19.9140  -33.0870 C   0  0  0  0  0  0  0  0  0  0  0  0
   -6.7080   20.5360  -32.3250 C   0  0  0  0  0  0  0  0  0  0  0  0
   -4.7400   21.9130  -30.6440 C   0  0  0  0  0  0  0  0  0  0  0  0
   -3.7530   22.6150  -29.9470 C   0  0  0  0  0  0  0  0  0  0  0  0
   -2.9800   24.5600  -27.2040 N   0  0  0  0  0  0  0  0  0  0  0  0
   -2.0300   25.2340  -26.5040 C   0  0  0  0  0  0  0  0  0  0  0  0
   -2.0430   25.1930  -25.2450 O   0  0  0  0  0  0  0  0  0  0  0  0
   -0.1312   26.6015  -25.3620 H   0  0  0  0  0  0  0  0  0  0  0  0
    1.0107   26.2995  -26.7153 H   0  0  0  0  0  0  0  0  0  0  0  0
   -0.0116   27.7766  -26.7153 H   0  0  0  0  0  0  0  0  0  0  0  0
   -0.3205   26.5155  -29.1544 H   0  0  0  0  0  0  0  0  0  0  0  0
   -5.6189   25.2631  -28.8715 H   0  0  0  0  0  0  0  0  0  0  0  0
   -7.3767   24.0205  -30.1048 H   0  0  0  0  0  0  0  0  0  0  0  0
   -8.7437   21.7338  -30.1487 H   0  0  0  0  0  0  0  0  0  0  0  0
   -8.6672   23.0394  -31.4259 H   0  0  0  0  0  0  0  0  0  0  0  0
  -10.4783   21.1605  -31.6098 H   0  0  0  0  0  0  0  0  0  0  0  0
   -9.5495   21.6880  -33.0679 H   0  0  0  0  0  0  0  0  0  0  0  0
   -7.6111   18.8904  -33.3869 H   0  0  0  0  0  0  0  0  0  0  0  0
   -8.0900   20.5328  -33.9719 H   0  0  0  0  0  0  0  0  0  0  0  0
   -6.2495   19.7577  -31.6973 H   0  0  0  0  0  0  0  0  0  0  0  0
   -6.0102   20.9336  -33.0767 H   0  0  0  0  0  0  0  0  0  0  0  0
   -4.4813   20.9647  -31.1378 H   0  0  0  0  0  0  0  0  0  0  0  0
   -2.7301   22.2131  -29.9016 H   0  0  0  0  0  0  0  0  0  0  0  0
  1  2  1  0
  2  3  2  0
  3  4  1  0
  4  5  1  0
  5  6  1  0
  6  7  2  0
  7  8  1  0
  8  9  2  0
  9 10  1  0
 10 11  1  0
 11 12  1  0
 12 13  1  0
 13 14  1  0
 14 15  1  0
  9 16  1  0
 16 17  2  0
  5 18  2  0
 18 19  1  0
 19 20  2  0
 19  2  1  0
 17  6  1  0
 15 10  1  0
  1 21  1  0
  1 22  1  0
  1 23  1  0
  3 24  1  0
  7 25  1  0
  8 26  1  0
 11 27  1  0
 11 28  1  0
 12 29  1  0
 12 30  1  0
 14 31  1  0
 14 32  1  0
 15 33  1  0
 15 34  1  0
 16 35  1  0
 17 36  1  0
M  CHG  1   4  -1
M  END
>  <UniqueID>  (20) 
18

>  <SMILES>  (20) 
Cc1c[n-]c(-c2ccc(N3CCOCC3)cc2)nc1=O

>  <Energy>  (20) 
48.098345451745786

>  <Genealogy>  (20) 
Cc1c[n-]c(-c2ccc(N3CCOCC3)cc2)nc1=O (protonated)
Cc1c[n-]c(-c2ccc(N3CCOCC3)cc2)nc1=O (3D coordinates assigned)
Cc1c[n-]c(-c2ccc(N3CCOCC3)cc2)nc1=O (nonaromatic ring conformer: 48.098345451745786 kcal/mol)

>  <smiles>  (20) 
Cc1c[nH]c(-c2ccc(N3CCOCC3)cc2)nc1=O

>  <score_type>  (20) 
oracle

>  <origin>  (20) 
adg

>  <m_score__min__energy>  (20) 
-7.4500000000000002

>  <m_primary>  (20) 
energy

$$$$
20:0
     RDKit          3D

 59 61  0  0  0  0  0  0  0  0999 V2000
   -1.2610   26.4270  -26.7610 C   0  0  0  0  0  0  0  0  0  0  0  0
   -0.3480   25.8520  -27.8400 C   0  0  0  0  0  0  0  0  0  0  0  0
   -1.1500   25.2730  -28.9270 N   0  0  0  0  0  0  0  0  0  0  0  0
   -1.1830   23.8050  -28.8590 C   0  0  0  0  0  0  0  0  0  0  0  0
   -1.6990   23.3180  -27.4950 C   0  0  0  0  0  0  0  0  0  0  0  0
   -3.0910   22.6730  -27.6030 C   0  0  0  0  0  0  0  0  0  0  0  0
   -4.2160   23.7230  -27.6050 C   0  0  0  0  0  0  0  0  0  0  0  0
   -4.8290   23.9170  -29.0030 C   0  0  0  0  0  0  0  0  0  0  0  0
   -3.9680   24.7980  -29.9160 C   0  0  0  0  0  0  0  0  0  0  0  0
   -4.6290   24.9720  -31.2180 N   0  0  0  0  0  0  0  0  0  0  0  0
   -5.9810   24.3980  -31.2200 C   0  0  0  0  0  0  0  0  0  0  0  0
   -5.9540   22.9710  -31.7310 C   0  0  0  0  0  0  0  0  0  0  0  0
   -4.7150   22.4150  -32.0790 C   0  0  0  0  0  0  0  0  0  0  0  0
   -4.6210   21.1070  -32.5420 C   0  0  0  0  0  0  0  0  0  0  0  0
   -5.7620   20.3090  -32.6810 C   0  0  0  0  0  0  0  0  0  0  0  0
   -5.5820   18.9330  -33.2060 C   0  0  0  0  0  0  0  0  0  0  0  0
   -5.2730   18.7220  -34.5590 C   0  0  0  0  0  0  0  0  0  0  0  0
   -5.0740   17.4260  -35.0450 C   0  0  0  0  0  0  0  0  0  0  0  0
   -5.1700   16.3330  -34.1800 C   0  0  0  0  0  0  0  0  0  0  0  0
   -5.4650   16.5350  -32.8290 C   0  0  0  0  0  0  0  0  0  0  0  0
   -5.6670   17.8290  -32.3410 C   0  0  0  0  0  0  0  0  0  0  0  0
   -7.0310   20.8400  -32.3330 C   0  0  0  0  0  0  0  0  0  0  0  0
   -8.2040   20.0550  -32.4150 C   0  0  0  0  0  0  0  0  0  0  0  0
   -9.4460   20.5940  -32.0880 C   0  0  0  0  0  0  0  0  0  0  0  0
   -9.5460   21.9110  -31.6540 C   0  0  0  0  0  0  0  0  0  0  0  0
   -8.4030   22.6990  -31.5320 C   0  0  0  0  0  0  0  0  0  0  0  0
   -7.1300   22.1840  -31.8640 C   0  0  0  0  0  0  0  0  0  0  0  0
   -0.8599   26.1744  -25.7684 H   0  0  0  0  0  0  0  0  0  0  0  0
   -1.3120   27.5206  -26.8684 H   0  0  0  0  0  0  0  0  0  0  0  0
   -2.2693   26.0006  -26.8684 H   0  0  0  0  0  0  0  0  0  0  0  0
    0.2869   26.6542  -28.2443 H   0  0  0  0  0  0  0  0  0  0  0  0
    0.2792   25.0641  -27.3974 H   0  0  0  0  0  0  0  0  0  0  0  0
   -0.6870   25.5270  -29.8320 H   0  0  0  0  0  0  0  0  0  0  0  0
   -1.8471   23.4250  -29.6493 H   0  0  0  0  0  0  0  0  0  0  0  0
   -0.1584   23.4290  -28.9958 H   0  0  0  0  0  0  0  0  0  0  0  0
   -0.9938   22.5757  -27.0928 H   0  0  0  0  0  0  0  0  0  0  0  0
   -1.7794   24.1909  -26.8305 H   0  0  0  0  0  0  0  0  0  0  0  0
   -3.1429   22.0955  -28.5378 H   0  0  0  0  0  0  0  0  0  0  0  0
   -3.2335   22.0250  -26.7256 H   0  0  0  0  0  0  0  0  0  0  0  0
   -5.0068   23.3959  -26.9139 H   0  0  0  0  0  0  0  0  0  0  0  0
   -3.7814   24.6835  -27.2911 H   0  0  0  0  0  0  0  0  0  0  0  0
   -4.9449   22.9303  -29.4752 H   0  0  0  0  0  0  0  0  0  0  0  0
   -5.7960   24.4245  -28.8715 H   0  0  0  0  0  0  0  0  0  0  0  0
   -3.8270   25.7820  -29.4449 H   0  0  0  0  0  0  0  0  0  0  0  0
   -2.9923   24.3136  -30.0688 H   0  0  0  0  0  0  0  0  0  0  0  0
   -4.7170   26.0000  -31.3980 H   0  0  0  0  0  0  0  0  0  0  0  0
   -6.3792   24.4074  -30.1947 H   0  0  0  0  0  0  0  0  0  0  0  0
   -6.6208   24.9998  -31.8822 H   0  0  0  0  0  0  0  0  0  0  0  0
   -3.8030   23.0227  -31.9844 H   0  0  0  0  0  0  0  0  0  0  0  0
   -3.6355   20.6938  -32.8027 H   0  0  0  0  0  0  0  0  0  0  0  0
   -5.1869   19.5810  -35.2407 H   0  0  0  0  0  0  0  0  0  0  0  0
   -4.8419   17.2670  -36.1084 H   0  0  0  0  0  0  0  0  0  0  0  0
   -5.0134   15.3135  -34.5623 H   0  0  0  0  0  0  0  0  0  0  0  0
   -5.5384   15.6739  -32.1484 H   0  0  0  0  0  0  0  0  0  0  0  0
   -5.8934   17.9837  -31.2757 H   0  0  0  0  0  0  0  0  0  0  0  0
   -8.1350   19.0066  -32.7408 H   0  0  0  0  0  0  0  0  0  0  0  0
  -10.3514   19.9752  -32.1735 H   0  0  0  0  0  0  0  0  0  0  0  0
  -10.5312   22.3327  -31.4059 H   0  0  0  0  0  0  0  0  0  0  0  0
   -8.4931   23.7348  -31.1728 H   0  0  0  0  0  0  0  0  0  0  0  0
  1  2  1  0
  2  3  1  0
  3  4  1  0
  4  5  1  0
  5  6  1  0
  6  7  1  0
  7  8  1  0
  8  9  1  0
  9 10  1  0
 10 11  1  0
 11 12  1  0
 12 13  2  0
 13 14  1  0
 14 15  2  0
 15 16  1  0
 16 17  2  0
 17 18  1  0
 18 19  2  0
 19 20  1  0
 20 21  2  0
 15 22  1  0
 22 23  2  0
 23 24  1  0
 24 25  2  0
 25 26  1  0
 26 27  2  0
 27 12  1  0
 21 16  1  0
 27 22  1  0
  1 28  1  0
  1 29  1  0
  1 30  1  0
  2 31  1  0
  2 32  1  0
  3 33  1  0
  4 34  1  0
  4 35  1  0
  5 36  1  0
  5 37  1  0
  6 38  1  0
  6 39  1  0
  7 40  1  0
  7 41  1  0
  8 42  1  0
  8 43  1  0
  9 44  1  0
  9 45  1  0
 10 46  1  0
 11 47  1  0
 11 48  1  0
 13 49  1  0
 14 50  1  0
 17 51  1  0
 18 52  1  0
 19 53  1  0
 20 54  1  0
 21 55  1  0
 23 56  1  0
 24 57  1  0
 25 58  1  0
 26 59  1  0
M  END
>  <UniqueID>  (21) 
19

>  <SMILES>  (21) 
CCNCCCCCCNCc1ccc(-c2ccccc2)c2ccccc12

>  <Energy>  (21) 
57.76566280405421

>  <Genealogy>  (21) 
CCNCCCCCCNCc1ccc(-c2ccccc2)c2ccccc12 (3D coordinates assigned)
CCNCCCCCCNCc1ccc(-c2ccccc2)c2ccccc12 (optimized conformer: 57.76566280405421 kcal/mol)

>  <smiles>  (21) 
CCNCCCCCCNCc1ccc(-c2ccccc2)c2ccccc12

>  <score_type>  (21) 
oracle

>  <origin>  (21) 
adg

>  <m_score__min__energy>  (21) 
-10.15

>  <m_primary>  (21) 
energy

$$$$
21:0
     RDKit          3D

 43 45  0  0  0  0  0  0  0  0999 V2000
   -5.7660   25.6500  -30.1180 C   0  0  0  0  0  0  0  0  0  0  0  0
   -4.5580   25.1500  -30.7690 N   0  0  0  0  0  0  0  0  0  0  0  0
   -3.8790   23.9480  -30.3500 C   0  0  0  0  0  0  0  0  0  0  0  0
   -3.0840   23.9590  -29.1870 C   0  0  0  0  0  0  0  0  0  0  0  0
   -2.3850   22.8220  -28.7880 C   0  0  0  0  0  0  0  0  0  0  0  0
   -2.4540   21.6590  -29.5470 C   0  0  0  0  0  0  0  0  0  0  0  0
   -3.2390   21.6200  -30.6990 C   0  0  0  0  0  0  0  0  0  0  0  0
   -3.9900   22.7460  -31.1040 C   0  0  0  0  0  0  0  0  0  0  0  0
   -4.8820   22.6920  -32.3370 C   0  0  0  0  0  0  0  0  0  0  0  0
   -6.3290   22.3340  -32.0540 C   0  0  0  0  0  0  0  0  0  0  0  0
   -7.2970   23.3510  -32.1640 C   0  0  0  0  0  0  0  0  0  0  0  0
   -8.6490   23.0740  -31.9690 C   0  0  0  0  0  0  0  0  0  0  0  0
   -9.0600   21.7780  -31.6650 C   0  0  0  0  0  0  0  0  0  0  0  0
   -8.1190   20.7550  -31.5480 C   0  0  0  0  0  0  0  0  0  0  0  0
   -6.7480   21.0120  -31.7320 C   0  0  0  0  0  0  0  0  0  0  0  0
   -5.7750   19.8590  -31.5740 C   0  0  0  0  0  0  0  0  0  0  0  0
   -5.9580   18.8020  -32.6350 C   0  0  0  0  0  0  0  0  0  0  0  0
   -5.4990   19.0170  -33.9460 C   0  0  0  0  0  0  0  0  0  0  0  0
   -5.6830   18.0380  -34.9280 C   0  0  0  0  0  0  0  0  0  0  0  0
   -6.3440   16.8480  -34.6140 C   0  0  0  0  0  0  0  0  0  0  0  0
   -6.8280   16.6370  -33.3200 C   0  0  0  0  0  0  0  0  0  0  0  0
   -6.6430   17.6110  -32.3360 C   0  0  0  0  0  0  0  0  0  0  0  0
   -5.6421   25.5987  -29.0262 H   0  0  0  0  0  0  0  0  0  0  0  0
   -5.9394   26.6938  -30.4187 H   0  0  0  0  0  0  0  0  0  0  0  0
   -6.6263   25.0341  -30.4187 H   0  0  0  0  0  0  0  0  0  0  0  0
   -4.2140   25.6860  -31.5970 H   0  0  0  0  0  0  0  0  0  0  0  0
   -3.0143   24.8776  -28.5860 H   0  0  0  0  0  0  0  0  0  0  0  0
   -1.7776   22.8443  -27.8712 H   0  0  0  0  0  0  0  0  0  0  0  0
   -1.8881   20.7677  -29.2381 H   0  0  0  0  0  0  0  0  0  0  0  0
   -3.2739   20.6998  -31.3006 H   0  0  0  0  0  0  0  0  0  0  0  0
   -4.8610   23.6804  -32.8193 H   0  0  0  0  0  0  0  0  0  0  0  0
   -4.4819   21.8915  -32.9766 H   0  0  0  0  0  0  0  0  0  0  0  0
   -6.9822   24.3766  -32.4068 H   0  0  0  0  0  0  0  0  0  0  0  0
   -9.3927   23.8799  -32.0553 H   0  0  0  0  0  0  0  0  0  0  0  0
  -10.1282   21.5611  -31.5170 H   0  0  0  0  0  0  0  0  0  0  0  0
   -8.4530   19.7346  -31.3089 H   0  0  0  0  0  0  0  0  0  0  0  0
   -4.7493   20.2510  -31.6392 H   0  0  0  0  0  0  0  0  0  0  0  0
   -5.9663   19.3903  -30.5974 H   0  0  0  0  0  0  0  0  0  0  0  0
   -4.9927   19.9597  -34.2010 H   0  0  0  0  0  0  0  0  0  0  0  0
   -5.3070   18.2052  -35.9481 H   0  0  0  0  0  0  0  0  0  0  0  0
   -6.4836   16.0766  -35.3857 H   0  0  0  0  0  0  0  0  0  0  0  0
   -7.3552   15.7029  -33.0761 H   0  0  0  0  0  0  0  0  0  0  0  0
   -7.0353   17.4454  -31.3218 H   0  0  0  0  0  0  0  0  0  0  0  0
  1  2  1  0
  2  3  1  0
  3  4  2  0
  4  5  1  0
  5  6  2  0
  6  7  1  0
  7  8  2  0
  8  9  1  0
  9 10  1  0
 10 11  2  0
 11 12  1  0
 12 13  2  0
 13 14  1  0
 14 15  2  0
 15 16  1  0
 16 17  1  0
 17 18  2  0
 18 19  1  0
 19 20  2  0
 20 21  1  0
 21 22  2  0
  8  3  1  0
 15 10  1  0
 22 17  1  0
  1 23  1  0
  1 24  1  0
  1 25  1  0
  2 26  1  0
  4 27  1  0
  5 28  1  0
  6 29  1  0
  7 30  1  0
  9 31  1  0
  9 32  1  0
 11 33  1  0
 12 34  1  0
 13 35  1  0
 14 36  1  0
 16 37  1  0
 16 38  1  0
 18 39  1  0
 19 40  1  0
 20 41  1  0
 21 42  1  0
 22 43  1  0
M  END
>  <UniqueID>  (22) 
20

>  <SMILES>  (22) 
CNc1ccccc1Cc1ccccc1Cc1ccccc1

>  <Energy>  (22) 
45.88881306978632

>  <Genealogy>  (22) 
CNc1ccccc1Cc1ccccc1Cc1ccccc1 (3D coordinates assigned)
CNc1ccccc1Cc1ccccc1Cc1ccccc1 (optimized conformer: 45.88881306978632 kcal/mol)

>  <smiles>  (22) 
CNc1ccccc1Cc1ccccc1Cc1ccccc1

>  <score_type>  (22) 
oracle

>  <origin>  (22) 
adg

>  <m_score__min__energy>  (22) 
-8.8100000000000005

>  <m_primary>  (22) 
energy

$$$$
22:0
     RDKit          3D

 80 80  0  0  0  0  0  0  0  0999 V2000
   -9.2120   23.4240  -32.3190 C   0  0  0  0  0  0  0  0  0  0  0  0
   -8.0860   22.8500  -31.8620 C   0  0  0  0  0  0  0  0  0  0  0  0
   -7.1950   23.5850  -30.8880 C   0  0  0  0  0  0  0  0  0  0  0  0
   -6.0160   24.2660  -31.5970 C   0  0  0  0  0  0  0  0  0  0  0  0
   -5.4760   25.4370  -30.7670 C   0  0  0  0  0  0  0  0  0  0  0  0
   -4.0610   25.2310  -30.4190 N   0  0  0  0  0  0  0  0  0  0  0  0
   -3.6960   23.8070  -30.4510 C   0  0  0  0  0  0  0  0  0  0  0  0
   -4.1560   23.1230  -29.1570 C   0  0  0  0  0  0  0  0  0  0  0  0
   -3.1780   23.3200  -27.9840 C   0  0  0  0  0  0  0  0  0  0  0  0
   -1.8330   23.9340  -28.4030 C   0  0  0  0  0  0  0  0  0  0  0  0
   -1.9430   25.3910  -28.5690 N   0  0  0  0  0  0  0  0  0  0  0  0
   -1.2560   26.1110  -27.4890 C   0  0  0  0  0  0  0  0  0  0  0  0
   -1.8940   25.7700  -26.1450 C   0  0  0  0  0  0  0  0  0  0  0  0
   -1.3390   24.6120  -25.6320 F   0  0  0  0  0  0  0  0  0  0  0  0
   -3.2540   25.5900  -26.3120 F   0  0  0  0  0  0  0  0  0  0  0  0
   -1.6810   26.8040  -25.2540 F   0  0  0  0  0  0  0  0  0  0  0  0
   -7.7500   21.4290  -32.2490 C   0  0  0  0  0  0  0  0  0  0  0  0
   -8.9320   20.5640  -32.1260 N   0  0  0  0  0  0  0  0  0  0  0  0
   -8.5640   19.2520  -31.5820 C   0  0  0  0  0  0  0  0  0  0  0  0
   -7.9860   18.3360  -32.6660 C   0  0  0  0  0  0  0  0  0  0  0  0
   -6.4710   18.0770  -32.5120 C   0  0  0  0  0  0  0  0  0  0  0  0
   -5.7760   19.0690  -31.5630 C   0  0  0  0  0  0  0  0  0  0  0  0
   -4.4690   19.5070  -32.0790 N   0  0  0  0  0  0  0  0  0  0  0  0
   -4.4870   20.9200  -32.5210 C   0  0  0  0  0  0  0  0  0  0  0  0
   -3.1680   21.3520  -33.1970 C   0  0  0  0  0  0  0  0  0  0  0  0
   -1.9990   21.5380  -32.2190 C   0  0  0  0  0  0  0  0  0  0  0  0
   -2.0440   20.5590  -31.1260 N   0  0  0  0  0  0  0  0  0  0  0  0
   -1.2120   21.0060  -30.0010 C   0  0  0  0  0  0  0  0  0  0  0  0
   -1.5200   20.1810  -28.7830 C   0  0  0  0  0  0  0  0  0  0  0  0
   -2.7810   20.2700  -28.1700 C   0  0  0  0  0  0  0  0  0  0  0  0
   -3.0770   19.4910  -27.0470 C   0  0  0  0  0  0  0  0  0  0  0  0
   -2.1160   18.6180  -26.5280 C   0  0  0  0  0  0  0  0  0  0  0  0
   -0.8590   18.5240  -27.1310 C   0  0  0  0  0  0  0  0  0  0  0  0
   -0.5590   19.3020  -28.2550 C   0  0  0  0  0  0  0  0  0  0  0  0
   -9.8563   22.8834  -33.0280 H   0  0  0  0  0  0  0  0  0  0  0  0
   -9.4893   24.4344  -31.9841 H   0  0  0  0  0  0  0  0  0  0  0  0
   -7.7899   24.3515  -30.3698 H   0  0  0  0  0  0  0  0  0  0  0  0
   -6.7887   22.8518  -30.1757 H   0  0  0  0  0  0  0  0  0  0  0  0
   -5.2122   23.5299  -31.7457 H   0  0  0  0  0  0  0  0  0  0  0  0
   -6.3668   24.6551  -32.5642 H   0  0  0  0  0  0  0  0  0  0  0  0
   -5.5713   26.3648  -31.3501 H   0  0  0  0  0  0  0  0  0  0  0  0
   -6.0587   25.5040  -29.8364 H   0  0  0  0  0  0  0  0  0  0  0  0
   -3.9350   25.5690  -29.4370 H   0  0  0  0  0  0  0  0  0  0  0  0
   -4.1823   23.3247  -31.3117 H   0  0  0  0  0  0  0  0  0  0  0  0
   -2.6037   23.7142  -30.5422 H   0  0  0  0  0  0  0  0  0  0  0  0
   -5.1333   23.5387  -28.8705 H   0  0  0  0  0  0  0  0  0  0  0  0
   -4.2087   22.0431  -29.3598 H   0  0  0  0  0  0  0  0  0  0  0  0
   -3.6494   23.9854  -27.2458 H   0  0  0  0  0  0  0  0  0  0  0  0
   -2.9637   22.3233  -27.5709 H   0  0  0  0  0  0  0  0  0  0  0  0
   -1.0825   23.7166  -27.6288 H   0  0  0  0  0  0  0  0  0  0  0  0
   -1.5344   23.4949  -29.3663 H   0  0  0  0  0  0  0  0  0  0  0  0
   -2.9600   25.6420  -28.5250 H   0  0  0  0  0  0  0  0  0  0  0  0
   -0.1957   25.8186  -27.4734 H   0  0  0  0  0  0  0  0  0  0  0  0
   -1.3423   27.1934  -27.6651 H   0  0  0  0  0  0  0  0  0  0  0  0
   -7.3971   21.4122  -33.2907 H   0  0  0  0  0  0  0  0  0  0  0  0
   -6.9659   21.0546  -31.5744 H   0  0  0  0  0  0  0  0  0  0  0  0
   -9.5810   21.0210  -31.4420 H   0  0  0  0  0  0  0  0  0  0  0  0
   -7.8106   19.3910  -30.7926 H   0  0  0  0  0  0  0  0  0  0  0  0
   -9.4715   18.7790  -31.1787 H   0  0  0  0  0  0  0  0  0  0  0  0
   -8.5104   17.3701  -32.6213 H   0  0  0  0  0  0  0  0  0  0  0  0
   -8.1303   18.8455  -33.6301 H   0  0  0  0  0  0  0  0  0  0  0  0
   -6.3292   17.0597  -32.1182 H   0  0  0  0  0  0  0  0  0  0  0  0
   -6.0166   18.2046  -33.5056 H   0  0  0  0  0  0  0  0  0  0  0  0
   -6.4213   19.9510  -31.4375 H   0  0  0  0  0  0  0  0  0  0  0  0
   -5.6070   18.5578  -30.6038 H   0  0  0  0  0  0  0  0  0  0  0  0
   -3.7890   19.3800  -31.2960 H   0  0  0  0  0  0  0  0  0  0  0  0
   -5.3099   21.0533  -33.2387 H   0  0  0  0  0  0  0  0  0  0  0  0
   -4.6209   21.5454  -31.6260 H   0  0  0  0  0  0  0  0  0  0  0  0
   -2.8866   20.5822  -33.9306 H   0  0  0  0  0  0  0  0  0  0  0  0
   -3.3537   22.3313  -33.6623 H   0  0  0  0  0  0  0  0  0  0  0  0
   -1.0530   21.4170  -32.7672 H   0  0  0  0  0  0  0  0  0  0  0  0
   -2.0752   22.5442  -31.7812 H   0  0  0  0  0  0  0  0  0  0  0  0
   -3.0320   20.5030  -30.7810 H   0  0  0  0  0  0  0  0  0  0  0  0
   -0.1500   20.8890  -30.2627 H   0  0  0  0  0  0  0  0  0  0  0  0
   -1.4260   22.0637  -29.7878 H   0  0  0  0  0  0  0  0  0  0  0  0
   -3.5393   20.9559  -28.5755 H   0  0  0  0  0  0  0  0  0  0  0  0
   -4.0663   19.5651  -26.5718 H   0  0  0  0  0  0  0  0  0  0  0  0
   -2.3495   18.0051  -25.6449 H   0  0  0  0  0  0  0  0  0  0  0  0
   -0.1037   17.8371  -26.7214 H   0  0  0  0  0  0  0  0  0  0  0  0
    0.4319   19.2253  -28.7265 H   0  0  0  0  0  0  0  0  0  0  0  0
  1  2  2  0
  2  3  1  0
  3  4  1  0
  4  5  1  0
  5  6  1  0
  6  7  1  0
  7  8  1  0
  8  9  1  0
  9 10  1  0
 10 11  1  0
 11 12  1  0
 12 13  1  0
 13 14  1  0
 13 15  1  0
 13 16  1  0
  2 17  1  0
 17 18  1  0
 18 19  1  0
 19 20  1  0
 20 21  1  0
 21 22  1  0
 22 23  1  0
 23 24  1  0
 24 25  1  0
 25 26  1  0
 26 27  1  0
 27 28  1  0
 28 29  1  0
 29 30  2  0
 30 31  1  0
 31 32  2  0
 32 33  1  0
 33 34  2  0
 34 29  1  0
  1 35  1  0
  1 36  1  0
  3 37  1  0
  3 38  1  0
  4 39  1  0
  4 40  1  0
  5 41  1  0
  5 42  1  0
  6 43  1  0
  7 44  1  0
  7 45  1  0
  8 46  1  0
  8 47  1  0
  9 48  1  0
  9 49  1  0
 10 50  1  0
 10 51  1  0
 11 52  1  0
 12 53  1  0
 12 54  1  0
 17 55  1  0
 17 56  1  0
 18 57  1  0
 19 58  1  0
 19 59  1  0
 20 60  1  0
 20 61  1  0
 21 62  1  0
 21 63  1  0
 22 64  1  0
 22 65  1  0
 23 66  1  0
 24 67  1  0
 24 68  1  0
 25 69  1  0
 25 70  1  0
 26 71  1  0
 26 72  1  0
 27 73  1  0
 28 74  1  0
 28 75  1  0
 30 76  1  0
 31 77  1  0
 32 78  1  0
 33 79  1  0
 34 80  1  0
M  END
>  <UniqueID>  (23) 
21

>  <SMILES>  (23) 
C=C(CCCNCCCCNCC(F)(F)F)CNCCCCNCCCNCc1ccccc1

>  <Energy>  (23) 
50.6118613265943

>  <Genealogy>  (23) 
C=C(CCCNCCCCNCC(F)(F)F)CNCCCCNCCCNCc1ccccc1 (3D coordinates assigned)
C=C(CCCNCCCCNCC(F)(F)F)CNCCCCNCCCNCc1ccccc1 (optimized conformer: 50.6118613265943 kcal/mol)

>  <smiles>  (23) 
C=C(CCCNCCCCNCC(F)(F)F)CNCCCCNCCCNCc1ccccc1

>  <score_type>  (23) 
oracle

>  <origin>  (23) 
adg

>  <m_score__min__energy>  (23) 
-8.3900000000000006

>  <m_primary>  (23) 
energy

$$$$
23:0
     RDKit          3D

 49 52  0  0  0  0  0  0  0  0999 V2000
   -5.4100   25.9030  -30.4830 C   0  0  0  0  0  0  0  0  0  0  0  0
   -4.2480   25.1160  -30.7300 O   0  0  0  0  0  0  0  0  0  0  0  0
   -3.7030   24.1920  -29.8230 C   0  0  0  0  0  0  0  0  0  0  0  0
   -2.5740   24.4990  -29.0370 C   0  0  0  0  0  0  0  0  0  0  0  0
   -2.0370   23.5450  -28.1670 C   0  0  0  0  0  0  0  0  0  0  0  0
   -2.6120   22.2750  -28.0770 C   0  0  0  0  0  0  0  0  0  0  0  0
   -3.7310   21.9590  -28.8510 C   0  0  0  0  0  0  0  0  0  0  0  0
   -4.2920   22.9150  -29.7130 C   0  0  0  0  0  0  0  0  0  0  0  0
   -5.4470   22.5750  -30.4980 N   0  0  0  0  0  0  0  0  0  0  0  0
   -6.7300   23.2300  -30.2410 C   0  0  0  0  0  0  0  0  0  0  0  0
   -7.8520   22.2260  -30.5100 C   0  0  0  0  0  0  0  0  0  0  0  0
   -7.8400   21.7240  -31.9080 N   0  0  0  0  0  0  0  0  0  0  0  0
   -8.5040   20.1060  -31.9680 S   0  0  0  0  0  0  0  0  0  0  0  0
   -9.5760   20.0280  -33.0220 O   0  0  0  0  0  0  0  0  0  0  0  0
   -9.1130   19.7490  -30.6400 O   0  0  0  0  0  0  0  0  0  0  0  0
   -7.2260   18.9480  -32.3320 C   0  0  0  0  0  0  0  0  0  0  0  0
   -6.7960   18.0240  -31.3510 C   0  0  0  0  0  0  0  0  0  0  0  0
   -5.7900   17.0890  -31.6410 C   0  0  0  0  0  0  0  0  0  0  0  0
   -5.2320   17.0820  -32.9220 C   0  0  0  0  0  0  0  0  0  0  0  0
   -4.2560   16.2330  -33.3230 N   0  0  0  0  0  0  0  0  0  0  0  0
   -3.9290   16.4560  -34.6200 C   0  0  0  0  0  0  0  0  0  0  0  0
   -2.8390   15.7240  -35.3210 C   0  0  0  0  0  0  0  0  0  0  0  0
   -4.8170   17.7270  -35.3030 S   0  0  0  0  0  0  0  0  0  0  0  0
   -5.6700   17.9800  -33.8830 C   0  0  0  0  0  0  0  0  0  0  0  0
   -6.6600   18.9210  -33.6210 C   0  0  0  0  0  0  0  0  0  0  0  0
   -6.5100   21.7710  -32.5750 C   0  0  0  0  0  0  0  0  0  0  0  0
   -5.3380   21.6090  -31.5970 C   0  0  0  0  0  0  0  0  0  0  0  0
   -5.5602   26.0047  -29.3981 H   0  0  0  0  0  0  0  0  0  0  0  0
   -5.2798   26.8995  -30.9301 H   0  0  0  0  0  0  0  0  0  0  0  0
   -6.2871   25.4123  -30.9301 H   0  0  0  0  0  0  0  0  0  0  0  0
   -2.1126   25.4950  -29.1084 H   0  0  0  0  0  0  0  0  0  0  0  0
   -1.1599   23.7951  -27.5521 H   0  0  0  0  0  0  0  0  0  0  0  0
   -2.1837   21.5241  -27.3968 H   0  0  0  0  0  0  0  0  0  0  0  0
   -4.1755   20.9550  -28.7848 H   0  0  0  0  0  0  0  0  0  0  0  0
   -6.7733   23.5624  -29.1933 H   0  0  0  0  0  0  0  0  0  0  0  0
   -6.8434   24.1056  -30.8971 H   0  0  0  0  0  0  0  0  0  0  0  0
   -7.7330   21.3720  -29.8270 H   0  0  0  0  0  0  0  0  0  0  0  0
   -8.8097   22.7420  -30.3473 H   0  0  0  0  0  0  0  0  0  0  0  0
   -8.4910   22.3260  -32.4690 H   0  0  0  0  0  0  0  0  0  0  0  0
   -7.2544   18.0383  -30.3512 H   0  0  0  0  0  0  0  0  0  0  0  0
   -5.4481   16.3766  -30.8757 H   0  0  0  0  0  0  0  0  0  0  0  0
   -2.1650   15.2714  -34.5788 H   0  0  0  0  0  0  0  0  0  0  0  0
   -3.2739   14.9342  -35.9511 H   0  0  0  0  0  0  0  0  0  0  0  0
   -2.2725   16.4254  -35.9511 H   0  0  0  0  0  0  0  0  0  0  0  0
   -6.9916   19.6245  -34.3990 H   0  0  0  0  0  0  0  0  0  0  0  0
   -6.4616   20.9598  -33.3163 H   0  0  0  0  0  0  0  0  0  0  0  0
   -6.4125   22.7625  -33.0412 H   0  0  0  0  0  0  0  0  0  0  0  0
   -5.3491   20.5892  -31.1847 H   0  0  0  0  0  0  0  0  0  0  0  0
   -4.3970   21.7901  -32.1371 H   0  0  0  0  0  0  0  0  0  0  0  0
  1  2  1  0
  2  3  1  0
  3  4  2  0
  4  5  1  0
  5  6  2  0
  6  7  1  0
  7  8  2  0
  8  9  1  0
  9 10  1  0
 10 11  1  0
 11 12  1  0
 12 13  1  0
 13 14  2  0
 13 15  2  0
 13 16  1  0
 16 17  2  0
 17 18  1  0
 18 19  2  0
 19 20  1  0
 20 21  2  0
 21 22  1  0
 21 23  1  0
 23 24  1  0
 24 25  2  0
 12 26  1  0
 26 27  1  0
  8  3  1  0
 27  9  1  0
 25 16  1  0
 24 19  1  0
  1 28  1  0
  1 29  1  0
  1 30  1  0
  4 31  1  0
  5 32  1  0
  6 33  1  0
  7 34  1  0
 10 35  1  0
 10 36  1  0
 11 37  1  0
 11 38  1  0
 12 39  1  0
 17 40  1  0
 18 41  1  0
 22 42  1  0
 22 43  1  0
 22 44  1  0
 25 45  1  0
 26 46  1  0
 26 47  1  0
 27 48  1  0
 27 49  1  0
M  CHG  1  12   1
M  END
>  <UniqueID>  (24) 
22

>  <SMILES>  (24) 
COc1ccccc1N1CC[NH+](S(=O)(=O)c2ccc3nc(C)sc3c2)CC1

>  <Energy>  (24) 
94.58496867484891

>  <Genealogy>  (24) 
COc1ccccc1N1CC[NH+](S(=O)(=O)c2ccc3nc(C)sc3c2)CC1 (protonated)
COc1ccccc1N1CC[NH+](S(=O)(=O)c2ccc3nc(C)sc3c2)CC1 (3D coordinates assigned)
COc1ccccc1N1CC[NH+](S(=O)(=O)c2ccc3nc(C)sc3c2)CC1 (nonaromatic ring conformer: 94.58496867484891 kcal/mol)

>  <smiles>  (24) 
COc1ccccc1N1CCN(S(=O)(=O)c2ccc3nc(C)sc3c2)CC1

>  <score_type>  (24) 
oracle

>  <origin>  (24) 
adg

>  <m_score__min__energy>  (24) 
-8.5700000000000003

>  <m_primary>  (24) 
energy

$$$$
24:0
     RDKit          3D

 50 52  0  0  0  0  0  0  0  0999 V2000
   -0.0940   25.5840  -27.1920 C   0  0  0  0  0  0  0  0  0  0  0  0
    0.2850   24.5820  -28.2000 N   0  0  0  0  0  0  0  0  0  0  0  0
    0.5560   23.2940  -27.5380 C   0  0  0  0  0  0  0  0  0  0  0  0
   -0.7720   24.4430  -29.2250 C   0  0  0  0  0  0  0  0  0  0  0  0
   -2.1510   24.3020  -28.5700 C   0  0  0  0  0  0  0  0  0  0  0  0
   -3.1000   23.6550  -29.4840 N   0  0  0  0  0  0  0  0  0  0  0  0
   -3.8220   24.2900  -30.4300 C   0  0  0  0  0  0  0  0  0  0  0  0
   -3.8630   25.6710  -30.5850 O   0  0  0  0  0  0  0  0  0  0  0  0
   -4.4850   23.3870  -31.2240 C   0  0  0  0  0  0  0  0  0  0  0  0
   -5.3260   23.7130  -32.2840 O   0  0  0  0  0  0  0  0  0  0  0  0
   -4.1590   22.1230  -30.7610 C   0  0  0  0  0  0  0  0  0  0  0  0
   -4.5830   20.8300  -31.3470 C   0  0  0  0  0  0  0  0  0  0  0  0
   -3.7150   19.9450  -31.5720 O   0  0  0  0  0  0  0  0  0  0  0  0
   -6.0030   20.5370  -31.6450 C   0  0  0  0  0  0  0  0  0  0  0  0
   -6.3670   19.3590  -32.3230 C   0  0  0  0  0  0  0  0  0  0  0  0
   -7.7070   19.1130  -32.6380 C   0  0  0  0  0  0  0  0  0  0  0  0
   -8.6930   20.0300  -32.2690 C   0  0  0  0  0  0  0  0  0  0  0  0
   -8.3440   21.1920  -31.5780 C   0  0  0  0  0  0  0  0  0  0  0  0
   -7.0050   21.4430  -31.2600 C   0  0  0  0  0  0  0  0  0  0  0  0
   -3.2930   22.3250  -29.6830 C   0  0  0  0  0  0  0  0  0  0  0  0
   -2.5940   21.2570  -28.9380 C   0  0  0  0  0  0  0  0  0  0  0  0
   -3.0850   20.8180  -27.7010 C   0  0  0  0  0  0  0  0  0  0  0  0
   -2.4370   19.7910  -27.0120 C   0  0  0  0  0  0  0  0  0  0  0  0
   -1.3040   19.1850  -27.5600 C   0  0  0  0  0  0  0  0  0  0  0  0
   -0.8180   19.5890  -28.8160 C   0  0  0  0  0  0  0  0  0  0  0  0
    0.4230   18.9650  -29.4010 C   0  0  0  0  0  0  0  0  0  0  0  0
    0.6280   17.7060  -28.8630 F   0  0  0  0  0  0  0  0  0  0  0  0
    0.2720   18.8500  -30.7710 F   0  0  0  0  0  0  0  0  0  0  0  0
    1.5400   19.7370  -29.1330 F   0  0  0  0  0  0  0  0  0  0  0  0
   -1.4570   20.6450  -29.4870 C   0  0  0  0  0  0  0  0  0  0  0  0
    0.0630   25.1690  -26.1854 H   0  0  0  0  0  0  0  0  0  0  0  0
    0.5259   26.4839  -27.3184 H   0  0  0  0  0  0  0  0  0  0  0  0
   -1.1542   25.8484  -27.3184 H   0  0  0  0  0  0  0  0  0  0  0  0
    0.5275   23.4295  -26.4467 H   0  0  0  0  0  0  0  0  0  0  0  0
   -0.2075   22.5605  -27.8365 H   0  0  0  0  0  0  0  0  0  0  0  0
    1.5503   22.9304  -27.8365 H   0  0  0  0  0  0  0  0  0  0  0  0
   -0.7685   25.3343  -29.8697 H   0  0  0  0  0  0  0  0  0  0  0  0
   -0.5701   23.5396  -29.8192 H   0  0  0  0  0  0  0  0  0  0  0  0
   -2.0565   23.6934  -27.6586 H   0  0  0  0  0  0  0  0  0  0  0  0
   -2.5280   25.3056  -28.3238 H   0  0  0  0  0  0  0  0  0  0  0  0
   -5.3110   23.1970  -33.1550 H   0  0  0  0  0  0  0  0  0  0  0  0
   -5.5946   18.6289  -32.6063 H   0  0  0  0  0  0  0  0  0  0  0  0
   -7.9847   18.1955  -33.1774 H   0  0  0  0  0  0  0  0  0  0  0  0
   -9.7457   19.8369  -32.5229 H   0  0  0  0  0  0  0  0  0  0  0  0
   -9.1227   21.9108  -31.2833 H   0  0  0  0  0  0  0  0  0  0  0  0
   -6.7355   22.3542  -30.7058 H   0  0  0  0  0  0  0  0  0  0  0  0
   -3.9840   21.2841  -27.2714 H   0  0  0  0  0  0  0  0  0  0  0  0
   -2.8194   19.4584  -26.0357 H   0  0  0  0  0  0  0  0  0  0  0  0
   -0.7888   18.3868  -27.0055 H   0  0  0  0  0  0  0  0  0  0  0  0
   -1.0622   20.9954  -30.4520 H   0  0  0  0  0  0  0  0  0  0  0  0
  1  2  1  0
  2  3  1  0
  2  4  1  0
  4  5  1  0
  5  6  1  0
  6  7  1  0
  7  8  1  0
  7  9  2  0
  9 10  1  0
  9 11  1  0
 11 12  1  0
 12 13  2  0
 12 14  1  0
 14 15  2  0
 15 16  1  0
 16 17  2  0
 17 18  1  0
 18 19  2  0
 11 20  2  0
 20 21  1  0
 21 22  2  0
 22 23  1  0
 23 24  2  0
 24 25  1  0
 25 26  1  0
 26 27  1  0
 26 28  1  0
 26 29  1  0
 25 30  2  0
 20  6  1  0
 30 21  1  0
 19 14  1  0
  1 31  1  0
  1 32  1  0
  1 33  1  0
  3 34  1  0
  3 35  1  0
  3 36  1  0
  4 37  1  0
  4 38  1  0
  5 39  1  0
  5 40  1  0
 10 41  1  0
 15 42  1  0
 16 43  1  0
 17 44  1  0
 18 45  1  0
 19 46  1  0
 22 47  1  0
 23 48  1  0
 24 49  1  0
 30 50  1  0
M  CHG  1   8  -1
M  END
>  <UniqueID>  (25) 
23

>  <SMILES>  (25) 
CN(C)CCn1c([O-])c(O)c(C(=O)c2ccccc2)c1-c1cccc(C(F)(F)F)c1

>  <Energy>  (25) 
86.35526998586998

>  <Genealogy>  (25) 
CN(C)CCn1c([O-])c(O)c(C(=O)c2ccccc2)c1-c1cccc(C(F)(F)F)c1 (protonated)
CN(C)CCn1c([O-])c(O)c(C(=O)c2ccccc2)c1-c1cccc(C(F)(F)F)c1 (3D coordinates assigned)
CN(C)CCn1c([O-])c(O)c(C(=O)c2ccccc2)c1-c1cccc(C(F)(F)F)c1 (optimized conformer: 86.35526998586998 kcal/mol)

>  <smiles>  (25) 
CN(C)CCn1c(O)c(O)c(C(=O)c2ccccc2)c1-c1cccc(C(F)(F)F)c1

>  <score_type>  (25) 
oracle

>  <origin>  (25) 
adg

>  <m_score__min__energy>  (25) 
-11.65

>  <m_primary>  (25) 
energy

$$$$
25:0
     RDKit          3D

 55 57  0  0  1  0  0  0  0  0999 V2000
   -3.7720   18.4540  -34.2070 C   0  0  0  0  0  0  0  0  0  0  0  0
   -4.2900   17.1700  -34.8080 C   0  0  0  0  0  0  0  0  0  0  0  0
   -5.7620   16.9740  -34.5750 C   0  0  0  0  0  0  0  0  0  0  0  0
   -6.4750   18.1930  -34.2900 N   0  0  0  0  0  0  0  0  0  0  0  0
   -6.9860   18.4400  -32.9860 C   0  0  0  0  0  0  0  0  0  0  0  0
   -6.7660   17.5220  -32.1280 O   0  0  0  0  0  0  0  0  0  0  0  0
   -7.7180   19.6520  -32.6310 C   0  0  0  0  0  0  0  0  0  0  0  0
   -9.0550   19.6570  -32.2940 C   0  0  0  0  0  0  0  0  0  0  0  0
   -9.7440   20.8120  -31.9580 C   0  0  0  0  0  0  0  0  0  0  0  0
   -9.0730   22.0170  -31.9590 C   0  0  0  0  0  0  0  0  0  0  0  0
   -7.6940   22.0590  -32.3010 C   0  0  0  0  0  0  0  0  0  0  0  0
   -7.0310   23.2350  -32.1650 N   0  0  0  0  0  0  0  0  0  0  0  0
   -6.3960   23.7790  -31.2580 C   0  0  0  0  0  0  0  0  0  0  0  0
   -7.0520   24.6900  -30.4870 N   0  0  0  0  0  0  0  0  0  0  0  0
   -6.4230   25.3010  -29.4850 C   0  0  0  0  0  0  0  0  0  0  0  0
   -5.1380   25.0320  -29.2170 N   0  0  0  0  0  0  0  0  0  0  0  0
   -4.4890   24.1360  -29.9740 C   0  0  0  0  0  0  0  0  0  0  0  0
   -3.1870   23.8740  -29.6890 C   0  0  0  0  0  0  0  0  0  0  0  0
   -2.5310   22.9610  -30.4630 C   0  0  0  0  0  0  0  0  0  0  0  0
   -1.2040   22.7050  -30.1570 O   0  0  0  0  0  0  0  0  0  0  0  0
   -0.8880   21.7060  -29.1770 C   0  0  0  0  0  0  0  0  0  0  0  0
   -0.4400   20.4540  -29.8980 C   0  0  0  0  0  0  0  0  0  0  0  0
   -3.0620   22.2700  -31.5160 C   0  0  0  0  0  0  0  0  0  0  0  0
   -2.2810   21.3940  -32.1910 O   0  0  0  0  0  0  0  0  0  0  0  0
   -2.0350   21.1540  -33.5160 C   0  0  0  0  0  0  0  0  0  0  0  0
   -0.5600   21.1630  -33.8480 C   0  0  0  0  0  0  0  0  0  0  0  0
   -4.4080   22.5470  -31.8030 C   0  0  0  0  0  0  0  0  0  0  0  0
   -5.0850   23.4600  -31.0390 C   0  0  0  0  0  0  0  0  0  0  0  0
   -7.0500   20.8380  -32.6340 C   0  0  0  0  0  0  0  0  0  0  0  0
   -3.8007   18.3830  -33.1097 H   0  0  0  0  0  0  0  0  0  0  0  0
   -2.7360   18.6214  -34.5367 H   0  0  0  0  0  0  0  0  0  0  0  0
   -4.4018   19.2934  -34.5367 H   0  0  0  0  0  0  0  0  0  0  0  0
   -4.1045   17.1887  -35.8921 H   0  0  0  0  0  0  0  0  0  0  0  0
   -3.7622   16.3375  -34.3198 H   0  0  0  0  0  0  0  0  0  0  0  0
   -6.1982   16.5204  -35.4772 H   0  0  0  0  0  0  0  0  0  0  0  0
   -5.8622   16.3306  -33.6884 H   0  0  0  0  0  0  0  0  0  0  0  0
   -6.6150   18.8960  -35.0470 H   0  0  0  0  0  0  0  0  0  0  0  0
   -9.5995   18.7012  -32.2917 H   0  0  0  0  0  0  0  0  0  0  0  0
  -10.8110   20.7681  -31.6943 H   0  0  0  0  0  0  0  0  0  0  0  0
   -9.6040   22.9437  -31.6957 H   0  0  0  0  0  0  0  0  0  0  0  0
   -6.9645   26.0350  -28.8702 H   0  0  0  0  0  0  0  0  0  0  0  0
   -4.6720   25.5150  -28.4400 H   0  0  0  0  0  0  0  0  0  0  0  0
   -2.6760   24.3829  -28.8584 H   0  0  0  0  0  0  0  0  0  0  0  0
   -0.0798   22.0682  -28.5246 H   0  0  0  0  0  0  0  0  0  0  0  0
   -1.7720   21.4901  -28.5590 H   0  0  0  0  0  0  0  0  0  0  0  0
   -0.1649   19.6851  -29.1611 H   0  0  0  0  0  0  0  0  0  0  0  0
   -1.2603   20.0806  -30.5286 H   0  0  0  0  0  0  0  0  0  0  0  0
    0.4310   20.6858  -30.5286 H   0  0  0  0  0  0  0  0  0  0  0  0
   -2.4483   20.1687  -33.7776 H   0  0  0  0  0  0  0  0  0  0  0  0
   -2.5097   21.9613  -34.0930 H   0  0  0  0  0  0  0  0  0  0  0  0
    0.0254   21.1666  -32.9167 H   0  0  0  0  0  0  0  0  0  0  0  0
   -0.3107   20.2664  -34.4344 H   0  0  0  0  0  0  0  0  0  0  0  0
   -0.3216   22.0626  -34.4344 H   0  0  0  0  0  0  0  0  0  0  0  0
   -4.9146   22.0351  -32.6344 H   0  0  0  0  0  0  0  0  0  0  0  0
   -5.9831   20.8509  -32.9015 H   0  0  0  0  0  0  0  0  0  0  0  0
  1  2  1  0
  2  3  1  0
  3  4  1  0
  4  5  1  0
  5  6  2  0
  5  7  1  0
  7  8  2  0
  8  9  1  0
  9 10  2  0
 10 11  1  0
 11 12  1  0
 12 13  2  0
 13 14  1  0
 14 15  2  0
 15 16  1  0
 16 17  1  0
 17 18  2  0
 18 19  1  0
 19 20  1  0
 20 21  1  0
 21 22  1  0
 19 23  2  0
 23 24  1  0
 24 25  1  0
 25 26  1  0
 23 27  1  0
 27 28  2  0
 11 29  2  0
 29  7  1  0
 28 13  1  0
 28 17  1  0
  1 30  1  0
  1 31  1  0
  1 32  1  0
  2 33  1  0
  2 34  1  0
  3 35  1  0
  3 36  1  0
  4 37  1  0
  8 38  1  0
  9 39  1  0
 10 40  1  0
 15 41  1  0
 16 42  1  0
 18 43  1  0
 21 44  1  0
 21 45  1  0
 22 46  1  0
 22 47  1  0
 22 48  1  0
 25 49  1  0
 25 50  1  0
 26 51  1  0
 26 52  1  0
 26 53  1  0
 27 54  1  0
 29 55  1  0
M  END
>  <smiles>  (26) 
CCCNC(=O)c1cccc(N=c2nc[nH]c3cc(OCC)c(OCC)cc23)c1

>  <score_type>  (26) 
oracle

>  <origin>  (26) 
adg

>  <m_score__min__energy>  (26) 
-8.8699999999999992

>  <m_primary>  (26) 
energy

$$$$
26:0
     RDKit          3D

 39 39  0  0  1  0  0  0  0  0999 V2000
   -9.1450   18.9430  -32.3200 C   0  0  0  0  0  0  0  0  0  0  0  0
   -8.1810   17.8370  -31.9700 C   0  0  0  0  0  0  0  0  0  0  0  0
   -7.2350   17.5630  -33.0930 C   0  0  0  0  0  0  0  0  0  0  0  0
   -6.0500   18.3790  -33.0740 N   0  0  0  0  0  0  0  0  0  0  0  0
   -5.6040   18.7140  -31.7490 C   0  0  0  0  0  0  0  0  0  0  0  0
   -4.7880   19.9920  -31.8370 C   0  0  0  0  0  0  0  0  0  0  0  0
   -5.6930   21.1740  -32.2190 C   0  0  0  0  0  0  0  0  0  0  0  0
   -6.1440   21.8120  -30.9300 C   0  0  0  0  0  0  0  0  0  0  0  0
   -7.1060   22.9510  -31.0880 C   0  0  0  0  0  0  0  0  0  0  0  0
   -6.9780   24.0020  -30.1190 N   0  0  0  0  0  0  0  0  0  0  0  0
   -5.9340   24.9680  -30.1810 C   0  0  0  0  0  0  0  0  0  0  0  0
   -6.0670   26.2510  -29.6320 O   0  0  0  0  0  0  0  0  0  0  0  0
   -4.8180   24.6810  -30.7550 N   0  0  0  0  0  0  0  0  0  0  0  0
   -3.8380   25.6440  -30.8340 O   0  0  0  0  0  0  0  0  0  0  0  0
   -6.7670   20.7260  -33.1400 C   0  0  0  0  0  0  0  0  0  0  0  0
   -6.1840   19.5390  -33.9250 C   0  0  0  0  0  0  0  0  0  0  0  0
   -9.5375   19.3933  -31.3963 H   0  0  0  0  0  0  0  0  0  0  0  0
   -8.6232   19.7113  -32.9095 H   0  0  0  0  0  0  0  0  0  0  0  0
   -9.9773   18.5310  -32.9095 H   0  0  0  0  0  0  0  0  0  0  0  0
   -7.6049   18.1325  -31.0807 H   0  0  0  0  0  0  0  0  0  0  0  0
   -8.7598   16.9224  -31.7739 H   0  0  0  0  0  0  0  0  0  0  0  0
   -6.9290   16.5079  -33.0375 H   0  0  0  0  0  0  0  0  0  0  0  0
   -7.7699   17.8013  -34.0242 H   0  0  0  0  0  0  0  0  0  0  0  0
   -6.4719   18.8699  -31.0914 H   0  0  0  0  0  0  0  0  0  0  0  0
   -4.9932   17.8987  -31.3341 H   0  0  0  0  0  0  0  0  0  0  0  0
   -4.3206   20.1926  -30.8617 H   0  0  0  0  0  0  0  0  0  0  0  0
   -4.0121   19.8703  -32.6072 H   0  0  0  0  0  0  0  0  0  0  0  0
   -5.1725   21.9507  -32.7984 H   0  0  0  0  0  0  0  0  0  0  0  0
   -6.6298   21.0377  -30.3180 H   0  0  0  0  0  0  0  0  0  0  0  0
   -5.2414   22.2349  -30.4647 H   0  0  0  0  0  0  0  0  0  0  0  0
   -6.9535   23.3885  -32.0857 H   0  0  0  0  0  0  0  0  0  0  0  0
   -8.1091   22.5238  -30.9421 H   0  0  0  0  0  0  0  0  0  0  0  0
   -7.6430   24.1330  -29.2940 H   0  0  0  0  0  0  0  0  0  0  0  0
   -5.2310   26.8520  -29.6450 H   0  0  0  0  0  0  0  0  0  0  0  0
   -3.8730   26.4540  -30.2450 H   0  0  0  0  0  0  0  0  0  0  0  0
   -7.6524   20.4090  -32.5693 H   0  0  0  0  0  0  0  0  0  0  0  0
   -7.0854   21.5363  -33.8123 H   0  0  0  0  0  0  0  0  0  0  0  0
   -6.8541   19.2964  -34.7629 H   0  0  0  0  0  0  0  0  0  0  0  0
   -5.1885   19.8186  -34.3003 H   0  0  0  0  0  0  0  0  0  0  0  0
  1  2  1  0
  2  3  1  0
  3  4  1  0
  4  5  1  0
  5  6  1  0
  6  7  1  0
  7  8  1  0
  8  9  1  0
  9 10  1  0
 10 11  1  0
 11 12  1  0
 11 13  2  0
 13 14  1  0
  7 15  1  0
 15 16  1  0
 16  4  1  0
  1 17  1  0
  1 18  1  0
  1 19  1  0
  2 20  1  0
  2 21  1  0
  3 22  1  0
  3 23  1  0
  5 24  1  0
  5 25  1  0
  6 26  1  0
  6 27  1  0
  7 28  1  0
  8 29  1  0
  8 30  1  0
  9 31  1  0
  9 32  1  0
 10 33  1  0
 12 34  1  0
 14 35  1  0
 15 36  1  0
 15 37  1  0
 16 38  1  0
 16 39  1  0
M  END
>  <smiles>  (27) 
CCCN1CCC(CCNC(O)=NO)CC1

>  <score_type>  (27) 
oracle

>  <origin>  (27) 
adg

>  <m_score__min__energy>  (27) 
-7.8399999999999999

>  <m_primary>  (27) 
energy

$$$$
27:0
     RDKit          3D

 50 53  0  0  0  0  0  0  0  0999 V2000
   -1.3450   22.3820  -30.3390 C   0  0  0  0  0  0  0  0  0  0  0  0
   -2.4630   23.2230  -30.6050 O   0  0  0  0  0  0  0  0  0  0  0  0
   -3.7570   22.7590  -30.8880 C   0  0  0  0  0  0  0  0  0  0  0  0
   -4.0400   21.3900  -31.0540 C   0  0  0  0  0  0  0  0  0  0  0  0
   -5.3400   20.9650  -31.3320 C   0  0  0  0  0  0  0  0  0  0  0  0
   -6.3840   21.8950  -31.4330 C   0  0  0  0  0  0  0  0  0  0  0  0
   -7.7620   21.4580  -31.7410 C   0  0  0  0  0  0  0  0  0  0  0  0
   -8.8480   22.1700  -31.3740 N   0  0  0  0  0  0  0  0  0  0  0  0
   -9.8590   21.4690  -31.9290 C   0  0  0  0  0  0  0  0  0  0  0  0
   -9.4280   20.3820  -32.5970 N   0  0  0  0  0  0  0  0  0  0  0  0
   -8.1120   20.3750  -32.4720 N   0  0  0  0  0  0  0  0  0  0  0  0
   -7.2820   19.3120  -32.9680 C   0  0  0  0  0  0  0  0  0  0  0  0
   -7.2730   18.0690  -32.3230 C   0  0  0  0  0  0  0  0  0  0  0  0
   -6.4590   17.0400  -32.7970 C   0  0  0  0  0  0  0  0  0  0  0  0
   -5.6320   17.2660  -33.9090 C   0  0  0  0  0  0  0  0  0  0  0  0
   -4.7980   16.2200  -34.4440 N   0  0  0  0  0  0  0  0  0  0  0  0
   -3.6890   16.5140  -35.3620 C   0  0  0  0  0  0  0  0  0  0  0  0
   -2.4060   15.8040  -34.9010 C   0  0  0  0  0  0  0  0  0  0  0  0
   -2.6610   14.3990  -34.3100 C   0  0  0  0  0  0  0  0  0  0  0  0
   -4.0540   13.8550  -34.6490 C   0  0  0  0  0  0  0  0  0  0  0  0
   -5.1390   14.8200  -34.1490 C   0  0  0  0  0  0  0  0  0  0  0  0
   -5.6530   18.4860  -34.5150 N   0  0  0  0  0  0  0  0  0  0  0  0
   -6.4390   19.5020  -34.0710 C   0  0  0  0  0  0  0  0  0  0  0  0
   -6.1010   23.2610  -31.2920 C   0  0  0  0  0  0  0  0  0  0  0  0
   -4.7910   23.6990  -31.0120 C   0  0  0  0  0  0  0  0  0  0  0  0
   -4.4790   25.0580  -30.8490 O   0  0  0  0  0  0  0  0  0  0  0  0
   -5.4090   26.0580  -30.4460 C   0  0  0  0  0  0  0  0  0  0  0  0
   -1.2119   22.2819  -29.2517 H   0  0  0  0  0  0  0  0  0  0  0  0
   -1.5196   21.3895  -30.7799 H   0  0  0  0  0  0  0  0  0  0  0  0
   -0.4398   22.8250  -30.7799 H   0  0  0  0  0  0  0  0  0  0  0  0
   -3.2310   20.6502  -30.9640 H   0  0  0  0  0  0  0  0  0  0  0  0
   -5.5466   19.8938  -31.4727 H   0  0  0  0  0  0  0  0  0  0  0  0
  -10.9181   21.7541  -31.8450 H   0  0  0  0  0  0  0  0  0  0  0  0
   -7.9090   17.9037  -31.4409 H   0  0  0  0  0  0  0  0  0  0  0  0
   -6.4650   16.0574  -32.3025 H   0  0  0  0  0  0  0  0  0  0  0  0
   -3.9527   16.1657  -36.3715 H   0  0  0  0  0  0  0  0  0  0  0  0
   -3.5117   17.5996  -35.3697 H   0  0  0  0  0  0  0  0  0  0  0  0
   -1.7340   15.7019  -35.7658 H   0  0  0  0  0  0  0  0  0  0  0  0
   -1.9645   16.4174  -34.1018 H   0  0  0  0  0  0  0  0  0  0  0  0
   -1.9062   13.7067  -34.7113 H   0  0  0  0  0  0  0  0  0  0  0  0
   -2.5962   14.4838  -33.2152 H   0  0  0  0  0  0  0  0  0  0  0  0
   -4.1438   13.7415  -35.7394 H   0  0  0  0  0  0  0  0  0  0  0  0
   -4.1872   12.8805  -34.1565 H   0  0  0  0  0  0  0  0  0  0  0  0
   -6.0907   14.5731  -34.6422 H   0  0  0  0  0  0  0  0  0  0  0  0
   -5.2209   14.7091  -33.0577 H   0  0  0  0  0  0  0  0  0  0  0  0
   -6.4133   20.4771  -34.5794 H   0  0  0  0  0  0  0  0  0  0  0  0
   -6.9098   23.9985  -31.4011 H   0  0  0  0  0  0  0  0  0  0  0  0
   -5.4486   26.1006  -29.3475 H   0  0  0  0  0  0  0  0  0  0  0  0
   -5.0908   27.0346  -30.8396 H   0  0  0  0  0  0  0  0  0  0  0  0
   -6.4061   25.8113  -30.8396 H   0  0  0  0  0  0  0  0  0  0  0  0
  1  2  1  0
  2  3  1  0
  3  4  2  0
  4  5  1  0
  5  6  2  0
  6  7  1  0
  7  8  2  0
  8  9  1  0
  9 10  2  0
 10 11  1  0
 11 12  1  0
 12 13  2  0
 13 14  1  0
 14 15  2  0
 15 16  1  0
 16 17  1  0
 17 18  1  0
 18 19  1  0
 19 20  1  0
 20 21  1  0
 15 22  1  0
 22 23  2  0
  6 24  1  0
 24 25  2  0
 25 26  1  0
 26 27  1  0
 25  3  1  0
 11  7  1  0
 23 12  1  0
 21 16  1  0
  1 28  1  0
  1 29  1  0
  1 30  1  0
  4 31  1  0
  5 32  1  0
  9 33  1  0
 13 34  1  0
 14 35  1  0
 17 36  1  0
 17 37  1  0
 18 38  1  0
 18 39  1  0
 19 40  1  0
 19 41  1  0
 20 42  1  0
 20 43  1  0
 21 44  1  0
 21 45  1  0
 23 46  1  0
 24 47  1  0
 27 48  1  0
 27 49  1  0
 27 50  1  0
M  END
>  <UniqueID>  (28) 
24

>  <SMILES>  (28) 
COc1ccc(-c2ncnn2-c2ccc(N3CCCCC3)nc2)cc1OC

>  <Energy>  (28) 
98.64018916022764

>  <Genealogy>  (28) 
COc1ccc(-c2ncnn2-c2ccc(N3CCCCC3)nc2)cc1OC (3D coordinates assigned)
COc1ccc(-c2ncnn2-c2ccc(N3CCCCC3)nc2)cc1OC (nonaromatic ring conformer: 98.64018916022764 kcal/mol)

>  <smiles>  (28) 
COc1ccc(-c2ncnn2-c2ccc(N3CCCCC3)nc2)cc1OC

>  <score_type>  (28) 
oracle

>  <origin>  (28) 
adg

>  <m_score__min__energy>  (28) 
-8.0999999999999996

>  <m_primary>  (28) 
energy

$$$$
28:0
     RDKit          3D

 43 46  0  0  0  0  0  0  0  0999 V2000
   -9.5100   20.3650  -32.7510 C   0  0  0  0  0  0  0  0  0  0  0  0
   -8.2840   20.9350  -32.1000 C   0  0  0  0  0  0  0  0  0  0  0  0
   -8.4030   21.9270  -31.1180 C   0  0  0  0  0  0  0  0  0  0  0  0
   -7.2640   22.4340  -30.4850 C   0  0  0  0  0  0  0  0  0  0  0  0
   -5.9860   21.9420  -30.8080 C   0  0  0  0  0  0  0  0  0  0  0  0
   -4.7880   22.4990  -30.1290 C   0  0  0  0  0  0  0  0  0  0  0  0
   -3.4920   22.2960  -30.6320 C   0  0  0  0  0  0  0  0  0  0  0  0
   -2.3990   22.8420  -29.9610 C   0  0  0  0  0  0  0  0  0  0  0  0
   -2.5890   23.5900  -28.7930 C   0  0  0  0  0  0  0  0  0  0  0  0
   -1.4540   24.1560  -28.1230 N   0  0  0  0  0  0  0  0  0  0  0  0
   -0.6050   23.5090  -27.2930 C   0  0  0  0  0  0  0  0  0  0  0  0
   -0.7270   22.1730  -26.9310 O   0  0  0  0  0  0  0  0  0  0  0  0
    0.3720   24.3750  -26.8500 C   0  0  0  0  0  0  0  0  0  0  0  0
    0.1270   25.5890  -27.4370 C   0  0  0  0  0  0  0  0  0  0  0  0
   -1.0090   25.4310  -28.2070 C   0  0  0  0  0  0  0  0  0  0  0  0
   -1.6110   26.4260  -28.9680 O   0  0  0  0  0  0  0  0  0  0  0  0
    0.8940   26.8240  -27.0760 C   0  0  0  0  0  0  0  0  0  0  0  0
    2.3030   26.4430  -26.5570 C   0  0  0  0  0  0  0  0  0  0  0  0
    2.3240   25.1900  -25.6920 C   0  0  0  0  0  0  0  0  0  0  0  0
    1.4620   24.1810  -25.8920 C   0  0  0  0  0  0  0  0  0  0  0  0
   -3.8970   23.7420  -28.2910 C   0  0  0  0  0  0  0  0  0  0  0  0
   -4.1750   24.4870  -27.0190 C   0  0  0  0  0  0  0  0  0  0  0  0
   -4.9440   23.2050  -28.9740 N   0  0  0  0  0  0  0  0  0  0  0  0
   -5.8750   20.9400  -31.7910 C   0  0  0  0  0  0  0  0  0  0  0  0
   -7.0150   20.4350  -32.4230 C   0  0  0  0  0  0  0  0  0  0  0  0
  -10.2175   20.0360  -31.9757 H   0  0  0  0  0  0  0  0  0  0  0  0
   -9.9842   21.1350  -33.3773 H   0  0  0  0  0  0  0  0  0  0  0  0
   -9.2269   19.5061  -33.3773 H   0  0  0  0  0  0  0  0  0  0  0  0
   -9.3974   22.3089  -30.8436 H   0  0  0  0  0  0  0  0  0  0  0  0
   -7.3680   23.2248  -29.7275 H   0  0  0  0  0  0  0  0  0  0  0  0
   -3.3407   21.7095  -31.5502 H   0  0  0  0  0  0  0  0  0  0  0  0
   -1.3826   22.6844  -30.3510 H   0  0  0  0  0  0  0  0  0  0  0  0
    0.9945   27.4629  -27.9658 H   0  0  0  0  0  0  0  0  0  0  0  0
    0.3534   27.3653  -26.2856 H   0  0  0  0  0  0  0  0  0  0  0  0
    2.9582   26.2759  -27.4246 H   0  0  0  0  0  0  0  0  0  0  0  0
    2.6453   27.2743  -25.9231 H   0  0  0  0  0  0  0  0  0  0  0  0
    3.0646   25.1098  -24.8826 H   0  0  0  0  0  0  0  0  0  0  0  0
    1.5718   23.2307  -25.3490 H   0  0  0  0  0  0  0  0  0  0  0  0
   -3.9355   23.8452  -26.1583 H   0  0  0  0  0  0  0  0  0  0  0  0
   -3.5552   25.3950  -26.9830 H   0  0  0  0  0  0  0  0  0  0  0  0
   -5.2381   24.7671  -26.9830 H   0  0  0  0  0  0  0  0  0  0  0  0
   -4.8828   20.5513  -32.0639 H   0  0  0  0  0  0  0  0  0  0  0  0
   -6.9157   19.6410  -33.1778 H   0  0  0  0  0  0  0  0  0  0  0  0
  1  2  1  0
  2  3  2  0
  3  4  1  0
  4  5  2  0
  5  6  1  0
  6  7  2  0
  7  8  1  0
  8  9  2  0
  9 10  1  0
 10 11  1  0
 11 12  1  0
 11 13  2  0
 13 14  1  0
 14 15  2  0
 15 16  1  0
 14 17  1  0
 17 18  1  0
 18 19  1  0
 19 20  2  0
  9 21  1  0
 21 22  1  0
 21 23  2  0
  5 24  1  0
 24 25  2  0
 25  2  1  0
 23  6  1  0
 15 10  1  0
 20 13  1  0
  1 26  1  0
  1 27  1  0
  1 28  1  0
  3 29  1  0
  4 30  1  0
  7 31  1  0
  8 32  1  0
 17 33  1  0
 17 34  1  0
 18 35  1  0
 18 36  1  0
 19 37  1  0
 20 38  1  0
 22 39  1  0
 22 40  1  0
 22 41  1  0
 24 42  1  0
 25 43  1  0
M  CHG  2  12  -1  16  -1
M  END
>  <UniqueID>  (29) 
25

>  <SMILES>  (29) 
Cc1ccc(-c2ccc(-n3c([O-])c4c(c3[O-])CCC=C4)c(C)n2)cc1

>  <Energy>  (29) 
90.75698097944053

>  <Genealogy>  (29) 
Cc1ccc(-c2ccc(-n3c([O-])c4c(c3[O-])CCC=C4)c(C)n2)cc1 (protonated)
Cc1ccc(-c2ccc(-n3c([O-])c4c(c3[O-])CCC=C4)c(C)n2)cc1 (3D coordinates assigned)
Cc1ccc(-c2ccc(-n3c([O-])c4c(c3[O-])CCC=C4)c(C)n2)cc1 (nonaromatic ring conformer: 90.75698097944053 kcal/mol)

>  <smiles>  (29) 
Cc1ccc(-c2ccc(-n3c(O)c4c(c3O)CCC=C4)c(C)n2)cc1

>  <score_type>  (29) 
oracle

>  <origin>  (29) 
adg

>  <m_score__min__energy>  (29) 
-10.470000000000001

>  <m_primary>  (29) 
energy

$$$$
29:0
     RDKit          3D

 79 82  0  0  1  0  0  0  0  0999 V2000
   -3.6230   13.7260  -32.0330 C   0  0  0  0  0  0  0  0  0  0  0  0
   -2.9210   14.9100  -32.6960 C   0  0  0  0  0  0  0  0  0  0  0  0
   -3.9450   15.9320  -33.0470 N   0  0  0  0  0  0  0  0  0  0  0  0
   -3.7200   16.1420  -34.4750 C   0  0  0  0  0  0  0  0  0  0  0  0
   -3.6890   17.5460  -34.9550 C   0  0  0  0  0  0  0  0  0  0  0  0
   -3.6290   18.5520  -34.0240 O   0  0  0  0  0  0  0  0  0  0  0  0
   -5.2400   15.3890  -32.8180 C   0  0  0  0  0  0  0  0  0  0  0  0
   -6.3110   15.6100  -33.8290 C   0  0  0  0  0  0  0  0  0  0  0  0
   -7.1810   16.7950  -33.7530 C   0  0  0  0  0  0  0  0  0  0  0  0
   -7.2710   17.4150  -32.4610 N   0  0  0  0  0  0  0  0  0  0  0  0
   -6.7730   18.5540  -32.2400 C   0  0  0  0  0  0  0  0  0  0  0  0
   -5.4200   18.6360  -32.1450 N   0  0  0  0  0  0  0  0  0  0  0  0
   -4.7850   19.8020  -31.9170 C   0  0  0  0  0  0  0  0  0  0  0  0
   -5.5250   20.9390  -31.7770 N   0  0  0  0  0  0  0  0  0  0  0  0
   -6.8750   20.9150  -31.8620 C   0  0  0  0  0  0  0  0  0  0  0  0
   -7.4930   19.6950  -32.0980 C   0  0  0  0  0  0  0  0  0  0  0  0
   -8.7890   19.9460  -32.1360 N   0  0  0  0  0  0  0  0  0  0  0  0
   -8.9990   21.2540  -31.9370 C   0  0  0  0  0  0  0  0  0  0  0  0
   -7.8320   21.8860  -31.7640 N   0  0  0  0  0  0  0  0  0  0  0  0
   -7.5870   23.3190  -31.5320 C   0  0  2  0  0  0  0  0  0  0  0  0
   -6.6860   23.7550  -32.4770 O   0  0  0  0  0  0  0  0  0  0  0  0
   -5.3890   23.8440  -32.0370 C   0  0  0  0  0  0  0  0  0  0  0  0
   -5.3070   24.9500  -31.0280 C   0  0  2  0  0  0  0  0  0  0  0  0
   -3.9370   25.1570  -30.5300 N   0  0  0  0  0  0  0  0  0  0  0  0
   -3.2700   24.2330  -29.7140 C   0  0  0  0  0  0  0  0  0  0  0  0
   -3.9040   23.1730  -29.4060 O   0  0  0  0  0  0  0  0  0  0  0  0
   -1.9020   24.4240  -29.2080 C   0  0  0  0  0  0  0  0  0  0  0  0
   -0.9480   23.5450  -29.3260 C   0  0  0  0  0  0  0  0  0  0  0  0
   -1.0890   22.1090  -29.5930 C   0  0  0  0  0  0  0  0  0  0  0  0
   -0.9330   21.8070  -30.9790 N   0  0  0  0  0  0  0  0  0  0  0  0
   -0.1840   20.5970  -31.1400 C   0  0  0  0  0  0  0  0  0  0  0  0
   -1.1100   19.4580  -31.4770 C   0  0  0  0  0  0  0  0  0  0  0  0
   -1.7650   19.6750  -32.6630 O   0  0  0  0  0  0  0  0  0  0  0  0
   -2.0220   20.9910  -32.9510 C   0  0  0  0  0  0  0  0  0  0  0  0
   -2.1620   21.8530  -31.7330 C   0  0  0  0  0  0  0  0  0  0  0  0
   -6.1520   24.5290  -29.8290 C   0  0  1  0  0  0  0  0  0  0  0  0
   -6.7180   25.6580  -29.2510 O   0  0  0  0  0  0  0  0  0  0  0  0
   -7.1370   23.4580  -30.1260 C   0  0  2  0  0  0  0  0  0  0  0  0
   -6.7250   22.2090  -29.6000 O   0  0  0  0  0  0  0  0  0  0  0  0
   -3.5619   13.8290  -30.9395 H   0  0  0  0  0  0  0  0  0  0  0  0
   -4.6788   13.7063  -32.3411 H   0  0  0  0  0  0  0  0  0  0  0  0
   -3.1337   12.7902  -32.3411 H   0  0  0  0  0  0  0  0  0  0  0  0
   -2.1878   15.3435  -31.9999 H   0  0  0  0  0  0  0  0  0  0  0  0
   -2.3961   14.5763  -33.6032 H   0  0  0  0  0  0  0  0  0  0  0  0
   -2.7529   15.6835  -34.7291 H   0  0  0  0  0  0  0  0  0  0  0  0
   -4.5927   15.6911  -34.9700 H   0  0  0  0  0  0  0  0  0  0  0  0
   -2.8059   17.6490  -35.6027 H   0  0  0  0  0  0  0  0  0  0  0  0
   -4.6646   17.6868  -35.4432 H   0  0  0  0  0  0  0  0  0  0  0  0
   -3.2840   18.1660  -33.1720 H   0  0  0  0  0  0  0  0  0  0  0  0
   -5.1179   14.3009  -32.7122 H   0  0  0  0  0  0  0  0  0  0  0  0
   -5.5994   15.9352  -31.9334 H   0  0  0  0  0  0  0  0  0  0  0  0
   -5.8148   15.6465  -34.8100 H   0  0  0  0  0  0  0  0  0  0  0  0
   -7.0073   14.7808  -33.6350 H   0  0  0  0  0  0  0  0  0  0  0  0
   -6.7968   17.5433  -34.4618 H   0  0  0  0  0  0  0  0  0  0  0  0
   -8.1952   16.4401  -33.9885 H   0  0  0  0  0  0  0  0  0  0  0  0
   -4.8140   17.7820  -32.2470 H   0  0  0  0  0  0  0  0  0  0  0  0
   -3.6879   19.8365  -31.8449 H   0  0  0  0  0  0  0  0  0  0  0  0
   -9.9866   21.7380  -31.9185 H   0  0  0  0  0  0  0  0  0  0  0  0
   -8.4783   23.9528  -31.6493 H   0  0  0  0  0  0  0  0  0  0  0  0
   -5.0883   22.8936  -31.5719 H   0  0  0  0  0  0  0  0  0  0  0  0
   -4.7164   24.0524  -32.8821 H   0  0  0  0  0  0  0  0  0  0  0  0
   -5.6497   25.8787  -31.5078 H   0  0  0  0  0  0  0  0  0  0  0  0
   -3.4910   26.0400  -30.8240 H   0  0  0  0  0  0  0  0  0  0  0  0
   -1.6697   25.3700  -28.6971 H   0  0  0  0  0  0  0  0  0  0  0  0
    0.0793   23.9217  -29.2127 H   0  0  0  0  0  0  0  0  0  0  0  0
   -0.3226   21.5643  -29.0220 H   0  0  0  0  0  0  0  0  0  0  0  0
   -2.1014   21.8039  -29.2898 H   0  0  0  0  0  0  0  0  0  0  0  0
    0.5456   20.7259  -31.9530 H   0  0  0  0  0  0  0  0  0  0  0  0
    0.3404   20.3696  -30.2002 H   0  0  0  0  0  0  0  0  0  0  0  0
   -0.5222   18.5317  -31.5578 H   0  0  0  0  0  0  0  0  0  0  0  0
   -1.8617   19.3771  -30.6780 H   0  0  0  0  0  0  0  0  0  0  0  0
   -1.1944   21.3820  -33.5611 H   0  0  0  0  0  0  0  0  0  0  0  0
   -2.9842   21.0239  -33.4831 H   0  0  0  0  0  0  0  0  0  0  0  0
   -2.3691   22.8896  -32.0371 H   0  0  0  0  0  0  0  0  0  0  0  0
   -2.9921   21.4853  -31.1119 H   0  0  0  0  0  0  0  0  0  0  0  0
   -5.4848   24.0547  -29.0942 H   0  0  0  0  0  0  0  0  0  0  0  0
   -6.0240   26.1060  -28.7050 H   0  0  0  0  0  0  0  0  0  0  0  0
   -8.0387   23.8105  -29.6037 H   0  0  0  0  0  0  0  0  0  0  0  0
   -5.8010   21.9860  -29.8420 H   0  0  0  0  0  0  0  0  0  0  0  0
  1  2  1  0
  2  3  1  0
  3  4  1  0
  4  5  1  0
  5  6  1  0
  3  7  1  0
  7  8  1  0
  8  9  1  0
  9 10  1  0
 10 11  2  0
 11 12  1  0
 12 13  1  0
 13 14  2  0
 14 15  1  0
 15 16  2  0
 16 17  1  0
 17 18  2  0
 18 19  1  0
 19 20  1  0
 20 21  1  0
 21 22  1  0
 22 23  1  0
 23 24  1  0
 24 25  1  0
 25 26  2  0
 25 27  1  0
 27 28  2  0
 28 29  1  0
 29 30  1  0
 30 31  1  0
 31 32  1  0
 32 33  1  0
 33 34  1  0
 34 35  1  0
 23 36  1  0
 36 37  1  0
 36 38  1  0
 38 39  1  0
 16 11  1  0
 38 20  1  0
 19 15  1  0
 35 30  1  0
  1 40  1  0
  1 41  1  0
  1 42  1  0
  2 43  1  0
  2 44  1  0
  4 45  1  0
  4 46  1  0
  5 47  1  0
  5 48  1  0
  6 49  1  0
  7 50  1  0
  7 51  1  0
  8 52  1  0
  8 53  1  0
  9 54  1  0
  9 55  1  0
 12 56  1  0
 13 57  1  0
 18 58  1  0
 20 59  1  1
 22 60  1  0
 22 61  1  0
 23 62  1  6
 24 63  1  0
 27 64  1  0
 28 65  1  0
 29 66  1  0
 29 67  1  0
 31 68  1  0
 31 69  1  0
 32 70  1  0
 32 71  1  0
 34 72  1  0
 34 73  1  0
 35 74  1  0
 35 75  1  0
 36 76  1  1
 37 77  1  0
 38 78  1  1
 39 79  1  0
M  END
>  <smiles>  (30) 
CCN(CCO)CCCN=c1[nH]cnc2c1ncn2C1OCC(NC(=O)C=CCN2CCOCC2)C(O)C1O

>  <score_type>  (30) 
oracle

>  <origin>  (30) 
adg

>  <m_score__min__energy>  (30) 
-8.1600000000000001

>  <m_primary>  (30) 
energy

$$$$
30:0
     RDKit          3D

 36 38  0  0  0  0  0  0  0  0999 V2000
   -2.9810   23.8100  -29.8790 C   0  0  0  0  0  0  0  0  0  0  0  0
   -3.9000   24.3280  -30.8350 O   0  0  0  0  0  0  0  0  0  0  0  0
   -5.1560   23.7660  -31.1110 C   0  0  0  0  0  0  0  0  0  0  0  0
   -6.3010   24.4510  -30.7010 C   0  0  0  0  0  0  0  0  0  0  0  0
   -7.5340   23.9390  -30.9480 N   0  0  0  0  0  0  0  0  0  0  0  0
   -7.7030   22.7560  -31.5950 C   0  0  0  0  0  0  0  0  0  0  0  0
   -6.5890   22.0240  -32.0350 C   0  0  0  0  0  0  0  0  0  0  0  0
   -6.7590   20.7670  -32.7220 N   0  0  0  0  0  0  0  0  0  0  0  0
   -5.6310   20.1780  -33.4530 C   0  0  0  0  0  0  0  0  0  0  0  0
   -6.0860   18.9720  -34.2870 C   0  0  0  0  0  0  0  0  0  0  0  0
   -6.8880   18.0150  -33.4930 N   0  0  0  0  0  0  0  0  0  0  0  0
   -6.0680   17.2360  -32.5510 C   0  0  0  0  0  0  0  0  0  0  0  0
   -6.4170   17.6890  -31.1480 C   0  0  0  0  0  0  0  0  0  0  0  0
   -7.8330   18.1960  -31.2550 C   0  0  0  0  0  0  0  0  0  0  0  0
   -7.9990   18.6240  -32.7180 C   0  0  1  0  0  0  0  0  0  0  0  0
   -8.0890   20.1630  -32.8560 C   0  0  0  0  0  0  0  0  0  0  0  0
   -5.3080   22.5410  -31.7840 C   0  0  0  0  0  0  0  0  0  0  0  0
   -3.3510   24.0185  -28.8643 H   0  0  0  0  0  0  0  0  0  0  0  0
   -2.8820   22.7232  -30.0170 H   0  0  0  0  0  0  0  0  0  0  0  0
   -2.0000   24.2880  -30.0170 H   0  0  0  0  0  0  0  0  0  0  0  0
   -6.2038   25.4118  -30.1744 H   0  0  0  0  0  0  0  0  0  0  0  0
   -8.7174   22.3703  -31.7747 H   0  0  0  0  0  0  0  0  0  0  0  0
   -5.2007   20.9370  -34.1229 H   0  0  0  0  0  0  0  0  0  0  0  0
   -4.8805   19.8374  -32.7245 H   0  0  0  0  0  0  0  0  0  0  0  0
   -6.6957   19.3328  -35.1285 H   0  0  0  0  0  0  0  0  0  0  0  0
   -5.1865   18.4471  -34.6411 H   0  0  0  0  0  0  0  0  0  0  0  0
   -6.2864   16.1637  -32.6631 H   0  0  0  0  0  0  0  0  0  0  0  0
   -4.9981   17.3950  -32.7509 H   0  0  0  0  0  0  0  0  0  0  0  0
   -6.3578   16.8476  -30.4419 H   0  0  0  0  0  0  0  0  0  0  0  0
   -5.7252   18.4576  -30.7729 H   0  0  0  0  0  0  0  0  0  0  0  0
   -8.5479   17.3989  -31.0031 H   0  0  0  0  0  0  0  0  0  0  0  0
   -8.0252   19.0266  -30.5600 H   0  0  0  0  0  0  0  0  0  0  0  0
   -8.9525   18.2595  -33.1279 H   0  0  0  0  0  0  0  0  0  0  0  0
   -8.5036   20.4148  -33.8433 H   0  0  0  0  0  0  0  0  0  0  0  0
   -8.7407   20.5550  -32.0612 H   0  0  0  0  0  0  0  0  0  0  0  0
   -4.4188   21.9848  -32.1156 H   0  0  0  0  0  0  0  0  0  0  0  0
  1  2  1  0
  2  3  1  0
  3  4  2  0
  4  5  1  0
  5  6  2  0
  6  7  1  0
  7  8  1  0
  8  9  1  0
  9 10  1  0
 10 11  1  0
 11 12  1  0
 12 13  1  0
 13 14  1  0
 14 15  1  0
 15 16  1  0
  7 17  2  0
 17  3  1  0
 16  8  1  0
 15 11  1  0
  1 18  1  0
  1 19  1  0
  1 20  1  0
  4 21  1  0
  6 22  1  0
  9 23  1  0
  9 24  1  0
 10 25  1  0
 10 26  1  0
 12 27  1  0
 12 28  1  0
 13 29  1  0
 13 30  1  0
 14 31  1  0
 14 32  1  0
 15 33  1  6
 16 34  1  0
 16 35  1  0
 17 36  1  0
M  END
>  <UniqueID>  (31) 
26

>  <SMILES>  (31) 
COc1cncc(N2CCN3CCC[C@H]3C2)c1

>  <Energy>  (31) 
47.50687241392433

>  <Genealogy>  (31) 
COc1cncc(N2CCN3CCC[C@H]3C2)c1 (chirality)
COc1cncc(N2CCN3CCC[C@H]3C2)c1 (3D coordinates assigned)
COc1cncc(N2CCN3CCC[C@H]3C2)c1 (nonaromatic ring conformer: 47.50687241392433 kcal/mol)

>  <smiles>  (31) 
COc1cncc(N2CCN3CCCC3C2)c1

>  <score_type>  (31) 
oracle

>  <origin>  (31) 
adg

>  <m_score__min__energy>  (31) 
-6.8300000000000001

>  <m_primary>  (31) 
energy

$$$$
31:0
     RDKit          3D

 57 60  0  0  0  0  0  0  0  0999 V2000
   -2.2970   16.1940  -33.0790 C   0  0  0  0  0  0  0  0  0  0  0  0
   -2.1490   16.9710  -34.3820 C   0  0  0  0  0  0  0  0  0  0  0  0
   -1.8710   18.4340  -34.1130 C   0  0  0  0  0  0  0  0  0  0  0  0
   -0.6000   18.9560  -34.4170 C   0  0  0  0  0  0  0  0  0  0  0  0
   -0.3250   20.3140  -34.2300 C   0  0  0  0  0  0  0  0  0  0  0  0
    0.9060   20.8040  -34.5200 F   0  0  0  0  0  0  0  0  0  0  0  0
   -1.3190   21.1690  -33.7510 C   0  0  0  0  0  0  0  0  0  0  0  0
   -2.5900   20.6690  -33.4570 C   0  0  0  0  0  0  0  0  0  0  0  0
   -2.8780   19.3070  -33.6340 C   0  0  0  0  0  0  0  0  0  0  0  0
   -4.1970   18.8240  -33.3300 N   0  0  0  0  0  0  0  0  0  0  0  0
   -5.0020   18.2380  -34.4070 C   0  0  0  0  0  0  0  0  0  0  0  0
   -6.1720   17.4120  -33.8480 C   0  0  0  0  0  0  0  0  0  0  0  0
   -6.9470   18.1530  -32.8260 N   0  0  2  0  0  0  0  0  0  0  0  0
   -7.6120   19.3540  -33.3970 C   0  0  0  0  0  0  0  0  0  0  0  0
   -7.7590   20.4580  -32.3760 C   0  0  0  0  0  0  0  0  0  0  0  0
   -8.9000   20.5170  -31.5670 C   0  0  0  0  0  0  0  0  0  0  0  0
   -9.0170   21.5270  -30.6150 C   0  0  0  0  0  0  0  0  0  0  0  0
   -8.0260   22.4450  -30.4720 N   0  0  0  0  0  0  0  0  0  0  0  0
   -6.8960   22.4270  -31.2350 C   0  0  0  0  0  0  0  0  0  0  0  0
   -5.8740   23.4290  -31.0170 N   0  0  0  0  0  0  0  0  0  0  0  0
   -4.4610   23.0650  -31.1950 C   0  0  0  0  0  0  0  0  0  0  0  0
   -3.5760   23.9540  -30.3210 C   0  0  0  0  0  0  0  0  0  0  0  0
   -3.8510   25.3190  -30.5660 O   0  0  0  0  0  0  0  0  0  0  0  0
   -5.1650   25.6220  -30.1330 C   0  0  0  0  0  0  0  0  0  0  0  0
   -6.2090   24.8600  -30.9570 C   0  0  0  0  0  0  0  0  0  0  0  0
   -6.7480   21.4170  -32.2060 C   0  0  0  0  0  0  0  0  0  0  0  0
   -6.0890   18.4810  -31.6630 C   0  0  0  0  0  0  0  0  0  0  0  0
   -4.8170   19.1630  -32.0770 C   0  0  0  0  0  0  0  0  0  0  0  0
   -4.2620   19.9750  -31.2870 O   0  0  0  0  0  0  0  0  0  0  0  0
   -2.1667   16.8780  -32.2274 H   0  0  0  0  0  0  0  0  0  0  0  0
   -3.2978   15.7397  -33.0346 H   0  0  0  0  0  0  0  0  0  0  0  0
   -1.5333   15.4036  -33.0346 H   0  0  0  0  0  0  0  0  0  0  0  0
   -1.3152   16.5470  -34.9608 H   0  0  0  0  0  0  0  0  0  0  0  0
   -3.0899   16.8913  -34.9461 H   0  0  0  0  0  0  0  0  0  0  0  0
    0.1843   18.2895  -34.8053 H   0  0  0  0  0  0  0  0  0  0  0  0
   -1.1014   22.2373  -33.6049 H   0  0  0  0  0  0  0  0  0  0  0  0
   -3.3709   21.3481  -33.0840 H   0  0  0  0  0  0  0  0  0  0  0  0
   -5.4032   19.0473  -35.0347 H   0  0  0  0  0  0  0  0  0  0  0  0
   -4.3571   17.5695  -34.9963 H   0  0  0  0  0  0  0  0  0  0  0  0
   -6.8443   17.1453  -34.6768 H   0  0  0  0  0  0  0  0  0  0  0  0
   -5.7515   16.5166  -33.3669 H   0  0  0  0  0  0  0  0  0  0  0  0
   -7.6920   17.4960  -32.4880 H   0  0  0  0  0  0  0  0  0  0  0  0
   -7.0102   19.7267  -34.2390 H   0  0  0  0  0  0  0  0  0  0  0  0
   -8.6192   19.0601  -33.7275 H   0  0  0  0  0  0  0  0  0  0  0  0
   -9.6993   19.7702  -31.6825 H   0  0  0  0  0  0  0  0  0  0  0  0
   -9.9125   21.5813  -29.9785 H   0  0  0  0  0  0  0  0  0  0  0  0
   -4.3171   22.0131  -30.9073 H   0  0  0  0  0  0  0  0  0  0  0  0
   -4.1829   23.2056  -32.2499 H   0  0  0  0  0  0  0  0  0  0  0  0
   -3.7710   23.7297  -29.2619 H   0  0  0  0  0  0  0  0  0  0  0  0
   -2.5216   23.7543  -30.5626 H   0  0  0  0  0  0  0  0  0  0  0  0
   -5.2680   25.3406  -29.0746 H   0  0  0  0  0  0  0  0  0  0  0  0
   -5.3357   26.7005  -30.2656 H   0  0  0  0  0  0  0  0  0  0  0  0
   -7.1975   24.9810  -30.4898 H   0  0  0  0  0  0  0  0  0  0  0  0
   -6.2203   25.2657  -31.9794 H   0  0  0  0  0  0  0  0  0  0  0  0
   -5.8425   21.3800  -32.8294 H   0  0  0  0  0  0  0  0  0  0  0  0
   -6.6457   19.1474  -30.9877 H   0  0  0  0  0  0  0  0  0  0  0  0
   -5.8218   17.5391  -31.1615 H   0  0  0  0  0  0  0  0  0  0  0  0
  1  2  1  0
  2  3  1  0
  3  4  2  0
  4  5  1  0
  5  6  1  0
  5  7  2  0
  7  8  1  0
  8  9  2  0
  9 10  1  0
 10 11  1  0
 11 12  1  0
 12 13  1  0
 13 14  1  0
 14 15  1  0
 15 16  2  0
 16 17  1  0
 17 18  2  0
 18 19  1  0
 19 20  1  0
 20 21  1  0
 21 22  1  0
 22 23  1  0
 23 24  1  0
 24 25  1  0
 19 26  2  0
 13 27  1  0
 27 28  1  0
 28 29  2  0
  9  3  1  0
 28 10  1  0
 26 15  1  0
 25 20  1  0
  1 30  1  0
  1 31  1  0
  1 32  1  0
  2 33  1  0
  2 34  1  0
  4 35  1  0
  7 36  1  0
  8 37  1  0
 11 38  1  0
 11 39  1  0
 12 40  1  0
 12 41  1  0
 13 42  1  1
 14 43  1  0
 14 44  1  0
 16 45  1  0
 17 46  1  0
 21 47  1  0
 21 48  1  0
 22 49  1  0
 22 50  1  0
 24 51  1  0
 24 52  1  0
 25 53  1  0
 25 54  1  0
 26 55  1  0
 27 56  1  0
 27 57  1  0
M  CHG  1  13   1
M  END
>  <UniqueID>  (32) 
27

>  <SMILES>  (32) 
CCc1cc(F)ccc1N1CC[N@H+](Cc2ccnc(N3CCOCC3)c2)CC1=O

>  <Energy>  (32) 
71.79364212907531

>  <Genealogy>  (32) 
CCc1cc(F)ccc1N1CC[NH+](Cc2ccnc(N3CCOCC3)c2)CC1=O (protonated)
CCc1cc(F)ccc1N1CC[N@H+](Cc2ccnc(N3CCOCC3)c2)CC1=O (chirality)
CCc1cc(F)ccc1N1CC[N@H+](Cc2ccnc(N3CCOCC3)c2)CC1=O (3D coordinates assigned)
CCc1cc(F)ccc1N1CC[N@H+](Cc2ccnc(N3CCOCC3)c2)CC1=O (nonaromatic ring conformer: 71.79364212907531 kcal/mol)

>  <smiles>  (32) 
CCc1cc(F)ccc1N1CCN(Cc2ccnc(N3CCOCC3)c2)CC1=O

>  <score_type>  (32) 
oracle

>  <origin>  (32) 
adg

>  <m_score__min__energy>  (32) 
-8.7599999999999998

>  <m_primary>  (32) 
energy

$$$$
32:0
     RDKit          3D

 55 56  0  0  0  0  0  0  0  0999 V2000
    3.0780   25.1940  -26.4760 C   0  0  0  0  0  0  0  0  0  0  0  0
    2.5220   24.8330  -27.8470 C   0  0  0  0  0  0  0  0  0  0  0  0
    1.0570   24.6220  -27.7540 N   0  0  0  0  0  0  0  0  0  0  0  0
    0.7080   23.4310  -26.9390 C   0  0  0  0  0  0  0  0  0  0  0  0
    0.2620   22.2090  -27.7590 C   0  0  0  0  0  0  0  0  0  0  0  0
    0.3360   25.8600  -27.3830 C   0  0  0  0  0  0  0  0  0  0  0  0
   -1.1840   25.7210  -27.5660 C   0  0  0  0  0  0  0  0  0  0  0  0
   -1.5280   24.8070  -28.7470 C   0  0  0  0  0  0  0  0  0  0  0  0
   -2.7940   25.2230  -29.3460 N   0  0  0  0  0  0  0  0  0  0  0  0
   -3.9560   24.4100  -29.5500 C   0  0  0  0  0  0  0  0  0  0  0  0
   -3.9230   23.2100  -29.1720 O   0  0  0  0  0  0  0  0  0  0  0  0
   -5.2190   24.9360  -30.1800 C   0  0  0  0  0  0  0  0  0  0  0  0
   -5.3590   24.5070  -31.5350 O   0  0  0  0  0  0  0  0  0  0  0  0
   -5.5370   23.1820  -31.9680 C   0  0  0  0  0  0  0  0  0  0  0  0
   -4.4480   22.5340  -32.5650 C   0  0  0  0  0  0  0  0  0  0  0  0
   -4.5440   21.1980  -32.9570 C   0  0  0  0  0  0  0  0  0  0  0  0
   -5.7300   20.4920  -32.7540 C   0  0  0  0  0  0  0  0  0  0  0  0
   -6.8480   21.1390  -32.2020 C   0  0  0  0  0  0  0  0  0  0  0  0
   -6.7510   22.4860  -31.8110 C   0  0  0  0  0  0  0  0  0  0  0  0
   -8.1030   20.3760  -32.0630 C   0  0  0  0  0  0  0  0  0  0  0  0
   -9.1070   20.8840  -31.4930 O   0  0  0  0  0  0  0  0  0  0  0  0
   -8.2060   19.0060  -32.6700 C   0  0  0  0  0  0  0  0  0  0  0  0
   -6.8400   18.2710  -32.6290 C   0  0  0  0  0  0  0  0  0  0  0  0
   -6.5080   17.8280  -31.1920 C   0  0  0  0  0  0  0  0  0  0  0  0
   -6.8890   17.0360  -33.5400 C   0  0  0  0  0  0  0  0  0  0  0  0
   -5.8010   19.1370  -33.1010 O   0  0  0  0  0  0  0  0  0  0  0  0
    2.4288   24.7725  -25.6944 H   0  0  0  0  0  0  0  0  0  0  0  0
    4.0925   24.7819  -26.3716 H   0  0  0  0  0  0  0  0  0  0  0  0
    3.1143   26.2884  -26.3716 H   0  0  0  0  0  0  0  0  0  0  0  0
    2.7293   25.6512  -28.5524 H   0  0  0  0  0  0  0  0  0  0  0  0
    3.0008   23.9084  -28.2017 H   0  0  0  0  0  0  0  0  0  0  0  0
    1.5922   23.1460  -26.3500 H   0  0  0  0  0  0  0  0  0  0  0  0
   -0.1494   23.7191  -26.3130 H   0  0  0  0  0  0  0  0  0  0  0  0
   -0.0340   21.3981  -27.0772 H   0  0  0  0  0  0  0  0  0  0  0  0
   -0.5933   22.4853  -28.3932 H   0  0  0  0  0  0  0  0  0  0  0  0
    1.0942   21.8694  -28.3932 H   0  0  0  0  0  0  0  0  0  0  0  0
    0.5466   26.0906  -26.3283 H   0  0  0  0  0  0  0  0  0  0  0  0
    0.6845   26.6663  -28.0451 H   0  0  0  0  0  0  0  0  0  0  0  0
   -1.6169   25.2966  -26.6481 H   0  0  0  0  0  0  0  0  0  0  0  0
   -1.5989   26.7190  -27.7706 H   0  0  0  0  0  0  0  0  0  0  0  0
   -0.7297   24.8697  -29.5012 H   0  0  0  0  0  0  0  0  0  0  0  0
   -1.6204   23.7713  -28.3882 H   0  0  0  0  0  0  0  0  0  0  0  0
   -6.0819   24.5740  -29.6018 H   0  0  0  0  0  0  0  0  0  0  0  0
   -5.1696   26.0349  -30.1746 H   0  0  0  0  0  0  0  0  0  0  0  0
   -3.5086   23.0831  -32.7263 H   0  0  0  0  0  0  0  0  0  0  0  0
   -3.6828   20.7006  -33.4270 H   0  0  0  0  0  0  0  0  0  0  0  0
   -7.6252   22.9972  -31.3816 H   0  0  0  0  0  0  0  0  0  0  0  0
   -8.9466   18.4188  -32.1073 H   0  0  0  0  0  0  0  0  0  0  0  0
   -8.5134   19.1124  -33.7208 H   0  0  0  0  0  0  0  0  0  0  0  0
   -7.0093   18.4969  -30.4770 H   0  0  0  0  0  0  0  0  0  0  0  0
   -6.8575   16.7967  -31.0363 H   0  0  0  0  0  0  0  0  0  0  0  0
   -5.4201   17.8739  -31.0363 H   0  0  0  0  0  0  0  0  0  0  0  0
   -6.9251   16.1262  -32.9227 H   0  0  0  0  0  0  0  0  0  0  0  0
   -7.7859   17.0841  -34.1750 H   0  0  0  0  0  0  0  0  0  0  0  0
   -5.9911   17.0129  -34.1750 H   0  0  0  0  0  0  0  0  0  0  0  0
  1  2  1  0
  2  3  1  0
  3  4  1  0
  4  5  1  0
  3  6  1  0
  6  7  1  0
  7  8  1  0
  8  9  1  0
  9 10  1  0
 10 11  2  0
 10 12  1  0
 12 13  1  0
 13 14  1  0
 14 15  2  0
 15 16  1  0
 16 17  2  0
 17 18  1  0
 18 19  2  0
 18 20  1  0
 20 21  2  0
 20 22  1  0
 22 23  1  0
 23 24  1  0
 23 25  1  0
 23 26  1  0
 19 14  1  0
 26 17  1  0
  1 27  1  0
  1 28  1  0
  1 29  1  0
  2 30  1  0
  2 31  1  0
  4 32  1  0
  4 33  1  0
  5 34  1  0
  5 35  1  0
  5 36  1  0
  6 37  1  0
  6 38  1  0
  7 39  1  0
  7 40  1  0
  8 41  1  0
  8 42  1  0
 12 43  1  0
 12 44  1  0
 15 45  1  0
 16 46  1  0
 19 47  1  0
 22 48  1  0
 22 49  1  0
 24 50  1  0
 24 51  1  0
 24 52  1  0
 25 53  1  0
 25 54  1  0
 25 55  1  0
M  CHG  1   9  -1
M  END
>  <UniqueID>  (33) 
28

>  <SMILES>  (33) 
CCN(CC)CCC[N-]C(=O)COc1ccc2c(c1)C(=O)CC(C)(C)O2

>  <Energy>  (33) 
47.26224102177184

>  <Genealogy>  (33) 
CCN(CC)CCC[N-]C(=O)COc1ccc2c(c1)C(=O)CC(C)(C)O2 (protonated)
CCN(CC)CCC[N-]C(=O)COc1ccc2c(c1)C(=O)CC(C)(C)O2 (3D coordinates assigned)
CCN(CC)CCC[N-]C(=O)COc1ccc2c(c1)C(=O)CC(C)(C)O2 (nonaromatic ring conformer: 47.26224102177184 kcal/mol)

>  <smiles>  (33) 
CCN(CC)CCCNC(=O)COc1ccc2c(c1)C(=O)CC(C)(C)O2

>  <score_type>  (33) 
oracle

>  <origin>  (33) 
adg

>  <m_score__min__energy>  (33) 
-9.3800000000000008

>  <m_primary>  (33) 
energy

$$$$
33:0
     RDKit          3D

 45 46  0  0  0  0  0  0  0  0999 V2000
   -0.8880   25.1400  -24.8100 C   0  0  0  0  0  0  0  0  0  0  0  0
   -1.3980   26.4300  -25.4550 C   0  0  0  0  0  0  0  0  0  0  0  0
   -0.6410   26.7710  -26.7560 C   0  0  1  0  0  0  0  0  0  0  0  0
    0.8240   27.1050  -26.4570 C   0  0  0  0  0  0  0  0  0  0  0  0
   -0.7150   25.6380  -27.7490 C   0  0  0  0  0  0  0  0  0  0  0  0
    0.3430   25.0520  -28.1090 O   0  0  0  0  0  0  0  0  0  0  0  0
   -1.9800   25.2610  -28.3180 N   0  0  0  0  0  0  0  0  0  0  0  0
   -2.1830   24.0530  -29.0720 C   0  0  0  0  0  0  0  0  0  0  0  0
   -1.5020   22.8720  -28.7280 C   0  0  0  0  0  0  0  0  0  0  0  0
   -1.7170   21.6940  -29.4480 C   0  0  0  0  0  0  0  0  0  0  0  0
   -2.6260   21.6790  -30.5070 C   0  0  0  0  0  0  0  0  0  0  0  0
   -3.3220   22.8390  -30.8480 C   0  0  0  0  0  0  0  0  0  0  0  0
   -3.0990   24.0370  -30.1440 C   0  0  0  0  0  0  0  0  0  0  0  0
   -3.8130   25.2370  -30.4820 N   0  0  0  0  0  0  0  0  0  0  0  0
   -5.2380   25.3860  -30.5320 C   0  0  0  0  0  0  0  0  0  0  0  0
   -5.7300   26.5360  -30.3740 O   0  0  0  0  0  0  0  0  0  0  0  0
   -6.1380   24.2430  -30.8160 C   0  0  0  0  0  0  0  0  0  0  0  0
   -6.4040   23.8470  -32.1380 C   0  0  0  0  0  0  0  0  0  0  0  0
   -7.2550   22.7690  -32.3980 C   0  0  0  0  0  0  0  0  0  0  0  0
   -7.8660   22.0740  -31.3360 C   0  0  0  0  0  0  0  0  0  0  0  0
   -8.7250   20.9850  -31.5460 O   0  0  0  0  0  0  0  0  0  0  0  0
   -8.3920   19.8340  -32.3150 C   0  0  0  0  0  0  0  0  0  0  0  0
   -7.6140   22.4810  -30.0220 C   0  0  0  0  0  0  0  0  0  0  0  0
   -6.7630   23.5580  -29.7610 C   0  0  0  0  0  0  0  0  0  0  0  0
   -0.9265   25.2375  -23.7150 H   0  0  0  0  0  0  0  0  0  0  0  0
   -1.5206   24.2973  -25.1256 H   0  0  0  0  0  0  0  0  0  0  0  0
    0.1499   24.9577  -25.1256 H   0  0  0  0  0  0  0  0  0  0  0  0
   -2.4665   26.3111  -25.6878 H   0  0  0  0  0  0  0  0  0  0  0  0
   -1.2321   27.2518  -24.7428 H   0  0  0  0  0  0  0  0  0  0  0  0
   -1.1278   27.6520  -27.1997 H   0  0  0  0  0  0  0  0  0  0  0  0
    0.9773   27.1399  -25.3683 H   0  0  0  0  0  0  0  0  0  0  0  0
    1.4729   26.3318  -26.8940 H   0  0  0  0  0  0  0  0  0  0  0  0
    1.0736   28.0831  -26.8940 H   0  0  0  0  0  0  0  0  0  0  0  0
   -2.7760   25.9320  -28.2290 H   0  0  0  0  0  0  0  0  0  0  0  0
   -0.7946   22.8755  -27.8857 H   0  0  0  0  0  0  0  0  0  0  0  0
   -1.1697   20.7782  -29.1801 H   0  0  0  0  0  0  0  0  0  0  0  0
   -2.7939   20.7512  -31.0736 H   0  0  0  0  0  0  0  0  0  0  0  0
   -4.0498   22.8171  -31.6725 H   0  0  0  0  0  0  0  0  0  0  0  0
   -5.9390   24.3895  -32.9744 H   0  0  0  0  0  0  0  0  0  0  0  0
   -7.4484   22.4621  -33.4365 H   0  0  0  0  0  0  0  0  0  0  0  0
   -8.1506   18.9995  -31.6402 H   0  0  0  0  0  0  0  0  0  0  0  0
   -9.2468   19.5570  -32.9494 H   0  0  0  0  0  0  0  0  0  0  0  0
   -7.5213   20.0562  -32.9494 H   0  0  0  0  0  0  0  0  0  0  0  0
   -8.0903   21.9481  -29.1859 H   0  0  0  0  0  0  0  0  0  0  0  0
   -6.5813   23.8715  -28.7224 H   0  0  0  0  0  0  0  0  0  0  0  0
  1  2  1  0
  2  3  1  0
  3  4  1  0
  3  5  1  0
  5  6  2  0
  5  7  1  0
  7  8  1  0
  8  9  2  0
  9 10  1  0
 10 11  2  0
 11 12  1  0
 12 13  2  0
 13 14  1  0
 14 15  1  0
 15 16  2  0
 15 17  1  0
 17 18  2  0
 18 19  1  0
 19 20  2  0
 20 21  1  0
 21 22  1  0
 20 23  1  0
 23 24  2  0
 13  8  1  0
 24 17  1  0
  1 25  1  0
  1 26  1  0
  1 27  1  0
  2 28  1  0
  2 29  1  0
  3 30  1  6
  4 31  1  0
  4 32  1  0
  4 33  1  0
  7 34  1  0
  9 35  1  0
 10 36  1  0
 11 37  1  0
 12 38  1  0
 18 39  1  0
 19 40  1  0
 22 41  1  0
 22 42  1  0
 22 43  1  0
 23 44  1  0
 24 45  1  0
M  CHG  1  14  -1
M  END
>  <UniqueID>  (34) 
29

>  <SMILES>  (34) 
CC[C@@H](C)C(=O)Nc1ccccc1[N-]C(=O)c1ccc(OC)cc1

>  <Energy>  (34) 
48.35569892086402

>  <Genealogy>  (34) 
CCC(C)C(=O)Nc1ccccc1[N-]C(=O)c1ccc(OC)cc1 (protonated)
CC[C@@H](C)C(=O)Nc1ccccc1[N-]C(=O)c1ccc(OC)cc1 (chirality)
CC[C@@H](C)C(=O)Nc1ccccc1[N-]C(=O)c1ccc(OC)cc1 (3D coordinates assigned)
CC[C@@H](C)C(=O)Nc1ccccc1[N-]C(=O)c1ccc(OC)cc1 (optimized conformer: 48.35569892086402 kcal/mol)

>  <smiles>  (34) 
CCC(C)C(=O)Nc1ccccc1NC(=O)c1ccc(OC)cc1

>  <score_type>  (34) 
oracle

>  <origin>  (34) 
adg

>  <m_score__min__energy>  (34) 
-9.9900000000000002

>  <m_primary>  (34) 
energy

$$$$
34:0
     RDKit          3D

 29 30  0  0  0  0  0  0  0  0999 V2000
   -7.5040   17.8020  -32.3490 C   0  0  0  0  0  0  0  0  0  0  0  0
   -8.7390   18.3400  -31.6260 C   0  0  0  0  0  0  0  0  0  0  0  0
   -8.7370   19.8730  -31.5000 C   0  0  0  0  0  0  0  0  0  0  0  0
   -8.1450   20.6130  -32.7170 C   0  0  0  0  0  0  0  0  0  0  0  0
   -7.1210   21.6140  -32.3320 N   0  0  0  0  0  0  0  0  0  0  0  0
   -7.5550   22.8120  -31.8120 C   0  0  0  0  0  0  0  0  0  0  0  0
   -8.7860   23.0420  -31.6630 O   0  0  0  0  0  0  0  0  0  0  0  0
   -6.6960   23.7560  -31.4570 O   0  0  0  0  0  0  0  0  0  0  0  0
   -5.3890   23.6160  -31.5780 C   0  0  0  0  0  0  0  0  0  0  0  0
   -4.6370   24.5620  -31.2180 O   0  0  0  0  0  0  0  0  0  0  0  0
   -4.8570   22.4320  -32.0950 C   0  0  0  0  0  0  0  0  0  0  0  0
   -3.4680   22.2510  -32.2300 C   0  0  0  0  0  0  0  0  0  0  0  0
   -2.9600   21.0570  -32.7340 C   0  0  0  0  0  0  0  0  0  0  0  0
   -3.8270   20.0350  -33.1070 C   0  0  0  0  0  0  0  0  0  0  0  0
   -5.2090   20.1980  -32.9830 C   0  0  0  0  0  0  0  0  0  0  0  0
   -5.7590   21.4060  -32.4790 C   0  0  0  0  0  0  0  0  0  0  0  0
   -6.7582   17.4771  -31.6086 H   0  0  0  0  0  0  0  0  0  0  0  0
   -7.7913   16.9475  -32.9793 H   0  0  0  0  0  0  0  0  0  0  0  0
   -7.0739   18.5943  -32.9793 H   0  0  0  0  0  0  0  0  0  0  0  0
   -9.6349   18.0349  -32.1866 H   0  0  0  0  0  0  0  0  0  0  0  0
   -8.7330   17.9246  -30.6075 H   0  0  0  0  0  0  0  0  0  0  0  0
   -9.7760   20.2083  -31.3659 H   0  0  0  0  0  0  0  0  0  0  0  0
   -8.0931   20.1160  -30.6419 H   0  0  0  0  0  0  0  0  0  0  0  0
   -7.6813   19.8743  -33.3873 H   0  0  0  0  0  0  0  0  0  0  0  0
   -8.9669   21.1504  -33.2127 H   0  0  0  0  0  0  0  0  0  0  0  0
   -2.7801   23.0573  -31.9357 H   0  0  0  0  0  0  0  0  0  0  0  0
   -1.8733   20.9216  -32.8373 H   0  0  0  0  0  0  0  0  0  0  0  0
   -3.4216   19.0919  -33.5023 H   0  0  0  0  0  0  0  0  0  0  0  0
   -5.8804   19.3789  -33.2800 H   0  0  0  0  0  0  0  0  0  0  0  0
  1  2  1  0
  2  3  1  0
  3  4  1  0
  4  5  1  0
  5  6  1  0
  6  7  2  0
  6  8  1  0
  8  9  1  0
  9 10  2  0
  9 11  1  0
 11 12  2  0
 12 13  1  0
 13 14  2  0
 14 15  1  0
 15 16  2  0
 16  5  1  0
 16 11  1  0
  1 17  1  0
  1 18  1  0
  1 19  1  0
  2 20  1  0
  2 21  1  0
  3 22  1  0
  3 23  1  0
  4 24  1  0
  4 25  1  0
 12 26  1  0
 13 27  1  0
 14 28  1  0
 15 29  1  0
M  END
>  <UniqueID>  (35) 
30

>  <SMILES>  (35) 
CCCCn1c(=O)oc(=O)c2ccccc21

>  <Energy>  (35) 
38.505557200549035

>  <Genealogy>  (35) 
CCCCn1c(=O)oc(=O)c2ccccc21 (3D coordinates assigned)
CCCCn1c(=O)oc(=O)c2ccccc21 (optimized conformer: 38.505557200549035 kcal/mol)

>  <smiles>  (35) 
CCCCn1c(=O)oc(=O)c2ccccc21

>  <score_type>  (35) 
oracle

>  <origin>  (35) 
adg

>  <m_score__min__energy>  (35) 
-6.3399999999999999

>  <m_primary>  (35) 
energy

$$$$
35:0
     RDKit          3D

 26 26  0  0  0  0  0  0  0  0999 V2000
   -1.6700   24.9530  -28.8190 C   0  0  0  0  0  0  0  0  0  0  0  0
   -2.6230   24.1290  -29.6770 C   0  0  0  0  0  0  0  0  0  0  0  0
   -3.4860   25.0000  -30.4670 N   0  0  0  0  0  0  0  0  0  0  0  0
   -4.9210   24.9940  -30.4740 C   0  0  0  0  0  0  0  0  0  0  0  0
   -5.5210   25.9850  -30.9700 O   0  0  0  0  0  0  0  0  0  0  0  0
   -5.7280   23.8960  -29.8280 C   0  0  0  0  0  0  0  0  0  0  0  0
   -6.2180   22.9060  -30.8540 C   0  0  0  0  0  0  0  0  0  0  0  0
   -7.5920   22.6540  -30.9930 C   0  0  0  0  0  0  0  0  0  0  0  0
   -8.0470   21.7170  -31.9250 C   0  0  0  0  0  0  0  0  0  0  0  0
   -7.1330   21.0140  -32.7230 C   0  0  0  0  0  0  0  0  0  0  0  0
   -7.5990   20.0530  -33.6750 N   0  0  0  0  0  0  0  0  0  0  0  0
   -5.7600   21.2550  -32.5780 C   0  0  0  0  0  0  0  0  0  0  0  0
   -5.3040   22.1930  -31.6460 C   0  0  0  0  0  0  0  0  0  0  0  0
   -1.8824   24.7694  -27.7554 H   0  0  0  0  0  0  0  0  0  0  0  0
   -0.6325   24.6627  -29.0412 H   0  0  0  0  0  0  0  0  0  0  0  0
   -1.8074   26.0215  -29.0412 H   0  0  0  0  0  0  0  0  0  0  0  0
   -2.0382   23.4889  -30.3540 H   0  0  0  0  0  0  0  0  0  0  0  0
   -3.2505   23.5118  -29.0172 H   0  0  0  0  0  0  0  0  0  0  0  0
   -5.0980   23.3712  -29.0948 H   0  0  0  0  0  0  0  0  0  0  0  0
   -6.6009   24.3484  -29.3347 H   0  0  0  0  0  0  0  0  0  0  0  0
   -8.3142   23.1967  -30.3653 H   0  0  0  0  0  0  0  0  0  0  0  0
   -9.1257   21.5304  -32.0329 H   0  0  0  0  0  0  0  0  0  0  0  0
   -8.3460   19.3690  -33.4220 H   0  0  0  0  0  0  0  0  0  0  0  0
   -7.2000   20.0200  -34.6390 H   0  0  0  0  0  0  0  0  0  0  0  0
   -5.0384   20.7045  -33.1994 H   0  0  0  0  0  0  0  0  0  0  0  0
   -4.2247   22.3728  -31.5331 H   0  0  0  0  0  0  0  0  0  0  0  0
  1  2  1  0
  2  3  1  0
  3  4  1  0
  4  5  2  0
  4  6  1  0
  6  7  1  0
  7  8  2  0
  8  9  1  0
  9 10  2  0
 10 11  1  0
 10 12  1  0
 12 13  2  0
 13  7  1  0
  1 14  1  0
  1 15  1  0
  1 16  1  0
  2 17  1  0
  2 18  1  0
  6 19  1  0
  6 20  1  0
  8 21  1  0
  9 22  1  0
 11 23  1  0
 11 24  1  0
 12 25  1  0
 13 26  1  0
M  CHG  1   3  -1
M  END
>  <UniqueID>  (36) 
31

>  <SMILES>  (36) 
CC[N-]C(=O)Cc1ccc(N)cc1

>  <Energy>  (36) 
18.95100219992386

>  <Genealogy>  (36) 
CC[N-]C(=O)Cc1ccc(N)cc1 (protonated)
CC[N-]C(=O)Cc1ccc(N)cc1 (3D coordinates assigned)
CC[N-]C(=O)Cc1ccc(N)cc1 (optimized conformer: 18.95100219992386 kcal/mol)

>  <smiles>  (36) 
CCNC(=O)Cc1ccc(N)cc1

>  <score_type>  (36) 
oracle

>  <origin>  (36) 
adg

>  <m_score__min__energy>  (36) 
-7.2400000000000002

>  <m_primary>  (36) 
energy

$$$$
36:0
     RDKit          3D

 38 41  0  0  0  0  0  0  0  0999 V2000
   -1.6240   25.2720  -29.2680 O   0  0  0  0  0  0  0  0  0  0  0  0
   -2.5450   24.5400  -29.7160 C   0  0  0  0  0  0  0  0  0  0  0  0
   -3.6270   25.1010  -30.4700 N   0  0  0  0  0  0  0  0  0  0  0  0
   -4.9980   24.6870  -30.4350 C   0  0  0  0  0  0  0  0  0  0  0  0
   -5.9140   24.8110  -29.4030 C   0  0  0  0  0  0  0  0  0  0  0  0
   -7.0940   24.3300  -29.8400 N   0  0  0  0  0  0  0  0  0  0  0  0
   -6.9500   23.9110  -31.0890 N   0  0  0  0  0  0  0  0  0  0  0  0
   -8.0400   23.4030  -31.9180 C   0  0  0  0  0  0  0  0  0  0  0  0
   -7.9750   21.9030  -31.9810 C   0  0  0  0  0  0  0  0  0  0  0  0
   -9.1180   21.1320  -31.7090 C   0  0  0  0  0  0  0  0  0  0  0  0
   -9.0670   19.7390  -31.8080 C   0  0  0  0  0  0  0  0  0  0  0  0
   -7.8810   19.1070  -32.1910 C   0  0  0  0  0  0  0  0  0  0  0  0
   -6.7440   19.8670  -32.4780 C   0  0  0  0  0  0  0  0  0  0  0  0
   -6.7910   21.2610  -32.3800 C   0  0  0  0  0  0  0  0  0  0  0  0
   -5.6820   24.1260  -31.4920 C   0  0  0  0  0  0  0  0  0  0  0  0
   -2.5170   23.0960  -29.4470 C   0  0  0  0  0  0  0  0  0  0  0  0
   -2.9710   22.0670  -30.2700 C   0  0  0  0  0  0  0  0  0  0  0  0
   -2.7730   20.8680  -29.6690 N   0  0  0  0  0  0  0  0  0  0  0  0
   -2.2100   21.1190  -28.4990 N   0  0  0  0  0  0  0  0  0  0  0  0
   -1.8350   20.2160  -27.5610 C   0  0  0  0  0  0  0  0  0  0  0  0
   -1.2530   20.7000  -26.3820 C   0  0  0  0  0  0  0  0  0  0  0  0
   -1.0870   22.0910  -26.2280 C   0  0  0  0  0  0  0  0  0  0  0  0
   -1.4860   22.9500  -27.2120 N   0  0  0  0  0  0  0  0  0  0  0  0
   -2.0450   22.4350  -28.3370 C   0  0  0  0  0  0  0  0  0  0  0  0
   -5.7135   25.2278  -28.4050 H   0  0  0  0  0  0  0  0  0  0  0  0
   -7.9870   24.3070  -29.3000 H   0  0  0  0  0  0  0  0  0  0  0  0
   -9.0029   23.7089  -31.4829 H   0  0  0  0  0  0  0  0  0  0  0  0
   -7.9454   23.8137  -32.9341 H   0  0  0  0  0  0  0  0  0  0  0  0
  -10.0561   21.6267  -31.4171 H   0  0  0  0  0  0  0  0  0  0  0  0
   -9.9615   19.1393  -31.5842 H   0  0  0  0  0  0  0  0  0  0  0  0
   -7.8424   18.0103  -32.2666 H   0  0  0  0  0  0  0  0  0  0  0  0
   -5.8116   19.3683  -32.7812 H   0  0  0  0  0  0  0  0  0  0  0  0
   -5.8973   21.8573  -32.6163 H   0  0  0  0  0  0  0  0  0  0  0  0
   -5.2680   23.8955  -32.4847 H   0  0  0  0  0  0  0  0  0  0  0  0
   -3.4240   22.2072  -31.2626 H   0  0  0  0  0  0  0  0  0  0  0  0
   -1.9827   19.1376  -27.7200 H   0  0  0  0  0  0  0  0  0  0  0  0
   -0.9314   20.0068  -25.5908 H   0  0  0  0  0  0  0  0  0  0  0  0
   -0.6326   22.4879  -25.3082 H   0  0  0  0  0  0  0  0  0  0  0  0
  1  2  2  0
  2  3  1  0
  3  4  1  0
  4  5  1  0
  5  6  2  0
  6  7  1  0
  7  8  1  0
  8  9  1  0
  9 10  2  0
 10 11  1  0
 11 12  2  0
 12 13  1  0
 13 14  2  0
  7 15  1  0
  2 16  1  0
 16 17  1  0
 17 18  2  0
 18 19  1  0
 19 20  1  0
 20 21  2  0
 21 22  1  0
 22 23  2  0
 23 24  1  0
 15  4  2  0
 24 16  2  0
 14  9  1  0
 24 19  1  0
  5 25  1  0
  6 26  1  0
  8 27  1  0
  8 28  1  0
 10 29  1  0
 11 30  1  0
 12 31  1  0
 13 32  1  0
 14 33  1  0
 15 34  1  0
 17 35  1  0
 20 36  1  0
 21 37  1  0
 22 38  1  0
M  CHG  2   3  -1   6   1
M  END
>  <UniqueID>  (37) 
32

>  <SMILES>  (37) 
O=C([N-]c1c[nH+]n(Cc2ccccc2)c1)c1cnn2cccnc12

>  <Energy>  (37) 
110.98043749215176

>  <Genealogy>  (37) 
O=C([N-]c1c[nH+]n(Cc2ccccc2)c1)c1cnn2cccnc12 (protonated)
O=C([N-]c1c[nH+]n(Cc2ccccc2)c1)c1cnn2cccnc12 (3D coordinates assigned)
O=C([N-]c1c[nH+]n(Cc2ccccc2)c1)c1cnn2cccnc12 (optimized conformer: 110.98043749215176 kcal/mol)

>  <smiles>  (37) 
O=C(Nc1cnn(Cc2ccccc2)c1)c1cnn2cccnc12

>  <score_type>  (37) 
oracle

>  <origin>  (37) 
adg

>  <m_score__min__energy>  (37) 
-9.1799999999999997

>  <m_primary>  (37) 
energy

$$$$
37:0
     RDKit          3D

 55 59  0  0  0  0  0  0  0  0999 V2000
   -9.1150   18.5700  -31.5630 C   0  0  0  0  0  0  0  0  0  0  0  0
   -7.9240   18.7110  -32.4350 C   0  0  0  0  0  0  0  0  0  0  0  0
   -7.2620   17.5990  -32.8570 N   0  0  0  0  0  0  0  0  0  0  0  0
   -6.1770   17.6560  -33.6620 C   0  0  0  0  0  0  0  0  0  0  0  0
   -5.3540   16.1940  -34.1820 Cl  0  0  0  0  0  0  0  0  0  0  0  0
   -5.7350   18.9190  -34.0640 C   0  0  0  0  0  0  0  0  0  0  0  0
   -6.3740   20.0760  -33.6620 C   0  0  0  0  0  0  0  0  0  0  0  0
   -7.4730   19.9710  -32.8420 C   0  0  0  0  0  0  0  0  0  0  0  0
   -8.2400   21.1300  -32.3310 C   0  0  0  0  0  0  0  0  0  0  0  0
   -7.6280   22.3640  -32.6490 N   0  0  0  0  0  0  0  0  0  0  0  0
   -7.5780   23.3520  -31.6180 C   0  0  0  0  0  0  0  0  0  0  0  0
   -6.2300   23.4100  -31.0070 C   0  0  0  0  0  0  0  0  0  0  0  0
   -5.7680   24.6430  -30.5790 C   0  0  0  0  0  0  0  0  0  0  0  0
   -4.5280   24.7460  -29.9920 C   0  0  0  0  0  0  0  0  0  0  0  0
   -3.7070   23.6280  -29.8100 C   0  0  0  0  0  0  0  0  0  0  0  0
   -2.3940   23.7310  -29.1880 C   0  0  0  0  0  0  0  0  0  0  0  0
   -1.4480   22.7090  -29.2640 C   0  0  0  0  0  0  0  0  0  0  0  0
   -0.2190   22.9480  -28.6390 C   0  0  0  0  0  0  0  0  0  0  0  0
    0.0550   24.1230  -27.9820 C   0  0  0  0  0  0  0  0  0  0  0  0
   -0.8910   25.1450  -27.9050 C   0  0  0  0  0  0  0  0  0  0  0  0
   -0.6150   26.3850  -27.2320 C   0  0  0  0  0  0  0  0  0  0  0  0
   -0.5960   27.6050  -27.8130 N   0  0  0  0  0  0  0  0  0  0  0  0
   -0.3110   28.5090  -26.8550 C   0  0  0  0  0  0  0  0  0  0  0  0
   -0.1650   29.8810  -26.8520 C   0  0  0  0  0  0  0  0  0  0  0  0
    0.1330   30.5180  -25.6730 C   0  0  0  0  0  0  0  0  0  0  0  0
    0.2900   29.8250  -24.4860 C   0  0  0  0  0  0  0  0  0  0  0  0
    0.1430   28.4410  -24.4800 C   0  0  0  0  0  0  0  0  0  0  0  0
   -0.1540   27.8360  -25.6720 C   0  0  0  0  0  0  0  0  0  0  0  0
   -0.3460   26.5350  -25.9360 N   0  0  0  0  0  0  0  0  0  0  0  0
   -2.0950   24.8980  -28.5220 C   0  0  0  0  0  0  0  0  0  0  0  0
   -4.1740   22.3830  -30.2430 C   0  0  0  0  0  0  0  0  0  0  0  0
   -5.4360   22.2820  -30.8400 C   0  0  0  0  0  0  0  0  0  0  0  0
   -8.8039   18.6068  -30.5086 H   0  0  0  0  0  0  0  0  0  0  0  0
   -9.8179   19.3912  -31.7668 H   0  0  0  0  0  0  0  0  0  0  0  0
   -9.6067   17.6074  -31.7668 H   0  0  0  0  0  0  0  0  0  0  0  0
   -4.8541   18.9942  -34.7185 H   0  0  0  0  0  0  0  0  0  0  0  0
   -6.0112   21.0609  -33.9910 H   0  0  0  0  0  0  0  0  0  0  0  0
   -9.2466   21.1104  -32.7740 H   0  0  0  0  0  0  0  0  0  0  0  0
   -8.2803   21.0484  -31.2348 H   0  0  0  0  0  0  0  0  0  0  0  0
   -7.0540   22.4580  -33.4620 H   0  0  0  0  0  0  0  0  0  0  0  0
   -7.8209   24.3346  -32.0486 H   0  0  0  0  0  0  0  0  0  0  0  0
   -8.3062   23.0838  -30.8384 H   0  0  0  0  0  0  0  0  0  0  0  0
   -6.3920   25.5397  -30.7082 H   0  0  0  0  0  0  0  0  0  0  0  0
   -4.1733   25.7320  -29.6574 H   0  0  0  0  0  0  0  0  0  0  0  0
   -1.6570   21.7646  -29.7878 H   0  0  0  0  0  0  0  0  0  0  0  0
    0.5552   22.1674  -28.6750 H   0  0  0  0  0  0  0  0  0  0  0  0
    1.0382   24.2603  -27.5081 H   0  0  0  0  0  0  0  0  0  0  0  0
   -0.2857   30.4565  -27.7816 H   0  0  0  0  0  0  0  0  0  0  0  0
    0.2504   31.6117  -25.6721 H   0  0  0  0  0  0  0  0  0  0  0  0
    0.5286   30.3624  -23.5563 H   0  0  0  0  0  0  0  0  0  0  0  0
    0.2606   27.8569  -23.5553 H   0  0  0  0  0  0  0  0  0  0  0  0
   -0.2950   25.7450  -25.2410 H   0  0  0  0  0  0  0  0  0  0  0  0
   -2.8664   25.6811  -28.4808 H   0  0  0  0  0  0  0  0  0  0  0  0
   -3.5512   21.4854  -30.1148 H   0  0  0  0  0  0  0  0  0  0  0  0
   -5.8021   21.3019  -31.1796 H   0  0  0  0  0  0  0  0  0  0  0  0
  1  2  1  0
  2  3  2  0
  3  4  1  0
  4  5  1  0
  4  6  2  0
  6  7  1  0
  7  8  2  0
  8  9  1  0
  9 10  1  0
 10 11  1  0
 11 12  1  0
 12 13  2  0
 13 14  1  0
 14 15  2  0
 15 16  1  0
 16 17  2  0
 17 18  1  0
 18 19  2  0
 19 20  1  0
 20 21  1  0
 21 22  2  0
 22 23  1  0
 23 24  2  0
 24 25  1  0
 25 26  2  0
 26 27  1  0
 27 28  2  0
 28 29  1  0
 20 30  2  0
 15 31  1  0
 31 32  2  0
  8  2  1  0
 32 12  1  0
 30 16  1  0
 29 21  1  0
 28 23  1  0
  1 33  1  0
  1 34  1  0
  1 35  1  0
  6 36  1  0
  7 37  1  0
  9 38  1  0
  9 39  1  0
 10 40  1  0
 11 41  1  0
 11 42  1  0
 13 43  1  0
 14 44  1  0
 17 45  1  0
 18 46  1  0
 19 47  1  0
 24 48  1  0
 25 49  1  0
 26 50  1  0
 27 51  1  0
 29 52  1  0
 30 53  1  0
 31 54  1  0
 32 55  1  0
M  END
>  <smiles>  (38) 
Cc1nc(Cl)ccc1CNCc1ccc(-c2cccc(-c3nc4ccccc4[nH]3)c2)cc1

>  <score_type>  (38) 
oracle

>  <origin>  (38) 
adg

>  <m_score__min__energy>  (38) 
-10.630000000000001

>  <m_primary>  (38) 
energy

$$$$
38:0
     RDKit          3D

 30 32  0  0  0  0  0  0  0  0999 V2000
   -6.1680   24.2470  -31.9680 C   0  0  0  0  0  0  0  0  0  0  0  0
   -5.4120   22.9670  -31.7430 C   0  0  0  0  0  0  0  0  0  0  0  0
   -5.9510   21.7680  -32.2570 C   0  0  0  0  0  0  0  0  0  0  0  0
   -5.2460   20.5490  -32.1360 C   0  0  0  0  0  0  0  0  0  0  0  0
   -5.7900   19.2780  -32.6770 C   0  0  0  0  0  0  0  0  0  0  0  0
   -5.2570   18.6850  -33.8390 C   0  0  0  0  0  0  0  0  0  0  0  0
   -5.7790   17.4830  -34.3250 C   0  0  0  0  0  0  0  0  0  0  0  0
   -6.8330   16.8540  -33.6580 C   0  0  0  0  0  0  0  0  0  0  0  0
   -7.3630   17.4250  -32.4990 C   0  0  0  0  0  0  0  0  0  0  0  0
   -6.8440   18.6270  -32.0080 C   0  0  0  0  0  0  0  0  0  0  0  0
   -4.0400   20.5370  -31.5020 N   0  0  0  0  0  0  0  0  0  0  0  0
   -3.5240   21.6760  -30.9860 C   0  0  0  0  0  0  0  0  0  0  0  0
   -2.0470   21.8090  -30.2070 S   0  0  0  0  0  0  0  0  0  0  0  0
   -2.2020   23.4610  -29.9210 C   0  0  0  0  0  0  0  0  0  0  0  0
   -1.2300   24.2430  -29.2060 C   0  0  0  0  0  0  0  0  0  0  0  0
   -0.4470   24.8720  -28.6310 N   0  0  0  0  0  0  0  0  0  0  0  0
   -3.4260   23.9240  -30.4180 C   0  0  0  0  0  0  0  0  0  0  0  0
   -3.8600   25.2730  -30.2150 N   0  0  0  0  0  0  0  0  0  0  0  0
   -4.1770   22.9010  -31.0550 C   0  0  0  0  0  0  0  0  0  0  0  0
   -6.4313   24.6928  -30.9975 H   0  0  0  0  0  0  0  0  0  0  0  0
   -5.5396   24.9491  -32.5356 H   0  0  0  0  0  0  0  0  0  0  0  0
   -7.0862   24.0356  -32.5356 H   0  0  0  0  0  0  0  0  0  0  0  0
   -6.9306   21.7825  -32.7573 H   0  0  0  0  0  0  0  0  0  0  0  0
   -4.4240   19.1717  -34.3674 H   0  0  0  0  0  0  0  0  0  0  0  0
   -5.3586   17.0309  -35.2354 H   0  0  0  0  0  0  0  0  0  0  0  0
   -7.2449   15.9103  -34.0451 H   0  0  0  0  0  0  0  0  0  0  0  0
   -8.1904   16.9282  -31.9713 H   0  0  0  0  0  0  0  0  0  0  0  0
   -7.2628   19.0677  -31.0913 H   0  0  0  0  0  0  0  0  0  0  0  0
   -3.4870   26.0420  -30.8140 H   0  0  0  0  0  0  0  0  0  0  0  0
   -4.3760   25.5610  -29.3580 H   0  0  0  0  0  0  0  0  0  0  0  0
  1  2  1  0
  2  3  2  0
  3  4  1  0
  4  5  1  0
  5  6  2  0
  6  7  1  0
  7  8  2  0
  8  9  1  0
  9 10  2  0
  4 11  2  0
 11 12  1  0
 12 13  1  0
 13 14  1  0
 14 15  1  0
 15 16  3  0
 14 17  2  0
 17 18  1  0
 17 19  1  0
 19  2  1  0
 10  5  1  0
 19 12  2  0
  1 20  1  0
  1 21  1  0
  1 22  1  0
  3 23  1  0
  6 24  1  0
  7 25  1  0
  8 26  1  0
  9 27  1  0
 10 28  1  0
 18 29  1  0
 18 30  1  0
M  END
>  <UniqueID>  (39) 
33

>  <SMILES>  (39) 
Cc1cc(-c2ccccc2)nc2sc(C#N)c(N)c12

>  <Energy>  (39) 
74.06911495967049

>  <Genealogy>  (39) 
Cc1cc(-c2ccccc2)nc2sc(C#N)c(N)c12 (3D coordinates assigned)
Cc1cc(-c2ccccc2)nc2sc(C#N)c(N)c12 (optimized conformer: 74.06911495967049 kcal/mol)

>  <smiles>  (39) 
Cc1cc(-c2ccccc2)nc2sc(C#N)c(N)c12

>  <score_type>  (39) 
oracle

>  <origin>  (39) 
adg

>  <m_score__min__energy>  (39) 
-7.8600000000000003

>  <m_primary>  (39) 
energy

$$$$
39:0
     RDKit          3D

 35 37  0  0  0  0  0  0  0  0999 V2000
   -2.6290   21.0940  -33.4650 C   0  0  0  0  0  0  0  0  0  0  0  0
   -2.9400   20.3520  -32.1710 C   0  0  0  0  0  0  0  0  0  0  0  0
   -4.2210   20.7310  -31.6740 O   0  0  0  0  0  0  0  0  0  0  0  0
   -4.5970   22.0550  -31.4280 C   0  0  0  0  0  0  0  0  0  0  0  0
   -3.6670   23.0100  -31.1280 N   0  0  0  0  0  0  0  0  0  0  0  0
   -4.0330   24.2660  -30.8340 N   0  0  0  0  0  0  0  0  0  0  0  0
   -5.3440   24.6420  -30.8140 C   0  0  0  0  0  0  0  0  0  0  0  0
   -5.7340   26.0400  -30.4530 C   0  0  0  0  0  0  0  0  0  0  0  0
   -6.2890   23.6670  -31.1230 C   0  0  0  0  0  0  0  0  0  0  0  0
   -7.6280   23.7990  -31.1280 N   0  0  0  0  0  0  0  0  0  0  0  0
   -8.1150   22.6090  -31.4690 N   0  0  0  0  0  0  0  0  0  0  0  0
   -7.0640   21.7800  -31.6690 C   0  0  0  0  0  0  0  0  0  0  0  0
   -7.2120   20.3840  -32.1160 C   0  0  0  0  0  0  0  0  0  0  0  0
   -8.1860   19.5500  -31.5470 C   0  0  0  0  0  0  0  0  0  0  0  0
   -8.3110   18.2250  -31.9690 C   0  0  0  0  0  0  0  0  0  0  0  0
   -7.4470   17.7140  -32.9410 C   0  0  0  0  0  0  0  0  0  0  0  0
   -6.4300   18.5180  -33.4830 C   0  0  0  0  0  0  0  0  0  0  0  0
   -5.5200   17.9790  -34.5580 C   0  0  0  0  0  0  0  0  0  0  0  0
   -5.6570   16.6050  -34.6220 F   0  0  0  0  0  0  0  0  0  0  0  0
   -5.8430   18.5240  -35.7880 F   0  0  0  0  0  0  0  0  0  0  0  0
   -4.1980   18.2880  -34.2830 F   0  0  0  0  0  0  0  0  0  0  0  0
   -6.3290   19.8600  -33.0720 C   0  0  0  0  0  0  0  0  0  0  0  0
   -5.9030   22.4290  -31.4450 N   0  0  0  0  0  0  0  0  0  0  0  0
   -2.2137   22.0848  -33.2288 H   0  0  0  0  0  0  0  0  0  0  0  0
   -1.8961   20.5192  -34.0502 H   0  0  0  0  0  0  0  0  0  0  0  0
   -3.5527   21.2136  -34.0502 H   0  0  0  0  0  0  0  0  0  0  0  0
   -2.9324   19.2691  -32.3638 H   0  0  0  0  0  0  0  0  0  0  0  0
   -2.1772   20.6089  -31.4213 H   0  0  0  0  0  0  0  0  0  0  0  0
   -5.7623   26.1416  -29.3581 H   0  0  0  0  0  0  0  0  0  0  0  0
   -4.9981   26.7446  -30.8677 H   0  0  0  0  0  0  0  0  0  0  0  0
   -6.7284   26.2620  -30.8677 H   0  0  0  0  0  0  0  0  0  0  0  0
   -8.8538   19.9414  -30.7654 H   0  0  0  0  0  0  0  0  0  0  0  0
   -9.0912   17.5821  -31.5354 H   0  0  0  0  0  0  0  0  0  0  0  0
   -7.5637   16.6754  -33.2842 H   0  0  0  0  0  0  0  0  0  0  0  0
   -5.5498   20.5047  -33.5047 H   0  0  0  0  0  0  0  0  0  0  0  0
  1  2  1  0
  2  3  1  0
  3  4  1  0
  4  5  2  0
  5  6  1  0
  6  7  2  0
  7  8  1  0
  7  9  1  0
  9 10  2  0
 10 11  1  0
 11 12  2  0
 12 13  1  0
 13 14  2  0
 14 15  1  0
 15 16  2  0
 16 17  1  0
 17 18  1  0
 18 19  1  0
 18 20  1  0
 18 21  1  0
 17 22  2  0
 12 23  1  0
 23  4  1  0
 23  9  1  0
 22 13  1  0
  1 24  1  0
  1 25  1  0
  1 26  1  0
  2 27  1  0
  2 28  1  0
  8 29  1  0
  8 30  1  0
  8 31  1  0
 14 32  1  0
 15 33  1  0
 16 34  1  0
 22 35  1  0
M  END
>  <UniqueID>  (40) 
34

>  <SMILES>  (40) 
CCOc1nnc(C)c2nnc(-c3cccc(C(F)(F)F)c3)n12

>  <Energy>  (40) 
82.2403177190828

>  <Genealogy>  (40) 
CCOc1nnc(C)c2nnc(-c3cccc(C(F)(F)F)c3)n12 (3D coordinates assigned)
CCOc1nnc(C)c2nnc(-c3cccc(C(F)(F)F)c3)n12 (optimized conformer: 82.2403177190828 kcal/mol)

>  <smiles>  (40) 
CCOc1nnc(C)c2nnc(-c3cccc(C(F)(F)F)c3)n12

>  <score_type>  (40) 
oracle

>  <origin>  (40) 
adg

>  <m_score__min__energy>  (40) 
-7.5899999999999999

>  <m_primary>  (40) 
energy

$$$$
40:0
     RDKit          3D

 41 44  0  0  0  0  0  0  0  0999 V2000
   -9.4750   18.1700  -31.6780 C   0  0  0  0  0  0  0  0  0  0  0  0
   -8.6200   19.3440  -31.9240 N   0  0  0  0  0  0  0  0  0  0  0  0
   -9.0660   20.5640  -31.4980 C   0  0  0  0  0  0  0  0  0  0  0  0
   -8.3100   21.7140  -31.6920 C   0  0  0  0  0  0  0  0  0  0  0  0
   -7.0780   21.6440  -32.3420 C   0  0  0  0  0  0  0  0  0  0  0  0
   -6.2840   22.8350  -32.4870 N   0  0  0  0  0  0  0  0  0  0  0  0
   -5.3900   23.3290  -31.4740 C   0  0  0  0  0  0  0  0  0  0  0  0
   -4.5890   22.4320  -30.7570 C   0  0  0  0  0  0  0  0  0  0  0  0
   -3.7050   22.9010  -29.7830 C   0  0  0  0  0  0  0  0  0  0  0  0
   -3.6140   24.2800  -29.5340 C   0  0  0  0  0  0  0  0  0  0  0  0
   -2.6850   24.8130  -28.5070 C   0  0  0  0  0  0  0  0  0  0  0  0
   -2.8720   24.5270  -27.1430 C   0  0  0  0  0  0  0  0  0  0  0  0
   -1.9780   25.0440  -26.2030 C   0  0  0  0  0  0  0  0  0  0  0  0
   -0.9090   25.8380  -26.6210 C   0  0  0  0  0  0  0  0  0  0  0  0
   -0.7500   26.1040  -27.9810 C   0  0  0  0  0  0  0  0  0  0  0  0
   -1.6300   25.5920  -28.8820 N   0  0  0  0  0  0  0  0  0  0  0  0
   -4.3900   25.1350  -30.2590 N   0  0  0  0  0  0  0  0  0  0  0  0
   -5.2590   24.7010  -31.2090 C   0  0  0  0  0  0  0  0  0  0  0  0
   -6.6050   20.3910  -32.7850 C   0  0  0  0  0  0  0  0  0  0  0  0
   -5.3750   20.2740  -33.4630 C   0  0  0  0  0  0  0  0  0  0  0  0
   -4.9220   19.0300  -33.8980 C   0  0  0  0  0  0  0  0  0  0  0  0
   -5.6860   17.8890  -33.6730 C   0  0  0  0  0  0  0  0  0  0  0  0
   -6.9140   17.9810  -33.0160 C   0  0  0  0  0  0  0  0  0  0  0  0
   -7.4010   19.2310  -32.5640 C   0  0  0  0  0  0  0  0  0  0  0  0
   -9.5859   18.0178  -30.5942 H   0  0  0  0  0  0  0  0  0  0  0  0
  -10.4648   18.3365  -32.1280 H   0  0  0  0  0  0  0  0  0  0  0  0
   -9.0128   17.2790  -32.1280 H   0  0  0  0  0  0  0  0  0  0  0  0
  -10.0404   20.6368  -30.9928 H   0  0  0  0  0  0  0  0  0  0  0  0
   -8.6848   22.6833  -31.3314 H   0  0  0  0  0  0  0  0  0  0  0  0
   -6.3170   23.3360  -33.4040 H   0  0  0  0  0  0  0  0  0  0  0  0
   -4.6563   21.3533  -30.9618 H   0  0  0  0  0  0  0  0  0  0  0  0
   -3.0834   22.1941  -29.2139 H   0  0  0  0  0  0  0  0  0  0  0  0
   -3.7162   23.9007  -26.8188 H   0  0  0  0  0  0  0  0  0  0  0  0
   -2.1162   24.8256  -25.1338 H   0  0  0  0  0  0  0  0  0  0  0  0
   -0.2004   26.2490  -25.8868 H   0  0  0  0  0  0  0  0  0  0  0  0
    0.0879   26.7284  -28.3247 H   0  0  0  0  0  0  0  0  0  0  0  0
   -5.8623   25.4279  -31.7727 H   0  0  0  0  0  0  0  0  0  0  0  0
   -4.7677   21.1718  -33.6503 H   0  0  0  0  0  0  0  0  0  0  0  0
   -3.9575   18.9498  -34.4208 H   0  0  0  0  0  0  0  0  0  0  0  0
   -5.3203   16.9095  -34.0147 H   0  0  0  0  0  0  0  0  0  0  0  0
   -7.5101   17.0720  -32.8475 H   0  0  0  0  0  0  0  0  0  0  0  0
  1  2  1  0
  2  3  2  0
  3  4  1  0
  4  5  2  0
  5  6  1  0
  6  7  1  0
  7  8  2  0
  8  9  1  0
  9 10  2  0
 10 11  1  0
 11 12  2  0
 12 13  1  0
 13 14  2  0
 14 15  1  0
 15 16  2  0
 10 17  1  0
 17 18  2  0
  5 19  1  0
 19 20  2  0
 20 21  1  0
 21 22  2  0
 22 23  1  0
 23 24  2  0
 24  2  1  0
 18  7  1  0
 24 19  1  0
 16 11  1  0
  1 25  1  0
  1 26  1  0
  1 27  1  0
  3 28  1  0
  4 29  1  0
  6 30  1  0
  8 31  1  0
  9 32  1  0
 12 33  1  0
 13 34  1  0
 14 35  1  0
 15 36  1  0
 18 37  1  0
 20 38  1  0
 21 39  1  0
 22 40  1  0
 23 41  1  0
M  CHG  1   2   1
M  END
>  <UniqueID>  (41) 
35

>  <SMILES>  (41) 
C[n+]1ccc(Nc2ccc(-c3ccccn3)nc2)c2ccccc21

>  <Energy>  (41) 
63.31308712924259

>  <Genealogy>  (41) 
C[n+]1ccc(Nc2ccc(-c3ccccn3)nc2)c2ccccc21 (3D coordinates assigned)
C[n+]1ccc(Nc2ccc(-c3ccccn3)nc2)c2ccccc21 (optimized conformer: 63.31308712924259 kcal/mol)

>  <smiles>  (41) 
C[n+]1ccc(Nc2ccc(-c3ccccn3)nc2)c2ccccc21

>  <score_type>  (41) 
oracle

>  <origin>  (41) 
adg

>  <m_score__min__energy>  (41) 
-8.7699999999999996

>  <m_primary>  (41) 
energy

$$$$
41:0
     RDKit          3D

 61 64  0  0  0  0  0  0  0  0999 V2000
   -4.2790   25.2360  -30.0570 C   0  0  0  0  0  0  0  0  0  0  0  0
   -3.6220   23.8930  -30.2320 C   0  0  0  0  0  0  0  0  0  0  0  0
   -2.3140   23.5930  -29.8060 C   0  0  0  0  0  0  0  0  0  0  0  0
   -1.4070   24.4580  -29.0250 C   0  0  0  0  0  0  0  0  0  0  0  0
   -1.2670   25.6660  -29.3570 O   0  0  0  0  0  0  0  0  0  0  0  0
   -0.7460   23.9630  -27.8460 N   0  0  0  0  0  0  0  0  0  0  0  0
   -0.1400   22.6250  -27.8260 C   0  0  0  0  0  0  0  0  0  0  0  0
   -0.3960   21.9220  -26.4760 C   0  0  0  0  0  0  0  0  0  0  0  0
   -0.7340   22.8650  -25.3850 N   0  0  0  0  0  0  0  0  0  0  0  0
   -0.4980   22.2420  -24.0750 C   0  0  0  0  0  0  0  0  0  0  0  0
    0.0210   24.1240  -25.5040 C   0  0  0  0  0  0  0  0  0  0  0  0
   -0.4710   24.8860  -26.7370 C   0  0  0  0  0  0  0  0  0  0  0  0
   -1.9280   22.0050  -30.2450 S   0  0  0  0  0  0  0  0  0  0  0  0
   -3.4090   21.6940  -30.9610 C   0  0  0  0  0  0  0  0  0  0  0  0
   -3.7890   20.5430  -31.5510 N   0  0  0  0  0  0  0  0  0  0  0  0
   -5.0400   20.4400  -32.0860 C   0  0  0  0  0  0  0  0  0  0  0  0
   -5.4060   19.1620  -32.7350 C   0  0  0  0  0  0  0  0  0  0  0  0
   -5.4100   19.0670  -34.1350 C   0  0  0  0  0  0  0  0  0  0  0  0
   -5.7260   17.8540  -34.7550 C   0  0  0  0  0  0  0  0  0  0  0  0
   -6.0270   16.7300  -33.9810 C   0  0  0  0  0  0  0  0  0  0  0  0
   -6.0000   16.8130  -32.5860 C   0  0  0  0  0  0  0  0  0  0  0  0
   -5.6810   18.0240  -31.9630 C   0  0  0  0  0  0  0  0  0  0  0  0
   -5.9160   21.5130  -32.0290 N   0  0  0  0  0  0  0  0  0  0  0  0
   -7.2370   21.4520  -32.6960 C   0  0  0  0  0  0  0  0  0  0  0  0
   -8.2900   20.8000  -31.7930 C   0  0  0  0  0  0  0  0  0  0  0  0
   -8.5940   19.4290  -32.2680 N   0  0  0  0  0  0  0  0  0  0  0  0
   -9.8120   19.4050  -33.0930 C   0  0  0  0  0  0  0  0  0  0  0  0
   -8.7360   18.4910  -31.1410 C   0  0  0  0  0  0  0  0  0  0  0  0
   -5.5220   22.6890  -31.4190 C   0  0  0  0  0  0  0  0  0  0  0  0
   -6.3120   23.6700  -31.3530 O   0  0  0  0  0  0  0  0  0  0  0  0
   -4.2340   22.7900  -30.8750 C   0  0  0  0  0  0  0  0  0  0  0  0
   -4.3861   25.4548  -28.9843 H   0  0  0  0  0  0  0  0  0  0  0  0
   -3.6587   26.0120  -30.5294 H   0  0  0  0  0  0  0  0  0  0  0  0
   -5.2723   25.2226  -30.5294 H   0  0  0  0  0  0  0  0  0  0  0  0
   -0.5762   22.0204  -28.6348 H   0  0  0  0  0  0  0  0  0  0  0  0
    0.9460   22.7300  -27.9661 H   0  0  0  0  0  0  0  0  0  0  0  0
   -1.2314   21.2173  -26.6011 H   0  0  0  0  0  0  0  0  0  0  0  0
    0.5351   21.4104  -26.1908 H   0  0  0  0  0  0  0  0  0  0  0  0
   -0.7666   22.9510  -23.2781 H   0  0  0  0  0  0  0  0  0  0  0  0
   -1.1153   21.3362  -23.9832 H   0  0  0  0  0  0  0  0  0  0  0  0
    0.5645   21.9725  -23.9832 H   0  0  0  0  0  0  0  0  0  0  0  0
   -0.1388   24.7362  -24.6042 H   0  0  0  0  0  0  0  0  0  0  0  0
    1.0942   23.9053  -25.6062 H   0  0  0  0  0  0  0  0  0  0  0  0
   -1.3937   25.4277  -26.4816 H   0  0  0  0  0  0  0  0  0  0  0  0
    0.3127   25.5909  -27.0514 H   0  0  0  0  0  0  0  0  0  0  0  0
   -3.1230   19.7370  -31.5910 H   0  0  0  0  0  0  0  0  0  0  0  0
   -5.1642   19.9482  -34.7458 H   0  0  0  0  0  0  0  0  0  0  0  0
   -5.7377   17.7845  -35.8527 H   0  0  0  0  0  0  0  0  0  0  0  0
   -6.2854   15.7792  -34.4700 H   0  0  0  0  0  0  0  0  0  0  0  0
   -6.2297   15.9256  -31.9779 H   0  0  0  0  0  0  0  0  0  0  0  0
   -5.6458   18.0839  -30.8652 H   0  0  0  0  0  0  0  0  0  0  0  0
   -7.5607   22.4739  -32.9431 H   0  0  0  0  0  0  0  0  0  0  0  0
   -7.1371   20.8432  -33.6067 H   0  0  0  0  0  0  0  0  0  0  0  0
   -7.9056   20.7509  -30.7635 H   0  0  0  0  0  0  0  0  0  0  0  0
   -9.2101   21.4021  -31.8222 H   0  0  0  0  0  0  0  0  0  0  0  0
  -10.6970   19.3876  -32.4399 H   0  0  0  0  0  0  0  0  0  0  0  0
   -9.8425   20.3027  -33.7280 H   0  0  0  0  0  0  0  0  0  0  0  0
   -9.8071   18.5068  -33.7280 H   0  0  0  0  0  0  0  0  0  0  0  0
   -8.6526   19.0420  -30.1926 H   0  0  0  0  0  0  0  0  0  0  0  0
   -9.7188   17.9997  -31.1944 H   0  0  0  0  0  0  0  0  0  0  0  0
   -7.9427   17.7309  -31.1944 H   0  0  0  0  0  0  0  0  0  0  0  0
  1  2  1  0
  2  3  2  0
  3  4  1  0
  4  5  2  0
  4  6  1  0
  6  7  1  0
  7  8  1  0
  8  9  1  0
  9 10  1  0
  9 11  1  0
 11 12  1  0
  3 13  1  0
 13 14  1  0
 14 15  1  0
 15 16  2  0
 16 17  1  0
 17 18  2  0
 18 19  1  0
 19 20  2  0
 20 21  1  0
 21 22  2  0
 16 23  1  0
 23 24  1  0
 24 25  1  0
 25 26  1  0
 26 27  1  0
 26 28  1  0
 23 29  1  0
 29 30  2  0
 29 31  1  0
 31  2  1  0
 12  6  1  0
 31 14  2  0
 22 17  1  0
  1 32  1  0
  1 33  1  0
  1 34  1  0
  7 35  1  0
  7 36  1  0
  8 37  1  0
  8 38  1  0
 10 39  1  0
 10 40  1  0
 10 41  1  0
 11 42  1  0
 11 43  1  0
 12 44  1  0
 12 45  1  0
 15 46  1  0
 18 47  1  0
 19 48  1  0
 20 49  1  0
 21 50  1  0
 22 51  1  0
 24 52  1  0
 24 53  1  0
 25 54  1  0
 25 55  1  0
 27 56  1  0
 27 57  1  0
 27 58  1  0
 28 59  1  0
 28 60  1  0
 28 61  1  0
M  CHG  1  15   1
M  END
>  <UniqueID>  (42) 
36

>  <SMILES>  (42) 
Cc1c(C(=O)N2CCN(C)CC2)sc2[nH+]c(-c3ccccc3)n(CCN(C)C)c(=O)c12

>  <Energy>  (42) 
117.34755420212849

>  <Genealogy>  (42) 
Cc1c(C(=O)N2CCN(C)CC2)sc2[nH+]c(-c3ccccc3)n(CCN(C)C)c(=O)c12 (protonated)
Cc1c(C(=O)N2CCN(C)CC2)sc2[nH+]c(-c3ccccc3)n(CCN(C)C)c(=O)c12 (3D coordinates assigned)
Cc1c(C(=O)N2CCN(C)CC2)sc2[nH+]c(-c3ccccc3)n(CCN(C)C)c(=O)c12 (nonaromatic ring conformer: 117.34755420212849 kcal/mol)

>  <smiles>  (42) 
Cc1c(C(=O)N2CCN(C)CC2)sc2nc(-c3ccccc3)n(CCN(C)C)c(=O)c12

>  <score_type>  (42) 
oracle

>  <origin>  (42) 
adg

>  <m_score__min__energy>  (42) 
-8.4199999999999999

>  <m_primary>  (42) 
energy

$$$$
42:0
     RDKit          3D

 38 40  0  0  0  0  0  0  0  0999 V2000
   -6.1160   19.2180  -33.5710 C   0  0  0  0  0  0  0  0  0  0  0  0
   -7.0170   20.1850  -32.8530 C   0  0  0  0  0  0  0  0  0  0  0  0
   -8.3770   19.8810  -32.6820 C   0  0  0  0  0  0  0  0  0  0  0  0
   -9.2230   20.7710  -32.0170 C   0  0  0  0  0  0  0  0  0  0  0  0
   -8.7260   21.9740  -31.5130 C   0  0  0  0  0  0  0  0  0  0  0  0
   -7.3680   22.3010  -31.6710 C   0  0  0  0  0  0  0  0  0  0  0  0
   -6.8330   23.5040  -31.1700 C   0  0  0  0  0  0  0  0  0  0  0  0
   -7.5730   24.3260  -30.5600 O   0  0  0  0  0  0  0  0  0  0  0  0
   -5.4650   23.7840  -31.3370 C   0  0  0  0  0  0  0  0  0  0  0  0
   -4.8760   25.0400  -30.8240 C   0  0  0  0  0  0  0  0  0  0  0  0
   -5.6100   26.0540  -30.6960 O   0  0  0  0  0  0  0  0  0  0  0  0
   -3.4930   25.1350  -30.4540 N   0  0  0  0  0  0  0  0  0  0  0  0
   -2.7370   24.1190  -29.7280 C   0  0  0  0  0  0  0  0  0  0  0  0
   -3.1240   24.1100  -28.2470 C   0  0  0  0  0  0  0  0  0  0  0  0
   -2.2660   25.0660  -27.4730 C   0  0  0  0  0  0  0  0  0  0  0  0
   -2.5080   25.3100  -26.1130 C   0  0  0  0  0  0  0  0  0  0  0  0
   -1.7110   26.2320  -25.4310 C   0  0  0  0  0  0  0  0  0  0  0  0
   -0.6910   26.9050  -26.1070 C   0  0  0  0  0  0  0  0  0  0  0  0
   -0.4860   26.6450  -27.4640 C   0  0  0  0  0  0  0  0  0  0  0  0
   -1.2710   25.7440  -28.1120 N   0  0  0  0  0  0  0  0  0  0  0  0
   -4.6640   22.8670  -32.0290 C   0  0  0  0  0  0  0  0  0  0  0  0
   -5.1960   21.7130  -32.5060 N   0  0  0  0  0  0  0  0  0  0  0  0
   -6.5110   21.3990  -32.3460 C   0  0  0  0  0  0  0  0  0  0  0  0
   -5.5589   18.6201  -32.8347 H   0  0  0  0  0  0  0  0  0  0  0  0
   -6.7222   18.5511  -34.2017 H   0  0  0  0  0  0  0  0  0  0  0  0
   -5.4080   19.7756  -34.2017 H   0  0  0  0  0  0  0  0  0  0  0  0
   -8.7789   18.9353  -33.0746 H   0  0  0  0  0  0  0  0  0  0  0  0
  -10.2870   20.5226  -31.8896 H   0  0  0  0  0  0  0  0  0  0  0  0
   -9.3996   22.6689  -30.9901 H   0  0  0  0  0  0  0  0  0  0  0  0
   -2.9502   23.1313  -30.1627 H   0  0  0  0  0  0  0  0  0  0  0  0
   -1.6648   24.3500  -29.8114 H   0  0  0  0  0  0  0  0  0  0  0  0
   -4.1783   24.4074  -28.1467 H   0  0  0  0  0  0  0  0  0  0  0  0
   -2.9758   23.0960  -27.8472 H   0  0  0  0  0  0  0  0  0  0  0  0
   -3.3173   24.7805  -25.5890 H   0  0  0  0  0  0  0  0  0  0  0  0
   -1.8864   26.4278  -24.3629 H   0  0  0  0  0  0  0  0  0  0  0  0
   -0.0567   27.6310  -25.5773 H   0  0  0  0  0  0  0  0  0  0  0  0
    0.3120   27.1702  -28.0092 H   0  0  0  0  0  0  0  0  0  0  0  0
   -3.5971   23.0833  -32.1869 H   0  0  0  0  0  0  0  0  0  0  0  0
  1  2  1  0
  2  3  2  0
  3  4  1  0
  4  5  2  0
  5  6  1  0
  6  7  1  0
  7  8  2  0
  7  9  1  0
  9 10  1  0
 10 11  2  0
 10 12  1  0
 12 13  1  0
 13 14  1  0
 14 15  1  0
 15 16  2  0
 16 17  1  0
 17 18  2  0
 18 19  1  0
 19 20  2  0
  9 21  2  0
 21 22  1  0
 22 23  1  0
 23  2  1  0
 23  6  2  0
 20 15  1  0
  1 24  1  0
  1 25  1  0
  1 26  1  0
  3 27  1  0
  4 28  1  0
  5 29  1  0
 13 30  1  0
 13 31  1  0
 14 32  1  0
 14 33  1  0
 16 34  1  0
 17 35  1  0
 18 36  1  0
 19 37  1  0
 21 38  1  0
M  CHG  2  12  -1  22  -1
M  END
>  <UniqueID>  (43) 
37

>  <SMILES>  (43) 
Cc1cccc2c(=O)c(C(=O)[N-]CCc3ccccn3)c[n-]c12

>  <Energy>  (43) 
47.933539798187915

>  <Genealogy>  (43) 
Cc1cccc2c(=O)c(C(=O)[N-]CCc3ccccn3)c[n-]c12 (protonated)
Cc1cccc2c(=O)c(C(=O)[N-]CCc3ccccn3)c[n-]c12 (3D coordinates assigned)
Cc1cccc2c(=O)c(C(=O)[N-]CCc3ccccn3)c[n-]c12 (optimized conformer: 47.933539798187915 kcal/mol)

>  <smiles>  (43) 
Cc1cccc2c(=O)c(C(=O)NCCc3ccccn3)c[nH]c12

>  <score_type>  (43) 
oracle

>  <origin>  (43) 
adg

>  <m_score__min__energy>  (43) 
-10.369999999999999

>  <m_primary>  (43) 
energy

$$$$
43:0
     RDKit          3D

 46 49  0  0  0  0  0  0  0  0999 V2000
   -6.4950   26.0000  -29.2810 C   0  0  0  0  0  0  0  0  0  0  0  0
   -5.7260   25.6770  -30.5570 C   0  0  0  0  0  0  0  0  0  0  0  0
   -5.4950   24.2330  -30.6700 N   0  0  0  0  0  0  0  0  0  0  0  0
   -6.1320   23.4250  -31.5410 C   0  0  0  0  0  0  0  0  0  0  0  0
   -5.6100   22.1510  -31.4620 C   0  0  0  0  0  0  0  0  0  0  0  0
   -6.0290   20.9920  -32.2560 C   0  0  0  0  0  0  0  0  0  0  0  0
   -7.2180   20.8940  -32.8830 N   0  0  0  0  0  0  0  0  0  0  0  0
   -7.2050   19.7130  -33.4790 N   0  0  0  0  0  0  0  0  0  0  0  0
   -6.0210   19.1290  -33.2020 C   0  0  0  0  0  0  0  0  0  0  0  0
   -5.5810   17.7940  -33.6690 C   0  0  0  0  0  0  0  0  0  0  0  0
   -4.3970   17.6260  -34.4080 C   0  0  0  0  0  0  0  0  0  0  0  0
   -4.0050   16.3540  -34.8350 C   0  0  0  0  0  0  0  0  0  0  0  0
   -4.7810   15.2290  -34.5350 C   0  0  0  0  0  0  0  0  0  0  0  0
   -4.3430   13.9760  -34.9880 O   0  0  0  0  0  0  0  0  0  0  0  0
   -3.7730   12.9740  -34.1520 C   0  0  0  0  0  0  0  0  0  0  0  0
   -5.9660   15.3940  -33.7950 C   0  0  0  0  0  0  0  0  0  0  0  0
   -6.3600   16.6650  -33.3660 C   0  0  0  0  0  0  0  0  0  0  0  0
   -5.2940   19.9200  -32.4460 O   0  0  0  0  0  0  0  0  0  0  0  0
   -4.6090   22.1770  -30.5120 C   0  0  0  0  0  0  0  0  0  0  0  0
   -4.5660   23.4750  -30.0340 C   0  0  0  0  0  0  0  0  0  0  0  0
   -3.6110   23.9510  -29.0090 C   0  0  0  0  0  0  0  0  0  0  0  0
   -4.0270   24.1790  -27.6870 C   0  0  0  0  0  0  0  0  0  0  0  0
   -3.1100   24.6080  -26.7230 C   0  0  0  0  0  0  0  0  0  0  0  0
   -1.7700   24.8000  -27.0670 C   0  0  0  0  0  0  0  0  0  0  0  0
   -1.3440   24.5580  -28.3760 C   0  0  0  0  0  0  0  0  0  0  0  0
   -2.2580   24.1290  -29.3430 C   0  0  0  0  0  0  0  0  0  0  0  0
   -5.8796   25.7415  -28.4067 H   0  0  0  0  0  0  0  0  0  0  0  0
   -6.7323   27.0738  -29.2578 H   0  0  0  0  0  0  0  0  0  0  0  0
   -7.4280   25.4177  -29.2578 H   0  0  0  0  0  0  0  0  0  0  0  0
   -6.3076   26.0190  -31.4258 H   0  0  0  0  0  0  0  0  0  0  0  0
   -4.7534   26.1898  -30.5239 H   0  0  0  0  0  0  0  0  0  0  0  0
   -6.9455   23.7351  -32.2134 H   0  0  0  0  0  0  0  0  0  0  0  0
   -7.9930   19.3390  -34.0520 H   0  0  0  0  0  0  0  0  0  0  0  0
   -3.7756   18.5003  -34.6516 H   0  0  0  0  0  0  0  0  0  0  0  0
   -3.0766   16.2362  -35.4130 H   0  0  0  0  0  0  0  0  0  0  0  0
   -3.9273   13.2452  -33.0972 H   0  0  0  0  0  0  0  0  0  0  0  0
   -4.2564   12.0073  -34.3565 H   0  0  0  0  0  0  0  0  0  0  0  0
   -2.6950   12.8955  -34.3565 H   0  0  0  0  0  0  0  0  0  0  0  0
   -6.5860   14.5183  -33.5526 H   0  0  0  0  0  0  0  0  0  0  0  0
   -7.2876   16.7819  -32.7865 H   0  0  0  0  0  0  0  0  0  0  0  0
   -3.9736   21.3357  -30.1982 H   0  0  0  0  0  0  0  0  0  0  0  0
   -5.0792   24.0193  -27.4089 H   0  0  0  0  0  0  0  0  0  0  0  0
   -3.4443   24.7947  -25.6918 H   0  0  0  0  0  0  0  0  0  0  0  0
   -1.0505   25.1414  -26.3083 H   0  0  0  0  0  0  0  0  0  0  0  0
   -0.2878   24.7053  -28.6458 H   0  0  0  0  0  0  0  0  0  0  0  0
   -1.9164   23.9300  -30.3695 H   0  0  0  0  0  0  0  0  0  0  0  0
  1  2  1  0
  2  3  1  0
  3  4  1  0
  4  5  2  0
  5  6  1  0
  6  7  2  0
  7  8  1  0
  8  9  2  0
  9 10  1  0
 10 11  2  0
 11 12  1  0
 12 13  2  0
 13 14  1  0
 14 15  1  0
 13 16  1  0
 16 17  2  0
  9 18  1  0
  5 19  1  0
 19 20  2  0
 20 21  1  0
 21 22  2  0
 22 23  1  0
 23 24  2  0
 24 25  1  0
 25 26  2  0
 20  3  1  0
 26 21  1  0
 18  6  1  0
 17 10  1  0
  1 27  1  0
  1 28  1  0
  1 29  1  0
  2 30  1  0
  2 31  1  0
  4 32  1  0
  8 33  1  0
 11 34  1  0
 12 35  1  0
 15 36  1  0
 15 37  1  0
 15 38  1  0
 16 39  1  0
 17 40  1  0
 19 41  1  0
 22 42  1  0
 23 43  1  0
 24 44  1  0
 25 45  1  0
 26 46  1  0
M  CHG  1   8   1
M  END
>  <UniqueID>  (44) 
38

>  <SMILES>  (44) 
CCn1cc(-c2n[nH+]c(-c3ccc(OC)cc3)o2)cc1-c1ccccc1

>  <Energy>  (44) 
113.72584150272222

>  <Genealogy>  (44) 
CCn1cc(-c2n[nH+]c(-c3ccc(OC)cc3)o2)cc1-c1ccccc1 (protonated)
CCn1cc(-c2n[nH+]c(-c3ccc(OC)cc3)o2)cc1-c1ccccc1 (3D coordinates assigned)
CCn1cc(-c2n[nH+]c(-c3ccc(OC)cc3)o2)cc1-c1ccccc1 (optimized conformer: 113.72584150272222 kcal/mol)

>  <smiles>  (44) 
CCn1cc(-c2nnc(-c3ccc(OC)cc3)o2)cc1-c1ccccc1

>  <score_type>  (44) 
oracle

>  <origin>  (44) 
adg

>  <m_score__min__energy>  (44) 
-8.0099999999999998

>  <m_primary>  (44) 
energy

$$$$
44:0
     RDKit          3D

 42 42  0  0  0  0  0  0  0  0999 V2000
   -2.3420   22.1290  -31.9440 C   0  0  0  0  0  0  0  0  0  0  0  0
   -3.6780   22.6150  -31.4860 C   0  0  0  0  0  0  0  0  0  0  0  0
   -3.8600   23.7980  -30.8620 N   0  0  0  0  0  0  0  0  0  0  0  0
   -5.1590   23.9550  -30.6680 N   0  0  0  0  0  0  0  0  0  0  0  0
   -5.7460   25.1480  -30.0680 C   0  0  0  0  0  0  0  0  0  0  0  0
   -5.8210   22.8990  -31.1790 C   0  0  0  0  0  0  0  0  0  0  0  0
   -7.2500   22.7920  -31.2510 N   0  0  0  0  0  0  0  0  0  0  0  0
   -7.9820   22.2300  -30.1190 C   0  0  0  0  0  0  0  0  0  0  0  0
   -7.9750   23.4460  -32.3390 C   0  0  0  0  0  0  0  0  0  0  0  0
   -4.9080   22.0100  -31.7190 C   0  0  0  0  0  0  0  0  0  0  0  0
   -5.1930   20.7580  -32.5090 C   0  0  0  0  0  0  0  0  0  0  0  0
   -5.4290   19.5890  -31.6450 N   0  0  0  0  0  0  0  0  0  0  0  0
   -5.6740   18.3430  -32.3930 C   0  0  0  0  0  0  0  0  0  0  0  0
   -7.1700   18.1150  -32.6740 C   0  0  0  0  0  0  0  0  0  0  0  0
   -7.9880   19.1530  -32.0100 N   0  0  0  0  0  0  0  0  0  0  0  0
   -8.5370   20.1040  -32.9920 C   0  0  0  0  0  0  0  0  0  0  0  0
   -9.0910   18.5320  -31.2600 C   0  0  0  0  0  0  0  0  0  0  0  0
   -1.7152   21.9010  -31.0693 H   0  0  0  0  0  0  0  0  0  0  0  0
   -2.4705   21.2200  -32.5500 H   0  0  0  0  0  0  0  0  0  0  0  0
   -1.8564   22.9081  -32.5500 H   0  0  0  0  0  0  0  0  0  0  0  0
   -5.7052   25.0651  -28.9719 H   0  0  0  0  0  0  0  0  0  0  0  0
   -5.1818   26.0358  -30.3898 H   0  0  0  0  0  0  0  0  0  0  0  0
   -6.7936   25.2427  -30.3898 H   0  0  0  0  0  0  0  0  0  0  0  0
   -7.5282   22.5784  -29.1795 H   0  0  0  0  0  0  0  0  0  0  0  0
   -9.0315   22.5565  -30.1625 H   0  0  0  0  0  0  0  0  0  0  0  0
   -7.9376   21.1318  -30.1625 H   0  0  0  0  0  0  0  0  0  0  0  0
   -8.7300   24.1270  -31.9192 H   0  0  0  0  0  0  0  0  0  0  0  0
   -7.2687   24.0184  -32.9582 H   0  0  0  0  0  0  0  0  0  0  0  0
   -8.4719   22.6846  -32.9582 H   0  0  0  0  0  0  0  0  0  0  0  0
   -6.0872   20.9265  -33.1270 H   0  0  0  0  0  0  0  0  0  0  0  0
   -4.3090   20.5440  -33.1277 H   0  0  0  0  0  0  0  0  0  0  0  0
   -6.1930   19.7850  -30.9570 H   0  0  0  0  0  0  0  0  0  0  0  0
   -5.1378   18.3949  -33.3521 H   0  0  0  0  0  0  0  0  0  0  0  0
   -5.3157   17.5049  -31.7773 H   0  0  0  0  0  0  0  0  0  0  0  0
   -7.3445   18.1565  -33.7593 H   0  0  0  0  0  0  0  0  0  0  0  0
   -7.4589   17.1295  -32.2798 H   0  0  0  0  0  0  0  0  0  0  0  0
   -9.0193   20.9394  -32.4634 H   0  0  0  0  0  0  0  0  0  0  0  0
   -7.7230   20.4904  -33.6230 H   0  0  0  0  0  0  0  0  0  0  0  0
   -9.2787   19.5923  -33.6230 H   0  0  0  0  0  0  0  0  0  0  0  0
   -8.9052   18.6366  -30.1809 H   0  0  0  0  0  0  0  0  0  0  0  0
  -10.0368   19.0302  -31.5192 H   0  0  0  0  0  0  0  0  0  0  0  0
   -9.1556   17.4649  -31.5192 H   0  0  0  0  0  0  0  0  0  0  0  0
  1  2  1  0
  2  3  2  0
  3  4  1  0
  4  5  1  0
  4  6  1  0
  6  7  1  0
  7  8  1  0
  7  9  1  0
  6 10  2  0
 10 11  1  0
 11 12  1  0
 12 13  1  0
 13 14  1  0
 14 15  1  0
 15 16  1  0
 15 17  1  0
 10  2  1  0
  1 18  1  0
  1 19  1  0
  1 20  1  0
  5 21  1  0
  5 22  1  0
  5 23  1  0
  8 24  1  0
  8 25  1  0
  8 26  1  0
  9 27  1  0
  9 28  1  0
  9 29  1  0
 11 30  1  0
 11 31  1  0
 12 32  1  0
 13 33  1  0
 13 34  1  0
 14 35  1  0
 14 36  1  0
 16 37  1  0
 16 38  1  0
 16 39  1  0
 17 40  1  0
 17 41  1  0
 17 42  1  0
M  END
>  <UniqueID>  (45) 
39

>  <SMILES>  (45) 
Cc1nn(C)c(N(C)C)c1CNCCN(C)C

>  <Energy>  (45) 
69.93523854908035

>  <Genealogy>  (45) 
Cc1nn(C)c(N(C)C)c1CNCCN(C)C (3D coordinates assigned)
Cc1nn(C)c(N(C)C)c1CNCCN(C)C (optimized conformer: 69.93523854908035 kcal/mol)

>  <smiles>  (45) 
Cc1nn(C)c(N(C)C)c1CNCCN(C)C

>  <score_type>  (45) 
oracle

>  <origin>  (45) 
adg

>  <m_score__min__energy>  (45) 
-5.54

>  <m_primary>  (45) 
energy

$$$$
45:0
     RDKit          3D

 47 49  0  0  0  0  0  0  0  0999 V2000
   -0.8020   26.8300  -27.8240 C   0  0  0  0  0  0  0  0  0  0  0  0
   -0.9510   25.6420  -28.5710 O   0  0  0  0  0  0  0  0  0  0  0  0
   -0.7120   24.5090  -27.7550 C   0  0  0  0  0  0  0  0  0  0  0  0
   -1.0390   23.2110  -28.4990 C   0  0  0  0  0  0  0  0  0  0  0  0
   -2.4340   23.2390  -29.0490 C   0  0  0  0  0  0  0  0  0  0  0  0
   -3.2680   22.3700  -28.6720 O   0  0  0  0  0  0  0  0  0  0  0  0
   -2.8270   24.2790  -29.9550 N   0  0  0  0  0  0  0  0  0  0  0  0
   -4.1890   24.3880  -30.4800 C   0  0  2  0  0  0  0  0  0  0  0  0
   -5.1630   24.8000  -29.3520 C   0  0  0  0  0  0  0  0  0  0  0  0
   -6.6360   24.6040  -29.7690 C   0  0  0  0  0  0  0  0  0  0  0  0
   -6.9470   23.1270  -30.0770 C   0  0  0  0  0  0  0  0  0  0  0  0
   -5.8750   22.5400  -30.9530 C   0  0  0  0  0  0  0  0  0  0  0  0
   -4.6210   23.0820  -31.0840 C   0  0  0  0  0  0  0  0  0  0  0  0
   -3.9930   22.3120  -32.0450 C   0  0  0  0  0  0  0  0  0  0  0  0
   -4.8360   21.3340  -32.4410 N   0  0  0  0  0  0  0  0  0  0  0  0
   -5.9680   21.4650  -31.7630 N   0  0  0  0  0  0  0  0  0  0  0  0
   -7.1160   20.6330  -31.9730 C   0  0  0  0  0  0  0  0  0  0  0  0
   -8.3740   21.2280  -32.1440 C   0  0  0  0  0  0  0  0  0  0  0  0
   -9.5080   20.4380  -32.3390 C   0  0  0  0  0  0  0  0  0  0  0  0
   -9.3940   19.0480  -32.3760 C   0  0  0  0  0  0  0  0  0  0  0  0
   -8.1420   18.4430  -32.2300 C   0  0  0  0  0  0  0  0  0  0  0  0
   -6.9890   19.2310  -32.0390 C   0  0  0  0  0  0  0  0  0  0  0  0
   -5.7110   18.6600  -31.9390 O   0  0  0  0  0  0  0  0  0  0  0  0
   -5.0080   18.0550  -33.0180 C   0  0  0  0  0  0  0  0  0  0  0  0
   -0.8316   26.5940  -26.7500 H   0  0  0  0  0  0  0  0  0  0  0  0
    0.1620   27.2992  -28.0699 H   0  0  0  0  0  0  0  0  0  0  0  0
   -1.6203   27.5228  -28.0699 H   0  0  0  0  0  0  0  0  0  0  0  0
    0.3477   24.4963  -27.4603 H   0  0  0  0  0  0  0  0  0  0  0  0
   -1.3605   24.5752  -26.8690 H   0  0  0  0  0  0  0  0  0  0  0  0
   -0.3284   23.0842  -29.3290 H   0  0  0  0  0  0  0  0  0  0  0  0
   -0.9603   22.3734  -27.7903 H   0  0  0  0  0  0  0  0  0  0  0  0
   -2.0980   24.9510  -30.2870 H   0  0  0  0  0  0  0  0  0  0  0  0
   -4.2039   25.1607  -31.2628 H   0  0  0  0  0  0  0  0  0  0  0  0
   -4.9594   24.1849  -28.4631 H   0  0  0  0  0  0  0  0  0  0  0  0
   -5.0068   25.8675  -29.1373 H   0  0  0  0  0  0  0  0  0  0  0  0
   -7.2870   24.9424  -28.9494 H   0  0  0  0  0  0  0  0  0  0  0  0
   -6.8159   25.1908  -30.6818 H   0  0  0  0  0  0  0  0  0  0  0  0
   -6.9952   22.5620  -29.1344 H   0  0  0  0  0  0  0  0  0  0  0  0
   -7.9116   23.0663  -30.6023 H   0  0  0  0  0  0  0  0  0  0  0  0
   -2.9730   22.4701  -32.4252 H   0  0  0  0  0  0  0  0  0  0  0  0
   -8.4678   22.3238  -32.1244 H   0  0  0  0  0  0  0  0  0  0  0  0
  -10.4928   20.9119  -32.4637 H   0  0  0  0  0  0  0  0  0  0  0  0
  -10.2905   18.4271  -32.5203 H   0  0  0  0  0  0  0  0  0  0  0  0
   -8.0564   17.3469  -32.2643 H   0  0  0  0  0  0  0  0  0  0  0  0
   -4.2307   17.3861  -32.6200 H   0  0  0  0  0  0  0  0  0  0  0  0
   -5.7108   17.4748  -33.6341 H   0  0  0  0  0  0  0  0  0  0  0  0
   -4.5390   18.8364  -33.6341 H   0  0  0  0  0  0  0  0  0  0  0  0
  1  2  1  0
  2  3  1  0
  3  4  1  0
  4  5  1  0
  5  6  2  0
  5  7  1  0
  7  8  1  0
  8  9  1  0
  9 10  1  0
 10 11  1  0
 11 12  1  0
 12 13  2  0
 13 14  1  0
 14 15  2  0
 15 16  1  0
 16 17  1  0
 17 18  2  0
 18 19  1  0
 19 20  2  0
 20 21  1  0
 21 22  2  0
 22 23  1  0
 23 24  1  0
 13  8  1  0
 22 17  1  0
 16 12  1  0
  1 25  1  0
  1 26  1  0
  1 27  1  0
  3 28  1  0
  3 29  1  0
  4 30  1  0
  4 31  1  0
  7 32  1  0
  8 33  1  6
  9 34  1  0
  9 35  1  0
 10 36  1  0
 10 37  1  0
 11 38  1  0
 11 39  1  0
 14 40  1  0
 18 41  1  0
 19 42  1  0
 20 43  1  0
 21 44  1  0
 24 45  1  0
 24 46  1  0
 24 47  1  0
M  END
>  <UniqueID>  (46) 
40

>  <SMILES>  (46) 
COCCC(=O)N[C@@H]1CCCc2c1cnn2-c1ccccc1OC

>  <Energy>  (46) 
81.04440824071351

>  <Genealogy>  (46) 
COCCC(=O)N[C@@H]1CCCc2c1cnn2-c1ccccc1OC (chirality)
COCCC(=O)N[C@@H]1CCCc2c1cnn2-c1ccccc1OC (3D coordinates assigned)
COCCC(=O)N[C@@H]1CCCc2c1cnn2-c1ccccc1OC (nonaromatic ring conformer: 81.04440824071351 kcal/mol)

>  <smiles>  (46) 
COCCC(=O)NC1CCCc2c1cnn2-c1ccccc1OC

>  <score_type>  (46) 
oracle

>  <origin>  (46) 
adg

>  <m_score__min__energy>  (46) 
-8.5199999999999996

>  <m_primary>  (46) 
energy

$$$$
46:0
     RDKit          3D

 29 30  0  0  0  0  0  0  0  0999 V2000
   -6.4900   17.4560  -33.5060 C   0  0  0  0  0  0  0  0  0  0  0  0
   -6.2790   18.9310  -33.8520 C   0  0  0  0  0  0  0  0  0  0  0  0
   -7.0800   19.8720  -32.9780 C   0  0  0  0  0  0  0  0  0  0  0  0
   -8.2980   19.5580  -32.6330 N   0  0  0  0  0  0  0  0  0  0  0  0
   -9.1120   20.3750  -31.7310 C   0  0  0  0  0  0  0  0  0  0  0  0
   -8.8500   21.8680  -31.9570 C   0  0  0  0  0  0  0  0  0  0  0  0
   -7.3680   22.1330  -31.9760 C   0  0  0  0  0  0  0  0  0  0  0  0
   -6.8590   23.3670  -31.5450 C   0  0  0  0  0  0  0  0  0  0  0  0
   -5.4860   23.6300  -31.6000 C   0  0  0  0  0  0  0  0  0  0  0  0
   -5.0290   24.8770  -31.1470 O   0  0  0  0  0  0  0  0  0  0  0  0
   -5.7070   25.6810  -30.1870 C   0  0  0  0  0  0  0  0  0  0  0  0
   -4.6160   22.6450  -32.1030 C   0  0  0  0  0  0  0  0  0  0  0  0
   -5.1170   21.4200  -32.5510 C   0  0  0  0  0  0  0  0  0  0  0  0
   -6.4970   21.1570  -32.5020 C   0  0  0  0  0  0  0  0  0  0  0  0
   -6.5074   17.3347  -32.4129 H   0  0  0  0  0  0  0  0  0  0  0  0
   -7.4463   17.1135  -33.9282 H   0  0  0  0  0  0  0  0  0  0  0  0
   -5.6681   16.8591  -33.9282 H   0  0  0  0  0  0  0  0  0  0  0  0
   -5.2114   19.1681  -33.7333 H   0  0  0  0  0  0  0  0  0  0  0  0
   -6.6234   19.0752  -34.8867 H   0  0  0  0  0  0  0  0  0  0  0  0
  -10.1757   20.1642  -31.9158 H   0  0  0  0  0  0  0  0  0  0  0  0
   -8.8447   20.1249  -30.6937 H   0  0  0  0  0  0  0  0  0  0  0  0
   -9.2871   22.1731  -32.9192 H   0  0  0  0  0  0  0  0  0  0  0  0
   -9.3095   22.4433  -31.1397 H   0  0  0  0  0  0  0  0  0  0  0  0
   -7.5459   24.1352  -31.1601 H   0  0  0  0  0  0  0  0  0  0  0  0
   -5.4308   25.3535  -29.1738 H   0  0  0  0  0  0  0  0  0  0  0  0
   -5.4203   26.7343  -30.3228 H   0  0  0  0  0  0  0  0  0  0  0  0
   -6.7936   25.5763  -30.3228 H   0  0  0  0  0  0  0  0  0  0  0  0
   -3.5343   22.8407  -32.1438 H   0  0  0  0  0  0  0  0  0  0  0  0
   -4.4282   20.6577  -32.9439 H   0  0  0  0  0  0  0  0  0  0  0  0
  1  2  1  0
  2  3  1  0
  3  4  2  0
  4  5  1  0
  5  6  1  0
  6  7  1  0
  7  8  2  0
  8  9  1  0
  9 10  1  0
 10 11  1  0
  9 12  2  0
 12 13  1  0
 13 14  2  0
 14  3  1  0
 14  7  1  0
  1 15  1  0
  1 16  1  0
  1 17  1  0
  2 18  1  0
  2 19  1  0
  5 20  1  0
  5 21  1  0
  6 22  1  0
  6 23  1  0
  8 24  1  0
 11 25  1  0
 11 26  1  0
 11 27  1  0
 12 28  1  0
 13 29  1  0
M  END
>  <UniqueID>  (47) 
41

>  <SMILES>  (47) 
CCC1=NCCc2cc(OC)ccc21

>  <Energy>  (47) 
29.128278209307098

>  <Genealogy>  (47) 
CCC1=NCCc2cc(OC)ccc21 (3D coordinates assigned)
CCC1=NCCc2cc(OC)ccc21 (nonaromatic ring conformer: 29.128278209307098 kcal/mol)

>  <smiles>  (47) 
CCC1=NCCc2cc(OC)ccc21

>  <score_type>  (47) 
oracle

>  <origin>  (47) 
adg

>  <m_score__min__energy>  (47) 
-6.6600000000000001

>  <m_primary>  (47) 
energy

$$$$
