0:0
     RDKit          3D

 30 32  0  0  0  0  0  0  0  0999 V2000
   -0.9350   25.9170  -27.8900 C   0  0  0  0  0  0  0  0  0  0  0  0
   -1.8760   25.6750  -28.9300 O   0  0  0  0  0  0  0  0  0  0  0  0
   -2.8110   24.6270  -28.9270 C   0  0  0  0  0  0  0  0  0  0  0  0
   -2.7490   23.5710  -27.9990 C   0  0  0  0  0  0  0  0  0  0  0  0
   -3.6910   22.5410  -28.0410 C   0  0  0  0  0  0  0  0  0  0  0  0
   -4.7090   22.5600  -28.9950 C   0  0  0  0  0  0  0  0  0  0  0  0
   -4.8010   23.6160  -29.9150 C   0  0  0  0  0  0  0  0  0  0  0  0
   -5.8970   23.6280  -30.9080 C   0  0  0  0  0  0  0  0  0  0  0  0
   -5.7890   23.8910  -32.2670 C   0  0  0  0  0  0  0  0  0  0  0  0
   -6.9460   23.5650  -32.8920 N   0  0  0  0  0  0  0  0  0  0  0  0
   -7.7380   23.1680  -31.8750 C   0  0  0  0  0  0  0  0  0  0  0  0
   -7.1520   23.1990  -30.6950 N   0  0  0  0  0  0  0  0  0  0  0  0
   -7.7590   22.3040  -29.7360 C   0  0  0  0  0  0  0  0  0  0  0  0
   -9.0050   21.7630  -30.4820 C   0  0  0  0  0  0  0  0  0  0  0  0
   -8.9320   22.3040  -31.9330 C   0  0  0  0  0  0  0  0  0  0  0  0
   -3.8340   24.6410  -29.8880 C   0  0  0  0  0  0  0  0  0  0  0  0
   -3.8630   25.6620  -30.8310 O   0  0  0  0  0  0  0  0  0  0  0  0
   -1.4265   25.7906  -26.9141 H   0  0  0  0  0  0  0  0  0  0  0  0
   -0.1019   25.2039  -27.9761 H   0  0  0  0  0  0  0  0  0  0  0  0
   -0.5493   26.9436  -27.9761 H   0  0  0  0  0  0  0  0  0  0  0  0
   -1.9554   23.5568  -27.2375 H   0  0  0  0  0  0  0  0  0  0  0  0
   -3.6303   21.7124  -27.3200 H   0  0  0  0  0  0  0  0  0  0  0  0
   -5.4441   21.7423  -29.0263 H   0  0  0  0  0  0  0  0  0  0  0  0
   -4.8972   24.3026  -32.7623 H   0  0  0  0  0  0  0  0  0  0  0  0
   -7.0725   21.4858  -29.4729 H   0  0  0  0  0  0  0  0  0  0  0  0
   -8.0105   22.8003  -28.7871 H   0  0  0  0  0  0  0  0  0  0  0  0
   -8.9945   20.6631  -30.4875 H   0  0  0  0  0  0  0  0  0  0  0  0
   -9.9320   22.0881  -29.9870 H   0  0  0  0  0  0  0  0  0  0  0  0
   -8.8004   21.4876  -32.6584 H   0  0  0  0  0  0  0  0  0  0  0  0
   -9.8435   22.8262  -32.2594 H   0  0  0  0  0  0  0  0  0  0  0  0
  1  2  1  0
  2  3  1  0
  3  4  2  0
  4  5  1  0
  5  6  2  0
  6  7  1  0
  7  8  1  0
  8  9  2  0
  9 10  1  0
 10 11  2  0
 11 12  1  0
 12 13  1  0
 13 14  1  0
 14 15  1  0
  7 16  2  0
 16 17  1  0
 16  3  1  0
 12  8  1  0
 15 11  1  0
  1 18  1  0
  1 19  1  0
  1 20  1  0
  4 21  1  0
  5 22  1  0
  6 23  1  0
  9 24  1  0
 13 25  1  0
 13 26  1  0
 14 27  1  0
 14 28  1  0
 15 29  1  0
 15 30  1  0
M  CHG  1  17  -1
M  END
>  <UniqueID>  (1) 
1

>  <SMILES>  (1) 
COc1cccc(-c2cnc3n2CCC3)c1[O-]

>  <Energy>  (1) 
85.99257318446823

>  <Genealogy>  (1) 
COc1cccc(-c2cnc3n2CCC3)c1[O-] (protonated)
COc1cccc(-c2cnc3n2CCC3)c1[O-] (3D coordinates assigned)
COc1cccc(-c2cnc3n2CCC3)c1[O-] (nonaromatic ring conformer: 85.99257318446823 kcal/mol)

>  <smiles>  (1) 
COc1cccc(-c2cnc3n2CCC3)c1O

>  <score_type>  (1) 
oracle

>  <origin>  (1) 
adg

>  <m_score__min__energy>  (1) 
-10.050000000000001

>  <m_primary>  (1) 
energy

$$$$
1:0
     RDKit          3D

 44 47  0  0  0  0  0  0  0  0999 V2000
   -2.4970   21.0640  -33.1370 C   0  0  0  0  0  0  0  0  0  0  0  0
   -3.4190   21.7440  -32.2930 O   0  0  0  0  0  0  0  0  0  0  0  0
   -4.8020   21.5310  -32.2970 C   0  0  0  0  0  0  0  0  0  0  0  0
   -5.4050   20.4680  -33.0130 C   0  0  0  0  0  0  0  0  0  0  0  0
   -6.8080   20.3210  -33.0370 C   0  0  0  0  0  0  0  0  0  0  0  0
   -7.6310   21.2320  -32.3580 C   0  0  0  0  0  0  0  0  0  0  0  0
   -8.9800   21.1100  -32.3950 F   0  0  0  0  0  0  0  0  0  0  0  0
   -7.0200   22.2650  -31.6490 C   0  0  0  0  0  0  0  0  0  0  0  0
   -7.6340   23.2450  -30.9640 N   0  0  0  0  0  0  0  0  0  0  0  0
   -6.6520   24.0220  -30.4590 C   0  0  0  0  0  0  0  0  0  0  0  0
   -5.4040   23.5230  -30.8130 C   0  0  0  0  0  0  0  0  0  0  0  0
   -4.1160   24.1030  -30.3880 C   0  0  0  0  0  0  0  0  0  0  0  0
   -3.8590   25.2920  -30.7200 O   0  0  0  0  0  0  0  0  0  0  0  0
   -3.1090   23.3370  -29.5540 C   0  0  1  0  0  0  0  0  0  0  0  0
   -3.7410   22.0720  -28.9500 C   0  0  0  0  0  0  0  0  0  0  0  0
   -2.7080   21.1890  -28.2960 C   0  0  0  0  0  0  0  0  0  0  0  0
   -3.1400   20.1710  -27.4350 C   0  0  0  0  0  0  0  0  0  0  0  0
   -2.2200   19.3080  -26.8440 C   0  0  0  0  0  0  0  0  0  0  0  0
   -0.8580   19.4530  -27.1020 C   0  0  0  0  0  0  0  0  0  0  0  0
   -0.3970   20.4630  -27.9620 C   0  0  0  0  0  0  0  0  0  0  0  0
    1.0850   20.5890  -28.2100 C   0  0  0  0  0  0  0  0  0  0  0  0
   -1.3310   21.3210  -28.5960 C   0  0  0  0  0  0  0  0  0  0  0  0
   -0.8610   22.4410  -29.5090 C   0  0  0  0  0  0  0  0  0  0  0  0
   -1.9360   22.9640  -30.3610 N   0  0  0  0  0  0  0  0  0  0  0  0
   -5.6520   22.4000  -31.5960 C   0  0  0  0  0  0  0  0  0  0  0  0
   -1.7644   20.5237  -32.5195 H   0  0  0  0  0  0  0  0  0  0  0  0
   -3.0400   20.3485  -33.7720 H   0  0  0  0  0  0  0  0  0  0  0  0
   -1.9738   21.7942  -33.7720 H   0  0  0  0  0  0  0  0  0  0  0  0
   -4.7730   19.7498  -33.5559 H   0  0  0  0  0  0  0  0  0  0  0  0
   -7.2600   19.4859  -33.5922 H   0  0  0  0  0  0  0  0  0  0  0  0
   -8.6620   23.3850  -30.8450 H   0  0  0  0  0  0  0  0  0  0  0  0
   -6.8168   24.9244  -29.8519 H   0  0  0  0  0  0  0  0  0  0  0  0
   -2.7863   23.9981  -28.7362 H   0  0  0  0  0  0  0  0  0  0  0  0
   -4.4839   22.3703  -28.1956 H   0  0  0  0  0  0  0  0  0  0  0  0
   -4.2124   21.5023  -29.7644 H   0  0  0  0  0  0  0  0  0  0  0  0
   -4.2132   20.0527  -27.2244 H   0  0  0  0  0  0  0  0  0  0  0  0
   -2.5693   18.5102  -26.1721 H   0  0  0  0  0  0  0  0  0  0  0  0
   -0.1377   18.7702  -26.6277 H   0  0  0  0  0  0  0  0  0  0  0  0
    1.6153   20.6341  -27.2473 H   0  0  0  0  0  0  0  0  0  0  0  0
    1.4365   19.7175  -28.7818 H   0  0  0  0  0  0  0  0  0  0  0  0
    1.2843   21.5073  -28.7818 H   0  0  0  0  0  0  0  0  0  0  0  0
   -0.4726   23.2619  -28.8883 H   0  0  0  0  0  0  0  0  0  0  0  0
   -0.0838   22.0285  -30.1691 H   0  0  0  0  0  0  0  0  0  0  0  0
   -2.2070   22.2270  -31.0550 H   0  0  0  0  0  0  0  0  0  0  0  0
  1  2  1  0
  2  3  1  0
  3  4  2  0
  4  5  1  0
  5  6  2  0
  6  7  1  0
  6  8  1  0
  8  9  1  0
  9 10  1  0
 10 11  2  0
 11 12  1  0
 12 13  2  0
 12 14  1  0
 14 15  1  0
 15 16  1  0
 16 17  2  0
 17 18  1  0
 18 19  2  0
 19 20  1  0
 20 21  1  0
 20 22  2  0
 22 23  1  0
 23 24  1  0
 11 25  1  0
 25  3  1  0
 25  8  2  0
 24 14  1  0
 22 16  1  0
  1 26  1  0
  1 27  1  0
  1 28  1  0
  4 29  1  0
  5 30  1  0
  9 31  1  0
 10 32  1  0
 14 33  1  1
 15 34  1  0
 15 35  1  0
 17 36  1  0
 18 37  1  0
 19 38  1  0
 21 39  1  0
 21 40  1  0
 21 41  1  0
 23 42  1  0
 23 43  1  0
 24 44  1  0
M  END
>  <UniqueID>  (2) 
2

>  <SMILES>  (2) 
COc1ccc(F)c2[nH]cc(C(=O)[C@H]3Cc4cccc(C)c4CN3)c12

>  <Energy>  (2) 
89.10283813971414

>  <Genealogy>  (2) 
COc1ccc(F)c2[nH]cc(C(=O)[C@H]3Cc4cccc(C)c4CN3)c12 (chirality)
COc1ccc(F)c2[nH]cc(C(=O)[C@H]3Cc4cccc(C)c4CN3)c12 (3D coordinates assigned)
COc1ccc(F)c2[nH]cc(C(=O)[C@H]3Cc4cccc(C)c4CN3)c12 (nonaromatic ring conformer: 89.10283813971414 kcal/mol)

>  <smiles>  (2) 
COc1ccc(F)c2[nH]cc(C(=O)C3Cc4cccc(C)c4CN3)c12

>  <score_type>  (2) 
oracle

>  <origin>  (2) 
adg

>  <m_score__min__energy>  (2) 
-8.6400000000000006

>  <m_primary>  (2) 
energy

$$$$
2:0
     RDKit          3D

 27 27  0  0  0  0  0  0  0  0999 V2000
   -1.9900   19.0950  -33.3020 C   0  0  0  0  0  0  0  0  0  0  0  0
   -3.0700   18.2280  -33.9280 C   0  0  0  0  0  0  0  0  0  0  0  0
   -4.1100   19.0570  -34.4360 O   0  0  0  0  0  0  0  0  0  0  0  0
   -5.0970   19.5900  -33.6020 C   0  0  0  0  0  0  0  0  0  0  0  0
   -6.2500   18.8470  -33.2860 C   0  0  0  0  0  0  0  0  0  0  0  0
   -6.4590   17.5330  -33.8410 C   0  0  0  0  0  0  0  0  0  0  0  0
   -6.6260   16.4790  -34.2870 N   0  0  0  0  0  0  0  0  0  0  0  0
   -7.2270   19.3980  -32.4490 C   0  0  0  0  0  0  0  0  0  0  0  0
   -7.0660   20.6850  -31.9300 C   0  0  0  0  0  0  0  0  0  0  0  0
   -5.9290   21.4360  -32.2510 C   0  0  0  0  0  0  0  0  0  0  0  0
   -5.7840   22.7650  -31.7130 C   0  0  0  0  0  0  0  0  0  0  0  0
   -5.6620   23.8770  -31.2630 C   0  0  0  0  0  0  0  0  0  0  0  0
   -5.5140   25.2290  -30.7170 C   0  0  0  0  0  0  0  0  0  0  0  0
   -4.1590   25.5800  -30.6670 O   0  0  0  0  0  0  0  0  0  0  0  0
   -4.9420   20.8930  -33.0900 C   0  0  0  0  0  0  0  0  0  0  0  0
   -3.8120   21.6520  -33.4050 O   0  0  0  0  0  0  0  0  0  0  0  0
   -2.0626   19.0368  -32.2059 H   0  0  0  0  0  0  0  0  0  0  0  0
   -1.0006   18.7375  -33.6235 H   0  0  0  0  0  0  0  0  0  0  0  0
   -2.1251   20.1383  -33.6235 H   0  0  0  0  0  0  0  0  0  0  0  0
   -2.6366   17.6388  -34.7496 H   0  0  0  0  0  0  0  0  0  0  0  0
   -3.4816   17.5490  -33.1668 H   0  0  0  0  0  0  0  0  0  0  0  0
   -8.1257   18.8151  -32.1987 H   0  0  0  0  0  0  0  0  0  0  0  0
   -7.8346   21.1094  -31.2674 H   0  0  0  0  0  0  0  0  0  0  0  0
   -6.0515   25.9421  -31.3593 H   0  0  0  0  0  0  0  0  0  0  0  0
   -5.9314   25.2551  -29.6996 H   0  0  0  0  0  0  0  0  0  0  0  0
   -3.8560   25.6790  -31.6070 H   0  0  0  0  0  0  0  0  0  0  0  0
   -3.2650   21.4870  -34.2410 H   0  0  0  0  0  0  0  0  0  0  0  0
  1  2  1  0
  2  3  1  0
  3  4  1  0
  4  5  2  0
  5  6  1  0
  6  7  3  0
  5  8  1  0
  8  9  2  0
  9 10  1  0
 10 11  1  0
 11 12  3  0
 12 13  1  0
 13 14  1  0
 10 15  2  0
 15 16  1  0
 15  4  1  0
  1 17  1  0
  1 18  1  0
  1 19  1  0
  2 20  1  0
  2 21  1  0
  8 22  1  0
  9 23  1  0
 13 24  1  0
 13 25  1  0
 14 26  1  0
 16 27  1  0
M  END
>  <UniqueID>  (3) 
3

>  <SMILES>  (3) 
CCOc1c(C#N)ccc(C#CCO)c1O

>  <Energy>  (3) 
23.48391691601547

>  <Genealogy>  (3) 
CCOc1c(C#N)ccc(C#CCO)c1O (3D coordinates assigned)
CCOc1c(C#N)ccc(C#CCO)c1O (optimized conformer: 23.48391691601547 kcal/mol)

>  <smiles>  (3) 
CCOc1c(C#N)ccc(C#CCO)c1O

>  <score_type>  (3) 
oracle

>  <origin>  (3) 
adg

>  <m_score__min__energy>  (3) 
-5.6299999999999999

>  <m_primary>  (3) 
energy

$$$$
3:0
     RDKit          3D

 55 57  0  0  0  0  0  0  0  0999 V2000
   -6.4430   17.3110  -31.5780 C   0  0  0  0  0  0  0  0  0  0  0  0
   -5.6180   18.5190  -32.0050 C   0  0  0  0  0  0  0  0  0  0  0  0
   -4.8340   18.2040  -33.2010 N   0  0  0  0  0  0  0  0  0  0  0  0
   -5.2310   17.4030  -34.2040 C   0  0  0  0  0  0  0  0  0  0  0  0
   -4.1810   17.2520  -35.0770 C   0  0  0  0  0  0  0  0  0  0  0  0
   -3.1160   17.9420  -34.6260 N   0  0  0  0  0  0  0  0  0  0  0  0
   -3.5440   18.5130  -33.4790 C   0  0  0  0  0  0  0  0  0  0  0  0
   -2.6500   19.3760  -32.6180 C   0  0  0  0  0  0  0  0  0  0  0  0
   -3.2660   20.6620  -32.2270 N   0  0  0  0  0  0  0  0  0  0  0  0
   -3.7900   21.4460  -33.3580 C   0  0  0  0  0  0  0  0  0  0  0  0
   -4.7050   22.5830  -32.8510 C   0  0  0  0  0  0  0  0  0  0  0  0
   -4.4630   22.9280  -31.4330 N   0  0  0  0  0  0  0  0  0  0  0  0
   -5.4580   22.3770  -30.4700 C   0  0  0  0  0  0  0  0  0  0  0  0
   -6.8480   22.1760  -31.0370 C   0  0  0  0  0  0  0  0  0  0  0  0
   -7.6510   23.2800  -31.3710 C   0  0  0  0  0  0  0  0  0  0  0  0
   -8.9110   23.0910  -31.9450 C   0  0  0  0  0  0  0  0  0  0  0  0
   -9.3920   21.8010  -32.1710 C   0  0  0  0  0  0  0  0  0  0  0  0
   -8.6300   20.6870  -31.7910 C   0  0  0  0  0  0  0  0  0  0  0  0
   -9.1310   19.3000  -32.0640 C   0  0  0  0  0  0  0  0  0  0  0  0
   -7.3610   20.8800  -31.2240 C   0  0  0  0  0  0  0  0  0  0  0  0
   -3.0220   22.8740  -31.0790 C   0  0  1  0  0  0  0  0  0  0  0  0
   -2.7310   23.4400  -29.6680 C   0  0  0  0  0  0  0  0  0  0  0  0
   -3.6020   24.6530  -29.3140 C   0  0  0  0  0  0  0  0  0  0  0  0
   -3.9280   25.3740  -30.4700 O   0  0  0  0  0  0  0  0  0  0  0  0
   -2.4170   21.4680  -31.3260 C   0  0  0  0  0  0  0  0  0  0  0  0
   -6.4776   17.2603  -30.4797 H   0  0  0  0  0  0  0  0  0  0  0  0
   -7.4651   17.4069  -31.9730 H   0  0  0  0  0  0  0  0  0  0  0  0
   -5.9818   16.3938  -31.9730 H   0  0  0  0  0  0  0  0  0  0  0  0
   -6.2927   19.3595  -32.2248 H   0  0  0  0  0  0  0  0  0  0  0  0
   -4.9316   18.7891  -31.1890 H   0  0  0  0  0  0  0  0  0  0  0  0
   -6.2263   16.9463  -34.3083 H   0  0  0  0  0  0  0  0  0  0  0  0
   -4.2063   16.6584  -36.0027 H   0  0  0  0  0  0  0  0  0  0  0  0
   -2.4029   18.8167  -31.7036 H   0  0  0  0  0  0  0  0  0  0  0  0
   -1.7586   19.6145  -33.2168 H   0  0  0  0  0  0  0  0  0  0  0  0
   -2.9487   21.8808  -33.9176 H   0  0  0  0  0  0  0  0  0  0  0  0
   -4.3763   20.7817  -34.0098 H   0  0  0  0  0  0  0  0  0  0  0  0
   -4.5261   23.4778  -33.4653 H   0  0  0  0  0  0  0  0  0  0  0  0
   -5.7441   22.2315  -32.9324 H   0  0  0  0  0  0  0  0  0  0  0  0
   -5.0887   21.4030  -30.1164 H   0  0  0  0  0  0  0  0  0  0  0  0
   -5.5564   23.1220  -29.6667 H   0  0  0  0  0  0  0  0  0  0  0  0
   -7.2853   24.2996  -31.1793 H   0  0  0  0  0  0  0  0  0  0  0  0
   -9.5251   23.9614  -32.2193 H   0  0  0  0  0  0  0  0  0  0  0  0
  -10.3723   21.6574  -32.6489 H   0  0  0  0  0  0  0  0  0  0  0  0
   -9.3176   18.7834  -31.1110 H   0  0  0  0  0  0  0  0  0  0  0  0
  -10.0661   19.3548  -32.6406 H   0  0  0  0  0  0  0  0  0  0  0  0
   -8.3767   18.7446  -32.6406 H   0  0  0  0  0  0  0  0  0  0  0  0
   -6.7612   20.0085  -30.9227 H   0  0  0  0  0  0  0  0  0  0  0  0
   -2.4959   23.5510  -31.7681 H   0  0  0  0  0  0  0  0  0  0  0  0
   -2.9169   22.6477  -28.9279 H   0  0  0  0  0  0  0  0  0  0  0  0
   -1.6833   23.7749  -29.6588 H   0  0  0  0  0  0  0  0  0  0  0  0
   -4.5270   24.3062  -28.8302 H   0  0  0  0  0  0  0  0  0  0  0  0
   -3.0410   25.3080  -28.6312 H   0  0  0  0  0  0  0  0  0  0  0  0
   -3.5010   24.8920  -31.2250 H   0  0  0  0  0  0  0  0  0  0  0  0
   -1.4218   21.5823  -31.7805 H   0  0  0  0  0  0  0  0  0  0  0  0
   -2.3496   20.9475  -30.3593 H   0  0  0  0  0  0  0  0  0  0  0  0
  1  2  1  0
  2  3  1  0
  3  4  1  0
  4  5  2  0
  5  6  1  0
  6  7  2  0
  7  8  1  0
  8  9  1  0
  9 10  1  0
 10 11  1  0
 11 12  1  0
 12 13  1  0
 13 14  1  0
 14 15  2  0
 15 16  1  0
 16 17  2  0
 17 18  1  0
 18 19  1  0
 18 20  2  0
 12 21  1  0
 21 22  1  0
 22 23  1  0
 23 24  1  0
 21 25  1  0
  7  3  1  0
 25  9  1  0
 20 14  1  0
  1 26  1  0
  1 27  1  0
  1 28  1  0
  2 29  1  0
  2 30  1  0
  4 31  1  0
  5 32  1  0
  8 33  1  0
  8 34  1  0
 10 35  1  0
 10 36  1  0
 11 37  1  0
 11 38  1  0
 13 39  1  0
 13 40  1  0
 15 41  1  0
 16 42  1  0
 17 43  1  0
 19 44  1  0
 19 45  1  0
 19 46  1  0
 20 47  1  0
 21 48  1  6
 22 49  1  0
 22 50  1  0
 23 51  1  0
 23 52  1  0
 24 53  1  0
 25 54  1  0
 25 55  1  0
M  END
>  <UniqueID>  (4) 
4

>  <SMILES>  (4) 
CCn1ccnc1CN1CCN(Cc2cccc(C)c2)[C@@H](CCO)C1

>  <Energy>  (4) 
97.39752035556657

>  <Genealogy>  (4) 
CCn1ccnc1CN1CCN(Cc2cccc(C)c2)[C@@H](CCO)C1 (chirality)
CCn1ccnc1CN1CCN(Cc2cccc(C)c2)[C@@H](CCO)C1 (3D coordinates assigned)
CCn1ccnc1CN1CCN(Cc2cccc(C)c2)[C@@H](CCO)C1 (nonaromatic ring conformer: 97.39752035556657 kcal/mol)

>  <smiles>  (4) 
CCn1ccnc1CN1CCN(Cc2cccc(C)c2)C(CCO)C1

>  <score_type>  (4) 
oracle

>  <origin>  (4) 
adg

>  <m_score__min__energy>  (4) 
-8.6300000000000008

>  <m_primary>  (4) 
energy

$$$$
4:0
     RDKit          3D

 40 41  0  0  0  0  0  0  0  0999 V2000
   -5.6880   17.9450  -34.7050 C   0  0  0  0  0  0  0  0  0  0  0  0
   -6.0970   19.3020  -34.1360 C   0  0  0  0  0  0  0  0  0  0  0  0
   -5.5450   19.5060  -32.7860 N   0  0  0  0  0  0  0  0  0  0  0  0
   -6.2160   18.8900  -31.6290 C   0  0  0  0  0  0  0  0  0  0  0  0
   -7.7090   18.6950  -31.8890 C   0  0  0  0  0  0  0  0  0  0  0  0
   -4.3450   20.2950  -32.6000 C   0  0  0  0  0  0  0  0  0  0  0  0
   -3.2060   20.0730  -33.3970 C   0  0  0  0  0  0  0  0  0  0  0  0
   -2.0600   20.8510  -33.2240 C   0  0  0  0  0  0  0  0  0  0  0  0
   -2.0350   21.8640  -32.2650 C   0  0  0  0  0  0  0  0  0  0  0  0
   -3.1540   22.1080  -31.4650 C   0  0  0  0  0  0  0  0  0  0  0  0
   -3.0990   23.1760  -30.5090 N   0  0  0  0  0  0  0  0  0  0  0  0
   -4.4150   24.2420  -30.1360 S   0  0  0  0  0  0  0  0  0  0  0  0
   -4.4100   24.5320  -28.6610 O   0  0  0  0  0  0  0  0  0  0  0  0
   -4.2350   25.5310  -30.8850 O   0  0  0  0  0  0  0  0  0  0  0  0
   -5.9400   23.5070  -30.6260 C   0  0  0  0  0  0  0  0  0  0  0  0
   -6.4140   23.6980  -31.9300 C   0  0  0  0  0  0  0  0  0  0  0  0
   -7.6070   23.0930  -32.3400 C   0  0  0  0  0  0  0  0  0  0  0  0
   -8.3340   22.3000  -31.4460 C   0  0  0  0  0  0  0  0  0  0  0  0
   -9.8280   21.5400  -31.9630 Cl  0  0  0  0  0  0  0  0  0  0  0  0
   -7.8630   22.1100  -30.1430 C   0  0  0  0  0  0  0  0  0  0  0  0
   -6.6700   22.7120  -29.7320 C   0  0  0  0  0  0  0  0  0  0  0  0
   -4.3010   21.3120  -31.6290 C   0  0  0  0  0  0  0  0  0  0  0  0
   -5.4783   17.2493  -33.8792 H   0  0  0  0  0  0  0  0  0  0  0  0
   -6.5055   17.5450  -35.3228 H   0  0  0  0  0  0  0  0  0  0  0  0
   -4.7856   18.0634  -35.3228 H   0  0  0  0  0  0  0  0  0  0  0  0
   -5.7232   20.0958  -34.7994 H   0  0  0  0  0  0  0  0  0  0  0  0
   -7.1946   19.3337  -34.0701 H   0  0  0  0  0  0  0  0  0  0  0  0
   -5.7568   17.9108  -31.4286 H   0  0  0  0  0  0  0  0  0  0  0  0
   -6.0998   19.5600  -30.7644 H   0  0  0  0  0  0  0  0  0  0  0  0
   -8.2423   18.6254  -30.9294 H   0  0  0  0  0  0  0  0  0  0  0  0
   -8.0961   19.5502  -32.4624 H   0  0  0  0  0  0  0  0  0  0  0  0
   -7.8635   17.7691  -32.4624 H   0  0  0  0  0  0  0  0  0  0  0  0
   -3.2192   19.2815  -34.1608 H   0  0  0  0  0  0  0  0  0  0  0  0
   -1.1726   20.6645  -33.8466 H   0  0  0  0  0  0  0  0  0  0  0  0
   -1.1287   22.4743  -32.1380 H   0  0  0  0  0  0  0  0  0  0  0  0
   -5.8469   24.3252  -32.6335 H   0  0  0  0  0  0  0  0  0  0  0  0
   -7.9737   23.2411  -33.3665 H   0  0  0  0  0  0  0  0  0  0  0  0
   -8.4328   21.4851  -29.4395 H   0  0  0  0  0  0  0  0  0  0  0  0
   -6.3039   22.5615  -28.7057 H   0  0  0  0  0  0  0  0  0  0  0  0
   -5.1777   21.4871  -30.9881 H   0  0  0  0  0  0  0  0  0  0  0  0
  1  2  1  0
  2  3  1  0
  3  4  1  0
  4  5  1  0
  3  6  1  0
  6  7  2  0
  7  8  1  0
  8  9  2  0
  9 10  1  0
 10 11  1  0
 11 12  1  0
 12 13  2  0
 12 14  2  0
 12 15  1  0
 15 16  2  0
 16 17  1  0
 17 18  2  0
 18 19  1  0
 18 20  1  0
 20 21  2  0
 10 22  2  0
 22  6  1  0
 21 15  1  0
  1 23  1  0
  1 24  1  0
  1 25  1  0
  2 26  1  0
  2 27  1  0
  4 28  1  0
  4 29  1  0
  5 30  1  0
  5 31  1  0
  5 32  1  0
  7 33  1  0
  8 34  1  0
  9 35  1  0
 16 36  1  0
 17 37  1  0
 20 38  1  0
 21 39  1  0
 22 40  1  0
M  CHG  1  11  -1
M  END
>  <UniqueID>  (5) 
5

>  <SMILES>  (5) 
CCN(CC)c1cccc([N-]S(=O)(=O)c2ccc(Cl)cc2)c1

>  <Energy>  (5) 
40.09112059151852

>  <Genealogy>  (5) 
CCN(CC)c1cccc([N-]S(=O)(=O)c2ccc(Cl)cc2)c1 (protonated)
CCN(CC)c1cccc([N-]S(=O)(=O)c2ccc(Cl)cc2)c1 (3D coordinates assigned)
CCN(CC)c1cccc([N-]S(=O)(=O)c2ccc(Cl)cc2)c1 (optimized conformer: 40.09112059151852 kcal/mol)

>  <smiles>  (5) 
CCN(CC)c1cccc(NS(=O)(=O)c2ccc(Cl)cc2)c1

>  <score_type>  (5) 
oracle

>  <origin>  (5) 
adg

>  <m_score__min__energy>  (5) 
-9.0099999999999998

>  <m_primary>  (5) 
energy

$$$$
5:0
     RDKit          3D

 51 55  0  0  0  0  0  0  0  0999 V2000
   -4.7110   24.5930  -29.8770 C   0  0  0  0  0  0  0  0  0  0  0  0
   -4.0250   23.3780  -30.4290 C   0  0  0  0  0  0  0  0  0  0  0  0
   -2.6960   23.1080  -30.0920 C   0  0  0  0  0  0  0  0  0  0  0  0
   -2.0270   22.0280  -30.6640 C   0  0  0  0  0  0  0  0  0  0  0  0
   -2.6800   21.1780  -31.5790 C   0  0  0  0  0  0  0  0  0  0  0  0
   -1.9960   20.1080  -32.2240 C   0  0  0  0  0  0  0  0  0  0  0  0
   -0.5450   19.8090  -31.9460 C   0  0  0  0  0  0  0  0  0  0  0  0
   -2.6760   19.3220  -33.1690 C   0  0  0  0  0  0  0  0  0  0  0  0
   -4.0210   19.5810  -33.4070 C   0  0  0  0  0  0  0  0  0  0  0  0
   -4.8940   18.9060  -34.2370 C   0  0  0  0  0  0  0  0  0  0  0  0
   -4.6210   17.6700  -35.0440 C   0  0  0  0  0  0  0  0  0  0  0  0
   -4.5520   16.4670  -34.1440 C   0  0  0  0  0  0  0  0  0  0  0  0
   -3.9180   15.2880  -34.5730 C   0  0  0  0  0  0  0  0  0  0  0  0
   -3.8260   14.1860  -33.7180 C   0  0  0  0  0  0  0  0  0  0  0  0
   -4.3590   14.2530  -32.4280 C   0  0  0  0  0  0  0  0  0  0  0  0
   -4.9850   15.4230  -31.9910 C   0  0  0  0  0  0  0  0  0  0  0  0
   -5.0800   16.5280  -32.8430 C   0  0  0  0  0  0  0  0  0  0  0  0
   -6.1200   19.4380  -34.0720 N   0  0  0  0  0  0  0  0  0  0  0  0
   -5.9780   20.4280  -33.1630 C   0  0  0  0  0  0  0  0  0  0  0  0
   -7.1550   21.0500  -32.5260 C   0  0  0  0  0  0  0  0  0  0  0  0
   -7.3040   22.4460  -32.5700 C   0  0  0  0  0  0  0  0  0  0  0  0
   -8.3990   23.0570  -31.9530 C   0  0  0  0  0  0  0  0  0  0  0  0
   -9.3450   22.2820  -31.2790 C   0  0  0  0  0  0  0  0  0  0  0  0
   -9.1960   20.8940  -31.2170 C   0  0  0  0  0  0  0  0  0  0  0  0
   -8.1030   20.2720  -31.8320 C   0  0  0  0  0  0  0  0  0  0  0  0
   -7.9680   18.5190  -31.7480 Cl  0  0  0  0  0  0  0  0  0  0  0  0
   -4.6830   20.5580  -32.7540 N   0  0  0  0  0  0  0  0  0  0  0  0
   -4.0530   21.4150  -31.8870 C   0  0  0  0  0  0  0  0  0  0  0  0
   -4.6870   22.5540  -31.3470 C   0  0  0  0  0  0  0  0  0  0  0  0
   -4.6911   24.5577  -28.7777 H   0  0  0  0  0  0  0  0  0  0  0  0
   -4.1903   25.4976  -30.2243 H   0  0  0  0  0  0  0  0  0  0  0  0
   -5.7545   24.6144  -30.2243 H   0  0  0  0  0  0  0  0  0  0  0  0
   -2.1741   23.7530  -29.3697 H   0  0  0  0  0  0  0  0  0  0  0  0
   -0.9769   21.8365  -30.3983 H   0  0  0  0  0  0  0  0  0  0  0  0
   -0.3794   19.7749  -30.8591 H   0  0  0  0  0  0  0  0  0  0  0  0
   -0.2796   18.8373  -32.3880 H   0  0  0  0  0  0  0  0  0  0  0  0
    0.0829   20.5966  -32.3880 H   0  0  0  0  0  0  0  0  0  0  0  0
   -2.1550   18.5181  -33.7096 H   0  0  0  0  0  0  0  0  0  0  0  0
   -5.4286   17.5292  -35.7775 H   0  0  0  0  0  0  0  0  0  0  0  0
   -3.6581   17.7856  -35.5632 H   0  0  0  0  0  0  0  0  0  0  0  0
   -3.4925   15.2324  -35.5858 H   0  0  0  0  0  0  0  0  0  0  0  0
   -3.3332   13.2644  -34.0612 H   0  0  0  0  0  0  0  0  0  0  0  0
   -4.2857   13.3847  -31.7567 H   0  0  0  0  0  0  0  0  0  0  0  0
   -5.4038   15.4752  -30.9752 H   0  0  0  0  0  0  0  0  0  0  0  0
   -5.5700   17.4487  -32.4934 H   0  0  0  0  0  0  0  0  0  0  0  0
   -7.0130   19.0880  -34.4840 H   0  0  0  0  0  0  0  0  0  0  0  0
   -6.5559   23.0607  -33.0921 H   0  0  0  0  0  0  0  0  0  0  0  0
   -8.5158   24.1498  -31.9984 H   0  0  0  0  0  0  0  0  0  0  0  0
  -10.2079   22.7644  -30.7966 H   0  0  0  0  0  0  0  0  0  0  0  0
   -9.9414   20.2870  -30.6822 H   0  0  0  0  0  0  0  0  0  0  0  0
   -5.7155   22.7979  -31.6515 H   0  0  0  0  0  0  0  0  0  0  0  0
  1  2  1  0
  2  3  2  0
  3  4  1  0
  4  5  2  0
  5  6  1  0
  6  7  1  0
  6  8  2  0
  8  9  1  0
  9 10  2  0
 10 11  1  0
 11 12  1  0
 12 13  2  0
 13 14  1  0
 14 15  2  0
 15 16  1  0
 16 17  2  0
 10 18  1  0
 18 19  2  0
 19 20  1  0
 20 21  2  0
 21 22  1  0
 22 23  2  0
 23 24  1  0
 24 25  2  0
 25 26  1  0
 19 27  1  0
 27 28  1  0
 28 29  2  0
 29  2  1  0
 28  5  1  0
 27  9  1  0
 17 12  1  0
 25 20  1  0
  1 30  1  0
  1 31  1  0
  1 32  1  0
  3 33  1  0
  4 34  1  0
  7 35  1  0
  7 36  1  0
  7 37  1  0
  8 38  1  0
 11 39  1  0
 11 40  1  0
 13 41  1  0
 14 42  1  0
 15 43  1  0
 16 44  1  0
 17 45  1  0
 18 46  1  0
 21 47  1  0
 22 48  1  0
 23 49  1  0
 24 50  1  0
 29 51  1  0
M  CHG  1  18   1
M  END
>  <UniqueID>  (6) 
6

>  <SMILES>  (6) 
Cc1ccc2c(C)cc3c(Cc4ccccc4)[nH+]c(-c4ccccc4Cl)n3c2c1

>  <Energy>  (6) 
107.74434896027329

>  <Genealogy>  (6) 
Cc1ccc2c(C)cc3c(Cc4ccccc4)[nH+]c(-c4ccccc4Cl)n3c2c1 (protonated)
Cc1ccc2c(C)cc3c(Cc4ccccc4)[nH+]c(-c4ccccc4Cl)n3c2c1 (3D coordinates assigned)
Cc1ccc2c(C)cc3c(Cc4ccccc4)[nH+]c(-c4ccccc4Cl)n3c2c1 (optimized conformer: 107.74434896027329 kcal/mol)

>  <smiles>  (6) 
Cc1ccc2c(C)cc3c(Cc4ccccc4)nc(-c4ccccc4Cl)n3c2c1

>  <score_type>  (6) 
oracle

>  <origin>  (6) 
adg

>  <m_score__min__energy>  (6) 
-9.4299999999999997

>  <m_primary>  (6) 
energy

$$$$
6:0
     RDKit          3D

 52 54  0  0  0  0  0  0  0  0999 V2000
   -7.0920   19.1150  -31.9840 C   0  0  0  0  0  0  0  0  0  0  0  0
   -6.9100   19.6450  -33.4020 C   0  0  0  0  0  0  0  0  0  0  0  0
   -5.4510   18.9010  -34.2150 S   0  0  0  0  0  0  0  0  0  0  0  0
   -4.2760   20.0710  -33.5280 C   0  0  0  0  0  0  0  0  0  0  0  0
   -4.5720   21.3650  -33.2930 N   0  0  0  0  0  0  0  0  0  0  0  0
   -3.4700   21.9110  -32.8040 N   0  0  0  0  0  0  0  0  0  0  0  0
   -2.5180   20.9620  -32.7540 C   0  0  0  0  0  0  0  0  0  0  0  0
   -1.1270   21.1950  -32.2390 C   0  0  0  0  0  0  0  0  0  0  0  0
   -1.0830   20.9610  -30.7790 N   0  0  0  0  0  0  0  0  0  0  0  0
   -2.3570   20.4220  -30.2440 C   0  0  0  0  0  0  0  0  0  0  0  0
   -3.3030   21.5160  -29.7080 C   0  0  0  0  0  0  0  0  0  0  0  0
   -3.0400   22.7870  -30.3950 N   0  0  0  0  0  0  0  0  0  0  0  0
   -4.2460   23.9690  -29.9540 S   0  0  0  0  0  0  0  0  0  0  0  0
   -3.8810   25.3100  -30.5260 O   0  0  0  0  0  0  0  0  0  0  0  0
   -4.3260   24.0880  -28.4560 O   0  0  0  0  0  0  0  0  0  0  0  0
   -5.8040   23.4790  -30.6120 C   0  0  0  0  0  0  0  0  0  0  0  0
   -6.1640   23.8050  -31.9280 C   0  0  0  0  0  0  0  0  0  0  0  0
   -7.4150   23.4280  -32.4270 C   0  0  0  0  0  0  0  0  0  0  0  0
   -8.3110   22.7270  -31.6150 C   0  0  0  0  0  0  0  0  0  0  0  0
   -7.9570   22.4030  -30.3010 C   0  0  0  0  0  0  0  0  0  0  0  0
   -6.7080   22.7790  -29.7990 C   0  0  0  0  0  0  0  0  0  0  0  0
   -1.6930   23.2910  -30.0680 C   0  0  0  0  0  0  0  0  0  0  0  0
   -0.6410   22.1590  -30.0370 C   0  0  0  0  0  0  0  0  0  0  0  0
   -2.9990   19.7810  -33.1960 N   0  0  0  0  0  0  0  0  0  0  0  0
   -2.2730   18.5270  -33.4140 C   0  0  0  0  0  0  0  0  0  0  0  0
   -3.1480   17.3360  -33.0450 C   0  0  0  0  0  0  0  0  0  0  0  0
   -6.8225   19.8998  -31.2618 H   0  0  0  0  0  0  0  0  0  0  0  0
   -8.1419   18.8231  -31.8336 H   0  0  0  0  0  0  0  0  0  0  0  0
   -6.4429   18.2397  -31.8336 H   0  0  0  0  0  0  0  0  0  0  0  0
   -7.8078   19.4056  -33.9908 H   0  0  0  0  0  0  0  0  0  0  0  0
   -6.7560   20.7327  -33.3462 H   0  0  0  0  0  0  0  0  0  0  0  0
   -3.3790   22.9100  -32.5170 H   0  0  0  0  0  0  0  0  0  0  0  0
   -0.4326   20.5044  -32.7398 H   0  0  0  0  0  0  0  0  0  0  0  0
   -0.8339   22.2346  -32.4474 H   0  0  0  0  0  0  0  0  0  0  0  0
   -2.8722   19.8785  -31.0497 H   0  0  0  0  0  0  0  0  0  0  0  0
   -2.1043   19.7657  -29.3982 H   0  0  0  0  0  0  0  0  0  0  0  0
   -4.3460   21.2148  -29.8854 H   0  0  0  0  0  0  0  0  0  0  0  0
   -3.1310   21.6458  -28.6293 H   0  0  0  0  0  0  0  0  0  0  0  0
   -5.4613   24.3580  -32.5685 H   0  0  0  0  0  0  0  0  0  0  0  0
   -7.6941   23.6835  -33.4599 H   0  0  0  0  0  0  0  0  0  0  0  0
   -9.2942   22.4302  -32.0091 H   0  0  0  0  0  0  0  0  0  0  0  0
   -8.6625   21.8516  -29.6621 H   0  0  0  0  0  0  0  0  0  0  0  0
   -6.4333   22.5256  -28.7644 H   0  0  0  0  0  0  0  0  0  0  0  0
   -1.3967   24.0300  -30.8270 H   0  0  0  0  0  0  0  0  0  0  0  0
   -1.7342   23.7430  -29.0660 H   0  0  0  0  0  0  0  0  0  0  0  0
    0.2911   22.5302  -30.4880 H   0  0  0  0  0  0  0  0  0  0  0  0
   -0.4918   21.8677  -28.9868 H   0  0  0  0  0  0  0  0  0  0  0  0
   -1.9879   18.4528  -34.4738 H   0  0  0  0  0  0  0  0  0  0  0  0
   -1.3745   18.5199  -32.7795 H   0  0  0  0  0  0  0  0  0  0  0  0
   -3.2099   17.2518  -31.9500 H   0  0  0  0  0  0  0  0  0  0  0  0
   -4.1568   17.4798  -33.4593 H   0  0  0  0  0  0  0  0  0  0  0  0
   -2.7092   16.4163  -33.4593 H   0  0  0  0  0  0  0  0  0  0  0  0
  1  2  1  0
  2  3  1  0
  3  4  1  0
  4  5  2  0
  5  6  1  0
  6  7  2  0
  7  8  1  0
  8  9  1  0
  9 10  1  0
 10 11  1  0
 11 12  1  0
 12 13  1  0
 13 14  2  0
 13 15  2  0
 13 16  1  0
 16 17  2  0
 17 18  1  0
 18 19  2  0
 19 20  1  0
 20 21  2  0
 12 22  1  0
 22 23  1  0
  7 24  1  0
 24 25  1  0
 25 26  1  0
 24  4  1  0
 23  9  1  0
 21 16  1  0
  1 27  1  0
  1 28  1  0
  1 29  1  0
  2 30  1  0
  2 31  1  0
  6 32  1  0
  8 33  1  0
  8 34  1  0
 10 35  1  0
 10 36  1  0
 11 37  1  0
 11 38  1  0
 17 39  1  0
 18 40  1  0
 19 41  1  0
 20 42  1  0
 21 43  1  0
 22 44  1  0
 22 45  1  0
 23 46  1  0
 23 47  1  0
 25 48  1  0
 25 49  1  0
 26 50  1  0
 26 51  1  0
 26 52  1  0
M  CHG  1   6   1
M  END
>  <UniqueID>  (7) 
7

>  <SMILES>  (7) 
CCSc1n[nH+]c(CN2CCN(S(=O)(=O)c3ccccc3)CC2)n1CC

>  <Energy>  (7) 
85.98356811237565

>  <Genealogy>  (7) 
CCSc1n[nH+]c(CN2CCN(S(=O)(=O)c3ccccc3)CC2)n1CC (protonated)
CCSc1n[nH+]c(CN2CCN(S(=O)(=O)c3ccccc3)CC2)n1CC (3D coordinates assigned)
CCSc1n[nH+]c(CN2CCN(S(=O)(=O)c3ccccc3)CC2)n1CC (nonaromatic ring conformer: 85.98356811237565 kcal/mol)

>  <smiles>  (7) 
CCSc1nnc(CN2CCN(S(=O)(=O)c3ccccc3)CC2)n1CC

>  <score_type>  (7) 
oracle

>  <origin>  (7) 
adg

>  <m_score__min__energy>  (7) 
-8.6400000000000006

>  <m_primary>  (7) 
energy

$$$$
7:0
     RDKit          3D

 39 41  0  0  0  0  0  0  0  0999 V2000
   -4.1270   25.6880  -31.5930 H   0  0  0  0  0  0  0  0  0  0  0  0
   -3.8980   25.1080  -30.7550 N   0  0  0  0  0  0  0  0  0  0  0  0
   -3.9950   23.8190  -30.7770 C   0  0  0  0  0  0  0  0  0  0  0  0
   -3.2650   23.0720  -29.9120 N   0  0  0  0  0  0  0  0  0  0  0  0
   -3.3530   21.7160  -29.9280 C   0  0  0  0  0  0  0  0  0  0  0  0
   -2.5540   20.8970  -28.9840 C   0  0  0  0  0  0  0  0  0  0  0  0
   -1.2440   20.4960  -29.3150 C   0  0  0  0  0  0  0  0  0  0  0  0
   -0.8094   20.7931  -30.2808 H   0  0  0  0  0  0  0  0  0  0  0  0
   -0.4930   19.7230  -28.4240 C   0  0  0  0  0  0  0  0  0  0  0  0
    0.5284   19.4143  -28.6914 H   0  0  0  0  0  0  0  0  0  0  0  0
   -1.0370   19.3420  -27.1950 C   0  0  0  0  0  0  0  0  0  0  0  0
   -0.4443   18.7342  -26.4956 H   0  0  0  0  0  0  0  0  0  0  0  0
   -2.3330   19.7330  -26.8550 C   0  0  0  0  0  0  0  0  0  0  0  0
   -2.7606   19.4321  -25.8872 H   0  0  0  0  0  0  0  0  0  0  0  0
   -3.0890   20.5060  -27.7410 C   0  0  0  0  0  0  0  0  0  0  0  0
   -4.1093   20.8112  -27.4655 H   0  0  0  0  0  0  0  0  0  0  0  0
   -4.1840   21.1160  -30.8210 N   0  0  0  0  0  0  0  0  0  0  0  0
   -4.9290   21.8570  -31.6820 C   0  0  0  0  0  0  0  0  0  0  0  0
   -5.7850   21.2150  -32.6480 N   0  0  0  0  0  0  0  0  0  0  0  0
   -5.2000   20.1410  -33.4540 C   0  0  0  0  0  0  0  0  0  0  0  0
   -5.7074   20.0924  -34.4288 H   0  0  0  0  0  0  0  0  0  0  0  0
   -4.1296   20.3364  -33.6154 H   0  0  0  0  0  0  0  0  0  0  0  0
   -5.3800   18.8090  -32.7120 C   0  0  0  0  0  0  0  0  0  0  0  0
   -5.1901   17.9829  -33.4130 H   0  0  0  0  0  0  0  0  0  0  0  0
   -4.6697   18.7876  -31.8724 H   0  0  0  0  0  0  0  0  0  0  0  0
   -6.7340   18.6660  -32.1660 N   0  0  0  0  0  0  0  0  0  0  0  0
   -7.0130   17.7300  -31.7950 H   0  0  0  0  0  0  0  0  0  0  0  0
   -7.5780   19.7930  -31.8810 C   0  0  0  0  0  0  0  0  0  0  0  0
   -8.6230   19.6300  -31.1960 O   0  0  0  0  0  0  0  0  0  0  0  0
   -7.2490   21.1340  -32.4900 C   0  0  1  0  0  0  0  0  0  0  0  0
   -7.7330   21.2027  -33.4754 H   0  0  0  0  0  0  0  0  0  0  0  0
   -7.8480   22.3420  -31.7220 C   0  0  0  0  0  0  0  0  0  0  0  0
   -7.6860   22.1907  -30.6446 H   0  0  0  0  0  0  0  0  0  0  0  0
   -7.3441   23.2509  -32.0825 H   0  0  0  0  0  0  0  0  0  0  0  0
   -9.3470   22.5100  -31.9740 C   0  0  0  0  0  0  0  0  0  0  0  0
   -9.8762   22.5693  -31.0115 H   0  0  0  0  0  0  0  0  0  0  0  0
   -9.5215   23.4333  -32.5459 H   0  0  0  0  0  0  0  0  0  0  0  0
   -9.7215   21.6482  -32.5459 H   0  0  0  0  0  0  0  0  0  0  0  0
   -4.8230   23.2090  -31.6640 N   0  0  0  0  0  0  0  0  0  0  0  0
  1  2  1  0
  2  3  2  0
  3  4  1  0
  4  5  2  0
  5  6  1  0
  6  7  2  0
  7  8  1  0
  7  9  1  0
  9 10  1  0
  9 11  2  0
 11 12  1  0
 11 13  1  0
 13 14  1  0
 13 15  2  0
 15 16  1  0
  5 17  1  0
 17 18  2  0
 18 19  1  0
 19 20  1  0
 20 21  1  0
 20 22  1  0
 20 23  1  0
 23 24  1  0
 23 25  1  0
 23 26  1  0
 26 27  1  0
 26 28  1  0
 28 29  2  0
 28 30  1  0
 30 31  1  6
 30 32  1  0
 32 33  1  0
 32 34  1  0
 32 35  1  0
 35 36  1  0
 35 37  1  0
 35 38  1  0
 18 39  1  0
 39  3  1  0
 15  6  1  0
 30 19  1  0
M  CHG  1  39  -1
M  END
>  <UniqueID>  (8) 
8

>  <SMILES>  (8) 
[H]/N=c1/nc(-c2ccccc2)nc(N2CCNC(=O)[C@H]2CC)[n-]1

>  <Energy>  (8) 
47.411315070641

>  <Genealogy>  (8) 
CCC1C(=O)NCCN1c1nc(-c2ccccc2)nc(=N)[n-]1 (protonated)
CC[C@@H]1C(=O)NCCN1c1nc(-c2ccccc2)nc(=N)[n-]1 (chirality)
[H]/N=c1/nc(-c2ccccc2)nc(N2CCNC(=O)[C@H]2CC)[n-]1 (cis-trans isomerization)
[H]/N=c1/nc(-c2ccccc2)nc(N2CCNC(=O)[C@H]2CC)[n-]1 (3D coordinates assigned)
[H]/N=c1/nc(-c2ccccc2)nc(N2CCNC(=O)[C@H]2CC)[n-]1 (nonaromatic ring conformer: 47.411315070641 kcal/mol)

>  <smiles>  (8) 
CCC1C(=O)NCCN1c1nc(-c2ccccc2)nc(=N)[nH]1

>  <score_type>  (8) 
oracle

>  <origin>  (8) 
adg

>  <m_score__min__energy>  (8) 
-8.4100000000000001

>  <m_primary>  (8) 
energy

$$$$
8:0
     RDKit          3D

 33 34  0  0  0  0  0  0  0  0999 V2000
   -4.7730   22.0920  -28.7192 H   0  0  0  0  0  0  0  0  0  0  0  0
   -4.1600   22.9780  -28.9410 C   0  0  0  0  0  0  0  0  0  0  0  0
   -2.7640   23.4420  -28.1230 S   0  0  0  0  0  0  0  0  0  0  0  0
   -2.5350   24.8050  -29.0880 C   0  0  0  0  0  0  0  0  0  0  0  0
   -1.5650   25.6600  -28.9750 N   0  0  0  0  0  0  0  0  0  0  0  0
   -0.6580   25.7230  -27.8320 C   0  0  0  0  0  0  0  0  0  0  0  0
    0.1107   26.4877  -28.0169 H   0  0  0  0  0  0  0  0  0  0  0  0
   -0.1782   24.7430  -27.6932 H   0  0  0  0  0  0  0  0  0  0  0  0
   -1.4390   26.0840  -26.5770 C   0  0  0  0  0  0  0  0  0  0  0  0
   -0.8508   25.8121  -25.6882 H   0  0  0  0  0  0  0  0  0  0  0  0
   -1.6386   27.1657  -26.5678 H   0  0  0  0  0  0  0  0  0  0  0  0
   -2.3923   25.5352  -26.5678 H   0  0  0  0  0  0  0  0  0  0  0  0
   -3.4970   24.9240  -30.0250 N   0  0  0  0  0  0  0  0  0  0  0  0
   -4.4060   23.9130  -29.9510 C   0  0  0  0  0  0  0  0  0  0  0  0
   -5.5450   23.8420  -30.8890 C   0  0  0  0  0  0  0  0  0  0  0  0
   -5.3310   23.9820  -32.1240 O   0  0  0  0  0  0  0  0  0  0  0  0
   -6.9490   23.5710  -30.4260 C   0  0  0  0  0  0  0  0  0  0  0  0
   -6.9516   22.6763  -29.7861 H   0  0  0  0  0  0  0  0  0  0  0  0
   -7.3101   24.4445  -29.8633 H   0  0  0  0  0  0  0  0  0  0  0  0
   -7.8790   23.3370  -31.6210 C   0  0  0  0  0  0  0  0  0  0  0  0
   -8.8897   23.6896  -31.3676 H   0  0  0  0  0  0  0  0  0  0  0  0
   -7.4903   23.8911  -32.4881 H   0  0  0  0  0  0  0  0  0  0  0  0
   -7.9370   21.8730  -31.9650 C   0  0  0  0  0  0  0  0  0  0  0  0
   -6.8300   21.2410  -32.5570 C   0  0  0  0  0  0  0  0  0  0  0  0
   -5.9277   21.8239  -32.7937 H   0  0  0  0  0  0  0  0  0  0  0  0
   -6.8720   19.8740  -32.8460 C   0  0  0  0  0  0  0  0  0  0  0  0
   -6.0061   19.3853  -33.3164 H   0  0  0  0  0  0  0  0  0  0  0  0
   -8.0130   19.1270  -32.5380 C   0  0  0  0  0  0  0  0  0  0  0  0
   -8.0457   18.0521  -32.7695 H   0  0  0  0  0  0  0  0  0  0  0  0
   -9.1120   19.7460  -31.9360 C   0  0  0  0  0  0  0  0  0  0  0  0
  -10.0080   19.1569  -31.6908 H   0  0  0  0  0  0  0  0  0  0  0  0
   -9.0740   21.1130  -31.6450 C   0  0  0  0  0  0  0  0  0  0  0  0
   -9.9377   21.5950  -31.1637 H   0  0  0  0  0  0  0  0  0  0  0  0
  1  2  1  0
  2  3  1  0
  3  4  1  0
  4  5  2  0
  5  6  1  0
  6  7  1  0
  6  8  1  0
  6  9  1  0
  9 10  1  0
  9 11  1  0
  9 12  1  0
  4 13  1  0
 13 14  1  0
 14 15  1  0
 15 16  2  0
 15 17  1  0
 17 18  1  0
 17 19  1  0
 17 20  1  0
 20 21  1  0
 20 22  1  0
 20 23  1  0
 23 24  2  0
 24 25  1  0
 24 26  1  0
 26 27  1  0
 26 28  2  0
 28 29  1  0
 28 30  1  0
 30 31  1  0
 30 32  2  0
 32 33  1  0
 14  2  2  0
 32 23  1  0
M  CHG  1  13  -1
M  END
>  <UniqueID>  (9) 
9

>  <SMILES>  (9) 
CC/N=c1/[n-]c(C(=O)CCc2ccccc2)cs1

>  <Energy>  (9) 
55.21458837315774

>  <Genealogy>  (9) 
CCN=c1[n-]c(C(=O)CCc2ccccc2)cs1 (protonated)
CC/N=c1/[n-]c(C(=O)CCc2ccccc2)cs1 (cis-trans isomerization)
CC/N=c1/[n-]c(C(=O)CCc2ccccc2)cs1 (3D coordinates assigned)
CC/N=c1/[n-]c(C(=O)CCc2ccccc2)cs1 (optimized conformer: 55.21458837315774 kcal/mol)

>  <smiles>  (9) 
CCN=c1[nH]c(C(=O)CCc2ccccc2)cs1

>  <score_type>  (9) 
oracle

>  <origin>  (9) 
adg

>  <m_score__min__energy>  (9) 
-9.3000000000000007

>  <m_primary>  (9) 
energy

$$$$
9:0
     RDKit          3D

 56 55  0  0  0  0  0  0  0  0999 V2000
   -3.9120   22.7390  -28.8480 N   0  0  0  0  0  0  0  0  0  0  0  0
   -4.2460   23.1310  -27.4830 C   0  0  0  0  0  0  0  0  0  0  0  0
   -3.7050   24.5350  -27.1630 C   0  0  0  0  0  0  0  0  0  0  0  0
   -2.5370   24.9120  -27.9750 N   0  0  0  0  0  0  0  0  0  0  0  0
   -1.2760   24.3890  -27.4300 C   0  0  0  0  0  0  0  0  0  0  0  0
   -0.2720   24.1860  -28.5640 C   0  0  0  0  0  0  0  0  0  0  0  0
   -0.9350   23.5590  -29.7130 N   0  0  0  0  0  0  0  0  0  0  0  0
   -0.4880   22.1700  -29.9090 C   0  0  0  0  0  0  0  0  0  0  0  0
   -1.0900   21.5920  -31.1920 C   0  0  0  0  0  0  0  0  0  0  0  0
   -2.4230   22.1390  -31.4360 N   0  0  0  0  0  0  0  0  0  0  0  0
   -3.2390   21.7430  -32.5490 C   0  0  0  0  0  0  0  0  0  0  0  0
   -2.8250   20.8780  -33.3690 O   0  0  0  0  0  0  0  0  0  0  0  0
   -4.6080   22.3320  -32.7210 C   0  0  0  0  0  0  0  0  0  0  0  0
   -5.1330   22.7620  -31.4180 N   0  0  0  0  0  0  0  0  0  0  0  0
   -5.7150   24.1200  -31.4790 C   0  0  1  0  0  0  0  0  0  0  0  0
   -7.1420   24.1670  -30.8880 C   0  0  0  0  0  0  0  0  0  0  0  0
   -8.1300   23.2260  -31.6030 C   0  0  0  0  0  0  0  0  0  0  0  0
   -8.2100   21.8620  -30.9140 C   0  0  0  0  0  0  0  0  0  0  0  0
   -7.4360   20.8740  -31.6620 N   0  0  0  0  0  0  0  0  0  0  0  0
   -7.8070   20.3130  -32.7750 C   0  0  0  0  0  0  0  0  0  0  0  0
   -6.8380   20.1030  -33.8020 N   0  0  0  0  0  0  0  0  0  0  0  0
   -9.1630   19.9000  -32.9960 N   0  0  0  0  0  0  0  0  0  0  0  0
   -4.8300   25.1060  -30.7580 C   0  0  0  0  0  0  0  0  0  0  0  0
   -5.2550   26.2530  -30.4550 O   0  0  0  0  0  0  0  0  0  0  0  0
   -3.5180   24.7640  -30.4570 O   0  0  0  0  0  0  0  0  0  0  0  0
   -2.9880   23.1600  -29.0940 H   0  0  0  0  0  0  0  0  0  0  0  0
   -4.6170   23.1730  -29.4860 H   0  0  0  0  0  0  0  0  0  0  0  0
   -5.3398   23.1322  -27.3668 H   0  0  0  0  0  0  0  0  0  0  0  0
   -3.7849   22.4121  -26.7898 H   0  0  0  0  0  0  0  0  0  0  0  0
   -4.5061   25.2667  -27.3442 H   0  0  0  0  0  0  0  0  0  0  0  0
   -3.3796   24.5252  -26.1123 H   0  0  0  0  0  0  0  0  0  0  0  0
   -2.6590   24.5620  -28.9540 H   0  0  0  0  0  0  0  0  0  0  0  0
   -0.8666   25.1054  -26.7026 H   0  0  0  0  0  0  0  0  0  0  0  0
   -1.4647   23.4262  -26.9327 H   0  0  0  0  0  0  0  0  0  0  0  0
    0.1378   25.1608  -28.8669 H   0  0  0  0  0  0  0  0  0  0  0  0
    0.5410   23.5326  -28.2147 H   0  0  0  0  0  0  0  0  0  0  0  0
   -1.9640   23.5470  -29.5190 H   0  0  0  0  0  0  0  0  0  0  0  0
    0.6094   22.1493  -29.9821 H   0  0  0  0  0  0  0  0  0  0  0  0
   -0.8213   21.5638  -29.0538 H   0  0  0  0  0  0  0  0  0  0  0  0
   -0.4370   21.8429  -32.0409 H   0  0  0  0  0  0  0  0  0  0  0  0
   -1.1733   20.5009  -31.0802 H   0  0  0  0  0  0  0  0  0  0  0  0
   -2.8250   22.7870  -30.7220 H   0  0  0  0  0  0  0  0  0  0  0  0
   -4.5502   23.1991  -33.3954 H   0  0  0  0  0  0  0  0  0  0  0  0
   -5.2785   21.5726  -33.1496 H   0  0  0  0  0  0  0  0  0  0  0  0
   -4.3170   22.7950  -30.7610 H   0  0  0  0  0  0  0  0  0  0  0  0
   -5.7820   24.3961  -32.5417 H   0  0  0  0  0  0  0  0  0  0  0  0
   -7.0903   23.8784  -29.8278 H   0  0  0  0  0  0  0  0  0  0  0  0
   -7.5156   25.1930  -31.0211 H   0  0  0  0  0  0  0  0  0  0  0  0
   -9.1287   23.6871  -31.5984 H   0  0  0  0  0  0  0  0  0  0  0  0
   -7.7730   23.0707  -32.6318 H   0  0  0  0  0  0  0  0  0  0  0  0
   -7.8050   21.9453  -29.8947 H   0  0  0  0  0  0  0  0  0  0  0  0
   -9.2612   21.5403  -30.8747 H   0  0  0  0  0  0  0  0  0  0  0  0
   -7.1070   19.6460  -34.7020 H   0  0  0  0  0  0  0  0  0  0  0  0
   -5.8470   20.4030  -33.6650 H   0  0  0  0  0  0  0  0  0  0  0  0
   -9.9080   20.0140  -32.2730 H   0  0  0  0  0  0  0  0  0  0  0  0
   -9.4310   19.4580  -33.9030 H   0  0  0  0  0  0  0  0  0  0  0  0
  1  2  1  0
  2  3  1  0
  3  4  1  0
  4  5  1  0
  5  6  1  0
  6  7  1  0
  7  8  1  0
  8  9  1  0
  9 10  1  0
 10 11  1  0
 11 12  2  0
 11 13  1  0
 13 14  1  0
 14 15  1  0
 15 16  1  0
 16 17  1  0
 17 18  1  0
 18 19  1  0
 19 20  2  3
 20 21  1  0
 20 22  1  0
 15 23  1  0
 23 24  2  0
 23 25  1  0
  1 26  1  0
  1 27  1  0
  2 28  1  0
  2 29  1  0
  3 30  1  0
  3 31  1  0
  4 32  1  0
  5 33  1  0
  5 34  1  0
  6 35  1  0
  6 36  1  0
  7 37  1  0
  8 38  1  0
  8 39  1  0
  9 40  1  0
  9 41  1  0
 10 42  1  0
 13 43  1  0
 13 44  1  0
 14 45  1  0
 15 46  1  6
 16 47  1  0
 16 48  1  0
 17 49  1  0
 17 50  1  0
 18 51  1  0
 18 52  1  0
 21 53  1  0
 21 54  1  0
 22 55  1  0
 22 56  1  0
M  CHG  1  25  -1
M  END
>  <UniqueID>  (10) 
10

>  <SMILES>  (10) 
NCCNCCNCCNC(=O)CN[C@@H](CCCN=C(N)N)C(=O)[O-]

>  <Energy>  (10) 
30.366219125139988

>  <Genealogy>  (10) 
NCCNCCNCCNC(=O)CNC(CCCN=C(N)N)C(=O)[O-] (protonated)
NCCNCCNCCNC(=O)CN[C@@H](CCCN=C(N)N)C(=O)[O-] (chirality)
NCCNCCNCCNC(=O)CN[C@@H](CCCN=C(N)N)C(=O)[O-] (3D coordinates assigned)
NCCNCCNCCNC(=O)CN[C@@H](CCCN=C(N)N)C(=O)[O-] (optimized conformer: 30.366219125139988 kcal/mol)

>  <smiles>  (10) 
NCCNCCNCCNC(=O)CNC(CCCN=C(N)N)C(=O)O

>  <score_type>  (10) 
oracle

>  <origin>  (10) 
adg

>  <m_score__min__energy>  (10) 
-9.3300000000000001

>  <m_primary>  (10) 
energy

$$$$
10:0
     RDKit          3D

 37 37  0  0  0  0  0  0  0  0999 V2000
   -1.1920   25.2970  -25.5010 C   0  0  0  0  0  0  0  0  0  0  0  0
   -2.5050   25.3760  -26.2810 C   0  0  0  0  0  0  0  0  0  0  0  0
   -2.3890   24.6840  -27.5840 N   0  0  0  0  0  0  0  0  0  0  0  0
   -0.9880   24.7080  -28.0620 C   0  0  0  0  0  0  0  0  0  0  0  0
   -0.8070   23.8100  -29.2870 C   0  0  0  0  0  0  0  0  0  0  0  0
   -2.9300   23.3020  -27.5260 C   0  0  0  0  0  0  0  0  0  0  0  0
   -4.2280   23.2310  -28.3320 C   0  0  0  0  0  0  0  0  0  0  0  0
   -4.8250   24.5650  -28.4430 N   0  0  0  0  0  0  0  0  0  0  0  0
   -5.1810   24.9080  -30.1080 S   0  0  0  0  0  0  0  0  0  0  0  0
   -3.9080   25.2250  -30.8440 O   0  0  0  0  0  0  0  0  0  0  0  0
   -6.0850   26.1060  -30.1840 O   0  0  0  0  0  0  0  0  0  0  0  0
   -5.9860   23.5310  -30.8590 C   0  0  0  0  0  0  0  0  0  0  0  0
   -5.3260   22.7580  -31.8240 C   0  0  0  0  0  0  0  0  0  0  0  0
   -5.9610   21.6510  -32.3930 C   0  0  0  0  0  0  0  0  0  0  0  0
   -7.2590   21.3070  -31.9980 C   0  0  0  0  0  0  0  0  0  0  0  0
   -8.0540   19.9150  -32.7100 Cl  0  0  0  0  0  0  0  0  0  0  0  0
   -7.9190   22.0720  -31.0310 C   0  0  0  0  0  0  0  0  0  0  0  0
   -7.2840   23.1800  -30.4600 C   0  0  0  0  0  0  0  0  0  0  0  0
   -1.4052   25.3098  -24.4219 H   0  0  0  0  0  0  0  0  0  0  0  0
   -0.6671   24.3657  -25.7600 H   0  0  0  0  0  0  0  0  0  0  0  0
   -0.5592   26.1587  -25.7600 H   0  0  0  0  0  0  0  0  0  0  0  0
   -3.3031   24.9015  -25.6912 H   0  0  0  0  0  0  0  0  0  0  0  0
   -2.7404   26.4345  -26.4656 H   0  0  0  0  0  0  0  0  0  0  0  0
   -0.7179   25.7400  -28.3304 H   0  0  0  0  0  0  0  0  0  0  0  0
   -0.3384   24.3345  -27.2567 H   0  0  0  0  0  0  0  0  0  0  0  0
   -0.5995   22.7806  -28.9596 H   0  0  0  0  0  0  0  0  0  0  0  0
   -1.7261   23.8244  -29.8912 H   0  0  0  0  0  0  0  0  0  0  0  0
    0.0348   24.1793  -29.8912 H   0  0  0  0  0  0  0  0  0  0  0  0
   -2.1954   22.6021  -27.9507 H   0  0  0  0  0  0  0  0  0  0  0  0
   -3.1317   23.0297  -26.4795 H   0  0  0  0  0  0  0  0  0  0  0  0
   -4.0106   22.8447  -29.3387 H   0  0  0  0  0  0  0  0  0  0  0  0
   -4.9344   22.5617  -27.8191 H   0  0  0  0  0  0  0  0  0  0  0  0
   -5.7390   24.5560  -27.9360 H   0  0  0  0  0  0  0  0  0  0  0  0
   -4.3047   23.0237  -32.1345 H   0  0  0  0  0  0  0  0  0  0  0  0
   -5.4402   21.0491  -33.1523 H   0  0  0  0  0  0  0  0  0  0  0  0
   -8.9387   21.8021  -30.7190 H   0  0  0  0  0  0  0  0  0  0  0  0
   -7.8038   23.7773  -29.6964 H   0  0  0  0  0  0  0  0  0  0  0  0
  1  2  1  0
  2  3  1  0
  3  4  1  0
  4  5  1  0
  3  6  1  0
  6  7  1  0
  7  8  1  0
  8  9  1  0
  9 10  2  0
  9 11  2  0
  9 12  1  0
 12 13  2  0
 13 14  1  0
 14 15  2  0
 15 16  1  0
 15 17  1  0
 17 18  2  0
 18 12  1  0
  1 19  1  0
  1 20  1  0
  1 21  1  0
  2 22  1  0
  2 23  1  0
  4 24  1  0
  4 25  1  0
  5 26  1  0
  5 27  1  0
  5 28  1  0
  6 29  1  0
  6 30  1  0
  7 31  1  0
  7 32  1  0
  8 33  1  0
 13 34  1  0
 14 35  1  0
 17 36  1  0
 18 37  1  0
M  END
>  <UniqueID>  (11) 
11

>  <SMILES>  (11) 
CCN(CC)CCNS(=O)(=O)c1ccc(Cl)cc1

>  <Energy>  (11) 
29.553088763894618

>  <Genealogy>  (11) 
CCN(CC)CCNS(=O)(=O)c1ccc(Cl)cc1 (3D coordinates assigned)
CCN(CC)CCNS(=O)(=O)c1ccc(Cl)cc1 (optimized conformer: 29.553088763894618 kcal/mol)

>  <smiles>  (11) 
CCN(CC)CCNS(=O)(=O)c1ccc(Cl)cc1

>  <score_type>  (11) 
oracle

>  <origin>  (11) 
adg

>  <m_score__min__energy>  (11) 
-7.4699999999999998

>  <m_primary>  (11) 
energy

$$$$
11:0
     RDKit          3D

 38 39  0  0  0  0  0  0  0  0999 V2000
   -5.0200   24.5260  -30.8070 C   0  0  0  0  0  0  0  0  0  0  0  0
   -5.1690   23.3160  -31.5400 O   0  0  0  0  0  0  0  0  0  0  0  0
   -6.3720   22.6050  -31.6580 C   0  0  0  0  0  0  0  0  0  0  0  0
   -7.5750   23.0380  -31.0480 C   0  0  0  0  0  0  0  0  0  0  0  0
   -8.7670   22.3010  -31.2070 C   0  0  0  0  0  0  0  0  0  0  0  0
   -8.7820   21.1260  -31.9740 C   0  0  0  0  0  0  0  0  0  0  0  0
   -7.5890   20.7150  -32.5630 C   0  0  0  0  0  0  0  0  0  0  0  0
   -7.4040   19.6260  -33.3280 N   0  0  0  0  0  0  0  0  0  0  0  0
   -6.0980   19.6310  -33.6750 C   0  0  0  0  0  0  0  0  0  0  0  0
   -5.4680   18.5560  -34.5050 C   0  0  0  0  0  0  0  0  0  0  0  0
   -5.4400   20.7290  -33.1100 C   0  0  0  0  0  0  0  0  0  0  0  0
   -3.9750   21.0620  -33.2080 C   0  0  0  0  0  0  0  0  0  0  0  0
   -3.1750   20.6450  -31.9560 C   0  0  0  0  0  0  0  0  0  0  0  0
   -3.1060   21.7140  -30.9230 N   0  0  0  0  0  0  0  0  0  0  0  0
   -3.4840   21.1810  -29.6010 C   0  0  0  0  0  0  0  0  0  0  0  0
   -1.7540   22.2990  -30.8410 C   0  0  0  0  0  0  0  0  0  0  0  0
   -6.4200   21.4210  -32.4090 C   0  0  0  0  0  0  0  0  0  0  0  0
   -5.0469   24.3075  -29.7293 H   0  0  0  0  0  0  0  0  0  0  0  0
   -4.0575   24.9933  -31.0625 H   0  0  0  0  0  0  0  0  0  0  0  0
   -5.8403   25.2128  -31.0625 H   0  0  0  0  0  0  0  0  0  0  0  0
   -7.5795   23.9577  -30.4446 H   0  0  0  0  0  0  0  0  0  0  0  0
   -9.6925   22.6502  -30.7258 H   0  0  0  0  0  0  0  0  0  0  0  0
   -9.7080   20.5472  -32.1060 H   0  0  0  0  0  0  0  0  0  0  0  0
   -8.1240   18.9180  -33.5950 H   0  0  0  0  0  0  0  0  0  0  0  0
   -5.0230   17.7967  -33.8452 H   0  0  0  0  0  0  0  0  0  0  0  0
   -6.2339   18.0866  -35.1398 H   0  0  0  0  0  0  0  0  0  0  0  0
   -4.6842   18.9949  -35.1398 H   0  0  0  0  0  0  0  0  0  0  0  0
   -3.5552   20.5414  -34.0813 H   0  0  0  0  0  0  0  0  0  0  0  0
   -3.8923   22.1549  -33.3014 H   0  0  0  0  0  0  0  0  0  0  0  0
   -3.6554   19.7604  -31.5125 H   0  0  0  0  0  0  0  0  0  0  0  0
   -2.1449   20.4360  -32.2802 H   0  0  0  0  0  0  0  0  0  0  0  0
   -3.7820   22.4810  -31.1490 H   0  0  0  0  0  0  0  0  0  0  0  0
   -3.0402   21.8068  -28.8128 H   0  0  0  0  0  0  0  0  0  0  0  0
   -4.5795   21.1889  -29.5021 H   0  0  0  0  0  0  0  0  0  0  0  0
   -3.1143   20.1497  -29.5021 H   0  0  0  0  0  0  0  0  0  0  0  0
   -1.4709   22.4215  -29.7851 H   0  0  0  0  0  0  0  0  0  0  0  0
   -1.0349   21.6315  -31.3384 H   0  0  0  0  0  0  0  0  0  0  0  0
   -1.7482   23.2801  -31.3384 H   0  0  0  0  0  0  0  0  0  0  0  0
  1  2  1  0
  2  3  1  0
  3  4  2  0
  4  5  1  0
  5  6  2  0
  6  7  1  0
  7  8  1  0
  8  9  1  0
  9 10  1  0
  9 11  2  0
 11 12  1  0
 12 13  1  0
 13 14  1  0
 14 15  1  0
 14 16  1  0
 11 17  1  0
 17  3  1  0
 17  7  2  0
  1 18  1  0
  1 19  1  0
  1 20  1  0
  4 21  1  0
  5 22  1  0
  6 23  1  0
  8 24  1  0
 10 25  1  0
 10 26  1  0
 10 27  1  0
 12 28  1  0
 12 29  1  0
 13 30  1  0
 13 31  1  0
 14 32  1  0
 15 33  1  0
 15 34  1  0
 15 35  1  0
 16 36  1  0
 16 37  1  0
 16 38  1  0
M  CHG  1  14   1
M  END
>  <UniqueID>  (12) 
12

>  <SMILES>  (12) 
COc1cccc2[nH]c(C)c(CC[NH+](C)C)c12

>  <Energy>  (12) 
68.82157512228083

>  <Genealogy>  (12) 
COc1cccc2[nH]c(C)c(CC[NH+](C)C)c12 (protonated)
COc1cccc2[nH]c(C)c(CC[NH+](C)C)c12 (3D coordinates assigned)
COc1cccc2[nH]c(C)c(CC[NH+](C)C)c12 (optimized conformer: 68.82157512228083 kcal/mol)

>  <smiles>  (12) 
COc1cccc2[nH]c(C)c(CCN(C)C)c12

>  <score_type>  (12) 
oracle

>  <origin>  (12) 
adg

>  <m_score__min__energy>  (12) 
-4.7599999999999998

>  <m_primary>  (12) 
energy

$$$$
12:0
     RDKit          3D

 31 32  0  0  0  0  0  0  0  0999 V2000
   -5.8830   25.1800  -31.5540 O   0  0  0  0  0  0  0  0  0  0  0  0
   -4.9580   24.4370  -31.1330 C   0  0  0  0  0  0  0  0  0  0  0  0
   -4.9530   22.9750  -31.5170 C   0  0  0  0  0  0  0  0  0  0  0  0
   -5.7810   22.6960  -32.7050 N   0  0  0  0  0  0  0  0  0  0  0  0
   -6.8390   21.7580  -32.4050 C   0  0  0  0  0  0  0  0  0  0  0  0
   -7.9070   22.1460  -31.5730 C   0  0  0  0  0  0  0  0  0  0  0  0
   -8.9540   21.2600  -31.3060 C   0  0  0  0  0  0  0  0  0  0  0  0
   -8.9480   19.9810  -31.8640 C   0  0  0  0  0  0  0  0  0  0  0  0
   -7.8930   19.5820  -32.6880 C   0  0  0  0  0  0  0  0  0  0  0  0
   -6.8410   20.4620  -32.9610 C   0  0  0  0  0  0  0  0  0  0  0  0
   -5.8290   20.0530  -33.7660 F   0  0  0  0  0  0  0  0  0  0  0  0
   -3.8450   25.0430  -30.4610 N   0  0  0  0  0  0  0  0  0  0  0  0
   -3.1520   24.5120  -29.3260 C   0  0  0  0  0  0  0  0  0  0  0  0
   -1.8470   24.9230  -29.0100 C   0  0  0  0  0  0  0  0  0  0  0  0
   -1.1800   24.3710  -27.9140 C   0  0  0  0  0  0  0  0  0  0  0  0
   -1.8030   23.3890  -27.1370 C   0  0  0  0  0  0  0  0  0  0  0  0
   -1.1550   22.8510  -26.0750 F   0  0  0  0  0  0  0  0  0  0  0  0
   -3.0900   22.9510  -27.4680 C   0  0  0  0  0  0  0  0  0  0  0  0
   -3.7590   23.5040  -28.5650 C   0  0  0  0  0  0  0  0  0  0  0  0
   -3.9177   22.6707  -31.7302 H   0  0  0  0  0  0  0  0  0  0  0  0
   -5.3781   22.4088  -30.6752 H   0  0  0  0  0  0  0  0  0  0  0  0
   -6.1670   23.5820  -33.1050 H   0  0  0  0  0  0  0  0  0  0  0  0
   -5.1670   22.2810  -33.4440 H   0  0  0  0  0  0  0  0  0  0  0  0
   -7.9170   23.1530  -31.1305 H   0  0  0  0  0  0  0  0  0  0  0  0
   -9.7842   21.5712  -30.6549 H   0  0  0  0  0  0  0  0  0  0  0  0
   -9.7748   19.2863  -31.6548 H   0  0  0  0  0  0  0  0  0  0  0  0
   -7.8897   18.5720  -33.1237 H   0  0  0  0  0  0  0  0  0  0  0  0
   -1.3477   25.6833  -29.6286 H   0  0  0  0  0  0  0  0  0  0  0  0
   -0.1640   24.7088  -27.6617 H   0  0  0  0  0  0  0  0  0  0  0  0
   -3.5765   22.1705  -26.8646 H   0  0  0  0  0  0  0  0  0  0  0  0
   -4.7647   23.1465  -28.8311 H   0  0  0  0  0  0  0  0  0  0  0  0
  1  2  2  0
  2  3  1  0
  3  4  1  0
  4  5  1  0
  5  6  2  0
  6  7  1  0
  7  8  2  0
  8  9  1  0
  9 10  2  0
 10 11  1  0
  2 12  1  0
 12 13  1  0
 13 14  2  0
 14 15  1  0
 15 16  2  0
 16 17  1  0
 16 18  1  0
 18 19  2  0
 10  5  1  0
 19 13  1  0
  3 20  1  0
  3 21  1  0
  4 22  1  0
  4 23  1  0
  6 24  1  0
  7 25  1  0
  8 26  1  0
  9 27  1  0
 14 28  1  0
 15 29  1  0
 18 30  1  0
 19 31  1  0
M  CHG  2   4   1  12  -1
M  END
>  <UniqueID>  (13) 
13

>  <SMILES>  (13) 
O=C(C[NH2+]c1ccccc1F)[N-]c1ccc(F)cc1

>  <Energy>  (13) 
37.96100997166881

>  <Genealogy>  (13) 
O=C(C[NH2+]c1ccccc1F)[N-]c1ccc(F)cc1 (protonated)
O=C(C[NH2+]c1ccccc1F)[N-]c1ccc(F)cc1 (3D coordinates assigned)
O=C(C[NH2+]c1ccccc1F)[N-]c1ccc(F)cc1 (optimized conformer: 37.96100997166881 kcal/mol)

>  <smiles>  (13) 
O=C(CNc1ccccc1F)Nc1ccc(F)cc1

>  <score_type>  (13) 
oracle

>  <origin>  (13) 
adg

>  <m_score__min__energy>  (13) 
-7.7000000000000002

>  <m_primary>  (13) 
energy

$$$$
13:0
     RDKit          3D

 44 46  0  0  0  0  0  0  0  0999 V2000
   -6.4390   15.2290  -34.2480 C   0  0  0  0  0  0  0  0  0  0  0  0
   -6.4490   16.6600  -33.7980 C   0  0  0  0  0  0  0  0  0  0  0  0
   -5.6680   17.6140  -34.4650 C   0  0  0  0  0  0  0  0  0  0  0  0
   -5.7120   18.9540  -34.0760 C   0  0  0  0  0  0  0  0  0  0  0  0
   -6.5410   19.3620  -33.0240 C   0  0  0  0  0  0  0  0  0  0  0  0
   -6.5810   20.7470  -32.6560 N   0  0  0  0  0  0  0  0  0  0  0  0
   -7.8650   21.3800  -32.3420 C   0  0  0  0  0  0  0  0  0  0  0  0
   -7.7160   22.2960  -31.1200 C   0  0  0  0  0  0  0  0  0  0  0  0
   -6.4770   23.0840  -31.1780 N   0  0  0  0  0  0  0  0  0  0  0  0
   -6.2460   24.0840  -30.1710 C   0  0  0  0  0  0  0  0  0  0  0  0
   -7.1810   24.8680  -29.8500 O   0  0  0  0  0  0  0  0  0  0  0  0
   -4.9430   24.2190  -29.4920 C   0  0  0  0  0  0  0  0  0  0  0  0
   -3.9310   24.9130  -30.0310 C   0  0  0  0  0  0  0  0  0  0  0  0
   -2.7300   25.0550  -29.3260 O   0  0  0  0  0  0  0  0  0  0  0  0
   -2.6290   24.7040  -27.9450 C   0  0  0  0  0  0  0  0  0  0  0  0
   -3.4530   23.4450  -27.6730 C   0  0  0  0  0  0  0  0  0  0  0  0
   -4.7510   23.5840  -28.2560 O   0  0  0  0  0  0  0  0  0  0  0  0
   -5.6020   23.0050  -32.3550 C   0  0  0  0  0  0  0  0  0  0  0  0
   -5.3480   21.5400  -32.7270 C   0  0  0  0  0  0  0  0  0  0  0  0
   -7.3290   18.4100  -32.3430 C   0  0  0  0  0  0  0  0  0  0  0  0
   -8.2420   18.8210  -31.2200 C   0  0  0  0  0  0  0  0  0  0  0  0
   -7.2920   17.0650  -32.7520 C   0  0  0  0  0  0  0  0  0  0  0  0
   -6.4344   14.5681  -33.3687 H   0  0  0  0  0  0  0  0  0  0  0  0
   -7.3358   15.0285  -34.8527 H   0  0  0  0  0  0  0  0  0  0  0  0
   -5.5395   15.0411  -34.8527 H   0  0  0  0  0  0  0  0  0  0  0  0
   -5.0184   17.3058  -35.2975 H   0  0  0  0  0  0  0  0  0  0  0  0
   -5.0906   19.6951  -34.6000 H   0  0  0  0  0  0  0  0  0  0  0  0
   -8.1977   21.9756  -33.2049 H   0  0  0  0  0  0  0  0  0  0  0  0
   -8.6065   20.5989  -32.1184 H   0  0  0  0  0  0  0  0  0  0  0  0
   -8.5740   22.9834  -31.0832 H   0  0  0  0  0  0  0  0  0  0  0  0
   -7.6779   21.6637  -30.2207 H   0  0  0  0  0  0  0  0  0  0  0  0
   -4.0439   25.3700  -31.0252 H   0  0  0  0  0  0  0  0  0  0  0  0
   -1.5756   24.5136  -27.6920 H   0  0  0  0  0  0  0  0  0  0  0  0
   -3.0124   25.5310  -27.3294 H   0  0  0  0  0  0  0  0  0  0  0  0
   -2.9458   22.5738  -28.1131 H   0  0  0  0  0  0  0  0  0  0  0  0
   -3.5545   23.3033  -26.5869 H   0  0  0  0  0  0  0  0  0  0  0  0
   -6.0838   23.5167  -33.2012 H   0  0  0  0  0  0  0  0  0  0  0  0
   -4.6417   23.4883  -32.1220 H   0  0  0  0  0  0  0  0  0  0  0  0
   -4.9521   21.4947  -33.7523 H   0  0  0  0  0  0  0  0  0  0  0  0
   -4.6259   21.1215  -32.0104 H   0  0  0  0  0  0  0  0  0  0  0  0
   -7.7586   18.6034  -30.2561 H   0  0  0  0  0  0  0  0  0  0  0  0
   -8.4488   19.8990  -31.2914 H   0  0  0  0  0  0  0  0  0  0  0  0
   -9.1861   18.2611  -31.2914 H   0  0  0  0  0  0  0  0  0  0  0  0
   -7.9295   16.3240  -32.2475 H   0  0  0  0  0  0  0  0  0  0  0  0
  1  2  1  0
  2  3  2  0
  3  4  1  0
  4  5  2  0
  5  6  1  0
  6  7  1  0
  7  8  1  0
  8  9  1  0
  9 10  1  0
 10 11  2  0
 10 12  1  0
 12 13  2  0
 13 14  1  0
 14 15  1  0
 15 16  1  0
 16 17  1  0
  9 18  1  0
 18 19  1  0
  5 20  1  0
 20 21  1  0
 20 22  2  0
 22  2  1  0
 19  6  1  0
 17 12  1  0
  1 23  1  0
  1 24  1  0
  1 25  1  0
  3 26  1  0
  4 27  1  0
  7 28  1  0
  7 29  1  0
  8 30  1  0
  8 31  1  0
 13 32  1  0
 15 33  1  0
 15 34  1  0
 16 35  1  0
 16 36  1  0
 18 37  1  0
 18 38  1  0
 19 39  1  0
 19 40  1  0
 21 41  1  0
 21 42  1  0
 21 43  1  0
 22 44  1  0
M  END
>  <UniqueID>  (14) 
14

>  <SMILES>  (14) 
Cc1ccc(N2CCN(C(=O)C3=COCCO3)CC2)c(C)c1

>  <Energy>  (14) 
52.10466072694192

>  <Genealogy>  (14) 
Cc1ccc(N2CCN(C(=O)C3=COCCO3)CC2)c(C)c1 (3D coordinates assigned)
Cc1ccc(N2CCN(C(=O)C3=COCCO3)CC2)c(C)c1 (nonaromatic ring conformer: 52.10466072694192 kcal/mol)

>  <smiles>  (14) 
Cc1ccc(N2CCN(C(=O)C3=COCCO3)CC2)c(C)c1

>  <score_type>  (14) 
oracle

>  <origin>  (14) 
adg

>  <m_score__min__energy>  (14) 
-7.9699999999999998

>  <m_primary>  (14) 
energy

$$$$
14:0
     RDKit          3D

 43 46  0  0  1  0  0  0  0  0999 V2000
   -5.9740   25.2820  -29.8330 C   0  0  0  0  0  0  0  0  0  0  0  0
   -6.0110   24.0130  -30.5940 C   0  0  0  0  0  0  0  0  0  0  0  0
   -7.2370   23.3910  -30.8220 C   0  0  0  0  0  0  0  0  0  0  0  0
   -7.3180   22.2070  -31.5260 C   0  0  0  0  0  0  0  0  0  0  0  0
   -6.1380   21.6460  -32.0060 C   0  0  0  0  0  0  0  0  0  0  0  0
   -4.9280   22.2740  -31.7720 C   0  0  0  0  0  0  0  0  0  0  0  0
   -4.8350   23.4600  -31.0680 C   0  0  0  0  0  0  0  0  0  0  0  0
   -3.5720   24.0770  -30.8470 N   0  0  0  0  0  0  0  0  0  0  0  0
   -2.8480   23.8250  -29.8120 C   0  0  0  0  0  0  0  0  0  0  0  0
   -2.0150   24.7810  -29.3570 N   0  0  0  0  0  0  0  0  0  0  0  0
   -1.2270   24.5900  -28.2800 C   0  0  0  0  0  0  0  0  0  0  0  0
   -0.4660   25.5110  -27.9120 N   0  0  0  0  0  0  0  0  0  0  0  0
   -0.8110   26.5860  -27.0750 C   0  0  0  0  0  0  0  0  0  0  0  0
   -1.4580   26.2730  -25.7640 C   0  0  0  0  0  0  0  0  0  0  0  0
   -1.5810   27.3260  -24.8940 F   0  0  0  0  0  0  0  0  0  0  0  0
   -2.6860   25.6220  -25.9410 F   0  0  0  0  0  0  0  0  0  0  0  0
   -0.7150   25.3260  -25.0370 F   0  0  0  0  0  0  0  0  0  0  0  0
   -1.2800   23.3970  -27.6400 C   0  0  0  0  0  0  0  0  0  0  0  0
   -0.6450   22.9000  -26.5500 C   0  0  0  0  0  0  0  0  0  0  0  0
   -1.1410   21.6340  -26.4040 N   0  0  0  0  0  0  0  0  0  0  0  0
   -2.0310   21.3480  -27.3360 N   0  0  0  0  0  0  0  0  0  0  0  0
   -2.7420   20.0850  -27.4590 C   0  0  0  0  0  0  0  0  0  0  0  0
   -2.7730   19.2110  -26.2610 C   0  0  0  0  0  0  0  0  0  0  0  0
   -1.7950   18.8600  -27.3180 C   0  0  0  0  0  0  0  0  0  0  0  0
   -2.1360   22.4330  -28.1190 C   0  0  0  0  0  0  0  0  0  0  0  0
   -2.9290   22.6250  -29.2040 N   0  0  0  0  0  0  0  0  0  0  0  0
   -5.9804   25.0634  -28.7550 H   0  0  0  0  0  0  0  0  0  0  0  0
   -5.0593   25.8367  -30.0892 H   0  0  0  0  0  0  0  0  0  0  0  0
   -6.8548   25.8890  -30.0892 H   0  0  0  0  0  0  0  0  0  0  0  0
   -8.1570   23.8523  -30.4337 H   0  0  0  0  0  0  0  0  0  0  0  0
   -8.2883   21.7199  -31.7030 H   0  0  0  0  0  0  0  0  0  0  0  0
   -6.1678   20.7030  -32.5716 H   0  0  0  0  0  0  0  0  0  0  0  0
   -4.0074   21.8135  -32.1598 H   0  0  0  0  0  0  0  0  0  0  0  0
   -1.9910   25.6820  -29.8580 H   0  0  0  0  0  0  0  0  0  0  0  0
    0.1129   27.1428  -26.8595 H   0  0  0  0  0  0  0  0  0  0  0  0
   -1.5795   27.1371  -27.6369 H   0  0  0  0  0  0  0  0  0  0  0  0
    0.1041   23.4040  -25.9216 H   0  0  0  0  0  0  0  0  0  0  0  0
   -3.5091   20.4474  -28.1591 H   0  0  0  0  0  0  0  0  0  0  0  0
   -2.4118   19.6006  -25.2978 H   0  0  0  0  0  0  0  0  0  0  0  0
   -3.5712   18.6520  -25.7507 H   0  0  0  0  0  0  0  0  0  0  0  0
   -0.7183   19.0083  -27.1484 H   0  0  0  0  0  0  0  0  0  0  0  0
   -1.5711   17.9652  -27.9173 H   0  0  0  0  0  0  0  0  0  0  0  0
   -3.5780   21.8960  -29.5690 H   0  0  0  0  0  0  0  0  0  0  0  0
  1  2  1  0
  2  3  2  0
  3  4  1  0
  4  5  2  0
  5  6  1  0
  6  7  2  0
  7  8  1  0
  8  9  2  0
  9 10  1  0
 10 11  1  0
 11 12  2  0
 12 13  1  0
 13 14  1  0
 14 15  1  0
 14 16  1  0
 14 17  1  0
 11 18  1  0
 18 19  1  0
 19 20  2  0
 20 21  1  0
 21 22  1  0
 22 23  1  0
 23 24  1  0
 21 25  1  0
 25 26  1  0
  7  2  1  0
 26  9  1  0
 25 18  2  0
 24 22  1  0
  1 27  1  0
  1 28  1  0
  1 29  1  0
  3 30  1  0
  4 31  1  0
  5 32  1  0
  6 33  1  0
 10 34  1  0
 13 35  1  0
 13 36  1  0
 19 37  1  0
 22 38  1  0
 23 39  1  0
 23 40  1  0
 24 41  1  0
 24 42  1  0
 26 43  1  0
M  END
>  <smiles>  (15) 
Cc1ccccc1N=c1[nH]c(=NCC(F)(F)F)c2cnn(C3CC3)c2[nH]1

>  <score_type>  (15) 
oracle

>  <origin>  (15) 
adg

>  <m_score__min__energy>  (15) 
-7.8399999999999999

>  <m_primary>  (15) 
energy

$$$$
15:0
     RDKit          3D

 58 60  0  0  0  0  0  0  0  0999 V2000
   -6.9030   18.1340  -33.3140 C   0  0  0  0  0  0  0  0  0  0  0  0
   -5.7390   19.0300  -33.7350 C   0  0  0  0  0  0  0  0  0  0  0  0
   -4.6820   19.1880  -32.6310 C   0  0  0  0  0  0  0  0  0  0  0  0
   -3.8850   20.4240  -32.7390 N   0  0  0  0  0  0  0  0  0  0  0  0
   -2.8760   20.6050  -33.7990 C   0  0  0  0  0  0  0  0  0  0  0  0
   -1.5450   21.1660  -33.2560 C   0  0  0  0  0  0  0  0  0  0  0  0
   -0.4230   21.1550  -34.2950 C   0  0  0  0  0  0  0  0  0  0  0  0
   -3.7100   21.1800  -31.5280 C   0  0  0  0  0  0  0  0  0  0  0  0
   -2.8850   20.6850  -30.5700 N   0  0  0  0  0  0  0  0  0  0  0  0
   -2.6680   21.3390  -29.4060 C   0  0  0  0  0  0  0  0  0  0  0  0
   -3.2940   22.5610  -29.1650 C   0  0  0  0  0  0  0  0  0  0  0  0
   -3.0240   23.2860  -27.8990 C   0  0  0  0  0  0  0  0  0  0  0  0
   -2.1610   22.8330  -27.0990 O   0  0  0  0  0  0  0  0  0  0  0  0
   -3.7050   24.5110  -27.5940 N   0  0  0  0  0  0  0  0  0  0  0  0
   -3.5740   25.1500  -26.2860 C   0  0  0  0  0  0  0  0  0  0  0  0
   -2.2290   25.7930  -26.1480 C   0  0  0  0  0  0  0  0  0  0  0  0
   -1.6220   26.1610  -24.9530 C   0  0  0  0  0  0  0  0  0  0  0  0
   -0.3240   26.6580  -25.1280 C   0  0  0  0  0  0  0  0  0  0  0  0
    0.0990   26.6650  -26.4530 C   0  0  0  0  0  0  0  0  0  0  0  0
   -1.1430   26.0490  -27.4080 S   0  0  0  0  0  0  0  0  0  0  0  0
   -4.1840   23.0520  -30.1390 C   0  0  0  0  0  0  0  0  0  0  0  0
   -4.8150   24.1220  -29.9190 O   0  0  0  0  0  0  0  0  0  0  0  0
   -4.3790   22.3630  -31.3150 N   0  0  0  0  0  0  0  0  0  0  0  0
   -5.3030   22.8950  -32.3390 C   0  0  0  0  0  0  0  0  0  0  0  0
   -6.7370   22.5040  -32.0650 C   0  0  0  0  0  0  0  0  0  0  0  0
   -7.0240   21.2240  -31.5620 C   0  0  0  0  0  0  0  0  0  0  0  0
   -8.3430   20.8470  -31.2940 C   0  0  0  0  0  0  0  0  0  0  0  0
   -9.3860   21.7520  -31.5030 C   0  0  0  0  0  0  0  0  0  0  0  0
   -9.1110   23.0400  -31.9670 C   0  0  0  0  0  0  0  0  0  0  0  0
   -7.7930   23.4210  -32.2390 C   0  0  0  0  0  0  0  0  0  0  0  0
   -6.9559   18.0933  -32.2160 H   0  0  0  0  0  0  0  0  0  0  0  0
   -7.8434   18.5436  -33.7115 H   0  0  0  0  0  0  0  0  0  0  0  0
   -6.7477   17.1201  -33.7115 H   0  0  0  0  0  0  0  0  0  0  0  0
   -5.2588   18.5897  -34.6213 H   0  0  0  0  0  0  0  0  0  0  0  0
   -6.1487   20.0285  -33.9477 H   0  0  0  0  0  0  0  0  0  0  0  0
   -5.1952   19.1908  -31.6581 H   0  0  0  0  0  0  0  0  0  0  0  0
   -3.9817   18.3464  -32.7368 H   0  0  0  0  0  0  0  0  0  0  0  0
   -2.6819   19.6309  -34.2717 H   0  0  0  0  0  0  0  0  0  0  0  0
   -3.2759   21.3317  -34.5215 H   0  0  0  0  0  0  0  0  0  0  0  0
   -1.7094   22.2033  -32.9288 H   0  0  0  0  0  0  0  0  0  0  0  0
   -1.2298   20.5180  -32.4249 H   0  0  0  0  0  0  0  0  0  0  0  0
    0.5506   21.1455  -33.7832 H   0  0  0  0  0  0  0  0  0  0  0  0
   -0.5151   20.2577  -34.9246 H   0  0  0  0  0  0  0  0  0  0  0  0
   -0.4975   22.0539  -34.9246 H   0  0  0  0  0  0  0  0  0  0  0  0
   -1.9972   20.9063  -28.6492 H   0  0  0  0  0  0  0  0  0  0  0  0
   -4.2590   24.9810  -28.3440 H   0  0  0  0  0  0  0  0  0  0  0  0
   -4.3547   25.9174  -26.1784 H   0  0  0  0  0  0  0  0  0  0  0  0
   -3.6839   24.3844  -25.5038 H   0  0  0  0  0  0  0  0  0  0  0  0
   -2.1103   26.0713  -23.9714 H   0  0  0  0  0  0  0  0  0  0  0  0
    0.3024   27.0100  -24.2951 H   0  0  0  0  0  0  0  0  0  0  0  0
    1.0776   27.0134  -26.8149 H   0  0  0  0  0  0  0  0  0  0  0  0
   -5.2296   23.9925  -32.3479 H   0  0  0  0  0  0  0  0  0  0  0  0
   -5.0144   22.4692  -33.3113 H   0  0  0  0  0  0  0  0  0  0  0  0
   -6.2048   20.5134  -31.3778 H   0  0  0  0  0  0  0  0  0  0  0  0
   -8.5598   19.8362  -30.9180 H   0  0  0  0  0  0  0  0  0  0  0  0
  -10.4245   21.4501  -31.3020 H   0  0  0  0  0  0  0  0  0  0  0  0
   -9.9321   23.7560  -32.1188 H   0  0  0  0  0  0  0  0  0  0  0  0
   -7.5796   24.4413  -32.5904 H   0  0  0  0  0  0  0  0  0  0  0  0
  1  2  1  0
  2  3  1  0
  3  4  1  0
  4  5  1  0
  5  6  1  0
  6  7  1  0
  4  8  1  0
  8  9  2  0
  9 10  1  0
 10 11  2  0
 11 12  1  0
 12 13  2  0
 12 14  1  0
 14 15  1  0
 15 16  1  0
 16 17  2  0
 17 18  1  0
 18 19  2  0
 19 20  1  0
 11 21  1  0
 21 22  2  0
 21 23  1  0
 23 24  1  0
 24 25  1  0
 25 26  2  0
 26 27  1  0
 27 28  2  0
 28 29  1  0
 29 30  2  0
 23  8  1  0
 30 25  1  0
 20 16  1  0
  1 31  1  0
  1 32  1  0
  1 33  1  0
  2 34  1  0
  2 35  1  0
  3 36  1  0
  3 37  1  0
  5 38  1  0
  5 39  1  0
  6 40  1  0
  6 41  1  0
  7 42  1  0
  7 43  1  0
  7 44  1  0
 10 45  1  0
 14 46  1  0
 15 47  1  0
 15 48  1  0
 17 49  1  0
 18 50  1  0
 19 51  1  0
 24 52  1  0
 24 53  1  0
 26 54  1  0
 27 55  1  0
 28 56  1  0
 29 57  1  0
 30 58  1  0
M  END
>  <UniqueID>  (16) 
15

>  <SMILES>  (16) 
CCCN(CCC)c1ncc(C(=O)NCc2cccs2)c(=O)n1Cc1ccccc1

>  <Energy>  (16) 
89.86069180044639

>  <Genealogy>  (16) 
CCCN(CCC)c1ncc(C(=O)NCc2cccs2)c(=O)n1Cc1ccccc1 (3D coordinates assigned)
CCCN(CCC)c1ncc(C(=O)NCc2cccs2)c(=O)n1Cc1ccccc1 (optimized conformer: 89.86069180044639 kcal/mol)

>  <smiles>  (16) 
CCCN(CCC)c1ncc(C(=O)NCc2cccs2)c(=O)n1Cc1ccccc1

>  <score_type>  (16) 
oracle

>  <origin>  (16) 
adg

>  <m_score__min__energy>  (16) 
-8.2599999999999998

>  <m_primary>  (16) 
energy

$$$$
16:0
     RDKit          3D

 28 29  0  0  0  0  0  0  0  0999 V2000
   -8.9240   19.0460  -31.9750 C   0  0  0  0  0  0  0  0  0  0  0  0
   -9.0830   20.1670  -32.6840 C   0  0  0  0  0  0  0  0  0  0  0  0
   -9.1920   21.5130  -32.0210 C   0  0  0  0  0  0  0  0  0  0  0  0
   -8.4840   21.5550  -30.6580 C   0  0  0  0  0  0  0  0  0  0  0  0
   -7.2080   22.3800  -30.7070 C   0  0  0  0  0  0  0  0  0  0  0  0
   -7.2410   23.6000  -30.1340 C   0  0  0  0  0  0  0  0  0  0  0  0
   -6.0810   24.4990  -30.1500 C   0  0  0  0  0  0  0  0  0  0  0  0
   -6.1500   25.6270  -29.5940 O   0  0  0  0  0  0  0  0  0  0  0  0
   -4.8510   24.0730  -30.8180 C   0  0  0  0  0  0  0  0  0  0  0  0
   -3.8470   24.8360  -30.8410 O   0  0  0  0  0  0  0  0  0  0  0  0
   -4.8140   22.7440  -31.4600 C   0  0  0  0  0  0  0  0  0  0  0  0
   -3.6500   22.3090  -32.1170 C   0  0  0  0  0  0  0  0  0  0  0  0
   -3.6090   21.0560  -32.7250 C   0  0  0  0  0  0  0  0  0  0  0  0
   -4.7240   20.2250  -32.6830 C   0  0  0  0  0  0  0  0  0  0  0  0
   -5.8890   20.6400  -32.0330 C   0  0  0  0  0  0  0  0  0  0  0  0
   -5.9610   21.9060  -31.4120 C   0  0  0  0  0  0  0  0  0  0  0  0
   -8.8474   18.0764  -32.4889 H   0  0  0  0  0  0  0  0  0  0  0  0
   -8.8696   19.0925  -30.8773 H   0  0  0  0  0  0  0  0  0  0  0  0
   -9.1356   20.1042  -33.7809 H   0  0  0  0  0  0  0  0  0  0  0  0
   -8.7370   22.2683  -32.6786 H   0  0  0  0  0  0  0  0  0  0  0  0
  -10.2594   21.7167  -31.8503 H   0  0  0  0  0  0  0  0  0  0  0  0
   -9.1655   21.9978  -29.9168 H   0  0  0  0  0  0  0  0  0  0  0  0
   -8.2135   20.5250  -30.3825 H   0  0  0  0  0  0  0  0  0  0  0  0
   -8.1658   23.9318  -29.6393 H   0  0  0  0  0  0  0  0  0  0  0  0
   -2.7656   22.9621  -32.1514 H   0  0  0  0  0  0  0  0  0  0  0  0
   -2.6947   20.7237  -33.2384 H   0  0  0  0  0  0  0  0  0  0  0  0
   -4.6882   19.2364  -33.1639 H   0  0  0  0  0  0  0  0  0  0  0  0
   -6.7620   19.9714  -32.0047 H   0  0  0  0  0  0  0  0  0  0  0  0
  1  2  2  0
  2  3  1  0
  3  4  1  0
  4  5  1  0
  5  6  2  0
  6  7  1  0
  7  8  2  0
  7  9  1  0
  9 10  2  0
  9 11  1  0
 11 12  2  0
 12 13  1  0
 13 14  2  0
 14 15  1  0
 15 16  2  0
 16  5  1  0
 16 11  1  0
  1 17  1  0
  1 18  1  0
  2 19  1  0
  3 20  1  0
  3 21  1  0
  4 22  1  0
  4 23  1  0
  6 24  1  0
 12 25  1  0
 13 26  1  0
 14 27  1  0
 15 28  1  0
M  END
>  <UniqueID>  (17) 
16

>  <SMILES>  (17) 
C=CCCC1=CC(=O)C(=O)c2ccccc21

>  <Energy>  (17) 
27.26463177564556

>  <Genealogy>  (17) 
C=CCCC1=CC(=O)C(=O)c2ccccc21 (3D coordinates assigned)
C=CCCC1=CC(=O)C(=O)c2ccccc21 (nonaromatic ring conformer: 27.26463177564556 kcal/mol)

>  <smiles>  (17) 
C=CCCC1=CC(=O)C(=O)c2ccccc21

>  <score_type>  (17) 
oracle

>  <origin>  (17) 
adg

>  <m_score__min__energy>  (17) 
-7.7400000000000002

>  <m_primary>  (17) 
energy

$$$$
17:0
     RDKit          3D

 39 42  0  0  0  0  0  0  0  0999 V2000
   -6.5180   14.8790  -34.2180 C   0  0  0  0  0  0  0  0  0  0  0  0
   -7.1830   16.1380  -34.2090 O   0  0  0  0  0  0  0  0  0  0  0  0
   -6.6840   17.2920  -33.5870 C   0  0  0  0  0  0  0  0  0  0  0  0
   -7.1260   17.7200  -32.3210 C   0  0  0  0  0  0  0  0  0  0  0  0
   -6.5980   18.8790  -31.7440 C   0  0  0  0  0  0  0  0  0  0  0  0
   -5.6340   19.6340  -32.4270 C   0  0  0  0  0  0  0  0  0  0  0  0
   -5.0620   20.8430  -31.7940 C   0  0  0  0  0  0  0  0  0  0  0  0
   -3.9430   20.6840  -31.0420 N   0  0  0  0  0  0  0  0  0  0  0  0
   -3.3150   21.7290  -30.4590 C   0  0  0  0  0  0  0  0  0  0  0  0
   -2.2240   21.5090  -29.7340 O   0  0  0  0  0  0  0  0  0  0  0  0
   -1.5450   22.4850  -29.1420 C   0  0  0  0  0  0  0  0  0  0  0  0
   -0.4050   22.1760  -28.3910 C   0  0  0  0  0  0  0  0  0  0  0  0
    0.3200   23.1930  -27.7650 C   0  0  0  0  0  0  0  0  0  0  0  0
   -0.0910   24.5230  -27.8830 C   0  0  0  0  0  0  0  0  0  0  0  0
   -1.2290   24.8440  -28.6300 C   0  0  0  0  0  0  0  0  0  0  0  0
   -1.9660   23.8270  -29.2660 C   0  0  0  0  0  0  0  0  0  0  0  0
   -3.1180   24.1010  -30.0260 C   0  0  0  0  0  0  0  0  0  0  0  0
   -3.5200   25.2910  -30.1550 O   0  0  0  0  0  0  0  0  0  0  0  0
   -3.8120   23.0320  -30.6370 C   0  0  0  0  0  0  0  0  0  0  0  0
   -4.9830   23.1920  -31.4100 C   0  0  0  0  0  0  0  0  0  0  0  0
   -5.4540   24.3480  -31.6060 O   0  0  0  0  0  0  0  0  0  0  0  0
   -5.6160   22.0950  -31.9480 N   0  0  0  0  0  0  0  0  0  0  0  0
   -6.8750   22.2820  -32.6950 C   0  0  0  0  0  0  0  0  0  0  0  0
   -5.1780   19.1960  -33.6790 C   0  0  0  0  0  0  0  0  0  0  0  0
   -5.7050   18.0380  -34.2560 C   0  0  0  0  0  0  0  0  0  0  0  0
   -6.3437   14.5490  -33.1832 H   0  0  0  0  0  0  0  0  0  0  0  0
   -7.1425   14.1382  -34.7389 H   0  0  0  0  0  0  0  0  0  0  0  0
   -5.5541   14.9772  -34.7389 H   0  0  0  0  0  0  0  0  0  0  0  0
   -7.8903   17.1400  -31.7831 H   0  0  0  0  0  0  0  0  0  0  0  0
   -6.9406   19.2001  -30.7493 H   0  0  0  0  0  0  0  0  0  0  0  0
   -0.0791   21.1299  -28.2935 H   0  0  0  0  0  0  0  0  0  0  0  0
    1.2167   22.9459  -27.1777 H   0  0  0  0  0  0  0  0  0  0  0  0
    0.4821   25.3201  -27.3869 H   0  0  0  0  0  0  0  0  0  0  0  0
   -1.5486   25.8926  -28.7207 H   0  0  0  0  0  0  0  0  0  0  0  0
   -7.7070   22.4056  -31.9862 H   0  0  0  0  0  0  0  0  0  0  0  0
   -6.7962   23.1783  -33.3278 H   0  0  0  0  0  0  0  0  0  0  0  0
   -7.0601   21.4015  -33.3278 H   0  0  0  0  0  0  0  0  0  0  0  0
   -4.4016   19.7671  -34.2092 H   0  0  0  0  0  0  0  0  0  0  0  0
   -5.3484   17.7094  -35.2434 H   0  0  0  0  0  0  0  0  0  0  0  0
  1  2  1  0
  2  3  1  0
  3  4  2  0
  4  5  1  0
  5  6  2  0
  6  7  1  0
  7  8  2  0
  8  9  1  0
  9 10  1  0
 10 11  1  0
 11 12  2  0
 12 13  1  0
 13 14  2  0
 14 15  1  0
 15 16  2  0
 16 17  1  0
 17 18  2  0
 17 19  1  0
 19 20  1  0
 20 21  2  0
 20 22  1  0
 22 23  1  0
  6 24  1  0
 24 25  2  0
 25  3  1  0
 22  7  1  0
 19  9  2  0
 16 11  1  0
  1 26  1  0
  1 27  1  0
  1 28  1  0
  4 29  1  0
  5 30  1  0
 12 31  1  0
 13 32  1  0
 14 33  1  0
 15 34  1  0
 23 35  1  0
 23 36  1  0
 23 37  1  0
 24 38  1  0
 25 39  1  0
M  END
>  <UniqueID>  (18) 
17

>  <SMILES>  (18) 
COc1ccc(-c2nc3oc4ccccc4c(=O)c3c(=O)n2C)cc1

>  <Energy>  (18) 
65.26286090586358

>  <Genealogy>  (18) 
COc1ccc(-c2nc3oc4ccccc4c(=O)c3c(=O)n2C)cc1 (3D coordinates assigned)
COc1ccc(-c2nc3oc4ccccc4c(=O)c3c(=O)n2C)cc1 (optimized conformer: 65.26286090586358 kcal/mol)

>  <smiles>  (18) 
COc1ccc(-c2nc3oc4ccccc4c(=O)c3c(=O)n2C)cc1

>  <score_type>  (18) 
oracle

>  <origin>  (18) 
adg

>  <m_score__min__energy>  (18) 
-7.6900000000000004

>  <m_primary>  (18) 
energy

$$$$
18:0
     RDKit          3D

 27 26  0  0  0  0  0  0  0  0999 V2000
   -9.3730   22.1710  -31.9160 C   0  0  0  0  0  0  0  0  0  0  0  0
   -8.2540   21.3980  -31.2260 C   0  0  0  0  0  0  0  0  0  0  0  0
   -7.2630   20.9460  -32.2120 N   0  0  0  0  0  0  0  0  0  0  0  0
   -7.5550   19.7350  -32.9980 C   0  0  0  0  0  0  0  0  0  0  0  0
   -8.0940   18.6290  -32.0980 C   0  0  0  0  0  0  0  0  0  0  0  0
   -5.9920   21.6280  -32.3400 C   0  0  0  0  0  0  0  0  0  0  0  0
   -4.6400   20.8240  -32.8090 S   0  0  0  0  0  0  0  0  0  0  0  0
   -5.8810   23.4160  -32.1890 S   0  0  0  0  0  0  0  0  0  0  0  0
   -5.2280   23.3840  -30.4840 C   0  0  0  0  0  0  0  0  0  0  0  0
   -5.0720   24.8040  -29.9440 C   0  0  0  0  0  0  0  0  0  0  0  0
   -4.1770   25.5840  -30.7940 N   0  0  0  0  0  0  0  0  0  0  0  0
  -10.0281   22.6235  -31.1570 H   0  0  0  0  0  0  0  0  0  0  0  0
   -8.9385   22.9625  -32.5443 H   0  0  0  0  0  0  0  0  0  0  0  0
   -9.9595   21.4845  -32.5443 H   0  0  0  0  0  0  0  0  0  0  0  0
   -7.7620   22.0512  -30.4903 H   0  0  0  0  0  0  0  0  0  0  0  0
   -8.6838   20.5196  -30.7223 H   0  0  0  0  0  0  0  0  0  0  0  0
   -8.3055   19.9744  -33.7657 H   0  0  0  0  0  0  0  0  0  0  0  0
   -6.6252   19.3861  -33.4710 H   0  0  0  0  0  0  0  0  0  0  0  0
   -7.9554   18.9134  -31.0445 H   0  0  0  0  0  0  0  0  0  0  0  0
   -9.1651   18.4812  -32.3000 H   0  0  0  0  0  0  0  0  0  0  0  0
   -7.5504   17.6943  -32.3000 H   0  0  0  0  0  0  0  0  0  0  0  0
   -5.9241   22.8264  -29.8402 H   0  0  0  0  0  0  0  0  0  0  0  0
   -4.2425   22.8954  -30.4897 H   0  0  0  0  0  0  0  0  0  0  0  0
   -6.0584   25.2901  -29.9162 H   0  0  0  0  0  0  0  0  0  0  0  0
   -4.6432   24.7525  -28.9323 H   0  0  0  0  0  0  0  0  0  0  0  0
   -4.7400   25.9850  -31.5810 H   0  0  0  0  0  0  0  0  0  0  0  0
   -3.4920   24.9240  -31.2260 H   0  0  0  0  0  0  0  0  0  0  0  0
  1  2  1  0
  2  3  1  0
  3  4  1  0
  4  5  1  0
  3  6  1  0
  6  7  2  0
  6  8  1  0
  8  9  1  0
  9 10  1  0
 10 11  1  0
  1 12  1  0
  1 13  1  0
  1 14  1  0
  2 15  1  0
  2 16  1  0
  4 17  1  0
  4 18  1  0
  5 19  1  0
  5 20  1  0
  5 21  1  0
  9 22  1  0
  9 23  1  0
 10 24  1  0
 10 25  1  0
 11 26  1  0
 11 27  1  0
M  END
>  <UniqueID>  (19) 
18

>  <SMILES>  (19) 
CCN(CC)C(=S)SCCN

>  <Energy>  (19) 
11.087181988179927

>  <Genealogy>  (19) 
CCN(CC)C(=S)SCCN (3D coordinates assigned)
CCN(CC)C(=S)SCCN (optimized conformer: 11.087181988179927 kcal/mol)

>  <smiles>  (19) 
CCN(CC)C(=S)SCCN

>  <score_type>  (19) 
oracle

>  <origin>  (19) 
adg

>  <m_score__min__energy>  (19) 
-5.7699999999999996

>  <m_primary>  (19) 
energy

$$$$
19:0
     RDKit          3D

 41 43  0  0  0  0  0  0  0  0999 V2000
   -8.3059   18.3259  -30.7667 H   0  0  0  0  0  0  0  0  0  0  0  0
   -7.7580   18.6980  -31.6450 C   0  0  0  0  0  0  0  0  0  0  0  0
   -8.1000   19.7220  -32.4180 C   0  0  0  0  0  0  0  0  0  0  0  0
   -9.2930   20.5800  -32.2740 C   0  0  0  0  0  0  0  0  0  0  0  0
  -10.2688   20.1667  -32.5692 H   0  0  0  0  0  0  0  0  0  0  0  0
   -9.2530   21.8360  -31.8030 C   0  0  0  0  0  0  0  0  0  0  0  0
  -10.2055   22.3615  -31.6402 H   0  0  0  0  0  0  0  0  0  0  0  0
   -7.9920   22.5540  -31.4900 C   0  0  0  0  0  0  0  0  0  0  0  0
   -7.4820   22.6520  -30.1810 C   0  0  0  0  0  0  0  0  0  0  0  0
   -8.0301   22.1923  -29.3454 H   0  0  0  0  0  0  0  0  0  0  0  0
   -6.2830   23.3300  -29.9360 C   0  0  0  0  0  0  0  0  0  0  0  0
   -5.8989   23.4075  -28.9082 H   0  0  0  0  0  0  0  0  0  0  0  0
   -5.5660   23.9130  -30.9960 C   0  0  0  0  0  0  0  0  0  0  0  0
   -4.3610   24.6040  -30.8000 O   0  0  0  0  0  0  0  0  0  0  0  0
   -3.3680   24.2350  -29.8490 C   0  0  0  0  0  0  0  0  0  0  0  0
   -3.7617   24.3813  -28.8323 H   0  0  0  0  0  0  0  0  0  0  0  0
   -3.1004   23.1774  -29.9899 H   0  0  0  0  0  0  0  0  0  0  0  0
   -2.4747   24.8612  -29.9899 H   0  0  0  0  0  0  0  0  0  0  0  0
   -6.0650   23.8020  -32.2970 C   0  0  0  0  0  0  0  0  0  0  0  0
   -5.5100   24.2515  -33.1336 H   0  0  0  0  0  0  0  0  0  0  0  0
   -7.2630   23.1250  -32.5450 C   0  0  0  0  0  0  0  0  0  0  0  0
   -7.6375   23.0391  -33.5757 H   0  0  0  0  0  0  0  0  0  0  0  0
   -7.1780   19.9150  -33.4450 O   0  0  0  0  0  0  0  0  0  0  0  0
   -6.1080   18.9720  -33.3760 C   0  0  2  0  0  0  0  0  0  0  0  0
   -4.7690   19.6640  -33.1500 C   0  0  0  0  0  0  0  0  0  0  0  0
   -4.6530   20.7690  -32.2790 C   0  0  0  0  0  0  0  0  0  0  0  0
   -5.5407   21.1373  -31.7439 H   0  0  0  0  0  0  0  0  0  0  0  0
   -3.4190   21.3990  -32.0910 C   0  0  0  0  0  0  0  0  0  0  0  0
   -3.3399   22.2566  -31.4067 H   0  0  0  0  0  0  0  0  0  0  0  0
   -2.2870   20.9430  -32.7690 C   0  0  0  0  0  0  0  0  0  0  0  0
   -1.3170   21.4389  -32.6164 H   0  0  0  0  0  0  0  0  0  0  0  0
   -2.3870   19.8570  -33.6410 C   0  0  0  0  0  0  0  0  0  0  0  0
   -1.4954   19.4998  -34.1772 H   0  0  0  0  0  0  0  0  0  0  0  0
   -3.6170   19.2230  -33.8340 C   0  0  0  0  0  0  0  0  0  0  0  0
   -3.6877   18.3712  -34.5265 H   0  0  0  0  0  0  0  0  0  0  0  0
   -6.1000   18.1240  -34.6530 C   0  0  0  0  0  0  0  0  0  0  0  0
   -6.0899   17.0573  -34.3847 H   0  0  0  0  0  0  0  0  0  0  0  0
   -7.0003   18.3446  -35.2453 H   0  0  0  0  0  0  0  0  0  0  0  0
   -5.2041   18.3616  -35.2453 H   0  0  0  0  0  0  0  0  0  0  0  0
   -6.5220   18.1660  -32.1840 C   0  0  0  0  0  0  0  0  0  0  0  0
   -5.9180   17.1590  -31.7260 O   0  0  0  0  0  0  0  0  0  0  0  0
  1  2  1  0
  2  3  2  0
  3  4  1  0
  4  5  1  0
  4  6  2  0
  6  7  1  0
  6  8  1  0
  8  9  2  0
  9 10  1  0
  9 11  1  0
 11 12  1  0
 11 13  2  0
 13 14  1  0
 14 15  1  0
 15 16  1  0
 15 17  1  0
 15 18  1  0
 13 19  1  0
 19 20  1  0
 19 21  2  0
 21 22  1  0
  3 23  1  0
 23 24  1  0
 24 25  1  0
 25 26  2  0
 26 27  1  0
 26 28  1  0
 28 29  1  0
 28 30  2  0
 30 31  1  0
 30 32  1  0
 32 33  1  0
 32 34  2  0
 34 35  1  0
 24 36  1  6
 36 37  1  0
 36 38  1  0
 36 39  1  0
 24 40  1  0
 40 41  2  0
 40  2  1  0
 21  8  1  0
 34 25  1  0
M  END
>  <UniqueID>  (20) 
19

>  <SMILES>  (20) 
COc1ccc(/C=C/C2=CC(=O)[C@](C)(c3ccccc3)O2)cc1

>  <Energy>  (20) 
63.35774037184214

>  <Genealogy>  (20) 
COc1ccc(C=CC2=CC(=O)[C@](C)(c3ccccc3)O2)cc1 (chirality)
COc1ccc(/C=C/C2=CC(=O)[C@](C)(c3ccccc3)O2)cc1 (cis-trans isomerization)
COc1ccc(/C=C/C2=CC(=O)[C@](C)(c3ccccc3)O2)cc1 (3D coordinates assigned)
COc1ccc(/C=C/C2=CC(=O)[C@](C)(c3ccccc3)O2)cc1 (nonaromatic ring conformer: 63.35774037184214 kcal/mol)

>  <smiles>  (20) 
COc1ccc(C=CC2=CC(=O)C(C)(c3ccccc3)O2)cc1

>  <score_type>  (20) 
oracle

>  <origin>  (20) 
adg

>  <m_score__min__energy>  (20) 
-9.0299999999999994

>  <m_primary>  (20) 
energy

$$$$
20:0
     RDKit          3D

 56 59  0  0  1  0  0  0  0  0999 V2000
    0.0270   20.4930  -31.5590 C   0  0  0  0  0  0  0  0  0  0  0  0
   -0.2630   21.5940  -30.7130 O   0  0  0  0  0  0  0  0  0  0  0  0
   -0.9330   21.3500  -29.5240 C   0  0  0  0  0  0  0  0  0  0  0  0
   -1.0850   20.0730  -28.9970 C   0  0  0  0  0  0  0  0  0  0  0  0
   -1.7550   19.8380  -27.8110 C   0  0  0  0  0  0  0  0  0  0  0  0
   -2.3080   20.8940  -27.0930 C   0  0  0  0  0  0  0  0  0  0  0  0
   -2.1490   22.1530  -27.6270 C   0  0  0  0  0  0  0  0  0  0  0  0
   -1.4810   22.3940  -28.8140 C   0  0  0  0  0  0  0  0  0  0  0  0
   -1.4090   23.8140  -29.2560 C   0  0  0  0  0  0  0  0  0  0  0  0
   -2.6690   24.3870  -29.5930 N   0  0  0  0  0  0  0  0  0  0  0  0
   -3.4190   23.7210  -30.4310 C   0  0  0  0  0  0  0  0  0  0  0  0
   -2.9110   22.8380  -31.3090 N   0  0  0  0  0  0  0  0  0  0  0  0
   -3.6490   22.1490  -32.1950 C   0  0  0  0  0  0  0  0  0  0  0  0
   -3.0320   21.1850  -33.1500 C   0  0  0  0  0  0  0  0  0  0  0  0
   -4.9900   22.3270  -32.2360 N   0  0  0  0  0  0  0  0  0  0  0  0
   -5.5730   23.2090  -31.3720 C   0  0  0  0  0  0  0  0  0  0  0  0
   -4.8010   23.9170  -30.4610 C   0  0  0  0  0  0  0  0  0  0  0  0
   -5.6380   24.6900  -29.7670 N   0  0  0  0  0  0  0  0  0  0  0  0
   -6.9050   24.5060  -30.1970 C   0  0  0  0  0  0  0  0  0  0  0  0
   -6.8570   23.5970  -31.1800 N   0  0  0  0  0  0  0  0  0  0  0  0
   -7.9350   23.0360  -31.9890 C   0  0  0  0  0  0  0  0  0  0  0  0
   -8.5260   21.8560  -31.2910 C   0  0  0  0  0  0  0  0  0  0  0  0
   -7.8390   20.6190  -31.6160 N   0  0  0  0  0  0  0  0  0  0  0  0
   -7.3050   20.6740  -32.9740 C   0  0  0  0  0  0  0  0  0  0  0  0
   -6.3940   19.4790  -33.2020 C   0  0  0  0  0  0  0  0  0  0  0  0
   -7.1860   18.1900  -33.0310 C   0  0  0  0  0  0  0  0  0  0  0  0
   -7.9110   18.2030  -31.7150 C   0  0  0  0  0  0  0  0  0  0  0  0
   -8.7200   19.4690  -31.4980 C   0  0  0  0  0  0  0  0  0  0  0  0
    0.2595   19.6103  -30.9452 H   0  0  0  0  0  0  0  0  0  0  0  0
   -0.8453   20.2787  -32.1939 H   0  0  0  0  0  0  0  0  0  0  0  0
    0.8917   20.7362  -32.1939 H   0  0  0  0  0  0  0  0  0  0  0  0
   -0.6571   19.2193  -29.5429 H   0  0  0  0  0  0  0  0  0  0  0  0
   -1.8517   18.8097  -27.4324 H   0  0  0  0  0  0  0  0  0  0  0  0
   -2.8449   20.7311  -26.1468 H   0  0  0  0  0  0  0  0  0  0  0  0
   -2.5741   23.0093  -27.0829 H   0  0  0  0  0  0  0  0  0  0  0  0
   -0.9678   24.4067  -28.4411 H   0  0  0  0  0  0  0  0  0  0  0  0
   -0.8008   23.8285  -30.1724 H   0  0  0  0  0  0  0  0  0  0  0  0
   -1.8720   22.6330  -31.3440 H   0  0  0  0  0  0  0  0  0  0  0  0
   -2.5221   20.3883  -32.5886 H   0  0  0  0  0  0  0  0  0  0  0  0
   -3.8158   20.7435  -33.7831 H   0  0  0  0  0  0  0  0  0  0  0  0
   -2.3029   21.7119  -33.7831 H   0  0  0  0  0  0  0  0  0  0  0  0
   -7.8056   25.0074  -29.8129 H   0  0  0  0  0  0  0  0  0  0  0  0
   -8.7131   23.7986  -32.1408 H   0  0  0  0  0  0  0  0  0  0  0  0
   -7.5330   22.7196  -32.9628 H   0  0  0  0  0  0  0  0  0  0  0  0
   -8.4633   22.0201  -30.2051 H   0  0  0  0  0  0  0  0  0  0  0  0
   -9.5696   21.7574  -31.6243 H   0  0  0  0  0  0  0  0  0  0  0  0
   -8.1340   20.6477  -33.6966 H   0  0  0  0  0  0  0  0  0  0  0  0
   -6.7343   21.6046  -33.1091 H   0  0  0  0  0  0  0  0  0  0  0  0
   -5.9819   19.5225  -34.2210 H   0  0  0  0  0  0  0  0  0  0  0  0
   -5.5730   19.5019  -32.4702 H   0  0  0  0  0  0  0  0  0  0  0  0
   -7.9165   18.1002  -33.8485 H   0  0  0  0  0  0  0  0  0  0  0  0
   -6.4939   17.3353  -33.0535 H   0  0  0  0  0  0  0  0  0  0  0  0
   -8.5931   17.3407  -31.6817 H   0  0  0  0  0  0  0  0  0  0  0  0
   -7.1522   18.1561  -30.9200 H   0  0  0  0  0  0  0  0  0  0  0  0
   -9.5144   19.5336  -32.2561 H   0  0  0  0  0  0  0  0  0  0  0  0
   -9.1767   19.4515  -30.4974 H   0  0  0  0  0  0  0  0  0  0  0  0
  1  2  1  0
  2  3  1  0
  3  4  2  0
  4  5  1  0
  5  6  2  0
  6  7  1  0
  7  8  2  0
  8  9  1  0
  9 10  1  0
 10 11  2  0
 11 12  1  0
 12 13  1  0
 13 14  1  0
 13 15  2  0
 15 16  1  0
 16 17  2  0
 17 18  1  0
 18 19  2  0
 19 20  1  0
 20 21  1  0
 21 22  1  0
 22 23  1  0
 23 24  1  0
 24 25  1  0
 25 26  1  0
 26 27  1  0
 27 28  1  0
  8  3  1  0
 17 11  1  0
 28 23  1  0
 20 16  1  0
  1 29  1  0
  1 30  1  0
  1 31  1  0
  4 32  1  0
  5 33  1  0
  6 34  1  0
  7 35  1  0
  9 36  1  0
  9 37  1  0
 12 38  1  0
 14 39  1  0
 14 40  1  0
 14 41  1  0
 19 42  1  0
 21 43  1  0
 21 44  1  0
 22 45  1  0
 22 46  1  0
 24 47  1  0
 24 48  1  0
 25 49  1  0
 25 50  1  0
 26 51  1  0
 26 52  1  0
 27 53  1  0
 27 54  1  0
 28 55  1  0
 28 56  1  0
M  END
>  <smiles>  (21) 
COc1ccccc1CN=c1[nH]c(C)nc2c1ncn2CCN1CCCCC1

>  <score_type>  (21) 
oracle

>  <origin>  (21) 
adg

>  <m_score__min__energy>  (21) 
-9.3800000000000008

>  <m_primary>  (21) 
energy

$$$$
21:0
     RDKit          3D

 40 41  0  0  0  0  0  0  0  0999 V2000
   -1.0950   21.4700  -32.0080 C   0  0  0  0  0  0  0  0  0  0  0  0
   -0.2000   21.1870  -33.2270 C   0  0  0  0  0  0  0  0  0  0  0  0
   -0.9390   20.7100  -34.4250 N   0  0  0  0  0  0  0  0  0  0  0  0
   -0.0880   20.7980  -35.6410 C   0  0  0  0  0  0  0  0  0  0  0  0
    0.6290   22.1440  -35.7670 C   0  0  0  0  0  0  0  0  0  0  0  0
   -1.5060   19.3440  -34.2120 C   0  0  0  0  0  0  0  0  0  0  0  0
   -2.9830   19.3810  -33.7810 C   0  0  0  0  0  0  0  0  0  0  0  0
   -3.4260   20.7300  -33.6190 O   0  0  0  0  0  0  0  0  0  0  0  0
   -4.6590   21.1310  -33.0790 C   0  0  0  0  0  0  0  0  0  0  0  0
   -4.8440   22.3740  -32.4430 C   0  0  0  0  0  0  0  0  0  0  0  0
   -6.0920   22.7260  -31.9230 C   0  0  0  0  0  0  0  0  0  0  0  0
   -7.1750   21.8430  -32.0270 C   0  0  0  0  0  0  0  0  0  0  0  0
   -8.4330   22.1870  -31.5080 C   0  0  0  0  0  0  0  0  0  0  0  0
   -9.5050   21.2960  -31.6160 C   0  0  0  0  0  0  0  0  0  0  0  0
   -9.3290   20.0590  -32.2410 C   0  0  0  0  0  0  0  0  0  0  0  0
   -8.0810   19.7030  -32.7610 C   0  0  0  0  0  0  0  0  0  0  0  0
   -6.9980   20.5900  -32.6590 C   0  0  0  0  0  0  0  0  0  0  0  0
   -5.7400   20.2460  -33.1780 C   0  0  0  0  0  0  0  0  0  0  0  0
   -0.5248   21.2897  -31.0847 H   0  0  0  0  0  0  0  0  0  0  0  0
   -1.4293   22.5177  -32.0339 H   0  0  0  0  0  0  0  0  0  0  0  0
   -1.9708   20.8050  -32.0339 H   0  0  0  0  0  0  0  0  0  0  0  0
    0.3257   22.1160  -33.4927 H   0  0  0  0  0  0  0  0  0  0  0  0
    0.4867   20.3787  -32.9354 H   0  0  0  0  0  0  0  0  0  0  0  0
   -1.7240   21.3960  -34.5450 H   0  0  0  0  0  0  0  0  0  0  0  0
    0.6677   19.9998  -35.5996 H   0  0  0  0  0  0  0  0  0  0  0  0
   -0.7473   20.6909  -36.5150 H   0  0  0  0  0  0  0  0  0  0  0  0
    0.8409   22.5419  -34.7636 H   0  0  0  0  0  0  0  0  0  0  0  0
    1.5734   22.0066  -36.3140 H   0  0  0  0  0  0  0  0  0  0  0  0
   -0.0120   22.8511  -36.3140 H   0  0  0  0  0  0  0  0  0  0  0  0
   -1.4267   18.7783  -35.1521 H   0  0  0  0  0  0  0  0  0  0  0  0
   -0.9332   18.8661  -33.4036 H   0  0  0  0  0  0  0  0  0  0  0  0
   -3.5965   18.8889  -34.5501 H   0  0  0  0  0  0  0  0  0  0  0  0
   -3.0852   18.8563  -32.8196 H   0  0  0  0  0  0  0  0  0  0  0  0
   -3.9993   23.0731  -32.3550 H   0  0  0  0  0  0  0  0  0  0  0  0
   -6.2250   23.7003  -31.4299 H   0  0  0  0  0  0  0  0  0  0  0  0
   -8.5758   23.1600  -31.0151 H   0  0  0  0  0  0  0  0  0  0  0  0
  -10.4892   21.5696  -31.2079 H   0  0  0  0  0  0  0  0  0  0  0  0
  -10.1760   19.3621  -32.3243 H   0  0  0  0  0  0  0  0  0  0  0  0
   -7.9477   18.7270  -33.2505 H   0  0  0  0  0  0  0  0  0  0  0  0
   -5.6017   19.2708  -33.6678 H   0  0  0  0  0  0  0  0  0  0  0  0
  1  2  1  0
  2  3  1  0
  3  4  1  0
  4  5  1  0
  3  6  1  0
  6  7  1  0
  7  8  1  0
  8  9  1  0
  9 10  2  0
 10 11  1  0
 11 12  2  0
 12 13  1  0
 13 14  2  0
 14 15  1  0
 15 16  2  0
 16 17  1  0
 17 18  2  0
 18  9  1  0
 17 12  1  0
  1 19  1  0
  1 20  1  0
  1 21  1  0
  2 22  1  0
  2 23  1  0
  3 24  1  0
  4 25  1  0
  4 26  1  0
  5 27  1  0
  5 28  1  0
  5 29  1  0
  6 30  1  0
  6 31  1  0
  7 32  1  0
  7 33  1  0
 10 34  1  0
 11 35  1  0
 13 36  1  0
 14 37  1  0
 15 38  1  0
 16 39  1  0
 18 40  1  0
M  CHG  1   3   1
M  END
>  <UniqueID>  (22) 
20

>  <SMILES>  (22) 
CC[NH+](CC)CCOc1ccc2ccccc2c1

>  <Energy>  (22) 
45.9647660923377

>  <Genealogy>  (22) 
CC[NH+](CC)CCOc1ccc2ccccc2c1 (protonated)
CC[NH+](CC)CCOc1ccc2ccccc2c1 (3D coordinates assigned)
CC[NH+](CC)CCOc1ccc2ccccc2c1 (optimized conformer: 45.9647660923377 kcal/mol)

>  <smiles>  (22) 
CCN(CC)CCOc1ccc2ccccc2c1

>  <score_type>  (22) 
oracle

>  <origin>  (22) 
adg

>  <m_score__min__energy>  (22) 
-5.5099999999999998

>  <m_primary>  (22) 
energy

$$$$
22:0
     RDKit          3D

 42 45  0  0  0  0  0  0  0  0999 V2000
   -0.9920   26.3830  -27.8480 C   0  0  0  0  0  0  0  0  0  0  0  0
   -1.6090   25.7580  -28.9450 O   0  0  0  0  0  0  0  0  0  0  0  0
   -1.5210   24.4030  -29.2170 C   0  0  0  0  0  0  0  0  0  0  0  0
   -0.4110   23.6360  -28.9370 C   0  0  0  0  0  0  0  0  0  0  0  0
   -0.3800   22.2870  -29.2310 C   0  0  0  0  0  0  0  0  0  0  0  0
   -1.4820   21.6960  -29.8190 C   0  0  0  0  0  0  0  0  0  0  0  0
   -2.6190   22.4560  -30.1120 C   0  0  0  0  0  0  0  0  0  0  0  0
   -3.7900   21.8550  -30.7320 C   0  0  0  0  0  0  0  0  0  0  0  0
   -5.0160   22.4190  -30.8090 N   0  0  0  0  0  0  0  0  0  0  0  0
   -5.8190   21.5380  -31.4590 C   0  0  0  0  0  0  0  0  0  0  0  0
   -7.2080   21.7830  -31.7340 C   0  0  0  0  0  0  0  0  0  0  0  0
   -7.5760   23.0960  -32.0480 C   0  0  0  0  0  0  0  0  0  0  0  0
   -8.8950   23.4190  -32.3270 C   0  0  0  0  0  0  0  0  0  0  0  0
   -9.8530   22.4620  -32.3000 N   0  0  0  0  0  0  0  0  0  0  0  0
   -9.5180   21.1760  -31.9970 C   0  0  0  0  0  0  0  0  0  0  0  0
   -8.2000   20.8260  -31.7130 C   0  0  0  0  0  0  0  0  0  0  0  0
   -5.0670   20.4270  -31.7800 C   0  0  0  0  0  0  0  0  0  0  0  0
   -5.4990   19.2400  -32.4710 C   0  0  0  0  0  0  0  0  0  0  0  0
   -5.3280   19.1850  -33.8400 C   0  0  0  0  0  0  0  0  0  0  0  0
   -5.7200   18.0680  -34.5690 C   0  0  0  0  0  0  0  0  0  0  0  0
   -6.2930   16.9840  -33.9360 C   0  0  0  0  0  0  0  0  0  0  0  0
   -6.6900   15.8780  -34.6020 F   0  0  0  0  0  0  0  0  0  0  0  0
   -6.4600   17.0470  -32.5670 C   0  0  0  0  0  0  0  0  0  0  0  0
   -6.0780   18.1460  -31.8230 C   0  0  0  0  0  0  0  0  0  0  0  0
   -3.8350   20.6480  -31.3260 N   0  0  0  0  0  0  0  0  0  0  0  0
   -2.6130   23.7990  -29.8030 C   0  0  0  0  0  0  0  0  0  0  0  0
   -1.3998   25.9699  -26.9136 H   0  0  0  0  0  0  0  0  0  0  0  0
    0.0925   26.2032  -27.8858 H   0  0  0  0  0  0  0  0  0  0  0  0
   -1.1858   27.4651  -27.8858 H   0  0  0  0  0  0  0  0  0  0  0  0
    0.4668   24.1070  -28.4706 H   0  0  0  0  0  0  0  0  0  0  0  0
    0.5135   21.6886  -28.9993 H   0  0  0  0  0  0  0  0  0  0  0  0
   -1.4649   20.6224  -30.0579 H   0  0  0  0  0  0  0  0  0  0  0  0
   -6.8079   23.8830  -32.0738 H   0  0  0  0  0  0  0  0  0  0  0  0
   -9.1647   24.4571  -32.5714 H   0  0  0  0  0  0  0  0  0  0  0  0
  -10.3002   20.4029  -31.9764 H   0  0  0  0  0  0  0  0  0  0  0  0
   -7.9499   19.7825  -31.4712 H   0  0  0  0  0  0  0  0  0  0  0  0
   -4.8738   20.0396  -34.3628 H   0  0  0  0  0  0  0  0  0  0  0  0
   -5.5722   18.0482  -35.6589 H   0  0  0  0  0  0  0  0  0  0  0  0
   -6.9145   16.1894  -32.0493 H   0  0  0  0  0  0  0  0  0  0  0  0
   -6.2278   18.1599  -30.7333 H   0  0  0  0  0  0  0  0  0  0  0  0
   -3.0310   19.9600  -31.4290 H   0  0  0  0  0  0  0  0  0  0  0  0
   -3.5027   24.4048  -30.0298 H   0  0  0  0  0  0  0  0  0  0  0  0
  1  2  1  0
  2  3  1  0
  3  4  2  0
  4  5  1  0
  5  6  2  0
  6  7  1  0
  7  8  1  0
  8  9  2  0
  9 10  1  0
 10 11  1  0
 11 12  2  0
 12 13  1  0
 13 14  2  0
 14 15  1  0
 15 16  2  0
 10 17  2  0
 17 18  1  0
 18 19  2  0
 19 20  1  0
 20 21  2  0
 21 22  1  0
 21 23  1  0
 23 24  2  0
 17 25  1  0
  7 26  2  0
 26  3  1  0
 25  8  1  0
 16 11  1  0
 24 18  1  0
  1 27  1  0
  1 28  1  0
  1 29  1  0
  4 30  1  0
  5 31  1  0
  6 32  1  0
 12 33  1  0
 13 34  1  0
 15 35  1  0
 16 36  1  0
 19 37  1  0
 20 38  1  0
 23 39  1  0
 24 40  1  0
 25 41  1  0
 26 42  1  0
M  END
>  <smiles>  (23) 
COc1cccc(-c2nc(-c3ccncc3)c(-c3ccc(F)cc3)[nH]2)c1

>  <score_type>  (23) 
oracle

>  <origin>  (23) 
adg

>  <m_score__min__energy>  (23) 
-8.2899999999999991

>  <m_primary>  (23) 
energy

$$$$
23:0
     RDKit          3D

 37 38  0  0  0  0  0  0  0  0999 V2000
   -4.1330   21.9100  -33.0870 C   0  0  0  0  0  0  0  0  0  0  0  0
   -5.0210   22.0430  -31.8470 C   0  0  0  0  0  0  0  0  0  0  0  0
   -6.1170   23.0280  -32.0310 N   0  0  0  0  0  0  0  0  0  0  0  0
   -5.7390   24.4020  -31.5830 C   0  0  0  0  0  0  0  0  0  0  0  0
   -6.2940   24.7340  -30.1940 C   0  0  0  0  0  0  0  0  0  0  0  0
   -7.3750   22.5640  -31.3860 C   0  0  0  0  0  0  0  0  0  0  0  0
   -8.3720   21.8520  -32.3360 C   0  0  0  0  0  0  0  0  0  0  0  0
   -8.3310   20.3520  -32.2060 C   0  0  0  0  0  0  0  0  0  0  0  0
   -9.1010   19.5750  -31.3450 C   0  0  0  0  0  0  0  0  0  0  0  0
   -8.7710   18.2690  -31.4630 N   0  0  0  0  0  0  0  0  0  0  0  0
   -7.7900   18.2140  -32.3800 C   0  0  0  0  0  0  0  0  0  0  0  0
   -7.1190   17.0780  -32.8300 C   0  0  0  0  0  0  0  0  0  0  0  0
   -6.1100   17.2480  -33.7950 C   0  0  0  0  0  0  0  0  0  0  0  0
   -5.7950   18.5360  -34.2800 C   0  0  0  0  0  0  0  0  0  0  0  0
   -6.4870   19.6660  -33.8070 C   0  0  0  0  0  0  0  0  0  0  0  0
   -7.4870   19.4660  -32.8530 C   0  0  0  0  0  0  0  0  0  0  0  0
   -3.0896   21.7537  -32.7757 H   0  0  0  0  0  0  0  0  0  0  0  0
   -4.4687   21.0521  -33.6881 H   0  0  0  0  0  0  0  0  0  0  0  0
   -4.2027   22.8286  -33.6881 H   0  0  0  0  0  0  0  0  0  0  0  0
   -5.4639   21.0611  -31.6241 H   0  0  0  0  0  0  0  0  0  0  0  0
   -4.3880   22.4001  -31.0213 H   0  0  0  0  0  0  0  0  0  0  0  0
   -6.3400   23.0490  -33.0560 H   0  0  0  0  0  0  0  0  0  0  0  0
   -4.6418   24.4747  -31.5522 H   0  0  0  0  0  0  0  0  0  0  0  0
   -6.1692   25.1192  -32.2975 H   0  0  0  0  0  0  0  0  0  0  0  0
   -5.6200   24.3308  -29.4239 H   0  0  0  0  0  0  0  0  0  0  0  0
   -6.3692   25.8255  -30.0805 H   0  0  0  0  0  0  0  0  0  0  0  0
   -7.2913   24.2840  -30.0805 H   0  0  0  0  0  0  0  0  0  0  0  0
   -7.1081   21.8619  -30.5824 H   0  0  0  0  0  0  0  0  0  0  0  0
   -7.8868   23.4675  -31.0229 H   0  0  0  0  0  0  0  0  0  0  0  0
   -9.3895   22.1976  -32.1010 H   0  0  0  0  0  0  0  0  0  0  0  0
   -8.0842   22.1034  -33.3675 H   0  0  0  0  0  0  0  0  0  0  0  0
   -9.8701   19.9684  -30.6641 H   0  0  0  0  0  0  0  0  0  0  0  0
   -9.1880   17.4690  -30.9370 H   0  0  0  0  0  0  0  0  0  0  0  0
   -7.3708   16.0798  -32.4425 H   0  0  0  0  0  0  0  0  0  0  0  0
   -5.5630   16.3722  -34.1741 H   0  0  0  0  0  0  0  0  0  0  0  0
   -5.0026   18.6569  -35.0333 H   0  0  0  0  0  0  0  0  0  0  0  0
   -6.2481   20.6741  -34.1766 H   0  0  0  0  0  0  0  0  0  0  0  0
  1  2  1  0
  2  3  1  0
  3  4  1  0
  4  5  1  0
  3  6  1  0
  6  7  1  0
  7  8  1  0
  8  9  2  0
  9 10  1  0
 10 11  1  0
 11 12  2  0
 12 13  1  0
 13 14  2  0
 14 15  1  0
 15 16  2  0
 16  8  1  0
 16 11  1  0
  1 17  1  0
  1 18  1  0
  1 19  1  0
  2 20  1  0
  2 21  1  0
  3 22  1  0
  4 23  1  0
  4 24  1  0
  5 25  1  0
  5 26  1  0
  5 27  1  0
  6 28  1  0
  6 29  1  0
  7 30  1  0
  7 31  1  0
  9 32  1  0
 10 33  1  0
 12 34  1  0
 13 35  1  0
 14 36  1  0
 15 37  1  0
M  CHG  1   3   1
M  END
>  <UniqueID>  (24) 
21

>  <SMILES>  (24) 
CC[NH+](CC)CCc1c[nH]c2ccccc12

>  <Energy>  (24) 
72.76572330792665

>  <Genealogy>  (24) 
CC[NH+](CC)CCc1c[nH]c2ccccc12 (protonated)
CC[NH+](CC)CCc1c[nH]c2ccccc12 (3D coordinates assigned)
CC[NH+](CC)CCc1c[nH]c2ccccc12 (optimized conformer: 72.76572330792665 kcal/mol)

>  <smiles>  (24) 
CCN(CC)CCc1c[nH]c2ccccc12

>  <score_type>  (24) 
oracle

>  <origin>  (24) 
adg

>  <m_score__min__energy>  (24) 
-5.6600000000000001

>  <m_primary>  (24) 
energy

$$$$
24:0
     RDKit          3D

 49 51  0  0  0  0  0  0  0  0999 V2000
   -5.6980   24.9200  -29.8610 C   0  0  0  0  0  0  0  0  0  0  0  0
   -5.3350   23.6990  -29.0250 C   0  0  0  0  0  0  0  0  0  0  0  0
   -4.0900   23.9320  -28.2950 N   0  0  0  0  0  0  0  0  0  0  0  0
   -3.9280   24.9210  -27.4310 N   0  0  0  0  0  0  0  0  0  0  0  0
   -2.7480   24.7560  -26.8030 C   0  0  0  0  0  0  0  0  0  0  0  0
   -2.2630   25.6140  -25.6820 C   0  0  0  0  0  0  0  0  0  0  0  0
   -2.1470   23.5960  -27.2570 C   0  0  0  0  0  0  0  0  0  0  0  0
   -3.0170   23.1090  -28.2150 C   0  0  0  0  0  0  0  0  0  0  0  0
   -2.8550   21.8290  -28.9280 C   0  0  0  0  0  0  0  0  0  0  0  0
   -2.3520   20.8620  -28.2940 O   0  0  0  0  0  0  0  0  0  0  0  0
   -3.2190   21.6670  -30.3170 N   0  0  0  0  0  0  0  0  0  0  0  0
   -3.2360   20.3050  -30.8790 C   0  0  0  0  0  0  0  0  0  0  0  0
   -3.4330   20.3030  -32.4010 C   0  0  0  0  0  0  0  0  0  0  0  0
   -4.5490   21.2640  -32.8660 C   0  0  0  0  0  0  0  0  0  0  0  0
   -5.9240   20.6290  -32.7110 C   0  0  0  0  0  0  0  0  0  0  0  0
   -6.0930   19.2580  -32.9680 C   0  0  0  0  0  0  0  0  0  0  0  0
   -7.3450   18.6570  -32.8220 C   0  0  0  0  0  0  0  0  0  0  0  0
   -8.4420   19.4100  -32.4010 C   0  0  0  0  0  0  0  0  0  0  0  0
   -8.2920   20.7750  -32.1020 C   0  0  0  0  0  0  0  0  0  0  0  0
   -9.4750   21.6120  -31.6830 C   0  0  0  0  0  0  0  0  0  0  0  0
  -10.6090   21.1500  -32.3230 F   0  0  0  0  0  0  0  0  0  0  0  0
   -9.6720   21.5470  -30.3150 F   0  0  0  0  0  0  0  0  0  0  0  0
   -9.2690   22.9360  -32.0280 F   0  0  0  0  0  0  0  0  0  0  0  0
   -7.0350   21.3790  -32.2760 C   0  0  0  0  0  0  0  0  0  0  0  0
   -4.4610   22.6720  -32.2110 C   0  0  0  0  0  0  0  0  0  0  0  0
   -3.2940   22.8230  -31.2250 C   0  0  0  0  0  0  0  0  0  0  0  0
   -5.9475   25.7593  -29.1951 H   0  0  0  0  0  0  0  0  0  0  0  0
   -4.8434   25.1971  -30.4957 H   0  0  0  0  0  0  0  0  0  0  0  0
   -6.5652   24.6852  -30.4957 H   0  0  0  0  0  0  0  0  0  0  0  0
   -6.1438   23.4980  -28.3070 H   0  0  0  0  0  0  0  0  0  0  0  0
   -5.1999   22.8363  -29.6940 H   0  0  0  0  0  0  0  0  0  0  0  0
   -4.6300   25.6710  -27.2400 H   0  0  0  0  0  0  0  0  0  0  0  0
   -2.5271   25.1467  -24.7218 H   0  0  0  0  0  0  0  0  0  0  0  0
   -1.1703   25.7218  -25.7490 H   0  0  0  0  0  0  0  0  0  0  0  0
   -2.7341   26.6058  -25.7490 H   0  0  0  0  0  0  0  0  0  0  0  0
   -1.1920   23.1592  -26.9297 H   0  0  0  0  0  0  0  0  0  0  0  0
   -2.2793   19.8146  -30.6459 H   0  0  0  0  0  0  0  0  0  0  0  0
   -4.0842   19.7673  -30.4301 H   0  0  0  0  0  0  0  0  0  0  0  0
   -2.4887   20.6058  -32.8771 H   0  0  0  0  0  0  0  0  0  0  0  0
   -3.7321   19.2855  -32.6929 H   0  0  0  0  0  0  0  0  0  0  0  0
   -4.3874   21.4388  -33.9399 H   0  0  0  0  0  0  0  0  0  0  0  0
   -5.2316   18.6528  -33.2870 H   0  0  0  0  0  0  0  0  0  0  0  0
   -7.4671   17.5857  -33.0397 H   0  0  0  0  0  0  0  0  0  0  0  0
   -9.4283   18.9331  -32.3028 H   0  0  0  0  0  0  0  0  0  0  0  0
   -6.9166   22.4530  -32.0696 H   0  0  0  0  0  0  0  0  0  0  0  0
   -4.3400   23.4192  -33.0092 H   0  0  0  0  0  0  0  0  0  0  0  0
   -5.3877   22.8173  -31.6364 H   0  0  0  0  0  0  0  0  0  0  0  0
   -2.3531   22.8987  -31.7898 H   0  0  0  0  0  0  0  0  0  0  0  0
   -3.4567   23.7305  -30.6250 H   0  0  0  0  0  0  0  0  0  0  0  0
  1  2  1  0
  2  3  1  0
  3  4  1  0
  4  5  2  0
  5  6  1  0
  5  7  1  0
  7  8  2  0
  8  9  1  0
  9 10  2  0
  9 11  1  0
 11 12  1  0
 12 13  1  0
 13 14  1  0
 14 15  1  0
 15 16  2  0
 16 17  1  0
 17 18  2  0
 18 19  1  0
 19 20  1  0
 20 21  1  0
 20 22  1  0
 20 23  1  0
 19 24  2  0
 14 25  1  0
 25 26  1  0
  8  3  1  0
 26 11  1  0
 24 15  1  0
  1 27  1  0
  1 28  1  0
  1 29  1  0
  2 30  1  0
  2 31  1  0
  4 32  1  0
  6 33  1  0
  6 34  1  0
  6 35  1  0
  7 36  1  0
 12 37  1  0
 12 38  1  0
 13 39  1  0
 13 40  1  0
 14 41  1  0
 16 42  1  0
 17 43  1  0
 18 44  1  0
 24 45  1  0
 25 46  1  0
 25 47  1  0
 26 48  1  0
 26 49  1  0
M  CHG  1   4   1
M  END
>  <UniqueID>  (25) 
22

>  <SMILES>  (25) 
CCn1[nH+]c(C)cc1C(=O)N1CCC(c2cccc(C(F)(F)F)c2)CC1

>  <Energy>  (25) 
85.06535419432836

>  <Genealogy>  (25) 
CCn1[nH+]c(C)cc1C(=O)N1CCC(c2cccc(C(F)(F)F)c2)CC1 (protonated)
CCn1[nH+]c(C)cc1C(=O)N1CCC(c2cccc(C(F)(F)F)c2)CC1 (3D coordinates assigned)
CCn1[nH+]c(C)cc1C(=O)N1CCC(c2cccc(C(F)(F)F)c2)CC1 (nonaromatic ring conformer: 85.06535419432836 kcal/mol)

>  <smiles>  (25) 
CCn1nc(C)cc1C(=O)N1CCC(c2cccc(C(F)(F)F)c2)CC1

>  <score_type>  (25) 
oracle

>  <origin>  (25) 
adg

>  <m_score__min__energy>  (25) 
-7.5199999999999996

>  <m_primary>  (25) 
energy

$$$$
25:0
     RDKit          3D

 55 58  0  0  0  0  0  0  0  0999 V2000
   -9.0770   18.7730  -31.6410 C   0  0  0  0  0  0  0  0  0  0  0  0
   -9.1610   20.2470  -32.0370 C   0  0  0  0  0  0  0  0  0  0  0  0
   -7.9380   20.9950  -31.6540 N   0  0  0  0  0  0  0  0  0  0  0  0
   -6.9610   21.0640  -32.7670 C   0  0  0  0  0  0  0  0  0  0  0  0
   -6.2610   19.7480  -33.0610 C   0  0  0  0  0  0  0  0  0  0  0  0
   -5.7680   18.9800  -32.0550 C   0  0  0  0  0  0  0  0  0  0  0  0
   -5.0980   17.6590  -32.3780 C   0  0  1  0  0  0  0  0  0  0  0  0
   -6.1720   16.6190  -32.7040 C   0  0  0  0  0  0  0  0  0  0  0  0
   -6.4270   16.7920  -34.2090 C   0  0  0  0  0  0  0  0  0  0  0  0
   -5.4520   17.8970  -34.6420 C   0  0  1  0  0  0  0  0  0  0  0  0
   -6.1200   19.2940  -34.5210 C   0  0  0  0  0  0  0  0  0  0  0  0
   -4.4020   17.8280  -33.6410 N   0  0  0  0  0  0  0  0  0  0  0  0
   -3.0910   18.4140  -33.7600 C   0  0  0  0  0  0  0  0  0  0  0  0
   -2.0790   17.6660  -33.8530 O   0  0  0  0  0  0  0  0  0  0  0  0
   -2.9010   19.9020  -33.8330 C   0  0  0  0  0  0  0  0  0  0  0  0
   -2.0780   20.3690  -32.7200 N   0  0  0  0  0  0  0  0  0  0  0  0
   -2.1990   21.5510  -32.0840 C   0  0  0  0  0  0  0  0  0  0  0  0
   -1.2130   21.6130  -31.1220 C   0  0  0  0  0  0  0  0  0  0  0  0
   -0.9860   22.6270  -30.2520 F   0  0  0  0  0  0  0  0  0  0  0  0
   -0.5090   20.4310  -31.2210 C   0  0  0  0  0  0  0  0  0  0  0  0
   -1.0570   19.6990  -32.2070 N   0  0  0  0  0  0  0  0  0  0  0  0
   -8.2240   22.3220  -31.0610 C   0  0  0  0  0  0  0  0  0  0  0  0
   -6.9470   23.0250  -30.6950 C   0  0  0  0  0  0  0  0  0  0  0  0
   -6.8620   24.4250  -30.7370 C   0  0  0  0  0  0  0  0  0  0  0  0
   -5.6540   25.0470  -30.4180 C   0  0  0  0  0  0  0  0  0  0  0  0
   -4.5420   24.2750  -30.0780 C   0  0  0  0  0  0  0  0  0  0  0  0
   -4.6560   22.8830  -30.0670 C   0  0  0  0  0  0  0  0  0  0  0  0
   -5.8420   22.2940  -30.3790 N   0  0  0  0  0  0  0  0  0  0  0  0
   -9.0721   18.6877  -30.5443 H   0  0  0  0  0  0  0  0  0  0  0  0
   -9.9459   18.2342  -32.0469 H   0  0  0  0  0  0  0  0  0  0  0  0
   -8.1525   18.3364  -32.0469 H   0  0  0  0  0  0  0  0  0  0  0  0
   -9.2925   20.3152  -33.1270 H   0  0  0  0  0  0  0  0  0  0  0  0
  -10.0138   20.6941  -31.5052 H   0  0  0  0  0  0  0  0  0  0  0  0
   -7.4940   21.3821  -33.6752 H   0  0  0  0  0  0  0  0  0  0  0  0
   -6.1809   21.7764  -32.4604 H   0  0  0  0  0  0  0  0  0  0  0  0
   -5.8545   19.3150  -31.0108 H   0  0  0  0  0  0  0  0  0  0  0  0
   -4.4552   17.3610  -31.5366 H   0  0  0  0  0  0  0  0  0  0  0  0
   -5.8100   15.6037  -32.4847 H   0  0  0  0  0  0  0  0  0  0  0  0
   -7.0846   16.7569  -32.1055 H   0  0  0  0  0  0  0  0  0  0  0  0
   -6.2181   15.8564  -34.7484 H   0  0  0  0  0  0  0  0  0  0  0  0
   -7.4737   17.0495  -34.4281 H   0  0  0  0  0  0  0  0  0  0  0  0
   -5.1136   17.7659  -35.6804 H   0  0  0  0  0  0  0  0  0  0  0  0
   -5.5050   20.0282  -35.0619 H   0  0  0  0  0  0  0  0  0  0  0  0
   -7.1303   19.2222  -34.9502 H   0  0  0  0  0  0  0  0  0  0  0  0
   -2.4056   20.1574  -34.7813 H   0  0  0  0  0  0  0  0  0  0  0  0
   -3.8856   20.3891  -33.7757 H   0  0  0  0  0  0  0  0  0  0  0  0
   -2.9496   22.3271  -32.2945 H   0  0  0  0  0  0  0  0  0  0  0  0
    0.3512   20.1381  -30.6011 H   0  0  0  0  0  0  0  0  0  0  0  0
   -0.7320   18.7570  -32.5270 H   0  0  0  0  0  0  0  0  0  0  0  0
   -8.7762   22.9324  -31.7907 H   0  0  0  0  0  0  0  0  0  0  0  0
   -8.8245   22.1811  -30.1502 H   0  0  0  0  0  0  0  0  0  0  0  0
   -7.7389   25.0264  -31.0186 H   0  0  0  0  0  0  0  0  0  0  0  0
   -5.5784   26.1443  -30.4345 H   0  0  0  0  0  0  0  0  0  0  0  0
   -3.5871   24.7572  -29.8217 H   0  0  0  0  0  0  0  0  0  0  0  0
   -3.7861   22.2624  -29.8059 H   0  0  0  0  0  0  0  0  0  0  0  0
  1  2  1  0
  2  3  1  0
  3  4  1  0
  4  5  1  0
  5  6  2  0
  6  7  1  0
  7  8  1  0
  8  9  1  0
  9 10  1  0
 10 11  1  0
 10 12  1  0
 12 13  1  0
 13 14  2  0
 13 15  1  0
 15 16  1  0
 16 17  1  0
 17 18  2  0
 18 19  1  0
 18 20  1  0
 20 21  2  0
  3 22  1  0
 22 23  1  0
 23 24  2  0
 24 25  1  0
 25 26  2  0
 26 27  1  0
 27 28  2  0
 11  5  1  0
 21 16  1  0
 28 23  1  0
 12  7  1  0
  1 29  1  0
  1 30  1  0
  1 31  1  0
  2 32  1  0
  2 33  1  0
  4 34  1  0
  4 35  1  0
  6 36  1  0
  7 37  1  1
  8 38  1  0
  8 39  1  0
  9 40  1  0
  9 41  1  0
 10 42  1  6
 11 43  1  0
 11 44  1  0
 15 45  1  0
 15 46  1  0
 17 47  1  0
 20 48  1  0
 21 49  1  0
 22 50  1  0
 22 51  1  0
 24 52  1  0
 25 53  1  0
 26 54  1  0
 27 55  1  0
M  CHG  1  21   1
M  END
>  <UniqueID>  (26) 
23

>  <SMILES>  (26) 
CCN(CC1=C[C@H]2CC[C@@H](C1)N2C(=O)Cn1cc(F)c[nH+]1)Cc1ccccn1

>  <Energy>  (26) 
105.43884602796835

>  <Genealogy>  (26) 
CCN(CC1=CC2CCC(C1)N2C(=O)Cn1cc(F)c[nH+]1)Cc1ccccn1 (protonated)
CCN(CC1=C[C@H]2CC[C@@H](C1)N2C(=O)Cn1cc(F)c[nH+]1)Cc1ccccn1 (chirality)
CCN(CC1=C[C@H]2CC[C@@H](C1)N2C(=O)Cn1cc(F)c[nH+]1)Cc1ccccn1 (3D coordinates assigned)
CCN(CC1=C[C@H]2CC[C@@H](C1)N2C(=O)Cn1cc(F)c[nH+]1)Cc1ccccn1 (nonaromatic ring conformer: 105.43884602796835 kcal/mol)

>  <smiles>  (26) 
CCN(CC1=CC2CCC(C1)N2C(=O)Cn1cc(F)cn1)Cc1ccccn1

>  <score_type>  (26) 
oracle

>  <origin>  (26) 
adg

>  <m_score__min__energy>  (26) 
-8.9100000000000001

>  <m_primary>  (26) 
energy

$$$$
26:0
     RDKit          3D

 58 60  0  0  0  0  0  0  0  0999 V2000
   -0.7650   20.3160  -34.1660 C   0  0  0  0  0  0  0  0  0  0  0  0
   -0.6570   19.1570  -33.1880 C   0  0  0  0  0  0  0  0  0  0  0  0
   -1.6240   19.3120  -32.1540 O   0  0  0  0  0  0  0  0  0  0  0  0
   -2.0240   20.5480  -31.6250 C   0  0  0  0  0  0  0  0  0  0  0  0
   -3.2320   21.1700  -31.9910 C   0  0  0  0  0  0  0  0  0  0  0  0
   -3.5960   22.3940  -31.4250 C   0  0  0  0  0  0  0  0  0  0  0  0
   -2.7630   23.0090  -30.4800 C   0  0  0  0  0  0  0  0  0  0  0  0
   -3.2470   24.5250  -29.7140 S   0  0  0  0  0  0  0  0  0  0  0  0
   -2.0230   25.2600  -29.2470 O   0  0  0  0  0  0  0  0  0  0  0  0
   -4.0880   24.2030  -28.5100 O   0  0  0  0  0  0  0  0  0  0  0  0
   -4.1570   25.5750  -30.7680 N   0  0  0  0  0  0  0  0  0  0  0  0
   -5.5820   25.6270  -30.4300 C   0  0  0  0  0  0  0  0  0  0  0  0
   -6.3040   24.3520  -30.7900 C   0  0  0  0  0  0  0  0  0  0  0  0
   -6.3160   23.9040  -32.1210 C   0  0  0  0  0  0  0  0  0  0  0  0
   -6.9680   22.7170  -32.4620 C   0  0  0  0  0  0  0  0  0  0  0  0
   -7.6140   21.9530  -31.4780 C   0  0  0  0  0  0  0  0  0  0  0  0
   -8.2710   20.6760  -31.8210 C   0  0  0  0  0  0  0  0  0  0  0  0
   -9.5180   20.5720  -31.6560 O   0  0  0  0  0  0  0  0  0  0  0  0
   -7.5310   19.5560  -32.3410 N   0  0  0  0  0  0  0  0  0  0  0  0
   -7.7930   18.1900  -31.9270 C   0  0  0  0  0  0  0  0  0  0  0  0
   -7.2380   17.3240  -33.0430 C   0  0  0  0  0  0  0  0  0  0  0  0
   -6.1720   18.1840  -33.7620 C   0  0  2  0  0  0  0  0  0  0  0  0
   -4.7830   18.0280  -33.2350 N   0  0  0  0  0  0  0  0  0  0  0  0
   -4.4230   16.6330  -32.9100 C   0  0  0  0  0  0  0  0  0  0  0  0
   -3.8090   18.5350  -34.2240 C   0  0  0  0  0  0  0  0  0  0  0  0
   -6.6710   19.6220  -33.5160 C   0  0  0  0  0  0  0  0  0  0  0  0
   -7.5610   22.3760  -30.1390 C   0  0  0  0  0  0  0  0  0  0  0  0
   -6.9090   23.5630  -29.7980 C   0  0  0  0  0  0  0  0  0  0  0  0
   -1.5530   22.4010  -30.1260 C   0  0  0  0  0  0  0  0  0  0  0  0
   -1.1870   21.1780  -30.6960 C   0  0  0  0  0  0  0  0  0  0  0  0
   -0.8529   21.2598  -33.6078 H   0  0  0  0  0  0  0  0  0  0  0  0
    0.1342   20.3467  -34.7989 H   0  0  0  0  0  0  0  0  0  0  0  0
   -1.6544   20.1801  -34.7989 H   0  0  0  0  0  0  0  0  0  0  0  0
   -0.8382   18.2113  -33.7198 H   0  0  0  0  0  0  0  0  0  0  0  0
    0.3505   19.1444  -32.7467 H   0  0  0  0  0  0  0  0  0  0  0  0
   -3.8934   20.6896  -32.7270 H   0  0  0  0  0  0  0  0  0  0  0  0
   -4.5389   22.8767  -31.7216 H   0  0  0  0  0  0  0  0  0  0  0  0
   -5.6827   25.7968  -29.3479 H   0  0  0  0  0  0  0  0  0  0  0  0
   -6.0351   26.4448  -31.0095 H   0  0  0  0  0  0  0  0  0  0  0  0
   -5.8085   24.4919  -32.9000 H   0  0  0  0  0  0  0  0  0  0  0  0
   -6.9752   22.3787  -33.5087 H   0  0  0  0  0  0  0  0  0  0  0  0
   -7.2829   17.9699  -30.9776 H   0  0  0  0  0  0  0  0  0  0  0  0
   -8.8650   18.0090  -31.7598 H   0  0  0  0  0  0  0  0  0  0  0  0
   -6.7788   16.4145  -32.6283 H   0  0  0  0  0  0  0  0  0  0  0  0
   -8.0303   17.0035  -33.7355 H   0  0  0  0  0  0  0  0  0  0  0  0
   -6.0824   17.8897  -34.8181 H   0  0  0  0  0  0  0  0  0  0  0  0
   -4.3907   16.5076  -31.8176 H   0  0  0  0  0  0  0  0  0  0  0  0
   -5.1748   15.9517  -33.3351 H   0  0  0  0  0  0  0  0  0  0  0  0
   -3.4355   16.4006  -33.3351 H   0  0  0  0  0  0  0  0  0  0  0  0
   -2.9517   18.9813  -33.6988 H   0  0  0  0  0  0  0  0  0  0  0  0
   -3.4605   17.7039  -34.8547 H   0  0  0  0  0  0  0  0  0  0  0  0
   -4.2899   19.2972  -34.8547 H   0  0  0  0  0  0  0  0  0  0  0  0
   -5.8207   20.2945  -33.3295 H   0  0  0  0  0  0  0  0  0  0  0  0
   -7.2130   20.0142  -34.3892 H   0  0  0  0  0  0  0  0  0  0  0  0
   -8.0360   21.7684  -29.3546 H   0  0  0  0  0  0  0  0  0  0  0  0
   -6.8690   23.8820  -28.7460 H   0  0  0  0  0  0  0  0  0  0  0  0
   -0.8879   22.8870  -29.3970 H   0  0  0  0  0  0  0  0  0  0  0  0
   -0.2342   20.7071  -30.4125 H   0  0  0  0  0  0  0  0  0  0  0  0
  1  2  1  0
  2  3  1  0
  3  4  1  0
  4  5  2  0
  5  6  1  0
  6  7  2  0
  7  8  1  0
  8  9  2  0
  8 10  2  0
  8 11  1  0
 11 12  1  0
 12 13  1  0
 13 14  2  0
 14 15  1  0
 15 16  2  0
 16 17  1  0
 17 18  2  0
 17 19  1  0
 19 20  1  0
 20 21  1  0
 21 22  1  0
 22 23  1  0
 23 24  1  0
 23 25  1  0
 22 26  1  0
 16 27  1  0
 27 28  2  0
  7 29  1  0
 29 30  2  0
 30  4  1  0
 28 13  1  0
 26 19  1  0
  1 31  1  0
  1 32  1  0
  1 33  1  0
  2 34  1  0
  2 35  1  0
  5 36  1  0
  6 37  1  0
 12 38  1  0
 12 39  1  0
 14 40  1  0
 15 41  1  0
 20 42  1  0
 20 43  1  0
 21 44  1  0
 21 45  1  0
 22 46  1  6
 24 47  1  0
 24 48  1  0
 24 49  1  0
 25 50  1  0
 25 51  1  0
 25 52  1  0
 26 53  1  0
 26 54  1  0
 27 55  1  0
 28 56  1  0
 29 57  1  0
 30 58  1  0
M  CHG  1  11  -1
M  END
>  <UniqueID>  (27) 
24

>  <SMILES>  (27) 
CCOc1ccc(S(=O)(=O)[N-]Cc2ccc(C(=O)N3CC[C@H](N(C)C)C3)cc2)cc1

>  <Energy>  (27) 
65.95572696941713

>  <Genealogy>  (27) 
CCOc1ccc(S(=O)(=O)[N-]Cc2ccc(C(=O)N3CCC(N(C)C)C3)cc2)cc1 (protonated)
CCOc1ccc(S(=O)(=O)[N-]Cc2ccc(C(=O)N3CC[C@H](N(C)C)C3)cc2)cc1 (chirality)
CCOc1ccc(S(=O)(=O)[N-]Cc2ccc(C(=O)N3CC[C@H](N(C)C)C3)cc2)cc1 (3D coordinates assigned)
CCOc1ccc(S(=O)(=O)[N-]Cc2ccc(C(=O)N3CC[C@H](N(C)C)C3)cc2)cc1 (nonaromatic ring conformer: 65.95572696941713 kcal/mol)

>  <smiles>  (27) 
CCOc1ccc(S(=O)(=O)NCc2ccc(C(=O)N3CCC(N(C)C)C3)cc2)cc1

>  <score_type>  (27) 
oracle

>  <origin>  (27) 
adg

>  <m_score__min__energy>  (27) 
-10.779999999999999

>  <m_primary>  (27) 
energy

$$$$
27:0
     RDKit          3D

 70 73  0  0  0  0  0  0  0  0999 V2000
   -1.2400   21.5690  -26.6110 C   0  0  0  0  0  0  0  0  0  0  0  0
   -1.3390   23.0030  -27.0420 C   0  0  0  0  0  0  0  0  0  0  0  0
   -0.5930   23.9880  -26.3800 C   0  0  0  0  0  0  0  0  0  0  0  0
   -0.6570   25.3170  -26.8010 C   0  0  0  0  0  0  0  0  0  0  0  0
   -1.4460   25.6710  -27.8990 C   0  0  0  0  0  0  0  0  0  0  0  0
   -2.1750   24.6860  -28.5940 C   0  0  0  0  0  0  0  0  0  0  0  0
   -2.9700   24.9720  -29.7150 O   0  0  0  0  0  0  0  0  0  0  0  0
   -3.7440   24.0320  -30.4630 C   0  0  0  0  0  0  0  0  0  0  0  0
   -5.2680   24.2180  -30.2600 C   0  0  1  0  0  0  0  0  0  0  0  0
   -5.4920   25.2830  -29.3700 O   0  0  0  0  0  0  0  0  0  0  0  0
   -6.1100   24.4360  -31.5630 C   0  0  0  0  0  0  0  0  0  0  0  0
   -6.4550   23.2280  -32.3600 N   0  0  0  0  0  0  0  0  0  0  0  0
   -7.8290   22.7050  -32.1140 C   0  0  0  0  0  0  0  0  0  0  0  0
   -7.8220   21.3460  -31.3900 C   0  0  0  0  0  0  0  0  0  0  0  0
   -7.0370   20.3170  -32.1220 N   0  0  0  0  0  0  0  0  0  0  0  0
   -7.8950   19.4360  -32.9430 C   0  0  0  0  0  0  0  0  0  0  0  0
   -7.5590   17.9640  -32.6800 C   0  0  0  0  0  0  0  0  0  0  0  0
   -6.1830   17.6740  -33.1120 N   0  0  0  0  0  0  0  0  0  0  0  0
   -5.3340   16.8400  -32.2970 C   0  0  0  0  0  0  0  0  0  0  0  0
   -5.7580   16.3710  -31.2070 O   0  0  0  0  0  0  0  0  0  0  0  0
   -3.9580   16.4570  -32.7640 C   0  0  0  0  0  0  0  0  0  0  0  0
   -3.3520   17.5340  -33.6930 C   0  0  0  0  0  0  0  0  0  0  0  0
   -1.9850   17.0850  -34.2250 C   0  0  0  0  0  0  0  0  0  0  0  0
   -1.2080   18.3610  -34.5160 C   0  0  0  0  0  0  0  0  0  0  0  0
   -1.8080   19.4470  -33.6230 C   0  0  0  0  0  0  0  0  0  0  0  0
   -3.0260   18.8360  -32.9340 C   0  0  0  0  0  0  0  0  0  0  0  0
   -4.3250   17.7990  -34.8730 C   0  0  0  0  0  0  0  0  0  0  0  0
   -5.7120   18.1320  -34.3970 C   0  0  0  0  0  0  0  0  0  0  0  0
   -6.4750   18.7820  -35.1630 O   0  0  0  0  0  0  0  0  0  0  0  0
   -5.9270   20.8790  -32.9300 C   0  0  0  0  0  0  0  0  0  0  0  0
   -5.4020   22.1870  -32.3290 C   0  0  0  0  0  0  0  0  0  0  0  0
   -2.1210   23.3570  -28.1520 C   0  0  0  0  0  0  0  0  0  0  0  0
   -1.2363   21.5158  -25.5123 H   0  0  0  0  0  0  0  0  0  0  0  0
   -2.1016   21.0082  -27.0024 H   0  0  0  0  0  0  0  0  0  0  0  0
   -0.3095   21.1319  -27.0024 H   0  0  0  0  0  0  0  0  0  0  0  0
    0.0443   23.7128  -25.5267 H   0  0  0  0  0  0  0  0  0  0  0  0
   -0.0841   26.0891  -26.2665 H   0  0  0  0  0  0  0  0  0  0  0  0
   -1.4979   26.7214  -28.2213 H   0  0  0  0  0  0  0  0  0  0  0  0
   -3.5133   24.1569  -31.5313 H   0  0  0  0  0  0  0  0  0  0  0  0
   -3.4812   23.0255  -30.1055 H   0  0  0  0  0  0  0  0  0  0  0  0
   -5.6226   23.2595  -29.8530 H   0  0  0  0  0  0  0  0  0  0  0  0
   -4.6260   25.5050  -28.9390 H   0  0  0  0  0  0  0  0  0  0  0  0
   -7.0535   24.9197  -31.2702 H   0  0  0  0  0  0  0  0  0  0  0  0
   -5.4634   25.0347  -32.2214 H   0  0  0  0  0  0  0  0  0  0  0  0
   -6.4620   23.5700  -33.3530 H   0  0  0  0  0  0  0  0  0  0  0  0
   -8.3774   23.4311  -31.4959 H   0  0  0  0  0  0  0  0  0  0  0  0
   -8.3115   22.5602  -33.0919 H   0  0  0  0  0  0  0  0  0  0  0  0
   -7.3825   21.4806  -30.3906 H   0  0  0  0  0  0  0  0  0  0  0  0
   -8.8622   20.9934  -31.3292 H   0  0  0  0  0  0  0  0  0  0  0  0
   -8.9495   19.6178  -32.6883 H   0  0  0  0  0  0  0  0  0  0  0  0
   -7.7185   19.6571  -34.0060 H   0  0  0  0  0  0  0  0  0  0  0  0
   -7.6539   17.7559  -31.6040 H   0  0  0  0  0  0  0  0  0  0  0  0
   -8.2555   17.3291  -33.2472 H   0  0  0  0  0  0  0  0  0  0  0  0
   -3.3051   16.3333  -31.8874 H   0  0  0  0  0  0  0  0  0  0  0  0
   -4.0362   15.5178  -33.3313 H   0  0  0  0  0  0  0  0  0  0  0  0
   -1.4602   16.4819  -33.4694 H   0  0  0  0  0  0  0  0  0  0  0  0
   -2.0882   16.4620  -35.1257 H   0  0  0  0  0  0  0  0  0  0  0  0
   -0.1430   18.2199  -34.2795 H   0  0  0  0  0  0  0  0  0  0  0  0
   -1.2779   18.6360  -35.5788 H   0  0  0  0  0  0  0  0  0  0  0  0
   -1.0711   19.7686  -32.8723 H   0  0  0  0  0  0  0  0  0  0  0  0
   -2.0934   20.3289  -34.2153 H   0  0  0  0  0  0  0  0  0  0  0  0
   -2.7957   18.6146  -31.8814 H   0  0  0  0  0  0  0  0  0  0  0  0
   -3.8801   19.5290  -32.9484 H   0  0  0  0  0  0  0  0  0  0  0  0
   -3.9416   18.6419  -35.4667 H   0  0  0  0  0  0  0  0  0  0  0  0
   -4.3846   16.8811  -35.4763 H   0  0  0  0  0  0  0  0  0  0  0  0
   -5.1061   20.1478  -32.9673 H   0  0  0  0  0  0  0  0  0  0  0  0
   -6.3080   21.0914  -33.9398 H   0  0  0  0  0  0  0  0  0  0  0  0
   -5.0972   22.0105  -31.2869 H   0  0  0  0  0  0  0  0  0  0  0  0
   -4.5414   22.5319  -32.9210 H   0  0  0  0  0  0  0  0  0  0  0  0
   -2.6975   22.5836  -28.6807 H   0  0  0  0  0  0  0  0  0  0  0  0
  1  2  1  0
  2  3  2  0
  3  4  1  0
  4  5  2  0
  5  6  1  0
  6  7  1  0
  7  8  1  0
  8  9  1  0
  9 10  1  0
  9 11  1  0
 11 12  1  0
 12 13  1  0
 13 14  1  0
 14 15  1  0
 15 16  1  0
 16 17  1  0
 17 18  1  0
 18 19  1  0
 19 20  2  0
 19 21  1  0
 21 22  1  0
 22 23  1  0
 23 24  1  0
 24 25  1  0
 25 26  1  0
 22 27  1  0
 27 28  1  0
 28 29  2  0
 15 30  1  0
 30 31  1  0
  6 32  2  0
 32  2  1  0
 31 12  1  0
 28 18  1  0
 26 22  1  0
  1 33  1  0
  1 34  1  0
  1 35  1  0
  3 36  1  0
  4 37  1  0
  5 38  1  0
  8 39  1  0
  8 40  1  0
  9 41  1  1
 10 42  1  0
 11 43  1  0
 11 44  1  0
 12 45  1  0
 13 46  1  0
 13 47  1  0
 14 48  1  0
 14 49  1  0
 16 50  1  0
 16 51  1  0
 17 52  1  0
 17 53  1  0
 21 54  1  0
 21 55  1  0
 23 56  1  0
 23 57  1  0
 24 58  1  0
 24 59  1  0
 25 60  1  0
 25 61  1  0
 26 62  1  0
 26 63  1  0
 27 64  1  0
 27 65  1  0
 30 66  1  0
 30 67  1  0
 31 68  1  0
 31 69  1  0
 32 70  1  0
M  CHG  1  12   1
M  END
>  <UniqueID>  (28) 
25

>  <SMILES>  (28) 
Cc1cccc(OC[C@@H](O)C[NH+]2CCN(CCN3C(=O)CC4(CCCC4)CC3=O)CC2)c1

>  <Energy>  (28) 
93.34959806036073

>  <Genealogy>  (28) 
Cc1cccc(OCC(O)C[NH+]2CCN(CCN3C(=O)CC4(CCCC4)CC3=O)CC2)c1 (protonated)
Cc1cccc(OC[C@@H](O)C[NH+]2CCN(CCN3C(=O)CC4(CCCC4)CC3=O)CC2)c1 (chirality)
Cc1cccc(OC[C@@H](O)C[NH+]2CCN(CCN3C(=O)CC4(CCCC4)CC3=O)CC2)c1 (3D coordinates assigned)
Cc1cccc(OC[C@@H](O)C[NH+]2CCN(CCN3C(=O)CC4(CCCC4)CC3=O)CC2)c1 (nonaromatic ring conformer: 93.34959806036073 kcal/mol)

>  <smiles>  (28) 
Cc1cccc(OCC(O)CN2CCN(CCN3C(=O)CC4(CCCC4)CC3=O)CC2)c1

>  <score_type>  (28) 
oracle

>  <origin>  (28) 
adg

>  <m_score__min__energy>  (28) 
-8.7599999999999998

>  <m_primary>  (28) 
energy

$$$$
28:0
     RDKit          3D

 45 48  0  0  0  0  0  0  0  0999 V2000
   -5.3920   25.3220  -30.4200 C   0  0  0  0  0  0  0  0  0  0  0  0
   -5.8960   24.1750  -31.2900 C   0  0  0  0  0  0  0  0  0  0  0  0
   -7.1590   23.5470  -30.6970 C   0  0  0  0  0  0  0  0  0  0  0  0
   -8.4670   23.3880  -31.9630 S   0  0  0  0  0  0  0  0  0  0  0  0
   -8.2820   21.6130  -32.1640 C   0  0  0  0  0  0  0  0  0  0  0  0
   -9.4260   20.7770  -32.1380 C   0  0  0  0  0  0  0  0  0  0  0  0
   -9.2830   19.3900  -32.3110 C   0  0  0  0  0  0  0  0  0  0  0  0
   -7.9950   18.8980  -32.4820 C   0  0  0  0  0  0  0  0  0  0  0  0
   -7.6130   17.6320  -32.7180 N   0  0  0  0  0  0  0  0  0  0  0  0
   -6.2600   17.7350  -32.8440 C   0  0  0  0  0  0  0  0  0  0  0  0
   -5.4070   16.5510  -33.0920 C   0  0  0  0  0  0  0  0  0  0  0  0
   -5.0390   16.2210  -34.4080 C   0  0  0  0  0  0  0  0  0  0  0  0
   -4.2420   15.1000  -34.6570 C   0  0  0  0  0  0  0  0  0  0  0  0
   -3.8160   14.2930  -33.5990 C   0  0  0  0  0  0  0  0  0  0  0  0
   -4.1930   14.6020  -32.2900 C   0  0  0  0  0  0  0  0  0  0  0  0
   -4.9910   15.7210  -32.0360 C   0  0  0  0  0  0  0  0  0  0  0  0
   -5.8020   19.0130  -32.7000 N   0  0  0  0  0  0  0  0  0  0  0  0
   -4.4720   19.5210  -32.8990 C   0  0  0  0  0  0  0  0  0  0  0  0
   -3.9760   20.5440  -32.0750 C   0  0  0  0  0  0  0  0  0  0  0  0
   -2.6790   21.0300  -32.2620 C   0  0  0  0  0  0  0  0  0  0  0  0
   -1.8700   20.5000  -33.2710 C   0  0  0  0  0  0  0  0  0  0  0  0
   -2.3580   19.4810  -34.0950 C   0  0  0  0  0  0  0  0  0  0  0  0
   -3.6560   18.9930  -33.9110 C   0  0  0  0  0  0  0  0  0  0  0  0
   -6.9170   19.7250  -32.4730 C   0  0  0  0  0  0  0  0  0  0  0  0
   -7.0350   21.0730  -32.3330 N   0  0  0  0  0  0  0  0  0  0  0  0
   -5.5088   25.0562  -29.3590 H   0  0  0  0  0  0  0  0  0  0  0  0
   -4.3296   25.5072  -30.6368 H   0  0  0  0  0  0  0  0  0  0  0  0
   -5.9741   26.2298  -30.6368 H   0  0  0  0  0  0  0  0  0  0  0  0
   -6.1241   24.5598  -32.2949 H   0  0  0  0  0  0  0  0  0  0  0  0
   -5.1129   23.4041  -31.3395 H   0  0  0  0  0  0  0  0  0  0  0  0
   -6.9145   22.5487  -30.3050 H   0  0  0  0  0  0  0  0  0  0  0  0
   -7.5287   24.1975  -29.8907 H   0  0  0  0  0  0  0  0  0  0  0  0
  -10.4239   21.2131  -31.9827 H   0  0  0  0  0  0  0  0  0  0  0  0
  -10.1558   18.7205  -32.3111 H   0  0  0  0  0  0  0  0  0  0  0  0
   -5.3797   16.8476  -35.2454 H   0  0  0  0  0  0  0  0  0  0  0  0
   -3.9496   14.8526  -35.6882 H   0  0  0  0  0  0  0  0  0  0  0  0
   -3.1840   13.4147  -33.7968 H   0  0  0  0  0  0  0  0  0  0  0  0
   -3.8613   13.9637  -31.4578 H   0  0  0  0  0  0  0  0  0  0  0  0
   -5.2951   15.9535  -31.0048 H   0  0  0  0  0  0  0  0  0  0  0  0
   -4.6099   20.9640  -31.2802 H   0  0  0  0  0  0  0  0  0  0  0  0
   -2.2942   21.8311  -31.6139 H   0  0  0  0  0  0  0  0  0  0  0  0
   -0.8497   20.8843  -33.4169 H   0  0  0  0  0  0  0  0  0  0  0  0
   -1.7209   19.0630  -34.8883 H   0  0  0  0  0  0  0  0  0  0  0  0
   -4.0382   18.1927  -34.5618 H   0  0  0  0  0  0  0  0  0  0  0  0
   -6.1960   21.6930  -32.3690 H   0  0  0  0  0  0  0  0  0  0  0  0
  1  2  1  0
  2  3  1  0
  3  4  1  0
  4  5  1  0
  5  6  2  0
  6  7  1  0
  7  8  2  0
  8  9  1  0
  9 10  2  0
 10 11  1  0
 11 12  2  0
 12 13  1  0
 13 14  2  0
 14 15  1  0
 15 16  2  0
 10 17  1  0
 17 18  1  0
 18 19  2  0
 19 20  1  0
 20 21  2  0
 21 22  1  0
 22 23  2  0
 17 24  1  0
 24 25  2  0
 25  5  1  0
 24  8  1  0
 16 11  1  0
 23 18  1  0
  1 26  1  0
  1 27  1  0
  1 28  1  0
  2 29  1  0
  2 30  1  0
  3 31  1  0
  3 32  1  0
  6 33  1  0
  7 34  1  0
 12 35  1  0
 13 36  1  0
 14 37  1  0
 15 38  1  0
 16 39  1  0
 19 40  1  0
 20 41  1  0
 21 42  1  0
 22 43  1  0
 23 44  1  0
 25 45  1  0
M  CHG  1  25   1
M  END
>  <UniqueID>  (29) 
26

>  <SMILES>  (29) 
CCCSc1ccc2nc(-c3ccccc3)n(-c3ccccc3)c2[nH+]1

>  <Energy>  (29) 
89.1352149650687

>  <Genealogy>  (29) 
CCCSc1ccc2nc(-c3ccccc3)n(-c3ccccc3)c2[nH+]1 (protonated)
CCCSc1ccc2nc(-c3ccccc3)n(-c3ccccc3)c2[nH+]1 (3D coordinates assigned)
CCCSc1ccc2nc(-c3ccccc3)n(-c3ccccc3)c2[nH+]1 (optimized conformer: 89.1352149650687 kcal/mol)

>  <smiles>  (29) 
CCCSc1ccc2nc(-c3ccccc3)n(-c3ccccc3)c2n1

>  <score_type>  (29) 
oracle

>  <origin>  (29) 
adg

>  <m_score__min__energy>  (29) 
-7.8300000000000001

>  <m_primary>  (29) 
energy

$$$$
29:0
     RDKit          3D

 37 38  0  0  0  0  0  0  0  0999 V2000
   -3.5320   22.2830  -29.0330 C   0  0  0  0  0  0  0  0  0  0  0  0
   -2.6830   23.0460  -30.4500 S   0  0  0  0  0  0  0  0  0  0  0  0
   -2.0890   21.4760  -31.0950 C   0  0  0  0  0  0  0  0  0  0  0  0
   -1.2360   20.7030  -30.2960 C   0  0  0  0  0  0  0  0  0  0  0  0
   -0.7930   19.4550  -30.7380 C   0  0  0  0  0  0  0  0  0  0  0  0
   -1.2090   18.9650  -31.9760 C   0  0  0  0  0  0  0  0  0  0  0  0
   -2.0550   19.7310  -32.7830 C   0  0  0  0  0  0  0  0  0  0  0  0
   -2.4770   21.0000  -32.3660 C   0  0  0  0  0  0  0  0  0  0  0  0
   -3.5490   21.9550  -33.4530 S   0  0  0  0  0  0  0  0  0  0  0  0
   -5.0780   21.2890  -32.7620 C   0  0  0  0  0  0  0  0  0  0  0  0
   -5.4710   20.0060  -33.1640 C   0  0  0  0  0  0  0  0  0  0  0  0
   -6.6510   19.4400  -32.6840 C   0  0  0  0  0  0  0  0  0  0  0  0
   -7.4620   20.1590  -31.8110 C   0  0  0  0  0  0  0  0  0  0  0  0
   -7.1000   21.4480  -31.4190 C   0  0  0  0  0  0  0  0  0  0  0  0
   -5.9020   22.0370  -31.8820 C   0  0  0  0  0  0  0  0  0  0  0  0
   -5.5410   23.3840  -31.4980 N   0  0  0  0  0  0  0  0  0  0  0  0
   -6.4680   24.3710  -30.9340 C   0  0  0  0  0  0  0  0  0  0  0  0
   -5.7240   25.5400  -30.2670 C   0  0  0  0  0  0  0  0  0  0  0  0
   -4.3140   25.5860  -30.6490 N   0  0  0  0  0  0  0  0  0  0  0  0
   -3.1024   22.6691  -28.0969 H   0  0  0  0  0  0  0  0  0  0  0  0
   -4.6038   22.5273  -29.0728 H   0  0  0  0  0  0  0  0  0  0  0  0
   -3.4031   21.1913  -29.0728 H   0  0  0  0  0  0  0  0  0  0  0  0
   -0.9136   21.0817  -29.3149 H   0  0  0  0  0  0  0  0  0  0  0  0
   -0.1157   18.8579  -30.1098 H   0  0  0  0  0  0  0  0  0  0  0  0
   -0.8711   17.9754  -32.3173 H   0  0  0  0  0  0  0  0  0  0  0  0
   -2.3917   19.3346  -33.7523 H   0  0  0  0  0  0  0  0  0  0  0  0
   -4.8418   19.4391  -33.8659 H   0  0  0  0  0  0  0  0  0  0  0  0
   -6.9410   18.4255  -32.9951 H   0  0  0  0  0  0  0  0  0  0  0  0
   -8.3907   19.7099  -31.4291 H   0  0  0  0  0  0  0  0  0  0  0  0
   -7.7559   22.0133  -30.7405 H   0  0  0  0  0  0  0  0  0  0  0  0
   -4.5880   23.7410  -31.7260 H   0  0  0  0  0  0  0  0  0  0  0  0
   -7.1010   24.7668  -31.7419 H   0  0  0  0  0  0  0  0  0  0  0  0
   -7.0742   23.8694  -30.1653 H   0  0  0  0  0  0  0  0  0  0  0  0
   -6.2036   26.4831  -30.5679 H   0  0  0  0  0  0  0  0  0  0  0  0
   -5.7745   25.3953  -29.1777 H   0  0  0  0  0  0  0  0  0  0  0  0
   -3.8670   26.4340  -30.2300 H   0  0  0  0  0  0  0  0  0  0  0  0
   -4.2520   25.6650  -31.6880 H   0  0  0  0  0  0  0  0  0  0  0  0
  1  2  1  0
  2  3  1  0
  3  4  2  0
  4  5  1  0
  5  6  2  0
  6  7  1  0
  7  8  2  0
  8  9  1  0
  9 10  1  0
 10 11  2  0
 11 12  1  0
 12 13  2  0
 13 14  1  0
 14 15  2  0
 15 16  1  0
 16 17  1  0
 17 18  1  0
 18 19  1  0
  8  3  1  0
 15 10  1  0
  1 20  1  0
  1 21  1  0
  1 22  1  0
  4 23  1  0
  5 24  1  0
  6 25  1  0
  7 26  1  0
 11 27  1  0
 12 28  1  0
 13 29  1  0
 14 30  1  0
 16 31  1  0
 17 32  1  0
 17 33  1  0
 18 34  1  0
 18 35  1  0
 19 36  1  0
 19 37  1  0
M  END
>  <UniqueID>  (30) 
27

>  <SMILES>  (30) 
CSc1ccccc1Sc1ccccc1NCCN

>  <Energy>  (30) 
28.29697169187922

>  <Genealogy>  (30) 
CSc1ccccc1Sc1ccccc1NCCN (3D coordinates assigned)
CSc1ccccc1Sc1ccccc1NCCN (optimized conformer: 28.29697169187922 kcal/mol)

>  <smiles>  (30) 
CSc1ccccc1Sc1ccccc1NCCN

>  <score_type>  (30) 
oracle

>  <origin>  (30) 
adg

>  <m_score__min__energy>  (30) 
-8.1600000000000001

>  <m_primary>  (30) 
energy

$$$$
30:0
     RDKit          3D

 51 53  0  0  0  0  0  0  0  0999 V2000
    0.2995   24.4273  -23.9625 H   0  0  0  0  0  0  0  0  0  0  0  0
   -0.3540   24.4490  -24.8470 C   0  0  0  0  0  0  0  0  0  0  0  0
   -1.2330   25.5120  -25.0350 C   0  0  0  0  0  0  0  0  0  0  0  0
   -1.2706   26.3298  -24.3003 H   0  0  0  0  0  0  0  0  0  0  0  0
   -2.0660   25.5420  -26.1530 C   0  0  0  0  0  0  0  0  0  0  0  0
   -2.7558   26.3871  -26.2948 H   0  0  0  0  0  0  0  0  0  0  0  0
   -2.0340   24.5020  -27.1030 C   0  0  0  0  0  0  0  0  0  0  0  0
   -2.9580   24.5500  -28.2680 C   0  0  0  0  0  0  0  0  0  0  0  0
   -2.5830   24.9150  -29.5190 N   0  0  0  0  0  0  0  0  0  0  0  0
   -3.5690   24.8700  -30.4130 N   0  0  0  0  0  0  0  0  0  0  0  0
   -4.7410   24.4580  -29.8830 C   0  0  0  0  0  0  0  0  0  0  0  0
   -5.8520   24.3590  -30.5490 N   0  0  0  0  0  0  0  0  0  0  0  0
   -6.0610   23.4820  -31.6630 C   0  0  0  0  0  0  0  0  0  0  0  0
   -5.5390   23.7760  -32.7720 O   0  0  0  0  0  0  0  0  0  0  0  0
   -6.8870   22.3050  -31.5520 N   0  0  0  0  0  0  0  0  0  0  0  0
   -6.5790   21.1340  -32.3870 C   0  0  0  0  0  0  0  0  0  0  0  0
   -6.7703   21.3847  -33.4408 H   0  0  0  0  0  0  0  0  0  0  0  0
   -5.5223   20.8679  -32.2366 H   0  0  0  0  0  0  0  0  0  0  0  0
   -7.4430   19.9290  -31.9950 C   0  0  0  0  0  0  0  0  0  0  0  0
   -7.2653   19.1150  -32.7132 H   0  0  0  0  0  0  0  0  0  0  0  0
   -7.1633   19.6254  -30.9754 H   0  0  0  0  0  0  0  0  0  0  0  0
   -8.9410   20.2750  -31.9960 C   0  0  0  0  0  0  0  0  0  0  0  0
   -9.3071   20.2279  -33.0322 H   0  0  0  0  0  0  0  0  0  0  0  0
   -9.4387   19.5456  -31.3400 H   0  0  0  0  0  0  0  0  0  0  0  0
   -9.2580   21.6800  -31.4300 C   0  0  0  0  0  0  0  0  0  0  0  0
   -9.5323   22.3417  -32.2648 H   0  0  0  0  0  0  0  0  0  0  0  0
  -10.0821   21.5691  -30.7099 H   0  0  0  0  0  0  0  0  0  0  0  0
   -8.0740   22.2990  -30.6840 C   0  0  0  0  0  0  0  0  0  0  0  0
   -8.3223   23.3316  -30.3976 H   0  0  0  0  0  0  0  0  0  0  0  0
   -7.8620   21.7053  -29.7826 H   0  0  0  0  0  0  0  0  0  0  0  0
   -4.6030   24.1420  -28.2410 S   0  0  0  0  0  0  0  0  0  0  0  0
   -1.1360   23.4210  -26.9160 C   0  0  0  0  0  0  0  0  0  0  0  0
   -1.0920   22.4000  -27.8850 O   0  0  0  0  0  0  0  0  0  0  0  0
   -1.8620   21.1950  -27.9130 C   0  0  0  0  0  0  0  0  0  0  0  0
   -2.5768   21.2087  -27.0770 H   0  0  0  0  0  0  0  0  0  0  0  0
   -1.1713   20.3434  -27.8255 H   0  0  0  0  0  0  0  0  0  0  0  0
   -2.6400   21.0500  -29.2330 C   0  0  0  0  0  0  0  0  0  0  0  0
   -3.7146   21.1471  -29.0191 H   0  0  0  0  0  0  0  0  0  0  0  0
   -2.3928   20.0644  -29.6542 H   0  0  0  0  0  0  0  0  0  0  0  0
   -2.2630   22.0750  -30.2460 N   0  0  0  0  0  0  0  0  0  0  0  0
   -2.3840   23.0380  -29.8540 H   0  0  0  0  0  0  0  0  0  0  0  0
   -0.8570   21.9200  -30.6640 C   0  0  0  0  0  0  0  0  0  0  0  0
   -0.2154   21.8493  -29.7733 H   0  0  0  0  0  0  0  0  0  0  0  0
   -0.7520   21.0048  -31.2652 H   0  0  0  0  0  0  0  0  0  0  0  0
   -0.5551   22.7903  -31.2652 H   0  0  0  0  0  0  0  0  0  0  0  0
   -3.1350   21.9830  -31.4310 C   0  0  0  0  0  0  0  0  0  0  0  0
   -4.1810   21.8726  -31.1089 H   0  0  0  0  0  0  0  0  0  0  0  0
   -3.0316   22.8970  -32.0342 H   0  0  0  0  0  0  0  0  0  0  0  0
   -2.8431   21.1107  -32.0342 H   0  0  0  0  0  0  0  0  0  0  0  0
   -0.3000   23.4110  -25.7780 C   0  0  0  0  0  0  0  0  0  0  0  0
    0.4005   22.5770  -25.6240 H   0  0  0  0  0  0  0  0  0  0  0  0
  1  2  1  0
  2  3  2  0
  3  4  1  0
  3  5  1  0
  5  6  1  0
  5  7  2  0
  7  8  1  0
  8  9  2  0
  9 10  1  0
 10 11  1  0
 11 12  2  0
 12 13  1  0
 13 14  2  0
 13 15  1  0
 15 16  1  0
 16 17  1  0
 16 18  1  0
 16 19  1  0
 19 20  1  0
 19 21  1  0
 19 22  1  0
 22 23  1  0
 22 24  1  0
 22 25  1  0
 25 26  1  0
 25 27  1  0
 25 28  1  0
 28 29  1  0
 28 30  1  0
 11 31  1  0
  7 32  1  0
 32 33  1  0
 33 34  1  0
 34 35  1  0
 34 36  1  0
 34 37  1  0
 37 38  1  0
 37 39  1  0
 37 40  1  0
 40 41  1  0
 40 42  1  0
 42 43  1  0
 42 44  1  0
 42 45  1  0
 40 46  1  0
 46 47  1  0
 46 48  1  0
 46 49  1  0
 32 50  2  0
 50 51  1  0
 50  2  1  0
 31  8  1  0
 28 15  1  0
M  CHG  2  10  -1  40   1
M  END
>  <UniqueID>  (31) 
28

>  <SMILES>  (31) 
C[NH+](C)CCOc1ccccc1-c1n[n-]/c(=N\C(=O)N2CCCCC2)s1

>  <Energy>  (31) 
99.12179471304708

>  <Genealogy>  (31) 
C[NH+](C)CCOc1ccccc1-c1n[n-]c(=NC(=O)N2CCCCC2)s1 (protonated)
C[NH+](C)CCOc1ccccc1-c1n[n-]/c(=N\C(=O)N2CCCCC2)s1 (cis-trans isomerization)
C[NH+](C)CCOc1ccccc1-c1n[n-]/c(=N\C(=O)N2CCCCC2)s1 (3D coordinates assigned)
C[NH+](C)CCOc1ccccc1-c1n[n-]/c(=N\C(=O)N2CCCCC2)s1 (nonaromatic ring conformer: 99.12179471304708 kcal/mol)

>  <smiles>  (31) 
CN(C)CCOc1ccccc1-c1n[nH]c(=NC(=O)N2CCCCC2)s1

>  <score_type>  (31) 
oracle

>  <origin>  (31) 
adg

>  <m_score__min__energy>  (31) 
-7.9199999999999999

>  <m_primary>  (31) 
energy

$$$$
31:0
     RDKit          3D

 43 45  0  0  0  0  0  0  0  0999 V2000
   -4.0600   16.2180  -34.2390 C   0  0  0  0  0  0  0  0  0  0  0  0
   -5.1750   17.0840  -34.6530 N   0  0  0  0  0  0  0  0  0  0  0  0
   -6.4820   16.5280  -34.2210 C   0  0  0  0  0  0  0  0  0  0  0  0
   -7.0030   17.2010  -32.9410 C   0  0  0  0  0  0  0  0  0  0  0  0
   -7.2020   18.6660  -33.1220 N   0  0  0  0  0  0  0  0  0  0  0  0
   -7.1130   19.3440  -31.8050 C   0  0  0  0  0  0  0  0  0  0  0  0
   -7.5780   20.7920  -31.8610 C   0  0  0  0  0  0  0  0  0  0  0  0
   -8.9620   21.0480  -31.8640 C   0  0  0  0  0  0  0  0  0  0  0  0
   -9.4460   22.3530  -31.9730 C   0  0  0  0  0  0  0  0  0  0  0  0
   -8.5590   23.4220  -32.0800 C   0  0  0  0  0  0  0  0  0  0  0  0
   -7.1820   23.1920  -32.0650 C   0  0  0  0  0  0  0  0  0  0  0  0
   -6.6770   21.8870  -31.9430 C   0  0  0  0  0  0  0  0  0  0  0  0
   -5.2090   21.7100  -31.8990 C   0  0  0  0  0  0  0  0  0  0  0  0
   -4.5380   21.6460  -30.6670 C   0  0  0  0  0  0  0  0  0  0  0  0
   -3.1510   21.4810  -30.6290 C   0  0  0  0  0  0  0  0  0  0  0  0
   -2.4230   21.3910  -31.8210 C   0  0  0  0  0  0  0  0  0  0  0  0
   -0.5280   21.1610  -31.7670 Br  0  0  0  0  0  0  0  0  0  0  0  0
   -3.0830   21.4750  -33.0500 C   0  0  0  0  0  0  0  0  0  0  0  0
   -4.4710   21.6400  -33.0910 C   0  0  0  0  0  0  0  0  0  0  0  0
   -6.2640   19.2550  -34.1200 C   0  0  0  0  0  0  0  0  0  0  0  0
   -4.9450   18.4750  -34.2010 C   0  0  0  0  0  0  0  0  0  0  0  0
   -4.0126   16.1812  -33.1406 H   0  0  0  0  0  0  0  0  0  0  0  0
   -4.2178   15.2033  -34.6334 H   0  0  0  0  0  0  0  0  0  0  0  0
   -3.1160   16.6220  -34.6334 H   0  0  0  0  0  0  0  0  0  0  0  0
   -7.2159   16.6811  -35.0260 H   0  0  0  0  0  0  0  0  0  0  0  0
   -6.3406   15.4583  -34.0073 H   0  0  0  0  0  0  0  0  0  0  0  0
   -7.9646   16.7434  -32.6654 H   0  0  0  0  0  0  0  0  0  0  0  0
   -6.2518   17.0553  -32.1507 H   0  0  0  0  0  0  0  0  0  0  0  0
   -8.1740   18.7960  -33.4920 H   0  0  0  0  0  0  0  0  0  0  0  0
   -7.7415   18.7995  -31.0850 H   0  0  0  0  0  0  0  0  0  0  0  0
   -6.0559   19.3445  -31.5007 H   0  0  0  0  0  0  0  0  0  0  0  0
   -9.6702   20.2105  -31.7795 H   0  0  0  0  0  0  0  0  0  0  0  0
  -10.5304   22.5376  -31.9744 H   0  0  0  0  0  0  0  0  0  0  0  0
   -8.9438   24.4480  -32.1764 H   0  0  0  0  0  0  0  0  0  0  0  0
   -6.4866   24.0401  -32.1494 H   0  0  0  0  0  0  0  0  0  0  0  0
   -5.1063   21.7260  -29.7286 H   0  0  0  0  0  0  0  0  0  0  0  0
   -2.6309   21.4218  -29.6615 H   0  0  0  0  0  0  0  0  0  0  0  0
   -2.5097   21.4112  -33.9866 H   0  0  0  0  0  0  0  0  0  0  0  0
   -4.9860   21.7152  -34.0601 H   0  0  0  0  0  0  0  0  0  0  0  0
   -6.7448   19.2429  -35.1093 H   0  0  0  0  0  0  0  0  0  0  0  0
   -6.0318   20.2822  -33.8024 H   0  0  0  0  0  0  0  0  0  0  0  0
   -4.2736   18.9776  -34.9127 H   0  0  0  0  0  0  0  0  0  0  0  0
   -4.4940   18.4463  -33.1981 H   0  0  0  0  0  0  0  0  0  0  0  0
  1  2  1  0
  2  3  1  0
  3  4  1  0
  4  5  1  0
  5  6  1  0
  6  7  1  0
  7  8  2  0
  8  9  1  0
  9 10  2  0
 10 11  1  0
 11 12  2  0
 12 13  1  0
 13 14  2  0
 14 15  1  0
 15 16  2  0
 16 17  1  0
 16 18  1  0
 18 19  2  0
  5 20  1  0
 20 21  1  0
 21  2  1  0
 12  7  1  0
 19 13  1  0
  1 22  1  0
  1 23  1  0
  1 24  1  0
  3 25  1  0
  3 26  1  0
  4 27  1  0
  4 28  1  0
  5 29  1  0
  6 30  1  0
  6 31  1  0
  8 32  1  0
  9 33  1  0
 10 34  1  0
 11 35  1  0
 14 36  1  0
 15 37  1  0
 18 38  1  0
 19 39  1  0
 20 40  1  0
 20 41  1  0
 21 42  1  0
 21 43  1  0
M  CHG  1   5   1
M  END
>  <UniqueID>  (32) 
29

>  <SMILES>  (32) 
CN1CC[NH+](Cc2ccccc2-c2ccc(Br)cc2)CC1

>  <Energy>  (32) 
65.16327420924878

>  <Genealogy>  (32) 
CN1CC[NH+](Cc2ccccc2-c2ccc(Br)cc2)CC1 (protonated)
CN1CC[NH+](Cc2ccccc2-c2ccc(Br)cc2)CC1 (3D coordinates assigned)
CN1CC[NH+](Cc2ccccc2-c2ccc(Br)cc2)CC1 (nonaromatic ring conformer: 65.16327420924878 kcal/mol)

>  <smiles>  (32) 
CN1CCN(Cc2ccccc2-c2ccc(Br)cc2)CC1

>  <score_type>  (32) 
oracle

>  <origin>  (32) 
adg

>  <m_score__min__energy>  (32) 
-7.3899999999999997

>  <m_primary>  (32) 
energy

$$$$
32:0
     RDKit          3D

 60 63  0  0  0  0  0  0  0  0999 V2000
   -6.4560   17.2950  -32.9610 C   0  0  0  0  0  0  0  0  0  0  0  0
   -6.1520   18.3330  -31.8830 C   0  0  0  0  0  0  0  0  0  0  0  0
   -7.0240   19.5110  -32.0010 N   0  0  0  0  0  0  0  0  0  0  0  0
   -8.4620   19.3430  -31.7080 C   0  0  0  0  0  0  0  0  0  0  0  0
   -9.3530   20.4230  -32.3510 C   0  0  0  0  0  0  0  0  0  0  0  0
   -9.3310   21.7280  -31.6400 N   0  0  0  0  0  0  0  0  0  0  0  0
   -9.4980   21.5520  -30.1870 C   0  0  0  0  0  0  0  0  0  0  0  0
   -8.1440   22.5660  -31.9190 C   0  0  0  0  0  0  0  0  0  0  0  0
   -7.1210   21.8270  -32.7300 C   0  0  0  0  0  0  0  0  0  0  0  0
   -6.4130   20.8070  -32.2200 C   0  0  0  0  0  0  0  0  0  0  0  0
   -4.9840   20.9990  -31.8860 C   0  0  0  0  0  0  0  0  0  0  0  0
   -3.9800   20.6070  -32.7870 C   0  0  0  0  0  0  0  0  0  0  0  0
   -2.6410   20.8180  -32.4630 C   0  0  0  0  0  0  0  0  0  0  0  0
   -2.3030   21.4180  -31.2460 C   0  0  0  0  0  0  0  0  0  0  0  0
   -0.9660   21.6510  -30.9010 C   0  0  0  0  0  0  0  0  0  0  0  0
   -0.6510   22.2550  -29.6810 C   0  0  0  0  0  0  0  0  0  0  0  0
   -1.6690   22.6220  -28.7860 C   0  0  0  0  0  0  0  0  0  0  0  0
   -1.3280   23.3080  -27.4870 C   0  0  0  0  0  0  0  0  0  0  0  0
   -1.0950   24.7900  -27.6620 C   0  0  0  0  0  0  0  0  0  0  0  0
   -1.0250   25.2720  -28.8280 O   0  0  0  0  0  0  0  0  0  0  0  0
   -0.9260   25.6590  -26.5210 N   0  0  0  0  0  0  0  0  0  0  0  0
   -0.3970   25.1370  -25.2520 C   0  0  0  0  0  0  0  0  0  0  0  0
   -0.8140   26.0430  -24.0880 C   0  0  0  0  0  0  0  0  0  0  0  0
   -0.4900   27.3920  -24.3570 O   0  0  0  0  0  0  0  0  0  0  0  0
   -1.2580   27.8540  -25.4510 C   0  0  0  0  0  0  0  0  0  0  0  0
   -0.8740   27.1120  -26.7350 C   0  0  0  0  0  0  0  0  0  0  0  0
   -3.0100   22.4000  -29.1350 C   0  0  0  0  0  0  0  0  0  0  0  0
   -3.3360   21.7960  -30.3590 C   0  0  0  0  0  0  0  0  0  0  0  0
   -4.6390   21.5760  -30.6990 N   0  0  0  0  0  0  0  0  0  0  0  0
   -6.7348   16.3432  -32.4853 H   0  0  0  0  0  0  0  0  0  0  0  0
   -7.2880   17.6495  -33.5871 H   0  0  0  0  0  0  0  0  0  0  0  0
   -5.5642   17.1446  -33.5871 H   0  0  0  0  0  0  0  0  0  0  0  0
   -6.3033   17.8750  -30.8944 H   0  0  0  0  0  0  0  0  0  0  0  0
   -5.1104   18.6634  -32.0091 H   0  0  0  0  0  0  0  0  0  0  0  0
   -8.7810   18.3598  -32.0843 H   0  0  0  0  0  0  0  0  0  0  0  0
   -8.5817   19.4330  -30.6182 H   0  0  0  0  0  0  0  0  0  0  0  0
   -9.0088   20.5857  -33.3830 H   0  0  0  0  0  0  0  0  0  0  0  0
  -10.3874   20.0520  -32.3025 H   0  0  0  0  0  0  0  0  0  0  0  0
   -8.8355   22.2502  -29.6545 H   0  0  0  0  0  0  0  0  0  0  0  0
  -10.5431   21.7554  -29.9107 H   0  0  0  0  0  0  0  0  0  0  0  0
   -9.2401   20.5190  -29.9107 H   0  0  0  0  0  0  0  0  0  0  0  0
   -8.4618   23.4602  -32.4753 H   0  0  0  0  0  0  0  0  0  0  0  0
   -7.6855   22.8418  -30.9579 H   0  0  0  0  0  0  0  0  0  0  0  0
   -6.9460   22.1298  -33.7729 H   0  0  0  0  0  0  0  0  0  0  0  0
   -4.2494   20.1357  -33.7437 H   0  0  0  0  0  0  0  0  0  0  0  0
   -1.8504   20.5127  -33.1643 H   0  0  0  0  0  0  0  0  0  0  0  0
   -0.1619   21.3579  -31.5920 H   0  0  0  0  0  0  0  0  0  0  0  0
    0.4007   22.4442  -29.4201 H   0  0  0  0  0  0  0  0  0  0  0  0
   -2.1594   23.1620  -26.7816 H   0  0  0  0  0  0  0  0  0  0  0  0
   -0.3953   22.8644  -27.1084 H   0  0  0  0  0  0  0  0  0  0  0  0
   -0.7925   24.1245  -25.0833 H   0  0  0  0  0  0  0  0  0  0  0  0
    0.7012   25.1087  -25.3072 H   0  0  0  0  0  0  0  0  0  0  0  0
   -1.9001   25.9570  -23.9360 H   0  0  0  0  0  0  0  0  0  0  0  0
   -0.2729   25.7253  -23.1845 H   0  0  0  0  0  0  0  0  0  0  0  0
   -2.3243   27.6838  -25.2409 H   0  0  0  0  0  0  0  0  0  0  0  0
   -1.0628   28.9274  -25.5914 H   0  0  0  0  0  0  0  0  0  0  0  0
   -1.5764   27.3859  -27.5360 H   0  0  0  0  0  0  0  0  0  0  0  0
    0.1506   27.3949  -27.0183 H   0  0  0  0  0  0  0  0  0  0  0  0
   -3.8112   22.7016  -28.4443 H   0  0  0  0  0  0  0  0  0  0  0  0
   -5.3970   21.8410  -30.0270 H   0  0  0  0  0  0  0  0  0  0  0  0
  1  2  1  0
  2  3  1  0
  3  4  1  0
  4  5  1  0
  5  6  1  0
  6  7  1  0
  6  8  1  0
  8  9  1  0
  9 10  2  0
 10 11  1  0
 11 12  2  0
 12 13  1  0
 13 14  2  0
 14 15  1  0
 15 16  2  0
 16 17  1  0
 17 18  1  0
 18 19  1  0
 19 20  2  0
 19 21  1  0
 21 22  1  0
 22 23  1  0
 23 24  1  0
 24 25  1  0
 25 26  1  0
 17 27  2  0
 27 28  1  0
 28 29  2  0
 10  3  1  0
 29 11  1  0
 28 14  1  0
 26 21  1  0
  1 30  1  0
  1 31  1  0
  1 32  1  0
  2 33  1  0
  2 34  1  0
  4 35  1  0
  4 36  1  0
  5 37  1  0
  5 38  1  0
  7 39  1  0
  7 40  1  0
  7 41  1  0
  8 42  1  0
  8 43  1  0
  9 44  1  0
 12 45  1  0
 13 46  1  0
 15 47  1  0
 16 48  1  0
 18 49  1  0
 18 50  1  0
 22 51  1  0
 22 52  1  0
 23 53  1  0
 23 54  1  0
 25 55  1  0
 25 56  1  0
 26 57  1  0
 26 58  1  0
 27 59  1  0
 29 60  1  0
M  CHG  1  29   1
M  END
>  <UniqueID>  (33) 
30

>  <SMILES>  (33) 
CCN1CCN(C)CC=C1c1ccc2ccc(CC(=O)N3CCOCC3)cc2[nH+]1

>  <Energy>  (33) 
80.94986491265237

>  <Genealogy>  (33) 
CCN1CCN(C)CC=C1c1ccc2ccc(CC(=O)N3CCOCC3)cc2[nH+]1 (protonated)
CCN1CCN(C)CC=C1c1ccc2ccc(CC(=O)N3CCOCC3)cc2[nH+]1 (3D coordinates assigned)
CCN1CCN(C)CC=C1c1ccc2ccc(CC(=O)N3CCOCC3)cc2[nH+]1 (nonaromatic ring conformer: 80.94986491265237 kcal/mol)

>  <smiles>  (33) 
CCN1CCN(C)CC=C1c1ccc2ccc(CC(=O)N3CCOCC3)cc2n1

>  <score_type>  (33) 
oracle

>  <origin>  (33) 
adg

>  <m_score__min__energy>  (33) 
-6.96

>  <m_primary>  (33) 
energy

$$$$
33:0
     RDKit          3D

 41 42  0  0  0  0  0  0  0  0999 V2000
   -5.7280   14.0520  -34.2010 C   0  0  0  0  0  0  0  0  0  0  0  0
   -6.6830   15.0870  -34.2480 O   0  0  0  0  0  0  0  0  0  0  0  0
   -6.2750   16.3780  -34.0040 C   0  0  0  0  0  0  0  0  0  0  0  0
   -6.9090   17.1150  -33.0010 C   0  0  0  0  0  0  0  0  0  0  0  0
   -6.5510   18.3970  -32.7100 C   0  0  0  0  0  0  0  0  0  0  0  0
   -5.5170   19.0040  -33.4330 C   0  0  0  0  0  0  0  0  0  0  0  0
   -5.2310   20.2840  -33.0690 O   0  0  0  0  0  0  0  0  0  0  0  0
   -5.8960   21.3420  -32.6950 C   0  0  0  0  0  0  0  0  0  0  0  0
   -6.6140   22.4820  -32.2920 C   0  0  0  0  0  0  0  0  0  0  0  0
   -7.3060   22.4690  -31.0030 N   0  0  1  0  0  0  0  0  0  0  0  0
   -7.0480   23.6200  -30.2020 C   0  0  0  0  0  0  0  0  0  0  0  0
   -5.6540   24.0870  -30.1520 C   0  0  0  0  0  0  0  0  0  0  0  0
   -4.5480   23.5210  -29.5080 C   0  0  0  0  0  0  0  0  0  0  0  0
   -3.4330   24.2990  -29.7300 C   0  0  0  0  0  0  0  0  0  0  0  0
   -3.8320   25.2900  -30.4730 O   0  0  0  0  0  0  0  0  0  0  0  0
   -5.1160   25.2230  -30.7520 C   0  0  0  0  0  0  0  0  0  0  0  0
   -8.7220   22.2800  -31.2210 C   0  0  0  0  0  0  0  0  0  0  0  0
   -8.9880   20.9910  -31.9800 C   0  0  0  0  0  0  0  0  0  0  0  0
  -10.2920   20.8490  -32.3670 F   0  0  0  0  0  0  0  0  0  0  0  0
   -8.6820   19.9310  -31.1480 F   0  0  0  0  0  0  0  0  0  0  0  0
   -4.9230   18.2920  -34.3870 N   0  0  0  0  0  0  0  0  0  0  0  0
   -5.2620   17.0110  -34.6970 C   0  0  0  0  0  0  0  0  0  0  0  0
   -5.5030   13.8081  -33.1523 H   0  0  0  0  0  0  0  0  0  0  0  0
   -6.1278   13.1609  -34.7070 H   0  0  0  0  0  0  0  0  0  0  0  0
   -4.8077   14.3790  -34.7070 H   0  0  0  0  0  0  0  0  0  0  0  0
   -7.7226   16.6458  -32.4283 H   0  0  0  0  0  0  0  0  0  0  0  0
   -7.0700   18.9505  -31.9136 H   0  0  0  0  0  0  0  0  0  0  0  0
    0.0000    0.0000    0.0000 H   0  0  0  0  0  0  0  0  0  0  0  0
   -4.9497   21.8743  -32.5182 H   0  0  0  0  0  0  0  0  0  0  0  0
   -5.9006   23.3189  -32.2657 H   0  0  0  0  0  0  0  0  0  0  0  0
   -7.4295   22.5518  -33.0269 H   0  0  0  0  0  0  0  0  0  0  0  0
   -6.9570   21.6050  -30.4880 H   0  0  0  0  0  0  0  0  0  0  0  0
   -7.6625   24.4440  -30.5937 H   0  0  0  0  0  0  0  0  0  0  0  0
   -7.2904   23.3179  -29.1725 H   0  0  0  0  0  0  0  0  0  0  0  0
   -4.5662   22.5951  -28.9144 H   0  0  0  0  0  0  0  0  0  0  0  0
   -2.4143   24.1193  -29.3559 H   0  0  0  0  0  0  0  0  0  0  0  0
   -5.6751   25.9481  -31.3616 H   0  0  0  0  0  0  0  0  0  0  0  0
   -9.2333   22.2367  -30.2480 H   0  0  0  0  0  0  0  0  0  0  0  0
   -9.1006   23.1230  -31.8177 H   0  0  0  0  0  0  0  0  0  0  0  0
   -8.3694   21.0160  -32.8892 H   0  0  0  0  0  0  0  0  0  0  0  0
   -4.7292   16.4798  -35.4995 H   0  0  0  0  0  0  0  0  0  0  0  0
  1  2  1  0
  2  3  1  0
  3  4  2  0
  4  5  1  0
  5  6  2  0
  6  7  1  0
  7  8  1  0
  8  9  1  0
  9 10  1  0
 10 11  1  0
 11 12  1  0
 12 13  1  0
 13 14  2  0
 14 15  1  0
 15 16  1  0
 10 17  1  0
 17 18  1  0
 18 19  1  0
 18 20  1  0
  6 21  1  0
 21 22  2  0
 22  3  1  0
 16 12  2  0
  1 23  1  0
  1 24  1  0
  1 25  1  0
  4 26  1  0
  5 27  1  0
  8 28  1  0
  8 29  1  0
  9 30  1  0
  9 31  1  0
 10 32  1  1
 11 33  1  0
 11 34  1  0
 13 35  1  0
 14 36  1  0
 16 37  1  0
 17 38  1  0
 17 39  1  0
 18 40  1  0
 22 41  1  0
M  CHG  1  10   1
M  END
>  <UniqueID>  (34) 
31

>  <SMILES>  (34) 
COc1ccc(OCC[N@@H+](Cc2ccoc2)CC(F)F)nc1

>  <Energy>  (34) 
330.31115121313235

>  <Genealogy>  (34) 
COc1ccc(OCC[NH+](Cc2ccoc2)CC(F)F)nc1 (protonated)
COc1ccc(OCC[N@@H+](Cc2ccoc2)CC(F)F)nc1 (chirality)
COc1ccc(OCC[N@@H+](Cc2ccoc2)CC(F)F)nc1 (3D coordinates assigned)
COc1ccc(OCC[N@@H+](Cc2ccoc2)CC(F)F)nc1 (optimized conformer: 330.31115121313235 kcal/mol)

>  <smiles>  (34) 
COc1ccc(OCCN(Cc2ccoc2)CC(F)F)nc1

>  <score_type>  (34) 
oracle

>  <origin>  (34) 
adg

>  <m_score__min__energy>  (34) 
-5.4500000000000002

>  <m_primary>  (34) 
energy

$$$$
34:0
     RDKit          3D

 37 38  0  0  0  0  0  0  0  0999 V2000
   -4.8550   17.4440  -34.5540 C   0  0  0  0  0  0  0  0  0  0  0  0
   -5.5070   18.6010  -33.8650 C   0  0  0  0  0  0  0  0  0  0  0  0
   -6.7890   18.4520  -33.2940 C   0  0  0  0  0  0  0  0  0  0  0  0
   -7.3860   19.5580  -32.6610 C   0  0  0  0  0  0  0  0  0  0  0  0
   -8.6970   19.4640  -32.0780 N   0  0  0  0  0  0  0  0  0  0  0  0
   -9.1770   18.1780  -31.5720 C   0  0  0  0  0  0  0  0  0  0  0  0
   -9.6760   20.5220  -32.3300 C   0  0  0  0  0  0  0  0  0  0  0  0
   -6.6810   20.7190  -32.6250 N   0  0  0  0  0  0  0  0  0  0  0  0
   -6.9590   21.9120  -32.0680 C   0  0  0  0  0  0  0  0  0  0  0  0
   -5.8710   22.7400  -32.3110 C   0  0  0  0  0  0  0  0  0  0  0  0
   -5.7550   24.1780  -31.9080 C   0  0  0  0  0  0  0  0  0  0  0  0
   -4.7330   24.3400  -30.8530 N   0  0  0  0  0  0  0  0  0  0  0  0
   -4.2020   23.0310  -30.4340 C   0  0  0  0  0  0  0  0  0  0  0  0
   -5.3160   25.0280  -29.6900 C   0  0  0  0  0  0  0  0  0  0  0  0
   -4.9300   22.0640  -33.0120 N   0  0  0  0  0  0  0  0  0  0  0  0
   -5.4620   20.8410  -33.1720 C   0  0  0  0  0  0  0  0  0  0  0  0
   -4.8580   19.8010  -33.7960 N   0  0  0  0  0  0  0  0  0  0  0  0
   -4.4607   16.7444  -33.8023 H   0  0  0  0  0  0  0  0  0  0  0  0
   -5.5949   16.9276  -35.1831 H   0  0  0  0  0  0  0  0  0  0  0  0
   -4.0300   17.8094  -35.1831 H   0  0  0  0  0  0  0  0  0  0  0  0
   -7.3134   17.4863  -33.3430 H   0  0  0  0  0  0  0  0  0  0  0  0
   -9.1719   18.1917  -30.4721 H   0  0  0  0  0  0  0  0  0  0  0  0
  -10.2015   18.0017  -31.9317 H   0  0  0  0  0  0  0  0  0  0  0  0
   -8.5186   17.3736  -31.9317 H   0  0  0  0  0  0  0  0  0  0  0  0
  -10.0426   20.9182  -31.3715 H   0  0  0  0  0  0  0  0  0  0  0  0
   -9.2014   21.3316  -32.9039 H   0  0  0  0  0  0  0  0  0  0  0  0
  -10.5199   20.1116  -32.9039 H   0  0  0  0  0  0  0  0  0  0  0  0
   -7.8757   22.1808  -31.5227 H   0  0  0  0  0  0  0  0  0  0  0  0
   -5.4682   24.7774  -32.7846 H   0  0  0  0  0  0  0  0  0  0  0  0
   -6.7258   24.5170  -31.5173 H   0  0  0  0  0  0  0  0  0  0  0  0
   -4.1807   22.9785  -29.3355 H   0  0  0  0  0  0  0  0  0  0  0  0
   -4.8467   22.2310  -30.8269 H   0  0  0  0  0  0  0  0  0  0  0  0
   -3.1822   22.9062  -30.8269 H   0  0  0  0  0  0  0  0  0  0  0  0
   -4.9314   24.5741  -28.7647 H   0  0  0  0  0  0  0  0  0  0  0  0
   -5.0410   26.0927  -29.7180 H   0  0  0  0  0  0  0  0  0  0  0  0
   -6.4114   24.9314  -29.7180 H   0  0  0  0  0  0  0  0  0  0  0  0
   -4.0040   22.4110  -33.3480 H   0  0  0  0  0  0  0  0  0  0  0  0
  1  2  1  0
  2  3  1  0
  3  4  2  0
  4  5  1  0
  5  6  1  0
  5  7  1  0
  4  8  1  0
  8  9  1  0
  9 10  2  0
 10 11  1  0
 11 12  1  0
 12 13  1  0
 12 14  1  0
 10 15  1  0
 15 16  2  0
 16 17  1  0
 17  2  2  0
 16  8  1  0
  1 18  1  0
  1 19  1  0
  1 20  1  0
  3 21  1  0
  6 22  1  0
  6 23  1  0
  6 24  1  0
  7 25  1  0
  7 26  1  0
  7 27  1  0
  9 28  1  0
 11 29  1  0
 11 30  1  0
 13 31  1  0
 13 32  1  0
 13 33  1  0
 14 34  1  0
 14 35  1  0
 14 36  1  0
 15 37  1  0
M  CHG  1  15   1
M  END
>  <UniqueID>  (35) 
32

>  <SMILES>  (35) 
Cc1cc(N(C)C)n2cc(CN(C)C)[nH+]c2n1

>  <Energy>  (35) 
74.3294702161513

>  <Genealogy>  (35) 
Cc1cc(N(C)C)n2cc(CN(C)C)[nH+]c2n1 (protonated)
Cc1cc(N(C)C)n2cc(CN(C)C)[nH+]c2n1 (3D coordinates assigned)
Cc1cc(N(C)C)n2cc(CN(C)C)[nH+]c2n1 (optimized conformer: 74.3294702161513 kcal/mol)

>  <smiles>  (35) 
Cc1cc(N(C)C)n2cc(CN(C)C)nc2n1

>  <score_type>  (35) 
oracle

>  <origin>  (35) 
adg

>  <m_score__min__energy>  (35) 
-5.71

>  <m_primary>  (35) 
energy

$$$$
35:0
     RDKit          3D

 47 48  0  0  0  0  0  0  0  0999 V2000
   -1.6740   25.9100  -26.2870 C   0  0  0  0  0  0  0  0  0  0  0  0
   -2.9860   25.1290  -26.2320 C   0  0  0  0  0  0  0  0  0  0  0  0
   -3.3550   24.5570  -27.5470 N   0  0  0  0  0  0  0  0  0  0  0  0
   -4.1160   23.2860  -27.4840 C   0  0  0  0  0  0  0  0  0  0  0  0
   -3.2680   22.0250  -27.7190 C   0  0  0  0  0  0  0  0  0  0  0  0
   -2.3380   24.6360  -28.6270 C   0  0  0  0  0  0  0  0  0  0  0  0
   -2.7810   24.0820  -29.9900 C   0  0  0  0  0  0  0  0  0  0  0  0
   -3.8220   24.9140  -30.5730 N   0  0  0  0  0  0  0  0  0  0  0  0
   -5.1920   24.5120  -30.6640 C   0  0  0  0  0  0  0  0  0  0  0  0
   -5.9100   24.4620  -29.6280 O   0  0  0  0  0  0  0  0  0  0  0  0
   -5.7890   24.1770  -32.0000 C   0  0  0  0  0  0  0  0  0  0  0  0
   -6.0320   22.7210  -32.1160 N   0  0  0  0  0  0  0  0  0  0  0  0
   -4.9820   21.8350  -32.2650 C   0  0  0  0  0  0  0  0  0  0  0  0
   -3.5500   22.3020  -32.3690 C   0  0  0  0  0  0  0  0  0  0  0  0
   -5.2290   20.4570  -32.3240 C   0  0  0  0  0  0  0  0  0  0  0  0
   -6.5270   19.9690  -32.1840 C   0  0  0  0  0  0  0  0  0  0  0  0
   -6.7730   18.5860  -32.1970 C   0  0  0  0  0  0  0  0  0  0  0  0
   -8.0730   18.1040  -32.0300 C   0  0  0  0  0  0  0  0  0  0  0  0
   -9.1330   18.9940  -31.8510 C   0  0  0  0  0  0  0  0  0  0  0  0
   -8.8990   20.3720  -31.8400 C   0  0  0  0  0  0  0  0  0  0  0  0
   -7.5930   20.8730  -32.0060 C   0  0  0  0  0  0  0  0  0  0  0  0
   -7.3210   22.2540  -31.9790 C   0  0  0  0  0  0  0  0  0  0  0  0
   -8.2730   23.0680  -31.8080 O   0  0  0  0  0  0  0  0  0  0  0  0
   -1.3271   26.1165  -25.2638 H   0  0  0  0  0  0  0  0  0  0  0  0
   -0.9158   25.3161  -26.8184 H   0  0  0  0  0  0  0  0  0  0  0  0
   -1.8346   26.8596  -26.8184 H   0  0  0  0  0  0  0  0  0  0  0  0
   -2.8793   24.3088  -25.5068 H   0  0  0  0  0  0  0  0  0  0  0  0
   -3.7814   25.8279  -25.9339 H   0  0  0  0  0  0  0  0  0  0  0  0
   -4.5767   23.2100  -26.4880 H   0  0  0  0  0  0  0  0  0  0  0  0
   -4.8557   23.3226  -28.2973 H   0  0  0  0  0  0  0  0  0  0  0  0
   -2.9773   21.5928  -26.7501 H   0  0  0  0  0  0  0  0  0  0  0  0
   -3.8553   21.2889  -28.2875 H   0  0  0  0  0  0  0  0  0  0  0  0
   -2.3647   22.2913  -28.2875 H   0  0  0  0  0  0  0  0  0  0  0  0
   -2.0676   25.6937  -28.7620 H   0  0  0  0  0  0  0  0  0  0  0  0
   -1.4990   24.0039  -28.3006 H   0  0  0  0  0  0  0  0  0  0  0  0
   -1.9155   24.0593  -30.6685 H   0  0  0  0  0  0  0  0  0  0  0  0
   -3.1809   23.0676  -29.8448 H   0  0  0  0  0  0  0  0  0  0  0  0
   -6.7433   24.7122  -32.1132 H   0  0  0  0  0  0  0  0  0  0  0  0
   -5.0842   24.4812  -32.7879 H   0  0  0  0  0  0  0  0  0  0  0  0
   -3.1343   22.4376  -31.3596 H   0  0  0  0  0  0  0  0  0  0  0  0
   -2.9577   21.5505  -32.9116 H   0  0  0  0  0  0  0  0  0  0  0  0
   -3.5147   23.2582  -32.9116 H   0  0  0  0  0  0  0  0  0  0  0  0
   -4.3949   19.7574  -32.4815 H   0  0  0  0  0  0  0  0  0  0  0  0
   -5.9402   17.8815  -32.3390 H   0  0  0  0  0  0  0  0  0  0  0  0
   -8.2619   17.0204  -32.0396 H   0  0  0  0  0  0  0  0  0  0  0  0
  -10.1552   18.6101  -31.7182 H   0  0  0  0  0  0  0  0  0  0  0  0
   -9.7389   21.0686  -31.7010 H   0  0  0  0  0  0  0  0  0  0  0  0
  1  2  1  0
  2  3  1  0
  3  4  1  0
  4  5  1  0
  3  6  1  0
  6  7  1  0
  7  8  1  0
  8  9  1  0
  9 10  2  0
  9 11  1  0
 11 12  1  0
 12 13  1  0
 13 14  1  0
 13 15  2  0
 15 16  1  0
 16 17  2  0
 17 18  1  0
 18 19  2  0
 19 20  1  0
 20 21  2  0
 21 22  1  0
 22 23  2  0
 22 12  1  0
 21 16  1  0
  1 24  1  0
  1 25  1  0
  1 26  1  0
  2 27  1  0
  2 28  1  0
  4 29  1  0
  4 30  1  0
  5 31  1  0
  5 32  1  0
  5 33  1  0
  6 34  1  0
  6 35  1  0
  7 36  1  0
  7 37  1  0
 11 38  1  0
 11 39  1  0
 14 40  1  0
 14 41  1  0
 14 42  1  0
 15 43  1  0
 17 44  1  0
 18 45  1  0
 19 46  1  0
 20 47  1  0
M  CHG  1   8  -1
M  END
>  <UniqueID>  (36) 
33

>  <SMILES>  (36) 
CCN(CC)CC[N-]C(=O)Cn1c(C)cc2ccccc2c1=O

>  <Energy>  (36) 
54.26360993385135

>  <Genealogy>  (36) 
CCN(CC)CC[N-]C(=O)Cn1c(C)cc2ccccc2c1=O (protonated)
CCN(CC)CC[N-]C(=O)Cn1c(C)cc2ccccc2c1=O (3D coordinates assigned)
CCN(CC)CC[N-]C(=O)Cn1c(C)cc2ccccc2c1=O (optimized conformer: 54.26360993385135 kcal/mol)

>  <smiles>  (36) 
CCN(CC)CCNC(=O)Cn1c(C)cc2ccccc2c1=O

>  <score_type>  (36) 
oracle

>  <origin>  (36) 
adg

>  <m_score__min__energy>  (36) 
-9.2699999999999996

>  <m_primary>  (36) 
energy

$$$$
36:0
     RDKit          3D

 33 35  0  0  0  0  0  0  0  0999 V2000
   -4.6390   13.9890  -34.2210 C   0  0  0  0  0  0  0  0  0  0  0  0
   -4.2380   15.3200  -34.6990 N   0  0  0  0  0  0  0  0  0  0  0  0
   -3.1080   15.4450  -35.5680 C   0  0  0  0  0  0  0  0  0  0  0  0
   -4.9740   16.4410  -34.2910 C   0  0  0  0  0  0  0  0  0  0  0  0
   -6.0980   16.3120  -33.5340 C   0  0  0  0  0  0  0  0  0  0  0  0
   -6.8370   17.4050  -33.1210 C   0  0  0  0  0  0  0  0  0  0  0  0
   -6.4740   18.7150  -33.4550 C   0  0  0  0  0  0  0  0  0  0  0  0
   -7.3330   19.7640  -33.0020 C   0  0  0  0  0  0  0  0  0  0  0  0
   -8.6950   19.6910  -33.0770 N   0  0  0  0  0  0  0  0  0  0  0  0
   -9.2450   20.7790  -32.5670 N   0  0  0  0  0  0  0  0  0  0  0  0
   -8.3140   21.6160  -32.1330 C   0  0  0  0  0  0  0  0  0  0  0  0
   -8.3870   22.8480  -31.5250 C   0  0  0  0  0  0  0  0  0  0  0  0
   -7.2360   23.5150  -31.1530 C   0  0  0  0  0  0  0  0  0  0  0  0
   -6.0420   22.8750  -31.4260 C   0  0  0  0  0  0  0  0  0  0  0  0
   -5.9700   21.6390  -32.0360 C   0  0  0  0  0  0  0  0  0  0  0  0
   -7.1030   20.9800  -32.4050 C   0  0  0  0  0  0  0  0  0  0  0  0
   -5.3430   18.8260  -34.2150 C   0  0  0  0  0  0  0  0  0  0  0  0
   -4.5910   17.7190  -34.6370 C   0  0  0  0  0  0  0  0  0  0  0  0
   -4.6417   13.9799  -33.1210 H   0  0  0  0  0  0  0  0  0  0  0  0
   -5.6476   13.7546  -34.5921 H   0  0  0  0  0  0  0  0  0  0  0  0
   -3.9277   13.2365  -34.5921 H   0  0  0  0  0  0  0  0  0  0  0  0
   -2.1925   15.5463  -34.9667 H   0  0  0  0  0  0  0  0  0  0  0  0
   -3.0327   14.5497  -36.2026 H   0  0  0  0  0  0  0  0  0  0  0  0
   -3.2302   16.3351  -36.2026 H   0  0  0  0  0  0  0  0  0  0  0  0
   -6.4292   15.3048  -33.2412 H   0  0  0  0  0  0  0  0  0  0  0  0
   -7.7377   17.2402  -32.5114 H   0  0  0  0  0  0  0  0  0  0  0  0
   -9.2870   18.9230  -33.4700 H   0  0  0  0  0  0  0  0  0  0  0  0
   -9.3690   23.3052  -31.3337 H   0  0  0  0  0  0  0  0  0  0  0  0
   -7.2680   24.5010  -30.6664 H   0  0  0  0  0  0  0  0  0  0  0  0
   -5.1037   23.3748  -31.1435 H   0  0  0  0  0  0  0  0  0  0  0  0
   -4.9877   21.1818  -32.2259 H   0  0  0  0  0  0  0  0  0  0  0  0
   -5.0065   19.8309  -34.5097 H   0  0  0  0  0  0  0  0  0  0  0  0
   -3.6894   17.8723  -35.2483 H   0  0  0  0  0  0  0  0  0  0  0  0
  1  2  1  0
  2  3  1  0
  2  4  1  0
  4  5  2  0
  5  6  1  0
  6  7  2  0
  7  8  1  0
  8  9  1  0
  9 10  1  0
 10 11  2  0
 11 12  1  0
 12 13  2  0
 13 14  1  0
 14 15  2  0
 15 16  1  0
  7 17  1  0
 17 18  2  0
 18  4  1  0
 16  8  2  0
 16 11  1  0
  1 19  1  0
  1 20  1  0
  1 21  1  0
  3 22  1  0
  3 23  1  0
  3 24  1  0
  5 25  1  0
  6 26  1  0
  9 27  1  0
 12 28  1  0
 13 29  1  0
 14 30  1  0
 15 31  1  0
 17 32  1  0
 18 33  1  0
M  END
>  <smiles>  (37) 
CN(C)c1ccc(-c2[nH]nc3ccccc23)cc1

>  <score_type>  (37) 
oracle

>  <origin>  (37) 
adg

>  <m_score__min__energy>  (37) 
-6.8799999999999999

>  <m_primary>  (37) 
energy

$$$$
37:0
     RDKit          3D

 38 40  0  0  0  0  0  0  0  0999 V2000
    2.7126   24.9462  -27.9548 H   0  0  0  0  0  0  0  0  0  0  0  0
    1.8250   25.1730  -27.3460 C   0  0  0  0  0  0  0  0  0  0  0  0
    0.5820   24.9170  -27.8350 N   0  0  0  0  0  0  0  0  0  0  0  0
   -0.5500   25.1780  -27.1200 C   0  0  0  0  0  0  0  0  0  0  0  0
   -1.8610   24.8660  -27.7310 C   0  0  0  0  0  0  0  0  0  0  0  0
   -2.1450   25.2600  -29.0050 N   0  0  0  0  0  0  0  0  0  0  0  0
   -3.3830   24.8870  -29.3860 C   0  0  0  0  0  0  0  0  0  0  0  0
   -3.8610   25.1620  -30.5610 N   0  0  0  0  0  0  0  0  0  0  0  0
   -5.2820   25.3170  -30.8530 C   0  0  0  0  0  0  0  0  0  0  0  0
   -5.4058   25.9061  -31.7737 H   0  0  0  0  0  0  0  0  0  0  0  0
   -5.7750   25.8369  -30.0183 H   0  0  0  0  0  0  0  0  0  0  0  0
   -5.9030   23.9590  -31.0380 C   0  0  0  0  0  0  0  0  0  0  0  0
   -7.2480   23.7550  -30.6880 C   0  0  0  0  0  0  0  0  0  0  0  0
   -7.8456   24.5939  -30.3020 H   0  0  0  0  0  0  0  0  0  0  0  0
   -7.8310   22.4940  -30.8270 C   0  0  0  0  0  0  0  0  0  0  0  0
   -8.8867   22.3437  -30.5569 H   0  0  0  0  0  0  0  0  0  0  0  0
   -7.0760   21.4250  -31.3080 C   0  0  0  0  0  0  0  0  0  0  0  0
   -7.5390   20.4336  -31.4208 H   0  0  0  0  0  0  0  0  0  0  0  0
   -5.7340   21.6090  -31.6470 C   0  0  0  0  0  0  0  0  0  0  0  0
   -5.1444   20.7610  -32.0254 H   0  0  0  0  0  0  0  0  0  0  0  0
   -5.1300   22.8760  -31.5070 C   0  0  0  0  0  0  0  0  0  0  0  0
   -3.7780   23.1010  -31.8260 O   0  0  0  0  0  0  0  0  0  0  0  0
   -2.7380   22.1240  -31.7910 C   0  0  0  0  0  0  0  0  0  0  0  0
   -1.8633   22.5087  -32.3359 H   0  0  0  0  0  0  0  0  0  0  0  0
   -3.1060   21.2002  -32.2612 H   0  0  0  0  0  0  0  0  0  0  0  0
   -2.3350   21.8140  -30.3540 C   0  0  0  0  0  0  0  0  0  0  0  0
   -3.0130   22.3355  -29.6624 H   0  0  0  0  0  0  0  0  0  0  0  0
   -2.3982   20.7295  -30.1813 H   0  0  0  0  0  0  0  0  0  0  0  0
   -1.3030   22.1533  -30.1813 H   0  0  0  0  0  0  0  0  0  0  0  0
   -4.1890   24.0510  -28.1660 S   0  0  0  0  0  0  0  0  0  0  0  0
   -2.8960   24.1690  -27.0960 C   0  0  0  0  0  0  0  0  0  0  0  0
   -2.8685   23.7672  -26.0724 H   0  0  0  0  0  0  0  0  0  0  0  0
   -0.4300   25.7320  -25.8320 C   0  0  0  0  0  0  0  0  0  0  0  0
   -1.3293   25.9511  -25.2376 H   0  0  0  0  0  0  0  0  0  0  0  0
    0.8390   26.0020  -25.3130 C   0  0  0  0  0  0  0  0  0  0  0  0
    0.9420   26.4339  -24.3066 H   0  0  0  0  0  0  0  0  0  0  0  0
    1.9750   25.7230  -26.0730 C   0  0  0  0  0  0  0  0  0  0  0  0
    2.9776   25.9343  -25.6729 H   0  0  0  0  0  0  0  0  0  0  0  0
  1  2  1  0
  2  3  2  0
  3  4  1  0
  4  5  1  0
  5  6  1  0
  6  7  1  0
  7  8  2  0
  8  9  1  0
  9 10  1  0
  9 11  1  0
  9 12  1  0
 12 13  2  0
 13 14  1  0
 13 15  1  0
 15 16  1  0
 15 17  2  0
 17 18  1  0
 17 19  1  0
 19 20  1  0
 19 21  2  0
 21 22  1  0
 22 23  1  0
 23 24  1  0
 23 25  1  0
 23 26  1  0
 26 27  1  0
 26 28  1  0
 26 29  1  0
  7 30  1  0
 30 31  1  0
 31 32  1  0
  4 33  2  0
 33 34  1  0
 33 35  1  0
 35 36  1  0
 35 37  2  0
 37 38  1  0
 37  2  1  0
 31  5  2  0
 21 12  1  0
M  CHG  1   6  -1
M  END
>  <UniqueID>  (38) 
34

>  <SMILES>  (38) 
CCOc1ccccc1C/N=c1/[n-]c(-c2ccccn2)cs1

>  <Energy>  (38) 
69.69367900134083

>  <Genealogy>  (38) 
CCOc1ccccc1CN=c1[n-]c(-c2ccccn2)cs1 (protonated)
CCOc1ccccc1C/N=c1/[n-]c(-c2ccccn2)cs1 (cis-trans isomerization)
CCOc1ccccc1C/N=c1/[n-]c(-c2ccccn2)cs1 (3D coordinates assigned)
CCOc1ccccc1C/N=c1/[n-]c(-c2ccccn2)cs1 (optimized conformer: 69.69367900134083 kcal/mol)

>  <smiles>  (38) 
CCOc1ccccc1CN=c1[nH]c(-c2ccccn2)cs1

>  <score_type>  (38) 
oracle

>  <origin>  (38) 
adg

>  <m_score__min__energy>  (38) 
-8.8599999999999994

>  <m_primary>  (38) 
energy

$$$$
38:0
     RDKit          3D

 34 37  0  0  0  0  0  0  0  0999 V2000
   -6.1310   25.9760  -29.7090 C   0  0  0  0  0  0  0  0  0  0  0  0
   -5.9160   24.6090  -30.2900 C   0  0  0  0  0  0  0  0  0  0  0  0
   -4.6120   24.1220  -30.4780 C   0  0  0  0  0  0  0  0  0  0  0  0
   -4.4030   22.8660  -31.0520 C   0  0  0  0  0  0  0  0  0  0  0  0
   -5.4920   22.0890  -31.4560 C   0  0  0  0  0  0  0  0  0  0  0  0
   -5.2900   20.8620  -32.0190 N   0  0  0  0  0  0  0  0  0  0  0  0
   -6.3240   20.0770  -32.4370 C   0  0  0  0  0  0  0  0  0  0  0  0
   -6.0300   18.7630  -33.0510 C   0  0  0  0  0  0  0  0  0  0  0  0
   -6.0370   17.6050  -32.2550 C   0  0  0  0  0  0  0  0  0  0  0  0
   -5.7370   16.3610  -32.8180 C   0  0  0  0  0  0  0  0  0  0  0  0
   -5.4140   16.2630  -34.1740 C   0  0  0  0  0  0  0  0  0  0  0  0
   -5.1220   15.0570  -34.7170 F   0  0  0  0  0  0  0  0  0  0  0  0
   -5.3830   17.4140  -34.9680 C   0  0  0  0  0  0  0  0  0  0  0  0
   -5.6830   18.6600  -34.4090 C   0  0  0  0  0  0  0  0  0  0  0  0
   -7.6300   20.5610  -32.2500 C   0  0  0  0  0  0  0  0  0  0  0  0
   -8.8390   19.9440  -32.5160 C   0  0  0  0  0  0  0  0  0  0  0  0
   -9.8180   20.8400  -32.1190 C   0  0  0  0  0  0  0  0  0  0  0  0
   -9.1710   21.9570  -31.6180 C   0  0  0  0  0  0  0  0  0  0  0  0
   -7.8350   21.7730  -31.6970 N   0  0  0  0  0  0  0  0  0  0  0  0
   -6.8100   22.5750  -31.2880 C   0  0  0  0  0  0  0  0  0  0  0  0
   -7.0130   23.8410  -30.7080 C   0  0  0  0  0  0  0  0  0  0  0  0
   -6.1211   25.9134  -28.6108 H   0  0  0  0  0  0  0  0  0  0  0  0
   -5.3275   26.6478  -30.0452 H   0  0  0  0  0  0  0  0  0  0  0  0
   -7.1020   26.3687  -30.0452 H   0  0  0  0  0  0  0  0  0  0  0  0
   -3.7505   24.7333  -30.1714 H   0  0  0  0  0  0  0  0  0  0  0  0
   -3.3789   22.4876  -31.1864 H   0  0  0  0  0  0  0  0  0  0  0  0
   -6.2795   17.6776  -31.1845 H   0  0  0  0  0  0  0  0  0  0  0  0
   -5.7553   15.4568  -32.1918 H   0  0  0  0  0  0  0  0  0  0  0  0
   -5.1222   17.3389  -36.0340 H   0  0  0  0  0  0  0  0  0  0  0  0
   -5.6473   19.5638  -35.0350 H   0  0  0  0  0  0  0  0  0  0  0  0
   -8.9918   18.9462  -32.9532 H   0  0  0  0  0  0  0  0  0  0  0  0
  -10.9058   20.6919  -32.1887 H   0  0  0  0  0  0  0  0  0  0  0  0
   -9.6671   22.8537  -31.2183 H   0  0  0  0  0  0  0  0  0  0  0  0
   -8.0344   24.2294  -30.5821 H   0  0  0  0  0  0  0  0  0  0  0  0
  1  2  1  0
  2  3  2  0
  3  4  1  0
  4  5  2  0
  5  6  1  0
  6  7  2  0
  7  8  1  0
  8  9  2  0
  9 10  1  0
 10 11  2  0
 11 12  1  0
 11 13  1  0
 13 14  2  0
  7 15  1  0
 15 16  2  0
 16 17  1  0
 17 18  2  0
 18 19  1  0
 19 20  1  0
 20 21  2  0
 21  2  1  0
 20  5  1  0
 14  8  1  0
 19 15  1  0
  1 22  1  0
  1 23  1  0
  1 24  1  0
  3 25  1  0
  4 26  1  0
  9 27  1  0
 10 28  1  0
 13 29  1  0
 14 30  1  0
 16 31  1  0
 17 32  1  0
 18 33  1  0
 21 34  1  0
M  END
>  <UniqueID>  (39) 
35

>  <SMILES>  (39) 
Cc1ccc2nc(-c3ccc(F)cc3)c3cccn3c2c1

>  <Energy>  (39) 
79.77717273122566

>  <Genealogy>  (39) 
Cc1ccc2nc(-c3ccc(F)cc3)c3cccn3c2c1 (3D coordinates assigned)
Cc1ccc2nc(-c3ccc(F)cc3)c3cccn3c2c1 (optimized conformer: 79.77717273122566 kcal/mol)

>  <smiles>  (39) 
Cc1ccc2nc(-c3ccc(F)cc3)c3cccn3c2c1

>  <score_type>  (39) 
oracle

>  <origin>  (39) 
adg

>  <m_score__min__energy>  (39) 
-8.2400000000000002

>  <m_primary>  (39) 
energy

$$$$
39:0
     RDKit          3D

 35 36  0  0  0  0  0  0  0  0999 V2000
   -2.1150   24.7180  -26.6870 C   0  0  0  0  0  0  0  0  0  0  0  0
   -2.0300   23.5140  -27.5870 C   0  0  0  0  0  0  0  0  0  0  0  0
   -1.6010   22.2970  -27.0290 C   0  0  0  0  0  0  0  0  0  0  0  0
   -1.4450   21.1630  -27.8290 C   0  0  0  0  0  0  0  0  0  0  0  0
   -1.7130   21.2300  -29.1950 C   0  0  0  0  0  0  0  0  0  0  0  0
   -2.1610   22.4250  -29.7620 C   0  0  0  0  0  0  0  0  0  0  0  0
   -2.3590   23.5620  -28.9680 C   0  0  0  0  0  0  0  0  0  0  0  0
   -2.8300   24.7520  -29.6150 N   0  0  0  0  0  0  0  0  0  0  0  0
   -4.1420   24.9460  -30.1510 C   0  0  0  0  0  0  0  0  0  0  0  0
   -4.3170   25.6700  -31.1680 O   0  0  0  0  0  0  0  0  0  0  0  0
   -5.3230   24.3520  -29.4510 C   0  0  0  0  0  0  0  0  0  0  0  0
   -6.8680   24.6500  -30.3830 S   0  0  0  0  0  0  0  0  0  0  0  0
   -7.0250   22.9640  -31.0000 C   0  0  0  0  0  0  0  0  0  0  0  0
   -8.0050   22.1800  -30.4800 N   0  0  0  0  0  0  0  0  0  0  0  0
   -8.1480   20.9110  -30.8540 N   0  0  0  0  0  0  0  0  0  0  0  0
   -7.3170   20.3510  -31.7660 C   0  0  0  0  0  0  0  0  0  0  0  0
   -7.5040   18.9170  -32.1590 C   0  0  0  0  0  0  0  0  0  0  0  0
   -6.3120   21.1450  -32.3340 C   0  0  0  0  0  0  0  0  0  0  0  0
   -5.5380   20.6510  -33.2000 O   0  0  0  0  0  0  0  0  0  0  0  0
   -6.1840   22.4540  -31.9560 N   0  0  0  0  0  0  0  0  0  0  0  0
   -5.2140   23.2710  -32.5740 N   0  0  0  0  0  0  0  0  0  0  0  0
   -2.0920   24.3928  -25.6364 H   0  0  0  0  0  0  0  0  0  0  0  0
   -1.2616   25.3837  -26.8835 H   0  0  0  0  0  0  0  0  0  0  0  0
   -3.0534   25.2572  -26.8835 H   0  0  0  0  0  0  0  0  0  0  0  0
   -1.3861   22.2374  -25.9518 H   0  0  0  0  0  0  0  0  0  0  0  0
   -1.1103   20.2160  -27.3805 H   0  0  0  0  0  0  0  0  0  0  0  0
   -1.5715   20.3409  -29.8271 H   0  0  0  0  0  0  0  0  0  0  0  0
   -2.3604   22.4739  -30.8427 H   0  0  0  0  0  0  0  0  0  0  0  0
   -5.1703   23.2675  -29.3481 H   0  0  0  0  0  0  0  0  0  0  0  0
   -5.4163   24.8276  -28.4636 H   0  0  0  0  0  0  0  0  0  0  0  0
   -7.5849   18.2965  -31.2544 H   0  0  0  0  0  0  0  0  0  0  0  0
   -8.4228   18.8171  -32.7556 H   0  0  0  0  0  0  0  0  0  0  0  0
   -6.6416   18.5848  -32.7556 H   0  0  0  0  0  0  0  0  0  0  0  0
   -4.8440   23.0500  -33.5250 H   0  0  0  0  0  0  0  0  0  0  0  0
   -4.8780   24.1530  -32.1320 H   0  0  0  0  0  0  0  0  0  0  0  0
  1  2  1  0
  2  3  2  0
  3  4  1  0
  4  5  2  0
  5  6  1  0
  6  7  2  0
  7  8  1  0
  8  9  1  0
  9 10  2  0
  9 11  1  0
 11 12  1  0
 12 13  1  0
 13 14  2  0
 14 15  1  0
 15 16  2  0
 16 17  1  0
 16 18  1  0
 18 19  2  0
 18 20  1  0
 20 21  1  0
  7  2  1  0
 20 13  1  0
  1 22  1  0
  1 23  1  0
  1 24  1  0
  3 25  1  0
  4 26  1  0
  5 27  1  0
  6 28  1  0
 11 29  1  0
 11 30  1  0
 17 31  1  0
 17 32  1  0
 17 33  1  0
 21 34  1  0
 21 35  1  0
M  CHG  1   8  -1
M  END
>  <UniqueID>  (40) 
36

>  <SMILES>  (40) 
Cc1ccccc1[N-]C(=O)CSc1nnc(C)c(=O)n1N

>  <Energy>  (40) 
41.33616118471182

>  <Genealogy>  (40) 
Cc1ccccc1[N-]C(=O)CSc1nnc(C)c(=O)n1N (protonated)
Cc1ccccc1[N-]C(=O)CSc1nnc(C)c(=O)n1N (3D coordinates assigned)
Cc1ccccc1[N-]C(=O)CSc1nnc(C)c(=O)n1N (optimized conformer: 41.33616118471182 kcal/mol)

>  <smiles>  (40) 
Cc1ccccc1NC(=O)CSc1nnc(C)c(=O)n1N

>  <score_type>  (40) 
oracle

>  <origin>  (40) 
adg

>  <m_score__min__energy>  (40) 
-8.8699999999999992

>  <m_primary>  (40) 
energy

$$$$
40:0
     RDKit          3D

 50 53  0  0  0  0  0  0  0  0999 V2000
    0.3770   18.5530  -35.2300 C   0  0  0  0  0  0  0  0  0  0  0  0
   -0.8430   19.1030  -34.5400 C   0  0  0  0  0  0  0  0  0  0  0  0
   -0.9950   20.4940  -34.4150 C   0  0  0  0  0  0  0  0  0  0  0  0
   -2.1150   21.0320  -33.7800 C   0  0  0  0  0  0  0  0  0  0  0  0
   -3.1050   20.1910  -33.2580 C   0  0  0  0  0  0  0  0  0  0  0  0
   -4.2620   20.7500  -32.6010 N   0  0  0  0  0  0  0  0  0  0  0  0
   -5.5110   20.3590  -32.9860 C   0  0  0  0  0  0  0  0  0  0  0  0
   -5.6500   19.5180  -33.9200 O   0  0  0  0  0  0  0  0  0  0  0  0
   -6.6390   20.8740  -32.3370 C   0  0  0  0  0  0  0  0  0  0  0  0
   -7.9370   20.4670  -32.7050 C   0  0  0  0  0  0  0  0  0  0  0  0
   -9.0510   20.9640  -32.0320 C   0  0  0  0  0  0  0  0  0  0  0  0
   -8.8850   21.8630  -30.9830 C   0  0  0  0  0  0  0  0  0  0  0  0
   -7.6070   22.2800  -30.6080 C   0  0  0  0  0  0  0  0  0  0  0  0
   -6.4560   21.8050  -31.2860 C   0  0  0  0  0  0  0  0  0  0  0  0
   -5.1800   22.2110  -30.9480 N   0  0  0  0  0  0  0  0  0  0  0  0
   -4.9440   23.2030  -29.8710 C   0  0  0  0  0  0  0  0  0  0  0  0
   -4.3700   24.4650  -30.4380 C   0  0  0  0  0  0  0  0  0  0  0  0
   -5.0280   25.1270  -31.2840 O   0  0  0  0  0  0  0  0  0  0  0  0
   -3.0910   24.9230  -29.9770 N   0  0  0  0  0  0  0  0  0  0  0  0
   -2.2630   24.3040  -28.9820 C   0  0  0  0  0  0  0  0  0  0  0  0
   -1.1870   23.5120  -29.4050 C   0  0  0  0  0  0  0  0  0  0  0  0
   -0.3430   22.9050  -28.4690 C   0  0  0  0  0  0  0  0  0  0  0  0
   -0.5610   23.0980  -27.1030 C   0  0  0  0  0  0  0  0  0  0  0  0
   -1.6150   23.9080  -26.6710 C   0  0  0  0  0  0  0  0  0  0  0  0
   -2.4610   24.5150  -27.6040 C   0  0  0  0  0  0  0  0  0  0  0  0
   -4.0950   21.6620  -31.5920 C   0  0  0  0  0  0  0  0  0  0  0  0
   -2.9220   22.0020  -31.2560 O   0  0  0  0  0  0  0  0  0  0  0  0
   -2.9620   18.8010  -33.3760 C   0  0  0  0  0  0  0  0  0  0  0  0
   -1.8390   18.2450  -34.0130 C   0  0  0  0  0  0  0  0  0  0  0  0
   -1.7190   16.7490  -34.1250 C   0  0  0  0  0  0  0  0  0  0  0  0
    1.1074   18.2237  -34.4763 H   0  0  0  0  0  0  0  0  0  0  0  0
    0.0883   17.6979  -35.8589 H   0  0  0  0  0  0  0  0  0  0  0  0
    0.8266   19.3355  -35.8589 H   0  0  0  0  0  0  0  0  0  0  0  0
   -0.2241   21.1652  -34.8214 H   0  0  0  0  0  0  0  0  0  0  0  0
   -2.2206   22.1231  -33.6891 H   0  0  0  0  0  0  0  0  0  0  0  0
   -8.0716   19.7516  -33.5297 H   0  0  0  0  0  0  0  0  0  0  0  0
  -10.0611   20.6460  -32.3297 H   0  0  0  0  0  0  0  0  0  0  0  0
   -9.7653   22.2469  -30.4467 H   0  0  0  0  0  0  0  0  0  0  0  0
   -7.4910   22.9878  -29.7740 H   0  0  0  0  0  0  0  0  0  0  0  0
   -5.8980   23.4308  -29.3730 H   0  0  0  0  0  0  0  0  0  0  0  0
   -4.2307   22.7807  -29.1479 H   0  0  0  0  0  0  0  0  0  0  0  0
   -1.0049   23.3667  -30.4801 H   0  0  0  0  0  0  0  0  0  0  0  0
    0.4926   22.2755  -28.8089 H   0  0  0  0  0  0  0  0  0  0  0  0
    0.0968   22.6125  -26.3671 H   0  0  0  0  0  0  0  0  0  0  0  0
   -1.7791   24.0682  -25.5952 H   0  0  0  0  0  0  0  0  0  0  0  0
   -3.2837   25.1593  -27.2605 H   0  0  0  0  0  0  0  0  0  0  0  0
   -3.7377   18.1380  -32.9653 H   0  0  0  0  0  0  0  0  0  0  0  0
   -1.6836   16.3076  -33.1181 H   0  0  0  0  0  0  0  0  0  0  0  0
   -2.5881   16.3512  -34.6694 H   0  0  0  0  0  0  0  0  0  0  0  0
   -0.7976   16.4948  -34.6694 H   0  0  0  0  0  0  0  0  0  0  0  0
  1  2  1  0
  2  3  2  0
  3  4  1  0
  4  5  2  0
  5  6  1  0
  6  7  1  0
  7  8  2  0
  7  9  1  0
  9 10  2  0
 10 11  1  0
 11 12  2  0
 12 13  1  0
 13 14  2  0
 14 15  1  0
 15 16  1  0
 16 17  1  0
 17 18  2  0
 17 19  1  0
 19 20  1  0
 20 21  2  0
 21 22  1  0
 22 23  2  0
 23 24  1  0
 24 25  2  0
 15 26  1  0
 26 27  2  0
  5 28  1  0
 28 29  2  0
 29 30  1  0
 29  2  1  0
 26  6  1  0
 14  9  1  0
 25 20  1  0
  1 31  1  0
  1 32  1  0
  1 33  1  0
  3 34  1  0
  4 35  1  0
 10 36  1  0
 11 37  1  0
 12 38  1  0
 13 39  1  0
 16 40  1  0
 16 41  1  0
 21 42  1  0
 22 43  1  0
 23 44  1  0
 24 45  1  0
 25 46  1  0
 28 47  1  0
 30 48  1  0
 30 49  1  0
 30 50  1  0
M  CHG  1  19  -1
M  END
>  <UniqueID>  (41) 
37

>  <SMILES>  (41) 
Cc1ccc(-n2c(=O)c3ccccc3n(CC(=O)[N-]c3ccccc3)c2=O)cc1C

>  <Energy>  (41) 
78.89727112136703

>  <Genealogy>  (41) 
Cc1ccc(-n2c(=O)c3ccccc3n(CC(=O)[N-]c3ccccc3)c2=O)cc1C (protonated)
Cc1ccc(-n2c(=O)c3ccccc3n(CC(=O)[N-]c3ccccc3)c2=O)cc1C (3D coordinates assigned)
Cc1ccc(-n2c(=O)c3ccccc3n(CC(=O)[N-]c3ccccc3)c2=O)cc1C (optimized conformer: 78.89727112136703 kcal/mol)

>  <smiles>  (41) 
Cc1ccc(-n2c(=O)c3ccccc3n(CC(=O)Nc3ccccc3)c2=O)cc1C

>  <score_type>  (41) 
oracle

>  <origin>  (41) 
adg

>  <m_score__min__energy>  (41) 
-11.130000000000001

>  <m_primary>  (41) 
energy

$$$$
41:0
     RDKit          3D

 64 68  0  0  0  0  0  0  0  0999 V2000
    0.6000   21.1400  -33.7850 C   0  0  0  0  0  0  0  0  0  0  0  0
   -0.1760   19.8480  -33.7480 C   0  0  0  0  0  0  0  0  0  0  0  0
   -0.3740   19.1450  -34.9510 C   0  0  0  0  0  0  0  0  0  0  0  0
   -1.1150   17.9630  -34.9740 C   0  0  0  0  0  0  0  0  0  0  0  0
   -1.6810   17.4710  -33.8010 C   0  0  0  0  0  0  0  0  0  0  0  0
   -1.4990   18.1510  -32.5970 C   0  0  0  0  0  0  0  0  0  0  0  0
   -0.7360   19.3350  -32.5430 C   0  0  0  0  0  0  0  0  0  0  0  0
   -0.5640   20.0000  -31.2670 N   0  0  0  0  0  0  0  0  0  0  0  0
   -1.5080   21.0860  -31.1390 C   0  0  0  0  0  0  0  0  0  0  0  0
   -2.5490   21.2340  -32.0650 C   0  0  0  0  0  0  0  0  0  0  0  0
   -3.4420   22.3000  -31.9620 C   0  0  0  0  0  0  0  0  0  0  0  0
   -3.3220   23.2430  -30.9240 C   0  0  0  0  0  0  0  0  0  0  0  0
   -4.1970   24.3360  -30.8320 O   0  0  0  0  0  0  0  0  0  0  0  0
   -5.5560   24.2660  -30.4100 C   0  0  0  0  0  0  0  0  0  0  0  0
   -6.4460   24.0170  -31.6380 C   0  0  0  0  0  0  0  0  0  0  0  0
   -7.0590   22.6710  -31.6900 N   0  0  0  0  0  0  0  0  0  0  0  0
   -8.5340   22.7070  -31.7730 C   0  0  0  0  0  0  0  0  0  0  0  0
   -9.1190   21.2910  -31.9500 C   0  0  0  0  0  0  0  0  0  0  0  0
   -8.1180   20.2740  -31.5800 N   0  0  0  0  0  0  0  0  0  0  0  0
   -8.7150   18.9300  -31.6010 C   0  0  0  0  0  0  0  0  0  0  0  0
   -6.9530   20.3350  -32.4900 C   0  0  0  0  0  0  0  0  0  0  0  0
   -6.4780   21.7850  -32.7130 C   0  0  0  0  0  0  0  0  0  0  0  0
   -2.2870   23.0930  -29.9670 C   0  0  0  0  0  0  0  0  0  0  0  0
   -2.1080   24.0400  -28.8360 C   0  0  0  0  0  0  0  0  0  0  0  0
   -1.2600   25.1010  -28.8940 N   0  0  0  0  0  0  0  0  0  0  0  0
   -1.2470   25.7980  -27.7290 C   0  0  0  0  0  0  0  0  0  0  0  0
   -0.4710   26.9350  -27.4980 C   0  0  0  0  0  0  0  0  0  0  0  0
   -0.5460   27.5600  -26.2400 C   0  0  0  0  0  0  0  0  0  0  0  0
   -1.3880   27.0430  -25.2360 C   0  0  0  0  0  0  0  0  0  0  0  0
   -2.1620   25.8970  -25.4790 C   0  0  0  0  0  0  0  0  0  0  0  0
   -2.0700   25.2990  -26.7340 C   0  0  0  0  0  0  0  0  0  0  0  0
   -2.8520   23.9350  -27.3090 S   0  0  0  0  0  0  0  0  0  0  0  0
   -1.3850   22.0210  -30.0980 C   0  0  0  0  0  0  0  0  0  0  0  0
    0.8018   21.4760  -32.7572 H   0  0  0  0  0  0  0  0  0  0  0  0
    1.5521   20.9809  -34.3124 H   0  0  0  0  0  0  0  0  0  0  0  0
    0.0122   21.9058  -34.3124 H   0  0  0  0  0  0  0  0  0  0  0  0
    0.0607   19.5321  -35.8844 H   0  0  0  0  0  0  0  0  0  0  0  0
   -1.2522   17.4191  -35.9202 H   0  0  0  0  0  0  0  0  0  0  0  0
   -2.2729   16.5441  -33.8239 H   0  0  0  0  0  0  0  0  0  0  0  0
   -1.9570   17.7581  -31.6773 H   0  0  0  0  0  0  0  0  0  0  0  0
   -0.6870   19.3560  -30.4550 H   0  0  0  0  0  0  0  0  0  0  0  0
    0.4190   20.3560  -31.2120 H   0  0  0  0  0  0  0  0  0  0  0  0
   -2.6627   20.5036  -32.8796 H   0  0  0  0  0  0  0  0  0  0  0  0
   -4.2500   22.4052  -32.7009 H   0  0  0  0  0  0  0  0  0  0  0  0
   -5.6778   23.4414  -29.6923 H   0  0  0  0  0  0  0  0  0  0  0  0
   -5.8450   25.2102  -29.9254 H   0  0  0  0  0  0  0  0  0  0  0  0
   -7.2547   24.7627  -31.6329 H   0  0  0  0  0  0  0  0  0  0  0  0
   -5.7922   24.0968  -32.5190 H   0  0  0  0  0  0  0  0  0  0  0  0
   -8.9345   23.1473  -30.8479 H   0  0  0  0  0  0  0  0  0  0  0  0
   -8.8184   23.3123  -32.6464 H   0  0  0  0  0  0  0  0  0  0  0  0
  -10.0037   21.1807  -31.3056 H   0  0  0  0  0  0  0  0  0  0  0  0
   -9.4004   21.1493  -33.0039 H   0  0  0  0  0  0  0  0  0  0  0  0
   -8.8698   18.5814  -30.5692 H   0  0  0  0  0  0  0  0  0  0  0  0
   -9.6816   18.9663  -32.1247 H   0  0  0  0  0  0  0  0  0  0  0  0
   -8.0400   18.2371  -32.1247 H   0  0  0  0  0  0  0  0  0  0  0  0
   -6.1283   19.7531  -32.0526 H   0  0  0  0  0  0  0  0  0  0  0  0
   -7.2560   19.9203  -33.4627 H   0  0  0  0  0  0  0  0  0  0  0  0
   -5.3807   21.8227  -32.6462 H   0  0  0  0  0  0  0  0  0  0  0  0
   -6.8042   22.1217  -33.7081 H   0  0  0  0  0  0  0  0  0  0  0  0
    0.1863   27.3345  -28.2843 H   0  0  0  0  0  0  0  0  0  0  0  0
    0.0566   28.4580  -26.0390 H   0  0  0  0  0  0  0  0  0  0  0  0
   -1.4394   27.5399  -24.2560 H   0  0  0  0  0  0  0  0  0  0  0  0
   -2.8214   25.4836  -24.7016 H   0  0  0  0  0  0  0  0  0  0  0  0
   -0.5670   21.9130  -29.3705 H   0  0  0  0  0  0  0  0  0  0  0  0
  1  2  1  0
  2  3  2  0
  3  4  1  0
  4  5  2  0
  5  6  1  0
  6  7  2  0
  7  8  1  0
  8  9  1  0
  9 10  2  0
 10 11  1  0
 11 12  2  0
 12 13  1  0
 13 14  1  0
 14 15  1  0
 15 16  1  0
 16 17  1  0
 17 18  1  0
 18 19  1  0
 19 20  1  0
 19 21  1  0
 21 22  1  0
 12 23  1  0
 23 24  1  0
 24 25  2  0
 25 26  1  0
 26 27  2  0
 27 28  1  0
 28 29  2  0
 29 30  1  0
 30 31  2  0
 31 32  1  0
 23 33  2  0
  7  2  1  0
 33  9  1  0
 22 16  1  0
 32 24  1  0
 31 26  1  0
  1 34  1  0
  1 35  1  0
  1 36  1  0
  3 37  1  0
  4 38  1  0
  5 39  1  0
  6 40  1  0
  8 41  1  0
  8 42  1  0
 10 43  1  0
 11 44  1  0
 14 45  1  0
 14 46  1  0
 15 47  1  0
 15 48  1  0
 17 49  1  0
 17 50  1  0
 18 51  1  0
 18 52  1  0
 20 53  1  0
 20 54  1  0
 20 55  1  0
 21 56  1  0
 21 57  1  0
 22 58  1  0
 22 59  1  0
 27 60  1  0
 28 61  1  0
 29 62  1  0
 30 63  1  0
 33 64  1  0
M  CHG  1   8   1
M  END
>  <UniqueID>  (42) 
38

>  <SMILES>  (42) 
Cc1ccccc1[NH2+]c1ccc(OCCN2CCN(C)CC2)c(-c2nc3ccccc3s2)c1

>  <Energy>  (42) 
120.23761864367981

>  <Genealogy>  (42) 
Cc1ccccc1[NH2+]c1ccc(OCCN2CCN(C)CC2)c(-c2nc3ccccc3s2)c1 (protonated)
Cc1ccccc1[NH2+]c1ccc(OCCN2CCN(C)CC2)c(-c2nc3ccccc3s2)c1 (3D coordinates assigned)
Cc1ccccc1[NH2+]c1ccc(OCCN2CCN(C)CC2)c(-c2nc3ccccc3s2)c1 (nonaromatic ring conformer: 120.23761864367981 kcal/mol)

>  <smiles>  (42) 
Cc1ccccc1Nc1ccc(OCCN2CCN(C)CC2)c(-c2nc3ccccc3s2)c1

>  <score_type>  (42) 
oracle

>  <origin>  (42) 
adg

>  <m_score__min__energy>  (42) 
-9.7699999999999996

>  <m_primary>  (42) 
energy

$$$$
42:0
     RDKit          3D

 37 39  0  0  0  0  0  0  0  0999 V2000
   -4.2340   24.5160  -27.2620 C   0  0  0  0  0  0  0  0  0  0  0  0
   -3.4820   24.2480  -28.5650 C   0  0  0  0  0  0  0  0  0  0  0  0
   -4.3440   24.4770  -29.7450 N   0  0  0  0  0  0  0  0  0  0  0  0
   -4.4860   23.2440  -30.5620 C   0  0  0  0  0  0  0  0  0  0  0  0
   -5.7760   22.4730  -30.2320 C   0  0  0  0  0  0  0  0  0  0  0  0
   -6.9950   23.2930  -30.4300 N   0  0  0  0  0  0  0  0  0  0  0  0
   -7.7970   22.8780  -31.9270 S   0  0  0  0  0  0  0  0  0  0  0  0
   -7.0200   23.4280  -33.0900 O   0  0  0  0  0  0  0  0  0  0  0  0
   -9.1770   23.4760  -31.9410 O   0  0  0  0  0  0  0  0  0  0  0  0
   -7.8950   21.1210  -32.0910 C   0  0  0  0  0  0  0  0  0  0  0  0
   -9.0040   20.4230  -31.5790 C   0  0  0  0  0  0  0  0  0  0  0  0
   -9.0890   19.0270  -31.6890 C   0  0  0  0  0  0  0  0  0  0  0  0
   -8.0690   18.2940  -32.3080 C   0  0  0  0  0  0  0  0  0  0  0  0
   -6.9610   18.9690  -32.8180 C   0  0  0  0  0  0  0  0  0  0  0  0
   -5.9280   18.3280  -33.4290 N   0  0  0  0  0  0  0  0  0  0  0  0
   -4.9460   19.6070  -33.8040 S   0  0  0  0  0  0  0  0  0  0  0  0
   -5.7460   20.9350  -33.2410 N   0  0  0  0  0  0  0  0  0  0  0  0
   -6.8700   20.3880  -32.7120 C   0  0  0  0  0  0  0  0  0  0  0  0
   -6.7460   24.7480  -30.3790 C   0  0  0  0  0  0  0  0  0  0  0  0
   -5.6470   25.0800  -29.3640 C   0  0  0  0  0  0  0  0  0  0  0  0
   -3.5814   24.2834  -26.4075 H   0  0  0  0  0  0  0  0  0  0  0  0
   -4.5294   25.5748  -27.2202 H   0  0  0  0  0  0  0  0  0  0  0  0
   -5.1324   23.8827  -27.2202 H   0  0  0  0  0  0  0  0  0  0  0  0
   -2.6132   24.9203  -28.6211 H   0  0  0  0  0  0  0  0  0  0  0  0
   -3.1632   23.1952  -28.5694 H   0  0  0  0  0  0  0  0  0  0  0  0
   -4.5030   23.5239  -31.6257 H   0  0  0  0  0  0  0  0  0  0  0  0
   -3.6330   22.5879  -30.3340 H   0  0  0  0  0  0  0  0  0  0  0  0
   -5.8355   21.5896  -30.8847 H   0  0  0  0  0  0  0  0  0  0  0  0
   -5.7331   22.1897  -29.1700 H   0  0  0  0  0  0  0  0  0  0  0  0
   -9.8150   20.9791  -31.0860 H   0  0  0  0  0  0  0  0  0  0  0  0
   -9.9670   18.5022  -31.2844 H   0  0  0  0  0  0  0  0  0  0  0  0
   -8.1411   17.1995  -32.3908 H   0  0  0  0  0  0  0  0  0  0  0  0
   -5.4490   21.9340  -33.2870 H   0  0  0  0  0  0  0  0  0  0  0  0
   -6.4331   25.0948  -31.3749 H   0  0  0  0  0  0  0  0  0  0  0  0
   -7.6734   25.2524  -30.0701 H   0  0  0  0  0  0  0  0  0  0  0  0
   -5.5313   26.1725  -29.3090 H   0  0  0  0  0  0  0  0  0  0  0  0
   -5.9443   24.6645  -28.3899 H   0  0  0  0  0  0  0  0  0  0  0  0
  1  2  1  0
  2  3  1  0
  3  4  1  0
  4  5  1  0
  5  6  1  0
  6  7  1  0
  7  8  2  0
  7  9  2  0
  7 10  1  0
 10 11  2  0
 11 12  1  0
 12 13  2  0
 13 14  1  0
 14 15  2  0
 15 16  1  0
 16 17  1  0
 17 18  2  0
  6 19  1  0
 19 20  1  0
 20  3  1  0
 18 10  1  0
 18 14  1  0
  1 21  1  0
  1 22  1  0
  1 23  1  0
  2 24  1  0
  2 25  1  0
  4 26  1  0
  4 27  1  0
  5 28  1  0
  5 29  1  0
 11 30  1  0
 12 31  1  0
 13 32  1  0
 17 33  1  0
 19 34  1  0
 19 35  1  0
 20 36  1  0
 20 37  1  0
M  CHG  1  17   1
M  END
>  <UniqueID>  (43) 
39

>  <SMILES>  (43) 
CCN1CCN(S(=O)(=O)c2cccc3ns[nH+]c23)CC1

>  <Energy>  (43) 
87.98133869605878

>  <Genealogy>  (43) 
CCN1CCN(S(=O)(=O)c2cccc3ns[nH+]c23)CC1 (protonated)
CCN1CCN(S(=O)(=O)c2cccc3ns[nH+]c23)CC1 (3D coordinates assigned)
CCN1CCN(S(=O)(=O)c2cccc3ns[nH+]c23)CC1 (nonaromatic ring conformer: 87.98133869605878 kcal/mol)

>  <smiles>  (43) 
CCN1CCN(S(=O)(=O)c2cccc3nsnc23)CC1

>  <score_type>  (43) 
oracle

>  <origin>  (43) 
adg

>  <m_score__min__energy>  (43) 
-7.8200000000000003

>  <m_primary>  (43) 
energy

$$$$
43:0
     RDKit          3D

 24 24  0  0  0  0  0  0  0  0999 V2000
   -5.9638   24.0393  -33.0489 H   0  0  0  0  0  0  0  0  0  0  0  0
   -6.2150   23.5150  -32.1150 C   0  0  0  0  0  0  0  0  0  0  0  0
   -5.6760   23.9860  -30.9690 C   0  0  0  0  0  0  0  0  0  0  0  0
   -4.2380   24.3420  -30.8280 C   0  0  0  0  0  0  0  0  0  0  0  0
   -3.3330   23.4730  -30.9340 O   0  0  0  0  0  0  0  0  0  0  0  0
   -3.8680   25.6660  -30.6160 O   0  0  0  0  0  0  0  0  0  0  0  0
   -6.5970   24.2590  -29.8020 C   0  0  0  0  0  0  0  0  0  0  0  0
   -6.3197   23.6043  -28.9627 H   0  0  0  0  0  0  0  0  0  0  0  0
   -7.6326   24.0608  -30.1156 H   0  0  0  0  0  0  0  0  0  0  0  0
   -6.4900   25.7140  -29.3580 C   0  0  0  0  0  0  0  0  0  0  0  0
   -6.4864   25.7627  -28.2591 H   0  0  0  0  0  0  0  0  0  0  0  0
   -5.5575   26.1485  -29.7473 H   0  0  0  0  0  0  0  0  0  0  0  0
   -7.3489   26.2803  -29.7473 H   0  0  0  0  0  0  0  0  0  0  0  0
   -7.1160   22.3490  -32.2070 C   0  0  0  0  0  0  0  0  0  0  0  0
   -8.4520   22.4960  -31.8020 C   0  0  0  0  0  0  0  0  0  0  0  0
   -8.8098   23.4702  -31.4375 H   0  0  0  0  0  0  0  0  0  0  0  0
   -9.3300   21.4090  -31.8600 C   0  0  0  0  0  0  0  0  0  0  0  0
  -10.3791   21.5334  -31.5536 H   0  0  0  0  0  0  0  0  0  0  0  0
   -8.8770   20.1670  -32.3060 C   0  0  0  0  0  0  0  0  0  0  0  0
   -9.5713   19.3153  -32.3570 H   0  0  0  0  0  0  0  0  0  0  0  0
   -7.5430   20.0030  -32.6880 C   0  0  0  0  0  0  0  0  0  0  0  0
   -7.1891   19.0204  -33.0334 H   0  0  0  0  0  0  0  0  0  0  0  0
   -6.6540   21.0850  -32.6330 C   0  0  0  0  0  0  0  0  0  0  0  0
   -4.9700   20.8140  -33.0670 Cl  0  0  0  0  0  0  0  0  0  0  0  0
  1  2  1  0
  2  3  2  0
  3  4  1  0
  4  5  2  0
  4  6  1  0
  3  7  1  0
  7  8  1  0
  7  9  1  0
  7 10  1  0
 10 11  1  0
 10 12  1  0
 10 13  1  0
  2 14  1  0
 14 15  2  0
 15 16  1  0
 15 17  1  0
 17 18  1  0
 17 19  2  0
 19 20  1  0
 19 21  1  0
 21 22  1  0
 21 23  2  0
 23 24  1  0
 23 14  1  0
M  CHG  1   6  -1
M  END
>  <UniqueID>  (44) 
40

>  <SMILES>  (44) 
CC/C(=C/c1ccccc1Cl)C(=O)[O-]

>  <Energy>  (44) 
29.683883800326686

>  <Genealogy>  (44) 
CCC(=Cc1ccccc1Cl)C(=O)[O-] (protonated)
CC/C(=C/c1ccccc1Cl)C(=O)[O-] (cis-trans isomerization)
CC/C(=C/c1ccccc1Cl)C(=O)[O-] (3D coordinates assigned)
CC/C(=C/c1ccccc1Cl)C(=O)[O-] (optimized conformer: 29.683883800326686 kcal/mol)

>  <smiles>  (44) 
CCC(=Cc1ccccc1Cl)C(=O)O

>  <score_type>  (44) 
oracle

>  <origin>  (44) 
adg

>  <m_score__min__energy>  (44) 
-8.7599999999999998

>  <m_primary>  (44) 
energy

$$$$
44:0
     RDKit          3D

 49 49  0  0  0  0  0  0  0  0999 V2000
   -6.7840   17.3200  -33.3660 C   0  0  0  0  0  0  0  0  0  0  0  0
   -6.9240   18.1250  -32.0750 C   0  0  0  0  0  0  0  0  0  0  0  0
   -8.3700   18.1800  -31.5620 C   0  0  0  0  0  0  0  0  0  0  0  0
   -9.0920   19.4740  -31.9640 C   0  0  0  0  0  0  0  0  0  0  0  0
   -8.2430   20.2840  -32.8400 N   0  0  0  0  0  0  0  0  0  0  0  0
   -7.4920   21.4330  -32.4040 C   0  0  0  0  0  0  0  0  0  0  0  0
   -6.1010   21.5290  -32.6000 C   0  0  0  0  0  0  0  0  0  0  0  0
   -5.3960   22.6380  -32.1230 C   0  0  0  0  0  0  0  0  0  0  0  0
   -6.0640   23.6540  -31.4290 C   0  0  0  0  0  0  0  0  0  0  0  0
   -5.3030   24.7690  -30.8400 C   0  0  0  0  0  0  0  0  0  0  0  0
   -5.9250   25.7790  -30.4190 O   0  0  0  0  0  0  0  0  0  0  0  0
   -3.9030   24.7490  -30.7530 O   0  0  0  0  0  0  0  0  0  0  0  0
   -3.1730   24.0660  -29.7320 C   0  0  0  0  0  0  0  0  0  0  0  0
   -4.0960   23.1360  -28.9350 C   0  0  0  0  0  0  0  0  0  0  0  0
   -3.7660   23.1980  -27.4920 N   0  0  0  0  0  0  0  0  0  0  0  0
   -4.0620   24.5380  -26.9340 C   0  0  0  0  0  0  0  0  0  0  0  0
   -2.7890   25.1770  -26.3850 C   0  0  0  0  0  0  0  0  0  0  0  0
   -2.3490   22.8260  -27.2600 C   0  0  0  0  0  0  0  0  0  0  0  0
   -2.1500   21.3290  -27.4700 C   0  0  0  0  0  0  0  0  0  0  0  0
   -7.4540   23.5840  -31.2720 C   0  0  0  0  0  0  0  0  0  0  0  0
   -8.1630   22.4830  -31.7600 C   0  0  0  0  0  0  0  0  0  0  0  0
   -6.6003   16.2634  -33.1212 H   0  0  0  0  0  0  0  0  0  0  0  0
   -7.7103   17.4046  -33.9531 H   0  0  0  0  0  0  0  0  0  0  0  0
   -5.9406   17.7124  -33.9531 H   0  0  0  0  0  0  0  0  0  0  0  0
   -6.2941   17.6612  -31.3016 H   0  0  0  0  0  0  0  0  0  0  0  0
   -6.6102   19.1567  -32.2923 H   0  0  0  0  0  0  0  0  0  0  0  0
   -8.9234   17.3247  -31.9769 H   0  0  0  0  0  0  0  0  0  0  0  0
   -8.3344   18.1468  -30.4631 H   0  0  0  0  0  0  0  0  0  0  0  0
  -10.0215   19.2201  -32.4946 H   0  0  0  0  0  0  0  0  0  0  0  0
   -9.3194   20.0514  -31.0558 H   0  0  0  0  0  0  0  0  0  0  0  0
   -8.2490   20.0510  -33.8590 H   0  0  0  0  0  0  0  0  0  0  0  0
   -5.5664   20.7276  -33.1310 H   0  0  0  0  0  0  0  0  0  0  0  0
   -4.3119   22.7127  -32.2937 H   0  0  0  0  0  0  0  0  0  0  0  0
   -2.3739   23.4699  -30.1969 H   0  0  0  0  0  0  0  0  0  0  0  0
   -2.7438   24.8109  -29.0458 H   0  0  0  0  0  0  0  0  0  0  0  0
   -5.1405   23.4480  -29.0822 H   0  0  0  0  0  0  0  0  0  0  0  0
   -3.9576   22.1041  -29.2899 H   0  0  0  0  0  0  0  0  0  0  0  0
   -4.4761   25.1778  -27.7272 H   0  0  0  0  0  0  0  0  0  0  0  0
   -4.7901   24.4319  -26.1163 H   0  0  0  0  0  0  0  0  0  0  0  0
   -2.8166   25.1632  -25.2854 H   0  0  0  0  0  0  0  0  0  0  0  0
   -1.9136   24.6115  -26.7370 H   0  0  0  0  0  0  0  0  0  0  0  0
   -2.7195   26.2168  -26.7370 H   0  0  0  0  0  0  0  0  0  0  0  0
   -1.7095   23.3787  -27.9640 H   0  0  0  0  0  0  0  0  0  0  0  0
   -2.0791   23.0795  -26.2242 H   0  0  0  0  0  0  0  0  0  0  0  0
   -2.0833   20.8274  -26.4933 H   0  0  0  0  0  0  0  0  0  0  0  0
   -3.0019   20.9214  -28.0341 H   0  0  0  0  0  0  0  0  0  0  0  0
   -1.2212   21.1581  -28.0341 H   0  0  0  0  0  0  0  0  0  0  0  0
   -7.9896   24.3987  -30.7627 H   0  0  0  0  0  0  0  0  0  0  0  0
   -9.2554   22.4395  -31.6382 H   0  0  0  0  0  0  0  0  0  0  0  0
  1  2  1  0
  2  3  1  0
  3  4  1  0
  4  5  1  0
  5  6  1  0
  6  7  2  0
  7  8  1  0
  8  9  2  0
  9 10  1  0
 10 11  2  0
 10 12  1  0
 12 13  1  0
 13 14  1  0
 14 15  1  0
 15 16  1  0
 16 17  1  0
 15 18  1  0
 18 19  1  0
  9 20  1  0
 20 21  2  0
 21  6  1  0
  1 22  1  0
  1 23  1  0
  1 24  1  0
  2 25  1  0
  2 26  1  0
  3 27  1  0
  3 28  1  0
  4 29  1  0
  4 30  1  0
  5 31  1  0
  7 32  1  0
  8 33  1  0
 13 34  1  0
 13 35  1  0
 14 36  1  0
 14 37  1  0
 16 38  1  0
 16 39  1  0
 17 40  1  0
 17 41  1  0
 17 42  1  0
 18 43  1  0
 18 44  1  0
 19 45  1  0
 19 46  1  0
 19 47  1  0
 20 48  1  0
 21 49  1  0
M  END
>  <UniqueID>  (45) 
41

>  <SMILES>  (45) 
CCCCNc1ccc(C(=O)OCCN(CC)CC)cc1

>  <Energy>  (45) 
40.42536751840451

>  <Genealogy>  (45) 
CCCCNc1ccc(C(=O)OCCN(CC)CC)cc1 (3D coordinates assigned)
CCCCNc1ccc(C(=O)OCCN(CC)CC)cc1 (optimized conformer: 40.42536751840451 kcal/mol)

>  <smiles>  (45) 
CCCCNc1ccc(C(=O)OCCN(CC)CC)cc1

>  <score_type>  (45) 
oracle

>  <origin>  (45) 
adg

>  <m_score__min__energy>  (45) 
-7.2300000000000004

>  <m_primary>  (45) 
energy

$$$$
45:0
     RDKit          3D

 68 67  0  0  0  0  0  0  0  0999 V2000
   -5.6290   25.5450  -30.4500 C   0  0  0  0  0  0  0  0  0  0  0  0
   -6.5350   24.3210  -30.3120 C   0  0  0  0  0  0  0  0  0  0  0  0
   -6.6130   23.5030  -31.6090 C   0  0  0  0  0  0  0  0  0  0  0  0
   -8.0530   23.1200  -31.9820 C   0  0  0  0  0  0  0  0  0  0  0  0
   -8.5130   21.8490  -31.2480 C   0  0  0  0  0  0  0  0  0  0  0  0
   -9.7020   21.1750  -31.9540 C   0  0  0  0  0  0  0  0  0  0  0  0
   -9.3530   19.7670  -32.4810 C   0  0  0  0  0  0  0  0  0  0  0  0
   -7.9970   19.2360  -31.9810 C   0  0  0  0  0  0  0  0  0  0  0  0
   -7.3140   18.2350  -32.9460 C   0  0  0  0  0  0  0  0  0  0  0  0
   -6.0040   18.7160  -33.4630 N   0  0  2  0  0  0  0  0  0  0  0  0
   -6.0210   20.2070  -33.4460 C   0  0  0  0  0  0  0  0  0  0  0  0
   -4.8930   20.8530  -32.6190 C   0  0  0  0  0  0  0  0  0  0  0  0
   -4.0390   19.8400  -32.0060 N   0  0  0  0  0  0  0  0  0  0  0  0
   -5.7530   18.1850  -34.8420 C   0  0  0  0  0  0  0  0  0  0  0  0
   -4.4290   17.3980  -34.9570 C   0  0  0  0  0  0  0  0  0  0  0  0
   -3.8200   17.1760  -33.6300 N   0  0  0  0  0  0  0  0  0  0  0  0
   -4.4680   16.1770  -32.7520 C   0  0  0  0  0  0  0  0  0  0  0  0
   -5.3280   15.1490  -33.4950 C   0  0  0  0  0  0  0  0  0  0  0  0
   -2.3570   17.3630  -33.4990 C   0  0  0  0  0  0  0  0  0  0  0  0
   -1.7940   18.6440  -34.1500 C   0  0  0  0  0  0  0  0  0  0  0  0
   -1.6790   19.7520  -33.1780 N   0  0  0  0  0  0  0  0  0  0  0  0
   -1.2680   20.9960  -33.8490 C   0  0  0  0  0  0  0  0  0  0  0  0
   -0.7140   19.4260  -32.1130 C   0  0  0  0  0  0  0  0  0  0  0  0
   -5.3561   25.9137  -29.4502 H   0  0  0  0  0  0  0  0  0  0  0  0
   -4.7177   25.2666  -30.9995 H   0  0  0  0  0  0  0  0  0  0  0  0
   -6.1615   26.3352  -30.9995 H   0  0  0  0  0  0  0  0  0  0  0  0
   -6.1407   23.6777  -29.5115 H   0  0  0  0  0  0  0  0  0  0  0  0
   -7.5489   24.6781  -30.0785 H   0  0  0  0  0  0  0  0  0  0  0  0
   -6.1841   24.0995  -32.4277 H   0  0  0  0  0  0  0  0  0  0  0  0
   -6.0520   22.5706  -31.4482 H   0  0  0  0  0  0  0  0  0  0  0  0
   -8.7234   23.9494  -31.7126 H   0  0  0  0  0  0  0  0  0  0  0  0
   -8.0854   22.9216  -33.0635 H   0  0  0  0  0  0  0  0  0  0  0  0
   -7.6742   21.1385  -31.2082 H   0  0  0  0  0  0  0  0  0  0  0  0
   -8.8371   22.1384  -30.2375 H   0  0  0  0  0  0  0  0  0  0  0  0
  -10.5340   21.0885  -31.2397 H   0  0  0  0  0  0  0  0  0  0  0  0
   -9.9755   21.7980  -32.8183 H   0  0  0  0  0  0  0  0  0  0  0  0
  -10.1397   19.0701  -32.1563 H   0  0  0  0  0  0  0  0  0  0  0  0
   -9.2840   19.8423  -33.5762 H   0  0  0  0  0  0  0  0  0  0  0  0
   -7.3222   20.0928  -31.8379 H   0  0  0  0  0  0  0  0  0  0  0  0
   -8.1955   18.6902  -31.0468 H   0  0  0  0  0  0  0  0  0  0  0  0
   -7.1514   17.2885  -32.4095 H   0  0  0  0  0  0  0  0  0  0  0  0
   -7.9805   18.1113  -33.8123 H   0  0  0  0  0  0  0  0  0  0  0  0
   -5.2630   18.3940  -32.7990 H   0  0  0  0  0  0  0  0  0  0  0  0
   -5.9327   20.5628  -34.4831 H   0  0  0  0  0  0  0  0  0  0  0  0
   -6.9663   20.5021  -32.9670 H   0  0  0  0  0  0  0  0  0  0  0  0
   -4.2815   21.4856  -33.2793 H   0  0  0  0  0  0  0  0  0  0  0  0
   -5.3493   21.4537  -31.8184 H   0  0  0  0  0  0  0  0  0  0  0  0
   -3.7420   19.1680  -32.7460 H   0  0  0  0  0  0  0  0  0  0  0  0
   -3.1660   20.3130  -31.6780 H   0  0  0  0  0  0  0  0  0  0  0  0
   -6.5825   17.5165  -35.1160 H   0  0  0  0  0  0  0  0  0  0  0  0
   -5.6801   19.0497  -35.5180 H   0  0  0  0  0  0  0  0  0  0  0  0
   -4.6308   16.4238  -35.4262 H   0  0  0  0  0  0  0  0  0  0  0  0
   -3.7274   17.9858  -35.5671 H   0  0  0  0  0  0  0  0  0  0  0  0
   -3.6811   15.6371  -32.2049 H   0  0  0  0  0  0  0  0  0  0  0  0
   -5.1453   16.7334  -32.0875 H   0  0  0  0  0  0  0  0  0  0  0  0
   -5.8564   14.5174  -32.7657 H   0  0  0  0  0  0  0  0  0  0  0  0
   -6.0613   15.6722  -34.1263 H   0  0  0  0  0  0  0  0  0  0  0  0
   -4.6836   14.5196  -34.1263 H   0  0  0  0  0  0  0  0  0  0  0  0
   -2.1129   17.3914  -32.4268 H   0  0  0  0  0  0  0  0  0  0  0  0
   -1.8940   16.5213  -34.0348 H   0  0  0  0  0  0  0  0  0  0  0  0
   -0.7969   18.4258  -34.5600 H   0  0  0  0  0  0  0  0  0  0  0  0
   -2.4892   18.9571  -34.9429 H   0  0  0  0  0  0  0  0  0  0  0  0
   -1.0173   21.7548  -33.0931 H   0  0  0  0  0  0  0  0  0  0  0  0
   -0.3870   20.7997  -34.4777 H   0  0  0  0  0  0  0  0  0  0  0  0
   -2.0926   21.3632  -34.4777 H   0  0  0  0  0  0  0  0  0  0  0  0
   -1.1840   19.5848  -31.1312 H   0  0  0  0  0  0  0  0  0  0  0  0
   -0.4063   18.3740  -32.2064 H   0  0  0  0  0  0  0  0  0  0  0  0
    0.1686   20.0759  -32.2064 H   0  0  0  0  0  0  0  0  0  0  0  0
  1  2  1  0
  2  3  1  0
  3  4  1  0
  4  5  1  0
  5  6  1  0
  6  7  1  0
  7  8  1  0
  8  9  1  0
  9 10  1  0
 10 11  1  0
 11 12  1  0
 12 13  1  0
 10 14  1  0
 14 15  1  0
 15 16  1  0
 16 17  1  0
 17 18  1  0
 16 19  1  0
 19 20  1  0
 20 21  1  0
 21 22  1  0
 21 23  1  0
  1 24  1  0
  1 25  1  0
  1 26  1  0
  2 27  1  0
  2 28  1  0
  3 29  1  0
  3 30  1  0
  4 31  1  0
  4 32  1  0
  5 33  1  0
  5 34  1  0
  6 35  1  0
  6 36  1  0
  7 37  1  0
  7 38  1  0
  8 39  1  0
  8 40  1  0
  9 41  1  0
  9 42  1  0
 10 43  1  1
 11 44  1  0
 11 45  1  0
 12 46  1  0
 12 47  1  0
 13 48  1  0
 13 49  1  0
 14 50  1  0
 14 51  1  0
 15 52  1  0
 15 53  1  0
 17 54  1  0
 17 55  1  0
 18 56  1  0
 18 57  1  0
 18 58  1  0
 19 59  1  0
 19 60  1  0
 20 61  1  0
 20 62  1  0
 22 63  1  0
 22 64  1  0
 22 65  1  0
 23 66  1  0
 23 67  1  0
 23 68  1  0
M  CHG  1  10   1
M  END
>  <UniqueID>  (46) 
42

>  <SMILES>  (46) 
CCCCCCCCC[N@H+](CCN)CCN(CC)CCN(C)C

>  <Energy>  (46) 
63.794504258226986

>  <Genealogy>  (46) 
CCCCCCCCC[NH+](CCN)CCN(CC)CCN(C)C (protonated)
CCCCCCCCC[N@H+](CCN)CCN(CC)CCN(C)C (chirality)
CCCCCCCCC[N@H+](CCN)CCN(CC)CCN(C)C (3D coordinates assigned)
CCCCCCCCC[N@H+](CCN)CCN(CC)CCN(C)C (optimized conformer: 63.794504258226986 kcal/mol)

>  <smiles>  (46) 
CCCCCCCCCN(CCN)CCN(CC)CCN(C)C

>  <score_type>  (46) 
oracle

>  <origin>  (46) 
adg

>  <m_score__min__energy>  (46) 
-5.4299999999999997

>  <m_primary>  (46) 
energy

$$$$
46:0
     RDKit          3D

 45 47  0  0  0  0  0  0  0  0999 V2000
   -0.7230   20.0560  -31.7040 C   0  0  0  0  0  0  0  0  0  0  0  0
   -1.2380   19.8980  -33.1420 C   0  0  2  0  0  0  0  0  0  0  0  0
   -0.2500   20.4610  -34.1810 C   0  0  0  0  0  0  0  0  0  0  0  0
   -0.4220   21.9020  -34.3650 N   0  0  0  0  0  0  0  0  0  0  0  0
   -2.6060   20.5120  -33.3120 C   0  0  0  0  0  0  0  0  0  0  0  0
   -2.7340   21.7670  -33.3440 O   0  0  0  0  0  0  0  0  0  0  0  0
   -3.7520   19.6690  -33.4970 N   0  0  0  0  0  0  0  0  0  0  0  0
   -5.1030   20.2130  -33.6550 C   0  0  1  0  0  0  0  0  0  0  0  0
   -6.0630   19.0880  -34.1870 C   0  0  0  0  0  0  0  0  0  0  0  0
   -5.8150   18.5060  -35.2760 O   0  0  0  0  0  0  0  0  0  0  0  0
   -7.2520   18.7150  -33.4100 N   0  0  0  0  0  0  0  0  0  0  0  0
   -7.0020   17.7320  -32.3660 C   0  0  1  0  0  0  0  0  0  0  0  0
   -6.3010   16.5340  -32.8640 C   0  0  0  0  0  0  0  0  0  0  0  0
   -5.7520   15.5940  -33.2550 N   0  0  0  0  0  0  0  0  0  0  0  0
   -6.1800   18.5140  -31.3410 C   0  0  0  0  0  0  0  0  0  0  0  0
   -6.5940   19.9820  -31.6080 C   0  0  1  0  0  0  0  0  0  0  0  0
   -5.5860   20.8980  -32.2780 C   0  0  2  0  0  0  0  0  0  0  0  0
   -6.2560   22.2260  -32.5410 N   0  0  0  0  0  0  0  0  0  0  0  0
   -7.4220   22.6100  -31.6590 C   0  0  0  0  0  0  0  0  0  0  0  0
   -8.8450   21.9330  -31.9710 C   0  0  0  0  0  0  0  0  0  0  0  0
   -8.9660   20.3570  -32.1430 C   0  0  0  0  0  0  0  0  0  0  0  0
   -7.6440   19.9270  -32.7210 C   0  0  2  0  0  0  0  0  0  0  0  0
   -1.5285   19.8089  -30.9968 H   0  0  0  0  0  0  0  0  0  0  0  0
    0.1276   19.3775  -31.5425 H   0  0  0  0  0  0  0  0  0  0  0  0
   -0.3992   21.0948  -31.5425 H   0  0  0  0  0  0  0  0  0  0  0  0
   -1.3248   18.8170  -33.3263 H   0  0  0  0  0  0  0  0  0  0  0  0
    0.7770   20.2652  -33.8391 H   0  0  0  0  0  0  0  0  0  0  0  0
   -0.4457   19.9663  -35.1438 H   0  0  0  0  0  0  0  0  0  0  0  0
   -1.2770   22.0610  -34.9450 H   0  0  0  0  0  0  0  0  0  0  0  0
   -0.6250   22.3190  -33.4270 H   0  0  0  0  0  0  0  0  0  0  0  0
   -3.6110   18.6330  -33.5210 H   0  0  0  0  0  0  0  0  0  0  0  0
   -5.1173   21.0138  -34.4090 H   0  0  0  0  0  0  0  0  0  0  0  0
   -7.9293   17.3193  -31.9421 H   0  0  0  0  0  0  0  0  0  0  0  0
   -6.4364   18.2114  -30.3150 H   0  0  0  0  0  0  0  0  0  0  0  0
   -5.0970   18.3455  -31.4348 H   0  0  0  0  0  0  0  0  0  0  0  0
   -6.8410   20.3646  -30.6067 H   0  0  0  0  0  0  0  0  0  0  0  0
   -4.7058   21.0606  -31.6386 H   0  0  0  0  0  0  0  0  0  0  0  0
   -5.5270   22.9730  -32.4650 H   0  0  0  0  0  0  0  0  0  0  0  0
   -7.1527   22.3484  -30.6251 H   0  0  0  0  0  0  0  0  0  0  0  0
   -7.5751   23.6825  -31.8495 H   0  0  0  0  0  0  0  0  0  0  0  0
   -9.5154   22.2127  -31.1450 H   0  0  0  0  0  0  0  0  0  0  0  0
   -9.0853   22.3116  -32.9754 H   0  0  0  0  0  0  0  0  0  0  0  0
   -9.1384   19.8737  -31.1700 H   0  0  0  0  0  0  0  0  0  0  0  0
   -9.8111   20.0748  -32.7882 H   0  0  0  0  0  0  0  0  0  0  0  0
   -7.7489   20.6170  -33.5713 H   0  0  0  0  0  0  0  0  0  0  0  0
  1  2  1  0
  2  3  1  0
  3  4  1  0
  2  5  1  0
  5  6  2  0
  5  7  1  0
  7  8  1  0
  8  9  1  0
  9 10  2  0
  9 11  1  0
 11 12  1  0
 12 13  1  0
 13 14  3  0
 12 15  1  0
 15 16  1  0
 16 17  1  0
 17 18  1  0
 18 19  1  0
 19 20  1  0
 20 21  1  0
 21 22  1  0
 17  8  1  0
 22 11  1  0
 22 16  1  0
  1 23  1  0
  1 24  1  0
  1 25  1  0
  2 26  1  6
  3 27  1  0
  3 28  1  0
  4 29  1  0
  4 30  1  0
  7 31  1  0
  8 32  1  6
 12 33  1  1
 15 34  1  0
 15 35  1  0
 16 36  1  1
 17 37  1  1
 18 38  1  0
 19 39  1  0
 19 40  1  0
 20 41  1  0
 20 42  1  0
 21 43  1  0
 21 44  1  0
 22 45  1  6
M  END
>  <UniqueID>  (47) 
43

>  <SMILES>  (47) 
C[C@H](CN)C(=O)N[C@H]1C(=O)N2C(C#N)CC3C1NCCCC32

>  <Energy>  (47) 
154.20956796968323

>  <Genealogy>  (47) 
C[C@H](CN)C(=O)N[C@H]1C(=O)N2C(C#N)CC3C1NCCCC32 (chirality)
C[C@H](CN)C(=O)N[C@H]1C(=O)N2C(C#N)CC3C1NCCCC32 (3D coordinates assigned)
C[C@H](CN)C(=O)N[C@H]1C(=O)N2C(C#N)CC3C1NCCCC32 (nonaromatic ring conformer: 154.20956796968323 kcal/mol)

>  <smiles>  (47) 
CC(CN)C(=O)NC1C(=O)N2C(C#N)CC3C1NCCCC32

>  <score_type>  (47) 
oracle

>  <origin>  (47) 
adg

>  <m_score__min__energy>  (47) 
-6.0899999999999999

>  <m_primary>  (47) 
energy

$$$$
47:0
     RDKit          3D

 52 55  0  0  0  0  0  0  0  0999 V2000
   -4.8880   24.9810  -30.1000 C   0  0  0  0  0  0  0  0  0  0  0  0
   -3.4790   25.1610  -30.1870 O   0  0  0  0  0  0  0  0  0  0  0  0
   -2.5370   24.5400  -29.3490 C   0  0  0  0  0  0  0  0  0  0  0  0
   -1.9400   25.2360  -28.2770 C   0  0  0  0  0  0  0  0  0  0  0  0
   -1.0200   24.6000  -27.4430 C   0  0  0  0  0  0  0  0  0  0  0  0
   -0.6800   23.2680  -27.6650 C   0  0  0  0  0  0  0  0  0  0  0  0
   -1.2570   22.5650  -28.7230 C   0  0  0  0  0  0  0  0  0  0  0  0
   -2.1890   23.1860  -29.5770 C   0  0  0  0  0  0  0  0  0  0  0  0
   -2.7840   22.4180  -30.7030 C   0  0  0  0  0  0  0  0  0  0  0  0
   -2.1100   21.9030  -31.7960 C   0  0  0  0  0  0  0  0  0  0  0  0
   -3.0000   21.2660  -32.5760 N   0  0  0  0  0  0  0  0  0  0  0  0
   -2.6680   20.4240  -33.7280 C   0  0  0  0  0  0  0  0  0  0  0  0
   -1.4230   19.5770  -33.4280 C   0  0  0  0  0  0  0  0  0  0  0  0
   -0.1820   20.2740  -33.8350 N   0  0  0  0  0  0  0  0  0  0  0  0
    0.7220   19.3670  -34.5850 C   0  0  0  0  0  0  0  0  0  0  0  0
    0.5840   19.5570  -36.1080 C   0  0  0  0  0  0  0  0  0  0  0  0
    0.8750   20.8750  -36.5520 O   0  0  0  0  0  0  0  0  0  0  0  0
    0.6550   21.8710  -35.5640 C   0  0  0  0  0  0  0  0  0  0  0  0
   -0.4780   21.5200  -34.5850 C   0  0  0  0  0  0  0  0  0  0  0  0
   -4.1910   21.3960  -31.9440 C   0  0  0  0  0  0  0  0  0  0  0  0
   -5.4580   20.7820  -32.3830 C   0  0  0  0  0  0  0  0  0  0  0  0
   -5.4430   19.5330  -33.0190 C   0  0  0  0  0  0  0  0  0  0  0  0
   -6.6450   18.9590  -33.4390 C   0  0  0  0  0  0  0  0  0  0  0  0
   -7.8230   19.6020  -33.2170 N   0  0  0  0  0  0  0  0  0  0  0  0
   -7.8670   20.8030  -32.5800 C   0  0  0  0  0  0  0  0  0  0  0  0
   -6.6870   21.4110  -32.1450 C   0  0  0  0  0  0  0  0  0  0  0  0
   -4.0900   22.0910  -30.7900 N   0  0  0  0  0  0  0  0  0  0  0  0
   -5.1881   24.9427  -29.0424 H   0  0  0  0  0  0  0  0  0  0  0  0
   -5.3963   25.8215  -30.5952 H   0  0  0  0  0  0  0  0  0  0  0  0
   -5.1687   24.0397  -30.5952 H   0  0  0  0  0  0  0  0  0  0  0  0
   -2.2021   26.2891  -28.0971 H   0  0  0  0  0  0  0  0  0  0  0  0
   -0.5624   25.1517  -26.6086 H   0  0  0  0  0  0  0  0  0  0  0  0
    0.0449   22.7691  -27.0049 H   0  0  0  0  0  0  0  0  0  0  0  0
   -0.9809   21.5137  -28.8921 H   0  0  0  0  0  0  0  0  0  0  0  0
   -1.0319   21.9984  -31.9926 H   0  0  0  0  0  0  0  0  0  0  0  0
   -3.5157   19.7581  -33.9470 H   0  0  0  0  0  0  0  0  0  0  0  0
   -2.4615   21.0689  -34.5948 H   0  0  0  0  0  0  0  0  0  0  0  0
   -1.3809   19.3735  -32.3478 H   0  0  0  0  0  0  0  0  0  0  0  0
   -1.4965   18.6404  -34.0002 H   0  0  0  0  0  0  0  0  0  0  0  0
    1.7612   19.5773  -34.2922 H   0  0  0  0  0  0  0  0  0  0  0  0
    0.4464   18.3301  -34.3422 H   0  0  0  0  0  0  0  0  0  0  0  0
    1.2753   18.8625  -36.6078 H   0  0  0  0  0  0  0  0  0  0  0  0
   -0.4683   19.3598  -36.3606 H   0  0  0  0  0  0  0  0  0  0  0  0
    1.5837   22.0035  -34.9896 H   0  0  0  0  0  0  0  0  0  0  0  0
    0.3569   22.7900  -36.0899 H   0  0  0  0  0  0  0  0  0  0  0  0
   -0.6016   22.3468  -33.8700 H   0  0  0  0  0  0  0  0  0  0  0  0
   -1.3993   21.3631  -35.1652 H   0  0  0  0  0  0  0  0  0  0  0  0
   -4.4908   19.0083  -33.1862 H   0  0  0  0  0  0  0  0  0  0  0  0
   -6.6391   17.9851  -33.9503 H   0  0  0  0  0  0  0  0  0  0  0  0
   -8.7140   19.1600  -33.5370 H   0  0  0  0  0  0  0  0  0  0  0  0
   -8.8345   21.2969  -32.4069 H   0  0  0  0  0  0  0  0  0  0  0  0
   -6.7225   22.3766  -31.6194 H   0  0  0  0  0  0  0  0  0  0  0  0
  1  2  1  0
  2  3  1  0
  3  4  2  0
  4  5  1  0
  5  6  2  0
  6  7  1  0
  7  8  2  0
  8  9  1  0
  9 10  2  0
 10 11  1  0
 11 12  1  0
 12 13  1  0
 13 14  1  0
 14 15  1  0
 15 16  1  0
 16 17  1  0
 17 18  1  0
 18 19  1  0
 11 20  1  0
 20 21  1  0
 21 22  2  0
 22 23  1  0
 23 24  2  0
 24 25  1  0
 25 26  2  0
 20 27  2  0
  8  3  1  0
 27  9  1  0
 19 14  1  0
 26 21  1  0
  1 28  1  0
  1 29  1  0
  1 30  1  0
  4 31  1  0
  5 32  1  0
  6 33  1  0
  7 34  1  0
 10 35  1  0
 12 36  1  0
 12 37  1  0
 13 38  1  0
 13 39  1  0
 15 40  1  0
 15 41  1  0
 16 42  1  0
 16 43  1  0
 18 44  1  0
 18 45  1  0
 19 46  1  0
 19 47  1  0
 22 48  1  0
 23 49  1  0
 24 50  1  0
 25 51  1  0
 26 52  1  0
M  CHG  1  24   1
M  END
>  <UniqueID>  (48) 
44

>  <SMILES>  (48) 
COc1ccccc1-c1cn(CCN2CCOCC2)c(-c2cc[nH+]cc2)n1

>  <Energy>  (48) 
104.2618208299811

>  <Genealogy>  (48) 
COc1ccccc1-c1cn(CCN2CCOCC2)c(-c2cc[nH+]cc2)n1 (protonated)
COc1ccccc1-c1cn(CCN2CCOCC2)c(-c2cc[nH+]cc2)n1 (3D coordinates assigned)
COc1ccccc1-c1cn(CCN2CCOCC2)c(-c2cc[nH+]cc2)n1 (nonaromatic ring conformer: 104.2618208299811 kcal/mol)

>  <smiles>  (48) 
COc1ccccc1-c1cn(CCN2CCOCC2)c(-c2ccncc2)n1

>  <score_type>  (48) 
oracle

>  <origin>  (48) 
adg

>  <m_score__min__energy>  (48) 
-7.6399999999999997

>  <m_primary>  (48) 
energy

$$$$
48:0
     RDKit          3D

 39 40  0  0  0  0  0  0  0  0999 V2000
   -1.2760   21.1810  -32.7150 C   0  0  0  0  0  0  0  0  0  0  0  0
   -2.1640   20.8100  -33.8190 N   0  0  0  0  0  0  0  0  0  0  0  0
   -3.5800   20.8580  -33.4220 C   0  0  0  0  0  0  0  0  0  0  0  0
   -4.0260   22.2880  -33.0790 C   0  0  0  0  0  0  0  0  0  0  0  0
   -4.8220   22.3250  -31.8400 N   0  0  0  0  0  0  0  0  0  0  0  0
   -6.2530   22.0940  -31.8500 C   0  0  0  0  0  0  0  0  0  0  0  0
   -7.1680   23.1660  -31.9060 C   0  0  0  0  0  0  0  0  0  0  0  0
   -8.5450   22.9250  -31.9190 C   0  0  0  0  0  0  0  0  0  0  0  0
   -9.0310   21.6170  -31.8730 C   0  0  0  0  0  0  0  0  0  0  0  0
   -8.1380   20.5450  -31.8160 C   0  0  0  0  0  0  0  0  0  0  0  0
   -6.7600   20.7790  -31.8040 C   0  0  0  0  0  0  0  0  0  0  0  0
   -4.1470   22.5600  -30.5890 C   0  0  0  0  0  0  0  0  0  0  0  0
   -3.9780   23.8700  -30.1010 C   0  0  0  0  0  0  0  0  0  0  0  0
   -4.5130   24.9410  -30.8360 O   0  0  0  0  0  0  0  0  0  0  0  0
   -5.6710   25.6800  -30.4620 C   0  0  0  0  0  0  0  0  0  0  0  0
   -3.2970   24.0710  -28.8850 C   0  0  0  0  0  0  0  0  0  0  0  0
   -2.8080   22.9800  -28.1610 C   0  0  0  0  0  0  0  0  0  0  0  0
   -2.1550   23.1850  -26.9900 F   0  0  0  0  0  0  0  0  0  0  0  0
   -2.9970   21.6810  -28.6370 C   0  0  0  0  0  0  0  0  0  0  0  0
   -2.5260   20.6250  -27.9290 F   0  0  0  0  0  0  0  0  0  0  0  0
   -3.6670   21.4690  -29.8440 C   0  0  0  0  0  0  0  0  0  0  0  0
   -3.8320   20.2030  -30.3040 F   0  0  0  0  0  0  0  0  0  0  0  0
   -1.7750   20.9725  -31.7571 H   0  0  0  0  0  0  0  0  0  0  0  0
   -0.3468   20.5958  -32.7793 H   0  0  0  0  0  0  0  0  0  0  0  0
   -1.0393   22.2533  -32.7793 H   0  0  0  0  0  0  0  0  0  0  0  0
   -2.0230   21.5160  -34.5790 H   0  0  0  0  0  0  0  0  0  0  0  0
   -4.1959   20.4820  -34.2522 H   0  0  0  0  0  0  0  0  0  0  0  0
   -3.7057   20.2350  -32.5242 H   0  0  0  0  0  0  0  0  0  0  0  0
   -3.1342   22.9187  -32.9494 H   0  0  0  0  0  0  0  0  0  0  0  0
   -4.6535   22.6597  -33.9025 H   0  0  0  0  0  0  0  0  0  0  0  0
   -6.7950   24.2003  -31.9397 H   0  0  0  0  0  0  0  0  0  0  0  0
   -9.2484   23.7694  -31.9657 H   0  0  0  0  0  0  0  0  0  0  0  0
  -10.1152   21.4313  -31.8816 H   0  0  0  0  0  0  0  0  0  0  0  0
   -8.5199   19.5140  -31.7805 H   0  0  0  0  0  0  0  0  0  0  0  0
   -6.0639   19.9285  -31.7582 H   0  0  0  0  0  0  0  0  0  0  0  0
   -5.7396   25.7238  -29.3650 H   0  0  0  0  0  0  0  0  0  0  0  0
   -5.6009   26.7007  -30.8660 H   0  0  0  0  0  0  0  0  0  0  0  0
   -6.5672   25.1865  -30.8660 H   0  0  0  0  0  0  0  0  0  0  0  0
   -3.1491   25.0919  -28.5029 H   0  0  0  0  0  0  0  0  0  0  0  0
  1  2  1  0
  2  3  1  0
  3  4  1  0
  4  5  1  0
  5  6  1  0
  6  7  2  0
  7  8  1  0
  8  9  2  0
  9 10  1  0
 10 11  2  0
  5 12  1  0
 12 13  2  0
 13 14  1  0
 14 15  1  0
 13 16  1  0
 16 17  2  0
 17 18  1  0
 17 19  1  0
 19 20  1  0
 19 21  2  0
 21 22  1  0
 11  6  1  0
 21 12  1  0
  1 23  1  0
  1 24  1  0
  1 25  1  0
  2 26  1  0
  3 27  1  0
  3 28  1  0
  4 29  1  0
  4 30  1  0
  7 31  1  0
  8 32  1  0
  9 33  1  0
 10 34  1  0
 11 35  1  0
 15 36  1  0
 15 37  1  0
 15 38  1  0
 16 39  1  0
M  END
>  <UniqueID>  (49) 
45

>  <SMILES>  (49) 
CNCCN(c1ccccc1)c1c(OC)cc(F)c(F)c1F

>  <Energy>  (49) 
45.42872115274144

>  <Genealogy>  (49) 
CNCCN(c1ccccc1)c1c(OC)cc(F)c(F)c1F (3D coordinates assigned)
CNCCN(c1ccccc1)c1c(OC)cc(F)c(F)c1F (optimized conformer: 45.42872115274144 kcal/mol)

>  <smiles>  (49) 
CNCCN(c1ccccc1)c1c(OC)cc(F)c(F)c1F

>  <score_type>  (49) 
oracle

>  <origin>  (49) 
adg

>  <m_score__min__energy>  (49) 
-6.5700000000000003

>  <m_primary>  (49) 
energy

$$$$
