0:0
     RDKit          3D

 59 61  0  0  0  0  0  0  0  0999 V2000
   -0.6530   24.9120  -28.2690 C   0  0  0  0  0  0  0  0  0  0  0  0
   -2.1800   24.9440  -28.1130 C   0  0  0  0  0  0  0  0  0  0  0  0
   -2.7500   25.1380  -29.3440 O   0  0  0  0  0  0  0  0  0  0  0  0
   -3.9860   24.5390  -29.5330 C   0  0  0  0  0  0  0  0  0  0  0  0
   -3.8980   23.0970  -29.1730 C   0  0  0  0  0  0  0  0  0  0  0  0
   -3.2910   22.3150  -30.1440 O   0  0  0  0  0  0  0  0  0  0  0  0
   -1.9370   22.2060  -30.0150 C   0  0  0  0  0  0  0  0  0  0  0  0
   -1.2840   21.1500  -30.8490 C   0  0  0  0  0  0  0  0  0  0  0  0
   -0.8810   21.5140  -32.1000 O   0  0  0  0  0  0  0  0  0  0  0  0
   -1.0010   20.5790  -33.0800 C   0  0  0  0  0  0  0  0  0  0  0  0
   -2.3270   20.7960  -33.9150 C   0  0  0  0  0  0  0  0  0  0  0  0
   -3.4000   21.0220  -33.0260 N   0  0  0  0  0  0  0  0  0  0  0  0
   -4.7330   20.6150  -32.9320 C   0  0  0  0  0  0  0  0  0  0  0  0
   -5.6960   21.5460  -32.4920 C   0  0  0  0  0  0  0  0  0  0  0  0
   -5.3610   22.8380  -32.1610 C   0  0  0  0  0  0  0  0  0  0  0  0
   -6.3010   23.7810  -31.7250 C   0  0  0  0  0  0  0  0  0  0  0  0
   -7.6170   23.4330  -31.6120 C   0  0  0  0  0  0  0  0  0  0  0  0
   -7.9560   22.1370  -31.9430 C   0  0  0  0  0  0  0  0  0  0  0  0
   -7.0260   21.2000  -32.3760 C   0  0  0  0  0  0  0  0  0  0  0  0
   -7.4680   19.9520  -32.6780 N   0  0  0  0  0  0  0  0  0  0  0  0
   -8.8820   19.7200  -32.5060 C   0  0  0  0  0  0  0  0  0  0  0  0
   -6.5890   19.0410  -33.0970 C   0  0  0  0  0  0  0  0  0  0  0  0
   -7.0400   17.7700  -33.4070 C   0  0  0  0  0  0  0  0  0  0  0  0
   -6.1860   16.7670  -33.8510 C   0  0  0  0  0  0  0  0  0  0  0  0
   -6.6770   15.4120  -34.1770 C   0  0  0  0  0  0  0  0  0  0  0  0
   -4.8640   17.0950  -33.9710 C   0  0  0  0  0  0  0  0  0  0  0  0
   -4.4270   18.3650  -33.6600 C   0  0  0  0  0  0  0  0  0  0  0  0
   -5.2370   19.3750  -33.2210 C   0  0  0  0  0  0  0  0  0  0  0  0
   -0.1830   24.9022  -27.2745 H   0  0  0  0  0  0  0  0  0  0  0  0
   -0.3598   24.0075  -28.8221 H   0  0  0  0  0  0  0  0  0  0  0  0
   -0.3222   25.8034  -28.8221 H   0  0  0  0  0  0  0  0  0  0  0  0
   -2.5278   23.9892  -27.6918 H   0  0  0  0  0  0  0  0  0  0  0  0
   -2.4676   25.7627  -27.4370 H   0  0  0  0  0  0  0  0  0  0  0  0
   -4.7339   25.0316  -28.8942 H   0  0  0  0  0  0  0  0  0  0  0  0
   -4.2837   24.6365  -30.5874 H   0  0  0  0  0  0  0  0  0  0  0  0
   -3.3187   23.0064  -28.2423 H   0  0  0  0  0  0  0  0  0  0  0  0
   -4.9292   22.7300  -29.0637 H   0  0  0  0  0  0  0  0  0  0  0  0
   -1.4933   23.1744  -30.2894 H   0  0  0  0  0  0  0  0  0  0  0  0
   -1.7604   21.9113  -28.9700 H   0  0  0  0  0  0  0  0  0  0  0  0
   -0.3964   20.7971  -30.3034 H   0  0  0  0  0  0  0  0  0  0  0  0
   -2.0616   20.3884  -31.0082 H   0  0  0  0  0  0  0  0  0  0  0  0
   -0.1354   20.6527  -33.7548 H   0  0  0  0  0  0  0  0  0  0  0  0
   -1.0422   19.5848  -32.6111 H   0  0  0  0  0  0  0  0  0  0  0  0
   -2.2073   21.6663  -34.5770 H   0  0  0  0  0  0  0  0  0  0  0  0
   -2.5319   19.9034  -34.5244 H   0  0  0  0  0  0  0  0  0  0  0  0
   -3.0940   21.6800  -32.2170 H   0  0  0  0  0  0  0  0  0  0  0  0
   -4.3078   23.1449  -32.2422 H   0  0  0  0  0  0  0  0  0  0  0  0
   -5.9790   24.8023  -31.4735 H   0  0  0  0  0  0  0  0  0  0  0  0
   -8.3741   24.1549  -31.2717 H   0  0  0  0  0  0  0  0  0  0  0  0
   -9.0097   21.8321  -31.8604 H   0  0  0  0  0  0  0  0  0  0  0  0
   -9.1193   19.6811  -31.4326 H   0  0  0  0  0  0  0  0  0  0  0  0
   -9.4477   20.5373  -32.9772 H   0  0  0  0  0  0  0  0  0  0  0  0
   -9.1568   18.7648  -32.9772 H   0  0  0  0  0  0  0  0  0  0  0  0
   -8.1114   17.5456  -33.2983 H   0  0  0  0  0  0  0  0  0  0  0  0
   -6.8768   14.8606  -33.2464 H   0  0  0  0  0  0  0  0  0  0  0  0
   -7.6043   15.4893  -34.7637 H   0  0  0  0  0  0  0  0  0  0  0  0
   -5.9154   14.8773  -34.7637 H   0  0  0  0  0  0  0  0  0  0  0  0
   -4.1436   16.3397  -34.3184 H   0  0  0  0  0  0  0  0  0  0  0  0
   -3.3542   18.5802  -33.7727 H   0  0  0  0  0  0  0  0  0  0  0  0
  1  2  1  0
  2  3  1  0
  3  4  1  0
  4  5  1  0
  5  6  1  0
  6  7  1  0
  7  8  1  0
  8  9  1  0
  9 10  1  0
 10 11  1  0
 11 12  1  0
 12 13  1  0
 13 14  2  0
 14 15  1  0
 15 16  2  0
 16 17  1  0
 17 18  2  0
 18 19  1  0
 19 20  2  0
 20 21  1  0
 20 22  1  0
 22 23  2  0
 23 24  1  0
 24 25  1  0
 24 26  2  0
 26 27  1  0
 27 28  2  0
 28 13  1  0
 19 14  1  0
 28 22  1  0
  1 29  1  0
  1 30  1  0
  1 31  1  0
  2 32  1  0
  2 33  1  0
  4 34  1  0
  4 35  1  0
  5 36  1  0
  5 37  1  0
  7 38  1  0
  7 39  1  0
  8 40  1  0
  8 41  1  0
 10 42  1  0
 10 43  1  0
 11 44  1  0
 11 45  1  0
 12 46  1  0
 15 47  1  0
 16 48  1  0
 17 49  1  0
 18 50  1  0
 21 51  1  0
 21 52  1  0
 21 53  1  0
 23 54  1  0
 25 55  1  0
 25 56  1  0
 25 57  1  0
 26 58  1  0
 27 59  1  0
M  CHG  1  20   1
M  END
>  <smiles>  (1) 
CCOCCOCCOCCNc1c2ccccc2[n+](C)c2cc(C)ccc12

>  <score_type>  (1) 
oracle

>  <origin>  (1) 
adg

>  <m_score__min__energy>  (1) 
-9.3399999999999999

>  <m_primary>  (1) 
energy

$$$$
1:0
     RDKit          3D

 38 41  0  0  0  0  0  0  0  0999 V2000
   -1.6590   25.2880  -27.6990 C   0  0  0  0  0  0  0  0  0  0  0  0
   -1.9870   25.3010  -29.0910 N   0  0  0  0  0  0  0  0  0  0  0  0
   -2.8220   24.3160  -29.6530 C   0  0  0  0  0  0  0  0  0  0  0  0
   -4.1810   24.3930  -29.4770 C   0  0  0  0  0  0  0  0  0  0  0  0
   -5.0290   23.4260  -30.0250 C   0  0  0  0  0  0  0  0  0  0  0  0
   -4.5900   22.3560  -30.7610 C   0  0  0  0  0  0  0  0  0  0  0  0
   -5.4310   21.3160  -31.3280 C   0  0  0  0  0  0  0  0  0  0  0  0
   -4.8460   20.1920  -31.7440 C   0  0  0  0  0  0  0  0  0  0  0  0
   -5.5390   19.0640  -32.3250 C   0  0  0  0  0  0  0  0  0  0  0  0
   -4.8650   17.9320  -32.7340 C   0  0  0  0  0  0  0  0  0  0  0  0
   -5.5310   16.8530  -33.2920 C   0  0  0  0  0  0  0  0  0  0  0  0
   -6.8880   16.8990  -33.4450 C   0  0  0  0  0  0  0  0  0  0  0  0
   -7.5870   18.0310  -33.0390 C   0  0  0  0  0  0  0  0  0  0  0  0
   -6.8950   19.0870  -32.4880 C   0  0  0  0  0  0  0  0  0  0  0  0
   -7.5770   20.3180  -32.0360 C   0  0  0  0  0  0  0  0  0  0  0  0
   -8.8250   20.5460  -32.0870 N   0  0  0  0  0  0  0  0  0  0  0  0
   -9.1590   21.8290  -31.5690 C   0  0  0  0  0  0  0  0  0  0  0  0
   -7.8210   22.4150  -31.1600 C   0  0  0  0  0  0  0  0  0  0  0  0
   -6.8560   21.4160  -31.4650 N   0  0  0  0  0  0  0  0  0  0  0  0
   -3.2090   22.2890  -30.9340 C   0  0  0  0  0  0  0  0  0  0  0  0
   -2.3550   23.2550  -30.3860 C   0  0  0  0  0  0  0  0  0  0  0  0
   -2.5835   25.3246  -27.1041 H   0  0  0  0  0  0  0  0  0  0  0  0
   -1.1062   24.3672  -27.4611 H   0  0  0  0  0  0  0  0  0  0  0  0
   -1.0350   26.1621  -27.4611 H   0  0  0  0  0  0  0  0  0  0  0  0
   -1.6180   26.0400  -29.7340 H   0  0  0  0  0  0  0  0  0  0  0  0
   -4.6079   25.2252  -28.8981 H   0  0  0  0  0  0  0  0  0  0  0  0
   -6.1110   23.5297  -29.8558 H   0  0  0  0  0  0  0  0  0  0  0  0
   -3.7538   20.1175  -31.6370 H   0  0  0  0  0  0  0  0  0  0  0  0
   -3.7726   17.8850  -32.6142 H   0  0  0  0  0  0  0  0  0  0  0  0
   -4.9694   15.9625  -33.6107 H   0  0  0  0  0  0  0  0  0  0  0  0
   -7.4244   16.0461  -33.8865 H   0  0  0  0  0  0  0  0  0  0  0  0
   -8.6795   18.0823  -33.1565 H   0  0  0  0  0  0  0  0  0  0  0  0
   -9.6392   22.4497  -32.3398 H   0  0  0  0  0  0  0  0  0  0  0  0
   -9.8733   21.7773  -30.7341 H   0  0  0  0  0  0  0  0  0  0  0  0
   -7.6147   23.3341  -31.7281 H   0  0  0  0  0  0  0  0  0  0  0  0
   -7.8040   22.6849  -30.0938 H   0  0  0  0  0  0  0  0  0  0  0  0
   -2.7796   21.4588  -31.5140 H   0  0  0  0  0  0  0  0  0  0  0  0
   -1.2714   23.1591  -30.5494 H   0  0  0  0  0  0  0  0  0  0  0  0
  1  2  1  0
  2  3  1  0
  3  4  2  0
  4  5  1  0
  5  6  2  0
  6  7  1  0
  7  8  2  0
  8  9  1  0
  9 10  2  0
 10 11  1  0
 11 12  2  0
 12 13  1  0
 13 14  2  0
 14 15  1  0
 15 16  2  0
 16 17  1  0
 17 18  1  0
 18 19  1  0
  6 20  1  0
 20 21  2  0
 21  3  1  0
 19  7  1  0
 14  9  1  0
 19 15  1  0
  1 22  1  0
  1 23  1  0
  1 24  1  0
  2 25  1  0
  4 26  1  0
  5 27  1  0
  8 28  1  0
 10 29  1  0
 11 30  1  0
 12 31  1  0
 13 32  1  0
 17 33  1  0
 17 34  1  0
 18 35  1  0
 18 36  1  0
 20 37  1  0
 21 38  1  0
M  END
>  <smiles>  (2) 
CNc1ccc(C2=Cc3ccccc3C3=NCCN23)cc1

>  <score_type>  (2) 
oracle

>  <origin>  (2) 
adg

>  <m_score__min__energy>  (2) 
-8.5600000000000005

>  <m_primary>  (2) 
energy

$$$$
2:0
     RDKit          3D

 54 54  0  0  0  0  0  0  0  0999 V2000
   -6.1350   17.8460  -34.1760 C   0  0  0  0  0  0  0  0  0  0  0  0
   -5.9130   19.1530  -33.5200 C   0  0  0  0  0  0  0  0  0  0  0  0
   -6.9570   19.8580  -32.9620 C   0  0  0  0  0  0  0  0  0  0  0  0
   -6.7660   21.0960  -32.3370 C   0  0  0  0  0  0  0  0  0  0  0  0
   -7.9200   21.8410  -31.7410 C   0  0  0  0  0  0  0  0  0  0  0  0
   -5.4760   21.6150  -32.2850 C   0  0  0  0  0  0  0  0  0  0  0  0
   -5.2410   22.8660  -31.6550 N   0  0  0  0  0  0  0  0  0  0  0  0
   -5.8360   23.9870  -32.0630 O   0  0  0  0  0  0  0  0  0  0  0  0
   -6.4800   24.5520  -30.9460 C   0  0  0  0  0  0  0  0  0  0  0  0
   -5.4190   25.3510  -30.1830 C   0  0  0  0  0  0  0  0  0  0  0  0
   -4.1220   25.0780  -30.7260 N   0  0  0  0  0  0  0  0  0  0  0  0
   -3.3130   24.3960  -29.8980 O   0  0  0  0  0  0  0  0  0  0  0  0
   -3.9740   24.2320  -28.6840 C   0  0  0  0  0  0  0  0  0  0  0  0
   -4.1730   22.7410  -28.4930 C   0  0  0  0  0  0  0  0  0  0  0  0
   -3.5700   22.0920  -29.5390 O   0  0  0  0  0  0  0  0  0  0  0  0
   -2.6600   21.1180  -29.1300 C   0  0  0  0  0  0  0  0  0  0  0  0
   -2.7840   20.7780  -27.6800 C   0  0  0  0  0  0  0  0  0  0  0  0
   -2.6060   19.3530  -27.4740 N   0  0  0  0  0  0  0  0  0  0  0  0
   -3.4220   18.9130  -26.3670 C   0  0  0  0  0  0  0  0  0  0  0  0
   -1.2150   19.1510  -27.1090 C   0  0  0  0  0  0  0  0  0  0  0  0
   -4.4290   20.9110  -32.8420 C   0  0  0  0  0  0  0  0  0  0  0  0
   -3.0490   21.4620  -32.7880 C   0  0  0  0  0  0  0  0  0  0  0  0
   -4.6360   19.6720  -33.4640 C   0  0  0  0  0  0  0  0  0  0  0  0
   -6.2671   17.0686  -33.4091 H   0  0  0  0  0  0  0  0  0  0  0  0
   -7.0370   17.8991  -34.8034 H   0  0  0  0  0  0  0  0  0  0  0  0
   -5.2661   17.5983  -34.8034 H   0  0  0  0  0  0  0  0  0  0  0  0
   -7.9714   19.4352  -33.0090 H   0  0  0  0  0  0  0  0  0  0  0  0
   -7.8558   21.7995  -30.6437 H   0  0  0  0  0  0  0  0  0  0  0  0
   -7.8889   22.8900  -32.0707 H   0  0  0  0  0  0  0  0  0  0  0  0
   -8.8631   21.3808  -32.0707 H   0  0  0  0  0  0  0  0  0  0  0  0
   -4.5850   22.9280  -30.8490 H   0  0  0  0  0  0  0  0  0  0  0  0
   -7.2927   25.2172  -31.2733 H   0  0  0  0  0  0  0  0  0  0  0  0
   -6.9224   23.7724  -30.3084 H   0  0  0  0  0  0  0  0  0  0  0  0
   -5.6347   26.4257  -30.2754 H   0  0  0  0  0  0  0  0  0  0  0  0
   -5.4375   25.0589  -29.1226 H   0  0  0  0  0  0  0  0  0  0  0  0
   -4.2440   24.5500  -31.5950 H   0  0  0  0  0  0  0  0  0  0  0  0
   -3.3665   24.6414  -27.8634 H   0  0  0  0  0  0  0  0  0  0  0  0
   -4.9376   24.7626  -28.6838 H   0  0  0  0  0  0  0  0  0  0  0  0
   -3.7165   22.4227  -27.5441 H   0  0  0  0  0  0  0  0  0  0  0  0
   -5.2461   22.5010  -28.4642 H   0  0  0  0  0  0  0  0  0  0  0  0
   -2.8331   20.2061  -29.7203 H   0  0  0  0  0  0  0  0  0  0  0  0
   -1.6497   21.5230  -29.2887 H   0  0  0  0  0  0  0  0  0  0  0  0
   -2.0155   21.3242  -27.1133 H   0  0  0  0  0  0  0  0  0  0  0  0
   -3.7876   21.0645  -27.3325 H   0  0  0  0  0  0  0  0  0  0  0  0
   -2.9294   19.1786  -25.4200 H   0  0  0  0  0  0  0  0  0  0  0  0
   -4.4054   19.4031  -26.4188 H   0  0  0  0  0  0  0  0  0  0  0  0
   -3.5529   17.8220  -26.4188 H   0  0  0  0  0  0  0  0  0  0  0  0
   -1.1218   19.1375  -26.0130 H   0  0  0  0  0  0  0  0  0  0  0  0
   -0.8639   18.1924  -27.5187 H   0  0  0  0  0  0  0  0  0  0  0  0
   -0.6057   19.9701  -27.5187 H   0  0  0  0  0  0  0  0  0  0  0  0
   -2.7437   21.5839  -31.7383 H   0  0  0  0  0  0  0  0  0  0  0  0
   -2.3582   20.7707  -33.2929 H   0  0  0  0  0  0  0  0  0  0  0  0
   -3.0242   22.4390  -33.2929 H   0  0  0  0  0  0  0  0  0  0  0  0
   -3.7909   19.1205  -33.9019 H   0  0  0  0  0  0  0  0  0  0  0  0
  1  2  1  0
  2  3  2  0
  3  4  1  0
  4  5  1  0
  4  6  2  0
  6  7  1  0
  7  8  1  0
  8  9  1  0
  9 10  1  0
 10 11  1  0
 11 12  1  0
 12 13  1  0
 13 14  1  0
 14 15  1  0
 15 16  1  0
 16 17  1  0
 17 18  1  0
 18 19  1  0
 18 20  1  0
  6 21  1  0
 21 22  1  0
 21 23  2  0
 23  2  1  0
  1 24  1  0
  1 25  1  0
  1 26  1  0
  3 27  1  0
  5 28  1  0
  5 29  1  0
  5 30  1  0
  7 31  1  0
  9 32  1  0
  9 33  1  0
 10 34  1  0
 10 35  1  0
 11 36  1  0
 13 37  1  0
 13 38  1  0
 14 39  1  0
 14 40  1  0
 16 41  1  0
 16 42  1  0
 17 43  1  0
 17 44  1  0
 19 45  1  0
 19 46  1  0
 19 47  1  0
 20 48  1  0
 20 49  1  0
 20 50  1  0
 22 51  1  0
 22 52  1  0
 22 53  1  0
 23 54  1  0
M  END
>  <smiles>  (3) 
Cc1cc(C)c(NOCCNOCCOCCN(C)C)c(C)c1

>  <score_type>  (3) 
oracle

>  <origin>  (3) 
adg

>  <m_score__min__energy>  (3) 
-9.4900000000000002

>  <m_primary>  (3) 
energy

$$$$
3:0
     RDKit          3D

 44 46  0  0  0  0  0  0  0  0999 V2000
   -8.6720   18.5980  -31.9430 C   0  0  0  0  0  0  0  0  0  0  0  0
   -7.3530   18.6530  -32.6860 C   0  0  0  0  0  0  0  0  0  0  0  0
   -7.2350   19.9850  -33.3930 C   0  0  0  0  0  0  0  0  0  0  0  0
   -7.1000   21.0410  -32.3800 C   0  0  0  0  0  0  0  0  0  0  0  0
   -6.1890   21.5920  -31.7650 N   0  0  0  0  0  0  0  0  0  0  0  0
   -6.2920   22.5510  -30.8710 C   0  0  0  0  0  0  0  0  0  0  0  0
   -5.0850   23.1420  -30.2500 C   0  0  0  0  0  0  0  0  0  0  0  0
   -4.1730   22.3010  -29.6000 C   0  0  0  0  0  0  0  0  0  0  0  0
   -3.0450   22.7750  -28.9780 C   0  0  0  0  0  0  0  0  0  0  0  0
   -2.8090   24.1140  -28.9980 C   0  0  0  0  0  0  0  0  0  0  0  0
   -1.6260   24.6760  -28.3540 C   0  0  0  0  0  0  0  0  0  0  0  0
   -0.5390   23.8840  -28.0430 C   0  0  0  0  0  0  0  0  0  0  0  0
    0.5770   24.4230  -27.4350 C   0  0  0  0  0  0  0  0  0  0  0  0
    1.7100   23.5100  -27.1280 C   0  0  0  0  0  0  0  0  0  0  0  0
    0.5940   25.7650  -27.1400 C   0  0  0  0  0  0  0  0  0  0  0  0
   -0.5100   26.5550  -27.4580 C   0  0  0  0  0  0  0  0  0  0  0  0
   -0.4920   28.0250  -27.1350 C   0  0  0  0  0  0  0  0  0  0  0  0
   -1.5860   25.9990  -28.0530 N   0  0  0  0  0  0  0  0  0  0  0  0
   -3.6700   24.9190  -29.6120 N   0  0  0  0  0  0  0  0  0  0  0  0
   -4.7990   24.4700  -30.2360 C   0  0  0  0  0  0  0  0  0  0  0  0
   -5.6680   25.4980  -30.8310 C   0  0  0  0  0  0  0  0  0  0  0  0
   -7.5640   22.9790  -30.6000 C   0  0  0  0  0  0  0  0  0  0  0  0
   -8.6360   21.9220  -31.7080 S   0  0  0  0  0  0  0  0  0  0  0  0
   -8.4830   18.6059  -30.8594 H   0  0  0  0  0  0  0  0  0  0  0  0
   -9.2828   19.4715  -32.2151 H   0  0  0  0  0  0  0  0  0  0  0  0
   -9.2080   17.6767  -32.2151 H   0  0  0  0  0  0  0  0  0  0  0  0
   -6.5237   18.5408  -31.9721 H   0  0  0  0  0  0  0  0  0  0  0  0
   -7.3104   17.8382  -33.4238 H   0  0  0  0  0  0  0  0  0  0  0  0
   -6.3494   19.9815  -34.0454 H   0  0  0  0  0  0  0  0  0  0  0  0
   -8.1289   20.1653  -34.0082 H   0  0  0  0  0  0  0  0  0  0  0  0
   -4.3683   21.2185  -29.5875 H   0  0  0  0  0  0  0  0  0  0  0  0
   -2.3484   22.0880  -28.4753 H   0  0  0  0  0  0  0  0  0  0  0  0
   -0.5624   22.8106  -28.2825 H   0  0  0  0  0  0  0  0  0  0  0  0
    1.8226   23.4192  -26.0376 H   0  0  0  0  0  0  0  0  0  0  0  0
    1.5092   22.5184  -27.5597 H   0  0  0  0  0  0  0  0  0  0  0  0
    2.6363   23.9171  -27.5597 H   0  0  0  0  0  0  0  0  0  0  0  0
    1.4738   26.2136  -26.6556 H   0  0  0  0  0  0  0  0  0  0  0  0
   -0.4903   28.1606  -26.0434 H   0  0  0  0  0  0  0  0  0  0  0  0
    0.4118   28.4834  -27.5628 H   0  0  0  0  0  0  0  0  0  0  0  0
   -1.3843   28.5054  -27.5628 H   0  0  0  0  0  0  0  0  0  0  0  0
   -6.1552   26.0743  -30.0307 H   0  0  0  0  0  0  0  0  0  0  0  0
   -5.0633   26.1738  -31.4535 H   0  0  0  0  0  0  0  0  0  0  0  0
   -6.4351   25.0142  -31.4535 H   0  0  0  0  0  0  0  0  0  0  0  0
   -7.8810   23.7618  -29.8951 H   0  0  0  0  0  0  0  0  0  0  0  0
  1  2  1  0
  2  3  1  0
  3  4  1  0
  4  5  2  0
  5  6  1  0
  6  7  1  0
  7  8  2  0
  8  9  1  0
  9 10  2  0
 10 11  1  0
 11 12  2  0
 12 13  1  0
 13 14  1  0
 13 15  2  0
 15 16  1  0
 16 17  1  0
 16 18  2  0
 10 19  1  0
 19 20  2  0
 20 21  1  0
  6 22  2  0
 22 23  1  0
 23  4  1  0
 20  7  1  0
 18 11  1  0
  1 24  1  0
  1 25  1  0
  1 26  1  0
  2 27  1  0
  2 28  1  0
  3 29  1  0
  3 30  1  0
  8 31  1  0
  9 32  1  0
 12 33  1  0
 14 34  1  0
 14 35  1  0
 14 36  1  0
 15 37  1  0
 17 38  1  0
 17 39  1  0
 17 40  1  0
 21 41  1  0
 21 42  1  0
 21 43  1  0
 22 44  1  0
M  END
>  <smiles>  (4) 
CCCc1nc(-c2ccc(-c3cc(C)cc(C)n3)nc2C)cs1

>  <score_type>  (4) 
oracle

>  <origin>  (4) 
adg

>  <m_score__min__energy>  (4) 
-8.2100000000000009

>  <m_primary>  (4) 
energy

$$$$
4:0
     RDKit          3D

 36 37  0  0  1  0  0  0  0  0999 V2000
   -1.5590   26.1670  -26.5140 C   0  0  0  0  0  0  0  0  0  0  0  0
   -0.7300   26.6290  -27.6930 C   0  0  0  0  0  0  0  0  0  0  0  0
   -1.2750   26.1460  -28.9080 O   0  0  0  0  0  0  0  0  0  0  0  0
   -0.8750   24.8920  -29.2990 N   0  0  0  0  0  0  0  0  0  0  0  0
   -1.5150   23.8210  -28.9730 C   0  0  0  0  0  0  0  0  0  0  0  0
   -2.0050   22.9600  -30.0450 C   0  0  0  0  0  0  0  0  0  0  0  0
   -1.3850   21.7550  -30.2430 C   0  0  0  0  0  0  0  0  0  0  0  0
   -1.7810   20.8800  -31.2300 C   0  0  0  0  0  0  0  0  0  0  0  0
   -2.8390   21.2700  -32.0210 C   0  0  0  0  0  0  0  0  0  0  0  0
   -3.4610   22.4880  -31.8160 C   0  0  0  0  0  0  0  0  0  0  0  0
   -3.0930   23.3820  -30.8430 C   0  0  0  0  0  0  0  0  0  0  0  0
   -3.6110   24.5790  -30.5510 O   0  0  0  0  0  0  0  0  0  0  0  0
   -4.8970   25.0040  -30.3910 C   0  0  0  0  0  0  0  0  0  0  0  0
   -5.9930   24.0590  -30.6330 C   0  0  0  0  0  0  0  0  0  0  0  0
   -6.4670   23.9760  -31.9500 C   0  0  0  0  0  0  0  0  0  0  0  0
   -7.4570   23.1190  -32.3260 C   0  0  0  0  0  0  0  0  0  0  0  0
   -8.0390   22.2880  -31.4020 C   0  0  0  0  0  0  0  0  0  0  0  0
   -9.4120   21.1170  -31.9820 Br  0  0  0  0  0  0  0  0  0  0  0  0
   -7.5910   22.3490  -30.1010 C   0  0  0  0  0  0  0  0  0  0  0  0
   -6.5830   23.2240  -29.7310 C   0  0  0  0  0  0  0  0  0  0  0  0
   -1.0541   26.4484  -25.5781 H   0  0  0  0  0  0  0  0  0  0  0  0
   -2.5499   26.6430  -26.5535 H   0  0  0  0  0  0  0  0  0  0  0  0
   -1.6755   25.0739  -26.5535 H   0  0  0  0  0  0  0  0  0  0  0  0
   -0.7156   27.7287  -27.7156 H   0  0  0  0  0  0  0  0  0  0  0  0
    0.2916   26.2363  -27.5827 H   0  0  0  0  0  0  0  0  0  0  0  0
   -1.6867   23.5637  -27.9174 H   0  0  0  0  0  0  0  0  0  0  0  0
   -0.5429   21.4769  -29.5922 H   0  0  0  0  0  0  0  0  0  0  0  0
   -1.2758   19.9144  -31.3797 H   0  0  0  0  0  0  0  0  0  0  0  0
   -3.1927   20.6061  -32.8236 H   0  0  0  0  0  0  0  0  0  0  0  0
   -4.3016   22.7561  -32.4729 H   0  0  0  0  0  0  0  0  0  0  0  0
   -4.9947   25.3520  -29.3521 H   0  0  0  0  0  0  0  0  0  0  0  0
   -5.0241   25.7629  -31.1771 H   0  0  0  0  0  0  0  0  0  0  0  0
   -6.0202   24.6311  -32.7124 H   0  0  0  0  0  0  0  0  0  0  0  0
   -7.7909   23.0931  -33.3738 H   0  0  0  0  0  0  0  0  0  0  0  0
   -8.0414   21.6916  -29.3428 H   0  0  0  0  0  0  0  0  0  0  0  0
   -6.2501   23.2458  -28.6828 H   0  0  0  0  0  0  0  0  0  0  0  0
  1  2  1  0
  2  3  1  0
  3  4  1  0
  4  5  2  0
  5  6  1  0
  6  7  2  0
  7  8  1  0
  8  9  2  0
  9 10  1  0
 10 11  2  0
 11 12  1  0
 12 13  1  0
 13 14  1  0
 14 15  2  0
 15 16  1  0
 16 17  2  0
 17 18  1  0
 17 19  1  0
 19 20  2  0
 11  6  1  0
 20 14  1  0
  1 21  1  0
  1 22  1  0
  1 23  1  0
  2 24  1  0
  2 25  1  0
  5 26  1  0
  7 27  1  0
  8 28  1  0
  9 29  1  0
 10 30  1  0
 13 31  1  0
 13 32  1  0
 15 33  1  0
 16 34  1  0
 19 35  1  0
 20 36  1  0
M  END
>  <smiles>  (5) 
CCON=Cc1ccccc1OCc1ccc(Br)cc1

>  <score_type>  (5) 
oracle

>  <origin>  (5) 
adg

>  <m_score__min__energy>  (5) 
-7.96

>  <m_primary>  (5) 
energy

$$$$
5:0
     RDKit          3D

 52 55  0  0  0  0  0  0  0  0999 V2000
    0.6230   24.7880  -36.0900 C   0  0  0  0  0  0  0  0  0  0  0  0
    1.4120   23.4840  -35.9920 C   0  0  0  0  0  0  0  0  0  0  0  0
    0.7260   22.6730  -35.1200 O   0  0  0  0  0  0  0  0  0  0  0  0
    0.8580   21.3220  -35.4080 C   0  0  0  0  0  0  0  0  0  0  0  0
   -0.2740   20.5470  -34.8360 C   0  0  0  0  0  0  0  0  0  0  0  0
   -1.1640   21.3360  -34.1510 O   0  0  0  0  0  0  0  0  0  0  0  0
   -0.9580   21.3540  -32.7890 C   0  0  0  0  0  0  0  0  0  0  0  0
   -2.3430   21.5500  -32.1590 C   0  0  0  0  0  0  0  0  0  0  0  0
   -3.3210   21.4520  -33.2310 N   0  0  0  0  0  0  0  0  0  0  0  0
   -4.6330   20.9490  -33.0000 C   0  0  0  0  0  0  0  0  0  0  0  0
   -4.8280   19.5980  -33.2970 C   0  0  0  0  0  0  0  0  0  0  0  0
   -6.0740   19.0140  -33.1050 C   0  0  0  0  0  0  0  0  0  0  0  0
   -7.0680   19.7880  -32.6310 N   0  0  0  0  0  0  0  0  0  0  0  0
   -8.3690   19.2220  -32.4200 C   0  0  0  0  0  0  0  0  0  0  0  0
   -6.8850   21.1050  -32.3410 C   0  0  0  0  0  0  0  0  0  0  0  0
   -7.9470   21.8580  -31.8540 C   0  0  0  0  0  0  0  0  0  0  0  0
   -7.7670   23.2050  -31.5550 C   0  0  0  0  0  0  0  0  0  0  0  0
   -6.5200   23.7800  -31.7490 C   0  0  0  0  0  0  0  0  0  0  0  0
   -5.4410   23.0560  -32.2330 C   0  0  0  0  0  0  0  0  0  0  0  0
   -5.6650   21.7260  -32.5150 C   0  0  0  0  0  0  0  0  0  0  0  0
   -5.9780   17.5970  -33.4970 C   0  0  0  0  0  0  0  0  0  0  0  0
   -6.8650   16.6040  -33.5110 N   0  0  0  0  0  0  0  0  0  0  0  0
   -6.5160   15.3530  -33.9310 C   0  0  0  0  0  0  0  0  0  0  0  0
   -5.2220   15.0760  -34.3580 C   0  0  0  0  0  0  0  0  0  0  0  0
   -4.2840   16.0830  -34.3550 C   0  0  0  0  0  0  0  0  0  0  0  0
   -4.6920   17.3280  -33.9210 C   0  0  0  0  0  0  0  0  0  0  0  0
   -3.9210   18.5610  -33.8140 C   0  0  0  0  0  0  0  0  0  0  0  0
   -2.6980   18.6980  -34.1150 O   0  0  0  0  0  0  0  0  0  0  0  0
    0.3991   25.1580  -35.0786 H   0  0  0  0  0  0  0  0  0  0  0  0
    1.2192   25.5375  -36.6310 H   0  0  0  0  0  0  0  0  0  0  0  0
   -0.3176   24.6077  -36.6310 H   0  0  0  0  0  0  0  0  0  0  0  0
    1.4797   23.0065  -36.9806 H   0  0  0  0  0  0  0  0  0  0  0  0
    2.4376   23.6672  -35.6390 H   0  0  0  0  0  0  0  0  0  0  0  0
    0.8732   21.1858  -36.4994 H   0  0  0  0  0  0  0  0  0  0  0  0
    1.7955   20.9568  -34.9633 H   0  0  0  0  0  0  0  0  0  0  0  0
   -0.8076   20.0458  -35.6570 H   0  0  0  0  0  0  0  0  0  0  0  0
    0.1462   19.8234  -34.1220 H   0  0  0  0  0  0  0  0  0  0  0  0
   -0.5168   20.4031  -32.4558 H   0  0  0  0  0  0  0  0  0  0  0  0
   -0.2629   22.1544  -32.4954 H   0  0  0  0  0  0  0  0  0  0  0  0
   -2.5288   20.7691  -31.4068 H   0  0  0  0  0  0  0  0  0  0  0  0
   -2.4093   22.5271  -31.6581 H   0  0  0  0  0  0  0  0  0  0  0  0
   -3.1050   21.7440  -34.2070 H   0  0  0  0  0  0  0  0  0  0  0  0
   -8.5617   19.1382  -31.3403 H   0  0  0  0  0  0  0  0  0  0  0  0
   -9.1298   19.8705  -32.8790 H   0  0  0  0  0  0  0  0  0  0  0  0
   -8.4132   18.2233  -32.8790 H   0  0  0  0  0  0  0  0  0  0  0  0
   -8.9306   21.3887  -31.7048 H   0  0  0  0  0  0  0  0  0  0  0  0
   -8.6035   23.8064  -31.1695 H   0  0  0  0  0  0  0  0  0  0  0  0
   -6.3824   24.8451  -31.5112 H   0  0  0  0  0  0  0  0  0  0  0  0
   -4.4553   23.5203  -32.3843 H   0  0  0  0  0  0  0  0  0  0  0  0
   -7.2698   14.5519  -33.9317 H   0  0  0  0  0  0  0  0  0  0  0  0
   -4.9514   14.0642  -34.6941 H   0  0  0  0  0  0  0  0  0  0  0  0
   -3.2504   15.9028  -34.6853 H   0  0  0  0  0  0  0  0  0  0  0  0
  1  2  1  0
  2  3  1  0
  3  4  1  0
  4  5  1  0
  5  6  1  0
  6  7  1  0
  7  8  1  0
  8  9  1  0
  9 10  1  0
 10 11  2  0
 11 12  1  0
 12 13  2  0
 13 14  1  0
 13 15  1  0
 15 16  2  0
 16 17  1  0
 17 18  2  0
 18 19  1  0
 19 20  2  0
 12 21  1  0
 21 22  2  0
 22 23  1  0
 23 24  2  0
 24 25  1  0
 25 26  2  0
 26 27  1  0
 27 28  2  0
 20 10  1  0
 26 21  1  0
 27 11  1  0
 20 15  1  0
  1 29  1  0
  1 30  1  0
  1 31  1  0
  2 32  1  0
  2 33  1  0
  4 34  1  0
  4 35  1  0
  5 36  1  0
  5 37  1  0
  7 38  1  0
  7 39  1  0
  8 40  1  0
  8 41  1  0
  9 42  1  0
 14 43  1  0
 14 44  1  0
 14 45  1  0
 16 46  1  0
 17 47  1  0
 18 48  1  0
 19 49  1  0
 23 50  1  0
 24 51  1  0
 25 52  1  0
M  CHG  1  13   1
M  END
>  <smiles>  (6) 
CCOCCOCCNc1c2c([n+](C)c3ccccc13)-c1ncccc1C2=O

>  <score_type>  (6) 
oracle

>  <origin>  (6) 
adg

>  <m_score__min__energy>  (6) 
-9.3200000000000003

>  <m_primary>  (6) 
energy

$$$$
6:0
     RDKit          3D

 46 48  0  0  0  0  0  0  0  0999 V2000
    1.6520   22.2060  -34.9590 C   0  0  0  0  0  0  0  0  0  0  0  0
    0.2500   21.9100  -35.1890 N   0  0  0  0  0  0  0  0  0  0  0  0
    0.1940   20.8270  -36.1500 C   0  0  0  0  0  0  0  0  0  0  0  0
   -0.4200   21.5520  -33.9250 C   0  0  0  0  0  0  0  0  0  0  0  0
   -0.5140   20.0720  -33.9230 C   0  0  0  0  0  0  0  0  0  0  0  0
   -1.7260   19.4710  -33.8410 O   0  0  0  0  0  0  0  0  0  0  0  0
   -2.9770   19.8590  -33.4570 C   0  0  0  0  0  0  0  0  0  0  0  0
   -3.2170   21.0640  -32.8500 C   0  0  0  0  0  0  0  0  0  0  0  0
   -4.5010   21.4680  -32.4540 C   0  0  0  0  0  0  0  0  0  0  0  0
   -5.5040   20.5620  -32.7230 C   0  0  0  0  0  0  0  0  0  0  0  0
   -5.2800   19.3410  -33.3360 C   0  0  0  0  0  0  0  0  0  0  0  0
   -4.0290   18.9420  -33.7210 C   0  0  0  0  0  0  0  0  0  0  0  0
   -3.6450   17.6920  -34.3470 C   0  0  0  0  0  0  0  0  0  0  0  0
   -2.4130   17.4650  -34.8100 F   0  0  0  0  0  0  0  0  0  0  0  0
   -4.4330   17.6450  -35.5340 F   0  0  0  0  0  0  0  0  0  0  0  0
   -4.1730   16.5820  -33.6600 F   0  0  0  0  0  0  0  0  0  0  0  0
   -6.2990   18.3890  -33.6600 N   0  0  0  0  0  0  0  0  0  0  0  0
   -7.5610   18.0690  -33.0330 C   0  0  0  0  0  0  0  0  0  0  0  0
   -7.8410   18.7500  -31.7450 C   0  0  0  0  0  0  0  0  0  0  0  0
   -7.8310   20.2560  -31.8300 C   0  0  0  0  0  0  0  0  0  0  0  0
   -9.0010   20.8410  -31.4190 C   0  0  0  0  0  0  0  0  0  0  0  0
   -9.0910   22.2310  -31.4660 C   0  0  0  0  0  0  0  0  0  0  0  0
   -8.0530   23.0270  -31.9090 C   0  0  0  0  0  0  0  0  0  0  0  0
   -6.8530   22.4420  -32.3340 C   0  0  0  0  0  0  0  0  0  0  0  0
   -6.8040   21.0740  -32.2710 C   0  0  0  0  0  0  0  0  0  0  0  0
    1.8454   22.2468  -33.8769 H   0  0  0  0  0  0  0  0  0  0  0  0
    2.2722   21.4190  -35.4129 H   0  0  0  0  0  0  0  0  0  0  0  0
    1.9011   23.1765  -35.4129 H   0  0  0  0  0  0  0  0  0  0  0  0
    0.1443   19.8660  -35.6170 H   0  0  0  0  0  0  0  0  0  0  0  0
   -0.6994   20.9428  -36.7813 H   0  0  0  0  0  0  0  0  0  0  0  0
    1.0945   20.8500  -36.7813 H   0  0  0  0  0  0  0  0  0  0  0  0
    0.1723   21.8994  -33.0657 H   0  0  0  0  0  0  0  0  0  0  0  0
   -1.4119   22.0209  -33.8454 H   0  0  0  0  0  0  0  0  0  0  0  0
   -0.0487   19.7228  -34.8565 H   0  0  0  0  0  0  0  0  0  0  0  0
   -0.0262   19.7885  -32.9787 H   0  0  0  0  0  0  0  0  0  0  0  0
   -2.3698   21.7410  -32.6660 H   0  0  0  0  0  0  0  0  0  0  0  0
   -4.6926   22.4349  -31.9657 H   0  0  0  0  0  0  0  0  0  0  0  0
   -6.0620   17.8540  -34.5230 H   0  0  0  0  0  0  0  0  0  0  0  0
   -8.3632   18.3371  -33.7363 H   0  0  0  0  0  0  0  0  0  0  0  0
   -7.5091   16.9963  -32.7950 H   0  0  0  0  0  0  0  0  0  0  0  0
   -8.8332   18.4304  -31.3937 H   0  0  0  0  0  0  0  0  0  0  0  0
   -7.0339   18.4658  -31.0538 H   0  0  0  0  0  0  0  0  0  0  0  0
   -9.8441   20.2310  -31.0625 H   0  0  0  0  0  0  0  0  0  0  0  0
  -10.0241   22.7123  -31.1378 H   0  0  0  0  0  0  0  0  0  0  0  0
   -8.1685   24.1208  -31.9282 H   0  0  0  0  0  0  0  0  0  0  0  0
   -6.0048   23.0422  -32.6950 H   0  0  0  0  0  0  0  0  0  0  0  0
  1  2  1  0
  2  3  1  0
  2  4  1  0
  4  5  1  0
  5  6  1  0
  6  7  1  0
  7  8  2  0
  8  9  1  0
  9 10  2  0
 10 11  1  0
 11 12  2  0
 12 13  1  0
 13 14  1  0
 13 15  1  0
 13 16  1  0
 11 17  1  0
 17 18  1  0
 18 19  1  0
 19 20  1  0
 20 21  2  0
 21 22  1  0
 22 23  2  0
 23 24  1  0
 24 25  2  0
 12  7  1  0
 25 20  1  0
 25 10  1  0
  1 26  1  0
  1 27  1  0
  1 28  1  0
  3 29  1  0
  3 30  1  0
  3 31  1  0
  4 32  1  0
  4 33  1  0
  5 34  1  0
  5 35  1  0
  8 36  1  0
  9 37  1  0
 17 38  1  0
 18 39  1  0
 18 40  1  0
 19 41  1  0
 19 42  1  0
 21 43  1  0
 22 44  1  0
 23 45  1  0
 24 46  1  0
M  END
>  <smiles>  (7) 
CN(C)CCOc1ccc2c(c1C(F)(F)F)NCCc1ccccc1-2

>  <score_type>  (7) 
oracle

>  <origin>  (7) 
adg

>  <m_score__min__energy>  (7) 
-5.8099999999999996

>  <m_primary>  (7) 
energy

$$$$
7:0
     RDKit          3D

 50 52  0  0  0  0  0  0  0  0999 V2000
   -6.1290   25.3600  -29.4070 C   0  0  0  0  0  0  0  0  0  0  0  0
   -5.2140   25.8200  -30.4920 C   0  0  0  0  0  0  0  0  0  0  0  0
   -3.8760   25.2920  -30.3680 N   0  0  0  0  0  0  0  0  0  0  0  0
   -3.6360   24.5310  -29.1830 C   0  0  0  0  0  0  0  0  0  0  0  0
   -3.7170   23.0400  -29.4870 C   0  0  0  0  0  0  0  0  0  0  0  0
   -3.3640   22.7380  -30.7650 O   0  0  0  0  0  0  0  0  0  0  0  0
   -3.5180   21.4420  -31.1650 C   0  0  0  0  0  0  0  0  0  0  0  0
   -3.3450   21.3080  -32.6460 C   0  0  0  0  0  0  0  0  0  0  0  0
   -4.6350   21.4410  -33.3550 N   0  0  0  0  0  0  0  0  0  0  0  0
   -5.7410   20.6360  -32.9740 C   0  0  0  0  0  0  0  0  0  0  0  0
   -5.6850   19.2540  -33.1930 C   0  0  0  0  0  0  0  0  0  0  0  0
   -4.5270   18.7110  -33.7520 C   0  0  0  0  0  0  0  0  0  0  0  0
   -4.4190   17.3410  -33.9830 C   0  0  0  0  0  0  0  0  0  0  0  0
   -5.4960   16.5680  -33.6350 C   0  0  0  0  0  0  0  0  0  0  0  0
   -5.3730   14.8390  -33.9220 Cl  0  0  0  0  0  0  0  0  0  0  0  0
   -6.6600   17.1100  -33.0740 C   0  0  0  0  0  0  0  0  0  0  0  0
   -6.7650   18.4610  -32.8470 C   0  0  0  0  0  0  0  0  0  0  0  0
   -7.8920   18.9320  -32.3020 N   0  0  0  0  0  0  0  0  0  0  0  0
   -9.0360   18.1720  -31.9330 C   0  0  0  0  0  0  0  0  0  0  0  0
   -7.9570   20.2830  -32.0800 C   0  0  0  0  0  0  0  0  0  0  0  0
   -9.1000   20.8320  -31.4930 C   0  0  0  0  0  0  0  0  0  0  0  0
   -9.2190   22.1780  -31.2260 C   0  0  0  0  0  0  0  0  0  0  0  0
   -8.1570   22.9870  -31.5590 C   0  0  0  0  0  0  0  0  0  0  0  0
   -7.0040   22.4620  -32.1470 C   0  0  0  0  0  0  0  0  0  0  0  0
   -5.7150   23.5790  -32.4700 Cl  0  0  0  0  0  0  0  0  0  0  0  0
   -6.8970   21.1140  -32.4120 C   0  0  0  0  0  0  0  0  0  0  0  0
   -5.6800   25.5857  -28.4285 H   0  0  0  0  0  0  0  0  0  0  0  0
   -7.0942   25.8800  -29.4963 H   0  0  0  0  0  0  0  0  0  0  0  0
   -6.2874   24.2751  -29.4963 H   0  0  0  0  0  0  0  0  0  0  0  0
   -5.6286   25.4988  -31.4589 H   0  0  0  0  0  0  0  0  0  0  0  0
   -5.1421   26.9151  -30.4173 H   0  0  0  0  0  0  0  0  0  0  0  0
   -3.5160   24.8740  -31.2270 H   0  0  0  0  0  0  0  0  0  0  0  0
   -2.6342   24.7686  -28.7958 H   0  0  0  0  0  0  0  0  0  0  0  0
   -4.3997   24.7855  -28.4333 H   0  0  0  0  0  0  0  0  0  0  0  0
   -3.0428   22.5055  -28.8016 H   0  0  0  0  0  0  0  0  0  0  0  0
   -4.7651   22.7338  -29.3542 H   0  0  0  0  0  0  0  0  0  0  0  0
   -2.7668   20.8185  -30.6582 H   0  0  0  0  0  0  0  0  0  0  0  0
   -4.5349   21.1150  -30.9022 H   0  0  0  0  0  0  0  0  0  0  0  0
   -2.6604   22.0935  -32.9987 H   0  0  0  0  0  0  0  0  0  0  0  0
   -2.9358   20.3090  -32.8573 H   0  0  0  0  0  0  0  0  0  0  0  0
   -4.7210   22.1340  -34.1380 H   0  0  0  0  0  0  0  0  0  0  0  0
   -3.6886   19.3733  -34.0136 H   0  0  0  0  0  0  0  0  0  0  0  0
   -3.5124   16.9008  -34.4237 H   0  0  0  0  0  0  0  0  0  0  0  0
   -7.4981   16.4472  -32.8127 H   0  0  0  0  0  0  0  0  0  0  0  0
   -9.1068   18.1250  -30.8363 H   0  0  0  0  0  0  0  0  0  0  0  0
   -9.9400   18.6497  -32.3386 H   0  0  0  0  0  0  0  0  0  0  0  0
   -8.9460   17.1535  -32.3386 H   0  0  0  0  0  0  0  0  0  0  0  0
   -9.9355   20.1647  -31.2346 H   0  0  0  0  0  0  0  0  0  0  0  0
  -10.1282   22.5904  -30.7642 H   0  0  0  0  0  0  0  0  0  0  0  0
   -8.2171   24.0669  -31.3585 H   0  0  0  0  0  0  0  0  0  0  0  0
  1  2  1  0
  2  3  1  0
  3  4  1  0
  4  5  1  0
  5  6  1  0
  6  7  1  0
  7  8  1  0
  8  9  1  0
  9 10  1  0
 10 11  2  0
 11 12  1  0
 12 13  2  0
 13 14  1  0
 14 15  1  0
 14 16  2  0
 16 17  1  0
 17 18  2  0
 18 19  1  0
 18 20  1  0
 20 21  2  0
 21 22  1  0
 22 23  2  0
 23 24  1  0
 24 25  1  0
 24 26  2  0
 26 10  1  0
 17 11  1  0
 26 20  1  0
  1 27  1  0
  1 28  1  0
  1 29  1  0
  2 30  1  0
  2 31  1  0
  3 32  1  0
  4 33  1  0
  4 34  1  0
  5 35  1  0
  5 36  1  0
  7 37  1  0
  7 38  1  0
  8 39  1  0
  8 40  1  0
  9 41  1  0
 12 42  1  0
 13 43  1  0
 16 44  1  0
 19 45  1  0
 19 46  1  0
 19 47  1  0
 21 48  1  0
 22 49  1  0
 23 50  1  0
M  CHG  1  18   1
M  END
>  <smiles>  (8) 
CCNCCOCCNc1c2ccc(Cl)cc2[n+](C)c2cccc(Cl)c12

>  <score_type>  (8) 
oracle

>  <origin>  (8) 
adg

>  <m_score__min__energy>  (8) 
-9.6600000000000001

>  <m_primary>  (8) 
energy

$$$$
8:0
     RDKit          3D

 58 60  0  0  0  0  0  0  0  0999 V2000
   -6.3030   25.0890  -29.6750 C   0  0  0  0  0  0  0  0  0  0  0  0
   -5.3740   25.5160  -30.8000 C   0  0  0  0  0  0  0  0  0  0  0  0
   -4.2310   24.7620  -30.8480 O   0  0  0  0  0  0  0  0  0  0  0  0
   -4.3680   23.4130  -30.7320 C   0  0  0  0  0  0  0  0  0  0  0  0
   -3.6830   22.5570  -31.7370 C   0  0  0  0  0  0  0  0  0  0  0  0
   -4.4940   22.3350  -32.9440 N   0  0  0  0  0  0  0  0  0  0  0  0
   -5.3700   21.2190  -32.8850 C   0  0  0  0  0  0  0  0  0  0  0  0
   -6.6770   21.5180  -32.4790 C   0  0  0  0  0  0  0  0  0  0  0  0
   -7.0500   22.8240  -32.2500 C   0  0  0  0  0  0  0  0  0  0  0  0
   -8.3080   23.2160  -31.8550 C   0  0  0  0  0  0  0  0  0  0  0  0
   -9.2490   22.2320  -31.6800 C   0  0  0  0  0  0  0  0  0  0  0  0
   -8.8970   20.9110  -31.9070 C   0  0  0  0  0  0  0  0  0  0  0  0
   -7.6350   20.5510  -32.3000 C   0  0  0  0  0  0  0  0  0  0  0  0
   -7.3020   19.2700  -32.5240 N   0  0  0  0  0  0  0  0  0  0  0  0
   -8.2450   18.1840  -32.3710 C   0  0  0  0  0  0  0  0  0  0  0  0
   -6.0430   18.9420  -32.9210 C   0  0  0  0  0  0  0  0  0  0  0  0
   -5.7650   17.6250  -33.1270 C   0  0  0  0  0  0  0  0  0  0  0  0
   -4.5040   17.2540  -33.5260 C   0  0  0  0  0  0  0  0  0  0  0  0
   -3.5530   18.2300  -33.7070 C   0  0  0  0  0  0  0  0  0  0  0  0
   -3.7910   19.5860  -33.5100 C   0  0  0  0  0  0  0  0  0  0  0  0
   -2.7450   20.4840  -33.7930 N   0  0  0  0  0  0  0  0  0  0  0  0
   -1.5590   20.4630  -32.9030 C   0  0  0  0  0  0  0  0  0  0  0  0
   -0.5320   21.3500  -33.5420 C   0  0  0  0  0  0  0  0  0  0  0  0
   -0.5010   21.2130  -34.9650 N   0  0  0  0  0  0  0  0  0  0  0  0
    0.0520   19.8880  -35.2740 C   0  0  0  0  0  0  0  0  0  0  0  0
    0.3010   22.1630  -35.6650 C   0  0  0  0  0  0  0  0  0  0  0  0
   -5.0580   19.9230  -33.1090 C   0  0  0  0  0  0  0  0  0  0  0  0
   -5.8297   25.3065  -28.7061 H   0  0  0  0  0  0  0  0  0  0  0  0
   -7.2508   25.6418  -29.7524 H   0  0  0  0  0  0  0  0  0  0  0  0
   -6.5007   24.0097  -29.7524 H   0  0  0  0  0  0  0  0  0  0  0  0
   -5.9066   25.4115  -31.7568 H   0  0  0  0  0  0  0  0  0  0  0  0
   -5.0799   26.5596  -30.6143 H   0  0  0  0  0  0  0  0  0  0  0  0
   -3.9831   23.1282  -29.7417 H   0  0  0  0  0  0  0  0  0  0  0  0
   -5.4400   23.2285  -30.8959 H   0  0  0  0  0  0  0  0  0  0  0  0
   -2.7417   23.0445  -32.0308 H   0  0  0  0  0  0  0  0  0  0  0  0
   -3.5065   21.5761  -31.2715 H   0  0  0  0  0  0  0  0  0  0  0  0
   -4.4430   22.9890  -33.7730 H   0  0  0  0  0  0  0  0  0  0  0  0
   -6.2903   23.6067  -32.3927 H   0  0  0  0  0  0  0  0  0  0  0  0
   -8.5502   24.2756  -31.6861 H   0  0  0  0  0  0  0  0  0  0  0  0
  -10.2706   22.4891  -31.3633 H   0  0  0  0  0  0  0  0  0  0  0  0
   -9.6552   20.1264  -31.7671 H   0  0  0  0  0  0  0  0  0  0  0  0
   -8.4121   17.9915  -31.3009 H   0  0  0  0  0  0  0  0  0  0  0  0
   -9.1982   18.4561  -32.8478 H   0  0  0  0  0  0  0  0  0  0  0  0
   -7.8419   17.2784  -32.8478 H   0  0  0  0  0  0  0  0  0  0  0  0
   -6.5444   16.8638  -32.9750 H   0  0  0  0  0  0  0  0  0  0  0  0
   -4.2597   16.1953  -33.6975 H   0  0  0  0  0  0  0  0  0  0  0  0
   -2.5466   17.9209  -34.0258 H   0  0  0  0  0  0  0  0  0  0  0  0
   -2.6340   21.1580  -34.5490 H   0  0  0  0  0  0  0  0  0  0  0  0
   -1.8247   20.8457  -31.9065 H   0  0  0  0  0  0  0  0  0  0  0  0
   -1.1763   19.4398  -32.7739 H   0  0  0  0  0  0  0  0  0  0  0  0
   -0.7648   22.3959  -33.2931 H   0  0  0  0  0  0  0  0  0  0  0  0
    0.4541   21.0528  -33.1555 H   0  0  0  0  0  0  0  0  0  0  0  0
    0.2741   19.3558  -34.3373 H   0  0  0  0  0  0  0  0  0  0  0  0
   -0.6808   19.3119  -35.8581 H   0  0  0  0  0  0  0  0  0  0  0  0
    0.9769   20.0038  -35.8581 H   0  0  0  0  0  0  0  0  0  0  0  0
    0.8353   22.7959  -34.9412 H   0  0  0  0  0  0  0  0  0  0  0  0
    1.0293   21.6334  -36.2967 H   0  0  0  0  0  0  0  0  0  0  0  0
   -0.3433   22.7921  -36.2967 H   0  0  0  0  0  0  0  0  0  0  0  0
  1  2  1  0
  2  3  1  0
  3  4  1  0
  4  5  1  0
  5  6  1  0
  6  7  1  0
  7  8  2  0
  8  9  1  0
  9 10  2  0
 10 11  1  0
 11 12  2  0
 12 13  1  0
 13 14  2  0
 14 15  1  0
 14 16  1  0
 16 17  2  0
 17 18  1  0
 18 19  2  0
 19 20  1  0
 20 21  1  0
 21 22  1  0
 22 23  1  0
 23 24  1  0
 24 25  1  0
 24 26  1  0
 20 27  2  0
 27  7  1  0
 13  8  1  0
 27 16  1  0
  1 28  1  0
  1 29  1  0
  1 30  1  0
  2 31  1  0
  2 32  1  0
  4 33  1  0
  4 34  1  0
  5 35  1  0
  5 36  1  0
  6 37  1  0
  9 38  1  0
 10 39  1  0
 11 40  1  0
 12 41  1  0
 15 42  1  0
 15 43  1  0
 15 44  1  0
 17 45  1  0
 18 46  1  0
 19 47  1  0
 21 48  1  0
 22 49  1  0
 22 50  1  0
 23 51  1  0
 23 52  1  0
 25 53  1  0
 25 54  1  0
 25 55  1  0
 26 56  1  0
 26 57  1  0
 26 58  1  0
M  CHG  1  14   1
M  END
>  <smiles>  (9) 
CCOCCNc1c2ccccc2[n+](C)c2cccc(NCCN(C)C)c12

>  <score_type>  (9) 
oracle

>  <origin>  (9) 
adg

>  <m_score__min__energy>  (9) 
-9.0399999999999991

>  <m_primary>  (9) 
energy

$$$$
9:0
     RDKit          3D

 51 54  0  0  0  0  0  0  0  0999 V2000
   -1.8290   21.7360  -29.8880 C   0  0  0  0  0  0  0  0  0  0  0  0
   -1.4020   23.0140  -29.3980 N   0  0  0  0  0  0  0  0  0  0  0  0
   -0.1190   23.2230  -28.9680 C   0  0  0  0  0  0  0  0  0  0  0  0
    0.0100   24.4820  -28.5440 N   0  0  0  0  0  0  0  0  0  0  0  0
   -1.1880   25.0550  -28.7080 C   0  0  0  0  0  0  0  0  0  0  0  0
   -2.0970   24.1290  -29.2530 C   0  0  0  0  0  0  0  0  0  0  0  0
   -3.4860   24.5390  -29.5490 C   0  0  0  0  0  0  0  0  0  0  0  0
   -3.9340   24.0020  -30.8220 N   0  0  0  0  0  0  0  0  0  0  0  0
   -5.1430   23.3290  -31.0710 C   0  0  0  0  0  0  0  0  0  0  0  0
   -6.2910   23.8790  -30.4880 C   0  0  0  0  0  0  0  0  0  0  0  0
   -7.5420   23.3380  -30.6540 C   0  0  0  0  0  0  0  0  0  0  0  0
   -7.6440   22.2120  -31.4280 C   0  0  0  0  0  0  0  0  0  0  0  0
   -8.9190   21.6870  -31.5900 C   0  0  0  0  0  0  0  0  0  0  0  0
   -9.1000   20.5600  -32.3650 C   0  0  0  0  0  0  0  0  0  0  0  0
   -7.9690   20.0200  -32.9390 C   0  0  0  0  0  0  0  0  0  0  0  0
   -6.7620   20.5520  -32.7610 N   0  0  0  0  0  0  0  0  0  0  0  0
   -6.5280   21.6360  -32.0260 C   0  0  0  0  0  0  0  0  0  0  0  0
   -5.2460   22.1770  -31.8650 C   0  0  0  0  0  0  0  0  0  0  0  0
   -4.0850   21.6090  -32.5260 C   0  0  0  0  0  0  0  0  0  0  0  0
   -2.9770   22.2150  -32.6420 O   0  0  0  0  0  0  0  0  0  0  0  0
   -4.0620   20.3010  -33.1150 N   0  0  0  0  0  0  0  0  0  0  0  0
   -2.8680   19.7950  -33.7710 C   0  0  0  0  0  0  0  0  0  0  0  0
   -2.9230   18.3360  -34.0970 C   0  0  0  0  0  0  0  0  0  0  0  0
   -4.2860   17.7650  -33.8210 C   0  0  0  0  0  0  0  0  0  0  0  0
   -5.1490   17.4290  -34.8570 C   0  0  0  0  0  0  0  0  0  0  0  0
   -6.4130   16.9000  -34.5810 C   0  0  0  0  0  0  0  0  0  0  0  0
   -6.7600   16.7290  -33.2440 C   0  0  0  0  0  0  0  0  0  0  0  0
   -5.8830   17.0720  -32.2190 C   0  0  0  0  0  0  0  0  0  0  0  0
   -4.6620   17.5840  -32.5300 N   0  0  0  0  0  0  0  0  0  0  0  0
   -2.0505   21.0730  -29.0387 H   0  0  0  0  0  0  0  0  0  0  0  0
   -2.7339   21.8619  -30.5006 H   0  0  0  0  0  0  0  0  0  0  0  0
   -1.0302   21.2926  -30.5006 H   0  0  0  0  0  0  0  0  0  0  0  0
    0.6822   22.4693  -28.9714 H   0  0  0  0  0  0  0  0  0  0  0  0
   -1.4276   26.0981  -28.4538 H   0  0  0  0  0  0  0  0  0  0  0  0
   -4.1468   24.1688  -28.7513 H   0  0  0  0  0  0  0  0  0  0  0  0
   -3.5201   25.6371  -29.6037 H   0  0  0  0  0  0  0  0  0  0  0  0
   -3.2080   24.1700  -31.5910 H   0  0  0  0  0  0  0  0  0  0  0  0
   -6.1862   24.7833  -29.8705 H   0  0  0  0  0  0  0  0  0  0  0  0
   -8.4275   23.7908  -30.1841 H   0  0  0  0  0  0  0  0  0  0  0  0
   -9.7805   22.1671  -31.1029 H   0  0  0  0  0  0  0  0  0  0  0  0
  -10.0947   20.1156  -32.5169 H   0  0  0  0  0  0  0  0  0  0  0  0
   -8.0672   19.1204  -33.5643 H   0  0  0  0  0  0  0  0  0  0  0  0
   -4.8680   19.6510  -33.0940 H   0  0  0  0  0  0  0  0  0  0  0  0
   -2.7255   20.3534  -34.7080 H   0  0  0  0  0  0  0  0  0  0  0  0
   -2.0357   19.9315  -33.0649 H   0  0  0  0  0  0  0  0  0  0  0  0
   -2.6857   18.1978  -35.1622 H   0  0  0  0  0  0  0  0  0  0  0  0
   -2.1923   17.8113  -33.4639 H   0  0  0  0  0  0  0  0  0  0  0  0
   -4.8356   17.5802  -35.9005 H   0  0  0  0  0  0  0  0  0  0  0  0
   -7.1073   16.6290  -35.3900 H   0  0  0  0  0  0  0  0  0  0  0  0
   -7.7473   16.3144  -32.9923 H   0  0  0  0  0  0  0  0  0  0  0  0
   -6.1746   16.9304  -31.1678 H   0  0  0  0  0  0  0  0  0  0  0  0
  1  2  1  0
  2  3  1  0
  3  4  2  0
  4  5  1  0
  5  6  2  0
  6  7  1  0
  7  8  1  0
  8  9  1  0
  9 10  2  0
 10 11  1  0
 11 12  2  0
 12 13  1  0
 13 14  2  0
 14 15  1  0
 15 16  2  0
 16 17  1  0
 17 18  2  0
 18 19  1  0
 19 20  2  0
 19 21  1  0
 21 22  1  0
 22 23  1  0
 23 24  1  0
 24 25  2  0
 25 26  1  0
 26 27  2  0
 27 28  1  0
 28 29  2  0
  6  2  1  0
 18  9  1  0
 29 24  1  0
 17 12  1  0
  1 30  1  0
  1 31  1  0
  1 32  1  0
  3 33  1  0
  5 34  1  0
  7 35  1  0
  7 36  1  0
  8 37  1  0
 10 38  1  0
 11 39  1  0
 13 40  1  0
 14 41  1  0
 15 42  1  0
 21 43  1  0
 22 44  1  0
 22 45  1  0
 23 46  1  0
 23 47  1  0
 25 48  1  0
 26 49  1  0
 27 50  1  0
 28 51  1  0
M  END
>  <smiles>  (10) 
Cn1cncc1CNc1ccc2cccnc2c1C(=O)NCCc1ccccn1

>  <score_type>  (10) 
oracle

>  <origin>  (10) 
adg

>  <m_score__min__energy>  (10) 
-8.3499999999999996

>  <m_primary>  (10) 
energy

$$$$
11:0
     RDKit          3D

 84 86  0  0  1  0  0  0  0  0999 V2000
   -1.1260   26.3040  -26.7140 C   0  0  0  0  0  0  0  0  0  0  0  0
   -0.9130   26.3220  -28.2430 C   0  0  0  0  0  0  0  0  0  0  0  0
   -1.9270   25.6850  -28.8900 O   0  0  0  0  0  0  0  0  0  0  0  0
   -2.5590   24.6680  -28.2630 C   0  0  0  0  0  0  0  0  0  0  0  0
   -2.0150   23.3260  -28.2850 C   0  0  0  0  0  0  0  0  0  0  0  0
   -0.8940   23.1410  -27.6820 O   0  0  0  0  0  0  0  0  0  0  0  0
   -2.5640   22.1730  -28.8880 N   0  0  0  0  0  0  0  0  0  0  0  0
   -1.8250   20.9630  -28.7730 C   0  0  0  0  0  0  0  0  0  0  0  0
   -1.8510   20.3710  -27.5020 C   0  0  0  0  0  0  0  0  0  0  0  0
   -1.1870   19.1910  -27.2500 C   0  0  0  0  0  0  0  0  0  0  0  0
   -0.4990   18.6210  -28.2930 C   0  0  0  0  0  0  0  0  0  0  0  0
   -0.4750   19.1940  -29.5180 C   0  0  0  0  0  0  0  0  0  0  0  0
   -1.1380   20.4000  -29.8240 C   0  0  0  0  0  0  0  0  0  0  0  0
   -1.0290   20.8550  -31.0760 O   0  0  0  0  0  0  0  0  0  0  0  0
   -1.5970   21.8450  -31.8230 C   0  0  2  0  0  0  0  0  0  0  0  0
   -2.8960   22.1470  -31.4700 O   0  0  0  0  0  0  0  0  0  0  0  0
   -3.8830   21.3200  -31.8580 C   0  0  1  0  0  0  0  0  0  0  0  0
   -5.1150   22.2540  -32.1500 C   0  0  0  0  0  0  0  0  0  0  0  0
   -6.2490   21.5400  -32.1280 O   0  0  0  0  0  0  0  0  0  0  0  0
   -7.2560   21.7730  -31.3270 C   0  0  0  0  0  0  0  0  0  0  0  0
   -7.2720   22.7330  -30.2030 C   0  0  0  0  0  0  0  0  0  0  0  0
   -7.2280   24.1780  -30.5260 C   0  0  0  0  0  0  0  0  0  0  0  0
   -6.0720   24.8850  -29.8330 C   0  0  0  0  0  0  0  0  0  0  0  0
   -5.1430   25.5390  -30.7910 C   0  0  0  0  0  0  0  0  0  0  0  0
   -3.8140   24.9210  -30.7510 N   0  0  0  0  0  0  0  0  0  0  0  0
   -3.7170   20.4880  -33.0690 C   0  0  2  0  0  0  0  0  0  0  0  0
   -4.2290   19.2030  -32.7850 O   0  0  0  0  0  0  0  0  0  0  0  0
   -4.8660   18.6170  -33.8520 C   0  0  0  0  0  0  0  0  0  0  0  0
   -6.2000   19.3650  -33.9870 C   0  0  0  0  0  0  0  0  0  0  0  0
   -7.1710   18.6340  -33.0900 C   0  0  0  0  0  0  0  0  0  0  0  0
   -6.3720   17.4920  -32.4740 C   0  0  0  0  0  0  0  0  0  0  0  0
   -5.3740   17.2190  -33.5940 C   0  0  0  0  0  0  0  0  0  0  0  0
   -2.2750   20.2400  -33.4820 C   0  0  2  0  0  0  0  0  0  0  0  0
   -1.7760   19.2780  -32.6090 O   0  0  0  0  0  0  0  0  0  0  0  0
   -1.3700   18.1140  -33.2090 C   0  0  0  0  0  0  0  0  0  0  0  0
   -1.5550   21.5630  -33.3320 C   0  0  2  0  0  0  0  0  0  0  0  0
   -0.2670   21.5620  -33.8050 O   0  0  0  0  0  0  0  0  0  0  0  0
   -0.1610   20.8620  -35.0270 C   0  0  0  0  0  0  0  0  0  0  0  0
   -0.1531   26.3862  -26.2073 H   0  0  0  0  0  0  0  0  0  0  0  0
   -1.7639   27.1514  -26.4227 H   0  0  0  0  0  0  0  0  0  0  0  0
   -1.6127   25.3615  -26.4227 H   0  0  0  0  0  0  0  0  0  0  0  0
   -0.8684   27.3660  -28.5865 H   0  0  0  0  0  0  0  0  0  0  0  0
    0.0273   25.7980  -28.4693 H   0  0  0  0  0  0  0  0  0  0  0  0
   -2.6403   24.9554  -27.2043 H   0  0  0  0  0  0  0  0  0  0  0  0
   -3.4862   24.5631  -28.8455 H   0  0  0  0  0  0  0  0  0  0  0  0
   -3.4680   22.1600  -29.3860 H   0  0  0  0  0  0  0  0  0  0  0  0
   -2.4123   20.8582  -26.6911 H   0  0  0  0  0  0  0  0  0  0  0  0
   -1.2069   18.7242  -26.2541 H   0  0  0  0  0  0  0  0  0  0  0  0
    0.0440   17.6786  -28.1287 H   0  0  0  0  0  0  0  0  0  0  0  0
    0.0912   18.6930  -30.3170 H   0  0  0  0  0  0  0  0  0  0  0  0
   -0.9675   22.7181  -31.5965 H   0  0  0  0  0  0  0  0  0  0  0  0
   -3.9549   20.5848  -31.0429 H   0  0  0  0  0  0  0  0  0  0  0  0
   -5.1653   23.0406  -31.3827 H   0  0  0  0  0  0  0  0  0  0  0  0
   -4.9947   22.7086  -33.1444 H   0  0  0  0  0  0  0  0  0  0  0  0
   -8.0801   22.0864  -31.9847 H   0  0  0  0  0  0  0  0  0  0  0  0
   -7.2686   20.8278  -30.7644 H   0  0  0  0  0  0  0  0  0  0  0  0
   -8.1943   22.5529  -29.6313 H   0  0  0  0  0  0  0  0  0  0  0  0
   -6.3328   22.5419  -29.6632 H   0  0  0  0  0  0  0  0  0  0  0  0
   -7.1143   24.2949  -31.6138 H   0  0  0  0  0  0  0  0  0  0  0  0
   -8.1646   24.6329  -30.1713 H   0  0  0  0  0  0  0  0  0  0  0  0
   -6.4816   25.6527  -29.1601 H   0  0  0  0  0  0  0  0  0  0  0  0
   -5.4997   24.1244  -29.2817 H   0  0  0  0  0  0  0  0  0  0  0  0
   -5.5517   25.4442  -31.8078 H   0  0  0  0  0  0  0  0  0  0  0  0
   -5.0422   26.5975  -30.5090 H   0  0  0  0  0  0  0  0  0  0  0  0
   -3.6890   24.2240  -31.5340 H   0  0  0  0  0  0  0  0  0  0  0  0
   -3.1120   25.6720  -30.7930 H   0  0  0  0  0  0  0  0  0  0  0  0
   -4.2266   21.0372  -33.8744 H   0  0  0  0  0  0  0  0  0  0  0  0
   -4.1474   18.6290  -34.6848 H   0  0  0  0  0  0  0  0  0  0  0  0
   -6.0887   20.4097  -33.6610 H   0  0  0  0  0  0  0  0  0  0  0  0
   -6.5490   19.3878  -35.0299 H   0  0  0  0  0  0  0  0  0  0  0  0
   -7.5503   19.3053  -32.3055 H   0  0  0  0  0  0  0  0  0  0  0  0
   -8.0458   18.2673  -33.6470 H   0  0  0  0  0  0  0  0  0  0  0  0
   -5.8678   17.8024  -31.5469 H   0  0  0  0  0  0  0  0  0  0  0  0
   -6.9729   16.6216  -32.1718 H   0  0  0  0  0  0  0  0  0  0  0  0
   -4.5673   16.5474  -33.2651 H   0  0  0  0  0  0  0  0  0  0  0  0
   -5.7980   16.7142  -34.4746 H   0  0  0  0  0  0  0  0  0  0  0  0
   -2.1567   19.8819  -34.5153 H   0  0  0  0  0  0  0  0  0  0  0  0
   -1.1119   17.3742  -32.4370 H   0  0  0  0  0  0  0  0  0  0  0  0
   -2.1842   17.7212  -33.8357 H   0  0  0  0  0  0  0  0  0  0  0  0
   -0.4881   18.3128  -33.8357 H   0  0  0  0  0  0  0  0  0  0  0  0
   -2.0447   22.3398  -33.9376 H   0  0  0  0  0  0  0  0  0  0  0  0
    0.0009   19.7930  -34.8244 H   0  0  0  0  0  0  0  0  0  0  0  0
   -1.0887   20.9894  -35.6042 H   0  0  0  0  0  0  0  0  0  0  0  0
    0.6874   21.2584  -35.6042 H   0  0  0  0  0  0  0  0  0  0  0  0
  1  2  1  0
  2  3  1  0
  3  4  1  0
  4  5  1  0
  5  6  2  0
  5  7  1  0
  7  8  1  0
  8  9  2  0
  9 10  1  0
 10 11  2  0
 11 12  1  0
 12 13  2  0
 13 14  1  0
 14 15  1  0
 15 16  1  0
 16 17  1  0
 17 18  1  0
 18 19  1  0
 19 20  1  0
 20 21  1  0
 21 22  1  0
 22 23  1  0
 23 24  1  0
 24 25  1  0
 17 26  1  0
 26 27  1  0
 27 28  1  0
 28 29  1  0
 29 30  1  0
 30 31  1  0
 31 32  1  0
 26 33  1  0
 33 34  1  0
 34 35  1  0
 33 36  1  0
 36 37  1  0
 37 38  1  0
 13  8  1  0
 36 15  1  0
 32 28  1  0
  1 39  1  0
  1 40  1  0
  1 41  1  0
  2 42  1  0
  2 43  1  0
  4 44  1  0
  4 45  1  0
  7 46  1  0
  9 47  1  0
 10 48  1  0
 11 49  1  0
 12 50  1  0
 15 51  1  6
 17 52  1  1
 18 53  1  0
 18 54  1  0
 20 55  1  0
 20 56  1  0
 21 57  1  0
 21 58  1  0
 22 59  1  0
 22 60  1  0
 23 61  1  0
 23 62  1  0
 24 63  1  0
 24 64  1  0
 25 65  1  0
 25 66  1  0
 26 67  1  6
 28 68  1  0
 29 69  1  0
 29 70  1  0
 30 71  1  0
 30 72  1  0
 31 73  1  0
 31 74  1  0
 32 75  1  0
 32 76  1  0
 33 77  1  6
 35 78  1  0
 35 79  1  0
 35 80  1  0
 36 81  1  6
 38 82  1  0
 38 83  1  0
 38 84  1  0
M  END
>  <smiles>  (11) 
CCOCC(=O)Nc1ccccc1OC1OC(COCCCCCN)C(OC2CCCC2)C(OC)C1OC

>  <score_type>  (11) 
oracle

>  <origin>  (11) 
adg

>  <m_score__min__energy>  (11) 
-8.9299999999999997

>  <m_primary>  (11) 
energy

$$$$
12:0
     RDKit          3D

 55 57  0  0  0  0  0  0  0  0999 V2000
   -6.1070   25.4340  -29.7070 C   0  0  0  0  0  0  0  0  0  0  0  0
   -4.7740   24.8760  -30.1420 C   0  0  0  0  0  0  0  0  0  0  0  0
   -4.9320   23.8920  -31.1900 N   0  0  0  0  0  0  0  0  0  0  0  0
   -6.2150   24.0320  -31.7960 C   0  0  0  0  0  0  0  0  0  0  0  0
   -6.9560   22.7670  -32.0700 C   0  0  0  0  0  0  0  0  0  0  0  0
   -8.2340   22.6260  -31.2360 C   0  0  0  0  0  0  0  0  0  0  0  0
   -9.2950   21.4160  -32.0310 S   0  0  0  0  0  0  0  0  0  0  0  0
   -8.4830   19.8180  -31.8650 C   0  0  0  0  0  0  0  0  0  0  0  0
   -8.7220   18.8260  -31.0190 N   0  0  0  0  0  0  0  0  0  0  0  0
   -7.8460   17.8470  -31.2900 N   0  0  0  0  0  0  0  0  0  0  0  0
   -7.0420   18.1930  -32.3050 C   0  0  0  0  0  0  0  0  0  0  0  0
   -5.9550   17.4610  -32.9400 C   0  0  0  0  0  0  0  0  0  0  0  0
   -6.1900   16.2640  -33.5780 C   0  0  0  0  0  0  0  0  0  0  0  0
   -5.1640   15.5530  -34.1890 C   0  0  0  0  0  0  0  0  0  0  0  0
   -3.8960   16.1100  -34.1230 C   0  0  0  0  0  0  0  0  0  0  0  0
   -3.6220   17.2920  -33.5020 C   0  0  0  0  0  0  0  0  0  0  0  0
   -2.3450   17.7660  -33.4850 F   0  0  0  0  0  0  0  0  0  0  0  0
   -4.6620   17.9910  -32.8930 C   0  0  0  0  0  0  0  0  0  0  0  0
   -7.4600   19.4440  -32.6560 N   0  0  0  0  0  0  0  0  0  0  0  0
   -6.8670   20.2440  -33.7390 C   0  0  0  0  0  0  0  0  0  0  0  0
   -4.5820   22.5510  -30.8020 C   0  0  0  0  0  0  0  0  0  0  0  0
   -3.5830   21.9170  -31.6940 C   0  0  0  0  0  0  0  0  0  0  0  0
   -3.8380   21.3880  -32.9220 C   0  0  0  0  0  0  0  0  0  0  0  0
   -2.7900   20.8190  -33.6550 C   0  0  0  0  0  0  0  0  0  0  0  0
   -1.5120   20.7890  -33.1520 C   0  0  0  0  0  0  0  0  0  0  0  0
   -0.3570   20.1990  -33.8830 C   0  0  0  0  0  0  0  0  0  0  0  0
   -1.2370   21.3230  -31.9020 C   0  0  0  0  0  0  0  0  0  0  0  0
   -2.2730   21.8740  -31.2020 C   0  0  0  0  0  0  0  0  0  0  0  0
   -6.1551   25.4541  -28.6082 H   0  0  0  0  0  0  0  0  0  0  0  0
   -6.2219   26.4558  -30.0978 H   0  0  0  0  0  0  0  0  0  0  0  0
   -6.9156   24.7988  -30.0978 H   0  0  0  0  0  0  0  0  0  0  0  0
   -4.1459   25.6985  -30.5147 H   0  0  0  0  0  0  0  0  0  0  0  0
   -4.3032   24.3878  -29.2760 H   0  0  0  0  0  0  0  0  0  0  0  0
   -6.8362   24.6468  -31.1281 H   0  0  0  0  0  0  0  0  0  0  0  0
   -6.0271   24.4822  -32.7819 H   0  0  0  0  0  0  0  0  0  0  0  0
   -7.2290   22.7450  -33.1354 H   0  0  0  0  0  0  0  0  0  0  0  0
   -6.2928   21.9328  -31.7974 H   0  0  0  0  0  0  0  0  0  0  0  0
   -7.9801   22.2879  -30.2205 H   0  0  0  0  0  0  0  0  0  0  0  0
   -8.7500   23.5950  -31.1664 H   0  0  0  0  0  0  0  0  0  0  0  0
   -7.2132   15.8611  -33.6048 H   0  0  0  0  0  0  0  0  0  0  0  0
   -5.3487   14.5962  -34.6994 H   0  0  0  0  0  0  0  0  0  0  0  0
   -3.0651   15.5679  -34.5981 H   0  0  0  0  0  0  0  0  0  0  0  0
   -4.4687   18.9460  -32.3826 H   0  0  0  0  0  0  0  0  0  0  0  0
   -6.2646   21.0567  -33.3069 H   0  0  0  0  0  0  0  0  0  0  0  0
   -6.2250   19.6019  -34.3599 H   0  0  0  0  0  0  0  0  0  0  0  0
   -7.6680   20.6716  -34.3599 H   0  0  0  0  0  0  0  0  0  0  0  0
   -4.1691   22.5804  -29.7828 H   0  0  0  0  0  0  0  0  0  0  0  0
   -5.4994   21.9473  -30.8645 H   0  0  0  0  0  0  0  0  0  0  0  0
   -4.8576   21.4075  -33.3343 H   0  0  0  0  0  0  0  0  0  0  0  0
   -2.9925   20.3900  -34.6474 H   0  0  0  0  0  0  0  0  0  0  0  0
    0.3809   19.8220  -33.1596 H   0  0  0  0  0  0  0  0  0  0  0  0
   -0.7078   19.3697  -34.5148 H   0  0  0  0  0  0  0  0  0  0  0  0
    0.1093   20.9693  -34.5148 H   0  0  0  0  0  0  0  0  0  0  0  0
   -0.2182   21.3036  -31.4877 H   0  0  0  0  0  0  0  0  0  0  0  0
   -2.0691   22.3021  -30.2095 H   0  0  0  0  0  0  0  0  0  0  0  0
  1  2  1  0
  2  3  1  0
  3  4  1  0
  4  5  1  0
  5  6  1  0
  6  7  1  0
  7  8  1  0
  8  9  2  0
  9 10  1  0
 10 11  2  0
 11 12  1  0
 12 13  2  0
 13 14  1  0
 14 15  2  0
 15 16  1  0
 16 17  1  0
 16 18  2  0
 11 19  1  0
 19 20  1  0
  3 21  1  0
 21 22  1  0
 22 23  2  0
 23 24  1  0
 24 25  2  0
 25 26  1  0
 25 27  1  0
 27 28  2  0
 19  8  1  0
 28 22  1  0
 18 12  1  0
  1 29  1  0
  1 30  1  0
  1 31  1  0
  2 32  1  0
  2 33  1  0
  4 34  1  0
  4 35  1  0
  5 36  1  0
  5 37  1  0
  6 38  1  0
  6 39  1  0
 13 40  1  0
 14 41  1  0
 15 42  1  0
 18 43  1  0
 20 44  1  0
 20 45  1  0
 20 46  1  0
 21 47  1  0
 21 48  1  0
 23 49  1  0
 24 50  1  0
 26 51  1  0
 26 52  1  0
 26 53  1  0
 27 54  1  0
 28 55  1  0
M  END
>  <smiles>  (12) 
CCN(CCCSc1nnc(-c2cccc(F)c2)n1C)Cc1ccc(C)cc1

>  <score_type>  (12) 
oracle

>  <origin>  (12) 
adg

>  <m_score__min__energy>  (12) 
-8.9299999999999997

>  <m_primary>  (12) 
energy

$$$$
14:0
     RDKit          3D

 26 28  0  0  0  0  0  0  0  0999 V2000
   -5.6150   25.6790  -30.1280 C   0  0  0  0  0  0  0  0  0  0  0  0
   -4.6720   24.9060  -30.8430 O   0  0  0  0  0  0  0  0  0  0  0  0
   -5.0080   23.6330  -31.2560 C   0  0  0  0  0  0  0  0  0  0  0  0
   -4.1330   22.6970  -31.7170 C   0  0  0  0  0  0  0  0  0  0  0  0
   -4.4890   21.4400  -32.1200 C   0  0  0  0  0  0  0  0  0  0  0  0
   -5.8450   21.0160  -32.0830 C   0  0  0  0  0  0  0  0  0  0  0  0
   -6.6920   21.9880  -31.6120 C   0  0  0  0  0  0  0  0  0  0  0  0
   -6.3510   23.2360  -31.2090 C   0  0  0  0  0  0  0  0  0  0  0  0
   -8.3220   21.2420  -31.6510 S   0  0  0  0  0  0  0  0  0  0  0  0
   -7.6490   19.6540  -32.3200 C   0  0  0  0  0  0  0  0  0  0  0  0
   -8.0570   18.3950  -32.7160 C   0  0  0  0  0  0  0  0  0  0  0  0
   -6.9140   17.7950  -33.0940 N   0  0  0  0  0  0  0  0  0  0  0  0
   -6.8460   16.4370  -33.5930 C   0  0  0  0  0  0  0  0  0  0  0  0
   -5.8920   18.6440  -32.9310 C   0  0  0  0  0  0  0  0  0  0  0  0
   -6.3410   19.8510  -32.4330 N   0  0  0  0  0  0  0  0  0  0  0  0
   -5.4539   25.5469  -29.0479 H   0  0  0  0  0  0  0  0  0  0  0  0
   -5.4931   26.7404  -30.3898 H   0  0  0  0  0  0  0  0  0  0  0  0
   -6.6319   25.3512  -30.3898 H   0  0  0  0  0  0  0  0  0  0  0  0
   -3.0688   22.9705  -31.7686 H   0  0  0  0  0  0  0  0  0  0  0  0
   -3.7142   20.7463  -32.4783 H   0  0  0  0  0  0  0  0  0  0  0  0
   -7.1224   23.9320  -30.8478 H   0  0  0  0  0  0  0  0  0  0  0  0
   -9.0761   17.9809  -32.7210 H   0  0  0  0  0  0  0  0  0  0  0  0
   -6.8109   15.7364  -32.7457 H   0  0  0  0  0  0  0  0  0  0  0  0
   -7.7347   16.2267  -34.2061 H   0  0  0  0  0  0  0  0  0  0  0  0
   -5.9407   16.3166  -34.2061 H   0  0  0  0  0  0  0  0  0  0  0  0
   -4.8416   18.4125  -33.1615 H   0  0  0  0  0  0  0  0  0  0  0  0
  1  2  1  0
  2  3  1  0
  3  4  2  0
  4  5  1  0
  5  6  2  0
  6  7  1  0
  7  8  2  0
  7  9  1  0
  9 10  1  0
 10 11  2  0
 11 12  1  0
 12 13  1  0
 12 14  1  0
 14 15  2  0
  8  3  1  0
 15 10  1  0
 15  6  1  0
  1 16  1  0
  1 17  1  0
  1 18  1  0
  4 19  1  0
  5 20  1  0
  8 21  1  0
 11 22  1  0
 13 23  1  0
 13 24  1  0
 13 25  1  0
 14 26  1  0
M  CHG  1  15   1
M  END
>  <smiles>  (13) 
COc1ccc2c(c1)sc1cn(C)c[n+]12

>  <score_type>  (13) 
oracle

>  <origin>  (13) 
adg

>  <m_score__min__energy>  (13) 
-5.9400000000000004

>  <m_primary>  (13) 
energy

$$$$
15:0
     RDKit          3D

 61 63  0  0  0  0  0  0  0  0999 V2000
   -2.1540   21.1550  -29.2570 C   0  0  0  0  0  0  0  0  0  0  0  0
   -1.3630   21.6380  -30.4620 C   0  0  0  0  0  0  0  0  0  0  0  0
   -2.2870   22.1670  -31.3950 N   0  0  0  0  0  0  0  0  0  0  0  0
   -2.1110   21.7310  -32.7760 C   0  0  0  0  0  0  0  0  0  0  0  0
   -3.2720   20.8560  -33.0960 C   0  0  0  0  0  0  0  0  0  0  0  0
   -4.1150   20.5010  -31.9380 N   0  0  0  0  0  0  0  0  0  0  0  0
   -5.4890   20.2040  -32.0620 C   0  0  0  0  0  0  0  0  0  0  0  0
   -5.7690   18.8870  -32.4670 C   0  0  0  0  0  0  0  0  0  0  0  0
   -4.7250   17.9720  -32.6480 C   0  0  0  0  0  0  0  0  0  0  0  0
   -4.9070   16.6810  -33.0260 C   0  0  0  0  0  0  0  0  0  0  0  0
   -6.1900   16.2410  -33.2450 C   0  0  0  0  0  0  0  0  0  0  0  0
   -7.2470   17.1460  -33.0660 C   0  0  0  0  0  0  0  0  0  0  0  0
   -7.0510   18.4440  -32.6850 C   0  0  0  0  0  0  0  0  0  0  0  0
   -8.0870   19.2780  -32.5100 N   0  0  0  0  0  0  0  0  0  0  0  0
   -9.4470   18.9110  -32.7210 C   0  0  0  0  0  0  0  0  0  0  0  0
   -7.8440   20.5630  -32.1120 C   0  0  0  0  0  0  0  0  0  0  0  0
   -8.9370   21.3820  -31.9100 C   0  0  0  0  0  0  0  0  0  0  0  0
   -8.7570   22.6730  -31.4760 C   0  0  0  0  0  0  0  0  0  0  0  0
   -7.4690   23.0950  -31.2570 C   0  0  0  0  0  0  0  0  0  0  0  0
   -6.3420   22.3100  -31.4460 C   0  0  0  0  0  0  0  0  0  0  0  0
   -5.1020   22.8670  -31.0860 N   0  0  0  0  0  0  0  0  0  0  0  0
   -4.9170   23.2530  -29.6650 C   0  0  0  0  0  0  0  0  0  0  0  0
   -3.8310   24.2520  -29.5060 C   0  0  0  0  0  0  0  0  0  0  0  0
   -3.4840   24.9100  -30.4740 O   0  0  0  0  0  0  0  0  0  0  0  0
   -3.2230   24.3920  -28.1570 C   0  0  0  0  0  0  0  0  0  0  0  0
   -1.9780   25.1250  -28.2010 N   0  0  0  0  0  0  0  0  0  0  0  0
   -0.9080   24.4410  -28.8630 C   0  0  0  0  0  0  0  0  0  0  0  0
   -1.5750   25.6330  -26.9180 C   0  0  0  0  0  0  0  0  0  0  0  0
   -6.5520   21.0280  -31.8860 C   0  0  0  0  0  0  0  0  0  0  0  0
   -1.6432   21.4669  -28.3341 H   0  0  0  0  0  0  0  0  0  0  0  0
   -3.1637   21.5908  -29.2825 H   0  0  0  0  0  0  0  0  0  0  0  0
   -2.2275   20.0578  -29.2825 H   0  0  0  0  0  0  0  0  0  0  0  0
   -0.6509   22.4183  -30.1553 H   0  0  0  0  0  0  0  0  0  0  0  0
   -0.7938   20.8094  -30.9085 H   0  0  0  0  0  0  0  0  0  0  0  0
   -2.5570   23.1450  -31.2930 H   0  0  0  0  0  0  0  0  0  0  0  0
   -2.0939   22.6006  -33.4495 H   0  0  0  0  0  0  0  0  0  0  0  0
   -1.1605   21.1923  -32.9043 H   0  0  0  0  0  0  0  0  0  0  0  0
   -3.9021   21.3781  -33.8311 H   0  0  0  0  0  0  0  0  0  0  0  0
   -2.8539   19.9124  -33.4765 H   0  0  0  0  0  0  0  0  0  0  0  0
   -3.6670   20.4120  -30.9660 H   0  0  0  0  0  0  0  0  0  0  0  0
   -3.6961   18.3199  -32.4735 H   0  0  0  0  0  0  0  0  0  0  0  0
   -4.0492   16.0044  -33.1537 H   0  0  0  0  0  0  0  0  0  0  0  0
   -6.3840   15.2031  -33.5535 H   0  0  0  0  0  0  0  0  0  0  0  0
   -8.2756   16.7967  -33.2394 H   0  0  0  0  0  0  0  0  0  0  0  0
   -9.9454   18.7765  -31.7497 H   0  0  0  0  0  0  0  0  0  0  0  0
   -9.9569   19.7037  -33.2881 H   0  0  0  0  0  0  0  0  0  0  0  0
   -9.4889   17.9694  -33.2881 H   0  0  0  0  0  0  0  0  0  0  0  0
   -9.9519   21.0009  -32.0965 H   0  0  0  0  0  0  0  0  0  0  0  0
   -9.6130   23.3436  -31.3101 H   0  0  0  0  0  0  0  0  0  0  0  0
   -7.3210   24.1274  -30.9074 H   0  0  0  0  0  0  0  0  0  0  0  0
   -4.2660   23.0570  -31.6360 H   0  0  0  0  0  0  0  0  0  0  0  0
   -5.8560   23.6836  -29.2871 H   0  0  0  0  0  0  0  0  0  0  0  0
   -4.6409   22.3521  -29.0974 H   0  0  0  0  0  0  0  0  0  0  0  0
   -3.9276   24.9266  -27.5030 H   0  0  0  0  0  0  0  0  0  0  0  0
   -3.0118   23.3836  -27.7717 H   0  0  0  0  0  0  0  0  0  0  0  0
   -0.2301   24.0077  -28.1128 H   0  0  0  0  0  0  0  0  0  0  0  0
   -1.3198   23.6382  -29.4923 H   0  0  0  0  0  0  0  0  0  0  0  0
   -0.3523   25.1517  -29.4923 H   0  0  0  0  0  0  0  0  0  0  0  0
   -2.0475   25.0374  -26.1230 H   0  0  0  0  0  0  0  0  0  0  0  0
   -0.4810   25.5669  -26.8247 H   0  0  0  0  0  0  0  0  0  0  0  0
   -1.8882   26.6833  -26.8247 H   0  0  0  0  0  0  0  0  0  0  0  0
  1  2  1  0
  2  3  1  0
  3  4  1  0
  4  5  1  0
  5  6  1  0
  6  7  1  0
  7  8  2  0
  8  9  1  0
  9 10  2  0
 10 11  1  0
 11 12  2  0
 12 13  1  0
 13 14  2  0
 14 15  1  0
 14 16  1  0
 16 17  2  0
 17 18  1  0
 18 19  2  0
 19 20  1  0
 20 21  1  0
 21 22  1  0
 22 23  1  0
 23 24  2  0
 23 25  1  0
 25 26  1  0
 26 27  1  0
 26 28  1  0
 20 29  2  0
 29  7  1  0
 13  8  1  0
 29 16  1  0
  1 30  1  0
  1 31  1  0
  1 32  1  0
  2 33  1  0
  2 34  1  0
  3 35  1  0
  4 36  1  0
  4 37  1  0
  5 38  1  0
  5 39  1  0
  6 40  1  0
  9 41  1  0
 10 42  1  0
 11 43  1  0
 12 44  1  0
 15 45  1  0
 15 46  1  0
 15 47  1  0
 17 48  1  0
 18 49  1  0
 19 50  1  0
 21 51  1  0
 22 52  1  0
 22 53  1  0
 25 54  1  0
 25 55  1  0
 27 56  1  0
 27 57  1  0
 27 58  1  0
 28 59  1  0
 28 60  1  0
 28 61  1  0
M  CHG  1  14   1
M  END
>  <smiles>  (14) 
CCNCCNc1c2ccccc2[n+](C)c2cccc(NCC(=O)CN(C)C)c12

>  <score_type>  (14) 
oracle

>  <origin>  (14) 
adg

>  <m_score__min__energy>  (14) 
-9.9000000000000004

>  <m_primary>  (14) 
energy

$$$$
16:0
     RDKit          3D

 48 49  0  0  0  0  0  0  0  0999 V2000
   -2.7290   21.5540  -32.5130 C   0  0  0  0  0  0  0  0  0  0  0  0
   -4.0490   21.3810  -33.2170 C   0  0  0  0  0  0  0  0  0  0  0  0
   -5.0230   22.1400  -32.5660 O   0  0  0  0  0  0  0  0  0  0  0  0
   -6.3420   21.7790  -32.3620 C   0  0  0  0  0  0  0  0  0  0  0  0
   -6.8270   20.5010  -32.5380 C   0  0  0  0  0  0  0  0  0  0  0  0
   -8.1780   20.2410  -32.3050 C   0  0  0  0  0  0  0  0  0  0  0  0
   -9.0490   21.2270  -31.9010 C   0  0  0  0  0  0  0  0  0  0  0  0
   -8.5610   22.5090  -31.7240 C   0  0  0  0  0  0  0  0  0  0  0  0
   -7.2310   22.7510  -31.9560 C   0  0  0  0  0  0  0  0  0  0  0  0
   -6.7690   24.0470  -31.7710 O   0  0  0  0  0  0  0  0  0  0  0  0
   -6.7120   24.6510  -30.4930 C   0  0  0  0  0  0  0  0  0  0  0  0
   -5.3610   25.3570  -30.3030 C   0  0  0  0  0  0  0  0  0  0  0  0
   -4.3730   24.4910  -30.8920 N   0  0  0  0  0  0  0  0  0  0  0  0
   -3.9960   23.3740  -30.0730 C   0  0  0  0  0  0  0  0  0  0  0  0
   -3.2610   23.8510  -28.8610 C   0  0  0  0  0  0  0  0  0  0  0  0
   -1.8460   24.2720  -29.1880 C   0  0  0  0  0  0  0  0  0  0  0  0
   -1.6010   25.6380  -28.9790 O   0  0  0  0  0  0  0  0  0  0  0  0
   -1.3110   26.0500  -27.6770 C   0  0  0  0  0  0  0  0  0  0  0  0
   -1.8550   25.3910  -26.5780 C   0  0  0  0  0  0  0  0  0  0  0  0
   -1.5520   25.8200  -25.3020 C   0  0  0  0  0  0  0  0  0  0  0  0
   -0.7160   26.8930  -25.0520 C   0  0  0  0  0  0  0  0  0  0  0  0
   -0.1710   27.5520  -26.1430 C   0  0  0  0  0  0  0  0  0  0  0  0
   -0.4780   27.1180  -27.4150 C   0  0  0  0  0  0  0  0  0  0  0  0
   -2.8883   21.5331  -31.4248 H   0  0  0  0  0  0  0  0  0  0  0  0
   -2.0505   20.7371  -32.8000 H   0  0  0  0  0  0  0  0  0  0  0  0
   -2.2840   22.5182  -32.8000 H   0  0  0  0  0  0  0  0  0  0  0  0
   -3.9562   21.7189  -34.2597 H   0  0  0  0  0  0  0  0  0  0  0  0
   -4.3381   20.3198  -33.2015 H   0  0  0  0  0  0  0  0  0  0  0  0
   -6.1543   19.6923  -32.8596 H   0  0  0  0  0  0  0  0  0  0  0  0
   -8.5577   19.2186  -32.4483 H   0  0  0  0  0  0  0  0  0  0  0  0
  -10.1105   21.0004  -31.7227 H   0  0  0  0  0  0  0  0  0  0  0  0
   -9.2289   23.3216  -31.4023 H   0  0  0  0  0  0  0  0  0  0  0  0
   -7.5236   25.3879  -30.4023 H   0  0  0  0  0  0  0  0  0  0  0  0
   -6.8240   23.8743  -29.7222 H   0  0  0  0  0  0  0  0  0  0  0  0
   -5.3651   26.3327  -30.8108 H   0  0  0  0  0  0  0  0  0  0  0  0
   -5.1503   25.5431  -29.2395 H   0  0  0  0  0  0  0  0  0  0  0  0
   -4.6090   24.1300  -31.8300 H   0  0  0  0  0  0  0  0  0  0  0  0
   -4.8998   22.8307  -29.7601 H   0  0  0  0  0  0  0  0  0  0  0  0
   -3.3406   22.7072  -30.6526 H   0  0  0  0  0  0  0  0  0  0  0  0
   -3.7983   24.7111  -28.4350 H   0  0  0  0  0  0  0  0  0  0  0  0
   -3.2115   23.0188  -28.1433 H   0  0  0  0  0  0  0  0  0  0  0  0
   -1.1567   23.6947  -28.5543 H   0  0  0  0  0  0  0  0  0  0  0  0
   -1.6927   24.0784  -30.2599 H   0  0  0  0  0  0  0  0  0  0  0  0
   -2.5244   24.5308  -26.7264 H   0  0  0  0  0  0  0  0  0  0  0  0
   -1.9939   25.2861  -24.4478 H   0  0  0  0  0  0  0  0  0  0  0  0
   -0.4914   27.2123  -24.0236 H   0  0  0  0  0  0  0  0  0  0  0  0
    0.4991   28.4118  -25.9954 H   0  0  0  0  0  0  0  0  0  0  0  0
   -0.0344   27.6527  -28.2679 H   0  0  0  0  0  0  0  0  0  0  0  0
  1  2  1  0
  2  3  1  0
  3  4  1  0
  4  5  2  0
  5  6  1  0
  6  7  2  0
  7  8  1  0
  8  9  2  0
  9 10  1  0
 10 11  1  0
 11 12  1  0
 12 13  1  0
 13 14  1  0
 14 15  1  0
 15 16  1  0
 16 17  1  0
 17 18  1  0
 18 19  2  0
 19 20  1  0
 20 21  2  0
 21 22  1  0
 22 23  2  0
  9  4  1  0
 23 18  1  0
  1 24  1  0
  1 25  1  0
  1 26  1  0
  2 27  1  0
  2 28  1  0
  5 29  1  0
  6 30  1  0
  7 31  1  0
  8 32  1  0
 11 33  1  0
 11 34  1  0
 12 35  1  0
 12 36  1  0
 13 37  1  0
 14 38  1  0
 14 39  1  0
 15 40  1  0
 15 41  1  0
 16 42  1  0
 16 43  1  0
 19 44  1  0
 20 45  1  0
 21 46  1  0
 22 47  1  0
 23 48  1  0
M  END
>  <smiles>  (15) 
CCOc1ccccc1OCCNCCCOc1ccccc1

>  <score_type>  (15) 
oracle

>  <origin>  (15) 
adg

>  <m_score__min__energy>  (15) 
-8.3900000000000006

>  <m_primary>  (15) 
energy

$$$$
17:0
     RDKit          3D

 42 44  0  0  0  0  0  0  0  0999 V2000
   -0.7550   21.9060  -27.1230 C   0  0  0  0  0  0  0  0  0  0  0  0
   -2.1220   22.4550  -27.4520 C   0  0  0  0  0  0  0  0  0  0  0  0
   -1.9620   23.5100  -28.4210 N   0  0  0  0  0  0  0  0  0  0  0  0
   -2.1990   23.4140  -29.8190 C   0  0  0  0  0  0  0  0  0  0  0  0
   -3.5790   23.7260  -30.2580 C   0  0  0  0  0  0  0  0  0  0  0  0
   -4.7000   22.9860  -30.1980 N   0  0  0  0  0  0  0  0  0  0  0  0
   -5.7360   23.6890  -30.7250 C   0  0  0  0  0  0  0  0  0  0  0  0
   -7.1580   23.2740  -30.8700 C   0  0  0  0  0  0  0  0  0  0  0  0
   -7.3950   22.6120  -32.2110 C   0  0  0  0  0  0  0  0  0  0  0  0
   -8.7360   21.9140  -32.1990 C   0  0  0  0  0  0  0  0  0  0  0  0
   -8.5170   20.5250  -31.6280 C   0  0  0  0  0  0  0  0  0  0  0  0
   -7.9790   19.7110  -32.6980 N   0  0  0  0  0  0  0  0  0  0  0  0
   -6.8240   20.3920  -33.2380 C   0  0  0  0  0  0  0  0  0  0  0  0
   -6.3430   21.5220  -32.3560 C   0  0  0  0  0  0  0  0  0  0  0  0
   -5.1820   24.8790  -31.0990 N   0  0  0  0  0  0  0  0  0  0  0  0
   -3.9120   24.8750  -30.8130 O   0  0  0  0  0  0  0  0  0  0  0  0
   -1.5140   24.7810  -27.9070 C   0  0  0  0  0  0  0  0  0  0  0  0
   -1.3260   25.1010  -26.6040 N   0  0  0  0  0  0  0  0  0  0  0  0
   -0.9070   26.3790  -26.5760 C   0  0  0  0  0  0  0  0  0  0  0  0
   -0.8520   26.8140  -27.8830 C   0  0  0  0  0  0  0  0  0  0  0  0
   -1.2300   25.8100  -28.6720 O   0  0  0  0  0  0  0  0  0  0  0  0
   -0.6327   21.8569  -26.0309 H   0  0  0  0  0  0  0  0  0  0  0  0
   -0.6528   20.8971  -27.5492 H   0  0  0  0  0  0  0  0  0  0  0  0
    0.0167   22.5640  -27.5492 H   0  0  0  0  0  0  0  0  0  0  0  0
   -2.7529   21.6571  -27.8709 H   0  0  0  0  0  0  0  0  0  0  0  0
   -2.6044   22.8437  -26.5430 H   0  0  0  0  0  0  0  0  0  0  0  0
   -1.5167   24.1118  -30.3265 H   0  0  0  0  0  0  0  0  0  0  0  0
   -2.0319   22.3587  -30.0804 H   0  0  0  0  0  0  0  0  0  0  0  0
   -7.4091   22.5636  -30.0686 H   0  0  0  0  0  0  0  0  0  0  0  0
   -7.7934   24.1695  -30.8036 H   0  0  0  0  0  0  0  0  0  0  0  0
   -7.3554   23.3597  -33.0168 H   0  0  0  0  0  0  0  0  0  0  0  0
   -9.4452   22.4720  -31.5700 H   0  0  0  0  0  0  0  0  0  0  0  0
   -9.1538   21.8559  -33.2149 H   0  0  0  0  0  0  0  0  0  0  0  0
   -7.8050   20.5681  -30.7907 H   0  0  0  0  0  0  0  0  0  0  0  0
   -9.4585   20.1027  -31.2470 H   0  0  0  0  0  0  0  0  0  0  0  0
   -8.6980   19.6890  -33.4560 H   0  0  0  0  0  0  0  0  0  0  0  0
   -6.0079   19.6633  -33.3515 H   0  0  0  0  0  0  0  0  0  0  0  0
   -7.1192   20.8288  -34.2034 H   0  0  0  0  0  0  0  0  0  0  0  0
   -6.1067   21.1203  -31.3596 H   0  0  0  0  0  0  0  0  0  0  0  0
   -5.4523   21.9662  -32.8243 H   0  0  0  0  0  0  0  0  0  0  0  0
   -0.6559   26.9657  -25.6801 H   0  0  0  0  0  0  0  0  0  0  0  0
   -0.5483   27.8172  -28.2166 H   0  0  0  0  0  0  0  0  0  0  0  0
  1  2  1  0
  2  3  1  0
  3  4  1  0
  4  5  1  0
  5  6  2  0
  6  7  1  0
  7  8  1  0
  8  9  1  0
  9 10  1  0
 10 11  1  0
 11 12  1  0
 12 13  1  0
 13 14  1  0
  7 15  2  0
 15 16  1  0
  3 17  1  0
 17 18  2  0
 18 19  1  0
 19 20  2  0
 20 21  1  0
 16  5  1  0
 21 17  1  0
 14  9  1  0
  1 22  1  0
  1 23  1  0
  1 24  1  0
  2 25  1  0
  2 26  1  0
  4 27  1  0
  4 28  1  0
  8 29  1  0
  8 30  1  0
  9 31  1  0
 10 32  1  0
 10 33  1  0
 11 34  1  0
 11 35  1  0
 12 36  1  0
 13 37  1  0
 13 38  1  0
 14 39  1  0
 14 40  1  0
 19 41  1  0
 20 42  1  0
M  END
>  <smiles>  (16) 
CCN(Cc1nc(CC2CCNCC2)no1)c1ncco1

>  <score_type>  (16) 
oracle

>  <origin>  (16) 
adg

>  <m_score__min__energy>  (16) 
-8.1400000000000006

>  <m_primary>  (16) 
energy

$$$$
18:0
     RDKit          3D

 33 35  0  0  0  0  0  0  0  0999 V2000
   -4.2740   24.2010  -28.3780 C   0  0  0  0  0  0  0  0  0  0  0  0
   -3.2150   24.5830  -29.4140 C   0  0  0  0  0  0  0  0  0  0  0  0
   -3.8790   25.2930  -30.5040 N   0  0  0  0  0  0  0  0  0  0  0  0
   -5.2650   24.8840  -30.6500 C   0  0  0  0  0  0  0  0  0  0  0  0
   -5.3290   23.4930  -31.2260 C   0  0  0  0  0  0  0  0  0  0  0  0
   -4.2630   22.8830  -31.8650 C   0  0  0  0  0  0  0  0  0  0  0  0
   -4.6360   21.6100  -32.2760 C   0  0  0  0  0  0  0  0  0  0  0  0
   -5.9580   21.4050  -31.8920 C   0  0  0  0  0  0  0  0  0  0  0  0
   -6.7970   20.3580  -32.0430 N   0  0  0  0  0  0  0  0  0  0  0  0
   -6.3190   19.2800  -32.6730 C   0  0  0  0  0  0  0  0  0  0  0  0
   -7.1070   18.1670  -32.8730 C   0  0  0  0  0  0  0  0  0  0  0  0
   -6.4010   16.6490  -33.7750 Br  0  0  0  0  0  0  0  0  0  0  0  0
   -8.4060   18.2210  -32.3930 C   0  0  0  0  0  0  0  0  0  0  0  0
   -8.8700   19.3650  -31.7390 C   0  0  0  0  0  0  0  0  0  0  0  0
   -8.0470   20.4640  -31.5570 C   0  0  0  0  0  0  0  0  0  0  0  0
   -8.4980   21.6080  -30.9090 C   0  0  0  0  0  0  0  0  0  0  0  0
   -7.6770   22.7160  -30.7260 C   0  0  0  0  0  0  0  0  0  0  0  0
   -6.3990   22.6200  -31.2170 C   0  0  0  0  0  0  0  0  0  0  0  0
   -3.8672   24.3477  -27.3666 H   0  0  0  0  0  0  0  0  0  0  0  0
   -5.1629   24.8352  -28.5113 H   0  0  0  0  0  0  0  0  0  0  0  0
   -4.5533   23.1454  -28.5113 H   0  0  0  0  0  0  0  0  0  0  0  0
   -2.4590   25.2344  -28.9511 H   0  0  0  0  0  0  0  0  0  0  0  0
   -2.7148   23.6812  -29.7967 H   0  0  0  0  0  0  0  0  0  0  0  0
   -3.8590   26.3260  -30.3270 H   0  0  0  0  0  0  0  0  0  0  0  0
   -5.7544   24.8942  -29.6649 H   0  0  0  0  0  0  0  0  0  0  0  0
   -5.7800   25.5814  -31.3271 H   0  0  0  0  0  0  0  0  0  0  0  0
   -3.2734   23.3366  -32.0228 H   0  0  0  0  0  0  0  0  0  0  0  0
   -3.9988   20.8904  -32.8109 H   0  0  0  0  0  0  0  0  0  0  0  0
   -5.2811   19.2814  -33.0373 H   0  0  0  0  0  0  0  0  0  0  0  0
   -9.0753   17.3585  -32.5277 H   0  0  0  0  0  0  0  0  0  0  0  0
   -9.9035   19.3933  -31.3633 H   0  0  0  0  0  0  0  0  0  0  0  0
   -9.5306   21.6380  -30.5312 H   0  0  0  0  0  0  0  0  0  0  0  0
   -8.0336   23.6221  -30.2143 H   0  0  0  0  0  0  0  0  0  0  0  0
  1  2  1  0
  2  3  1  0
  3  4  1  0
  4  5  1  0
  5  6  2  0
  6  7  1  0
  7  8  2  0
  8  9  1  0
  9 10  1  0
 10 11  2  0
 11 12  1  0
 11 13  1  0
 13 14  2  0
 14 15  1  0
 15 16  2  0
 16 17  1  0
 17 18  2  0
 18  5  1  0
 18  8  1  0
 15  9  1  0
  1 19  1  0
  1 20  1  0
  1 21  1  0
  2 22  1  0
  2 23  1  0
  3 24  1  0
  4 25  1  0
  4 26  1  0
  6 27  1  0
  7 28  1  0
 10 29  1  0
 13 30  1  0
 14 31  1  0
 16 32  1  0
 17 33  1  0
M  END
>  <smiles>  (17) 
CCNCc1ccc2n3cc(Br)ccc3ccc1-2

>  <score_type>  (17) 
oracle

>  <origin>  (17) 
adg

>  <m_score__min__energy>  (17) 
-8.5500000000000007

>  <m_primary>  (17) 
energy

$$$$
19:0
     RDKit          3D

 55 57  0  0  1  0  0  0  0  0999 V2000
   -6.1320   16.8070  -34.5250 C   0  0  0  0  0  0  0  0  0  0  0  0
   -6.1400   17.0630  -33.0530 C   0  0  0  0  0  0  0  0  0  0  0  0
   -5.5470   18.3200  -32.7180 N   0  0  0  0  0  0  0  0  0  0  0  0
   -5.6270   19.2220  -33.8210 C   0  0  0  0  0  0  0  0  0  0  0  0
   -6.8920   20.0060  -33.5470 C   0  0  0  0  0  0  0  0  0  0  0  0
   -7.0730   20.0300  -32.0560 C   0  0  2  0  0  0  0  0  0  0  0  0
   -8.4480   19.4740  -31.7490 C   0  0  0  0  0  0  0  0  0  0  0  0
   -9.5230   20.3830  -32.3250 C   0  0  0  0  0  0  0  0  0  0  0  0
   -9.3570   21.6800  -31.5440 C   0  0  0  0  0  0  0  0  0  0  0  0
   -7.9750   22.1900  -31.5170 C   0  0  0  0  0  0  0  0  0  0  0  0
   -6.8870   21.2870  -31.4460 N   0  0  0  0  0  0  0  0  0  0  0  0
   -5.7230   22.0260  -31.9300 C   0  0  0  0  0  0  0  0  0  0  0  0
   -5.9140   23.5160  -31.7060 C   0  0  0  0  0  0  0  0  0  0  0  0
   -4.7460   24.1770  -31.2650 N   0  0  0  0  0  0  0  0  0  0  0  0
   -4.9890   25.3300  -30.4330 C   0  0  0  0  0  0  0  0  0  0  0  0
   -5.6260   24.9580  -29.1170 C   0  0  0  0  0  0  0  0  0  0  0  0
   -4.6330   23.7570  -28.3160 S   0  0  0  0  0  0  0  0  0  0  0  0
   -3.5580   24.4720  -27.0860 C   0  0  0  0  0  0  0  0  0  0  0  0
   -3.7980   22.7720  -29.4910 C   0  0  0  0  0  0  0  0  0  0  0  0
   -3.6460   23.3850  -30.8450 C   0  0  0  0  0  0  0  0  0  0  0  0
   -6.1030   18.9750  -31.5640 C   0  0  0  0  0  0  0  0  0  0  0  0
   -6.0981   15.7229  -34.7085 H   0  0  0  0  0  0  0  0  0  0  0  0
   -7.0437   17.2267  -34.9751 H   0  0  0  0  0  0  0  0  0  0  0  0
   -5.2483   17.2828  -34.9751 H   0  0  0  0  0  0  0  0  0  0  0  0
   -7.1813   17.0574  -32.6986 H   0  0  0  0  0  0  0  0  0  0  0  0
   -5.5473   16.2719  -32.5705 H   0  0  0  0  0  0  0  0  0  0  0  0
   -4.7511   19.8868  -33.8493 H   0  0  0  0  0  0  0  0  0  0  0  0
   -5.6442   18.7082  -34.7935 H   0  0  0  0  0  0  0  0  0  0  0  0
   -6.7933   21.0313  -33.9331 H   0  0  0  0  0  0  0  0  0  0  0  0
   -7.7583   19.5434  -34.0425 H   0  0  0  0  0  0  0  0  0  0  0  0
   -8.5425   18.4724  -32.1938 H   0  0  0  0  0  0  0  0  0  0  0  0
   -8.5755   19.4141  -30.6581 H   0  0  0  0  0  0  0  0  0  0  0  0
   -9.3610   20.5493  -33.4002 H   0  0  0  0  0  0  0  0  0  0  0  0
  -10.5335   19.9578  -32.2347 H   0  0  0  0  0  0  0  0  0  0  0  0
   -9.9993   22.4454  -32.0039 H   0  0  0  0  0  0  0  0  0  0  0  0
   -9.6367   21.4627  -30.5026 H   0  0  0  0  0  0  0  0  0  0  0  0
   -7.8371   22.7814  -32.4342 H   0  0  0  0  0  0  0  0  0  0  0  0
   -7.9222   22.7244  -30.5570 H   0  0  0  0  0  0  0  0  0  0  0  0
   -4.8278   21.6892  -31.3867 H   0  0  0  0  0  0  0  0  0  0  0  0
   -5.6028   21.8387  -33.0072 H   0  0  0  0  0  0  0  0  0  0  0  0
   -6.2341   23.9718  -32.6545 H   0  0  0  0  0  0  0  0  0  0  0  0
   -6.6669   23.6284  -30.9120 H   0  0  0  0  0  0  0  0  0  0  0  0
   -4.0305   25.8315  -30.2336 H   0  0  0  0  0  0  0  0  0  0  0  0
   -5.6835   25.9935  -30.9692 H   0  0  0  0  0  0  0  0  0  0  0  0
   -5.7066   25.8522  -28.4814 H   0  0  0  0  0  0  0  0  0  0  0  0
   -6.6308   24.5476  -29.2955 H   0  0  0  0  0  0  0  0  0  0  0  0
   -3.9326   24.2228  -26.0822 H   0  0  0  0  0  0  0  0  0  0  0  0
   -2.5417   24.0693  -27.2085 H   0  0  0  0  0  0  0  0  0  0  0  0
   -3.5365   25.5649  -27.2085 H   0  0  0  0  0  0  0  0  0  0  0  0
   -2.7924   22.5564  -29.1007 H   0  0  0  0  0  0  0  0  0  0  0  0
   -4.4180   21.8743  -29.6312 H   0  0  0  0  0  0  0  0  0  0  0  0
   -2.7496   24.0224  -30.8337 H   0  0  0  0  0  0  0  0  0  0  0  0
   -3.5748   22.5500  -31.5575 H   0  0  0  0  0  0  0  0  0  0  0  0
   -5.3006   19.4477  -30.9786 H   0  0  0  0  0  0  0  0  0  0  0  0
   -6.6187   18.2480  -30.9194 H   0  0  0  0  0  0  0  0  0  0  0  0
  1  2  1  0
  2  3  1  0
  3  4  1  0
  4  5  1  0
  5  6  1  0
  6  7  1  0
  7  8  1  0
  8  9  1  0
  9 10  1  0
 10 11  1  0
 11 12  1  0
 12 13  1  0
 13 14  1  0
 14 15  1  0
 15 16  1  0
 16 17  1  0
 17 18  1  0
 17 19  1  0
 19 20  1  0
  6 21  1  0
 21  3  1  0
  6 11  1  1
 20 14  1  0
  1 22  1  0
  1 23  1  0
  1 24  1  0
  2 25  1  0
  2 26  1  0
  4 27  1  0
  4 28  1  0
  5 29  1  0
  5 30  1  0
  7 31  1  0
  7 32  1  0
  8 33  1  0
  8 34  1  0
  9 35  1  0
  9 36  1  0
 10 37  1  0
 10 38  1  0
 12 39  1  0
 12 40  1  0
 13 41  1  0
 13 42  1  0
 15 43  1  0
 15 44  1  0
 16 45  1  0
 16 46  1  0
 18 47  1  0
 18 48  1  0
 18 49  1  0
 19 50  1  0
 19 51  1  0
 20 52  1  0
 20 53  1  0
 21 54  1  0
 21 55  1  0
M  CHG  1  17   1
M  END
>  <smiles>  (18) 
CCN1CCC2(CCCCN2CCN2CC[S+](C)CC2)C1

>  <score_type>  (18) 
oracle

>  <origin>  (18) 
adg

>  <m_score__min__energy>  (18) 
-8.0899999999999999

>  <m_primary>  (18) 
energy

$$$$
20:0
     RDKit          3D

 66 68  0  0  0  0  0  0  0  0999 V2000
   -0.7730   27.3030  -35.9420 C   0  0  0  0  0  0  0  0  0  0  0  0
   -0.8670   26.0870  -36.8940 C   0  0  0  0  0  0  0  0  0  0  0  0
   -0.4130   24.9740  -36.1490 N   0  0  0  0  0  0  0  0  0  0  0  0
    0.9960   24.7660  -36.0280 C   0  0  0  0  0  0  0  0  0  0  0  0
    1.3850   23.3100  -36.1060 C   0  0  0  0  0  0  0  0  0  0  0  0
    0.3050   22.4160  -36.4230 N   0  0  0  0  0  0  0  0  0  0  0  0
    0.6150   21.0520  -36.0720 C   0  0  0  0  0  0  0  0  0  0  0  0
    0.0960   20.6380  -34.7430 C   0  0  0  0  0  0  0  0  0  0  0  0
   -0.9640   21.4080  -34.1880 N   0  0  0  0  0  0  0  0  0  0  0  0
   -0.9520   21.5370  -32.7460 C   0  0  0  0  0  0  0  0  0  0  0  0
   -2.3570   21.8100  -32.2690 C   0  0  0  0  0  0  0  0  0  0  0  0
   -3.3940   21.4920  -33.1880 N   0  0  0  0  0  0  0  0  0  0  0  0
   -4.7260   21.1650  -32.9330 C   0  0  0  0  0  0  0  0  0  0  0  0
   -5.6860   21.9630  -32.3700 C   0  0  0  0  0  0  0  0  0  0  0  0
   -5.3700   23.2220  -31.9450 C   0  0  0  0  0  0  0  0  0  0  0  0
   -6.2700   24.0800  -31.3580 C   0  0  0  0  0  0  0  0  0  0  0  0
   -7.5710   23.6870  -31.1690 C   0  0  0  0  0  0  0  0  0  0  0  0
   -7.9060   22.4120  -31.5930 C   0  0  0  0  0  0  0  0  0  0  0  0
   -7.0040   21.5500  -32.1820 C   0  0  0  0  0  0  0  0  0  0  0  0
   -7.4090   20.3130  -32.5530 N   0  0  0  0  0  0  0  0  0  0  0  0
   -8.7890   19.9900  -32.3080 C   0  0  0  0  0  0  0  0  0  0  0  0
   -6.5010   19.5120  -33.1000 C   0  0  0  0  0  0  0  0  0  0  0  0
   -6.8910   18.2360  -33.4690 C   0  0  0  0  0  0  0  0  0  0  0  0
   -5.9930   17.3270  -34.0370 C   0  0  0  0  0  0  0  0  0  0  0  0
   -4.6790   17.6960  -34.2400 C   0  0  0  0  0  0  0  0  0  0  0  0
   -4.2780   18.9600  -33.8760 C   0  0  0  0  0  0  0  0  0  0  0  0
   -2.9830   19.3700  -34.0550 O   0  0  0  0  0  0  0  0  0  0  0  0
   -1.9310   18.4440  -34.1070 C   0  0  0  0  0  0  0  0  0  0  0  0
   -1.4060   18.0070  -32.7670 C   0  0  0  0  0  0  0  0  0  0  0  0
   -5.1720   19.8800  -33.3090 C   0  0  0  0  0  0  0  0  0  0  0  0
   -0.7999   26.9549  -34.8989 H   0  0  0  0  0  0  0  0  0  0  0  0
    0.1693   27.8401  -36.1251 H   0  0  0  0  0  0  0  0  0  0  0  0
   -1.6216   27.9785  -36.1251 H   0  0  0  0  0  0  0  0  0  0  0  0
   -1.9075   25.9329  -37.2160 H   0  0  0  0  0  0  0  0  0  0  0  0
   -0.2642   26.2378  -37.8017 H   0  0  0  0  0  0  0  0  0  0  0  0
   -0.9160   24.1050  -36.4130 H   0  0  0  0  0  0  0  0  0  0  0  0
    1.5016   25.3081  -36.8407 H   0  0  0  0  0  0  0  0  0  0  0  0
    1.2997   25.1355  -35.0374 H   0  0  0  0  0  0  0  0  0  0  0  0
    2.1575   23.2028  -36.8817 H   0  0  0  0  0  0  0  0  0  0  0  0
    1.7372   23.0283  -35.1027 H   0  0  0  0  0  0  0  0  0  0  0  0
   -0.5370   22.7150  -35.8730 H   0  0  0  0  0  0  0  0  0  0  0  0
    0.1789   20.3906  -36.8352 H   0  0  0  0  0  0  0  0  0  0  0  0
    1.7114   20.9768  -36.0234 H   0  0  0  0  0  0  0  0  0  0  0  0
   -0.2617   19.6019  -34.8360 H   0  0  0  0  0  0  0  0  0  0  0  0
    0.9405   20.7810  -34.0528 H   0  0  0  0  0  0  0  0  0  0  0  0
   -1.8970   21.1750  -34.5810 H   0  0  0  0  0  0  0  0  0  0  0  0
   -0.5834   20.6040  -32.2947 H   0  0  0  0  0  0  0  0  0  0  0  0
   -0.2904   22.3648  -32.4510 H   0  0  0  0  0  0  0  0  0  0  0  0
   -2.5237   21.2213  -31.3548 H   0  0  0  0  0  0  0  0  0  0  0  0
   -2.4153   22.8978  -32.1167 H   0  0  0  0  0  0  0  0  0  0  0  0
   -3.1150   21.5090  -34.2280 H   0  0  0  0  0  0  0  0  0  0  0  0
   -4.3352   23.5698  -32.0802 H   0  0  0  0  0  0  0  0  0  0  0  0
   -5.9468   25.0821  -31.0397 H   0  0  0  0  0  0  0  0  0  0  0  0
   -8.3123   24.3528  -30.7030 H   0  0  0  0  0  0  0  0  0  0  0  0
   -8.9420   22.0697  -31.4534 H   0  0  0  0  0  0  0  0  0  0  0  0
   -8.9688   19.9479  -31.2236 H   0  0  0  0  0  0  0  0  0  0  0  0
   -9.4315   20.7620  -32.7565 H   0  0  0  0  0  0  0  0  0  0  0  0
   -9.0221   19.0130  -32.7565 H   0  0  0  0  0  0  0  0  0  0  0  0
   -7.9354   17.9289  -33.3111 H   0  0  0  0  0  0  0  0  0  0  0  0
   -6.3332   16.3203  -34.3213 H   0  0  0  0  0  0  0  0  0  0  0  0
   -3.9632   16.9899  -34.6862 H   0  0  0  0  0  0  0  0  0  0  0  0
   -2.2874   17.5515  -34.6421 H   0  0  0  0  0  0  0  0  0  0  0  0
   -1.0976   18.9517  -34.6145 H   0  0  0  0  0  0  0  0  0  0  0  0
   -1.9882   18.4916  -31.9693 H   0  0  0  0  0  0  0  0  0  0  0  0
   -1.4975   16.9146  -32.6758 H   0  0  0  0  0  0  0  0  0  0  0  0
   -0.3483   18.2952  -32.6758 H   0  0  0  0  0  0  0  0  0  0  0  0
  1  2  1  0
  2  3  1  0
  3  4  1  0
  4  5  1  0
  5  6  1  0
  6  7  1  0
  7  8  1  0
  8  9  1  0
  9 10  1  0
 10 11  1  0
 11 12  1  0
 12 13  1  0
 13 14  2  0
 14 15  1  0
 15 16  2  0
 16 17  1  0
 17 18  2  0
 18 19  1  0
 19 20  2  0
 20 21  1  0
 20 22  1  0
 22 23  2  0
 23 24  1  0
 24 25  2  0
 25 26  1  0
 26 27  1  0
 27 28  1  0
 28 29  1  0
 26 30  2  0
 30 13  1  0
 19 14  1  0
 30 22  1  0
  1 31  1  0
  1 32  1  0
  1 33  1  0
  2 34  1  0
  2 35  1  0
  3 36  1  0
  4 37  1  0
  4 38  1  0
  5 39  1  0
  5 40  1  0
  6 41  1  0
  7 42  1  0
  7 43  1  0
  8 44  1  0
  8 45  1  0
  9 46  1  0
 10 47  1  0
 10 48  1  0
 11 49  1  0
 11 50  1  0
 12 51  1  0
 15 52  1  0
 16 53  1  0
 17 54  1  0
 18 55  1  0
 21 56  1  0
 21 57  1  0
 21 58  1  0
 23 59  1  0
 24 60  1  0
 25 61  1  0
 28 62  1  0
 28 63  1  0
 29 64  1  0
 29 65  1  0
 29 66  1  0
M  CHG  1  20   1
M  END
>  <smiles>  (19) 
CCNCCNCCNCCNc1c2ccccc2[n+](C)c2cccc(OCC)c12

>  <score_type>  (19) 
oracle

>  <origin>  (19) 
adg

>  <m_score__min__energy>  (19) 
-8.0500000000000007

>  <m_primary>  (19) 
energy

$$$$
21:0
     RDKit          3D

 64 66  0  0  0  0  0  0  0  0999 V2000
   -1.9690   27.5790  -38.7240 C   0  0  0  0  0  0  0  0  0  0  0  0
   -1.3920   27.3140  -37.3540 C   0  0  0  0  0  0  0  0  0  0  0  0
   -0.9740   25.9830  -37.3150 O   0  0  0  0  0  0  0  0  0  0  0  0
    0.0290   25.8000  -36.3830 C   0  0  0  0  0  0  0  0  0  0  0  0
    1.2870   25.3640  -37.0670 C   0  0  0  0  0  0  0  0  0  0  0  0
    1.6190   24.0510  -36.9370 O   0  0  0  0  0  0  0  0  0  0  0  0
    2.2780   23.6630  -35.8110 C   0  0  0  0  0  0  0  0  0  0  0  0
    1.7180   22.4040  -35.1480 C   0  0  0  0  0  0  0  0  0  0  0  0
    0.3510   22.4070  -35.1780 O   0  0  0  0  0  0  0  0  0  0  0  0
   -0.2190   21.1810  -35.3770 C   0  0  0  0  0  0  0  0  0  0  0  0
   -0.5000   20.4350  -34.0960 C   0  0  0  0  0  0  0  0  0  0  0  0
   -1.0050   21.3680  -33.1380 N   0  0  0  0  0  0  0  0  0  0  0  0
   -2.1880   20.9300  -32.4450 C   0  0  0  0  0  0  0  0  0  0  0  0
   -3.2890   21.9190  -32.3420 C   0  0  0  0  0  0  0  0  0  0  0  0
   -4.3010   21.7040  -33.3890 N   0  0  0  0  0  0  0  0  0  0  0  0
   -5.3410   20.7900  -33.0760 C   0  0  0  0  0  0  0  0  0  0  0  0
   -5.3050   19.4450  -33.3490 C   0  0  0  0  0  0  0  0  0  0  0  0
   -4.1690   18.9630  -33.9750 C   0  0  0  0  0  0  0  0  0  0  0  0
   -4.0830   17.6210  -34.2660 C   0  0  0  0  0  0  0  0  0  0  0  0
   -5.1260   16.7840  -33.9310 C   0  0  0  0  0  0  0  0  0  0  0  0
   -6.2600   17.3020  -33.2990 C   0  0  0  0  0  0  0  0  0  0  0  0
   -6.3700   18.6430  -32.9980 C   0  0  0  0  0  0  0  0  0  0  0  0
   -7.4820   19.1090  -32.3840 N   0  0  0  0  0  0  0  0  0  0  0  0
   -8.5980   18.2880  -32.0340 C   0  0  0  0  0  0  0  0  0  0  0  0
   -7.5270   20.4380  -32.1070 C   0  0  0  0  0  0  0  0  0  0  0  0
   -8.5980   21.0290  -31.4720 C   0  0  0  0  0  0  0  0  0  0  0  0
   -8.6380   22.3920  -31.1820 C   0  0  0  0  0  0  0  0  0  0  0  0
   -7.5900   23.2090  -31.5230 C   0  0  0  0  0  0  0  0  0  0  0  0
   -6.5140   22.6400  -32.1550 C   0  0  0  0  0  0  0  0  0  0  0  0
   -6.4630   21.2790  -32.4500 C   0  0  0  0  0  0  0  0  0  0  0  0
   -2.9642   28.0361  -38.6206 H   0  0  0  0  0  0  0  0  0  0  0  0
   -1.3067   28.2632  -39.2747 H   0  0  0  0  0  0  0  0  0  0  0  0
   -2.0564   26.6308  -39.2747 H   0  0  0  0  0  0  0  0  0  0  0  0
   -0.5354   27.9802  -37.1739 H   0  0  0  0  0  0  0  0  0  0  0  0
   -2.1478   27.5013  -36.5770 H   0  0  0  0  0  0  0  0  0  0  0  0
    0.2113   26.7464  -35.8529 H   0  0  0  0  0  0  0  0  0  0  0  0
   -0.2802   25.0255  -35.6657 H   0  0  0  0  0  0  0  0  0  0  0  0
    1.1762   25.5771  -38.1404 H   0  0  0  0  0  0  0  0  0  0  0  0
    2.0973   25.9219  -36.5750 H   0  0  0  0  0  0  0  0  0  0  0  0
    3.3284   23.4728  -36.0765 H   0  0  0  0  0  0  0  0  0  0  0  0
    2.1581   24.4786  -35.0828 H   0  0  0  0  0  0  0  0  0  0  0  0
    2.0886   21.5183  -35.6848 H   0  0  0  0  0  0  0  0  0  0  0  0
    2.0478   22.3813  -34.0988 H   0  0  0  0  0  0  0  0  0  0  0  0
   -1.1686   21.3212  -35.9142 H   0  0  0  0  0  0  0  0  0  0  0  0
    0.4996   20.5787  -35.9522 H   0  0  0  0  0  0  0  0  0  0  0  0
   -1.2467   19.6483  -34.2792 H   0  0  0  0  0  0  0  0  0  0  0  0
    0.4207   19.9648  -33.7201 H   0  0  0  0  0  0  0  0  0  0  0  0
   -0.2920   21.7860  -32.5370 H   0  0  0  0  0  0  0  0  0  0  0  0
   -2.5782   20.0466  -32.9717 H   0  0  0  0  0  0  0  0  0  0  0  0
   -1.8688   20.7350  -31.4105 H   0  0  0  0  0  0  0  0  0  0  0  0
   -3.7671   21.8215  -31.3562 H   0  0  0  0  0  0  0  0  0  0  0  0
   -2.8646   22.9256  -32.4710 H   0  0  0  0  0  0  0  0  0  0  0  0
   -4.2390   22.2080  -34.3150 H   0  0  0  0  0  0  0  0  0  0  0  0
   -3.3455   19.6438  -34.2365 H   0  0  0  0  0  0  0  0  0  0  0  0
   -3.1879   17.2185  -34.7627 H   0  0  0  0  0  0  0  0  0  0  0  0
   -5.0658   15.7099  -34.1608 H   0  0  0  0  0  0  0  0  0  0  0  0
   -7.0846   16.6234  -33.0354 H   0  0  0  0  0  0  0  0  0  0  0  0
   -8.6797   18.2279  -30.9387 H   0  0  0  0  0  0  0  0  0  0  0  0
   -9.5189   18.7255  -32.4469 H   0  0  0  0  0  0  0  0  0  0  0  0
   -8.4544   17.2786  -32.4469 H   0  0  0  0  0  0  0  0  0  0  0  0
   -9.4538   20.4013  -31.1830 H   0  0  0  0  0  0  0  0  0  0  0  0
   -9.5175   22.8161  -30.6754 H   0  0  0  0  0  0  0  0  0  0  0  0
   -7.6120   24.2853  -31.2969 H   0  0  0  0  0  0  0  0  0  0  0  0
   -5.6641   23.2784  -32.4381 H   0  0  0  0  0  0  0  0  0  0  0  0
  1  2  1  0
  2  3  1  0
  3  4  1  0
  4  5  1  0
  5  6  1  0
  6  7  1  0
  7  8  1  0
  8  9  1  0
  9 10  1  0
 10 11  1  0
 11 12  1  0
 12 13  1  0
 13 14  1  0
 14 15  1  0
 15 16  1  0
 16 17  2  0
 17 18  1  0
 18 19  2  0
 19 20  1  0
 20 21  2  0
 21 22  1  0
 22 23  2  0
 23 24  1  0
 23 25  1  0
 25 26  2  0
 26 27  1  0
 27 28  2  0
 28 29  1  0
 29 30  2  0
 30 16  1  0
 22 17  1  0
 30 25  1  0
  1 31  1  0
  1 32  1  0
  1 33  1  0
  2 34  1  0
  2 35  1  0
  4 36  1  0
  4 37  1  0
  5 38  1  0
  5 39  1  0
  7 40  1  0
  7 41  1  0
  8 42  1  0
  8 43  1  0
 10 44  1  0
 10 45  1  0
 11 46  1  0
 11 47  1  0
 12 48  1  0
 13 49  1  0
 13 50  1  0
 14 51  1  0
 14 52  1  0
 15 53  1  0
 18 54  1  0
 19 55  1  0
 20 56  1  0
 21 57  1  0
 24 58  1  0
 24 59  1  0
 24 60  1  0
 26 61  1  0
 27 62  1  0
 28 63  1  0
 29 64  1  0
M  CHG  1  23   1
M  END
>  <smiles>  (20) 
CCOCCOCCOCCNCCNc1c2ccccc2[n+](C)c2ccccc12

>  <score_type>  (20) 
oracle

>  <origin>  (20) 
adg

>  <m_score__min__energy>  (20) 
-8.8000000000000007

>  <m_primary>  (20) 
energy

$$$$
22:0
     RDKit          3D

 39 39  0  0  0  0  0  0  0  0999 V2000
   -4.2170   24.1290  -28.5480 C   0  0  0  0  0  0  0  0  0  0  0  0
   -3.4910   24.3230  -29.8330 C   0  0  0  0  0  0  0  0  0  0  0  0
   -4.0960   25.1100  -30.7350 O   0  0  0  0  0  0  0  0  0  0  0  0
   -5.4140   25.2750  -30.8370 C   0  0  0  0  0  0  0  0  0  0  0  0
   -6.2870   24.1850  -31.3450 C   0  0  0  0  0  0  0  0  0  0  0  0
   -5.6860   23.4730  -32.4860 N   0  0  0  0  0  0  0  0  0  0  0  0
   -5.0150   22.2140  -32.1680 C   0  0  0  0  0  0  0  0  0  0  0  0
   -5.0540   21.9320  -30.9570 O   0  0  0  0  0  0  0  0  0  0  0  0
   -4.4210   21.4760  -33.1820 N   0  0  0  0  0  0  0  0  0  0  0  0
   -3.7050   20.2650  -33.2370 C   0  0  0  0  0  0  0  0  0  0  0  0
   -4.3900   18.9800  -33.5020 C   0  0  0  0  0  0  0  0  0  0  0  0
   -5.7090   18.9600  -34.2020 C   0  0  0  0  0  0  0  0  0  0  0  0
   -6.8410   19.1470  -33.2650 C   0  0  0  0  0  0  0  0  0  0  0  0
   -7.4880   18.2090  -32.5350 C   0  0  0  0  0  0  0  0  0  0  0  0
   -8.5450   18.5260  -31.6870 C   0  0  0  0  0  0  0  0  0  0  0  0
   -8.9770   19.8320  -31.5570 C   0  0  0  0  0  0  0  0  0  0  0  0
   -8.2940   20.7710  -32.3180 C   0  0  0  0  0  0  0  0  0  0  0  0
   -7.2800   20.4370  -33.1270 N   0  0  0  0  0  0  0  0  0  0  0  0
   -3.5309   24.3123  -27.7079 H   0  0  0  0  0  0  0  0  0  0  0  0
   -5.0601   24.8334  -28.4933 H   0  0  0  0  0  0  0  0  0  0  0  0
   -4.5964   23.0980  -28.4933 H   0  0  0  0  0  0  0  0  0  0  0  0
   -2.5109   24.7661  -29.6027 H   0  0  0  0  0  0  0  0  0  0  0  0
   -3.4356   23.3271  -30.2967 H   0  0  0  0  0  0  0  0  0  0  0  0
   -5.7769   25.5212  -29.8282 H   0  0  0  0  0  0  0  0  0  0  0  0
   -5.5008   26.0393  -31.6233 H   0  0  0  0  0  0  0  0  0  0  0  0
   -6.4634   23.4652  -30.5321 H   0  0  0  0  0  0  0  0  0  0  0  0
   -7.2272   24.6401  -31.6898 H   0  0  0  0  0  0  0  0  0  0  0  0
   -5.7410   23.8430  -33.4370 H   0  0  0  0  0  0  0  0  0  0  0  0
   -4.5380   21.9550  -34.1750 H   0  0  0  0  0  0  0  0  0  0  0  0
   -2.9503   20.3848  -34.0282 H   0  0  0  0  0  0  0  0  0  0  0  0
   -3.3605   20.1432  -32.1994 H   0  0  0  0  0  0  0  0  0  0  0  0
   -3.7011   18.3736  -34.1083 H   0  0  0  0  0  0  0  0  0  0  0  0
   -4.6369   18.6161  -32.4937 H   0  0  0  0  0  0  0  0  0  0  0  0
   -5.7276   19.7696  -34.9465 H   0  0  0  0  0  0  0  0  0  0  0  0
   -5.8239   17.9756  -34.6792 H   0  0  0  0  0  0  0  0  0  0  0  0
   -7.1674   17.1598  -32.6146 H   0  0  0  0  0  0  0  0  0  0  0  0
   -9.0416   17.7288  -31.1144 H   0  0  0  0  0  0  0  0  0  0  0  0
   -9.8088   20.1099  -30.8930 H   0  0  0  0  0  0  0  0  0  0  0  0
   -8.5963   21.8267  -32.2544 H   0  0  0  0  0  0  0  0  0  0  0  0
  1  2  1  0
  2  3  1  0
  3  4  1  0
  4  5  1  0
  5  6  1  0
  6  7  1  0
  7  8  2  0
  7  9  1  0
  9 10  1  0
 10 11  1  0
 11 12  1  0
 12 13  1  0
 13 14  2  0
 14 15  1  0
 15 16  2  0
 16 17  1  0
 17 18  2  0
 18 13  1  0
  1 19  1  0
  1 20  1  0
  1 21  1  0
  2 22  1  0
  2 23  1  0
  4 24  1  0
  4 25  1  0
  5 26  1  0
  5 27  1  0
  6 28  1  0
  9 29  1  0
 10 30  1  0
 10 31  1  0
 11 32  1  0
 11 33  1  0
 12 34  1  0
 12 35  1  0
 14 36  1  0
 15 37  1  0
 16 38  1  0
 17 39  1  0
M  END
>  <smiles>  (21) 
CCOCCNC(=O)NCCCc1ccccn1

>  <score_type>  (21) 
oracle

>  <origin>  (21) 
adg

>  <m_score__min__energy>  (21) 
-7.0199999999999996

>  <m_primary>  (21) 
energy

$$$$
