0:0
     RDKit          3D

 61 65  0  0  0  0  0  0  0  0999 V2000
   -5.4680   24.9420  -30.0770 C   0  0  0  0  0  0  0  0  0  0  0  0
   -5.4680   23.5650  -29.4080 C   0  0  0  0  0  0  0  0  0  0  0  0
   -4.2100   22.8130  -29.6570 N   0  0  0  0  0  0  0  0  0  0  0  0
   -3.2490   22.9050  -28.5180 C   0  0  0  0  0  0  0  0  0  0  0  0
   -2.9680   21.5370  -27.8850 C   0  0  0  0  0  0  0  0  0  0  0  0
   -3.5920   23.1760  -30.9630 C   0  0  0  0  0  0  0  0  0  0  0  0
   -3.4400   22.0250  -31.9920 C   0  0  0  0  0  0  0  0  0  0  0  0
   -4.5350   21.9910  -32.9610 N   0  0  0  0  0  0  0  0  0  0  0  0
   -5.6140   21.0550  -32.7820 C   0  0  0  0  0  0  0  0  0  0  0  0
   -6.8960   21.5130  -32.4310 C   0  0  0  0  0  0  0  0  0  0  0  0
   -7.1600   22.8940  -32.2940 C   0  0  0  0  0  0  0  0  0  0  0  0
   -8.4410   23.3460  -31.9890 C   0  0  0  0  0  0  0  0  0  0  0  0
   -9.4810   22.4390  -31.8310 C   0  0  0  0  0  0  0  0  0  0  0  0
   -9.2430   21.0710  -31.9550 C   0  0  0  0  0  0  0  0  0  0  0  0
   -7.9420   20.5760  -32.2290 C   0  0  0  0  0  0  0  0  0  0  0  0
   -7.6890   19.2200  -32.3160 N   0  0  0  0  0  0  0  0  0  0  0  0
   -8.6520   18.2620  -31.7290 C   0  0  0  0  0  0  0  0  0  0  0  0
   -6.4970   18.7720  -32.8620 C   0  0  0  0  0  0  0  0  0  0  0  0
   -6.2970   17.4220  -33.2930 C   0  0  0  0  0  0  0  0  0  0  0  0
   -7.2600   16.6140  -33.3760 O   0  0  0  0  0  0  0  0  0  0  0  0
   -5.0520   17.0250  -33.6820 N   0  0  0  0  0  0  0  0  0  0  0  0
   -4.0000   17.8690  -33.7380 C   0  0  0  0  0  0  0  0  0  0  0  0
   -4.1510   19.2090  -33.4260 C   0  0  0  0  0  0  0  0  0  0  0  0
   -5.4130   19.6840  -33.0240 C   0  0  0  0  0  0  0  0  0  0  0  0
   -2.7360   17.2180  -34.2240 C   0  0  0  0  0  0  0  0  0  0  0  0
   -3.2400   15.8290  -34.4450 C   0  0  0  0  0  0  0  0  0  0  0  0
   -2.5360   14.7130  -34.8960 C   0  0  0  0  0  0  0  0  0  0  0  0
   -3.2220   13.4960  -35.0180 C   0  0  0  0  0  0  0  0  0  0  0  0
   -4.5880   13.4120  -34.6850 C   0  0  0  0  0  0  0  0  0  0  0  0
   -5.2820   14.5460  -34.2310 C   0  0  0  0  0  0  0  0  0  0  0  0
   -4.5800   15.7550  -34.1240 C   0  0  0  0  0  0  0  0  0  0  0  0
   -4.4309   25.2718  -30.2372 H   0  0  0  0  0  0  0  0  0  0  0  0
   -5.9865   24.8793  -31.0451 H   0  0  0  0  0  0  0  0  0  0  0  0
   -5.9865   25.6643  -29.4294 H   0  0  0  0  0  0  0  0  0  0  0  0
   -5.5901   23.6995  -28.3231 H   0  0  0  0  0  0  0  0  0  0  0  0
   -6.2967   22.9835  -29.8383 H   0  0  0  0  0  0  0  0  0  0  0  0
   -4.4870   21.8080  -29.7830 H   0  0  0  0  0  0  0  0  0  0  0  0
   -2.3020   23.3259  -28.8867 H   0  0  0  0  0  0  0  0  0  0  0  0
   -3.6996   23.5475  -27.7472 H   0  0  0  0  0  0  0  0  0  0  0  0
   -2.9870   21.6293  -26.7890 H   0  0  0  0  0  0  0  0  0  0  0  0
   -3.7375   20.8195  -28.2059 H   0  0  0  0  0  0  0  0  0  0  0  0
   -1.9780   21.1809  -28.2059 H   0  0  0  0  0  0  0  0  0  0  0  0
   -4.2144   23.9576  -31.4231 H   0  0  0  0  0  0  0  0  0  0  0  0
   -2.5667   23.4955  -30.7249 H   0  0  0  0  0  0  0  0  0  0  0  0
   -2.4928   22.1600  -32.5348 H   0  0  0  0  0  0  0  0  0  0  0  0
   -3.4563   21.0759  -31.4362 H   0  0  0  0  0  0  0  0  0  0  0  0
   -4.3360   22.2900  -33.9430 H   0  0  0  0  0  0  0  0  0  0  0  0
   -6.3448   23.6199  -32.4297 H   0  0  0  0  0  0  0  0  0  0  0  0
   -8.6298   24.4234  -31.8729 H   0  0  0  0  0  0  0  0  0  0  0  0
  -10.4953   22.8011  -31.6074 H   0  0  0  0  0  0  0  0  0  0  0  0
  -10.0775   20.3639  -31.8385 H   0  0  0  0  0  0  0  0  0  0  0  0
   -8.5990   18.3148  -30.6315 H   0  0  0  0  0  0  0  0  0  0  0  0
   -9.6699   18.5163  -32.0595 H   0  0  0  0  0  0  0  0  0  0  0  0
   -8.4030   17.2428  -32.0595 H   0  0  0  0  0  0  0  0  0  0  0  0
   -3.2937   19.8952  -33.4916 H   0  0  0  0  0  0  0  0  0  0  0  0
   -2.3717   17.6750  -35.1559 H   0  0  0  0  0  0  0  0  0  0  0  0
   -1.8764   17.3002  -33.5426 H   0  0  0  0  0  0  0  0  0  0  0  0
   -1.4682   14.7855  -35.1500 H   0  0  0  0  0  0  0  0  0  0  0  0
   -2.6903   12.6020  -35.3758 H   0  0  0  0  0  0  0  0  0  0  0  0
   -5.1153   12.4514  -34.7811 H   0  0  0  0  0  0  0  0  0  0  0  0
   -6.3481   14.4870  -33.9664 H   0  0  0  0  0  0  0  0  0  0  0  0
  1  2  1  0
  2  3  1  0
  3  4  1  0
  4  5  1  0
  3  6  1  0
  6  7  1  0
  7  8  1  0
  8  9  1  0
  9 10  2  0
 10 11  1  0
 11 12  2  0
 12 13  1  0
 13 14  2  0
 14 15  1  0
 15 16  2  0
 16 17  1  0
 16 18  1  0
 18 19  1  0
 19 20  2  0
 19 21  1  0
 21 22  1  0
 22 23  2  0
 23 24  1  0
 22 25  1  0
 25 26  1  0
 26 27  2  0
 27 28  1  0
 28 29  2  0
 29 30  1  0
 30 31  2  0
 24  9  1  0
 31 26  1  0
 15 10  1  0
 24 18  2  0
 31 21  1  0
  1 32  1  0
  1 33  1  0
  1 34  1  0
  2 35  1  0
  2 36  1  0
  3 37  1  0
  4 38  1  0
  4 39  1  0
  5 40  1  0
  5 41  1  0
  5 42  1  0
  6 43  1  0
  6 44  1  0
  7 45  1  0
  7 46  1  0
  8 47  1  0
 11 48  1  0
 12 49  1  0
 13 50  1  0
 14 51  1  0
 17 52  1  0
 17 53  1  0
 17 54  1  0
 23 55  1  0
 25 56  1  0
 25 57  1  0
 27 58  1  0
 28 59  1  0
 29 60  1  0
 30 61  1  0
M  CHG  2   3   1  16   1
M  END
>  <UniqueID>  (1) 
1

>  <SMILES>  (1) 
CC[NH+](CC)CCNc1c2ccccc2[n+](C)c2c(=O)n3c(cc12)Cc1ccccc1-3

>  <Energy>  (1) 
128.60636470646173

>  <Genealogy>  (1) 
CC[NH+](CC)CCNc1c2ccccc2[n+](C)c2c(=O)n3c(cc12)Cc1ccccc1-3 (protonated)
CC[NH+](CC)CCNc1c2ccccc2[n+](C)c2c(=O)n3c(cc12)Cc1ccccc1-3 (3D coordinates assigned)
CC[NH+](CC)CCNc1c2ccccc2[n+](C)c2c(=O)n3c(cc12)Cc1ccccc1-3 (nonaromatic ring conformer: 128.60636470646173 kcal/mol)

>  <smiles>  (1) 
CCN(CC)CCNc1c2ccccc2[n+](C)c2c(=O)n3c(cc12)Cc1ccccc1-3

>  <score_type>  (1) 
oracle

>  <origin>  (1) 
adg

>  <m_score__min__energy>  (1) 
-8.1600000000000001

>  <m_primary>  (1) 
energy

$$$$
1:0
     RDKit          3D

 33 35  0  0  0  0  0  0  0  0999 V2000
   -6.4720   25.6660  -29.3820 C   0  0  0  0  0  0  0  0  0  0  0  0
   -5.8030   24.3520  -29.7660 C   0  0  0  0  0  0  0  0  0  0  0  0
   -5.6100   24.2130  -31.5770 S   0  0  0  0  0  0  0  0  0  0  0  0
   -6.7130   22.8090  -31.7460 C   0  0  0  0  0  0  0  0  0  0  0  0
   -6.2470   21.6510  -32.2780 N   0  0  0  0  0  0  0  0  0  0  0  0
   -7.0530   20.5650  -32.4220 C   0  0  0  0  0  0  0  0  0  0  0  0
   -8.3890   20.6350  -31.9990 C   0  0  0  0  0  0  0  0  0  0  0  0
   -8.8500   21.8400  -31.4610 C   0  0  0  0  0  0  0  0  0  0  0  0
   -8.0070   22.8980  -31.3340 N   0  0  0  0  0  0  0  0  0  0  0  0
   -9.3310   19.4820  -32.2320 C   0  0  0  0  0  0  0  0  0  0  0  0
   -8.6360   18.2430  -32.4030 O   0  0  0  0  0  0  0  0  0  0  0  0
   -7.3460   18.1620  -32.9390 C   0  0  0  0  0  0  0  0  0  0  0  0
   -6.8650   16.9370  -33.4100 C   0  0  0  0  0  0  0  0  0  0  0  0
   -5.5770   16.8460  -33.9410 C   0  0  0  0  0  0  0  0  0  0  0  0
   -4.7480   17.9780  -33.9870 C   0  0  0  0  0  0  0  0  0  0  0  0
   -3.3790   17.8870  -34.5930 C   0  0  0  0  0  0  0  0  0  0  0  0
   -5.2320   19.2090  -33.5170 C   0  0  0  0  0  0  0  0  0  0  0  0
   -6.5290   19.3030  -32.9830 C   0  0  0  0  0  0  0  0  0  0  0  0
   -6.5144   25.7493  -28.2860 H   0  0  0  0  0  0  0  0  0  0  0  0
   -5.8919   26.5062  -29.7914 H   0  0  0  0  0  0  0  0  0  0  0  0
   -7.4927   25.6912  -29.7914 H   0  0  0  0  0  0  0  0  0  0  0  0
   -4.8103   24.3037  -29.2947 H   0  0  0  0  0  0  0  0  0  0  0  0
   -6.4380   23.5236  -29.4190 H   0  0  0  0  0  0  0  0  0  0  0  0
   -9.8980   21.9319  -31.1396 H   0  0  0  0  0  0  0  0  0  0  0  0
   -8.3630   23.7900  -30.9240 H   0  0  0  0  0  0  0  0  0  0  0  0
  -10.0043   19.3941  -31.3666 H   0  0  0  0  0  0  0  0  0  0  0  0
   -9.8918   19.6853  -33.1562 H   0  0  0  0  0  0  0  0  0  0  0  0
   -7.5030   16.0422  -33.3622 H   0  0  0  0  0  0  0  0  0  0  0  0
   -5.2100   15.8828  -34.3251 H   0  0  0  0  0  0  0  0  0  0  0  0
   -2.6262   17.8370  -33.7925 H   0  0  0  0  0  0  0  0  0  0  0  0
   -3.3129   16.9825  -35.2155 H   0  0  0  0  0  0  0  0  0  0  0  0
   -3.1938   18.7748  -35.2155 H   0  0  0  0  0  0  0  0  0  0  0  0
   -4.5939   20.1036  -33.5667 H   0  0  0  0  0  0  0  0  0  0  0  0
  1  2  1  0
  2  3  1  0
  3  4  1  0
  4  5  2  0
  5  6  1  0
  6  7  2  0
  7  8  1  0
  8  9  2  0
  7 10  1  0
 10 11  1  0
 11 12  1  0
 12 13  2  0
 13 14  1  0
 14 15  2  0
 15 16  1  0
 15 17  1  0
 17 18  2  0
  9  4  1  0
 18 12  1  0
 18  6  1  0
  1 19  1  0
  1 20  1  0
  1 21  1  0
  2 22  1  0
  2 23  1  0
  8 24  1  0
  9 25  1  0
 10 26  1  0
 10 27  1  0
 13 28  1  0
 14 29  1  0
 16 30  1  0
 16 31  1  0
 16 32  1  0
 17 33  1  0
M  CHG  1   9   1
M  END
>  <UniqueID>  (2) 
2

>  <SMILES>  (2) 
CCSc1nc2c(c[nH+]1)COc1ccc(C)cc1-2

>  <Energy>  (2) 
32.64993234074231

>  <Genealogy>  (2) 
CCSc1nc2c(c[nH+]1)COc1ccc(C)cc1-2 (protonated)
CCSc1nc2c(c[nH+]1)COc1ccc(C)cc1-2 (3D coordinates assigned)
CCSc1nc2c(c[nH+]1)COc1ccc(C)cc1-2 (nonaromatic ring conformer: 32.64993234074231 kcal/mol)

>  <smiles>  (2) 
CCSc1ncc2c(n1)-c1cc(C)ccc1OC2

>  <score_type>  (2) 
oracle

>  <origin>  (2) 
adg

>  <m_score__min__energy>  (2) 
-6.8099999999999996

>  <m_primary>  (2) 
energy

$$$$
2:0
     RDKit          3D

 58 62  0  0  0  0  0  0  0  0999 V2000
    2.0740   19.6630  -32.6950 C   0  0  0  0  0  0  0  0  0  0  0  0
    0.9020   20.4680  -32.6280 O   0  0  0  0  0  0  0  0  0  0  0  0
   -0.4110   19.9950  -32.7830 C   0  0  0  0  0  0  0  0  0  0  0  0
   -0.7230   19.0300  -33.7590 C   0  0  0  0  0  0  0  0  0  0  0  0
   -2.0380   18.5770  -33.9300 C   0  0  0  0  0  0  0  0  0  0  0  0
   -2.2960   17.5000  -34.7890 C   0  0  0  0  0  0  0  0  0  0  0  0
   -3.5720   16.9450  -34.8530 C   0  0  0  0  0  0  0  0  0  0  0  0
   -4.6350   17.5370  -34.1630 C   0  0  0  0  0  0  0  0  0  0  0  0
   -5.9050   16.9450  -34.1780 C   0  0  0  0  0  0  0  0  0  0  0  0
   -6.9600   17.5670  -33.5170 C   0  0  0  0  0  0  0  0  0  0  0  0
   -6.7470   18.7870  -32.9590 N   0  0  0  0  0  0  0  0  0  0  0  0
   -7.6710   19.6510  -32.4970 C   0  0  0  0  0  0  0  0  0  0  0  0
   -9.0530   19.4730  -32.3690 C   0  0  0  0  0  0  0  0  0  0  0  0
   -9.8270   20.5850  -31.9960 C   0  0  0  0  0  0  0  0  0  0  0  0
   -9.2210   21.8430  -31.7980 C   0  0  0  0  0  0  0  0  0  0  0  0
   -7.8330   22.0020  -31.9610 C   0  0  0  0  0  0  0  0  0  0  0  0
   -7.0770   20.8710  -32.2830 C   0  0  0  0  0  0  0  0  0  0  0  0
   -5.7370   20.6980  -32.6180 C   0  0  0  0  0  0  0  0  0  0  0  0
   -4.8590   21.7670  -33.0110 N   0  0  0  0  0  0  0  0  0  0  0  0
   -4.2430   22.6820  -32.0530 C   0  0  0  0  0  0  0  0  0  0  0  0
   -5.2790   23.6930  -31.5540 C   0  0  0  0  0  0  0  0  0  0  0  0
   -4.6200   24.7930  -30.8150 N   0  0  0  0  0  0  0  0  0  0  0  0
   -5.6290   25.6650  -30.1910 C   0  0  0  0  0  0  0  0  0  0  0  0
   -3.7210   24.2640  -29.7730 C   0  0  0  0  0  0  0  0  0  0  0  0
   -5.5580   19.3930  -32.9800 N   0  0  0  0  0  0  0  0  0  0  0  0
   -4.4330   18.7410  -33.4400 C   0  0  0  0  0  0  0  0  0  0  0  0
   -3.0940   19.1600  -33.1870 C   0  0  0  0  0  0  0  0  0  0  0  0
   -2.7530   20.0240  -32.1300 C   0  0  0  0  0  0  0  0  0  0  0  0
   -1.4410   20.4700  -31.9360 C   0  0  0  0  0  0  0  0  0  0  0  0
   -1.2360   21.3750  -30.8790 O   0  0  0  0  0  0  0  0  0  0  0  0
   -0.9190   21.0450  -29.5310 C   0  0  0  0  0  0  0  0  0  0  0  0
    2.4161   19.4280  -31.6763 H   0  0  0  0  0  0  0  0  0  0  0  0
    1.8473   18.7291  -33.2302 H   0  0  0  0  0  0  0  0  0  0  0  0
    2.8643   20.2098  -33.2302 H   0  0  0  0  0  0  0  0  0  0  0  0
    0.0769   18.6256  -34.3967 H   0  0  0  0  0  0  0  0  0  0  0  0
   -1.4884   17.0918  -35.4145 H   0  0  0  0  0  0  0  0  0  0  0  0
   -3.7445   16.0367  -35.4491 H   0  0  0  0  0  0  0  0  0  0  0  0
   -6.0670   15.9951  -34.7086 H   0  0  0  0  0  0  0  0  0  0  0  0
   -7.9446   17.0814  -33.4479 H   0  0  0  0  0  0  0  0  0  0  0  0
   -9.5187   18.4938  -32.5544 H   0  0  0  0  0  0  0  0  0  0  0  0
  -10.9125   20.4735  -31.8576 H   0  0  0  0  0  0  0  0  0  0  0  0
   -9.8392   22.7073  -31.5136 H   0  0  0  0  0  0  0  0  0  0  0  0
   -7.3570   22.9861  -31.8389 H   0  0  0  0  0  0  0  0  0  0  0  0
   -4.5290   21.8000  -34.0020 H   0  0  0  0  0  0  0  0  0  0  0  0
   -3.8538   22.1078  -31.1993 H   0  0  0  0  0  0  0  0  0  0  0  0
   -3.4206   23.2211  -32.5460 H   0  0  0  0  0  0  0  0  0  0  0  0
   -5.8210   24.1102  -32.4155 H   0  0  0  0  0  0  0  0  0  0  0  0
   -5.9776   23.1797  -30.8769 H   0  0  0  0  0  0  0  0  0  0  0  0
   -5.5477   25.5948  -29.0963 H   0  0  0  0  0  0  0  0  0  0  0  0
   -5.4593   26.7054  -30.5053 H   0  0  0  0  0  0  0  0  0  0  0  0
   -6.6338   25.3463  -30.5053 H   0  0  0  0  0  0  0  0  0  0  0  0
   -4.1291   24.5042  -28.7801 H   0  0  0  0  0  0  0  0  0  0  0  0
   -3.6371   23.1725  -29.8807 H   0  0  0  0  0  0  0  0  0  0  0  0
   -2.7261   24.7207  -29.8807 H   0  0  0  0  0  0  0  0  0  0  0  0
   -3.5394   20.3580  -31.4372 H   0  0  0  0  0  0  0  0  0  0  0  0
   -1.5177   21.6682  -28.8504 H   0  0  0  0  0  0  0  0  0  0  0  0
   -1.1449   19.9837  -29.3505 H   0  0  0  0  0  0  0  0  0  0  0  0
    0.1505   21.2281  -29.3505 H   0  0  0  0  0  0  0  0  0  0  0  0
  1  2  1  0
  2  3  1  0
  3  4  2  0
  4  5  1  0
  5  6  2  0
  6  7  1  0
  7  8  2  0
  8  9  1  0
  9 10  2  0
 10 11  1  0
 11 12  2  0
 12 13  1  0
 13 14  2  0
 14 15  1  0
 15 16  2  0
 16 17  1  0
 17 18  2  0
 18 19  1  0
 19 20  1  0
 20 21  1  0
 21 22  1  0
 22 23  1  0
 22 24  1  0
 18 25  1  0
 25 26  1  0
 26 27  2  0
 27 28  1  0
 28 29  2  0
 29 30  1  0
 30 31  1  0
 29  3  1  0
 27  5  1  0
 26  8  1  0
 25 11  1  0
 17 12  1  0
  1 32  1  0
  1 33  1  0
  1 34  1  0
  4 35  1  0
  6 36  1  0
  7 37  1  0
  9 38  1  0
 10 39  1  0
 13 40  1  0
 14 41  1  0
 15 42  1  0
 16 43  1  0
 19 44  1  0
 20 45  1  0
 20 46  1  0
 21 47  1  0
 21 48  1  0
 23 49  1  0
 23 50  1  0
 23 51  1  0
 24 52  1  0
 24 53  1  0
 24 54  1  0
 28 55  1  0
 31 56  1  0
 31 57  1  0
 31 58  1  0
M  CHG  1  11   1
M  END
>  <UniqueID>  (3) 
3

>  <SMILES>  (3) 
COc1cc2ccc3cc[n+]4c5ccccc5c(NCCN(C)C)n4c3c2cc1OC

>  <Energy>  (3) 
136.18791418223614

>  <Genealogy>  (3) 
COc1cc2ccc3cc[n+]4c5ccccc5c(NCCN(C)C)n4c3c2cc1OC (3D coordinates assigned)
COc1cc2ccc3cc[n+]4c5ccccc5c(NCCN(C)C)n4c3c2cc1OC (optimized conformer: 136.18791418223614 kcal/mol)

>  <smiles>  (3) 
COc1cc2ccc3cc[n+]4c5ccccc5c(NCCN(C)C)n4c3c2cc1OC

>  <score_type>  (3) 
oracle

>  <origin>  (3) 
adg

>  <m_score__min__energy>  (3) 
-9.1400000000000006

>  <m_primary>  (3) 
energy

$$$$
3:0
     RDKit          3D

 57 59  0  0  0  0  0  0  0  0999 V2000
    1.0800   24.1770  -27.4000 C   0  0  0  0  0  0  0  0  0  0  0  0
    0.0690   24.8620  -28.2220 N   0  0  0  0  0  0  0  0  0  0  0  0
   -0.8470   25.6090  -27.3460 C   0  0  0  0  0  0  0  0  0  0  0  0
   -0.6810   23.8950  -29.0500 C   0  0  0  0  0  0  0  0  0  0  0  0
   -2.1730   23.9360  -28.7130 C   0  0  0  0  0  0  0  0  0  0  0  0
   -2.8300   24.9550  -29.5230 N   0  0  0  0  0  0  0  0  0  0  0  0
   -3.8590   24.6610  -30.4690 C   0  0  0  0  0  0  0  0  0  0  0  0
   -4.7490   25.5180  -30.7310 O   0  0  0  0  0  0  0  0  0  0  0  0
   -3.9030   23.3470  -31.1170 C   0  0  0  0  0  0  0  0  0  0  0  0
   -5.0500   22.5810  -31.3100 C   0  0  0  0  0  0  0  0  0  0  0  0
   -4.6030   21.4500  -31.9600 C   0  0  0  0  0  0  0  0  0  0  0  0
   -5.2630   20.3180  -32.4490 C   0  0  0  0  0  0  0  0  0  0  0  0
   -6.7210   20.1130  -32.2820 C   0  0  0  0  0  0  0  0  0  0  0  0
   -7.2470   18.8250  -32.0800 C   0  0  0  0  0  0  0  0  0  0  0  0
   -8.6260   18.6400  -31.9460 C   0  0  0  0  0  0  0  0  0  0  0  0
   -9.4920   19.7340  -32.0170 C   0  0  0  0  0  0  0  0  0  0  0  0
   -8.9800   21.0180  -32.2190 C   0  0  0  0  0  0  0  0  0  0  0  0
   -9.8200   22.0810  -32.2800 F   0  0  0  0  0  0  0  0  0  0  0  0
   -7.6000   21.2080  -32.3550 C   0  0  0  0  0  0  0  0  0  0  0  0
   -4.4720   19.3660  -33.1300 C   0  0  0  0  0  0  0  0  0  0  0  0
   -3.0800   19.5750  -33.2920 C   0  0  0  0  0  0  0  0  0  0  0  0
   -2.2980   18.6100  -34.0130 N   0  0  0  0  0  0  0  0  0  0  0  0
   -2.5630   17.1700  -33.9820 C   0  0  0  0  0  0  0  0  0  0  0  0
   -3.6710   16.8030  -34.9750 C   0  0  0  0  0  0  0  0  0  0  0  0
   -4.8180   16.1570  -34.2980 N   0  0  0  0  0  0  0  0  0  0  0  0
   -4.5780   16.0360  -32.8490 C   0  0  0  0  0  0  0  0  0  0  0  0
   -6.0420   16.9410  -34.5220 C   0  0  0  0  0  0  0  0  0  0  0  0
   -2.4940   20.7000  -32.7790 N   0  0  0  0  0  0  0  0  0  0  0  0
   -3.2570   21.6100  -32.1290 C   0  0  0  0  0  0  0  0  0  0  0  0
   -2.8420   22.7390  -31.6160 O   0  0  0  0  0  0  0  0  0  0  0  0
    0.8524   24.3312  -26.3349 H   0  0  0  0  0  0  0  0  0  0  0  0
    1.0677   23.1004  -27.6254 H   0  0  0  0  0  0  0  0  0  0  0  0
    2.0753   24.5875  -27.6254 H   0  0  0  0  0  0  0  0  0  0  0  0
   -0.5967   25.4049  -26.2945 H   0  0  0  0  0  0  0  0  0  0  0  0
   -0.7470   26.6863  -27.5443 H   0  0  0  0  0  0  0  0  0  0  0  0
   -1.8822   25.2943  -27.5443 H   0  0  0  0  0  0  0  0  0  0  0  0
   -0.5438   24.1465  -30.1120 H   0  0  0  0  0  0  0  0  0  0  0  0
   -0.3000   22.8837  -28.8445 H   0  0  0  0  0  0  0  0  0  0  0  0
   -2.6229   22.9546  -28.9238 H   0  0  0  0  0  0  0  0  0  0  0  0
   -2.3002   24.1784  -27.6476 H   0  0  0  0  0  0  0  0  0  0  0  0
   -6.0805   22.8236  -31.0112 H   0  0  0  0  0  0  0  0  0  0  0  0
   -6.5705   17.9592  -32.0272 H   0  0  0  0  0  0  0  0  0  0  0  0
   -9.0306   17.6300  -31.7842 H   0  0  0  0  0  0  0  0  0  0  0  0
  -10.5769   19.5844  -31.9139 H   0  0  0  0  0  0  0  0  0  0  0  0
   -7.2009   22.2197  -32.5199 H   0  0  0  0  0  0  0  0  0  0  0  0
   -4.9395   18.4572  -33.5369 H   0  0  0  0  0  0  0  0  0  0  0  0
   -1.4760   18.9430  -34.5670 H   0  0  0  0  0  0  0  0  0  0  0  0
   -1.6441   16.6277  -34.2493 H   0  0  0  0  0  0  0  0  0  0  0  0
   -2.8888   16.8915  -32.9689 H   0  0  0  0  0  0  0  0  0  0  0  0
   -4.0207   17.7188  -35.4740 H   0  0  0  0  0  0  0  0  0  0  0  0
   -3.2570   16.0914  -35.7046 H   0  0  0  0  0  0  0  0  0  0  0  0
   -5.4288   16.4650  -32.2993 H   0  0  0  0  0  0  0  0  0  0  0  0
   -4.4674   14.9744  -32.5831 H   0  0  0  0  0  0  0  0  0  0  0  0
   -3.6587   16.5783  -32.5831 H   0  0  0  0  0  0  0  0  0  0  0  0
   -6.4802   17.2217  -33.5529 H   0  0  0  0  0  0  0  0  0  0  0  0
   -5.7962   17.8502  -35.0903 H   0  0  0  0  0  0  0  0  0  0  0  0
   -6.7651   16.3376  -35.0903 H   0  0  0  0  0  0  0  0  0  0  0  0
  1  2  1  0
  2  3  1  0
  2  4  1  0
  4  5  1  0
  5  6  1  0
  6  7  1  0
  7  8  2  0
  7  9  1  0
  9 10  2  0
 10 11  1  0
 11 12  2  0
 12 13  1  0
 13 14  2  0
 14 15  1  0
 15 16  2  0
 16 17  1  0
 17 18  1  0
 17 19  2  0
 12 20  1  0
 20 21  2  0
 21 22  1  0
 22 23  1  0
 23 24  1  0
 24 25  1  0
 25 26  1  0
 25 27  1  0
 21 28  1  0
 28 29  2  0
 29 30  1  0
 30  9  1  0
 29 11  1  0
 19 13  1  0
  1 31  1  0
  1 32  1  0
  1 33  1  0
  3 34  1  0
  3 35  1  0
  3 36  1  0
  4 37  1  0
  4 38  1  0
  5 39  1  0
  5 40  1  0
 10 41  1  0
 14 42  1  0
 15 43  1  0
 16 44  1  0
 19 45  1  0
 20 46  1  0
 22 47  1  0
 23 48  1  0
 23 49  1  0
 24 50  1  0
 24 51  1  0
 26 52  1  0
 26 53  1  0
 26 54  1  0
 27 55  1  0
 27 56  1  0
 27 57  1  0
M  CHG  1   6  -1
M  END
>  <UniqueID>  (4) 
4

>  <SMILES>  (4) 
CN(C)CC[N-]C(=O)c1cc2c(-c3cccc(F)c3)cc(NCCN(C)C)nc2o1

>  <Energy>  (4) 
93.40685894636415

>  <Genealogy>  (4) 
CN(C)CC[N-]C(=O)c1cc2c(-c3cccc(F)c3)cc(NCCN(C)C)nc2o1 (protonated)
CN(C)CC[N-]C(=O)c1cc2c(-c3cccc(F)c3)cc(NCCN(C)C)nc2o1 (3D coordinates assigned)
CN(C)CC[N-]C(=O)c1cc2c(-c3cccc(F)c3)cc(NCCN(C)C)nc2o1 (optimized conformer: 93.40685894636415 kcal/mol)

>  <smiles>  (4) 
CN(C)CCNC(=O)c1cc2c(-c3cccc(F)c3)cc(NCCN(C)C)nc2o1

>  <score_type>  (4) 
oracle

>  <origin>  (4) 
adg

>  <m_score__min__energy>  (4) 
-10.039999999999999

>  <m_primary>  (4) 
energy

$$$$
4:0
     RDKit          3D

 39 41  0  0  0  0  0  0  0  0999 V2000
   -8.9570   19.6900  -31.9690 C   0  0  0  0  0  0  0  0  0  0  0  0
   -7.5130   19.8980  -32.3170 C   0  0  0  0  0  0  0  0  0  0  0  0
   -6.8950   19.0910  -33.2840 C   0  0  0  0  0  0  0  0  0  0  0  0
   -5.5600   19.3100  -33.6340 C   0  0  0  0  0  0  0  0  0  0  0  0
   -4.8320   20.3430  -33.0360 C   0  0  0  0  0  0  0  0  0  0  0  0
   -3.1390   20.5440  -33.4700 Cl  0  0  0  0  0  0  0  0  0  0  0  0
   -5.4490   21.1730  -32.0780 C   0  0  0  0  0  0  0  0  0  0  0  0
   -4.7280   22.2540  -31.4660 N   0  0  0  0  0  0  0  0  0  0  0  0
   -3.5350   22.1700  -30.8560 C   0  0  0  0  0  0  0  0  0  0  0  0
   -3.2010   23.4300  -30.4100 C   0  0  0  0  0  0  0  0  0  0  0  0
   -1.9490   23.8030  -29.6770 C   0  0  0  0  0  0  0  0  0  0  0  0
   -1.9760   25.1750  -29.2810 O   0  0  0  0  0  0  0  0  0  0  0  0
   -1.7020   25.6510  -27.9880 C   0  0  0  0  0  0  0  0  0  0  0  0
   -0.7420   26.6590  -27.8430 C   0  0  0  0  0  0  0  0  0  0  0  0
   -0.4220   27.1580  -26.5760 C   0  0  0  0  0  0  0  0  0  0  0  0
   -1.0640   26.6530  -25.4430 C   0  0  0  0  0  0  0  0  0  0  0  0
   -2.0280   25.6500  -25.5760 C   0  0  0  0  0  0  0  0  0  0  0  0
   -2.3520   25.1500  -26.8410 C   0  0  0  0  0  0  0  0  0  0  0  0
   -4.1610   24.3130  -30.7560 N   0  0  0  0  0  0  0  0  0  0  0  0
   -5.0830   23.5570  -31.3910 C   0  0  0  0  0  0  0  0  0  0  0  0
   -6.3450   24.1280  -31.9580 C   0  0  0  0  0  0  0  0  0  0  0  0
   -6.7890   20.9470  -31.7300 C   0  0  0  0  0  0  0  0  0  0  0  0
   -9.0718   19.6735  -30.8751 H   0  0  0  0  0  0  0  0  0  0  0  0
   -9.5572   20.5110  -32.3883 H   0  0  0  0  0  0  0  0  0  0  0  0
   -9.3011   18.7330  -32.3883 H   0  0  0  0  0  0  0  0  0  0  0  0
   -7.4632   18.2832  -33.7683 H   0  0  0  0  0  0  0  0  0  0  0  0
   -5.0789   18.6657  -34.3846 H   0  0  0  0  0  0  0  0  0  0  0  0
   -2.9320   21.2581  -30.7341 H   0  0  0  0  0  0  0  0  0  0  0  0
   -1.8555   23.1719  -28.7809 H   0  0  0  0  0  0  0  0  0  0  0  0
   -1.0914   23.6493  -30.3484 H   0  0  0  0  0  0  0  0  0  0  0  0
   -0.2352   27.0620  -28.7322 H   0  0  0  0  0  0  0  0  0  0  0  0
    0.3357   27.9486  -26.4719 H   0  0  0  0  0  0  0  0  0  0  0  0
   -0.8110   27.0445  -24.4467 H   0  0  0  0  0  0  0  0  0  0  0  0
   -2.5332   25.2528  -24.6832 H   0  0  0  0  0  0  0  0  0  0  0  0
   -3.1153   24.3644  -26.9417 H   0  0  0  0  0  0  0  0  0  0  0  0
   -7.0121   24.4298  -31.1371 H   0  0  0  0  0  0  0  0  0  0  0  0
   -6.1050   25.0052  -32.5768 H   0  0  0  0  0  0  0  0  0  0  0  0
   -6.8454   23.3686  -32.5768 H   0  0  0  0  0  0  0  0  0  0  0  0
   -7.2769   21.5983  -30.9899 H   0  0  0  0  0  0  0  0  0  0  0  0
  1  2  1  0
  2  3  2  0
  3  4  1  0
  4  5  2  0
  5  6  1  0
  5  7  1  0
  7  8  1  0
  8  9  1  0
  9 10  2  0
 10 11  1  0
 11 12  1  0
 12 13  1  0
 13 14  2  0
 14 15  1  0
 15 16  2  0
 16 17  1  0
 17 18  2  0
 10 19  1  0
 19 20  2  0
 20 21  1  0
  7 22  2  0
 22  2  1  0
 20  8  1  0
 18 13  1  0
  1 23  1  0
  1 24  1  0
  1 25  1  0
  3 26  1  0
  4 27  1  0
  9 28  1  0
 11 29  1  0
 11 30  1  0
 14 31  1  0
 15 32  1  0
 16 33  1  0
 17 34  1  0
 18 35  1  0
 21 36  1  0
 21 37  1  0
 21 38  1  0
 22 39  1  0
M  END
>  <UniqueID>  (5) 
5

>  <SMILES>  (5) 
Cc1ccc(Cl)c(-n2cc(COc3ccccc3)nc2C)c1

>  <Energy>  (5) 
74.02067482377446

>  <Genealogy>  (5) 
Cc1ccc(Cl)c(-n2cc(COc3ccccc3)nc2C)c1 (3D coordinates assigned)
Cc1ccc(Cl)c(-n2cc(COc3ccccc3)nc2C)c1 (optimized conformer: 74.02067482377446 kcal/mol)

>  <smiles>  (5) 
Cc1ccc(Cl)c(-n2cc(COc3ccccc3)nc2C)c1

>  <score_type>  (5) 
oracle

>  <origin>  (5) 
adg

>  <m_score__min__energy>  (5) 
-8.9100000000000001

>  <m_primary>  (5) 
energy

$$$$
5:0
     RDKit          3D

 47 49  0  0  0  0  0  0  0  0999 V2000
    0.2550   21.8370  -35.4450 C   0  0  0  0  0  0  0  0  0  0  0  0
    0.3330   20.5460  -34.6350 C   0  0  0  0  0  0  0  0  0  0  0  0
   -0.9450   20.2990  -33.9290 N   0  0  0  0  0  0  0  0  0  0  0  0
   -1.0350   18.8910  -33.4730 C   0  0  0  0  0  0  0  0  0  0  0  0
   -1.0610   17.9490  -34.6740 C   0  0  0  0  0  0  0  0  0  0  0  0
   -1.1200   21.2360  -32.7950 C   0  0  0  0  0  0  0  0  0  0  0  0
   -2.6100   21.3530  -32.4330 C   0  0  0  0  0  0  0  0  0  0  0  0
   -3.4950   21.1030  -33.5850 N   0  0  0  0  0  0  0  0  0  0  0  0
   -4.8130   20.6530  -33.1680 C   0  0  0  0  0  0  0  0  0  0  0  0
   -5.6910   21.4300  -32.3550 C   0  0  0  0  0  0  0  0  0  0  0  0
   -5.3450   22.7280  -31.9100 C   0  0  0  0  0  0  0  0  0  0  0  0
   -6.2320   23.4890  -31.1530 C   0  0  0  0  0  0  0  0  0  0  0  0
   -5.7320   25.2380  -30.5680 Br  0  0  0  0  0  0  0  0  0  0  0  0
   -7.4890   22.9880  -30.8360 C   0  0  0  0  0  0  0  0  0  0  0  0
   -7.8580   21.7120  -31.2470 C   0  0  0  0  0  0  0  0  0  0  0  0
   -6.9680   20.8870  -31.9800 C   0  0  0  0  0  0  0  0  0  0  0  0
   -7.3200   19.5940  -32.3390 N   0  0  0  0  0  0  0  0  0  0  0  0
   -8.5540   18.9690  -31.8180 C   0  0  0  0  0  0  0  0  0  0  0  0
   -6.5010   18.8940  -33.1890 C   0  0  0  0  0  0  0  0  0  0  0  0
   -6.7760   17.6310  -33.7660 C   0  0  0  0  0  0  0  0  0  0  0  0
   -5.7480   17.1570  -34.5740 C   0  0  0  0  0  0  0  0  0  0  0  0
   -4.5110   18.2950  -34.5950 S   0  0  0  0  0  0  0  0  0  0  0  0
   -5.2720   19.4000  -33.5770 C   0  0  0  0  0  0  0  0  0  0  0  0
    0.2031   22.6966  -34.7607 H   0  0  0  0  0  0  0  0  0  0  0  0
    1.1494   21.9266  -36.0791 H   0  0  0  0  0  0  0  0  0  0  0  0
   -0.6437   21.8183  -36.0791 H   0  0  0  0  0  0  0  0  0  0  0  0
    0.5404   19.7051  -35.3131 H   0  0  0  0  0  0  0  0  0  0  0  0
    1.1379   20.6406  -33.8912 H   0  0  0  0  0  0  0  0  0  0  0  0
   -0.1627   18.6558  -32.8454 H   0  0  0  0  0  0  0  0  0  0  0  0
   -1.9607   18.7597  -32.8935 H   0  0  0  0  0  0  0  0  0  0  0  0
   -1.0898   16.9071  -34.3223 H   0  0  0  0  0  0  0  0  0  0  0  0
   -1.9538   18.1553  -35.2826 H   0  0  0  0  0  0  0  0  0  0  0  0
   -0.1582   18.1058  -35.2826 H   0  0  0  0  0  0  0  0  0  0  0  0
   -0.5620   20.8617  -31.9240 H   0  0  0  0  0  0  0  0  0  0  0  0
   -0.7403   22.2270  -33.0842 H   0  0  0  0  0  0  0  0  0  0  0  0
   -2.8400   20.6193  -31.6464 H   0  0  0  0  0  0  0  0  0  0  0  0
   -2.7900   22.3833  -32.0923 H   0  0  0  0  0  0  0  0  0  0  0  0
   -3.0540   20.3570  -34.1700 H   0  0  0  0  0  0  0  0  0  0  0  0
   -3.5240   21.9320  -34.2160 H   0  0  0  0  0  0  0  0  0  0  0  0
   -4.3589   23.1427  -32.1664 H   0  0  0  0  0  0  0  0  0  0  0  0
   -8.1944   23.6031  -30.2580 H   0  0  0  0  0  0  0  0  0  0  0  0
   -8.8610   21.3349  -30.9983 H   0  0  0  0  0  0  0  0  0  0  0  0
   -8.5340   18.9791  -30.7182 H   0  0  0  0  0  0  0  0  0  0  0  0
   -9.4290   19.5326  -32.1740 H   0  0  0  0  0  0  0  0  0  0  0  0
   -8.6174   17.9301  -32.1740 H   0  0  0  0  0  0  0  0  0  0  0  0
   -7.7112   17.0785  -33.5923 H   0  0  0  0  0  0  0  0  0  0  0  0
   -5.7449   16.1966  -35.1104 H   0  0  0  0  0  0  0  0  0  0  0  0
  1  2  1  0
  2  3  1  0
  3  4  1  0
  4  5  1  0
  3  6  1  0
  6  7  1  0
  7  8  1  0
  8  9  1  0
  9 10  2  0
 10 11  1  0
 11 12  2  0
 12 13  1  0
 12 14  1  0
 14 15  2  0
 15 16  1  0
 16 17  2  0
 17 18  1  0
 17 19  1  0
 19 20  1  0
 20 21  2  0
 21 22  1  0
 22 23  1  0
 23  9  1  0
 16 10  1  0
 23 19  2  0
  1 24  1  0
  1 25  1  0
  1 26  1  0
  2 27  1  0
  2 28  1  0
  4 29  1  0
  4 30  1  0
  5 31  1  0
  5 32  1  0
  5 33  1  0
  6 34  1  0
  6 35  1  0
  7 36  1  0
  7 37  1  0
  8 38  1  0
  8 39  1  0
 11 40  1  0
 14 41  1  0
 15 42  1  0
 18 43  1  0
 18 44  1  0
 18 45  1  0
 20 46  1  0
 21 47  1  0
M  CHG  2   8   1  17   1
M  END
>  <UniqueID>  (6) 
6

>  <SMILES>  (6) 
CCN(CC)CC[NH2+]c1c2cc(Br)ccc2[n+](C)c2ccsc12

>  <Energy>  (6) 
93.79986115070558

>  <Genealogy>  (6) 
CCN(CC)CC[NH2+]c1c2cc(Br)ccc2[n+](C)c2ccsc12 (protonated)
CCN(CC)CC[NH2+]c1c2cc(Br)ccc2[n+](C)c2ccsc12 (3D coordinates assigned)
CCN(CC)CC[NH2+]c1c2cc(Br)ccc2[n+](C)c2ccsc12 (optimized conformer: 93.79986115070558 kcal/mol)

>  <smiles>  (6) 
CCN(CC)CCNc1c2cc(Br)ccc2[n+](C)c2ccsc12

>  <score_type>  (6) 
oracle

>  <origin>  (6) 
adg

>  <m_score__min__energy>  (6) 
-8.1999999999999993

>  <m_primary>  (6) 
energy

$$$$
6:0
     RDKit          3D

 46 47  0  0  0  0  0  0  0  0999 V2000
    1.2830   21.6260  -35.3930 C   0  0  0  0  0  0  0  0  0  0  0  0
   -0.1240   21.9110  -34.8740 C   0  0  0  0  0  0  0  0  0  0  0  0
   -0.6830   20.7250  -34.1880 N   0  0  0  0  0  0  0  0  0  0  0  0
   -0.2100   19.3940  -34.6480 C   0  0  0  0  0  0  0  0  0  0  0  0
   -0.2720   18.2810  -33.5910 C   0  0  0  0  0  0  0  0  0  0  0  0
   -0.7980   20.8740  -32.7210 C   0  0  0  0  0  0  0  0  0  0  0  0
   -2.2510   20.8740  -32.2140 C   0  0  0  0  0  0  0  0  0  0  0  0
   -3.1560   21.4580  -33.2170 N   0  0  0  0  0  0  0  0  0  0  0  0
   -4.5170   20.9940  -33.0070 C   0  0  0  0  0  0  0  0  0  0  0  0
   -4.9360   19.7010  -33.4480 C   0  0  0  0  0  0  0  0  0  0  0  0
   -3.9640   18.6970  -34.0510 C   0  0  0  0  0  0  0  0  0  0  0  0
   -2.8900   19.3480  -34.6290 F   0  0  0  0  0  0  0  0  0  0  0  0
   -4.5580   17.9270  -35.0370 F   0  0  0  0  0  0  0  0  0  0  0  0
   -3.5080   17.8450  -33.0630 F   0  0  0  0  0  0  0  0  0  0  0  0
   -6.2770   19.3180  -33.2680 C   0  0  0  0  0  0  0  0  0  0  0  0
   -7.2080   20.1780  -32.6810 C   0  0  0  0  0  0  0  0  0  0  0  0
   -8.5420   19.7650  -32.5180 C   0  0  0  0  0  0  0  0  0  0  0  0
   -9.4740   20.6120  -31.9190 C   0  0  0  0  0  0  0  0  0  0  0  0
   -9.0850   21.8750  -31.4720 C   0  0  0  0  0  0  0  0  0  0  0  0
   -7.7630   22.2970  -31.6270 C   0  0  0  0  0  0  0  0  0  0  0  0
   -6.8080   21.4590  -32.2410 C   0  0  0  0  0  0  0  0  0  0  0  0
   -5.4660   21.8670  -32.4070 C   0  0  0  0  0  0  0  0  0  0  0  0
   -5.0600   23.1720  -31.9720 N   0  0  0  0  0  0  0  0  0  0  0  0
   -5.7330   24.1730  -32.2930 O   0  0  0  0  0  0  0  0  0  0  0  0
   -3.8450   23.3420  -31.3530 O   0  0  0  0  0  0  0  0  0  0  0  0
    1.9665   21.4875  -34.5424 H   0  0  0  0  0  0  0  0  0  0  0  0
    1.2699   20.7123  -36.0053 H   0  0  0  0  0  0  0  0  0  0  0  0
    1.6265   22.4728  -36.0053 H   0  0  0  0  0  0  0  0  0  0  0  0
   -0.0833   22.7513  -34.1653 H   0  0  0  0  0  0  0  0  0  0  0  0
   -0.7704   22.1605  -35.7284 H   0  0  0  0  0  0  0  0  0  0  0  0
   -0.8314   19.0878  -35.5025 H   0  0  0  0  0  0  0  0  0  0  0  0
    0.8531   19.5170  -34.9023 H   0  0  0  0  0  0  0  0  0  0  0  0
   -0.2471   18.7278  -32.5861 H   0  0  0  0  0  0  0  0  0  0  0  0
   -1.2034   17.7091  -33.7150 H   0  0  0  0  0  0  0  0  0  0  0  0
    0.5901   17.6091  -33.7150 H   0  0  0  0  0  0  0  0  0  0  0  0
   -0.2631   20.0397  -32.2437 H   0  0  0  0  0  0  0  0  0  0  0  0
   -0.3655   21.8515  -32.4611 H   0  0  0  0  0  0  0  0  0  0  0  0
   -2.5609   19.8388  -32.0083 H   0  0  0  0  0  0  0  0  0  0  0  0
   -2.3039   21.4796  -31.2972 H   0  0  0  0  0  0  0  0  0  0  0  0
   -3.1000   22.4990  -33.1870 H   0  0  0  0  0  0  0  0  0  0  0  0
   -2.8310   21.1920  -34.1740 H   0  0  0  0  0  0  0  0  0  0  0  0
   -6.5999   18.3192  -33.5967 H   0  0  0  0  0  0  0  0  0  0  0  0
   -8.8523   18.7683  -32.8649 H   0  0  0  0  0  0  0  0  0  0  0  0
  -10.5170   20.2839  -31.7988 H   0  0  0  0  0  0  0  0  0  0  0  0
   -9.8212   22.5397  -30.9965 H   0  0  0  0  0  0  0  0  0  0  0  0
   -7.4631   23.2922  -31.2670 H   0  0  0  0  0  0  0  0  0  0  0  0
  1  2  1  0
  2  3  1  0
  3  4  1  0
  4  5  1  0
  3  6  1  0
  6  7  1  0
  7  8  1  0
  8  9  1  0
  9 10  2  0
 10 11  1  0
 11 12  1  0
 11 13  1  0
 11 14  1  0
 10 15  1  0
 15 16  2  0
 16 17  1  0
 17 18  2  0
 18 19  1  0
 19 20  2  0
 20 21  1  0
 21 22  2  0
 22 23  1  0
 23 24  2  0
 23 25  1  0
 22  9  1  0
 21 16  1  0
  1 26  1  0
  1 27  1  0
  1 28  1  0
  2 29  1  0
  2 30  1  0
  4 31  1  0
  4 32  1  0
  5 33  1  0
  5 34  1  0
  5 35  1  0
  6 36  1  0
  6 37  1  0
  7 38  1  0
  7 39  1  0
  8 40  1  0
  8 41  1  0
 15 42  1  0
 17 43  1  0
 18 44  1  0
 19 45  1  0
 20 46  1  0
M  CHG  3   8   1  23   1  25  -1
M  END
>  <UniqueID>  (7) 
7

>  <SMILES>  (7) 
CCN(CC)CC[NH2+]c1c(C(F)(F)F)cc2ccccc2c1[N+](=O)[O-]

>  <Energy>  (7) 
68.23844391555849

>  <Genealogy>  (7) 
CCN(CC)CC[NH2+]c1c(C(F)(F)F)cc2ccccc2c1[N+](=O)[O-] (protonated)
CCN(CC)CC[NH2+]c1c(C(F)(F)F)cc2ccccc2c1[N+](=O)[O-] (3D coordinates assigned)
CCN(CC)CC[NH2+]c1c(C(F)(F)F)cc2ccccc2c1[N+](=O)[O-] (optimized conformer: 68.23844391555849 kcal/mol)

>  <smiles>  (7) 
CCN(CC)CCNc1c(C(F)(F)F)cc2ccccc2c1[N+](=O)[O-]

>  <score_type>  (7) 
oracle

>  <origin>  (7) 
adg

>  <m_score__min__energy>  (7) 
-6.2400000000000002

>  <m_primary>  (7) 
energy

$$$$
7:0
     RDKit          3D

 55 58  0  0  0  0  0  0  0  0999 V2000
   -6.6550   16.5070  -33.8500 C   0  0  0  0  0  0  0  0  0  0  0  0
   -5.3680   17.2850  -33.5840 C   0  0  0  0  0  0  0  0  0  0  0  0
   -5.4130   18.0810  -32.2720 C   0  0  0  0  0  0  0  0  0  0  0  0
   -4.9520   19.4630  -32.4680 N   0  0  0  0  0  0  0  0  0  0  0  0
   -3.5620   19.7220  -32.8720 C   0  0  0  0  0  0  0  0  0  0  0  0
   -3.4190   21.1180  -33.4860 C   0  0  0  0  0  0  0  0  0  0  0  0
   -2.6190   21.9420  -32.6830 O   0  0  0  0  0  0  0  0  0  0  0  0
   -5.7390   20.5490  -31.9540 C   0  0  0  0  0  0  0  0  0  0  0  0
   -5.1030   21.5800  -31.3250 N   0  0  0  0  0  0  0  0  0  0  0  0
   -5.8240   22.6240  -30.8540 C   0  0  0  0  0  0  0  0  0  0  0  0
   -5.3750   23.7600  -30.2190 C   0  0  0  0  0  0  0  0  0  0  0  0
   -3.9950   24.1520  -29.8820 C   0  0  0  0  0  0  0  0  0  0  0  0
   -3.1140   24.1370  -30.7840 O   0  0  0  0  0  0  0  0  0  0  0  0
   -3.6600   24.5870  -28.5550 N   0  0  0  0  0  0  0  0  0  0  0  0
   -2.3410   24.4910  -27.9890 C   0  0  0  0  0  0  0  0  0  0  0  0
   -1.3930   23.6520  -28.5910 C   0  0  0  0  0  0  0  0  0  0  0  0
   -0.0960   23.5630  -28.0790 C   0  0  0  0  0  0  0  0  0  0  0  0
    0.2820   24.3340  -26.9700 C   0  0  0  0  0  0  0  0  0  0  0  0
    1.6630   24.2130  -26.3990 C   0  0  0  0  0  0  0  0  0  0  0  0
   -0.6630   25.1760  -26.3640 C   0  0  0  0  0  0  0  0  0  0  0  0
   -1.9610   25.2640  -26.8770 C   0  0  0  0  0  0  0  0  0  0  0  0
   -6.5390   24.4960  -30.0080 C   0  0  0  0  0  0  0  0  0  0  0  0
   -7.6090   23.8190  -30.4900 N   0  0  0  0  0  0  0  0  0  0  0  0
   -7.1510   22.6860  -31.0000 N   0  0  0  0  0  0  0  0  0  0  0  0
   -7.8620   21.6990  -31.6040 C   0  0  0  0  0  0  0  0  0  0  0  0
   -9.2590   21.7650  -31.7320 C   0  0  0  0  0  0  0  0  0  0  0  0
   -9.9530   20.7130  -32.3340 C   0  0  0  0  0  0  0  0  0  0  0  0
   -9.2640   19.5910  -32.8040 C   0  0  0  0  0  0  0  0  0  0  0  0
   -7.8730   19.5160  -32.6860 C   0  0  0  0  0  0  0  0  0  0  0  0
   -7.1550   20.5740  -32.1010 C   0  0  0  0  0  0  0  0  0  0  0  0
   -7.1186   16.2268  -32.8926 H   0  0  0  0  0  0  0  0  0  0  0  0
   -7.3513   17.1356  -34.4245 H   0  0  0  0  0  0  0  0  0  0  0  0
   -6.4221   15.5983  -34.4245 H   0  0  0  0  0  0  0  0  0  0  0  0
   -4.5310   16.5729  -33.5343 H   0  0  0  0  0  0  0  0  0  0  0  0
   -5.2423   18.0068  -34.4045 H   0  0  0  0  0  0  0  0  0  0  0  0
   -6.4477   18.0982  -31.8990 H   0  0  0  0  0  0  0  0  0  0  0  0
   -4.7452   17.5924  -31.5472 H   0  0  0  0  0  0  0  0  0  0  0  0
   -2.9112   19.6495  -31.9881 H   0  0  0  0  0  0  0  0  0  0  0  0
   -3.2720   18.9762  -33.6268 H   0  0  0  0  0  0  0  0  0  0  0  0
   -2.9574   21.0277  -34.4804 H   0  0  0  0  0  0  0  0  0  0  0  0
   -4.4189   21.5699  -33.5639 H   0  0  0  0  0  0  0  0  0  0  0  0
   -3.2220   22.3510  -32.0080 H   0  0  0  0  0  0  0  0  0  0  0  0
   -4.3970   25.0740  -27.9980 H   0  0  0  0  0  0  0  0  0  0  0  0
   -1.6726   23.0586  -29.4740 H   0  0  0  0  0  0  0  0  0  0  0  0
    0.6322   22.8849  -28.5480 H   0  0  0  0  0  0  0  0  0  0  0  0
    1.6073   24.2179  -25.3004 H   0  0  0  0  0  0  0  0  0  0  0  0
    2.1191   23.2715  -26.7388 H   0  0  0  0  0  0  0  0  0  0  0  0
    2.2759   25.0609  -26.7388 H   0  0  0  0  0  0  0  0  0  0  0  0
   -0.3815   25.7694  -25.4816 H   0  0  0  0  0  0  0  0  0  0  0  0
   -2.6893   25.9419  -26.4080 H   0  0  0  0  0  0  0  0  0  0  0  0
   -6.5828   25.4817  -29.5217 H   0  0  0  0  0  0  0  0  0  0  0  0
   -9.8056   22.6436  -31.3588 H   0  0  0  0  0  0  0  0  0  0  0  0
  -11.0466   20.7675  -32.4388 H   0  0  0  0  0  0  0  0  0  0  0  0
   -9.8192   18.7630  -33.2690 H   0  0  0  0  0  0  0  0  0  0  0  0
   -7.3387   18.6268  -33.0518 H   0  0  0  0  0  0  0  0  0  0  0  0
  1  2  1  0
  2  3  1  0
  3  4  1  0
  4  5  1  0
  5  6  1  0
  6  7  1  0
  4  8  1  0
  8  9  2  0
  9 10  1  0
 10 11  2  0
 11 12  1  0
 12 13  2  0
 12 14  1  0
 14 15  1  0
 15 16  2  0
 16 17  1  0
 17 18  2  0
 18 19  1  0
 18 20  1  0
 20 21  2  0
 11 22  1  0
 22 23  2  0
 23 24  1  0
 24 25  1  0
 25 26  2  0
 26 27  1  0
 27 28  2  0
 28 29  1  0
 29 30  2  0
 30  8  1  0
 24 10  1  0
 30 25  1  0
 21 15  1  0
  1 31  1  0
  1 32  1  0
  1 33  1  0
  2 34  1  0
  2 35  1  0
  3 36  1  0
  3 37  1  0
  5 38  1  0
  5 39  1  0
  6 40  1  0
  6 41  1  0
  7 42  1  0
 14 43  1  0
 16 44  1  0
 17 45  1  0
 19 46  1  0
 19 47  1  0
 19 48  1  0
 20 49  1  0
 21 50  1  0
 22 51  1  0
 26 52  1  0
 27 53  1  0
 28 54  1  0
 29 55  1  0
M  END
>  <UniqueID>  (8) 
8

>  <SMILES>  (8) 
CCCN(CCO)c1nc2c(C(=O)Nc3ccc(C)cc3)cnn2c2ccccc12

>  <Energy>  (8) 
99.91937059368803

>  <Genealogy>  (8) 
CCCN(CCO)c1nc2c(C(=O)Nc3ccc(C)cc3)cnn2c2ccccc12 (3D coordinates assigned)
CCCN(CCO)c1nc2c(C(=O)Nc3ccc(C)cc3)cnn2c2ccccc12 (optimized conformer: 99.91937059368803 kcal/mol)

>  <smiles>  (8) 
CCCN(CCO)c1nc2c(C(=O)Nc3ccc(C)cc3)cnn2c2ccccc12

>  <score_type>  (8) 
oracle

>  <origin>  (8) 
adg

>  <m_score__min__energy>  (8) 
-9.4900000000000002

>  <m_primary>  (8) 
energy

$$$$
8:0
     RDKit          3D

 48 50  0  0  0  0  0  0  0  0999 V2000
   -6.9639   18.6448  -30.7193 H   0  0  0  0  0  0  0  0  0  0  0  0
   -6.6300   18.4200  -31.7430 C   0  0  0  0  0  0  0  0  0  0  0  0
   -6.2650   17.1150  -32.0840 C   0  0  0  0  0  0  0  0  0  0  0  0
   -6.3236   16.3157  -31.3305 H   0  0  0  0  0  0  0  0  0  0  0  0
   -5.8240   16.8190  -33.3830 C   0  0  0  0  0  0  0  0  0  0  0  0
   -5.4630   15.4030  -33.7570 C   0  0  0  0  0  0  0  0  0  0  0  0
   -4.8446   15.4227  -34.6665 H   0  0  0  0  0  0  0  0  0  0  0  0
   -6.3975   14.8469  -33.9228 H   0  0  0  0  0  0  0  0  0  0  0  0
   -4.6810   14.6940  -32.6410 C   0  0  0  0  0  0  0  0  0  0  0  0
   -4.8740   13.6131  -32.7074 H   0  0  0  0  0  0  0  0  0  0  0  0
   -5.0212   15.1084  -31.6805 H   0  0  0  0  0  0  0  0  0  0  0  0
   -3.1750   14.9290  -32.7390 C   0  0  0  0  0  0  0  0  0  0  0  0
   -2.7477   14.9957  -31.7276 H   0  0  0  0  0  0  0  0  0  0  0  0
   -2.7079   14.0929  -33.2800 H   0  0  0  0  0  0  0  0  0  0  0  0
   -2.9848   15.8677  -33.2800 H   0  0  0  0  0  0  0  0  0  0  0  0
   -5.7530   17.8460  -34.3360 C   0  0  0  0  0  0  0  0  0  0  0  0
   -5.4097   17.6232  -35.3570 H   0  0  0  0  0  0  0  0  0  0  0  0
   -6.1170   19.1520  -33.9930 C   0  0  0  0  0  0  0  0  0  0  0  0
   -6.0454   19.9542  -34.7422 H   0  0  0  0  0  0  0  0  0  0  0  0
   -6.5730   19.4450  -32.6990 C   0  0  0  0  0  0  0  0  0  0  0  0
   -6.9500   20.7850  -32.3380 N   0  0  0  0  0  0  0  0  0  0  0  0
   -6.1490   21.7900  -31.9220 C   0  0  0  0  0  0  0  0  0  0  0  0
   -4.7600   21.8200  -31.7870 C   0  0  0  0  0  0  0  0  0  0  0  0
   -4.1463   20.9293  -31.9870 H   0  0  0  0  0  0  0  0  0  0  0  0
   -4.1710   23.0470  -31.3810 C   0  0  0  0  0  0  0  0  0  0  0  0
   -2.8870   23.1740  -31.2040 N   0  0  0  0  0  0  0  0  0  0  0  0
   -2.1710   22.9920  -29.9420 C   0  0  0  0  0  0  0  0  0  0  0  0
   -2.3976   21.9956  -29.5347 H   0  0  0  0  0  0  0  0  0  0  0  0
   -1.0899   23.0832  -30.1231 H   0  0  0  0  0  0  0  0  0  0  0  0
   -2.6030   24.0570  -28.9410 C   0  0  0  0  0  0  0  0  0  0  0  0
   -3.6997   24.1425  -28.9469 H   0  0  0  0  0  0  0  0  0  0  0  0
   -2.2630   23.7735  -27.9340 H   0  0  0  0  0  0  0  0  0  0  0  0
   -2.0320   25.2980  -29.2990 O   0  0  0  0  0  0  0  0  0  0  0  0
   -1.1960   25.7440  -28.2570 C   0  0  0  0  0  0  0  0  0  0  0  0
   -1.6553   25.4989  -27.2880 H   0  0  0  0  0  0  0  0  0  0  0  0
   -0.2171   25.2483  -28.3346 H   0  0  0  0  0  0  0  0  0  0  0  0
   -1.0626   26.8331  -28.3346 H   0  0  0  0  0  0  0  0  0  0  0  0
   -4.9710   24.1420  -31.1670 N   0  0  0  0  0  0  0  0  0  0  0  0
   -6.3260   24.1090  -31.3250 C   0  0  0  0  0  0  0  0  0  0  0  0
   -6.9393   25.0061  -31.1544 H   0  0  0  0  0  0  0  0  0  0  0  0
   -6.9060   22.9070  -31.7080 C   0  0  0  0  0  0  0  0  0  0  0  0
   -8.2050   22.5420  -32.0010 C   0  0  0  0  0  0  0  0  0  0  0  0
   -9.4090   23.4270  -32.0190 C   0  0  0  0  0  0  0  0  0  0  0  0
   -9.7145   23.6515  -30.9864 H   0  0  0  0  0  0  0  0  0  0  0  0
   -9.1674   24.3641  -32.5419 H   0  0  0  0  0  0  0  0  0  0  0  0
  -10.2313   22.9168  -32.5419 H   0  0  0  0  0  0  0  0  0  0  0  0
   -8.1940   21.2500  -32.3990 N   0  0  0  0  0  0  0  0  0  0  0  0
   -9.0250   20.6950  -32.7070 H   0  0  0  0  0  0  0  0  0  0  0  0
  1  2  1  0
  2  3  2  0
  3  4  1  0
  3  5  1  0
  5  6  1  0
  6  7  1  0
  6  8  1  0
  6  9  1  0
  9 10  1  0
  9 11  1  0
  9 12  1  0
 12 13  1  0
 12 14  1  0
 12 15  1  0
  5 16  2  0
 16 17  1  0
 16 18  1  0
 18 19  1  0
 18 20  2  0
 20 21  1  0
 21 22  1  0
 22 23  2  0
 23 24  1  0
 23 25  1  0
 25 26  2  0
 26 27  1  0
 27 28  1  0
 27 29  1  0
 27 30  1  0
 30 31  1  0
 30 32  1  0
 30 33  1  0
 33 34  1  0
 34 35  1  0
 34 36  1  0
 34 37  1  0
 25 38  1  0
 38 39  1  0
 39 40  1  0
 39 41  2  0
 41 42  1  0
 42 43  1  0
 43 44  1  0
 43 45  1  0
 43 46  1  0
 42 47  2  0
 47 48  1  0
 20  2  1  0
 47 21  1  0
 41 22  1  0
M  CHG  2  38  -1  47   1
M  END
>  <UniqueID>  (9) 
9

>  <SMILES>  (9) 
CCCc1ccc(-n2[nH+]c(C)c3c[n-]/c(=N/CCOC)cc32)cc1

>  <Energy>  (9) 
88.9315979880154

>  <Genealogy>  (9) 
CCCc1ccc(-n2[nH+]c(C)c3c[n-]c(=NCCOC)cc32)cc1 (protonated)
CCCc1ccc(-n2[nH+]c(C)c3c[n-]/c(=N/CCOC)cc32)cc1 (cis-trans isomerization)
CCCc1ccc(-n2[nH+]c(C)c3c[n-]/c(=N/CCOC)cc32)cc1 (3D coordinates assigned)
CCCc1ccc(-n2[nH+]c(C)c3c[n-]/c(=N/CCOC)cc32)cc1 (optimized conformer: 88.9315979880154 kcal/mol)

>  <smiles>  (9) 
CCCc1ccc(-n2nc(C)c3c[nH]c(=NCCOC)cc32)cc1

>  <score_type>  (9) 
oracle

>  <origin>  (9) 
adg

>  <m_score__min__energy>  (9) 
-8.4199999999999999

>  <m_primary>  (9) 
energy

$$$$
9:0
     RDKit          3D

 39 42  0  0  0  0  0  0  0  0999 V2000
   -4.3020   13.9230  -33.8320 C   0  0  0  0  0  0  0  0  0  0  0  0
   -3.7300   15.1510  -33.3940 O   0  0  0  0  0  0  0  0  0  0  0  0
   -4.4600   16.3210  -33.1400 C   0  0  0  0  0  0  0  0  0  0  0  0
   -5.7270   16.1960  -32.5600 C   0  0  0  0  0  0  0  0  0  0  0  0
   -6.5030   17.3250  -32.2830 C   0  0  0  0  0  0  0  0  0  0  0  0
   -6.0170   18.6070  -32.5850 C   0  0  0  0  0  0  0  0  0  0  0  0
   -6.7510   19.7780  -32.3280 C   0  0  0  0  0  0  0  0  0  0  0  0
   -6.2420   21.0350  -32.6320 C   0  0  0  0  0  0  0  0  0  0  0  0
   -4.9820   21.1780  -33.2170 C   0  0  0  0  0  0  0  0  0  0  0  0
   -4.2270   20.0290  -33.4860 C   0  0  0  0  0  0  0  0  0  0  0  0
   -4.7300   18.7460  -33.1730 C   0  0  0  0  0  0  0  0  0  0  0  0
   -3.9630   17.6020  -33.4470 C   0  0  0  0  0  0  0  0  0  0  0  0
   -7.1490   22.0910  -32.2890 N   0  0  0  0  0  0  0  0  0  0  0  0
   -6.8250   23.5080  -32.1220 C   0  0  0  0  0  0  0  0  0  0  0  0
   -6.0620   23.7210  -30.8420 C   0  0  0  0  0  0  0  0  0  0  0  0
   -5.2140   22.7230  -30.3450 C   0  0  0  0  0  0  0  0  0  0  0  0
   -4.4810   22.9460  -29.1790 C   0  0  0  0  0  0  0  0  0  0  0  0
   -4.5980   24.1710  -28.5190 C   0  0  0  0  0  0  0  0  0  0  0  0
   -3.6810   24.4650  -27.0520 Cl  0  0  0  0  0  0  0  0  0  0  0  0
   -5.4220   25.1360  -29.0140 N   0  0  0  0  0  0  0  0  0  0  0  0
   -6.1460   24.9390  -30.1500 C   0  0  0  0  0  0  0  0  0  0  0  0
   -8.2780   21.4260  -31.7190 C   0  0  0  0  0  0  0  0  0  0  0  0
   -9.2910   22.0150  -31.2600 O   0  0  0  0  0  0  0  0  0  0  0  0
   -8.0730   19.9890  -31.7360 C   0  0  0  0  0  0  0  0  0  0  0  0
   -8.8770   19.1170  -31.3140 O   0  0  0  0  0  0  0  0  0  0  0  0
   -4.5840   13.3175  -32.9580 H   0  0  0  0  0  0  0  0  0  0  0  0
   -5.1961   14.1306  -34.4382 H   0  0  0  0  0  0  0  0  0  0  0  0
   -3.5678   13.3721  -34.4382 H   0  0  0  0  0  0  0  0  0  0  0  0
   -6.1175   15.1963  -32.3189 H   0  0  0  0  0  0  0  0  0  0  0  0
   -7.4973   17.2087  -31.8271 H   0  0  0  0  0  0  0  0  0  0  0  0
   -4.5891   22.1757  -33.4624 H   0  0  0  0  0  0  0  0  0  0  0  0
   -3.2324   20.1265  -33.9456 H   0  0  0  0  0  0  0  0  0  0  0  0
   -2.9681   17.7074  -33.9042 H   0  0  0  0  0  0  0  0  0  0  0  0
   -6.2106   23.8424  -32.9709 H   0  0  0  0  0  0  0  0  0  0  0  0
   -7.7595   24.0870  -32.0827 H   0  0  0  0  0  0  0  0  0  0  0  0
   -5.1259   21.7628  -30.8744 H   0  0  0  0  0  0  0  0  0  0  0  0
   -3.8167   22.1637  -28.7831 H   0  0  0  0  0  0  0  0  0  0  0  0
   -5.5020   26.0500  -28.5150 H   0  0  0  0  0  0  0  0  0  0  0  0
   -6.8002   25.7387  -30.5274 H   0  0  0  0  0  0  0  0  0  0  0  0
  1  2  1  0
  2  3  1  0
  3  4  2  0
  4  5  1  0
  5  6  2  0
  6  7  1  0
  7  8  2  0
  8  9  1  0
  9 10  2  0
 10 11  1  0
 11 12  2  0
  8 13  1  0
 13 14  1  0
 14 15  1  0
 15 16  2  0
 16 17  1  0
 17 18  2  0
 18 19  1  0
 18 20  1  0
 20 21  2  0
 13 22  1  0
 22 23  2  0
 22 24  1  0
 24 25  2  0
 12  3  1  0
 21 15  1  0
 11  6  1  0
 24  7  1  0
  1 26  1  0
  1 27  1  0
  1 28  1  0
  4 29  1  0
  5 30  1  0
  9 31  1  0
 10 32  1  0
 12 33  1  0
 14 34  1  0
 14 35  1  0
 16 36  1  0
 17 37  1  0
 20 38  1  0
 21 39  1  0
M  CHG  1  20   1
M  END
>  <UniqueID>  (10) 
10

>  <SMILES>  (10) 
COc1ccc2c3c(ccc2c1)N(Cc1ccc(Cl)[nH+]c1)C(=O)C3=O

>  <Energy>  (10) 
77.13679336678103

>  <Genealogy>  (10) 
COc1ccc2c3c(ccc2c1)N(Cc1ccc(Cl)[nH+]c1)C(=O)C3=O (protonated)
COc1ccc2c3c(ccc2c1)N(Cc1ccc(Cl)[nH+]c1)C(=O)C3=O (3D coordinates assigned)
COc1ccc2c3c(ccc2c1)N(Cc1ccc(Cl)[nH+]c1)C(=O)C3=O (nonaromatic ring conformer: 77.13679336678103 kcal/mol)

>  <smiles>  (10) 
COc1ccc2c3c(ccc2c1)N(Cc1ccc(Cl)nc1)C(=O)C3=O

>  <score_type>  (10) 
oracle

>  <origin>  (10) 
adg

>  <m_score__min__energy>  (10) 
-9.0800000000000001

>  <m_primary>  (10) 
energy

$$$$
10:0
     RDKit          3D

 50 53  0  0  0  0  0  0  0  0999 V2000
   -7.5300   17.7970  -31.8160 C   0  0  0  0  0  0  0  0  0  0  0  0
   -8.7280   18.5920  -32.3410 C   0  0  0  0  0  0  0  0  0  0  0  0
   -8.3420   19.9430  -32.7960 N   0  0  0  0  0  0  0  0  0  0  0  0
   -9.2570   21.0000  -32.3070 C   0  0  0  0  0  0  0  0  0  0  0  0
   -8.6540   21.8450  -31.1660 C   0  0  0  0  0  0  0  0  0  0  0  0
   -8.0460   23.1750  -31.6410 C   0  0  0  0  0  0  0  0  0  0  0  0
   -6.9880   22.9570  -32.6300 N   0  0  0  0  0  0  0  0  0  0  0  0
   -5.7360   22.3100  -32.3230 C   0  0  0  0  0  0  0  0  0  0  0  0
   -4.8100   22.8740  -31.4070 C   0  0  0  0  0  0  0  0  0  0  0  0
   -5.1090   24.0640  -30.7130 C   0  0  0  0  0  0  0  0  0  0  0  0
   -4.2280   24.5790  -29.7660 C   0  0  0  0  0  0  0  0  0  0  0  0
   -3.0420   23.9140  -29.4780 C   0  0  0  0  0  0  0  0  0  0  0  0
   -2.7120   22.7390  -30.1500 C   0  0  0  0  0  0  0  0  0  0  0  0
   -3.5620   22.2040  -31.1490 C   0  0  0  0  0  0  0  0  0  0  0  0
   -3.2250   21.0550  -31.8480 N   0  0  0  0  0  0  0  0  0  0  0  0
   -1.8620   20.4990  -31.8220 C   0  0  0  0  0  0  0  0  0  0  0  0
   -4.1870   20.4780  -32.6360 C   0  0  0  0  0  0  0  0  0  0  0  0
   -5.3900   21.0930  -32.9060 C   0  0  0  0  0  0  0  0  0  0  0  0
   -6.1030   20.3820  -33.7550 O   0  0  0  0  0  0  0  0  0  0  0  0
   -5.4160   19.2960  -34.0250 C   0  0  0  0  0  0  0  0  0  0  0  0
   -5.8070   18.2470  -34.8530 C   0  0  0  0  0  0  0  0  0  0  0  0
   -4.9490   17.1410  -34.9670 C   0  0  0  0  0  0  0  0  0  0  0  0
   -3.7390   17.0980  -34.2440 C   0  0  0  0  0  0  0  0  0  0  0  0
   -3.3630   18.1690  -33.4140 C   0  0  0  0  0  0  0  0  0  0  0  0
   -4.2110   19.2820  -33.3480 C   0  0  0  0  0  0  0  0  0  0  0  0
   -7.5394   17.8032  -30.7161 H   0  0  0  0  0  0  0  0  0  0  0  0
   -7.5914   16.7599  -32.1773 H   0  0  0  0  0  0  0  0  0  0  0  0
   -6.5982   18.2566  -32.1773 H   0  0  0  0  0  0  0  0  0  0  0  0
   -9.1726   18.0466  -33.1865 H   0  0  0  0  0  0  0  0  0  0  0  0
   -9.4472   18.7049  -31.5164 H   0  0  0  0  0  0  0  0  0  0  0  0
   -8.3000   19.9450  -33.8400 H   0  0  0  0  0  0  0  0  0  0  0  0
   -7.3700   20.1500  -32.4680 H   0  0  0  0  0  0  0  0  0  0  0  0
   -9.4997   21.6682  -33.1464 H   0  0  0  0  0  0  0  0  0  0  0  0
  -10.1506   20.4993  -31.9061 H   0  0  0  0  0  0  0  0  0  0  0  0
   -9.4494   22.0661  -30.4390 H   0  0  0  0  0  0  0  0  0  0  0  0
   -7.8366   21.2556  -30.7250 H   0  0  0  0  0  0  0  0  0  0  0  0
   -8.8383   23.7889  -32.0942 H   0  0  0  0  0  0  0  0  0  0  0  0
   -7.6063   23.6845  -30.7709 H   0  0  0  0  0  0  0  0  0  0  0  0
   -7.2310   23.1030  -33.6360 H   0  0  0  0  0  0  0  0  0  0  0  0
   -6.0507   24.5926  -30.9224 H   0  0  0  0  0  0  0  0  0  0  0  0
   -4.4715   25.5159  -29.2436 H   0  0  0  0  0  0  0  0  0  0  0  0
   -2.3600   24.3177  -28.7152 H   0  0  0  0  0  0  0  0  0  0  0  0
   -1.7758   22.2181  -29.9007 H   0  0  0  0  0  0  0  0  0  0  0  0
   -1.5395   20.3674  -30.7786 H   0  0  0  0  0  0  0  0  0  0  0  0
   -1.8533   19.5255  -32.3340 H   0  0  0  0  0  0  0  0  0  0  0  0
   -1.1748   21.1887  -32.3340 H   0  0  0  0  0  0  0  0  0  0  0  0
   -6.7597   18.2835  -35.4016 H   0  0  0  0  0  0  0  0  0  0  0  0
   -5.2226   16.3027  -35.6246 H   0  0  0  0  0  0  0  0  0  0  0  0
   -3.0835   16.2189  -34.3301 H   0  0  0  0  0  0  0  0  0  0  0  0
   -2.4296   18.1338  -32.8331 H   0  0  0  0  0  0  0  0  0  0  0  0
  1  2  1  0
  2  3  1  0
  3  4  1  0
  4  5  1  0
  5  6  1  0
  6  7  1  0
  7  8  1  0
  8  9  2  0
  9 10  1  0
 10 11  2  0
 11 12  1  0
 12 13  2  0
 13 14  1  0
 14 15  2  0
 15 16  1  0
 15 17  1  0
 17 18  2  0
 18 19  1  0
 19 20  1  0
 20 21  2  0
 21 22  1  0
 22 23  2  0
 23 24  1  0
 24 25  2  0
 18  8  1  0
 25 20  1  0
 14  9  1  0
 25 17  1  0
  1 26  1  0
  1 27  1  0
  1 28  1  0
  2 29  1  0
  2 30  1  0
  3 31  1  0
  3 32  1  0
  4 33  1  0
  4 34  1  0
  5 35  1  0
  5 36  1  0
  6 37  1  0
  6 38  1  0
  7 39  1  0
 10 40  1  0
 11 41  1  0
 12 42  1  0
 13 43  1  0
 16 44  1  0
 16 45  1  0
 16 46  1  0
 21 47  1  0
 22 48  1  0
 23 49  1  0
 24 50  1  0
M  CHG  2   3   1  15   1
M  END
>  <UniqueID>  (11) 
11

>  <SMILES>  (11) 
CC[NH2+]CCCNc1c2ccccc2[n+](C)c2c1oc1ccccc12

>  <Energy>  (11) 
111.24251893990014

>  <Genealogy>  (11) 
CC[NH2+]CCCNc1c2ccccc2[n+](C)c2c1oc1ccccc12 (protonated)
CC[NH2+]CCCNc1c2ccccc2[n+](C)c2c1oc1ccccc12 (3D coordinates assigned)
CC[NH2+]CCCNc1c2ccccc2[n+](C)c2c1oc1ccccc12 (optimized conformer: 111.24251893990014 kcal/mol)

>  <smiles>  (11) 
CCNCCCNc1c2ccccc2[n+](C)c2c1oc1ccccc12

>  <score_type>  (11) 
oracle

>  <origin>  (11) 
adg

>  <m_score__min__energy>  (11) 
-7.8799999999999999

>  <m_primary>  (11) 
energy

$$$$
11:0
     RDKit          3D

 46 48  0  0  0  0  0  0  0  0999 V2000
   -9.4110   21.8350  -31.3020 C   0  0  0  0  0  0  0  0  0  0  0  0
   -8.1540   21.9370  -30.4430 C   0  0  0  0  0  0  0  0  0  0  0  0
   -6.9930   22.2770  -31.2710 N   0  0  0  0  0  0  0  0  0  0  0  0
   -6.3780   23.4770  -31.3530 C   0  0  0  0  0  0  0  0  0  0  0  0
   -6.8420   24.9400  -30.4170 S   0  0  0  0  0  0  0  0  0  0  0  0
   -5.5990   24.6840  -29.1030 C   0  0  0  0  0  0  0  0  0  0  0  0
   -4.2270   24.5090  -29.6920 C   0  0  0  0  0  0  0  0  0  0  0  0
   -3.8650   25.2900  -30.6140 O   0  0  0  0  0  0  0  0  0  0  0  0
   -3.3440   23.4540  -29.2540 N   0  0  0  0  0  0  0  0  0  0  0  0
   -2.1960   23.0640  -30.0880 C   0  0  0  0  0  0  0  0  0  0  0  0
   -2.0330   21.5360  -30.1250 C   0  0  0  0  0  0  0  0  0  0  0  0
   -2.2890   20.8420  -28.7570 C   0  0  0  0  0  0  0  0  0  0  0  0
   -1.2110   19.7950  -28.4550 C   0  0  0  0  0  0  0  0  0  0  0  0
   -2.4000   21.8500  -27.6010 C   0  0  0  0  0  0  0  0  0  0  0  0
   -3.4900   22.8830  -27.9040 C   0  0  0  0  0  0  0  0  0  0  0  0
   -5.3670   23.4660  -32.2430 N   0  0  0  0  0  0  0  0  0  0  0  0
   -5.3370   22.2430  -32.7440 N   0  0  0  0  0  0  0  0  0  0  0  0
   -6.3060   21.5160  -32.1570 C   0  0  0  0  0  0  0  0  0  0  0  0
   -6.5700   20.1050  -32.5060 C   0  0  0  0  0  0  0  0  0  0  0  0
   -7.3260   19.1770  -31.7930 C   0  0  0  0  0  0  0  0  0  0  0  0
   -7.3280   17.9000  -32.3700 C   0  0  0  0  0  0  0  0  0  0  0  0
   -6.5660   17.8070  -33.5260 C   0  0  0  0  0  0  0  0  0  0  0  0
   -5.8880   19.3150  -33.8250 S   0  0  0  0  0  0  0  0  0  0  0  0
  -10.2950   21.7633  -30.6513 H   0  0  0  0  0  0  0  0  0  0  0  0
   -9.4947   22.7293  -31.9370 H   0  0  0  0  0  0  0  0  0  0  0  0
   -9.3495   20.9389  -31.9370 H   0  0  0  0  0  0  0  0  0  0  0  0
   -8.2977   22.7186  -29.6824 H   0  0  0  0  0  0  0  0  0  0  0  0
   -7.9738   20.9658  -29.9590 H   0  0  0  0  0  0  0  0  0  0  0  0
   -5.5957   25.5577  -28.4347 H   0  0  0  0  0  0  0  0  0  0  0  0
   -5.8607   23.7741  -28.5429 H   0  0  0  0  0  0  0  0  0  0  0  0
   -2.3538   23.4334  -31.1120 H   0  0  0  0  0  0  0  0  0  0  0  0
   -1.2847   23.5023  -29.6552 H   0  0  0  0  0  0  0  0  0  0  0  0
   -2.7449   21.1293  -30.8583 H   0  0  0  0  0  0  0  0  0  0  0  0
   -0.9863   21.3329  -30.3953 H   0  0  0  0  0  0  0  0  0  0  0  0
   -3.2596   20.3313  -28.8413 H   0  0  0  0  0  0  0  0  0  0  0  0
   -1.0997   19.6869  -27.3660 H   0  0  0  0  0  0  0  0  0  0  0  0
   -1.5056   18.8291  -28.8911 H   0  0  0  0  0  0  0  0  0  0  0  0
   -0.2541   20.1176  -28.8911 H   0  0  0  0  0  0  0  0  0  0  0  0
   -2.6544   21.3142  -26.6746 H   0  0  0  0  0  0  0  0  0  0  0  0
   -1.4369   22.3681  -27.4822 H   0  0  0  0  0  0  0  0  0  0  0  0
   -4.4732   22.3955  -27.8282 H   0  0  0  0  0  0  0  0  0  0  0  0
   -3.3967   23.7016  -27.1751 H   0  0  0  0  0  0  0  0  0  0  0  0
   -4.6570   21.9200  -33.4670 H   0  0  0  0  0  0  0  0  0  0  0  0
   -7.8681   19.4226  -30.8679 H   0  0  0  0  0  0  0  0  0  0  0  0
   -7.8824   17.0499  -31.9458 H   0  0  0  0  0  0  0  0  0  0  0  0
   -6.4297   16.9041  -34.1393 H   0  0  0  0  0  0  0  0  0  0  0  0
  1  2  1  0
  2  3  1  0
  3  4  1  0
  4  5  1  0
  5  6  1  0
  6  7  1  0
  7  8  2  0
  7  9  1  0
  9 10  1  0
 10 11  1  0
 11 12  1  0
 12 13  1  0
 12 14  1  0
 14 15  1  0
  4 16  2  0
 16 17  1  0
 17 18  2  0
 18 19  1  0
 19 20  2  0
 20 21  1  0
 21 22  2  0
 22 23  1  0
 18  3  1  0
 23 19  1  0
 15  9  1  0
  1 24  1  0
  1 25  1  0
  1 26  1  0
  2 27  1  0
  2 28  1  0
  6 29  1  0
  6 30  1  0
 10 31  1  0
 10 32  1  0
 11 33  1  0
 11 34  1  0
 12 35  1  0
 13 36  1  0
 13 37  1  0
 13 38  1  0
 14 39  1  0
 14 40  1  0
 15 41  1  0
 15 42  1  0
 17 43  1  0
 20 44  1  0
 21 45  1  0
 22 46  1  0
M  CHG  1  17   1
M  END
>  <UniqueID>  (12) 
12

>  <SMILES>  (12) 
CCn1c(SCC(=O)N2CCC(C)CC2)n[nH+]c1-c1cccs1

>  <Energy>  (12) 
103.65916115056262

>  <Genealogy>  (12) 
CCn1c(SCC(=O)N2CCC(C)CC2)n[nH+]c1-c1cccs1 (protonated)
CCn1c(SCC(=O)N2CCC(C)CC2)n[nH+]c1-c1cccs1 (3D coordinates assigned)
CCn1c(SCC(=O)N2CCC(C)CC2)n[nH+]c1-c1cccs1 (nonaromatic ring conformer: 103.65916115056262 kcal/mol)

>  <smiles>  (12) 
CCn1c(SCC(=O)N2CCC(C)CC2)nnc1-c1cccs1

>  <score_type>  (12) 
oracle

>  <origin>  (12) 
adg

>  <m_score__min__energy>  (12) 
-8.6300000000000008

>  <m_primary>  (12) 
energy

$$$$
12:0
     RDKit          3D

 50 52  0  0  0  0  0  0  0  0999 V2000
   -1.2300   17.5260  -33.1210 C   0  0  0  0  0  0  0  0  0  0  0  0
   -1.8860   18.3650  -34.2110 C   0  0  0  0  0  0  0  0  0  0  0  0
   -3.0540   19.0720  -33.6770 N   0  0  0  0  0  0  0  0  0  0  0  0
   -3.1300   20.3860  -33.3320 C   0  0  0  0  0  0  0  0  0  0  0  0
   -1.7530   21.5370  -33.4090 S   0  0  0  0  0  0  0  0  0  0  0  0
   -1.4500   21.5380  -31.6080 C   0  0  0  0  0  0  0  0  0  0  0  0
   -2.7150   21.9260  -30.8410 C   0  0  0  0  0  0  0  0  0  0  0  0
   -3.4020   22.9860  -31.5080 O   0  0  0  0  0  0  0  0  0  0  0  0
   -4.5650   23.6270  -31.0470 C   0  0  0  0  0  0  0  0  0  0  0  0
   -5.8580   23.2210  -31.4390 C   0  0  0  0  0  0  0  0  0  0  0  0
   -6.9850   23.8870  -30.9530 C   0  0  0  0  0  0  0  0  0  0  0  0
   -6.8380   24.9590  -30.0730 C   0  0  0  0  0  0  0  0  0  0  0  0
   -5.5650   25.3690  -29.6750 C   0  0  0  0  0  0  0  0  0  0  0  0
   -4.4200   24.7050  -30.1580 C   0  0  0  0  0  0  0  0  0  0  0  0
   -3.1230   25.0870  -29.7800 O   0  0  0  0  0  0  0  0  0  0  0  0
   -2.4140   24.5450  -28.6710 C   0  0  0  0  0  0  0  0  0  0  0  0
   -4.3750   20.7590  -32.9550 N   0  0  0  0  0  0  0  0  0  0  0  0
   -5.1020   19.6330  -33.0730 C   0  0  0  0  0  0  0  0  0  0  0  0
   -4.3180   18.6190  -33.5170 C   0  0  0  0  0  0  0  0  0  0  0  0
   -4.8740   17.3690  -33.7710 C   0  0  0  0  0  0  0  0  0  0  0  0
   -4.1630   16.4260  -34.2160 O   0  0  0  0  0  0  0  0  0  0  0  0
   -6.2190   17.1920  -33.5340 N   0  0  0  0  0  0  0  0  0  0  0  0
   -6.8460   15.8910  -33.8210 C   0  0  0  0  0  0  0  0  0  0  0  0
   -6.9990   18.2530  -33.1060 C   0  0  0  0  0  0  0  0  0  0  0  0
   -8.2440   18.0920  -32.9550 O   0  0  0  0  0  0  0  0  0  0  0  0
   -6.4370   19.4860  -32.8510 N   0  0  0  0  0  0  0  0  0  0  0  0
   -7.2390   20.6330  -32.4040 C   0  0  0  0  0  0  0  0  0  0  0  0
   -1.5291   17.9085  -32.1340 H   0  0  0  0  0  0  0  0  0  0  0  0
   -1.5513   16.4787  -33.2211 H   0  0  0  0  0  0  0  0  0  0  0  0
   -0.1362   17.5852  -33.2211 H   0  0  0  0  0  0  0  0  0  0  0  0
   -1.1598   19.0991  -34.5900 H   0  0  0  0  0  0  0  0  0  0  0  0
   -2.2117   17.7012  -35.0254 H   0  0  0  0  0  0  0  0  0  0  0  0
   -1.1340   20.5318  -31.2956 H   0  0  0  0  0  0  0  0  0  0  0  0
   -0.6642   22.2746  -31.3846 H   0  0  0  0  0  0  0  0  0  0  0  0
   -3.3789   21.0516  -30.7726 H   0  0  0  0  0  0  0  0  0  0  0  0
   -2.4293   22.2664  -29.8348 H   0  0  0  0  0  0  0  0  0  0  0  0
   -5.9791   22.3749  -32.1315 H   0  0  0  0  0  0  0  0  0  0  0  0
   -7.9899   23.5658  -31.2646 H   0  0  0  0  0  0  0  0  0  0  0  0
   -7.7274   25.4823  -29.6919 H   0  0  0  0  0  0  0  0  0  0  0  0
   -5.4548   26.2150  -28.9806 H   0  0  0  0  0  0  0  0  0  0  0  0
   -2.8733   24.8961  -27.7352 H   0  0  0  0  0  0  0  0  0  0  0  0
   -2.4559   23.4465  -28.7104 H   0  0  0  0  0  0  0  0  0  0  0  0
   -1.3650   24.8736  -28.7104 H   0  0  0  0  0  0  0  0  0  0  0  0
   -4.6910   21.7120  -32.6700 H   0  0  0  0  0  0  0  0  0  0  0  0
   -7.0899   15.3849  -32.8753 H   0  0  0  0  0  0  0  0  0  0  0  0
   -7.7673   16.0480  -34.4011 H   0  0  0  0  0  0  0  0  0  0  0  0
   -6.1492   15.2681  -34.4011 H   0  0  0  0  0  0  0  0  0  0  0  0
   -7.2583   20.6607  -31.3045 H   0  0  0  0  0  0  0  0  0  0  0  0
   -6.7935   21.5632  -32.7864 H   0  0  0  0  0  0  0  0  0  0  0  0
   -8.2656   20.5339  -32.7864 H   0  0  0  0  0  0  0  0  0  0  0  0
  1  2  1  0
  2  3  1  0
  3  4  1  0
  4  5  1  0
  5  6  1  0
  6  7  1  0
  7  8  1  0
  8  9  1  0
  9 10  2  0
 10 11  1  0
 11 12  2  0
 12 13  1  0
 13 14  2  0
 14 15  1  0
 15 16  1  0
  4 17  2  0
 17 18  1  0
 18 19  2  0
 19 20  1  0
 20 21  2  0
 20 22  1  0
 22 23  1  0
 22 24  1  0
 24 25  2  0
 24 26  1  0
 26 27  1  0
 19  3  1  0
 14  9  1  0
 26 18  1  0
  1 28  1  0
  1 29  1  0
  1 30  1  0
  2 31  1  0
  2 32  1  0
  6 33  1  0
  6 34  1  0
  7 35  1  0
  7 36  1  0
 10 37  1  0
 11 38  1  0
 12 39  1  0
 13 40  1  0
 16 41  1  0
 16 42  1  0
 16 43  1  0
 17 44  1  0
 23 45  1  0
 23 46  1  0
 23 47  1  0
 27 48  1  0
 27 49  1  0
 27 50  1  0
M  CHG  1  17   1
M  END
>  <UniqueID>  (13) 
13

>  <SMILES>  (13) 
CCn1c(SCCOc2ccccc2OC)[nH+]c2c1c(=O)n(C)c(=O)n2C

>  <Energy>  (13) 
90.75679502276039

>  <Genealogy>  (13) 
CCn1c(SCCOc2ccccc2OC)[nH+]c2c1c(=O)n(C)c(=O)n2C (protonated)
CCn1c(SCCOc2ccccc2OC)[nH+]c2c1c(=O)n(C)c(=O)n2C (3D coordinates assigned)
CCn1c(SCCOc2ccccc2OC)[nH+]c2c1c(=O)n(C)c(=O)n2C (optimized conformer: 90.75679502276039 kcal/mol)

>  <smiles>  (13) 
CCn1c(SCCOc2ccccc2OC)nc2c1c(=O)n(C)c(=O)n2C

>  <score_type>  (13) 
oracle

>  <origin>  (13) 
adg

>  <m_score__min__energy>  (13) 
-8.9900000000000002

>  <m_primary>  (13) 
energy

$$$$
13:0
     RDKit          3D

 34 35  0  0  0  0  0  0  0  0999 V2000
   -2.6770   24.1990  -27.7270 C   0  0  0  0  0  0  0  0  0  0  0  0
   -4.1590   24.4860  -27.4680 C   0  0  0  0  0  0  0  0  0  0  0  0
   -5.0120   24.1360  -28.6170 N   0  0  0  0  0  0  0  0  0  0  0  0
   -5.7430   25.3030  -29.1420 C   0  0  0  0  0  0  0  0  0  0  0  0
   -5.3650   25.5830  -30.5990 C   0  0  0  0  0  0  0  0  0  0  0  0
   -4.6990   24.4520  -31.1550 O   0  0  0  0  0  0  0  0  0  0  0  0
   -5.3460   23.2930  -31.6090 C   0  0  0  0  0  0  0  0  0  0  0  0
   -4.6630   22.2600  -32.2790 C   0  0  0  0  0  0  0  0  0  0  0  0
   -5.3490   21.1220  -32.7130 C   0  0  0  0  0  0  0  0  0  0  0  0
   -6.7260   20.9990  -32.4850 C   0  0  0  0  0  0  0  0  0  0  0  0
   -7.4240   19.8590  -32.9160 C   0  0  0  0  0  0  0  0  0  0  0  0
   -8.7980   19.7490  -32.6830 C   0  0  0  0  0  0  0  0  0  0  0  0
   -9.4830   20.7700  -32.0190 C   0  0  0  0  0  0  0  0  0  0  0  0
   -8.7990   21.9090  -31.5840 C   0  0  0  0  0  0  0  0  0  0  0  0
   -7.4200   22.0330  -31.8120 C   0  0  0  0  0  0  0  0  0  0  0  0
   -6.7220   23.1710  -31.3810 C   0  0  0  0  0  0  0  0  0  0  0  0
   -2.1500   24.0969  -26.7668 H   0  0  0  0  0  0  0  0  0  0  0  0
   -2.5791   23.2652  -28.3001 H   0  0  0  0  0  0  0  0  0  0  0  0
   -2.2375   25.0287  -28.3001 H   0  0  0  0  0  0  0  0  0  0  0  0
   -4.4844   23.8998  -26.5959 H   0  0  0  0  0  0  0  0  0  0  0  0
   -4.2637   25.5667  -27.2917 H   0  0  0  0  0  0  0  0  0  0  0  0
   -4.4310   23.7070  -29.3760 H   0  0  0  0  0  0  0  0  0  0  0  0
   -5.7040   23.4210  -28.2930 H   0  0  0  0  0  0  0  0  0  0  0  0
   -6.8236   25.1058  -29.0831 H   0  0  0  0  0  0  0  0  0  0  0  0
   -5.4759   26.1823  -28.5375 H   0  0  0  0  0  0  0  0  0  0  0  0
   -6.2766   25.7904  -31.1786 H   0  0  0  0  0  0  0  0  0  0  0  0
   -4.6930   26.4531  -30.6373 H   0  0  0  0  0  0  0  0  0  0  0  0
   -3.5820   22.3491  -32.4622 H   0  0  0  0  0  0  0  0  0  0  0  0
   -4.8060   20.3205  -33.2352 H   0  0  0  0  0  0  0  0  0  0  0  0
   -6.8889   19.0517  -33.4375 H   0  0  0  0  0  0  0  0  0  0  0  0
   -9.3418   18.8555  -33.0236 H   0  0  0  0  0  0  0  0  0  0  0  0
  -10.5640   20.6772  -31.8380 H   0  0  0  0  0  0  0  0  0  0  0  0
   -9.3431   22.7098  -31.0618 H   0  0  0  0  0  0  0  0  0  0  0  0
   -7.2610   23.9753  -30.8589 H   0  0  0  0  0  0  0  0  0  0  0  0
  1  2  1  0
  2  3  1  0
  3  4  1  0
  4  5  1  0
  5  6  1  0
  6  7  1  0
  7  8  2  0
  8  9  1  0
  9 10  2  0
 10 11  1  0
 11 12  2  0
 12 13  1  0
 13 14  2  0
 14 15  1  0
 15 16  2  0
 16  7  1  0
 15 10  1  0
  1 17  1  0
  1 18  1  0
  1 19  1  0
  2 20  1  0
  2 21  1  0
  3 22  1  0
  3 23  1  0
  4 24  1  0
  4 25  1  0
  5 26  1  0
  5 27  1  0
  8 28  1  0
  9 29  1  0
 11 30  1  0
 12 31  1  0
 13 32  1  0
 14 33  1  0
 16 34  1  0
M  CHG  1   3   1
M  END
>  <UniqueID>  (14) 
14

>  <SMILES>  (14) 
CC[NH2+]CCOc1ccc2ccccc2c1

>  <Energy>  (14) 
32.49675933923571

>  <Genealogy>  (14) 
CC[NH2+]CCOc1ccc2ccccc2c1 (protonated)
CC[NH2+]CCOc1ccc2ccccc2c1 (3D coordinates assigned)
CC[NH2+]CCOc1ccc2ccccc2c1 (optimized conformer: 32.49675933923571 kcal/mol)

>  <smiles>  (14) 
CCNCCOc1ccc2ccccc2c1

>  <score_type>  (14) 
oracle

>  <origin>  (14) 
adg

>  <m_score__min__energy>  (14) 
-6.2599999999999998

>  <m_primary>  (14) 
energy

$$$$
14:0
     RDKit          3D

 39 41  0  0  0  0  0  0  0  0999 V2000
   -3.3840   24.9800  -26.3330 C   0  0  0  0  0  0  0  0  0  0  0  0
   -2.2680   25.6510  -27.0230 N   0  0  0  0  0  0  0  0  0  0  0  0
   -1.5660   26.5740  -26.1140 C   0  0  0  0  0  0  0  0  0  0  0  0
   -1.3450   24.6940  -27.6820 C   0  0  0  0  0  0  0  0  0  0  0  0
   -1.8990   24.0560  -28.9730 C   0  0  0  0  0  0  0  0  0  0  0  0
   -2.8310   24.9360  -29.6010 O   0  0  0  0  0  0  0  0  0  0  0  0
   -4.0180   24.5430  -30.2420 C   0  0  0  0  0  0  0  0  0  0  0  0
   -5.2170   25.2780  -30.1450 C   0  0  0  0  0  0  0  0  0  0  0  0
   -6.3720   24.8310  -30.7930 C   0  0  0  0  0  0  0  0  0  0  0  0
   -6.3470   23.6540  -31.5520 C   0  0  0  0  0  0  0  0  0  0  0  0
   -5.1430   22.9440  -31.6850 C   0  0  0  0  0  0  0  0  0  0  0  0
   -3.9930   23.3780  -31.0180 C   0  0  0  0  0  0  0  0  0  0  0  0
   -5.0430   21.5620  -32.8280 S   0  0  0  0  0  0  0  0  0  0  0  0
   -6.6130   20.8490  -32.3280 C   0  0  0  0  0  0  0  0  0  0  0  0
   -6.7460   19.4600  -32.2240 C   0  0  0  0  0  0  0  0  0  0  0  0
   -8.0020   18.8950  -31.9850 C   0  0  0  0  0  0  0  0  0  0  0  0
   -9.1270   19.7140  -31.8550 C   0  0  0  0  0  0  0  0  0  0  0  0
   -8.9950   21.1040  -31.9380 C   0  0  0  0  0  0  0  0  0  0  0  0
   -7.7350   21.6810  -32.1580 C   0  0  0  0  0  0  0  0  0  0  0  0
   -7.5700   23.1050  -32.0700 N   0  0  0  0  0  0  0  0  0  0  0  0
   -3.2455   25.0633  -25.2449 H   0  0  0  0  0  0  0  0  0  0  0  0
   -4.3325   25.4577  -26.6195 H   0  0  0  0  0  0  0  0  0  0  0  0
   -3.4069   23.9182  -26.6195 H   0  0  0  0  0  0  0  0  0  0  0  0
   -2.6860   26.2350  -27.7860 H   0  0  0  0  0  0  0  0  0  0  0  0
   -1.7786   26.2944  -25.0716 H   0  0  0  0  0  0  0  0  0  0  0  0
   -0.4828   26.5146  -26.2959 H   0  0  0  0  0  0  0  0  0  0  0  0
   -1.9125   27.6020  -26.2959 H   0  0  0  0  0  0  0  0  0  0  0  0
   -0.4176   25.2293  -27.9339 H   0  0  0  0  0  0  0  0  0  0  0  0
   -1.1868   23.8710  -26.9695 H   0  0  0  0  0  0  0  0  0  0  0  0
   -1.0672   23.8553  -29.6643 H   0  0  0  0  0  0  0  0  0  0  0  0
   -2.4112   23.1170  -28.7163 H   0  0  0  0  0  0  0  0  0  0  0  0
   -5.2438   26.2072  -29.5569 H   0  0  0  0  0  0  0  0  0  0  0  0
   -7.3054   25.4065  -30.7065 H   0  0  0  0  0  0  0  0  0  0  0  0
   -3.0614   22.7994  -31.1038 H   0  0  0  0  0  0  0  0  0  0  0  0
   -5.8627   18.8131  -32.3303 H   0  0  0  0  0  0  0  0  0  0  0  0
   -8.1052   17.8032  -31.8990 H   0  0  0  0  0  0  0  0  0  0  0  0
  -10.1171   19.2651  -31.6873 H   0  0  0  0  0  0  0  0  0  0  0  0
   -9.8813   21.7465  -31.8305 H   0  0  0  0  0  0  0  0  0  0  0  0
   -8.4210   23.7120  -32.0980 H   0  0  0  0  0  0  0  0  0  0  0  0
  1  2  1  0
  2  3  1  0
  2  4  1  0
  4  5  1  0
  5  6  1  0
  6  7  1  0
  7  8  2  0
  8  9  1  0
  9 10  2  0
 10 11  1  0
 11 12  2  0
 11 13  1  0
 13 14  1  0
 14 15  2  0
 15 16  1  0
 16 17  2  0
 17 18  1  0
 18 19  2  0
 19 20  1  0
 12  7  1  0
 19 14  1  0
 20 10  1  0
  1 21  1  0
  1 22  1  0
  1 23  1  0
  2 24  1  0
  3 25  1  0
  3 26  1  0
  3 27  1  0
  4 28  1  0
  4 29  1  0
  5 30  1  0
  5 31  1  0
  8 32  1  0
  9 33  1  0
 12 34  1  0
 15 35  1  0
 16 36  1  0
 17 37  1  0
 18 38  1  0
 20 39  1  0
M  CHG  1   2   1
M  END
>  <UniqueID>  (15) 
15

>  <SMILES>  (15) 
C[NH+](C)CCOc1ccc2c(c1)Sc1ccccc1N2

>  <Energy>  (15) 
56.82815562623428

>  <Genealogy>  (15) 
C[NH+](C)CCOc1ccc2c(c1)Sc1ccccc1N2 (protonated)
C[NH+](C)CCOc1ccc2c(c1)Sc1ccccc1N2 (3D coordinates assigned)
C[NH+](C)CCOc1ccc2c(c1)Sc1ccccc1N2 (nonaromatic ring conformer: 56.82815562623428 kcal/mol)

>  <smiles>  (15) 
CN(C)CCOc1ccc2c(c1)Sc1ccccc1N2

>  <score_type>  (15) 
oracle

>  <origin>  (15) 
adg

>  <m_score__min__energy>  (15) 
-7.4199999999999999

>  <m_primary>  (15) 
energy

$$$$
15:0
     RDKit          3D

 52 56  0  0  0  0  0  0  0  0999 V2000
   -5.0690   24.4810  -29.9850 C   0  0  0  0  0  0  0  0  0  0  0  0
   -4.1950   24.1670  -31.1190 N   0  0  0  0  0  0  0  0  0  0  0  0
   -3.5020   22.8790  -30.9460 C   0  0  0  0  0  0  0  0  0  0  0  0
   -3.2910   22.1380  -32.2800 C   0  0  0  0  0  0  0  0  0  0  0  0
   -4.4970   22.2240  -33.1180 N   0  0  0  0  0  0  0  0  0  0  0  0
   -5.4260   21.1660  -32.7720 C   0  0  0  0  0  0  0  0  0  0  0  0
   -5.0340   19.8250  -32.8850 C   0  0  0  0  0  0  0  0  0  0  0  0
   -5.9080   18.7960  -32.5920 C   0  0  0  0  0  0  0  0  0  0  0  0
   -7.2280   19.0260  -32.3000 N   0  0  0  0  0  0  0  0  0  0  0  0
   -8.1960   17.9180  -32.3390 C   0  0  0  0  0  0  0  0  0  0  0  0
   -7.6340   20.3270  -32.0540 C   0  0  0  0  0  0  0  0  0  0  0  0
   -8.9180   20.6080  -31.5270 C   0  0  0  0  0  0  0  0  0  0  0  0
   -9.3470   21.9210  -31.3400 C   0  0  0  0  0  0  0  0  0  0  0  0
   -8.5140   22.9830  -31.6650 C   0  0  0  0  0  0  0  0  0  0  0  0
   -7.2300   22.7450  -32.1490 C   0  0  0  0  0  0  0  0  0  0  0  0
   -6.7520   21.4260  -32.3250 C   0  0  0  0  0  0  0  0  0  0  0  0
   -5.1790   17.5290  -32.7420 C   0  0  0  0  0  0  0  0  0  0  0  0
   -5.5100   16.2200  -32.3630 C   0  0  0  0  0  0  0  0  0  0  0  0
   -4.5640   15.1950  -32.5630 C   0  0  0  0  0  0  0  0  0  0  0  0
   -4.8730   13.8670  -32.2280 C   0  0  0  0  0  0  0  0  0  0  0  0
   -3.9290   12.8550  -32.4250 C   0  0  0  0  0  0  0  0  0  0  0  0
   -2.6690   13.1590  -32.9510 C   0  0  0  0  0  0  0  0  0  0  0  0
   -2.3420   14.4770  -33.2810 C   0  0  0  0  0  0  0  0  0  0  0  0
   -3.2790   15.5040  -33.0930 C   0  0  0  0  0  0  0  0  0  0  0  0
   -2.9490   16.8360  -33.3960 C   0  0  0  0  0  0  0  0  0  0  0  0
   -3.9080   17.8290  -33.2010 C   0  0  0  0  0  0  0  0  0  0  0  0
   -3.6990   19.3010  -33.3360 C   0  0  0  0  0  0  0  0  0  0  0  0
   -4.5325   24.2883  -29.0442 H   0  0  0  0  0  0  0  0  0  0  0  0
   -5.3615   25.5404  -30.0299 H   0  0  0  0  0  0  0  0  0  0  0  0
   -5.9689   23.8499  -30.0299 H   0  0  0  0  0  0  0  0  0  0  0  0
   -3.4940   24.9360  -31.2280 H   0  0  0  0  0  0  0  0  0  0  0  0
   -2.5199   23.0658  -30.4872 H   0  0  0  0  0  0  0  0  0  0  0  0
   -4.1329   22.2435  -30.3072 H   0  0  0  0  0  0  0  0  0  0  0  0
   -2.4453   22.5932  -32.8162 H   0  0  0  0  0  0  0  0  0  0  0  0
   -3.0822   21.0791  -32.0676 H   0  0  0  0  0  0  0  0  0  0  0  0
   -4.9400   23.1600  -32.9750 H   0  0  0  0  0  0  0  0  0  0  0  0
   -4.2530   22.1840  -34.1330 H   0  0  0  0  0  0  0  0  0  0  0  0
   -8.4552   17.6213  -31.3120 H   0  0  0  0  0  0  0  0  0  0  0  0
   -9.1045   18.2432  -32.8671 H   0  0  0  0  0  0  0  0  0  0  0  0
   -7.7517   17.0614  -32.8671 H   0  0  0  0  0  0  0  0  0  0  0  0
   -9.5876   19.7768  -31.2609 H   0  0  0  0  0  0  0  0  0  0  0  0
  -10.3501   22.1166  -30.9331 H   0  0  0  0  0  0  0  0  0  0  0  0
   -8.8695   24.0164  -31.5397 H   0  0  0  0  0  0  0  0  0  0  0  0
   -6.5783   23.5955  -32.3980 H   0  0  0  0  0  0  0  0  0  0  0  0
   -6.4908   15.9973  -31.9175 H   0  0  0  0  0  0  0  0  0  0  0  0
   -5.8604   13.6223  -31.8095 H   0  0  0  0  0  0  0  0  0  0  0  0
   -4.1780   11.8155  -32.1654 H   0  0  0  0  0  0  0  0  0  0  0  0
   -1.9322   12.3570  -33.1056 H   0  0  0  0  0  0  0  0  0  0  0  0
   -1.3474   14.7097  -33.6892 H   0  0  0  0  0  0  0  0  0  0  0  0
   -1.9505   17.0909  -33.7807 H   0  0  0  0  0  0  0  0  0  0  0  0
   -2.8858   19.6546  -32.6851 H   0  0  0  0  0  0  0  0  0  0  0  0
   -3.4026   19.6255  -34.3444 H   0  0  0  0  0  0  0  0  0  0  0  0
  1  2  1  0
  2  3  1  0
  3  4  1  0
  4  5  1  0
  5  6  1  0
  6  7  2  0
  7  8  1  0
  8  9  2  0
  9 10  1  0
  9 11  1  0
 11 12  2  0
 12 13  1  0
 13 14  2  0
 14 15  1  0
 15 16  2  0
  8 17  1  0
 17 18  2  0
 18 19  1  0
 19 20  2  0
 20 21  1  0
 21 22  2  0
 22 23  1  0
 23 24  2  0
 24 25  1  0
 25 26  2  0
 26 27  1  0
 16  6  1  0
 26 17  1  0
 27  7  1  0
 16 11  1  0
 24 19  1  0
  1 28  1  0
  1 29  1  0
  1 30  1  0
  2 31  1  0
  3 32  1  0
  3 33  1  0
  4 34  1  0
  4 35  1  0
  5 36  1  0
  5 37  1  0
 10 38  1  0
 10 39  1  0
 10 40  1  0
 12 41  1  0
 13 42  1  0
 14 43  1  0
 15 44  1  0
 18 45  1  0
 20 46  1  0
 21 47  1  0
 22 48  1  0
 23 49  1  0
 25 50  1  0
 27 51  1  0
 27 52  1  0
M  CHG  2   5   1   9   1
M  END
>  <UniqueID>  (16) 
16

>  <SMILES>  (16) 
CNCC[NH2+]c1c2c([n+](C)c3ccccc13)-c1cc3ccccc3cc1C2

>  <Energy>  (16) 
99.55446491455673

>  <Genealogy>  (16) 
CNCC[NH2+]c1c2c([n+](C)c3ccccc13)-c1cc3ccccc3cc1C2 (protonated)
CNCC[NH2+]c1c2c([n+](C)c3ccccc13)-c1cc3ccccc3cc1C2 (3D coordinates assigned)
CNCC[NH2+]c1c2c([n+](C)c3ccccc13)-c1cc3ccccc3cc1C2 (nonaromatic ring conformer: 99.55446491455673 kcal/mol)

>  <smiles>  (16) 
CNCCNc1c2c([n+](C)c3ccccc13)-c1cc3ccccc3cc1C2

>  <score_type>  (16) 
oracle

>  <origin>  (16) 
adg

>  <m_score__min__energy>  (16) 
-8.8599999999999994

>  <m_primary>  (16) 
energy

$$$$
16:0
     RDKit          3D

 58 62  0  0  0  0  0  0  0  0999 V2000
   -9.4880   21.9170  -31.7920 C   0  0  0  0  0  0  0  0  0  0  0  0
   -9.2370   20.7830  -32.6160 O   0  0  0  0  0  0  0  0  0  0  0  0
   -8.1370   19.9240  -32.4670 C   0  0  0  0  0  0  0  0  0  0  0  0
   -6.8150   20.3480  -32.7040 C   0  0  0  0  0  0  0  0  0  0  0  0
   -5.7440   19.4510  -32.5660 C   0  0  0  0  0  0  0  0  0  0  0  0
   -4.3980   19.8820  -32.8340 N   0  0  0  0  0  0  0  0  0  0  0  0
   -3.7660   21.0050  -32.3950 C   0  0  0  0  0  0  0  0  0  0  0  0
   -4.4130   22.1120  -31.6560 C   0  0  0  0  0  0  0  0  0  0  0  0
   -5.2820   22.9850  -32.3300 C   0  0  0  0  0  0  0  0  0  0  0  0
   -5.8940   24.0400  -31.6460 C   0  0  0  0  0  0  0  0  0  0  0  0
   -5.6510   24.2250  -30.2800 C   0  0  0  0  0  0  0  0  0  0  0  0
   -6.4820   25.6700  -29.3490 Br  0  0  0  0  0  0  0  0  0  0  0  0
   -4.8030   23.3480  -29.5980 C   0  0  0  0  0  0  0  0  0  0  0  0
   -4.1920   22.2910  -30.2800 C   0  0  0  0  0  0  0  0  0  0  0  0
   -2.4460   21.0200  -32.7030 N   0  0  0  0  0  0  0  0  0  0  0  0
   -2.2640   19.8720  -33.3820 C   0  0  0  0  0  0  0  0  0  0  0  0
   -3.4330   19.1690  -33.4420 C   0  0  0  0  0  0  0  0  0  0  0  0
   -3.5430   17.8090  -34.0620 C   0  0  0  0  0  0  0  0  0  0  0  0
   -2.1350   17.1950  -34.2240 C   0  0  0  0  0  0  0  0  0  0  0  0
   -1.1660   18.1800  -34.7840 N   0  0  2  0  0  0  0  0  0  0  0  0
    0.0940   17.5110  -35.2310 C   0  0  0  0  0  0  0  0  0  0  0  0
    0.7800   18.1950  -36.4480 C   0  0  0  0  0  0  0  0  0  0  0  0
    1.7870   17.2390  -37.1020 C   0  0  0  0  0  0  0  0  0  0  0  0
    1.1570   16.0070  -37.6210 N   0  0  0  0  0  0  0  0  0  0  0  0
   -0.0970   15.6230  -36.9430 C   0  0  0  0  0  0  0  0  0  0  0  0
   -0.0810   15.9820  -35.4500 C   0  0  0  0  0  0  0  0  0  0  0  0
   -0.9510   19.3200  -33.8450 C   0  0  0  0  0  0  0  0  0  0  0  0
   -5.9970   18.1300  -32.1700 C   0  0  0  0  0  0  0  0  0  0  0  0
   -7.3050   17.7090  -31.9230 C   0  0  0  0  0  0  0  0  0  0  0  0
   -8.3710   18.6010  -32.0710 C   0  0  0  0  0  0  0  0  0  0  0  0
   -9.6370   18.1770  -31.8370 F   0  0  0  0  0  0  0  0  0  0  0  0
   -9.4229   21.6231  -30.7340 H   0  0  0  0  0  0  0  0  0  0  0  0
   -8.7405   22.6960  -32.0028 H   0  0  0  0  0  0  0  0  0  0  0  0
  -10.4944   22.3078  -32.0028 H   0  0  0  0  0  0  0  0  0  0  0  0
   -6.6203   21.3896  -32.9994 H   0  0  0  0  0  0  0  0  0  0  0  0
   -5.4824   22.8383  -33.4016 H   0  0  0  0  0  0  0  0  0  0  0  0
   -6.5671   24.7253  -32.1820 H   0  0  0  0  0  0  0  0  0  0  0  0
   -4.6159   23.4894  -28.5233 H   0  0  0  0  0  0  0  0  0  0  0  0
   -3.5350   21.5961  -29.7364 H   0  0  0  0  0  0  0  0  0  0  0  0
   -4.1524   17.1606  -33.4153 H   0  0  0  0  0  0  0  0  0  0  0  0
   -4.0180   17.8966  -35.0503 H   0  0  0  0  0  0  0  0  0  0  0  0
   -1.7758   16.8617  -33.2392 H   0  0  0  0  0  0  0  0  0  0  0  0
   -2.2077   16.3492  -34.9235 H   0  0  0  0  0  0  0  0  0  0  0  0
   -1.6070   18.5760  -35.6500 H   0  0  0  0  0  0  0  0  0  0  0  0
    0.7886   17.6411  -34.3880 H   0  0  0  0  0  0  0  0  0  0  0  0
    0.0137   18.4745  -37.1860 H   0  0  0  0  0  0  0  0  0  0  0  0
    1.3138   19.0913  -36.0992 H   0  0  0  0  0  0  0  0  0  0  0  0
    2.2759   17.7619  -37.9372 H   0  0  0  0  0  0  0  0  0  0  0  0
    2.5087   16.9397  -36.3277 H   0  0  0  0  0  0  0  0  0  0  0  0
    0.9440   16.1420  -38.6380 H   0  0  0  0  0  0  0  0  0  0  0  0
   -0.9354   16.1474  -37.4247 H   0  0  0  0  0  0  0  0  0  0  0  0
   -0.2067   14.5317  -37.0274 H   0  0  0  0  0  0  0  0  0  0  0  0
   -1.0306   15.6627  -34.9959 H   0  0  0  0  0  0  0  0  0  0  0  0
    0.7710   15.4676  -34.9815 H   0  0  0  0  0  0  0  0  0  0  0  0
   -0.3785   18.9686  -32.9739 H   0  0  0  0  0  0  0  0  0  0  0  0
   -0.3962   20.1126  -34.3684 H   0  0  0  0  0  0  0  0  0  0  0  0
   -5.1623   17.4231  -32.0536 H   0  0  0  0  0  0  0  0  0  0  0  0
   -7.4973   16.6719  -31.6109 H   0  0  0  0  0  0  0  0  0  0  0  0
  1  2  1  0
  2  3  1  0
  3  4  2  0
  4  5  1  0
  5  6  1  0
  6  7  1  0
  7  8  1  0
  8  9  2  0
  9 10  1  0
 10 11  2  0
 11 12  1  0
 11 13  1  0
 13 14  2  0
  7 15  2  0
 15 16  1  0
 16 17  2  0
 17 18  1  0
 18 19  1  0
 19 20  1  0
 20 21  1  0
 21 22  1  0
 22 23  1  0
 23 24  1  0
 24 25  1  0
 25 26  1  0
 20 27  1  0
  5 28  2  0
 28 29  1  0
 29 30  2  0
 30 31  1  0
 30  3  1  0
 17  6  1  0
 26 21  1  0
 14  8  1  0
 27 16  1  0
  1 32  1  0
  1 33  1  0
  1 34  1  0
  4 35  1  0
  9 36  1  0
 10 37  1  0
 13 38  1  0
 14 39  1  0
 18 40  1  0
 18 41  1  0
 19 42  1  0
 19 43  1  0
 20 44  1  6
 21 45  1  0
 22 46  1  0
 22 47  1  0
 23 48  1  0
 23 49  1  0
 24 50  1  0
 25 51  1  0
 25 52  1  0
 26 53  1  0
 26 54  1  0
 27 55  1  0
 27 56  1  0
 28 57  1  0
 29 58  1  0
M  CHG  1  20   1
M  END
>  <UniqueID>  (17) 
17

>  <SMILES>  (17) 
COc1cc(-n2c(-c3ccc(Br)cc3)nc3c2CC[N@H+](C2CCNCC2)C3)ccc1F

>  <Energy>  (17) 
117.79436413737815

>  <Genealogy>  (17) 
COc1cc(-n2c(-c3ccc(Br)cc3)nc3c2CC[NH+](C2CCNCC2)C3)ccc1F (protonated)
COc1cc(-n2c(-c3ccc(Br)cc3)nc3c2CC[N@H+](C2CCNCC2)C3)ccc1F (chirality)
COc1cc(-n2c(-c3ccc(Br)cc3)nc3c2CC[N@H+](C2CCNCC2)C3)ccc1F (3D coordinates assigned)
COc1cc(-n2c(-c3ccc(Br)cc3)nc3c2CC[N@H+](C2CCNCC2)C3)ccc1F (nonaromatic ring conformer: 117.79436413737815 kcal/mol)

>  <smiles>  (17) 
COc1cc(-n2c(-c3ccc(Br)cc3)nc3c2CCN(C2CCNCC2)C3)ccc1F

>  <score_type>  (17) 
oracle

>  <origin>  (17) 
adg

>  <m_score__min__energy>  (17) 
-7.9699999999999998

>  <m_primary>  (17) 
energy

$$$$
17:0
     RDKit          3D

 48 48  0  0  0  0  0  0  0  0999 V2000
   -2.7990   20.8030  -28.6000 C   0  0  0  0  0  0  0  0  0  0  0  0
   -3.3560   21.1040  -29.9950 C   0  0  0  0  0  0  0  0  0  0  0  0
   -2.6810   22.2700  -30.6370 N   0  0  0  0  0  0  0  0  0  0  0  0
   -2.0540   21.8560  -31.9260 C   0  0  0  0  0  0  0  0  0  0  0  0
   -3.0730   21.2340  -32.8960 C   0  0  0  0  0  0  0  0  0  0  0  0
   -1.6500   22.8380  -29.7250 C   0  0  0  0  0  0  0  0  0  0  0  0
   -2.0960   24.1690  -29.0990 C   0  0  0  0  0  0  0  0  0  0  0  0
   -3.1580   24.7030  -29.8710 O   0  0  0  0  0  0  0  0  0  0  0  0
   -4.3990   24.5260  -29.2110 C   0  0  0  0  0  0  0  0  0  0  0  0
   -5.5440   24.4940  -30.2410 C   0  0  0  0  0  0  0  0  0  0  0  0
   -5.0660   24.2200  -31.6060 N   0  0  0  0  0  0  0  0  0  0  0  0
   -5.7280   23.0550  -32.2050 C   0  0  0  0  0  0  0  0  0  0  0  0
   -6.3890   22.2220  -31.1060 C   0  0  0  0  0  0  0  0  0  0  0  0
   -6.8990   20.9110  -31.6590 C   0  0  0  0  0  0  0  0  0  0  0  0
   -5.9730   19.8930  -31.9570 C   0  0  0  0  0  0  0  0  0  0  0  0
   -6.4070   18.6740  -32.4840 C   0  0  0  0  0  0  0  0  0  0  0  0
   -7.7630   18.4540  -32.7170 C   0  0  0  0  0  0  0  0  0  0  0  0
   -8.6910   19.4620  -32.4440 C   0  0  0  0  0  0  0  0  0  0  0  0
   -8.2730   20.6880  -31.9120 C   0  0  0  0  0  0  0  0  0  0  0  0
   -9.4940   21.9230  -31.6010 Cl  0  0  0  0  0  0  0  0  0  0  0  0
   -3.4965   21.1799  -27.8375 H   0  0  0  0  0  0  0  0  0  0  0  0
   -2.6773   19.7163  -28.4804 H   0  0  0  0  0  0  0  0  0  0  0  0
   -1.8233   21.2966  -28.4804 H   0  0  0  0  0  0  0  0  0  0  0  0
   -3.2127   20.2183  -30.6314 H   0  0  0  0  0  0  0  0  0  0  0  0
   -4.4219   21.3523  -29.8845 H   0  0  0  0  0  0  0  0  0  0  0  0
   -3.4020   23.0080  -30.8360 H   0  0  0  0  0  0  0  0  0  0  0  0
   -1.6064   22.7408  -32.4022 H   0  0  0  0  0  0  0  0  0  0  0  0
   -1.2935   21.0936  -31.7014 H   0  0  0  0  0  0  0  0  0  0  0  0
   -3.8741   20.7450  -32.3223 H   0  0  0  0  0  0  0  0  0  0  0  0
   -3.5047   22.0227  -33.5297 H   0  0  0  0  0  0  0  0  0  0  0  0
   -2.5689   20.4895  -33.5297 H   0  0  0  0  0  0  0  0  0  0  0  0
   -1.4541   22.1158  -28.9188 H   0  0  0  0  0  0  0  0  0  0  0  0
   -0.7446   23.0316  -30.3190 H   0  0  0  0  0  0  0  0  0  0  0  0
   -2.4386   23.9964  -28.0681 H   0  0  0  0  0  0  0  0  0  0  0  0
   -1.2532   24.8757  -29.0829 H   0  0  0  0  0  0  0  0  0  0  0  0
   -4.3834   23.5775  -28.6542 H   0  0  0  0  0  0  0  0  0  0  0  0
   -4.5613   25.3637  -28.5168 H   0  0  0  0  0  0  0  0  0  0  0  0
   -6.2566   23.7074  -29.9521 H   0  0  0  0  0  0  0  0  0  0  0  0
   -6.0178   25.4867  -30.2455 H   0  0  0  0  0  0  0  0  0  0  0  0
   -4.0340   24.0560  -31.5880 H   0  0  0  0  0  0  0  0  0  0  0  0
   -6.4937   23.3949  -32.9179 H   0  0  0  0  0  0  0  0  0  0  0  0
   -4.9827   22.4409  -32.7318 H   0  0  0  0  0  0  0  0  0  0  0  0
   -5.6516   22.0175  -30.3158 H   0  0  0  0  0  0  0  0  0  0  0  0
   -7.2400   22.7876  -30.6988 H   0  0  0  0  0  0  0  0  0  0  0  0
   -4.9011   20.0585  -31.7737 H   0  0  0  0  0  0  0  0  0  0  0  0
   -5.6759   17.8855  -32.7157 H   0  0  0  0  0  0  0  0  0  0  0  0
   -8.1028   17.4868  -33.1158 H   0  0  0  0  0  0  0  0  0  0  0  0
   -9.7582   19.2913  -32.6485 H   0  0  0  0  0  0  0  0  0  0  0  0
  1  2  1  0
  2  3  1  0
  3  4  1  0
  4  5  1  0
  3  6  1  0
  6  7  1  0
  7  8  1  0
  8  9  1  0
  9 10  1  0
 10 11  1  0
 11 12  1  0
 12 13  1  0
 13 14  1  0
 14 15  2  0
 15 16  1  0
 16 17  2  0
 17 18  1  0
 18 19  2  0
 19 20  1  0
 19 14  1  0
  1 21  1  0
  1 22  1  0
  1 23  1  0
  2 24  1  0
  2 25  1  0
  3 26  1  0
  4 27  1  0
  4 28  1  0
  5 29  1  0
  5 30  1  0
  5 31  1  0
  6 32  1  0
  6 33  1  0
  7 34  1  0
  7 35  1  0
  9 36  1  0
  9 37  1  0
 10 38  1  0
 10 39  1  0
 11 40  1  0
 12 41  1  0
 12 42  1  0
 13 43  1  0
 13 44  1  0
 15 45  1  0
 16 46  1  0
 17 47  1  0
 18 48  1  0
M  CHG  1   3   1
M  END
>  <UniqueID>  (18) 
18

>  <SMILES>  (18) 
CC[NH+](CC)CCOCCNCCc1ccccc1Cl

>  <Energy>  (18) 
45.9890178540541

>  <Genealogy>  (18) 
CC[NH+](CC)CCOCCNCCc1ccccc1Cl (protonated)
CC[NH+](CC)CCOCCNCCc1ccccc1Cl (3D coordinates assigned)
CC[NH+](CC)CCOCCNCCc1ccccc1Cl (optimized conformer: 45.9890178540541 kcal/mol)

>  <smiles>  (18) 
CCN(CC)CCOCCNCCc1ccccc1Cl

>  <score_type>  (18) 
oracle

>  <origin>  (18) 
adg

>  <m_score__min__energy>  (18) 
-5.25

>  <m_primary>  (18) 
energy

$$$$
18:0
     RDKit          3D

 57 60  0  0  0  0  0  0  0  0999 V2000
    0.2690   21.6400  -35.6720 C   0  0  0  0  0  0  0  0  0  0  0  0
   -0.0920   21.2450  -34.2330 C   0  0  0  0  0  0  0  0  0  0  0  0
   -1.4890   20.7600  -34.0580 N   0  0  0  0  0  0  0  0  0  0  0  0
   -1.5610   19.2820  -34.2210 C   0  0  0  0  0  0  0  0  0  0  0  0
   -0.5190   18.5420  -33.3740 C   0  0  0  0  0  0  0  0  0  0  0  0
   -2.1090   21.1800  -32.7730 C   0  0  0  0  0  0  0  0  0  0  0  0
   -3.2840   20.2850  -32.3490 C   0  0  0  0  0  0  0  0  0  0  0  0
   -4.5110   20.7090  -33.0190 N   0  0  0  0  0  0  0  0  0  0  0  0
   -5.7070   20.9720  -32.2690 C   0  0  0  0  0  0  0  0  0  0  0  0
   -5.8670   22.1960  -31.5770 C   0  0  0  0  0  0  0  0  0  0  0  0
   -4.8140   23.1340  -31.5120 C   0  0  0  0  0  0  0  0  0  0  0  0
   -4.9740   24.3400  -30.8370 C   0  0  0  0  0  0  0  0  0  0  0  0
   -6.1810   24.6380  -30.2140 C   0  0  0  0  0  0  0  0  0  0  0  0
   -7.2420   23.7350  -30.2670 C   0  0  0  0  0  0  0  0  0  0  0  0
   -7.1170   22.5010  -30.9500 C   0  0  0  0  0  0  0  0  0  0  0  0
   -8.1710   21.6090  -31.0290 N   0  0  0  0  0  0  0  0  0  0  0  0
   -9.4780   21.9240  -30.4210 C   0  0  0  0  0  0  0  0  0  0  0  0
   -7.9780   20.4170  -31.6760 C   0  0  0  0  0  0  0  0  0  0  0  0
   -9.0930   19.1700  -31.8870 S   0  0  0  0  0  0  0  0  0  0  0  0
   -8.0580   18.1420  -32.7180 C   0  0  0  0  0  0  0  0  0  0  0  0
   -6.8090   18.7530  -32.8320 C   0  0  0  0  0  0  0  0  0  0  0  0
   -5.6610   18.0190  -33.3970 C   0  0  0  0  0  0  0  0  0  0  0  0
   -5.3660   18.1210  -34.7670 C   0  0  0  0  0  0  0  0  0  0  0  0
   -4.2800   17.4260  -35.3060 C   0  0  0  0  0  0  0  0  0  0  0  0
   -3.4920   16.6100  -34.4870 C   0  0  0  0  0  0  0  0  0  0  0  0
   -2.1270   15.7420  -35.1650 Cl  0  0  0  0  0  0  0  0  0  0  0  0
   -3.7960   16.4850  -33.1280 C   0  0  0  0  0  0  0  0  0  0  0  0
   -4.8820   17.1800  -32.5850 C   0  0  0  0  0  0  0  0  0  0  0  0
   -6.7730   20.0560  -32.2680 C   0  0  0  0  0  0  0  0  0  0  0  0
    1.0110   22.4519  -35.6542 H   0  0  0  0  0  0  0  0  0  0  0  0
    0.6903   20.7697  -36.1964 H   0  0  0  0  0  0  0  0  0  0  0  0
   -0.6356   21.9815  -36.1964 H   0  0  0  0  0  0  0  0  0  0  0  0
    0.5920   20.4446  -33.9145 H   0  0  0  0  0  0  0  0  0  0  0  0
    0.0010   22.1572  -33.6254 H   0  0  0  0  0  0  0  0  0  0  0  0
   -2.0430   21.1960  -34.8340 H   0  0  0  0  0  0  0  0  0  0  0  0
   -2.5635   18.9432  -33.9207 H   0  0  0  0  0  0  0  0  0  0  0  0
   -1.3539   19.0536  -35.2769 H   0  0  0  0  0  0  0  0  0  0  0  0
   -0.7369   18.6968  -32.3070 H   0  0  0  0  0  0  0  0  0  0  0  0
   -0.5563   17.4669  -33.6037 H   0  0  0  0  0  0  0  0  0  0  0  0
    0.4838   18.9314  -33.6037 H   0  0  0  0  0  0  0  0  0  0  0  0
   -1.3411   21.1455  -31.9862 H   0  0  0  0  0  0  0  0  0  0  0  0
   -2.5060   22.1957  -32.9172 H   0  0  0  0  0  0  0  0  0  0  0  0
   -3.0631   19.2425  -32.6218 H   0  0  0  0  0  0  0  0  0  0  0  0
   -3.4230   20.3681  -31.2610 H   0  0  0  0  0  0  0  0  0  0  0  0
   -4.5900   20.5480  -34.0490 H   0  0  0  0  0  0  0  0  0  0  0  0
   -3.8549   22.9085  -32.0012 H   0  0  0  0  0  0  0  0  0  0  0  0
   -4.1433   25.0599  -30.7960 H   0  0  0  0  0  0  0  0  0  0  0  0
   -6.2992   25.5906  -29.6769 H   0  0  0  0  0  0  0  0  0  0  0  0
   -8.1911   23.9852  -29.7704 H   0  0  0  0  0  0  0  0  0  0  0  0
   -9.3873   21.9021  -29.3250 H   0  0  0  0  0  0  0  0  0  0  0  0
   -9.8001   22.9255  -30.7424 H   0  0  0  0  0  0  0  0  0  0  0  0
  -10.2210   21.1792  -30.7424 H   0  0  0  0  0  0  0  0  0  0  0  0
   -8.3218   17.1483  -33.1090 H   0  0  0  0  0  0  0  0  0  0  0  0
   -5.9918   18.7499  -35.4173 H   0  0  0  0  0  0  0  0  0  0  0  0
   -4.0442   17.5207  -36.3763 H   0  0  0  0  0  0  0  0  0  0  0  0
   -3.1803   15.8392  -32.4847 H   0  0  0  0  0  0  0  0  0  0  0  0
   -5.1262   17.0686  -31.5182 H   0  0  0  0  0  0  0  0  0  0  0  0
  1  2  1  0
  2  3  1  0
  3  4  1  0
  4  5  1  0
  3  6  1  0
  6  7  1  0
  7  8  1  0
  8  9  1  0
  9 10  2  0
 10 11  1  0
 11 12  2  0
 12 13  1  0
 13 14  2  0
 14 15  1  0
 15 16  2  0
 16 17  1  0
 16 18  1  0
 18 19  1  0
 19 20  1  0
 20 21  2  0
 21 22  1  0
 22 23  2  0
 23 24  1  0
 24 25  2  0
 25 26  1  0
 25 27  1  0
 27 28  2  0
 21 29  1  0
 29  9  1  0
 15 10  1  0
 29 18  2  0
 28 22  1  0
  1 30  1  0
  1 31  1  0
  1 32  1  0
  2 33  1  0
  2 34  1  0
  3 35  1  0
  4 36  1  0
  4 37  1  0
  5 38  1  0
  5 39  1  0
  5 40  1  0
  6 41  1  0
  6 42  1  0
  7 43  1  0
  7 44  1  0
  8 45  1  0
 11 46  1  0
 12 47  1  0
 13 48  1  0
 14 49  1  0
 17 50  1  0
 17 51  1  0
 17 52  1  0
 20 53  1  0
 23 54  1  0
 24 55  1  0
 27 56  1  0
 28 57  1  0
M  CHG  2   3   1  16   1
M  END
>  <UniqueID>  (19) 
19

>  <SMILES>  (19) 
CC[NH+](CC)CCNc1c2ccccc2[n+](C)c2scc(-c3ccc(Cl)cc3)c12

>  <Energy>  (19) 
114.23264414368671

>  <Genealogy>  (19) 
CC[NH+](CC)CCNc1c2ccccc2[n+](C)c2scc(-c3ccc(Cl)cc3)c12 (protonated)
CC[NH+](CC)CCNc1c2ccccc2[n+](C)c2scc(-c3ccc(Cl)cc3)c12 (3D coordinates assigned)
CC[NH+](CC)CCNc1c2ccccc2[n+](C)c2scc(-c3ccc(Cl)cc3)c12 (optimized conformer: 114.23264414368671 kcal/mol)

>  <smiles>  (19) 
CCN(CC)CCNc1c2ccccc2[n+](C)c2scc(-c3ccc(Cl)cc3)c12

>  <score_type>  (19) 
oracle

>  <origin>  (19) 
adg

>  <m_score__min__energy>  (19) 
-7.8200000000000003

>  <m_primary>  (19) 
energy

$$$$
19:0
     RDKit          3D

 52 55  0  0  0  0  0  0  0  0999 V2000
   -7.1610   13.4640  -34.7780 C   0  0  0  0  0  0  0  0  0  0  0  0
   -7.3350   14.6870  -34.0670 O   0  0  0  0  0  0  0  0  0  0  0  0
   -6.4300   15.7570  -34.1000 C   0  0  0  0  0  0  0  0  0  0  0  0
   -5.1010   15.6080  -34.5780 C   0  0  0  0  0  0  0  0  0  0  0  0
   -4.2130   16.6950  -34.5710 C   0  0  0  0  0  0  0  0  0  0  0  0
   -4.6790   17.9250  -34.1110 C   0  0  0  0  0  0  0  0  0  0  0  0
   -3.9530   19.0510  -33.9710 N   0  0  0  0  0  0  0  0  0  0  0  0
   -4.8050   19.9580  -33.4460 C   0  0  0  0  0  0  0  0  0  0  0  0
   -4.5040   21.2540  -33.0480 C   0  0  0  0  0  0  0  0  0  0  0  0
   -3.1830   21.7860  -33.2410 N   0  0  0  0  0  0  0  0  0  0  0  0
   -2.0640   21.3990  -32.3840 C   0  0  0  0  0  0  0  0  0  0  0  0
   -0.7260   21.5310  -33.1370 C   0  0  0  0  0  0  0  0  0  0  0  0
   -0.8040   21.0270  -34.5330 N   0  0  0  0  0  0  0  0  0  0  0  0
    0.2480   21.6420  -35.3590 C   0  0  0  0  0  0  0  0  0  0  0  0
   -0.6720   19.5620  -34.5780 C   0  0  0  0  0  0  0  0  0  0  0  0
   -5.5180   21.9880  -32.3910 C   0  0  0  0  0  0  0  0  0  0  0  0
   -5.2730   23.2910  -31.9150 C   0  0  0  0  0  0  0  0  0  0  0  0
   -6.2630   23.9980  -31.2380 C   0  0  0  0  0  0  0  0  0  0  0  0
   -7.5080   23.4190  -31.0100 C   0  0  0  0  0  0  0  0  0  0  0  0
   -7.7870   22.1400  -31.4900 C   0  0  0  0  0  0  0  0  0  0  0  0
   -6.8210   21.4080  -32.2230 C   0  0  0  0  0  0  0  0  0  0  0  0
   -7.1050   20.1580  -32.7560 N   0  0  0  0  0  0  0  0  0  0  0  0
   -8.4840   19.6500  -32.8450 C   0  0  0  0  0  0  0  0  0  0  0  0
   -6.0650   19.4250  -33.2650 C   0  0  0  0  0  0  0  0  0  0  0  0
   -5.9810   18.0960  -33.6790 C   0  0  0  0  0  0  0  0  0  0  0  0
   -6.8680   17.0110  -33.6310 C   0  0  0  0  0  0  0  0  0  0  0  0
   -7.0434   12.6372  -34.0621 H   0  0  0  0  0  0  0  0  0  0  0  0
   -8.0419   13.2790  -35.4103 H   0  0  0  0  0  0  0  0  0  0  0  0
   -6.2635   13.5320  -35.4103 H   0  0  0  0  0  0  0  0  0  0  0  0
   -4.7645   14.6318  -34.9572 H   0  0  0  0  0  0  0  0  0  0  0  0
   -3.1762   16.5789  -34.9196 H   0  0  0  0  0  0  0  0  0  0  0  0
   -2.9370   19.1720  -34.1780 H   0  0  0  0  0  0  0  0  0  0  0  0
   -2.9650   22.2740  -34.1360 H   0  0  0  0  0  0  0  0  0  0  0  0
   -2.0454   22.0517  -31.4987 H   0  0  0  0  0  0  0  0  0  0  0  0
   -2.1970   20.3492  -32.0835 H   0  0  0  0  0  0  0  0  0  0  0  0
   -0.4385   22.5925  -33.1612 H   0  0  0  0  0  0  0  0  0  0  0  0
    0.0182   20.9213  -32.6036 H   0  0  0  0  0  0  0  0  0  0  0  0
   -1.7260   21.2830  -34.9600 H   0  0  0  0  0  0  0  0  0  0  0  0
    1.0124   22.0889  -34.7063 H   0  0  0  0  0  0  0  0  0  0  0  0
    0.7121   20.8730  -35.9940 H   0  0  0  0  0  0  0  0  0  0  0  0
   -0.1944   22.4237  -35.9940 H   0  0  0  0  0  0  0  0  0  0  0  0
   -0.6363   19.1654  -33.5526 H   0  0  0  0  0  0  0  0  0  0  0  0
   -1.5351   19.1322  -35.1075 H   0  0  0  0  0  0  0  0  0  0  0  0
    0.2540   19.2934  -35.1075 H   0  0  0  0  0  0  0  0  0  0  0  0
   -4.2892   23.7547  -32.0799 H   0  0  0  0  0  0  0  0  0  0  0  0
   -6.0604   25.0188  -30.8817 H   0  0  0  0  0  0  0  0  0  0  0  0
   -8.2750   23.9728  -30.4488 H   0  0  0  0  0  0  0  0  0  0  0  0
   -8.7730   21.6923  -31.2964 H   0  0  0  0  0  0  0  0  0  0  0  0
   -8.8863   19.5018  -31.8320 H   0  0  0  0  0  0  0  0  0  0  0  0
   -9.1085   20.3771  -33.3848 H   0  0  0  0  0  0  0  0  0  0  0  0
   -8.4876   18.6915  -33.3848 H   0  0  0  0  0  0  0  0  0  0  0  0
   -7.8864   17.1367  -33.2347 H   0  0  0  0  0  0  0  0  0  0  0  0
  1  2  1  0
  2  3  1  0
  3  4  2  0
  4  5  1  0
  5  6  2  0
  6  7  1  0
  7  8  1  0
  8  9  2  0
  9 10  1  0
 10 11  1  0
 11 12  1  0
 12 13  1  0
 13 14  1  0
 13 15  1  0
  9 16  1  0
 16 17  2  0
 17 18  1  0
 18 19  2  0
 19 20  1  0
 20 21  2  0
 21 22  1  0
 22 23  1  0
 22 24  2  0
 24 25  1  0
 25 26  2  0
 26  3  1  0
 25  6  1  0
 24  8  1  0
 21 16  1  0
  1 27  1  0
  1 28  1  0
  1 29  1  0
  4 30  1  0
  5 31  1  0
  7 32  1  0
 10 33  1  0
 11 34  1  0
 11 35  1  0
 12 36  1  0
 12 37  1  0
 13 38  1  0
 14 39  1  0
 14 40  1  0
 14 41  1  0
 15 42  1  0
 15 43  1  0
 15 44  1  0
 17 45  1  0
 18 46  1  0
 19 47  1  0
 20 48  1  0
 23 49  1  0
 23 50  1  0
 23 51  1  0
 26 52  1  0
M  CHG  2  13   1  22   1
M  END
>  <UniqueID>  (20) 
20

>  <SMILES>  (20) 
COc1ccc2[nH]c3c(NCC[NH+](C)C)c4ccccc4[n+](C)c3c2c1

>  <Energy>  (20) 
114.23619249539368

>  <Genealogy>  (20) 
COc1ccc2[nH]c3c(NCC[NH+](C)C)c4ccccc4[n+](C)c3c2c1 (protonated)
COc1ccc2[nH]c3c(NCC[NH+](C)C)c4ccccc4[n+](C)c3c2c1 (3D coordinates assigned)
COc1ccc2[nH]c3c(NCC[NH+](C)C)c4ccccc4[n+](C)c3c2c1 (optimized conformer: 114.23619249539368 kcal/mol)

>  <smiles>  (20) 
COc1ccc2[nH]c3c(NCCN(C)C)c4ccccc4[n+](C)c3c2c1

>  <score_type>  (20) 
oracle

>  <origin>  (20) 
adg

>  <m_score__min__energy>  (20) 
-7.3600000000000003

>  <m_primary>  (20) 
energy

$$$$
20:0
     RDKit          3D

 57 59  0  0  0  0  0  0  0  0999 V2000
   -3.3620   24.1680  -27.5280 C   0  0  0  0  0  0  0  0  0  0  0  0
   -2.4100   24.6640  -28.6110 C   0  0  0  0  0  0  0  0  0  0  0  0
   -3.1380   25.2010  -29.7160 O   0  0  0  0  0  0  0  0  0  0  0  0
   -4.2680   24.6190  -30.3130 C   0  0  0  0  0  0  0  0  0  0  0  0
   -4.0970   23.4250  -31.0230 C   0  0  0  0  0  0  0  0  0  0  0  0
   -5.1870   22.8000  -31.6350 C   0  0  0  0  0  0  0  0  0  0  0  0
   -6.4700   23.3470  -31.5310 C   0  0  0  0  0  0  0  0  0  0  0  0
   -7.5570   22.6840  -32.1920 N   0  0  0  0  0  0  0  0  0  0  0  0
   -8.3050   21.5660  -31.6990 C   0  0  0  0  0  0  0  0  0  0  0  0
   -8.4400   21.3720  -30.4610 O   0  0  0  0  0  0  0  0  0  0  0  0
   -8.8820   20.5750  -32.6730 C   0  0  0  0  0  0  0  0  0  0  0  0
   -7.9430   19.4630  -32.9530 N   0  0  0  0  0  0  0  0  0  0  0  0
   -7.4610   18.8800  -31.6730 C   0  0  0  0  0  0  0  0  0  0  0  0
   -6.1450   18.1190  -31.8690 C   0  0  0  0  0  0  0  0  0  0  0  0
   -5.0700   19.0390  -32.2950 N   0  0  0  0  0  0  0  0  0  0  0  0
   -3.8710   18.3520  -32.8290 C   0  0  0  0  0  0  0  0  0  0  0  0
   -2.7420   19.2900  -33.2090 C   0  0  0  0  0  0  0  0  0  0  0  0
   -1.8290   18.9310  -34.2140 C   0  0  0  0  0  0  0  0  0  0  0  0
   -0.7920   19.7960  -34.5740 C   0  0  0  0  0  0  0  0  0  0  0  0
   -0.6390   21.0310  -33.9190 C   0  0  0  0  0  0  0  0  0  0  0  0
    0.3800   21.9370  -34.2460 O   0  0  0  0  0  0  0  0  0  0  0  0
    1.5310   21.6070  -35.0170 C   0  0  0  0  0  0  0  0  0  0  0  0
   -1.5300   21.3750  -32.8970 C   0  0  0  0  0  0  0  0  0  0  0  0
   -2.5680   20.5110  -32.5370 C   0  0  0  0  0  0  0  0  0  0  0  0
   -5.5330   20.1960  -33.0970 C   0  0  0  0  0  0  0  0  0  0  0  0
   -6.8330   19.8850  -33.8580 C   0  0  0  0  0  0  0  0  0  0  0  0
   -6.6460   24.5550  -30.8340 C   0  0  0  0  0  0  0  0  0  0  0  0
   -5.5560   25.1830  -30.2220 C   0  0  0  0  0  0  0  0  0  0  0  0
   -2.9377   24.3891  -26.5375 H   0  0  0  0  0  0  0  0  0  0  0  0
   -4.3325   24.6751  -27.6326 H   0  0  0  0  0  0  0  0  0  0  0  0
   -3.5025   23.0820  -27.6326 H   0  0  0  0  0  0  0  0  0  0  0  0
   -1.7618   25.4471  -28.1909 H   0  0  0  0  0  0  0  0  0  0  0  0
   -1.8046   23.8165  -28.9648 H   0  0  0  0  0  0  0  0  0  0  0  0
   -3.0963   22.9748  -31.1000 H   0  0  0  0  0  0  0  0  0  0  0  0
   -5.0346   21.8704  -32.2030 H   0  0  0  0  0  0  0  0  0  0  0  0
   -9.8088   20.1597  -32.2505 H   0  0  0  0  0  0  0  0  0  0  0  0
   -9.0778   21.1016  -33.6187 H   0  0  0  0  0  0  0  0  0  0  0  0
   -8.4770   18.7050  -33.4440 H   0  0  0  0  0  0  0  0  0  0  0  0
   -7.3014   19.6911  -30.9473 H   0  0  0  0  0  0  0  0  0  0  0  0
   -8.2197   18.1733  -31.3056 H   0  0  0  0  0  0  0  0  0  0  0  0
   -5.8581   17.6428  -30.9198 H   0  0  0  0  0  0  0  0  0  0  0  0
   -6.2891   17.3570  -32.6491 H   0  0  0  0  0  0  0  0  0  0  0  0
   -3.4999   17.6568  -32.0615 H   0  0  0  0  0  0  0  0  0  0  0  0
   -4.1821   17.8381  -33.7504 H   0  0  0  0  0  0  0  0  0  0  0  0
   -1.9310   17.9607  -34.7221 H   0  0  0  0  0  0  0  0  0  0  0  0
   -0.0925   19.5096  -35.3731 H   0  0  0  0  0  0  0  0  0  0  0  0
    2.3671   21.3673  -34.3435 H   0  0  0  0  0  0  0  0  0  0  0  0
    1.3100   20.7360  -35.6515 H   0  0  0  0  0  0  0  0  0  0  0  0
    1.8050   22.4628  -35.6515 H   0  0  0  0  0  0  0  0  0  0  0  0
   -1.4127   22.3344  -32.3718 H   0  0  0  0  0  0  0  0  0  0  0  0
   -3.2529   20.7890  -31.7223 H   0  0  0  0  0  0  0  0  0  0  0  0
   -5.7107   21.0471  -32.4232 H   0  0  0  0  0  0  0  0  0  0  0  0
   -4.7536   20.4308  -33.8368 H   0  0  0  0  0  0  0  0  0  0  0  0
   -7.1467   20.7878  -34.4025 H   0  0  0  0  0  0  0  0  0  0  0  0
   -6.6258   19.0490  -34.5422 H   0  0  0  0  0  0  0  0  0  0  0  0
   -7.6459   25.0088  -30.7695 H   0  0  0  0  0  0  0  0  0  0  0  0
   -5.7051   26.1212  -29.6673 H   0  0  0  0  0  0  0  0  0  0  0  0
  1  2  1  0
  2  3  1  0
  3  4  1  0
  4  5  2  0
  5  6  1  0
  6  7  2  0
  7  8  1  0
  8  9  1  0
  9 10  2  0
  9 11  1  0
 11 12  1  0
 12 13  1  0
 13 14  1  0
 14 15  1  0
 15 16  1  0
 16 17  1  0
 17 18  2  0
 18 19  1  0
 19 20  2  0
 20 21  1  0
 21 22  1  0
 20 23  1  0
 23 24  2  0
 15 25  1  0
 25 26  1  0
  7 27  1  0
 27 28  2  0
 28  4  1  0
 26 12  1  0
 24 17  1  0
  1 29  1  0
  1 30  1  0
  1 31  1  0
  2 32  1  0
  2 33  1  0
  5 34  1  0
  6 35  1  0
 11 36  1  0
 11 37  1  0
 12 38  1  0
 13 39  1  0
 13 40  1  0
 14 41  1  0
 14 42  1  0
 16 43  1  0
 16 44  1  0
 18 45  1  0
 19 46  1  0
 22 47  1  0
 22 48  1  0
 22 49  1  0
 23 50  1  0
 24 51  1  0
 25 52  1  0
 25 53  1  0
 26 54  1  0
 26 55  1  0
 27 56  1  0
 28 57  1  0
M  CHG  2   8  -1  12   1
M  END
>  <UniqueID>  (21) 
21

>  <SMILES>  (21) 
CCOc1ccc([N-]C(=O)C[NH+]2CCN(Cc3ccc(OC)cc3)CC2)cc1

>  <Energy>  (21) 
74.454495911629

>  <Genealogy>  (21) 
CCOc1ccc([N-]C(=O)C[NH+]2CCN(Cc3ccc(OC)cc3)CC2)cc1 (protonated)
CCOc1ccc([N-]C(=O)C[NH+]2CCN(Cc3ccc(OC)cc3)CC2)cc1 (3D coordinates assigned)
CCOc1ccc([N-]C(=O)C[NH+]2CCN(Cc3ccc(OC)cc3)CC2)cc1 (nonaromatic ring conformer: 74.454495911629 kcal/mol)

>  <smiles>  (21) 
CCOc1ccc(NC(=O)CN2CCN(Cc3ccc(OC)cc3)CC2)cc1

>  <score_type>  (21) 
oracle

>  <origin>  (21) 
adg

>  <m_score__min__energy>  (21) 
-8.8399999999999999

>  <m_primary>  (21) 
energy

$$$$
21:0
     RDKit          3D

109115  0  0  0  0  0  0  0  0999 V2000
   -3.8970   19.8390  -32.0440 C   0  0  0  0  0  0  0  0  0  0  0  0
   -4.2170   20.3050  -33.4600 C   0  0  0  0  0  0  0  0  0  0  0  0
   -5.4480   19.7420  -33.9130 O   0  0  0  0  0  0  0  0  0  0  0  0
   -6.6370   19.6590  -33.1650 C   0  0  0  0  0  0  0  0  0  0  0  0
   -7.2170   20.7890  -32.5490 C   0  0  0  0  0  0  0  0  0  0  0  0
   -8.3990   20.6680  -31.8140 C   0  0  0  0  0  0  0  0  0  0  0  0
   -9.0140   19.4240  -31.6750 C   0  0  0  0  0  0  0  0  0  0  0  0
   -8.4510   18.2970  -32.2770 C   0  0  0  0  0  0  0  0  0  0  0  0
   -7.2630   18.4020  -33.0180 C   0  0  0  0  0  0  0  0  0  0  0  0
   -6.6890   17.1580  -33.6580 C   0  0  0  0  0  0  0  0  0  0  0  0
   -5.5320   16.7170  -32.9770 O   0  0  0  0  0  0  0  0  0  0  0  0
   -4.6450   16.0780  -33.8670 C   0  0  0  0  0  0  0  0  0  0  0  0
   -3.6700   17.0910  -34.4990 C   0  0  0  0  0  0  0  0  0  0  0  0
   -2.2260   16.9890  -34.1090 N   0  0  2  0  0  0  0  0  0  0  0  0
   -1.6770   18.3750  -34.0760 C   0  0  0  0  0  0  0  0  0  0  0  0
   -0.2010   18.3700  -33.6310 C   0  0  0  0  0  0  0  0  0  0  0  0
    0.3000   16.9760  -33.4690 N   0  0  2  0  0  0  0  0  0  0  0  0
    1.7580   17.0540  -33.1170 C   0  0  0  0  0  0  0  0  0  0  0  0
    2.2060   18.1470  -32.1100 C   0  0  0  0  0  0  0  0  0  0  0  0
    2.7160   17.6340  -30.7570 C   0  0  0  0  0  0  0  0  0  0  0  0
    1.6720   17.6570  -29.7890 O   0  0  0  0  0  0  0  0  0  0  0  0
    1.1120   18.8330  -29.2660 C   0  0  0  0  0  0  0  0  0  0  0  0
    1.7200   19.5620  -28.2330 C   0  0  0  0  0  0  0  0  0  0  0  0
    1.1370   20.7370  -27.7580 C   0  0  0  0  0  0  0  0  0  0  0  0
   -0.0560   21.2370  -28.3210 C   0  0  0  0  0  0  0  0  0  0  0  0
   -0.7290   20.4240  -29.2720 C   0  0  0  0  0  0  0  0  0  0  0  0
   -2.0310   20.7450  -29.6650 C   0  0  0  0  0  0  0  0  0  0  0  0
   -2.7020   21.8020  -29.0600 C   0  0  0  0  0  0  0  0  0  0  0  0
   -2.0470   22.6330  -28.1310 C   0  0  0  0  0  0  0  0  0  0  0  0
   -2.7450   23.6510  -27.4570 C   0  0  0  0  0  0  0  0  0  0  0  0
   -4.1780   23.7430  -27.5560 N   0  0  0  0  0  0  0  0  0  0  0  0
   -4.8180   24.5460  -28.6000 C   0  0  0  0  0  0  0  0  0  0  0  0
   -3.9110   24.6570  -29.8290 C   0  0  0  0  0  0  0  0  0  0  0  0
   -4.6920   24.4380  -31.0690 N   0  0  0  0  0  0  0  0  0  0  0  0
   -4.6220   23.0350  -31.5240 C   0  0  0  0  0  0  0  0  0  0  0  0
   -6.0900   24.9160  -30.9600 C   0  0  0  0  0  0  0  0  0  0  0  0
   -7.1450   23.8000  -31.0210 C   0  0  0  0  0  0  0  0  0  0  0  0
   -2.0390   24.5340  -26.6190 C   0  0  0  0  0  0  0  0  0  0  0  0
   -2.7070   25.5320  -25.8860 C   0  0  0  0  0  0  0  0  0  0  0  0
   -1.9960   26.4220  -25.0850 C   0  0  0  0  0  0  0  0  0  0  0  0
   -0.6140   26.3260  -24.9940 C   0  0  0  0  0  0  0  0  0  0  0  0
    0.0680   25.3480  -25.7080 C   0  0  0  0  0  0  0  0  0  0  0  0
   -0.6260   24.4370  -26.5420 C   0  0  0  0  0  0  0  0  0  0  0  0
    0.0450   23.4790  -27.2740 N   0  0  0  0  0  0  0  0  0  0  0  0
    1.4760   23.6990  -27.5830 C   0  0  0  0  0  0  0  0  0  0  0  0
   -0.6610   22.4570  -27.8850 C   0  0  0  0  0  0  0  0  0  0  0  0
   -0.1110   19.2680  -29.7740 C   0  0  0  0  0  0  0  0  0  0  0  0
    0.0840   16.2760  -34.7660 C   0  0  0  0  0  0  0  0  0  0  0  0
   -1.4320   16.2090  -35.1030 C   0  0  0  0  0  0  0  0  0  0  0  0
   -0.5180   16.3170  -32.4140 C   0  0  0  0  0  0  0  0  0  0  0  0
   -2.0300   16.3790  -32.7640 C   0  0  0  0  0  0  0  0  0  0  0  0
   -4.3653   20.5209  -31.3190 H   0  0  0  0  0  0  0  0  0  0  0  0
   -4.2878   18.8215  -31.8957 H   0  0  0  0  0  0  0  0  0  0  0  0
   -2.8070   19.8384  -31.8957 H   0  0  0  0  0  0  0  0  0  0  0  0
   -4.2972   21.4020  -33.4691 H   0  0  0  0  0  0  0  0  0  0  0  0
   -3.4102   19.9744  -34.1307 H   0  0  0  0  0  0  0  0  0  0  0  0
   -6.7345   21.7725  -32.6485 H   0  0  0  0  0  0  0  0  0  0  0  0
   -8.8458   21.5563  -31.3437 H   0  0  0  0  0  0  0  0  0  0  0  0
   -9.9419   19.3308  -31.0916 H   0  0  0  0  0  0  0  0  0  0  0  0
   -8.9423   17.3187  -32.1699 H   0  0  0  0  0  0  0  0  0  0  0  0
   -7.4458   16.3601  -33.6323 H   0  0  0  0  0  0  0  0  0  0  0  0
   -6.4111   17.3978  -34.6949 H   0  0  0  0  0  0  0  0  0  0  0  0
   -4.0688   15.3191  -33.3174 H   0  0  0  0  0  0  0  0  0  0  0  0
   -5.2323   15.6094  -34.6704 H   0  0  0  0  0  0  0  0  0  0  0  0
   -3.7272   16.9681  -35.5906 H   0  0  0  0  0  0  0  0  0  0  0  0
   -3.9965   18.0713  -34.1215 H   0  0  0  0  0  0  0  0  0  0  0  0
   -1.7488   18.8151  -35.0816 H   0  0  0  0  0  0  0  0  0  0  0  0
   -2.2599   18.9675  -33.3555 H   0  0  0  0  0  0  0  0  0  0  0  0
    0.4059   18.8850  -34.3902 H   0  0  0  0  0  0  0  0  0  0  0  0
   -0.1237   18.8863  -32.6628 H   0  0  0  0  0  0  0  0  0  0  0  0
    2.0448   16.0806  -32.6925 H   0  0  0  0  0  0  0  0  0  0  0  0
    2.2544   17.3281  -34.0596 H   0  0  0  0  0  0  0  0  0  0  0  0
    3.0146   18.7274  -32.5783 H   0  0  0  0  0  0  0  0  0  0  0  0
    1.3053   18.7378  -31.8873 H   0  0  0  0  0  0  0  0  0  0  0  0
    3.0781   16.6020  -30.8744 H   0  0  0  0  0  0  0  0  0  0  0  0
    3.5330   18.2860  -30.4145 H   0  0  0  0  0  0  0  0  0  0  0  0
    2.6633   19.2045  -27.7944 H   0  0  0  0  0  0  0  0  0  0  0  0
    1.6152   21.2825  -26.9311 H   0  0  0  0  0  0  0  0  0  0  0  0
   -2.5260   20.1604  -30.4544 H   0  0  0  0  0  0  0  0  0  0  0  0
   -3.7564   21.9911  -29.3100 H   0  0  0  0  0  0  0  0  0  0  0  0
   -4.7670   23.0670  -27.0160 H   0  0  0  0  0  0  0  0  0  0  0  0
   -5.7655   24.0697  -28.8922 H   0  0  0  0  0  0  0  0  0  0  0  0
   -5.0046   25.5557  -28.2054 H   0  0  0  0  0  0  0  0  0  0  0  0
   -3.4599   25.6599  -29.8572 H   0  0  0  0  0  0  0  0  0  0  0  0
   -3.1248   23.8906  -29.7625 H   0  0  0  0  0  0  0  0  0  0  0  0
   -4.5887   22.3674  -30.6504 H   0  0  0  0  0  0  0  0  0  0  0  0
   -5.5096   22.8014  -32.1303 H   0  0  0  0  0  0  0  0  0  0  0  0
   -3.7156   22.8909  -32.1303 H   0  0  0  0  0  0  0  0  0  0  0  0
   -6.2004   25.4428  -30.0007 H   0  0  0  0  0  0  0  0  0  0  0  0
   -6.2693   25.5677  -31.8278 H   0  0  0  0  0  0  0  0  0  0  0  0
   -7.4250   23.5038  -29.9993 H   0  0  0  0  0  0  0  0  0  0  0  0
   -8.0352   24.1657  -31.5537 H   0  0  0  0  0  0  0  0  0  0  0  0
   -6.7299   22.9317  -31.5537 H   0  0  0  0  0  0  0  0  0  0  0  0
   -3.8026   25.6101  -25.9463 H   0  0  0  0  0  0  0  0  0  0  0  0
   -2.5303   27.2025  -24.5234 H   0  0  0  0  0  0  0  0  0  0  0  0
   -0.0569   27.0265  -24.3545 H   0  0  0  0  0  0  0  0  0  0  0  0
    1.1627   25.2802  -25.6244 H   0  0  0  0  0  0  0  0  0  0  0  0
    2.0444   23.7864  -26.6453 H   0  0  0  0  0  0  0  0  0  0  0  0
    1.8599   22.8493  -28.1667 H   0  0  0  0  0  0  0  0  0  0  0  0
    1.5870   24.6248  -28.1667 H   0  0  0  0  0  0  0  0  0  0  0  0
   -0.5982   18.6979  -30.5788 H   0  0  0  0  0  0  0  0  0  0  0  0
    0.6083   16.8223  -35.5639 H   0  0  0  0  0  0  0  0  0  0  0  0
    0.4763   15.2514  -34.6868 H   0  0  0  0  0  0  0  0  0  0  0  0
   -1.5980   16.6274  -36.1067 H   0  0  0  0  0  0  0  0  0  0  0  0
   -1.7565   15.1585  -35.0702 H   0  0  0  0  0  0  0  0  0  0  0  0
   -0.2117   15.2642  -32.3262 H   0  0  0  0  0  0  0  0  0  0  0  0
   -0.3559   16.8454  -31.4629 H   0  0  0  0  0  0  0  0  0  0  0  0
   -2.4443   15.3600  -32.7641 H   0  0  0  0  0  0  0  0  0  0  0  0
   -2.5455   16.9960  -32.0133 H   0  0  0  0  0  0  0  0  0  0  0  0
  1  2  1  0
  2  3  1  0
  3  4  1  0
  4  5  2  0
  5  6  1  0
  6  7  2  0
  7  8  1  0
  8  9  2  0
  9 10  1  0
 10 11  1  0
 11 12  1  0
 12 13  1  0
 14 13  1  6
 14 15  1  0
 15 16  1  0
 16 17  1  0
 17 18  1  1
 18 19  1  0
 19 20  1  0
 20 21  1  0
 21 22  1  0
 22 23  2  0
 23 24  1  0
 24 25  2  0
 25 26  1  0
 26 27  1  0
 27 28  2  0
 28 29  1  0
 29 30  2  0
 30 31  1  0
 31 32  1  0
 32 33  1  0
 33 34  1  0
 34 35  1  0
 34 36  1  0
 36 37  1  0
 30 38  1  0
 38 39  2  0
 39 40  1  0
 40 41  2  0
 41 42  1  0
 42 43  2  0
 43 44  1  0
 44 45  1  0
 44 46  2  0
 26 47  2  0
 17 48  1  0
 48 49  1  0
 17 50  1  0
 50 51  1  0
  9  4  1  0
 49 14  1  0
 51 14  1  0
 47 22  1  0
 46 25  1  0
 46 29  1  0
 43 38  1  0
  1 52  1  0
  1 53  1  0
  1 54  1  0
  2 55  1  0
  2 56  1  0
  5 57  1  0
  6 58  1  0
  7 59  1  0
  8 60  1  0
 10 61  1  0
 10 62  1  0
 12 63  1  0
 12 64  1  0
 13 65  1  0
 13 66  1  0
 15 67  1  0
 15 68  1  0
 16 69  1  0
 16 70  1  0
 18 71  1  0
 18 72  1  0
 19 73  1  0
 19 74  1  0
 20 75  1  0
 20 76  1  0
 23 77  1  0
 24 78  1  0
 27 79  1  0
 28 80  1  0
 31 81  1  0
 32 82  1  0
 32 83  1  0
 33 84  1  0
 33 85  1  0
 35 86  1  0
 35 87  1  0
 35 88  1  0
 36 89  1  0
 36 90  1  0
 37 91  1  0
 37 92  1  0
 37 93  1  0
 39 94  1  0
 40 95  1  0
 41 96  1  0
 42 97  1  0
 45 98  1  0
 45 99  1  0
 45100  1  0
 47101  1  0
 48102  1  0
 48103  1  0
 49104  1  0
 49105  1  0
 50106  1  0
 50107  1  0
 51108  1  0
 51109  1  0
M  CHG  3  14   1  17   1  44   1
M  END
>  <UniqueID>  (22) 
22

>  <SMILES>  (22) 
CCOc1ccccc1COCC[N+]12CC[N+](CCCOc3ccc4c(ccc5c(NCCN(C)CC)c6ccccc6[n+](C)c54)c3)(CC1)CC2

>  <Energy>  (22) 
188.0203694746052

>  <Genealogy>  (22) 
CCOc1ccccc1COCC[N+]12CC[N+](CCCOc3ccc4c(ccc5c(NCCN(C)CC)c6ccccc6[n+](C)c54)c3)(CC1)CC2 (3D coordinates assigned)
CCOc1ccccc1COCC[N+]12CC[N+](CCCOc3ccc4c(ccc5c(NCCN(C)CC)c6ccccc6[n+](C)c54)c3)(CC1)CC2 (nonaromatic ring conformer: 188.0203694746052 kcal/mol)

>  <smiles>  (22) 
CCOc1ccccc1COCC[N+]12CC[N+](CCCOc3ccc4c(ccc5c(NCCN(C)CC)c6ccccc6[n+](C)c54)c3)(CC1)CC2

>  <score_type>  (22) 
oracle

>  <origin>  (22) 
adg

>  <m_score__min__energy>  (22) 
-8.3800000000000008

>  <m_primary>  (22) 
energy

$$$$
22:0
     RDKit          3D

 39 41  0  0  0  0  0  0  0  0999 V2000
   -0.4500   23.9070  -29.3350 C   0  0  0  0  0  0  0  0  0  0  0  0
   -0.8590   25.2270  -28.9990 O   0  0  0  0  0  0  0  0  0  0  0  0
   -1.1370   25.6730  -27.6950 C   0  0  0  0  0  0  0  0  0  0  0  0
   -0.2910   26.5880  -27.0350 C   0  0  0  0  0  0  0  0  0  0  0  0
   -0.6100   27.0530  -25.7580 C   0  0  0  0  0  0  0  0  0  0  0  0
   -1.7720   26.6180  -25.1240 C   0  0  0  0  0  0  0  0  0  0  0  0
   -2.6170   25.7070  -25.7610 C   0  0  0  0  0  0  0  0  0  0  0  0
   -2.3030   25.2130  -27.0400 C   0  0  0  0  0  0  0  0  0  0  0  0
   -3.2150   24.2370  -27.6800 C   0  0  0  0  0  0  0  0  0  0  0  0
   -3.8090   23.3830  -26.9680 O   0  0  0  0  0  0  0  0  0  0  0  0
   -3.3920   24.2240  -29.1050 N   0  0  0  0  0  0  0  0  0  0  0  0
   -4.4380   23.4780  -29.7460 C   0  0  0  0  0  0  0  0  0  0  0  0
   -4.1460   22.2140  -30.2730 C   0  0  0  0  0  0  0  0  0  0  0  0
   -5.1410   21.4600  -30.9020 C   0  0  0  0  0  0  0  0  0  0  0  0
   -6.4460   21.9660  -31.0290 C   0  0  0  0  0  0  0  0  0  0  0  0
   -7.5040   21.1670  -31.6960 C   0  0  0  0  0  0  0  0  0  0  0  0
   -8.8450   21.5880  -31.6820 C   0  0  0  0  0  0  0  0  0  0  0  0
   -9.8290   20.8230  -32.3130 C   0  0  0  0  0  0  0  0  0  0  0  0
   -9.4670   19.6410  -32.9570 C   0  0  0  0  0  0  0  0  0  0  0  0
   -8.1680   19.2420  -32.9680 N   0  0  0  0  0  0  0  0  0  0  0  0
   -7.1910   19.9660  -32.3590 C   0  0  0  0  0  0  0  0  0  0  0  0
   -6.7290   23.2480  -30.5240 C   0  0  0  0  0  0  0  0  0  0  0  0
   -5.7360   24.0050  -29.8930 C   0  0  0  0  0  0  0  0  0  0  0  0
   -6.1300   25.6430  -29.3810 Cl  0  0  0  0  0  0  0  0  0  0  0  0
   -0.2720   23.3326  -28.4139 H   0  0  0  0  0  0  0  0  0  0  0  0
   -1.2387   23.4179  -29.9255 H   0  0  0  0  0  0  0  0  0  0  0  0
    0.4771   23.9495  -29.9255 H   0  0  0  0  0  0  0  0  0  0  0  0
    0.6269   26.9379  -27.5300 H   0  0  0  0  0  0  0  0  0  0  0  0
    0.0579   27.7648  -25.2508 H   0  0  0  0  0  0  0  0  0  0  0  0
   -2.0239   26.9926  -24.1209 H   0  0  0  0  0  0  0  0  0  0  0  0
   -3.5364   25.3727  -25.2581 H   0  0  0  0  0  0  0  0  0  0  0  0
   -2.6160   24.5900  -29.7010 H   0  0  0  0  0  0  0  0  0  0  0  0
   -3.1257   21.8112  -30.1914 H   0  0  0  0  0  0  0  0  0  0  0  0
   -4.9008   20.4633  -31.3005 H   0  0  0  0  0  0  0  0  0  0  0  0
   -9.1206   22.5231  -31.1724 H   0  0  0  0  0  0  0  0  0  0  0  0
  -10.8791   21.1502  -32.3017 H   0  0  0  0  0  0  0  0  0  0  0  0
  -10.2335   19.0306  -33.4568 H   0  0  0  0  0  0  0  0  0  0  0  0
   -6.1503   19.6107  -32.3849 H   0  0  0  0  0  0  0  0  0  0  0  0
   -7.7436   23.6604  -30.6265 H   0  0  0  0  0  0  0  0  0  0  0  0
  1  2  1  0
  2  3  1  0
  3  4  2  0
  4  5  1  0
  5  6  2  0
  6  7  1  0
  7  8  2  0
  8  9  1  0
  9 10  2  0
  9 11  1  0
 11 12  1  0
 12 13  2  0
 13 14  1  0
 14 15  2  0
 15 16  1  0
 16 17  2  0
 17 18  1  0
 18 19  2  0
 19 20  1  0
 20 21  2  0
 15 22  1  0
 22 23  2  0
 23 24  1  0
  8  3  1  0
 23 12  1  0
 21 16  1  0
  1 25  1  0
  1 26  1  0
  1 27  1  0
  4 28  1  0
  5 29  1  0
  6 30  1  0
  7 31  1  0
 11 32  1  0
 13 33  1  0
 14 34  1  0
 17 35  1  0
 18 36  1  0
 19 37  1  0
 21 38  1  0
 22 39  1  0
M  END
>  <UniqueID>  (23) 
23

>  <SMILES>  (23) 
COc1ccccc1C(=O)Nc1ccc(-c2cccnc2)cc1Cl

>  <Energy>  (23) 
57.124855774546035

>  <Genealogy>  (23) 
COc1ccccc1C(=O)Nc1ccc(-c2cccnc2)cc1Cl (3D coordinates assigned)
COc1ccccc1C(=O)Nc1ccc(-c2cccnc2)cc1Cl (optimized conformer: 57.124855774546035 kcal/mol)

>  <smiles>  (23) 
COc1ccccc1C(=O)Nc1ccc(-c2cccnc2)cc1Cl

>  <score_type>  (23) 
oracle

>  <origin>  (23) 
adg

>  <m_score__min__energy>  (23) 
-8.0600000000000005

>  <m_primary>  (23) 
energy

$$$$
23:0
     RDKit          3D

 43 44  0  0  0  0  0  0  0  0999 V2000
   -5.6210   16.1620  -34.1670 C   0  0  0  0  0  0  0  0  0  0  0  0
   -5.6070   17.5940  -34.7030 C   0  0  0  0  0  0  0  0  0  0  0  0
   -5.1510   18.6100  -33.6440 C   0  0  0  0  0  0  0  0  0  0  0  0
   -6.3170   19.2010  -32.8770 C   0  0  0  0  0  0  0  0  0  0  0  0
   -7.4120   18.3760  -32.5830 C   0  0  0  0  0  0  0  0  0  0  0  0
   -8.5060   18.9010  -31.8940 C   0  0  0  0  0  0  0  0  0  0  0  0
   -9.4910   18.1650  -31.6260 O   0  0  0  0  0  0  0  0  0  0  0  0
   -8.5180   20.1750  -31.5200 O   0  0  0  0  0  0  0  0  0  0  0  0
   -7.5150   21.0070  -31.7740 C   0  0  0  0  0  0  0  0  0  0  0  0
   -7.6060   22.3350  -31.3450 C   0  0  0  0  0  0  0  0  0  0  0  0
   -6.5560   23.2380  -31.5920 C   0  0  0  0  0  0  0  0  0  0  0  0
   -6.5900   24.5730  -31.1600 O   0  0  0  0  0  0  0  0  0  0  0  0
   -6.1280   25.0460  -29.8940 C   0  0  0  0  0  0  0  0  0  0  0  0
   -4.6610   24.7580  -29.7220 C   0  0  0  0  0  0  0  0  0  0  0  0
   -3.8420   25.3000  -30.5130 O   0  0  0  0  0  0  0  0  0  0  0  0
   -4.1810   23.8990  -28.6680 N   0  0  0  0  0  0  0  0  0  0  0  0
   -4.0200   24.4200  -27.3050 C   0  0  0  0  0  0  0  0  0  0  0  0
   -3.8880   22.4880  -28.9570 C   0  0  0  0  0  0  0  0  0  0  0  0
   -2.6930   22.3760  -29.9000 C   0  0  0  0  0  0  0  0  0  0  0  0
   -5.4290   22.7990  -32.2910 C   0  0  0  0  0  0  0  0  0  0  0  0
   -5.3260   21.4760  -32.7240 C   0  0  0  0  0  0  0  0  0  0  0  0
   -6.3650   20.5580  -32.4700 C   0  0  0  0  0  0  0  0  0  0  0  0
   -5.6208   16.1821  -33.0672 H   0  0  0  0  0  0  0  0  0  0  0  0
   -6.5242   15.6456  -34.5241 H   0  0  0  0  0  0  0  0  0  0  0  0
   -4.7280   15.6281  -34.5241 H   0  0  0  0  0  0  0  0  0  0  0  0
   -4.9193   17.6440  -35.5601 H   0  0  0  0  0  0  0  0  0  0  0  0
   -6.6350   17.8530  -34.9964 H   0  0  0  0  0  0  0  0  0  0  0  0
   -4.4800   18.1044  -32.9340 H   0  0  0  0  0  0  0  0  0  0  0  0
   -4.6379   19.4323  -34.1642 H   0  0  0  0  0  0  0  0  0  0  0  0
   -7.4086   17.3208  -32.8938 H   0  0  0  0  0  0  0  0  0  0  0  0
   -8.5050   22.6758  -30.8106 H   0  0  0  0  0  0  0  0  0  0  0  0
   -6.2925   26.1319  -29.8322 H   0  0  0  0  0  0  0  0  0  0  0  0
   -6.6855   24.5298  -29.0986 H   0  0  0  0  0  0  0  0  0  0  0  0
   -4.2641   23.6302  -26.5793 H   0  0  0  0  0  0  0  0  0  0  0  0
   -2.9795   24.7449  -27.1572 H   0  0  0  0  0  0  0  0  0  0  0  0
   -4.6957   25.2753  -27.1572 H   0  0  0  0  0  0  0  0  0  0  0  0
   -3.6582   21.9654  -28.0167 H   0  0  0  0  0  0  0  0  0  0  0  0
   -4.7662   22.0320  -29.4375 H   0  0  0  0  0  0  0  0  0  0  0  0
   -1.7680   22.2893  -29.3110 H   0  0  0  0  0  0  0  0  0  0  0  0
   -2.8087   21.4848  -30.5343 H   0  0  0  0  0  0  0  0  0  0  0  0
   -2.6411   23.2732  -30.5343 H   0  0  0  0  0  0  0  0  0  0  0  0
   -4.6124   23.5049  -32.5029 H   0  0  0  0  0  0  0  0  0  0  0  0
   -4.4277   21.1475  -33.2673 H   0  0  0  0  0  0  0  0  0  0  0  0
  1  2  1  0
  2  3  1  0
  3  4  1  0
  4  5  2  0
  5  6  1  0
  6  7  2  0
  6  8  1  0
  8  9  1  0
  9 10  2  0
 10 11  1  0
 11 12  1  0
 12 13  1  0
 13 14  1  0
 14 15  2  0
 14 16  1  0
 16 17  1  0
 16 18  1  0
 18 19  1  0
 11 20  2  0
 20 21  1  0
 21 22  2  0
 22  4  1  0
 22  9  1  0
  1 23  1  0
  1 24  1  0
  1 25  1  0
  2 26  1  0
  2 27  1  0
  3 28  1  0
  3 29  1  0
  5 30  1  0
 10 31  1  0
 13 32  1  0
 13 33  1  0
 17 34  1  0
 17 35  1  0
 17 36  1  0
 18 37  1  0
 18 38  1  0
 19 39  1  0
 19 40  1  0
 19 41  1  0
 20 42  1  0
 21 43  1  0
M  END
>  <UniqueID>  (24) 
24

>  <SMILES>  (24) 
CCCc1cc(=O)oc2cc(OCC(=O)N(C)CC)ccc12

>  <Energy>  (24) 
38.5082301420129

>  <Genealogy>  (24) 
CCCc1cc(=O)oc2cc(OCC(=O)N(C)CC)ccc12 (3D coordinates assigned)
CCCc1cc(=O)oc2cc(OCC(=O)N(C)CC)ccc12 (optimized conformer: 38.5082301420129 kcal/mol)

>  <smiles>  (24) 
CCCc1cc(=O)oc2cc(OCC(=O)N(C)CC)ccc12

>  <score_type>  (24) 
oracle

>  <origin>  (24) 
adg

>  <m_score__min__energy>  (24) 
-7.7699999999999996

>  <m_primary>  (24) 
energy

$$$$
24:0
     RDKit          3D

 61 64  0  0  0  0  0  0  0  0999 V2000
   -9.4860   21.8740  -31.8100 C   0  0  0  0  0  0  0  0  0  0  0  0
   -8.6560   20.9170  -30.9570 C   0  0  0  0  0  0  0  0  0  0  0  0
   -7.7980   20.0170  -31.8180 C   0  0  0  0  0  0  0  0  0  0  0  0
   -8.3480   18.8070  -32.2820 C   0  0  0  0  0  0  0  0  0  0  0  0
   -7.5850   17.9270  -33.0530 C   0  0  0  0  0  0  0  0  0  0  0  0
   -6.2620   18.2390  -33.3690 C   0  0  0  0  0  0  0  0  0  0  0  0
   -5.7000   19.4340  -32.9180 C   0  0  0  0  0  0  0  0  0  0  0  0
   -6.4580   20.3380  -32.1580 C   0  0  0  0  0  0  0  0  0  0  0  0
   -5.8080   21.5800  -31.7060 C   0  0  0  0  0  0  0  0  0  0  0  0
   -6.4030   22.8240  -31.9120 C   0  0  0  0  0  0  0  0  0  0  0  0
   -5.7350   23.9690  -31.4920 C   0  0  0  0  0  0  0  0  0  0  0  0
   -4.4830   23.8500  -30.8850 C   0  0  0  0  0  0  0  0  0  0  0  0
   -3.8770   24.8880  -30.5030 O   0  0  0  0  0  0  0  0  0  0  0  0
   -3.9300   22.6090  -30.7140 N   0  0  0  0  0  0  0  0  0  0  0  0
   -2.6290   22.4260  -30.0640 C   0  0  0  0  0  0  0  0  0  0  0  0
   -2.8010   21.6710  -28.7370 C   0  0  0  0  0  0  0  0  0  0  0  0
   -2.9880   22.5840  -27.4980 C   0  0  0  0  0  0  0  0  0  0  0  0
   -2.9040   24.0570  -27.7220 N   0  0  0  0  0  0  0  0  0  0  0  0
   -1.5300   24.5160  -28.0720 C   0  0  0  0  0  0  0  0  0  0  0  0
   -1.2110   25.9260  -27.5640 C   0  0  0  0  0  0  0  0  0  0  0  0
   -1.4860   26.0170  -26.1270 N   0  0  0  0  0  0  0  0  0  0  0  0
   -0.6620   26.8360  -25.2690 C   0  0  0  0  0  0  0  0  0  0  0  0
   -0.1190   28.0470  -25.7410 C   0  0  0  0  0  0  0  0  0  0  0  0
    0.7010   28.8230  -24.9200 C   0  0  0  0  0  0  0  0  0  0  0  0
    0.9880   28.4030  -23.6210 C   0  0  0  0  0  0  0  0  0  0  0  0
    1.7900   29.1540  -22.8290 F   0  0  0  0  0  0  0  0  0  0  0  0
    0.4570   27.2040  -23.1390 C   0  0  0  0  0  0  0  0  0  0  0  0
   -0.3640   26.4230  -23.9570 C   0  0  0  0  0  0  0  0  0  0  0  0
   -2.7130   25.4170  -25.5900 C   0  0  0  0  0  0  0  0  0  0  0  0
   -3.6210   24.8810  -26.7100 C   0  0  0  0  0  0  0  0  0  0  0  0
   -4.5870   21.5170  -31.1160 N   0  0  0  0  0  0  0  0  0  0  0  0
  -10.0648   22.5414  -31.1545 H   0  0  0  0  0  0  0  0  0  0  0  0
   -8.8170   22.4734  -32.4449 H   0  0  0  0  0  0  0  0  0  0  0  0
  -10.1740   21.2965  -32.4449 H   0  0  0  0  0  0  0  0  0  0  0  0
   -8.0051   21.5029  -30.2914 H   0  0  0  0  0  0  0  0  0  0  0  0
   -9.3433   20.2870  -30.3733 H   0  0  0  0  0  0  0  0  0  0  0  0
   -9.3891   18.5520  -32.0349 H   0  0  0  0  0  0  0  0  0  0  0  0
   -8.0278   16.9862  -33.4118 H   0  0  0  0  0  0  0  0  0  0  0  0
   -5.6621   17.5429  -33.9736 H   0  0  0  0  0  0  0  0  0  0  0  0
   -4.6532   19.6696  -33.1604 H   0  0  0  0  0  0  0  0  0  0  0  0
   -7.3862   22.8986  -32.3995 H   0  0  0  0  0  0  0  0  0  0  0  0
   -6.1891   24.9604  -31.6367 H   0  0  0  0  0  0  0  0  0  0  0  0
   -1.9691   21.8483  -30.7279 H   0  0  0  0  0  0  0  0  0  0  0  0
   -2.1869   23.4126  -29.8612 H   0  0  0  0  0  0  0  0  0  0  0  0
   -3.6854   21.0225  -28.8227 H   0  0  0  0  0  0  0  0  0  0  0  0
   -1.8698   21.1086  -28.5738 H   0  0  0  0  0  0  0  0  0  0  0  0
   -3.9801   22.3690  -27.0743 H   0  0  0  0  0  0  0  0  0  0  0  0
   -2.1402   22.3469  -26.8384 H   0  0  0  0  0  0  0  0  0  0  0  0
   -3.4570   24.2030  -28.6020 H   0  0  0  0  0  0  0  0  0  0  0  0
   -0.8056   23.8148  -27.6321 H   0  0  0  0  0  0  0  0  0  0  0  0
   -1.4673   24.5447  -29.1698 H   0  0  0  0  0  0  0  0  0  0  0  0
   -0.1489   26.1468  -27.7460 H   0  0  0  0  0  0  0  0  0  0  0  0
   -1.8408   26.6526  -28.0982 H   0  0  0  0  0  0  0  0  0  0  0  0
   -0.3428   28.3837  -26.7640 H   0  0  0  0  0  0  0  0  0  0  0  0
    1.1213   29.7667  -25.2977 H   0  0  0  0  0  0  0  0  0  0  0  0
    0.6853   26.8744  -22.1147 H   0  0  0  0  0  0  0  0  0  0  0  0
   -0.7798   25.4798  -23.5731 H   0  0  0  0  0  0  0  0  0  0  0  0
   -2.4410   24.5857  -24.9229 H   0  0  0  0  0  0  0  0  0  0  0  0
   -3.2652   26.1959  -25.0438 H   0  0  0  0  0  0  0  0  0  0  0  0
   -4.4072   24.2622  -26.2529 H   0  0  0  0  0  0  0  0  0  0  0  0
   -4.0279   25.7555  -27.2388 H   0  0  0  0  0  0  0  0  0  0  0  0
  1  2  1  0
  2  3  1  0
  3  4  2  0
  4  5  1  0
  5  6  2  0
  6  7  1  0
  7  8  2  0
  8  9  1  0
  9 10  1  0
 10 11  2  0
 11 12  1  0
 12 13  2  0
 12 14  1  0
 14 15  1  0
 15 16  1  0
 16 17  1  0
 17 18  1  0
 18 19  1  0
 19 20  1  0
 20 21  1  0
 21 22  1  0
 22 23  2  0
 23 24  1  0
 24 25  2  0
 25 26  1  0
 25 27  1  0
 27 28  2  0
 21 29  1  0
 29 30  1  0
 14 31  1  0
  8  3  1  0
 31  9  2  0
 30 18  1  0
 28 22  1  0
  1 32  1  0
  1 33  1  0
  1 34  1  0
  2 35  1  0
  2 36  1  0
  4 37  1  0
  5 38  1  0
  6 39  1  0
  7 40  1  0
 10 41  1  0
 11 42  1  0
 15 43  1  0
 15 44  1  0
 16 45  1  0
 16 46  1  0
 17 47  1  0
 17 48  1  0
 18 49  1  0
 19 50  1  0
 19 51  1  0
 20 52  1  0
 20 53  1  0
 23 54  1  0
 24 55  1  0
 27 56  1  0
 28 57  1  0
 29 58  1  0
 29 59  1  0
 30 60  1  0
 30 61  1  0
M  CHG  1  18   1
M  END
>  <UniqueID>  (25) 
25

>  <SMILES>  (25) 
CCc1ccccc1-c1ccc(=O)n(CCC[NH+]2CCN(c3ccc(F)cc3)CC2)n1

>  <Energy>  (25) 
84.83674116750119

>  <Genealogy>  (25) 
CCc1ccccc1-c1ccc(=O)n(CCC[NH+]2CCN(c3ccc(F)cc3)CC2)n1 (protonated)
CCc1ccccc1-c1ccc(=O)n(CCC[NH+]2CCN(c3ccc(F)cc3)CC2)n1 (3D coordinates assigned)
CCc1ccccc1-c1ccc(=O)n(CCC[NH+]2CCN(c3ccc(F)cc3)CC2)n1 (nonaromatic ring conformer: 84.83674116750119 kcal/mol)

>  <smiles>  (25) 
CCc1ccccc1-c1ccc(=O)n(CCCN2CCN(c3ccc(F)cc3)CC2)n1

>  <score_type>  (25) 
oracle

>  <origin>  (25) 
adg

>  <m_score__min__energy>  (25) 
-8.7699999999999996

>  <m_primary>  (25) 
energy

$$$$
25:0
     RDKit          3D

 44 45  0  0  0  0  0  0  0  0999 V2000
   -5.6500   17.4990  -34.6390 C   0  0  0  0  0  0  0  0  0  0  0  0
   -5.8100   18.9910  -34.3390 C   0  0  0  0  0  0  0  0  0  0  0  0
   -6.9170   19.2600  -33.4080 N   0  0  0  0  0  0  0  0  0  0  0  0
   -7.2500   18.1120  -32.5420 C   0  0  0  0  0  0  0  0  0  0  0  0
   -8.6980   18.1860  -32.0210 C   0  0  0  0  0  0  0  0  0  0  0  0
   -9.0440   19.5650  -31.4480 C   0  0  0  0  0  0  0  0  0  0  0  0
   -9.0400   20.5830  -32.5090 N   0  0  0  0  0  0  0  0  0  0  0  0
   -9.3860   21.9230  -32.0060 C   0  0  0  0  0  0  0  0  0  0  0  0
   -8.1590   22.8270  -31.7730 C   0  0  0  0  0  0  0  0  0  0  0  0
   -6.9050   22.0860  -31.9170 N   0  0  0  0  0  0  0  0  0  0  0  0
   -5.6310   22.5230  -31.4010 C   0  0  0  0  0  0  0  0  0  0  0  0
   -5.3580   23.8880  -31.1870 C   0  0  0  0  0  0  0  0  0  0  0  0
   -4.1220   24.3000  -30.6810 C   0  0  0  0  0  0  0  0  0  0  0  0
   -3.8790   25.6550  -30.4830 O   0  0  0  0  0  0  0  0  0  0  0  0
   -3.1380   23.3540  -30.3770 C   0  0  0  0  0  0  0  0  0  0  0  0
   -1.9340   23.7550  -29.8850 N   0  0  0  0  0  0  0  0  0  0  0  0
   -0.9540   22.8670  -29.5760 C   0  0  0  0  0  0  0  0  0  0  0  0
   -1.1630   21.5000  -29.7590 C   0  0  0  0  0  0  0  0  0  0  0  0
   -2.3870   21.0540  -30.2610 C   0  0  0  0  0  0  0  0  0  0  0  0
   -3.3950   21.9790  -30.5780 C   0  0  0  0  0  0  0  0  0  0  0  0
   -4.6420   21.5680  -31.0880 C   0  0  0  0  0  0  0  0  0  0  0  0
   -4.8980   20.2150  -31.2960 O   0  0  0  0  0  0  0  0  0  0  0  0
   -5.5900   16.9393  -33.6939 H   0  0  0  0  0  0  0  0  0  0  0  0
   -6.5155   17.1468  -35.2194 H   0  0  0  0  0  0  0  0  0  0  0  0
   -4.7295   17.3383  -35.2194 H   0  0  0  0  0  0  0  0  0  0  0  0
   -4.8757   19.3641  -33.8942 H   0  0  0  0  0  0  0  0  0  0  0  0
   -6.0370   19.5013  -35.2866 H   0  0  0  0  0  0  0  0  0  0  0  0
   -7.7510   19.6090  -33.9370 H   0  0  0  0  0  0  0  0  0  0  0  0
   -7.1268   17.1837  -33.1191 H   0  0  0  0  0  0  0  0  0  0  0  0
   -6.5742   18.1323  -31.6743 H   0  0  0  0  0  0  0  0  0  0  0  0
   -9.3841   17.9669  -32.8524 H   0  0  0  0  0  0  0  0  0  0  0  0
   -8.8000   17.4507  -31.2092 H   0  0  0  0  0  0  0  0  0  0  0  0
  -10.0429   19.5253  -30.9890 H   0  0  0  0  0  0  0  0  0  0  0  0
   -8.2892   19.8353  -30.6949 H   0  0  0  0  0  0  0  0  0  0  0  0
   -8.0940   20.6170  -32.9540 H   0  0  0  0  0  0  0  0  0  0  0  0
  -10.0442   22.4113  -32.7397 H   0  0  0  0  0  0  0  0  0  0  0  0
   -9.8775   21.7863  -31.0315 H   0  0  0  0  0  0  0  0  0  0  0  0
   -8.1753   23.6461  -32.5070 H   0  0  0  0  0  0  0  0  0  0  0  0
   -8.2107   23.2169  -30.7457 H   0  0  0  0  0  0  0  0  0  0  0  0
   -6.9460   21.2020  -32.4740 H   0  0  0  0  0  0  0  0  0  0  0  0
   -6.1269   24.6390  -31.4209 H   0  0  0  0  0  0  0  0  0  0  0  0
    0.0073   23.2267  -29.1803 H   0  0  0  0  0  0  0  0  0  0  0  0
   -0.3700   20.7795  -29.5099 H   0  0  0  0  0  0  0  0  0  0  0  0
   -2.5619   19.9780  -30.4082 H   0  0  0  0  0  0  0  0  0  0  0  0
  1  2  1  0
  2  3  1  0
  3  4  1  0
  4  5  1  0
  5  6  1  0
  6  7  1  0
  7  8  1  0
  8  9  1  0
  9 10  1  0
 10 11  1  0
 11 12  2  0
 12 13  1  0
 13 14  1  0
 13 15  2  0
 15 16  1  0
 16 17  2  0
 17 18  1  0
 18 19  2  0
 19 20  1  0
 20 21  2  0
 21 22  1  0
 21 11  1  0
 20 15  1  0
  1 23  1  0
  1 24  1  0
  1 25  1  0
  2 26  1  0
  2 27  1  0
  3 28  1  0
  4 29  1  0
  4 30  1  0
  5 31  1  0
  5 32  1  0
  6 33  1  0
  6 34  1  0
  7 35  1  0
  8 36  1  0
  8 37  1  0
  9 38  1  0
  9 39  1  0
 10 40  1  0
 12 41  1  0
 17 42  1  0
 18 43  1  0
 19 44  1  0
M  CHG  2  14  -1  22  -1
M  END
>  <UniqueID>  (26) 
26

>  <SMILES>  (26) 
CCNCCCNCCNc1cc([O-])c2ncccc2c1[O-]

>  <Energy>  (26) 
44.9283991460264

>  <Genealogy>  (26) 
CCNCCCNCCNc1cc([O-])c2ncccc2c1[O-] (protonated)
CCNCCCNCCNc1cc([O-])c2ncccc2c1[O-] (3D coordinates assigned)
CCNCCCNCCNc1cc([O-])c2ncccc2c1[O-] (optimized conformer: 44.9283991460264 kcal/mol)

>  <smiles>  (26) 
CCNCCCNCCNc1cc(O)c2ncccc2c1O

>  <score_type>  (26) 
oracle

>  <origin>  (26) 
adg

>  <m_score__min__energy>  (26) 
-9.0600000000000005

>  <m_primary>  (26) 
energy

$$$$
26:0
     RDKit          3D

 48 50  0  0  0  0  0  0  0  0999 V2000
    1.6600   24.0810  -35.9450 C   0  0  0  0  0  0  0  0  0  0  0  0
    1.9780   22.7180  -35.3290 C   0  0  0  0  0  0  0  0  0  0  0  0
    0.7600   21.8930  -35.1510 N   0  0  0  0  0  0  0  0  0  0  0  0
    0.2670   21.3660  -36.4430 C   0  0  0  0  0  0  0  0  0  0  0  0
    0.6440   19.8960  -36.5940 C   0  0  0  0  0  0  0  0  0  0  0  0
    0.8910   20.8290  -34.1240 C   0  0  0  0  0  0  0  0  0  0  0  0
   -0.4220   20.5090  -33.3770 C   0  0  0  0  0  0  0  0  0  0  0  0
   -1.4230   21.5580  -33.6190 N   0  0  0  0  0  0  0  0  0  0  0  0
   -2.7490   21.0340  -33.4050 C   0  0  0  0  0  0  0  0  0  0  0  0
   -2.9990   19.6460  -33.5340 C   0  0  0  0  0  0  0  0  0  0  0  0
   -4.2790   19.1200  -33.2960 C   0  0  0  0  0  0  0  0  0  0  0  0
   -5.3080   19.9860  -32.9140 C   0  0  0  0  0  0  0  0  0  0  0  0
   -6.6400   19.6440  -32.6260 C   0  0  0  0  0  0  0  0  0  0  0  0
   -7.4180   20.7590  -32.3150 C   0  0  0  0  0  0  0  0  0  0  0  0
   -6.4620   22.1510  -32.3280 S   0  0  0  0  0  0  0  0  0  0  0  0
   -5.0570   21.3460  -32.7820 C   0  0  0  0  0  0  0  0  0  0  0  0
   -3.7970   21.8930  -33.0120 C   0  0  0  0  0  0  0  0  0  0  0  0
   -8.8580   20.6900  -31.9070 C   0  0  0  0  0  0  0  0  0  0  0  0
   -9.4910   19.3660  -32.3610 C   0  0  0  0  0  0  0  0  0  0  0  0
   -8.5870   18.1700  -32.0140 C   0  0  0  0  0  0  0  0  0  0  0  0
   -7.2290   18.2610  -32.7340 C   0  0  0  0  0  0  0  0  0  0  0  0
    1.4888   24.8147  -35.1435 H   0  0  0  0  0  0  0  0  0  0  0  0
    2.5059   24.4085  -36.5673 H   0  0  0  0  0  0  0  0  0  0  0  0
    0.7566   24.0003  -36.5673 H   0  0  0  0  0  0  0  0  0  0  0  0
    2.6759   22.1833  -35.9901 H   0  0  0  0  0  0  0  0  0  0  0  0
    2.4219   22.8880  -34.3370 H   0  0  0  0  0  0  0  0  0  0  0  0
   -0.8278   21.4656  -36.4814 H   0  0  0  0  0  0  0  0  0  0  0  0
    0.7267   21.9390  -37.2618 H   0  0  0  0  0  0  0  0  0  0  0  0
    0.7601   19.4431  -35.5983 H   0  0  0  0  0  0  0  0  0  0  0  0
   -0.1481   19.3692  -37.1463 H   0  0  0  0  0  0  0  0  0  0  0  0
    1.5919   19.8154  -37.1463 H   0  0  0  0  0  0  0  0  0  0  0  0
    1.2388   19.9109  -34.6201 H   0  0  0  0  0  0  0  0  0  0  0  0
    1.6019   21.2004  -33.3712 H   0  0  0  0  0  0  0  0  0  0  0  0
   -0.8149   19.5452  -33.7329 H   0  0  0  0  0  0  0  0  0  0  0  0
   -0.2135   20.4595  -32.2981 H   0  0  0  0  0  0  0  0  0  0  0  0
   -1.3400   21.9090  -34.6020 H   0  0  0  0  0  0  0  0  0  0  0  0
   -1.2550   22.3650  -32.9720 H   0  0  0  0  0  0  0  0  0  0  0  0
   -2.1801   18.9714  -33.8243 H   0  0  0  0  0  0  0  0  0  0  0  0
   -4.4693   18.0424  -33.4085 H   0  0  0  0  0  0  0  0  0  0  0  0
   -3.6226   22.9722  -32.8898 H   0  0  0  0  0  0  0  0  0  0  0  0
   -8.9265   20.7655  -30.8117 H   0  0  0  0  0  0  0  0  0  0  0  0
   -9.3994   21.5210  -32.3828 H   0  0  0  0  0  0  0  0  0  0  0  0
  -10.4610   19.2407  -31.8576 H   0  0  0  0  0  0  0  0  0  0  0  0
   -9.6223   19.3986  -33.4527 H   0  0  0  0  0  0  0  0  0  0  0  0
   -8.4152   18.1552  -30.9276 H   0  0  0  0  0  0  0  0  0  0  0  0
   -9.0911   17.2495  -32.3435 H   0  0  0  0  0  0  0  0  0  0  0  0
   -6.5340   17.5397  -32.2794 H   0  0  0  0  0  0  0  0  0  0  0  0
   -7.3863   18.0343  -33.7988 H   0  0  0  0  0  0  0  0  0  0  0  0
  1  2  1  0
  2  3  1  0
  3  4  1  0
  4  5  1  0
  3  6  1  0
  6  7  1  0
  7  8  1  0
  8  9  1  0
  9 10  2  0
 10 11  1  0
 11 12  2  0
 12 13  1  0
 13 14  2  0
 14 15  1  0
 15 16  1  0
 16 17  2  0
 14 18  1  0
 18 19  1  0
 19 20  1  0
 20 21  1  0
 17  9  1  0
 16 12  1  0
 21 13  1  0
  1 22  1  0
  1 23  1  0
  1 24  1  0
  2 25  1  0
  2 26  1  0
  4 27  1  0
  4 28  1  0
  5 29  1  0
  5 30  1  0
  5 31  1  0
  6 32  1  0
  6 33  1  0
  7 34  1  0
  7 35  1  0
  8 36  1  0
  8 37  1  0
 10 38  1  0
 11 39  1  0
 17 40  1  0
 18 41  1  0
 18 42  1  0
 19 43  1  0
 19 44  1  0
 20 45  1  0
 20 46  1  0
 21 47  1  0
 21 48  1  0
M  CHG  1   8   1
M  END
>  <UniqueID>  (27) 
27

>  <SMILES>  (27) 
CCN(CC)CC[NH2+]c1ccc2c3c(sc2c1)CCCC3

>  <Energy>  (27) 
78.34071120940607

>  <Genealogy>  (27) 
CCN(CC)CC[NH2+]c1ccc2c3c(sc2c1)CCCC3 (protonated)
CCN(CC)CC[NH2+]c1ccc2c3c(sc2c1)CCCC3 (3D coordinates assigned)
CCN(CC)CC[NH2+]c1ccc2c3c(sc2c1)CCCC3 (nonaromatic ring conformer: 78.34071120940607 kcal/mol)

>  <smiles>  (27) 
CCN(CC)CCNc1ccc2c3c(sc2c1)CCCC3

>  <score_type>  (27) 
oracle

>  <origin>  (27) 
adg

>  <m_score__min__energy>  (27) 
-6.9400000000000004

>  <m_primary>  (27) 
energy

$$$$
27:0
     RDKit          3D

 51 53  0  0  0  0  0  0  0  0999 V2000
   -1.0340   21.0600  -30.9860 C   0  0  0  0  0  0  0  0  0  0  0  0
   -1.4210   21.4330  -32.4160 C   0  0  0  0  0  0  0  0  0  0  0  0
   -1.7440   20.2360  -33.2290 N   0  0  0  0  0  0  0  0  0  0  0  0
   -0.8670   20.0370  -34.4080 C   0  0  0  0  0  0  0  0  0  0  0  0
   -0.0730   21.2860  -34.8110 C   0  0  0  0  0  0  0  0  0  0  0  0
   -3.1860   20.1580  -33.5630 C   0  0  0  0  0  0  0  0  0  0  0  0
   -3.9710   19.6040  -32.3710 C   0  0  0  0  0  0  0  0  0  0  0  0
   -5.1950   20.3800  -32.1340 N   0  0  0  0  0  0  0  0  0  0  0  0
   -6.4580   20.1380  -32.5950 C   0  0  0  0  0  0  0  0  0  0  0  0
   -6.8610   18.9560  -33.4520 C   0  0  0  0  0  0  0  0  0  0  0  0
   -6.7280   17.6440  -32.6510 C   0  0  0  0  0  0  0  0  0  0  0  0
   -6.7170   16.4390  -33.6010 C   0  0  0  0  0  0  0  0  0  0  0  0
   -5.6010   16.4740  -34.5700 N   0  0  0  0  0  0  0  0  0  0  0  0
   -5.0000   17.8050  -34.7770 C   0  0  0  0  0  0  0  0  0  0  0  0
   -6.0580   18.9180  -34.7760 C   0  0  0  0  0  0  0  0  0  0  0  0
   -7.3290   21.1180  -32.2430 N   0  0  0  0  0  0  0  0  0  0  0  0
   -6.5860   22.0020  -31.5620 C   0  0  0  0  0  0  0  0  0  0  0  0
   -6.9850   23.2230  -31.0240 C   0  0  0  0  0  0  0  0  0  0  0  0
   -6.0060   24.0150  -30.3940 C   0  0  0  0  0  0  0  0  0  0  0  0
   -6.4840   25.5630  -29.7110 Cl  0  0  0  0  0  0  0  0  0  0  0  0
   -4.6610   23.5670  -30.3250 C   0  0  0  0  0  0  0  0  0  0  0  0
   -3.4170   24.5470  -29.5620 Cl  0  0  0  0  0  0  0  0  0  0  0  0
   -4.2970   22.3270  -30.8840 C   0  0  0  0  0  0  0  0  0  0  0  0
   -5.2960   21.5650  -31.4950 C   0  0  0  0  0  0  0  0  0  0  0  0
   -1.6401   21.6442  -30.2779 H   0  0  0  0  0  0  0  0  0  0  0  0
   -1.2149   19.9870  -30.8252 H   0  0  0  0  0  0  0  0  0  0  0  0
    0.0317   21.2803  -30.8252 H   0  0  0  0  0  0  0  0  0  0  0  0
   -2.3016   22.0915  -32.3863 H   0  0  0  0  0  0  0  0  0  0  0  0
   -0.5631   21.9408  -32.8810 H   0  0  0  0  0  0  0  0  0  0  0  0
   -0.1531   19.2327  -34.1766 H   0  0  0  0  0  0  0  0  0  0  0  0
   -1.5232   19.7891  -35.2553 H   0  0  0  0  0  0  0  0  0  0  0  0
    0.2630   21.8145  -33.9067 H   0  0  0  0  0  0  0  0  0  0  0  0
    0.8017   20.9878  -35.4077 H   0  0  0  0  0  0  0  0  0  0  0  0
   -0.7142   21.9514  -35.4077 H   0  0  0  0  0  0  0  0  0  0  0  0
   -3.5579   21.1638  -33.8082 H   0  0  0  0  0  0  0  0  0  0  0  0
   -3.3208   19.4894  -34.4260 H   0  0  0  0  0  0  0  0  0  0  0  0
   -4.2433   18.5581  -32.5757 H   0  0  0  0  0  0  0  0  0  0  0  0
   -3.3369   19.6716  -31.4747 H   0  0  0  0  0  0  0  0  0  0  0  0
   -7.9187   19.0707  -33.7316 H   0  0  0  0  0  0  0  0  0  0  0  0
   -5.7895   17.6625  -32.0775 H   0  0  0  0  0  0  0  0  0  0  0  0
   -7.5854   17.5533  -31.9678 H   0  0  0  0  0  0  0  0  0  0  0  0
   -6.6309   15.5211  -33.0010 H   0  0  0  0  0  0  0  0  0  0  0  0
   -7.6531   16.4679  -34.1780 H   0  0  0  0  0  0  0  0  0  0  0  0
   -4.8440   15.8320  -34.2330 H   0  0  0  0  0  0  0  0  0  0  0  0
   -4.2790   17.9991  -33.9692 H   0  0  0  0  0  0  0  0  0  0  0  0
   -4.5051   17.8063  -35.7594 H   0  0  0  0  0  0  0  0  0  0  0  0
   -5.5546   19.8863  -34.9136 H   0  0  0  0  0  0  0  0  0  0  0  0
   -6.7638   18.7157  -35.5951 H   0  0  0  0  0  0  0  0  0  0  0  0
   -8.3440   21.1930  -32.4770 H   0  0  0  0  0  0  0  0  0  0  0  0
   -8.0308   23.5578  -31.0891 H   0  0  0  0  0  0  0  0  0  0  0  0
   -3.2577   21.9691  -30.8410 H   0  0  0  0  0  0  0  0  0  0  0  0
  1  2  1  0
  2  3  1  0
  3  4  1  0
  4  5  1  0
  3  6  1  0
  6  7  1  0
  7  8  1  0
  8  9  1  0
  9 10  1  0
 10 11  1  0
 11 12  1  0
 12 13  1  0
 13 14  1  0
 14 15  1  0
  9 16  2  0
 16 17  1  0
 17 18  2  0
 18 19  1  0
 19 20  1  0
 19 21  2  0
 21 22  1  0
 21 23  1  0
 23 24  2  0
 24  8  1  0
 15 10  1  0
 24 17  1  0
  1 25  1  0
  1 26  1  0
  1 27  1  0
  2 28  1  0
  2 29  1  0
  4 30  1  0
  4 31  1  0
  5 32  1  0
  5 33  1  0
  5 34  1  0
  6 35  1  0
  6 36  1  0
  7 37  1  0
  7 38  1  0
 10 39  1  0
 11 40  1  0
 11 41  1  0
 12 42  1  0
 12 43  1  0
 13 44  1  0
 14 45  1  0
 14 46  1  0
 15 47  1  0
 15 48  1  0
 16 49  1  0
 18 50  1  0
 23 51  1  0
M  CHG  1  16   1
M  END
>  <UniqueID>  (28) 
28

>  <SMILES>  (28) 
CCN(CC)CCn1c(C2CCNCC2)[nH+]c2cc(Cl)c(Cl)cc21

>  <Energy>  (28) 
94.0111397506832

>  <Genealogy>  (28) 
CCN(CC)CCn1c(C2CCNCC2)[nH+]c2cc(Cl)c(Cl)cc21 (protonated)
CCN(CC)CCn1c(C2CCNCC2)[nH+]c2cc(Cl)c(Cl)cc21 (3D coordinates assigned)
CCN(CC)CCn1c(C2CCNCC2)[nH+]c2cc(Cl)c(Cl)cc21 (nonaromatic ring conformer: 94.0111397506832 kcal/mol)

>  <smiles>  (28) 
CCN(CC)CCn1c(C2CCNCC2)nc2cc(Cl)c(Cl)cc21

>  <score_type>  (28) 
oracle

>  <origin>  (28) 
adg

>  <m_score__min__energy>  (28) 
-7.4900000000000002

>  <m_primary>  (28) 
energy

$$$$
28:0
     RDKit          3D

 31 30  0  0  0  0  0  0  0  0999 V2000
   -4.3570   20.1890  -33.1000 C   0  0  0  0  0  0  0  0  0  0  0  0
   -5.8880   20.2350  -33.1390 C   0  0  0  0  0  0  0  0  0  0  0  0
   -6.4760   18.9990  -33.7360 N   0  0  0  0  0  0  0  0  0  0  0  0
   -5.7310   18.5250  -34.9310 C   0  0  0  0  0  0  0  0  0  0  0  0
   -5.0640   17.1640  -34.7090 C   0  0  0  0  0  0  0  0  0  0  0  0
   -6.6120   17.9130  -32.7300 C   0  0  0  0  0  0  0  0  0  0  0  0
   -7.6320   18.2110  -31.5960 C   0  0  0  0  0  0  0  0  0  0  0  0
   -9.0170   18.6200  -32.1240 C   0  0  0  0  0  0  0  0  0  0  0  0
   -8.9340   19.8320  -32.9560 N   0  0  0  0  0  0  0  0  0  0  0  0
   -9.5300   20.9890  -32.2830 C   0  0  0  0  0  0  0  0  0  0  0  0
   -4.0170   20.1788  -32.0539 H   0  0  0  0  0  0  0  0  0  0  0  0
   -4.0044   19.2799  -33.6090 H   0  0  0  0  0  0  0  0  0  0  0  0
   -3.9504   21.0753  -33.6090 H   0  0  0  0  0  0  0  0  0  0  0  0
   -6.2651   20.3458  -32.1116 H   0  0  0  0  0  0  0  0  0  0  0  0
   -6.1836   21.0870  -33.7689 H   0  0  0  0  0  0  0  0  0  0  0  0
   -7.4580   19.1980  -34.0490 H   0  0  0  0  0  0  0  0  0  0  0  0
   -6.4337   18.4396  -35.7730 H   0  0  0  0  0  0  0  0  0  0  0  0
   -4.9353   19.2556  -35.1384 H   0  0  0  0  0  0  0  0  0  0  0  0
   -4.9705   16.9732  -33.6297 H   0  0  0  0  0  0  0  0  0  0  0  0
   -5.6778   16.3755  -35.1689 H   0  0  0  0  0  0  0  0  0  0  0  0
   -4.0648   17.1660  -35.1689 H   0  0  0  0  0  0  0  0  0  0  0  0
   -6.9346   16.9997  -33.2514 H   0  0  0  0  0  0  0  0  0  0  0  0
   -5.6290   17.8076  -32.2477 H   0  0  0  0  0  0  0  0  0  0  0  0
   -7.7450   17.3067  -30.9800 H   0  0  0  0  0  0  0  0  0  0  0  0
   -7.2388   19.0581  -31.0148 H   0  0  0  0  0  0  0  0  0  0  0  0
   -9.4277   17.7976  -32.7282 H   0  0  0  0  0  0  0  0  0  0  0  0
   -9.6685   18.8326  -31.2636 H   0  0  0  0  0  0  0  0  0  0  0  0
   -9.4900   19.6620  -33.8270 H   0  0  0  0  0  0  0  0  0  0  0  0
   -9.4610   20.8551  -31.1934 H   0  0  0  0  0  0  0  0  0  0  0  0
   -8.9898   21.9016  -32.5752 H   0  0  0  0  0  0  0  0  0  0  0  0
  -10.5867   21.0790  -32.5752 H   0  0  0  0  0  0  0  0  0  0  0  0
  1  2  1  0
  2  3  1  0
  3  4  1  0
  4  5  1  0
  3  6  1  0
  6  7  1  0
  7  8  1  0
  8  9  1  0
  9 10  1  0
  1 11  1  0
  1 12  1  0
  1 13  1  0
  2 14  1  0
  2 15  1  0
  3 16  1  0
  4 17  1  0
  4 18  1  0
  5 19  1  0
  5 20  1  0
  5 21  1  0
  6 22  1  0
  6 23  1  0
  7 24  1  0
  7 25  1  0
  8 26  1  0
  8 27  1  0
  9 28  1  0
 10 29  1  0
 10 30  1  0
 10 31  1  0
M  CHG  1   3   1
M  END
>  <UniqueID>  (29) 
29

>  <SMILES>  (29) 
CC[NH+](CC)CCCNC

>  <Energy>  (29) 
28.954881178037287

>  <Genealogy>  (29) 
CC[NH+](CC)CCCNC (protonated)
CC[NH+](CC)CCCNC (3D coordinates assigned)
CC[NH+](CC)CCCNC (optimized conformer: 28.954881178037287 kcal/mol)

>  <smiles>  (29) 
CCN(CC)CCCNC

>  <score_type>  (29) 
oracle

>  <origin>  (29) 
adg

>  <m_score__min__energy>  (29) 
-3.98

>  <m_primary>  (29) 
energy

$$$$
29:0
     RDKit          3D

 30 32  0  0  1  0  0  0  0  0999 V2000
   -6.4200   25.6750  -29.5130 C   0  0  0  0  0  0  0  0  0  0  0  0
   -5.5890   24.7050  -30.3050 C   0  0  0  0  0  0  0  0  0  0  0  0
   -4.2740   24.6830  -30.4610 N   0  0  0  0  0  0  0  0  0  0  0  0
   -3.9770   23.6630  -31.2310 N   0  0  0  0  0  0  0  0  0  0  0  0
   -5.1140   23.0280  -31.5700 C   0  0  0  0  0  0  0  0  0  0  0  0
   -5.1860   21.8320  -32.4270 C   0  0  0  0  0  0  0  0  0  0  0  0
   -5.7720   20.6870  -31.7720 N   0  0  0  0  0  0  0  0  0  0  0  0
   -7.1110   20.8660  -31.3170 C   0  0  0  0  0  0  0  0  0  0  0  0
   -8.1820   20.4830  -32.2830 C   0  0  2  0  0  0  0  0  0  0  0  0
   -8.7940   19.1740  -31.7780 C   0  0  0  0  0  0  0  0  0  0  0  0
   -7.6440   18.2250  -32.0810 C   0  0  0  0  0  0  0  0  0  0  0  0
   -6.8990   18.9770  -33.1540 C   0  0  2  0  0  0  0  0  0  0  0  0
   -5.5770   19.5540  -32.6530 C   0  0  0  0  0  0  0  0  0  0  0  0
   -7.6910   20.0560  -33.5170 O   0  0  0  0  0  0  0  0  0  0  0  0
   -6.0960   23.7010  -30.9780 O   0  0  0  0  0  0  0  0  0  0  0  0
   -6.2672   25.4966  -28.4384 H   0  0  0  0  0  0  0  0  0  0  0  0
   -6.1185   26.7035  -29.7605 H   0  0  0  0  0  0  0  0  0  0  0  0
   -7.4826   25.5348  -29.7605 H   0  0  0  0  0  0  0  0  0  0  0  0
   -5.7922   22.0744  -33.3123 H   0  0  0  0  0  0  0  0  0  0  0  0
   -4.1529   21.5602  -32.6894 H   0  0  0  0  0  0  0  0  0  0  0  0
   -7.2441   21.9296  -31.0698 H   0  0  0  0  0  0  0  0  0  0  0  0
   -7.2276   20.1889  -30.4579 H   0  0  0  0  0  0  0  0  0  0  0  0
   -8.8344   21.3640  -32.3733 H   0  0  0  0  0  0  0  0  0  0  0  0
   -9.7046   18.9056  -32.3337 H   0  0  0  0  0  0  0  0  0  0  0  0
   -9.1264   19.1867  -30.7295 H   0  0  0  0  0  0  0  0  0  0  0  0
   -8.0109   17.2565  -32.4517 H   0  0  0  0  0  0  0  0  0  0  0  0
   -7.0295   17.9749  -31.2036 H   0  0  0  0  0  0  0  0  0  0  0  0
   -6.6875   18.2807  -33.9788 H   0  0  0  0  0  0  0  0  0  0  0  0
   -4.9811   19.8775  -33.5191 H   0  0  0  0  0  0  0  0  0  0  0  0
   -5.0609   18.7680  -32.0822 H   0  0  0  0  0  0  0  0  0  0  0  0
  1  2  1  0
  2  3  2  0
  3  4  1  0
  4  5  2  0
  5  6  1  0
  6  7  1  0
  7  8  1  0
  8  9  1  0
  9 10  1  0
 10 11  1  0
 11 12  1  0
 12 13  1  0
 12 14  1  0
  5 15  1  0
 15  2  1  0
 13  7  1  0
 14  9  1  0
  1 16  1  0
  1 17  1  0
  1 18  1  0
  6 19  1  0
  6 20  1  0
  8 21  1  0
  8 22  1  0
  9 23  1  6
 10 24  1  0
 10 25  1  0
 11 26  1  0
 11 27  1  0
 12 28  1  6
 13 29  1  0
 13 30  1  0
M  END
>  <smiles>  (30) 
Cc1nnc(CN2CC3CCC(C2)O3)o1

>  <score_type>  (30) 
oracle

>  <origin>  (30) 
adg

>  <m_score__min__energy>  (30) 
-6.6500000000000004

>  <m_primary>  (30) 
energy

$$$$
30:0
     RDKit          3D

 52 54  0  0  0  0  0  0  0  0999 V2000
   -0.9330   20.0380  -29.3230 C   0  0  0  0  0  0  0  0  0  0  0  0
   -0.2900   19.5360  -30.6110 C   0  0  0  0  0  0  0  0  0  0  0  0
   -0.6830   20.3400  -31.7230 O   0  0  0  0  0  0  0  0  0  0  0  0
   -2.0040   20.5490  -32.1590 C   0  0  0  0  0  0  0  0  0  0  0  0
   -2.7020   19.6020  -32.9340 C   0  0  0  0  0  0  0  0  0  0  0  0
   -4.0150   19.8530  -33.3560 C   0  0  0  0  0  0  0  0  0  0  0  0
   -4.7320   18.8640  -34.2450 C   0  0  0  0  0  0  0  0  0  0  0  0
   -6.0950   19.3130  -34.5800 N   0  0  0  0  0  0  0  0  0  0  0  0
   -6.9990   19.1660  -33.4590 C   0  0  0  0  0  0  0  0  0  0  0  0
   -7.6620   20.2970  -32.9450 C   0  0  0  0  0  0  0  0  0  0  0  0
   -8.5600   20.1740  -31.8810 C   0  0  0  0  0  0  0  0  0  0  0  0
   -8.8090   18.9230  -31.3190 C   0  0  0  0  0  0  0  0  0  0  0  0
   -8.1640   17.7900  -31.8200 C   0  0  0  0  0  0  0  0  0  0  0  0
   -7.2620   17.9000  -32.8840 C   0  0  0  0  0  0  0  0  0  0  0  0
   -6.4780   16.4360  -33.4660 Cl  0  0  0  0  0  0  0  0  0  0  0  0
   -4.6350   21.0570  -33.0010 C   0  0  0  0  0  0  0  0  0  0  0  0
   -3.9570   21.9960  -32.2230 C   0  0  0  0  0  0  0  0  0  0  0  0
   -2.6380   21.7490  -31.7950 C   0  0  0  0  0  0  0  0  0  0  0  0
   -1.9170   22.6700  -31.0150 O   0  0  0  0  0  0  0  0  0  0  0  0
   -2.2750   23.0950  -29.7000 C   0  0  0  0  0  0  0  0  0  0  0  0
   -2.7150   24.5330  -29.7120 C   0  0  0  0  0  0  0  0  0  0  0  0
   -2.1010   25.3660  -28.9950 O   0  0  0  0  0  0  0  0  0  0  0  0
   -3.8480   24.9740  -30.4710 N   0  0  0  0  0  0  0  0  0  0  0  0
   -5.0910   24.2760  -30.6290 C   0  0  0  0  0  0  0  0  0  0  0  0
   -5.8980   24.4560  -31.7670 C   0  0  0  0  0  0  0  0  0  0  0  0
   -7.1180   23.7820  -31.8770 C   0  0  0  0  0  0  0  0  0  0  0  0
   -7.5490   22.9400  -30.8480 C   0  0  0  0  0  0  0  0  0  0  0  0
   -6.7640   22.7790  -29.7020 C   0  0  0  0  0  0  0  0  0  0  0  0
   -5.5430   23.4520  -29.5900 C   0  0  0  0  0  0  0  0  0  0  0  0
   -0.3970   19.6196  -28.4583 H   0  0  0  0  0  0  0  0  0  0  0  0
   -0.8802   21.1363  -29.2907 H   0  0  0  0  0  0  0  0  0  0  0  0
   -1.9856   19.7204  -29.2907 H   0  0  0  0  0  0  0  0  0  0  0  0
    0.8043   19.5758  -30.5066 H   0  0  0  0  0  0  0  0  0  0  0  0
   -0.6214   18.5024  -30.7898 H   0  0  0  0  0  0  0  0  0  0  0  0
   -2.2121   18.6567  -33.2106 H   0  0  0  0  0  0  0  0  0  0  0  0
   -4.1589   18.7423  -35.1760 H   0  0  0  0  0  0  0  0  0  0  0  0
   -4.8113   17.9116  -33.7004 H   0  0  0  0  0  0  0  0  0  0  0  0
   -6.0600   20.3160  -34.8750 H   0  0  0  0  0  0  0  0  0  0  0  0
   -6.4470   18.7730  -35.4050 H   0  0  0  0  0  0  0  0  0  0  0  0
   -7.4713   21.2869  -33.3851 H   0  0  0  0  0  0  0  0  0  0  0  0
   -9.0706   21.0651  -31.4869 H   0  0  0  0  0  0  0  0  0  0  0  0
   -9.5142   18.8280  -30.4801 H   0  0  0  0  0  0  0  0  0  0  0  0
   -8.3665   16.8046  -31.3751 H   0  0  0  0  0  0  0  0  0  0  0  0
   -5.6618   21.2637  -33.3371 H   0  0  0  0  0  0  0  0  0  0  0  0
   -4.4558   22.9353  -31.9421 H   0  0  0  0  0  0  0  0  0  0  0  0
   -3.0987   22.4676  -29.3286 H   0  0  0  0  0  0  0  0  0  0  0  0
   -1.3977   22.9972  -29.0437 H   0  0  0  0  0  0  0  0  0  0  0  0
   -5.5684   25.1288  -32.5724 H   0  0  0  0  0  0  0  0  0  0  0  0
   -7.7396   23.9146  -32.7748 H   0  0  0  0  0  0  0  0  0  0  0  0
   -8.5053   22.4042  -30.9396 H   0  0  0  0  0  0  0  0  0  0  0  0
   -7.1069   22.1229  -28.8884 H   0  0  0  0  0  0  0  0  0  0  0  0
   -4.9344   23.3337  -28.6814 H   0  0  0  0  0  0  0  0  0  0  0  0
  1  2  1  0
  2  3  1  0
  3  4  1  0
  4  5  2  0
  5  6  1  0
  6  7  1  0
  7  8  1  0
  8  9  1  0
  9 10  2  0
 10 11  1  0
 11 12  2  0
 12 13  1  0
 13 14  2  0
 14 15  1  0
  6 16  2  0
 16 17  1  0
 17 18  2  0
 18 19  1  0
 19 20  1  0
 20 21  1  0
 21 22  2  0
 21 23  1  0
 23 24  1  0
 24 25  2  0
 25 26  1  0
 26 27  2  0
 27 28  1  0
 28 29  2  0
 18  4  1  0
 29 24  1  0
 14  9  1  0
  1 30  1  0
  1 31  1  0
  1 32  1  0
  2 33  1  0
  2 34  1  0
  5 35  1  0
  7 36  1  0
  7 37  1  0
  8 38  1  0
  8 39  1  0
 10 40  1  0
 11 41  1  0
 12 42  1  0
 13 43  1  0
 16 44  1  0
 17 45  1  0
 20 46  1  0
 20 47  1  0
 25 48  1  0
 26 49  1  0
 27 50  1  0
 28 51  1  0
 29 52  1  0
M  CHG  2   8   1  23  -1
M  END
>  <UniqueID>  (31) 
30

>  <SMILES>  (31) 
CCOc1cc(C[NH2+]c2ccccc2Cl)ccc1OCC(=O)[N-]c1ccccc1

>  <Energy>  (31) 
56.01652805124916

>  <Genealogy>  (31) 
CCOc1cc(C[NH2+]c2ccccc2Cl)ccc1OCC(=O)[N-]c1ccccc1 (protonated)
CCOc1cc(C[NH2+]c2ccccc2Cl)ccc1OCC(=O)[N-]c1ccccc1 (3D coordinates assigned)
CCOc1cc(C[NH2+]c2ccccc2Cl)ccc1OCC(=O)[N-]c1ccccc1 (optimized conformer: 56.01652805124916 kcal/mol)

>  <smiles>  (31) 
CCOc1cc(CNc2ccccc2Cl)ccc1OCC(=O)Nc1ccccc1

>  <score_type>  (31) 
oracle

>  <origin>  (31) 
adg

>  <m_score__min__energy>  (31) 
-10.039999999999999

>  <m_primary>  (31) 
energy

$$$$
31:0
     RDKit          3D

 35 35  0  0  0  0  0  0  0  0999 V2000
   -2.2660   24.2960  -28.7220 C   0  0  0  0  0  0  0  0  0  0  0  0
   -3.7320   24.5460  -29.1080 C   0  0  0  0  0  0  0  0  0  0  0  0
   -3.9980   24.4040  -30.5580 N   0  0  0  0  0  0  0  0  0  0  0  0
   -5.3920   24.7530  -30.9120 C   0  0  0  0  0  0  0  0  0  0  0  0
   -6.1450   25.3060  -29.7060 C   0  0  0  0  0  0  0  0  0  0  0  0
   -3.5590   23.0930  -31.0990 C   0  0  0  0  0  0  0  0  0  0  0  0
   -4.6500   22.0430  -30.8870 C   0  0  0  0  0  0  0  0  0  0  0  0
   -5.4690   21.6540  -32.4240 S   0  0  0  0  0  0  0  0  0  0  0  0
   -4.4010   21.2600  -33.6620 O   0  0  0  0  0  0  0  0  0  0  0  0
   -6.7820   20.4930  -32.2590 C   0  0  0  0  0  0  0  0  0  0  0  0
   -6.4890   19.1320  -32.4180 C   0  0  0  0  0  0  0  0  0  0  0  0
   -7.4980   18.1730  -32.3000 C   0  0  0  0  0  0  0  0  0  0  0  0
   -8.8090   18.5680  -32.0230 C   0  0  0  0  0  0  0  0  0  0  0  0
   -9.1110   19.9230  -31.8640 C   0  0  0  0  0  0  0  0  0  0  0  0
   -8.1060   20.8920  -31.9810 C   0  0  0  0  0  0  0  0  0  0  0  0
   -8.5500   22.5810  -31.7760 Cl  0  0  0  0  0  0  0  0  0  0  0  0
   -2.1730   24.2801  -27.6261 H   0  0  0  0  0  0  0  0  0  0  0  0
   -1.9387   23.3291  -29.1318 H   0  0  0  0  0  0  0  0  0  0  0  0
   -1.6367   25.0998  -29.1318 H   0  0  0  0  0  0  0  0  0  0  0  0
   -4.3616   23.8242  -28.5670 H   0  0  0  0  0  0  0  0  0  0  0  0
   -3.9622   25.5875  -28.8393 H   0  0  0  0  0  0  0  0  0  0  0  0
   -5.3808   25.5128  -31.7074 H   0  0  0  0  0  0  0  0  0  0  0  0
   -5.9034   23.8412  -31.2541 H   0  0  0  0  0  0  0  0  0  0  0  0
   -5.6652   24.9536  -28.7810 H   0  0  0  0  0  0  0  0  0  0  0  0
   -6.1248   26.4055  -29.7337 H   0  0  0  0  0  0  0  0  0  0  0  0
   -7.1880   24.9577  -29.7337 H   0  0  0  0  0  0  0  0  0  0  0  0
   -3.3556   23.1937  -32.1753 H   0  0  0  0  0  0  0  0  0  0  0  0
   -2.6469   22.7746  -30.5730 H   0  0  0  0  0  0  0  0  0  0  0  0
   -4.1947   21.1280  -30.4802 H   0  0  0  0  0  0  0  0  0  0  0  0
   -5.3944   22.4473  -30.1853 H   0  0  0  0  0  0  0  0  0  0  0  0
   -4.3450   22.0740  -34.2210 H   0  0  0  0  0  0  0  0  0  0  0  0
   -5.4582   18.8167  -32.6371 H   0  0  0  0  0  0  0  0  0  0  0  0
   -7.2600   17.1064  -32.4253 H   0  0  0  0  0  0  0  0  0  0  0  0
   -9.6033   17.8127  -31.9301 H   0  0  0  0  0  0  0  0  0  0  0  0
  -10.1442   20.2308  -31.6456 H   0  0  0  0  0  0  0  0  0  0  0  0
  1  2  1  0
  2  3  1  0
  3  4  1  0
  4  5  1  0
  3  6  1  0
  6  7  1  0
  7  8  1  0
  8  9  1  6
  8 10  1  0
 10 11  2  0
 11 12  1  0
 12 13  2  0
 13 14  1  0
 14 15  2  0
 15 16  1  0
 15 10  1  0
  1 17  1  0
  1 18  1  0
  1 19  1  0
  2 20  1  0
  2 21  1  0
  4 22  1  0
  4 23  1  0
  5 24  1  0
  5 25  1  0
  5 26  1  0
  6 27  1  0
  6 28  1  0
  7 29  1  0
  7 30  1  0
  9 31  1  0
 11 32  1  0
 12 33  1  0
 13 34  1  0
 14 35  1  0
M  CHG  1   8   1
M  END
>  <UniqueID>  (32) 
31

>  <SMILES>  (32) 
CCN(CC)CC[S@@+](O)c1ccccc1Cl

>  <Energy>  (32) 
29.35070782044457

>  <Genealogy>  (32) 
CCN(CC)CC[S+](O)c1ccccc1Cl (protonated)
CCN(CC)CC[S@@+](O)c1ccccc1Cl (chirality)
CCN(CC)CC[S@@+](O)c1ccccc1Cl (3D coordinates assigned)
CCN(CC)CC[S@@+](O)c1ccccc1Cl (optimized conformer: 29.35070782044457 kcal/mol)

>  <smiles>  (32) 
CCN(CC)CC[S+]([O-])c1ccccc1Cl

>  <score_type>  (32) 
oracle

>  <origin>  (32) 
adg

>  <m_score__min__energy>  (32) 
-6.3099999999999996

>  <m_primary>  (32) 
energy

$$$$
32:0
     RDKit          3D

 40 42  0  0  0  0  0  0  0  0999 V2000
   -4.1750   22.1480  -30.3110 C   0  0  0  0  0  0  0  0  0  0  0  0
   -4.9130   23.4420  -30.1360 C   0  0  0  0  0  0  0  0  0  0  0  0
   -5.8690   23.9690  -30.9930 C   0  0  0  0  0  0  0  0  0  0  0  0
   -6.3260   23.4280  -32.3170 C   0  0  0  0  0  0  0  0  0  0  0  0
   -7.4080   22.4380  -32.1370 N   0  0  0  0  0  0  0  0  0  0  0  0
   -7.9550   22.4380  -30.7700 C   0  0  0  0  0  0  0  0  0  0  0  0
   -9.2330   21.5560  -30.7090 C   0  0  0  0  0  0  0  0  0  0  0  0
   -9.2730   20.5010  -31.6660 O   0  0  0  0  0  0  0  0  0  0  0  0
   -7.9700   20.0140  -31.8980 C   0  0  1  0  0  0  0  0  0  0  0  0
   -7.9650   18.6980  -32.7070 C   0  0  0  0  0  0  0  0  0  0  0  0
   -6.8240   18.5680  -33.5540 O   0  0  0  0  0  0  0  0  0  0  0  0
   -5.6460   19.0430  -32.9190 C   0  0  0  0  0  0  0  0  0  0  0  0
   -5.6940   20.5790  -32.6980 C   0  0  0  0  0  0  0  0  0  0  0  0
   -7.1600   21.0680  -32.6710 C   0  0  2  0  0  0  0  0  0  0  0  0
   -6.2820   25.1460  -30.3940 C   0  0  0  0  0  0  0  0  0  0  0  0
   -5.6270   25.2860  -29.2260 N   0  0  0  0  0  0  0  0  0  0  0  0
   -4.8140   24.2540  -29.0630 N   0  0  0  0  0  0  0  0  0  0  0  0
   -3.9340   24.0800  -27.9100 C   0  0  0  0  0  0  0  0  0  0  0  0
   -3.9346   21.7266  -29.3238 H   0  0  0  0  0  0  0  0  0  0  0  0
   -4.8047   21.4393  -30.8688 H   0  0  0  0  0  0  0  0  0  0  0  0
   -3.2444   22.3292  -30.8688 H   0  0  0  0  0  0  0  0  0  0  0  0
   -6.6966   24.2579  -32.9366 H   0  0  0  0  0  0  0  0  0  0  0  0
   -5.4747   22.9330  -32.8071 H   0  0  0  0  0  0  0  0  0  0  0  0
   -7.2018   22.0364  -30.0762 H   0  0  0  0  0  0  0  0  0  0  0  0
   -8.2134   23.4684  -30.4844 H   0  0  0  0  0  0  0  0  0  0  0  0
   -9.2948   21.1108  -29.7050 H   0  0  0  0  0  0  0  0  0  0  0  0
  -10.0799   22.2187  -30.9406 H   0  0  0  0  0  0  0  0  0  0  0  0
   -7.5206   19.8100  -30.9149 H   0  0  0  0  0  0  0  0  0  0  0  0
   -7.9764   17.8534  -32.0023 H   0  0  0  0  0  0  0  0  0  0  0  0
   -8.8551   18.7059  -33.3533 H   0  0  0  0  0  0  0  0  0  0  0  0
   -5.5411   18.5454  -31.9436 H   0  0  0  0  0  0  0  0  0  0  0  0
   -4.7892   18.8163  -33.5706 H   0  0  0  0  0  0  0  0  0  0  0  0
   -5.2115   20.8237  -31.7402 H   0  0  0  0  0  0  0  0  0  0  0  0
   -5.1642   21.0774  -33.5231 H   0  0  0  0  0  0  0  0  0  0  0  0
   -7.4774   21.1712  -33.7191 H   0  0  0  0  0  0  0  0  0  0  0  0
   -7.0217   25.8496  -30.8036 H   0  0  0  0  0  0  0  0  0  0  0  0
   -5.7370   26.0770  -28.5530 H   0  0  0  0  0  0  0  0  0  0  0  0
   -4.5161   24.1951  -26.9838 H   0  0  0  0  0  0  0  0  0  0  0  0
   -3.4858   23.0759  -27.9390 H   0  0  0  0  0  0  0  0  0  0  0  0
   -3.1374   24.8380  -27.9390 H   0  0  0  0  0  0  0  0  0  0  0  0
  1  2  1  0
  2  3  2  0
  3  4  1  0
  4  5  1  0
  5  6  1  0
  6  7  1  0
  7  8  1  0
  8  9  1  0
  9 10  1  0
 10 11  1  0
 11 12  1  0
 12 13  1  0
 13 14  1  0
  3 15  1  0
 15 16  2  0
 16 17  1  0
 17 18  1  0
 17  2  1  0
 14  5  1  0
 14  9  1  0
  1 19  1  0
  1 20  1  0
  1 21  1  0
  4 22  1  0
  4 23  1  0
  6 24  1  0
  6 25  1  0
  7 26  1  0
  7 27  1  0
  9 28  1  1
 10 29  1  0
 10 30  1  0
 12 31  1  0
 12 32  1  0
 13 33  1  0
 13 34  1  0
 14 35  1  6
 15 36  1  0
 16 37  1  0
 18 38  1  0
 18 39  1  0
 18 40  1  0
M  CHG  1  16   1
M  END
>  <UniqueID>  (33) 
32

>  <SMILES>  (33) 
Cc1c(CN2CCO[C@H]3COCC[C@@H]32)c[nH+]n1C

>  <Energy>  (33) 
95.97521623601494

>  <Genealogy>  (33) 
Cc1c(CN2CCOC3COCCC32)c[nH+]n1C (protonated)
Cc1c(CN2CCO[C@H]3COCC[C@@H]32)c[nH+]n1C (chirality)
Cc1c(CN2CCO[C@H]3COCC[C@@H]32)c[nH+]n1C (3D coordinates assigned)
Cc1c(CN2CCO[C@H]3COCC[C@@H]32)c[nH+]n1C (nonaromatic ring conformer: 95.97521623601494 kcal/mol)

>  <smiles>  (33) 
Cc1c(CN2CCOC3COCCC32)cnn1C

>  <score_type>  (33) 
oracle

>  <origin>  (33) 
adg

>  <m_score__min__energy>  (33) 
-6.5800000000000001

>  <m_primary>  (33) 
energy

$$$$
33:0
     RDKit          3D

 59 62  0  0  0  0  0  0  0  0999 V2000
   -0.4950   20.3020  -30.8290 C   0  0  0  0  0  0  0  0  0  0  0  0
   -1.5110   21.1050  -30.0300 C   0  0  0  0  0  0  0  0  0  0  0  0
   -1.5550   20.6400  -28.6460 N   0  0  0  0  0  0  0  0  0  0  0  0
   -2.4040   19.7090  -28.2170 N   0  0  0  0  0  0  0  0  0  0  0  0
   -2.2230   19.6050  -26.8760 C   0  0  0  0  0  0  0  0  0  0  0  0
   -3.1500   18.8940  -25.9470 C   0  0  0  0  0  0  0  0  0  0  0  0
   -1.2420   20.5120  -26.5340 C   0  0  0  0  0  0  0  0  0  0  0  0
   -1.2180   21.3440  -25.4800 N   0  0  0  0  0  0  0  0  0  0  0  0
   -0.7790   22.5160  -25.9270 N   0  0  0  0  0  0  0  0  0  0  0  0
   -0.5590   22.3650  -27.2550 C   0  0  0  0  0  0  0  0  0  0  0  0
   -0.0640   23.7080  -28.3390 S   0  0  0  0  0  0  0  0  0  0  0  0
   -1.6470   24.6150  -28.2150 C   0  0  0  0  0  0  0  0  0  0  0  0
   -2.7630   23.8980  -28.9780 C   0  0  0  0  0  0  0  0  0  0  0  0
   -3.7950   24.8680  -29.5730 C   0  0  0  0  0  0  0  0  0  0  0  0
   -4.3500   24.3320  -30.8400 N   0  0  0  0  0  0  0  0  0  0  0  0
   -5.8190   24.5310  -30.9190 C   0  0  0  0  0  0  0  0  0  0  0  0
   -6.4660   23.6280  -31.9720 C   0  0  0  0  0  0  0  0  0  0  0  0
   -6.1980   22.2230  -31.6410 N   0  0  0  0  0  0  0  0  0  0  0  0
   -7.1780   21.2060  -31.9280 C   0  0  0  0  0  0  0  0  0  0  0  0
   -8.5410   21.4680  -31.7050 C   0  0  0  0  0  0  0  0  0  0  0  0
   -9.5070   20.5070  -32.0080 C   0  0  0  0  0  0  0  0  0  0  0  0
   -9.1230   19.2740  -32.5340 C   0  0  0  0  0  0  0  0  0  0  0  0
   -7.7710   18.9940  -32.7520 C   0  0  0  0  0  0  0  0  0  0  0  0
   -6.7850   19.9530  -32.4460 C   0  0  0  0  0  0  0  0  0  0  0  0
   -5.4170   19.6880  -32.6240 O   0  0  0  0  0  0  0  0  0  0  0  0
   -4.8740   18.9450  -33.7090 C   0  0  0  0  0  0  0  0  0  0  0  0
   -4.9810   21.8860  -30.8890 C   0  0  0  0  0  0  0  0  0  0  0  0
   -3.8960   22.9460  -31.1330 C   0  0  0  0  0  0  0  0  0  0  0  0
   -0.8200   21.0970  -27.6400 N   0  0  0  0  0  0  0  0  0  0  0  0
    0.1770   19.7708  -30.1389 H   0  0  0  0  0  0  0  0  0  0  0  0
   -1.0207   19.5727  -31.4628 H   0  0  0  0  0  0  0  0  0  0  0  0
    0.0931   20.9820  -31.4628 H   0  0  0  0  0  0  0  0  0  0  0  0
   -1.2265   22.1674  -30.0462 H   0  0  0  0  0  0  0  0  0  0  0  0
   -2.5050   20.9721  -30.4821 H   0  0  0  0  0  0  0  0  0  0  0  0
   -2.8655   19.1122  -24.9071 H   0  0  0  0  0  0  0  0  0  0  0  0
   -4.1804   19.2356  -26.1247 H   0  0  0  0  0  0  0  0  0  0  0  0
   -3.0872   17.8103  -26.1247 H   0  0  0  0  0  0  0  0  0  0  0  0
   -1.6440   21.1900  -24.5390 H   0  0  0  0  0  0  0  0  0  0  0  0
   -1.9318   24.6945  -27.1555 H   0  0  0  0  0  0  0  0  0  0  0  0
   -1.5101   25.6123  -28.6585 H   0  0  0  0  0  0  0  0  0  0  0  0
   -2.3125   23.3181  -29.7970 H   0  0  0  0  0  0  0  0  0  0  0  0
   -3.2908   23.2506  -28.2623 H   0  0  0  0  0  0  0  0  0  0  0  0
   -4.6136   25.0108  -28.8522 H   0  0  0  0  0  0  0  0  0  0  0  0
   -3.2987   25.8271  -29.7825 H   0  0  0  0  0  0  0  0  0  0  0  0
   -6.2610   24.3045  -29.9375 H   0  0  0  0  0  0  0  0  0  0  0  0
   -6.0044   25.5759  -31.2084 H   0  0  0  0  0  0  0  0  0  0  0  0
   -7.5522   23.8009  -31.9862 H   0  0  0  0  0  0  0  0  0  0  0  0
   -6.0457   23.8587  -32.9620 H   0  0  0  0  0  0  0  0  0  0  0  0
   -8.8489   22.4383  -31.2883 H   0  0  0  0  0  0  0  0  0  0  0  0
  -10.5712   20.7224  -31.8318 H   0  0  0  0  0  0  0  0  0  0  0  0
   -9.8858   18.5199  -32.7780 H   0  0  0  0  0  0  0  0  0  0  0  0
   -7.4748   18.0185  -33.1652 H   0  0  0  0  0  0  0  0  0  0  0  0
   -4.2674   18.1150  -33.3178 H   0  0  0  0  0  0  0  0  0  0  0  0
   -5.6925   18.5428  -34.3240 H   0  0  0  0  0  0  0  0  0  0  0  0
   -4.2423   19.6027  -34.3240 H   0  0  0  0  0  0  0  0  0  0  0  0
   -5.2164   21.8475  -29.8152 H   0  0  0  0  0  0  0  0  0  0  0  0
   -4.6094   20.9075  -31.2273 H   0  0  0  0  0  0  0  0  0  0  0  0
   -3.0339   22.7177  -30.4890 H   0  0  0  0  0  0  0  0  0  0  0  0
   -3.6375   22.9072  -32.2015 H   0  0  0  0  0  0  0  0  0  0  0  0
  1  2  1  0
  2  3  1  0
  3  4  1  0
  4  5  2  0
  5  6  1  0
  5  7  1  0
  7  8  2  0
  8  9  1  0
  9 10  2  0
 10 11  1  0
 11 12  1  0
 12 13  1  0
 13 14  1  0
 14 15  1  0
 15 16  1  0
 16 17  1  0
 17 18  1  0
 18 19  1  0
 19 20  2  0
 20 21  1  0
 21 22  2  0
 22 23  1  0
 23 24  2  0
 24 25  1  0
 25 26  1  0
 18 27  1  0
 27 28  1  0
 10 29  1  0
 29  3  1  0
 29  7  1  0
 28 15  1  0
 24 19  1  0
  1 30  1  0
  1 31  1  0
  1 32  1  0
  2 33  1  0
  2 34  1  0
  6 35  1  0
  6 36  1  0
  6 37  1  0
  8 38  1  0
 12 39  1  0
 12 40  1  0
 13 41  1  0
 13 42  1  0
 14 43  1  0
 14 44  1  0
 16 45  1  0
 16 46  1  0
 17 47  1  0
 17 48  1  0
 20 49  1  0
 21 50  1  0
 22 51  1  0
 23 52  1  0
 26 53  1  0
 26 54  1  0
 26 55  1  0
 27 56  1  0
 27 57  1  0
 28 58  1  0
 28 59  1  0
M  CHG  1   8   1
M  END
>  <UniqueID>  (34) 
33

>  <SMILES>  (34) 
CCn1nc(C)c2[nH+]nc(SCCCN3CCN(c4ccccc4OC)CC3)n21

>  <Energy>  (34) 
170.9732943549435

>  <Genealogy>  (34) 
CCn1nc(C)c2[nH+]nc(SCCCN3CCN(c4ccccc4OC)CC3)n21 (protonated)
CCn1nc(C)c2[nH+]nc(SCCCN3CCN(c4ccccc4OC)CC3)n21 (3D coordinates assigned)
CCn1nc(C)c2[nH+]nc(SCCCN3CCN(c4ccccc4OC)CC3)n21 (nonaromatic ring conformer: 170.9732943549435 kcal/mol)

>  <smiles>  (34) 
CCn1nc(C)c2nnc(SCCCN3CCN(c4ccccc4OC)CC3)n21

>  <score_type>  (34) 
oracle

>  <origin>  (34) 
adg

>  <m_score__min__energy>  (34) 
-8.6600000000000001

>  <m_primary>  (34) 
energy

$$$$
