0:0
     RDKit          3D

 33 34  0  0  0  0  0  0  0  0999 V2000
   -2.2110   24.5860  -28.8280 C   0  0  0  0  0  0  0  0  0  0  0  0
   -3.1150   25.2400  -29.7120 O   0  0  0  0  0  0  0  0  0  0  0  0
   -4.3320   24.6930  -30.1470 C   0  0  0  0  0  0  0  0  0  0  0  0
   -4.3000   23.5100  -30.8940 C   0  0  0  0  0  0  0  0  0  0  0  0
   -5.4860   22.9260  -31.3500 C   0  0  0  0  0  0  0  0  0  0  0  0
   -6.7240   23.5220  -31.0670 C   0  0  0  0  0  0  0  0  0  0  0  0
   -7.9960   22.8750  -31.5410 C   0  0  0  0  0  0  0  0  0  0  0  0
   -7.8590   21.4200  -31.5300 N   0  0  0  0  0  0  0  0  0  0  0  0
   -8.9230   20.5420  -31.9230 C   0  0  0  0  0  0  0  0  0  0  0  0
  -10.0160   21.0130  -32.3420 O   0  0  0  0  0  0  0  0  0  0  0  0
   -8.7250   19.0600  -31.8850 C   0  0  0  0  0  0  0  0  0  0  0  0
   -7.5610   18.6770  -32.7420 C   0  0  0  0  0  0  0  0  0  0  0  0
   -6.8040   19.5430  -33.5180 C   0  0  0  0  0  0  0  0  0  0  0  0
   -5.7290   18.9110  -34.1570 C   0  0  0  0  0  0  0  0  0  0  0  0
   -5.6310   17.5550  -33.8730 C   0  0  0  0  0  0  0  0  0  0  0  0
   -6.8810   17.1410  -32.8260 S   0  0  0  0  0  0  0  0  0  0  0  0
   -6.7600   24.7050  -30.3140 C   0  0  0  0  0  0  0  0  0  0  0  0
   -5.5750   25.2900  -29.8570 C   0  0  0  0  0  0  0  0  0  0  0  0
   -2.5000   24.7950  -27.7874 H   0  0  0  0  0  0  0  0  0  0  0  0
   -2.2437   23.5011  -29.0067 H   0  0  0  0  0  0  0  0  0  0  0  0
   -1.1908   24.9565  -29.0067 H   0  0  0  0  0  0  0  0  0  0  0  0
   -3.3345   23.0359  -31.1242 H   0  0  0  0  0  0  0  0  0  0  0  0
   -5.4480   21.9944  -31.9337 H   0  0  0  0  0  0  0  0  0  0  0  0
   -8.8216   23.1669  -30.8753 H   0  0  0  0  0  0  0  0  0  0  0  0
   -8.2053   23.2072  -32.5685 H   0  0  0  0  0  0  0  0  0  0  0  0
   -6.9440   21.0080  -31.2350 H   0  0  0  0  0  0  0  0  0  0  0  0
   -8.5337   18.7446  -30.8487 H   0  0  0  0  0  0  0  0  0  0  0  0
   -9.6310   18.5650  -32.2646 H   0  0  0  0  0  0  0  0  0  0  0  0
   -7.0251   20.6156  -33.6210 H   0  0  0  0  0  0  0  0  0  0  0  0
   -5.0287   19.4390  -34.8210 H   0  0  0  0  0  0  0  0  0  0  0  0
   -4.8663   16.8687  -34.2658 H   0  0  0  0  0  0  0  0  0  0  0  0
   -7.7267   25.1755  -30.0815 H   0  0  0  0  0  0  0  0  0  0  0  0
   -5.6133   26.2191  -29.2693 H   0  0  0  0  0  0  0  0  0  0  0  0
  1  2  1  0
  2  3  1  0
  3  4  2  0
  4  5  1  0
  5  6  2  0
  6  7  1  0
  7  8  1  0
  8  9  1  0
  9 10  2  0
  9 11  1  0
 11 12  1  0
 12 13  2  0
 13 14  1  0
 14 15  2  0
 15 16  1  0
  6 17  1  0
 17 18  2  0
 18  3  1  0
 16 12  1  0
  1 19  1  0
  1 20  1  0
  1 21  1  0
  4 22  1  0
  5 23  1  0
  7 24  1  0
  7 25  1  0
  8 26  1  0
 11 27  1  0
 11 28  1  0
 13 29  1  0
 14 30  1  0
 15 31  1  0
 17 32  1  0
 18 33  1  0
M  END
>  <UniqueID>  (1) 
1

>  <SMILES>  (1) 
COc1ccc(CNC(=O)Cc2cccs2)cc1

>  <Energy>  (1) 
52.72357079756617

>  <Genealogy>  (1) 
COc1ccc(CNC(=O)Cc2cccs2)cc1 (3D coordinates assigned)
COc1ccc(CNC(=O)Cc2cccs2)cc1 (optimized conformer: 52.72357079756617 kcal/mol)

>  <smiles>  (1) 
COc1ccc(CNC(=O)Cc2cccs2)cc1

>  <score_type>  (1) 
oracle

>  <origin>  (1) 
adg

>  <m_score__min__energy>  (1) 
-7.5999999999999996

>  <m_primary>  (1) 
energy

$$$$
1:0
     RDKit          3D

 51 53  0  0  0  0  0  0  0  0999 V2000
   -3.0940   21.1620  -33.4480 C   0  0  0  0  0  0  0  0  0  0  0  0
   -3.9560   21.8270  -32.3720 C   0  0  0  0  0  0  0  0  0  0  0  0
   -3.5920   21.3630  -30.9560 C   0  0  0  0  0  0  0  0  0  0  0  0
   -2.2010   21.8510  -30.5090 C   0  0  0  0  0  0  0  0  0  0  0  0
   -2.1870   22.3290  -29.0420 C   0  0  0  0  0  0  0  0  0  0  0  0
   -2.4150   23.8430  -28.8810 C   0  0  0  0  0  0  0  0  0  0  0  0
   -3.6270   24.2830  -29.5640 N   0  0  0  0  0  0  0  0  0  0  0  0
   -4.8730   24.3060  -29.0590 C   0  0  0  0  0  0  0  0  0  0  0  0
   -5.6980   24.6630  -30.1040 C   0  0  0  0  0  0  0  0  0  0  0  0
   -7.1860   24.5440  -30.1260 C   0  0  0  0  0  0  0  0  0  0  0  0
   -7.5660   23.4530  -31.0740 C   0  0  0  0  0  0  0  0  0  0  0  0
   -8.7430   23.3950  -31.7290 N   0  0  0  0  0  0  0  0  0  0  0  0
   -8.7300   22.2150  -32.3220 N   0  0  0  0  0  0  0  0  0  0  0  0
   -7.6100   21.5740  -32.0280 N   0  0  0  0  0  0  0  0  0  0  0  0
   -7.2650   20.2350  -32.4380 C   0  0  0  0  0  0  0  0  0  0  0  0
   -7.6520   19.1120  -31.6810 C   0  0  0  0  0  0  0  0  0  0  0  0
   -7.2680   17.8270  -32.0700 C   0  0  0  0  0  0  0  0  0  0  0  0
   -6.5010   17.6350  -33.2280 C   0  0  0  0  0  0  0  0  0  0  0  0
   -6.0360   16.2530  -33.6150 C   0  0  0  0  0  0  0  0  0  0  0  0
   -4.9760   15.7480  -32.6370 C   0  0  0  0  0  0  0  0  0  0  0  0
   -6.1090   18.7480  -33.9830 C   0  0  0  0  0  0  0  0  0  0  0  0
   -6.4850   20.0350  -33.5910 C   0  0  0  0  0  0  0  0  0  0  0  0
   -6.8550   22.3210  -31.2390 N   0  0  0  0  0  0  0  0  0  0  0  0
   -4.9390   24.8400  -31.2040 N   0  0  0  0  0  0  0  0  0  0  0  0
   -3.6840   24.6100  -30.8440 N   0  0  0  0  0  0  0  0  0  0  0  0
   -2.3103   20.5574  -32.9681 H   0  0  0  0  0  0  0  0  0  0  0  0
   -3.7247   20.5142  -34.0746 H   0  0  0  0  0  0  0  0  0  0  0  0
   -2.6275   21.9365  -34.0746 H   0  0  0  0  0  0  0  0  0  0  0  0
   -3.8170   22.9165  -32.4326 H   0  0  0  0  0  0  0  0  0  0  0  0
   -5.0017   21.5410  -32.5583 H   0  0  0  0  0  0  0  0  0  0  0  0
   -4.3439   21.7526  -30.2540 H   0  0  0  0  0  0  0  0  0  0  0  0
   -3.5719   20.2632  -30.9619 H   0  0  0  0  0  0  0  0  0  0  0  0
   -1.4849   21.0231  -30.6173 H   0  0  0  0  0  0  0  0  0  0  0  0
   -1.9272   22.7074  -31.1427 H   0  0  0  0  0  0  0  0  0  0  0  0
   -2.9813   21.7985  -28.4965 H   0  0  0  0  0  0  0  0  0  0  0  0
   -1.1854   22.1111  -28.6430 H   0  0  0  0  0  0  0  0  0  0  0  0
   -2.5043   24.0779  -27.8101 H   0  0  0  0  0  0  0  0  0  0  0  0
   -1.5590   24.3679  -29.3303 H   0  0  0  0  0  0  0  0  0  0  0  0
   -5.1726   24.0851  -28.0239 H   0  0  0  0  0  0  0  0  0  0  0  0
   -7.5529   24.3024  -29.1175 H   0  0  0  0  0  0  0  0  0  0  0  0
   -7.6331   25.4951  -30.4509 H   0  0  0  0  0  0  0  0  0  0  0  0
   -9.5040   21.8610  -32.9240 H   0  0  0  0  0  0  0  0  0  0  0  0
   -8.2619   19.2484  -30.7758 H   0  0  0  0  0  0  0  0  0  0  0  0
   -7.5692   16.9598  -31.4640 H   0  0  0  0  0  0  0  0  0  0  0  0
   -6.8951   15.5661  -33.6032 H   0  0  0  0  0  0  0  0  0  0  0  0
   -5.5967   16.2961  -34.6226 H   0  0  0  0  0  0  0  0  0  0  0  0
   -5.3209   15.9123  -31.6055 H   0  0  0  0  0  0  0  0  0  0  0  0
   -4.8083   14.6733  -32.8008 H   0  0  0  0  0  0  0  0  0  0  0  0
   -4.0358   16.2949  -32.8008 H   0  0  0  0  0  0  0  0  0  0  0  0
   -5.5018   18.6078  -34.8895 H   0  0  0  0  0  0  0  0  0  0  0  0
   -6.1677   20.9010  -34.1904 H   0  0  0  0  0  0  0  0  0  0  0  0
  1  2  1  0
  2  3  1  0
  3  4  1  0
  4  5  1  0
  5  6  1  0
  6  7  1  0
  7  8  1  0
  8  9  2  0
  9 10  1  0
 10 11  1  0
 11 12  1  0
 12 13  2  0
 13 14  1  0
 14 15  1  0
 15 16  2  0
 16 17  1  0
 17 18  2  0
 18 19  1  0
 19 20  1  0
 18 21  1  0
 21 22  2  0
 14 23  1  0
  9 24  1  0
 24 25  2  0
 25  7  1  0
 23 11  2  0
 22 15  1  0
  1 26  1  0
  1 27  1  0
  1 28  1  0
  2 29  1  0
  2 30  1  0
  3 31  1  0
  3 32  1  0
  4 33  1  0
  4 34  1  0
  5 35  1  0
  5 36  1  0
  6 37  1  0
  6 38  1  0
  8 39  1  0
 10 40  1  0
 10 41  1  0
 13 42  1  0
 16 43  1  0
 17 44  1  0
 19 45  1  0
 19 46  1  0
 20 47  1  0
 20 48  1  0
 20 49  1  0
 21 50  1  0
 22 51  1  0
M  CHG  1  13   1
M  END
>  <UniqueID>  (2) 
2

>  <SMILES>  (2) 
CCCCCCn1cc(Cc2n[nH+]n(-c3ccc(CC)cc3)n2)nn1

>  <Energy>  (2) 
110.30434773015678

>  <Genealogy>  (2) 
CCCCCCn1cc(Cc2n[nH+]n(-c3ccc(CC)cc3)n2)nn1 (protonated)
CCCCCCn1cc(Cc2n[nH+]n(-c3ccc(CC)cc3)n2)nn1 (3D coordinates assigned)
CCCCCCn1cc(Cc2n[nH+]n(-c3ccc(CC)cc3)n2)nn1 (optimized conformer: 110.30434773015678 kcal/mol)

>  <smiles>  (2) 
CCCCCCn1cc(Cc2nnn(-c3ccc(CC)cc3)n2)nn1

>  <score_type>  (2) 
oracle

>  <origin>  (2) 
adg

>  <m_score__min__energy>  (2) 
-8.9100000000000001

>  <m_primary>  (2) 
energy

$$$$
2:0
     RDKit          3D

 47 49  0  0  0  0  0  0  0  0999 V2000
   -3.5840   24.4820  -29.7160 C   0  0  0  0  0  0  0  0  0  0  0  0
   -4.9480   24.1780  -29.1040 C   0  0  0  0  0  0  0  0  0  0  0  0
   -6.0810   24.6840  -30.0090 C   0  0  0  0  0  0  0  0  0  0  0  0
   -5.7850   24.5020  -31.5090 C   0  0  0  0  0  0  0  0  0  0  0  0
   -6.8980   23.8150  -32.3260 C   0  0  0  0  0  0  0  0  0  0  0  0
   -7.6580   22.7210  -31.5560 C   0  0  0  0  0  0  0  0  0  0  0  0
   -7.6360   21.4410  -32.2670 N   0  0  0  0  0  0  0  0  0  0  0  0
   -8.7310   20.7610  -32.5730 N   0  0  0  0  0  0  0  0  0  0  0  0
   -8.4070   19.5860  -33.0870 N   0  0  0  0  0  0  0  0  0  0  0  0
   -7.0630   19.4890  -33.1020 C   0  0  0  0  0  0  0  0  0  0  0  0
   -6.3140   18.3200  -33.6150 C   0  0  0  0  0  0  0  0  0  0  0  0
   -5.3300   18.4720  -34.6080 C   0  0  0  0  0  0  0  0  0  0  0  0
   -4.6350   17.3580  -35.0900 C   0  0  0  0  0  0  0  0  0  0  0  0
   -4.9200   16.0840  -34.5920 C   0  0  0  0  0  0  0  0  0  0  0  0
   -5.9030   15.9220  -33.6130 C   0  0  0  0  0  0  0  0  0  0  0  0
   -6.6010   17.0320  -33.1280 C   0  0  0  0  0  0  0  0  0  0  0  0
   -6.5650   20.6700  -32.5700 C   0  0  0  0  0  0  0  0  0  0  0  0
   -5.1560   20.9800  -32.2480 C   0  0  0  0  0  0  0  0  0  0  0  0
   -4.2420   21.2870  -33.2670 C   0  0  0  0  0  0  0  0  0  0  0  0
   -2.9070   21.5610  -32.9570 C   0  0  0  0  0  0  0  0  0  0  0  0
   -2.4750   21.5250  -31.6280 C   0  0  0  0  0  0  0  0  0  0  0  0
   -1.1800   21.7920  -31.3280 F   0  0  0  0  0  0  0  0  0  0  0  0
   -3.3780   21.2120  -30.6090 C   0  0  0  0  0  0  0  0  0  0  0  0
   -4.7130   20.9380  -30.9160 C   0  0  0  0  0  0  0  0  0  0  0  0
   -2.8501   24.6456  -28.9131 H   0  0  0  0  0  0  0  0  0  0  0  0
   -3.2638   23.6332  -30.3381 H   0  0  0  0  0  0  0  0  0  0  0  0
   -3.6546   25.3865  -30.3381 H   0  0  0  0  0  0  0  0  0  0  0  0
   -5.0498   23.0905  -28.9738 H   0  0  0  0  0  0  0  0  0  0  0  0
   -5.0191   24.6901  -28.1331 H   0  0  0  0  0  0  0  0  0  0  0  0
   -6.9987   24.1294  -29.7638 H   0  0  0  0  0  0  0  0  0  0  0  0
   -6.1894   25.7631  -29.8254 H   0  0  0  0  0  0  0  0  0  0  0  0
   -5.6108   25.4975  -31.9434 H   0  0  0  0  0  0  0  0  0  0  0  0
   -4.9123   23.8348  -31.5662 H   0  0  0  0  0  0  0  0  0  0  0  0
   -7.6209   24.5828  -32.6390 H   0  0  0  0  0  0  0  0  0  0  0  0
   -6.4075   23.3211  -33.1777 H   0  0  0  0  0  0  0  0  0  0  0  0
   -7.1892   22.5886  -30.5697 H   0  0  0  0  0  0  0  0  0  0  0  0
   -8.7063   23.0387  -31.4558 H   0  0  0  0  0  0  0  0  0  0  0  0
   -9.0970   18.8780  -33.4220 H   0  0  0  0  0  0  0  0  0  0  0  0
   -5.1057   19.4720  -35.0077 H   0  0  0  0  0  0  0  0  0  0  0  0
   -3.8625   17.4851  -35.8627 H   0  0  0  0  0  0  0  0  0  0  0  0
   -4.3707   15.2094  -34.9706 H   0  0  0  0  0  0  0  0  0  0  0  0
   -6.1285   14.9186  -33.2227 H   0  0  0  0  0  0  0  0  0  0  0  0
   -7.3786   16.8974  -32.3617 H   0  0  0  0  0  0  0  0  0  0  0  0
   -4.5774   21.3122  -34.3143 H   0  0  0  0  0  0  0  0  0  0  0  0
   -2.1955   21.8052  -33.7596 H   0  0  0  0  0  0  0  0  0  0  0  0
   -3.0373   21.1813  -29.5635 H   0  0  0  0  0  0  0  0  0  0  0  0
   -5.4201   20.6883  -30.1112 H   0  0  0  0  0  0  0  0  0  0  0  0
  1  2  1  0
  2  3  1  0
  3  4  1  0
  4  5  1  0
  5  6  1  0
  6  7  1  0
  7  8  1  0
  8  9  2  0
  9 10  1  0
 10 11  1  0
 11 12  2  0
 12 13  1  0
 13 14  2  0
 14 15  1  0
 15 16  2  0
 10 17  2  0
 17 18  1  0
 18 19  2  0
 19 20  1  0
 20 21  2  0
 21 22  1  0
 21 23  1  0
 23 24  2  0
 17  7  1  0
 24 18  1  0
 16 11  1  0
  1 25  1  0
  1 26  1  0
  1 27  1  0
  2 28  1  0
  2 29  1  0
  3 30  1  0
  3 31  1  0
  4 32  1  0
  4 33  1  0
  5 34  1  0
  5 35  1  0
  6 36  1  0
  6 37  1  0
  9 38  1  0
 12 39  1  0
 13 40  1  0
 14 41  1  0
 15 42  1  0
 16 43  1  0
 19 44  1  0
 20 45  1  0
 23 46  1  0
 24 47  1  0
M  CHG  1   9   1
M  END
>  <UniqueID>  (3) 
3

>  <SMILES>  (3) 
CCCCCCn1n[nH+]c(-c2ccccc2)c1-c1ccc(F)cc1

>  <Energy>  (3) 
84.49453534460939

>  <Genealogy>  (3) 
CCCCCCn1n[nH+]c(-c2ccccc2)c1-c1ccc(F)cc1 (protonated)
CCCCCCn1n[nH+]c(-c2ccccc2)c1-c1ccc(F)cc1 (3D coordinates assigned)
CCCCCCn1n[nH+]c(-c2ccccc2)c1-c1ccc(F)cc1 (optimized conformer: 84.49453534460939 kcal/mol)

>  <smiles>  (3) 
CCCCCCn1nnc(-c2ccccc2)c1-c1ccc(F)cc1

>  <score_type>  (3) 
oracle

>  <origin>  (3) 
adg

>  <m_score__min__energy>  (3) 
-7.6900000000000004

>  <m_primary>  (3) 
energy

$$$$
3:0
     RDKit          3D

 40 42  0  0  0  0  0  0  0  0999 V2000
   -3.8330   19.0110  -32.3270 O   0  0  0  0  0  0  0  0  0  0  0  0
   -3.6040   20.0930  -32.9340 C   0  0  0  0  0  0  0  0  0  0  0  0
   -2.2100   20.3540  -33.3600 C   0  0  0  0  0  0  0  0  0  0  0  0
   -1.1360   19.4790  -33.3300 C   0  0  0  0  0  0  0  0  0  0  0  0
   -0.0630   20.1860  -33.8290 C   0  0  0  0  0  0  0  0  0  0  0  0
   -0.5400   21.4430  -34.1300 C   0  0  0  0  0  0  0  0  0  0  0  0
   -1.8190   21.5120  -33.8410 O   0  0  0  0  0  0  0  0  0  0  0  0
   -4.6830   21.0390  -33.1760 N   0  0  1  0  0  0  0  0  0  0  0  0
   -5.8610   20.4050  -33.8340 C   0  0  0  0  0  0  0  0  0  0  0  0
   -6.8690   19.7610  -32.9010 C   0  0  0  0  0  0  0  0  0  0  0  0
   -6.6840   18.4440  -32.4450 C   0  0  0  0  0  0  0  0  0  0  0  0
   -7.6310   17.8460  -31.6070 C   0  0  0  0  0  0  0  0  0  0  0  0
   -8.7820   18.5460  -31.2390 C   0  0  0  0  0  0  0  0  0  0  0  0
   -8.9970   19.8390  -31.7220 C   0  0  0  0  0  0  0  0  0  0  0  0
   -8.0540   20.4400  -32.5600 C   0  0  0  0  0  0  0  0  0  0  0  0
   -5.0160   21.9080  -32.0040 C   0  0  2  0  0  0  0  0  0  0  0  0
   -6.0580   22.9940  -32.3580 C   0  0  0  0  0  0  0  0  0  0  0  0
   -6.1750   23.9480  -31.1710 C   0  0  0  0  0  0  0  0  0  0  0  0
   -4.5790   23.9430  -30.4100 S   0  0  0  0  0  0  0  0  0  0  0  0
   -3.8650   25.2510  -30.6060 O   0  0  0  0  0  0  0  0  0  0  0  0
   -4.6650   23.5940  -28.9510 O   0  0  0  0  0  0  0  0  0  0  0  0
   -3.8270   22.6440  -31.3430 C   0  0  0  0  0  0  0  0  0  0  0  0
   -1.1390   18.4361  -32.9804 H   0  0  0  0  0  0  0  0  0  0  0  0
    0.9661   19.8204  -33.9603 H   0  0  0  0  0  0  0  0  0  0  0  0
    0.0598   22.2644  -34.5490 H   0  0  0  0  0  0  0  0  0  0  0  0
   -4.3430   21.6890  -33.9200 H   0  0  0  0  0  0  0  0  0  0  0  0
   -6.3836   21.1815  -34.4119 H   0  0  0  0  0  0  0  0  0  0  0  0
   -5.4566   19.5872  -34.4486 H   0  0  0  0  0  0  0  0  0  0  0  0
   -5.7894   17.8806  -32.7489 H   0  0  0  0  0  0  0  0  0  0  0  0
   -7.4688   16.8228  -31.2373 H   0  0  0  0  0  0  0  0  0  0  0  0
   -9.5191   18.0793  -30.5690 H   0  0  0  0  0  0  0  0  0  0  0  0
   -9.9101   20.3849  -31.4422 H   0  0  0  0  0  0  0  0  0  0  0  0
   -8.2388   21.4497  -32.9555 H   0  0  0  0  0  0  0  0  0  0  0  0
   -5.4063   21.1729  -31.2847 H   0  0  0  0  0  0  0  0  0  0  0  0
   -5.7302   23.5479  -33.2500 H   0  0  0  0  0  0  0  0  0  0  0  0
   -7.0327   22.5305  -32.5705 H   0  0  0  0  0  0  0  0  0  0  0  0
   -6.4351   24.9602  -31.5143 H   0  0  0  0  0  0  0  0  0  0  0  0
   -6.9643   23.6369  -30.4709 H   0  0  0  0  0  0  0  0  0  0  0  0
   -3.1501   23.0546  -32.1067 H   0  0  0  0  0  0  0  0  0  0  0  0
   -3.2164   21.9769  -30.7168 H   0  0  0  0  0  0  0  0  0  0  0  0
  1  2  2  0
  2  3  1  0
  3  4  2  0
  4  5  1  0
  5  6  2  0
  6  7  1  0
  2  8  1  0
  8  9  1  0
  9 10  1  0
 10 11  2  0
 11 12  1  0
 12 13  2  0
 13 14  1  0
 14 15  2  0
  8 16  1  0
 16 17  1  0
 17 18  1  0
 18 19  1  0
 19 20  2  0
 19 21  2  0
 19 22  1  0
  7  3  1  0
 15 10  1  0
 22 16  1  0
  4 23  1  0
  5 24  1  0
  6 25  1  0
  8 26  1  6
  9 27  1  0
  9 28  1  0
 11 29  1  0
 12 30  1  0
 13 31  1  0
 14 32  1  0
 15 33  1  0
 16 34  1  1
 17 35  1  0
 17 36  1  0
 18 37  1  0
 18 38  1  0
 22 39  1  0
 22 40  1  0
M  CHG  1   8   1
M  END
>  <UniqueID>  (4) 
4

>  <SMILES>  (4) 
O=C(c1ccco1)[N@@H+](Cc1ccccc1)[C@@H]1CCS(=O)(=O)C1

>  <Energy>  (4) 
80.02654023850981

>  <Genealogy>  (4) 
O=C(c1ccco1)[NH+](Cc1ccccc1)C1CCS(=O)(=O)C1 (protonated)
O=C(c1ccco1)[N@@H+](Cc1ccccc1)[C@@H]1CCS(=O)(=O)C1 (chirality)
O=C(c1ccco1)[N@@H+](Cc1ccccc1)[C@@H]1CCS(=O)(=O)C1 (3D coordinates assigned)
O=C(c1ccco1)[N@@H+](Cc1ccccc1)[C@@H]1CCS(=O)(=O)C1 (nonaromatic ring conformer: 80.02654023850981 kcal/mol)

>  <smiles>  (4) 
O=C(c1ccco1)N(Cc1ccccc1)C1CCS(=O)(=O)C1

>  <score_type>  (4) 
oracle

>  <origin>  (4) 
adg

>  <m_score__min__energy>  (4) 
-7.79

>  <m_primary>  (4) 
energy

$$$$
4:0
     RDKit          3D

 45 47  0  0  0  0  0  0  0  0999 V2000
   -3.0360   15.3820  -35.7140 C   0  0  0  0  0  0  0  0  0  0  0  0
   -3.4940   15.6190  -34.3870 O   0  0  0  0  0  0  0  0  0  0  0  0
   -4.4950   16.5450  -34.0490 C   0  0  0  0  0  0  0  0  0  0  0  0
   -4.7620   17.5940  -34.9370 C   0  0  0  0  0  0  0  0  0  0  0  0
   -5.7390   18.5480  -34.6370 C   0  0  0  0  0  0  0  0  0  0  0  0
   -6.4590   18.4730  -33.4330 C   0  0  0  0  0  0  0  0  0  0  0  0
   -7.4900   19.5180  -33.0920 C   0  0  0  0  0  0  0  0  0  0  0  0
   -6.8970   20.6000  -32.2810 N   0  0  0  0  0  0  0  0  0  0  0  0
   -5.4640   20.7760  -32.3100 C   0  0  0  0  0  0  0  0  0  0  0  0
   -4.6520   20.2720  -31.2800 C   0  0  0  0  0  0  0  0  0  0  0  0
   -3.2670   20.4230  -31.3600 C   0  0  0  0  0  0  0  0  0  0  0  0
   -2.7000   21.0760  -32.4550 C   0  0  0  0  0  0  0  0  0  0  0  0
   -3.5340   21.5620  -33.4640 C   0  0  0  0  0  0  0  0  0  0  0  0
   -4.8790   21.4020  -33.3710 N   0  0  0  0  0  0  0  0  0  0  0  0
   -7.7290   21.4840  -31.4370 C   0  0  2  0  0  0  0  0  0  0  0  0
   -9.1680   21.5630  -31.9610 C   0  0  0  0  0  0  0  0  0  0  0  0
   -7.0940   22.8430  -31.2760 C   0  0  0  0  0  0  0  0  0  0  0  0
   -7.1350   23.5430  -30.1200 N   0  0  0  0  0  0  0  0  0  0  0  0
   -6.3980   24.6310  -30.4330 C   0  0  0  0  0  0  0  0  0  0  0  0
   -6.1070   25.7420  -29.4810 C   0  0  0  0  0  0  0  0  0  0  0  0
   -5.9410   24.5740  -31.6610 O   0  0  0  0  0  0  0  0  0  0  0  0
   -6.3550   23.4750  -32.2100 N   0  0  0  0  0  0  0  0  0  0  0  0
   -6.2090   17.4070  -32.5520 C   0  0  0  0  0  0  0  0  0  0  0  0
   -5.2330   16.4540  -32.8520 C   0  0  0  0  0  0  0  0  0  0  0  0
   -2.0595   14.8767  -35.6801 H   0  0  0  0  0  0  0  0  0  0  0  0
   -3.7601   14.7454  -36.2436 H   0  0  0  0  0  0  0  0  0  0  0  0
   -2.9345   16.3408  -36.2436 H   0  0  0  0  0  0  0  0  0  0  0  0
   -4.1983   17.6682  -35.8787 H   0  0  0  0  0  0  0  0  0  0  0  0
   -5.9451   19.3619  -35.3477 H   0  0  0  0  0  0  0  0  0  0  0  0
   -7.8915   19.9447  -34.0230 H   0  0  0  0  0  0  0  0  0  0  0  0
   -8.2925   19.0422  -32.5093 H   0  0  0  0  0  0  0  0  0  0  0  0
   -5.1047   19.7621  -30.4168 H   0  0  0  0  0  0  0  0  0  0  0  0
   -2.6230   20.0277  -30.5607 H   0  0  0  0  0  0  0  0  0  0  0  0
   -1.6098   21.2063  -32.5225 H   0  0  0  0  0  0  0  0  0  0  0  0
   -3.1007   22.0751  -34.3352 H   0  0  0  0  0  0  0  0  0  0  0  0
   -7.7855   21.0417  -30.4314 H   0  0  0  0  0  0  0  0  0  0  0  0
   -9.8659   21.6013  -31.1116 H   0  0  0  0  0  0  0  0  0  0  0  0
   -9.2859   22.4690  -32.5736 H   0  0  0  0  0  0  0  0  0  0  0  0
   -9.3844   20.6754  -32.5736 H   0  0  0  0  0  0  0  0  0  0  0  0
   -6.2032   25.3748  -28.4486 H   0  0  0  0  0  0  0  0  0  0  0  0
   -5.0828   26.1076  -29.6462 H   0  0  0  0  0  0  0  0  0  0  0  0
   -6.8205   26.5628  -29.6462 H   0  0  0  0  0  0  0  0  0  0  0  0
   -6.1210   23.1630  -33.1780 H   0  0  0  0  0  0  0  0  0  0  0  0
   -6.7862   17.3226  -31.6194 H   0  0  0  0  0  0  0  0  0  0  0  0
   -5.0396   15.6288  -32.1508 H   0  0  0  0  0  0  0  0  0  0  0  0
  1  2  1  0
  2  3  1  0
  3  4  2  0
  4  5  1  0
  5  6  2  0
  6  7  1  0
  7  8  1  0
  8  9  1  0
  9 10  2  0
 10 11  1  0
 11 12  2  0
 12 13  1  0
 13 14  2  0
  8 15  1  0
 15 16  1  0
 15 17  1  0
 17 18  1  0
 18 19  2  0
 19 20  1  0
 19 21  1  0
 21 22  1  0
  6 23  1  0
 23 24  2  0
 24  3  1  0
 14  9  1  0
 22 17  2  0
  1 25  1  0
  1 26  1  0
  1 27  1  0
  4 28  1  0
  5 29  1  0
  7 30  1  0
  7 31  1  0
 10 32  1  0
 11 33  1  0
 12 34  1  0
 13 35  1  0
 15 36  1  1
 16 37  1  0
 16 38  1  0
 16 39  1  0
 20 40  1  0
 20 41  1  0
 20 42  1  0
 22 43  1  0
 23 44  1  0
 24 45  1  0
M  CHG  1  22   1
M  END
>  <UniqueID>  (5) 
5

>  <SMILES>  (5) 
COc1ccc(CN(c2ccccn2)[C@H](C)c2nc(C)o[nH+]2)cc1

>  <Energy>  (5) 
80.9381105638727

>  <Genealogy>  (5) 
COc1ccc(CN(c2ccccn2)C(C)c2nc(C)o[nH+]2)cc1 (protonated)
COc1ccc(CN(c2ccccn2)[C@H](C)c2nc(C)o[nH+]2)cc1 (chirality)
COc1ccc(CN(c2ccccn2)[C@H](C)c2nc(C)o[nH+]2)cc1 (3D coordinates assigned)
COc1ccc(CN(c2ccccn2)[C@H](C)c2nc(C)o[nH+]2)cc1 (optimized conformer: 80.9381105638727 kcal/mol)

>  <smiles>  (5) 
COc1ccc(CN(c2ccccn2)C(C)c2noc(C)n2)cc1

>  <score_type>  (5) 
oracle

>  <origin>  (5) 
adg

>  <m_score__min__energy>  (5) 
-7.7800000000000002

>  <m_primary>  (5) 
energy

$$$$
5:0
     RDKit          3D

 57 60  0  0  0  0  0  0  0  0999 V2000
   -0.5200   18.6720  -27.6690 C   0  0  0  0  0  0  0  0  0  0  0  0
   -1.5550   19.2850  -26.7320 C   0  0  0  0  0  0  0  0  0  0  0  0
   -1.5410   20.7480  -26.8410 N   0  0  0  0  0  0  0  0  0  0  0  0
   -0.8610   21.5580  -25.8250 C   0  0  0  0  0  0  0  0  0  0  0  0
   -0.1100   22.7590  -26.4370 C   0  0  0  0  0  0  0  0  0  0  0  0
   -0.5790   23.1580  -27.8530 C   0  0  0  0  0  0  0  0  0  0  0  0
   -2.0820   22.8880  -28.1080 C   0  0  1  0  0  0  0  0  0  0  0  0
   -2.9980   23.7710  -27.2360 C   0  0  0  0  0  0  0  0  0  0  0  0
   -4.1960   24.1300  -28.1080 C   0  0  0  0  0  0  0  0  0  0  0  0
   -3.8000   23.8270  -29.4740 N   0  0  0  0  0  0  0  0  0  0  0  0
   -4.4270   24.4460  -30.6050 C   0  0  0  0  0  0  0  0  0  0  0  0
   -4.2460   25.6730  -30.8230 O   0  0  0  0  0  0  0  0  0  0  0  0
   -5.2370   23.6940  -31.5120 N   0  0  0  0  0  0  0  0  0  0  0  0
   -5.6920   22.3260  -31.2810 C   0  0  0  0  0  0  0  0  0  0  0  0
   -4.8910   21.3620  -32.1240 C   0  0  0  0  0  0  0  0  0  0  0  0
   -3.5430   21.6540  -32.3930 C   0  0  0  0  0  0  0  0  0  0  0  0
   -2.7670   20.7910  -33.1700 C   0  0  0  0  0  0  0  0  0  0  0  0
   -1.0860   21.1740  -33.4900 Cl  0  0  0  0  0  0  0  0  0  0  0  0
   -3.3310   19.6270  -33.6930 C   0  0  0  0  0  0  0  0  0  0  0  0
   -4.6670   19.3190  -33.4340 C   0  0  0  0  0  0  0  0  0  0  0  0
   -5.4560   20.1700  -32.6440 C   0  0  0  0  0  0  0  0  0  0  0  0
   -6.8620   19.7950  -32.3900 C   0  0  0  0  0  0  0  0  0  0  0  0
   -7.9670   20.5800  -32.6440 C   0  0  0  0  0  0  0  0  0  0  0  0
   -9.0340   19.8300  -32.1880 C   0  0  0  0  0  0  0  0  0  0  0  0
   -8.5870   18.6620  -31.6830 N   0  0  0  0  0  0  0  0  0  0  0  0
   -7.2710   18.6460  -31.8140 N   0  0  0  0  0  0  0  0  0  0  0  0
   -6.4280   17.5490  -31.3500 C   0  0  0  0  0  0  0  0  0  0  0  0
   -2.4630   23.2620  -29.5550 C   0  0  0  0  0  0  0  0  0  0  0  0
   -2.3450   21.4220  -27.8250 C   0  0  0  0  0  0  0  0  0  0  0  0
   -3.2730   20.8050  -28.4160 O   0  0  0  0  0  0  0  0  0  0  0  0
    0.2772   18.1998  -27.0762 H   0  0  0  0  0  0  0  0  0  0  0  0
   -1.0030   17.9142  -28.3034 H   0  0  0  0  0  0  0  0  0  0  0  0
   -0.0876   19.4598  -28.3034 H   0  0  0  0  0  0  0  0  0  0  0  0
   -2.5539   18.9111  -27.0010 H   0  0  0  0  0  0  0  0  0  0  0  0
   -1.3114   19.0020  -25.6973 H   0  0  0  0  0  0  0  0  0  0  0  0
   -1.6107   21.9352  -25.1139 H   0  0  0  0  0  0  0  0  0  0  0  0
   -0.1192   20.9171  -25.3260 H   0  0  0  0  0  0  0  0  0  0  0  0
   -0.2491   23.6249  -25.7730 H   0  0  0  0  0  0  0  0  0  0  0  0
    0.9421   22.4524  -26.5325 H   0  0  0  0  0  0  0  0  0  0  0  0
   -0.3905   24.2328  -27.9916 H   0  0  0  0  0  0  0  0  0  0  0  0
   -0.0149   22.5386  -28.5658 H   0  0  0  0  0  0  0  0  0  0  0  0
   -3.3272   23.2162  -26.3450 H   0  0  0  0  0  0  0  0  0  0  0  0
   -2.4723   24.6715  -26.8857 H   0  0  0  0  0  0  0  0  0  0  0  0
   -5.0716   23.5291  -27.8213 H   0  0  0  0  0  0  0  0  0  0  0  0
   -4.4759   25.1876  -27.9939 H   0  0  0  0  0  0  0  0  0  0  0  0
   -5.5621   22.0742  -30.2181 H   0  0  0  0  0  0  0  0  0  0  0  0
   -6.7539   22.2488  -31.5575 H   0  0  0  0  0  0  0  0  0  0  0  0
   -3.0940   22.5725  -31.9871 H   0  0  0  0  0  0  0  0  0  0  0  0
   -2.7214   18.9510  -34.3106 H   0  0  0  0  0  0  0  0  0  0  0  0
   -5.1059   18.4013  -33.8525 H   0  0  0  0  0  0  0  0  0  0  0  0
   -7.9930   21.5781  -33.1056 H   0  0  0  0  0  0  0  0  0  0  0  0
  -10.0889   20.1389  -32.2304 H   0  0  0  0  0  0  0  0  0  0  0  0
   -6.4171   17.5348  -30.2501 H   0  0  0  0  0  0  0  0  0  0  0  0
   -6.8279   16.5953  -31.7250 H   0  0  0  0  0  0  0  0  0  0  0  0
   -5.4035   17.6899  -31.7250 H   0  0  0  0  0  0  0  0  0  0  0  0
   -2.4623   22.3677  -30.1955 H   0  0  0  0  0  0  0  0  0  0  0  0
   -1.7469   23.9725  -29.9936 H   0  0  0  0  0  0  0  0  0  0  0  0
  1  2  1  0
  2  3  1  0
  3  4  1  0
  4  5  1  0
  5  6  1  0
  7  6  1  1
  7  8  1  0
  8  9  1  0
  9 10  1  0
 10 11  1  0
 11 12  2  0
 11 13  1  0
 13 14  1  0
 14 15  1  0
 15 16  2  0
 16 17  1  0
 17 18  1  0
 17 19  2  0
 19 20  1  0
 20 21  2  0
 21 22  1  0
 22 23  2  0
 23 24  1  0
 24 25  2  0
 25 26  1  0
 26 27  1  0
 10 28  1  0
  7 29  1  0
 29 30  2  0
 29  3  1  0
 28  7  1  0
 21 15  1  0
 26 22  1  0
  1 31  1  0
  1 32  1  0
  1 33  1  0
  2 34  1  0
  2 35  1  0
  4 36  1  0
  4 37  1  0
  5 38  1  0
  5 39  1  0
  6 40  1  0
  6 41  1  0
  8 42  1  0
  8 43  1  0
  9 44  1  0
  9 45  1  0
 14 46  1  0
 14 47  1  0
 16 48  1  0
 19 49  1  0
 20 50  1  0
 23 51  1  0
 24 52  1  0
 27 53  1  0
 27 54  1  0
 27 55  1  0
 28 56  1  0
 28 57  1  0
M  CHG  1  13  -1
M  END
>  <UniqueID>  (6) 
6

>  <SMILES>  (6) 
CCN1CCC[C@]2(CCN(C(=O)[N-]Cc3cc(Cl)ccc3-c3ccnn3C)C2)C1=O

>  <Energy>  (6) 
100.47844493660347

>  <Genealogy>  (6) 
CCN1CCCC2(CCN(C(=O)[N-]Cc3cc(Cl)ccc3-c3ccnn3C)C2)C1=O (protonated)
CCN1CCC[C@]2(CCN(C(=O)[N-]Cc3cc(Cl)ccc3-c3ccnn3C)C2)C1=O (chirality)
CCN1CCC[C@]2(CCN(C(=O)[N-]Cc3cc(Cl)ccc3-c3ccnn3C)C2)C1=O (3D coordinates assigned)
CCN1CCC[C@]2(CCN(C(=O)[N-]Cc3cc(Cl)ccc3-c3ccnn3C)C2)C1=O (nonaromatic ring conformer: 100.47844493660347 kcal/mol)

>  <smiles>  (6) 
CCN1CCCC2(CCN(C(=O)NCc3cc(Cl)ccc3-c3ccnn3C)C2)C1=O

>  <score_type>  (6) 
oracle

>  <origin>  (6) 
adg

>  <m_score__min__energy>  (6) 
-11.15

>  <m_primary>  (6) 
energy

$$$$
6:0
     RDKit          3D

 44 46  0  0  1  0  0  0  0  0999 V2000
   -4.5740   24.7230  -31.0980 O   0  0  0  0  0  0  0  0  0  0  0  0
   -4.9530   24.2760  -29.9710 C   0  0  0  0  0  0  0  0  0  0  0  0
   -6.2790   23.7900  -29.8710 N   0  0  0  0  0  0  0  0  0  0  0  0
   -7.0850   23.8560  -31.0970 C   0  0  0  0  0  0  0  0  0  0  0  0
   -7.5500   22.5170  -31.5010 C   0  0  0  0  0  0  0  0  0  0  0  0
   -8.7880   22.0020  -31.2200 C   0  0  0  0  0  0  0  0  0  0  0  0
   -9.1410   20.7260  -31.6410 C   0  0  0  0  0  0  0  0  0  0  0  0
   -8.2320   19.9650  -32.3520 C   0  0  0  0  0  0  0  0  0  0  0  0
   -8.6050   18.7240  -32.7490 F   0  0  0  0  0  0  0  0  0  0  0  0
   -6.9800   20.4640  -32.6450 C   0  0  0  0  0  0  0  0  0  0  0  0
   -5.8090   19.4990  -33.5540 Cl  0  0  0  0  0  0  0  0  0  0  0  0
   -6.6510   21.7310  -32.2190 C   0  0  0  0  0  0  0  0  0  0  0  0
   -4.0050   24.2750  -28.8000 C   0  0  1  0  0  0  0  0  0  0  0  0
   -4.2270   22.9480  -28.1060 C   0  0  0  0  0  0  0  0  0  0  0  0
   -3.5860   21.9160  -29.0430 C   0  0  0  0  0  0  0  0  0  0  0  0
   -2.1140   22.0750  -28.8680 C   0  0  0  0  0  0  0  0  0  0  0  0
   -1.7000   23.4100  -29.0150 N   0  0  0  0  0  0  0  0  0  0  0  0
   -0.3390   23.7070  -28.9060 C   0  0  0  0  0  0  0  0  0  0  0  0
   -0.0920   24.6650  -27.8090 C   0  0  0  0  0  0  0  0  0  0  0  0
    1.0170   25.3450  -27.4770 N   0  0  0  0  0  0  0  0  0  0  0  0
    0.7850   26.1150  -26.3900 C   0  0  0  0  0  0  0  0  0  0  0  0
   -0.5260   25.9080  -26.0250 C   0  0  0  0  0  0  0  0  0  0  0  0
   -1.0400   25.0240  -26.8990 N   0  0  0  0  0  0  0  0  0  0  0  0
   -2.6100   24.4280  -29.3030 C   0  0  0  0  0  0  0  0  0  0  0  0
   -6.6370   23.4160  -28.9790 H   0  0  0  0  0  0  0  0  0  0  0  0
   -7.9583   24.5004  -30.9182 H   0  0  0  0  0  0  0  0  0  0  0  0
   -6.4596   24.2660  -31.9037 H   0  0  0  0  0  0  0  0  0  0  0  0
   -9.5118   22.6066  -30.6538 H   0  0  0  0  0  0  0  0  0  0  0  0
  -10.1383   20.3235  -31.4099 H   0  0  0  0  0  0  0  0  0  0  0  0
   -5.6537   22.1329  -32.4512 H   0  0  0  0  0  0  0  0  0  0  0  0
   -4.1763   25.1035  -28.0969 H   0  0  0  0  0  0  0  0  0  0  0  0
   -3.7371   22.9369  -27.1212 H   0  0  0  0  0  0  0  0  0  0  0  0
   -5.2922   22.7435  -27.9226 H   0  0  0  0  0  0  0  0  0  0  0  0
   -3.8981   20.8986  -28.7646 H   0  0  0  0  0  0  0  0  0  0  0  0
   -3.8906   22.0712  -30.0885 H   0  0  0  0  0  0  0  0  0  0  0  0
   -1.8380   21.7280  -27.8613 H   0  0  0  0  0  0  0  0  0  0  0  0
   -1.6164   21.4807  -29.6486 H   0  0  0  0  0  0  0  0  0  0  0  0
    0.2166   22.7791  -28.7051 H   0  0  0  0  0  0  0  0  0  0  0  0
   -0.0029   24.1610  -29.8499 H   0  0  0  0  0  0  0  0  0  0  0  0
    1.5063   26.7799  -25.8924 H   0  0  0  0  0  0  0  0  0  0  0  0
   -1.0526   26.3760  -25.1802 H   0  0  0  0  0  0  0  0  0  0  0  0
   -2.0240   24.6600  -26.8890 H   0  0  0  0  0  0  0  0  0  0  0  0
   -2.2074   25.3585  -28.8763 H   0  0  0  0  0  0  0  0  0  0  0  0
   -2.7068   24.4118  -30.3986 H   0  0  0  0  0  0  0  0  0  0  0  0
  1  2  2  0
  2  3  1  0
  3  4  1  0
  4  5  1  0
  5  6  2  0
  6  7  1  0
  7  8  2  0
  8  9  1  0
  8 10  1  0
 10 11  1  0
 10 12  2  0
  2 13  1  0
 13 14  1  0
 14 15  1  0
 15 16  1  0
 16 17  1  0
 17 18  1  0
 18 19  1  0
 19 20  2  0
 20 21  1  0
 21 22  2  0
 22 23  1  0
 17 24  1  0
 12  5  1  0
 24 13  1  0
 23 19  1  0
  3 25  1  0
  4 26  1  0
  4 27  1  0
  6 28  1  0
  7 29  1  0
 12 30  1  0
 13 31  1  1
 14 32  1  0
 14 33  1  0
 15 34  1  0
 15 35  1  0
 16 36  1  0
 16 37  1  0
 18 38  1  0
 18 39  1  0
 21 40  1  0
 22 41  1  0
 23 42  1  0
 24 43  1  0
 24 44  1  0
M  END
>  <smiles>  (7) 
O=C(NCc1ccc(F)c(Cl)c1)C1CCCN(Cc2ncc[nH]2)C1

>  <score_type>  (7) 
oracle

>  <origin>  (7) 
adg

>  <m_score__min__energy>  (7) 
-8.2599999999999998

>  <m_primary>  (7) 
energy

$$$$
7:0
     RDKit          3D

 40 43  0  0  1  0  0  0  0  0999 V2000
   -9.4080   20.2400  -32.3990 C   0  0  0  0  0  0  0  0  0  0  0  0
   -8.2220   21.0400  -31.9800 C   0  0  0  0  0  0  0  0  0  0  0  0
   -8.3890   22.7490  -31.4200 S   0  0  0  0  0  0  0  0  0  0  0  0
   -6.6310   22.9510  -31.1340 C   0  0  0  0  0  0  0  0  0  0  0  0
   -6.0300   24.1780  -30.6430 C   0  0  0  0  0  0  0  0  0  0  0  0
   -6.6640   24.8180  -29.5440 N   0  0  0  0  0  0  0  0  0  0  0  0
   -4.9930   24.6140  -31.2020 O   0  0  0  0  0  0  0  0  0  0  0  0
   -6.0950   21.7700  -31.4700 C   0  0  0  0  0  0  0  0  0  0  0  0
   -6.9060   20.7910  -31.9030 C   0  0  0  0  0  0  0  0  0  0  0  0
   -6.3210   19.4480  -32.2880 C   0  0  0  0  0  0  0  0  0  0  0  0
   -5.5500   18.9880  -32.9780 N   0  0  0  0  0  0  0  0  0  0  0  0
   -5.1850   17.7360  -33.1590 C   0  0  0  0  0  0  0  0  0  0  0  0
   -4.2750   17.3570  -33.9980 N   0  0  0  0  0  0  0  0  0  0  0  0
   -3.0950   18.1210  -34.1730 C   0  0  0  0  0  0  0  0  0  0  0  0
   -1.8810   17.6100  -34.5280 C   0  0  0  0  0  0  0  0  0  0  0  0
   -0.7450   18.4070  -34.6890 C   0  0  0  0  0  0  0  0  0  0  0  0
   -0.9090   19.7770  -34.4650 C   0  0  0  0  0  0  0  0  0  0  0  0
    0.2060   20.6480  -34.6100 N   0  0  0  0  0  0  0  0  0  0  0  0
    1.4750   20.2150  -34.3580 C   0  0  0  0  0  0  0  0  0  0  0  0
    2.2950   21.2920  -34.5930 C   0  0  0  0  0  0  0  0  0  0  0  0
    1.5570   22.3630  -34.9800 N   0  0  0  0  0  0  0  0  0  0  0  0
    0.2770   21.9240  -34.9780 C   0  0  0  0  0  0  0  0  0  0  0  0
   -2.1050   20.3330  -34.1070 C   0  0  0  0  0  0  0  0  0  0  0  0
   -3.1920   19.4850  -33.9640 C   0  0  0  0  0  0  0  0  0  0  0  0
   -5.8500   16.8690  -32.3860 N   0  0  0  0  0  0  0  0  0  0  0  0
   -7.0060   17.9280  -31.4030 S   0  0  0  0  0  0  0  0  0  0  0  0
   -9.9414   19.8802  -31.5068 H   0  0  0  0  0  0  0  0  0  0  0  0
  -10.0811   20.8693  -32.9997 H   0  0  0  0  0  0  0  0  0  0  0  0
   -9.0766   19.3801  -32.9997 H   0  0  0  0  0  0  0  0  0  0  0  0
   -7.6070   25.2280  -29.5670 H   0  0  0  0  0  0  0  0  0  0  0  0
   -6.1460   24.8860  -28.6310 H   0  0  0  0  0  0  0  0  0  0  0  0
   -5.0102   21.6052  -31.3926 H   0  0  0  0  0  0  0  0  0  0  0  0
   -1.7930   16.5262  -34.6943 H   0  0  0  0  0  0  0  0  0  0  0  0
    0.2267   17.9793  -34.9767 H   0  0  0  0  0  0  0  0  0  0  0  0
    1.7794   19.2091  -34.0331 H   0  0  0  0  0  0  0  0  0  0  0  0
    3.3895   21.2869  -34.4835 H   0  0  0  0  0  0  0  0  0  0  0  0
   -0.5923   22.5425  -35.2461 H   0  0  0  0  0  0  0  0  0  0  0  0
   -2.2016   21.4157  -33.9382 H   0  0  0  0  0  0  0  0  0  0  0  0
   -4.1641   19.9108  -33.6747 H   0  0  0  0  0  0  0  0  0  0  0  0
   -5.8350   15.8230  -32.2550 H   0  0  0  0  0  0  0  0  0  0  0  0
  1  2  1  0
  2  3  1  0
  3  4  1  0
  4  5  1  0
  5  6  1  0
  5  7  2  0
  4  8  2  0
  8  9  1  0
  9 10  1  0
 10 11  2  0
 11 12  1  0
 12 13  2  0
 13 14  1  0
 14 15  2  0
 15 16  1  0
 16 17  2  0
 17 18  1  0
 18 19  1  0
 19 20  2  0
 20 21  1  0
 21 22  2  0
 17 23  1  0
 23 24  2  0
 12 25  1  0
 25 26  1  0
  9  2  2  0
 26 10  1  0
 24 14  1  0
 22 18  1  0
  1 27  1  0
  1 28  1  0
  1 29  1  0
  6 30  1  0
  6 31  1  0
  8 32  1  0
 15 33  1  0
 16 34  1  0
 19 35  1  0
 20 36  1  0
 22 37  1  0
 23 38  1  0
 24 39  1  0
 25 40  1  0
M  END
>  <smiles>  (8) 
Cc1sc(C(N)=O)cc1-c1nc(=Nc2ccc(-n3ccnc3)cc2)[nH]s1

>  <score_type>  (8) 
oracle

>  <origin>  (8) 
adg

>  <m_score__min__energy>  (8) 
-8.7699999999999996

>  <m_primary>  (8) 
energy

$$$$
8:0
     RDKit          3D

 26 28  0  0  0  0  0  0  0  0999 V2000
   -7.9540   22.3773  -29.1504 H   0  0  0  0  0  0  0  0  0  0  0  0
   -7.5930   22.6610  -30.1500 C   0  0  0  0  0  0  0  0  0  0  0  0
   -8.2390   22.2590  -31.2020 N   0  0  0  0  0  0  0  0  0  0  0  0
   -8.0960   20.9820  -31.7780 N   0  0  0  0  0  0  0  0  0  0  0  0
   -9.0990   20.0900  -31.9650 C   0  0  0  0  0  0  0  0  0  0  0  0
  -10.1304   20.2561  -31.6206 H   0  0  0  0  0  0  0  0  0  0  0  0
   -8.6990   18.9670  -32.6230 N   0  0  0  0  0  0  0  0  0  0  0  0
   -7.3920   19.2000  -32.8540 C   0  0  0  0  0  0  0  0  0  0  0  0
   -6.4830   18.4050  -33.5450 C   0  0  0  0  0  0  0  0  0  0  0  0
   -6.7711   17.4223  -33.9465 H   0  0  0  0  0  0  0  0  0  0  0  0
   -5.1800   18.9100  -33.7090 C   0  0  0  0  0  0  0  0  0  0  0  0
   -4.4207   18.3159  -34.2386 H   0  0  0  0  0  0  0  0  0  0  0  0
   -4.8490   20.1860  -33.1900 C   0  0  0  0  0  0  0  0  0  0  0  0
   -3.2340   20.8280  -33.4080 Cl  0  0  0  0  0  0  0  0  0  0  0  0
   -5.7850   20.9270  -32.5230 N   0  0  0  0  0  0  0  0  0  0  0  0
   -7.0280   20.4100  -32.3550 C   0  0  0  0  0  0  0  0  0  0  0  0
   -6.3800   23.4940  -30.2770 C   0  0  0  0  0  0  0  0  0  0  0  0
   -6.5040   24.8880  -30.3500 C   0  0  0  0  0  0  0  0  0  0  0  0
   -7.4980   25.3577  -30.3139 H   0  0  0  0  0  0  0  0  0  0  0  0
   -5.3570   25.6780  -30.4690 C   0  0  0  0  0  0  0  0  0  0  0  0
   -5.4481   26.7726  -30.5280 H   0  0  0  0  0  0  0  0  0  0  0  0
   -4.1290   25.0960  -30.5120 N   0  0  0  0  0  0  0  0  0  0  0  0
   -3.9780   23.7470  -30.4440 C   0  0  0  0  0  0  0  0  0  0  0  0
   -2.9715   23.3050  -30.4835 H   0  0  0  0  0  0  0  0  0  0  0  0
   -5.0980   22.9200  -30.3240 C   0  0  0  0  0  0  0  0  0  0  0  0
   -4.9772   21.8282  -30.2668 H   0  0  0  0  0  0  0  0  0  0  0  0
  1  2  1  0
  2  3  2  0
  3  4  1  0
  4  5  1  0
  5  6  1  0
  5  7  2  0
  7  8  1  0
  8  9  2  0
  9 10  1  0
  9 11  1  0
 11 12  1  0
 11 13  2  0
 13 14  1  0
 13 15  1  0
 15 16  2  0
  2 17  1  0
 17 18  2  0
 18 19  1  0
 18 20  1  0
 20 21  1  0
 20 22  2  0
 22 23  1  0
 23 24  1  0
 23 25  2  0
 25 26  1  0
 16  4  1  0
 25 17  1  0
 16  8  1  0
M  END
>  <UniqueID>  (9) 
7

>  <SMILES>  (9) 
Clc1ccc2ncn(/N=C/c3ccncc3)c2n1

>  <Energy>  (9) 
73.64761405707682

>  <Genealogy>  (9) 
Clc1ccc2ncn(/N=C/c3ccncc3)c2n1 (cis-trans isomerization)
Clc1ccc2ncn(/N=C/c3ccncc3)c2n1 (3D coordinates assigned)
Clc1ccc2ncn(/N=C/c3ccncc3)c2n1 (optimized conformer: 73.64761405707682 kcal/mol)

>  <smiles>  (9) 
Clc1ccc2ncn(N=Cc3ccncc3)c2n1

>  <score_type>  (9) 
oracle

>  <origin>  (9) 
adg

>  <m_score__min__energy>  (9) 
-7.3600000000000003

>  <m_primary>  (9) 
energy

$$$$
9:0
     RDKit          3D

 48 51  0  0  1  0  0  0  0  0999 V2000
   -6.8490   20.4380  -33.8880 O   0  0  0  0  0  0  0  0  0  0  0  0
   -7.2650   19.5830  -33.0500 C   0  0  0  0  0  0  0  0  0  0  0  0
   -6.6710   18.2390  -32.8650 C   0  0  0  0  0  0  0  0  0  0  0  0
   -7.2360   17.8070  -31.5330 C   0  0  0  0  0  0  0  0  0  0  0  0
   -8.6070   18.4630  -31.5840 C   0  0  0  0  0  0  0  0  0  0  0  0
   -8.3660   19.7800  -32.1600 N   0  0  0  0  0  0  0  0  0  0  0  0
   -9.0050   21.0340  -31.9500 C   0  0  0  0  0  0  0  0  0  0  0  0
   -8.1260   22.1080  -31.3540 C   0  0  0  0  0  0  0  0  0  0  0  0
   -8.1680   23.4140  -32.0750 C   0  0  0  0  0  0  0  0  0  0  0  0
   -6.8760   23.7990  -32.6220 N   0  0  0  0  0  0  0  0  0  0  0  0
   -5.8290   23.2520  -32.1600 C   0  0  0  0  0  0  0  0  0  0  0  0
   -5.1010   22.3120  -32.7770 N   0  0  0  0  0  0  0  0  0  0  0  0
   -3.9940   21.7550  -32.2550 C   0  0  0  0  0  0  0  0  0  0  0  0
   -3.2020   20.7440  -32.9040 C   0  0  0  0  0  0  0  0  0  0  0  0
   -1.8300   20.9260  -33.1040 C   0  0  0  0  0  0  0  0  0  0  0  0
   -1.0450   19.9830  -33.7190 C   0  0  0  0  0  0  0  0  0  0  0  0
   -1.5670   18.8080  -34.1740 C   0  0  0  0  0  0  0  0  0  0  0  0
   -0.7630   17.9100  -34.7720 F   0  0  0  0  0  0  0  0  0  0  0  0
   -2.9290   18.5980  -33.9910 C   0  0  0  0  0  0  0  0  0  0  0  0
   -3.7230   19.5600  -33.3630 C   0  0  0  0  0  0  0  0  0  0  0  0
   -3.6240   22.1950  -31.0320 N   0  0  0  0  0  0  0  0  0  0  0  0
   -4.2720   23.1220  -30.3320 C   0  0  0  0  0  0  0  0  0  0  0  0
   -3.8740   23.5570  -29.0830 C   0  0  0  0  0  0  0  0  0  0  0  0
   -4.6070   24.5290  -28.4190 C   0  0  0  0  0  0  0  0  0  0  0  0
   -5.7430   25.0850  -28.9800 C   0  0  0  0  0  0  0  0  0  0  0  0
   -6.1200   24.6420  -30.2180 C   0  0  0  0  0  0  0  0  0  0  0  0
   -5.4040   23.6740  -30.8970 C   0  0  0  0  0  0  0  0  0  0  0  0
   -6.9810   17.5543  -33.6682 H   0  0  0  0  0  0  0  0  0  0  0  0
   -5.5714   18.2401  -32.8931 H   0  0  0  0  0  0  0  0  0  0  0  0
   -7.3127   16.7121  -31.4609 H   0  0  0  0  0  0  0  0  0  0  0  0
   -6.6252   18.0913  -30.6635 H   0  0  0  0  0  0  0  0  0  0  0  0
   -9.2919   17.8815  -32.2187 H   0  0  0  0  0  0  0  0  0  0  0  0
   -9.0769   18.5227  -30.5912 H   0  0  0  0  0  0  0  0  0  0  0  0
   -9.3741   21.3955  -32.9211 H   0  0  0  0  0  0  0  0  0  0  0  0
   -9.8056   20.8516  -31.2181 H   0  0  0  0  0  0  0  0  0  0  0  0
   -8.4478   22.2783  -30.3160 H   0  0  0  0  0  0  0  0  0  0  0  0
   -7.0913   21.7425  -31.4296 H   0  0  0  0  0  0  0  0  0  0  0  0
   -8.8901   23.3361  -32.9012 H   0  0  0  0  0  0  0  0  0  0  0  0
   -8.4617   24.1844  -31.3469 H   0  0  0  0  0  0  0  0  0  0  0  0
   -5.4050   21.9970  -33.7030 H   0  0  0  0  0  0  0  0  0  0  0  0
   -1.3629   21.8590  -32.7557 H   0  0  0  0  0  0  0  0  0  0  0  0
    0.0296   20.1794  -33.8479 H   0  0  0  0  0  0  0  0  0  0  0  0
   -3.3869   17.6626  -34.3452 H   0  0  0  0  0  0  0  0  0  0  0  0
   -4.7973   19.3631  -33.2324 H   0  0  0  0  0  0  0  0  0  0  0  0
   -2.9743   23.1318  -28.6143 H   0  0  0  0  0  0  0  0  0  0  0  0
   -4.2781   24.8653  -27.4246 H   0  0  0  0  0  0  0  0  0  0  0  0
   -6.3220   25.8554  -28.4496 H   0  0  0  0  0  0  0  0  0  0  0  0
   -7.0191   25.0685  -30.6869 H   0  0  0  0  0  0  0  0  0  0  0  0
  1  2  2  0
  2  3  1  0
  3  4  1  0
  4  5  1  0
  5  6  1  0
  6  7  1  0
  7  8  1  0
  8  9  1  0
  9 10  1  0
 10 11  2  0
 11 12  1  0
 12 13  1  0
 13 14  1  0
 14 15  2  0
 15 16  1  0
 16 17  2  0
 17 18  1  0
 17 19  1  0
 19 20  2  0
 13 21  2  0
 21 22  1  0
 22 23  2  0
 23 24  1  0
 24 25  2  0
 25 26  1  0
 26 27  2  0
  6  2  1  0
 27 11  1  0
 20 14  1  0
 27 22  1  0
  3 28  1  0
  3 29  1  0
  4 30  1  0
  4 31  1  0
  5 32  1  0
  5 33  1  0
  7 34  1  0
  7 35  1  0
  8 36  1  0
  8 37  1  0
  9 38  1  0
  9 39  1  0
 12 40  1  0
 15 41  1  0
 16 42  1  0
 19 43  1  0
 20 44  1  0
 23 45  1  0
 24 46  1  0
 25 47  1  0
 26 48  1  0
M  END
>  <smiles>  (10) 
O=C1CCCN1CCCN=c1[nH]c(-c2ccc(F)cc2)nc2ccccc12

>  <score_type>  (10) 
oracle

>  <origin>  (10) 
adg

>  <m_score__min__energy>  (10) 
-9.0199999999999996

>  <m_primary>  (10) 
energy

$$$$
10:0
     RDKit          3D

 39 41  0  0  0  0  0  0  0  0999 V2000
   -9.1690   22.5810  -31.9380 C   0  0  0  0  0  0  0  0  0  0  0  0
   -7.7850   22.9180  -31.6140 N   0  0  0  0  0  0  0  0  0  0  0  0
   -7.4130   24.0980  -31.1470 N   0  0  0  0  0  0  0  0  0  0  0  0
   -6.0730   24.1000  -30.9960 C   0  0  0  0  0  0  0  0  0  0  0  0
   -5.2790   25.2340  -30.4870 C   0  0  0  0  0  0  0  0  0  0  0  0
   -5.8730   26.2740  -30.0980 O   0  0  0  0  0  0  0  0  0  0  0  0
   -3.8460   25.2090  -30.4710 N   0  0  0  0  0  0  0  0  0  0  0  0
   -3.0260   24.2820  -29.7450 C   0  0  0  0  0  0  0  0  0  0  0  0
   -2.5860   24.5530  -28.4380 C   0  0  0  0  0  0  0  0  0  0  0  0
   -1.7900   23.6280  -27.7590 C   0  0  0  0  0  0  0  0  0  0  0  0
   -1.4040   22.4400  -28.3840 C   0  0  0  0  0  0  0  0  0  0  0  0
   -1.7920   22.1780  -29.7100 C   0  0  0  0  0  0  0  0  0  0  0  0
   -1.4100   20.8780  -30.3740 C   0  0  0  0  0  0  0  0  0  0  0  0
   -0.4000   21.0780  -31.2990 F   0  0  0  0  0  0  0  0  0  0  0  0
   -0.9700   19.9880  -29.4130 F   0  0  0  0  0  0  0  0  0  0  0  0
   -2.4970   20.3290  -31.0330 F   0  0  0  0  0  0  0  0  0  0  0  0
   -2.6170   23.1010  -30.3770 C   0  0  0  0  0  0  0  0  0  0  0  0
   -5.5740   22.8620  -31.3620 C   0  0  0  0  0  0  0  0  0  0  0  0
   -6.6900   22.1330  -31.7380 C   0  0  0  0  0  0  0  0  0  0  0  0
   -6.6690   20.7410  -32.2310 C   0  0  0  0  0  0  0  0  0  0  0  0
   -7.7110   19.8670  -31.8840 C   0  0  0  0  0  0  0  0  0  0  0  0
   -7.7090   18.5470  -32.3450 C   0  0  0  0  0  0  0  0  0  0  0  0
   -6.6740   18.0940  -33.1670 C   0  0  0  0  0  0  0  0  0  0  0  0
   -5.6430   18.9630  -33.5350 C   0  0  0  0  0  0  0  0  0  0  0  0
   -5.6400   20.2850  -33.0760 C   0  0  0  0  0  0  0  0  0  0  0  0
   -4.6590   21.1260  -33.4940 F   0  0  0  0  0  0  0  0  0  0  0  0
   -9.7399   22.4420  -31.0081 H   0  0  0  0  0  0  0  0  0  0  0  0
   -9.6171   23.3963  -32.5250 H   0  0  0  0  0  0  0  0  0  0  0  0
   -9.1922   21.6510  -32.5250 H   0  0  0  0  0  0  0  0  0  0  0  0
   -8.0680   24.8820  -30.9290 H   0  0  0  0  0  0  0  0  0  0  0  0
   -2.8694   25.4964  -27.9485 H   0  0  0  0  0  0  0  0  0  0  0  0
   -1.4659   23.8357  -26.7285 H   0  0  0  0  0  0  0  0  0  0  0  0
   -0.7940   21.7063  -27.8367 H   0  0  0  0  0  0  0  0  0  0  0  0
   -2.9447   22.8932  -31.4063 H   0  0  0  0  0  0  0  0  0  0  0  0
   -4.5250   22.5309  -31.3557 H   0  0  0  0  0  0  0  0  0  0  0  0
   -8.5336   20.2224  -31.2460 H   0  0  0  0  0  0  0  0  0  0  0  0
   -8.5232   17.8644  -32.0602 H   0  0  0  0  0  0  0  0  0  0  0  0
   -6.6706   17.0537  -33.5244 H   0  0  0  0  0  0  0  0  0  0  0  0
   -4.8319   18.6069  -34.1871 H   0  0  0  0  0  0  0  0  0  0  0  0
  1  2  1  0
  2  3  1  0
  3  4  2  0
  4  5  1  0
  5  6  2  0
  5  7  1  0
  7  8  1  0
  8  9  2  0
  9 10  1  0
 10 11  2  0
 11 12  1  0
 12 13  1  0
 13 14  1  0
 13 15  1  0
 13 16  1  0
 12 17  2  0
  4 18  1  0
 18 19  2  0
 19 20  1  0
 20 21  2  0
 21 22  1  0
 22 23  2  0
 23 24  1  0
 24 25  2  0
 25 26  1  0
 19  2  1  0
 25 20  1  0
 17  8  1  0
  1 27  1  0
  1 28  1  0
  1 29  1  0
  3 30  1  0
  9 31  1  0
 10 32  1  0
 11 33  1  0
 17 34  1  0
 18 35  1  0
 21 36  1  0
 22 37  1  0
 23 38  1  0
 24 39  1  0
M  CHG  2   3   1   7  -1
M  END
>  <UniqueID>  (11) 
8

>  <SMILES>  (11) 
Cn1[nH+]c(C(=O)[N-]c2cccc(C(F)(F)F)c2)cc1-c1ccccc1F

>  <Energy>  (11) 
83.16585428341688

>  <Genealogy>  (11) 
Cn1[nH+]c(C(=O)[N-]c2cccc(C(F)(F)F)c2)cc1-c1ccccc1F (protonated)
Cn1[nH+]c(C(=O)[N-]c2cccc(C(F)(F)F)c2)cc1-c1ccccc1F (3D coordinates assigned)
Cn1[nH+]c(C(=O)[N-]c2cccc(C(F)(F)F)c2)cc1-c1ccccc1F (optimized conformer: 83.16585428341688 kcal/mol)

>  <smiles>  (11) 
Cn1nc(C(=O)Nc2cccc(C(F)(F)F)c2)cc1-c1ccccc1F

>  <score_type>  (11) 
oracle

>  <origin>  (11) 
adg

>  <m_score__min__energy>  (11) 
-8.9800000000000004

>  <m_primary>  (11) 
energy

$$$$
11:0
     RDKit          3D

 25 26  0  0  0  0  0  0  0  0999 V2000
   -2.6720   24.5510  -28.8030 Cl  0  0  0  0  0  0  0  0  0  0  0  0
   -3.9530   24.0130  -29.8730 C   0  0  0  0  0  0  0  0  0  0  0  0
   -3.6880   23.0570  -30.8590 C   0  0  0  0  0  0  0  0  0  0  0  0
   -4.7080   22.6280  -31.7120 C   0  0  0  0  0  0  0  0  0  0  0  0
   -6.0060   23.1530  -31.5880 C   0  0  0  0  0  0  0  0  0  0  0  0
   -7.1060   22.7090  -32.5170 C   0  0  0  0  0  0  0  0  0  0  0  0
   -7.2780   21.2080  -32.4670 C   0  0  0  0  0  0  0  0  0  0  0  0
   -6.3630   20.3920  -33.1560 C   0  0  0  0  0  0  0  0  0  0  0  0
   -6.4750   19.0000  -33.1050 C   0  0  0  0  0  0  0  0  0  0  0  0
   -7.4970   18.4060  -32.3620 C   0  0  0  0  0  0  0  0  0  0  0  0
   -8.4080   19.2040  -31.6670 C   0  0  0  0  0  0  0  0  0  0  0  0
   -8.3060   20.6000  -31.7110 C   0  0  0  0  0  0  0  0  0  0  0  0
   -9.4890   21.5450  -30.8130 Cl  0  0  0  0  0  0  0  0  0  0  0  0
   -6.2650   24.1120  -30.5930 C   0  0  0  0  0  0  0  0  0  0  0  0
   -5.2420   24.5390  -29.7410 C   0  0  0  0  0  0  0  0  0  0  0  0
   -2.6746   22.6421  -30.9631 H   0  0  0  0  0  0  0  0  0  0  0  0
   -4.4941   21.8752  -32.4850 H   0  0  0  0  0  0  0  0  0  0  0  0
   -8.0483   23.1901  -32.2160 H   0  0  0  0  0  0  0  0  0  0  0  0
   -6.8387   22.9991  -33.5438 H   0  0  0  0  0  0  0  0  0  0  0  0
   -5.5527   20.8532  -33.7397 H   0  0  0  0  0  0  0  0  0  0  0  0
   -5.7566   18.3711  -33.6513 H   0  0  0  0  0  0  0  0  0  0  0  0
   -7.5845   17.3101  -32.3242 H   0  0  0  0  0  0  0  0  0  0  0  0
   -9.2111   18.7330  -31.0811 H   0  0  0  0  0  0  0  0  0  0  0  0
   -7.2774   24.5283  -30.4843 H   0  0  0  0  0  0  0  0  0  0  0  0
   -5.4515   25.2902  -28.9653 H   0  0  0  0  0  0  0  0  0  0  0  0
  1  2  1  0
  2  3  2  0
  3  4  1  0
  4  5  2  0
  5  6  1  0
  6  7  1  0
  7  8  2  0
  8  9  1  0
  9 10  2  0
 10 11  1  0
 11 12  2  0
 12 13  1  0
  5 14  1  0
 14 15  2  0
 15  2  1  0
 12  7  1  0
  3 16  1  0
  4 17  1  0
  6 18  1  0
  6 19  1  0
  8 20  1  0
  9 21  1  0
 10 22  1  0
 11 23  1  0
 14 24  1  0
 15 25  1  0
M  END
>  <UniqueID>  (12) 
9

>  <SMILES>  (12) 
Clc1ccc(Cc2ccccc2Cl)cc1

>  <Energy>  (12) 
25.763364859232155

>  <Genealogy>  (12) 
Clc1ccc(Cc2ccccc2Cl)cc1 (3D coordinates assigned)
Clc1ccc(Cc2ccccc2Cl)cc1 (optimized conformer: 25.763364859232155 kcal/mol)

>  <smiles>  (12) 
Clc1ccc(Cc2ccccc2Cl)cc1

>  <score_type>  (12) 
oracle

>  <origin>  (12) 
adg

>  <m_score__min__energy>  (12) 
-6.9500000000000002

>  <m_primary>  (12) 
energy

$$$$
12:0
     RDKit          3D

 33 34  0  0  0  0  0  0  0  0999 V2000
   -9.5356   22.5480  -32.6600 H   0  0  0  0  0  0  0  0  0  0  0  0
   -8.8690   22.0310  -31.9540 C   0  0  0  0  0  0  0  0  0  0  0  0
   -9.0100   20.7080  -31.7910 C   0  0  0  0  0  0  0  0  0  0  0  0
   -9.9168   20.3400  -31.2886 H   0  0  0  0  0  0  0  0  0  0  0  0
   -8.0100   19.7120  -32.2510 C   0  0  0  0  0  0  0  0  0  0  0  0
   -8.2770   18.3280  -32.2770 C   0  0  0  0  0  0  0  0  0  0  0  0
   -9.2611   17.9548  -31.9572 H   0  0  0  0  0  0  0  0  0  0  0  0
   -7.2980   17.4270  -32.7070 C   0  0  0  0  0  0  0  0  0  0  0  0
   -7.5170   16.3493  -32.7303 H   0  0  0  0  0  0  0  0  0  0  0  0
   -6.0430   17.8910  -33.1070 C   0  0  0  0  0  0  0  0  0  0  0  0
   -5.2776   17.1795  -33.4505 H   0  0  0  0  0  0  0  0  0  0  0  0
   -5.7590   19.2600  -33.0710 C   0  0  0  0  0  0  0  0  0  0  0  0
   -4.4630   19.7380  -33.4760 C   0  0  0  0  0  0  0  0  0  0  0  0
   -3.4200   20.1210  -33.8000 N   0  0  0  0  0  0  0  0  0  0  0  0
   -6.7380   20.1660  -32.6400 C   0  0  0  0  0  0  0  0  0  0  0  0
   -6.5088   21.2413  -32.6060 H   0  0  0  0  0  0  0  0  0  0  0  0
   -7.8590   22.8240  -31.2280 C   0  0  0  0  0  0  0  0  0  0  0  0
   -7.6630   22.7260  -29.9320 O   0  0  0  0  0  0  0  0  0  0  0  0
   -6.7170   23.5310  -29.5510 N   0  0  0  0  0  0  0  0  0  0  0  0
   -6.3800   23.6340  -28.5690 H   0  0  0  0  0  0  0  0  0  0  0  0
   -6.2680   24.1880  -30.6380 C   0  0  0  0  0  0  0  0  0  0  0  0
   -5.1940   25.1880  -30.6280 C   0  0  0  0  0  0  0  0  0  0  0  0
   -5.4770   26.4080  -30.4790 O   0  0  0  0  0  0  0  0  0  0  0  0
   -3.8660   24.7780  -30.7890 O   0  0  0  0  0  0  0  0  0  0  0  0
   -3.3890   23.4910  -30.4010 C   0  0  0  0  0  0  0  0  0  0  0  0
   -3.9545   23.1460  -29.5228 H   0  0  0  0  0  0  0  0  0  0  0  0
   -2.3187   23.5686  -30.1594 H   0  0  0  0  0  0  0  0  0  0  0  0
   -3.5640   22.4870  -31.5350 C   0  0  0  0  0  0  0  0  0  0  0  0
   -3.7385   21.4856  -31.1145 H   0  0  0  0  0  0  0  0  0  0  0  0
   -4.4247   22.7797  -32.1543 H   0  0  0  0  0  0  0  0  0  0  0  0
   -2.6551   22.4713  -32.1543 H   0  0  0  0  0  0  0  0  0  0  0  0
   -6.9760   23.7630  -31.7430 C   0  0  0  0  0  0  0  0  0  0  0  0
   -6.8665   24.0912  -32.7872 H   0  0  0  0  0  0  0  0  0  0  0  0
  1  2  1  0
  2  3  2  0
  3  4  1  0
  3  5  1  0
  5  6  2  0
  6  7  1  0
  6  8  1  0
  8  9  1  0
  8 10  2  0
 10 11  1  0
 10 12  1  0
 12 13  1  0
 13 14  3  0
 12 15  2  0
 15 16  1  0
  2 17  1  0
 17 18  1  0
 18 19  1  0
 19 20  1  0
 19 21  2  0
 21 22  1  0
 22 23  2  0
 22 24  1  0
 24 25  1  0
 25 26  1  0
 25 27  1  0
 25 28  1  0
 28 29  1  0
 28 30  1  0
 28 31  1  0
 21 32  1  0
 32 33  1  0
 15  5  1  0
 32 17  2  0
M  CHG  1  19   1
M  END
>  <UniqueID>  (13) 
10

>  <SMILES>  (13) 
CCOC(=O)c1cc(/C=C/c2cccc(C#N)c2)o[nH+]1

>  <Energy>  (13) 
60.39209056554203

>  <Genealogy>  (13) 
CCOC(=O)c1cc(C=Cc2cccc(C#N)c2)o[nH+]1 (protonated)
CCOC(=O)c1cc(/C=C/c2cccc(C#N)c2)o[nH+]1 (cis-trans isomerization)
CCOC(=O)c1cc(/C=C/c2cccc(C#N)c2)o[nH+]1 (3D coordinates assigned)
CCOC(=O)c1cc(/C=C/c2cccc(C#N)c2)o[nH+]1 (optimized conformer: 60.39209056554203 kcal/mol)

>  <smiles>  (13) 
CCOC(=O)c1cc(C=Cc2cccc(C#N)c2)on1

>  <score_type>  (13) 
oracle

>  <origin>  (13) 
adg

>  <m_score__min__energy>  (13) 
-7.5800000000000001

>  <m_primary>  (13) 
energy

$$$$
13:0
     RDKit          3D

 29 30  0  0  1  0  0  0  0  0999 V2000
   -6.4960   18.2820  -31.7490 C   0  0  0  0  0  0  0  0  0  0  0  0
   -7.3360   19.1470  -32.6940 C   0  0  0  0  0  0  0  0  0  0  0  0
   -6.3850   19.8980  -33.4800 N   0  0  0  0  0  0  0  0  0  0  0  0
   -5.7340   20.8950  -32.9830 C   0  0  0  0  0  0  0  0  0  0  0  0
   -4.3910   20.9550  -33.1450 N   0  0  0  0  0  0  0  0  0  0  0  0
   -3.7640   22.0160  -32.6080 C   0  0  0  0  0  0  0  0  0  0  0  0
   -4.4080   22.9920  -31.9350 N   0  0  0  0  0  0  0  0  0  0  0  0
   -5.7520   22.9670  -31.7540 C   0  0  0  0  0  0  0  0  0  0  0  0
   -6.4160   21.8860  -32.2970 C   0  0  0  0  0  0  0  0  0  0  0  0
   -7.7170   22.0860  -31.9890 N   0  0  0  0  0  0  0  0  0  0  0  0
   -7.8240   23.2430  -31.2880 C   0  0  0  0  0  0  0  0  0  0  0  0
   -6.6140   23.7950  -31.1360 N   0  0  0  0  0  0  0  0  0  0  0  0
   -6.2790   25.0180  -30.4610 C   0  0  0  0  0  0  0  0  0  0  0  0
   -4.9210   24.9240  -29.8030 C   0  0  0  0  0  0  0  0  0  0  0  0
   -3.8590   25.2950  -30.6860 N   0  0  0  0  0  0  0  0  0  0  0  0
   -6.7406   18.5339  -30.7066 H   0  0  0  0  0  0  0  0  0  0  0  0
   -6.7164   17.2198  -31.9309 H   0  0  0  0  0  0  0  0  0  0  0  0
   -5.4278   18.4712  -31.9309 H   0  0  0  0  0  0  0  0  0  0  0  0
   -7.9569   18.5136  -33.3446 H   0  0  0  0  0  0  0  0  0  0  0  0
   -8.0201   19.8079  -32.1415 H   0  0  0  0  0  0  0  0  0  0  0  0
   -3.8540   20.2160  -33.6610 H   0  0  0  0  0  0  0  0  0  0  0  0
   -2.6727   22.0921  -32.7229 H   0  0  0  0  0  0  0  0  0  0  0  0
   -8.7642   23.6642  -30.9024 H   0  0  0  0  0  0  0  0  0  0  0  0
   -6.2676   25.8399  -31.1919 H   0  0  0  0  0  0  0  0  0  0  0  0
   -7.0323   25.2035  -29.6811 H   0  0  0  0  0  0  0  0  0  0  0  0
   -4.9045   25.5934  -28.9303 H   0  0  0  0  0  0  0  0  0  0  0  0
   -4.7625   23.8754  -29.5107 H   0  0  0  0  0  0  0  0  0  0  0  0
   -3.2190   24.5150  -30.9430 H   0  0  0  0  0  0  0  0  0  0  0  0
   -4.2400   25.6690  -31.6020 H   0  0  0  0  0  0  0  0  0  0  0  0
  1  2  1  0
  2  3  1  0
  3  4  2  0
  4  5  1  0
  5  6  1  0
  6  7  2  0
  7  8  1  0
  8  9  2  0
  9 10  1  0
 10 11  2  0
 11 12  1  0
 12 13  1  0
 13 14  1  0
 14 15  1  0
  9  4  1  0
 12  8  1  0
  1 16  1  0
  1 17  1  0
  1 18  1  0
  2 19  1  0
  2 20  1  0
  5 21  1  0
  6 22  1  0
 11 23  1  0
 13 24  1  0
 13 25  1  0
 14 26  1  0
 14 27  1  0
 15 28  1  0
 15 29  1  0
M  END
>  <smiles>  (14) 
CCN=c1[nH]cnc2c1ncn2CCN

>  <score_type>  (14) 
oracle

>  <origin>  (14) 
adg

>  <m_score__min__energy>  (14) 
-6.1900000000000004

>  <m_primary>  (14) 
energy

$$$$
14:0
     RDKit          3D

 39 40  0  0  0  0  0  0  0  0999 V2000
   -1.1290   26.1760  -27.8870 C   0  0  0  0  0  0  0  0  0  0  0  0
   -1.7260   25.4470  -28.9550 O   0  0  0  0  0  0  0  0  0  0  0  0
   -1.7880   24.0440  -29.0250 C   0  0  0  0  0  0  0  0  0  0  0  0
   -0.7150   23.2780  -29.5240 C   0  0  0  0  0  0  0  0  0  0  0  0
   -0.8070   21.8860  -29.5760 C   0  0  0  0  0  0  0  0  0  0  0  0
   -1.9620   21.2420  -29.1340 C   0  0  0  0  0  0  0  0  0  0  0  0
   -3.0320   21.9880  -28.6380 C   0  0  0  0  0  0  0  0  0  0  0  0
   -2.9570   23.3900  -28.5830 C   0  0  0  0  0  0  0  0  0  0  0  0
   -4.1150   24.1820  -28.0300 C   0  0  0  0  0  0  0  0  0  0  0  0
   -5.1930   24.2610  -29.0120 N   0  0  0  0  0  0  0  0  0  0  0  0
   -5.0050   24.8230  -30.3180 C   0  0  0  0  0  0  0  0  0  0  0  0
   -3.8890   25.3100  -30.6480 O   0  0  0  0  0  0  0  0  0  0  0  0
   -6.1410   24.8680  -31.2940 C   0  0  0  0  0  0  0  0  0  0  0  0
   -7.2570   24.1380  -30.7920 O   0  0  0  0  0  0  0  0  0  0  0  0
   -7.2090   22.7720  -30.4810 C   0  0  0  0  0  0  0  0  0  0  0  0
   -7.5910   22.3660  -29.3480 O   0  0  0  0  0  0  0  0  0  0  0  0
   -6.7070   21.8070  -31.4840 C   0  0  0  0  0  0  0  0  0  0  0  0
   -7.5970   20.9380  -32.1400 C   0  0  0  0  0  0  0  0  0  0  0  0
   -7.1250   20.0260  -33.0890 C   0  0  0  0  0  0  0  0  0  0  0  0
   -5.7630   19.9720  -33.3920 C   0  0  0  0  0  0  0  0  0  0  0  0
   -4.8680   20.8300  -32.7460 C   0  0  0  0  0  0  0  0  0  0  0  0
   -3.0050   20.7520  -33.1620 Br  0  0  0  0  0  0  0  0  0  0  0  0
   -5.3360   21.7440  -31.7970 C   0  0  0  0  0  0  0  0  0  0  0  0
   -1.4680   25.7620  -26.9259 H   0  0  0  0  0  0  0  0  0  0  0  0
   -0.0341   26.0955  -27.9551 H   0  0  0  0  0  0  0  0  0  0  0  0
   -1.4238   27.2336  -27.9551 H   0  0  0  0  0  0  0  0  0  0  0  0
    0.1993   23.7795  -29.8741 H   0  0  0  0  0  0  0  0  0  0  0  0
    0.0345   21.2952  -29.9670 H   0  0  0  0  0  0  0  0  0  0  0  0
   -2.0298   20.1449  -29.1763 H   0  0  0  0  0  0  0  0  0  0  0  0
   -3.9400   21.4752  -28.2878 H   0  0  0  0  0  0  0  0  0  0  0  0
   -4.4890   23.6899  -27.1201 H   0  0  0  0  0  0  0  0  0  0  0  0
   -3.7711   25.2001  -27.7951 H   0  0  0  0  0  0  0  0  0  0  0  0
   -6.1370   23.9020  -28.7420 H   0  0  0  0  0  0  0  0  0  0  0  0
   -6.4367   25.9148  -31.4578 H   0  0  0  0  0  0  0  0  0  0  0  0
   -5.8152   24.4143  -32.2416 H   0  0  0  0  0  0  0  0  0  0  0  0
   -8.6710   20.9760  -31.9051 H   0  0  0  0  0  0  0  0  0  0  0  0
   -7.8279   19.3499  -33.5978 H   0  0  0  0  0  0  0  0  0  0  0  0
   -5.3941   19.2541  -34.1393 H   0  0  0  0  0  0  0  0  0  0  0  0
   -4.6285   22.4180  -31.2919 H   0  0  0  0  0  0  0  0  0  0  0  0
  1  2  1  0
  2  3  1  0
  3  4  2  0
  4  5  1  0
  5  6  2  0
  6  7  1  0
  7  8  2  0
  8  9  1  0
  9 10  1  0
 10 11  1  0
 11 12  2  0
 11 13  1  0
 13 14  1  0
 14 15  1  0
 15 16  2  0
 15 17  1  0
 17 18  2  0
 18 19  1  0
 19 20  2  0
 20 21  1  0
 21 22  1  0
 21 23  2  0
  8  3  1  0
 23 17  1  0
  1 24  1  0
  1 25  1  0
  1 26  1  0
  4 27  1  0
  5 28  1  0
  6 29  1  0
  7 30  1  0
  9 31  1  0
  9 32  1  0
 10 33  1  0
 13 34  1  0
 13 35  1  0
 18 36  1  0
 19 37  1  0
 20 38  1  0
 23 39  1  0
M  END
>  <UniqueID>  (15) 
11

>  <SMILES>  (15) 
COc1ccccc1CNC(=O)COC(=O)c1cccc(Br)c1

>  <Energy>  (15) 
34.305255435008895

>  <Genealogy>  (15) 
COc1ccccc1CNC(=O)COC(=O)c1cccc(Br)c1 (3D coordinates assigned)
COc1ccccc1CNC(=O)COC(=O)c1cccc(Br)c1 (optimized conformer: 34.305255435008895 kcal/mol)

>  <smiles>  (15) 
COc1ccccc1CNC(=O)COC(=O)c1cccc(Br)c1

>  <score_type>  (15) 
oracle

>  <origin>  (15) 
adg

>  <m_score__min__energy>  (15) 
-9.5

>  <m_primary>  (15) 
energy

$$$$
15:0
     RDKit          3D

 43 46  0  0  0  0  0  0  0  0999 V2000
   -4.0350   24.5250  -27.7390 C   0  0  0  0  0  0  0  0  0  0  0  0
   -4.6260   24.0270  -29.0250 C   0  0  0  0  0  0  0  0  0  0  0  0
   -4.3070   22.7510  -29.5160 C   0  0  0  0  0  0  0  0  0  0  0  0
   -4.8740   22.2930  -30.7080 C   0  0  0  0  0  0  0  0  0  0  0  0
   -5.7620   23.1060  -31.4340 C   0  0  0  0  0  0  0  0  0  0  0  0
   -6.4080   22.6150  -32.7100 C   0  0  0  0  0  0  0  0  0  0  0  0
   -7.1340   21.3350  -32.5040 N   0  0  0  0  0  0  0  0  0  0  0  0
   -8.4130   21.3440  -31.9690 C   0  0  0  0  0  0  0  0  0  0  0  0
   -9.1180   22.6210  -31.5690 C   0  0  0  0  0  0  0  0  0  0  0  0
   -9.1160   20.1450  -31.7970 C   0  0  0  0  0  0  0  0  0  0  0  0
   -8.5370   18.9330  -32.1350 C   0  0  0  0  0  0  0  0  0  0  0  0
   -9.1950   17.8700  -31.9660 O   0  0  0  0  0  0  0  0  0  0  0  0
   -7.2370   18.9040  -32.6520 C   0  0  0  0  0  0  0  0  0  0  0  0
   -6.6320   17.6770  -32.9940 C   0  0  0  0  0  0  0  0  0  0  0  0
   -5.3400   17.6490  -33.5080 C   0  0  0  0  0  0  0  0  0  0  0  0
   -4.6210   18.8340  -33.6600 C   0  0  0  0  0  0  0  0  0  0  0  0
   -5.2080   20.0600  -33.3440 C   0  0  0  0  0  0  0  0  0  0  0  0
   -6.5310   20.1280  -32.8330 C   0  0  0  0  0  0  0  0  0  0  0  0
   -3.3060   18.7750  -34.1320 O   0  0  0  0  0  0  0  0  0  0  0  0
   -2.5990   17.5330  -34.1990 C   0  0  0  0  0  0  0  0  0  0  0  0
   -3.5430   16.4120  -34.6510 C   0  0  0  0  0  0  0  0  0  0  0  0
   -4.7440   16.4380  -33.8770 O   0  0  0  0  0  0  0  0  0  0  0  0
   -6.0980   24.3710  -30.9250 C   0  0  0  0  0  0  0  0  0  0  0  0
   -5.5300   24.8300  -29.7320 C   0  0  0  0  0  0  0  0  0  0  0  0
   -4.5703   24.0739  -26.8905 H   0  0  0  0  0  0  0  0  0  0  0  0
   -2.9719   24.2463  -27.6918 H   0  0  0  0  0  0  0  0  0  0  0  0
   -4.1294   25.6199  -27.6918 H   0  0  0  0  0  0  0  0  0  0  0  0
   -3.6078   22.1092  -28.9600 H   0  0  0  0  0  0  0  0  0  0  0  0
   -4.6238   21.2889  -31.0812 H   0  0  0  0  0  0  0  0  0  0  0  0
   -7.1200   23.3751  -33.0640 H   0  0  0  0  0  0  0  0  0  0  0  0
   -5.6135   22.4420  -33.4508 H   0  0  0  0  0  0  0  0  0  0  0  0
   -9.1563   22.6905  -30.4719 H   0  0  0  0  0  0  0  0  0  0  0  0
   -8.5689   23.4847  -31.9721 H   0  0  0  0  0  0  0  0  0  0  0  0
  -10.1415   22.6165  -31.9721 H   0  0  0  0  0  0  0  0  0  0  0  0
  -10.1376   20.1660  -31.3897 H   0  0  0  0  0  0  0  0  0  0  0  0
   -7.1851   16.7366  -32.8534 H   0  0  0  0  0  0  0  0  0  0  0  0
   -4.6368   20.9882  -33.4931 H   0  0  0  0  0  0  0  0  0  0  0  0
   -1.7717   17.6238  -34.9182 H   0  0  0  0  0  0  0  0  0  0  0  0
   -2.2035   17.2900  -33.2017 H   0  0  0  0  0  0  0  0  0  0  0  0
   -3.7919   16.5524  -35.7132 H   0  0  0  0  0  0  0  0  0  0  0  0
   -3.0440   15.4422  -34.5080 H   0  0  0  0  0  0  0  0  0  0  0  0
   -6.8133   25.0057  -31.4686 H   0  0  0  0  0  0  0  0  0  0  0  0
   -5.7945   25.8260  -29.3473 H   0  0  0  0  0  0  0  0  0  0  0  0
  1  2  1  0
  2  3  2  0
  3  4  1  0
  4  5  2  0
  5  6  1  0
  6  7  1  0
  7  8  1  0
  8  9  1  0
  8 10  2  0
 10 11  1  0
 11 12  2  0
 11 13  1  0
 13 14  2  0
 14 15  1  0
 15 16  2  0
 16 17  1  0
 17 18  2  0
 16 19  1  0
 19 20  1  0
 20 21  1  0
 21 22  1  0
  5 23  1  0
 23 24  2  0
 24  2  1  0
 18  7  1  0
 18 13  1  0
 22 15  1  0
  1 25  1  0
  1 26  1  0
  1 27  1  0
  3 28  1  0
  4 29  1  0
  6 30  1  0
  6 31  1  0
  9 32  1  0
  9 33  1  0
  9 34  1  0
 10 35  1  0
 14 36  1  0
 17 37  1  0
 20 38  1  0
 20 39  1  0
 21 40  1  0
 21 41  1  0
 23 42  1  0
 24 43  1  0
M  END
>  <UniqueID>  (16) 
12

>  <SMILES>  (16) 
Cc1ccc(Cn2c(C)cc(=O)c3cc4c(cc32)OCCO4)cc1

>  <Energy>  (16) 
60.20619615538186

>  <Genealogy>  (16) 
Cc1ccc(Cn2c(C)cc(=O)c3cc4c(cc32)OCCO4)cc1 (3D coordinates assigned)
Cc1ccc(Cn2c(C)cc(=O)c3cc4c(cc32)OCCO4)cc1 (nonaromatic ring conformer: 60.20619615538186 kcal/mol)

>  <smiles>  (16) 
Cc1ccc(Cn2c(C)cc(=O)c3cc4c(cc32)OCCO4)cc1

>  <score_type>  (16) 
oracle

>  <origin>  (16) 
adg

>  <m_score__min__energy>  (16) 
-8.2100000000000009

>  <m_primary>  (16) 
energy

$$$$
16:0
     RDKit          3D

 40 42  0  0  0  0  0  0  0  0999 V2000
   -6.4790   16.9220  -33.5770 C   0  0  0  0  0  0  0  0  0  0  0  0
   -7.1920   18.0470  -32.8970 C   0  0  0  0  0  0  0  0  0  0  0  0
   -6.6630   19.3430  -32.9320 C   0  0  0  0  0  0  0  0  0  0  0  0
   -7.3590   20.3980  -32.3180 C   0  0  0  0  0  0  0  0  0  0  0  0
   -6.8540   21.7490  -32.3730 N   0  0  0  0  0  0  0  0  0  0  0  0
   -7.7430   22.9090  -32.2730 C   0  0  0  0  0  0  0  0  0  0  0  0
   -7.3930   23.7020  -31.0120 C   0  0  0  0  0  0  0  0  0  0  0  0
   -5.9310   23.8640  -30.8110 N   0  0  0  0  0  0  0  0  0  0  0  0
   -5.4530   23.5350  -29.4500 C   0  0  0  0  0  0  0  0  0  0  0  0
   -4.1490   24.1960  -29.1010 C   0  0  0  0  0  0  0  0  0  0  0  0
   -3.5060   24.1550  -27.8790 C   0  0  0  0  0  0  0  0  0  0  0  0
   -2.3530   24.8750  -28.1010 C   0  0  0  0  0  0  0  0  0  0  0  0
   -1.2550   25.1120  -27.1200 C   0  0  0  0  0  0  0  0  0  0  0  0
   -2.3420   25.2940  -29.3440 O   0  0  0  0  0  0  0  0  0  0  0  0
   -3.4120   24.9070  -29.9760 N   0  0  0  0  0  0  0  0  0  0  0  0
   -5.0550   23.4070  -31.9150 C   0  0  0  0  0  0  0  0  0  0  0  0
   -5.4080   21.9930  -32.4190 C   0  0  0  0  0  0  0  0  0  0  0  0
   -8.5860   20.1230  -31.6920 C   0  0  0  0  0  0  0  0  0  0  0  0
   -9.0810   18.8180  -31.6820 C   0  0  0  0  0  0  0  0  0  0  0  0
   -8.3830   17.8190  -32.2800 N   0  0  0  0  0  0  0  0  0  0  0  0
   -6.0517   16.2479  -32.8201 H   0  0  0  0  0  0  0  0  0  0  0  0
   -7.1890   16.3645  -34.2056 H   0  0  0  0  0  0  0  0  0  0  0  0
   -5.6718   17.3261  -34.2056 H   0  0  0  0  0  0  0  0  0  0  0  0
   -5.7056   19.5346  -33.4386 H   0  0  0  0  0  0  0  0  0  0  0  0
   -7.6139   23.5492  -33.1582 H   0  0  0  0  0  0  0  0  0  0  0  0
   -8.7883   22.5708  -32.2194 H   0  0  0  0  0  0  0  0  0  0  0  0
   -7.8482   24.7004  -31.0891 H   0  0  0  0  0  0  0  0  0  0  0  0
   -7.7810   23.1368  -30.1518 H   0  0  0  0  0  0  0  0  0  0  0  0
   -6.2139   23.8596  -28.7249 H   0  0  0  0  0  0  0  0  0  0  0  0
   -5.2859   22.4482  -29.4176 H   0  0  0  0  0  0  0  0  0  0  0  0
   -3.8358   23.6648  -26.9511 H   0  0  0  0  0  0  0  0  0  0  0  0
   -1.6519   25.0263  -26.0977 H   0  0  0  0  0  0  0  0  0  0  0  0
   -0.4621   24.3643  -27.2694 H   0  0  0  0  0  0  0  0  0  0  0  0
   -0.8411   26.1202  -27.2694 H   0  0  0  0  0  0  0  0  0  0  0  0
   -5.1514   24.1122  -32.7537 H   0  0  0  0  0  0  0  0  0  0  0  0
   -4.0270   23.3701  -31.5253 H   0  0  0  0  0  0  0  0  0  0  0  0
   -5.0609   21.8871  -33.4574 H   0  0  0  0  0  0  0  0  0  0  0  0
   -4.9143   21.2606  -31.7633 H   0  0  0  0  0  0  0  0  0  0  0  0
   -9.1545   20.9329  -31.2116 H   0  0  0  0  0  0  0  0  0  0  0  0
  -10.0392   18.5985  -31.1883 H   0  0  0  0  0  0  0  0  0  0  0  0
  1  2  1  0
  2  3  2  0
  3  4  1  0
  4  5  1  0
  5  6  1  0
  6  7  1  0
  7  8  1  0
  8  9  1  0
  9 10  1  0
 10 11  1  0
 11 12  2  0
 12 13  1  0
 12 14  1  0
 14 15  1  0
  8 16  1  0
 16 17  1  0
  4 18  2  0
 18 19  1  0
 19 20  2  0
 20  2  1  0
 17  5  1  0
 15 10  2  0
  1 21  1  0
  1 22  1  0
  1 23  1  0
  3 24  1  0
  6 25  1  0
  6 26  1  0
  7 27  1  0
  7 28  1  0
  9 29  1  0
  9 30  1  0
 11 31  1  0
 13 32  1  0
 13 33  1  0
 13 34  1  0
 16 35  1  0
 16 36  1  0
 17 37  1  0
 17 38  1  0
 18 39  1  0
 19 40  1  0
M  END
>  <UniqueID>  (17) 
13

>  <SMILES>  (17) 
Cc1cc(N2CCN(Cc3cc(C)on3)CC2)ccn1

>  <Energy>  (17) 
80.7592143912648

>  <Genealogy>  (17) 
Cc1cc(N2CCN(Cc3cc(C)on3)CC2)ccn1 (3D coordinates assigned)
Cc1cc(N2CCN(Cc3cc(C)on3)CC2)ccn1 (nonaromatic ring conformer: 80.7592143912648 kcal/mol)

>  <smiles>  (17) 
Cc1cc(N2CCN(Cc3cc(C)on3)CC2)ccn1

>  <score_type>  (17) 
oracle

>  <origin>  (17) 
adg

>  <m_score__min__energy>  (17) 
-8.2599999999999998

>  <m_primary>  (17) 
energy

$$$$
17:0
     RDKit          3D

 36 38  0  0  0  0  0  0  0  0999 V2000
   -0.4670   27.1120  -24.1780 C   0  0  0  0  0  0  0  0  0  0  0  0
   -0.3120   26.8460  -25.5670 O   0  0  0  0  0  0  0  0  0  0  0  0
   -1.2020   26.0780  -26.3310 C   0  0  0  0  0  0  0  0  0  0  0  0
   -0.8160   25.6950  -27.6200 C   0  0  0  0  0  0  0  0  0  0  0  0
   -1.6690   24.9310  -28.4220 C   0  0  0  0  0  0  0  0  0  0  0  0
   -2.9350   24.5490  -27.9470 C   0  0  0  0  0  0  0  0  0  0  0  0
   -3.8220   23.7400  -28.7400 N   0  0  0  0  0  0  0  0  0  0  0  0
   -4.2240   24.0710  -30.0820 C   0  0  0  0  0  0  0  0  0  0  0  0
   -3.8730   25.1700  -30.5910 O   0  0  0  0  0  0  0  0  0  0  0  0
   -5.0570   23.1450  -30.8870 C   0  0  0  0  0  0  0  0  0  0  0  0
   -4.5120   22.4030  -31.9550 C   0  0  0  0  0  0  0  0  0  0  0  0
   -5.3140   21.5270  -32.6940 C   0  0  0  0  0  0  0  0  0  0  0  0
   -6.6630   21.3730  -32.3690 C   0  0  0  0  0  0  0  0  0  0  0  0
   -7.2200   22.1160  -31.3220 C   0  0  0  0  0  0  0  0  0  0  0  0
   -6.4190   22.9820  -30.5700 C   0  0  0  0  0  0  0  0  0  0  0  0
   -8.5830   21.9780  -31.0410 O   0  0  0  0  0  0  0  0  0  0  0  0
   -9.4630   21.3210  -31.9580 C   0  0  0  0  0  0  0  0  0  0  0  0
   -8.7640   20.1090  -32.5880 C   0  0  0  0  0  0  0  0  0  0  0  0
   -7.4730   20.4810  -33.0770 O   0  0  0  0  0  0  0  0  0  0  0  0
   -3.3130   24.9110  -26.6460 C   0  0  0  0  0  0  0  0  0  0  0  0
   -2.4610   25.6750  -25.8450 C   0  0  0  0  0  0  0  0  0  0  0  0
    0.0028   26.3057  -23.5956 H   0  0  0  0  0  0  0  0  0  0  0  0
    0.0142   28.0702  -23.9322 H   0  0  0  0  0  0  0  0  0  0  0  0
   -1.5378   27.1658  -23.9322 H   0  0  0  0  0  0  0  0  0  0  0  0
    0.1684   25.9980  -28.0063 H   0  0  0  0  0  0  0  0  0  0  0  0
   -1.3476   24.6276  -29.4293 H   0  0  0  0  0  0  0  0  0  0  0  0
   -4.2250   22.8940  -28.2800 H   0  0  0  0  0  0  0  0  0  0  0  0
   -3.4475   22.5139  -32.2091 H   0  0  0  0  0  0  0  0  0  0  0  0
   -4.8818   20.9594  -33.5313 H   0  0  0  0  0  0  0  0  0  0  0  0
   -6.8553   23.5381  -29.7272 H   0  0  0  0  0  0  0  0  0  0  0  0
  -10.3615   20.9834  -31.4206 H   0  0  0  0  0  0  0  0  0  0  0  0
   -9.7439   22.0267  -32.7537 H   0  0  0  0  0  0  0  0  0  0  0  0
   -8.6516   19.3200  -31.8298 H   0  0  0  0  0  0  0  0  0  0  0  0
   -9.3725   19.7405  -33.4270 H   0  0  0  0  0  0  0  0  0  0  0  0
   -4.2890   24.5905  -26.2528 H   0  0  0  0  0  0  0  0  0  0  0  0
   -2.7746   25.9630  -24.8307 H   0  0  0  0  0  0  0  0  0  0  0  0
  1  2  1  0
  2  3  1  0
  3  4  2  0
  4  5  1  0
  5  6  2  0
  6  7  1  0
  7  8  1  0
  8  9  2  0
  8 10  1  0
 10 11  2  0
 11 12  1  0
 12 13  2  0
 13 14  1  0
 14 15  2  0
 14 16  1  0
 16 17  1  0
 17 18  1  0
 18 19  1  0
  6 20  1  0
 20 21  2  0
 21  3  1  0
 15 10  1  0
 19 13  1  0
  1 22  1  0
  1 23  1  0
  1 24  1  0
  4 25  1  0
  5 26  1  0
  7 27  1  0
 11 28  1  0
 12 29  1  0
 15 30  1  0
 17 31  1  0
 17 32  1  0
 18 33  1  0
 18 34  1  0
 20 35  1  0
 21 36  1  0
M  END
>  <UniqueID>  (18) 
14

>  <SMILES>  (18) 
COc1ccc(NC(=O)c2ccc3c(c2)OCCO3)cc1

>  <Energy>  (18) 
45.213098697548425

>  <Genealogy>  (18) 
COc1ccc(NC(=O)c2ccc3c(c2)OCCO3)cc1 (3D coordinates assigned)
COc1ccc(NC(=O)c2ccc3c(c2)OCCO3)cc1 (nonaromatic ring conformer: 45.213098697548425 kcal/mol)

>  <smiles>  (18) 
COc1ccc(NC(=O)c2ccc3c(c2)OCCO3)cc1

>  <score_type>  (18) 
oracle

>  <origin>  (18) 
adg

>  <m_score__min__energy>  (18) 
-6.9299999999999997

>  <m_primary>  (18) 
energy

$$$$
18:0
     RDKit          3D

 59 62  0  0  0  0  0  0  0  0999 V2000
   -5.0955   20.2993  -34.3587 H   0  0  0  0  0  0  0  0  0  0  0  0
   -5.3440   20.6060  -33.3320 C   0  0  0  0  0  0  0  0  0  0  0  0
   -4.5040   21.4500  -32.7160 C   0  0  0  0  0  0  0  0  0  0  0  0
   -4.7269   22.5256  -32.7740 H   0  0  0  0  0  0  0  0  0  0  0  0
   -3.2700   21.0280  -31.9460 C   0  0  0  0  0  0  0  0  0  0  0  0
   -2.3812   21.3056  -32.5316 H   0  0  0  0  0  0  0  0  0  0  0  0
   -3.3401   19.9416  -31.7885 H   0  0  0  0  0  0  0  0  0  0  0  0
   -3.1630   21.6930  -30.5380 C   0  0  0  0  0  0  0  0  0  0  0  0
   -2.5800   20.7140  -29.5220 C   0  0  0  0  0  0  0  0  0  0  0  0
   -1.5460   20.0460  -29.8030 O   0  0  0  0  0  0  0  0  0  0  0  0
   -3.1200   20.6440  -28.2330 O   0  0  0  0  0  0  0  0  0  0  0  0
   -2.4950   19.9410  -27.1660 C   0  0  0  0  0  0  0  0  0  0  0  0
   -2.2057   20.6519  -26.3780 H   0  0  0  0  0  0  0  0  0  0  0  0
   -1.5986   19.4256  -27.5412 H   0  0  0  0  0  0  0  0  0  0  0  0
   -3.4660   18.9200  -26.5960 C   0  0  0  0  0  0  0  0  0  0  0  0
   -3.4322   18.9555  -25.4971 H   0  0  0  0  0  0  0  0  0  0  0  0
   -4.4851   19.1517  -26.9392 H   0  0  0  0  0  0  0  0  0  0  0  0
   -3.1834   17.9138  -26.9392 H   0  0  0  0  0  0  0  0  0  0  0  0
   -4.5790   22.1950  -30.0770 C   0  0  0  0  0  0  0  0  0  0  0  0
   -5.3340   21.7994  -30.7723 H   0  0  0  0  0  0  0  0  0  0  0  0
   -4.7360   21.8348  -29.0496 H   0  0  0  0  0  0  0  0  0  0  0  0
   -4.6960   23.7260  -30.0480 C   0  0  0  0  0  0  0  0  0  0  0  0
   -4.5965   24.1080  -31.0747 H   0  0  0  0  0  0  0  0  0  0  0  0
   -5.6759   23.9808  -29.6181 H   0  0  0  0  0  0  0  0  0  0  0  0
   -3.6530   24.3530  -29.2030 N   0  0  0  0  0  0  0  0  0  0  0  0
   -4.0260   24.3230  -27.7720 C   0  0  0  0  0  0  0  0  0  0  0  0
   -4.6393   25.2065  -27.5413 H   0  0  0  0  0  0  0  0  0  0  0  0
   -4.5916   23.4001  -27.5761 H   0  0  0  0  0  0  0  0  0  0  0  0
   -2.8070   24.3310  -26.9000 C   0  0  0  0  0  0  0  0  0  0  0  0
   -2.4380   25.4350  -26.1970 N   0  0  0  0  0  0  0  0  0  0  0  0
   -1.3340   25.2140  -25.4510 C   0  0  0  0  0  0  0  0  0  0  0  0
   -0.7220   26.2350  -24.5940 C   0  0  0  0  0  0  0  0  0  0  0  0
   -0.6150   27.5910  -24.8360 C   0  0  0  0  0  0  0  0  0  0  0  0
   -0.9795   28.1199  -25.7290 H   0  0  0  0  0  0  0  0  0  0  0  0
   -0.0010   28.1370  -23.8110 O   0  0  0  0  0  0  0  0  0  0  0  0
    0.3000   27.2370  -22.9220 N   0  0  0  0  0  0  0  0  0  0  0  0
    0.7910   27.4270  -22.0210 H   0  0  0  0  0  0  0  0  0  0  0  0
   -0.1280   26.0420  -23.3630 C   0  0  0  0  0  0  0  0  0  0  0  0
   -0.0237   25.0816  -22.8370 H   0  0  0  0  0  0  0  0  0  0  0  0
   -0.7800   23.6370  -25.6340 S   0  0  0  0  0  0  0  0  0  0  0  0
   -1.9990   23.2120  -26.7130 C   0  0  0  0  0  0  0  0  0  0  0  0
   -2.1336   22.2278  -27.1856 H   0  0  0  0  0  0  0  0  0  0  0  0
   -2.2780   23.8290  -29.4390 C   0  0  0  0  0  0  0  0  0  0  0  0
   -1.6045   24.6830  -29.6037 H   0  0  0  0  0  0  0  0  0  0  0  0
   -2.0015   23.2412  -28.5513 H   0  0  0  0  0  0  0  0  0  0  0  0
   -2.1740   22.8880  -30.6510 C   0  0  0  0  0  0  0  0  0  0  0  0
   -2.4043   23.4562  -31.5643 H   0  0  0  0  0  0  0  0  0  0  0  0
   -1.1512   22.4846  -30.6851 H   0  0  0  0  0  0  0  0  0  0  0  0
   -6.5770   20.0580  -32.7350 C   0  0  0  0  0  0  0  0  0  0  0  0
   -7.6060   20.9330  -32.3550 C   0  0  0  0  0  0  0  0  0  0  0  0
   -7.4744   22.0185  -32.4750 H   0  0  0  0  0  0  0  0  0  0  0  0
   -8.7990   20.4300  -31.8240 C   0  0  0  0  0  0  0  0  0  0  0  0
   -9.5969   21.1206  -31.5135 H   0  0  0  0  0  0  0  0  0  0  0  0
   -8.9770   19.0500  -31.6880 C   0  0  0  0  0  0  0  0  0  0  0  0
   -9.9113   18.6553  -31.2622 H   0  0  0  0  0  0  0  0  0  0  0  0
   -7.9680   18.1720  -32.0930 C   0  0  0  0  0  0  0  0  0  0  0  0
   -8.1131   17.0861  -31.9940 H   0  0  0  0  0  0  0  0  0  0  0  0
   -6.7740   18.6710  -32.6240 C   0  0  0  0  0  0  0  0  0  0  0  0
   -5.9879   17.9765  -32.9553 H   0  0  0  0  0  0  0  0  0  0  0  0
  1  2  1  0
  2  3  2  0
  3  4  1  0
  3  5  1  0
  5  6  1  0
  5  7  1  0
  5  8  1  0
  8  9  1  0
  9 10  2  0
  9 11  1  0
 11 12  1  0
 12 13  1  0
 12 14  1  0
 12 15  1  0
 15 16  1  0
 15 17  1  0
 15 18  1  0
  8 19  1  0
 19 20  1  0
 19 21  1  0
 19 22  1  0
 22 23  1  0
 22 24  1  0
 22 25  1  0
 25 26  1  0
 26 27  1  0
 26 28  1  0
 26 29  1  0
 29 30  1  0
 30 31  2  0
 31 32  1  0
 32 33  2  0
 33 34  1  0
 33 35  1  0
 35 36  1  0
 36 37  1  0
 36 38  2  0
 38 39  1  0
 31 40  1  0
 40 41  1  0
 41 42  1  0
 25 43  1  0
 43 44  1  0
 43 45  1  0
 43 46  1  0
 46 47  1  0
 46 48  1  0
  2 49  1  0
 49 50  2  0
 50 51  1  0
 50 52  1  0
 52 53  1  0
 52 54  2  0
 54 55  1  0
 54 56  1  0
 56 57  1  0
 56 58  2  0
 58 59  1  0
 46  8  1  0
 58 49  1  0
 41 29  2  0
 38 32  1  0
M  CHG  1  36   1
M  END
>  <UniqueID>  (19) 
15

>  <SMILES>  (19) 
CCOC(=O)C1(C/C=C\c2ccccc2)CCN(Cc2csc(-c3c[nH+]oc3)n2)CC1

>  <Energy>  (19) 
135.12234845893775

>  <Genealogy>  (19) 
CCOC(=O)C1(CC=Cc2ccccc2)CCN(Cc2csc(-c3c[nH+]oc3)n2)CC1 (protonated)
CCOC(=O)C1(C/C=C\c2ccccc2)CCN(Cc2csc(-c3c[nH+]oc3)n2)CC1 (cis-trans isomerization)
CCOC(=O)C1(C/C=C\c2ccccc2)CCN(Cc2csc(-c3c[nH+]oc3)n2)CC1 (3D coordinates assigned)
CCOC(=O)C1(C/C=C\c2ccccc2)CCN(Cc2csc(-c3c[nH+]oc3)n2)CC1 (nonaromatic ring conformer: 135.12234845893775 kcal/mol)

>  <smiles>  (19) 
CCOC(=O)C1(CC=Cc2ccccc2)CCN(Cc2csc(-c3cnoc3)n2)CC1

>  <score_type>  (19) 
oracle

>  <origin>  (19) 
adg

>  <m_score__min__energy>  (19) 
-10.74

>  <m_primary>  (19) 
energy

$$$$
19:0
     RDKit          3D

 28 30  0  0  0  0  0  0  0  0999 V2000
   -6.7440   16.4680  -34.2280 C   0  0  0  0  0  0  0  0  0  0  0  0
   -6.1130   17.7580  -33.7990 C   0  0  0  0  0  0  0  0  0  0  0  0
   -4.7990   18.0850  -34.2080 C   0  0  0  0  0  0  0  0  0  0  0  0
   -4.2210   19.3100  -33.8390 C   0  0  0  0  0  0  0  0  0  0  0  0
   -4.9910   20.1830  -33.0740 C   0  0  0  0  0  0  0  0  0  0  0  0
   -4.6210   21.3960  -32.6290 N   0  0  0  0  0  0  0  0  0  0  0  0
   -5.6990   21.8570  -31.9490 C   0  0  0  0  0  0  0  0  0  0  0  0
   -5.7450   23.1740  -31.2790 C   0  0  0  0  0  0  0  0  0  0  0  0
   -6.9270   23.6710  -30.7010 C   0  0  0  0  0  0  0  0  0  0  0  0
   -6.9150   24.9220  -30.0800 C   0  0  0  0  0  0  0  0  0  0  0  0
   -5.7370   25.6670  -30.0380 C   0  0  0  0  0  0  0  0  0  0  0  0
   -4.5810   25.1460  -30.6210 C   0  0  0  0  0  0  0  0  0  0  0  0
   -4.6100   23.9260  -31.2210 N   0  0  0  0  0  0  0  0  0  0  0  0
   -6.7120   20.9010  -31.9970 C   0  0  0  0  0  0  0  0  0  0  0  0
   -6.2420   19.8620  -32.7080 N   0  0  0  0  0  0  0  0  0  0  0  0
   -6.8440   18.6910  -33.0400 C   0  0  0  0  0  0  0  0  0  0  0  0
   -7.0288   15.8858  -33.3393 H   0  0  0  0  0  0  0  0  0  0  0  0
   -7.6400   16.6804  -34.8298 H   0  0  0  0  0  0  0  0  0  0  0  0
   -6.0264   15.8911  -34.8298 H   0  0  0  0  0  0  0  0  0  0  0  0
   -4.2253   17.3736  -34.8202 H   0  0  0  0  0  0  0  0  0  0  0  0
   -3.1966   19.5711  -34.1431 H   0  0  0  0  0  0  0  0  0  0  0  0
   -3.7050   21.8750  -32.7790 H   0  0  0  0  0  0  0  0  0  0  0  0
   -7.8535   23.0792  -30.7377 H   0  0  0  0  0  0  0  0  0  0  0  0
   -7.8341   25.3192  -29.6244 H   0  0  0  0  0  0  0  0  0  0  0  0
   -5.7191   26.6533  -29.5513 H   0  0  0  0  0  0  0  0  0  0  0  0
   -3.6449   25.7231  -30.5951 H   0  0  0  0  0  0  0  0  0  0  0  0
   -7.7089   20.9817  -31.5390 H   0  0  0  0  0  0  0  0  0  0  0  0
   -7.8757   18.4772  -32.7241 H   0  0  0  0  0  0  0  0  0  0  0  0
  1  2  1  0
  2  3  1  0
  3  4  2  0
  4  5  1  0
  5  6  2  0
  6  7  1  0
  7  8  1  0
  8  9  2  0
  9 10  1  0
 10 11  2  0
 11 12  1  0
 12 13  2  0
  7 14  2  0
 14 15  1  0
 15 16  1  0
 16  2  2  0
 15  5  1  0
 13  8  1  0
  1 17  1  0
  1 18  1  0
  1 19  1  0
  3 20  1  0
  4 21  1  0
  6 22  1  0
  9 23  1  0
 10 24  1  0
 11 25  1  0
 12 26  1  0
 14 27  1  0
 16 28  1  0
M  CHG  1   6   1
M  END
>  <UniqueID>  (20) 
16

>  <SMILES>  (20) 
Cc1ccc2[nH+]c(-c3ccccn3)cn2c1

>  <Energy>  (20) 
66.9305550403877

>  <Genealogy>  (20) 
Cc1ccc2[nH+]c(-c3ccccn3)cn2c1 (protonated)
Cc1ccc2[nH+]c(-c3ccccn3)cn2c1 (3D coordinates assigned)
Cc1ccc2[nH+]c(-c3ccccn3)cn2c1 (optimized conformer: 66.9305550403877 kcal/mol)

>  <smiles>  (20) 
Cc1ccc2nc(-c3ccccn3)cn2c1

>  <score_type>  (20) 
oracle

>  <origin>  (20) 
adg

>  <m_score__min__energy>  (20) 
-5.8799999999999999

>  <m_primary>  (20) 
energy

$$$$
20:0
     RDKit          3D

 47 48  0  0  0  0  0  0  0  0999 V2000
   -3.6230   21.8490  -32.3390 C   0  0  0  0  0  0  0  0  0  0  0  0
   -4.9800   22.4760  -32.6530 C   0  0  0  0  0  0  0  0  0  0  0  0
   -6.0610   22.2190  -31.5740 C   0  0  2  0  0  0  0  0  0  0  0  0
   -6.8490   20.9370  -31.8190 C   0  0  0  0  0  0  0  0  0  0  0  0
   -6.1590   19.7160  -31.9710 C   0  0  0  0  0  0  0  0  0  0  0  0
   -6.8540   18.5280  -32.2150 C   0  0  0  0  0  0  0  0  0  0  0  0
   -8.2460   18.5330  -32.2820 C   0  0  0  0  0  0  0  0  0  0  0  0
   -8.9490   19.7240  -32.0930 C   0  0  0  0  0  0  0  0  0  0  0  0
   -8.2620   20.9290  -31.8640 C   0  0  0  0  0  0  0  0  0  0  0  0
   -9.0530   22.1710  -31.5710 C   0  0  0  0  0  0  0  0  0  0  0  0
   -8.2900   23.4240  -31.9740 C   0  0  0  0  0  0  0  0  0  0  0  0
   -6.9190   23.4210  -31.4350 N   0  0  0  0  0  0  0  0  0  0  0  0
   -6.5340   24.4520  -30.4530 C   0  0  0  0  0  0  0  0  0  0  0  0
   -5.1070   24.2930  -29.9820 C   0  0  0  0  0  0  0  0  0  0  0  0
   -4.2150   24.8290  -30.6250 O   0  0  0  0  0  0  0  0  0  0  0  0
   -4.7970   23.5530  -28.7720 N   0  0  0  0  0  0  0  0  0  0  0  0
   -4.2240   24.4700  -27.7580 C   0  0  0  0  0  0  0  0  0  0  0  0
   -2.6980   24.5770  -27.8580 C   0  0  0  0  0  0  0  0  0  0  0  0
   -3.9700   22.3500  -29.0730 C   0  0  0  0  0  0  0  0  0  0  0  0
   -3.4830   21.5560  -27.8460 C   0  0  0  0  0  0  0  0  0  0  0  0
   -3.4908   21.7879  -31.2487 H   0  0  0  0  0  0  0  0  0  0  0  0
   -3.5772   20.8385  -32.7711 H   0  0  0  0  0  0  0  0  0  0  0  0
   -2.8238   22.4691  -32.7711 H   0  0  0  0  0  0  0  0  0  0  0  0
   -4.8434   23.5629  -32.7529 H   0  0  0  0  0  0  0  0  0  0  0  0
   -5.3395   22.0056  -33.5801 H   0  0  0  0  0  0  0  0  0  0  0  0
   -5.5595   22.0481  -30.6100 H   0  0  0  0  0  0  0  0  0  0  0  0
   -5.0617   19.6986  -31.8967 H   0  0  0  0  0  0  0  0  0  0  0  0
   -6.3011   17.5873  -32.3544 H   0  0  0  0  0  0  0  0  0  0  0  0
   -8.7905   17.5988  -32.4837 H   0  0  0  0  0  0  0  0  0  0  0  0
  -10.0486   19.7197  -32.1235 H   0  0  0  0  0  0  0  0  0  0  0  0
   -9.9992   22.1328  -32.1306 H   0  0  0  0  0  0  0  0  0  0  0  0
   -9.2410   22.2139  -30.4880 H   0  0  0  0  0  0  0  0  0  0  0  0
   -8.2419   23.4750  -33.0718 H   0  0  0  0  0  0  0  0  0  0  0  0
   -8.8194   24.2963  -31.5630 H   0  0  0  0  0  0  0  0  0  0  0  0
   -6.6442   25.4424  -30.9187 H   0  0  0  0  0  0  0  0  0  0  0  0
   -7.1908   24.3437  -29.5773 H   0  0  0  0  0  0  0  0  0  0  0  0
   -5.7040   23.2000  -28.3840 H   0  0  0  0  0  0  0  0  0  0  0  0
   -4.6579   25.4705  -27.9021 H   0  0  0  0  0  0  0  0  0  0  0  0
   -4.4659   24.0631  -26.7651 H   0  0  0  0  0  0  0  0  0  0  0  0
   -2.2655   24.6073  -26.8470 H   0  0  0  0  0  0  0  0  0  0  0  0
   -2.3039   23.7043  -28.3994 H   0  0  0  0  0  0  0  0  0  0  0  0
   -2.4296   25.4962  -28.3994 H   0  0  0  0  0  0  0  0  0  0  0  0
   -4.5712   21.6732  -29.6978 H   0  0  0  0  0  0  0  0  0  0  0  0
   -3.0628   22.7239  -29.5702 H   0  0  0  0  0  0  0  0  0  0  0  0
   -3.7990   22.0712  -26.9269 H   0  0  0  0  0  0  0  0  0  0  0  0
   -3.9167   20.5454  -27.8675 H   0  0  0  0  0  0  0  0  0  0  0  0
   -2.3855   21.4845  -27.8675 H   0  0  0  0  0  0  0  0  0  0  0  0
  1  2  1  0
  2  3  1  0
  3  4  1  0
  4  5  2  0
  5  6  1  0
  6  7  2  0
  7  8  1  0
  8  9  2  0
  9 10  1  0
 10 11  1  0
 11 12  1  0
 12 13  1  0
 13 14  1  0
 14 15  2  0
 14 16  1  0
 16 17  1  0
 17 18  1  0
 16 19  1  0
 19 20  1  0
 12  3  1  0
  9  4  1  0
  1 21  1  0
  1 22  1  0
  1 23  1  0
  2 24  1  0
  2 25  1  0
  3 26  1  1
  5 27  1  0
  6 28  1  0
  7 29  1  0
  8 30  1  0
 10 31  1  0
 10 32  1  0
 11 33  1  0
 11 34  1  0
 13 35  1  0
 13 36  1  0
 16 37  1  0
 17 38  1  0
 17 39  1  0
 18 40  1  0
 18 41  1  0
 18 42  1  0
 19 43  1  0
 19 44  1  0
 20 45  1  0
 20 46  1  0
 20 47  1  0
M  CHG  1  16   1
M  END
>  <UniqueID>  (21) 
17

>  <SMILES>  (21) 
CC[C@@H]1c2ccccc2CCN1CC(=O)[NH+](CC)CC

>  <Energy>  (21) 
61.88680587863441

>  <Genealogy>  (21) 
CCC1c2ccccc2CCN1CC(=O)[NH+](CC)CC (protonated)
CC[C@@H]1c2ccccc2CCN1CC(=O)[NH+](CC)CC (chirality)
CC[C@@H]1c2ccccc2CCN1CC(=O)[NH+](CC)CC (3D coordinates assigned)
CC[C@@H]1c2ccccc2CCN1CC(=O)[NH+](CC)CC (nonaromatic ring conformer: 61.88680587863441 kcal/mol)

>  <smiles>  (21) 
CCC1c2ccccc2CCN1CC(=O)N(CC)CC

>  <score_type>  (21) 
oracle

>  <origin>  (21) 
adg

>  <m_score__min__energy>  (21) 
-7.4299999999999997

>  <m_primary>  (21) 
energy

$$$$
21:0
     RDKit          3D

 44 46  0  0  0  0  0  0  0  0999 V2000
   -2.5230   21.7090  -28.8100 C   0  0  0  0  0  0  0  0  0  0  0  0
   -2.9690   22.7280  -27.9650 C   0  0  0  0  0  0  0  0  0  0  0  0
   -3.4550   23.9220  -28.5040 C   0  0  0  0  0  0  0  0  0  0  0  0
   -3.4880   24.1110  -29.9000 C   0  0  0  0  0  0  0  0  0  0  0  0
   -3.9280   25.3070  -30.4930 O   0  0  0  0  0  0  0  0  0  0  0  0
   -5.2940   25.6490  -30.7370 C   0  0  0  0  0  0  0  0  0  0  0  0
   -6.1080   24.4110  -31.0090 C   0  0  0  0  0  0  0  0  0  0  0  0
   -6.8700   23.8340  -29.9830 C   0  0  0  0  0  0  0  0  0  0  0  0
   -7.5160   22.6130  -30.1870 C   0  0  0  0  0  0  0  0  0  0  0  0
   -7.4030   21.9480  -31.4180 C   0  0  0  0  0  0  0  0  0  0  0  0
   -7.9860   20.5670  -31.6050 C   0  0  0  0  0  0  0  0  0  0  0  0
   -6.9550   19.5180  -31.7770 N   0  0  0  0  0  0  0  0  0  0  0  0
   -7.0310   18.7300  -33.0270 C   0  0  0  0  0  0  0  0  0  0  0  0
   -6.1530   19.2920  -34.1690 C   0  0  0  0  0  0  0  0  0  0  0  0
   -4.8890   20.0140  -33.6830 C   0  0  0  0  0  0  0  0  0  0  0  0
   -4.4830   19.5500  -32.2890 C   0  0  0  0  0  0  0  0  0  0  0  0
   -5.6000   19.8600  -31.2820 C   0  0  0  0  0  0  0  0  0  0  0  0
   -6.7180   22.5750  -32.4730 C   0  0  0  0  0  0  0  0  0  0  0  0
   -6.0710   23.7950  -32.2680 C   0  0  0  0  0  0  0  0  0  0  0  0
   -3.0540   23.0750  -30.7380 C   0  0  0  0  0  0  0  0  0  0  0  0
   -2.5700   21.8810  -30.1950 C   0  0  0  0  0  0  0  0  0  0  0  0
   -2.1350   20.7717  -28.3847 H   0  0  0  0  0  0  0  0  0  0  0  0
   -2.9376   22.5903  -26.8741 H   0  0  0  0  0  0  0  0  0  0  0  0
   -3.8136   24.7184  -27.8353 H   0  0  0  0  0  0  0  0  0  0  0  0
   -5.7015   26.1633  -29.8542 H   0  0  0  0  0  0  0  0  0  0  0  0
   -5.3439   26.3076  -31.6166 H   0  0  0  0  0  0  0  0  0  0  0  0
   -6.9592   24.3454  -29.0132 H   0  0  0  0  0  0  0  0  0  0  0  0
   -8.1165   22.1700  -29.3789 H   0  0  0  0  0  0  0  0  0  0  0  0
   -8.5918   20.3204  -30.7206 H   0  0  0  0  0  0  0  0  0  0  0  0
   -8.5884   20.5879  -32.5251 H   0  0  0  0  0  0  0  0  0  0  0  0
   -6.7036   17.7024  -32.8105 H   0  0  0  0  0  0  0  0  0  0  0  0
   -8.0746   18.7734  -33.3720 H   0  0  0  0  0  0  0  0  0  0  0  0
   -5.8476   18.4556  -34.8149 H   0  0  0  0  0  0  0  0  0  0  0  0
   -6.7613   20.0370  -34.7027 H   0  0  0  0  0  0  0  0  0  0  0  0
   -4.0665   19.8054  -34.3830 H   0  0  0  0  0  0  0  0  0  0  0  0
   -5.1019   21.0923  -33.6399 H   0  0  0  0  0  0  0  0  0  0  0  0
   -4.2994   18.4656  -32.3059 H   0  0  0  0  0  0  0  0  0  0  0  0
   -3.5683   20.0805  -31.9858 H   0  0  0  0  0  0  0  0  0  0  0  0
   -5.4098   19.2855  -30.3634 H   0  0  0  0  0  0  0  0  0  0  0  0
   -5.5846   20.9458  -31.1062 H   0  0  0  0  0  0  0  0  0  0  0  0
   -6.6915   22.1019  -33.4657 H   0  0  0  0  0  0  0  0  0  0  0  0
   -5.5303   24.2747  -33.0972 H   0  0  0  0  0  0  0  0  0  0  0  0
   -3.0944   23.2020  -31.8299 H   0  0  0  0  0  0  0  0  0  0  0  0
   -2.2255   21.0754  -30.8601 H   0  0  0  0  0  0  0  0  0  0  0  0
  1  2  2  0
  2  3  1  0
  3  4  2  0
  4  5  1  0
  5  6  1  0
  6  7  1  0
  7  8  2  0
  8  9  1  0
  9 10  2  0
 10 11  1  0
 11 12  1  0
 12 13  1  0
 13 14  1  0
 14 15  1  0
 15 16  1  0
 16 17  1  0
 10 18  1  0
 18 19  2  0
  4 20  1  0
 20 21  2  0
 21  1  1  0
 19  7  1  0
 17 12  1  0
  1 22  1  0
  2 23  1  0
  3 24  1  0
  6 25  1  0
  6 26  1  0
  8 27  1  0
  9 28  1  0
 11 29  1  0
 11 30  1  0
 13 31  1  0
 13 32  1  0
 14 33  1  0
 14 34  1  0
 15 35  1  0
 15 36  1  0
 16 37  1  0
 16 38  1  0
 17 39  1  0
 17 40  1  0
 18 41  1  0
 19 42  1  0
 20 43  1  0
 21 44  1  0
M  END
>  <UniqueID>  (22) 
18

>  <SMILES>  (22) 
c1ccc(OCc2ccc(CN3CCCCC3)cc2)cc1

>  <Energy>  (22) 
54.30056511693776

>  <Genealogy>  (22) 
c1ccc(OCc2ccc(CN3CCCCC3)cc2)cc1 (3D coordinates assigned)
c1ccc(OCc2ccc(CN3CCCCC3)cc2)cc1 (nonaromatic ring conformer: 54.30056511693776 kcal/mol)

>  <smiles>  (22) 
c1ccc(OCc2ccc(CN3CCCCC3)cc2)cc1

>  <score_type>  (22) 
oracle

>  <origin>  (22) 
adg

>  <m_score__min__energy>  (22) 
-8.6500000000000004

>  <m_primary>  (22) 
energy

$$$$
22:0
     RDKit          3D

 38 41  0  0  0  0  0  0  0  0999 V2000
   -4.2450   25.1670  -30.7900 O   0  0  0  0  0  0  0  0  0  0  0  0
   -4.0450   23.9260  -30.6880 C   0  0  0  0  0  0  0  0  0  0  0  0
   -5.1120   23.0090  -30.9810 N   0  0  0  0  0  0  0  0  0  0  0  0
   -6.4920   23.4530  -31.1660 C   0  0  0  0  0  0  0  0  0  0  0  0
   -7.3380   22.3170  -31.6700 C   0  0  0  0  0  0  0  0  0  0  0  0
   -8.7320   22.3310  -31.4980 C   0  0  0  0  0  0  0  0  0  0  0  0
   -9.5090   21.2570  -31.9470 C   0  0  0  0  0  0  0  0  0  0  0  0
   -8.8990   20.1630  -32.5660 C   0  0  0  0  0  0  0  0  0  0  0  0
   -7.5120   20.1390  -32.7350 C   0  0  0  0  0  0  0  0  0  0  0  0
   -6.7320   21.2100  -32.2870 C   0  0  0  0  0  0  0  0  0  0  0  0
   -2.7090   23.4330  -30.2740 C   0  0  0  0  0  0  0  0  0  0  0  0
   -2.1780   22.2200  -30.7750 C   0  0  0  0  0  0  0  0  0  0  0  0
   -0.9080   21.7620  -30.3610 C   0  0  0  0  0  0  0  0  0  0  0  0
   -0.1490   22.5010  -29.4380 C   0  0  0  0  0  0  0  0  0  0  0  0
   -0.6950   23.6850  -28.9530 C   0  0  0  0  0  0  0  0  0  0  0  0
   -0.1450   24.5370  -28.0770 N   0  0  0  0  0  0  0  0  0  0  0  0
   -1.0930   25.5040  -27.9710 C   0  0  0  0  0  0  0  0  0  0  0  0
   -0.9370   26.6800  -27.1050 C   0  0  0  0  0  0  0  0  0  0  0  0
   -1.2370   26.7570  -25.7610 C   0  0  0  0  0  0  0  0  0  0  0  0
   -0.9250   28.0500  -25.3890 C   0  0  0  0  0  0  0  0  0  0  0  0
   -0.4680   28.7140  -26.4270 O   0  0  0  0  0  0  0  0  0  0  0  0
   -0.4620   27.9210  -27.4740 C   0  0  0  0  0  0  0  0  0  0  0  0
   -2.1960   25.2960  -28.7360 N   0  0  0  0  0  0  0  0  0  0  0  0
   -1.9200   24.1330  -29.3470 C   0  0  0  0  0  0  0  0  0  0  0  0
   -4.9020   21.9950  -31.1130 H   0  0  0  0  0  0  0  0  0  0  0  0
   -6.8925   23.8058  -30.2042 H   0  0  0  0  0  0  0  0  0  0  0  0
   -6.5113   24.2700  -31.9023 H   0  0  0  0  0  0  0  0  0  0  0  0
   -9.2149   23.1895  -31.0084 H   0  0  0  0  0  0  0  0  0  0  0  0
  -10.6006   21.2742  -31.8125 H   0  0  0  0  0  0  0  0  0  0  0  0
   -9.5107   19.3203  -32.9204 H   0  0  0  0  0  0  0  0  0  0  0  0
   -7.0329   19.2764  -33.2212 H   0  0  0  0  0  0  0  0  0  0  0  0
   -5.6401   21.1854  -32.4183 H   0  0  0  0  0  0  0  0  0  0  0  0
   -2.7615   21.6275  -31.4951 H   0  0  0  0  0  0  0  0  0  0  0  0
   -0.5098   20.8192  -30.7643 H   0  0  0  0  0  0  0  0  0  0  0  0
    0.8425   22.1553  -29.1103 H   0  0  0  0  0  0  0  0  0  0  0  0
   -1.6395   25.9580  -25.1210 H   0  0  0  0  0  0  0  0  0  0  0  0
   -1.0415   28.4622  -24.3758 H   0  0  0  0  0  0  0  0  0  0  0  0
   -0.1307   28.2021  -28.4846 H   0  0  0  0  0  0  0  0  0  0  0  0
  1  2  2  0
  2  3  1  0
  3  4  1  0
  4  5  1  0
  5  6  2  0
  6  7  1  0
  7  8  2  0
  8  9  1  0
  9 10  2  0
  2 11  1  0
 11 12  2  0
 12 13  1  0
 13 14  2  0
 14 15  1  0
 15 16  1  0
 16 17  1  0
 17 18  1  0
 18 19  1  0
 19 20  2  0
 20 21  1  0
 21 22  1  0
 17 23  2  0
 23 24  1  0
 10  5  1  0
 24 11  1  0
 24 15  2  0
 22 18  2  0
  3 25  1  0
  4 26  1  0
  4 27  1  0
  6 28  1  0
  7 29  1  0
  8 30  1  0
  9 31  1  0
 10 32  1  0
 12 33  1  0
 13 34  1  0
 14 35  1  0
 19 36  1  0
 20 37  1  0
 22 38  1  0
M  CHG  1  16  -1
M  END
>  <UniqueID>  (23) 
19

>  <SMILES>  (23) 
O=C(NCc1ccccc1)c1cccc2[n-]c(-c3ccoc3)nc12

>  <Energy>  (23) 
102.80564157324072

>  <Genealogy>  (23) 
O=C(NCc1ccccc1)c1cccc2[n-]c(-c3ccoc3)nc12 (protonated)
O=C(NCc1ccccc1)c1cccc2[n-]c(-c3ccoc3)nc12 (3D coordinates assigned)
O=C(NCc1ccccc1)c1cccc2[n-]c(-c3ccoc3)nc12 (optimized conformer: 102.80564157324072 kcal/mol)

>  <smiles>  (23) 
O=C(NCc1ccccc1)c1cccc2[nH]c(-c3ccoc3)nc12

>  <score_type>  (23) 
oracle

>  <origin>  (23) 
adg

>  <m_score__min__energy>  (23) 
-9.2200000000000006

>  <m_primary>  (23) 
energy

$$$$
23:0
     RDKit          3D

 42 45  0  0  0  0  0  0  0  0999 V2000
   -0.4560   21.0800  -34.0750 C   0  0  0  0  0  0  0  0  0  0  0  0
   -1.1090   21.3810  -32.8450 O   0  0  0  0  0  0  0  0  0  0  0  0
   -2.4990   21.3540  -32.6570 C   0  0  0  0  0  0  0  0  0  0  0  0
   -3.2240   20.3100  -33.2290 C   0  0  0  0  0  0  0  0  0  0  0  0
   -4.6080   20.2270  -33.0630 C   0  0  0  0  0  0  0  0  0  0  0  0
   -5.3020   21.2120  -32.3330 C   0  0  0  0  0  0  0  0  0  0  0  0
   -4.5750   22.2750  -31.7570 C   0  0  0  0  0  0  0  0  0  0  0  0
   -3.1780   22.3330  -31.9100 C   0  0  0  0  0  0  0  0  0  0  0  0
   -5.2800   23.2550  -30.9630 N   0  0  0  0  0  0  0  0  0  0  0  0
   -4.8270   24.6200  -30.8590 C   0  0  0  0  0  0  0  0  0  0  0  0
   -5.5830   25.5620  -31.2190 O   0  0  0  0  0  0  0  0  0  0  0  0
   -3.5060   24.8980  -30.3750 N   0  0  0  0  0  0  0  0  0  0  0  0
   -2.8490   24.2600  -29.2690 C   0  0  0  0  0  0  0  0  0  0  0  0
   -1.5300   24.6160  -28.9700 C   0  0  0  0  0  0  0  0  0  0  0  0
   -0.8600   23.9960  -27.9150 C   0  0  0  0  0  0  0  0  0  0  0  0
   -1.5130   23.0110  -27.1750 C   0  0  0  0  0  0  0  0  0  0  0  0
   -2.7880   22.6530  -27.4890 N   0  0  0  0  0  0  0  0  0  0  0  0
   -3.4620   23.2450  -28.5140 C   0  0  0  0  0  0  0  0  0  0  0  0
   -6.4800   22.8260  -30.2320 C   0  0  0  0  0  0  0  0  0  0  0  0
   -7.3520   21.9570  -31.1020 C   0  0  0  0  0  0  0  0  0  0  0  0
   -8.7330   21.8970  -30.8600 C   0  0  0  0  0  0  0  0  0  0  0  0
   -9.5530   21.0860  -31.6440 C   0  0  0  0  0  0  0  0  0  0  0  0
   -9.0020   20.3260  -32.6750 C   0  0  0  0  0  0  0  0  0  0  0  0
   -7.6260   20.3590  -32.9160 C   0  0  0  0  0  0  0  0  0  0  0  0
   -6.7780   21.1560  -32.1170 C   0  0  0  0  0  0  0  0  0  0  0  0
    0.5252   20.6277  -33.8682 H   0  0  0  0  0  0  0  0  0  0  0  0
   -1.0705   20.3743  -34.6532 H   0  0  0  0  0  0  0  0  0  0  0  0
   -0.3185   22.0056  -34.6532 H   0  0  0  0  0  0  0  0  0  0  0  0
   -2.7000   19.5428  -33.8179 H   0  0  0  0  0  0  0  0  0  0  0  0
   -5.1610   19.3855  -33.5059 H   0  0  0  0  0  0  0  0  0  0  0  0
   -2.6117   23.1513  -31.4413 H   0  0  0  0  0  0  0  0  0  0  0  0
   -1.0201   25.3860  -29.5675 H   0  0  0  0  0  0  0  0  0  0  0  0
    0.1735   24.2815  -27.6693 H   0  0  0  0  0  0  0  0  0  0  0  0
   -0.9966   22.5223  -26.3357 H   0  0  0  0  0  0  0  0  0  0  0  0
   -3.2560   21.9020  -26.9360 H   0  0  0  0  0  0  0  0  0  0  0  0
   -4.4883   22.9281  -28.7515 H   0  0  0  0  0  0  0  0  0  0  0  0
   -6.1759   22.2559  -29.3418 H   0  0  0  0  0  0  0  0  0  0  0  0
   -7.0521   23.7181  -29.9371 H   0  0  0  0  0  0  0  0  0  0  0  0
   -9.1716   22.4936  -30.0465 H   0  0  0  0  0  0  0  0  0  0  0  0
  -10.6348   21.0459  -31.4490 H   0  0  0  0  0  0  0  0  0  0  0  0
   -9.6530   19.6981  -33.3010 H   0  0  0  0  0  0  0  0  0  0  0  0
   -7.2005   19.7596  -33.7343 H   0  0  0  0  0  0  0  0  0  0  0  0
  1  2  1  0
  2  3  1  0
  3  4  2  0
  4  5  1  0
  5  6  2  0
  6  7  1  0
  7  8  2  0
  7  9  1  0
  9 10  1  0
 10 11  2  0
 10 12  1  0
 12 13  1  0
 13 14  2  0
 14 15  1  0
 15 16  2  0
 16 17  1  0
 17 18  2  0
  9 19  1  0
 19 20  1  0
 20 21  2  0
 21 22  1  0
 22 23  2  0
 23 24  1  0
 24 25  2  0
  8  3  1  0
 18 13  1  0
 25 20  1  0
 25  6  1  0
  1 26  1  0
  1 27  1  0
  1 28  1  0
  4 29  1  0
  5 30  1  0
  8 31  1  0
 14 32  1  0
 15 33  1  0
 16 34  1  0
 17 35  1  0
 18 36  1  0
 19 37  1  0
 19 38  1  0
 21 39  1  0
 22 40  1  0
 23 41  1  0
 24 42  1  0
M  CHG  2  12  -1  17   1
M  END
>  <UniqueID>  (24) 
20

>  <SMILES>  (24) 
COc1ccc2c(c1)N(C(=O)[N-]c1ccc[nH+]c1)Cc1ccccc1-2

>  <Energy>  (24) 
61.221228726583014

>  <Genealogy>  (24) 
COc1ccc2c(c1)N(C(=O)[N-]c1ccc[nH+]c1)Cc1ccccc1-2 (protonated)
COc1ccc2c(c1)N(C(=O)[N-]c1ccc[nH+]c1)Cc1ccccc1-2 (3D coordinates assigned)
COc1ccc2c(c1)N(C(=O)[N-]c1ccc[nH+]c1)Cc1ccccc1-2 (nonaromatic ring conformer: 61.221228726583014 kcal/mol)

>  <smiles>  (24) 
COc1ccc2c(c1)N(C(=O)Nc1cccnc1)Cc1ccccc1-2

>  <score_type>  (24) 
oracle

>  <origin>  (24) 
adg

>  <m_score__min__energy>  (24) 
-9.4100000000000001

>  <m_primary>  (24) 
energy

$$$$
24:0
     RDKit          3D

 48 50  0  0  0  0  0  0  0  0999 V2000
   -8.3920   18.1900  -31.9750 C   0  0  0  0  0  0  0  0  0  0  0  0
   -8.7670   19.4980  -31.2850 C   0  0  0  0  0  0  0  0  0  0  0  0
   -8.7540   20.6670  -32.2740 C   0  0  0  0  0  0  0  0  0  0  0  0
   -7.9670   22.1000  -31.5560 S   0  0  0  0  0  0  0  0  0  0  0  0
   -8.3230   23.3270  -32.3470 O   0  0  0  0  0  0  0  0  0  0  0  0
   -8.4520   22.2780  -30.1440 O   0  0  0  0  0  0  0  0  0  0  0  0
   -6.2200   21.8960  -31.5440 C   0  0  0  0  0  0  0  0  0  0  0  0
   -5.4040   22.6180  -30.7420 N   0  0  0  0  0  0  0  0  0  0  0  0
   -4.1620   22.1400  -30.9940 C   0  0  0  0  0  0  0  0  0  0  0  0
   -2.9480   22.6520  -30.3250 C   0  0  0  0  0  0  0  0  0  0  0  0
   -1.8480   21.8170  -30.0870 C   0  0  0  0  0  0  0  0  0  0  0  0
   -0.7010   22.3180  -29.4700 C   0  0  0  0  0  0  0  0  0  0  0  0
   -0.6280   23.6710  -29.0870 C   0  0  0  0  0  0  0  0  0  0  0  0
    0.5050   24.2180  -28.4610 O   0  0  0  0  0  0  0  0  0  0  0  0
    1.0610   23.7880  -27.2180 C   0  0  0  0  0  0  0  0  0  0  0  0
   -0.0340   23.3030  -26.2750 C   0  0  0  0  0  0  0  0  0  0  0  0
   -1.7160   24.5200  -29.3450 C   0  0  0  0  0  0  0  0  0  0  0  0
   -1.6130   25.8680  -28.9650 O   0  0  0  0  0  0  0  0  0  0  0  0
   -1.2320   26.3140  -27.6670 C   0  0  0  0  0  0  0  0  0  0  0  0
   -2.8690   24.0070  -29.9700 C   0  0  0  0  0  0  0  0  0  0  0  0
   -4.2570   21.1230  -31.9280 C   0  0  0  0  0  0  0  0  0  0  0  0
   -3.2810   20.2670  -32.4480 C   0  0  0  0  0  0  0  0  0  0  0  0
   -3.6930   19.2890  -33.3660 C   0  0  0  0  0  0  0  0  0  0  0  0
   -5.0490   19.1790  -33.7260 C   0  0  0  0  0  0  0  0  0  0  0  0
   -5.6100   17.8420  -34.9690 Br  0  0  0  0  0  0  0  0  0  0  0  0
   -5.9900   20.0470  -33.1530 C   0  0  0  0  0  0  0  0  0  0  0  0
   -5.5460   20.9820  -32.2700 N   0  0  0  0  0  0  0  0  0  0  0  0
   -8.1726   17.4248  -31.2159 H   0  0  0  0  0  0  0  0  0  0  0  0
   -9.2299   17.8536  -32.6033 H   0  0  0  0  0  0  0  0  0  0  0  0
   -7.5031   18.3486  -32.6033 H   0  0  0  0  0  0  0  0  0  0  0  0
   -9.7753   19.4016  -30.8561 H   0  0  0  0  0  0  0  0  0  0  0  0
   -8.0284   19.7005  -30.4953 H   0  0  0  0  0  0  0  0  0  0  0  0
   -8.2026   20.3681  -33.1777 H   0  0  0  0  0  0  0  0  0  0  0  0
   -9.7930   20.9258  -32.5260 H   0  0  0  0  0  0  0  0  0  0  0  0
   -1.8890   20.7599  -30.3885 H   0  0  0  0  0  0  0  0  0  0  0  0
    0.1529   21.6507  -29.2814 H   0  0  0  0  0  0  0  0  0  0  0  0
    1.7673   22.9655  -27.4040 H   0  0  0  0  0  0  0  0  0  0  0  0
    1.5787   24.6383  -26.7500 H   0  0  0  0  0  0  0  0  0  0  0  0
    0.2892   23.4462  -25.2334 H   0  0  0  0  0  0  0  0  0  0  0  0
   -0.9544   23.8776  -26.4556 H   0  0  0  0  0  0  0  0  0  0  0  0
   -0.2270   22.2352  -26.4556 H   0  0  0  0  0  0  0  0  0  0  0  0
   -1.7478   25.7102  -26.9058 H   0  0  0  0  0  0  0  0  0  0  0  0
   -0.1441   26.2047  -27.5464 H   0  0  0  0  0  0  0  0  0  0  0  0
   -1.5099   27.3715  -27.5464 H   0  0  0  0  0  0  0  0  0  0  0  0
   -3.7164   24.6756  -30.1820 H   0  0  0  0  0  0  0  0  0  0  0  0
   -2.2266   20.3573  -32.1477 H   0  0  0  0  0  0  0  0  0  0  0  0
   -2.9525   18.6050  -33.8063 H   0  0  0  0  0  0  0  0  0  0  0  0
   -7.0570   19.9738  -33.4103 H   0  0  0  0  0  0  0  0  0  0  0  0
  1  2  1  0
  2  3  1  0
  3  4  1  0
  4  5  2  0
  4  6  2  0
  4  7  1  0
  7  8  2  0
  8  9  1  0
  9 10  1  0
 10 11  2  0
 11 12  1  0
 12 13  2  0
 13 14  1  0
 14 15  1  0
 15 16  1  0
 13 17  1  0
 17 18  1  0
 18 19  1  0
 17 20  2  0
  9 21  2  0
 21 22  1  0
 22 23  2  0
 23 24  1  0
 24 25  1  0
 24 26  2  0
 26 27  1  0
 27  7  1  0
 20 10  1  0
 27 21  1  0
  1 28  1  0
  1 29  1  0
  1 30  1  0
  2 31  1  0
  2 32  1  0
  3 33  1  0
  3 34  1  0
 11 35  1  0
 12 36  1  0
 15 37  1  0
 15 38  1  0
 16 39  1  0
 16 40  1  0
 16 41  1  0
 19 42  1  0
 19 43  1  0
 19 44  1  0
 20 45  1  0
 22 46  1  0
 23 47  1  0
 26 48  1  0
M  END
>  <UniqueID>  (25) 
21

>  <SMILES>  (25) 
CCCS(=O)(=O)c1nc(-c2ccc(OCC)c(OC)c2)c2ccc(Br)cn12

>  <Energy>  (25) 
79.44203598266284

>  <Genealogy>  (25) 
CCCS(=O)(=O)c1nc(-c2ccc(OCC)c(OC)c2)c2ccc(Br)cn12 (3D coordinates assigned)
CCCS(=O)(=O)c1nc(-c2ccc(OCC)c(OC)c2)c2ccc(Br)cn12 (optimized conformer: 79.44203598266284 kcal/mol)

>  <smiles>  (25) 
CCCS(=O)(=O)c1nc(-c2ccc(OCC)c(OC)c2)c2ccc(Br)cn12

>  <score_type>  (25) 
oracle

>  <origin>  (25) 
adg

>  <m_score__min__energy>  (25) 
-9.3499999999999996

>  <m_primary>  (25) 
energy

$$$$
25:0
     RDKit          3D

 39 41  0  0  0  0  0  0  0  0999 V2000
   -3.8630   25.6710  -30.4560 O   0  0  0  0  0  0  0  0  0  0  0  0
   -3.9720   24.2990  -30.4940 N   0  0  0  0  0  0  0  0  0  0  0  0
   -4.6930   23.7430  -31.4660 N   0  0  0  0  0  0  0  0  0  0  0  0
   -4.8460   22.3980  -31.5630 C   0  0  0  0  0  0  0  0  0  0  0  0
   -5.6780   21.8690  -32.6010 N   0  0  0  0  0  0  0  0  0  0  0  0
   -7.1030   21.6350  -32.3700 C   0  0  0  0  0  0  0  0  0  0  0  0
   -7.4660   20.1890  -32.7350 C   0  0  0  0  0  0  0  0  0  0  0  0
   -6.3060   19.2830  -32.5750 N   0  0  0  0  0  0  0  0  0  0  0  0
   -5.6300   19.0350  -33.8720 C   0  0  0  0  0  0  0  0  0  0  0  0
   -6.0470   17.6840  -34.4850 C   0  0  0  0  0  0  0  0  0  0  0  0
   -5.7540   16.5660  -33.6580 O   0  0  0  0  0  0  0  0  0  0  0  0
   -5.7420   16.8710  -32.2700 C   0  0  0  0  0  0  0  0  0  0  0  0
   -6.6850   18.0240  -31.8870 C   0  0  0  0  0  0  0  0  0  0  0  0
   -4.2210   21.5760  -30.6640 N   0  0  0  0  0  0  0  0  0  0  0  0
   -4.2670   20.2000  -30.8080 O   0  0  0  0  0  0  0  0  0  0  0  0
   -3.4940   22.1200  -29.6410 C   0  0  0  0  0  0  0  0  0  0  0  0
   -2.8590   21.3060  -28.6830 C   0  0  0  0  0  0  0  0  0  0  0  0
   -2.1150   21.8830  -27.6500 C   0  0  0  0  0  0  0  0  0  0  0  0
   -1.9920   23.2700  -27.5620 C   0  0  0  0  0  0  0  0  0  0  0  0
   -2.6120   24.0910  -28.5080 C   0  0  0  0  0  0  0  0  0  0  0  0
   -3.3650   23.5240  -29.5520 C   0  0  0  0  0  0  0  0  0  0  0  0
   -5.3840   22.0520  -33.5870 H   0  0  0  0  0  0  0  0  0  0  0  0
   -7.3333   21.8112  -31.3089 H   0  0  0  0  0  0  0  0  0  0  0  0
   -7.6874   22.3226  -32.9990 H   0  0  0  0  0  0  0  0  0  0  0  0
   -8.2797   19.8478  -32.0781 H   0  0  0  0  0  0  0  0  0  0  0  0
   -7.7793   20.1667  -33.7892 H   0  0  0  0  0  0  0  0  0  0  0  0
   -5.8958   19.8409  -34.5720 H   0  0  0  0  0  0  0  0  0  0  0  0
   -4.5450   19.0091  -33.6929 H   0  0  0  0  0  0  0  0  0  0  0  0
   -7.1315   17.7057  -34.6680 H   0  0  0  0  0  0  0  0  0  0  0  0
   -5.4672   17.5590  -35.4114 H   0  0  0  0  0  0  0  0  0  0  0  0
   -6.0468   15.9725  -31.7134 H   0  0  0  0  0  0  0  0  0  0  0  0
   -4.7203   17.1914  -32.0180 H   0  0  0  0  0  0  0  0  0  0  0  0
   -7.7130   17.7556  -32.1720 H   0  0  0  0  0  0  0  0  0  0  0  0
   -6.6113   18.1863  -30.8015 H   0  0  0  0  0  0  0  0  0  0  0  0
   -4.8870   19.7420  -31.4640 H   0  0  0  0  0  0  0  0  0  0  0  0
   -2.9490   20.2116  -28.7480 H   0  0  0  0  0  0  0  0  0  0  0  0
   -1.6245   21.2411  -26.9035 H   0  0  0  0  0  0  0  0  0  0  0  0
   -1.4058   23.7183  -26.7463 H   0  0  0  0  0  0  0  0  0  0  0  0
   -2.5108   25.1840  -28.4359 H   0  0  0  0  0  0  0  0  0  0  0  0
  1  2  1  0
  2  3  2  0
  3  4  1  0
  4  5  1  0
  5  6  1  0
  6  7  1  0
  7  8  1  0
  8  9  1  0
  9 10  1  0
 10 11  1  0
 11 12  1  0
 12 13  1  0
  4 14  2  0
 14 15  1  0
 14 16  1  0
 16 17  2  0
 17 18  1  0
 18 19  2  0
 19 20  1  0
 20 21  2  0
 21  2  1  0
 13  8  1  0
 21 16  1  0
  5 22  1  0
  6 23  1  0
  6 24  1  0
  7 25  1  0
  7 26  1  0
  9 27  1  0
  9 28  1  0
 10 29  1  0
 10 30  1  0
 12 31  1  0
 12 32  1  0
 13 33  1  0
 13 34  1  0
 15 35  1  0
 17 36  1  0
 18 37  1  0
 19 38  1  0
 20 39  1  0
M  CHG  3   1  -1   2   1  14   1
M  END
>  <UniqueID>  (26) 
22

>  <SMILES>  (26) 
[O-][n+]1nc(NCCN2CCOCC2)[n+](O)c2ccccc21

>  <Energy>  (26) 
64.31275203540064

>  <Genealogy>  (26) 
[O-][n+]1nc(NCCN2CCOCC2)[n+](O)c2ccccc21 (protonated)
[O-][n+]1nc(NCCN2CCOCC2)[n+](O)c2ccccc21 (3D coordinates assigned)
[O-][n+]1nc(NCCN2CCOCC2)[n+](O)c2ccccc21 (nonaromatic ring conformer: 64.31275203540064 kcal/mol)

>  <smiles>  (26) 
[O-][n+]1nc(NCCN2CCOCC2)[n+]([O-])c2ccccc21

>  <score_type>  (26) 
oracle

>  <origin>  (26) 
adg

>  <m_score__min__energy>  (26) 
-7.8600000000000003

>  <m_primary>  (26) 
energy

$$$$
26:0
     RDKit          3D

 54 59  0  0  0  0  0  0  0  0999 V2000
  -11.2894   20.6727  -32.2704 H   0  0  0  0  0  0  0  0  0  0  0  0
  -10.1920   20.7460  -32.2890 C   0  0  0  0  0  0  0  0  0  0  0  0
   -9.5640   21.9250  -31.8860 C   0  0  0  0  0  0  0  0  0  0  0  0
  -10.1680   22.7822  -31.5539 H   0  0  0  0  0  0  0  0  0  0  0  0
   -8.1690   22.0200  -31.9030 C   0  0  0  0  0  0  0  0  0  0  0  0
   -7.6815   22.9548  -31.5890 H   0  0  0  0  0  0  0  0  0  0  0  0
   -7.3840   20.9280  -32.3190 C   0  0  0  0  0  0  0  0  0  0  0  0
   -5.9030   21.0470  -32.3400 C   0  0  0  0  0  0  0  0  0  0  0  0
   -5.1660   20.0530  -32.9050 N   0  0  0  0  0  0  0  0  0  0  0  0
   -3.8120   20.0970  -32.9730 C   0  0  0  0  0  0  0  0  0  0  0  0
   -3.1100   21.1910  -32.4360 C   0  0  0  0  0  0  0  0  0  0  0  0
   -3.8400   22.2440  -31.8390 C   0  0  0  0  0  0  0  0  0  0  0  0
   -3.1910   23.2690  -31.3530 N   0  0  0  0  0  0  0  0  0  0  0  0
   -3.5630   24.1120  -30.2520 C   0  0  0  0  0  0  0  0  0  0  0  0
   -3.8620   25.3130  -30.4760 O   0  0  0  0  0  0  0  0  0  0  0  0
   -3.4870   23.6330  -28.8340 C   0  0  0  0  0  0  0  0  0  0  0  0
   -3.6222   24.4850  -28.1514 H   0  0  0  0  0  0  0  0  0  0  0  0
   -4.2786   22.8905  -28.6549 H   0  0  0  0  0  0  0  0  0  0  0  0
   -2.5045   23.1720  -28.6549 H   0  0  0  0  0  0  0  0  0  0  0  0
   -5.2470   22.1730  -31.8200 C   0  0  0  0  0  0  0  0  0  0  0  0
   -5.8326   23.0023  -31.3965 H   0  0  0  0  0  0  0  0  0  0  0  0
   -1.5870   21.1810  -32.4190 C   0  0  1  0  0  0  0  0  0  0  0  0
   -1.2634   22.1603  -32.8016 H   0  0  0  0  0  0  0  0  0  0  0  0
   -1.0930   20.9690  -31.0000 C   0  0  0  0  0  0  0  0  0  0  0  0
   -0.9550   19.6700  -30.4740 C   0  0  0  0  0  0  0  0  0  0  0  0
   -1.1993   18.7980  -31.0984 H   0  0  0  0  0  0  0  0  0  0  0  0
   -0.5090   19.4830  -29.1620 C   0  0  0  0  0  0  0  0  0  0  0  0
   -0.4020   18.4654  -28.7581 H   0  0  0  0  0  0  0  0  0  0  0  0
   -0.1990   20.5870  -28.3630 C   0  0  0  0  0  0  0  0  0  0  0  0
    0.2320   20.4030  -27.0910 F   0  0  0  0  0  0  0  0  0  0  0  0
   -0.3320   21.8800  -28.8760 C   0  0  0  0  0  0  0  0  0  0  0  0
   -0.0861   22.7482  -28.2470 H   0  0  0  0  0  0  0  0  0  0  0  0
   -0.7770   22.0720  -30.1870 C   0  0  0  0  0  0  0  0  0  0  0  0
   -0.8807   23.0921  -30.5852 H   0  0  0  0  0  0  0  0  0  0  0  0
   -0.9750   20.1350  -33.3350 C   0  0  0  0  0  0  0  0  0  0  0  0
   -1.7580   19.0850  -33.8420 C   0  0  0  0  0  0  0  0  0  0  0  0
   -1.1530   18.0790  -34.6090 C   0  0  0  0  0  0  0  0  0  0  0  0
   -1.8840   16.9990  -35.1330 C   0  0  0  0  0  0  0  0  0  0  0  0
   -2.9642   16.9214  -34.9404 H   0  0  0  0  0  0  0  0  0  0  0  0
   -1.2390   16.0230  -35.8990 C   0  0  0  0  0  0  0  0  0  0  0  0
   -1.8135   15.1783  -36.3070 H   0  0  0  0  0  0  0  0  0  0  0  0
    0.1330   16.1170  -36.1480 C   0  0  0  0  0  0  0  0  0  0  0  0
    0.6356   15.3455  -36.7499 H   0  0  0  0  0  0  0  0  0  0  0  0
    0.8680   17.1890  -35.6340 C   0  0  0  0  0  0  0  0  0  0  0  0
    1.9473   17.2612  -35.8339 H   0  0  0  0  0  0  0  0  0  0  0  0
    0.2320   18.1710  -34.8650 C   0  0  0  0  0  0  0  0  0  0  0  0
    0.9390   19.1880  -34.3820 O   0  0  0  0  0  0  0  0  0  0  0  0
    0.4000   20.1510  -33.6410 C   0  0  0  0  0  0  0  0  0  0  0  0
    1.1400   21.0760  -33.2120 O   0  0  0  0  0  0  0  0  0  0  0  0
   -3.1340   19.0510  -33.5980 O   0  0  0  0  0  0  0  0  0  0  0  0
   -8.0310   19.7470  -32.7350 C   0  0  0  0  0  0  0  0  0  0  0  0
   -7.4341   18.8886  -33.0770 H   0  0  0  0  0  0  0  0  0  0  0  0
   -9.4260   19.6590  -32.7160 C   0  0  0  0  0  0  0  0  0  0  0  0
   -9.9216   18.7313  -33.0381 H   0  0  0  0  0  0  0  0  0  0  0  0
  1  2  1  0
  2  3  2  0
  3  4  1  0
  3  5  1  0
  5  6  1  0
  5  7  2  0
  7  8  1  0
  8  9  1  0
  9 10  1  0
 10 11  2  0
 11 12  1  0
 12 13  2  0
 13 14  1  0
 14 15  2  0
 14 16  1  0
 16 17  1  0
 16 18  1  0
 16 19  1  0
 12 20  1  0
 20 21  1  0
 11 22  1  0
 22 23  1  6
 22 24  1  0
 24 25  2  0
 25 26  1  0
 25 27  1  0
 27 28  1  0
 27 29  2  0
 29 30  1  0
 29 31  1  0
 31 32  1  0
 31 33  2  0
 33 34  1  0
 22 35  1  0
 35 36  2  0
 36 37  1  0
 37 38  2  0
 38 39  1  0
 38 40  1  0
 40 41  1  0
 40 42  2  0
 42 43  1  0
 42 44  1  0
 44 45  1  0
 44 46  2  0
 46 47  1  0
 47 48  1  0
 48 49  2  0
 36 50  1  0
  7 51  1  0
 51 52  1  0
 51 53  2  0
 53 54  1  0
 53  2  1  0
 20  8  2  0
 33 24  1  0
 48 35  1  0
 50 10  1  0
 46 37  1  0
M  CHG  1   9  -1
M  END
>  <UniqueID>  (27) 
23

>  <SMILES>  (27) 
CC(=O)/N=c1\cc(-c2ccccc2)[n-]c2c1[C@@H](c1ccc(F)cc1)c1c(c3ccccc3oc1=O)O2

>  <Energy>  (27) 
84.36520831546268

>  <Genealogy>  (27) 
CC(=O)N=c1cc(-c2ccccc2)[n-]c2c1C(c1ccc(F)cc1)c1c(c3ccccc3oc1=O)O2 (protonated)
CC(=O)N=c1cc(-c2ccccc2)[n-]c2c1[C@@H](c1ccc(F)cc1)c1c(c3ccccc3oc1=O)O2 (chirality)
CC(=O)/N=c1\cc(-c2ccccc2)[n-]c2c1[C@@H](c1ccc(F)cc1)c1c(c3ccccc3oc1=O)O2 (cis-trans isomerization)
CC(=O)/N=c1\cc(-c2ccccc2)[n-]c2c1[C@@H](c1ccc(F)cc1)c1c(c3ccccc3oc1=O)O2 (3D coordinates assigned)
CC(=O)/N=c1\cc(-c2ccccc2)[n-]c2c1[C@@H](c1ccc(F)cc1)c1c(c3ccccc3oc1=O)O2 (nonaromatic ring conformer: 84.36520831546268 kcal/mol)

>  <smiles>  (27) 
CC(=O)N=c1cc(-c2ccccc2)[nH]c2c1C(c1ccc(F)cc1)c1c(c3ccccc3oc1=O)O2

>  <score_type>  (27) 
oracle

>  <origin>  (27) 
adg

>  <m_score__min__energy>  (27) 
-9.1899999999999995

>  <m_primary>  (27) 
energy

$$$$
27:0
     RDKit          3D

 42 45  0  0  0  0  0  0  0  0999 V2000
   -8.4349   16.9885  -32.6031 H   0  0  0  0  0  0  0  0  0  0  0  0
   -8.1320   17.9970  -32.2850 C   0  0  0  0  0  0  0  0  0  0  0  0
   -9.0930   19.0020  -32.1400 C   0  0  0  0  0  0  0  0  0  0  0  0
  -10.1517   18.7832  -32.3432 H   0  0  0  0  0  0  0  0  0  0  0  0
   -8.7100   20.2850  -31.7370 C   0  0  0  0  0  0  0  0  0  0  0  0
   -9.4688   21.0734  -31.6246 H   0  0  0  0  0  0  0  0  0  0  0  0
   -7.3590   20.5710  -31.4750 C   0  0  0  0  0  0  0  0  0  0  0  0
   -6.9340   21.9600  -31.0570 C   0  0  0  0  0  0  0  0  0  0  0  0
   -6.2218   21.8763  -30.2229 H   0  0  0  0  0  0  0  0  0  0  0  0
   -7.8368   22.5135  -30.7595 H   0  0  0  0  0  0  0  0  0  0  0  0
   -6.2860   22.7080  -32.1660 N   0  0  2  0  0  0  0  0  0  0  0  0
   -6.7290   22.3900  -33.0620 H   0  0  0  0  0  0  0  0  0  0  0  0
   -4.8440   22.3670  -32.2690 C   0  0  0  0  0  0  0  0  0  0  0  0
   -4.4767   22.6617  -33.2631 H   0  0  0  0  0  0  0  0  0  0  0  0
   -4.7330   21.2832  -32.1172 H   0  0  0  0  0  0  0  0  0  0  0  0
   -4.0390   23.0740  -31.2230 C   0  0  0  0  0  0  0  0  0  0  0  0
   -2.4730   22.7160  -30.7340 S   0  0  0  0  0  0  0  0  0  0  0  0
   -2.4080   24.0620  -29.7050 C   0  0  0  0  0  0  0  0  0  0  0  0
   -1.3880   24.4290  -28.9860 N   0  0  0  0  0  0  0  0  0  0  0  0
   -1.4330   25.1100  -27.7240 C   0  0  0  0  0  0  0  0  0  0  0  0
   -0.4840   26.1070  -27.4590 C   0  0  0  0  0  0  0  0  0  0  0  0
    0.2962   26.3311  -28.2014 H   0  0  0  0  0  0  0  0  0  0  0  0
   -0.5240   26.8180  -26.2560 C   0  0  0  0  0  0  0  0  0  0  0  0
    0.2342   27.5872  -26.0472 H   0  0  0  0  0  0  0  0  0  0  0  0
   -1.5260   26.5530  -25.3180 C   0  0  0  0  0  0  0  0  0  0  0  0
   -1.5660   27.2460  -24.1530 F   0  0  0  0  0  0  0  0  0  0  0  0
   -2.4970   25.5850  -25.5890 C   0  0  0  0  0  0  0  0  0  0  0  0
   -3.2920   25.3839  -24.8558 H   0  0  0  0  0  0  0  0  0  0  0  0
   -2.4590   24.8720  -26.7910 C   0  0  0  0  0  0  0  0  0  0  0  0
   -3.2340   24.1222  -27.0081 H   0  0  0  0  0  0  0  0  0  0  0  0
   -3.5440   24.7940  -29.7560 N   0  0  0  0  0  0  0  0  0  0  0  0
   -4.4460   24.2480  -30.6130 C   0  0  0  0  0  0  0  0  0  0  0  0
   -5.8110   24.8180  -30.8390 C   0  0  0  0  0  0  0  0  0  0  0  0
   -5.7255   25.9035  -30.9949 H   0  0  0  0  0  0  0  0  0  0  0  0
   -6.4302   24.6012  -29.9561 H   0  0  0  0  0  0  0  0  0  0  0  0
   -6.4840   24.1810  -32.0790 C   0  0  0  0  0  0  0  0  0  0  0  0
   -6.0604   24.6440  -32.9824 H   0  0  0  0  0  0  0  0  0  0  0  0
   -7.5658   24.3592  -31.9897 H   0  0  0  0  0  0  0  0  0  0  0  0
   -6.3990   19.5540  -31.6230 C   0  0  0  0  0  0  0  0  0  0  0  0
   -5.3390   19.7674  -31.4209 H   0  0  0  0  0  0  0  0  0  0  0  0
   -6.7870   18.2730  -32.0260 C   0  0  0  0  0  0  0  0  0  0  0  0
   -6.0322   17.4809  -32.1394 H   0  0  0  0  0  0  0  0  0  0  0  0
  1  2  1  0
  2  3  2  0
  3  4  1  0
  3  5  1  0
  5  6  1  0
  5  7  2  0
  7  8  1  0
  8  9  1  0
  8 10  1  0
  8 11  1  0
 11 12  1  6
 11 13  1  0
 13 14  1  0
 13 15  1  0
 13 16  1  0
 16 17  1  0
 17 18  1  0
 18 19  2  0
 19 20  1  0
 20 21  2  0
 21 22  1  0
 21 23  1  0
 23 24  1  0
 23 25  2  0
 25 26  1  0
 25 27  1  0
 27 28  1  0
 27 29  2  0
 29 30  1  0
 18 31  1  0
 31 32  1  0
 32 33  1  0
 33 34  1  0
 33 35  1  0
 33 36  1  0
 36 37  1  0
 36 38  1  0
  7 39  1  0
 39 40  1  0
 39 41  2  0
 41 42  1  0
 41  2  1  0
 36 11  1  0
 32 16  2  0
 29 20  1  0
M  CHG  2  11   1  31  -1
M  END
>  <UniqueID>  (28) 
24

>  <SMILES>  (28) 
Fc1ccc(/N=c2/[n-]c3c(s2)C[N@@H+](Cc2ccccc2)CC3)cc1

>  <Energy>  (28) 
89.54294827847936

>  <Genealogy>  (28) 
Fc1ccc(N=c2[n-]c3c(s2)C[NH+](Cc2ccccc2)CC3)cc1 (protonated)
Fc1ccc(N=c2[n-]c3c(s2)C[N@@H+](Cc2ccccc2)CC3)cc1 (chirality)
Fc1ccc(/N=c2/[n-]c3c(s2)C[N@@H+](Cc2ccccc2)CC3)cc1 (cis-trans isomerization)
Fc1ccc(/N=c2/[n-]c3c(s2)C[N@@H+](Cc2ccccc2)CC3)cc1 (3D coordinates assigned)
Fc1ccc(/N=c2/[n-]c3c(s2)C[N@@H+](Cc2ccccc2)CC3)cc1 (nonaromatic ring conformer: 89.54294827847936 kcal/mol)

>  <smiles>  (28) 
Fc1ccc(N=c2[nH]c3c(s2)CN(Cc2ccccc2)CC3)cc1

>  <score_type>  (28) 
oracle

>  <origin>  (28) 
adg

>  <m_score__min__energy>  (28) 
-8.8599999999999994

>  <m_primary>  (28) 
energy

$$$$
28:0
     RDKit          3D

 40 42  0  0  0  0  0  0  0  0999 V2000
   -8.1690   19.0375  -30.7709 H   0  0  0  0  0  0  0  0  0  0  0  0
   -7.8600   19.5140  -31.7130 C   0  0  0  0  0  0  0  0  0  0  0  0
   -7.5920   18.7220  -32.7590 C   0  0  0  0  0  0  0  0  0  0  0  0
   -8.4252   18.2298  -33.2819 H   0  0  0  0  0  0  0  0  0  0  0  0
   -6.2140   18.4890  -33.2320 C   0  0  0  0  0  0  0  0  0  0  0  0
   -5.2750   19.4670  -33.1680 N   0  0  0  0  0  0  0  0  0  0  0  0
   -4.1760   18.8630  -33.6610 C   0  0  0  0  0  0  0  0  0  0  0  0
   -4.4470   17.5870  -34.0190 C   0  0  0  0  0  0  0  0  0  0  0  0
   -3.4460   16.7830  -34.5570 C   0  0  0  0  0  0  0  0  0  0  0  0
   -3.6880   15.5910  -34.8870 O   0  0  0  0  0  0  0  0  0  0  0  0
   -2.1900   17.3240  -34.7150 N   0  0  0  0  0  0  0  0  0  0  0  0
   -1.1160   16.5170  -35.3200 C   0  0  0  0  0  0  0  0  0  0  0  0
   -0.5083   16.0603  -34.5249 H   0  0  0  0  0  0  0  0  0  0  0  0
   -1.5585   15.7260  -35.9434 H   0  0  0  0  0  0  0  0  0  0  0  0
   -0.4794   17.1621  -35.9434 H   0  0  0  0  0  0  0  0  0  0  0  0
   -1.9510   18.6450  -34.3770 C   0  0  0  0  0  0  0  0  0  0  0  0
   -0.8130   19.1520  -34.5890 O   0  0  0  0  0  0  0  0  0  0  0  0
   -2.9430   19.4190  -33.8140 N   0  0  0  0  0  0  0  0  0  0  0  0
   -2.7050   20.8260  -33.4660 C   0  0  0  0  0  0  0  0  0  0  0  0
   -2.6866   20.9350  -32.3716 H   0  0  0  0  0  0  0  0  0  0  0  0
   -1.7395   21.1486  -33.8829 H   0  0  0  0  0  0  0  0  0  0  0  0
   -3.5107   21.4482  -33.8829 H   0  0  0  0  0  0  0  0  0  0  0  0
   -5.7470   17.3280  -33.7770 N   0  0  0  0  0  0  0  0  0  0  0  0
   -6.4890   16.1080  -34.1030 C   0  0  0  0  0  0  0  0  0  0  0  0
   -6.7947   15.6054  -33.1735 H   0  0  0  0  0  0  0  0  0  0  0  0
   -7.3821   16.3679  -34.6902 H   0  0  0  0  0  0  0  0  0  0  0  0
   -5.8474   15.4345  -34.6902 H   0  0  0  0  0  0  0  0  0  0  0  0
   -7.7660   20.9950  -31.7460 C   0  0  0  0  0  0  0  0  0  0  0  0
   -8.8880   21.8250  -31.9390 C   0  0  0  0  0  0  0  0  0  0  0  0
   -9.8846   21.3769  -32.0651 H   0  0  0  0  0  0  0  0  0  0  0  0
   -8.7420   23.2120  -31.9710 C   0  0  0  0  0  0  0  0  0  0  0  0
   -9.6249   23.8520  -32.1159 H   0  0  0  0  0  0  0  0  0  0  0  0
   -7.4810   23.7920  -31.8200 C   0  0  0  0  0  0  0  0  0  0  0  0
   -7.3772   24.8869  -31.8414 H   0  0  0  0  0  0  0  0  0  0  0  0
   -6.3440   22.9870  -31.6410 C   0  0  0  0  0  0  0  0  0  0  0  0
   -5.0450   23.5880  -31.4920 N   0  0  0  0  0  0  0  0  0  0  0  0
   -4.0070   22.9140  -31.6630 O   0  0  0  0  0  0  0  0  0  0  0  0
   -4.9220   24.9180  -31.1600 O   0  0  0  0  0  0  0  0  0  0  0  0
   -6.4980   21.5870  -31.6100 C   0  0  0  0  0  0  0  0  0  0  0  0
   -5.6129   20.9474  -31.4774 H   0  0  0  0  0  0  0  0  0  0  0  0
  1  2  1  0
  2  3  2  0
  3  4  1  0
  3  5  1  0
  5  6  2  0
  6  7  1  0
  7  8  2  0
  8  9  1  0
  9 10  2  0
  9 11  1  0
 11 12  1  0
 12 13  1  0
 12 14  1  0
 12 15  1  0
 11 16  1  0
 16 17  2  0
 16 18  1  0
 18 19  1  0
 19 20  1  0
 19 21  1  0
 19 22  1  0
  8 23  1  0
 23 24  1  0
 24 25  1  0
 24 26  1  0
 24 27  1  0
  2 28  1  0
 28 29  2  0
 29 30  1  0
 29 31  1  0
 31 32  1  0
 31 33  2  0
 33 34  1  0
 33 35  1  0
 35 36  1  0
 36 37  2  0
 36 38  1  0
 35 39  2  0
 39 40  1  0
 23  5  1  0
 39 28  1  0
 18  7  1  0
M  CHG  2  36   1  38  -1
M  END
>  <UniqueID>  (29) 
25

>  <SMILES>  (29) 
Cn1c(=O)c2c(nc(/C=C/c3cccc([N+](=O)[O-])c3)n2C)n(C)c1=O

>  <Energy>  (29) 
95.8857681982698

>  <Genealogy>  (29) 
Cn1c(=O)c2c(nc(/C=C/c3cccc([N+](=O)[O-])c3)n2C)n(C)c1=O (cis-trans isomerization)
Cn1c(=O)c2c(nc(/C=C/c3cccc([N+](=O)[O-])c3)n2C)n(C)c1=O (3D coordinates assigned)
Cn1c(=O)c2c(nc(/C=C/c3cccc([N+](=O)[O-])c3)n2C)n(C)c1=O (optimized conformer: 95.8857681982698 kcal/mol)

>  <smiles>  (29) 
Cn1c(=O)c2c(nc(C=Cc3cccc([N+](=O)[O-])c3)n2C)n(C)c1=O

>  <score_type>  (29) 
oracle

>  <origin>  (29) 
adg

>  <m_score__min__energy>  (29) 
-8.3100000000000005

>  <m_primary>  (29) 
energy

$$$$
29:0
     RDKit          3D

 28 27  0  0  0  0  0  0  0  0999 V2000
    0.6420   27.7720  -22.5730 N   0  0  0  0  0  0  0  0  0  0  0  0
   -0.0310   27.1110  -23.6480 C   0  0  0  0  0  0  0  0  0  0  0  0
   -0.7840   27.7990  -24.4550 N   0  0  0  0  0  0  0  0  0  0  0  0
    0.1950   25.7060  -23.8560 N   0  0  0  0  0  0  0  0  0  0  0  0
   -0.8510   24.7770  -24.2870 C   0  0  0  0  0  0  0  0  0  0  0  0
   -0.6100   24.3010  -25.7270 C   0  0  0  0  0  0  0  0  0  0  0  0
   -0.9800   25.3450  -26.7980 C   0  0  0  0  0  0  0  0  0  0  0  0
   -2.1380   24.9500  -27.7290 C   0  0  0  0  0  0  0  0  0  0  0  0
   -3.3360   24.3440  -26.9790 C   0  0  0  0  0  0  0  0  0  0  0  0
   -4.5940   24.9140  -27.4590 N   0  0  0  0  0  0  0  0  0  0  0  0
    1.2610   27.2350  -21.9270 H   0  0  0  0  0  0  0  0  0  0  0  0
    0.5200   28.7970  -22.4100 H   0  0  0  0  0  0  0  0  0  0  0  0
   -0.3960   28.2970  -25.2850 H   0  0  0  0  0  0  0  0  0  0  0  0
   -1.8040   27.9070  -24.2660 H   0  0  0  0  0  0  0  0  0  0  0  0
    1.0340   25.2890  -23.3920 H   0  0  0  0  0  0  0  0  0  0  0  0
   -0.8553   23.9050  -23.6165 H   0  0  0  0  0  0  0  0  0  0  0  0
   -1.8185   25.2990  -24.2493 H   0  0  0  0  0  0  0  0  0  0  0  0
    0.4564   24.0547  -25.8368 H   0  0  0  0  0  0  0  0  0  0  0  0
   -1.2625   23.4305  -25.8897 H   0  0  0  0  0  0  0  0  0  0  0  0
   -1.2606   26.2755  -26.2828 H   0  0  0  0  0  0  0  0  0  0  0  0
   -0.0939   25.4472  -27.4417 H   0  0  0  0  0  0  0  0  0  0  0  0
   -2.4785   25.8484  -28.2646 H   0  0  0  0  0  0  0  0  0  0  0  0
   -1.7579   24.1798  -28.4162 H   0  0  0  0  0  0  0  0  0  0  0  0
   -3.3489   23.2559  -27.1401 H   0  0  0  0  0  0  0  0  0  0  0  0
   -3.2324   24.5724  -25.9080 H   0  0  0  0  0  0  0  0  0  0  0  0
   -4.8430   25.7400  -26.8680 H   0  0  0  0  0  0  0  0  0  0  0  0
   -4.4930   25.2270  -28.4510 H   0  0  0  0  0  0  0  0  0  0  0  0
   -5.3590   24.2040  -27.3880 H   0  0  0  0  0  0  0  0  0  0  0  0
  1  2  1  0
  2  3  2  0
  2  4  1  0
  4  5  1  0
  5  6  1  0
  6  7  1  0
  7  8  1  0
  8  9  1  0
  9 10  1  0
  1 11  1  0
  1 12  1  0
  3 13  1  0
  3 14  1  0
  4 15  1  0
  5 16  1  0
  5 17  1  0
  6 18  1  0
  6 19  1  0
  7 20  1  0
  7 21  1  0
  8 22  1  0
  8 23  1  0
  9 24  1  0
  9 25  1  0
 10 26  1  0
 10 27  1  0
 10 28  1  0
M  CHG  2   3   1  10   1
M  END
>  <UniqueID>  (30) 
26

>  <SMILES>  (30) 
NC(=[NH2+])NCCCCC[NH3+]

>  <Energy>  (30) 
15.710677365441317

>  <Genealogy>  (30) 
NC(=[NH2+])NCCCCC[NH3+] (protonated)
NC(=[NH2+])NCCCCC[NH3+] (3D coordinates assigned)
NC(=[NH2+])NCCCCC[NH3+] (optimized conformer: 15.710677365441317 kcal/mol)

>  <smiles>  (30) 
N=C(N)NCCCCCN

>  <score_type>  (30) 
oracle

>  <origin>  (30) 
adg

>  <m_score__min__energy>  (30) 
-4.2000000000000002

>  <m_primary>  (30) 
energy

$$$$
30:0
     RDKit          3D

 32 34  0  0  0  0  0  0  0  0999 V2000
   -3.5900   18.8940  -33.8260 C   0  0  0  0  0  0  0  0  0  0  0  0
   -4.0830   20.0670  -32.9860 C   0  0  0  0  0  0  0  0  0  0  0  0
   -5.3030   20.5860  -33.5130 O   0  0  0  0  0  0  0  0  0  0  0  0
   -6.2280   21.2700  -32.7150 C   0  0  0  0  0  0  0  0  0  0  0  0
   -7.4820   20.7870  -32.5260 C   0  0  0  0  0  0  0  0  0  0  0  0
   -7.7950   19.4710  -33.0840 N   0  0  0  0  0  0  0  0  0  0  0  0
   -8.6100   18.5750  -32.2380 C   0  0  0  0  0  0  0  0  0  0  0  0
   -7.1860   18.2710  -32.4700 C   0  0  0  0  0  0  0  0  0  0  0  0
   -8.4420   21.6420  -31.7310 C   0  0  0  0  0  0  0  0  0  0  0  0
   -9.6660   21.3640  -31.6280 O   0  0  0  0  0  0  0  0  0  0  0  0
   -7.9690   22.8740  -31.0760 C   0  0  0  0  0  0  0  0  0  0  0  0
   -6.7150   23.2940  -31.2320 C   0  0  0  0  0  0  0  0  0  0  0  0
   -6.2830   24.4960  -30.5970 N   0  0  0  0  0  0  0  0  0  0  0  0
   -5.3720   25.6710  -30.4690 C   0  0  0  0  0  0  0  0  0  0  0  0
   -6.3910   25.5520  -29.5470 C   0  0  0  0  0  0  0  0  0  0  0  0
   -5.7850   22.5240  -32.0680 C   0  0  0  0  0  0  0  0  0  0  0  0
   -4.6020   22.9280  -32.2320 O   0  0  0  0  0  0  0  0  0  0  0  0
   -3.2501   18.0852  -33.1625 H   0  0  0  0  0  0  0  0  0  0  0  0
   -4.4101   18.5273  -34.4608 H   0  0  0  0  0  0  0  0  0  0  0  0
   -2.7541   19.2233  -34.4608 H   0  0  0  0  0  0  0  0  0  0  0  0
   -4.2513   19.7265  -31.9536 H   0  0  0  0  0  0  0  0  0  0  0  0
   -3.3223   20.8613  -33.0062 H   0  0  0  0  0  0  0  0  0  0  0  0
   -7.9550   19.3490  -34.1100 H   0  0  0  0  0  0  0  0  0  0  0  0
   -8.9457   18.9109  -31.2458 H   0  0  0  0  0  0  0  0  0  0  0  0
   -9.5536   18.0257  -32.3719 H   0  0  0  0  0  0  0  0  0  0  0  0
   -6.4598   18.3807  -31.6511 H   0  0  0  0  0  0  0  0  0  0  0  0
   -6.6280   17.4019  -32.8486 H   0  0  0  0  0  0  0  0  0  0  0  0
   -8.6615   23.4551  -30.4493 H   0  0  0  0  0  0  0  0  0  0  0  0
   -4.3305   25.5182  -30.1498 H   0  0  0  0  0  0  0  0  0  0  0  0
   -5.0550   26.4688  -31.1567 H   0  0  0  0  0  0  0  0  0  0  0  0
   -6.1518   25.3053  -28.5020 H   0  0  0  0  0  0  0  0  0  0  0  0
   -7.2012   26.2178  -29.2148 H   0  0  0  0  0  0  0  0  0  0  0  0
  1  2  1  0
  2  3  1  0
  3  4  1  0
  4  5  2  0
  5  6  1  0
  6  7  1  0
  7  8  1  0
  5  9  1  0
  9 10  2  0
  9 11  1  0
 11 12  2  0
 12 13  1  0
 13 14  1  0
 14 15  1  0
 12 16  1  0
 16 17  2  0
 16  4  1  0
  8  6  1  0
 15 13  1  0
  1 18  1  0
  1 19  1  0
  1 20  1  0
  2 21  1  0
  2 22  1  0
  6 23  1  0
  7 24  1  0
  7 25  1  0
  8 26  1  0
  8 27  1  0
 11 28  1  0
 14 29  1  0
 14 30  1  0
 15 31  1  0
 15 32  1  0
M  CHG  1   6   1
M  END
>  <UniqueID>  (31) 
27

>  <SMILES>  (31) 
CCOC1=C([NH+]2CC2)C(=O)C=C(N2CC2)C1=O

>  <Energy>  (31) 
622.6309826783024

>  <Genealogy>  (31) 
CCOC1=C([NH+]2CC2)C(=O)C=C(N2CC2)C1=O (protonated)
CCOC1=C([NH+]2CC2)C(=O)C=C(N2CC2)C1=O (3D coordinates assigned)
CCOC1=C([NH+]2CC2)C(=O)C=C(N2CC2)C1=O (nonaromatic ring conformer: 622.6309826783024 kcal/mol)

>  <smiles>  (31) 
CCOC1=C(N2CC2)C(=O)C=C(N2CC2)C1=O

>  <score_type>  (31) 
oracle

>  <origin>  (31) 
adg

>  <m_score__min__energy>  (31) 
-5.6900000000000004

>  <m_primary>  (31) 
energy

$$$$
31:0
     RDKit          3D

 41 44  0  0  0  0  0  0  0  0999 V2000
   -3.2900   17.6190  -34.2140 C   0  0  0  0  0  0  0  0  0  0  0  0
   -4.6990   17.7750  -33.8660 N   0  0  0  0  0  0  0  0  0  0  0  0
   -5.6390   16.8040  -33.8700 C   0  0  0  0  0  0  0  0  0  0  0  0
   -6.8650   17.3160  -33.4610 C   0  0  0  0  0  0  0  0  0  0  0  0
   -6.6420   18.6560  -33.2010 C   0  0  0  0  0  0  0  0  0  0  0  0
   -7.5100   19.6560  -32.7440 C   0  0  0  0  0  0  0  0  0  0  0  0
   -6.9620   20.9520  -32.5180 C   0  0  0  0  0  0  0  0  0  0  0  0
   -5.5890   21.2030  -32.8200 C   0  0  0  0  0  0  0  0  0  0  0  0
   -5.0160   22.5070  -32.6480 N   0  0  0  0  0  0  0  0  0  0  0  0
   -4.9990   23.2060  -31.3910 C   0  0  0  0  0  0  0  0  0  0  0  0
   -4.2400   22.6920  -30.3270 C   0  0  0  0  0  0  0  0  0  0  0  0
   -4.2010   23.3560  -29.0990 C   0  0  0  0  0  0  0  0  0  0  0  0
   -4.9140   24.5450  -28.9230 C   0  0  0  0  0  0  0  0  0  0  0  0
   -5.6630   25.0730  -29.9780 C   0  0  0  0  0  0  0  0  0  0  0  0
   -5.7040   24.4120  -31.2090 C   0  0  0  0  0  0  0  0  0  0  0  0
   -4.7570   20.1610  -33.2660 C   0  0  0  0  0  0  0  0  0  0  0  0
   -5.3170   18.9000  -33.4520 C   0  0  0  0  0  0  0  0  0  0  0  0
   -7.8410   22.0790  -32.0080 C   0  0  0  0  0  0  0  0  0  0  0  0
   -9.1090   21.5730  -31.3170 C   0  0  0  0  0  0  0  0  0  0  0  0
   -9.8190   20.5500  -32.2010 C   0  0  0  0  0  0  0  0  0  0  0  0
   -8.9400   19.3120  -32.3950 C   0  0  0  0  0  0  0  0  0  0  0  0
   -2.6903   17.5526  -33.2942 H   0  0  0  0  0  0  0  0  0  0  0  0
   -3.1578   16.7007  -34.8050 H   0  0  0  0  0  0  0  0  0  0  0  0
   -2.9601   18.4861  -34.8050 H   0  0  0  0  0  0  0  0  0  0  0  0
   -5.4595   15.7572  -34.1562 H   0  0  0  0  0  0  0  0  0  0  0  0
   -7.8146   16.7693  -33.3643 H   0  0  0  0  0  0  0  0  0  0  0  0
   -4.6920   23.0090  -33.5060 H   0  0  0  0  0  0  0  0  0  0  0  0
   -3.6721   21.7596  -30.4618 H   0  0  0  0  0  0  0  0  0  0  0  0
   -3.6085   22.9427  -28.2695 H   0  0  0  0  0  0  0  0  0  0  0  0
   -4.8856   25.0652  -27.9542 H   0  0  0  0  0  0  0  0  0  0  0  0
   -6.2214   26.0106  -29.8395 H   0  0  0  0  0  0  0  0  0  0  0  0
   -6.2890   24.8352  -32.0388 H   0  0  0  0  0  0  0  0  0  0  0  0
   -3.6894   20.3378  -33.4632 H   0  0  0  0  0  0  0  0  0  0  0  0
   -7.2633   22.6778  -31.2885 H   0  0  0  0  0  0  0  0  0  0  0  0
   -8.1525   22.6766  -32.8774 H   0  0  0  0  0  0  0  0  0  0  0  0
   -8.8382   21.1012  -30.3609 H   0  0  0  0  0  0  0  0  0  0  0  0
   -9.7840   22.4230  -31.1385 H   0  0  0  0  0  0  0  0  0  0  0  0
  -10.7643   20.2523  -31.7236 H   0  0  0  0  0  0  0  0  0  0  0  0
  -10.0183   21.0038  -33.1830 H   0  0  0  0  0  0  0  0  0  0  0  0
   -8.9434   18.7292  -31.4621 H   0  0  0  0  0  0  0  0  0  0  0  0
   -9.3570   18.7391  -33.2364 H   0  0  0  0  0  0  0  0  0  0  0  0
  1  2  1  0
  2  3  1  0
  3  4  2  0
  4  5  1  0
  5  6  2  0
  6  7  1  0
  7  8  2  0
  8  9  1  0
  9 10  1  0
 10 11  2  0
 11 12  1  0
 12 13  2  0
 13 14  1  0
 14 15  2  0
  8 16  1  0
 16 17  2  0
  7 18  1  0
 18 19  1  0
 19 20  1  0
 20 21  1  0
 17  2  1  0
 17  5  1  0
 21  6  1  0
 15 10  1  0
  1 22  1  0
  1 23  1  0
  1 24  1  0
  3 25  1  0
  4 26  1  0
  9 27  1  0
 11 28  1  0
 12 29  1  0
 13 30  1  0
 14 31  1  0
 15 32  1  0
 16 33  1  0
 18 34  1  0
 18 35  1  0
 19 36  1  0
 19 37  1  0
 20 38  1  0
 20 39  1  0
 21 40  1  0
 21 41  1  0
M  END
>  <UniqueID>  (32) 
28

>  <SMILES>  (32) 
Cn1ccc2c3c(c(Nc4ccccc4)cc21)CCCC3

>  <Energy>  (32) 
83.58708723644718

>  <Genealogy>  (32) 
Cn1ccc2c3c(c(Nc4ccccc4)cc21)CCCC3 (3D coordinates assigned)
Cn1ccc2c3c(c(Nc4ccccc4)cc21)CCCC3 (nonaromatic ring conformer: 83.58708723644718 kcal/mol)

>  <smiles>  (32) 
Cn1ccc2c3c(c(Nc4ccccc4)cc21)CCCC3

>  <score_type>  (32) 
oracle

>  <origin>  (32) 
adg

>  <m_score__min__energy>  (32) 
-9.0700000000000003

>  <m_primary>  (32) 
energy

$$$$
32:0
     RDKit          3D

 43 45  0  0  0  0  0  0  0  0999 V2000
   -9.6945   22.7571  -32.4520 H   0  0  0  0  0  0  0  0  0  0  0  0
   -8.9860   22.0240  -32.0390 C   0  0  0  0  0  0  0  0  0  0  0  0
   -7.8610   22.5410  -31.2380 C   0  0  0  0  0  0  0  0  0  0  0  0
   -7.9880   22.5880  -29.9860 O   0  0  0  0  0  0  0  0  0  0  0  0
   -6.6590   23.0180  -31.8710 N   0  0  0  0  0  0  0  0  0  0  0  0
   -6.6260   23.0450  -32.9150 H   0  0  0  0  0  0  0  0  0  0  0  0
   -5.4330   23.2740  -31.1680 C   0  0  0  0  0  0  0  0  0  0  0  0
   -4.2870   22.4990  -31.3860 C   0  0  0  0  0  0  0  0  0  0  0  0
   -4.3130   21.6805  -32.1204 H   0  0  0  0  0  0  0  0  0  0  0  0
   -3.1100   22.7580  -30.6770 C   0  0  0  0  0  0  0  0  0  0  0  0
   -2.2183   22.1425  -30.8666 H   0  0  0  0  0  0  0  0  0  0  0  0
   -3.0460   23.7990  -29.7190 C   0  0  0  0  0  0  0  0  0  0  0  0
   -1.8160   24.0770  -28.9830 N   0  0  0  0  0  0  0  0  0  0  0  0
   -0.6800   23.1360  -29.0880 C   0  0  0  0  0  0  0  0  0  0  0  0
   -1.0309   22.1341  -28.7997 H   0  0  0  0  0  0  0  0  0  0  0  0
   -0.3266   23.1728  -30.1290 H   0  0  0  0  0  0  0  0  0  0  0  0
    0.5100   23.5070  -28.1970 C   0  0  0  0  0  0  0  0  0  0  0  0
    0.3201   23.1477  -27.1748 H   0  0  0  0  0  0  0  0  0  0  0  0
    1.4159   23.0374  -28.6079 H   0  0  0  0  0  0  0  0  0  0  0  0
    0.7010   24.9010  -28.1670 O   0  0  0  0  0  0  0  0  0  0  0  0
   -0.3730   25.4820  -27.4680 C   0  0  0  0  0  0  0  0  0  0  0  0
   -0.4942   24.9683  -26.5029 H   0  0  0  0  0  0  0  0  0  0  0  0
   -0.1537   26.5485  -27.3116 H   0  0  0  0  0  0  0  0  0  0  0  0
   -1.6750   25.3630  -28.2660 C   0  0  0  0  0  0  0  0  0  0  0  0
   -2.5201   25.4671  -27.5697 H   0  0  0  0  0  0  0  0  0  0  0  0
   -1.6595   26.1564  -29.0277 H   0  0  0  0  0  0  0  0  0  0  0  0
   -4.2240   24.5490  -29.4910 C   0  0  0  0  0  0  0  0  0  0  0  0
   -4.2157   25.3544  -28.7418 H   0  0  0  0  0  0  0  0  0  0  0  0
   -5.3970   24.2840  -30.2010 C   0  0  0  0  0  0  0  0  0  0  0  0
   -6.3018   24.8756  -29.9977 H   0  0  0  0  0  0  0  0  0  0  0  0
   -9.2120   20.7260  -32.3030 C   0  0  0  0  0  0  0  0  0  0  0  0
  -10.2577   20.3846  -32.3038 H   0  0  0  0  0  0  0  0  0  0  0  0
   -8.1660   19.7180  -32.5930 C   0  0  0  0  0  0  0  0  0  0  0  0
   -8.2330   18.4150  -32.0660 C   0  0  0  0  0  0  0  0  0  0  0  0
   -9.0729   18.1295  -31.4156 H   0  0  0  0  0  0  0  0  0  0  0  0
   -7.2360   17.4820  -32.3660 C   0  0  0  0  0  0  0  0  0  0  0  0
   -7.2840   16.4700  -31.9376 H   0  0  0  0  0  0  0  0  0  0  0  0
   -6.1790   17.8330  -33.2090 C   0  0  0  0  0  0  0  0  0  0  0  0
   -5.2130   16.9260  -33.4990 F   0  0  0  0  0  0  0  0  0  0  0  0
   -6.1240   19.1150  -33.7630 C   0  0  0  0  0  0  0  0  0  0  0  0
   -5.2972   19.3874  -34.4355 H   0  0  0  0  0  0  0  0  0  0  0  0
   -7.1180   20.0520  -33.4640 C   0  0  0  0  0  0  0  0  0  0  0  0
   -7.0781   21.0551  -33.9136 H   0  0  0  0  0  0  0  0  0  0  0  0
  1  2  1  0
  2  3  1  0
  3  4  2  0
  3  5  1  0
  5  6  1  0
  5  7  1  0
  7  8  2  0
  8  9  1  0
  8 10  1  0
 10 11  1  0
 10 12  2  0
 12 13  1  0
 13 14  1  0
 14 15  1  0
 14 16  1  0
 14 17  1  0
 17 18  1  0
 17 19  1  0
 17 20  1  0
 20 21  1  0
 21 22  1  0
 21 23  1  0
 21 24  1  0
 24 25  1  0
 24 26  1  0
 12 27  1  0
 27 28  1  0
 27 29  2  0
 29 30  1  0
  2 31  2  0
 31 32  1  0
 31 33  1  0
 33 34  2  0
 34 35  1  0
 34 36  1  0
 36 37  1  0
 36 38  2  0
 38 39  1  0
 38 40  1  0
 40 41  1  0
 40 42  2  0
 42 43  1  0
 29  7  1  0
 42 33  1  0
 24 13  1  0
M  END
>  <UniqueID>  (33) 
29

>  <SMILES>  (33) 
O=C(/C=C\c1ccc(F)cc1)Nc1ccc(N2CCOCC2)cc1

>  <Energy>  (33) 
64.04473154190953

>  <Genealogy>  (33) 
O=C(/C=C\c1ccc(F)cc1)Nc1ccc(N2CCOCC2)cc1 (cis-trans isomerization)
O=C(/C=C\c1ccc(F)cc1)Nc1ccc(N2CCOCC2)cc1 (3D coordinates assigned)
O=C(/C=C\c1ccc(F)cc1)Nc1ccc(N2CCOCC2)cc1 (nonaromatic ring conformer: 64.04473154190953 kcal/mol)

>  <smiles>  (33) 
O=C(C=Cc1ccc(F)cc1)Nc1ccc(N2CCOCC2)cc1

>  <score_type>  (33) 
oracle

>  <origin>  (33) 
adg

>  <m_score__min__energy>  (33) 
-8.6600000000000001

>  <m_primary>  (33) 
energy

$$$$
33:0
     RDKit          3D

 32 34  0  0  0  0  0  0  0  0999 V2000
   -5.8410   20.0330  -33.5500 C   0  0  0  0  0  0  0  0  0  0  0  0
   -5.2570   21.0530  -32.8590 N   0  0  0  0  0  0  0  0  0  0  0  0
   -5.9830   21.8730  -32.0450 C   0  0  0  0  0  0  0  0  0  0  0  0
   -5.3170   22.9220  -31.3170 N   0  0  0  0  0  0  0  0  0  0  0  0
   -3.8530   22.9300  -31.2530 C   0  0  0  0  0  0  0  0  0  0  0  0
   -3.3870   23.7800  -30.0650 C   0  0  0  0  0  0  0  0  0  0  0  0
   -3.9010   25.1640  -30.1140 N   0  0  0  0  0  0  0  0  0  0  0  0
   -5.1710   25.3340  -30.8460 C   0  0  0  0  0  0  0  0  0  0  0  0
   -6.0570   24.0830  -30.8080 C   0  0  0  0  0  0  0  0  0  0  0  0
   -7.3610   21.6310  -31.9230 C   0  0  0  0  0  0  0  0  0  0  0  0
   -7.9210   20.5920  -32.6160 C   0  0  0  0  0  0  0  0  0  0  0  0
   -7.1770   19.8000  -33.4300 N   0  0  0  0  0  0  0  0  0  0  0  0
   -9.3640   20.4270  -32.3380 C   0  0  0  0  0  0  0  0  0  0  0  0
   -9.6390   21.4560  -31.2270 C   0  0  0  0  0  0  0  0  0  0  0  0
   -8.3620   22.3050  -31.0580 C   0  0  0  0  0  0  0  0  0  0  0  0
   -5.2305   19.3960  -34.2069 H   0  0  0  0  0  0  0  0  0  0  0  0
   -3.4877   21.8998  -31.1299 H   0  0  0  0  0  0  0  0  0  0  0  0
   -3.4522   23.3580  -32.1837 H   0  0  0  0  0  0  0  0  0  0  0  0
   -3.7381   23.3075  -29.1358 H   0  0  0  0  0  0  0  0  0  0  0  0
   -2.2891   23.8331  -30.1066 H   0  0  0  0  0  0  0  0  0  0  0  0
   -4.0360   25.4950  -29.1310 H   0  0  0  0  0  0  0  0  0  0  0  0
   -5.7259   26.1702  -30.3956 H   0  0  0  0  0  0  0  0  0  0  0  0
   -4.9201   25.5274  -31.8994 H   0  0  0  0  0  0  0  0  0  0  0  0
   -6.3680   23.8894  -29.7708 H   0  0  0  0  0  0  0  0  0  0  0  0
   -6.9414   24.2502  -31.4403 H   0  0  0  0  0  0  0  0  0  0  0  0
   -7.6210   19.0090  -33.9490 H   0  0  0  0  0  0  0  0  0  0  0  0
   -9.9640   20.6462  -33.2335 H   0  0  0  0  0  0  0  0  0  0  0  0
   -9.6278   19.4003  -32.0442 H   0  0  0  0  0  0  0  0  0  0  0  0
  -10.4838   22.1003  -31.5120 H   0  0  0  0  0  0  0  0  0  0  0  0
   -9.8968   20.9505  -30.2847 H   0  0  0  0  0  0  0  0  0  0  0  0
   -8.5336   23.3389  -31.3921 H   0  0  0  0  0  0  0  0  0  0  0  0
   -8.0361   22.3728  -30.0096 H   0  0  0  0  0  0  0  0  0  0  0  0
  1  2  2  0
  2  3  1  0
  3  4  1  0
  4  5  1  0
  5  6  1  0
  6  7  1  0
  7  8  1  0
  8  9  1  0
  3 10  2  0
 10 11  1  0
 11 12  2  0
 11 13  1  0
 13 14  1  0
 14 15  1  0
 12  1  1  0
  9  4  1  0
 15 10  1  0
  1 16  1  0
  5 17  1  0
  5 18  1  0
  6 19  1  0
  6 20  1  0
  7 21  1  0
  8 22  1  0
  8 23  1  0
  9 24  1  0
  9 25  1  0
 12 26  1  0
 13 27  1  0
 13 28  1  0
 14 29  1  0
 14 30  1  0
 15 31  1  0
 15 32  1  0
M  CHG  1  12   1
M  END
>  <UniqueID>  (34) 
30

>  <SMILES>  (34) 
c1nc(N2CCNCC2)c2c([nH+]1)CCC2

>  <Energy>  (34) 
49.120438584124486

>  <Genealogy>  (34) 
c1nc(N2CCNCC2)c2c([nH+]1)CCC2 (protonated)
c1nc(N2CCNCC2)c2c([nH+]1)CCC2 (3D coordinates assigned)
c1nc(N2CCNCC2)c2c([nH+]1)CCC2 (nonaromatic ring conformer: 49.120438584124486 kcal/mol)

>  <smiles>  (34) 
c1nc2c(c(N3CCNCC3)n1)CCC2

>  <score_type>  (34) 
oracle

>  <origin>  (34) 
adg

>  <m_score__min__energy>  (34) 
-6.8600000000000003

>  <m_primary>  (34) 
energy

$$$$
34:0
     RDKit          3D

 32 33  0  0  0  0  0  0  0  0999 V2000
   -9.0870   19.2280  -32.3200 C   0  0  0  0  0  0  0  0  0  0  0  0
   -7.3400   18.9500  -31.8940 S   0  0  0  0  0  0  0  0  0  0  0  0
   -6.9620   20.7000  -31.7890 C   0  0  0  0  0  0  0  0  0  0  0  0
   -5.7840   21.1990  -32.3550 C   0  0  0  0  0  0  0  0  0  0  0  0
   -5.4900   22.5640  -32.2760 C   0  0  0  0  0  0  0  0  0  0  0  0
   -6.3680   23.4400  -31.6170 C   0  0  0  0  0  0  0  0  0  0  0  0
   -6.0740   24.9130  -31.5700 C   0  0  0  0  0  0  0  0  0  0  0  0
   -5.2870   25.2340  -30.3400 C   0  0  0  0  0  0  0  0  0  0  0  0
   -5.8880   25.5380  -29.2750 O   0  0  0  0  0  0  0  0  0  0  0  0
   -3.8550   25.1890  -30.3890 N   0  0  0  0  0  0  0  0  0  0  0  0
   -3.0110   24.2200  -29.7500 C   0  0  0  0  0  0  0  0  0  0  0  0
   -3.3040   22.8430  -29.7800 C   0  0  0  0  0  0  0  0  0  0  0  0
   -2.4720   21.9320  -29.1230 C   0  0  0  0  0  0  0  0  0  0  0  0
   -1.3530   22.3850  -28.4180 C   0  0  0  0  0  0  0  0  0  0  0  0
   -0.2210   21.1370  -27.5190 Br  0  0  0  0  0  0  0  0  0  0  0  0
   -1.0700   23.7530  -28.3640 C   0  0  0  0  0  0  0  0  0  0  0  0
   -1.9000   24.6680  -29.0200 C   0  0  0  0  0  0  0  0  0  0  0  0
   -1.6170   25.9930  -28.9550 F   0  0  0  0  0  0  0  0  0  0  0  0
   -7.5530   22.9350  -31.0560 C   0  0  0  0  0  0  0  0  0  0  0  0
   -7.8450   21.5700  -31.1370 C   0  0  0  0  0  0  0  0  0  0  0  0
   -9.6788   19.3222  -31.3976 H   0  0  0  0  0  0  0  0  0  0  0  0
   -9.1780   20.1519  -32.9100 H   0  0  0  0  0  0  0  0  0  0  0  0
   -9.4603   18.3780  -32.9100 H   0  0  0  0  0  0  0  0  0  0  0  0
   -5.0874   20.5162  -32.8634 H   0  0  0  0  0  0  0  0  0  0  0  0
   -4.5675   22.9530  -32.7318 H   0  0  0  0  0  0  0  0  0  0  0  0
   -5.4932   25.1979  -32.4597 H   0  0  0  0  0  0  0  0  0  0  0  0
   -7.0213   25.4717  -31.5508 H   0  0  0  0  0  0  0  0  0  0  0  0
   -4.1907   22.4830  -30.3224 H   0  0  0  0  0  0  0  0  0  0  0  0
   -2.6982   20.8562  -29.1608 H   0  0  0  0  0  0  0  0  0  0  0  0
   -0.1929   24.1105  -27.8046 H   0  0  0  0  0  0  0  0  0  0  0  0
   -8.2538   23.6161  -30.5511 H   0  0  0  0  0  0  0  0  0  0  0  0
   -8.7698   21.1788  -30.6879 H   0  0  0  0  0  0  0  0  0  0  0  0
  1  2  1  0
  2  3  1  0
  3  4  2  0
  4  5  1  0
  5  6  2  0
  6  7  1  0
  7  8  1  0
  8  9  2  0
  8 10  1  0
 10 11  1  0
 11 12  2  0
 12 13  1  0
 13 14  2  0
 14 15  1  0
 14 16  1  0
 16 17  2  0
 17 18  1  0
  6 19  1  0
 19 20  2  0
 20  3  1  0
 17 11  1  0
  1 21  1  0
  1 22  1  0
  1 23  1  0
  4 24  1  0
  5 25  1  0
  7 26  1  0
  7 27  1  0
 12 28  1  0
 13 29  1  0
 16 30  1  0
 19 31  1  0
 20 32  1  0
M  CHG  1  10  -1
M  END
>  <UniqueID>  (35) 
31

>  <SMILES>  (35) 
CSc1ccc(CC(=O)[N-]c2ccc(Br)cc2F)cc1

>  <Energy>  (35) 
29.543808322220034

>  <Genealogy>  (35) 
CSc1ccc(CC(=O)[N-]c2ccc(Br)cc2F)cc1 (protonated)
CSc1ccc(CC(=O)[N-]c2ccc(Br)cc2F)cc1 (3D coordinates assigned)
CSc1ccc(CC(=O)[N-]c2ccc(Br)cc2F)cc1 (optimized conformer: 29.543808322220034 kcal/mol)

>  <smiles>  (35) 
CSc1ccc(CC(=O)Nc2ccc(Br)cc2F)cc1

>  <score_type>  (35) 
oracle

>  <origin>  (35) 
adg

>  <m_score__min__energy>  (35) 
-9.9100000000000001

>  <m_primary>  (35) 
energy

$$$$
35:0
     RDKit          3D

 36 38  0  0  0  0  0  0  0  0999 V2000
   -1.2490   26.4890  -30.2010 H   0  0  0  0  0  0  0  0  0  0  0  0
   -1.1250   26.0500  -29.2960 O   0  0  0  0  0  0  0  0  0  0  0  0
   -1.3880   24.7110  -29.0750 N   0  0  0  0  0  0  0  0  0  0  0  0
   -0.4830   23.9600  -28.3670 C   0  0  0  0  0  0  0  0  0  0  0  0
    0.5220   24.5150  -27.8440 O   0  0  0  0  0  0  0  0  0  0  0  0
   -0.6620   22.5730  -28.2340 C   0  0  0  0  0  0  0  0  0  0  0  0
    0.2400   21.7590  -27.5250 C   0  0  0  0  0  0  0  0  0  0  0  0
    1.1188   22.2073  -27.0384 H   0  0  0  0  0  0  0  0  0  0  0  0
    0.0210   20.3810  -27.4380 C   0  0  0  0  0  0  0  0  0  0  0  0
    0.7268   19.7476  -26.8807 H   0  0  0  0  0  0  0  0  0  0  0  0
   -1.0920   19.8060  -28.0570 C   0  0  0  0  0  0  0  0  0  0  0  0
   -1.2595   18.7210  -27.9880 H   0  0  0  0  0  0  0  0  0  0  0  0
   -1.9930   20.6080  -28.7640 C   0  0  0  0  0  0  0  0  0  0  0  0
   -2.8687   20.1537  -29.2506 H   0  0  0  0  0  0  0  0  0  0  0  0
   -1.7810   21.9900  -28.8530 C   0  0  0  0  0  0  0  0  0  0  0  0
   -2.6590   22.7680  -29.5270 N   0  0  0  0  0  0  0  0  0  0  0  0
   -2.5000   24.1130  -29.6290 C   0  0  0  0  0  0  0  0  0  0  0  0
   -3.4190   24.7780  -30.2780 N   0  0  0  0  0  0  0  0  0  0  0  0
   -4.7360   24.3580  -30.6580 C   0  0  0  0  0  0  0  0  0  0  0  0
   -5.8700   24.9980  -30.1360 C   0  0  0  0  0  0  0  0  0  0  0  0
   -5.7510   25.8643  -29.4686 H   0  0  0  0  0  0  0  0  0  0  0  0
   -7.1510   24.5400  -30.4600 C   0  0  0  0  0  0  0  0  0  0  0  0
   -8.0357   25.0609  -30.0651 H   0  0  0  0  0  0  0  0  0  0  0  0
   -7.3120   23.4130  -31.2910 C   0  0  0  0  0  0  0  0  0  0  0  0
   -8.5710   22.9090  -31.6550 O   0  0  0  0  0  0  0  0  0  0  0  0
   -9.1390   21.6820  -31.1970 C   0  0  0  0  0  0  0  0  0  0  0  0
  -10.2156   21.8256  -31.0232 H   0  0  0  0  0  0  0  0  0  0  0  0
   -8.6367   21.3873  -30.2638 H   0  0  0  0  0  0  0  0  0  0  0  0
   -8.9420   20.5760  -32.2290 C   0  0  0  0  0  0  0  0  0  0  0  0
   -8.7716   19.6194  -31.7133 H   0  0  0  0  0  0  0  0  0  0  0  0
   -9.8404   20.4980  -32.8589 H   0  0  0  0  0  0  0  0  0  0  0  0
   -8.0719   20.8130  -32.8589 H   0  0  0  0  0  0  0  0  0  0  0  0
   -6.1730   22.7620  -31.7820 C   0  0  0  0  0  0  0  0  0  0  0  0
   -6.2866   21.8808  -32.4306 H   0  0  0  0  0  0  0  0  0  0  0  0
   -4.8930   23.2210  -31.4560 C   0  0  0  0  0  0  0  0  0  0  0  0
   -4.0071   22.6859  -31.8285 H   0  0  0  0  0  0  0  0  0  0  0  0
  1  2  1  0
  2  3  1  0
  3  4  1  0
  4  5  2  0
  4  6  1  0
  6  7  2  0
  7  8  1  0
  7  9  1  0
  9 10  1  0
  9 11  2  0
 11 12  1  0
 11 13  1  0
 13 14  1  0
 13 15  2  0
 15 16  1  0
 16 17  1  0
 17 18  2  0
 18 19  1  0
 19 20  2  0
 20 21  1  0
 20 22  1  0
 22 23  1  0
 22 24  2  0
 24 25  1  0
 25 26  1  0
 26 27  1  0
 26 28  1  0
 26 29  1  0
 29 30  1  0
 29 31  1  0
 29 32  1  0
 24 33  1  0
 33 34  1  0
 33 35  2  0
 35 36  1  0
 17  3  1  0
 35 19  1  0
 15  6  1  0
M  CHG  1  16  -1
M  END
>  <UniqueID>  (36) 
32

>  <SMILES>  (36) 
CCOc1ccc(/N=c2/[n-]c3ccccc3c(=O)n2O)cc1

>  <Energy>  (36) 
55.937470220088024

>  <Genealogy>  (36) 
CCOc1ccc(N=c2[n-]c3ccccc3c(=O)n2O)cc1 (protonated)
CCOc1ccc(/N=c2/[n-]c3ccccc3c(=O)n2O)cc1 (cis-trans isomerization)
CCOc1ccc(/N=c2/[n-]c3ccccc3c(=O)n2O)cc1 (3D coordinates assigned)
CCOc1ccc(/N=c2/[n-]c3ccccc3c(=O)n2O)cc1 (optimized conformer: 55.937470220088024 kcal/mol)

>  <smiles>  (36) 
CCOc1ccc(N=c2[nH]c3ccccc3c(=O)n2O)cc1

>  <score_type>  (36) 
oracle

>  <origin>  (36) 
adg

>  <m_score__min__energy>  (36) 
-9.9299999999999997

>  <m_primary>  (36) 
energy

$$$$
36:0
     RDKit          3D

 32 34  0  0  0  0  0  0  0  0999 V2000
   -2.2400   24.0950  -29.3240 C   0  0  0  0  0  0  0  0  0  0  0  0
   -3.1490   24.8760  -30.0930 O   0  0  0  0  0  0  0  0  0  0  0  0
   -4.4750   24.5090  -30.3650 C   0  0  0  0  0  0  0  0  0  0  0  0
   -5.5590   25.3830  -30.1530 C   0  0  0  0  0  0  0  0  0  0  0  0
   -6.8630   24.9700  -30.4430 C   0  0  0  0  0  0  0  0  0  0  0  0
   -7.0990   23.6870  -30.9420 C   0  0  0  0  0  0  0  0  0  0  0  0
   -6.0300   22.8050  -31.1490 C   0  0  0  0  0  0  0  0  0  0  0  0
   -6.2710   21.4860  -31.6750 N   0  0  0  0  0  0  0  0  0  0  0  0
   -7.3580   20.8130  -31.1960 C   0  0  0  0  0  0  0  0  0  0  0  0
   -7.6760   19.5420  -31.6590 C   0  0  0  0  0  0  0  0  0  0  0  0
   -6.8750   18.9390  -32.6270 C   0  0  0  0  0  0  0  0  0  0  0  0
   -7.1940   17.6550  -33.1010 C   0  0  0  0  0  0  0  0  0  0  0  0
   -6.3970   17.0440  -34.0670 C   0  0  0  0  0  0  0  0  0  0  0  0
   -5.2760   17.7040  -34.5680 C   0  0  0  0  0  0  0  0  0  0  0  0
   -4.9450   18.9810  -34.1070 C   0  0  0  0  0  0  0  0  0  0  0  0
   -5.7390   19.6220  -33.1270 C   0  0  0  0  0  0  0  0  0  0  0  0
   -5.4460   20.9200  -32.6240 C   0  0  0  0  0  0  0  0  0  0  0  0
   -4.1020   21.7350  -33.1450 S   0  0  0  0  0  0  0  0  0  0  0  0
   -4.7200   23.2250  -30.8660 C   0  0  0  0  0  0  0  0  0  0  0  0
   -2.4308   24.2589  -28.2531 H   0  0  0  0  0  0  0  0  0  0  0  0
   -2.3788   23.0302  -29.5624 H   0  0  0  0  0  0  0  0  0  0  0  0
   -1.2082   24.3926  -29.5624 H   0  0  0  0  0  0  0  0  0  0  0  0
   -5.3791   26.3938  -29.7580 H   0  0  0  0  0  0  0  0  0  0  0  0
   -7.7055   25.6576  -30.2777 H   0  0  0  0  0  0  0  0  0  0  0  0
   -8.1262   23.3683  -31.1730 H   0  0  0  0  0  0  0  0  0  0  0  0
   -7.9924   21.2846  -30.4311 H   0  0  0  0  0  0  0  0  0  0  0  0
   -8.5561   19.0141  -31.2632 H   0  0  0  0  0  0  0  0  0  0  0  0
   -8.0769   17.1299  -32.7076 H   0  0  0  0  0  0  0  0  0  0  0  0
   -6.6528   16.0394  -34.4348 H   0  0  0  0  0  0  0  0  0  0  0  0
   -4.6491   17.2174  -35.3297 H   0  0  0  0  0  0  0  0  0  0  0  0
   -4.0586   19.4928  -34.5099 H   0  0  0  0  0  0  0  0  0  0  0  0
   -3.8784   22.5384  -31.0397 H   0  0  0  0  0  0  0  0  0  0  0  0
  1  2  1  0
  2  3  1  0
  3  4  2  0
  4  5  1  0
  5  6  2  0
  6  7  1  0
  7  8  1  0
  8  9  1  0
  9 10  2  0
 10 11  1  0
 11 12  2  0
 12 13  1  0
 13 14  2  0
 14 15  1  0
 15 16  2  0
 16 17  1  0
 17 18  2  0
  7 19  2  0
 19  3  1  0
 17  8  1  0
 16 11  1  0
  1 20  1  0
  1 21  1  0
  1 22  1  0
  4 23  1  0
  5 24  1  0
  6 25  1  0
  9 26  1  0
 10 27  1  0
 12 28  1  0
 13 29  1  0
 14 30  1  0
 15 31  1  0
 19 32  1  0
M  END
>  <UniqueID>  (37) 
33

>  <SMILES>  (37) 
COc1cccc(-n2ccc3ccccc3c2=S)c1

>  <Energy>  (37) 
51.887562911714184

>  <Genealogy>  (37) 
COc1cccc(-n2ccc3ccccc3c2=S)c1 (3D coordinates assigned)
COc1cccc(-n2ccc3ccccc3c2=S)c1 (optimized conformer: 51.887562911714184 kcal/mol)

>  <smiles>  (37) 
COc1cccc(-n2ccc3ccccc3c2=S)c1

>  <score_type>  (37) 
oracle

>  <origin>  (37) 
adg

>  <m_score__min__energy>  (37) 
-8.3499999999999996

>  <m_primary>  (37) 
energy

$$$$
37:0
     RDKit          3D

 25 26  0  0  0  0  0  0  0  0999 V2000
   -4.5390   15.7380  -34.4830 C   0  0  0  0  0  0  0  0  0  0  0  0
   -5.3140   16.9130  -33.9630 C   0  0  0  0  0  0  0  0  0  0  0  0
   -5.3610   18.1070  -34.6900 C   0  0  0  0  0  0  0  0  0  0  0  0
   -6.1180   19.1770  -34.2110 C   0  0  0  0  0  0  0  0  0  0  0  0
   -6.8260   19.0690  -33.0450 N   0  0  0  0  0  0  0  0  0  0  0  0
   -7.6000   20.1980  -32.5950 C   0  0  0  0  0  0  0  0  0  0  0  0
   -8.9870   20.0770  -32.4030 C   0  0  0  0  0  0  0  0  0  0  0  0
   -9.7370   21.1710  -31.9580 C   0  0  0  0  0  0  0  0  0  0  0  0
   -9.1080   22.3910  -31.6980 C   0  0  0  0  0  0  0  0  0  0  0  0
   -7.7280   22.5200  -31.8790 C   0  0  0  0  0  0  0  0  0  0  0  0
   -6.9750   21.4290  -32.3240 C   0  0  0  0  0  0  0  0  0  0  0  0
   -6.7970   17.9000  -32.3240 C   0  0  0  0  0  0  0  0  0  0  0  0
   -7.4300   17.7980  -31.2370 O   0  0  0  0  0  0  0  0  0  0  0  0
   -6.0500   16.8080  -32.7790 C   0  0  0  0  0  0  0  0  0  0  0  0
   -4.1517   15.1509  -33.6372 H   0  0  0  0  0  0  0  0  0  0  0  0
   -5.1983   15.1064  -35.0965 H   0  0  0  0  0  0  0  0  0  0  0  0
   -3.6988   16.0954  -35.0965 H   0  0  0  0  0  0  0  0  0  0  0  0
   -4.8044   18.2020  -35.6340 H   0  0  0  0  0  0  0  0  0  0  0  0
   -6.1459   20.1192  -34.7779 H   0  0  0  0  0  0  0  0  0  0  0  0
   -9.4855   19.1172  -32.6036 H   0  0  0  0  0  0  0  0  0  0  0  0
  -10.8227   21.0705  -31.8127 H   0  0  0  0  0  0  0  0  0  0  0  0
   -9.6993   23.2510  -31.3505 H   0  0  0  0  0  0  0  0  0  0  0  0
   -7.2339   23.4806  -31.6712 H   0  0  0  0  0  0  0  0  0  0  0  0
   -5.8888   21.5337  -32.4628 H   0  0  0  0  0  0  0  0  0  0  0  0
   -6.0418   15.8688  -32.2064 H   0  0  0  0  0  0  0  0  0  0  0  0
  1  2  1  0
  2  3  1  0
  3  4  2  0
  4  5  1  0
  5  6  1  0
  6  7  2  0
  7  8  1  0
  8  9  2  0
  9 10  1  0
 10 11  2  0
  5 12  1  0
 12 13  2  0
 12 14  1  0
 14  2  2  0
 11  6  1  0
  1 15  1  0
  1 16  1  0
  1 17  1  0
  3 18  1  0
  4 19  1  0
  7 20  1  0
  8 21  1  0
  9 22  1  0
 10 23  1  0
 11 24  1  0
 14 25  1  0
M  END
>  <UniqueID>  (38) 
34

>  <SMILES>  (38) 
Cc1ccn(-c2ccccc2)c(=O)c1

>  <Energy>  (38) 
33.70685681231967

>  <Genealogy>  (38) 
Cc1ccn(-c2ccccc2)c(=O)c1 (3D coordinates assigned)
Cc1ccn(-c2ccccc2)c(=O)c1 (optimized conformer: 33.70685681231967 kcal/mol)

>  <smiles>  (38) 
Cc1ccn(-c2ccccc2)c(=O)c1

>  <score_type>  (38) 
oracle

>  <origin>  (38) 
adg

>  <m_score__min__energy>  (38) 
-5.9800000000000004

>  <m_primary>  (38) 
energy

$$$$
38:0
     RDKit          3D

 35 38  0  0  0  0  0  0  0  0999 V2000
    0.2850   25.8910  -27.4570 C   0  0  0  0  0  0  0  0  0  0  0  0
   -1.0990   25.3480  -27.6440 C   0  0  0  0  0  0  0  0  0  0  0  0
   -2.0140   25.3420  -26.5590 C   0  0  0  0  0  0  0  0  0  0  0  0
   -3.3290   24.8700  -26.7320 C   0  0  0  0  0  0  0  0  0  0  0  0
   -3.6910   24.4230  -28.0010 C   0  0  0  0  0  0  0  0  0  0  0  0
   -4.8730   23.9460  -28.4080 N   0  0  0  0  0  0  0  0  0  0  0  0
   -4.6840   23.6800  -29.7270 C   0  0  0  0  0  0  0  0  0  0  0  0
   -5.7300   23.1350  -30.6290 C   0  0  0  0  0  0  0  0  0  0  0  0
   -6.8650   23.9070  -30.9270 C   0  0  0  0  0  0  0  0  0  0  0  0
   -7.8560   23.4130  -31.7750 C   0  0  0  0  0  0  0  0  0  0  0  0
   -7.7290   22.1430  -32.3390 C   0  0  0  0  0  0  0  0  0  0  0  0
   -6.6040   21.3480  -32.0630 C   0  0  0  0  0  0  0  0  0  0  0  0
   -6.4750   19.9990  -32.6720 C   0  0  0  0  0  0  0  0  0  0  0  0
   -5.7370   19.6580  -33.8080 C   0  0  0  0  0  0  0  0  0  0  0  0
   -5.8080   18.2990  -34.1360 C   0  0  0  0  0  0  0  0  0  0  0  0
   -6.5960   17.5540  -33.2720 C   0  0  0  0  0  0  0  0  0  0  0  0
   -7.2010   18.5890  -32.0980 S   0  0  0  0  0  0  0  0  0  0  0  0
   -5.6060   21.8570  -31.2080 C   0  0  0  0  0  0  0  0  0  0  0  0
   -3.4270   23.9790  -30.1590 N   0  0  0  0  0  0  0  0  0  0  0  0
   -2.8260   24.4420  -29.0500 C   0  0  0  0  0  0  0  0  0  0  0  0
   -1.5180   24.9030  -28.9190 C   0  0  0  0  0  0  0  0  0  0  0  0
    0.5032   25.9766  -26.3823 H   0  0  0  0  0  0  0  0  0  0  0  0
    1.0119   25.2114  -27.9257 H   0  0  0  0  0  0  0  0  0  0  0  0
    0.3559   26.8836  -27.9257 H   0  0  0  0  0  0  0  0  0  0  0  0
   -1.6925   25.7097  -25.5734 H   0  0  0  0  0  0  0  0  0  0  0  0
   -4.0441   24.8547  -25.8963 H   0  0  0  0  0  0  0  0  0  0  0  0
   -5.7350   23.8370  -27.8290 H   0  0  0  0  0  0  0  0  0  0  0  0
   -6.9732   24.9097  -30.4878 H   0  0  0  0  0  0  0  0  0  0  0  0
   -8.7408   24.0267  -32.0000 H   0  0  0  0  0  0  0  0  0  0  0  0
   -8.5164   21.7610  -33.0054 H   0  0  0  0  0  0  0  0  0  0  0  0
   -5.1552   20.3882  -34.3897 H   0  0  0  0  0  0  0  0  0  0  0  0
   -5.2863   17.8620  -35.0002 H   0  0  0  0  0  0  0  0  0  0  0  0
   -6.7905   16.4737  -33.3436 H   0  0  0  0  0  0  0  0  0  0  0  0
   -4.7170   21.2471  -30.9896 H   0  0  0  0  0  0  0  0  0  0  0  0
   -0.8332   24.9203  -29.7797 H   0  0  0  0  0  0  0  0  0  0  0  0
  1  2  1  0
  2  3  2  0
  3  4  1  0
  4  5  2  0
  5  6  1  0
  6  7  1  0
  7  8  1  0
  8  9  2  0
  9 10  1  0
 10 11  2  0
 11 12  1  0
 12 13  1  0
 13 14  2  0
 14 15  1  0
 15 16  2  0
 16 17  1  0
 12 18  2  0
  7 19  2  0
 19 20  1  0
 20 21  2  0
 21  2  1  0
 20  5  1  0
 18  8  1  0
 17 13  1  0
  1 22  1  0
  1 23  1  0
  1 24  1  0
  3 25  1  0
  4 26  1  0
  6 27  1  0
  9 28  1  0
 10 29  1  0
 11 30  1  0
 14 31  1  0
 15 32  1  0
 16 33  1  0
 18 34  1  0
 21 35  1  0
M  END
>  <UniqueID>  (39) 
35

>  <SMILES>  (39) 
Cc1ccc2[nH]c(-c3cccc(-c4cccs4)c3)nc2c1

>  <Energy>  (39) 
105.08059168317034

>  <Genealogy>  (39) 
Cc1ccc2[nH]c(-c3cccc(-c4cccs4)c3)nc2c1 (3D coordinates assigned)
Cc1ccc2[nH]c(-c3cccc(-c4cccs4)c3)nc2c1 (optimized conformer: 105.08059168317034 kcal/mol)

>  <smiles>  (39) 
Cc1ccc2[nH]c(-c3cccc(-c4cccs4)c3)nc2c1

>  <score_type>  (39) 
oracle

>  <origin>  (39) 
adg

>  <m_score__min__energy>  (39) 
-8.3000000000000007

>  <m_primary>  (39) 
energy

$$$$
39:0
     RDKit          3D

 55 59  0  0  1  0  0  0  0  0999 V2000
   -0.2000   26.4730  -25.2030 C   0  0  0  0  0  0  0  0  0  0  0  0
   -1.2620   26.3710  -26.1390 N   0  0  0  0  0  0  0  0  0  0  0  0
   -2.3220   25.4940  -25.8050 C   0  0  0  0  0  0  0  0  0  0  0  0
   -3.1010   24.9260  -26.9270 C   0  0  0  0  0  0  0  0  0  0  0  0
   -2.3330   24.6620  -28.1270 N   0  0  0  0  0  0  0  0  0  0  0  0
   -3.0130   24.0420  -29.2110 C   0  0  0  0  0  0  0  0  0  0  0  0
   -4.2510   24.5360  -29.5660 C   0  0  0  0  0  0  0  0  0  0  0  0
   -4.9910   23.9870  -30.6200 C   0  0  0  0  0  0  0  0  0  0  0  0
   -4.4480   22.8920  -31.3360 C   0  0  0  0  0  0  0  0  0  0  0  0
   -5.0930   22.4220  -32.4170 N   0  0  0  0  0  0  0  0  0  0  0  0
   -5.8500   21.4690  -32.6060 C   0  0  0  0  0  0  0  0  0  0  0  0
   -5.3260   20.3220  -33.0900 N   0  0  0  0  0  0  0  0  0  0  0  0
   -6.0580   19.2370  -33.3270 C   0  0  0  0  0  0  0  0  0  0  0  0
   -5.3660   18.0520  -33.8550 C   0  0  0  0  0  0  0  0  0  0  0  0
   -4.1560   18.1630  -34.5380 C   0  0  0  0  0  0  0  0  0  0  0  0
   -3.4890   17.0680  -35.0410 C   0  0  0  0  0  0  0  0  0  0  0  0
   -4.0130   15.8030  -34.8800 C   0  0  0  0  0  0  0  0  0  0  0  0
   -3.1420   14.4230  -35.5320 Cl  0  0  0  0  0  0  0  0  0  0  0  0
   -5.2060   15.6540  -34.2120 C   0  0  0  0  0  0  0  0  0  0  0  0
   -5.8620   16.7750  -33.7120 C   0  0  0  0  0  0  0  0  0  0  0  0
   -7.3710   19.2690  -33.0810 N   0  0  0  0  0  0  0  0  0  0  0  0
   -7.9200   20.3960  -32.5990 C   0  0  0  0  0  0  0  0  0  0  0  0
   -9.2730   20.3760  -32.3620 C   0  0  0  0  0  0  0  0  0  0  0  0
   -9.8370   21.5250  -31.8690 C   0  0  0  0  0  0  0  0  0  0  0  0
   -9.1710   22.6790  -31.5960 C   0  0  0  0  0  0  0  0  0  0  0  0
   -7.7860   22.6710  -31.8480 C   0  0  0  0  0  0  0  0  0  0  0  0
   -7.1880   21.5470  -32.3390 C   0  0  0  0  0  0  0  0  0  0  0  0
   -3.1900   22.3860  -30.9790 C   0  0  0  0  0  0  0  0  0  0  0  0
   -2.5040   22.9770  -29.9210 C   0  0  0  0  0  0  0  0  0  0  0  0
   -0.9320   25.0350  -28.1700 C   0  0  0  0  0  0  0  0  0  0  0  0
   -0.8710   26.4070  -27.5090 C   0  0  0  0  0  0  0  0  0  0  0  0
   -0.6065   26.4340  -24.1816 H   0  0  0  0  0  0  0  0  0  0  0  0
    0.5006   25.6380  -25.3510 H   0  0  0  0  0  0  0  0  0  0  0  0
    0.3289   27.4261  -25.3510 H   0  0  0  0  0  0  0  0  0  0  0  0
   -1.8922   24.6536  -25.2401 H   0  0  0  0  0  0  0  0  0  0  0  0
   -3.0381   26.1116  -25.2431 H   0  0  0  0  0  0  0  0  0  0  0  0
   -3.5457   23.9781  -26.5897 H   0  0  0  0  0  0  0  0  0  0  0  0
   -3.8503   25.6840  -27.1991 H   0  0  0  0  0  0  0  0  0  0  0  0
   -4.6686   25.3852  -29.0052 H   0  0  0  0  0  0  0  0  0  0  0  0
   -5.9756   24.3982  -30.8871 H   0  0  0  0  0  0  0  0  0  0  0  0
   -3.7177   19.1618  -34.6805 H   0  0  0  0  0  0  0  0  0  0  0  0
   -2.5356   17.2031  -35.5727 H   0  0  0  0  0  0  0  0  0  0  0  0
   -5.6400   14.6528  -34.0735 H   0  0  0  0  0  0  0  0  0  0  0  0
   -6.8152   16.6355  -33.1811 H   0  0  0  0  0  0  0  0  0  0  0  0
   -7.9590   18.4340  -33.2590 H   0  0  0  0  0  0  0  0  0  0  0  0
   -9.8773   19.4782  -32.5589 H   0  0  0  0  0  0  0  0  0  0  0  0
  -10.9202   21.5120  -31.6782 H   0  0  0  0  0  0  0  0  0  0  0  0
   -9.6851   23.5676  -31.2010 H   0  0  0  0  0  0  0  0  0  0  0  0
   -7.1857   23.5710  -31.6491 H   0  0  0  0  0  0  0  0  0  0  0  0
   -2.7527   21.5371  -31.5250 H   0  0  0  0  0  0  0  0  0  0  0  0
   -1.5177   22.5780  -29.6415 H   0  0  0  0  0  0  0  0  0  0  0  0
   -0.3211   24.3095  -27.6129 H   0  0  0  0  0  0  0  0  0  0  0  0
   -0.5395   25.0525  -29.1974 H   0  0  0  0  0  0  0  0  0  0  0  0
    0.1608   26.7831  -27.5715 H   0  0  0  0  0  0  0  0  0  0  0  0
   -1.5744   27.0652  -28.0400 H   0  0  0  0  0  0  0  0  0  0  0  0
  1  2  1  0
  2  3  1  0
  3  4  1  0
  4  5  1  0
  5  6  1  0
  6  7  2  0
  7  8  1  0
  8  9  2  0
  9 10  1  0
 10 11  2  0
 11 12  1  0
 12 13  2  0
 13 14  1  0
 14 15  2  0
 15 16  1  0
 16 17  2  0
 17 18  1  0
 17 19  1  0
 19 20  2  0
 13 21  1  0
 21 22  1  0
 22 23  2  0
 23 24  1  0
 24 25  2  0
 25 26  1  0
 26 27  2  0
  9 28  1  0
 28 29  2  0
  5 30  1  0
 30 31  1  0
 31  2  1  0
 29  6  1  0
 27 11  1  0
 20 14  1  0
 27 22  1  0
  1 32  1  0
  1 33  1  0
  1 34  1  0
  3 35  1  0
  3 36  1  0
  4 37  1  0
  4 38  1  0
  7 39  1  0
  8 40  1  0
 15 41  1  0
 16 42  1  0
 19 43  1  0
 20 44  1  0
 21 45  1  0
 23 46  1  0
 24 47  1  0
 25 48  1  0
 26 49  1  0
 28 50  1  0
 29 51  1  0
 30 52  1  0
 30 53  1  0
 31 54  1  0
 31 55  1  0
M  END
>  <smiles>  (40) 
CN1CCN(c2ccc(N=c3nc(-c4ccc(Cl)cc4)[nH]c4ccccc34)cc2)CC1

>  <score_type>  (40) 
oracle

>  <origin>  (40) 
adg

>  <m_score__min__energy>  (40) 
-9.9000000000000004

>  <m_primary>  (40) 
energy

$$$$
40:0
     RDKit          3D

 51 53  0  0  0  0  0  0  0  0999 V2000
   -1.5440   24.9620  -28.1730 C   0  0  0  0  0  0  0  0  0  0  0  0
   -2.2780   25.2980  -29.3450 O   0  0  0  0  0  0  0  0  0  0  0  0
   -3.4310   24.6260  -29.7780 C   0  0  0  0  0  0  0  0  0  0  0  0
   -4.4700   25.2790  -30.4670 C   0  0  0  0  0  0  0  0  0  0  0  0
   -5.6010   24.5670  -30.8790 C   0  0  0  0  0  0  0  0  0  0  0  0
   -5.7150   23.1920  -30.6120 C   0  0  0  0  0  0  0  0  0  0  0  0
   -6.9470   22.4270  -31.0650 C   0  0  2  0  0  0  0  0  0  0  0  0
   -7.5640   23.0400  -32.3460 C   0  0  0  0  0  0  0  0  0  0  0  0
   -9.1050   23.0070  -32.3380 C   0  0  0  0  0  0  0  0  0  0  0  0
   -9.6460   21.7410  -31.7860 N   0  0  1  0  0  0  0  0  0  0  0  0
   -9.3620   20.5960  -32.6940 C   0  0  0  0  0  0  0  0  0  0  0  0
   -8.0510   19.8460  -32.3330 C   0  0  0  0  0  0  0  0  0  0  0  0
   -7.0190   20.0050  -33.4670 C   0  0  0  0  0  0  0  0  0  0  0  0
   -5.6590   19.3750  -33.1000 C   0  0  0  0  0  0  0  0  0  0  0  0
   -5.7800   18.1580  -32.1630 C   0  0  0  0  0  0  0  0  0  0  0  0
   -7.1120   17.4290  -32.3540 C   0  0  0  0  0  0  0  0  0  0  0  0
   -8.3090   18.3430  -32.0270 C   0  0  0  0  0  0  0  0  0  0  0  0
   -9.1930   21.4790  -30.3830 C   0  0  0  0  0  0  0  0  0  0  0  0
   -7.9820   22.3230  -29.9360 C   0  0  0  0  0  0  0  0  0  0  0  0
   -4.6740   22.5450  -29.9210 C   0  0  0  0  0  0  0  0  0  0  0  0
   -3.5450   23.2580  -29.5100 C   0  0  0  0  0  0  0  0  0  0  0  0
   -2.1315   25.2309  -27.2828 H   0  0  0  0  0  0  0  0  0  0  0  0
   -1.3404   23.8810  -28.1652 H   0  0  0  0  0  0  0  0  0  0  0  0
   -0.5928   25.5143  -28.1652 H   0  0  0  0  0  0  0  0  0  0  0  0
   -4.3921   26.3549  -30.6826 H   0  0  0  0  0  0  0  0  0  0  0  0
   -6.4076   25.0873  -31.4162 H   0  0  0  0  0  0  0  0  0  0  0  0
   -6.6256   21.4059  -31.3182 H   0  0  0  0  0  0  0  0  0  0  0  0
   -7.2348   24.0863  -32.4294 H   0  0  0  0  0  0  0  0  0  0  0  0
   -7.2230   22.4371  -33.2006 H   0  0  0  0  0  0  0  0  0  0  0  0
   -9.4720   23.8436  -31.7254 H   0  0  0  0  0  0  0  0  0  0  0  0
   -9.4452   23.0877  -33.3810 H   0  0  0  0  0  0  0  0  0  0  0  0
  -10.6830   21.8810  -31.7570 H   0  0  0  0  0  0  0  0  0  0  0  0
  -10.1998   19.8857  -32.6350 H   0  0  0  0  0  0  0  0  0  0  0  0
   -9.2395   21.0031  -33.7085 H   0  0  0  0  0  0  0  0  0  0  0  0
   -7.6459   20.2982  -31.4157 H   0  0  0  0  0  0  0  0  0  0  0  0
   -7.4061   19.5133  -34.3716 H   0  0  0  0  0  0  0  0  0  0  0  0
   -6.8618   21.0804  -33.6365 H   0  0  0  0  0  0  0  0  0  0  0  0
   -5.1626   19.0528  -34.0273 H   0  0  0  0  0  0  0  0  0  0  0  0
   -5.0810   20.1415  -32.5629 H   0  0  0  0  0  0  0  0  0  0  0  0
   -4.9573   17.4599  -32.3768 H   0  0  0  0  0  0  0  0  0  0  0  0
   -5.7308   18.5176  -31.1246 H   0  0  0  0  0  0  0  0  0  0  0  0
   -7.1910   17.0973  -33.3998 H   0  0  0  0  0  0  0  0  0  0  0  0
   -7.1365   16.5700  -31.6674 H   0  0  0  0  0  0  0  0  0  0  0  0
   -9.1722   18.0108  -32.6223 H   0  0  0  0  0  0  0  0  0  0  0  0
   -8.4887   18.2619  -30.9448 H   0  0  0  0  0  0  0  0  0  0  0  0
  -10.0317   21.6947  -29.7048 H   0  0  0  0  0  0  0  0  0  0  0  0
   -8.8725   20.4273  -30.3480 H   0  0  0  0  0  0  0  0  0  0  0  0
   -8.3253   23.3328  -29.6666 H   0  0  0  0  0  0  0  0  0  0  0  0
   -7.5120   21.8358  -29.0690 H   0  0  0  0  0  0  0  0  0  0  0  0
   -4.7497   21.4695  -29.7027 H   0  0  0  0  0  0  0  0  0  0  0  0
   -2.7388   22.7390  -28.9710 H   0  0  0  0  0  0  0  0  0  0  0  0
  1  2  1  0
  2  3  1  0
  3  4  2  0
  4  5  1  0
  5  6  2  0
  6  7  1  0
  7  8  1  0
  8  9  1  0
  9 10  1  0
 10 11  1  0
 11 12  1  0
 12 13  1  0
 13 14  1  0
 14 15  1  0
 15 16  1  0
 16 17  1  0
 10 18  1  0
 18 19  1  0
  6 20  1  0
 20 21  2  0
 21  3  1  0
 19  7  1  0
 17 12  1  0
  1 22  1  0
  1 23  1  0
  1 24  1  0
  4 25  1  0
  5 26  1  0
  7 27  1  6
  8 28  1  0
  8 29  1  0
  9 30  1  0
  9 31  1  0
 10 32  1  1
 11 33  1  0
 11 34  1  0
 12 35  1  0
 13 36  1  0
 13 37  1  0
 14 38  1  0
 14 39  1  0
 15 40  1  0
 15 41  1  0
 16 42  1  0
 16 43  1  0
 17 44  1  0
 17 45  1  0
 18 46  1  0
 18 47  1  0
 19 48  1  0
 19 49  1  0
 20 50  1  0
 21 51  1  0
M  CHG  1  10   1
M  END
>  <UniqueID>  (41) 
36

>  <SMILES>  (41) 
COc1ccc(C2CC[NH+](CC3CCCCC3)CC2)cc1

>  <Energy>  (41) 
63.09196528011048

>  <Genealogy>  (41) 
COc1ccc(C2CC[NH+](CC3CCCCC3)CC2)cc1 (protonated)
COc1ccc(C2CC[NH+](CC3CCCCC3)CC2)cc1 (3D coordinates assigned)
COc1ccc(C2CC[NH+](CC3CCCCC3)CC2)cc1 (nonaromatic ring conformer: 63.09196528011048 kcal/mol)

>  <smiles>  (41) 
COc1ccc(C2CCN(CC3CCCCC3)CC2)cc1

>  <score_type>  (41) 
oracle

>  <origin>  (41) 
adg

>  <m_score__min__energy>  (41) 
-8.4499999999999993

>  <m_primary>  (41) 
energy

$$$$
41:0
     RDKit          3D

 28 29  0  0  0  0  0  0  0  0999 V2000
   -6.5599   24.5600  -32.3726 H   0  0  0  0  0  0  0  0  0  0  0  0
   -5.8590   23.8160  -31.9660 C   0  0  0  0  0  0  0  0  0  0  0  0
   -4.8810   24.2080  -31.2110 N   0  0  0  0  0  0  0  0  0  0  0  0
   -5.0810   24.7480  -29.8690 C   0  0  0  0  0  0  0  0  0  0  0  0
   -4.3618   25.5624  -29.6970 H   0  0  0  0  0  0  0  0  0  0  0  0
   -4.9275   23.9409  -29.1376 H   0  0  0  0  0  0  0  0  0  0  0  0
   -6.4980   25.2900  -29.7090 C   0  0  0  0  0  0  0  0  0  0  0  0
   -6.7370   25.3814  -28.6392 H   0  0  0  0  0  0  0  0  0  0  0  0
   -6.5685   26.2786  -30.1862 H   0  0  0  0  0  0  0  0  0  0  0  0
   -7.2102   24.6008  -30.1862 H   0  0  0  0  0  0  0  0  0  0  0  0
   -6.0480   22.3900  -32.2890 C   0  0  0  0  0  0  0  0  0  0  0  0
   -5.0530   21.5080  -32.7150 C   0  0  0  0  0  0  0  0  0  0  0  0
   -3.6120   21.8520  -32.9250 C   0  0  0  0  0  0  0  0  0  0  0  0
   -3.1173   21.9701  -31.9496 H   0  0  0  0  0  0  0  0  0  0  0  0
   -3.1211   21.0458  -33.4899 H   0  0  0  0  0  0  0  0  0  0  0  0
   -3.5382   22.7930  -33.4899 H   0  0  0  0  0  0  0  0  0  0  0  0
   -5.5620   20.2710  -32.9220 N   0  0  0  0  0  0  0  0  0  0  0  0
   -5.0450   19.4220  -33.2420 H   0  0  0  0  0  0  0  0  0  0  0  0
   -6.8700   20.3570  -32.6300 C   0  0  0  0  0  0  0  0  0  0  0  0
   -7.8110   19.3310  -32.6930 C   0  0  0  0  0  0  0  0  0  0  0  0
   -7.5230   18.3170  -33.0075 H   0  0  0  0  0  0  0  0  0  0  0  0
   -9.1380   19.6300  -32.3430 C   0  0  0  0  0  0  0  0  0  0  0  0
   -9.9049   18.8424  -32.3833 H   0  0  0  0  0  0  0  0  0  0  0  0
   -9.4930   20.9350  -31.9400 C   0  0  0  0  0  0  0  0  0  0  0  0
  -10.5353   21.1572  -31.6674 H   0  0  0  0  0  0  0  0  0  0  0  0
   -8.5250   21.9540  -31.8840 C   0  0  0  0  0  0  0  0  0  0  0  0
   -8.7931   22.9738  -31.5706 H   0  0  0  0  0  0  0  0  0  0  0  0
   -7.2110   21.6310  -32.2390 C   0  0  0  0  0  0  0  0  0  0  0  0
  1  2  1  0
  2  3  2  0
  3  4  1  0
  4  5  1  0
  4  6  1  0
  4  7  1  0
  7  8  1  0
  7  9  1  0
  7 10  1  0
  2 11  1  0
 11 12  2  0
 12 13  1  0
 13 14  1  0
 13 15  1  0
 13 16  1  0
 12 17  1  0
 17 18  1  0
 17 19  1  0
 19 20  2  0
 20 21  1  0
 20 22  1  0
 22 23  1  0
 22 24  2  0
 24 25  1  0
 24 26  1  0
 26 27  1  0
 26 28  2  0
 28 11  1  0
 28 19  1  0
M  END
>  <UniqueID>  (42) 
37

>  <SMILES>  (42) 
CC/N=C/c1c(C)[nH]c2ccccc12

>  <Energy>  (42) 
55.717493675966445

>  <Genealogy>  (42) 
CC/N=C/c1c(C)[nH]c2ccccc12 (cis-trans isomerization)
CC/N=C/c1c(C)[nH]c2ccccc12 (3D coordinates assigned)
CC/N=C/c1c(C)[nH]c2ccccc12 (optimized conformer: 55.717493675966445 kcal/mol)

>  <smiles>  (42) 
CCN=Cc1c(C)[nH]c2ccccc12

>  <score_type>  (42) 
oracle

>  <origin>  (42) 
adg

>  <m_score__min__energy>  (42) 
-6.3099999999999996

>  <m_primary>  (42) 
energy

$$$$
42:0
     RDKit          3D

 44 48  0  0  0  0  0  0  0  0999 V2000
   -0.4650   26.6680  -23.2310 C   0  0  0  0  0  0  0  0  0  0  0  0
   -1.5990   26.8420  -24.1400 N   0  0  0  0  0  0  0  0  0  0  0  0
   -1.5110   25.9030  -25.2310 C   0  0  0  0  0  0  0  0  0  0  0  0
   -0.3110   25.1860  -25.4610 C   0  0  0  0  0  0  0  0  0  0  0  0
   -0.2240   24.2470  -26.5030 C   0  0  0  0  0  0  0  0  0  0  0  0
   -1.3440   24.0250  -27.3070 C   0  0  0  0  0  0  0  0  0  0  0  0
   -1.4280   23.1230  -28.3730 C   0  0  0  0  0  0  0  0  0  0  0  0
   -2.6900   23.1210  -28.9790 C   0  0  0  0  0  0  0  0  0  0  0  0
   -3.1150   22.2700  -30.1160 C   0  0  0  0  0  0  0  0  0  0  0  0
   -4.4800   22.1570  -30.4260 C   0  0  0  0  0  0  0  0  0  0  0  0
   -4.9300   21.3420  -31.4920 C   0  0  0  0  0  0  0  0  0  0  0  0
   -3.9620   20.6730  -32.2860 C   0  0  0  0  0  0  0  0  0  0  0  0
   -2.5960   20.7950  -31.9750 C   0  0  0  0  0  0  0  0  0  0  0  0
   -2.1770   21.5810  -30.9030 C   0  0  0  0  0  0  0  0  0  0  0  0
   -0.8440   21.7090  -30.6760 F   0  0  0  0  0  0  0  0  0  0  0  0
   -4.3860   19.9120  -33.3880 C   0  0  0  0  0  0  0  0  0  0  0  0
   -3.5550   19.3000  -34.1130 O   0  0  0  0  0  0  0  0  0  0  0  0
   -5.7420   19.8420  -33.6960 C   0  0  0  0  0  0  0  0  0  0  0  0
   -6.1660   19.1370  -34.7750 F   0  0  0  0  0  0  0  0  0  0  0  0
   -6.6670   20.5040  -32.8930 C   0  0  0  0  0  0  0  0  0  0  0  0
   -6.2740   21.1970  -31.7810 N   0  0  0  0  0  0  0  0  0  0  0  0
   -7.3190   21.8580  -30.9750 C   0  0  0  0  0  0  0  0  0  0  0  0
   -8.7330   21.6700  -31.5190 C   0  0  0  0  0  0  0  0  0  0  0  0
   -8.0450   23.0110  -31.6660 C   0  0  0  0  0  0  0  0  0  0  0  0
   -3.6870   24.2300  -28.1690 S   0  0  0  0  0  0  0  0  0  0  0  0
   -2.5190   24.7190  -27.0710 C   0  0  0  0  0  0  0  0  0  0  0  0
   -2.6360   25.6540  -26.0460 C   0  0  0  0  0  0  0  0  0  0  0  0
   -0.8175   26.7221  -22.1904 H   0  0  0  0  0  0  0  0  0  0  0  0
    0.0012   25.6878  -23.4097 H   0  0  0  0  0  0  0  0  0  0  0  0
    0.2736   27.4633  -23.4097 H   0  0  0  0  0  0  0  0  0  0  0  0
   -1.5960   27.8220  -24.5090 H   0  0  0  0  0  0  0  0  0  0  0  0
   -2.4900   26.6980  -23.6120 H   0  0  0  0  0  0  0  0  0  0  0  0
    0.5623   25.3662  -24.8169 H   0  0  0  0  0  0  0  0  0  0  0  0
    0.7110   23.6959  -26.6823 H   0  0  0  0  0  0  0  0  0  0  0  0
   -0.5935   22.4850  -28.6994 H   0  0  0  0  0  0  0  0  0  0  0  0
   -5.2156   22.7141  -29.8272 H   0  0  0  0  0  0  0  0  0  0  0  0
   -1.8499   20.2642  -32.5846 H   0  0  0  0  0  0  0  0  0  0  0  0
   -7.7341   20.4691  -33.1578 H   0  0  0  0  0  0  0  0  0  0  0  0
   -6.8214   21.7262  -30.0029 H   0  0  0  0  0  0  0  0  0  0  0  0
   -8.9014   21.0392  -32.4043 H   0  0  0  0  0  0  0  0  0  0  0  0
   -9.6892   21.3309  -31.0940 H   0  0  0  0  0  0  0  0  0  0  0  0
   -7.7141   23.3528  -32.6578 H   0  0  0  0  0  0  0  0  0  0  0  0
   -8.2955   24.0464  -31.3917 H   0  0  0  0  0  0  0  0  0  0  0  0
   -3.5834   26.1863  -25.8754 H   0  0  0  0  0  0  0  0  0  0  0  0
  1  2  1  0
  2  3  1  0
  3  4  2  0
  4  5  1  0
  5  6  2  0
  6  7  1  0
  7  8  2  0
  8  9  1  0
  9 10  2  0
 10 11  1  0
 11 12  2  0
 12 13  1  0
 13 14  2  0
 14 15  1  0
 12 16  1  0
 16 17  2  0
 16 18  1  0
 18 19  1  0
 18 20  2  0
 20 21  1  0
 21 22  1  0
 22 23  1  0
 23 24  1  0
  8 25  1  0
 25 26  1  0
 26 27  2  0
 27  3  1  0
 26  6  1  0
 14  9  1  0
 24 22  1  0
 21 11  1  0
  1 28  1  0
  1 29  1  0
  1 30  1  0
  2 31  1  0
  2 32  1  0
  4 33  1  0
  5 34  1  0
  7 35  1  0
 10 36  1  0
 13 37  1  0
 20 38  1  0
 22 39  1  0
 23 40  1  0
 23 41  1  0
 24 42  1  0
 24 43  1  0
 27 44  1  0
M  CHG  1   2   1
M  END
>  <UniqueID>  (43) 
38

>  <SMILES>  (43) 
C[NH2+]c1ccc2cc(-c3cc4c(cc3F)c(=O)c(F)cn4C3CC3)sc2c1

>  <Energy>  (43) 
358.30612867196584

>  <Genealogy>  (43) 
C[NH2+]c1ccc2cc(-c3cc4c(cc3F)c(=O)c(F)cn4C3CC3)sc2c1 (protonated)
C[NH2+]c1ccc2cc(-c3cc4c(cc3F)c(=O)c(F)cn4C3CC3)sc2c1 (3D coordinates assigned)
C[NH2+]c1ccc2cc(-c3cc4c(cc3F)c(=O)c(F)cn4C3CC3)sc2c1 (nonaromatic ring conformer: 358.30612867196584 kcal/mol)

>  <smiles>  (43) 
CNc1ccc2cc(-c3cc4c(cc3F)c(=O)c(F)cn4C3CC3)sc2c1

>  <score_type>  (43) 
oracle

>  <origin>  (43) 
adg

>  <m_score__min__energy>  (43) 
-8.8499999999999996

>  <m_primary>  (43) 
energy

$$$$
43:0
     RDKit          3D

 43 45  0  0  0  0  0  0  0  0999 V2000
   -4.1070   22.6940  -29.1600 C   0  0  0  0  0  0  0  0  0  0  0  0
   -3.8670   23.4370  -30.4690 C   0  0  0  0  0  0  0  0  0  0  0  0
   -5.1160   24.0520  -30.9500 N   0  0  0  0  0  0  0  0  0  0  0  0
   -5.5130   25.3690  -30.4300 C   0  0  0  0  0  0  0  0  0  0  0  0
   -6.8570   25.2790  -29.7160 C   0  0  0  0  0  0  0  0  0  0  0  0
   -5.8890   23.4370  -32.0050 C   0  0  0  0  0  0  0  0  0  0  0  0
   -6.6950   24.1320  -32.6810 O   0  0  0  0  0  0  0  0  0  0  0  0
   -5.7460   22.0040  -32.3420 C   0  0  0  0  0  0  0  0  0  0  0  0
   -4.5010   21.5530  -32.8020 C   0  0  0  0  0  0  0  0  0  0  0  0
   -4.3110   20.1960  -33.1080 C   0  0  0  0  0  0  0  0  0  0  0  0
   -3.0000   19.6840  -33.5760 C   0  0  0  0  0  0  0  0  0  0  0  0
   -1.9360   20.5790  -33.7900 C   0  0  0  0  0  0  0  0  0  0  0  0
   -0.7050   20.0950  -34.2320 C   0  0  0  0  0  0  0  0  0  0  0  0
   -0.5380   18.7310  -34.4650 C   0  0  0  0  0  0  0  0  0  0  0  0
   -1.6140   17.8670  -34.2580 C   0  0  0  0  0  0  0  0  0  0  0  0
   -2.8110   18.3520  -33.8260 N   0  0  0  0  0  0  0  0  0  0  0  0
   -5.3580   19.3340  -32.9860 N   0  0  0  0  0  0  0  0  0  0  0  0
   -6.5860   19.7340  -32.5670 C   0  0  0  0  0  0  0  0  0  0  0  0
   -7.6220   18.7970  -32.4710 C   0  0  0  0  0  0  0  0  0  0  0  0
   -8.8940   19.1980  -32.0580 C   0  0  0  0  0  0  0  0  0  0  0  0
   -9.1390   20.5360  -31.7430 C   0  0  0  0  0  0  0  0  0  0  0  0
   -8.1120   21.4800  -31.8340 C   0  0  0  0  0  0  0  0  0  0  0  0
   -6.8180   21.0900  -32.2360 C   0  0  0  0  0  0  0  0  0  0  0  0
   -3.8910   23.3628  -28.3138 H   0  0  0  0  0  0  0  0  0  0  0  0
   -5.1563   22.3675  -29.1107 H   0  0  0  0  0  0  0  0  0  0  0  0
   -3.4470   21.8154  -29.1107 H   0  0  0  0  0  0  0  0  0  0  0  0
   -3.1156   24.2236  -30.3061 H   0  0  0  0  0  0  0  0  0  0  0  0
   -3.5094   22.7212  -31.2238 H   0  0  0  0  0  0  0  0  0  0  0  0
   -4.7498   25.7233  -29.7214 H   0  0  0  0  0  0  0  0  0  0  0  0
   -5.6042   26.0709  -31.2721 H   0  0  0  0  0  0  0  0  0  0  0  0
   -6.6956   25.2898  -28.6280 H   0  0  0  0  0  0  0  0  0  0  0  0
   -7.4826   26.1373  -30.0024 H   0  0  0  0  0  0  0  0  0  0  0  0
   -7.3625   24.3450  -30.0024 H   0  0  0  0  0  0  0  0  0  0  0  0
   -3.6707   22.2642  -32.9235 H   0  0  0  0  0  0  0  0  0  0  0  0
   -2.0743   21.6553  -33.6096 H   0  0  0  0  0  0  0  0  0  0  0  0
    0.1328   20.7886  -34.3965 H   0  0  0  0  0  0  0  0  0  0  0  0
    0.4312   18.3400  -34.8082 H   0  0  0  0  0  0  0  0  0  0  0  0
   -1.4949   16.7895  -34.4446 H   0  0  0  0  0  0  0  0  0  0  0  0
   -3.5970   17.6730  -33.7170 H   0  0  0  0  0  0  0  0  0  0  0  0
   -7.4333   17.7427  -32.7215 H   0  0  0  0  0  0  0  0  0  0  0  0
   -9.7046   18.4585  -31.9806 H   0  0  0  0  0  0  0  0  0  0  0  0
  -10.1437   20.8484  -31.4221 H   0  0  0  0  0  0  0  0  0  0  0  0
   -8.3146   22.5334  -31.5905 H   0  0  0  0  0  0  0  0  0  0  0  0
  1  2  1  0
  2  3  1  0
  3  4  1  0
  4  5  1  0
  3  6  1  0
  6  7  2  0
  6  8  1  0
  8  9  2  0
  9 10  1  0
 10 11  1  0
 11 12  2  0
 12 13  1  0
 13 14  2  0
 14 15  1  0
 15 16  2  0
 10 17  2  0
 17 18  1  0
 18 19  2  0
 19 20  1  0
 20 21  2  0
 21 22  1  0
 22 23  2  0
 23  8  1  0
 16 11  1  0
 23 18  1  0
  1 24  1  0
  1 25  1  0
  1 26  1  0
  2 27  1  0
  2 28  1  0
  4 29  1  0
  4 30  1  0
  5 31  1  0
  5 32  1  0
  5 33  1  0
  9 34  1  0
 12 35  1  0
 13 36  1  0
 14 37  1  0
 15 38  1  0
 16 39  1  0
 19 40  1  0
 20 41  1  0
 21 42  1  0
 22 43  1  0
M  CHG  1  16   1
M  END
>  <UniqueID>  (44) 
39

>  <SMILES>  (44) 
CCN(CC)C(=O)c1cc(-c2cccc[nH+]2)nc2ccccc12

>  <Energy>  (44) 
52.416709171037155

>  <Genealogy>  (44) 
CCN(CC)C(=O)c1cc(-c2cccc[nH+]2)nc2ccccc12 (protonated)
CCN(CC)C(=O)c1cc(-c2cccc[nH+]2)nc2ccccc12 (3D coordinates assigned)
CCN(CC)C(=O)c1cc(-c2cccc[nH+]2)nc2ccccc12 (optimized conformer: 52.416709171037155 kcal/mol)

>  <smiles>  (44) 
CCN(CC)C(=O)c1cc(-c2ccccn2)nc2ccccc12

>  <score_type>  (44) 
oracle

>  <origin>  (44) 
adg

>  <m_score__min__energy>  (44) 
-7.6500000000000004

>  <m_primary>  (44) 
energy

$$$$
44:0
     RDKit          3D

 52 55  0  0  0  0  0  0  0  0999 V2000
    1.9630   24.5220  -27.8230 C   0  0  0  0  0  0  0  0  0  0  0  0
    0.5950   24.8990  -27.9390 O   0  0  0  0  0  0  0  0  0  0  0  0
   -0.1750   25.4380  -26.8970 C   0  0  0  0  0  0  0  0  0  0  0  0
    0.3800   26.2990  -25.9280 C   0  0  0  0  0  0  0  0  0  0  0  0
   -0.4250   26.8400  -24.9210 C   0  0  0  0  0  0  0  0  0  0  0  0
   -1.7850   26.5330  -24.8700 C   0  0  0  0  0  0  0  0  0  0  0  0
   -2.3440   25.6780  -25.8210 C   0  0  0  0  0  0  0  0  0  0  0  0
   -1.5460   25.1200  -26.8300 C   0  0  0  0  0  0  0  0  0  0  0  0
   -2.1330   24.2350  -27.7970 N   0  0  0  0  0  0  0  0  0  0  0  0
   -1.9150   24.4870  -29.2250 C   0  0  0  0  0  0  0  0  0  0  0  0
   -2.6210   23.4240  -30.0780 C   0  0  0  0  0  0  0  0  0  0  0  0
   -3.9800   23.1250  -29.5650 N   0  0  0  0  0  0  0  0  0  0  0  0
   -4.8750   24.3060  -29.7080 C   0  0  0  0  0  0  0  0  0  0  0  0
   -5.5110   24.4230  -31.1100 C   0  0  0  0  0  0  0  0  0  0  0  0
   -6.3870   23.2740  -31.4090 N   0  0  0  0  0  0  0  0  0  0  0  0
   -7.7360   23.4210  -31.2490 C   0  0  0  0  0  0  0  0  0  0  0  0
   -8.5830   22.3970  -31.5240 N   0  0  0  0  0  0  0  0  0  0  0  0
   -8.1220   21.2020  -31.9640 C   0  0  0  0  0  0  0  0  0  0  0  0
   -9.0190   20.1640  -32.2420 C   0  0  0  0  0  0  0  0  0  0  0  0
   -8.5440   18.9310  -32.6970 C   0  0  0  0  0  0  0  0  0  0  0  0
   -7.1710   18.7290  -32.8770 C   0  0  0  0  0  0  0  0  0  0  0  0
   -6.5290   17.0420  -33.5000 Br  0  0  0  0  0  0  0  0  0  0  0  0
   -6.2680   19.7620  -32.6020 C   0  0  0  0  0  0  0  0  0  0  0  0
   -6.7380   21.0080  -32.1420 C   0  0  0  0  0  0  0  0  0  0  0  0
   -5.8740   22.0790  -31.8520 C   0  0  0  0  0  0  0  0  0  0  0  0
   -4.6290   21.9370  -32.0050 O   0  0  0  0  0  0  0  0  0  0  0  0
   -3.9580   22.6010  -28.1660 C   0  0  0  0  0  0  0  0  0  0  0  0
   -2.6800   22.9450  -27.3720 C   0  0  0  0  0  0  0  0  0  0  0  0
    2.2338   24.4474  -26.7595 H   0  0  0  0  0  0  0  0  0  0  0  0
    2.1174   23.5478  -28.3099 H   0  0  0  0  0  0  0  0  0  0  0  0
    2.5947   25.2795  -28.3099 H   0  0  0  0  0  0  0  0  0  0  0  0
    1.4512   26.5462  -25.9645 H   0  0  0  0  0  0  0  0  0  0  0  0
    0.0150   27.5093  -24.1671 H   0  0  0  0  0  0  0  0  0  0  0  0
   -2.4169   26.9650  -24.0800 H   0  0  0  0  0  0  0  0  0  0  0  0
   -3.4172   25.4404  -25.7787 H   0  0  0  0  0  0  0  0  0  0  0  0
   -2.3143   25.4793  -29.4815 H   0  0  0  0  0  0  0  0  0  0  0  0
   -0.8352   24.4451  -29.4305 H   0  0  0  0  0  0  0  0  0  0  0  0
   -2.7028   23.7923  -31.1113 H   0  0  0  0  0  0  0  0  0  0  0  0
   -2.0267   22.4993  -30.0358 H   0  0  0  0  0  0  0  0  0  0  0  0
   -4.3450   22.3650  -30.1840 H   0  0  0  0  0  0  0  0  0  0  0  0
   -5.6814   24.2252  -28.9643 H   0  0  0  0  0  0  0  0  0  0  0  0
   -4.2579   25.2035  -29.5538 H   0  0  0  0  0  0  0  0  0  0  0  0
   -6.1065   25.3467  -31.1554 H   0  0  0  0  0  0  0  0  0  0  0  0
   -4.7009   24.4395  -31.8539 H   0  0  0  0  0  0  0  0  0  0  0  0
   -8.1400   24.3803  -30.8932 H   0  0  0  0  0  0  0  0  0  0  0  0
  -10.0990   20.3190  -32.1022 H   0  0  0  0  0  0  0  0  0  0  0  0
   -9.2513   18.1170  -32.9142 H   0  0  0  0  0  0  0  0  0  0  0  0
   -5.1893   19.6009  -32.7452 H   0  0  0  0  0  0  0  0  0  0  0  0
   -4.8201   23.0222  -27.6281 H   0  0  0  0  0  0  0  0  0  0  0  0
   -3.9919   21.5042  -28.2429 H   0  0  0  0  0  0  0  0  0  0  0  0
   -2.9235   22.9924  -26.3003 H   0  0  0  0  0  0  0  0  0  0  0  0
   -1.9280   22.1647  -27.5607 H   0  0  0  0  0  0  0  0  0  0  0  0
  1  2  1  0
  2  3  1  0
  3  4  2  0
  4  5  1  0
  5  6  2  0
  6  7  1  0
  7  8  2  0
  8  9  1  0
  9 10  1  0
 10 11  1  0
 11 12  1  0
 12 13  1  0
 13 14  1  0
 14 15  1  0
 15 16  1  0
 16 17  2  0
 17 18  1  0
 18 19  2  0
 19 20  1  0
 20 21  2  0
 21 22  1  0
 21 23  1  0
 23 24  2  0
 24 25  1  0
 25 26  2  0
 12 27  1  0
 27 28  1  0
  8  3  1  0
 28  9  1  0
 25 15  1  0
 24 18  1  0
  1 29  1  0
  1 30  1  0
  1 31  1  0
  4 32  1  0
  5 33  1  0
  6 34  1  0
  7 35  1  0
 10 36  1  0
 10 37  1  0
 11 38  1  0
 11 39  1  0
 12 40  1  0
 13 41  1  0
 13 42  1  0
 14 43  1  0
 14 44  1  0
 16 45  1  0
 19 46  1  0
 20 47  1  0
 23 48  1  0
 27 49  1  0
 27 50  1  0
 28 51  1  0
 28 52  1  0
M  CHG  1  12   1
M  END
>  <UniqueID>  (45) 
40

>  <SMILES>  (45) 
COc1ccccc1N1CC[NH+](CCn2cnc3ccc(Br)cc3c2=O)CC1

>  <Energy>  (45) 
73.86091839037557

>  <Genealogy>  (45) 
COc1ccccc1N1CC[NH+](CCn2cnc3ccc(Br)cc3c2=O)CC1 (protonated)
COc1ccccc1N1CC[NH+](CCn2cnc3ccc(Br)cc3c2=O)CC1 (3D coordinates assigned)
COc1ccccc1N1CC[NH+](CCn2cnc3ccc(Br)cc3c2=O)CC1 (nonaromatic ring conformer: 73.86091839037557 kcal/mol)

>  <smiles>  (45) 
COc1ccccc1N1CCN(CCn2cnc3ccc(Br)cc3c2=O)CC1

>  <score_type>  (45) 
oracle

>  <origin>  (45) 
adg

>  <m_score__min__energy>  (45) 
-8.1699999999999999

>  <m_primary>  (45) 
energy

$$$$
45:0
     RDKit          3D

 39 41  0  0  0  0  0  0  0  0999 V2000
   -3.4290   18.6310  -26.0250 C   0  0  0  0  0  0  0  0  0  0  0  0
   -2.0760   18.6700  -26.7260 C   0  0  0  0  0  0  0  0  0  0  0  0
   -1.6130   20.0120  -26.8510 O   0  0  0  0  0  0  0  0  0  0  0  0
   -1.4810   20.6740  -28.0790 C   0  0  0  0  0  0  0  0  0  0  0  0
   -1.6320   20.0390  -29.1590 O   0  0  0  0  0  0  0  0  0  0  0  0
   -1.1580   22.1180  -28.1070 C   0  0  0  0  0  0  0  0  0  0  0  0
    0.0440   22.5940  -27.5540 C   0  0  0  0  0  0  0  0  0  0  0  0
    0.3480   23.9570  -27.5960 C   0  0  0  0  0  0  0  0  0  0  0  0
   -0.5430   24.8600  -28.1790 C   0  0  0  0  0  0  0  0  0  0  0  0
   -1.7610   24.4040  -28.7140 C   0  0  0  0  0  0  0  0  0  0  0  0
   -2.6930   25.2950  -29.3440 N   0  0  0  0  0  0  0  0  0  0  0  0
   -3.9210   24.9250  -29.9820 C   0  0  0  0  0  0  0  0  0  0  0  0
   -4.1880   25.3200  -31.1480 O   0  0  0  0  0  0  0  0  0  0  0  0
   -4.9190   24.1010  -29.2310 C   0  0  0  0  0  0  0  0  0  0  0  0
   -5.7940   23.4040  -30.1670 N   0  0  0  0  0  0  0  0  0  0  0  0
   -7.1200   23.5100  -30.1880 N   0  0  0  0  0  0  0  0  0  0  0  0
   -7.6500   22.7100  -31.1120 N   0  0  0  0  0  0  0  0  0  0  0  0
   -6.6100   22.0730  -31.6830 C   0  0  0  0  0  0  0  0  0  0  0  0
   -6.6190   21.1150  -32.6910 C   0  0  0  0  0  0  0  0  0  0  0  0
   -5.3760   20.5860  -33.0930 C   0  0  0  0  0  0  0  0  0  0  0  0
   -4.1760   21.0250  -32.4810 C   0  0  0  0  0  0  0  0  0  0  0  0
   -4.2080   21.9970  -31.4610 C   0  0  0  0  0  0  0  0  0  0  0  0
   -5.4570   22.4970  -31.0980 C   0  0  0  0  0  0  0  0  0  0  0  0
   -2.0510   23.0340  -28.6920 C   0  0  0  0  0  0  0  0  0  0  0  0
   -3.2777   18.6354  -24.9355 H   0  0  0  0  0  0  0  0  0  0  0  0
   -4.0187   19.5125  -26.3168 H   0  0  0  0  0  0  0  0  0  0  0  0
   -3.9670   17.7170  -26.3168 H   0  0  0  0  0  0  0  0  0  0  0  0
   -1.3484   18.0899  -26.1394 H   0  0  0  0  0  0  0  0  0  0  0  0
   -2.1857   18.2382  -27.7317 H   0  0  0  0  0  0  0  0  0  0  0  0
    0.7481   21.8901  -27.0862 H   0  0  0  0  0  0  0  0  0  0  0  0
    1.2938   24.3204  -27.1677 H   0  0  0  0  0  0  0  0  0  0  0  0
   -0.2918   25.9302  -28.2199 H   0  0  0  0  0  0  0  0  0  0  0  0
   -4.3893   23.3641  -28.6094 H   0  0  0  0  0  0  0  0  0  0  0  0
   -5.5249   24.7604  -28.5921 H   0  0  0  0  0  0  0  0  0  0  0  0
   -7.5590   20.7832  -33.1562 H   0  0  0  0  0  0  0  0  0  0  0  0
   -5.3373   19.8266  -33.8879 H   0  0  0  0  0  0  0  0  0  0  0  0
   -3.2125   20.6042  -32.8043 H   0  0  0  0  0  0  0  0  0  0  0  0
   -3.2864   22.3460  -30.9723 H   0  0  0  0  0  0  0  0  0  0  0  0
   -2.9885   22.6699  -29.1376 H   0  0  0  0  0  0  0  0  0  0  0  0
  1  2  1  0
  2  3  1  0
  3  4  1  0
  4  5  2  0
  4  6  1  0
  6  7  2  0
  7  8  1  0
  8  9  2  0
  9 10  1  0
 10 11  1  0
 11 12  1  0
 12 13  2  0
 12 14  1  0
 14 15  1  0
 15 16  1  0
 16 17  2  0
 17 18  1  0
 18 19  2  0
 19 20  1  0
 20 21  2  0
 21 22  1  0
 22 23  2  0
 10 24  2  0
 24  6  1  0
 23 15  1  0
 23 18  1  0
  1 25  1  0
  1 26  1  0
  1 27  1  0
  2 28  1  0
  2 29  1  0
  7 30  1  0
  8 31  1  0
  9 32  1  0
 14 33  1  0
 14 34  1  0
 19 35  1  0
 20 36  1  0
 21 37  1  0
 22 38  1  0
 24 39  1  0
M  CHG  1  11  -1
M  END
>  <UniqueID>  (46) 
41

>  <SMILES>  (46) 
CCOC(=O)c1cccc([N-]C(=O)Cn2nnc3ccccc32)c1

>  <Energy>  (46) 
83.64179978619302

>  <Genealogy>  (46) 
CCOC(=O)c1cccc([N-]C(=O)Cn2nnc3ccccc32)c1 (protonated)
CCOC(=O)c1cccc([N-]C(=O)Cn2nnc3ccccc32)c1 (3D coordinates assigned)
CCOC(=O)c1cccc([N-]C(=O)Cn2nnc3ccccc32)c1 (optimized conformer: 83.64179978619302 kcal/mol)

>  <smiles>  (46) 
CCOC(=O)c1cccc(NC(=O)Cn2nnc3ccccc32)c1

>  <score_type>  (46) 
oracle

>  <origin>  (46) 
adg

>  <m_score__min__energy>  (46) 
-9.8300000000000001

>  <m_primary>  (46) 
energy

$$$$
46:0
     RDKit          3D

 40 42  0  0  0  0  0  0  0  0999 V2000
   -9.4660   21.5610  -30.1200 C   0  0  0  0  0  0  0  0  0  0  0  0
   -8.8910   20.9110  -31.3310 C   0  0  0  0  0  0  0  0  0  0  0  0
   -9.6050   20.5980  -32.4310 N   0  0  0  0  0  0  0  0  0  0  0  0
   -8.7450   20.0240  -33.2540 N   0  0  0  0  0  0  0  0  0  0  0  0
   -7.5510   20.0000  -32.6390 C   0  0  0  0  0  0  0  0  0  0  0  0
   -6.2980   19.4440  -33.2330 C   0  0  0  0  0  0  0  0  0  0  0  0
   -5.1820   19.5650  -32.2790 N   0  0  0  0  0  0  0  0  0  0  0  0
   -3.9740   20.1670  -32.8830 C   0  0  2  0  0  0  0  0  0  0  0  0
   -2.7170   19.8680  -32.0160 C   0  0  0  0  0  0  0  0  0  0  0  0
   -1.7240   21.0340  -31.9920 C   0  0  0  0  0  0  0  0  0  0  0  0
   -2.3980   22.2770  -31.3900 C   0  0  0  0  0  0  0  0  0  0  0  0
   -3.7740   22.4400  -31.8910 N   0  0  0  0  0  0  0  0  0  0  0  0
   -4.7210   23.2790  -31.1900 C   0  0  0  0  0  0  0  0  0  0  0  0
   -5.9650   22.7780  -30.7630 C   0  0  0  0  0  0  0  0  0  0  0  0
   -6.8560   23.6220  -30.0970 C   0  0  0  0  0  0  0  0  0  0  0  0
   -6.5100   24.9520  -29.8600 C   0  0  0  0  0  0  0  0  0  0  0  0
   -5.2700   25.4200  -30.2940 C   0  0  0  0  0  0  0  0  0  0  0  0
   -4.4150   24.5850  -30.9400 N   0  0  0  0  0  0  0  0  0  0  0  0
   -4.1780   21.6900  -33.0890 C   0  0  0  0  0  0  0  0  0  0  0  0
   -7.6340   20.5430  -31.4470 O   0  0  0  0  0  0  0  0  0  0  0  0
   -9.0490   21.0896  -29.2179 H   0  0  0  0  0  0  0  0  0  0  0  0
   -9.2141   22.6318  -30.1240 H   0  0  0  0  0  0  0  0  0  0  0  0
  -10.5595   21.4416  -30.1240 H   0  0  0  0  0  0  0  0  0  0  0  0
   -8.9750   19.6640  -34.2070 H   0  0  0  0  0  0  0  0  0  0  0  0
   -6.4524   18.3828  -33.4780 H   0  0  0  0  0  0  0  0  0  0  0  0
   -6.0526   20.0094  -34.1441 H   0  0  0  0  0  0  0  0  0  0  0  0
   -5.5150   20.1970  -31.5120 H   0  0  0  0  0  0  0  0  0  0  0  0
   -3.8071   19.7126  -33.8708 H   0  0  0  0  0  0  0  0  0  0  0  0
   -3.0415   19.6609  -30.9855 H   0  0  0  0  0  0  0  0  0  0  0  0
   -2.2036   19.0037  -32.4625 H   0  0  0  0  0  0  0  0  0  0  0  0
   -0.8519   20.7589  -31.3806 H   0  0  0  0  0  0  0  0  0  0  0  0
   -1.3999   21.2572  -33.0192 H   0  0  0  0  0  0  0  0  0  0  0  0
   -2.4259   22.1738  -30.2952 H   0  0  0  0  0  0  0  0  0  0  0  0
   -1.8158   23.1626  -31.6846 H   0  0  0  0  0  0  0  0  0  0  0  0
   -6.2336   21.7283  -30.9527 H   0  0  0  0  0  0  0  0  0  0  0  0
   -7.8300   23.2381  -29.7596 H   0  0  0  0  0  0  0  0  0  0  0  0
   -7.2066   25.6238  -29.3371 H   0  0  0  0  0  0  0  0  0  0  0  0
   -4.9839   26.4666  -30.1130 H   0  0  0  0  0  0  0  0  0  0  0  0
   -5.2404   21.8864  -33.2956 H   0  0  0  0  0  0  0  0  0  0  0  0
   -3.5554   22.0168  -33.9349 H   0  0  0  0  0  0  0  0  0  0  0  0
  1  2  1  0
  2  3  2  0
  3  4  1  0
  4  5  2  0
  5  6  1  0
  6  7  1  0
  7  8  1  0
  8  9  1  0
  9 10  1  0
 10 11  1  0
 11 12  1  0
 12 13  1  0
 13 14  2  0
 14 15  1  0
 15 16  2  0
 16 17  1  0
 17 18  2  0
 12 19  1  0
  5 20  1  0
 20  2  1  0
 19  8  1  0
 18 13  1  0
  1 21  1  0
  1 22  1  0
  1 23  1  0
  4 24  1  0
  6 25  1  0
  6 26  1  0
  7 27  1  0
  8 28  1  6
  9 29  1  0
  9 30  1  0
 10 31  1  0
 10 32  1  0
 11 33  1  0
 11 34  1  0
 14 35  1  0
 15 36  1  0
 16 37  1  0
 17 38  1  0
 19 39  1  0
 19 40  1  0
M  CHG  1   4   1
M  END
>  <UniqueID>  (47) 
42

>  <SMILES>  (47) 
Cc1n[nH+]c(CN[C@@H]2CCCN(c3ccccn3)C2)o1

>  <Energy>  (47) 
80.61362674539983

>  <Genealogy>  (47) 
Cc1n[nH+]c(CNC2CCCN(c3ccccn3)C2)o1 (protonated)
Cc1n[nH+]c(CN[C@@H]2CCCN(c3ccccn3)C2)o1 (chirality)
Cc1n[nH+]c(CN[C@@H]2CCCN(c3ccccn3)C2)o1 (3D coordinates assigned)
Cc1n[nH+]c(CN[C@@H]2CCCN(c3ccccn3)C2)o1 (nonaromatic ring conformer: 80.61362674539983 kcal/mol)

>  <smiles>  (47) 
Cc1nnc(CNC2CCCN(c3ccccn3)C2)o1

>  <score_type>  (47) 
oracle

>  <origin>  (47) 
adg

>  <m_score__min__energy>  (47) 
-6.8099999999999996

>  <m_primary>  (47) 
energy

$$$$
47:0
     RDKit          3D

 49 53  0  0  0  0  0  0  0  0999 V2000
   -6.4920   16.5240  -34.3630 C   0  0  0  0  0  0  0  0  0  0  0  0
   -5.1280   16.7460  -33.8520 N   0  0  0  0  0  0  0  0  0  0  0  0
   -5.0650   16.6170  -32.3810 C   0  0  0  0  0  0  0  0  0  0  0  0
   -5.7310   17.8060  -31.6730 C   0  0  0  0  0  0  0  0  0  0  0  0
   -5.3370   19.0700  -32.2970 N   0  0  0  0  0  0  0  0  0  0  0  0
   -5.7770   20.3040  -31.7130 C   0  0  0  0  0  0  0  0  0  0  0  0
   -4.8750   21.1030  -31.0760 N   0  0  0  0  0  0  0  0  0  0  0  0
   -5.2480   22.2900  -30.5140 C   0  0  0  0  0  0  0  0  0  0  0  0
   -4.2520   23.1600  -29.8370 C   0  0  0  0  0  0  0  0  0  0  0  0
   -3.4930   22.6620  -28.7640 C   0  0  0  0  0  0  0  0  0  0  0  0
   -2.5450   23.4740  -28.1320 C   0  0  0  0  0  0  0  0  0  0  0  0
   -1.7760   22.9960  -27.0590 C   0  0  0  0  0  0  0  0  0  0  0  0
   -0.8320   23.8320  -26.4480 C   0  0  0  0  0  0  0  0  0  0  0  0
    0.2120   23.1810  -24.9880 Br  0  0  0  0  0  0  0  0  0  0  0  0
   -0.6550   25.1420  -26.9050 C   0  0  0  0  0  0  0  0  0  0  0  0
   -1.4160   25.6240  -27.9750 C   0  0  0  0  0  0  0  0  0  0  0  0
   -2.3610   24.7950  -28.5910 C   0  0  0  0  0  0  0  0  0  0  0  0
   -3.0990   25.2590  -29.6330 N   0  0  0  0  0  0  0  0  0  0  0  0
   -4.0270   24.4890  -30.2600 C   0  0  0  0  0  0  0  0  0  0  0  0
   -4.6890   24.9840  -31.2110 O   0  0  0  0  0  0  0  0  0  0  0  0
   -6.5470   22.6860  -30.5810 N   0  0  0  0  0  0  0  0  0  0  0  0
   -7.4880   21.9280  -31.1990 C   0  0  0  0  0  0  0  0  0  0  0  0
   -8.8170   22.3660  -31.2460 C   0  0  0  0  0  0  0  0  0  0  0  0
   -9.7890   21.5840  -31.8770 C   0  0  0  0  0  0  0  0  0  0  0  0
   -9.4360   20.3630  -32.4600 C   0  0  0  0  0  0  0  0  0  0  0  0
   -8.1110   19.9190  -32.4180 C   0  0  0  0  0  0  0  0  0  0  0  0
   -7.1250   20.7010  -31.7910 C   0  0  0  0  0  0  0  0  0  0  0  0
   -4.2800   19.0860  -33.3100 C   0  0  0  0  0  0  0  0  0  0  0  0
   -4.5350   18.0050  -34.3780 C   0  0  0  0  0  0  0  0  0  0  0  0
   -7.1864   16.4110  -33.5174 H   0  0  0  0  0  0  0  0  0  0  0  0
   -6.7982   17.3841  -34.9765 H   0  0  0  0  0  0  0  0  0  0  0  0
   -6.5097   15.6112  -34.9765 H   0  0  0  0  0  0  0  0  0  0  0  0
   -5.5797   15.6917  -32.0828 H   0  0  0  0  0  0  0  0  0  0  0  0
   -4.0056   16.5942  -32.0858 H   0  0  0  0  0  0  0  0  0  0  0  0
   -6.8238   17.6976  -31.7368 H   0  0  0  0  0  0  0  0  0  0  0  0
   -5.4078   17.8162  -30.6216 H   0  0  0  0  0  0  0  0  0  0  0  0
   -3.8820   20.7840  -31.0130 H   0  0  0  0  0  0  0  0  0  0  0  0
   -3.6451   21.6285  -28.4193 H   0  0  0  0  0  0  0  0  0  0  0  0
   -1.9145   21.9661  -26.6983 H   0  0  0  0  0  0  0  0  0  0  0  0
    0.0856   25.7957  -26.4210 H   0  0  0  0  0  0  0  0  0  0  0  0
   -1.2720   26.6543  -28.3324 H   0  0  0  0  0  0  0  0  0  0  0  0
   -9.0964   23.3255  -30.7864 H   0  0  0  0  0  0  0  0  0  0  0  0
  -10.8326   21.9296  -31.9149 H   0  0  0  0  0  0  0  0  0  0  0  0
  -10.2039   19.7494  -32.9537 H   0  0  0  0  0  0  0  0  0  0  0  0
   -7.8395   18.9565  -32.8761 H   0  0  0  0  0  0  0  0  0  0  0  0
   -4.2579   20.0737  -33.7936 H   0  0  0  0  0  0  0  0  0  0  0  0
   -3.3168   18.8801  -32.8203 H   0  0  0  0  0  0  0  0  0  0  0  0
   -5.2219   18.4203  -35.1301 H   0  0  0  0  0  0  0  0  0  0  0  0
   -3.5523   17.7381  -34.7939 H   0  0  0  0  0  0  0  0  0  0  0  0
  1  2  1  0
  2  3  1  0
  3  4  1  0
  4  5  1  0
  5  6  1  0
  6  7  2  0
  7  8  1  0
  8  9  1  0
  9 10  2  0
 10 11  1  0
 11 12  2  0
 12 13  1  0
 13 14  1  0
 13 15  2  0
 15 16  1  0
 16 17  2  0
 17 18  1  0
 18 19  1  0
 19 20  2  0
  8 21  2  0
 21 22  1  0
 22 23  2  0
 23 24  1  0
 24 25  2  0
 25 26  1  0
 26 27  2  0
  5 28  1  0
 28 29  1  0
 29  2  1  0
 27  6  1  0
 19  9  1  0
 27 22  1  0
 17 11  1  0
  1 30  1  0
  1 31  1  0
  1 32  1  0
  3 33  1  0
  3 34  1  0
  4 35  1  0
  4 36  1  0
  7 37  1  0
 10 38  1  0
 12 39  1  0
 15 40  1  0
 16 41  1  0
 23 42  1  0
 24 43  1  0
 25 44  1  0
 26 45  1  0
 28 46  1  0
 28 47  1  0
 29 48  1  0
 29 49  1  0
M  CHG  2   7   1  18  -1
M  END
>  <UniqueID>  (48) 
43

>  <SMILES>  (48) 
CN1CCN(c2[nH+]c(-c3cc4cc(Br)ccc4[n-]c3=O)nc3ccccc23)CC1

>  <Energy>  (48) 
78.49230518553946

>  <Genealogy>  (48) 
CN1CCN(c2[nH+]c(-c3cc4cc(Br)ccc4[n-]c3=O)nc3ccccc23)CC1 (protonated)
CN1CCN(c2[nH+]c(-c3cc4cc(Br)ccc4[n-]c3=O)nc3ccccc23)CC1 (3D coordinates assigned)
CN1CCN(c2[nH+]c(-c3cc4cc(Br)ccc4[n-]c3=O)nc3ccccc23)CC1 (nonaromatic ring conformer: 78.49230518553946 kcal/mol)

>  <smiles>  (48) 
CN1CCN(c2nc(-c3cc4cc(Br)ccc4[nH]c3=O)nc3ccccc23)CC1

>  <score_type>  (48) 
oracle

>  <origin>  (48) 
adg

>  <m_score__min__energy>  (48) 
-11.619999999999999

>  <m_primary>  (48) 
energy

$$$$
48:0
     RDKit          3D

 47 49  0  0  0  0  0  0  0  0999 V2000
   -6.9490   12.6420  -34.1340 C   0  0  0  0  0  0  0  0  0  0  0  0
   -7.5610   13.7650  -34.9620 C   0  0  0  0  0  0  0  0  0  0  0  0
   -7.3750   15.0240  -34.3180 O   0  0  0  0  0  0  0  0  0  0  0  0
   -6.1340   15.6670  -34.2170 C   0  0  0  0  0  0  0  0  0  0  0  0
   -5.0950   15.0900  -34.6390 O   0  0  0  0  0  0  0  0  0  0  0  0
   -6.0530   17.0230  -33.6060 C   0  0  0  0  0  0  0  0  0  0  0  0
   -7.1470   17.5130  -32.8800 C   0  0  0  0  0  0  0  0  0  0  0  0
   -7.1370   18.7540  -32.3050 N   0  0  0  0  0  0  0  0  0  0  0  0
   -8.3550   19.1630  -31.5740 C   0  0  0  0  0  0  0  0  0  0  0  0
   -9.1530   20.1840  -32.3820 C   0  0  0  0  0  0  0  0  0  0  0  0
   -6.0130   19.5540  -32.3910 C   0  0  0  0  0  0  0  0  0  0  0  0
   -5.9440   20.8230  -31.7640 C   0  0  0  0  0  0  0  0  0  0  0  0
   -4.8000   21.6260  -31.8730 C   0  0  0  0  0  0  0  0  0  0  0  0
   -4.7560   22.9100  -31.2260 N   0  0  0  0  0  0  0  0  0  0  0  0
   -5.6690   23.9670  -31.6810 C   0  0  0  0  0  0  0  0  0  0  0  0
   -5.4900   25.2350  -30.8480 C   0  0  0  0  0  0  0  0  0  0  0  0
   -4.0580   25.4800  -30.6610 N   0  0  0  0  0  0  0  0  0  0  0  0
   -3.4390   24.4660  -29.7880 C   0  0  0  0  0  0  0  0  0  0  0  0
   -4.0480   23.0540  -29.9470 C   0  0  0  0  0  0  0  0  0  0  0  0
   -3.7000   21.1670  -32.6040 C   0  0  0  0  0  0  0  0  0  0  0  0
   -2.5680   21.9110  -32.6870 F   0  0  0  0  0  0  0  0  0  0  0  0
   -3.7400   19.9190  -33.2200 C   0  0  0  0  0  0  0  0  0  0  0  0
   -4.8830   19.1020  -33.1210 C   0  0  0  0  0  0  0  0  0  0  0  0
   -4.9130   17.8360  -33.7300 C   0  0  0  0  0  0  0  0  0  0  0  0
   -3.9120   17.4290  -34.3850 O   0  0  0  0  0  0  0  0  0  0  0  0
   -7.0714   12.8666  -33.0642 H   0  0  0  0  0  0  0  0  0  0  0  0
   -7.4555   11.6945  -34.3700 H   0  0  0  0  0  0  0  0  0  0  0  0
   -5.8782   12.5541  -34.3700 H   0  0  0  0  0  0  0  0  0  0  0  0
   -7.0781   13.7898  -35.9500 H   0  0  0  0  0  0  0  0  0  0  0  0
   -8.6397   13.5782  -35.0695 H   0  0  0  0  0  0  0  0  0  0  0  0
   -8.0403   16.8808  -32.7693 H   0  0  0  0  0  0  0  0  0  0  0  0
   -8.9815   18.2773  -31.3923 H   0  0  0  0  0  0  0  0  0  0  0  0
   -8.0570   19.6224  -30.6200 H   0  0  0  0  0  0  0  0  0  0  0  0
   -9.6825   20.8615  -31.6960 H   0  0  0  0  0  0  0  0  0  0  0  0
   -8.4680   20.7661  -33.0160 H   0  0  0  0  0  0  0  0  0  0  0  0
   -9.8833   19.6599  -33.0160 H   0  0  0  0  0  0  0  0  0  0  0  0
   -6.8039   21.1846  -31.1811 H   0  0  0  0  0  0  0  0  0  0  0  0
   -5.4581   24.1960  -32.7360 H   0  0  0  0  0  0  0  0  0  0  0  0
   -6.7039   23.6126  -31.5652 H   0  0  0  0  0  0  0  0  0  0  0  0
   -5.9456   26.0884  -31.3715 H   0  0  0  0  0  0  0  0  0  0  0  0
   -5.9784   25.1113  -29.8701 H   0  0  0  0  0  0  0  0  0  0  0  0
   -3.9450   26.4170  -30.2070 H   0  0  0  0  0  0  0  0  0  0  0  0
   -2.3666   24.4105  -30.0263 H   0  0  0  0  0  0  0  0  0  0  0  0
   -3.6225   24.7803  -28.7499 H   0  0  0  0  0  0  0  0  0  0  0  0
   -3.2395   22.3095  -29.9010 H   0  0  0  0  0  0  0  0  0  0  0  0
   -4.7725   22.8988  -29.1340 H   0  0  0  0  0  0  0  0  0  0  0  0
   -2.8683   19.5668  -33.7910 H   0  0  0  0  0  0  0  0  0  0  0  0
  1  2  1  0
  2  3  1  0
  3  4  1  0
  4  5  2  0
  4  6  1  0
  6  7  2  0
  7  8  1  0
  8  9  1  0
  9 10  1  0
  8 11  1  0
 11 12  2  0
 12 13  1  0
 13 14  1  0
 14 15  1  0
 15 16  1  0
 16 17  1  0
 17 18  1  0
 18 19  1  0
 13 20  2  0
 20 21  1  0
 20 22  1  0
 22 23  2  0
 23 24  1  0
 24 25  2  0
 24  6  1  0
 23 11  1  0
 19 14  1  0
  1 26  1  0
  1 27  1  0
  1 28  1  0
  2 29  1  0
  2 30  1  0
  7 31  1  0
  9 32  1  0
  9 33  1  0
 10 34  1  0
 10 35  1  0
 10 36  1  0
 12 37  1  0
 15 38  1  0
 15 39  1  0
 16 40  1  0
 16 41  1  0
 17 42  1  0
 18 43  1  0
 18 44  1  0
 19 45  1  0
 19 46  1  0
 22 47  1  0
M  END
>  <UniqueID>  (49) 
44

>  <SMILES>  (49) 
CCOC(=O)c1cn(CC)c2cc(N3CCNCC3)c(F)cc2c1=O

>  <Energy>  (49) 
61.96810260529395

>  <Genealogy>  (49) 
CCOC(=O)c1cn(CC)c2cc(N3CCNCC3)c(F)cc2c1=O (3D coordinates assigned)
CCOC(=O)c1cn(CC)c2cc(N3CCNCC3)c(F)cc2c1=O (nonaromatic ring conformer: 61.96810260529395 kcal/mol)

>  <smiles>  (49) 
CCOC(=O)c1cn(CC)c2cc(N3CCNCC3)c(F)cc2c1=O

>  <score_type>  (49) 
oracle

>  <origin>  (49) 
adg

>  <m_score__min__energy>  (49) 
-8.0800000000000001

>  <m_primary>  (49) 
energy

$$$$
49:0
     RDKit          3D

 39 41  0  0  0  0  0  0  0  0999 V2000
   -9.8760   21.3150  -31.9660 C   0  0  0  0  0  0  0  0  0  0  0  0
   -8.7000   20.3950  -32.1170 C   0  0  0  0  0  0  0  0  0  0  0  0
   -8.8390   19.0250  -31.8690 C   0  0  0  0  0  0  0  0  0  0  0  0
   -7.7370   18.1750  -31.9680 C   0  0  0  0  0  0  0  0  0  0  0  0
   -6.4750   18.6800  -32.3240 C   0  0  0  0  0  0  0  0  0  0  0  0
   -5.3030   17.7370  -32.4100 C   0  0  0  0  0  0  0  0  0  0  0  0
   -6.3250   20.0660  -32.5660 C   0  0  0  0  0  0  0  0  0  0  0  0
   -4.9980   20.6390  -32.9080 C   0  0  0  0  0  0  0  0  0  0  0  0
   -4.3410   20.0970  -33.8400 O   0  0  0  0  0  0  0  0  0  0  0  0
   -4.4250   21.7790  -32.2110 N   0  0  2  0  0  0  0  0  0  0  0  0
   -4.3060   21.5380  -30.7620 C   0  0  0  0  0  0  0  0  0  0  0  0
   -5.2680   22.4930  -30.0410 C   0  0  1  0  0  0  0  0  0  0  0  0
   -4.5760   23.6050  -29.2580 C   0  0  0  0  0  0  0  0  0  0  0  0
   -5.4150   24.7950  -29.3690 N   0  0  0  0  0  0  0  0  0  0  0  0
   -6.1370   24.6720  -30.6370 C   0  0  0  0  0  0  0  0  0  0  0  0
   -6.0310   23.2180  -31.1120 C   0  0  1  0  0  0  0  0  0  0  0  0
   -5.2000   23.0210  -32.3810 C   0  0  0  0  0  0  0  0  0  0  0  0
   -7.4380   20.9130  -32.4380 C   0  0  0  0  0  0  0  0  0  0  0  0
  -10.0811   21.4755  -30.8973 H   0  0  0  0  0  0  0  0  0  0  0  0
   -9.6510   22.2793  -32.4450 H   0  0  0  0  0  0  0  0  0  0  0  0
  -10.7578   20.8645  -32.4450 H   0  0  0  0  0  0  0  0  0  0  0  0
   -9.8225   18.6158  -31.5945 H   0  0  0  0  0  0  0  0  0  0  0  0
   -7.8572   17.1005  -31.7657 H   0  0  0  0  0  0  0  0  0  0  0  0
   -4.9717   17.4704  -31.3955 H   0  0  0  0  0  0  0  0  0  0  0  0
   -5.6039   16.8263  -32.9486 H   0  0  0  0  0  0  0  0  0  0  0  0
   -4.4778   18.2258  -32.9486 H   0  0  0  0  0  0  0  0  0  0  0  0
   -3.4670   21.9390  -32.6050 H   0  0  0  0  0  0  0  0  0  0  0  0
   -4.5739   20.4958  -30.5338 H   0  0  0  0  0  0  0  0  0  0  0  0
   -3.2724   21.7140  -30.4292 H   0  0  0  0  0  0  0  0  0  0  0  0
   -5.8616   21.8811  -29.3459 H   0  0  0  0  0  0  0  0  0  0  0  0
   -4.4715   23.3143  -28.2023 H   0  0  0  0  0  0  0  0  0  0  0  0
   -3.5694   23.7972  -29.6578 H   0  0  0  0  0  0  0  0  0  0  0  0
   -6.1170   24.7630  -28.5910 H   0  0  0  0  0  0  0  0  0  0  0  0
   -7.1939   24.9394  -30.4907 H   0  0  0  0  0  0  0  0  0  0  0  0
   -5.7027   25.3487  -31.3877 H   0  0  0  0  0  0  0  0  0  0  0  0
   -7.0540   22.8674  -31.3134 H   0  0  0  0  0  0  0  0  0  0  0  0
   -5.8626   22.9343  -33.2548 H   0  0  0  0  0  0  0  0  0  0  0  0
   -4.5300   23.8781  -32.5438 H   0  0  0  0  0  0  0  0  0  0  0  0
   -7.3178   21.9956  -32.5915 H   0  0  0  0  0  0  0  0  0  0  0  0
  1  2  1  0
  2  3  2  0
  3  4  1  0
  4  5  2  0
  5  6  1  0
  5  7  1  0
  7  8  1  0
  8  9  2  0
  8 10  1  0
 10 11  1  0
 11 12  1  0
 12 13  1  0
 13 14  1  0
 14 15  1  0
 15 16  1  0
 16 17  1  0
  7 18  2  0
 18  2  1  0
 17 10  1  0
 16 12  1  0
  1 19  1  0
  1 20  1  0
  1 21  1  0
  3 22  1  0
  4 23  1  0
  6 24  1  0
  6 25  1  0
  6 26  1  0
 10 27  1  6
 11 28  1  0
 11 29  1  0
 12 30  1  1
 13 31  1  0
 13 32  1  0
 14 33  1  0
 15 34  1  0
 15 35  1  0
 16 36  1  6
 17 37  1  0
 17 38  1  0
 18 39  1  0
M  CHG  1  10   1
M  END
>  <UniqueID>  (50) 
45

>  <SMILES>  (50) 
Cc1ccc(C)c(C(=O)[NH+]2C[C@H]3CNC[C@H]3C2)c1

>  <Energy>  (50) 
55.12494845037385

>  <Genealogy>  (50) 
Cc1ccc(C)c(C(=O)[NH+]2CC3CNCC3C2)c1 (protonated)
Cc1ccc(C)c(C(=O)[NH+]2C[C@H]3CNC[C@H]3C2)c1 (chirality)
Cc1ccc(C)c(C(=O)[NH+]2C[C@H]3CNC[C@H]3C2)c1 (3D coordinates assigned)
Cc1ccc(C)c(C(=O)[NH+]2C[C@H]3CNC[C@H]3C2)c1 (nonaromatic ring conformer: 55.12494845037385 kcal/mol)

>  <smiles>  (50) 
Cc1ccc(C)c(C(=O)N2CC3CNCC3C2)c1

>  <score_type>  (50) 
oracle

>  <origin>  (50) 
adg

>  <m_score__min__energy>  (50) 
-8.2300000000000004

>  <m_primary>  (50) 
energy

$$$$
