0:0
     RDKit          3D

 50 51  0  0  0  0  0  0  0  0999 V2000
   -2.7330   20.7540  -28.1690 C   0  0  0  0  0  0  0  0  0  0  0  0
   -3.0610   21.8730  -29.1540 C   0  0  0  0  0  0  0  0  0  0  0  0
   -2.0570   21.9350  -30.2420 N   0  0  0  0  0  0  0  0  0  0  0  0
   -1.0590   23.0070  -29.9980 C   0  0  0  0  0  0  0  0  0  0  0  0
   -1.6090   24.0410  -29.0170 C   0  0  0  0  0  0  0  0  0  0  0  0
   -1.4120   20.6170  -30.4850 C   0  0  0  0  0  0  0  0  0  0  0  0
   -1.0640   20.4630  -31.9740 C   0  0  0  0  0  0  0  0  0  0  0  0
   -2.2820   20.5670  -32.9080 C   0  0  0  0  0  0  0  0  0  0  0  0
   -2.8120   21.9380  -32.9730 N   0  0  0  0  0  0  0  0  0  0  0  0
   -4.1900   21.9450  -32.5520 C   0  0  0  0  0  0  0  0  0  0  0  0
   -5.0960   20.9630  -33.0050 C   0  0  0  0  0  0  0  0  0  0  0  0
   -6.4760   21.0140  -32.6600 C   0  0  0  0  0  0  0  0  0  0  0  0
   -7.3620   19.9670  -33.0990 N   0  0  0  0  0  0  0  0  0  0  0  0
   -7.7320   18.8340  -32.2520 C   0  0  0  0  0  0  0  0  0  0  0  0
   -9.2360   18.8250  -31.9840 C   0  0  0  0  0  0  0  0  0  0  0  0
   -9.8430   19.8710  -32.6860 O   0  0  0  0  0  0  0  0  0  0  0  0
   -6.9580   22.0810  -31.8430 C   0  0  0  0  0  0  0  0  0  0  0  0
   -8.3470   22.2260  -31.5000 N   0  0  0  0  0  0  0  0  0  0  0  0
   -8.8110   21.6820  -30.4830 O   0  0  0  0  0  0  0  0  0  0  0  0
   -9.2100   22.8620  -32.3570 O   0  0  0  0  0  0  0  0  0  0  0  0
   -6.0170   23.0220  -31.4100 C   0  0  0  0  0  0  0  0  0  0  0  0
   -6.2050   24.1250  -30.6650 N   0  0  0  0  0  0  0  0  0  0  0  0
   -5.0200   24.6770  -30.5850 O   0  0  0  0  0  0  0  0  0  0  0  0
   -4.0790   24.0230  -31.2190 N   0  0  0  0  0  0  0  0  0  0  0  0
   -4.7080   22.9620  -31.7520 C   0  0  0  0  0  0  0  0  0  0  0  0
   -2.8425   21.1274  -27.1401 H   0  0  0  0  0  0  0  0  0  0  0  0
   -3.4220   19.9115  -28.3285 H   0  0  0  0  0  0  0  0  0  0  0  0
   -1.6982   20.4167  -28.3285 H   0  0  0  0  0  0  0  0  0  0  0  0
   -4.0535   21.6881  -29.5907 H   0  0  0  0  0  0  0  0  0  0  0  0
   -3.0500   22.8304  -28.6125 H   0  0  0  0  0  0  0  0  0  0  0  0
   -0.1450   22.5613  -29.5786 H   0  0  0  0  0  0  0  0  0  0  0  0
   -0.8356   23.5071  -30.9519 H   0  0  0  0  0  0  0  0  0  0  0  0
   -1.4283   23.7012  -27.9865 H   0  0  0  0  0  0  0  0  0  0  0  0
   -1.1044   25.0049  -29.1791 H   0  0  0  0  0  0  0  0  0  0  0  0
   -2.6903   24.1614  -29.1791 H   0  0  0  0  0  0  0  0  0  0  0  0
   -0.4910   20.5475  -29.8875 H   0  0  0  0  0  0  0  0  0  0  0  0
   -2.1092   19.8172  -30.1947 H   0  0  0  0  0  0  0  0  0  0  0  0
   -0.3487   21.2529  -32.2469 H   0  0  0  0  0  0  0  0  0  0  0  0
   -0.6450   19.4542  -32.1034 H   0  0  0  0  0  0  0  0  0  0  0  0
   -1.9819   20.2541  -33.9190 H   0  0  0  0  0  0  0  0  0  0  0  0
   -3.0731   19.9158  -32.5080 H   0  0  0  0  0  0  0  0  0  0  0  0
   -2.2620   22.5750  -32.3530 H   0  0  0  0  0  0  0  0  0  0  0  0
   -2.7400   22.3000  -33.9520 H   0  0  0  0  0  0  0  0  0  0  0  0
   -4.7286   20.1415  -33.6375 H   0  0  0  0  0  0  0  0  0  0  0  0
   -7.8210   20.0540  -34.0300 H   0  0  0  0  0  0  0  0  0  0  0  0
   -7.4502   17.8986  -32.7577 H   0  0  0  0  0  0  0  0  0  0  0  0
   -7.2034   18.9245  -31.2916 H   0  0  0  0  0  0  0  0  0  0  0  0
   -9.6613   17.8662  -32.3153 H   0  0  0  0  0  0  0  0  0  0  0  0
   -9.4162   18.9546  -30.9066 H   0  0  0  0  0  0  0  0  0  0  0  0
   -9.5550   20.7110  -32.2490 H   0  0  0  0  0  0  0  0  0  0  0  0
  1  2  1  0
  2  3  1  0
  3  4  1  0
  4  5  1  0
  3  6  1  0
  6  7  1  0
  7  8  1  0
  8  9  1  0
  9 10  1  0
 10 11  2  0
 11 12  1  0
 12 13  1  0
 13 14  1  0
 14 15  1  0
 15 16  1  0
 12 17  2  0
 17 18  1  0
 18 19  2  0
 18 20  1  0
 17 21  1  0
 21 22  2  0
 22 23  1  0
 23 24  1  0
 24 25  2  0
 25 10  1  0
 25 21  1  0
  1 26  1  0
  1 27  1  0
  1 28  1  0
  2 29  1  0
  2 30  1  0
  4 31  1  0
  4 32  1  0
  5 33  1  0
  5 34  1  0
  5 35  1  0
  6 36  1  0
  6 37  1  0
  7 38  1  0
  7 39  1  0
  8 40  1  0
  8 41  1  0
  9 42  1  0
  9 43  1  0
 11 44  1  0
 13 45  1  0
 14 46  1  0
 14 47  1  0
 15 48  1  0
 15 49  1  0
 16 50  1  0
M  CHG  3   9   1  18   1  20  -1
M  END
>  <UniqueID>  (1) 
1

>  <SMILES>  (1) 
CCN(CC)CCC[NH2+]c1cc(NCCO)c([N+](=O)[O-])c2nonc12

>  <Energy>  (1) 
92.13809811945333

>  <Genealogy>  (1) 
CCN(CC)CCC[NH2+]c1cc(NCCO)c([N+](=O)[O-])c2nonc12 (protonated)
CCN(CC)CCC[NH2+]c1cc(NCCO)c([N+](=O)[O-])c2nonc12 (3D coordinates assigned)
CCN(CC)CCC[NH2+]c1cc(NCCO)c([N+](=O)[O-])c2nonc12 (optimized conformer: 92.13809811945333 kcal/mol)

>  <smiles>  (1) 
CCN(CC)CCCNc1cc(NCCO)c([N+](=O)[O-])c2nonc12

>  <score_type>  (1) 
oracle

>  <origin>  (1) 
adg

>  <m_score__min__energy>  (1) 
-7.3099999999999996

>  <m_primary>  (1) 
energy

$$$$
1:0
     RDKit          3D

 58 60  0  0  0  0  0  0  0  0999 V2000
   -6.9690   25.2790  -29.7640 C   0  0  0  0  0  0  0  0  0  0  0  0
   -5.4450   25.1290  -29.6480 C   0  0  0  0  0  0  0  0  0  0  0  0
   -4.9620   23.8390  -29.0790 N   0  0  0  0  0  0  0  0  0  0  0  0
   -3.8260   23.9390  -28.1190 C   0  0  0  0  0  0  0  0  0  0  0  0
   -4.1640   24.5280  -26.7420 C   0  0  0  0  0  0  0  0  0  0  0  0
   -4.9080   22.6920  -30.0300 C   0  0  0  0  0  0  0  0  0  0  0  0
   -4.1130   22.9360  -31.3260 C   0  0  0  0  0  0  0  0  0  0  0  0
   -4.9400   22.6430  -32.4960 N   0  0  0  0  0  0  0  0  0  0  0  0
   -5.6210   21.3850  -32.6050 C   0  0  0  0  0  0  0  0  0  0  0  0
   -6.9950   21.3040  -32.3280 C   0  0  0  0  0  0  0  0  0  0  0  0
   -7.7190   22.4510  -31.9420 C   0  0  0  0  0  0  0  0  0  0  0  0
   -9.0930   22.3850  -31.7260 C   0  0  0  0  0  0  0  0  0  0  0  0
   -9.7680   21.1810  -31.9040 C   0  0  0  0  0  0  0  0  0  0  0  0
   -9.0680   20.0320  -32.2700 C   0  0  0  0  0  0  0  0  0  0  0  0
   -7.6610   20.0570  -32.4550 C   0  0  0  0  0  0  0  0  0  0  0  0
   -6.9450   18.9160  -32.7700 N   0  0  0  0  0  0  0  0  0  0  0  0
   -7.5770   17.5850  -32.6310 C   0  0  0  0  0  0  0  0  0  0  0  0
   -5.6300   19.0170  -33.1850 C   0  0  0  0  0  0  0  0  0  0  0  0
   -4.9410   17.9210  -33.7580 C   0  0  0  0  0  0  0  0  0  0  0  0
   -3.5990   18.0190  -34.1200 C   0  0  0  0  0  0  0  0  0  0  0  0
   -2.8860   19.2120  -33.9350 C   0  0  0  0  0  0  0  0  0  0  0  0
   -1.4860   19.3070  -34.3040 N   0  0  0  0  0  0  0  0  0  0  0  0
   -0.8170   20.6120  -34.3770 C   0  0  0  0  0  0  0  0  0  0  0  0
   -0.7150   18.0970  -34.6140 C   0  0  0  0  0  0  0  0  0  0  0  0
   -3.5690   20.3200  -33.4050 C   0  0  0  0  0  0  0  0  0  0  0  0
   -4.9360   20.2470  -33.0620 C   0  0  0  0  0  0  0  0  0  0  0  0
   -7.4108   25.3225  -28.7576 H   0  0  0  0  0  0  0  0  0  0  0  0
   -7.2059   26.2048  -30.3088 H   0  0  0  0  0  0  0  0  0  0  0  0
   -7.3819   24.4172  -30.3088 H   0  0  0  0  0  0  0  0  0  0  0  0
   -5.0177   25.2343  -30.6562 H   0  0  0  0  0  0  0  0  0  0  0  0
   -5.1210   25.9073  -28.9414 H   0  0  0  0  0  0  0  0  0  0  0  0
   -5.7570   23.5650  -28.4500 H   0  0  0  0  0  0  0  0  0  0  0  0
   -3.4254   22.9264  -27.9637 H   0  0  0  0  0  0  0  0  0  0  0  0
   -3.1102   24.6386  -28.5754 H   0  0  0  0  0  0  0  0  0  0  0  0
   -3.7818   23.8619  -25.9544 H   0  0  0  0  0  0  0  0  0  0  0  0
   -3.6972   25.5191  -26.6425 H   0  0  0  0  0  0  0  0  0  0  0  0
   -5.2552   24.6250  -26.6425 H   0  0  0  0  0  0  0  0  0  0  0  0
   -4.4484   21.8405  -29.5068 H   0  0  0  0  0  0  0  0  0  0  0  0
   -5.9470   22.5141  -30.3446 H   0  0  0  0  0  0  0  0  0  0  0  0
   -3.7938   23.9880  -31.3624 H   0  0  0  0  0  0  0  0  0  0  0  0
   -3.2351   22.2733  -31.3354 H   0  0  0  0  0  0  0  0  0  0  0  0
   -5.0060   23.3140  -33.2940 H   0  0  0  0  0  0  0  0  0  0  0  0
   -7.1927   23.4079  -31.8102 H   0  0  0  0  0  0  0  0  0  0  0  0
   -9.6448   23.2843  -31.4148 H   0  0  0  0  0  0  0  0  0  0  0  0
  -10.8570   21.1357  -31.7555 H   0  0  0  0  0  0  0  0  0  0  0  0
   -9.6158   19.0897  -32.4180 H   0  0  0  0  0  0  0  0  0  0  0  0
   -7.6918   17.3432  -31.5641 H   0  0  0  0  0  0  0  0  0  0  0  0
   -8.5658   17.5965  -33.1128 H   0  0  0  0  0  0  0  0  0  0  0  0
   -6.9431   16.8260  -33.1128 H   0  0  0  0  0  0  0  0  0  0  0  0
   -5.4755   16.9735  -33.9206 H   0  0  0  0  0  0  0  0  0  0  0  0
   -3.0911   17.1469  -34.5577 H   0  0  0  0  0  0  0  0  0  0  0  0
   -0.6264   20.9838  -33.3594 H   0  0  0  0  0  0  0  0  0  0  0  0
    0.1375   20.5052  -34.9131 H   0  0  0  0  0  0  0  0  0  0  0  0
   -1.4609   21.3247  -34.9131 H   0  0  0  0  0  0  0  0  0  0  0  0
   -0.4047   17.6100  -33.6777 H   0  0  0  0  0  0  0  0  0  0  0  0
   -1.3387   17.4045  -35.1983 H   0  0  0  0  0  0  0  0  0  0  0  0
    0.1762   18.3697  -35.1983 H   0  0  0  0  0  0  0  0  0  0  0  0
   -3.0262   21.2648  -33.2542 H   0  0  0  0  0  0  0  0  0  0  0  0
  1  2  1  0
  2  3  1  0
  3  4  1  0
  4  5  1  0
  3  6  1  0
  6  7  1  0
  7  8  1  0
  8  9  1  0
  9 10  2  0
 10 11  1  0
 11 12  2  0
 12 13  1  0
 13 14  2  0
 14 15  1  0
 15 16  2  0
 16 17  1  0
 16 18  1  0
 18 19  2  0
 19 20  1  0
 20 21  2  0
 21 22  1  0
 22 23  1  0
 22 24  1  0
 21 25  1  0
 25 26  2  0
 26  9  1  0
 15 10  1  0
 26 18  1  0
  1 27  1  0
  1 28  1  0
  1 29  1  0
  2 30  1  0
  2 31  1  0
  3 32  1  0
  4 33  1  0
  4 34  1  0
  5 35  1  0
  5 36  1  0
  5 37  1  0
  6 38  1  0
  6 39  1  0
  7 40  1  0
  7 41  1  0
  8 42  1  0
 11 43  1  0
 12 44  1  0
 13 45  1  0
 14 46  1  0
 17 47  1  0
 17 48  1  0
 17 49  1  0
 19 50  1  0
 20 51  1  0
 23 52  1  0
 23 53  1  0
 23 54  1  0
 24 55  1  0
 24 56  1  0
 24 57  1  0
 25 58  1  0
M  CHG  2   3   1  16   1
M  END
>  <UniqueID>  (2) 
2

>  <SMILES>  (2) 
CC[NH+](CC)CCNc1c2ccccc2[n+](C)c2ccc(N(C)C)cc12

>  <Energy>  (2) 
99.19090615034438

>  <Genealogy>  (2) 
CC[NH+](CC)CCNc1c2ccccc2[n+](C)c2ccc(N(C)C)cc12 (protonated)
CC[NH+](CC)CCNc1c2ccccc2[n+](C)c2ccc(N(C)C)cc12 (3D coordinates assigned)
CC[NH+](CC)CCNc1c2ccccc2[n+](C)c2ccc(N(C)C)cc12 (optimized conformer: 99.19090615034438 kcal/mol)

>  <smiles>  (2) 
CCN(CC)CCNc1c2ccccc2[n+](C)c2ccc(N(C)C)cc12

>  <score_type>  (2) 
oracle

>  <origin>  (2) 
adg

>  <m_score__min__energy>  (2) 
-7.21

>  <m_primary>  (2) 
energy

$$$$
2:0
     RDKit          3D

 80 85  0  0  0  0  0  0  0  0999 V2000
   -0.4690   21.1500  -34.6710 C   0  0  0  0  0  0  0  0  0  0  0  0
   -1.4510   21.1260  -33.6350 O   0  0  0  0  0  0  0  0  0  0  0  0
   -2.4900   20.1900  -33.5540 C   0  0  0  0  0  0  0  0  0  0  0  0
   -3.8360   20.5900  -33.4340 C   0  0  0  0  0  0  0  0  0  0  0  0
   -4.8610   19.6350  -33.3530 C   0  0  0  0  0  0  0  0  0  0  0  0
   -6.2020   20.0050  -33.1350 C   0  0  0  0  0  0  0  0  0  0  0  0
   -6.5440   21.3630  -33.0170 O   0  0  0  0  0  0  0  0  0  0  0  0
   -6.0530   22.1520  -31.9740 C   0  0  0  0  0  0  0  0  0  0  0  0
   -5.3000   21.5690  -30.9520 C   0  0  0  0  0  0  0  0  0  0  0  0
   -4.7400   22.3780  -29.9570 C   0  0  0  0  0  0  0  0  0  0  0  0
   -4.9540   23.7620  -29.9600 C   0  0  0  0  0  0  0  0  0  0  0  0
   -4.3440   24.5630  -28.9360 N   0  0  0  0  0  0  0  0  0  0  0  0
   -3.7670   24.0220  -27.7370 C   0  0  0  0  0  0  0  0  0  0  0  0
   -3.8220   22.7870  -27.5030 O   0  0  0  0  0  0  0  0  0  0  0  0
   -3.0900   24.9220  -26.7800 C   0  0  0  0  0  0  0  0  0  0  0  0
   -3.6240   25.3040  -25.6040 N   0  0  0  0  0  0  0  0  0  0  0  0
   -2.7470   26.1130  -25.0250 N   0  0  0  0  0  0  0  0  0  0  0  0
   -1.6800   26.2700  -25.7950 N   0  0  0  0  0  0  0  0  0  0  0  0
   -0.5570   27.0790  -25.4220 C   0  0  0  0  0  0  0  0  0  0  0  0
   -0.6170   28.4630  -25.6380 C   0  0  0  0  0  0  0  0  0  0  0  0
    0.4670   29.2810  -25.2960 C   0  0  0  0  0  0  0  0  0  0  0  0
    1.6220   28.7130  -24.7360 C   0  0  0  0  0  0  0  0  0  0  0  0
    1.7000   27.3270  -24.5460 C   0  0  0  0  0  0  0  0  0  0  0  0
    0.6220   26.5050  -24.8970 C   0  0  0  0  0  0  0  0  0  0  0  0
    0.7910   24.7640  -24.7260 Cl  0  0  0  0  0  0  0  0  0  0  0  0
   -1.8440   25.5170  -26.9080 C   0  0  0  0  0  0  0  0  0  0  0  0
   -0.8160   25.2540  -27.9870 C   0  0  0  0  0  0  0  0  0  0  0  0
    0.3000   26.0450  -27.7750 F   0  0  0  0  0  0  0  0  0  0  0  0
   -1.3560   25.5590  -29.2280 F   0  0  0  0  0  0  0  0  0  0  0  0
   -0.4360   23.9240  -28.0100 F   0  0  0  0  0  0  0  0  0  0  0  0
   -5.7790   24.3300  -30.9510 C   0  0  0  0  0  0  0  0  0  0  0  0
   -6.3170   23.5300  -31.9610 C   0  0  0  0  0  0  0  0  0  0  0  0
   -7.0920   24.0870  -32.9270 F   0  0  0  0  0  0  0  0  0  0  0  0
   -7.1790   19.0060  -33.0420 C   0  0  0  0  0  0  0  0  0  0  0  0
   -6.8160   17.6680  -33.1870 C   0  0  0  0  0  0  0  0  0  0  0  0
   -5.5180   17.3280  -33.3880 N   0  0  0  0  0  0  0  0  0  0  0  0
   -4.5390   18.2650  -33.4630 C   0  0  0  0  0  0  0  0  0  0  0  0
   -3.2090   17.8700  -33.6170 C   0  0  0  0  0  0  0  0  0  0  0  0
   -2.1750   18.8260  -33.6210 C   0  0  0  0  0  0  0  0  0  0  0  0
   -0.8190   18.4670  -33.6490 O   0  0  0  0  0  0  0  0  0  0  0  0
    0.0680   18.5030  -32.5350 C   0  0  0  0  0  0  0  0  0  0  0  0
   -0.6680   18.7810  -31.2070 C   0  0  0  0  0  0  0  0  0  0  0  0
   -0.3420   20.1270  -30.6730 N   0  0  0  0  0  0  0  0  0  0  0  0
    0.5990   20.0760  -29.5190 C   0  0  0  0  0  0  0  0  0  0  0  0
   -0.0630   20.2440  -28.1340 C   0  0  0  0  0  0  0  0  0  0  0  0
   -1.4990   19.7320  -28.1300 C   0  0  0  0  0  0  0  0  0  0  0  0
   -2.3610   20.4510  -29.1800 C   0  0  0  0  0  0  0  0  0  0  0  0
   -1.5630   20.9400  -30.4190 C   0  0  1  0  0  0  0  0  0  0  0  0
   -1.2240   22.4390  -30.3480 C   0  0  0  0  0  0  0  0  0  0  0  0
    0.5356   21.1746  -34.2235 H   0  0  0  0  0  0  0  0  0  0  0  0
   -0.5710   20.2491  -35.2939 H   0  0  0  0  0  0  0  0  0  0  0  0
   -0.6149   22.0448  -35.2939 H   0  0  0  0  0  0  0  0  0  0  0  0
   -4.0855   21.6609  -33.4035 H   0  0  0  0  0  0  0  0  0  0  0  0
   -5.1481   20.4798  -30.9295 H   0  0  0  0  0  0  0  0  0  0  0  0
   -4.1264   21.9229  -29.1656 H   0  0  0  0  0  0  0  0  0  0  0  0
   -4.5250   25.5860  -28.9560 H   0  0  0  0  0  0  0  0  0  0  0  0
   -1.5208   28.9089  -26.0787 H   0  0  0  0  0  0  0  0  0  0  0  0
    0.4134   30.3665  -25.4659 H   0  0  0  0  0  0  0  0  0  0  0  0
    2.4661   29.3561  -24.4463 H   0  0  0  0  0  0  0  0  0  0  0  0
    2.6115   26.8829  -24.1195 H   0  0  0  0  0  0  0  0  0  0  0  0
   -6.0000   25.4073  -30.9289 H   0  0  0  0  0  0  0  0  0  0  0  0
   -8.2288   19.2761  -32.8552 H   0  0  0  0  0  0  0  0  0  0  0  0
   -7.5858   16.8838  -33.1382 H   0  0  0  0  0  0  0  0  0  0  0  0
   -2.9667   16.8036  -33.7362 H   0  0  0  0  0  0  0  0  0  0  0  0
    0.5796   17.5322  -32.4590 H   0  0  0  0  0  0  0  0  0  0  0  0
    0.7826   19.3227  -32.7010 H   0  0  0  0  0  0  0  0  0  0  0  0
   -1.7525   18.7187  -31.3801 H   0  0  0  0  0  0  0  0  0  0  0  0
   -0.3440   18.0309  -30.4705 H   0  0  0  0  0  0  0  0  0  0  0  0
    1.1105   19.1024  -29.5377 H   0  0  0  0  0  0  0  0  0  0  0  0
    1.2831   20.9289  -29.6401 H   0  0  0  0  0  0  0  0  0  0  0  0
    0.5187   19.6800  -27.3900 H   0  0  0  0  0  0  0  0  0  0  0  0
   -0.0805   21.3164  -27.8899 H   0  0  0  0  0  0  0  0  0  0  0  0
   -1.4940   18.6543  -28.3501 H   0  0  0  0  0  0  0  0  0  0  0  0
   -1.9310   19.9293  -27.1378 H   0  0  0  0  0  0  0  0  0  0  0  0
   -3.1415   19.7558  -29.5227 H   0  0  0  0  0  0  0  0  0  0  0  0
   -2.7773   21.3457  -28.6940 H   0  0  0  0  0  0  0  0  0  0  0  0
   -2.2347   20.7955  -31.2780 H   0  0  0  0  0  0  0  0  0  0  0  0
   -1.1538   22.7496  -29.2951 H   0  0  0  0  0  0  0  0  0  0  0  0
   -0.2619   22.6215  -30.8491 H   0  0  0  0  0  0  0  0  0  0  0  0
   -2.0140   23.0177  -30.8491 H   0  0  0  0  0  0  0  0  0  0  0  0
  1  2  1  0
  2  3  1  0
  3  4  2  0
  4  5  1  0
  5  6  2  0
  6  7  1  0
  7  8  1  0
  8  9  2  0
  9 10  1  0
 10 11  2  0
 11 12  1  0
 12 13  1  0
 13 14  2  0
 13 15  1  0
 15 16  1  0
 16 17  2  0
 17 18  1  0
 18 19  1  0
 19 20  2  0
 20 21  1  0
 21 22  2  0
 22 23  1  0
 23 24  2  0
 24 25  1  0
 18 26  1  0
 26 27  1  0
 27 28  1  0
 27 29  1  0
 27 30  1  0
 11 31  1  0
 31 32  2  0
 32 33  1  0
  6 34  1  0
 34 35  2  0
 35 36  1  0
 36 37  2  0
 37 38  1  0
 38 39  2  0
 39 40  1  0
 40 41  1  0
 41 42  1  0
 42 43  1  0
 43 44  1  0
 44 45  1  0
 45 46  1  0
 46 47  1  0
 47 48  1  0
 48 49  1  0
 39  3  1  0
 48 43  1  0
 37  5  1  0
 32  8  1  0
 26 15  2  0
 24 19  1  0
  1 50  1  0
  1 51  1  0
  1 52  1  0
  4 53  1  0
  9 54  1  0
 10 55  1  0
 12 56  1  0
 20 57  1  0
 21 58  1  0
 22 59  1  0
 23 60  1  0
 31 61  1  0
 34 62  1  0
 35 63  1  0
 38 64  1  0
 41 65  1  0
 41 66  1  0
 42 67  1  0
 42 68  1  0
 44 69  1  0
 44 70  1  0
 45 71  1  0
 45 72  1  0
 46 73  1  0
 46 74  1  0
 47 75  1  0
 47 76  1  0
 48 77  1  6
 49 78  1  0
 49 79  1  0
 49 80  1  0
M  END
>  <UniqueID>  (3) 
3

>  <SMILES>  (3) 
COc1cc2c(Oc3ccc(NC(=O)c4nnn(-c5ccccc5Cl)c4C(F)(F)F)cc3F)ccnc2cc1OCCN1CCCC[C@H]1C

>  <Energy>  (3) 
166.26793123548893

>  <Genealogy>  (3) 
COc1cc2c(Oc3ccc(NC(=O)c4nnn(-c5ccccc5Cl)c4C(F)(F)F)cc3F)ccnc2cc1OCCN1CCCC[C@H]1C (chirality)
COc1cc2c(Oc3ccc(NC(=O)c4nnn(-c5ccccc5Cl)c4C(F)(F)F)cc3F)ccnc2cc1OCCN1CCCC[C@H]1C (3D coordinates assigned)
COc1cc2c(Oc3ccc(NC(=O)c4nnn(-c5ccccc5Cl)c4C(F)(F)F)cc3F)ccnc2cc1OCCN1CCCC[C@H]1C (nonaromatic ring conformer: 166.26793123548893 kcal/mol)

>  <smiles>  (3) 
COc1cc2c(Oc3ccc(NC(=O)c4nnn(-c5ccccc5Cl)c4C(F)(F)F)cc3F)ccnc2cc1OCCN1CCCCC1C

>  <score_type>  (3) 
oracle

>  <origin>  (3) 
adg

>  <m_score__min__energy>  (3) 
-10.199999999999999

>  <m_primary>  (3) 
energy

$$$$
3:0
     RDKit          3D

 32 34  0  0  0  0  0  0  0  0999 V2000
   -2.7570   14.0880  -35.0000 C   0  0  0  0  0  0  0  0  0  0  0  0
   -3.8630   14.7760  -35.5450 O   0  0  0  0  0  0  0  0  0  0  0  0
   -4.3290   15.8900  -34.8470 C   0  0  0  0  0  0  0  0  0  0  0  0
   -5.5560   15.9160  -34.2150 C   0  0  0  0  0  0  0  0  0  0  0  0
   -6.0110   17.0220  -33.5260 C   0  0  0  0  0  0  0  0  0  0  0  0
   -5.2040   18.1290  -33.4760 C   0  0  0  0  0  0  0  0  0  0  0  0
   -5.6500   19.3390  -32.7480 C   0  0  0  0  0  0  0  0  0  0  0  0
   -6.7410   19.4800  -32.0020 C   0  0  0  0  0  0  0  0  0  0  0  0
   -6.9870   20.6680  -31.4100 C   0  0  0  0  0  0  0  0  0  0  0  0
   -6.0770   21.6670  -31.6230 C   0  0  0  0  0  0  0  0  0  0  0  0
   -6.0010   23.0350  -31.1700 C   0  0  0  0  0  0  0  0  0  0  0  0
   -6.9440   23.5210  -30.2990 C   0  0  0  0  0  0  0  0  0  0  0  0
   -6.8340   24.8340  -29.8910 C   0  0  0  0  0  0  0  0  0  0  0  0
   -5.7830   25.5950  -30.3770 C   0  0  0  0  0  0  0  0  0  0  0  0
   -5.7120   26.7890  -29.9840 O   0  0  0  0  0  0  0  0  0  0  0  0
   -4.8780   25.0880  -31.2270 N   0  0  0  0  0  0  0  0  0  0  0  0
   -5.0060   23.8250  -31.6040 N   0  0  0  0  0  0  0  0  0  0  0  0
   -4.8180   20.8760  -32.7140 S   0  0  0  0  0  0  0  0  0  0  0  0
   -3.9690   18.1660  -34.0870 C   0  0  0  0  0  0  0  0  0  0  0  0
   -3.5350   17.0360  -34.7750 C   0  0  0  0  0  0  0  0  0  0  0  0
   -2.3210   17.0590  -35.3800 F   0  0  0  0  0  0  0  0  0  0  0  0
   -2.8097   14.1208  -33.9018 H   0  0  0  0  0  0  0  0  0  0  0  0
   -2.7742   13.0410  -35.3368 H   0  0  0  0  0  0  0  0  0  0  0  0
   -1.8254   14.5662  -35.3368 H   0  0  0  0  0  0  0  0  0  0  0  0
   -6.1950   15.0219  -34.2623 H   0  0  0  0  0  0  0  0  0  0  0  0
   -6.9933   17.0154  -33.0310 H   0  0  0  0  0  0  0  0  0  0  0  0
   -7.4359   18.6378  -31.8685 H   0  0  0  0  0  0  0  0  0  0  0  0
   -7.8783   20.8256  -30.7850 H   0  0  0  0  0  0  0  0  0  0  0  0
   -7.7632   22.8823  -29.9371 H   0  0  0  0  0  0  0  0  0  0  0  0
   -7.5658   25.2682  -29.1939 H   0  0  0  0  0  0  0  0  0  0  0  0
   -4.0790   25.6760  -31.5930 H   0  0  0  0  0  0  0  0  0  0  0  0
   -3.3409   19.0674  -34.0323 H   0  0  0  0  0  0  0  0  0  0  0  0
  1  2  1  0
  2  3  1  0
  3  4  2  0
  4  5  1  0
  5  6  2  0
  6  7  1  0
  7  8  2  0
  8  9  1  0
  9 10  2  0
 10 11  1  0
 11 12  1  0
 12 13  2  0
 13 14  1  0
 14 15  2  0
 14 16  1  0
 16 17  1  0
 10 18  1  0
  6 19  1  0
 19 20  2  0
 20 21  1  0
 20  3  1  0
 18  7  1  0
 17 11  2  0
  1 22  1  0
  1 23  1  0
  1 24  1  0
  4 25  1  0
  5 26  1  0
  8 27  1  0
  9 28  1  0
 12 29  1  0
 13 30  1  0
 16 31  1  0
 19 32  1  0
M  END
>  <smiles>  (4) 
COc1ccc(-c2ccc(-c3ccc(=O)[nH]n3)s2)cc1F

>  <score_type>  (4) 
oracle

>  <origin>  (4) 
adg

>  <m_score__min__energy>  (4) 
-7.0599999999999996

>  <m_primary>  (4) 
energy

$$$$
4:0
     RDKit          3D

 60 63  0  0  0  0  0  0  0  0999 V2000
   -4.2270   24.5250  -29.4570 C   0  0  0  0  0  0  0  0  0  0  0  0
   -2.8930   24.9380  -29.7410 O   0  0  0  0  0  0  0  0  0  0  0  0
   -1.7930   24.7140  -28.8960 C   0  0  0  0  0  0  0  0  0  0  0  0
   -1.2630   25.7220  -28.0630 C   0  0  0  0  0  0  0  0  0  0  0  0
   -0.1600   25.4530  -27.2450 C   0  0  0  0  0  0  0  0  0  0  0  0
    0.4260   24.1870  -27.2530 C   0  0  0  0  0  0  0  0  0  0  0  0
   -0.0880   23.1830  -28.0740 C   0  0  0  0  0  0  0  0  0  0  0  0
   -1.1990   23.4390  -28.8920 C   0  0  0  0  0  0  0  0  0  0  0  0
   -1.7350   22.3920  -29.7150 N   0  0  0  0  0  0  0  0  0  0  0  0
   -2.6310   21.3880  -29.1360 C   0  0  0  0  0  0  0  0  0  0  0  0
   -3.7600   21.0640  -30.1270 C   0  0  0  0  0  0  0  0  0  0  0  0
   -3.2940   20.8470  -31.5290 N   0  0  0  0  0  0  0  0  0  0  0  0
   -4.0420   21.6690  -32.5090 C   0  0  0  0  0  0  0  0  0  0  0  0
   -5.2210   22.4280  -31.8440 C   0  0  0  0  0  0  0  0  0  0  0  0
   -6.5200   22.3690  -32.5690 N   0  0  2  0  0  0  0  0  0  0  0  0
   -7.6890   22.7810  -31.7520 C   0  0  0  0  0  0  0  0  0  0  0  0
   -8.5840   21.5420  -31.5380 C   0  0  0  0  0  0  0  0  0  0  0  0
   -8.0290   20.5290  -32.4110 N   0  0  0  0  0  0  0  0  0  0  0  0
   -8.5190   19.1590  -32.5350 C   0  0  0  0  0  0  0  0  0  0  0  0
   -7.3640   18.1990  -32.4950 C   0  0  0  0  0  0  0  0  0  0  0  0
   -6.8690   17.6180  -33.6770 C   0  0  0  0  0  0  0  0  0  0  0  0
   -5.8180   16.6970  -33.6210 C   0  0  0  0  0  0  0  0  0  0  0  0
   -5.2560   16.3470  -32.3900 C   0  0  0  0  0  0  0  0  0  0  0  0
   -4.2330   15.4570  -32.3330 F   0  0  0  0  0  0  0  0  0  0  0  0
   -5.7480   16.9150  -31.2110 C   0  0  0  0  0  0  0  0  0  0  0  0
   -6.8030   17.8330  -31.2610 C   0  0  0  0  0  0  0  0  0  0  0  0
   -6.8550   21.0480  -32.9980 C   0  0  0  0  0  0  0  0  0  0  0  0
   -6.1640   20.4040  -33.8350 O   0  0  0  0  0  0  0  0  0  0  0  0
   -1.8300   20.9610  -31.7170 C   0  0  0  0  0  0  0  0  0  0  0  0
   -1.2770   22.2490  -31.0980 C   0  0  0  0  0  0  0  0  0  0  0  0
   -4.3728   24.4799  -28.3676 H   0  0  0  0  0  0  0  0  0  0  0  0
   -4.9346   25.2461  -29.8921 H   0  0  0  0  0  0  0  0  0  0  0  0
   -4.4033   23.5302  -29.8921 H   0  0  0  0  0  0  0  0  0  0  0  0
   -1.7186   26.7232  -28.0566 H   0  0  0  0  0  0  0  0  0  0  0  0
    0.2459   26.2415  -26.5942 H   0  0  0  0  0  0  0  0  0  0  0  0
    1.2948   23.9801  -26.6109 H   0  0  0  0  0  0  0  0  0  0  0  0
    0.3793   22.1872  -28.0801 H   0  0  0  0  0  0  0  0  0  0  0  0
   -2.0616   20.4722  -28.9191 H   0  0  0  0  0  0  0  0  0  0  0  0
   -3.0663   21.7830  -28.2062 H   0  0  0  0  0  0  0  0  0  0  0  0
   -4.2678   20.1498  -29.7859 H   0  0  0  0  0  0  0  0  0  0  0  0
   -4.4278   21.9379  -30.1453 H   0  0  0  0  0  0  0  0  0  0  0  0
   -3.3548   22.4015  -32.9575 H   0  0  0  0  0  0  0  0  0  0  0  0
   -4.4567   20.9960  -33.2739 H   0  0  0  0  0  0  0  0  0  0  0  0
   -5.3742   22.0019  -30.8415 H   0  0  0  0  0  0  0  0  0  0  0  0
   -4.9291   23.4886  -31.8392 H   0  0  0  0  0  0  0  0  0  0  0  0
   -6.4600   22.9840  -33.4160 H   0  0  0  0  0  0  0  0  0  0  0  0
   -7.3475   23.1668  -30.7801 H   0  0  0  0  0  0  0  0  0  0  0  0
   -8.2523   23.5744  -32.2651 H   0  0  0  0  0  0  0  0  0  0  0  0
   -8.5456   21.2128  -30.4891 H   0  0  0  0  0  0  0  0  0  0  0  0
   -9.6407   21.7496  -31.7623 H   0  0  0  0  0  0  0  0  0  0  0  0
   -9.2047   18.9399  -31.7033 H   0  0  0  0  0  0  0  0  0  0  0  0
   -9.0496   19.0486  -33.4922 H   0  0  0  0  0  0  0  0  0  0  0  0
   -7.3098   17.8889  -34.6477 H   0  0  0  0  0  0  0  0  0  0  0  0
   -5.4328   16.2470  -34.5479 H   0  0  0  0  0  0  0  0  0  0  0  0
   -5.3050   16.6398  -30.2425 H   0  0  0  0  0  0  0  0  0  0  0  0
   -7.1942   18.2695  -30.3302 H   0  0  0  0  0  0  0  0  0  0  0  0
   -1.3413   20.0983  -31.2406 H   0  0  0  0  0  0  0  0  0  0  0  0
   -1.6241   20.9842  -32.7973 H   0  0  0  0  0  0  0  0  0  0  0  0
   -0.1776   22.2148  -31.1134 H   0  0  0  0  0  0  0  0  0  0  0  0
   -1.6384   23.1079  -31.6826 H   0  0  0  0  0  0  0  0  0  0  0  0
  1  2  1  0
  2  3  1  0
  3  4  2  0
  4  5  1  0
  5  6  2  0
  6  7  1  0
  7  8  2  0
  8  9  1  0
  9 10  1  0
 10 11  1  0
 11 12  1  0
 12 13  1  0
 13 14  1  0
 14 15  1  0
 15 16  1  0
 16 17  1  0
 17 18  1  0
 18 19  1  0
 19 20  1  0
 20 21  2  0
 21 22  1  0
 22 23  2  0
 23 24  1  0
 23 25  1  0
 25 26  2  0
 18 27  1  0
 27 28  2  0
 12 29  1  0
 29 30  1  0
  8  3  1  0
 30  9  1  0
 27 15  1  0
 26 20  1  0
  1 31  1  0
  1 32  1  0
  1 33  1  0
  4 34  1  0
  5 35  1  0
  6 36  1  0
  7 37  1  0
 10 38  1  0
 10 39  1  0
 11 40  1  0
 11 41  1  0
 13 42  1  0
 13 43  1  0
 14 44  1  0
 14 45  1  0
 15 46  1  6
 16 47  1  0
 16 48  1  0
 17 49  1  0
 17 50  1  0
 19 51  1  0
 19 52  1  0
 21 53  1  0
 22 54  1  0
 25 55  1  0
 26 56  1  0
 29 57  1  0
 29 58  1  0
 30 59  1  0
 30 60  1  0
M  CHG  1  15   1
M  END
>  <UniqueID>  (5) 
4

>  <SMILES>  (5) 
COc1ccccc1N1CCN(CC[N@@H+]2CCN(Cc3ccc(F)cc3)C2=O)CC1

>  <Energy>  (5) 
84.74436686744308

>  <Genealogy>  (5) 
COc1ccccc1N1CCN(CC[NH+]2CCN(Cc3ccc(F)cc3)C2=O)CC1 (protonated)
COc1ccccc1N1CCN(CC[N@@H+]2CCN(Cc3ccc(F)cc3)C2=O)CC1 (chirality)
COc1ccccc1N1CCN(CC[N@@H+]2CCN(Cc3ccc(F)cc3)C2=O)CC1 (3D coordinates assigned)
COc1ccccc1N1CCN(CC[N@@H+]2CCN(Cc3ccc(F)cc3)C2=O)CC1 (nonaromatic ring conformer: 84.74436686744308 kcal/mol)

>  <smiles>  (5) 
COc1ccccc1N1CCN(CCN2CCN(Cc3ccc(F)cc3)C2=O)CC1

>  <score_type>  (5) 
oracle

>  <origin>  (5) 
adg

>  <m_score__min__energy>  (5) 
-8.2899999999999991

>  <m_primary>  (5) 
energy

$$$$
5:0
     RDKit          3D

 27 28  0  0  0  0  0  0  0  0999 V2000
   -8.4910   23.1130  -32.2470 O   0  0  0  0  0  0  0  0  0  0  0  0
   -7.8170   22.3050  -31.5540 C   0  0  0  0  0  0  0  0  0  0  0  0
   -7.1030   22.8070  -30.4140 N   0  0  0  0  0  0  0  0  0  0  0  0
   -6.0490   23.5760  -30.4230 C   0  0  0  0  0  0  0  0  0  0  0  0
   -6.2320   24.9640  -30.4640 C   0  0  0  0  0  0  0  0  0  0  0  0
   -5.1210   25.8120  -30.4790 C   0  0  0  0  0  0  0  0  0  0  0  0
   -3.8660   25.2920  -30.4640 N   0  0  0  0  0  0  0  0  0  0  0  0
   -3.6520   23.9500  -30.4390 C   0  0  0  0  0  0  0  0  0  0  0  0
   -4.7340   23.0650  -30.4240 C   0  0  0  0  0  0  0  0  0  0  0  0
   -7.8440   20.8570  -31.8830 C   0  0  0  0  0  0  0  0  0  0  0  0
   -8.8440   20.0200  -31.3580 C   0  0  0  0  0  0  0  0  0  0  0  0
   -8.8730   18.6640  -31.6850 C   0  0  0  0  0  0  0  0  0  0  0  0
   -7.9060   18.1240  -32.5350 C   0  0  0  0  0  0  0  0  0  0  0  0
   -6.8870   18.9370  -33.0580 C   0  0  0  0  0  0  0  0  0  0  0  0
   -5.8720   18.3680  -34.0170 C   0  0  0  0  0  0  0  0  0  0  0  0
   -4.5850   18.6710  -33.6080 F   0  0  0  0  0  0  0  0  0  0  0  0
   -6.0160   16.9940  -34.0690 F   0  0  0  0  0  0  0  0  0  0  0  0
   -6.0550   18.8880  -35.2870 F   0  0  0  0  0  0  0  0  0  0  0  0
   -6.8790   20.3100  -32.7480 C   0  0  0  0  0  0  0  0  0  0  0  0
   -7.2477   25.3858  -30.4843 H   0  0  0  0  0  0  0  0  0  0  0  0
   -5.2631   26.9025  -30.5030 H   0  0  0  0  0  0  0  0  0  0  0  0
   -2.6239   23.5590  -30.4305 H   0  0  0  0  0  0  0  0  0  0  0  0
   -4.5615   21.9787  -30.4131 H   0  0  0  0  0  0  0  0  0  0  0  0
   -9.6082   20.4367  -30.6854 H   0  0  0  0  0  0  0  0  0  0  0  0
   -9.6611   18.0176  -31.2714 H   0  0  0  0  0  0  0  0  0  0  0  0
   -7.9423   17.0562  -32.7965 H   0  0  0  0  0  0  0  0  0  0  0  0
   -6.1097   20.9623  -33.1870 H   0  0  0  0  0  0  0  0  0  0  0  0
  1  2  2  0
  2  3  1  0
  3  4  2  3
  4  5  1  0
  5  6  2  0
  6  7  1  0
  7  8  1  0
  8  9  2  0
  2 10  1  0
 10 11  2  0
 11 12  1  0
 12 13  2  0
 13 14  1  0
 14 15  1  0
 15 16  1  0
 15 17  1  0
 15 18  1  0
 14 19  2  0
  9  4  1  0
 19 10  1  0
  5 20  1  0
  6 21  1  0
  8 22  1  0
  9 23  1  0
 11 24  1  0
 12 25  1  0
 13 26  1  0
 19 27  1  0
M  CHG  1   7  -1
M  END
>  <UniqueID>  (6) 
5

>  <SMILES>  (6) 
O=C(N=c1cc[n-]cc1)c1cccc(C(F)(F)F)c1

>  <Energy>  (6) 
39.84498413897535

>  <Genealogy>  (6) 
O=C(N=c1cc[n-]cc1)c1cccc(C(F)(F)F)c1 (protonated)
O=C(N=c1cc[n-]cc1)c1cccc(C(F)(F)F)c1 (3D coordinates assigned)
O=C(N=c1cc[n-]cc1)c1cccc(C(F)(F)F)c1 (optimized conformer: 39.84498413897535 kcal/mol)

>  <smiles>  (6) 
O=C(N=c1cc[nH]cc1)c1cccc(C(F)(F)F)c1

>  <score_type>  (6) 
oracle

>  <origin>  (6) 
adg

>  <m_score__min__energy>  (6) 
-8.9900000000000002

>  <m_primary>  (6) 
energy

$$$$
6:0
     RDKit          3D

 36 37  0  0  0  0  0  0  0  0999 V2000
   -9.0240   19.7210  -32.3290 C   0  0  0  0  0  0  0  0  0  0  0  0
   -8.3780   21.0540  -31.9500 C   0  0  0  0  0  0  0  0  0  0  0  0
   -6.8800   21.1280  -32.3200 C   0  0  0  0  0  0  0  0  0  0  0  0
   -6.3720   22.5100  -32.5190 N   0  0  0  0  0  0  0  0  0  0  0  0
   -4.8800   22.5140  -32.5410 C   0  0  0  0  0  0  0  0  0  0  0  0
   -4.2810   22.8930  -31.1790 C   0  0  0  0  0  0  0  0  0  0  0  0
   -4.6830   24.2630  -30.7920 N   0  0  0  0  0  0  0  0  0  0  0  0
   -4.4420   24.5500  -29.3610 C   0  0  0  0  0  0  0  0  0  0  0  0
   -2.9930   24.4460  -28.9680 C   0  0  0  0  0  0  0  0  0  0  0  0
   -2.4350   23.4610  -28.1780 C   0  0  0  0  0  0  0  0  0  0  0  0
   -1.0920   23.7610  -28.1020 C   0  0  0  0  0  0  0  0  0  0  0  0
   -0.9140   24.9100  -28.8440 C   0  0  0  0  0  0  0  0  0  0  0  0
   -2.0650   25.2950  -29.3470 O   0  0  0  0  0  0  0  0  0  0  0  0
   -6.0270   24.6640  -31.2720 C   0  0  0  0  0  0  0  0  0  0  0  0
   -6.9390   23.4490  -31.5110 C   0  0  0  0  0  0  0  0  0  0  0  0
   -9.2910   19.1700  -31.4152 H   0  0  0  0  0  0  0  0  0  0  0  0
   -9.9311   19.9087  -32.9222 H   0  0  0  0  0  0  0  0  0  0  0  0
   -8.3146   19.1253  -32.9222 H   0  0  0  0  0  0  0  0  0  0  0  0
   -8.9086   21.8620  -32.4749 H   0  0  0  0  0  0  0  0  0  0  0  0
   -8.4514   21.1552  -30.8571 H   0  0  0  0  0  0  0  0  0  0  0  0
   -6.3007   20.6602  -31.5104 H   0  0  0  0  0  0  0  0  0  0  0  0
   -6.7645   20.6060  -33.2813 H   0  0  0  0  0  0  0  0  0  0  0  0
   -6.6800   22.8320  -33.4670 H   0  0  0  0  0  0  0  0  0  0  0  0
   -4.5271   21.5091  -32.8160 H   0  0  0  0  0  0  0  0  0  0  0  0
   -4.5550   23.2669  -33.2742 H   0  0  0  0  0  0  0  0  0  0  0  0
   -4.6381   22.1837  -30.4179 H   0  0  0  0  0  0  0  0  0  0  0  0
   -3.1842   22.8547  -31.2529 H   0  0  0  0  0  0  0  0  0  0  0  0
   -4.7893   25.5715  -29.1466 H   0  0  0  0  0  0  0  0  0  0  0  0
   -4.9917   23.7945  -28.7805 H   0  0  0  0  0  0  0  0  0  0  0  0
   -2.9542   22.6132  -27.7072 H   0  0  0  0  0  0  0  0  0  0  0  0
   -0.3184   23.1979  -27.5593 H   0  0  0  0  0  0  0  0  0  0  0  0
    0.0462   25.4258  -28.9922 H   0  0  0  0  0  0  0  0  0  0  0  0
   -6.4935   25.3156  -30.5185 H   0  0  0  0  0  0  0  0  0  0  0  0
   -5.9029   25.1897  -32.2302 H   0  0  0  0  0  0  0  0  0  0  0  0
   -7.0697   22.9115  -30.5602 H   0  0  0  0  0  0  0  0  0  0  0  0
   -7.9004   23.8189  -31.8969 H   0  0  0  0  0  0  0  0  0  0  0  0
  1  2  1  0
  2  3  1  0
  3  4  1  0
  4  5  1  0
  5  6  1  0
  6  7  1  0
  7  8  1  0
  8  9  1  0
  9 10  2  0
 10 11  1  0
 11 12  2  0
 12 13  1  0
  7 14  1  0
 14 15  1  0
 15  4  1  0
 13  9  1  0
  1 16  1  0
  1 17  1  0
  1 18  1  0
  2 19  1  0
  2 20  1  0
  3 21  1  0
  3 22  1  0
  4 23  1  0
  5 24  1  0
  5 25  1  0
  6 26  1  0
  6 27  1  0
  8 28  1  0
  8 29  1  0
 10 30  1  0
 11 31  1  0
 12 32  1  0
 14 33  1  0
 14 34  1  0
 15 35  1  0
 15 36  1  0
M  CHG  1   4   1
M  END
>  <UniqueID>  (7) 
6

>  <SMILES>  (7) 
CCC[NH+]1CCN(Cc2ccco2)CC1

>  <Energy>  (7) 
72.17372824462885

>  <Genealogy>  (7) 
CCC[NH+]1CCN(Cc2ccco2)CC1 (protonated)
CCC[NH+]1CCN(Cc2ccco2)CC1 (3D coordinates assigned)
CCC[NH+]1CCN(Cc2ccco2)CC1 (nonaromatic ring conformer: 72.17372824462885 kcal/mol)

>  <smiles>  (7) 
CCCN1CCN(Cc2ccco2)CC1

>  <score_type>  (7) 
oracle

>  <origin>  (7) 
adg

>  <m_score__min__energy>  (7) 
-6

>  <m_primary>  (7) 
energy

$$$$
7:0
     RDKit          3D

 54 57  0  0  0  0  0  0  0  0999 V2000
   -1.7550   24.9390  -28.2050 C   0  0  0  0  0  0  0  0  0  0  0  0
   -2.5310   25.2880  -29.3480 O   0  0  0  0  0  0  0  0  0  0  0  0
   -3.6570   24.5770  -29.7880 C   0  0  0  0  0  0  0  0  0  0  0  0
   -3.6670   23.1740  -29.9030 C   0  0  0  0  0  0  0  0  0  0  0  0
   -4.8140   22.5120  -30.3460 C   0  0  0  0  0  0  0  0  0  0  0  0
   -5.9720   23.2340  -30.6830 C   0  0  0  0  0  0  0  0  0  0  0  0
   -7.1890   22.5270  -31.1560 C   0  0  0  0  0  0  0  0  0  0  0  0
   -8.3300   23.2510  -31.5450 C   0  0  0  0  0  0  0  0  0  0  0  0
   -9.4690   22.5820  -31.9950 C   0  0  0  0  0  0  0  0  0  0  0  0
   -9.4790   21.1890  -32.0820 C   0  0  0  0  0  0  0  0  0  0  0  0
   -8.3410   20.4460  -31.7260 C   0  0  0  0  0  0  0  0  0  0  0  0
   -8.3540   18.9310  -31.8340 C   0  0  0  0  0  0  0  0  0  0  0  0
   -7.6510   18.3920  -33.0280 N   0  0  0  0  0  0  0  0  0  0  0  0
   -6.7260   19.3840  -33.6370 C   0  0  0  0  0  0  0  0  0  0  0  0
   -5.7250   18.7250  -34.5930 C   0  0  0  0  0  0  0  0  0  0  0  0
   -4.9380   17.7140  -33.8730 N   0  0  0  0  0  0  0  0  0  0  0  0
   -3.6050   17.3690  -34.3130 C   0  0  0  0  0  0  0  0  0  0  0  0
   -3.3890   16.2410  -35.1280 C   0  0  0  0  0  0  0  0  0  0  0  0
   -2.0990   15.9100  -35.5530 C   0  0  0  0  0  0  0  0  0  0  0  0
   -1.0110   16.6980  -35.1710 C   0  0  0  0  0  0  0  0  0  0  0  0
   -1.2120   17.8210  -34.3650 C   0  0  0  0  0  0  0  0  0  0  0  0
   -2.4990   18.1560  -33.9360 C   0  0  0  0  0  0  0  0  0  0  0  0
   -5.5180   17.0820  -32.6800 C   0  0  0  0  0  0  0  0  0  0  0  0
   -7.0490   17.0460  -32.7990 C   0  0  0  0  0  0  0  0  0  0  0  0
   -7.2120   21.1230  -31.2320 C   0  0  0  0  0  0  0  0  0  0  0  0
   -5.9570   24.6350  -30.5680 C   0  0  0  0  0  0  0  0  0  0  0  0
   -4.8080   25.2960  -30.1230 C   0  0  0  0  0  0  0  0  0  0  0  0
   -2.3140   25.1904  -27.2916 H   0  0  0  0  0  0  0  0  0  0  0  0
   -1.5444   23.8595  -28.2205 H   0  0  0  0  0  0  0  0  0  0  0  0
   -0.8076   25.4977  -28.2205 H   0  0  0  0  0  0  0  0  0  0  0  0
   -2.7675   22.5967  -29.6428 H   0  0  0  0  0  0  0  0  0  0  0  0
   -4.8113   21.4154  -30.4320 H   0  0  0  0  0  0  0  0  0  0  0  0
   -8.3247   24.3498  -31.4943 H   0  0  0  0  0  0  0  0  0  0  0  0
  -10.3629   23.1550  -32.2824 H   0  0  0  0  0  0  0  0  0  0  0  0
  -10.3835   20.6697  -32.4315 H   0  0  0  0  0  0  0  0  0  0  0  0
   -7.8714   18.5184  -30.9358 H   0  0  0  0  0  0  0  0  0  0  0  0
   -9.4085   18.6333  -31.9309 H   0  0  0  0  0  0  0  0  0  0  0  0
   -8.4080   18.2430  -33.7400 H   0  0  0  0  0  0  0  0  0  0  0  0
   -7.3172   20.1239  -34.1966 H   0  0  0  0  0  0  0  0  0  0  0  0
   -6.1570   19.8608  -32.8253 H   0  0  0  0  0  0  0  0  0  0  0  0
   -6.2709   18.2432  -35.4176 H   0  0  0  0  0  0  0  0  0  0  0  0
   -5.0477   19.4931  -34.9946 H   0  0  0  0  0  0  0  0  0  0  0  0
   -4.2414   15.6159  -35.4323 H   0  0  0  0  0  0  0  0  0  0  0  0
   -1.9405   15.0271  -36.1896 H   0  0  0  0  0  0  0  0  0  0  0  0
    0.0035   16.4345  -35.5046 H   0  0  0  0  0  0  0  0  0  0  0  0
   -0.3551   18.4431  -34.0673 H   0  0  0  0  0  0  0  0  0  0  0  0
   -2.6496   19.0404  -33.2995 H   0  0  0  0  0  0  0  0  0  0  0  0
   -5.1351   16.0548  -32.5888 H   0  0  0  0  0  0  0  0  0  0  0  0
   -5.2377   17.6639  -31.7896 H   0  0  0  0  0  0  0  0  0  0  0  0
   -7.3192   16.3937  -33.6425 H   0  0  0  0  0  0  0  0  0  0  0  0
   -7.4431   16.6691  -31.8437 H   0  0  0  0  0  0  0  0  0  0  0  0
   -6.3354   20.5469  -30.9007 H   0  0  0  0  0  0  0  0  0  0  0  0
   -6.8545   25.2147  -30.8296 H   0  0  0  0  0  0  0  0  0  0  0  0
   -4.8099   26.3925  -30.0357 H   0  0  0  0  0  0  0  0  0  0  0  0
  1  2  1  0
  2  3  1  0
  3  4  2  0
  4  5  1  0
  5  6  2  0
  6  7  1  0
  7  8  2  0
  8  9  1  0
  9 10  2  0
 10 11  1  0
 11 12  1  0
 12 13  1  0
 13 14  1  0
 14 15  1  0
 15 16  1  0
 16 17  1  0
 17 18  2  0
 18 19  1  0
 19 20  2  0
 20 21  1  0
 21 22  2  0
 16 23  1  0
 23 24  1  0
 11 25  2  0
  6 26  1  0
 26 27  2  0
 27  3  1  0
 25  7  1  0
 24 13  1  0
 22 17  1  0
  1 28  1  0
  1 29  1  0
  1 30  1  0
  4 31  1  0
  5 32  1  0
  8 33  1  0
  9 34  1  0
 10 35  1  0
 12 36  1  0
 12 37  1  0
 13 38  1  0
 14 39  1  0
 14 40  1  0
 15 41  1  0
 15 42  1  0
 18 43  1  0
 19 44  1  0
 20 45  1  0
 21 46  1  0
 22 47  1  0
 23 48  1  0
 23 49  1  0
 24 50  1  0
 24 51  1  0
 25 52  1  0
 26 53  1  0
 27 54  1  0
M  CHG  1  13   1
M  END
>  <UniqueID>  (8) 
7

>  <SMILES>  (8) 
COc1ccc(-c2cccc(C[NH+]3CCN(c4ccccc4)CC3)c2)cc1

>  <Energy>  (8) 
75.10336175945916

>  <Genealogy>  (8) 
COc1ccc(-c2cccc(C[NH+]3CCN(c4ccccc4)CC3)c2)cc1 (protonated)
COc1ccc(-c2cccc(C[NH+]3CCN(c4ccccc4)CC3)c2)cc1 (3D coordinates assigned)
COc1ccc(-c2cccc(C[NH+]3CCN(c4ccccc4)CC3)c2)cc1 (nonaromatic ring conformer: 75.10336175945916 kcal/mol)

>  <smiles>  (8) 
COc1ccc(-c2cccc(CN3CCN(c4ccccc4)CC3)c2)cc1

>  <score_type>  (8) 
oracle

>  <origin>  (8) 
adg

>  <m_score__min__energy>  (8) 
-9.1899999999999995

>  <m_primary>  (8) 
energy

$$$$
8:0
     RDKit          3D

 50 52  0  0  0  0  0  0  0  0999 V2000
   -8.2370   22.2720  -31.9470 C   0  0  0  0  0  0  0  0  0  0  0  0
   -8.0160   20.7860  -31.9240 C   0  0  0  0  0  0  0  0  0  0  0  0
   -9.1170   19.9120  -31.9080 C   0  0  0  0  0  0  0  0  0  0  0  0
   -8.9210   18.5300  -31.9190 C   0  0  0  0  0  0  0  0  0  0  0  0
   -7.6270   18.0080  -31.9390 C   0  0  0  0  0  0  0  0  0  0  0  0
   -6.5250   18.8650  -31.9600 C   0  0  0  0  0  0  0  0  0  0  0  0
   -6.7090   20.2630  -31.9750 C   0  0  0  0  0  0  0  0  0  0  0  0
   -5.6230   21.1560  -32.0410 O   0  0  0  0  0  0  0  0  0  0  0  0
   -4.6770   21.2240  -33.1090 C   0  0  0  0  0  0  0  0  0  0  0  0
   -3.2830   21.3230  -32.5500 C   0  0  0  0  0  0  0  0  0  0  0  0
   -2.1790   21.1900  -33.4020 C   0  0  0  0  0  0  0  0  0  0  0  0
   -0.8930   21.1600  -32.8610 C   0  0  0  0  0  0  0  0  0  0  0  0
   -0.7190   21.2290  -31.4790 C   0  0  0  0  0  0  0  0  0  0  0  0
   -1.8430   21.3500  -30.6490 C   0  0  0  0  0  0  0  0  0  0  0  0
   -1.7010   21.3290  -29.1510 C   0  0  0  0  0  0  0  0  0  0  0  0
   -3.0380   21.2870  -28.5210 N   0  0  0  0  0  0  0  0  0  0  0  0
   -3.0950   20.2360  -27.4860 C   0  0  0  0  0  0  0  0  0  0  0  0
   -3.3970   22.6010  -27.9480 C   0  0  0  0  0  0  0  0  0  0  0  0
   -4.1990   23.3970  -28.9450 C   0  0  0  0  0  0  0  0  0  0  0  0
   -3.6460   24.5260  -29.5730 C   0  0  0  0  0  0  0  0  0  0  0  0
   -4.4110   25.2740  -30.4720 C   0  0  0  0  0  0  0  0  0  0  0  0
   -5.7310   24.9050  -30.7480 C   0  0  0  0  0  0  0  0  0  0  0  0
   -6.2880   23.7840  -30.1260 C   0  0  0  0  0  0  0  0  0  0  0  0
   -5.5260   23.0330  -29.2260 C   0  0  0  0  0  0  0  0  0  0  0  0
   -3.0880   21.4270  -31.2030 N   0  0  0  0  0  0  0  0  0  0  0  0
   -8.2933   22.6503  -30.9156 H   0  0  0  0  0  0  0  0  0  0  0  0
   -7.4014   22.7589  -32.4711 H   0  0  0  0  0  0  0  0  0  0  0  0
   -9.1781   22.4947  -32.4711 H   0  0  0  0  0  0  0  0  0  0  0  0
  -10.1385   20.3194  -31.8867 H   0  0  0  0  0  0  0  0  0  0  0  0
   -9.7871   17.8520  -31.9119 H   0  0  0  0  0  0  0  0  0  0  0  0
   -7.4748   16.9186  -31.9382 H   0  0  0  0  0  0  0  0  0  0  0  0
   -5.5074   18.4473  -31.9649 H   0  0  0  0  0  0  0  0  0  0  0  0
   -4.7589   20.3181  -33.7276 H   0  0  0  0  0  0  0  0  0  0  0  0
   -4.8859   22.1124  -33.7231 H   0  0  0  0  0  0  0  0  0  0  0  0
   -2.3247   21.1098  -34.4894 H   0  0  0  0  0  0  0  0  0  0  0  0
   -0.0182   21.0821  -33.5233 H   0  0  0  0  0  0  0  0  0  0  0  0
    0.2905   21.1889  -31.0440 H   0  0  0  0  0  0  0  0  0  0  0  0
   -1.1280   20.4392  -28.8511 H   0  0  0  0  0  0  0  0  0  0  0  0
   -1.1740   22.2374  -28.8237 H   0  0  0  0  0  0  0  0  0  0  0  0
   -3.0698   20.7010  -26.4894 H   0  0  0  0  0  0  0  0  0  0  0  0
   -4.0257   19.6605  -27.5987 H   0  0  0  0  0  0  0  0  0  0  0  0
   -2.2320   19.5633  -27.5987 H   0  0  0  0  0  0  0  0  0  0  0  0
   -3.9950   22.4500  -27.0372 H   0  0  0  0  0  0  0  0  0  0  0  0
   -2.4766   23.1516  -27.7034 H   0  0  0  0  0  0  0  0  0  0  0  0
   -2.6088   24.8216  -29.3565 H   0  0  0  0  0  0  0  0  0  0  0  0
   -3.9735   26.1554  -30.9637 H   0  0  0  0  0  0  0  0  0  0  0  0
   -6.3312   25.4969  -31.4547 H   0  0  0  0  0  0  0  0  0  0  0  0
   -7.3259   23.4927  -30.3446 H   0  0  0  0  0  0  0  0  0  0  0  0
   -5.9679   22.1530  -28.7357 H   0  0  0  0  0  0  0  0  0  0  0  0
   -3.9130   21.5340  -30.5720 H   0  0  0  0  0  0  0  0  0  0  0  0
  1  2  1  0
  2  3  2  0
  3  4  1  0
  4  5  2  0
  5  6  1  0
  6  7  2  0
  7  8  1  0
  8  9  1  0
  9 10  1  0
 10 11  2  0
 11 12  1  0
 12 13  2  0
 13 14  1  0
 14 15  1  0
 15 16  1  0
 16 17  1  0
 16 18  1  0
 18 19  1  0
 19 20  2  0
 20 21  1  0
 21 22  2  0
 22 23  1  0
 23 24  2  0
 14 25  2  0
  7  2  1  0
 25 10  1  0
 24 19  1  0
  1 26  1  0
  1 27  1  0
  1 28  1  0
  3 29  1  0
  4 30  1  0
  5 31  1  0
  6 32  1  0
  9 33  1  0
  9 34  1  0
 11 35  1  0
 12 36  1  0
 13 37  1  0
 15 38  1  0
 15 39  1  0
 17 40  1  0
 17 41  1  0
 17 42  1  0
 18 43  1  0
 18 44  1  0
 20 45  1  0
 21 46  1  0
 22 47  1  0
 23 48  1  0
 24 49  1  0
 25 50  1  0
M  CHG  1  25   1
M  END
>  <UniqueID>  (9) 
8

>  <SMILES>  (9) 
Cc1ccccc1OCc1cccc(CN(C)Cc2ccccc2)[nH+]1

>  <Energy>  (9) 
50.25667769295915

>  <Genealogy>  (9) 
Cc1ccccc1OCc1cccc(CN(C)Cc2ccccc2)[nH+]1 (protonated)
Cc1ccccc1OCc1cccc(CN(C)Cc2ccccc2)[nH+]1 (3D coordinates assigned)
Cc1ccccc1OCc1cccc(CN(C)Cc2ccccc2)[nH+]1 (optimized conformer: 50.25667769295915 kcal/mol)

>  <smiles>  (9) 
Cc1ccccc1OCc1cccc(CN(C)Cc2ccccc2)n1

>  <score_type>  (9) 
oracle

>  <origin>  (9) 
adg

>  <m_score__min__energy>  (9) 
-7.8399999999999999

>  <m_primary>  (9) 
energy

$$$$
9:0
     RDKit          3D

 28 30  0  0  0  0  0  0  0  0999 V2000
   -1.9810   24.9640  -28.1620 C   0  0  0  0  0  0  0  0  0  0  0  0
   -2.6970   25.2880  -29.3490 O   0  0  0  0  0  0  0  0  0  0  0  0
   -3.5750   24.4140  -30.0050 C   0  0  0  0  0  0  0  0  0  0  0  0
   -4.8400   24.9110  -30.4070 C   0  0  0  0  0  0  0  0  0  0  0  0
   -5.7640   24.0820  -31.0700 C   0  0  0  0  0  0  0  0  0  0  0  0
   -5.3870   22.7660  -31.3110 C   0  0  0  0  0  0  0  0  0  0  0  0
   -6.0590   21.8150  -31.9000 O   0  0  0  0  0  0  0  0  0  0  0  0
   -5.2710   20.7520  -31.8830 C   0  0  0  0  0  0  0  0  0  0  0  0
   -5.6570   19.4460  -32.4570 C   0  0  0  0  0  0  0  0  0  0  0  0
   -6.1240   18.4170  -31.6200 C   0  0  0  0  0  0  0  0  0  0  0  0
   -6.4890   17.1800  -32.1590 C   0  0  0  0  0  0  0  0  0  0  0  0
   -6.3920   16.9580  -33.5360 C   0  0  0  0  0  0  0  0  0  0  0  0
   -6.8510   15.4050  -34.2100 Cl  0  0  0  0  0  0  0  0  0  0  0  0
   -5.9280   17.9750  -34.3750 C   0  0  0  0  0  0  0  0  0  0  0  0
   -5.5620   19.2140  -33.8410 C   0  0  0  0  0  0  0  0  0  0  0  0
   -4.0710   20.9840  -31.2840 N   0  0  0  0  0  0  0  0  0  0  0  0
   -4.1780   22.2750  -30.9320 C   0  0  0  0  0  0  0  0  0  0  0  0
   -3.2360   23.0640  -30.2740 C   0  0  0  0  0  0  0  0  0  0  0  0
   -2.5844   25.2371  -27.2837 H   0  0  0  0  0  0  0  0  0  0  0  0
   -1.7729   23.8840  -28.1425 H   0  0  0  0  0  0  0  0  0  0  0  0
   -1.0324   25.5206  -28.1425 H   0  0  0  0  0  0  0  0  0  0  0  0
   -5.1030   25.9585  -30.1980 H   0  0  0  0  0  0  0  0  0  0  0  0
   -6.7472   24.4611  -31.3855 H   0  0  0  0  0  0  0  0  0  0  0  0
   -6.2024   18.5863  -30.5359 H   0  0  0  0  0  0  0  0  0  0  0  0
   -6.8533   16.3795  -31.4984 H   0  0  0  0  0  0  0  0  0  0  0  0
   -5.8506   17.8000  -35.4582 H   0  0  0  0  0  0  0  0  0  0  0  0
   -5.1981   20.0110  -34.5061 H   0  0  0  0  0  0  0  0  0  0  0  0
   -2.2612   22.6525  -29.9732 H   0  0  0  0  0  0  0  0  0  0  0  0
  1  2  1  0
  2  3  1  0
  3  4  2  0
  4  5  1  0
  5  6  2  0
  6  7  1  0
  7  8  1  0
  8  9  1  0
  9 10  2  0
 10 11  1  0
 11 12  2  0
 12 13  1  0
 12 14  1  0
 14 15  2  0
  8 16  2  0
 16 17  1  0
 17 18  2  0
 18  3  1  0
 17  6  1  0
 15  9  1  0
  1 19  1  0
  1 20  1  0
  1 21  1  0
  4 22  1  0
  5 23  1  0
 10 24  1  0
 11 25  1  0
 14 26  1  0
 15 27  1  0
 18 28  1  0
M  END
>  <UniqueID>  (10) 
9

>  <SMILES>  (10) 
COc1ccc2oc(-c3ccc(Cl)cc3)nc2c1

>  <Energy>  (10) 
67.4238919499195

>  <Genealogy>  (10) 
COc1ccc2oc(-c3ccc(Cl)cc3)nc2c1 (3D coordinates assigned)
COc1ccc2oc(-c3ccc(Cl)cc3)nc2c1 (optimized conformer: 67.4238919499195 kcal/mol)

>  <smiles>  (10) 
COc1ccc2oc(-c3ccc(Cl)cc3)nc2c1

>  <score_type>  (10) 
oracle

>  <origin>  (10) 
adg

>  <m_score__min__energy>  (10) 
-6.8399999999999999

>  <m_primary>  (10) 
energy

$$$$
10:0
     RDKit          3D

 27 29  0  0  0  0  0  0  0  0999 V2000
   -8.9420   18.5580  -32.2490 C   0  0  0  0  0  0  0  0  0  0  0  0
   -8.4820   19.7420  -32.8910 O   0  0  0  0  0  0  0  0  0  0  0  0
   -7.5710   20.6490  -32.3280 C   0  0  0  0  0  0  0  0  0  0  0  0
   -7.9930   21.8750  -31.7580 C   0  0  0  0  0  0  0  0  0  0  0  0
   -7.0390   22.7270  -31.2080 C   0  0  0  0  0  0  0  0  0  0  0  0
   -5.7000   22.3830  -31.2180 C   0  0  0  0  0  0  0  0  0  0  0  0
   -5.2440   21.2000  -31.7880 C   0  0  0  0  0  0  0  0  0  0  0  0
   -6.1950   20.3130  -32.3440 C   0  0  0  0  0  0  0  0  0  0  0  0
   -5.8170   19.0920  -32.9260 O   0  0  0  0  0  0  0  0  0  0  0  0
   -5.8620   18.8190  -34.3230 C   0  0  0  0  0  0  0  0  0  0  0  0
   -4.9670   23.4730  -30.6200 C   0  0  0  0  0  0  0  0  0  0  0  0
   -3.7840   23.9880  -30.9900 N   0  0  0  0  0  0  0  0  0  0  0  0
   -3.8710   25.3060  -30.8330 N   0  0  0  0  0  0  0  0  0  0  0  0
   -5.1260   25.6210  -30.4360 C   0  0  0  0  0  0  0  0  0  0  0  0
   -5.8380   24.4530  -30.2840 C   0  0  0  0  0  0  0  0  0  0  0  0
   -7.2550   24.1000  -30.6210 C   0  0  0  0  0  0  0  0  0  0  0  0
   -8.8911   18.6890  -31.1580 H   0  0  0  0  0  0  0  0  0  0  0  0
   -9.9824   18.3602  -32.5464 H   0  0  0  0  0  0  0  0  0  0  0  0
   -8.3080   17.7097  -32.5464 H   0  0  0  0  0  0  0  0  0  0  0  0
   -9.0581   22.1498  -31.7500 H   0  0  0  0  0  0  0  0  0  0  0  0
   -4.1707   20.9598  -31.8062 H   0  0  0  0  0  0  0  0  0  0  0  0
   -6.0390   17.7449  -34.4812 H   0  0  0  0  0  0  0  0  0  0  0  0
   -6.6770   19.3967  -34.7834 H   0  0  0  0  0  0  0  0  0  0  0  0
   -4.9047   19.1045  -34.7834 H   0  0  0  0  0  0  0  0  0  0  0  0
   -5.5111   26.6369  -30.2642 H   0  0  0  0  0  0  0  0  0  0  0  0
   -7.8934   24.0674  -29.7258 H   0  0  0  0  0  0  0  0  0  0  0  0
   -7.7705   24.8142  -31.2799 H   0  0  0  0  0  0  0  0  0  0  0  0
  1  2  1  0
  2  3  1  0
  3  4  2  0
  4  5  1  0
  5  6  2  0
  6  7  1  0
  7  8  2  0
  8  9  1  0
  9 10  1  0
  6 11  1  0
 11 12  1  0
 12 13  1  0
 13 14  2  0
 14 15  1  0
 15 16  1  0
  8  3  1  0
 15 11  2  0
 16  5  1  0
  1 17  1  0
  1 18  1  0
  1 19  1  0
  4 20  1  0
  7 21  1  0
 10 22  1  0
 10 23  1  0
 10 24  1  0
 14 25  1  0
 16 26  1  0
 16 27  1  0
M  CHG  1  12  -1
M  END
>  <UniqueID>  (11) 
10

>  <SMILES>  (11) 
COc1cc2c(cc1OC)-c1[n-]ncc1C2

>  <Energy>  (11) 
98.63605752705878

>  <Genealogy>  (11) 
COc1cc2c(cc1OC)-c1[n-]ncc1C2 (protonated)
COc1cc2c(cc1OC)-c1[n-]ncc1C2 (3D coordinates assigned)
COc1cc2c(cc1OC)-c1[n-]ncc1C2 (nonaromatic ring conformer: 98.63605752705878 kcal/mol)

>  <smiles>  (11) 
COc1cc2c(cc1OC)-c1[nH]ncc1C2

>  <score_type>  (11) 
oracle

>  <origin>  (11) 
adg

>  <m_score__min__energy>  (11) 
-7.7000000000000002

>  <m_primary>  (11) 
energy

$$$$
11:0
     RDKit          3D

 36 38  0  0  0  0  0  0  0  0999 V2000
   -3.7940   23.2200  -31.0440 C   0  0  0  0  0  0  0  0  0  0  0  0
   -3.8640   24.5760  -30.4730 N   0  0  0  0  0  0  0  0  0  0  0  0
   -3.6450   24.5030  -29.0190 C   0  0  0  0  0  0  0  0  0  0  0  0
   -5.1710   25.2050  -30.7620 C   0  0  0  0  0  0  0  0  0  0  0  0
   -6.1590   24.9410  -29.6210 C   0  0  0  0  0  0  0  0  0  0  0  0
   -6.4410   23.5110  -29.5130 N   0  0  0  0  0  0  0  0  0  0  0  0
   -7.2650   22.8130  -30.4570 C   0  0  0  0  0  0  0  0  0  0  0  0
   -8.3470   21.9540  -30.0560 C   0  0  0  0  0  0  0  0  0  0  0  0
   -9.0400   21.3680  -31.1660 C   0  0  0  0  0  0  0  0  0  0  0  0
   -9.4640   22.4740  -31.9730 C   0  0  0  0  0  0  0  0  0  0  0  0
   -8.3830   23.3350  -32.3710 C   0  0  0  0  0  0  0  0  0  0  0  0
   -7.1060   22.9090  -31.8820 C   0  0  0  0  0  0  0  0  0  0  0  0
   -6.9590   21.5600  -32.3330 C   0  0  0  0  0  0  0  0  0  0  0  0
   -5.9060   21.0590  -33.0930 C   0  0  0  0  0  0  0  0  0  0  0  0
   -5.9310   19.7020  -33.4450 C   0  0  0  0  0  0  0  0  0  0  0  0
   -6.9640   18.8930  -33.0550 N   0  0  0  0  0  0  0  0  0  0  0  0
   -8.0120   19.3600  -32.3130 C   0  0  0  0  0  0  0  0  0  0  0  0
   -8.9470   18.5850  -31.9750 O   0  0  0  0  0  0  0  0  0  0  0  0
   -8.0320   20.7030  -31.9350 C   0  0  0  0  0  0  0  0  0  0  0  0
   -3.7558   22.4810  -30.2301 H   0  0  0  0  0  0  0  0  0  0  0  0
   -4.6839   23.0369  -31.6641 H   0  0  0  0  0  0  0  0  0  0  0  0
   -2.8900   23.1295  -31.6641 H   0  0  0  0  0  0  0  0  0  0  0  0
   -4.5622   24.8087  -28.4943 H   0  0  0  0  0  0  0  0  0  0  0  0
   -3.3886   23.4708  -28.7382 H   0  0  0  0  0  0  0  0  0  0  0  0
   -2.8206   25.1749  -28.7382 H   0  0  0  0  0  0  0  0  0  0  0  0
   -5.0327   26.2902  -30.8770 H   0  0  0  0  0  0  0  0  0  0  0  0
   -5.5757   24.7733  -31.6893 H   0  0  0  0  0  0  0  0  0  0  0  0
   -5.7245   25.2973  -28.6754 H   0  0  0  0  0  0  0  0  0  0  0  0
   -7.0974   25.4753  -29.8303 H   0  0  0  0  0  0  0  0  0  0  0  0
   -6.0460   22.9840  -28.7030 H   0  0  0  0  0  0  0  0  0  0  0  0
   -8.6151   21.7661  -29.0059 H   0  0  0  0  0  0  0  0  0  0  0  0
  -10.5119   22.6470  -32.2594 H   0  0  0  0  0  0  0  0  0  0  0  0
   -8.5233   24.2331  -32.9905 H   0  0  0  0  0  0  0  0  0  0  0  0
   -5.0772   21.7097  -33.4087 H   0  0  0  0  0  0  0  0  0  0  0  0
   -5.1090   19.2816  -34.0429 H   0  0  0  0  0  0  0  0  0  0  0  0
   -6.9460   17.8880  -33.3390 H   0  0  0  0  0  0  0  0  0  0  0  0
  1  2  1  0
  2  3  1  0
  2  4  1  0
  4  5  1  0
  5  6  1  0
  6  7  1  0
  7  8  2  0
  8  9  1  0
  9 10  2  0
 10 11  1  0
 11 12  2  0
 12 13  1  0
 13 14  1  0
 14 15  2  0
 15 16  1  0
 16 17  1  0
 17 18  2  0
 17 19  1  0
 12  7  1  0
 19 13  2  0
 19  9  1  0
  1 20  1  0
  1 21  1  0
  1 22  1  0
  3 23  1  0
  3 24  1  0
  3 25  1  0
  4 26  1  0
  4 27  1  0
  5 28  1  0
  5 29  1  0
  6 30  1  0
  8 31  1  0
 10 32  1  0
 11 33  1  0
 14 34  1  0
 15 35  1  0
 16 36  1  0
M  END
>  <UniqueID>  (12) 
11

>  <SMILES>  (12) 
CN(C)CCNc1cc2ccc1c1cc[nH]c(=O)c21

>  <Energy>  (12) 
248.87504391894828

>  <Genealogy>  (12) 
CN(C)CCNc1cc2ccc1c1cc[nH]c(=O)c21 (3D coordinates assigned)
CN(C)CCNc1cc2ccc1c1cc[nH]c(=O)c21 (optimized conformer: 248.87504391894828 kcal/mol)

>  <smiles>  (12) 
CN(C)CCNc1cc2ccc1c1cc[nH]c(=O)c21

>  <score_type>  (12) 
oracle

>  <origin>  (12) 
adg

>  <m_score__min__energy>  (12) 
-7.1299999999999999

>  <m_primary>  (12) 
energy

$$$$
12:0
     RDKit          3D

 57 60  0  0  0  0  0  0  0  0999 V2000
   -1.0339   22.1010  -28.9614 H   0  0  0  0  0  0  0  0  0  0  0  0
   -1.7850   22.7960  -29.3650 C   0  0  0  0  0  0  0  0  0  0  0  0
   -1.8950   24.0980  -28.8570 C   0  0  0  0  0  0  0  0  0  0  0  0
   -1.0260   24.5900  -27.7570 C   0  0  0  0  0  0  0  0  0  0  0  0
    0.3240   24.2020  -27.6630 C   0  0  0  0  0  0  0  0  0  0  0  0
    0.7535   23.5368  -28.4266 H   0  0  0  0  0  0  0  0  0  0  0  0
    1.1240   24.6530  -26.6100 C   0  0  0  0  0  0  0  0  0  0  0  0
    2.1786   24.3456  -26.5533 H   0  0  0  0  0  0  0  0  0  0  0  0
    0.5900   25.4940  -25.6270 C   0  0  0  0  0  0  0  0  0  0  0  0
    1.3850   25.9510  -24.5650 C   0  0  0  0  0  0  0  0  0  0  0  0
    2.4418   25.6520  -24.5028 H   0  0  0  0  0  0  0  0  0  0  0  0
    0.8380   26.7850  -23.5860 C   0  0  0  0  0  0  0  0  0  0  0  0
    1.4652   27.1396  -22.7548 H   0  0  0  0  0  0  0  0  0  0  0  0
   -0.5040   27.1700  -23.6600 C   0  0  0  0  0  0  0  0  0  0  0  0
   -0.9296   27.8272  -22.8874 H   0  0  0  0  0  0  0  0  0  0  0  0
   -1.3060   26.7220  -24.7130 C   0  0  0  0  0  0  0  0  0  0  0  0
   -2.3614   27.0272  -24.7667 H   0  0  0  0  0  0  0  0  0  0  0  0
   -0.7690   25.8840  -25.7020 C   0  0  0  0  0  0  0  0  0  0  0  0
   -1.5650   25.4270  -26.7630 C   0  0  0  0  0  0  0  0  0  0  0  0
   -2.6220   25.7264  -26.8183 H   0  0  0  0  0  0  0  0  0  0  0  0
   -2.8250   24.9350  -29.3890 N   0  0  0  0  0  0  0  0  0  0  0  0
   -3.6660   24.5340  -30.3800 C   0  0  0  0  0  0  0  0  0  0  0  0
   -4.5630   25.3410  -30.8630 N   0  0  0  0  0  0  0  0  0  0  0  0
   -5.8080   25.7230  -30.1960 C   0  0  0  0  0  0  0  0  0  0  0  0
   -6.2374   26.5943  -30.7123 H   0  0  0  0  0  0  0  0  0  0  0  0
   -5.5782   25.9633  -29.1474 H   0  0  0  0  0  0  0  0  0  0  0  0
   -6.8350   24.5730  -30.2150 C   0  0  0  0  0  0  0  0  0  0  0  0
   -7.7742   24.9545  -30.6421 H   0  0  0  0  0  0  0  0  0  0  0  0
   -6.9514   24.2318  -29.1758 H   0  0  0  0  0  0  0  0  0  0  0  0
   -6.4050   23.3960  -31.0090 N   0  0  0  0  0  0  0  0  0  0  0  0
   -5.3620   23.3420  -31.0350 H   0  0  0  0  0  0  0  0  0  0  0  0
   -6.8650   23.5400  -32.4020 C   0  0  0  0  0  0  0  0  0  0  0  0
   -7.9147   23.8686  -32.4094 H   0  0  0  0  0  0  0  0  0  0  0  0
   -6.2434   24.2866  -32.9181 H   0  0  0  0  0  0  0  0  0  0  0  0
   -6.7801   22.5723  -32.9181 H   0  0  0  0  0  0  0  0  0  0  0  0
   -6.9340   22.1370  -30.4500 C   0  0  0  0  0  0  0  0  0  0  0  0
   -6.9133   22.1864  -29.3513 H   0  0  0  0  0  0  0  0  0  0  0  0
   -7.9696   21.9910  -30.7910 H   0  0  0  0  0  0  0  0  0  0  0  0
   -6.3135   21.2951  -30.7910 H   0  0  0  0  0  0  0  0  0  0  0  0
   -3.5720   23.2710  -30.8670 N   0  0  0  0  0  0  0  0  0  0  0  0
   -2.6480   22.3920  -30.3970 C   0  0  0  0  0  0  0  0  0  0  0  0
   -2.6310   20.9840  -30.9650 C   0  0  0  0  0  0  0  0  0  0  0  0
   -2.8154   20.3063  -30.1184 H   0  0  0  0  0  0  0  0  0  0  0  0
   -1.2490   20.6380  -31.5540 C   0  0  0  0  0  0  0  0  0  0  0  0
   -0.4733   21.0133  -30.8703 H   0  0  0  0  0  0  0  0  0  0  0  0
   -1.2054   19.5447  -31.6668 H   0  0  0  0  0  0  0  0  0  0  0  0
   -1.0130   21.2540  -32.9500 C   0  0  0  0  0  0  0  0  0  0  0  0
   -0.5261   22.2317  -32.8194 H   0  0  0  0  0  0  0  0  0  0  0  0
   -0.3889   20.5431  -33.5114 H   0  0  0  0  0  0  0  0  0  0  0  0
   -2.2480   21.4510  -33.7330 N   0  0  0  0  0  0  0  0  0  0  0  0
   -2.0160   21.3490  -34.7490 H   0  0  0  0  0  0  0  0  0  0  0  0
   -3.2870   20.4730  -33.3990 C   0  0  0  0  0  0  0  0  0  0  0  0
   -4.1287   20.5828  -34.0987 H   0  0  0  0  0  0  0  0  0  0  0  0
   -2.8664   19.4595  -33.4764 H   0  0  0  0  0  0  0  0  0  0  0  0
   -3.7850   20.7030  -31.9650 C   0  0  0  0  0  0  0  0  0  0  0  0
   -4.4683   21.5650  -31.9643 H   0  0  0  0  0  0  0  0  0  0  0  0
   -4.2896   19.7819  -31.6380 H   0  0  0  0  0  0  0  0  0  0  0  0
  1  2  1  0
  2  3  1  0
  3  4  1  0
  4  5  2  0
  5  6  1  0
  5  7  1  0
  7  8  1  0
  7  9  2  0
  9 10  1  0
 10 11  1  0
 10 12  2  0
 12 13  1  0
 12 14  1  0
 14 15  1  0
 14 16  2  0
 16 17  1  0
 16 18  1  0
 18 19  2  0
 19 20  1  0
  3 21  2  0
 21 22  1  0
 22 23  2  0
 23 24  1  0
 24 25  1  0
 24 26  1  0
 24 27  1  0
 27 28  1  0
 27 29  1  0
 27 30  1  0
 30 31  1  0
 30 32  1  0
 32 33  1  0
 32 34  1  0
 32 35  1  0
 30 36  1  0
 36 37  1  0
 36 38  1  0
 36 39  1  0
 22 40  1  0
 40 41  1  0
 41 42  1  0
 42 43  1  0
 42 44  1  0
 44 45  1  0
 44 46  1  0
 44 47  1  0
 47 48  1  0
 47 49  1  0
 47 50  1  0
 50 51  1  0
 50 52  1  0
 52 53  1  0
 52 54  1  0
 52 55  1  0
 55 56  1  0
 55 57  1  0
 41  2  2  0
 55 42  1  0
 19  4  1  0
 18  9  1  0
M  CHG  2  30   1  40  -1
M  END
>  <UniqueID>  (13) 
12

>  <SMILES>  (13) 
C[NH+](C)CC/N=c1\nc(-c2ccc3ccccc3c2)cc(C2CCNCC2)[n-]1

>  <Energy>  (13) 
73.49160163348867

>  <Genealogy>  (13) 
C[NH+](C)CCN=c1nc(-c2ccc3ccccc3c2)cc(C2CCNCC2)[n-]1 (protonated)
C[NH+](C)CC/N=c1\nc(-c2ccc3ccccc3c2)cc(C2CCNCC2)[n-]1 (cis-trans isomerization)
C[NH+](C)CC/N=c1\nc(-c2ccc3ccccc3c2)cc(C2CCNCC2)[n-]1 (3D coordinates assigned)
C[NH+](C)CC/N=c1\nc(-c2ccc3ccccc3c2)cc(C2CCNCC2)[n-]1 (nonaromatic ring conformer: 73.49160163348867 kcal/mol)

>  <smiles>  (13) 
CN(C)CCN=c1nc(-c2ccc3ccccc3c2)cc(C2CCNCC2)[nH]1

>  <score_type>  (13) 
oracle

>  <origin>  (13) 
adg

>  <m_score__min__energy>  (13) 
-9.5600000000000005

>  <m_primary>  (13) 
energy

$$$$
13:0
     RDKit          3D

 41 42  0  0  0  0  0  0  0  0999 V2000
   -5.9610   25.0760  -29.3740 C   0  0  0  0  0  0  0  0  0  0  0  0
   -5.0960   25.7070  -30.4600 C   0  0  0  0  0  0  0  0  0  0  0  0
   -3.8360   25.0630  -30.5220 O   0  0  0  0  0  0  0  0  0  0  0  0
   -3.4380   24.5810  -29.2520 C   0  0  0  0  0  0  0  0  0  0  0  0
   -2.1820   23.7100  -29.3860 C   0  0  0  0  0  0  0  0  0  0  0  0
   -2.5240   22.2620  -29.7590 C   0  0  0  0  0  0  0  0  0  0  0  0
   -3.4650   22.2100  -30.8760 N   0  0  0  0  0  0  0  0  0  0  0  0
   -3.4450   21.1610  -31.8550 C   0  0  0  0  0  0  0  0  0  0  0  0
   -2.5870   20.2390  -31.7820 O   0  0  0  0  0  0  0  0  0  0  0  0
   -4.4310   21.1590  -32.9860 C   0  0  0  0  0  0  0  0  0  0  0  0
   -5.7830   21.4700  -32.4940 N   0  0  0  0  0  0  0  0  0  0  0  0
   -6.1410   22.8400  -32.2160 C   0  0  0  0  0  0  0  0  0  0  0  0
   -5.3840   23.7880  -32.5580 O   0  0  0  0  0  0  0  0  0  0  0  0
   -7.3960   23.1420  -31.4540 C   0  0  0  0  0  0  0  0  0  0  0  0
   -8.4080   22.1810  -31.7400 O   0  0  0  0  0  0  0  0  0  0  0  0
   -8.1190   20.8400  -32.0080 C   0  0  0  0  0  0  0  0  0  0  0  0
   -9.1460   19.8930  -31.9390 C   0  0  0  0  0  0  0  0  0  0  0  0
   -8.8800   18.5490  -32.2050 C   0  0  0  0  0  0  0  0  0  0  0  0
   -7.5890   18.1480  -32.5480 C   0  0  0  0  0  0  0  0  0  0  0  0
   -6.5580   19.0880  -32.6320 C   0  0  0  0  0  0  0  0  0  0  0  0
   -6.8100   20.4520  -32.3650 C   0  0  0  0  0  0  0  0  0  0  0  0
   -5.5723   25.3595  -28.3848 H   0  0  0  0  0  0  0  0  0  0  0  0
   -6.9966   25.4323  -29.4769 H   0  0  0  0  0  0  0  0  0  0  0  0
   -5.9380   23.9811  -29.4769 H   0  0  0  0  0  0  0  0  0  0  0  0
   -5.6027   25.6068  -31.4312 H   0  0  0  0  0  0  0  0  0  0  0  0
   -4.9428   26.7700  -30.2223 H   0  0  0  0  0  0  0  0  0  0  0  0
   -3.2204   25.4334  -28.5916 H   0  0  0  0  0  0  0  0  0  0  0  0
   -4.2516   23.9749  -28.8269 H   0  0  0  0  0  0  0  0  0  0  0  0
   -1.5367   24.1354  -30.1687 H   0  0  0  0  0  0  0  0  0  0  0  0
   -1.6711   23.6983  -28.4119 H   0  0  0  0  0  0  0  0  0  0  0  0
   -1.6000   21.7375  -30.0440 H   0  0  0  0  0  0  0  0  0  0  0  0
   -2.9919   21.7801  -28.8879 H   0  0  0  0  0  0  0  0  0  0  0  0
   -4.2110   22.9410  -30.9270 H   0  0  0  0  0  0  0  0  0  0  0  0
   -4.1329   21.9153  -33.7270 H   0  0  0  0  0  0  0  0  0  0  0  0
   -4.4417   20.1598  -33.4459 H   0  0  0  0  0  0  0  0  0  0  0  0
   -7.1762   23.1237  -30.3763 H   0  0  0  0  0  0  0  0  0  0  0  0
   -7.7596   24.1355  -31.7552 H   0  0  0  0  0  0  0  0  0  0  0  0
  -10.1661   20.2084  -31.6744 H   0  0  0  0  0  0  0  0  0  0  0  0
   -9.6887   17.8059  -32.1441 H   0  0  0  0  0  0  0  0  0  0  0  0
   -7.3813   17.0875  -32.7533 H   0  0  0  0  0  0  0  0  0  0  0  0
   -5.5438   18.7635  -32.9078 H   0  0  0  0  0  0  0  0  0  0  0  0
  1  2  1  0
  2  3  1  0
  3  4  1  0
  4  5  1  0
  5  6  1  0
  6  7  1  0
  7  8  1  0
  8  9  2  0
  8 10  1  0
 10 11  1  0
 11 12  1  0
 12 13  2  0
 12 14  1  0
 14 15  1  0
 15 16  1  0
 16 17  2  0
 17 18  1  0
 18 19  2  0
 19 20  1  0
 20 21  2  0
 21 11  1  0
 21 16  1  0
  1 22  1  0
  1 23  1  0
  1 24  1  0
  2 25  1  0
  2 26  1  0
  4 27  1  0
  4 28  1  0
  5 29  1  0
  5 30  1  0
  6 31  1  0
  6 32  1  0
  7 33  1  0
 10 34  1  0
 10 35  1  0
 14 36  1  0
 14 37  1  0
 17 38  1  0
 18 39  1  0
 19 40  1  0
 20 41  1  0
M  END
>  <UniqueID>  (14) 
13

>  <SMILES>  (14) 
CCOCCCNC(=O)CN1C(=O)COc2ccccc21

>  <Energy>  (14) 
38.60976682703663

>  <Genealogy>  (14) 
CCOCCCNC(=O)CN1C(=O)COc2ccccc21 (3D coordinates assigned)
CCOCCCNC(=O)CN1C(=O)COc2ccccc21 (nonaromatic ring conformer: 38.60976682703663 kcal/mol)

>  <smiles>  (14) 
CCOCCCNC(=O)CN1C(=O)COc2ccccc21

>  <score_type>  (14) 
oracle

>  <origin>  (14) 
adg

>  <m_score__min__energy>  (14) 
-7.79

>  <m_primary>  (14) 
energy

$$$$
14:0
     RDKit          3D

 73 76  0  0  0  0  0  0  0  0999 V2000
   -0.6920   26.4590  -23.3570 C   0  0  0  0  0  0  0  0  0  0  0  0
   -1.2310   27.0660  -24.6490 C   0  0  0  0  0  0  0  0  0  0  0  0
   -2.2980   26.2770  -25.1760 O   0  0  0  0  0  0  0  0  0  0  0  0
   -2.1720   25.2950  -26.1720 C   0  0  0  0  0  0  0  0  0  0  0  0
   -0.8850   24.9580  -26.6070 C   0  0  0  0  0  0  0  0  0  0  0  0
   -0.6980   23.9900  -27.5980 C   0  0  0  0  0  0  0  0  0  0  0  0
   -1.8020   23.3380  -28.1750 C   0  0  0  0  0  0  0  0  0  0  0  0
   -1.6050   22.3100  -29.2300 C   0  0  0  0  0  0  0  0  0  0  0  0
   -1.4210   20.9590  -28.8860 C   0  0  0  0  0  0  0  0  0  0  0  0
   -1.2390   19.9920  -29.8800 C   0  0  0  0  0  0  0  0  0  0  0  0
   -1.2340   20.3600  -31.2340 C   0  0  0  0  0  0  0  0  0  0  0  0
   -1.1110   19.3110  -32.3070 C   0  0  0  0  0  0  0  0  0  0  0  0
   -2.5030   18.8290  -32.7290 C   0  0  0  0  0  0  0  0  0  0  0  0
   -3.1230   19.7420  -33.7870 C   0  0  0  0  0  0  0  0  0  0  0  0
   -4.3040   20.4340  -33.2110 N   0  0  0  0  0  0  0  0  0  0  0  0
   -4.0980   21.8920  -33.1750 C   0  0  0  0  0  0  0  0  0  0  0  0
   -4.6500   19.9300  -31.8610 C   0  0  0  0  0  0  0  0  0  0  0  0
   -6.1510   19.5460  -31.7730 C   0  0  1  0  0  0  0  0  0  0  0  0
   -7.1300   20.6990  -31.8620 C   0  0  0  0  0  0  0  0  0  0  0  0
   -6.7590   22.0570  -31.9270 C   0  0  0  0  0  0  0  0  0  0  0  0
   -7.7440   23.0470  -31.9870 C   0  0  0  0  0  0  0  0  0  0  0  0
   -9.0970   22.6970  -31.9740 C   0  0  0  0  0  0  0  0  0  0  0  0
   -9.4750   21.3540  -31.9030 C   0  0  0  0  0  0  0  0  0  0  0  0
   -8.4960   20.3520  -31.8570 C   0  0  0  0  0  0  0  0  0  0  0  0
   -8.8740   18.8940  -31.7340 C   0  0  0  0  0  0  0  0  0  0  0  0
   -7.9830   18.0100  -32.6330 C   0  0  0  0  0  0  0  0  0  0  0  0
   -6.5910   18.5040  -32.7340 N   0  0  0  0  0  0  0  0  0  0  0  0
   -5.8710   18.1870  -33.9480 C   0  0  0  0  0  0  0  0  0  0  0  0
   -5.9980   18.9160  -34.9680 O   0  0  0  0  0  0  0  0  0  0  0  0
   -5.0230   16.9480  -34.0500 C   0  0  0  0  0  0  0  0  0  0  0  0
   -4.9820   16.1940  -32.7270 C   0  0  0  0  0  0  0  0  0  0  0  0
   -1.4330   21.7040  -31.5830 C   0  0  0  0  0  0  0  0  0  0  0  0
   -1.6080   22.6720  -30.5910 C   0  0  0  0  0  0  0  0  0  0  0  0
   -3.0960   23.6790  -27.7390 C   0  0  0  0  0  0  0  0  0  0  0  0
   -3.2810   24.6480  -26.7500 C   0  0  0  0  0  0  0  0  0  0  0  0
   -1.1456   26.9698  -22.4948 H   0  0  0  0  0  0  0  0  0  0  0  0
   -0.9425   25.3885  -23.3224 H   0  0  0  0  0  0  0  0  0  0  0  0
    0.4006   26.5812  -23.3224 H   0  0  0  0  0  0  0  0  0  0  0  0
   -1.6014   28.0811  -24.4430 H   0  0  0  0  0  0  0  0  0  0  0  0
   -0.4177   27.0967  -25.3890 H   0  0  0  0  0  0  0  0  0  0  0  0
   -0.0119   25.4600  -26.1646 H   0  0  0  0  0  0  0  0  0  0  0  0
    0.3200   23.7366  -27.9287 H   0  0  0  0  0  0  0  0  0  0  0  0
   -1.4202   20.6605  -27.8273 H   0  0  0  0  0  0  0  0  0  0  0  0
   -1.0991   18.9378  -29.5989 H   0  0  0  0  0  0  0  0  0  0  0  0
   -0.5941   19.7396  -33.1782 H   0  0  0  0  0  0  0  0  0  0  0  0
   -0.5366   18.4586  -31.9152 H   0  0  0  0  0  0  0  0  0  0  0  0
   -2.4182   17.8127  -33.1412 H   0  0  0  0  0  0  0  0  0  0  0  0
   -3.1532   18.8427  -31.8419 H   0  0  0  0  0  0  0  0  0  0  0  0
   -2.3812   20.4880  -34.1082 H   0  0  0  0  0  0  0  0  0  0  0  0
   -3.4360   19.1406  -34.6533 H   0  0  0  0  0  0  0  0  0  0  0  0
   -4.0503   22.2299  -32.1293 H   0  0  0  0  0  0  0  0  0  0  0  0
   -3.1556   22.1419  -33.6844 H   0  0  0  0  0  0  0  0  0  0  0  0
   -4.9343   22.3932  -33.6844 H   0  0  0  0  0  0  0  0  0  0  0  0
   -4.0390   19.0419  -31.6421 H   0  0  0  0  0  0  0  0  0  0  0  0
   -4.4510   20.7275  -31.1299 H   0  0  0  0  0  0  0  0  0  0  0  0
   -6.1840   19.1363  -30.7527 H   0  0  0  0  0  0  0  0  0  0  0  0
   -5.6954   22.3376  -31.9305 H   0  0  0  0  0  0  0  0  0  0  0  0
   -7.4529   24.1062  -32.0447 H   0  0  0  0  0  0  0  0  0  0  0  0
   -9.8667   23.4815  -32.0198 H   0  0  0  0  0  0  0  0  0  0  0  0
  -10.5409   21.0829  -31.8832 H   0  0  0  0  0  0  0  0  0  0  0  0
   -8.7527   18.5787  -30.6872 H   0  0  0  0  0  0  0  0  0  0  0  0
   -9.9195   18.7763  -32.0552 H   0  0  0  0  0  0  0  0  0  0  0  0
   -7.9642   16.9925  -32.2155 H   0  0  0  0  0  0  0  0  0  0  0  0
   -8.4135   18.0313  -33.6450 H   0  0  0  0  0  0  0  0  0  0  0  0
   -5.4427   16.2895  -34.8247 H   0  0  0  0  0  0  0  0  0  0  0  0
   -3.9975   17.2499  -34.3091 H   0  0  0  0  0  0  0  0  0  0  0  0
   -5.0210   16.9119  -31.8945 H   0  0  0  0  0  0  0  0  0  0  0  0
   -5.8445   15.5141  -32.6656 H   0  0  0  0  0  0  0  0  0  0  0  0
   -4.0509   15.6116  -32.6656 H   0  0  0  0  0  0  0  0  0  0  0  0
   -1.4513   21.9972  -32.6430 H   0  0  0  0  0  0  0  0  0  0  0  0
   -1.7492   23.7252  -30.8752 H   0  0  0  0  0  0  0  0  0  0  0  0
   -3.9697   23.1779  -28.1811 H   0  0  0  0  0  0  0  0  0  0  0  0
   -4.2982   24.9069  -26.4211 H   0  0  0  0  0  0  0  0  0  0  0  0
  1  2  1  0
  2  3  1  0
  3  4  1  0
  4  5  2  0
  5  6  1  0
  6  7  2  0
  7  8  1  0
  8  9  2  0
  9 10  1  0
 10 11  2  0
 11 12  1  0
 12 13  1  0
 13 14  1  0
 14 15  1  0
 15 16  1  0
 15 17  1  0
 17 18  1  0
 18 19  1  0
 19 20  2  0
 20 21  1  0
 21 22  2  0
 22 23  1  0
 23 24  2  0
 24 25  1  0
 25 26  1  0
 26 27  1  0
 27 28  1  0
 28 29  2  0
 28 30  1  0
 30 31  1  0
 11 32  1  0
 32 33  2  0
  7 34  1  0
 34 35  2  0
 35  4  1  0
 33  8  1  0
 27 18  1  0
 24 19  1  0
  1 36  1  0
  1 37  1  0
  1 38  1  0
  2 39  1  0
  2 40  1  0
  5 41  1  0
  6 42  1  0
  9 43  1  0
 10 44  1  0
 12 45  1  0
 12 46  1  0
 13 47  1  0
 13 48  1  0
 14 49  1  0
 14 50  1  0
 16 51  1  0
 16 52  1  0
 16 53  1  0
 17 54  1  0
 17 55  1  0
 18 56  1  1
 20 57  1  0
 21 58  1  0
 22 59  1  0
 23 60  1  0
 25 61  1  0
 25 62  1  0
 26 63  1  0
 26 64  1  0
 30 65  1  0
 30 66  1  0
 31 67  1  0
 31 68  1  0
 31 69  1  0
 32 70  1  0
 33 71  1  0
 34 72  1  0
 35 73  1  0
M  END
>  <UniqueID>  (15) 
14

>  <SMILES>  (15) 
CCOc1ccc(-c2ccc(CCCN(C)C[C@H]3c4ccccc4CCN3C(=O)CC)cc2)cc1

>  <Energy>  (15) 
86.2617975423547

>  <Genealogy>  (15) 
CCOc1ccc(-c2ccc(CCCN(C)C[C@H]3c4ccccc4CCN3C(=O)CC)cc2)cc1 (chirality)
CCOc1ccc(-c2ccc(CCCN(C)C[C@H]3c4ccccc4CCN3C(=O)CC)cc2)cc1 (3D coordinates assigned)
CCOc1ccc(-c2ccc(CCCN(C)C[C@H]3c4ccccc4CCN3C(=O)CC)cc2)cc1 (nonaromatic ring conformer: 86.2617975423547 kcal/mol)

>  <smiles>  (15) 
CCOc1ccc(-c2ccc(CCCN(C)CC3c4ccccc4CCN3C(=O)CC)cc2)cc1

>  <score_type>  (15) 
oracle

>  <origin>  (15) 
adg

>  <m_score__min__energy>  (15) 
-9.9499999999999993

>  <m_primary>  (15) 
energy

$$$$
15:0
     RDKit          3D

 39 42  0  0  0  0  0  0  0  0999 V2000
   -2.4140   24.6310  -28.6310 C   0  0  0  0  0  0  0  0  0  0  0  0
   -3.1720   25.1410  -29.7240 O   0  0  0  0  0  0  0  0  0  0  0  0
   -4.4080   24.6240  -30.1540 C   0  0  0  0  0  0  0  0  0  0  0  0
   -5.6090   25.3170  -29.9250 C   0  0  0  0  0  0  0  0  0  0  0  0
   -6.8190   24.7980  -30.3730 C   0  0  0  0  0  0  0  0  0  0  0  0
   -6.8600   23.5740  -31.0380 C   0  0  0  0  0  0  0  0  0  0  0  0
   -5.6800   22.8310  -31.2600 C   0  0  0  0  0  0  0  0  0  0  0  0
   -5.6950   21.5620  -31.9090 C   0  0  0  0  0  0  0  0  0  0  0  0
   -4.4710   20.9440  -32.2620 C   0  0  0  0  0  0  0  0  0  0  0  0
   -3.2640   21.5040  -31.8150 C   0  0  0  0  0  0  0  0  0  0  0  0
   -3.2500   22.6960  -31.1000 C   0  0  0  0  0  0  0  0  0  0  0  0
   -4.4410   23.3860  -30.8330 C   0  0  0  0  0  0  0  0  0  0  0  0
   -4.4840   19.6870  -33.0720 C   0  0  0  0  0  0  0  0  0  0  0  0
   -3.3710   19.2980  -33.8430 C   0  0  0  0  0  0  0  0  0  0  0  0
   -3.4010   18.1210  -34.5870 C   0  0  0  0  0  0  0  0  0  0  0  0
   -4.5330   17.3110  -34.5770 C   0  0  0  0  0  0  0  0  0  0  0  0
   -5.6650   17.6770  -33.8340 C   0  0  0  0  0  0  0  0  0  0  0  0
   -6.8660   16.7700  -33.8470 C   0  0  0  0  0  0  0  0  0  0  0  0
   -5.6580   18.8990  -33.1120 C   0  0  0  0  0  0  0  0  0  0  0  0
   -6.8500   19.3450  -32.2970 C   0  0  0  0  0  0  0  0  0  0  0  0
   -6.9900   20.8720  -32.2970 C   0  0  0  0  0  0  0  0  0  0  0  0
   -2.8791   24.9439  -27.6846 H   0  0  0  0  0  0  0  0  0  0  0  0
   -2.3902   23.5325  -28.6822 H   0  0  0  0  0  0  0  0  0  0  0  0
   -1.3874   25.0228  -28.6822 H   0  0  0  0  0  0  0  0  0  0  0  0
   -5.5919   26.2767  -29.3876 H   0  0  0  0  0  0  0  0  0  0  0  0
   -7.7503   25.3576  -30.2012 H   0  0  0  0  0  0  0  0  0  0  0  0
   -7.8239   23.1817  -31.3945 H   0  0  0  0  0  0  0  0  0  0  0  0
   -2.3153   20.9921  -32.0337 H   0  0  0  0  0  0  0  0  0  0  0  0
   -2.2936   23.1026  -30.7395 H   0  0  0  0  0  0  0  0  0  0  0  0
   -2.4704   19.9294  -33.8575 H   0  0  0  0  0  0  0  0  0  0  0  0
   -2.5254   17.8299  -35.1858 H   0  0  0  0  0  0  0  0  0  0  0  0
   -4.5399   16.3761  -35.1566 H   0  0  0  0  0  0  0  0  0  0  0  0
   -7.1657   16.5436  -32.8131 H   0  0  0  0  0  0  0  0  0  0  0  0
   -7.6963   17.2685  -34.3687 H   0  0  0  0  0  0  0  0  0  0  0  0
   -6.6137   15.8350  -34.3687 H   0  0  0  0  0  0  0  0  0  0  0  0
   -7.7616   18.9023  -32.7249 H   0  0  0  0  0  0  0  0  0  0  0  0
   -6.7032   19.0115  -31.2591 H   0  0  0  0  0  0  0  0  0  0  0  0
   -7.2798   21.2020  -33.3055 H   0  0  0  0  0  0  0  0  0  0  0  0
   -7.7549   21.1429  -31.5544 H   0  0  0  0  0  0  0  0  0  0  0  0
  1  2  1  0
  2  3  1  0
  3  4  2  0
  4  5  1  0
  5  6  2  0
  6  7  1  0
  7  8  2  0
  8  9  1  0
  9 10  2  0
 10 11  1  0
 11 12  2  0
  9 13  1  0
 13 14  2  0
 14 15  1  0
 15 16  2  0
 16 17  1  0
 17 18  1  0
 17 19  2  0
 19 20  1  0
 20 21  1  0
 12  3  1  0
 19 13  1  0
 12  7  1  0
 21  8  1  0
  1 22  1  0
  1 23  1  0
  1 24  1  0
  4 25  1  0
  5 26  1  0
  6 27  1  0
 10 28  1  0
 11 29  1  0
 14 30  1  0
 15 31  1  0
 16 32  1  0
 18 33  1  0
 18 34  1  0
 18 35  1  0
 20 36  1  0
 20 37  1  0
 21 38  1  0
 21 39  1  0
M  END
>  <UniqueID>  (16) 
15

>  <SMILES>  (16) 
COc1cccc2c3c(ccc12)-c1cccc(C)c1CC3

>  <Energy>  (16) 
58.39100139231559

>  <Genealogy>  (16) 
COc1cccc2c3c(ccc12)-c1cccc(C)c1CC3 (3D coordinates assigned)
COc1cccc2c3c(ccc12)-c1cccc(C)c1CC3 (nonaromatic ring conformer: 58.39100139231559 kcal/mol)

>  <smiles>  (16) 
COc1cccc2c3c(ccc12)-c1cccc(C)c1CC3

>  <score_type>  (16) 
oracle

>  <origin>  (16) 
adg

>  <m_score__min__energy>  (16) 
-9.1999999999999993

>  <m_primary>  (16) 
energy

$$$$
16:0
     RDKit          3D

 43 46  0  0  0  0  0  0  0  0999 V2000
    0.6180   23.0200  -27.4030 C   0  0  0  0  0  0  0  0  0  0  0  0
    0.2900   23.6890  -28.6170 O   0  0  0  0  0  0  0  0  0  0  0  0
   -0.8910   23.4940  -29.3530 C   0  0  0  0  0  0  0  0  0  0  0  0
   -1.0960   22.3090  -30.0860 C   0  0  0  0  0  0  0  0  0  0  0  0
   -2.2750   22.1090  -30.8150 C   0  0  0  0  0  0  0  0  0  0  0  0
   -2.4690   20.8590  -31.5850 C   0  0  0  0  0  0  0  0  0  0  0  0
   -1.3620   20.1540  -32.0970 C   0  0  0  0  0  0  0  0  0  0  0  0
   -1.5360   19.0030  -32.8150 N   0  0  0  0  0  0  0  0  0  0  0  0
   -2.7730   18.4840  -33.0600 C   0  0  0  0  0  0  0  0  0  0  0  0
   -3.9000   19.1410  -32.5600 C   0  0  0  0  0  0  0  0  0  0  0  0
   -3.7380   20.3180  -31.8330 C   0  0  0  0  0  0  0  0  0  0  0  0
   -5.2490   20.8780  -31.3120 S   0  0  0  0  0  0  0  0  0  0  0  0
   -6.1130   19.6250  -32.0340 C   0  0  0  0  0  0  0  0  0  0  0  0
   -7.4910   19.4230  -32.0250 C   0  0  0  0  0  0  0  0  0  0  0  0
   -8.0040   18.3010  -32.6910 C   0  0  0  0  0  0  0  0  0  0  0  0
   -7.1380   17.4070  -33.3480 C   0  0  0  0  0  0  0  0  0  0  0  0
   -5.7500   17.6260  -33.3470 C   0  0  0  0  0  0  0  0  0  0  0  0
   -5.2430   18.7500  -32.6810 C   0  0  0  0  0  0  0  0  0  0  0  0
   -3.2520   23.1100  -30.8290 C   0  0  0  0  0  0  0  0  0  0  0  0
   -3.0710   24.2990  -30.1030 C   0  0  0  0  0  0  0  0  0  0  0  0
   -4.0410   25.3150  -30.0920 O   0  0  0  0  0  0  0  0  0  0  0  0
   -5.4420   25.0940  -29.9630 C   0  0  0  0  0  0  0  0  0  0  0  0
   -1.8940   24.4980  -29.3620 C   0  0  0  0  0  0  0  0  0  0  0  0
   -1.7880   25.7150  -28.6600 O   0  0  0  0  0  0  0  0  0  0  0  0
   -1.3850   25.8830  -27.3060 C   0  0  0  0  0  0  0  0  0  0  0  0
    0.3133   23.6414  -26.5480 H   0  0  0  0  0  0  0  0  0  0  0  0
    0.0906   22.0556  -27.3617 H   0  0  0  0  0  0  0  0  0  0  0  0
    1.7034   22.8464  -27.3617 H   0  0  0  0  0  0  0  0  0  0  0  0
   -0.3195   21.5299  -30.0859 H   0  0  0  0  0  0  0  0  0  0  0  0
   -0.3454   20.5338  -31.9172 H   0  0  0  0  0  0  0  0  0  0  0  0
   -0.6960   18.5070  -33.1880 H   0  0  0  0  0  0  0  0  0  0  0  0
   -2.8822   17.5586  -33.6446 H   0  0  0  0  0  0  0  0  0  0  0  0
   -8.1603   20.1264  -31.5081 H   0  0  0  0  0  0  0  0  0  0  0  0
   -9.0887   18.1185  -32.7001 H   0  0  0  0  0  0  0  0  0  0  0  0
   -7.5512   16.5294  -33.8667 H   0  0  0  0  0  0  0  0  0  0  0  0
   -5.0730   16.9272  -33.8602 H   0  0  0  0  0  0  0  0  0  0  0  0
   -4.1717   22.9646  -31.4147 H   0  0  0  0  0  0  0  0  0  0  0  0
   -5.7099   25.0517  -28.8970 H   0  0  0  0  0  0  0  0  0  0  0  0
   -5.9890   25.9170  -30.4462 H   0  0  0  0  0  0  0  0  0  0  0  0
   -5.7091   24.1426  -30.4462 H   0  0  0  0  0  0  0  0  0  0  0  0
   -2.1922   25.5465  -26.6387 H   0  0  0  0  0  0  0  0  0  0  0  0
   -0.4800   25.2872  -27.1162 H   0  0  0  0  0  0  0  0  0  0  0  0
   -1.1712   26.9452  -27.1162 H   0  0  0  0  0  0  0  0  0  0  0  0
  1  2  1  0
  2  3  1  0
  3  4  2  0
  4  5  1  0
  5  6  1  0
  6  7  2  0
  7  8  1  0
  8  9  2  0
  9 10  1  0
 10 11  2  0
 11 12  1  0
 12 13  1  0
 13 14  2  0
 14 15  1  0
 15 16  2  0
 16 17  1  0
 17 18  2  0
  5 19  2  0
 19 20  1  0
 20 21  1  0
 21 22  1  0
 20 23  2  0
 23 24  1  0
 24 25  1  0
 23  3  1  0
 11  6  1  0
 18 13  1  0
 18 10  1  0
  1 26  1  0
  1 27  1  0
  1 28  1  0
  4 29  1  0
  7 30  1  0
  8 31  1  0
  9 32  1  0
 14 33  1  0
 15 34  1  0
 16 35  1  0
 17 36  1  0
 19 37  1  0
 22 38  1  0
 22 39  1  0
 22 40  1  0
 25 41  1  0
 25 42  1  0
 25 43  1  0
M  CHG  1   8   1
M  END
>  <UniqueID>  (17) 
16

>  <SMILES>  (17) 
COc1cc(-c2c[nH+]cc3c2sc2ccccc23)cc(OC)c1OC

>  <Energy>  (17) 
91.61335978315473

>  <Genealogy>  (17) 
COc1cc(-c2c[nH+]cc3c2sc2ccccc23)cc(OC)c1OC (protonated)
COc1cc(-c2c[nH+]cc3c2sc2ccccc23)cc(OC)c1OC (3D coordinates assigned)
COc1cc(-c2c[nH+]cc3c2sc2ccccc23)cc(OC)c1OC (optimized conformer: 91.61335978315473 kcal/mol)

>  <smiles>  (17) 
COc1cc(-c2cncc3c2sc2ccccc23)cc(OC)c1OC

>  <score_type>  (17) 
oracle

>  <origin>  (17) 
adg

>  <m_score__min__energy>  (17) 
-7.5899999999999999

>  <m_primary>  (17) 
energy

$$$$
17:0
     RDKit          3D

 55 59  0  0  1  0  0  0  0  0999 V2000
    0.6100   22.9790  -36.0300 C   0  0  0  0  0  0  0  0  0  0  0  0
    0.6050   22.2660  -34.8600 O   0  0  0  0  0  0  0  0  0  0  0  0
    0.3580   20.9520  -35.0200 C   0  0  0  0  0  0  0  0  0  0  0  0
    1.2420   19.9480  -34.3400 C   0  0  0  0  0  0  0  0  0  0  0  0
    0.4670   19.2170  -33.3690 N   0  0  0  0  0  0  0  0  0  0  0  0
   -0.6570   19.6570  -32.9110 C   0  0  0  0  0  0  0  0  0  0  0  0
   -0.7120   20.6600  -32.0030 N   0  0  0  0  0  0  0  0  0  0  0  0
   -1.9390   21.0270  -31.6050 C   0  0  0  0  0  0  0  0  0  0  0  0
   -2.0840   22.1150  -30.6170 C   0  0  0  0  0  0  0  0  0  0  0  0
   -1.4140   22.0570  -29.4220 C   0  0  0  0  0  0  0  0  0  0  0  0
   -1.5720   23.0910  -28.5200 C   0  0  0  0  0  0  0  0  0  0  0  0
   -2.3710   24.1880  -28.7540 C   0  0  0  0  0  0  0  0  0  0  0  0
   -3.0460   24.2460  -29.9550 C   0  0  0  0  0  0  0  0  0  0  0  0
   -3.8810   25.2960  -30.3100 O   0  0  0  0  0  0  0  0  0  0  0  0
   -5.2740   25.0750  -30.2710 C   0  0  0  0  0  0  0  0  0  0  0  0
   -2.8810   23.2080  -30.8480 C   0  0  0  0  0  0  0  0  0  0  0  0
   -3.0760   20.4780  -32.0360 N   0  0  0  0  0  0  0  0  0  0  0  0
   -3.0820   19.4520  -32.9600 C   0  0  0  0  0  0  0  0  0  0  0  0
   -4.1460   18.8260  -33.4650 C   0  0  0  0  0  0  0  0  0  0  0  0
   -5.5620   19.1260  -33.1160 C   0  0  0  0  0  0  0  0  0  0  0  0
   -6.4710   18.0630  -33.0860 C   0  0  0  0  0  0  0  0  0  0  0  0
   -7.7970   18.3570  -32.7570 C   0  0  0  0  0  0  0  0  0  0  0  0
   -8.1740   19.6450  -32.4780 C   0  0  0  0  0  0  0  0  0  0  0  0
   -9.4870   19.9120  -32.1560 C   0  0  0  0  0  0  0  0  0  0  0  0
   -9.8660   21.2050  -31.8760 C   0  0  0  0  0  0  0  0  0  0  0  0
   -8.9370   22.2280  -31.9170 C   0  0  0  0  0  0  0  0  0  0  0  0
   -7.6070   21.9860  -32.2390 C   0  0  0  0  0  0  0  0  0  0  0  0
   -7.2710   20.6800  -32.5110 C   0  0  0  0  0  0  0  0  0  0  0  0
   -5.9620   20.4160  -32.8330 C   0  0  0  0  0  0  0  0  0  0  0  0
   -3.8990   17.8090  -34.3960 C   0  0  0  0  0  0  0  0  0  0  0  0
   -2.1030   17.7630  -34.5380 S   0  0  0  0  0  0  0  0  0  0  0  0
   -1.8300   19.0740  -33.3720 C   0  0  0  0  0  0  0  0  0  0  0  0
    0.6175   24.0554  -35.8034 H   0  0  0  0  0  0  0  0  0  0  0  0
    1.5064   22.7207  -36.6130 H   0  0  0  0  0  0  0  0  0  0  0  0
   -0.2899   22.7333  -36.6130 H   0  0  0  0  0  0  0  0  0  0  0  0
   -0.6661   20.7724  -34.6608 H   0  0  0  0  0  0  0  0  0  0  0  0
    0.5467   20.7810  -36.0901 H   0  0  0  0  0  0  0  0  0  0  0  0
    1.6492   19.2504  -35.0867 H   0  0  0  0  0  0  0  0  0  0  0  0
    2.0720   20.4660  -33.8372 H   0  0  0  0  0  0  0  0  0  0  0  0
    0.1740   21.0560  -31.6960 H   0  0  0  0  0  0  0  0  0  0  0  0
   -0.7626   21.2026  -29.1860 H   0  0  0  0  0  0  0  0  0  0  0  0
   -1.0309   23.0353  -27.5639 H   0  0  0  0  0  0  0  0  0  0  0  0
   -2.4675   24.9907  -28.0081 H   0  0  0  0  0  0  0  0  0  0  0  0
   -5.6077   25.0221  -29.2242 H   0  0  0  0  0  0  0  0  0  0  0  0
   -5.7909   25.9024  -30.7792 H   0  0  0  0  0  0  0  0  0  0  0  0
   -5.5094   24.1283  -30.7792 H   0  0  0  0  0  0  0  0  0  0  0  0
   -3.4217   23.2594  -31.8046 H   0  0  0  0  0  0  0  0  0  0  0  0
   -6.1539   17.0344  -33.3128 H   0  0  0  0  0  0  0  0  0  0  0  0
   -8.5431   17.5495  -32.7217 H   0  0  0  0  0  0  0  0  0  0  0  0
  -10.2263   19.0981  -32.1230 H   0  0  0  0  0  0  0  0  0  0  0  0
  -10.9125   21.4255  -31.6185 H   0  0  0  0  0  0  0  0  0  0  0  0
   -9.2574   23.2555  -31.6899 H   0  0  0  0  0  0  0  0  0  0  0  0
   -6.8628   22.7953  -32.2745 H   0  0  0  0  0  0  0  0  0  0  0  0
   -5.2297   21.2362  -32.8654 H   0  0  0  0  0  0  0  0  0  0  0  0
   -4.6340   17.1812  -34.9210 H   0  0  0  0  0  0  0  0  0  0  0  0
  1  2  1  0
  2  3  1  0
  3  4  1  0
  4  5  1  0
  5  6  2  0
  6  7  1  0
  7  8  1  0
  8  9  1  0
  9 10  2  0
 10 11  1  0
 11 12  2  0
 12 13  1  0
 13 14  1  0
 14 15  1  0
 13 16  2  0
  8 17  2  0
 17 18  1  0
 18 19  1  0
 19 20  1  0
 20 21  2  0
 21 22  1  0
 22 23  2  0
 23 24  1  0
 24 25  2  0
 25 26  1  0
 26 27  2  0
 27 28  1  0
 28 29  2  0
 19 30  2  0
 30 31  1  0
 31 32  1  0
 32  6  1  0
 16  9  1  0
 32 18  2  0
 29 20  1  0
 28 23  1  0
  1 33  1  0
  1 34  1  0
  1 35  1  0
  3 36  1  0
  3 37  1  0
  4 38  1  0
  4 39  1  0
  7 40  1  0
 10 41  1  0
 11 42  1  0
 12 43  1  0
 15 44  1  0
 15 45  1  0
 15 46  1  0
 16 47  1  0
 21 48  1  0
 22 49  1  0
 24 50  1  0
 25 51  1  0
 26 52  1  0
 27 53  1  0
 29 54  1  0
 30 55  1  0
M  END
>  <smiles>  (18) 
COCCN=c1[nH]c(-c2cccc(OC)c2)nc2c(-c3ccc4ccccc4c3)csc12

>  <score_type>  (18) 
oracle

>  <origin>  (18) 
adg

>  <m_score__min__energy>  (18) 
-10.300000000000001

>  <m_primary>  (18) 
energy

$$$$
18:0
     RDKit          3D

 34 34  0  0  0  0  0  0  0  0999 V2000
   -2.1780   24.5840  -28.8550 C   0  0  0  0  0  0  0  0  0  0  0  0
   -3.1020   25.2360  -29.7190 O   0  0  0  0  0  0  0  0  0  0  0  0
   -4.3250   24.6870  -30.1310 C   0  0  0  0  0  0  0  0  0  0  0  0
   -5.5510   25.3550  -29.9480 C   0  0  0  0  0  0  0  0  0  0  0  0
   -6.7430   24.7700  -30.3830 C   0  0  0  0  0  0  0  0  0  0  0  0
   -6.7260   23.5170  -30.9990 C   0  0  0  0  0  0  0  0  0  0  0  0
   -5.5140   22.8320  -31.1750 C   0  0  0  0  0  0  0  0  0  0  0  0
   -5.4900   21.4970  -31.8710 C   0  0  0  0  0  0  0  0  0  0  0  0
   -6.7550   21.3060  -32.7180 C   0  0  0  0  0  0  0  0  0  0  0  0
   -7.1720   19.8270  -32.9180 C   0  0  0  0  0  0  0  0  0  0  0  0
   -8.5910   19.4800  -32.6270 N   0  0  0  0  0  0  0  0  0  0  0  0
   -9.4230   20.6400  -32.2650 C   0  0  0  0  0  0  0  0  0  0  0  0
   -8.7330   18.3940  -31.6400 C   0  0  0  0  0  0  0  0  0  0  0  0
   -4.3160   23.4310  -30.7490 C   0  0  0  0  0  0  0  0  0  0  0  0
   -2.4544   24.7790  -27.8083 H   0  0  0  0  0  0  0  0  0  0  0  0
   -2.2005   23.5007  -29.0444 H   0  0  0  0  0  0  0  0  0  0  0  0
   -1.1649   24.9684  -29.0444 H   0  0  0  0  0  0  0  0  0  0  0  0
   -5.5704   26.3410  -29.4608 H   0  0  0  0  0  0  0  0  0  0  0  0
   -7.6973   25.2979  -30.2398 H   0  0  0  0  0  0  0  0  0  0  0  0
   -7.6663   23.0651  -31.3477 H   0  0  0  0  0  0  0  0  0  0  0  0
   -4.6065   21.4459  -32.5243 H   0  0  0  0  0  0  0  0  0  0  0  0
   -5.4486   20.7022  -31.1117 H   0  0  0  0  0  0  0  0  0  0  0  0
   -7.5837   21.8336  -32.2231 H   0  0  0  0  0  0  0  0  0  0  0  0
   -6.5284   21.7069  -33.7169 H   0  0  0  0  0  0  0  0  0  0  0  0
   -6.9750   19.5656  -33.9682 H   0  0  0  0  0  0  0  0  0  0  0  0
   -6.5824   19.2615  -32.1814 H   0  0  0  0  0  0  0  0  0  0  0  0
   -8.9850   19.1040  -33.5230 H   0  0  0  0  0  0  0  0  0  0  0  0
   -9.4816   20.7217  -31.1696 H   0  0  0  0  0  0  0  0  0  0  0  0
   -8.9746   21.5558  -32.6775 H   0  0  0  0  0  0  0  0  0  0  0  0
  -10.4343   20.5089  -32.6775 H   0  0  0  0  0  0  0  0  0  0  0  0
   -8.6783   18.8123  -30.6241 H   0  0  0  0  0  0  0  0  0  0  0  0
   -9.7039   17.8962  -31.7797 H   0  0  0  0  0  0  0  0  0  0  0  0
   -7.9228   17.6633  -31.7797 H   0  0  0  0  0  0  0  0  0  0  0  0
   -3.3610   22.9072  -30.9029 H   0  0  0  0  0  0  0  0  0  0  0  0
  1  2  1  0
  2  3  1  0
  3  4  2  0
  4  5  1  0
  5  6  2  0
  6  7  1  0
  7  8  1  0
  8  9  1  0
  9 10  1  0
 10 11  1  0
 11 12  1  0
 11 13  1  0
  7 14  2  0
 14  3  1  0
  1 15  1  0
  1 16  1  0
  1 17  1  0
  4 18  1  0
  5 19  1  0
  6 20  1  0
  8 21  1  0
  8 22  1  0
  9 23  1  0
  9 24  1  0
 10 25  1  0
 10 26  1  0
 11 27  1  0
 12 28  1  0
 12 29  1  0
 12 30  1  0
 13 31  1  0
 13 32  1  0
 13 33  1  0
 14 34  1  0
M  CHG  1  11   1
M  END
>  <UniqueID>  (19) 
17

>  <SMILES>  (19) 
COc1cccc(CCC[NH+](C)C)c1

>  <Energy>  (19) 
34.251641887234314

>  <Genealogy>  (19) 
COc1cccc(CCC[NH+](C)C)c1 (protonated)
COc1cccc(CCC[NH+](C)C)c1 (3D coordinates assigned)
COc1cccc(CCC[NH+](C)C)c1 (optimized conformer: 34.251641887234314 kcal/mol)

>  <smiles>  (19) 
COc1cccc(CCCN(C)C)c1

>  <score_type>  (19) 
oracle

>  <origin>  (19) 
adg

>  <m_score__min__energy>  (19) 
-5.5800000000000001

>  <m_primary>  (19) 
energy

$$$$
19:0
     RDKit          3D

 41 43  0  0  0  0  0  0  0  0999 V2000
   -9.2940   18.9280  -32.3400 C   0  0  0  0  0  0  0  0  0  0  0  0
   -7.9800   19.6270  -32.4940 C   0  0  0  0  0  0  0  0  0  0  0  0
   -6.5850   18.8710  -33.0720 S   0  0  0  0  0  0  0  0  0  0  0  0
   -5.6250   20.2360  -32.9370 C   0  0  0  0  0  0  0  0  0  0  0  0
   -4.3110   20.3240  -33.2540 N   0  0  0  0  0  0  0  0  0  0  0  0
   -3.6710   21.5110  -33.0880 C   0  0  0  0  0  0  0  0  0  0  0  0
   -4.3490   22.5980  -32.6230 N   0  0  0  0  0  0  0  0  0  0  0  0
   -5.6730   22.5400  -32.3000 C   0  0  0  0  0  0  0  0  0  0  0  0
   -6.4650   24.0510  -31.7450 S   0  0  0  0  0  0  0  0  0  0  0  0
   -5.7970   23.9350  -30.0510 C   0  0  0  0  0  0  0  0  0  0  0  0
   -4.3590   24.3640  -30.0600 C   0  0  0  0  0  0  0  0  0  0  0  0
   -4.0120   25.2930  -30.8400 O   0  0  0  0  0  0  0  0  0  0  0  0
   -3.3620   23.7150  -29.2440 N   0  0  0  0  0  0  0  0  0  0  0  0
   -2.9650   22.3280  -29.5020 C   0  0  0  0  0  0  0  0  0  0  0  0
   -2.6690   24.4790  -28.2400 C   0  0  0  0  0  0  0  0  0  0  0  0
   -1.4770   25.1520  -28.5630 C   0  0  0  0  0  0  0  0  0  0  0  0
   -0.8050   25.9010  -27.5910 C   0  0  0  0  0  0  0  0  0  0  0  0
   -1.3170   25.9860  -26.2940 C   0  0  0  0  0  0  0  0  0  0  0  0
   -2.5040   25.3240  -25.9660 C   0  0  0  0  0  0  0  0  0  0  0  0
   -3.1780   24.5730  -26.9340 C   0  0  0  0  0  0  0  0  0  0  0  0
   -6.3520   21.3120  -32.4480 C   0  0  0  0  0  0  0  0  0  0  0  0
   -7.7030   20.9700  -32.1780 C   0  0  0  0  0  0  0  0  0  0  0  0
   -8.7350   21.8990  -31.5970 C   0  0  0  0  0  0  0  0  0  0  0  0
   -9.5218   18.8068  -31.2707 H   0  0  0  0  0  0  0  0  0  0  0  0
  -10.0849   19.5246  -32.8181 H   0  0  0  0  0  0  0  0  0  0  0  0
   -9.2413   17.9387  -32.8181 H   0  0  0  0  0  0  0  0  0  0  0  0
   -3.7930   19.4920  -33.6170 H   0  0  0  0  0  0  0  0  0  0  0  0
   -2.6012   21.5950  -33.3299 H   0  0  0  0  0  0  0  0  0  0  0  0
   -6.3730   24.5913  -29.3821 H   0  0  0  0  0  0  0  0  0  0  0  0
   -5.8721   22.8975  -29.6932 H   0  0  0  0  0  0  0  0  0  0  0  0
   -2.8154   21.8055  -28.5457 H   0  0  0  0  0  0  0  0  0  0  0  0
   -3.7543   21.8216  -30.0770 H   0  0  0  0  0  0  0  0  0  0  0  0
   -2.0273   22.3159  -30.0770 H   0  0  0  0  0  0  0  0  0  0  0  0
   -1.0716   25.0892  -29.5836 H   0  0  0  0  0  0  0  0  0  0  0  0
    0.1280   26.4238  -27.8484 H   0  0  0  0  0  0  0  0  0  0  0  0
   -0.7862   26.5739  -25.5307 H   0  0  0  0  0  0  0  0  0  0  0  0
   -2.9081   25.3940  -24.9453 H   0  0  0  0  0  0  0  0  0  0  0  0
   -4.1113   24.0533  -26.6716 H   0  0  0  0  0  0  0  0  0  0  0  0
   -8.6889   21.8575  -30.4988 H   0  0  0  0  0  0  0  0  0  0  0  0
   -8.5343   22.9267  -31.9338 H   0  0  0  0  0  0  0  0  0  0  0  0
   -9.7361   21.5917  -31.9338 H   0  0  0  0  0  0  0  0  0  0  0  0
  1  2  1  0
  2  3  1  0
  3  4  1  0
  4  5  2  0
  5  6  1  0
  6  7  2  0
  7  8  1  0
  8  9  1  0
  9 10  1  0
 10 11  1  0
 11 12  2  0
 11 13  1  0
 13 14  1  0
 13 15  1  0
 15 16  2  0
 16 17  1  0
 17 18  2  0
 18 19  1  0
 19 20  2  0
  8 21  2  0
 21 22  1  0
 22 23  1  0
 22  2  2  0
 21  4  1  0
 20 15  1  0
  1 24  1  0
  1 25  1  0
  1 26  1  0
  5 27  1  0
  6 28  1  0
 10 29  1  0
 10 30  1  0
 14 31  1  0
 14 32  1  0
 14 33  1  0
 16 34  1  0
 17 35  1  0
 18 36  1  0
 19 37  1  0
 20 38  1  0
 23 39  1  0
 23 40  1  0
 23 41  1  0
M  CHG  1   5   1
M  END
>  <UniqueID>  (20) 
18

>  <SMILES>  (20) 
Cc1sc2[nH+]cnc(SCC(=O)N(C)c3ccccc3)c2c1C

>  <Energy>  (20) 
79.29934449853496

>  <Genealogy>  (20) 
Cc1sc2[nH+]cnc(SCC(=O)N(C)c3ccccc3)c2c1C (protonated)
Cc1sc2[nH+]cnc(SCC(=O)N(C)c3ccccc3)c2c1C (3D coordinates assigned)
Cc1sc2[nH+]cnc(SCC(=O)N(C)c3ccccc3)c2c1C (optimized conformer: 79.29934449853496 kcal/mol)

>  <smiles>  (20) 
Cc1sc2ncnc(SCC(=O)N(C)c3ccccc3)c2c1C

>  <score_type>  (20) 
oracle

>  <origin>  (20) 
adg

>  <m_score__min__energy>  (20) 
-8.8100000000000005

>  <m_primary>  (20) 
energy

$$$$
20:0
     RDKit          3D

 57 60  0  0  0  0  0  0  0  0999 V2000
   -9.0820   18.1820  -31.5890 C   0  0  0  0  0  0  0  0  0  0  0  0
   -7.7620   18.6680  -32.2010 C   0  0  0  0  0  0  0  0  0  0  0  0
   -7.9240   19.9190  -32.9910 N   0  0  0  0  0  0  0  0  0  0  0  0
   -8.8510   20.8620  -32.3100 C   0  0  0  0  0  0  0  0  0  0  0  0
   -8.3610   21.2890  -30.9220 C   0  0  0  0  0  0  0  0  0  0  0  0
   -6.6010   20.5170  -33.3200 C   0  0  0  0  0  0  0  0  0  0  0  0
   -5.4010   19.5690  -33.1110 C   0  0  0  0  0  0  0  0  0  0  0  0
   -4.3920   20.1870  -32.2460 N   0  0  0  0  0  0  0  0  0  0  0  0
   -2.9990   20.2960  -32.6110 C   0  0  0  0  0  0  0  0  0  0  0  0
   -2.5290   19.8130  -33.8500 C   0  0  0  0  0  0  0  0  0  0  0  0
   -1.1770   19.9140  -34.1860 C   0  0  0  0  0  0  0  0  0  0  0  0
   -0.2730   20.4890  -33.2950 C   0  0  0  0  0  0  0  0  0  0  0  0
   -0.7200   20.9740  -32.0660 C   0  0  0  0  0  0  0  0  0  0  0  0
   -2.0830   20.9100  -31.7270 C   0  0  0  0  0  0  0  0  0  0  0  0
   -2.5200   21.3710  -30.4400 N   0  0  0  0  0  0  0  0  0  0  0  0
   -2.7560   22.5870  -30.0080 C   0  0  0  0  0  0  0  0  0  0  0  0
   -1.7740   23.1840  -29.1770 C   0  0  0  0  0  0  0  0  0  0  0  0
   -0.6680   22.4570  -28.6810 C   0  0  0  0  0  0  0  0  0  0  0  0
    0.3050   23.0880  -27.9020 C   0  0  0  0  0  0  0  0  0  0  0  0
    0.2010   24.4490  -27.6140 C   0  0  0  0  0  0  0  0  0  0  0  0
   -0.8780   25.1860  -28.1020 C   0  0  0  0  0  0  0  0  0  0  0  0
   -1.8640   24.5640  -28.8770 C   0  0  0  0  0  0  0  0  0  0  0  0
   -2.9000   25.2970  -29.3490 N   0  0  0  0  0  0  0  0  0  0  0  0
   -3.9090   24.7480  -30.0670 C   0  0  0  0  0  0  0  0  0  0  0  0
   -4.9820   25.5600  -30.4550 C   0  0  0  0  0  0  0  0  0  0  0  0
   -6.0960   25.0030  -31.0780 C   0  0  0  0  0  0  0  0  0  0  0  0
   -6.1630   23.6260  -31.2790 C   0  0  0  0  0  0  0  0  0  0  0  0
   -5.0940   22.8070  -30.9060 C   0  0  0  0  0  0  0  0  0  0  0  0
   -3.9070   23.3590  -30.3670 C   0  0  0  0  0  0  0  0  0  0  0  0
   -9.0092   18.2088  -30.4917 H   0  0  0  0  0  0  0  0  0  0  0  0
   -9.9020   18.8372  -31.9182 H   0  0  0  0  0  0  0  0  0  0  0  0
   -9.2813   17.1515  -31.9182 H   0  0  0  0  0  0  0  0  0  0  0  0
   -7.0446   18.8549  -31.3884 H   0  0  0  0  0  0  0  0  0  0  0  0
   -7.4041   17.8853  -32.8860 H   0  0  0  0  0  0  0  0  0  0  0  0
   -8.3580   19.6620  -33.9120 H   0  0  0  0  0  0  0  0  0  0  0  0
   -8.9581   21.7606  -32.9353 H   0  0  0  0  0  0  0  0  0  0  0  0
   -9.8091   20.3391  -32.1733 H   0  0  0  0  0  0  0  0  0  0  0  0
   -8.9519   20.7741  -30.1501 H   0  0  0  0  0  0  0  0  0  0  0  0
   -7.2997   21.0226  -30.8098 H   0  0  0  0  0  0  0  0  0  0  0  0
   -8.4798   22.3768  -30.8098 H   0  0  0  0  0  0  0  0  0  0  0  0
   -6.6160   20.8248  -34.3760 H   0  0  0  0  0  0  0  0  0  0  0  0
   -6.4579   21.3604  -32.6285 H   0  0  0  0  0  0  0  0  0  0  0  0
   -5.7544   18.6379  -32.6440 H   0  0  0  0  0  0  0  0  0  0  0  0
   -4.9444   19.3583  -34.0893 H   0  0  0  0  0  0  0  0  0  0  0  0
   -4.7030   20.5810  -31.3290 H   0  0  0  0  0  0  0  0  0  0  0  0
   -3.2336   19.3526  -34.5582 H   0  0  0  0  0  0  0  0  0  0  0  0
   -0.8245   19.5381  -35.1578 H   0  0  0  0  0  0  0  0  0  0  0  0
    0.7921   20.5603  -33.5606 H   0  0  0  0  0  0  0  0  0  0  0  0
   -0.0009   21.4098  -31.3568 H   0  0  0  0  0  0  0  0  0  0  0  0
   -0.5726   21.3854  -28.9103 H   0  0  0  0  0  0  0  0  0  0  0  0
    1.1564   22.5094  -27.5142 H   0  0  0  0  0  0  0  0  0  0  0  0
    0.9706   24.9414  -27.0015 H   0  0  0  0  0  0  0  0  0  0  0  0
   -0.9544   26.2600  -27.8770 H   0  0  0  0  0  0  0  0  0  0  0  0
   -4.9447   26.6431  -30.2667 H   0  0  0  0  0  0  0  0  0  0  0  0
   -6.9216   25.6492  -31.4108 H   0  0  0  0  0  0  0  0  0  0  0  0
   -7.0610   23.1817  -31.7331 H   0  0  0  0  0  0  0  0  0  0  0  0
   -5.1760   21.7174  -31.0330 H   0  0  0  0  0  0  0  0  0  0  0  0
  1  2  1  0
  2  3  1  0
  3  4  1  0
  4  5  1  0
  3  6  1  0
  6  7  1  0
  7  8  1  0
  8  9  1  0
  9 10  2  0
 10 11  1  0
 11 12  2  0
 12 13  1  0
 13 14  2  0
 14 15  1  0
 15 16  2  3
 16 17  1  0
 17 18  2  0
 18 19  1  0
 19 20  2  0
 20 21  1  0
 21 22  2  0
 22 23  1  0
 23 24  1  0
 24 25  2  0
 25 26  1  0
 26 27  2  0
 27 28  1  0
 28 29  2  0
 14  9  1  0
 29 16  1  0
 22 17  1  0
 29 24  1  0
  1 30  1  0
  1 31  1  0
  1 32  1  0
  2 33  1  0
  2 34  1  0
  3 35  1  0
  4 36  1  0
  4 37  1  0
  5 38  1  0
  5 39  1  0
  5 40  1  0
  6 41  1  0
  6 42  1  0
  7 43  1  0
  7 44  1  0
  8 45  1  0
 10 46  1  0
 11 47  1  0
 12 48  1  0
 13 49  1  0
 18 50  1  0
 19 51  1  0
 20 52  1  0
 21 53  1  0
 25 54  1  0
 26 55  1  0
 27 56  1  0
 28 57  1  0
M  CHG  2   3   1  23  -1
M  END
>  <UniqueID>  (21) 
19

>  <SMILES>  (21) 
CC[NH+](CC)CCNc1ccccc1N=c1c2ccccc2[n-]c2ccccc12

>  <Energy>  (21) 
91.07325028348139

>  <Genealogy>  (21) 
CC[NH+](CC)CCNc1ccccc1N=c1c2ccccc2[n-]c2ccccc12 (protonated)
CC[NH+](CC)CCNc1ccccc1N=c1c2ccccc2[n-]c2ccccc12 (3D coordinates assigned)
CC[NH+](CC)CCNc1ccccc1N=c1c2ccccc2[n-]c2ccccc12 (optimized conformer: 91.07325028348139 kcal/mol)

>  <smiles>  (21) 
CCN(CC)CCNc1ccccc1N=c1c2ccccc2[nH]c2ccccc12

>  <score_type>  (21) 
oracle

>  <origin>  (21) 
adg

>  <m_score__min__energy>  (21) 
-10.039999999999999

>  <m_primary>  (21) 
energy

$$$$
21:0
     RDKit          3D

 46 48  0  0  0  0  0  0  0  0999 V2000
   -1.5840   25.4110  -28.0960 C   0  0  0  0  0  0  0  0  0  0  0  0
   -2.3570   25.2890  -29.2850 O   0  0  0  0  0  0  0  0  0  0  0  0
   -2.7540   24.0690  -29.8550 C   0  0  0  0  0  0  0  0  0  0  0  0
   -1.9210   22.9340  -29.8420 C   0  0  0  0  0  0  0  0  0  0  0  0
   -2.3460   21.7340  -30.4170 C   0  0  0  0  0  0  0  0  0  0  0  0
   -3.6090   21.6500  -31.0160 C   0  0  0  0  0  0  0  0  0  0  0  0
   -4.0540   20.4570  -31.5990 C   0  0  0  0  0  0  0  0  0  0  0  0
   -5.3260   20.3910  -32.1920 C   0  0  0  0  0  0  0  0  0  0  0  0
   -5.8110   19.1320  -32.8130 C   0  0  0  0  0  0  0  0  0  0  0  0
   -5.3690   18.7470  -34.0910 C   0  0  0  0  0  0  0  0  0  0  0  0
   -5.8270   17.5630  -34.6760 C   0  0  0  0  0  0  0  0  0  0  0  0
   -6.7410   16.7400  -33.9920 C   0  0  0  0  0  0  0  0  0  0  0  0
   -7.2360   15.5410  -34.5290 O   0  0  0  0  0  0  0  0  0  0  0  0
   -6.7290   14.2330  -34.2540 C   0  0  0  0  0  0  0  0  0  0  0  0
   -5.2080   14.2600  -34.0570 C   0  0  0  0  0  0  0  0  0  0  0  0
   -4.8550   14.7310  -32.7000 N   0  0  0  0  0  0  0  0  0  0  0  0
   -4.6070   13.5840  -31.8120 C   0  0  0  0  0  0  0  0  0  0  0  0
   -3.6600   15.5930  -32.7320 C   0  0  0  0  0  0  0  0  0  0  0  0
   -7.1730   17.1170  -32.7160 C   0  0  0  0  0  0  0  0  0  0  0  0
   -6.7170   18.3010  -32.1310 C   0  0  0  0  0  0  0  0  0  0  0  0
   -6.1290   21.5450  -32.1830 C   0  0  0  0  0  0  0  0  0  0  0  0
   -5.6800   22.6940  -31.6150 N   0  0  0  0  0  0  0  0  0  0  0  0
   -4.4520   22.7800  -31.0340 C   0  0  0  0  0  0  0  0  0  0  0  0
   -4.0220   23.9850  -30.4550 C   0  0  0  0  0  0  0  0  0  0  0  0
   -5.0720   25.4010  -30.4760 Cl  0  0  0  0  0  0  0  0  0  0  0  0
   -2.2406   25.3074  -27.2196 H   0  0  0  0  0  0  0  0  0  0  0  0
   -0.8170   24.6228  -28.0748 H   0  0  0  0  0  0  0  0  0  0  0  0
   -1.0970   26.3971  -28.0748 H   0  0  0  0  0  0  0  0  0  0  0  0
   -0.9268   22.9927  -29.3750 H   0  0  0  0  0  0  0  0  0  0  0  0
   -1.6873   20.8532  -30.3992 H   0  0  0  0  0  0  0  0  0  0  0  0
   -3.4054   19.5686  -31.5926 H   0  0  0  0  0  0  0  0  0  0  0  0
   -4.6561   19.3835  -34.6356 H   0  0  0  0  0  0  0  0  0  0  0  0
   -5.4713   17.2731  -35.6757 H   0  0  0  0  0  0  0  0  0  0  0  0
   -7.2030   13.8492  -33.3386 H   0  0  0  0  0  0  0  0  0  0  0  0
   -6.9587   13.5822  -35.1106 H   0  0  0  0  0  0  0  0  0  0  0  0
   -4.8092   13.2449  -34.2000 H   0  0  0  0  0  0  0  0  0  0  0  0
   -4.7728   14.9535  -34.7917 H   0  0  0  0  0  0  0  0  0  0  0  0
   -4.6775   13.9099  -30.7637 H   0  0  0  0  0  0  0  0  0  0  0  0
   -5.3569   12.8026  -32.0042 H   0  0  0  0  0  0  0  0  0  0  0  0
   -3.6012   13.1822  -32.0042 H   0  0  0  0  0  0  0  0  0  0  0  0
   -3.3444   15.8206  -31.7031 H   0  0  0  0  0  0  0  0  0  0  0  0
   -2.8464   15.0725  -33.2584 H   0  0  0  0  0  0  0  0  0  0  0  0
   -3.8973   16.5293  -33.2584 H   0  0  0  0  0  0  0  0  0  0  0  0
   -7.8785   16.4751  -32.1680 H   0  0  0  0  0  0  0  0  0  0  0  0
   -7.0697   18.5853  -31.1286 H   0  0  0  0  0  0  0  0  0  0  0  0
   -7.1293   21.5170  -32.6398 H   0  0  0  0  0  0  0  0  0  0  0  0
  1  2  1  0
  2  3  1  0
  3  4  2  0
  4  5  1  0
  5  6  2  0
  6  7  1  0
  7  8  2  0
  8  9  1  0
  9 10  2  0
 10 11  1  0
 11 12  2  0
 12 13  1  0
 13 14  1  0
 14 15  1  0
 15 16  1  0
 16 17  1  0
 16 18  1  0
 12 19  1  0
 19 20  2  0
  8 21  1  0
 21 22  2  0
 22 23  1  0
 23 24  2  0
 24 25  1  0
 24  3  1  0
 23  6  1  0
 20  9  1  0
  1 26  1  0
  1 27  1  0
  1 28  1  0
  4 29  1  0
  5 30  1  0
  7 31  1  0
 10 32  1  0
 11 33  1  0
 14 34  1  0
 14 35  1  0
 15 36  1  0
 15 37  1  0
 17 38  1  0
 17 39  1  0
 17 40  1  0
 18 41  1  0
 18 42  1  0
 18 43  1  0
 19 44  1  0
 20 45  1  0
 21 46  1  0
M  END
>  <UniqueID>  (22) 
20

>  <SMILES>  (22) 
COc1ccc2cc(-c3ccc(OCCN(C)C)cc3)cnc2c1Cl

>  <Energy>  (22) 
56.32047336364608

>  <Genealogy>  (22) 
COc1ccc2cc(-c3ccc(OCCN(C)C)cc3)cnc2c1Cl (3D coordinates assigned)
COc1ccc2cc(-c3ccc(OCCN(C)C)cc3)cnc2c1Cl (optimized conformer: 56.32047336364608 kcal/mol)

>  <smiles>  (22) 
COc1ccc2cc(-c3ccc(OCCN(C)C)cc3)cnc2c1Cl

>  <score_type>  (22) 
oracle

>  <origin>  (22) 
adg

>  <m_score__min__energy>  (22) 
-7.54

>  <m_primary>  (22) 
energy

$$$$
22:0
     RDKit          3D

 44 45  0  0  0  0  0  0  0  0999 V2000
   -5.2490   18.9460  -32.0080 C   0  0  0  0  0  0  0  0  0  0  0  0
   -6.4380   19.1890  -32.8450 N   0  0  0  0  0  0  0  0  0  0  0  0
   -6.0730   19.0410  -34.2640 C   0  0  0  0  0  0  0  0  0  0  0  0
   -7.5340   18.2590  -32.4980 C   0  0  0  0  0  0  0  0  0  0  0  0
   -8.8490   19.0200  -32.3000 C   0  0  0  0  0  0  0  0  0  0  0  0
   -8.7390   20.3670  -32.8770 N   0  0  0  0  0  0  0  0  0  0  0  0
   -9.2070   21.4030  -31.9430 C   0  0  0  0  0  0  0  0  0  0  0  0
   -8.1010   21.9030  -31.0530 C   0  0  0  0  0  0  0  0  0  0  0  0
   -8.3760   22.2870  -29.8850 O   0  0  0  0  0  0  0  0  0  0  0  0
   -6.7400   21.8680  -31.5120 N   0  0  0  0  0  0  0  0  0  0  0  0
   -5.6340   22.4480  -30.8000 C   0  0  0  0  0  0  0  0  0  0  0  0
   -4.3730   21.8430  -30.8800 C   0  0  0  0  0  0  0  0  0  0  0  0
   -3.2750   22.3980  -30.2150 C   0  0  0  0  0  0  0  0  0  0  0  0
   -3.4170   23.5800  -29.4680 C   0  0  0  0  0  0  0  0  0  0  0  0
   -2.2520   24.1720  -28.7600 C   0  0  0  0  0  0  0  0  0  0  0  0
   -2.4270   24.9170  -27.5800 C   0  0  0  0  0  0  0  0  0  0  0  0
   -1.3240   25.4660  -26.9260 C   0  0  0  0  0  0  0  0  0  0  0  0
   -0.0480   25.2680  -27.4530 C   0  0  0  0  0  0  0  0  0  0  0  0
    0.1120   24.5480  -28.5940 N   0  0  0  0  0  0  0  0  0  0  0  0
   -0.9460   24.0010  -29.2500 C   0  0  0  0  0  0  0  0  0  0  0  0
   -4.6780   24.2000  -29.4090 C   0  0  0  0  0  0  0  0  0  0  0  0
   -5.7750   23.6440  -30.0740 C   0  0  0  0  0  0  0  0  0  0  0  0
   -5.5302   19.0035  -30.9461 H   0  0  0  0  0  0  0  0  0  0  0  0
   -4.8447   17.9467  -32.2267 H   0  0  0  0  0  0  0  0  0  0  0  0
   -4.4850   19.7066  -32.2267 H   0  0  0  0  0  0  0  0  0  0  0  0
   -5.0560   18.6286  -34.3399 H   0  0  0  0  0  0  0  0  0  0  0  0
   -6.7826   18.3596  -34.7560 H   0  0  0  0  0  0  0  0  0  0  0  0
   -6.1077   20.0242  -34.7560 H   0  0  0  0  0  0  0  0  0  0  0  0
   -7.6586   17.5286  -33.3110 H   0  0  0  0  0  0  0  0  0  0  0  0
   -7.2780   17.7459  -31.5593 H   0  0  0  0  0  0  0  0  0  0  0  0
   -9.6643   18.4752  -32.7984 H   0  0  0  0  0  0  0  0  0  0  0  0
   -9.0608   19.1032  -31.2238 H   0  0  0  0  0  0  0  0  0  0  0  0
   -7.7380   20.5530  -33.1210 H   0  0  0  0  0  0  0  0  0  0  0  0
   -9.6062   22.2487  -32.5221 H   0  0  0  0  0  0  0  0  0  0  0  0
   -9.9823   20.9571  -31.3026 H   0  0  0  0  0  0  0  0  0  0  0  0
   -6.5310   21.3100  -32.3710 H   0  0  0  0  0  0  0  0  0  0  0  0
   -4.2454   20.9239  -31.4707 H   0  0  0  0  0  0  0  0  0  0  0  0
   -2.2932   21.9059  -30.2770 H   0  0  0  0  0  0  0  0  0  0  0  0
   -3.4372   25.0673  -27.1714 H   0  0  0  0  0  0  0  0  0  0  0  0
   -1.4593   26.0495  -26.0034 H   0  0  0  0  0  0  0  0  0  0  0  0
    0.8291   25.6949  -26.9447 H   0  0  0  0  0  0  0  0  0  0  0  0
   -0.7787   23.4212  -30.1697 H   0  0  0  0  0  0  0  0  0  0  0  0
   -4.8022   25.1301  -28.8349 H   0  0  0  0  0  0  0  0  0  0  0  0
   -6.7534   24.1447  -30.0290 H   0  0  0  0  0  0  0  0  0  0  0  0
  1  2  1  0
  2  3  1  0
  2  4  1  0
  4  5  1  0
  5  6  1  0
  6  7  1  0
  7  8  1  0
  8  9  2  0
  8 10  1  0
 10 11  1  0
 11 12  2  0
 12 13  1  0
 13 14  2  0
 14 15  1  0
 15 16  2  0
 16 17  1  0
 17 18  2  0
 18 19  1  0
 19 20  2  0
 14 21  1  0
 21 22  2  0
 22 11  1  0
 20 15  1  0
  1 23  1  0
  1 24  1  0
  1 25  1  0
  3 26  1  0
  3 27  1  0
  3 28  1  0
  4 29  1  0
  4 30  1  0
  5 31  1  0
  5 32  1  0
  6 33  1  0
  7 34  1  0
  7 35  1  0
 10 36  1  0
 12 37  1  0
 13 38  1  0
 16 39  1  0
 17 40  1  0
 18 41  1  0
 20 42  1  0
 21 43  1  0
 22 44  1  0
M  END
>  <UniqueID>  (23) 
21

>  <SMILES>  (23) 
CN(C)CCNCC(=O)Nc1ccc(-c2cccnc2)cc1

>  <Energy>  (23) 
50.94179030603626

>  <Genealogy>  (23) 
CN(C)CCNCC(=O)Nc1ccc(-c2cccnc2)cc1 (3D coordinates assigned)
CN(C)CCNCC(=O)Nc1ccc(-c2cccnc2)cc1 (optimized conformer: 50.94179030603626 kcal/mol)

>  <smiles>  (23) 
CN(C)CCNCC(=O)Nc1ccc(-c2cccnc2)cc1

>  <score_type>  (23) 
oracle

>  <origin>  (23) 
adg

>  <m_score__min__energy>  (23) 
-6.8899999999999997

>  <m_primary>  (23) 
energy

$$$$
23:0
     RDKit          3D

 29 29  0  0  0  0  0  0  0  0999 V2000
   -9.0030   23.0230  -31.9880 C   0  0  0  0  0  0  0  0  0  0  0  0
   -8.1780   22.1220  -30.6380 S   0  0  0  0  0  0  0  0  0  0  0  0
   -6.7790   23.2540  -30.5730 C   0  0  0  0  0  0  0  0  0  0  0  0
   -6.8660   24.4070  -29.7840 C   0  0  0  0  0  0  0  0  0  0  0  0
   -5.7920   25.2960  -29.7280 C   0  0  0  0  0  0  0  0  0  0  0  0
   -4.6390   25.0250  -30.4660 C   0  0  0  0  0  0  0  0  0  0  0  0
   -4.5700   23.9030  -31.2320 N   0  0  0  0  0  0  0  0  0  0  0  0
   -5.6010   23.0180  -31.3060 C   0  0  0  0  0  0  0  0  0  0  0  0
   -5.4590   21.8500  -32.1320 C   0  0  0  0  0  0  0  0  0  0  0  0
   -5.3250   20.8750  -32.8280 C   0  0  0  0  0  0  0  0  0  0  0  0
   -5.1430   19.6860  -33.6800 C   0  0  0  0  0  0  0  0  0  0  0  0
   -6.3920   18.9110  -33.8680 N   0  0  0  0  0  0  0  0  0  0  0  0
   -6.1230   17.4910  -34.1560 C   0  0  0  0  0  0  0  0  0  0  0  0
   -7.3050   19.0480  -32.7190 C   0  0  0  0  0  0  0  0  0  0  0  0
   -9.6884   23.7716  -31.5640 H   0  0  0  0  0  0  0  0  0  0  0  0
   -8.2471   23.5274  -32.6078 H   0  0  0  0  0  0  0  0  0  0  0  0
   -9.5719   22.3143  -32.6078 H   0  0  0  0  0  0  0  0  0  0  0  0
   -7.7807   24.6121  -29.2084 H   0  0  0  0  0  0  0  0  0  0  0  0
   -5.8536   26.2023  -29.1077 H   0  0  0  0  0  0  0  0  0  0  0  0
   -3.7861   25.7186  -30.4283 H   0  0  0  0  0  0  0  0  0  0  0  0
   -4.7820   20.0135  -34.6661 H   0  0  0  0  0  0  0  0  0  0  0  0
   -4.4203   19.0277  -33.1757 H   0  0  0  0  0  0  0  0  0  0  0  0
   -6.8800   19.3110  -34.7040 H   0  0  0  0  0  0  0  0  0  0  0  0
   -6.0183   16.9386  -33.2106 H   0  0  0  0  0  0  0  0  0  0  0  0
   -6.9574   17.0701  -34.7362 H   0  0  0  0  0  0  0  0  0  0  0  0
   -5.1925   17.4044  -34.7362 H   0  0  0  0  0  0  0  0  0  0  0  0
   -6.7326   18.9621  -31.7836 H   0  0  0  0  0  0  0  0  0  0  0  0
   -7.7986   20.0303  -32.7580 H   0  0  0  0  0  0  0  0  0  0  0  0
   -8.0652   18.2539  -32.7580 H   0  0  0  0  0  0  0  0  0  0  0  0
  1  2  1  0
  2  3  1  0
  3  4  2  0
  4  5  1  0
  5  6  2  0
  6  7  1  0
  7  8  2  0
  8  9  1  0
  9 10  3  0
 10 11  1  0
 11 12  1  0
 12 13  1  0
 12 14  1  0
  8  3  1  0
  1 15  1  0
  1 16  1  0
  1 17  1  0
  4 18  1  0
  5 19  1  0
  6 20  1  0
 11 21  1  0
 11 22  1  0
 12 23  1  0
 13 24  1  0
 13 25  1  0
 13 26  1  0
 14 27  1  0
 14 28  1  0
 14 29  1  0
M  CHG  1  12   1
M  END
>  <UniqueID>  (24) 
22

>  <SMILES>  (24) 
CSc1cccnc1C#CC[NH+](C)C

>  <Energy>  (24) 
20.263371949807404

>  <Genealogy>  (24) 
CSc1cccnc1C#CC[NH+](C)C (protonated)
CSc1cccnc1C#CC[NH+](C)C (3D coordinates assigned)
CSc1cccnc1C#CC[NH+](C)C (optimized conformer: 20.263371949807404 kcal/mol)

>  <smiles>  (24) 
CSc1cccnc1C#CCN(C)C

>  <score_type>  (24) 
oracle

>  <origin>  (24) 
adg

>  <m_score__min__energy>  (24) 
-4.9900000000000002

>  <m_primary>  (24) 
energy

$$$$
24:0
     RDKit          3D

 31 32  0  0  0  0  0  0  0  0999 V2000
   -9.3320   21.9260  -31.4230 C   0  0  0  0  0  0  0  0  0  0  0  0
   -9.3920   20.8560  -31.9750 C   0  0  0  0  0  0  0  0  0  0  0  0
   -9.4690   19.5530  -32.6500 C   0  0  0  0  0  0  0  0  0  0  0  0
   -8.4220   18.5760  -32.1030 C   0  0  0  0  0  0  0  0  0  0  0  0
   -7.0690   18.7950  -32.7320 C   0  0  0  0  0  0  0  0  0  0  0  0
   -6.4270   17.7460  -33.4090 C   0  0  0  0  0  0  0  0  0  0  0  0
   -5.1570   17.9370  -33.9600 C   0  0  0  0  0  0  0  0  0  0  0  0
   -4.5190   19.1740  -33.8400 C   0  0  0  0  0  0  0  0  0  0  0  0
   -5.1550   20.2360  -33.1720 C   0  0  0  0  0  0  0  0  0  0  0  0
   -4.5370   21.4860  -33.0110 O   0  0  0  0  0  0  0  0  0  0  0  0
   -4.9110   22.4640  -32.0790 C   0  0  0  0  0  0  0  0  0  0  0  0
   -6.0960   23.1800  -32.2940 C   0  0  0  0  0  0  0  0  0  0  0  0
   -6.4940   24.1740  -31.3950 C   0  0  0  0  0  0  0  0  0  0  0  0
   -5.7020   24.4690  -30.2820 C   0  0  0  0  0  0  0  0  0  0  0  0
   -4.5090   23.7750  -30.0700 C   0  0  0  0  0  0  0  0  0  0  0  0
   -4.1080   22.7800  -30.9670 C   0  0  0  0  0  0  0  0  0  0  0  0
   -6.4190   20.0340  -32.6070 C   0  0  0  0  0  0  0  0  0  0  0  0
   -9.2772   22.9024  -30.9193 H   0  0  0  0  0  0  0  0  0  0  0  0
  -10.4713   19.1277  -32.4935 H   0  0  0  0  0  0  0  0  0  0  0  0
   -9.2725   19.7064  -33.7214 H   0  0  0  0  0  0  0  0  0  0  0  0
   -8.3363   18.7180  -31.0156 H   0  0  0  0  0  0  0  0  0  0  0  0
   -8.7495   17.5538  -32.3437 H   0  0  0  0  0  0  0  0  0  0  0  0
   -6.9254   16.7702  -33.5061 H   0  0  0  0  0  0  0  0  0  0  0  0
   -4.6586   17.1115  -34.4893 H   0  0  0  0  0  0  0  0  0  0  0  0
   -3.5164   19.3179  -34.2691 H   0  0  0  0  0  0  0  0  0  0  0  0
   -6.7166   22.9589  -33.1749 H   0  0  0  0  0  0  0  0  0  0  0  0
   -7.4313   24.7243  -31.5639 H   0  0  0  0  0  0  0  0  0  0  0  0
   -6.0185   25.2480  -29.5728 H   0  0  0  0  0  0  0  0  0  0  0  0
   -3.8839   24.0113  -29.1963 H   0  0  0  0  0  0  0  0  0  0  0  0
   -3.1623   22.2427  -30.8031 H   0  0  0  0  0  0  0  0  0  0  0  0
   -6.9084   20.8532  -32.0597 H   0  0  0  0  0  0  0  0  0  0  0  0
  1  2  3  0
  2  3  1  0
  3  4  1  0
  4  5  1  0
  5  6  2  0
  6  7  1  0
  7  8  2  0
  8  9  1  0
  9 10  1  0
 10 11  1  0
 11 12  2  0
 12 13  1  0
 13 14  2  0
 14 15  1  0
 15 16  2  0
  9 17  2  0
 17  5  1  0
 16 11  1  0
  1 18  1  0
  3 19  1  0
  3 20  1  0
  4 21  1  0
  4 22  1  0
  6 23  1  0
  7 24  1  0
  8 25  1  0
 12 26  1  0
 13 27  1  0
 14 28  1  0
 15 29  1  0
 16 30  1  0
 17 31  1  0
M  END
>  <UniqueID>  (25) 
23

>  <SMILES>  (25) 
C#CCCc1cccc(Oc2ccccc2)c1

>  <Energy>  (25) 
32.985107534522875

>  <Genealogy>  (25) 
C#CCCc1cccc(Oc2ccccc2)c1 (3D coordinates assigned)
C#CCCc1cccc(Oc2ccccc2)c1 (optimized conformer: 32.985107534522875 kcal/mol)

>  <smiles>  (25) 
C#CCCc1cccc(Oc2ccccc2)c1

>  <score_type>  (25) 
oracle

>  <origin>  (25) 
adg

>  <m_score__min__energy>  (25) 
-6.75

>  <m_primary>  (25) 
energy

$$$$
25:0
     RDKit          3D

 79 82  0  0  0  0  0  0  0  0999 V2000
   -0.0990   17.0790  -32.1980 C   0  0  0  0  0  0  0  0  0  0  0  0
    0.0670   15.9250  -33.1930 C   0  0  0  0  0  0  0  0  0  0  0  0
   -1.0740   15.7990  -34.1410 N   0  0  0  0  0  0  0  0  0  0  0  0
   -0.6520   15.4860  -35.5340 C   0  0  0  0  0  0  0  0  0  0  0  0
   -1.8100   15.1740  -36.4950 C   0  0  0  0  0  0  0  0  0  0  0  0
   -2.0660   14.8030  -33.6460 C   0  0  0  0  0  0  0  0  0  0  0  0
   -3.2450   15.4570  -32.9160 C   0  0  0  0  0  0  0  0  0  0  0  0
   -2.9900   16.8510  -32.7810 O   0  0  0  0  0  0  0  0  0  0  0  0
   -3.6030   17.8150  -33.5850 C   0  0  0  0  0  0  0  0  0  0  0  0
   -3.2530   17.9420  -34.7920 O   0  0  0  0  0  0  0  0  0  0  0  0
   -4.6310   18.7160  -32.9870 C   0  0  0  0  0  0  0  0  0  0  0  0
   -5.9550   18.5170  -33.1890 C   0  0  0  0  0  0  0  0  0  0  0  0
   -6.4920   17.4420  -34.0930 C   0  0  0  0  0  0  0  0  0  0  0  0
   -6.9260   19.3390  -32.5360 N   0  0  0  0  0  0  0  0  0  0  0  0
   -6.6610   20.3340  -31.7500 C   0  0  0  0  0  0  0  0  0  0  0  0
   -7.8010   21.2050  -31.2820 C   0  0  0  0  0  0  0  0  0  0  0  0
   -7.5230   22.7360  -31.4960 C   0  0  0  0  0  0  0  0  0  0  0  0
   -7.2070   23.4030  -30.1360 C   0  0  0  0  0  0  0  0  0  0  0  0
   -8.7790   23.4150  -32.0810 C   0  0  0  0  0  0  0  0  0  0  0  0
   -6.3370   22.9660  -32.4780 C   0  0  0  0  0  0  0  0  0  0  0  0
   -5.1100   22.2160  -32.0150 C   0  0  0  0  0  0  0  0  0  0  0  0
   -4.0480   22.8170  -31.9330 O   0  0  0  0  0  0  0  0  0  0  0  0
   -5.2450   20.7910  -31.4950 C   0  0  2  0  0  0  0  0  0  0  0  0
   -4.1700   19.7420  -31.9550 C   0  0  2  0  0  0  0  0  0  0  0  0
   -2.8310   20.3720  -32.3000 C   0  0  0  0  0  0  0  0  0  0  0  0
   -2.4630   20.8030  -33.5610 C   0  0  0  0  0  0  0  0  0  0  0  0
   -1.2200   21.3110  -33.4900 N   0  0  0  0  0  0  0  0  0  0  0  0
   -0.4720   21.9100  -34.5910 C   0  0  0  0  0  0  0  0  0  0  0  0
    0.4880   20.8860  -35.1900 C   0  0  0  0  0  0  0  0  0  0  0  0
   -0.0620   19.5300  -35.0740 C   0  0  0  0  0  0  0  0  0  0  0  0
   -0.4960   18.4620  -34.9820 N   0  0  0  0  0  0  0  0  0  0  0  0
   -0.7710   21.2440  -32.2480 N   0  0  0  0  0  0  0  0  0  0  0  0
   -1.7250   20.6610  -31.4950 C   0  0  0  0  0  0  0  0  0  0  0  0
   -1.5550   20.4140  -30.0490 C   0  0  0  0  0  0  0  0  0  0  0  0
   -0.4810   19.3190  -29.3570 S   0  0  0  0  0  0  0  0  0  0  0  0
   -0.8280   19.6790  -27.7550 C   0  0  0  0  0  0  0  0  0  0  0  0
   -1.7880   20.6810  -27.7360 C   0  0  0  0  0  0  0  0  0  0  0  0
   -2.1990   21.0950  -29.0130 C   0  0  0  0  0  0  0  0  0  0  0  0
   -3.2180   22.1760  -29.2220 C   0  0  0  0  0  0  0  0  0  0  0  0
   -0.0429   16.6887  -31.1711 H   0  0  0  0  0  0  0  0  0  0  0  0
    0.7024   17.8161  -32.3544 H   0  0  0  0  0  0  0  0  0  0  0  0
   -1.0756   17.5604  -32.3544 H   0  0  0  0  0  0  0  0  0  0  0  0
    0.9864   16.0930  -33.7730 H   0  0  0  0  0  0  0  0  0  0  0  0
    0.1111   14.9938  -32.6091 H   0  0  0  0  0  0  0  0  0  0  0  0
   -1.5500   16.7320  -34.1880 H   0  0  0  0  0  0  0  0  0  0  0  0
   -0.1013   16.3524  -35.9292 H   0  0  0  0  0  0  0  0  0  0  0  0
   -0.0375   14.5754  -35.4780 H   0  0  0  0  0  0  0  0  0  0  0  0
   -2.7125   14.9308  -35.9150 H   0  0  0  0  0  0  0  0  0  0  0  0
   -2.0069   16.0511  -37.1289 H   0  0  0  0  0  0  0  0  0  0  0  0
   -1.5395   14.3167  -37.1289 H   0  0  0  0  0  0  0  0  0  0  0  0
   -2.4543   14.2359  -34.5049 H   0  0  0  0  0  0  0  0  0  0  0  0
   -1.5508   14.1490  -32.9271 H   0  0  0  0  0  0  0  0  0  0  0  0
   -4.1677   15.3051  -33.4953 H   0  0  0  0  0  0  0  0  0  0  0  0
   -3.3648   15.0028  -31.9213 H   0  0  0  0  0  0  0  0  0  0  0  0
   -6.9016   16.6221  -33.4847 H   0  0  0  0  0  0  0  0  0  0  0  0
   -7.2871   17.8601  -34.7278 H   0  0  0  0  0  0  0  0  0  0  0  0
   -5.6802   17.0574  -34.7278 H   0  0  0  0  0  0  0  0  0  0  0  0
   -8.7066   20.9303  -31.8427 H   0  0  0  0  0  0  0  0  0  0  0  0
   -7.9243   21.0380  -30.2018 H   0  0  0  0  0  0  0  0  0  0  0  0
   -7.5224   22.7373  -29.3191 H   0  0  0  0  0  0  0  0  0  0  0  0
   -6.1253   23.5884  -30.0611 H   0  0  0  0  0  0  0  0  0  0  0  0
   -7.7487   24.3575  -30.0611 H   0  0  0  0  0  0  0  0  0  0  0  0
   -9.4234   23.7633  -31.2604 H   0  0  0  0  0  0  0  0  0  0  0  0
   -8.4774   24.2729  -32.6999 H   0  0  0  0  0  0  0  0  0  0  0  0
   -9.3316   22.6928  -32.6999 H   0  0  0  0  0  0  0  0  0  0  0  0
   -6.6221   22.6098  -33.4789 H   0  0  0  0  0  0  0  0  0  0  0  0
   -6.1051   24.0409  -32.5083 H   0  0  0  0  0  0  0  0  0  0  0  0
   -5.0238   20.8376  -30.4185 H   0  0  0  0  0  0  0  0  0  0  0  0
   -4.0143   19.1345  -31.0513 H   0  0  0  0  0  0  0  0  0  0  0  0
   -3.0819   20.7409  -34.4683 H   0  0  0  0  0  0  0  0  0  0  0  0
   -1.1746   22.2478  -35.3671 H   0  0  0  0  0  0  0  0  0  0  0  0
    0.1051   22.7659  -34.2110 H   0  0  0  0  0  0  0  0  0  0  0  0
    0.6495   21.1206  -36.2525 H   0  0  0  0  0  0  0  0  0  0  0  0
    1.4401   20.9299  -34.6408 H   0  0  0  0  0  0  0  0  0  0  0  0
   -0.3736   19.2035  -26.8733 H   0  0  0  0  0  0  0  0  0  0  0  0
   -2.1897   21.1110  -26.8066 H   0  0  0  0  0  0  0  0  0  0  0  0
   -3.5662   22.5453  -28.2461 H   0  0  0  0  0  0  0  0  0  0  0  0
   -2.7640   23.0037  -29.7866 H   0  0  0  0  0  0  0  0  0  0  0  0
   -4.0711   21.7716  -29.7866 H   0  0  0  0  0  0  0  0  0  0  0  0
  1  2  1  0
  2  3  1  0
  3  4  1  0
  4  5  1  0
  3  6  1  0
  6  7  1  0
  7  8  1  0
  8  9  1  0
  9 10  2  0
  9 11  1  0
 11 12  2  0
 12 13  1  0
 12 14  1  0
 14 15  2  0
 15 16  1  0
 16 17  1  0
 17 18  1  0
 17 19  1  0
 17 20  1  0
 20 21  1  0
 21 22  2  0
 21 23  1  0
 23 24  1  0
 24 25  1  0
 25 26  2  0
 26 27  1  0
 27 28  1  0
 28 29  1  0
 29 30  1  0
 30 31  3  0
 27 32  1  0
 32 33  2  0
 33 34  1  0
 34 35  1  0
 35 36  1  0
 36 37  2  0
 37 38  1  0
 38 39  1  0
 24 11  1  0
 33 25  1  0
 38 34  2  0
 23 15  1  0
  1 40  1  0
  1 41  1  0
  1 42  1  0
  2 43  1  0
  2 44  1  0
  3 45  1  0
  4 46  1  0
  4 47  1  0
  5 48  1  0
  5 49  1  0
  5 50  1  0
  6 51  1  0
  6 52  1  0
  7 53  1  0
  7 54  1  0
 13 55  1  0
 13 56  1  0
 13 57  1  0
 16 58  1  0
 16 59  1  0
 18 60  1  0
 18 61  1  0
 18 62  1  0
 19 63  1  0
 19 64  1  0
 19 65  1  0
 20 66  1  0
 20 67  1  0
 23 68  1  1
 24 69  1  1
 26 70  1  0
 28 71  1  0
 28 72  1  0
 29 73  1  0
 29 74  1  0
 36 75  1  0
 37 76  1  0
 39 77  1  0
 39 78  1  0
 39 79  1  0
M  CHG  1   3   1
M  END
>  <UniqueID>  (26) 
24

>  <SMILES>  (26) 
CC[NH+](CC)CCOC(=O)C1=C(C)N=C2CC(C)(C)CC(=O)[C@@H]2[C@@H]1c1cn(CCC#N)nc1-c1sccc1C

>  <Energy>  (26) 
147.76822003907162

>  <Genealogy>  (26) 
CC[NH+](CC)CCOC(=O)C1=C(C)N=C2CC(C)(C)CC(=O)C2C1c1cn(CCC#N)nc1-c1sccc1C (protonated)
CC[NH+](CC)CCOC(=O)C1=C(C)N=C2CC(C)(C)CC(=O)[C@@H]2[C@@H]1c1cn(CCC#N)nc1-c1sccc1C (chirality)
CC[NH+](CC)CCOC(=O)C1=C(C)N=C2CC(C)(C)CC(=O)[C@@H]2[C@@H]1c1cn(CCC#N)nc1-c1sccc1C (3D coordinates assigned)
CC[NH+](CC)CCOC(=O)C1=C(C)N=C2CC(C)(C)CC(=O)[C@@H]2[C@@H]1c1cn(CCC#N)nc1-c1sccc1C (nonaromatic ring conformer: 147.76822003907162 kcal/mol)

>  <smiles>  (26) 
CCN(CC)CCOC(=O)C1=C(C)N=C2CC(C)(C)CC(=O)C2C1c1cn(CCC#N)nc1-c1sccc1C

>  <score_type>  (26) 
oracle

>  <origin>  (26) 
adg

>  <m_score__min__energy>  (26) 
-9.2300000000000004

>  <m_primary>  (26) 
energy

$$$$
26:0
     RDKit          3D

 60 64  0  0  0  0  0  0  0  0999 V2000
   -6.8590   24.9180  -29.8060 C   0  0  0  0  0  0  0  0  0  0  0  0
   -5.4770   24.9950  -30.1370 O   0  0  0  0  0  0  0  0  0  0  0  0
   -4.7690   24.0000  -30.8270 C   0  0  0  0  0  0  0  0  0  0  0  0
   -3.5030   23.6360  -30.3580 C   0  0  0  0  0  0  0  0  0  0  0  0
   -2.7590   22.6500  -31.0100 C   0  0  0  0  0  0  0  0  0  0  0  0
   -3.2750   21.9960  -32.1430 C   0  0  0  0  0  0  0  0  0  0  0  0
   -2.4700   20.9510  -32.8250 C   0  0  0  0  0  0  0  0  0  0  0  0
   -2.9200   19.6260  -32.9220 C   0  0  0  0  0  0  0  0  0  0  0  0
   -2.1440   18.6560  -33.5730 C   0  0  0  0  0  0  0  0  0  0  0  0
   -2.6590   17.2690  -33.6200 C   0  0  0  0  0  0  0  0  0  0  0  0
   -1.9240   16.3240  -33.2230 O   0  0  0  0  0  0  0  0  0  0  0  0
   -4.0140   16.9940  -34.0250 N   0  0  0  0  0  0  0  0  0  0  0  0
   -4.6800   17.7880  -35.0640 C   0  0  0  0  0  0  0  0  0  0  0  0
   -6.0920   18.2060  -34.6090 C   0  0  0  0  0  0  0  0  0  0  0  0
   -6.7270   17.2620  -33.6520 N   0  0  0  0  0  0  0  0  0  0  0  0
   -6.6830   17.7660  -32.2600 C   0  0  0  0  0  0  0  0  0  0  0  0
   -7.4790   19.0360  -32.1130 C   0  0  0  0  0  0  0  0  0  0  0  0
   -8.8300   19.0820  -32.4990 C   0  0  0  0  0  0  0  0  0  0  0  0
   -9.5590   20.2690  -32.3700 C   0  0  0  0  0  0  0  0  0  0  0  0
   -8.9450   21.4160  -31.8570 C   0  0  0  0  0  0  0  0  0  0  0  0
   -7.6020   21.3780  -31.4750 C   0  0  0  0  0  0  0  0  0  0  0  0
   -6.8690   20.1940  -31.6020 C   0  0  0  0  0  0  0  0  0  0  0  0
   -6.2090   15.8810  -33.7900 C   0  0  0  0  0  0  0  0  0  0  0  0
   -4.6990   15.8040  -33.5100 C   0  0  0  0  0  0  0  0  0  0  0  0
   -0.8980   19.0320  -34.1320 C   0  0  0  0  0  0  0  0  0  0  0  0
   -0.0790   18.1320  -34.8460 C   0  0  0  0  0  0  0  0  0  0  0  0
    1.1440   18.5560  -35.3750 C   0  0  0  0  0  0  0  0  0  0  0  0
    1.5620   19.8780  -35.2100 C   0  0  0  0  0  0  0  0  0  0  0  0
    0.7550   20.7870  -34.5230 C   0  0  0  0  0  0  0  0  0  0  0  0
   -0.4720   20.3750  -33.9910 C   0  0  0  0  0  0  0  0  0  0  0  0
   -1.2590   21.2790  -33.3500 N   0  0  0  0  0  0  0  0  0  0  0  0
   -4.5450   22.3730  -32.6220 C   0  0  0  0  0  0  0  0  0  0  0  0
   -5.2860   23.3620  -31.9700 C   0  0  0  0  0  0  0  0  0  0  0  0
   -6.9742   24.9116  -28.7121 H   0  0  0  0  0  0  0  0  0  0  0  0
   -7.3854   25.7882  -30.2250 H   0  0  0  0  0  0  0  0  0  0  0  0
   -7.2855   23.9947  -30.2250 H   0  0  0  0  0  0  0  0  0  0  0  0
   -3.0891   24.1309  -29.4671 H   0  0  0  0  0  0  0  0  0  0  0  0
   -1.7605   22.3826  -30.6339 H   0  0  0  0  0  0  0  0  0  0  0  0
   -3.8893   19.3455  -32.4840 H   0  0  0  0  0  0  0  0  0  0  0  0
   -4.0841   18.6901  -35.2666 H   0  0  0  0  0  0  0  0  0  0  0  0
   -4.7683   17.1766  -35.9741 H   0  0  0  0  0  0  0  0  0  0  0  0
   -6.0213   19.1918  -34.1260 H   0  0  0  0  0  0  0  0  0  0  0  0
   -6.7242   18.2175  -35.5091 H   0  0  0  0  0  0  0  0  0  0  0  0
   -7.1008   17.0014  -31.5886 H   0  0  0  0  0  0  0  0  0  0  0  0
   -5.6356   17.9805  -32.0011 H   0  0  0  0  0  0  0  0  0  0  0  0
   -9.3155   18.1817  -32.9038 H   0  0  0  0  0  0  0  0  0  0  0  0
  -10.6162   20.3002  -32.6724 H   0  0  0  0  0  0  0  0  0  0  0  0
   -9.5198   22.3482  -31.7543 H   0  0  0  0  0  0  0  0  0  0  0  0
   -7.1199   22.2815  -31.0734 H   0  0  0  0  0  0  0  0  0  0  0  0
   -5.8113   20.1691  -31.3009 H   0  0  0  0  0  0  0  0  0  0  0  0
   -6.7365   15.2305  -33.0769 H   0  0  0  0  0  0  0  0  0  0  0  0
   -6.3805   15.5547  -34.8264 H   0  0  0  0  0  0  0  0  0  0  0  0
   -4.5363   15.7355  -32.4243 H   0  0  0  0  0  0  0  0  0  0  0  0
   -4.2911   14.9156  -34.0144 H   0  0  0  0  0  0  0  0  0  0  0  0
   -0.4044   17.0908  -34.9874 H   0  0  0  0  0  0  0  0  0  0  0  0
    1.7794   17.8451  -35.9234 H   0  0  0  0  0  0  0  0  0  0  0  0
    2.5285   20.2038  -35.6219 H   0  0  0  0  0  0  0  0  0  0  0  0
    1.0844   21.8292  -34.3997 H   0  0  0  0  0  0  0  0  0  0  0  0
   -4.9570   21.8844  -33.5173 H   0  0  0  0  0  0  0  0  0  0  0  0
   -6.2784   23.6434  -32.3520 H   0  0  0  0  0  0  0  0  0  0  0  0
  1  2  1  0
  2  3  1  0
  3  4  2  0
  4  5  1  0
  5  6  2  0
  6  7  1  0
  7  8  2  0
  8  9  1  0
  9 10  1  0
 10 11  2  0
 10 12  1  0
 12 13  1  0
 13 14  1  0
 14 15  1  0
 15 16  1  0
 16 17  1  0
 17 18  2  0
 18 19  1  0
 19 20  2  0
 20 21  1  0
 21 22  2  0
 15 23  1  0
 23 24  1  0
  9 25  2  0
 25 26  1  0
 26 27  2  0
 27 28  1  0
 28 29  2  0
 29 30  1  0
 30 31  2  0
  6 32  1  0
 32 33  2  0
 33  3  1  0
 31  7  1  0
 24 12  1  0
 30 25  1  0
 22 17  1  0
  1 34  1  0
  1 35  1  0
  1 36  1  0
  4 37  1  0
  5 38  1  0
  8 39  1  0
 13 40  1  0
 13 41  1  0
 14 42  1  0
 14 43  1  0
 16 44  1  0
 16 45  1  0
 18 46  1  0
 19 47  1  0
 20 48  1  0
 21 49  1  0
 22 50  1  0
 23 51  1  0
 23 52  1  0
 24 53  1  0
 24 54  1  0
 26 55  1  0
 27 56  1  0
 28 57  1  0
 29 58  1  0
 32 59  1  0
 33 60  1  0
M  END
>  <UniqueID>  (27) 
25

>  <SMILES>  (27) 
COc1ccc(-c2cc(C(=O)N3CCN(Cc4ccccc4)CC3)c3ccccc3n2)cc1

>  <Energy>  (27) 
87.17591176394316

>  <Genealogy>  (27) 
COc1ccc(-c2cc(C(=O)N3CCN(Cc4ccccc4)CC3)c3ccccc3n2)cc1 (3D coordinates assigned)
COc1ccc(-c2cc(C(=O)N3CCN(Cc4ccccc4)CC3)c3ccccc3n2)cc1 (nonaromatic ring conformer: 87.17591176394316 kcal/mol)

>  <smiles>  (27) 
COc1ccc(-c2cc(C(=O)N3CCN(Cc4ccccc4)CC3)c3ccccc3n2)cc1

>  <score_type>  (27) 
oracle

>  <origin>  (27) 
adg

>  <m_score__min__energy>  (27) 
-9.7699999999999996

>  <m_primary>  (27) 
energy

$$$$
27:0
     RDKit          3D

 50 50  0  0  0  0  0  0  0  0999 V2000
   -8.7370   18.5670  -31.6710 C   0  0  0  0  0  0  0  0  0  0  0  0
   -7.4880   18.2710  -32.5000 C   0  0  0  0  0  0  0  0  0  0  0  0
   -6.5390   19.4780  -32.5890 C   0  0  0  0  0  0  0  0  0  0  0  0
   -7.2410   20.7720  -33.0930 C   0  0  0  0  0  0  0  0  0  0  0  0
   -6.9480   22.0170  -32.3240 N   0  0  1  0  0  0  0  0  0  0  0  0
   -8.1630   22.8100  -31.9790 C   0  0  0  0  0  0  0  0  0  0  0  0
   -9.3540   21.9180  -31.5970 C   0  0  0  0  0  0  0  0  0  0  0  0
   -6.0160   21.8290  -31.1820 C   0  0  0  0  0  0  0  0  0  0  0  0
   -4.9590   22.8860  -31.0040 C   0  0  0  0  0  0  0  0  0  0  0  0
   -4.8260   23.7720  -31.8920 O   0  0  0  0  0  0  0  0  0  0  0  0
   -4.1670   22.9430  -29.8030 N   0  0  0  0  0  0  0  0  0  0  0  0
   -3.4270   24.1060  -29.3880 C   0  0  0  0  0  0  0  0  0  0  0  0
   -3.5820   25.2150  -29.9760 O   0  0  0  0  0  0  0  0  0  0  0  0
   -2.5500   24.0250  -28.2530 N   0  0  0  0  0  0  0  0  0  0  0  0
   -2.0190   25.2430  -27.6180 C   0  0  0  0  0  0  0  0  0  0  0  0
   -0.5610   25.4980  -28.0700 C   0  0  0  0  0  0  0  0  0  0  0  0
    0.2460   26.3850  -27.0920 C   0  0  0  0  0  0  0  0  0  0  0  0
   -0.6640   27.2930  -26.2550 C   0  0  0  0  0  0  0  0  0  0  0  0
   -1.6520   26.4620  -25.4050 C   0  0  0  0  0  0  0  0  0  0  0  0
   -2.0930   25.1430  -26.0830 C   0  0  0  0  0  0  0  0  0  0  0  0
   -8.4892   18.5083  -30.6009 H   0  0  0  0  0  0  0  0  0  0  0  0
   -9.1033   19.5768  -31.9077 H   0  0  0  0  0  0  0  0  0  0  0  0
   -9.5176   17.8290  -31.9077 H   0  0  0  0  0  0  0  0  0  0  0  0
   -6.9484   17.4317  -32.0371 H   0  0  0  0  0  0  0  0  0  0  0  0
   -7.8154   18.0279  -33.5216 H   0  0  0  0  0  0  0  0  0  0  0  0
   -6.1246   19.6717  -31.5886 H   0  0  0  0  0  0  0  0  0  0  0  0
   -5.7552   19.2253  -33.3183 H   0  0  0  0  0  0  0  0  0  0  0  0
   -6.9308   20.9392  -34.1350 H   0  0  0  0  0  0  0  0  0  0  0  0
   -8.3190   20.5927  -32.9676 H   0  0  0  0  0  0  0  0  0  0  0  0
   -6.3940   22.6130  -32.9860 H   0  0  0  0  0  0  0  0  0  0  0  0
   -7.9266   23.4672  -31.1291 H   0  0  0  0  0  0  0  0  0  0  0  0
   -8.4494   23.3900  -32.8687 H   0  0  0  0  0  0  0  0  0  0  0  0
   -9.4319   21.8597  -30.5013 H   0  0  0  0  0  0  0  0  0  0  0  0
  -10.2799   22.3467  -32.0081 H   0  0  0  0  0  0  0  0  0  0  0  0
   -9.2031   20.9089  -32.0081 H   0  0  0  0  0  0  0  0  0  0  0  0
   -6.6165   21.7968  -30.2609 H   0  0  0  0  0  0  0  0  0  0  0  0
   -5.4687   20.8999  -31.3994 H   0  0  0  0  0  0  0  0  0  0  0  0
   -4.1940   22.1300  -29.1540 H   0  0  0  0  0  0  0  0  0  0  0  0
   -2.4270   23.1000  -27.7840 H   0  0  0  0  0  0  0  0  0  0  0  0
   -2.6416   26.0918  -27.9372 H   0  0  0  0  0  0  0  0  0  0  0  0
   -0.0507   24.5278  -28.1610 H   0  0  0  0  0  0  0  0  0  0  0  0
   -0.6103   26.0370  -29.0276 H   0  0  0  0  0  0  0  0  0  0  0  0
    0.8197   25.7355  -26.4145 H   0  0  0  0  0  0  0  0  0  0  0  0
    0.9123   27.0272  -27.6868 H   0  0  0  0  0  0  0  0  0  0  0  0
   -0.0422   27.9058  -25.5859 H   0  0  0  0  0  0  0  0  0  0  0  0
   -1.2433   27.9314  -26.9383 H   0  0  0  0  0  0  0  0  0  0  0  0
   -1.1671   26.2165  -24.4486 H   0  0  0  0  0  0  0  0  0  0  0  0
   -2.5561   27.0739  -25.2700 H   0  0  0  0  0  0  0  0  0  0  0  0
   -1.4330   24.3302  -25.7459 H   0  0  0  0  0  0  0  0  0  0  0  0
   -3.1373   24.9433  -25.8009 H   0  0  0  0  0  0  0  0  0  0  0  0
  1  2  1  0
  2  3  1  0
  3  4  1  0
  4  5  1  0
  5  6  1  0
  6  7  1  0
  5  8  1  0
  8  9  1  0
  9 10  2  0
  9 11  1  0
 11 12  1  0
 12 13  2  0
 12 14  1  0
 14 15  1  0
 15 16  1  0
 16 17  1  0
 17 18  1  0
 18 19  1  0
 19 20  1  0
 20 15  1  0
  1 21  1  0
  1 22  1  0
  1 23  1  0
  2 24  1  0
  2 25  1  0
  3 26  1  0
  3 27  1  0
  4 28  1  0
  4 29  1  0
  5 30  1  6
  6 31  1  0
  6 32  1  0
  7 33  1  0
  7 34  1  0
  7 35  1  0
  8 36  1  0
  8 37  1  0
 11 38  1  0
 14 39  1  0
 15 40  1  0
 16 41  1  0
 16 42  1  0
 17 43  1  0
 17 44  1  0
 18 45  1  0
 18 46  1  0
 19 47  1  0
 19 48  1  0
 20 49  1  0
 20 50  1  0
M  CHG  1   5   1
M  END
>  <UniqueID>  (28) 
26

>  <SMILES>  (28) 
CCCC[N@@H+](CC)CC(=O)NC(=O)NC1CCCCC1

>  <Energy>  (28) 
53.79995001953219

>  <Genealogy>  (28) 
CCCC[NH+](CC)CC(=O)NC(=O)NC1CCCCC1 (protonated)
CCCC[N@@H+](CC)CC(=O)NC(=O)NC1CCCCC1 (chirality)
CCCC[N@@H+](CC)CC(=O)NC(=O)NC1CCCCC1 (3D coordinates assigned)
CCCC[N@@H+](CC)CC(=O)NC(=O)NC1CCCCC1 (nonaromatic ring conformer: 53.79995001953219 kcal/mol)

>  <smiles>  (28) 
CCCCN(CC)CC(=O)NC(=O)NC1CCCCC1

>  <score_type>  (28) 
oracle

>  <origin>  (28) 
adg

>  <m_score__min__energy>  (28) 
-6.5800000000000001

>  <m_primary>  (28) 
energy

$$$$
28:0
     RDKit          3D

 37 39  0  0  0  0  0  0  0  0999 V2000
   -5.7430   25.9470  -30.2940 C   0  0  0  0  0  0  0  0  0  0  0  0
   -6.0150   24.5800  -30.8280 C   0  0  0  0  0  0  0  0  0  0  0  0
   -4.9760   23.7880  -31.2300 N   0  0  0  0  0  0  0  0  0  0  0  0
   -5.1800   22.5420  -31.7490 C   0  0  0  0  0  0  0  0  0  0  0  0
   -4.0540   21.7220  -32.1100 N   0  0  0  0  0  0  0  0  0  0  0  0
   -3.1330   21.2450  -31.0760 C   0  0  0  0  0  0  0  0  0  0  0  0
   -3.9680   21.1560  -33.4610 C   0  0  0  0  0  0  0  0  0  0  0  0
   -3.5500   19.6800  -33.4180 C   0  0  0  0  0  0  0  0  0  0  0  0
   -4.7100   18.7910  -33.4740 N   0  0  0  0  0  0  0  0  0  0  0  0
   -5.1880   18.0230  -32.4810 C   0  0  0  0  0  0  0  0  0  0  0  0
   -6.2780   17.3350  -32.9660 C   0  0  0  0  0  0  0  0  0  0  0  0
   -6.4910   17.6750  -34.2540 N   0  0  0  0  0  0  0  0  0  0  0  0
   -5.5170   18.5700  -34.5290 C   0  0  0  0  0  0  0  0  0  0  0  0
   -6.4960   22.0780  -31.8620 C   0  0  0  0  0  0  0  0  0  0  0  0
   -6.9400   20.8170  -32.2810 C   0  0  0  0  0  0  0  0  0  0  0  0
   -8.3300   20.7030  -32.2220 C   0  0  0  0  0  0  0  0  0  0  0  0
   -9.1030   19.4620  -32.5170 C   0  0  0  0  0  0  0  0  0  0  0  0
   -9.0010   22.1330  -31.6120 S   0  0  0  0  0  0  0  0  0  0  0  0
   -7.5220   22.9070  -31.4580 C   0  0  0  0  0  0  0  0  0  0  0  0
   -7.2990   24.1410  -30.9480 N   0  0  0  0  0  0  0  0  0  0  0  0
   -5.7486   25.9189  -29.1944 H   0  0  0  0  0  0  0  0  0  0  0  0
   -4.7591   26.2895  -30.6470 H   0  0  0  0  0  0  0  0  0  0  0  0
   -6.5209   26.6400  -30.6470 H   0  0  0  0  0  0  0  0  0  0  0  0
   -3.5526   21.4623  -30.0827 H   0  0  0  0  0  0  0  0  0  0  0  0
   -2.9904   20.1597  -31.1844 H   0  0  0  0  0  0  0  0  0  0  0  0
   -2.1643   21.7547  -31.1844 H   0  0  0  0  0  0  0  0  0  0  0  0
   -4.9514   21.2365  -33.9472 H   0  0  0  0  0  0  0  0  0  0  0  0
   -3.2092   21.7169  -34.0263 H   0  0  0  0  0  0  0  0  0  0  0  0
   -2.8963   19.4688  -34.2771 H   0  0  0  0  0  0  0  0  0  0  0  0
   -3.0226   19.4988  -32.4698 H   0  0  0  0  0  0  0  0  0  0  0  0
   -4.7810   17.9556  -31.4613 H   0  0  0  0  0  0  0  0  0  0  0  0
   -6.8824   16.6180  -32.3911 H   0  0  0  0  0  0  0  0  0  0  0  0
   -5.3968   19.0628  -35.5051 H   0  0  0  0  0  0  0  0  0  0  0  0
   -6.2713   20.0109  -32.6172 H   0  0  0  0  0  0  0  0  0  0  0  0
   -9.4015   18.9828  -31.5729 H   0  0  0  0  0  0  0  0  0  0  0  0
  -10.0012   19.7188  -33.0978 H   0  0  0  0  0  0  0  0  0  0  0  0
   -8.4765   18.7691  -33.0978 H   0  0  0  0  0  0  0  0  0  0  0  0
  1  2  1  0
  2  3  2  0
  3  4  1  0
  4  5  1  0
  5  6  1  0
  5  7  1  0
  7  8  1  0
  8  9  1  0
  9 10  1  0
 10 11  2  0
 11 12  1  0
 12 13  2  0
  4 14  2  0
 14 15  1  0
 15 16  2  0
 16 17  1  0
 16 18  1  0
 18 19  1  0
 19 20  2  0
 20  2  1  0
 13  9  1  0
 19 14  1  0
  1 21  1  0
  1 22  1  0
  1 23  1  0
  6 24  1  0
  6 25  1  0
  6 26  1  0
  7 27  1  0
  7 28  1  0
  8 29  1  0
  8 30  1  0
 10 31  1  0
 11 32  1  0
 13 33  1  0
 15 34  1  0
 17 35  1  0
 17 36  1  0
 17 37  1  0
M  END
>  <UniqueID>  (29) 
27

>  <SMILES>  (29) 
Cc1nc(N(C)CCn2ccnc2)c2cc(C)sc2n1

>  <Energy>  (29) 
95.33505977158957

>  <Genealogy>  (29) 
Cc1nc(N(C)CCn2ccnc2)c2cc(C)sc2n1 (3D coordinates assigned)
Cc1nc(N(C)CCn2ccnc2)c2cc(C)sc2n1 (optimized conformer: 95.33505977158957 kcal/mol)

>  <smiles>  (29) 
Cc1nc(N(C)CCn2ccnc2)c2cc(C)sc2n1

>  <score_type>  (29) 
oracle

>  <origin>  (29) 
adg

>  <m_score__min__energy>  (29) 
-6.9699999999999998

>  <m_primary>  (29) 
energy

$$$$
29:0
     RDKit          3D

 49 52  0  0  0  0  0  0  0  0999 V2000
   -8.7850   19.7690  -32.4250 C   0  0  0  0  0  0  0  0  0  0  0  0
   -7.6410   20.1260  -33.1430 C   0  0  0  0  0  0  0  0  0  0  0  0
   -6.8260   21.1670  -32.6880 C   0  0  0  0  0  0  0  0  0  0  0  0
   -7.1610   21.8700  -31.5190 C   0  0  0  0  0  0  0  0  0  0  0  0
   -6.3040   22.9770  -31.0360 C   0  0  0  0  0  0  0  0  0  0  0  0
   -6.8460   24.2740  -31.0130 C   0  0  0  0  0  0  0  0  0  0  0  0
   -6.1010   25.3480  -30.5250 C   0  0  0  0  0  0  0  0  0  0  0  0
   -4.8060   25.1430  -30.0540 C   0  0  0  0  0  0  0  0  0  0  0  0
   -4.2450   23.8650  -30.0830 C   0  0  0  0  0  0  0  0  0  0  0  0
   -4.9710   22.7730  -30.5890 C   0  0  0  0  0  0  0  0  0  0  0  0
   -4.2850   21.4210  -30.6480 C   0  0  0  0  0  0  0  0  0  0  0  0
   -2.9680   21.4930  -31.3250 N   0  0  0  0  0  0  0  0  0  0  0  0
   -3.0500   21.9010  -32.7480 C   0  0  0  0  0  0  0  0  0  0  0  0
   -3.8130   20.8740  -33.6010 C   0  0  0  0  0  0  0  0  0  0  0  0
   -3.6320   19.5220  -33.0640 N   0  0  0  0  0  0  0  0  0  0  0  0
   -4.6830   18.5440  -33.1940 C   0  0  0  0  0  0  0  0  0  0  0  0
   -5.0710   18.0830  -34.4650 C   0  0  0  0  0  0  0  0  0  0  0  0
   -6.1140   17.1620  -34.5960 C   0  0  0  0  0  0  0  0  0  0  0  0
   -6.7860   16.6990  -33.4610 C   0  0  0  0  0  0  0  0  0  0  0  0
   -6.4180   17.1600  -32.1950 C   0  0  0  0  0  0  0  0  0  0  0  0
   -5.3740   18.0800  -32.0590 C   0  0  0  0  0  0  0  0  0  0  0  0
   -2.3940   19.2320  -32.3310 C   0  0  0  0  0  0  0  0  0  0  0  0
   -2.2070   20.2270  -31.1630 C   0  0  0  0  0  0  0  0  0  0  0  0
   -8.3010   21.4900  -30.7910 C   0  0  0  0  0  0  0  0  0  0  0  0
   -9.1150   20.4490  -31.2500 C   0  0  0  0  0  0  0  0  0  0  0  0
   -9.4268   18.9515  -32.7852 H   0  0  0  0  0  0  0  0  0  0  0  0
   -7.3813   19.5879  -34.0666 H   0  0  0  0  0  0  0  0  0  0  0  0
   -5.9184   21.4367  -33.2480 H   0  0  0  0  0  0  0  0  0  0  0  0
   -7.8677   24.4438  -31.3835 H   0  0  0  0  0  0  0  0  0  0  0  0
   -6.5367   26.3579  -30.5121 H   0  0  0  0  0  0  0  0  0  0  0  0
   -4.2248   25.9892  -29.6588 H   0  0  0  0  0  0  0  0  0  0  0  0
   -3.2233   23.7109  -29.7056 H   0  0  0  0  0  0  0  0  0  0  0  0
   -4.1367   21.0534  -29.6219 H   0  0  0  0  0  0  0  0  0  0  0  0
   -4.9267   20.7405  -31.2269 H   0  0  0  0  0  0  0  0  0  0  0  0
   -3.5687   22.8691  -32.8101 H   0  0  0  0  0  0  0  0  0  0  0  0
   -2.0246   21.9718  -33.1398 H   0  0  0  0  0  0  0  0  0  0  0  0
   -4.8841   21.1245  -33.5965 H   0  0  0  0  0  0  0  0  0  0  0  0
   -3.4200   20.9036  -34.6280 H   0  0  0  0  0  0  0  0  0  0  0  0
   -4.5501   18.4498  -35.3617 H   0  0  0  0  0  0  0  0  0  0  0  0
   -6.4064   16.8011  -35.5931 H   0  0  0  0  0  0  0  0  0  0  0  0
   -7.6046   15.9716  -33.5650 H   0  0  0  0  0  0  0  0  0  0  0  0
   -6.9507   16.7985  -31.3030 H   0  0  0  0  0  0  0  0  0  0  0  0
   -5.0912   18.4430  -31.0599 H   0  0  0  0  0  0  0  0  0  0  0  0
   -2.4426   18.2089  -31.9299 H   0  0  0  0  0  0  0  0  0  0  0  0
   -1.5425   19.3306  -33.0204 H   0  0  0  0  0  0  0  0  0  0  0  0
   -2.5397   19.7388  -30.2351 H   0  0  0  0  0  0  0  0  0  0  0  0
   -1.1405   20.4955  -31.1389 H   0  0  0  0  0  0  0  0  0  0  0  0
   -8.5543   22.0128  -29.8569 H   0  0  0  0  0  0  0  0  0  0  0  0
  -10.0155   20.1656  -30.6854 H   0  0  0  0  0  0  0  0  0  0  0  0
  1  2  2  0
  2  3  1  0
  3  4  2  0
  4  5  1  0
  5  6  2  0
  6  7  1  0
  7  8  2  0
  8  9  1  0
  9 10  2  0
 10 11  1  0
 11 12  1  0
 12 13  1  0
 13 14  1  0
 14 15  1  0
 15 16  1  0
 16 17  2  0
 17 18  1  0
 18 19  2  0
 19 20  1  0
 20 21  2  0
 15 22  1  0
 22 23  1  0
  4 24  1  0
 24 25  2  0
 25  1  1  0
 10  5  1  0
 23 12  1  0
 21 16  1  0
  1 26  1  0
  2 27  1  0
  3 28  1  0
  6 29  1  0
  7 30  1  0
  8 31  1  0
  9 32  1  0
 11 33  1  0
 11 34  1  0
 13 35  1  0
 13 36  1  0
 14 37  1  0
 14 38  1  0
 17 39  1  0
 18 40  1  0
 19 41  1  0
 20 42  1  0
 21 43  1  0
 22 44  1  0
 22 45  1  0
 23 46  1  0
 23 47  1  0
 24 48  1  0
 25 49  1  0
M  END
>  <UniqueID>  (30) 
28

>  <SMILES>  (30) 
c1ccc(-c2ccccc2CN2CCN(c3ccccc3)CC2)cc1

>  <Energy>  (30) 
69.57472404979714

>  <Genealogy>  (30) 
c1ccc(-c2ccccc2CN2CCN(c3ccccc3)CC2)cc1 (3D coordinates assigned)
c1ccc(-c2ccccc2CN2CCN(c3ccccc3)CC2)cc1 (nonaromatic ring conformer: 69.57472404979714 kcal/mol)

>  <smiles>  (30) 
c1ccc(-c2ccccc2CN2CCN(c3ccccc3)CC2)cc1

>  <score_type>  (30) 
oracle

>  <origin>  (30) 
adg

>  <m_score__min__energy>  (30) 
-8.4199999999999999

>  <m_primary>  (30) 
energy

$$$$
30:0
     RDKit          3D

 41 43  0  0  0  0  0  0  0  0999 V2000
   -2.6250   24.1750  -29.4950 C   0  0  0  0  0  0  0  0  0  0  0  0
   -3.5040   24.7190  -30.4740 O   0  0  0  0  0  0  0  0  0  0  0  0
   -4.8410   24.3270  -30.6550 C   0  0  0  0  0  0  0  0  0  0  0  0
   -5.9010   25.0290  -30.0430 C   0  0  0  0  0  0  0  0  0  0  0  0
   -7.2230   24.6270  -30.2330 C   0  0  0  0  0  0  0  0  0  0  0  0
   -7.5100   23.5230  -31.0330 C   0  0  0  0  0  0  0  0  0  0  0  0
   -6.4740   22.8160  -31.6470 C   0  0  0  0  0  0  0  0  0  0  0  0
   -5.1350   23.2050  -31.4680 C   0  0  0  0  0  0  0  0  0  0  0  0
   -4.0700   22.4230  -32.1410 C   0  0  0  0  0  0  0  0  0  0  0  0
   -3.9340   22.2920  -33.4790 N   0  0  0  0  0  0  0  0  0  0  0  0
   -2.8720   21.5240  -33.6550 N   0  0  0  0  0  0  0  0  0  0  0  0
   -2.3970   21.2120  -32.4400 C   0  0  0  0  0  0  0  0  0  0  0  0
   -0.9650   20.1820  -32.1450 S   0  0  0  0  0  0  0  0  0  0  0  0
   -1.9100   18.6320  -32.3070 C   0  0  0  0  0  0  0  0  0  0  0  0
   -2.8770   18.7430  -33.4500 C   0  0  0  0  0  0  0  0  0  0  0  0
   -2.4200   19.0320  -34.5890 O   0  0  0  0  0  0  0  0  0  0  0  0
   -4.2990   18.5430  -33.2760 N   0  0  0  0  0  0  0  0  0  0  0  0
   -4.9410   18.7520  -31.9690 C   0  0  0  0  0  0  0  0  0  0  0  0
   -6.2580   17.9720  -31.8890 C   0  0  0  0  0  0  0  0  0  0  0  0
   -7.0790   18.2560  -33.0040 O   0  0  0  0  0  0  0  0  0  0  0  0
   -6.4600   17.7730  -34.1800 C   0  0  0  0  0  0  0  0  0  0  0  0
   -5.1650   18.5390  -34.4640 C   0  0  0  0  0  0  0  0  0  0  0  0
   -3.1280   21.7610  -31.5010 O   0  0  0  0  0  0  0  0  0  0  0  0
   -3.0050   24.4102  -28.4899 H   0  0  0  0  0  0  0  0  0  0  0  0
   -2.5681   23.0835  -29.6194 H   0  0  0  0  0  0  0  0  0  0  0  0
   -1.6228   24.6110  -29.6194 H   0  0  0  0  0  0  0  0  0  0  0  0
   -5.6827   25.9017  -29.4100 H   0  0  0  0  0  0  0  0  0  0  0  0
   -8.0405   25.1826  -29.7503 H   0  0  0  0  0  0  0  0  0  0  0  0
   -8.5535   23.2080  -31.1811 H   0  0  0  0  0  0  0  0  0  0  0  0
   -6.7082   21.9455  -32.2774 H   0  0  0  0  0  0  0  0  0  0  0  0
   -2.4930   21.2250  -34.5800 H   0  0  0  0  0  0  0  0  0  0  0  0
   -1.2163   17.7993  -32.4951 H   0  0  0  0  0  0  0  0  0  0  0  0
   -2.4671   18.4474  -31.3766 H   0  0  0  0  0  0  0  0  0  0  0  0
   -4.2652   18.4045  -31.1737 H   0  0  0  0  0  0  0  0  0  0  0  0
   -5.1533   19.8240  -31.8434 H   0  0  0  0  0  0  0  0  0  0  0  0
   -6.0381   16.8944  -31.8684 H   0  0  0  0  0  0  0  0  0  0  0  0
   -6.7901   18.2721  -30.9742 H   0  0  0  0  0  0  0  0  0  0  0  0
   -6.2276   16.7053  -34.0533 H   0  0  0  0  0  0  0  0  0  0  0  0
   -7.1482   17.9161  -35.0261 H   0  0  0  0  0  0  0  0  0  0  0  0
   -4.6340   18.0561  -35.2976 H   0  0  0  0  0  0  0  0  0  0  0  0
   -5.4157   19.5777  -34.7255 H   0  0  0  0  0  0  0  0  0  0  0  0
  1  2  1  0
  2  3  1  0
  3  4  2  0
  4  5  1  0
  5  6  2  0
  6  7  1  0
  7  8  2  0
  8  9  1  0
  9 10  2  0
 10 11  1  0
 11 12  2  0
 12 13  1  0
 13 14  1  0
 14 15  1  0
 15 16  2  0
 15 17  1  0
 17 18  1  0
 18 19  1  0
 19 20  1  0
 20 21  1  0
 21 22  1  0
 12 23  1  0
  8  3  1  0
 23  9  1  0
 22 17  1  0
  1 24  1  0
  1 25  1  0
  1 26  1  0
  4 27  1  0
  5 28  1  0
  6 29  1  0
  7 30  1  0
 11 31  1  0
 14 32  1  0
 14 33  1  0
 18 34  1  0
 18 35  1  0
 19 36  1  0
 19 37  1  0
 21 38  1  0
 21 39  1  0
 22 40  1  0
 22 41  1  0
M  CHG  1  11   1
M  END
>  <UniqueID>  (31) 
29

>  <SMILES>  (31) 
COc1ccccc1-c1n[nH+]c(SCC(=O)N2CCOCC2)o1

>  <Energy>  (31) 
76.3127594662562

>  <Genealogy>  (31) 
COc1ccccc1-c1n[nH+]c(SCC(=O)N2CCOCC2)o1 (protonated)
COc1ccccc1-c1n[nH+]c(SCC(=O)N2CCOCC2)o1 (3D coordinates assigned)
COc1ccccc1-c1n[nH+]c(SCC(=O)N2CCOCC2)o1 (nonaromatic ring conformer: 76.3127594662562 kcal/mol)

>  <smiles>  (31) 
COc1ccccc1-c1nnc(SCC(=O)N2CCOCC2)o1

>  <score_type>  (31) 
oracle

>  <origin>  (31) 
adg

>  <m_score__min__energy>  (31) 
-7.96

>  <m_primary>  (31) 
energy

$$$$
31:0
     RDKit          3D

 49 50  0  0  0  0  0  0  0  0999 V2000
   -9.2120   19.0190  -32.3390 C   0  0  0  0  0  0  0  0  0  0  0  0
   -7.8670   18.7280  -31.6670 C   0  0  0  0  0  0  0  0  0  0  0  0
   -7.0110   17.7680  -32.4050 N   0  0  0  0  0  0  0  0  0  0  0  0
   -6.0240   17.0420  -31.5700 C   0  0  0  0  0  0  0  0  0  0  0  0
   -5.0200   16.1900  -32.3640 C   0  0  0  0  0  0  0  0  0  0  0  0
   -6.5140   18.2270  -33.7200 C   0  0  0  0  0  0  0  0  0  0  0  0
   -6.3920   19.7560  -33.7790 C   0  0  0  0  0  0  0  0  0  0  0  0
   -5.6100   20.2510  -32.6920 O   0  0  0  0  0  0  0  0  0  0  0  0
   -4.3040   20.7350  -32.8370 C   0  0  0  0  0  0  0  0  0  0  0  0
   -3.5590   20.2840  -33.7490 O   0  0  0  0  0  0  0  0  0  0  0  0
   -3.8000   21.7730  -31.9110 C   0  0  0  0  0  0  0  0  0  0  0  0
   -4.6170   22.8590  -31.5520 C   0  0  0  0  0  0  0  0  0  0  0  0
   -4.1420   23.8450  -30.6820 C   0  0  0  0  0  0  0  0  0  0  0  0
   -2.8510   23.7600  -30.1440 C   0  0  0  0  0  0  0  0  0  0  0  0
   -2.3790   24.8000  -29.2700 N   0  0  0  0  0  0  0  0  0  0  0  0
   -2.4950   24.7590  -27.8380 C   0  0  0  0  0  0  0  0  0  0  0  0
   -3.2740   23.9300  -27.2920 O   0  0  0  0  0  0  0  0  0  0  0  0
   -1.7270   25.7150  -27.0080 C   0  0  0  0  0  0  0  0  0  0  0  0
   -1.8520   25.7100  -25.6680 C   0  0  0  0  0  0  0  0  0  0  0  0
   -0.8560   26.7480  -24.5880 S   0  0  0  0  0  0  0  0  0  0  0  0
   -0.8060   28.1440  -25.7440 C   0  0  0  0  0  0  0  0  0  0  0  0
   -0.1350   27.6640  -27.0240 C   0  0  0  0  0  0  0  0  0  0  0  0
   -0.9160   26.6560  -27.6670 O   0  0  0  0  0  0  0  0  0  0  0  0
   -2.0240   22.6870  -30.5210 C   0  0  0  0  0  0  0  0  0  0  0  0
   -2.4960   21.7010  -31.3910 C   0  0  0  0  0  0  0  0  0  0  0  0
   -9.9788   19.1849  -31.5680 H   0  0  0  0  0  0  0  0  0  0  0  0
   -9.1217   19.9184  -32.9659 H   0  0  0  0  0  0  0  0  0  0  0  0
   -9.5016   18.1627  -32.9659 H   0  0  0  0  0  0  0  0  0  0  0  0
   -7.3176   19.6761  -31.5710 H   0  0  0  0  0  0  0  0  0  0  0  0
   -8.0940   18.2651  -30.6953 H   0  0  0  0  0  0  0  0  0  0  0  0
   -5.4589   17.7822  -30.9846 H   0  0  0  0  0  0  0  0  0  0  0  0
   -6.5983   16.3445  -30.9426 H   0  0  0  0  0  0  0  0  0  0  0  0
   -4.3723   15.6403  -31.6652 H   0  0  0  0  0  0  0  0  0  0  0  0
   -5.5659   15.4753  -32.9974 H   0  0  0  0  0  0  0  0  0  0  0  0
   -4.4036   16.8449  -32.9974 H   0  0  0  0  0  0  0  0  0  0  0  0
   -5.5240   17.7832  -33.9016 H   0  0  0  0  0  0  0  0  0  0  0  0
   -7.2349   17.9108  -34.4883 H   0  0  0  0  0  0  0  0  0  0  0  0
   -5.9119   20.0419  -34.7265 H   0  0  0  0  0  0  0  0  0  0  0  0
   -7.4004   20.1901  -33.7104 H   0  0  0  0  0  0  0  0  0  0  0  0
   -5.6366   22.9336  -31.9581 H   0  0  0  0  0  0  0  0  0  0  0  0
   -4.7877   24.6953  -30.4174 H   0  0  0  0  0  0  0  0  0  0  0  0
   -2.0100   25.6740  -29.7120 H   0  0  0  0  0  0  0  0  0  0  0  0
   -2.5969   25.0409  -25.2126 H   0  0  0  0  0  0  0  0  0  0  0  0
   -1.8285   28.4856  -25.9628 H   0  0  0  0  0  0  0  0  0  0  0  0
   -0.2457   28.9843  -25.3080 H   0  0  0  0  0  0  0  0  0  0  0  0
   -0.0152   28.5168  -27.7084 H   0  0  0  0  0  0  0  0  0  0  0  0
    0.8444   27.2352  -26.7655 H   0  0  0  0  0  0  0  0  0  0  0  0
   -0.9985   22.6235  -30.1282 H   0  0  0  0  0  0  0  0  0  0  0  0
   -1.8422   20.8619  -31.6712 H   0  0  0  0  0  0  0  0  0  0  0  0
  1  2  1  0
  2  3  1  0
  3  4  1  0
  4  5  1  0
  3  6  1  0
  6  7  1  0
  7  8  1  0
  8  9  1  0
  9 10  2  0
  9 11  1  0
 11 12  2  0
 12 13  1  0
 13 14  2  0
 14 15  1  0
 15 16  1  0
 16 17  2  0
 16 18  1  0
 18 19  2  0
 19 20  1  0
 20 21  1  0
 21 22  1  0
 22 23  1  0
 14 24  1  0
 24 25  2  0
 25 11  1  0
 23 18  1  0
  1 26  1  0
  1 27  1  0
  1 28  1  0
  2 29  1  0
  2 30  1  0
  4 31  1  0
  4 32  1  0
  5 33  1  0
  5 34  1  0
  5 35  1  0
  6 36  1  0
  6 37  1  0
  7 38  1  0
  7 39  1  0
 12 40  1  0
 13 41  1  0
 15 42  1  0
 19 43  1  0
 21 44  1  0
 21 45  1  0
 22 46  1  0
 22 47  1  0
 24 48  1  0
 25 49  1  0
M  END
>  <UniqueID>  (32) 
30

>  <SMILES>  (32) 
CCN(CC)CCOC(=O)c1ccc(NC(=O)C2=CSCCO2)cc1

>  <Energy>  (32) 
59.85350424823652

>  <Genealogy>  (32) 
CCN(CC)CCOC(=O)c1ccc(NC(=O)C2=CSCCO2)cc1 (3D coordinates assigned)
CCN(CC)CCOC(=O)c1ccc(NC(=O)C2=CSCCO2)cc1 (nonaromatic ring conformer: 59.85350424823652 kcal/mol)

>  <smiles>  (32) 
CCN(CC)CCOC(=O)c1ccc(NC(=O)C2=CSCCO2)cc1

>  <score_type>  (32) 
oracle

>  <origin>  (32) 
adg

>  <m_score__min__energy>  (32) 
-7.79

>  <m_primary>  (32) 
energy

$$$$
32:0
     RDKit          3D

 58 61  0  0  0  0  0  0  0  0999 V2000
   -2.6860   19.9030  -27.1000 C   0  0  0  0  0  0  0  0  0  0  0  0
   -2.2730   21.1410  -27.6690 O   0  0  0  0  0  0  0  0  0  0  0  0
   -3.0240   21.8730  -28.6000 C   0  0  0  0  0  0  0  0  0  0  0  0
   -3.8550   22.9670  -28.2150 C   0  0  0  0  0  0  0  0  0  0  0  0
   -4.5990   23.6780  -29.1780 C   0  0  0  0  0  0  0  0  0  0  0  0
   -4.4870   23.2750  -30.5030 C   0  0  0  0  0  0  0  0  0  0  0  0
   -5.1030   23.7750  -31.5910 N   0  0  0  0  0  0  0  0  0  0  0  0
   -4.6730   23.0290  -32.6060 N   0  0  0  0  0  0  0  0  0  0  0  0
   -3.8180   22.0920  -32.2060 N   0  0  0  0  0  0  0  0  0  0  0  0
   -3.2240   21.0700  -33.0690 C   0  0  0  0  0  0  0  0  0  0  0  0
   -3.1030   19.7280  -32.3360 C   0  0  0  0  0  0  0  0  0  0  0  0
   -2.8250   18.5650  -33.2990 C   0  0  0  0  0  0  0  0  0  0  0  0
   -3.7150   17.3550  -32.9730 C   0  0  0  0  0  0  0  0  0  0  0  0
   -4.2960   16.7350  -34.1900 N   0  0  0  0  0  0  0  0  0  0  0  0
   -4.6450   17.7030  -35.2570 C   0  0  0  0  0  0  0  0  0  0  0  0
   -5.7330   18.6880  -34.8000 C   0  0  0  0  0  0  0  0  0  0  0  0
   -6.6840   18.0180  -33.9060 N   0  0  0  0  0  0  0  0  0  0  0  0
   -7.4540   18.7870  -32.9640 C   0  0  0  0  0  0  0  0  0  0  0  0
   -8.3490   18.1500  -32.0900 C   0  0  0  0  0  0  0  0  0  0  0  0
   -9.0980   18.8980  -31.1790 C   0  0  0  0  0  0  0  0  0  0  0  0
   -8.9770   20.2890  -31.1440 C   0  0  0  0  0  0  0  0  0  0  0  0
   -8.1170   20.9500  -32.0360 C   0  0  0  0  0  0  0  0  0  0  0  0
   -7.9550   22.4480  -31.9790 C   0  0  0  0  0  0  0  0  0  0  0  0
   -9.1820   23.0810  -32.0860 F   0  0  0  0  0  0  0  0  0  0  0  0
   -7.1510   22.8900  -33.0150 F   0  0  0  0  0  0  0  0  0  0  0  0
   -7.3720   22.7980  -30.7760 F   0  0  0  0  0  0  0  0  0  0  0  0
   -7.3430   20.1880  -32.9300 C   0  0  0  0  0  0  0  0  0  0  0  0
   -6.8250   16.5600  -33.9960 C   0  0  0  0  0  0  0  0  0  0  0  0
   -5.4520   15.8650  -33.8540 C   0  0  0  0  0  0  0  0  0  0  0  0
   -3.6940   22.2330  -30.8760 C   0  0  0  0  0  0  0  0  0  0  0  0
   -2.9440   21.5010  -29.9580 C   0  0  0  0  0  0  0  0  0  0  0  0
   -2.6612   19.9773  -26.0028 H   0  0  0  0  0  0  0  0  0  0  0  0
   -3.7099   19.6718  -27.4288 H   0  0  0  0  0  0  0  0  0  0  0  0
   -2.0060   19.1033  -27.4288 H   0  0  0  0  0  0  0  0  0  0  0  0
   -3.9156   23.2584  -27.1560 H   0  0  0  0  0  0  0  0  0  0  0  0
   -5.2447   24.5211  -28.8911 H   0  0  0  0  0  0  0  0  0  0  0  0
   -4.9860   23.1590  -33.5940 H   0  0  0  0  0  0  0  0  0  0  0  0
   -3.8585   20.9376  -33.9577 H   0  0  0  0  0  0  0  0  0  0  0  0
   -2.2158   21.4012  -33.3586 H   0  0  0  0  0  0  0  0  0  0  0  0
   -2.2779   19.7931  -31.6114 H   0  0  0  0  0  0  0  0  0  0  0  0
   -4.0614   19.5294  -31.8340 H   0  0  0  0  0  0  0  0  0  0  0  0
   -3.0285   18.8941  -34.3287 H   0  0  0  0  0  0  0  0  0  0  0  0
   -1.7723   18.2648  -33.1912 H   0  0  0  0  0  0  0  0  0  0  0  0
   -3.1089   16.6020  -32.4481 H   0  0  0  0  0  0  0  0  0  0  0  0
   -4.5475   17.7100  -32.3477 H   0  0  0  0  0  0  0  0  0  0  0  0
   -3.7436   18.2704  -35.5318 H   0  0  0  0  0  0  0  0  0  0  0  0
   -5.0341   17.1384  -36.1172 H   0  0  0  0  0  0  0  0  0  0  0  0
   -5.2621   19.5266  -34.2660 H   0  0  0  0  0  0  0  0  0  0  0  0
   -6.2732   19.0593  -35.6834 H   0  0  0  0  0  0  0  0  0  0  0  0
   -8.4609   17.0562  -32.1229 H   0  0  0  0  0  0  0  0  0  0  0  0
   -9.7855   18.3900  -30.4867 H   0  0  0  0  0  0  0  0  0  0  0  0
   -9.5588   20.8702  -30.4134 H   0  0  0  0  0  0  0  0  0  0  0  0
   -6.6426   20.6944  -33.6105 H   0  0  0  0  0  0  0  0  0  0  0  0
   -7.4901   16.2119  -33.1920 H   0  0  0  0  0  0  0  0  0  0  0  0
   -7.2476   16.3071  -34.9796 H   0  0  0  0  0  0  0  0  0  0  0  0
   -5.3406   15.5290  -32.8125 H   0  0  0  0  0  0  0  0  0  0  0  0
   -5.4418   15.0315  -34.5718 H   0  0  0  0  0  0  0  0  0  0  0  0
   -2.3110   20.6615  -30.2814 H   0  0  0  0  0  0  0  0  0  0  0  0
  1  2  1  0
  2  3  1  0
  3  4  2  0
  4  5  1  0
  5  6  2  0
  6  7  1  0
  7  8  2  0
  8  9  1  0
  9 10  1  0
 10 11  1  0
 11 12  1  0
 12 13  1  0
 13 14  1  0
 14 15  1  0
 15 16  1  0
 16 17  1  0
 17 18  1  0
 18 19  2  0
 19 20  1  0
 20 21  2  0
 21 22  1  0
 22 23  1  0
 23 24  1  0
 23 25  1  0
 23 26  1  0
 22 27  2  0
 17 28  1  0
 28 29  1  0
  9 30  1  0
 30 31  2  0
 31  3  1  0
 30  6  1  0
 29 14  1  0
 27 18  1  0
  1 32  1  0
  1 33  1  0
  1 34  1  0
  4 35  1  0
  5 36  1  0
  8 37  1  0
 10 38  1  0
 10 39  1  0
 11 40  1  0
 11 41  1  0
 12 42  1  0
 12 43  1  0
 13 44  1  0
 13 45  1  0
 15 46  1  0
 15 47  1  0
 16 48  1  0
 16 49  1  0
 19 50  1  0
 20 51  1  0
 21 52  1  0
 27 53  1  0
 28 54  1  0
 28 55  1  0
 29 56  1  0
 29 57  1  0
 31 58  1  0
M  CHG  1   8   1
M  END
>  <UniqueID>  (33) 
31

>  <SMILES>  (33) 
COc1ccc2n[nH+]n(CCCCN3CCN(c4cccc(C(F)(F)F)c4)CC3)c2c1

>  <Energy>  (33) 
111.70984359282737

>  <Genealogy>  (33) 
COc1ccc2n[nH+]n(CCCCN3CCN(c4cccc(C(F)(F)F)c4)CC3)c2c1 (protonated)
COc1ccc2n[nH+]n(CCCCN3CCN(c4cccc(C(F)(F)F)c4)CC3)c2c1 (3D coordinates assigned)
COc1ccc2n[nH+]n(CCCCN3CCN(c4cccc(C(F)(F)F)c4)CC3)c2c1 (nonaromatic ring conformer: 111.70984359282737 kcal/mol)

>  <smiles>  (33) 
COc1ccc2nnn(CCCCN3CCN(c4cccc(C(F)(F)F)c4)CC3)c2c1

>  <score_type>  (33) 
oracle

>  <origin>  (33) 
adg

>  <m_score__min__energy>  (33) 
-8.8599999999999994

>  <m_primary>  (33) 
energy

$$$$
33:0
     RDKit          3D

 51 53  0  0  0  0  0  0  0  0999 V2000
   -0.3400   22.0960  -28.1920 C   0  0  0  0  0  0  0  0  0  0  0  0
   -0.1960   23.3950  -28.9890 C   0  0  0  0  0  0  0  0  0  0  0  0
    0.4020   24.5130  -28.2220 N   0  0  0  0  0  0  0  0  0  0  0  0
    1.3730   24.1320  -27.1710 C   0  0  0  0  0  0  0  0  0  0  0  0
    0.8510   24.2710  -25.7320 C   0  0  0  0  0  0  0  0  0  0  0  0
   -0.5200   25.6230  -27.9010 C   0  0  0  0  0  0  0  0  0  0  0  0
   -1.9800   25.1560  -27.9450 C   0  0  0  0  0  0  0  0  0  0  0  0
   -2.5200   25.3020  -29.2590 O   0  0  0  0  0  0  0  0  0  0  0  0
   -3.5190   24.4980  -29.8310 C   0  0  0  0  0  0  0  0  0  0  0  0
   -4.8770   24.8660  -29.8430 C   0  0  0  0  0  0  0  0  0  0  0  0
   -5.8320   24.0190  -30.4130 C   0  0  0  0  0  0  0  0  0  0  0  0
   -5.4500   22.7950  -30.9890 C   0  0  0  0  0  0  0  0  0  0  0  0
   -6.4640   21.8920  -31.5900 C   0  0  0  0  0  0  0  0  0  0  0  0
   -7.8270   22.2240  -31.5650 C   0  0  0  0  0  0  0  0  0  0  0  0
   -8.7460   21.3910  -32.1180 N   0  0  0  0  0  0  0  0  0  0  0  0
   -8.3930   20.2180  -32.7030 C   0  0  0  0  0  0  0  0  0  0  0  0
   -7.0450   19.8300  -32.7590 C   0  0  0  0  0  0  0  0  0  0  0  0
   -6.6470   18.5480  -33.3960 C   0  0  0  0  0  0  0  0  0  0  0  0
   -5.6690   18.5230  -34.4050 C   0  0  0  0  0  0  0  0  0  0  0  0
   -5.3110   17.3070  -34.9920 C   0  0  0  0  0  0  0  0  0  0  0  0
   -5.9040   16.1530  -34.5890 N   0  0  0  0  0  0  0  0  0  0  0  0
   -6.8510   16.1420  -33.6160 C   0  0  0  0  0  0  0  0  0  0  0  0
   -7.2400   17.3350  -33.0030 C   0  0  0  0  0  0  0  0  0  0  0  0
   -6.0820   20.6830  -32.1930 C   0  0  0  0  0  0  0  0  0  0  0  0
   -4.0890   22.4410  -30.9900 C   0  0  0  0  0  0  0  0  0  0  0  0
   -3.1360   23.2900  -30.4220 C   0  0  0  0  0  0  0  0  0  0  0  0
   -0.3150   22.3215  -27.1157 H   0  0  0  0  0  0  0  0  0  0  0  0
   -1.2969   21.6155  -28.4438 H   0  0  0  0  0  0  0  0  0  0  0  0
    0.4884   21.4176  -28.4438 H   0  0  0  0  0  0  0  0  0  0  0  0
    0.4421   23.1953  -29.8625 H   0  0  0  0  0  0  0  0  0  0  0  0
   -1.2124   23.7100  -29.2680 H   0  0  0  0  0  0  0  0  0  0  0  0
    1.6575   23.0817  -27.3321 H   0  0  0  0  0  0  0  0  0  0  0  0
    2.2190   24.8291  -27.2628 H   0  0  0  0  0  0  0  0  0  0  0  0
    1.6647   24.0543  -25.0242 H   0  0  0  0  0  0  0  0  0  0  0  0
    0.4885   25.2970  -25.5710 H   0  0  0  0  0  0  0  0  0  0  0  0
    0.0262   23.5612  -25.5710 H   0  0  0  0  0  0  0  0  0  0  0  0
   -0.2929   25.9988  -26.8924 H   0  0  0  0  0  0  0  0  0  0  0  0
   -0.3841   26.4183  -28.6487 H   0  0  0  0  0  0  0  0  0  0  0  0
   -2.0290   24.0973  -27.6506 H   0  0  0  0  0  0  0  0  0  0  0  0
   -2.5688   25.7741  -27.2513 H   0  0  0  0  0  0  0  0  0  0  0  0
   -5.1886   25.8243  -29.4020 H   0  0  0  0  0  0  0  0  0  0  0  0
   -6.8920   24.3130  -30.4107 H   0  0  0  0  0  0  0  0  0  0  0  0
   -8.1528   23.1637  -31.0951 H   0  0  0  0  0  0  0  0  0  0  0  0
   -9.1676   19.5678  -33.1356 H   0  0  0  0  0  0  0  0  0  0  0  0
   -5.1876   19.4568  -34.7310 H   0  0  0  0  0  0  0  0  0  0  0  0
   -4.5468   17.2837  -35.7828 H   0  0  0  0  0  0  0  0  0  0  0  0
   -7.3127   15.1916  -33.3100 H   0  0  0  0  0  0  0  0  0  0  0  0
   -8.0078   17.3259  -32.2153 H   0  0  0  0  0  0  0  0  0  0  0  0
   -5.0192   20.4008  -32.2227 H   0  0  0  0  0  0  0  0  0  0  0  0
   -3.7726   21.4890  -31.4412 H   0  0  0  0  0  0  0  0  0  0  0  0
   -2.0736   23.0053  -30.4399 H   0  0  0  0  0  0  0  0  0  0  0  0
  1  2  1  0
  2  3  1  0
  3  4  1  0
  4  5  1  0
  3  6  1  0
  6  7  1  0
  7  8  1  0
  8  9  1  0
  9 10  2  0
 10 11  1  0
 11 12  2  0
 12 13  1  0
 13 14  2  0
 14 15  1  0
 15 16  2  0
 16 17  1  0
 17 18  1  0
 18 19  2  0
 19 20  1  0
 20 21  2  0
 21 22  1  0
 22 23  2  0
 17 24  2  0
 12 25  1  0
 25 26  2  0
 26  9  1  0
 24 13  1  0
 23 18  1  0
  1 27  1  0
  1 28  1  0
  1 29  1  0
  2 30  1  0
  2 31  1  0
  4 32  1  0
  4 33  1  0
  5 34  1  0
  5 35  1  0
  5 36  1  0
  6 37  1  0
  6 38  1  0
  7 39  1  0
  7 40  1  0
 10 41  1  0
 11 42  1  0
 14 43  1  0
 16 44  1  0
 19 45  1  0
 20 46  1  0
 22 47  1  0
 23 48  1  0
 24 49  1  0
 25 50  1  0
 26 51  1  0
M  END
>  <UniqueID>  (34) 
32

>  <SMILES>  (34) 
CCN(CC)CCOc1ccc(-c2cncc(-c3ccncc3)c2)cc1

>  <Energy>  (34) 
71.29376252215016

>  <Genealogy>  (34) 
CCN(CC)CCOc1ccc(-c2cncc(-c3ccncc3)c2)cc1 (3D coordinates assigned)
CCN(CC)CCOc1ccc(-c2cncc(-c3ccncc3)c2)cc1 (optimized conformer: 71.29376252215016 kcal/mol)

>  <smiles>  (34) 
CCN(CC)CCOc1ccc(-c2cncc(-c3ccncc3)c2)cc1

>  <score_type>  (34) 
oracle

>  <origin>  (34) 
adg

>  <m_score__min__energy>  (34) 
-8.6099999999999994

>  <m_primary>  (34) 
energy

$$$$
34:0
     RDKit          3D

 32 33  0  0  0  0  0  0  0  0999 V2000
   -3.4260   23.7520  -29.8980 C   0  0  0  0  0  0  0  0  0  0  0  0
   -3.9200   23.5310  -31.2150 O   0  0  0  0  0  0  0  0  0  0  0  0
   -5.1180   22.8730  -31.5620 C   0  0  0  0  0  0  0  0  0  0  0  0
   -5.0490   21.5090  -31.9100 C   0  0  0  0  0  0  0  0  0  0  0  0
   -3.7120   20.8000  -31.8640 C   0  0  0  0  0  0  0  0  0  0  0  0
   -6.1890   20.8560  -32.3210 N   0  0  0  0  0  0  0  0  0  0  0  0
   -6.1460   19.4880  -32.7710 C   0  0  0  0  0  0  0  0  0  0  0  0
   -5.7960   19.1840  -34.0960 C   0  0  0  0  0  0  0  0  0  0  0  0
   -5.7730   17.8560  -34.5300 C   0  0  0  0  0  0  0  0  0  0  0  0
   -6.1120   16.8240  -33.6490 C   0  0  0  0  0  0  0  0  0  0  0  0
   -6.0850   15.1570  -34.1960 Cl  0  0  0  0  0  0  0  0  0  0  0  0
   -6.4760   17.1230  -32.3310 C   0  0  0  0  0  0  0  0  0  0  0  0
   -6.4980   18.4510  -31.8940 C   0  0  0  0  0  0  0  0  0  0  0  0
   -7.3750   21.4760  -32.3170 N   0  0  0  0  0  0  0  0  0  0  0  0
   -7.5100   22.7780  -31.9440 C   0  0  0  0  0  0  0  0  0  0  0  0
   -8.8640   23.4330  -31.9830 C   0  0  0  0  0  0  0  0  0  0  0  0
   -6.3750   23.5090  -31.5780 C   0  0  0  0  0  0  0  0  0  0  0  0
   -6.4940   24.7250  -31.2700 O   0  0  0  0  0  0  0  0  0  0  0  0
   -4.1744   23.4172  -29.1647 H   0  0  0  0  0  0  0  0  0  0  0  0
   -2.4942   23.1849  -29.7559 H   0  0  0  0  0  0  0  0  0  0  0  0
   -3.2277   24.8246  -29.7559 H   0  0  0  0  0  0  0  0  0  0  0  0
   -3.4161   20.6431  -30.8162 H   0  0  0  0  0  0  0  0  0  0  0  0
   -3.7951   19.8274  -32.3712 H   0  0  0  0  0  0  0  0  0  0  0  0
   -2.9535   21.4144  -32.3712 H   0  0  0  0  0  0  0  0  0  0  0  0
   -5.5390   19.9937  -34.7948 H   0  0  0  0  0  0  0  0  0  0  0  0
   -5.4878   17.6218  -35.5663 H   0  0  0  0  0  0  0  0  0  0  0  0
   -6.7451   16.3122  -31.6381 H   0  0  0  0  0  0  0  0  0  0  0  0
   -6.7921   18.6833  -30.8598 H   0  0  0  0  0  0  0  0  0  0  0  0
   -8.2260   20.9520  -32.6270 H   0  0  0  0  0  0  0  0  0  0  0  0
   -9.2182   23.6043  -30.9558 H   0  0  0  0  0  0  0  0  0  0  0  0
   -8.7907   24.3953  -32.5109 H   0  0  0  0  0  0  0  0  0  0  0  0
   -9.5730   22.7783  -32.5109 H   0  0  0  0  0  0  0  0  0  0  0  0
  1  2  1  0
  2  3  1  0
  3  4  2  0
  4  5  1  0
  4  6  1  0
  6  7  1  0
  7  8  2  0
  8  9  1  0
  9 10  2  0
 10 11  1  0
 10 12  1  0
 12 13  2  0
  6 14  1  0
 14 15  2  0
 15 16  1  0
 15 17  1  0
 17 18  2  0
 17  3  1  0
 13  7  1  0
  1 19  1  0
  1 20  1  0
  1 21  1  0
  5 22  1  0
  5 23  1  0
  5 24  1  0
  8 25  1  0
  9 26  1  0
 12 27  1  0
 13 28  1  0
 14 29  1  0
 16 30  1  0
 16 31  1  0
 16 32  1  0
M  CHG  1  14   1
M  END
>  <UniqueID>  (35) 
33

>  <SMILES>  (35) 
COc1c(C)n(-c2ccc(Cl)cc2)[nH+]c(C)c1=O

>  <Energy>  (35) 
44.346162295225454

>  <Genealogy>  (35) 
COc1c(C)n(-c2ccc(Cl)cc2)[nH+]c(C)c1=O (protonated)
COc1c(C)n(-c2ccc(Cl)cc2)[nH+]c(C)c1=O (3D coordinates assigned)
COc1c(C)n(-c2ccc(Cl)cc2)[nH+]c(C)c1=O (optimized conformer: 44.346162295225454 kcal/mol)

>  <smiles>  (35) 
COc1c(C)n(-c2ccc(Cl)cc2)nc(C)c1=O

>  <score_type>  (35) 
oracle

>  <origin>  (35) 
adg

>  <m_score__min__energy>  (35) 
-6.0199999999999996

>  <m_primary>  (35) 
energy

$$$$
35:0
     RDKit          3D

 52 54  0  0  0  0  0  0  0  0999 V2000
   -5.0570   24.3110  -30.7050 C   0  0  0  0  0  0  0  0  0  0  0  0
   -4.2210   24.5140  -29.4520 C   0  0  0  0  0  0  0  0  0  0  0  0
   -2.9030   24.9080  -29.8160 O   0  0  0  0  0  0  0  0  0  0  0  0
   -1.8110   24.8300  -28.9420 C   0  0  0  0  0  0  0  0  0  0  0  0
   -1.6060   25.8140  -28.0210 N   0  0  0  0  0  0  0  0  0  0  0  0
   -0.5870   25.7630  -27.1240 C   0  0  0  0  0  0  0  0  0  0  0  0
    0.2840   24.6770  -27.1210 C   0  0  0  0  0  0  0  0  0  0  0  0
    0.1050   23.6540  -28.0530 C   0  0  0  0  0  0  0  0  0  0  0  0
   -0.9400   23.7230  -28.9890 C   0  0  0  0  0  0  0  0  0  0  0  0
   -1.1110   22.6330  -29.9790 C   0  0  0  0  0  0  0  0  0  0  0  0
   -0.2850   21.6790  -29.9970 O   0  0  0  0  0  0  0  0  0  0  0  0
   -2.1600   22.6880  -30.9600 N   0  0  0  0  0  0  0  0  0  0  0  0
   -2.6380   21.5440  -31.6880 C   0  0  0  0  0  0  0  0  0  0  0  0
   -3.7020   20.7610  -31.2060 C   0  0  0  0  0  0  0  0  0  0  0  0
   -4.1580   19.6600  -31.9380 C   0  0  0  0  0  0  0  0  0  0  0  0
   -3.5730   19.3350  -33.1740 C   0  0  0  0  0  0  0  0  0  0  0  0
   -4.0270   18.1490  -33.9380 C   0  0  0  0  0  0  0  0  0  0  0  0
   -3.3950   17.7950  -34.9690 O   0  0  0  0  0  0  0  0  0  0  0  0
   -5.1740   17.3880  -33.5250 N   0  0  0  0  0  0  0  0  0  0  0  0
   -5.0130   16.2950  -32.5630 C   0  0  0  0  0  0  0  0  0  0  0  0
   -6.5030   17.7450  -34.0320 C   0  0  0  0  0  0  0  0  0  0  0  0
   -7.1710   18.7020  -33.0820 C   0  0  0  0  0  0  0  0  0  0  0  0
   -8.0380   18.2240  -32.0860 C   0  0  0  0  0  0  0  0  0  0  0  0
   -8.6900   19.1190  -31.2320 C   0  0  0  0  0  0  0  0  0  0  0  0
   -8.4910   20.4950  -31.3740 C   0  0  0  0  0  0  0  0  0  0  0  0
   -7.6400   20.9790  -32.3730 C   0  0  0  0  0  0  0  0  0  0  0  0
   -6.9820   20.0870  -33.2270 C   0  0  0  0  0  0  0  0  0  0  0  0
   -2.5200   20.1270  -33.6600 C   0  0  0  0  0  0  0  0  0  0  0  0
   -2.0660   21.2280  -32.9280 C   0  0  0  0  0  0  0  0  0  0  0  0
   -6.0895   24.0603  -30.4203 H   0  0  0  0  0  0  0  0  0  0  0  0
   -5.0552   25.2357  -31.3008 H   0  0  0  0  0  0  0  0  0  0  0  0
   -4.6313   23.4901  -31.3008 H   0  0  0  0  0  0  0  0  0  0  0  0
   -4.6785   25.2972  -28.8296 H   0  0  0  0  0  0  0  0  0  0  0  0
   -4.1773   23.5721  -28.8855 H   0  0  0  0  0  0  0  0  0  0  0  0
   -0.4501   26.5798  -26.4001 H   0  0  0  0  0  0  0  0  0  0  0  0
    1.1053   24.6258  -26.3911 H   0  0  0  0  0  0  0  0  0  0  0  0
    0.7854   22.7896  -28.0547 H   0  0  0  0  0  0  0  0  0  0  0  0
   -2.5280   23.6300  -31.2300 H   0  0  0  0  0  0  0  0  0  0  0  0
   -4.1783   21.0159  -30.2478 H   0  0  0  0  0  0  0  0  0  0  0  0
   -4.9799   19.0443  -31.5438 H   0  0  0  0  0  0  0  0  0  0  0  0
   -5.0720   16.6952  -31.5401 H   0  0  0  0  0  0  0  0  0  0  0  0
   -5.8116   15.5537  -32.7133 H   0  0  0  0  0  0  0  0  0  0  0  0
   -4.0345   15.8154  -32.7133 H   0  0  0  0  0  0  0  0  0  0  0  0
   -6.4018   18.2208  -35.0186 H   0  0  0  0  0  0  0  0  0  0  0  0
   -7.1145   16.8349  -34.1204 H   0  0  0  0  0  0  0  0  0  0  0  0
   -8.2047   17.1422  -31.9773 H   0  0  0  0  0  0  0  0  0  0  0  0
   -9.3607   18.7393  -30.4471 H   0  0  0  0  0  0  0  0  0  0  0  0
   -9.0036   21.1973  -30.7002 H   0  0  0  0  0  0  0  0  0  0  0  0
   -7.4878   22.0624  -32.4875 H   0  0  0  0  0  0  0  0  0  0  0  0
   -6.3154   20.4706  -34.0135 H   0  0  0  0  0  0  0  0  0  0  0  0
   -2.0494   19.8794  -34.6229 H   0  0  0  0  0  0  0  0  0  0  0  0
   -1.2531   21.8516  -33.3285 H   0  0  0  0  0  0  0  0  0  0  0  0
  1  2  1  0
  2  3  1  0
  3  4  1  0
  4  5  2  0
  5  6  1  0
  6  7  2  0
  7  8  1  0
  8  9  2  0
  9 10  1  0
 10 11  2  0
 10 12  1  0
 12 13  1  0
 13 14  2  0
 14 15  1  0
 15 16  2  0
 16 17  1  0
 17 18  2  0
 17 19  1  0
 19 20  1  0
 19 21  1  0
 21 22  1  0
 22 23  2  0
 23 24  1  0
 24 25  2  0
 25 26  1  0
 26 27  2  0
 16 28  1  0
 28 29  2  0
  9  4  1  0
 29 13  1  0
 27 22  1  0
  1 30  1  0
  1 31  1  0
  1 32  1  0
  2 33  1  0
  2 34  1  0
  6 35  1  0
  7 36  1  0
  8 37  1  0
 12 38  1  0
 14 39  1  0
 15 40  1  0
 20 41  1  0
 20 42  1  0
 20 43  1  0
 21 44  1  0
 21 45  1  0
 23 46  1  0
 24 47  1  0
 25 48  1  0
 26 49  1  0
 27 50  1  0
 28 51  1  0
 29 52  1  0
M  END
>  <UniqueID>  (36) 
34

>  <SMILES>  (36) 
CCOc1ncccc1C(=O)Nc1ccc(C(=O)N(C)Cc2ccccc2)cc1

>  <Energy>  (36) 
59.16795872932091

>  <Genealogy>  (36) 
CCOc1ncccc1C(=O)Nc1ccc(C(=O)N(C)Cc2ccccc2)cc1 (3D coordinates assigned)
CCOc1ncccc1C(=O)Nc1ccc(C(=O)N(C)Cc2ccccc2)cc1 (optimized conformer: 59.16795872932091 kcal/mol)

>  <smiles>  (36) 
CCOc1ncccc1C(=O)Nc1ccc(C(=O)N(C)Cc2ccccc2)cc1

>  <score_type>  (36) 
oracle

>  <origin>  (36) 
adg

>  <m_score__min__energy>  (36) 
-8.9000000000000004

>  <m_primary>  (36) 
energy

$$$$
36:0
     RDKit          3D

 57 60  0  0  0  0  0  0  0  0999 V2000
   -5.4190   23.7020  -32.2990 O   0  0  0  0  0  0  0  0  0  0  0  0
   -6.3340   23.3580  -31.5050 C   0  0  0  0  0  0  0  0  0  0  0  0
   -6.3600   23.9420  -30.1040 C   0  0  0  0  0  0  0  0  0  0  0  0
   -5.2700   23.4740  -29.2090 N   0  0  0  0  0  0  0  0  0  0  0  0
   -4.3030   24.5380  -28.8190 C   0  0  0  0  0  0  0  0  0  0  0  0
   -2.8860   24.2810  -29.3550 C   0  0  0  0  0  0  0  0  0  0  0  0
   -2.3620   22.9790  -28.8830 N   0  0  0  0  0  0  0  0  0  0  0  0
   -1.1200   22.6060  -29.5920 C   0  0  0  0  0  0  0  0  0  0  0  0
   -1.3910   21.6100  -30.6930 C   0  0  0  0  0  0  0  0  0  0  0  0
   -0.9360   20.2870  -30.5830 C   0  0  0  0  0  0  0  0  0  0  0  0
   -1.1880   19.3650  -31.6060 C   0  0  0  0  0  0  0  0  0  0  0  0
   -1.8880   19.7550  -32.7620 C   0  0  0  0  0  0  0  0  0  0  0  0
   -2.1960   18.7520  -33.8470 C   0  0  0  0  0  0  0  0  0  0  0  0
   -2.4500   17.5200  -33.2730 F   0  0  0  0  0  0  0  0  0  0  0  0
   -1.1290   18.6290  -34.7180 F   0  0  0  0  0  0  0  0  0  0  0  0
   -3.3030   19.1450  -34.5790 F   0  0  0  0  0  0  0  0  0  0  0  0
   -2.3750   21.0720  -32.8550 C   0  0  0  0  0  0  0  0  0  0  0  0
   -2.1200   21.9930  -31.8330 C   0  0  0  0  0  0  0  0  0  0  0  0
   -3.3690   21.8880  -28.9200 C   0  0  0  0  0  0  0  0  0  0  0  0
   -4.6270   22.2480  -29.7320 C   0  0  0  0  0  0  0  0  0  0  0  0
   -7.3140   22.4020  -31.9570 N   0  0  0  0  0  0  0  0  0  0  0  0
   -8.7250   22.8220  -31.9300 C   0  0  0  0  0  0  0  0  0  0  0  0
   -9.6290   21.6950  -31.4340 C   0  0  0  0  0  0  0  0  0  0  0  0
   -9.4600   20.4760  -32.3380 C   0  0  0  0  0  0  0  0  0  0  0  0
   -8.0140   20.0580  -32.4160 C   0  0  0  0  0  0  0  0  0  0  0  0
   -7.7030   18.7130  -32.6810 C   0  0  0  0  0  0  0  0  0  0  0  0
   -6.3750   18.2930  -32.7250 C   0  0  0  0  0  0  0  0  0  0  0  0
   -5.3470   19.2120  -32.5080 C   0  0  0  0  0  0  0  0  0  0  0  0
   -5.6410   20.5550  -32.2540 C   0  0  0  0  0  0  0  0  0  0  0  0
   -6.9760   21.0120  -32.2400 C   0  0  0  0  0  0  0  0  0  0  0  0
   -6.2859   25.0362  -30.1888 H   0  0  0  0  0  0  0  0  0  0  0  0
   -7.3010   23.6025  -29.6465 H   0  0  0  0  0  0  0  0  0  0  0  0
   -5.7460   23.1830  -28.3170 H   0  0  0  0  0  0  0  0  0  0  0  0
   -4.6598   25.4998  -29.2161 H   0  0  0  0  0  0  0  0  0  0  0  0
   -4.2450   24.5461  -27.7206 H   0  0  0  0  0  0  0  0  0  0  0  0
   -2.9134   24.2792  -30.4547 H   0  0  0  0  0  0  0  0  0  0  0  0
   -2.2240   25.0775  -28.9843 H   0  0  0  0  0  0  0  0  0  0  0  0
   -0.6728   23.5105  -30.0300 H   0  0  0  0  0  0  0  0  0  0  0  0
   -0.4343   22.1424  -28.8675 H   0  0  0  0  0  0  0  0  0  0  0  0
   -0.3785   19.9728  -29.6883 H   0  0  0  0  0  0  0  0  0  0  0  0
   -0.8359   18.3278  -31.5050 H   0  0  0  0  0  0  0  0  0  0  0  0
   -2.9589   21.3789  -33.7353 H   0  0  0  0  0  0  0  0  0  0  0  0
   -2.4925   23.0242  -31.9219 H   0  0  0  0  0  0  0  0  0  0  0  0
   -2.9044   20.9991  -29.3716 H   0  0  0  0  0  0  0  0  0  0  0  0
   -3.6908   21.7061  -27.8840 H   0  0  0  0  0  0  0  0  0  0  0  0
   -4.3415   22.4125  -30.7815 H   0  0  0  0  0  0  0  0  0  0  0  0
   -5.3435   21.4173  -29.6501 H   0  0  0  0  0  0  0  0  0  0  0  0
   -8.8288   23.6869  -31.2583 H   0  0  0  0  0  0  0  0  0  0  0  0
   -9.0287   23.0863  -32.9537 H   0  0  0  0  0  0  0  0  0  0  0  0
   -9.3523   21.4289  -30.4032 H   0  0  0  0  0  0  0  0  0  0  0  0
  -10.6774   22.0273  -31.4564 H   0  0  0  0  0  0  0  0  0  0  0  0
  -10.0539   19.6431  -31.9336 H   0  0  0  0  0  0  0  0  0  0  0  0
   -9.8039   20.7391  -33.3492 H   0  0  0  0  0  0  0  0  0  0  0  0
   -8.5121   17.9883  -32.8545 H   0  0  0  0  0  0  0  0  0  0  0  0
   -6.1372   17.2388  -32.9304 H   0  0  0  0  0  0  0  0  0  0  0  0
   -4.2995   18.8776  -32.5370 H   0  0  0  0  0  0  0  0  0  0  0  0
   -4.8219   21.2639  -32.0628 H   0  0  0  0  0  0  0  0  0  0  0  0
  1  2  2  0
  2  3  1  0
  3  4  1  0
  4  5  1  0
  5  6  1  0
  6  7  1  0
  7  8  1  0
  8  9  1  0
  9 10  2  0
 10 11  1  0
 11 12  2  0
 12 13  1  0
 13 14  1  0
 13 15  1  0
 13 16  1  0
 12 17  1  0
 17 18  2  0
  7 19  1  0
 19 20  1  0
  2 21  1  0
 21 22  1  0
 22 23  1  0
 23 24  1  0
 24 25  1  0
 25 26  2  0
 26 27  1  0
 27 28  2  0
 28 29  1  0
 29 30  2  0
 20  4  1  0
 30 21  1  0
 18  9  1  0
 30 25  1  0
  3 31  1  0
  3 32  1  0
  4 33  1  0
  5 34  1  0
  5 35  1  0
  6 36  1  0
  6 37  1  0
  8 38  1  0
  8 39  1  0
 10 40  1  0
 11 41  1  0
 17 42  1  0
 18 43  1  0
 19 44  1  0
 19 45  1  0
 20 46  1  0
 20 47  1  0
 22 48  1  0
 22 49  1  0
 23 50  1  0
 23 51  1  0
 24 52  1  0
 24 53  1  0
 26 54  1  0
 27 55  1  0
 28 56  1  0
 29 57  1  0
M  CHG  1   4   1
M  END
>  <UniqueID>  (37) 
35

>  <SMILES>  (37) 
O=C(C[NH+]1CCN(Cc2ccc(C(F)(F)F)cc2)CC1)N1CCCc2ccccc21

>  <Energy>  (37) 
85.57102481777827

>  <Genealogy>  (37) 
O=C(C[NH+]1CCN(Cc2ccc(C(F)(F)F)cc2)CC1)N1CCCc2ccccc21 (protonated)
O=C(C[NH+]1CCN(Cc2ccc(C(F)(F)F)cc2)CC1)N1CCCc2ccccc21 (3D coordinates assigned)
O=C(C[NH+]1CCN(Cc2ccc(C(F)(F)F)cc2)CC1)N1CCCc2ccccc21 (nonaromatic ring conformer: 85.57102481777827 kcal/mol)

>  <smiles>  (37) 
O=C(CN1CCN(Cc2ccc(C(F)(F)F)cc2)CC1)N1CCCc2ccccc21

>  <score_type>  (37) 
oracle

>  <origin>  (37) 
adg

>  <m_score__min__energy>  (37) 
-8.5399999999999991

>  <m_primary>  (37) 
energy

$$$$
37:0
     RDKit          3D

 32 33  0  0  0  0  0  0  0  0999 V2000
   -2.9510   24.1710  -27.7970 C   0  0  0  0  0  0  0  0  0  0  0  0
   -2.3010   24.3060  -29.1700 C   0  0  0  0  0  0  0  0  0  0  0  0
   -3.1950   24.9230  -30.0960 O   0  0  0  0  0  0  0  0  0  0  0  0
   -4.5240   24.5330  -30.3390 C   0  0  0  0  0  0  0  0  0  0  0  0
   -5.5480   25.3300  -29.8170 C   0  0  0  0  0  0  0  0  0  0  0  0
   -6.8850   24.9910  -30.0220 C   0  0  0  0  0  0  0  0  0  0  0  0
   -7.2130   23.8460  -30.7510 C   0  0  0  0  0  0  0  0  0  0  0  0
   -6.2090   23.0270  -31.2800 C   0  0  0  0  0  0  0  0  0  0  0  0
   -6.6040   21.8870  -32.0000 O   0  0  0  0  0  0  0  0  0  0  0  0
   -7.8780   21.2400  -31.9280 C   0  0  0  0  0  0  0  0  0  0  0  0
   -7.9840   20.0460  -32.8930 C   0  0  2  0  0  0  0  0  0  0  0  0
   -7.6380   18.7040  -32.2650 C   0  0  0  0  0  0  0  0  0  0  0  0
   -6.4940   18.6910  -33.2610 C   0  0  0  0  0  0  0  0  0  0  0  0
   -6.8650   19.9860  -33.8340 N   0  0  0  0  0  0  0  0  0  0  0  0
   -4.8590   23.3770  -31.0740 C   0  0  0  0  0  0  0  0  0  0  0  0
   -2.1931   24.3284  -27.0155 H   0  0  0  0  0  0  0  0  0  0  0  0
   -3.7470   24.9230  -27.6926 H   0  0  0  0  0  0  0  0  0  0  0  0
   -3.3817   23.1642  -27.6926 H   0  0  0  0  0  0  0  0  0  0  0  0
   -1.3935   24.9212  -29.0804 H   0  0  0  0  0  0  0  0  0  0  0  0
   -2.0479   23.3016  -29.5404 H   0  0  0  0  0  0  0  0  0  0  0  0
   -5.2965   26.2320  -29.2398 H   0  0  0  0  0  0  0  0  0  0  0  0
   -7.6823   25.6263  -29.6089 H   0  0  0  0  0  0  0  0  0  0  0  0
   -8.2697   23.5855  -30.9108 H   0  0  0  0  0  0  0  0  0  0  0  0
   -8.0335   20.8790  -30.9006 H   0  0  0  0  0  0  0  0  0  0  0  0
   -8.6443   21.9743  -32.2170 H   0  0  0  0  0  0  0  0  0  0  0  0
   -9.0057   20.1877  -33.2751 H   0  0  0  0  0  0  0  0  0  0  0  0
   -7.3388   18.7441  -31.2072 H   0  0  0  0  0  0  0  0  0  0  0  0
   -8.3608   17.8806  -32.1675 H   0  0  0  0  0  0  0  0  0  0  0  0
   -5.5021   18.6930  -32.7854 H   0  0  0  0  0  0  0  0  0  0  0  0
   -6.3918   17.8271  -33.9343 H   0  0  0  0  0  0  0  0  0  0  0  0
   -7.2470   19.8260  -34.7960 H   0  0  0  0  0  0  0  0  0  0  0  0
   -4.0612   22.7439  -31.4895 H   0  0  0  0  0  0  0  0  0  0  0  0
  1  2  1  0
  2  3  1  0
  3  4  1  0
  4  5  2  0
  5  6  1  0
  6  7  2  0
  7  8  1  0
  8  9  1  0
  9 10  1  0
 10 11  1  0
 11 12  1  0
 12 13  1  0
 13 14  1  0
  8 15  2  0
 15  4  1  0
 14 11  1  0
  1 16  1  0
  1 17  1  0
  1 18  1  0
  2 19  1  0
  2 20  1  0
  5 21  1  0
  6 22  1  0
  7 23  1  0
 10 24  1  0
 10 25  1  0
 11 26  1  6
 12 27  1  0
 12 28  1  0
 13 29  1  0
 13 30  1  0
 14 31  1  0
 15 32  1  0
M  END
>  <UniqueID>  (38) 
36

>  <SMILES>  (38) 
CCOc1cccc(OC[C@@H]2CCN2)c1

>  <Energy>  (38) 
94.59366991187154

>  <Genealogy>  (38) 
CCOc1cccc(OC[C@@H]2CCN2)c1 (chirality)
CCOc1cccc(OC[C@@H]2CCN2)c1 (3D coordinates assigned)
CCOc1cccc(OC[C@@H]2CCN2)c1 (nonaromatic ring conformer: 94.59366991187154 kcal/mol)

>  <smiles>  (38) 
CCOc1cccc(OCC2CCN2)c1

>  <score_type>  (38) 
oracle

>  <origin>  (38) 
adg

>  <m_score__min__energy>  (38) 
-6.2300000000000004

>  <m_primary>  (38) 
energy

$$$$
38:0
     RDKit          3D

 51 53  0  0  0  0  0  0  0  0999 V2000
   -0.9620   21.1600  -31.0680 C   0  0  0  0  0  0  0  0  0  0  0  0
   -1.4810   21.1850  -32.1560 C   0  0  0  0  0  0  0  0  0  0  0  0
   -2.1150   21.2040  -33.4820 C   0  0  0  0  0  0  0  0  0  0  0  0
   -3.3500   20.2960  -33.5350 C   0  0  0  0  0  0  0  0  0  0  0  0
   -3.0010   18.8130  -33.3330 C   0  0  0  0  0  0  0  0  0  0  0  0
   -3.4120   17.9850  -34.5540 C   0  0  0  0  0  0  0  0  0  0  0  0
   -4.9350   17.8000  -34.6140 C   0  0  0  0  0  0  0  0  0  0  0  0
   -5.3610   16.4040  -34.1150 C   0  0  0  0  0  0  0  0  0  0  0  0
   -6.8530   16.3320  -33.7500 C   0  0  0  0  0  0  0  0  0  0  0  0
   -7.1230   16.9520  -32.4930 O   0  0  0  0  0  0  0  0  0  0  0  0
   -7.4310   18.3070  -32.3050 C   0  0  0  0  0  0  0  0  0  0  0  0
   -8.7440   18.7190  -32.5370 C   0  0  0  0  0  0  0  0  0  0  0  0
   -9.1190   20.0520  -32.3520 C   0  0  0  0  0  0  0  0  0  0  0  0
   -8.1700   21.0020  -31.9560 C   0  0  0  0  0  0  0  0  0  0  0  0
   -6.8350   20.5940  -31.7420 C   0  0  0  0  0  0  0  0  0  0  0  0
   -6.4700   19.2530  -31.9130 C   0  0  0  0  0  0  0  0  0  0  0  0
   -5.8560   21.6220  -31.3730 C   0  0  0  0  0  0  0  0  0  0  0  0
   -4.5520   21.4330  -31.0940 N   0  0  0  0  0  0  0  0  0  0  0  0
   -4.0250   22.6330  -30.8840 N   0  0  0  0  0  0  0  0  0  0  0  0
   -4.9650   23.5820  -31.0500 C   0  0  0  0  0  0  0  0  0  0  0  0
   -4.6740   24.9520  -30.9570 O   0  0  0  0  0  0  0  0  0  0  0  0
   -5.5110   25.9170  -30.3350 C   0  0  0  0  0  0  0  0  0  0  0  0
   -6.1720   22.9580  -31.3450 C   0  0  0  0  0  0  0  0  0  0  0  0
   -7.5070   23.4790  -31.8010 C   0  0  0  0  0  0  0  0  0  0  0  0
   -8.6090   22.4140  -31.6020 C   0  0  0  0  0  0  0  0  0  0  0  0
   -0.4885   21.1372  -30.0754 H   0  0  0  0  0  0  0  0  0  0  0  0
   -2.4202   22.2345  -33.7162 H   0  0  0  0  0  0  0  0  0  0  0  0
   -1.3849   20.8319  -34.2158 H   0  0  0  0  0  0  0  0  0  0  0  0
   -4.0487   20.6047  -32.7435 H   0  0  0  0  0  0  0  0  0  0  0  0
   -3.7981   20.4002  -34.5342 H   0  0  0  0  0  0  0  0  0  0  0  0
   -1.9160   18.7157  -33.1802 H   0  0  0  0  0  0  0  0  0  0  0  0
   -3.5471   18.4394  -32.4543 H   0  0  0  0  0  0  0  0  0  0  0  0
   -3.0772   18.5007  -35.4661 H   0  0  0  0  0  0  0  0  0  0  0  0
   -2.9440   16.9927  -34.4747 H   0  0  0  0  0  0  0  0  0  0  0  0
   -5.4120   18.5647  -33.9833 H   0  0  0  0  0  0  0  0  0  0  0  0
   -5.2512   17.9001  -35.6628 H   0  0  0  0  0  0  0  0  0  0  0  0
   -5.1573   15.6698  -34.9084 H   0  0  0  0  0  0  0  0  0  0  0  0
   -4.7858   16.1884  -33.2025 H   0  0  0  0  0  0  0  0  0  0  0  0
   -7.4354   16.8427  -34.5310 H   0  0  0  0  0  0  0  0  0  0  0  0
   -7.1353   15.2715  -33.6751 H   0  0  0  0  0  0  0  0  0  0  0  0
   -9.4929   17.9852  -32.8696 H   0  0  0  0  0  0  0  0  0  0  0  0
  -10.1630   20.3560  -32.5180 H   0  0  0  0  0  0  0  0  0  0  0  0
   -5.4296   18.9403  -31.7401 H   0  0  0  0  0  0  0  0  0  0  0  0
   -3.0210   22.7990  -30.6480 H   0  0  0  0  0  0  0  0  0  0  0  0
   -5.4295   25.8231  -29.2421 H   0  0  0  0  0  0  0  0  0  0  0  0
   -5.1973   26.9260  -30.6407 H   0  0  0  0  0  0  0  0  0  0  0  0
   -6.5542   25.7490  -30.6407 H   0  0  0  0  0  0  0  0  0  0  0  0
   -7.7626   24.3757  -31.2174 H   0  0  0  0  0  0  0  0  0  0  0  0
   -7.4428   23.7241  -32.8714 H   0  0  0  0  0  0  0  0  0  0  0  0
   -8.9168   22.4268  -30.5460 H   0  0  0  0  0  0  0  0  0  0  0  0
   -9.4320   22.6737  -32.2841 H   0  0  0  0  0  0  0  0  0  0  0  0
  1  2  3  0
  2  3  1  0
  3  4  1  0
  4  5  1  0
  5  6  1  0
  6  7  1  0
  7  8  1  0
  8  9  1  0
  9 10  1  0
 10 11  1  0
 11 12  2  0
 12 13  1  0
 13 14  2  0
 14 15  1  0
 15 16  2  0
 15 17  1  0
 17 18  2  0
 18 19  1  0
 19 20  1  0
 20 21  1  0
 21 22  1  0
 20 23  2  0
 23 24  1  0
 24 25  1  0
 16 11  1  0
 23 17  1  0
 25 14  1  0
  1 26  1  0
  3 27  1  0
  3 28  1  0
  4 29  1  0
  4 30  1  0
  5 31  1  0
  5 32  1  0
  6 33  1  0
  6 34  1  0
  7 35  1  0
  7 36  1  0
  8 37  1  0
  8 38  1  0
  9 39  1  0
  9 40  1  0
 12 41  1  0
 13 42  1  0
 16 43  1  0
 19 44  1  0
 22 45  1  0
 22 46  1  0
 22 47  1  0
 24 48  1  0
 24 49  1  0
 25 50  1  0
 25 51  1  0
M  END
>  <UniqueID>  (39) 
37

>  <SMILES>  (39) 
C#CCCCCCCCOc1ccc2c(c1)-c1n[nH]c(OC)c1CC2

>  <Energy>  (39) 
79.7218962935922

>  <Genealogy>  (39) 
C#CCCCCCCCOc1ccc2c(c1)-c1n[nH]c(OC)c1CC2 (3D coordinates assigned)
C#CCCCCCCCOc1ccc2c(c1)-c1n[nH]c(OC)c1CC2 (nonaromatic ring conformer: 79.7218962935922 kcal/mol)

>  <smiles>  (39) 
C#CCCCCCCCOc1ccc2c(c1)-c1n[nH]c(OC)c1CC2

>  <score_type>  (39) 
oracle

>  <origin>  (39) 
adg

>  <m_score__min__energy>  (39) 
-8.1300000000000008

>  <m_primary>  (39) 
energy

$$$$
39:0
     RDKit          3D

 57 58  0  0  0  0  0  0  0  0999 V2000
   -6.7420   23.7970  -31.1040 C   0  0  0  0  0  0  0  0  0  0  0  0
   -6.5140   24.8800  -30.0550 C   0  0  0  0  0  0  0  0  0  0  0  0
   -5.3380   24.5250  -29.1340 C   0  0  0  0  0  0  0  0  0  0  0  0
   -4.0190   24.5440  -29.8630 C   0  0  0  0  0  0  0  0  0  0  0  0
   -3.8650   25.3470  -30.8230 O   0  0  0  0  0  0  0  0  0  0  0  0
   -2.9130   23.7030  -29.4560 N   0  0  0  0  0  0  0  0  0  0  0  0
   -2.7000   23.4250  -28.0240 C   0  0  0  0  0  0  0  0  0  0  0  0
   -1.6260   22.3460  -27.8130 C   0  0  0  0  0  0  0  0  0  0  0  0
   -2.1330   21.0140  -28.2200 N   0  0  0  0  0  0  0  0  0  0  0  0
   -1.0400   20.1050  -28.6450 C   0  0  0  0  0  0  0  0  0  0  0  0
    0.3560   20.5510  -28.1970 C   0  0  0  0  0  0  0  0  0  0  0  0
   -3.0260   20.4420  -27.1850 C   0  0  0  0  0  0  0  0  0  0  0  0
   -2.5620   19.0640  -26.7140 C   0  0  0  0  0  0  0  0  0  0  0  0
   -2.0950   22.9850  -30.4470 C   0  0  0  0  0  0  0  0  0  0  0  0
   -2.9030   21.9140  -31.1230 C   0  0  0  0  0  0  0  0  0  0  0  0
   -4.1720   21.5590  -30.6420 C   0  0  0  0  0  0  0  0  0  0  0  0
   -4.8970   20.5630  -31.2970 C   0  0  0  0  0  0  0  0  0  0  0  0
   -4.3570   19.9130  -32.4170 C   0  0  0  0  0  0  0  0  0  0  0  0
   -5.0890   18.8050  -33.0830 C   0  0  0  0  0  0  0  0  0  0  0  0
   -4.6690   18.3250  -34.3380 C   0  0  0  0  0  0  0  0  0  0  0  0
   -5.3470   17.2680  -34.9560 C   0  0  0  0  0  0  0  0  0  0  0  0
   -6.4500   16.6840  -34.3290 C   0  0  0  0  0  0  0  0  0  0  0  0
   -6.8810   17.1570  -33.0890 C   0  0  0  0  0  0  0  0  0  0  0  0
   -6.2060   18.2130  -32.4660 C   0  0  0  0  0  0  0  0  0  0  0  0
   -3.0950   20.3200  -32.8810 C   0  0  0  0  0  0  0  0  0  0  0  0
   -2.4120   21.3020  -32.2330 N   0  0  0  0  0  0  0  0  0  0  0  0
   -6.9438   22.8385  -30.6035 H   0  0  0  0  0  0  0  0  0  0  0  0
   -7.6022   24.0707  -31.7326 H   0  0  0  0  0  0  0  0  0  0  0  0
   -5.8445   23.7006  -31.7326 H   0  0  0  0  0  0  0  0  0  0  0  0
   -6.2969   25.8311  -30.5631 H   0  0  0  0  0  0  0  0  0  0  0  0
   -7.4226   24.9657  -29.4409 H   0  0  0  0  0  0  0  0  0  0  0  0
   -5.2990   25.2547  -28.3118 H   0  0  0  0  0  0  0  0  0  0  0  0
   -5.5007   23.5048  -28.7561 H   0  0  0  0  0  0  0  0  0  0  0  0
   -2.3794   24.3509  -27.5240 H   0  0  0  0  0  0  0  0  0  0  0  0
   -3.6460   23.0578  -27.5994 H   0  0  0  0  0  0  0  0  0  0  0  0
   -0.7407   22.5951  -28.4166 H   0  0  0  0  0  0  0  0  0  0  0  0
   -1.3636   22.3129  -26.7453 H   0  0  0  0  0  0  0  0  0  0  0  0
   -1.2361   19.1083  -28.2228 H   0  0  0  0  0  0  0  0  0  0  0  0
   -1.0355   20.1077  -29.7450 H   0  0  0  0  0  0  0  0  0  0  0  0
    0.4012   20.5654  -27.0980 H   0  0  0  0  0  0  0  0  0  0  0  0
    1.1078   19.8483  -28.5857 H   0  0  0  0  0  0  0  0  0  0  0  0
    0.5611   21.5594  -28.5857 H   0  0  0  0  0  0  0  0  0  0  0  0
   -3.0469   21.1224  -26.3209 H   0  0  0  0  0  0  0  0  0  0  0  0
   -4.0252   20.3261  -27.6301 H   0  0  0  0  0  0  0  0  0  0  0  0
   -2.5527   19.0363  -25.6144 H   0  0  0  0  0  0  0  0  0  0  0  0
   -3.2509   18.2954  -27.0943 H   0  0  0  0  0  0  0  0  0  0  0  0
   -1.5485   18.8686  -27.0943 H   0  0  0  0  0  0  0  0  0  0  0  0
   -1.7350   23.6979  -31.2034 H   0  0  0  0  0  0  0  0  0  0  0  0
   -1.2443   22.5154  -29.9315 H   0  0  0  0  0  0  0  0  0  0  0  0
   -4.5912   22.0608  -29.7574 H   0  0  0  0  0  0  0  0  0  0  0  0
   -5.8975   20.2858  -30.9333 H   0  0  0  0  0  0  0  0  0  0  0  0
   -3.8022   18.7837  -34.8362 H   0  0  0  0  0  0  0  0  0  0  0  0
   -5.0111   16.8972  -35.9356 H   0  0  0  0  0  0  0  0  0  0  0  0
   -6.9795   15.8503  -34.8132 H   0  0  0  0  0  0  0  0  0  0  0  0
   -7.7533   16.6988  -32.6000 H   0  0  0  0  0  0  0  0  0  0  0  0
   -6.5508   18.5820  -31.4888 H   0  0  0  0  0  0  0  0  0  0  0  0
   -2.6579   19.8433  -33.7708 H   0  0  0  0  0  0  0  0  0  0  0  0
  1  2  1  0
  2  3  1  0
  3  4  1  0
  4  5  2  0
  4  6  1  0
  6  7  1  0
  7  8  1  0
  8  9  1  0
  9 10  1  0
 10 11  1  0
  9 12  1  0
 12 13  1  0
  6 14  1  0
 14 15  1  0
 15 16  2  0
 16 17  1  0
 17 18  2  0
 18 19  1  0
 19 20  2  0
 20 21  1  0
 21 22  2  0
 22 23  1  0
 23 24  2  0
 18 25  1  0
 25 26  2  0
 26 15  1  0
 24 19  1  0
  1 27  1  0
  1 28  1  0
  1 29  1  0
  2 30  1  0
  2 31  1  0
  3 32  1  0
  3 33  1  0
  7 34  1  0
  7 35  1  0
  8 36  1  0
  8 37  1  0
 10 38  1  0
 10 39  1  0
 11 40  1  0
 11 41  1  0
 11 42  1  0
 12 43  1  0
 12 44  1  0
 13 45  1  0
 13 46  1  0
 13 47  1  0
 14 48  1  0
 14 49  1  0
 16 50  1  0
 17 51  1  0
 20 52  1  0
 21 53  1  0
 22 54  1  0
 23 55  1  0
 24 56  1  0
 25 57  1  0
M  END
>  <UniqueID>  (40) 
38

>  <SMILES>  (40) 
CCCC(=O)N(CCN(CC)CC)Cc1ccc(-c2ccccc2)cn1

>  <Energy>  (40) 
53.3644598882865

>  <Genealogy>  (40) 
CCCC(=O)N(CCN(CC)CC)Cc1ccc(-c2ccccc2)cn1 (3D coordinates assigned)
CCCC(=O)N(CCN(CC)CC)Cc1ccc(-c2ccccc2)cn1 (optimized conformer: 53.3644598882865 kcal/mol)

>  <smiles>  (40) 
CCCC(=O)N(CCN(CC)CC)Cc1ccc(-c2ccccc2)cn1

>  <score_type>  (40) 
oracle

>  <origin>  (40) 
adg

>  <m_score__min__energy>  (40) 
-8.3399999999999999

>  <m_primary>  (40) 
energy

$$$$
40:0
     RDKit          3D

 31 32  0  0  0  0  0  0  0  0999 V2000
   -8.5456   23.4965  -32.3345 H   0  0  0  0  0  0  0  0  0  0  0  0
   -7.9160   22.8920  -31.6650 C   0  0  0  0  0  0  0  0  0  0  0  0
   -7.2740   23.5340  -30.6750 C   0  0  0  0  0  0  0  0  0  0  0  0
   -7.8863   23.9454  -29.8590 H   0  0  0  0  0  0  0  0  0  0  0  0
   -5.8070   23.7330  -30.5930 C   0  0  0  0  0  0  0  0  0  0  0  0
   -4.9190   22.6540  -30.6780 C   0  0  0  0  0  0  0  0  0  0  0  0
   -5.2989   21.6283  -30.7947 H   0  0  0  0  0  0  0  0  0  0  0  0
   -3.5490   22.8950  -30.6130 C   0  0  0  0  0  0  0  0  0  0  0  0
   -2.5670   21.7710  -30.6960 C   0  0  0  0  0  0  0  0  0  0  0  0
   -2.2882   21.4519  -29.6809 H   0  0  0  0  0  0  0  0  0  0  0  0
   -3.0214   20.9261  -31.2341 H   0  0  0  0  0  0  0  0  0  0  0  0
   -1.6687   22.1079  -31.2341 H   0  0  0  0  0  0  0  0  0  0  0  0
   -3.1140   24.1770  -30.5110 N   0  0  0  0  0  0  0  0  0  0  0  0
   -3.9470   25.1910  -30.4620 O   0  0  0  0  0  0  0  0  0  0  0  0
   -5.2650   25.0250  -30.5030 C   0  0  0  0  0  0  0  0  0  0  0  0
   -6.0160   26.0360  -30.4520 O   0  0  0  0  0  0  0  0  0  0  0  0
   -7.8450   21.4380  -31.9280 C   0  0  0  0  0  0  0  0  0  0  0  0
   -8.8330   20.5560  -31.4570 C   0  0  0  0  0  0  0  0  0  0  0  0
   -9.6760   20.9445  -30.8668 H   0  0  0  0  0  0  0  0  0  0  0  0
   -8.7510   19.1880  -31.7340 C   0  0  0  0  0  0  0  0  0  0  0  0
   -9.5189   18.5031  -31.3451 H   0  0  0  0  0  0  0  0  0  0  0  0
   -7.6890   18.6840  -32.5090 C   0  0  0  0  0  0  0  0  0  0  0  0
   -7.5600   17.3200  -32.8100 O   0  0  0  0  0  0  0  0  0  0  0  0
   -6.4960   16.7630  -33.5740 C   0  0  0  0  0  0  0  0  0  0  0  0
   -5.7287   16.3613  -32.8958 H   0  0  0  0  0  0  0  0  0  0  0  0
   -6.8850   15.9529  -34.2083 H   0  0  0  0  0  0  0  0  0  0  0  0
   -6.0519   17.5443  -34.2083 H   0  0  0  0  0  0  0  0  0  0  0  0
   -6.7250   19.5700  -33.0030 C   0  0  0  0  0  0  0  0  0  0  0  0
   -5.8961   19.1871  -33.6165 H   0  0  0  0  0  0  0  0  0  0  0  0
   -6.8060   20.9360  -32.7240 C   0  0  0  0  0  0  0  0  0  0  0  0
   -6.0494   21.6226  -33.1316 H   0  0  0  0  0  0  0  0  0  0  0  0
  1  2  1  0
  2  3  2  0
  3  4  1  0
  3  5  1  0
  5  6  2  0
  6  7  1  0
  6  8  1  0
  8  9  1  0
  9 10  1  0
  9 11  1  0
  9 12  1  0
  8 13  2  0
 13 14  1  0
 14 15  1  0
 15 16  2  0
  2 17  1  0
 17 18  2  0
 18 19  1  0
 18 20  1  0
 20 21  1  0
 20 22  2  0
 22 23  1  0
 23 24  1  0
 24 25  1  0
 24 26  1  0
 24 27  1  0
 22 28  1  0
 28 29  1  0
 28 30  2  0
 30 31  1  0
 15  5  1  0
 30 17  1  0
M  END
>  <UniqueID>  (41) 
39

>  <SMILES>  (41) 
COc1ccc(/C=C\c2cc(C)noc2=O)cc1

>  <Energy>  (41) 
41.37528187576337

>  <Genealogy>  (41) 
COc1ccc(/C=C\c2cc(C)noc2=O)cc1 (cis-trans isomerization)
COc1ccc(/C=C\c2cc(C)noc2=O)cc1 (3D coordinates assigned)
COc1ccc(/C=C\c2cc(C)noc2=O)cc1 (optimized conformer: 41.37528187576337 kcal/mol)

>  <smiles>  (41) 
COc1ccc(C=Cc2cc(C)noc2=O)cc1

>  <score_type>  (41) 
oracle

>  <origin>  (41) 
adg

>  <m_score__min__energy>  (41) 
-7.9299999999999997

>  <m_primary>  (41) 
energy

$$$$
41:0
     RDKit          3D

 23 23  0  0  0  0  0  0  0  0999 V2000
   -2.0170   24.6180  -28.6120 C   0  0  0  0  0  0  0  0  0  0  0  0
   -2.9660   23.9520  -29.5960 C   0  0  0  0  0  0  0  0  0  0  0  0
   -3.4910   24.9270  -30.4630 O   0  0  0  0  0  0  0  0  0  0  0  0
   -5.1830   24.8250  -30.4350 S   0  0  0  0  0  0  0  0  0  0  0  0
   -5.6760   24.7930  -29.0140 O   0  0  0  0  0  0  0  0  0  0  0  0
   -5.7520   26.0460  -31.1000 O   0  0  0  0  0  0  0  0  0  0  0  0
   -5.7370   23.3980  -31.3110 C   0  0  0  0  0  0  0  0  0  0  0  0
   -4.8130   22.6130  -32.0140 C   0  0  0  0  0  0  0  0  0  0  0  0
   -5.2390   21.4710  -32.6980 C   0  0  0  0  0  0  0  0  0  0  0  0
   -6.5880   21.1040  -32.6790 C   0  0  0  0  0  0  0  0  0  0  0  0
   -7.5150   21.8800  -31.9730 C   0  0  0  0  0  0  0  0  0  0  0  0
   -8.9040   21.5000  -31.9480 C   0  0  0  0  0  0  0  0  0  0  0  0
  -10.0190   21.1940  -31.9280 N   0  0  0  0  0  0  0  0  0  0  0  0
   -7.0890   23.0260  -31.2880 C   0  0  0  0  0  0  0  0  0  0  0  0
   -2.3375   24.3931  -27.5840 H   0  0  0  0  0  0  0  0  0  0  0  0
   -0.9976   24.2362  -28.7701 H   0  0  0  0  0  0  0  0  0  0  0  0
   -2.0295   25.7065  -28.7701 H   0  0  0  0  0  0  0  0  0  0  0  0
   -2.4201   23.1961  -30.1796 H   0  0  0  0  0  0  0  0  0  0  0  0
   -3.7856   23.4648  -29.0475 H   0  0  0  0  0  0  0  0  0  0  0  0
   -3.7502   22.8963  -32.0275 H   0  0  0  0  0  0  0  0  0  0  0  0
   -4.5116   20.8598  -33.2523 H   0  0  0  0  0  0  0  0  0  0  0  0
   -6.9210   20.2053  -33.2189 H   0  0  0  0  0  0  0  0  0  0  0  0
   -7.8165   23.6349  -30.7312 H   0  0  0  0  0  0  0  0  0  0  0  0
  1  2  1  0
  2  3  1  0
  3  4  1  0
  4  5  2  0
  4  6  2  0
  4  7  1  0
  7  8  2  0
  8  9  1  0
  9 10  2  0
 10 11  1  0
 11 12  1  0
 12 13  3  0
 11 14  2  0
 14  7  1  0
  1 15  1  0
  1 16  1  0
  1 17  1  0
  2 18  1  0
  2 19  1  0
  8 20  1  0
  9 21  1  0
 10 22  1  0
 14 23  1  0
M  END
>  <UniqueID>  (42) 
40

>  <SMILES>  (42) 
CCOS(=O)(=O)c1cccc(C#N)c1

>  <Energy>  (42) 
19.309588895174713

>  <Genealogy>  (42) 
CCOS(=O)(=O)c1cccc(C#N)c1 (3D coordinates assigned)
CCOS(=O)(=O)c1cccc(C#N)c1 (optimized conformer: 19.309588895174713 kcal/mol)

>  <smiles>  (42) 
CCOS(=O)(=O)c1cccc(C#N)c1

>  <score_type>  (42) 
oracle

>  <origin>  (42) 
adg

>  <m_score__min__energy>  (42) 
-6.1399999999999997

>  <m_primary>  (42) 
energy

$$$$
42:0
     RDKit          3D

 50 52  0  0  0  0  0  0  0  0999 V2000
   -2.2530   24.5340  -27.0670 C   0  0  0  0  0  0  0  0  0  0  0  0
   -1.6530   23.3670  -27.8460 C   0  0  0  0  0  0  0  0  0  0  0  0
   -1.2910   23.7800  -29.2760 C   0  0  0  0  0  0  0  0  0  0  0  0
   -2.3630   23.3820  -30.2100 N   0  0  0  0  0  0  0  0  0  0  0  0
   -2.2720   22.1850  -30.8830 C   0  0  0  0  0  0  0  0  0  0  0  0
   -1.2830   21.4200  -30.7190 O   0  0  0  0  0  0  0  0  0  0  0  0
   -3.3050   21.8300  -31.7430 C   0  0  0  0  0  0  0  0  0  0  0  0
   -4.3870   22.6360  -31.8740 C   0  0  0  0  0  0  0  0  0  0  0  0
   -5.2910   22.0570  -32.6860 N   0  0  0  0  0  0  0  0  0  0  0  0
   -4.7180   20.8810  -33.0410 C   0  0  0  0  0  0  0  0  0  0  0  0
   -5.4520   19.8400  -33.8380 C   0  0  0  0  0  0  0  0  0  0  0  0
   -6.7400   19.4700  -33.1530 C   0  0  0  0  0  0  0  0  0  0  0  0
   -7.8060   20.3830  -33.0890 C   0  0  0  0  0  0  0  0  0  0  0  0
   -9.0070   20.0210  -32.4710 C   0  0  0  0  0  0  0  0  0  0  0  0
   -9.1540   18.7480  -31.9130 C   0  0  0  0  0  0  0  0  0  0  0  0
   -8.0980   17.8340  -31.9710 C   0  0  0  0  0  0  0  0  0  0  0  0
   -6.8950   18.1920  -32.5880 C   0  0  0  0  0  0  0  0  0  0  0  0
   -3.4850   20.7140  -32.4850 N   0  0  0  0  0  0  0  0  0  0  0  0
   -2.6190   19.5360  -32.5450 C   0  0  0  0  0  0  0  0  0  0  0  0
   -4.5180   23.8080  -31.1920 N   0  0  0  0  0  0  0  0  0  0  0  0
   -5.7420   24.6220  -31.3170 C   0  0  0  0  0  0  0  0  0  0  0  0
   -6.7240   24.3440  -30.1700 C   0  0  0  0  0  0  0  0  0  0  0  0
   -7.2260   22.9020  -30.1680 C   0  0  0  0  0  0  0  0  0  0  0  0
   -3.4870   24.1800  -30.3520 C   0  0  0  0  0  0  0  0  0  0  0  0
   -3.5740   25.2570  -29.6960 O   0  0  0  0  0  0  0  0  0  0  0  0
   -2.1551   24.3436  -25.9880 H   0  0  0  0  0  0  0  0  0  0  0  0
   -1.7194   25.4605  -27.3257 H   0  0  0  0  0  0  0  0  0  0  0  0
   -3.3170   24.6391  -27.3257 H   0  0  0  0  0  0  0  0  0  0  0  0
   -0.7438   23.0224  -27.3315 H   0  0  0  0  0  0  0  0  0  0  0  0
   -2.4008   22.5618  -27.8959 H   0  0  0  0  0  0  0  0  0  0  0  0
   -1.1607   24.8715  -29.3167 H   0  0  0  0  0  0  0  0  0  0  0  0
   -0.3567   23.2784  -29.5682 H   0  0  0  0  0  0  0  0  0  0  0  0
   -6.2420   22.3970  -32.9490 H   0  0  0  0  0  0  0  0  0  0  0  0
   -5.6747   20.2392  -34.8385 H   0  0  0  0  0  0  0  0  0  0  0  0
   -4.8209   18.9430  -33.9222 H   0  0  0  0  0  0  0  0  0  0  0  0
   -7.6954   21.3861  -33.5266 H   0  0  0  0  0  0  0  0  0  0  0  0
   -9.8382   20.7400  -32.4239 H   0  0  0  0  0  0  0  0  0  0  0  0
  -10.1003   18.4655  -31.4284 H   0  0  0  0  0  0  0  0  0  0  0  0
   -8.2132   16.8324  -31.5310 H   0  0  0  0  0  0  0  0  0  0  0  0
   -6.0661   17.4702  -32.6314 H   0  0  0  0  0  0  0  0  0  0  0  0
   -2.3768   19.2066  -31.5238 H   0  0  0  0  0  0  0  0  0  0  0  0
   -3.1382   18.7260  -33.0781 H   0  0  0  0  0  0  0  0  0  0  0  0
   -1.6910   19.7899  -33.0781 H   0  0  0  0  0  0  0  0  0  0  0  0
   -5.4661   25.6867  -31.3008 H   0  0  0  0  0  0  0  0  0  0  0  0
   -6.2354   24.3589  -32.2643 H   0  0  0  0  0  0  0  0  0  0  0  0
   -6.2161   24.5422  -29.2146 H   0  0  0  0  0  0  0  0  0  0  0  0
   -7.5950   25.0014  -30.3084 H   0  0  0  0  0  0  0  0  0  0  0  0
   -7.3461   22.5570  -29.1304 H   0  0  0  0  0  0  0  0  0  0  0  0
   -8.1950   22.8504  -30.6861 H   0  0  0  0  0  0  0  0  0  0  0  0
   -6.4986   22.2598  -30.6861 H   0  0  0  0  0  0  0  0  0  0  0  0
  1  2  1  0
  2  3  1  0
  3  4  1  0
  4  5  1  0
  5  6  2  0
  5  7  1  0
  7  8  2  0
  8  9  1  0
  9 10  2  0
 10 11  1  0
 11 12  1  0
 12 13  2  0
 13 14  1  0
 14 15  2  0
 15 16  1  0
 16 17  2  0
 10 18  1  0
 18 19  1  0
  8 20  1  0
 20 21  1  0
 21 22  1  0
 22 23  1  0
 20 24  1  0
 24 25  2  0
 24  4  1  0
 18  7  1  0
 17 12  1  0
  1 26  1  0
  1 27  1  0
  1 28  1  0
  2 29  1  0
  2 30  1  0
  3 31  1  0
  3 32  1  0
  9 33  1  0
 11 34  1  0
 11 35  1  0
 13 36  1  0
 14 37  1  0
 15 38  1  0
 16 39  1  0
 17 40  1  0
 19 41  1  0
 19 42  1  0
 19 43  1  0
 21 44  1  0
 21 45  1  0
 22 46  1  0
 22 47  1  0
 23 48  1  0
 23 49  1  0
 23 50  1  0
M  CHG  1   9   1
M  END
>  <UniqueID>  (43) 
41

>  <SMILES>  (43) 
CCCn1c(=O)c2c([nH+]c(Cc3ccccc3)n2C)n(CCC)c1=O

>  <Energy>  (43) 
87.2473431359902

>  <Genealogy>  (43) 
CCCn1c(=O)c2c([nH+]c(Cc3ccccc3)n2C)n(CCC)c1=O (protonated)
CCCn1c(=O)c2c([nH+]c(Cc3ccccc3)n2C)n(CCC)c1=O (3D coordinates assigned)
CCCn1c(=O)c2c([nH+]c(Cc3ccccc3)n2C)n(CCC)c1=O (optimized conformer: 87.2473431359902 kcal/mol)

>  <smiles>  (43) 
CCCn1c(=O)c2c(nc(Cc3ccccc3)n2C)n(CCC)c1=O

>  <score_type>  (43) 
oracle

>  <origin>  (43) 
adg

>  <m_score__min__energy>  (43) 
-7.29

>  <m_primary>  (43) 
energy

$$$$
43:0
     RDKit          3D

 52 54  0  0  0  0  0  0  0  0999 V2000
   -4.6400   15.5750  -32.6480 C   0  0  0  0  0  0  0  0  0  0  0  0
   -3.8010   15.6210  -33.9150 C   0  0  0  0  0  0  0  0  0  0  0  0
   -3.2920   16.9390  -34.1000 O   0  0  0  0  0  0  0  0  0  0  0  0
   -3.9500   18.1080  -33.6900 C   0  0  0  0  0  0  0  0  0  0  0  0
   -5.1950   18.4990  -34.2150 C   0  0  0  0  0  0  0  0  0  0  0  0
   -5.8120   19.6720  -33.7720 C   0  0  0  0  0  0  0  0  0  0  0  0
   -5.1980   20.4770  -32.7960 C   0  0  0  0  0  0  0  0  0  0  0  0
   -5.8580   21.7150  -32.3170 C   0  0  0  0  0  0  0  0  0  0  0  0
   -7.2530   21.8450  -32.3680 C   0  0  0  0  0  0  0  0  0  0  0  0
   -7.8640   23.0060  -31.8800 C   0  0  0  0  0  0  0  0  0  0  0  0
   -9.3530   23.1660  -31.9720 C   0  0  0  0  0  0  0  0  0  0  0  0
   -7.0970   24.0190  -31.3820 N   0  0  0  0  0  0  0  0  0  0  0  0
   -5.7380   23.9170  -31.2960 C   0  0  0  0  0  0  0  0  0  0  0  0
   -4.9310   25.0140  -30.7080 C   0  0  0  0  0  0  0  0  0  0  0  0
   -5.4990   26.0850  -30.3650 O   0  0  0  0  0  0  0  0  0  0  0  0
   -3.5240   24.8810  -30.4720 N   0  0  0  0  0  0  0  0  0  0  0  0
   -2.8960   24.0830  -29.4570 C   0  0  0  0  0  0  0  0  0  0  0  0
   -2.9810   24.5170  -28.1280 C   0  0  0  0  0  0  0  0  0  0  0  0
   -2.3900   23.7800  -27.1020 C   0  0  0  0  0  0  0  0  0  0  0  0
   -1.6900   22.6110  -27.3960 C   0  0  0  0  0  0  0  0  0  0  0  0
   -1.5690   22.1810  -28.7190 C   0  0  0  0  0  0  0  0  0  0  0  0
   -2.1620   22.9150  -29.7690 C   0  0  0  0  0  0  0  0  0  0  0  0
   -2.0150   22.5390  -31.1150 O   0  0  0  0  0  0  0  0  0  0  0  0
   -1.1210   21.5410  -31.6120 C   0  0  0  0  0  0  0  0  0  0  0  0
   -1.1550   21.4870  -33.1350 C   0  0  0  0  0  0  0  0  0  0  0  0
   -5.1000   22.7640  -31.7790 C   0  0  0  0  0  0  0  0  0  0  0  0
   -3.9540   20.0810  -32.2720 C   0  0  0  0  0  0  0  0  0  0  0  0
   -3.3380   18.9100  -32.7190 C   0  0  0  0  0  0  0  0  0  0  0  0
   -3.9793   15.6112  -31.7692 H   0  0  0  0  0  0  0  0  0  0  0  0
   -5.3230   16.4370  -32.6290 H   0  0  0  0  0  0  0  0  0  0  0  0
   -5.2247   14.6434  -32.6290 H   0  0  0  0  0  0  0  0  0  0  0  0
   -2.9634   14.9136  -33.8260 H   0  0  0  0  0  0  0  0  0  0  0  0
   -4.4245   15.3442  -34.7779 H   0  0  0  0  0  0  0  0  0  0  0  0
   -5.6858   17.8778  -34.9787 H   0  0  0  0  0  0  0  0  0  0  0  0
   -6.7855   19.9679  -34.1900 H   0  0  0  0  0  0  0  0  0  0  0  0
   -7.8665   21.0358  -32.7909 H   0  0  0  0  0  0  0  0  0  0  0  0
   -9.7801   23.2119  -30.9593 H   0  0  0  0  0  0  0  0  0  0  0  0
   -9.5893   24.0947  -32.5121 H   0  0  0  0  0  0  0  0  0  0  0  0
   -9.7812   22.3087  -32.5121 H   0  0  0  0  0  0  0  0  0  0  0  0
   -7.5700   24.8990  -31.0780 H   0  0  0  0  0  0  0  0  0  0  0  0
   -3.5185   25.4471  -27.8915 H   0  0  0  0  0  0  0  0  0  0  0  0
   -2.4763   24.1215  -26.0599 H   0  0  0  0  0  0  0  0  0  0  0  0
   -1.2322   22.0263  -26.5845 H   0  0  0  0  0  0  0  0  0  0  0  0
   -1.0070   21.2628  -28.9449 H   0  0  0  0  0  0  0  0  0  0  0  0
   -0.0984   21.7781  -31.2832 H   0  0  0  0  0  0  0  0  0  0  0  0
   -1.4348   20.5625  -31.2195 H   0  0  0  0  0  0  0  0  0  0  0  0
   -1.7153   20.5972  -33.4579 H   0  0  0  0  0  0  0  0  0  0  0  0
   -1.6472   22.3910  -33.5231 H   0  0  0  0  0  0  0  0  0  0  0  0
   -0.1271   21.4339  -33.5231 H   0  0  0  0  0  0  0  0  0  0  0  0
   -4.0038   22.6835  -31.7353 H   0  0  0  0  0  0  0  0  0  0  0  0
   -3.4631   20.6979  -31.5049 H   0  0  0  0  0  0  0  0  0  0  0  0
   -2.3628   18.6149  -32.3043 H   0  0  0  0  0  0  0  0  0  0  0  0
  1  2  1  0
  2  3  1  0
  3  4  1  0
  4  5  2  0
  5  6  1  0
  6  7  2  0
  7  8  1  0
  8  9  2  0
  9 10  1  0
 10 11  1  0
 10 12  2  0
 12 13  1  0
 13 14  1  0
 14 15  2  0
 14 16  1  0
 16 17  1  0
 17 18  2  0
 18 19  1  0
 19 20  2  0
 20 21  1  0
 21 22  2  0
 22 23  1  0
 23 24  1  0
 24 25  1  0
 13 26  2  0
  7 27  1  0
 27 28  2  0
 28  4  1  0
 26  8  1  0
 22 17  1  0
  1 29  1  0
  1 30  1  0
  1 31  1  0
  2 32  1  0
  2 33  1  0
  5 34  1  0
  6 35  1  0
  9 36  1  0
 11 37  1  0
 11 38  1  0
 11 39  1  0
 12 40  1  0
 18 41  1  0
 19 42  1  0
 20 43  1  0
 21 44  1  0
 24 45  1  0
 24 46  1  0
 25 47  1  0
 25 48  1  0
 25 49  1  0
 26 50  1  0
 27 51  1  0
 28 52  1  0
M  CHG  2  12   1  16  -1
M  END
>  <UniqueID>  (44) 
42

>  <SMILES>  (44) 
CCOc1ccc(-c2cc(C)[nH+]c(C(=O)[N-]c3ccccc3OCC)c2)cc1

>  <Energy>  (44) 
58.572268846354035

>  <Genealogy>  (44) 
CCOc1ccc(-c2cc(C)[nH+]c(C(=O)[N-]c3ccccc3OCC)c2)cc1 (protonated)
CCOc1ccc(-c2cc(C)[nH+]c(C(=O)[N-]c3ccccc3OCC)c2)cc1 (3D coordinates assigned)
CCOc1ccc(-c2cc(C)[nH+]c(C(=O)[N-]c3ccccc3OCC)c2)cc1 (optimized conformer: 58.572268846354035 kcal/mol)

>  <smiles>  (44) 
CCOc1ccc(-c2cc(C)nc(C(=O)Nc3ccccc3OCC)c2)cc1

>  <score_type>  (44) 
oracle

>  <origin>  (44) 
adg

>  <m_score__min__energy>  (44) 
-9.8800000000000008

>  <m_primary>  (44) 
energy

$$$$
44:0
     RDKit          3D

 57 60  0  0  0  0  0  0  0  0999 V2000
   -4.6020   24.9100  -26.1140 C   0  0  0  0  0  0  0  0  0  0  0  0
   -3.1450   24.9140  -26.4970 C   0  0  0  0  0  0  0  0  0  0  0  0
   -2.2170   25.5330  -25.6470 C   0  0  0  0  0  0  0  0  0  0  0  0
   -0.8580   25.5620  -25.9950 C   0  0  0  0  0  0  0  0  0  0  0  0
    0.1300   26.1750  -25.1410 N   0  0  0  0  0  0  0  0  0  0  0  0
    1.1080   27.0150  -25.5380 C   0  0  0  0  0  0  0  0  0  0  0  0
    1.8420   27.3850  -24.4320 C   0  0  0  0  0  0  0  0  0  0  0  0
    1.3210   26.7800  -23.3510 N   0  0  0  0  0  0  0  0  0  0  0  0
    0.2830   26.0510  -23.8030 C   0  0  0  0  0  0  0  0  0  0  0  0
   -0.4630   24.9940  -27.1670 N   0  0  0  0  0  0  0  0  0  0  0  0
   -1.3330   24.4060  -28.0300 C   0  0  0  0  0  0  0  0  0  0  0  0
   -0.7970   23.7940  -29.2900 C   0  0  0  0  0  0  0  0  0  0  0  0
   -2.7040   24.3580  -27.7150 C   0  0  0  0  0  0  0  0  0  0  0  0
   -3.6340   23.7440  -28.6230 N   0  0  0  0  0  0  0  0  0  0  0  0
   -4.4190   24.5910  -29.5290 C   0  0  0  0  0  0  0  0  0  0  0  0
   -5.4460   23.7700  -30.3150 C   0  0  0  0  0  0  0  0  0  0  0  0
   -4.8220   22.5560  -30.8700 N   0  0  0  0  0  0  0  0  0  0  0  0
   -5.2340   22.0680  -32.1660 C   0  0  0  0  0  0  0  0  0  0  0  0
   -6.2910   22.5140  -32.6920 O   0  0  0  0  0  0  0  0  0  0  0  0
   -4.4560   20.9830  -32.8730 C   0  0  0  0  0  0  0  0  0  0  0  0
   -5.3330   20.1410  -33.8080 C   0  0  0  0  0  0  0  0  0  0  0  0
   -6.4730   19.5190  -33.0460 C   0  0  0  0  0  0  0  0  0  0  0  0
   -6.2590   18.3760  -32.2580 C   0  0  0  0  0  0  0  0  0  0  0  0
   -7.3130   17.8200  -31.5250 C   0  0  0  0  0  0  0  0  0  0  0  0
   -8.5800   18.4060  -31.5650 C   0  0  0  0  0  0  0  0  0  0  0  0
   -8.7980   19.5520  -32.3340 C   0  0  0  0  0  0  0  0  0  0  0  0
   -7.7470   20.1120  -33.0690 C   0  0  0  0  0  0  0  0  0  0  0  0
   -3.8980   21.7610  -30.0420 C   0  0  0  0  0  0  0  0  0  0  0  0
   -3.8170   22.2910  -28.6070 C   0  0  0  0  0  0  0  0  0  0  0  0
   -4.6930   24.9098  -25.0178 H   0  0  0  0  0  0  0  0  0  0  0  0
   -5.0909   25.8068  -26.5223 H   0  0  0  0  0  0  0  0  0  0  0  0
   -5.0860   24.0105  -26.5223 H   0  0  0  0  0  0  0  0  0  0  0  0
   -2.5544   25.9956  -24.7078 H   0  0  0  0  0  0  0  0  0  0  0  0
    1.2891   27.3484  -26.5705 H   0  0  0  0  0  0  0  0  0  0  0  0
    2.7090   28.0620  -24.4337 H   0  0  0  0  0  0  0  0  0  0  0  0
    1.6520   26.8600  -22.3640 H   0  0  0  0  0  0  0  0  0  0  0  0
   -0.3614   25.4308  -23.1626 H   0  0  0  0  0  0  0  0  0  0  0  0
   -0.0919   22.9890  -29.0355 H   0  0  0  0  0  0  0  0  0  0  0  0
   -1.6286   23.3804  -29.8793 H   0  0  0  0  0  0  0  0  0  0  0  0
   -0.2773   24.5638  -29.8793 H   0  0  0  0  0  0  0  0  0  0  0  0
   -4.9475   25.3533  -28.9377 H   0  0  0  0  0  0  0  0  0  0  0  0
   -3.7301   25.0607  -30.2465 H   0  0  0  0  0  0  0  0  0  0  0  0
   -6.2676   23.4799  -29.6436 H   0  0  0  0  0  0  0  0  0  0  0  0
   -5.8311   24.3822  -31.1438 H   0  0  0  0  0  0  0  0  0  0  0  0
   -3.6576   21.4521  -33.4667 H   0  0  0  0  0  0  0  0  0  0  0  0
   -4.0485   20.3105  -32.1037 H   0  0  0  0  0  0  0  0  0  0  0  0
   -5.7378   20.7856  -34.6022 H   0  0  0  0  0  0  0  0  0  0  0  0
   -4.7189   19.3398  -34.2450 H   0  0  0  0  0  0  0  0  0  0  0  0
   -5.2602   17.9169  -32.2171 H   0  0  0  0  0  0  0  0  0  0  0  0
   -7.1434   16.9197  -30.9161 H   0  0  0  0  0  0  0  0  0  0  0  0
   -9.4076   17.9647  -30.9902 H   0  0  0  0  0  0  0  0  0  0  0  0
   -9.7958   20.0141  -32.3617 H   0  0  0  0  0  0  0  0  0  0  0  0
   -7.9186   21.0193  -33.6667 H   0  0  0  0  0  0  0  0  0  0  0  0
   -4.2498   20.7191  -30.0170 H   0  0  0  0  0  0  0  0  0  0  0  0
   -2.8949   21.8303  -30.4881 H   0  0  0  0  0  0  0  0  0  0  0  0
   -4.7479   22.0463  -28.0745 H   0  0  0  0  0  0  0  0  0  0  0  0
   -2.9627   21.8235  -28.0955 H   0  0  0  0  0  0  0  0  0  0  0  0
  1  2  1  0
  2  3  2  0
  3  4  1  0
  4  5  1  0
  5  6  1  0
  6  7  2  0
  7  8  1  0
  8  9  2  0
  4 10  2  0
 10 11  1  0
 11 12  1  0
 11 13  2  0
 13 14  1  0
 14 15  1  0
 15 16  1  0
 16 17  1  0
 17 18  1  0
 18 19  2  0
 18 20  1  0
 20 21  1  0
 21 22  1  0
 22 23  2  0
 23 24  1  0
 24 25  2  0
 25 26  1  0
 26 27  2  0
 17 28  1  0
 28 29  1  0
 13  2  1  0
 29 14  1  0
  9  5  1  0
 27 22  1  0
  1 30  1  0
  1 31  1  0
  1 32  1  0
  3 33  1  0
  6 34  1  0
  7 35  1  0
  8 36  1  0
  9 37  1  0
 12 38  1  0
 12 39  1  0
 12 40  1  0
 15 41  1  0
 15 42  1  0
 16 43  1  0
 16 44  1  0
 20 45  1  0
 20 46  1  0
 21 47  1  0
 21 48  1  0
 23 49  1  0
 24 50  1  0
 25 51  1  0
 26 52  1  0
 27 53  1  0
 28 54  1  0
 28 55  1  0
 29 56  1  0
 29 57  1  0
M  CHG  1   8   1
M  END
>  <UniqueID>  (45) 
43

>  <SMILES>  (45) 
Cc1cc(-n2cc[nH+]c2)nc(C)c1N1CCN(C(=O)CCc2ccccc2)CC1

>  <Energy>  (45) 
94.75152894342517

>  <Genealogy>  (45) 
Cc1cc(-n2cc[nH+]c2)nc(C)c1N1CCN(C(=O)CCc2ccccc2)CC1 (protonated)
Cc1cc(-n2cc[nH+]c2)nc(C)c1N1CCN(C(=O)CCc2ccccc2)CC1 (3D coordinates assigned)
Cc1cc(-n2cc[nH+]c2)nc(C)c1N1CCN(C(=O)CCc2ccccc2)CC1 (nonaromatic ring conformer: 94.75152894342517 kcal/mol)

>  <smiles>  (45) 
Cc1cc(-n2ccnc2)nc(C)c1N1CCN(C(=O)CCc2ccccc2)CC1

>  <score_type>  (45) 
oracle

>  <origin>  (45) 
adg

>  <m_score__min__energy>  (45) 
-8.9100000000000001

>  <m_primary>  (45) 
energy

$$$$
