0:0
     RDKit          3D

 56 58  0  0  0  0  0  0  0  0999 V2000
   -3.9410   22.9770  -28.9660 C   0  0  0  0  0  0  0  0  0  0  0  0
   -3.6500   24.2630  -29.7430 C   0  0  0  0  0  0  0  0  0  0  0  0
   -4.6010   24.5180  -30.8490 N   0  0  0  0  0  0  0  0  0  0  0  0
   -5.5320   25.6530  -30.6190 C   0  0  0  0  0  0  0  0  0  0  0  0
   -6.3990   25.5390  -29.3550 C   0  0  0  0  0  0  0  0  0  0  0  0
   -5.1740   23.2910  -31.4450 C   0  0  0  0  0  0  0  0  0  0  0  0
   -6.5320   23.5850  -32.0940 C   0  0  0  0  0  0  0  0  0  0  0  0
   -7.4360   22.3940  -31.9850 C   0  0  0  0  0  0  0  0  0  0  0  0
   -8.6570   22.3400  -31.3200 C   0  0  0  0  0  0  0  0  0  0  0  0
   -9.1590   21.0840  -31.3600 N   0  0  0  0  0  0  0  0  0  0  0  0
   -8.2600   20.3460  -32.0320 C   0  0  0  0  0  0  0  0  0  0  0  0
   -8.3260   18.9830  -32.3120 C   0  0  0  0  0  0  0  0  0  0  0  0
   -7.2570   18.4000  -33.0150 C   0  0  0  0  0  0  0  0  0  0  0  0
   -6.1380   19.1840  -33.4170 C   0  0  0  0  0  0  0  0  0  0  0  0
   -5.0460   18.6450  -34.1160 O   0  0  0  0  0  0  0  0  0  0  0  0
   -4.0640   17.7630  -33.5720 C   0  0  0  0  0  0  0  0  0  0  0  0
   -2.8180   18.5510  -33.1260 C   0  0  0  0  0  0  0  0  0  0  0  0
   -2.8980   19.9820  -33.5120 N   0  0  0  0  0  0  0  0  0  0  0  0
   -1.6680   20.4260  -34.1870 C   0  0  0  0  0  0  0  0  0  0  0  0
   -0.7280   20.9460  -33.1140 C   0  0  0  0  0  0  0  0  0  0  0  0
   -1.6330   21.3740  -31.9750 C   0  0  0  0  0  0  0  0  0  0  0  0
   -3.0260   20.8690  -32.3390 C   0  0  0  0  0  0  0  0  0  0  0  0
   -6.1120   20.5610  -33.1160 C   0  0  0  0  0  0  0  0  0  0  0  0
   -7.1920   21.1080  -32.4240 C   0  0  0  0  0  0  0  0  0  0  0  0
   -3.8945   23.1824  -27.8864 H   0  0  0  0  0  0  0  0  0  0  0  0
   -4.9448   22.6103  -29.2266 H   0  0  0  0  0  0  0  0  0  0  0  0
   -3.1928   22.2139  -29.2266 H   0  0  0  0  0  0  0  0  0  0  0  0
   -3.6965   25.1100  -29.0427 H   0  0  0  0  0  0  0  0  0  0  0  0
   -2.6541   24.1470  -30.1955 H   0  0  0  0  0  0  0  0  0  0  0  0
   -4.9346   26.5733  -30.5406 H   0  0  0  0  0  0  0  0  0  0  0  0
   -6.2293   25.6546  -31.4697 H   0  0  0  0  0  0  0  0  0  0  0  0
   -5.7602   25.6230  -28.4634 H   0  0  0  0  0  0  0  0  0  0  0  0
   -7.1457   26.3467  -29.3485 H   0  0  0  0  0  0  0  0  0  0  0  0
   -6.9115   24.5657  -29.3485 H   0  0  0  0  0  0  0  0  0  0  0  0
   -4.4842   22.9055  -32.2103 H   0  0  0  0  0  0  0  0  0  0  0  0
   -5.3172   22.5455  -30.6489 H   0  0  0  0  0  0  0  0  0  0  0  0
   -6.9986   24.4412  -31.5848 H   0  0  0  0  0  0  0  0  0  0  0  0
   -6.3748   23.8156  -33.1580 H   0  0  0  0  0  0  0  0  0  0  0  0
   -9.1448   23.1963  -30.8313 H   0  0  0  0  0  0  0  0  0  0  0  0
  -10.0570   20.7560  -30.9380 H   0  0  0  0  0  0  0  0  0  0  0  0
   -9.1891   18.3805  -31.9925 H   0  0  0  0  0  0  0  0  0  0  0  0
   -7.2852   17.3273  -33.2570 H   0  0  0  0  0  0  0  0  0  0  0  0
   -4.4900   17.2382  -32.7042 H   0  0  0  0  0  0  0  0  0  0  0  0
   -3.7686   17.0392  -34.3459 H   0  0  0  0  0  0  0  0  0  0  0  0
   -2.7274   18.4828  -32.0319 H   0  0  0  0  0  0  0  0  0  0  0  0
   -1.9416   18.1126  -33.6257 H   0  0  0  0  0  0  0  0  0  0  0  0
   -3.7080   20.1260  -34.1610 H   0  0  0  0  0  0  0  0  0  0  0  0
   -1.2037   19.5816  -34.7175 H   0  0  0  0  0  0  0  0  0  0  0  0
   -1.8898   21.2111  -34.9248 H   0  0  0  0  0  0  0  0  0  0  0  0
   -0.0404   20.1530  -32.7847 H   0  0  0  0  0  0  0  0  0  0  0  0
   -0.1019   21.7738  -33.4783 H   0  0  0  0  0  0  0  0  0  0  0  0
   -1.2974   20.9238  -31.0291 H   0  0  0  0  0  0  0  0  0  0  0  0
   -1.6212   22.4652  -31.8365 H   0  0  0  0  0  0  0  0  0  0  0  0
   -3.4532   20.3101  -31.4933 H   0  0  0  0  0  0  0  0  0  0  0  0
   -3.6905   21.7146  -32.5702 H   0  0  0  0  0  0  0  0  0  0  0  0
   -5.2609   21.1883  -33.4195 H   0  0  0  0  0  0  0  0  0  0  0  0
  1  2  1  0
  2  3  1  0
  3  4  1  0
  4  5  1  0
  3  6  1  0
  6  7  1  0
  7  8  1  0
  8  9  2  0
  9 10  1  0
 10 11  1  0
 11 12  2  0
 12 13  1  0
 13 14  2  0
 14 15  1  0
 15 16  1  0
 16 17  1  0
 17 18  1  0
 18 19  1  0
 19 20  1  0
 20 21  1  0
 21 22  1  0
 14 23  1  0
 23 24  2  0
 24  8  1  0
 24 11  1  0
 22 18  1  0
  1 25  1  0
  1 26  1  0
  1 27  1  0
  2 28  1  0
  2 29  1  0
  4 30  1  0
  4 31  1  0
  5 32  1  0
  5 33  1  0
  5 34  1  0
  6 35  1  0
  6 36  1  0
  7 37  1  0
  7 38  1  0
  9 39  1  0
 10 40  1  0
 12 41  1  0
 13 42  1  0
 16 43  1  0
 16 44  1  0
 17 45  1  0
 17 46  1  0
 18 47  1  0
 19 48  1  0
 19 49  1  0
 20 50  1  0
 20 51  1  0
 21 52  1  0
 21 53  1  0
 22 54  1  0
 22 55  1  0
 23 56  1  0
M  CHG  1  18   1
M  END
>  <UniqueID>  (1) 
1

>  <SMILES>  (1) 
CCN(CC)CCc1c[nH]c2ccc(OCC[NH+]3CCCC3)cc12

>  <Energy>  (1) 
95.57824618244705

>  <Genealogy>  (1) 
CCN(CC)CCc1c[nH]c2ccc(OCC[NH+]3CCCC3)cc12 (protonated)
CCN(CC)CCc1c[nH]c2ccc(OCC[NH+]3CCCC3)cc12 (3D coordinates assigned)
CCN(CC)CCc1c[nH]c2ccc(OCC[NH+]3CCCC3)cc12 (nonaromatic ring conformer: 95.57824618244705 kcal/mol)

>  <smiles>  (1) 
CCN(CC)CCc1c[nH]c2ccc(OCCN3CCCC3)cc12

>  <score_type>  (1) 
oracle

>  <origin>  (1) 
adg

>  <m_score__min__energy>  (1) 
-7.0899999999999999

>  <m_primary>  (1) 
energy

$$$$
1:0
     RDKit          3D

 57 61  0  0  0  0  0  0  0  0999 V2000
    0.9290   24.9960  -26.4360 C   0  0  0  0  0  0  0  0  0  0  0  0
    0.9580   24.6610  -27.8200 O   0  0  0  0  0  0  0  0  0  0  0  0
   -0.1360   24.1470  -28.5330 C   0  0  0  0  0  0  0  0  0  0  0  0
   -1.2830   24.9380  -28.6520 C   0  0  0  0  0  0  0  0  0  0  0  0
   -2.3980   24.4720  -29.3540 C   0  0  0  0  0  0  0  0  0  0  0  0
   -2.3870   23.1970  -29.9410 C   0  0  0  0  0  0  0  0  0  0  0  0
   -3.5720   22.7100  -30.6850 C   0  0  0  0  0  0  0  0  0  0  0  0
   -4.8840   23.0340  -30.4010 C   0  0  0  0  0  0  0  0  0  0  0  0
   -5.6680   22.3720  -31.3260 C   0  0  0  0  0  0  0  0  0  0  0  0
   -7.1490   22.4030  -31.3140 C   0  0  0  0  0  0  0  0  0  0  0  0
   -7.8930   23.2090  -32.1920 C   0  0  0  0  0  0  0  0  0  0  0  0
   -9.2660   23.0650  -32.0580 C   0  0  0  0  0  0  0  0  0  0  0  0
   -9.5540   21.9220  -30.8640 S   0  0  0  0  0  0  0  0  0  0  0  0
   -7.9450   21.6040  -30.4990 C   0  0  0  0  0  0  0  0  0  0  0  0
   -4.8870   21.6390  -32.1620 N   0  0  0  0  0  0  0  0  0  0  0  0
   -5.3410   20.6820  -33.1820 C   0  0  0  0  0  0  0  0  0  0  0  0
   -6.4290   19.7580  -32.6880 C   0  0  0  0  0  0  0  0  0  0  0  0
   -6.1710   18.6380  -31.8710 C   0  0  0  0  0  0  0  0  0  0  0  0
   -7.2300   17.8210  -31.4720 C   0  0  0  0  0  0  0  0  0  0  0  0
   -8.5290   18.1130  -31.8870 C   0  0  0  0  0  0  0  0  0  0  0  0
   -8.7520   19.2260  -32.6990 C   0  0  0  0  0  0  0  0  0  0  0  0
   -7.7100   20.0110  -33.0790 N   0  0  0  0  0  0  0  0  0  0  0  0
   -3.6030   21.8430  -31.7720 C   0  0  0  0  0  0  0  0  0  0  0  0
   -2.4380   21.0950  -32.2960 C   0  0  0  0  0  0  0  0  0  0  0  0
   -1.8100   21.5160  -33.4770 C   0  0  0  0  0  0  0  0  0  0  0  0
   -0.7250   20.8020  -33.9960 C   0  0  0  0  0  0  0  0  0  0  0  0
   -0.2520   19.6530  -33.3340 C   0  0  0  0  0  0  0  0  0  0  0  0
    0.8290   18.8990  -33.8140 O   0  0  0  0  0  0  0  0  0  0  0  0
    1.9890   18.5830  -33.0510 C   0  0  0  0  0  0  0  0  0  0  0  0
   -0.8820   19.2380  -32.1550 C   0  0  0  0  0  0  0  0  0  0  0  0
   -1.9700   19.9470  -31.6400 C   0  0  0  0  0  0  0  0  0  0  0  0
   -1.2300   22.4070  -29.8350 C   0  0  0  0  0  0  0  0  0  0  0  0
   -0.1150   22.8730  -29.1330 C   0  0  0  0  0  0  0  0  0  0  0  0
    1.0084   24.0782  -25.8349 H   0  0  0  0  0  0  0  0  0  0  0  0
    1.7729   25.6617  -26.2021 H   0  0  0  0  0  0  0  0  0  0  0  0
   -0.0167   25.5068  -26.2021 H   0  0  0  0  0  0  0  0  0  0  0  0
   -1.3079   25.9356  -28.1891 H   0  0  0  0  0  0  0  0  0  0  0  0
   -3.2902   25.1086  -29.4472 H   0  0  0  0  0  0  0  0  0  0  0  0
   -5.2369   23.6925  -29.5936 H   0  0  0  0  0  0  0  0  0  0  0  0
   -7.4291   23.8917  -32.9191 H   0  0  0  0  0  0  0  0  0  0  0  0
  -10.0319   23.6055  -32.6337 H   0  0  0  0  0  0  0  0  0  0  0  0
   -7.5835   20.8881  -29.7461 H   0  0  0  0  0  0  0  0  0  0  0  0
   -5.7262   21.2463  -34.0441 H   0  0  0  0  0  0  0  0  0  0  0  0
   -4.4773   20.0560  -33.4507 H   0  0  0  0  0  0  0  0  0  0  0  0
   -5.1436   18.4101  -31.5508 H   0  0  0  0  0  0  0  0  0  0  0  0
   -7.0402   16.9476  -30.8308 H   0  0  0  0  0  0  0  0  0  0  0  0
   -9.3686   17.4731  -31.5777 H   0  0  0  0  0  0  0  0  0  0  0  0
   -9.7722   19.4680  -33.0317 H   0  0  0  0  0  0  0  0  0  0  0  0
   -2.1731   22.4138  -33.9987 H   0  0  0  0  0  0  0  0  0  0  0  0
   -0.2399   21.1391  -34.9239 H   0  0  0  0  0  0  0  0  0  0  0  0
    1.7515   18.6477  -31.9789 H   0  0  0  0  0  0  0  0  0  0  0  0
    2.3197   17.5620  -33.2923 H   0  0  0  0  0  0  0  0  0  0  0  0
    2.7919   19.2952  -33.2923 H   0  0  0  0  0  0  0  0  0  0  0  0
   -0.5165   18.3441  -31.6283 H   0  0  0  0  0  0  0  0  0  0  0  0
   -2.4610   19.6040  -30.7174 H   0  0  0  0  0  0  0  0  0  0  0  0
   -1.2015   21.4143  -30.3081 H   0  0  0  0  0  0  0  0  0  0  0  0
    0.7823   22.2424  -29.0488 H   0  0  0  0  0  0  0  0  0  0  0  0
  1  2  1  0
  2  3  1  0
  3  4  2  0
  4  5  1  0
  5  6  2  0
  6  7  1  0
  7  8  1  0
  8  9  2  0
  9 10  1  0
 10 11  1  0
 11 12  2  0
 12 13  1  0
 13 14  1  0
  9 15  1  0
 15 16  1  0
 16 17  1  0
 17 18  2  0
 18 19  1  0
 19 20  2  0
 20 21  1  0
 21 22  2  0
 15 23  1  0
 23 24  1  0
 24 25  2  0
 25 26  1  0
 26 27  2  0
 27 28  1  0
 28 29  1  0
 27 30  1  0
 30 31  2  0
  6 32  1  0
 32 33  2  0
 33  3  1  0
 23  7  2  0
 31 24  1  0
 14 10  2  0
 22 17  1  0
  1 34  1  0
  1 35  1  0
  1 36  1  0
  4 37  1  0
  5 38  1  0
  8 39  1  0
 11 40  1  0
 12 41  1  0
 14 42  1  0
 16 43  1  0
 16 44  1  0
 18 45  1  0
 19 46  1  0
 20 47  1  0
 21 48  1  0
 25 49  1  0
 26 50  1  0
 29 51  1  0
 29 52  1  0
 29 53  1  0
 30 54  1  0
 31 55  1  0
 32 56  1  0
 33 57  1  0
M  END
>  <UniqueID>  (2) 
2

>  <SMILES>  (2) 
COc1ccc(-c2cc(-c3ccsc3)n(Cc3ccccn3)c2-c2ccc(OC)cc2)cc1

>  <Energy>  (2) 
128.7525848282672

>  <Genealogy>  (2) 
COc1ccc(-c2cc(-c3ccsc3)n(Cc3ccccn3)c2-c2ccc(OC)cc2)cc1 (3D coordinates assigned)
COc1ccc(-c2cc(-c3ccsc3)n(Cc3ccccn3)c2-c2ccc(OC)cc2)cc1 (optimized conformer: 128.7525848282672 kcal/mol)

>  <smiles>  (2) 
COc1ccc(-c2cc(-c3ccsc3)n(Cc3ccccn3)c2-c2ccc(OC)cc2)cc1

>  <score_type>  (2) 
oracle

>  <origin>  (2) 
adg

>  <m_score__min__energy>  (2) 
-8.7200000000000006

>  <m_primary>  (2) 
energy

$$$$
2:0
     RDKit          3D

 37 38  0  0  0  0  0  0  0  0999 V2000
   -5.6010   17.9800  -34.9740 C   0  0  0  0  0  0  0  0  0  0  0  0
   -4.7970   17.7170  -33.7040 C   0  0  0  0  0  0  0  0  0  0  0  0
   -5.7200   17.5050  -32.5000 C   0  0  0  0  0  0  0  0  0  0  0  0
   -6.6960   18.6460  -32.3740 C   0  0  0  0  0  0  0  0  0  0  0  0
   -8.0510   18.3870  -32.1250 C   0  0  0  0  0  0  0  0  0  0  0  0
   -8.9530   19.4390  -31.9790 C   0  0  0  0  0  0  0  0  0  0  0  0
   -8.5140   20.7640  -32.0670 C   0  0  0  0  0  0  0  0  0  0  0  0
   -9.4110   21.7730  -31.9230 N   0  0  0  0  0  0  0  0  0  0  0  0
   -9.0430   23.0750  -31.9970 C   0  0  0  0  0  0  0  0  0  0  0  0
   -7.7120   23.4160  -32.2230 C   0  0  0  0  0  0  0  0  0  0  0  0
   -6.7390   22.4120  -32.3780 C   0  0  0  0  0  0  0  0  0  0  0  0
   -5.3630   22.7990  -32.6200 N   0  0  0  0  0  0  0  0  0  0  0  0
   -4.5030   22.5280  -31.4530 C   0  0  0  0  0  0  0  0  0  0  0  0
   -4.1020   23.8150  -30.7150 C   0  0  0  0  0  0  0  0  0  0  0  0
   -4.8790   24.9430  -31.2190 N   0  0  0  0  0  0  0  0  0  0  0  0
   -7.1450   21.0500  -32.3030 C   0  0  0  0  0  0  0  0  0  0  0  0
   -6.2450   19.9730  -32.4490 C   0  0  0  0  0  0  0  0  0  0  0  0
   -6.6146   18.3116  -34.7042 H   0  0  0  0  0  0  0  0  0  0  0  0
   -5.1048   18.7627  -35.5666 H   0  0  0  0  0  0  0  0  0  0  0  0
   -5.6632   17.0554  -35.5666 H   0  0  0  0  0  0  0  0  0  0  0  0
   -4.1823   16.8163  -33.8482 H   0  0  0  0  0  0  0  0  0  0  0  0
   -4.1607   18.5922  -33.5062 H   0  0  0  0  0  0  0  0  0  0  0  0
   -6.2768   16.5656  -32.6321 H   0  0  0  0  0  0  0  0  0  0  0  0
   -5.1080   17.4588  -31.5872 H   0  0  0  0  0  0  0  0  0  0  0  0
   -8.4039   17.3483  -32.0445 H   0  0  0  0  0  0  0  0  0  0  0  0
  -10.0162   19.2262  -31.7935 H   0  0  0  0  0  0  0  0  0  0  0  0
   -9.7986   23.8656  -31.8781 H   0  0  0  0  0  0  0  0  0  0  0  0
   -7.4202   24.4750  -32.2806 H   0  0  0  0  0  0  0  0  0  0  0  0
   -5.3160   23.8130  -32.8650 H   0  0  0  0  0  0  0  0  0  0  0  0
   -4.9830   22.2940  -33.4550 H   0  0  0  0  0  0  0  0  0  0  0  0
   -5.0481   21.8750  -30.7555 H   0  0  0  0  0  0  0  0  0  0  0  0
   -3.5830   22.0469  -31.8164 H   0  0  0  0  0  0  0  0  0  0  0  0
   -4.2939   23.6925  -29.6388 H   0  0  0  0  0  0  0  0  0  0  0  0
   -3.0326   24.0094  -30.8839 H   0  0  0  0  0  0  0  0  0  0  0  0
   -5.3700   25.3790  -30.4050 H   0  0  0  0  0  0  0  0  0  0  0  0
   -4.2140   25.6630  -31.5820 H   0  0  0  0  0  0  0  0  0  0  0  0
   -5.1780   20.1757  -32.6235 H   0  0  0  0  0  0  0  0  0  0  0  0
  1  2  1  0
  2  3  1  0
  3  4  1  0
  4  5  2  0
  5  6  1  0
  6  7  2  0
  7  8  1  0
  8  9  2  0
  9 10  1  0
 10 11  2  0
 11 12  1  0
 12 13  1  0
 13 14  1  0
 14 15  1  0
 11 16  1  0
 16 17  2  0
 17  4  1  0
 16  7  1  0
  1 18  1  0
  1 19  1  0
  1 20  1  0
  2 21  1  0
  2 22  1  0
  3 23  1  0
  3 24  1  0
  5 25  1  0
  6 26  1  0
  9 27  1  0
 10 28  1  0
 12 29  1  0
 12 30  1  0
 13 31  1  0
 13 32  1  0
 14 33  1  0
 14 34  1  0
 15 35  1  0
 15 36  1  0
 17 37  1  0
M  CHG  1  12   1
M  END
>  <UniqueID>  (3) 
3

>  <SMILES>  (3) 
CCCc1ccc2nccc([NH2+]CCN)c2c1

>  <Energy>  (3) 
35.1250594426856

>  <Genealogy>  (3) 
CCCc1ccc2nccc([NH2+]CCN)c2c1 (protonated)
CCCc1ccc2nccc([NH2+]CCN)c2c1 (3D coordinates assigned)
CCCc1ccc2nccc([NH2+]CCN)c2c1 (optimized conformer: 35.1250594426856 kcal/mol)

>  <smiles>  (3) 
CCCc1ccc2nccc(NCCN)c2c1

>  <score_type>  (3) 
oracle

>  <origin>  (3) 
adg

>  <m_score__min__energy>  (3) 
-7.6100000000000003

>  <m_primary>  (3) 
energy

$$$$
3:0
     RDKit          3D

 43 45  0  0  1  0  0  0  0  0999 V2000
   -3.8020   24.5430  -29.4480 C   0  0  0  0  0  0  0  0  0  0  0  0
   -4.0950   25.2780  -30.5940 O   0  0  0  0  0  0  0  0  0  0  0  0
   -5.3560   25.8750  -30.4840 C   0  0  0  0  0  0  0  0  0  0  0  0
   -6.4880   24.9330  -30.6940 C   0  0  0  0  0  0  0  0  0  0  0  0
   -6.1680   23.6480  -31.2130 N   0  0  0  0  0  0  0  0  0  0  0  0
   -7.0630   22.6000  -31.5190 C   0  0  0  0  0  0  0  0  0  0  0  0
   -8.4340   22.7800  -31.6620 C   0  0  0  0  0  0  0  0  0  0  0  0
   -9.2890   21.7400  -31.9760 C   0  0  0  0  0  0  0  0  0  0  0  0
   -8.7970   20.4710  -32.1610 C   0  0  0  0  0  0  0  0  0  0  0  0
   -7.4710   20.3000  -32.0220 N   0  0  0  0  0  0  0  0  0  0  0  0
   -7.0170   19.0320  -32.2110 C   0  0  0  0  0  0  0  0  0  0  0  0
   -7.9760   17.9300  -32.5510 C   0  0  0  0  0  0  0  0  0  0  0  0
   -5.6620   18.7610  -32.0870 C   0  0  0  0  0  0  0  0  0  0  0  0
   -4.8500   19.8260  -31.7740 C   0  0  0  0  0  0  0  0  0  0  0  0
   -3.5990   19.6080  -31.6530 N   0  0  0  0  0  0  0  0  0  0  0  0
   -2.6180   19.9310  -32.6380 C   0  0  0  0  0  0  0  0  0  0  0  0
   -1.9470   21.1440  -32.4510 C   0  0  0  0  0  0  0  0  0  0  0  0
   -2.3180   22.1790  -31.0720 Cl  0  0  0  0  0  0  0  0  0  0  0  0
   -0.9720   21.5300  -33.3740 C   0  0  0  0  0  0  0  0  0  0  0  0
   -0.6860   20.7190  -34.4450 C   0  0  0  0  0  0  0  0  0  0  0  0
    0.5440   21.2320  -35.5870 Cl  0  0  0  0  0  0  0  0  0  0  0  0
   -1.3710   19.5170  -34.6080 C   0  0  0  0  0  0  0  0  0  0  0  0
   -2.3390   19.1090  -33.7110 C   0  0  0  0  0  0  0  0  0  0  0  0
   -3.2180   17.6050  -33.8840 Cl  0  0  0  0  0  0  0  0  0  0  0  0
   -5.3060   21.0740  -31.5880 N   0  0  0  0  0  0  0  0  0  0  0  0
   -6.6200   21.2970  -31.7160 C   0  0  0  0  0  0  0  0  0  0  0  0
   -4.0409   25.1422  -28.5570 H   0  0  0  0  0  0  0  0  0  0  0  0
   -4.4011   23.6205  -29.4409 H   0  0  0  0  0  0  0  0  0  0  0  0
   -2.7325   24.2857  -29.4409 H   0  0  0  0  0  0  0  0  0  0  0  0
   -5.4478   26.3081  -29.4770 H   0  0  0  0  0  0  0  0  0  0  0  0
   -5.4206   26.6344  -31.2771 H   0  0  0  0  0  0  0  0  0  0  0  0
   -6.9821   24.7853  -29.7224 H   0  0  0  0  0  0  0  0  0  0  0  0
   -7.1150   25.4054  -31.4645 H   0  0  0  0  0  0  0  0  0  0  0  0
   -5.1410   23.4450  -31.3960 H   0  0  0  0  0  0  0  0  0  0  0  0
   -8.8539   23.7868  -31.5201 H   0  0  0  0  0  0  0  0  0  0  0  0
  -10.3677   21.9295  -32.0781 H   0  0  0  0  0  0  0  0  0  0  0  0
   -9.4601   19.6301  -32.4123 H   0  0  0  0  0  0  0  0  0  0  0  0
   -8.3648   17.4833  -31.6240 H   0  0  0  0  0  0  0  0  0  0  0  0
   -8.8108   18.3389  -33.1392 H   0  0  0  0  0  0  0  0  0  0  0  0
   -7.4558   17.1597  -33.1392 H   0  0  0  0  0  0  0  0  0  0  0  0
   -5.2585   17.7479  -32.2314 H   0  0  0  0  0  0  0  0  0  0  0  0
   -0.4347   22.4809  -33.2434 H   0  0  0  0  0  0  0  0  0  0  0  0
   -1.1355   18.8776  -35.4715 H   0  0  0  0  0  0  0  0  0  0  0  0
  1  2  1  0
  2  3  1  0
  3  4  1  0
  4  5  1  0
  5  6  1  0
  6  7  2  0
  7  8  1  0
  8  9  2  0
  9 10  1  0
 10 11  1  0
 11 12  1  0
 11 13  2  0
 13 14  1  0
 14 15  2  0
 15 16  1  0
 16 17  2  0
 17 18  1  0
 17 19  1  0
 19 20  2  0
 20 21  1  0
 20 22  1  0
 22 23  2  0
 23 24  1  0
 14 25  1  0
 25 26  2  0
 26  6  1  0
 26 10  1  0
 23 16  1  0
  1 27  1  0
  1 28  1  0
  1 29  1  0
  3 30  1  0
  3 31  1  0
  4 32  1  0
  4 33  1  0
  5 34  1  0
  7 35  1  0
  8 36  1  0
  9 37  1  0
 12 38  1  0
 12 39  1  0
 12 40  1  0
 13 41  1  0
 19 42  1  0
 22 43  1  0
M  END
>  <smiles>  (4) 
COCCNc1cccn2c(C)cc(=Nc3c(Cl)cc(Cl)cc3Cl)nc12

>  <score_type>  (4) 
oracle

>  <origin>  (4) 
adg

>  <m_score__min__energy>  (4) 
-8.25

>  <m_primary>  (4) 
energy

$$$$
4:0
     RDKit          3D

 47 50  0  0  0  0  0  0  0  0999 V2000
   -3.4140   18.5980  -26.1070 C   0  0  0  0  0  0  0  0  0  0  0  0
   -2.3910   19.3330  -26.9070 C   0  0  0  0  0  0  0  0  0  0  0  0
   -2.5530   20.5840  -27.4700 C   0  0  0  0  0  0  0  0  0  0  0  0
   -1.3670   20.8070  -28.1410 C   0  0  0  0  0  0  0  0  0  0  0  0
   -1.0000   22.0700  -28.8650 C   0  0  0  0  0  0  0  0  0  0  0  0
   -1.2410   21.9190  -30.3040 N   0  0  0  0  0  0  0  0  0  0  0  0
   -0.1470   21.5320  -31.1890 C   0  0  0  0  0  0  0  0  0  0  0  0
   -0.4470   20.1860  -31.8170 C   0  0  0  0  0  0  0  0  0  0  0  0
   -1.4120   20.3190  -32.8490 O   0  0  0  0  0  0  0  0  0  0  0  0
   -2.7830   20.5080  -32.6380 C   0  0  0  0  0  0  0  0  0  0  0  0
   -3.6470   19.7590  -33.4460 C   0  0  0  0  0  0  0  0  0  0  0  0
   -5.0300   19.8780  -33.3210 C   0  0  0  0  0  0  0  0  0  0  0  0
   -5.5840   20.7660  -32.3910 C   0  0  0  0  0  0  0  0  0  0  0  0
   -7.0580   20.8910  -32.2540 C   0  0  0  0  0  0  0  0  0  0  0  0
   -7.6400   22.1230  -31.8980 C   0  0  0  0  0  0  0  0  0  0  0  0
   -9.0280   22.2390  -31.7700 C   0  0  0  0  0  0  0  0  0  0  0  0
   -9.8480   21.1320  -31.9930 C   0  0  0  0  0  0  0  0  0  0  0  0
   -9.2820   19.9040  -32.3450 C   0  0  0  0  0  0  0  0  0  0  0  0
   -7.8950   19.7810  -32.4750 C   0  0  0  0  0  0  0  0  0  0  0  0
   -4.7240   21.5400  -31.5960 C   0  0  0  0  0  0  0  0  0  0  0  0
   -3.3230   21.4300  -31.7040 C   0  0  0  0  0  0  0  0  0  0  0  0
   -2.4990   22.3310  -30.8570 C   0  0  0  0  0  0  0  0  0  0  0  0
   -2.9570   23.4620  -30.5390 O   0  0  0  0  0  0  0  0  0  0  0  0
   -0.5690   19.7290  -27.9800 N   0  0  0  0  0  0  0  0  0  0  0  0
    0.8060   19.5750  -28.4440 C   0  0  0  0  0  0  0  0  0  0  0  0
   -1.1830   18.8290  -27.2280 N   0  0  0  0  0  0  0  0  0  0  0  0
   -3.2138   18.7418  -25.0350 H   0  0  0  0  0  0  0  0  0  0  0  0
   -4.4152   18.9846  -26.3482 H   0  0  0  0  0  0  0  0  0  0  0  0
   -3.3671   17.5258  -26.3482 H   0  0  0  0  0  0  0  0  0  0  0  0
   -3.4261   21.2495  -27.3999 H   0  0  0  0  0  0  0  0  0  0  0  0
   -1.6106   22.8999  -28.4797 H   0  0  0  0  0  0  0  0  0  0  0  0
    0.0672   22.2801  -28.7005 H   0  0  0  0  0  0  0  0  0  0  0  0
   -0.0330   22.2872  -31.9807 H   0  0  0  0  0  0  0  0  0  0  0  0
    0.7838   21.4621  -30.6070 H   0  0  0  0  0  0  0  0  0  0  0  0
    0.4794   19.7702  -32.2400 H   0  0  0  0  0  0  0  0  0  0  0  0
   -0.8470   19.5151  -31.0425 H   0  0  0  0  0  0  0  0  0  0  0  0
   -3.2280   19.0662  -34.1906 H   0  0  0  0  0  0  0  0  0  0  0  0
   -5.6905   19.2704  -33.9570 H   0  0  0  0  0  0  0  0  0  0  0  0
   -6.9993   22.9992  -31.7196 H   0  0  0  0  0  0  0  0  0  0  0  0
   -9.4744   23.2054  -31.4928 H   0  0  0  0  0  0  0  0  0  0  0  0
  -10.9393   21.2262  -31.8917 H   0  0  0  0  0  0  0  0  0  0  0  0
   -9.9290   19.0318  -32.5203 H   0  0  0  0  0  0  0  0  0  0  0  0
   -7.4556   18.8112  -32.7515 H   0  0  0  0  0  0  0  0  0  0  0  0
   -5.1533   22.2485  -30.8723 H   0  0  0  0  0  0  0  0  0  0  0  0
    1.4792   19.4996  -27.5773 H   0  0  0  0  0  0  0  0  0  0  0  0
    0.8877   18.6621  -29.0522 H   0  0  0  0  0  0  0  0  0  0  0  0
    1.0876   20.4472  -29.0522 H   0  0  0  0  0  0  0  0  0  0  0  0
  1  2  1  0
  2  3  1  0
  3  4  2  0
  4  5  1  0
  5  6  1  0
  6  7  1  0
  7  8  1  0
  8  9  1  0
  9 10  1  0
 10 11  2  0
 11 12  1  0
 12 13  2  0
 13 14  1  0
 14 15  2  0
 15 16  1  0
 16 17  2  0
 17 18  1  0
 18 19  2  0
 13 20  1  0
 20 21  2  0
 21 22  1  0
 22 23  2  0
  4 24  1  0
 24 25  1  0
 24 26  1  0
 26  2  2  0
 22  6  1  0
 21 10  1  0
 19 14  1  0
  1 27  1  0
  1 28  1  0
  1 29  1  0
  3 30  1  0
  5 31  1  0
  5 32  1  0
  7 33  1  0
  7 34  1  0
  8 35  1  0
  8 36  1  0
 11 37  1  0
 12 38  1  0
 15 39  1  0
 16 40  1  0
 17 41  1  0
 18 42  1  0
 19 43  1  0
 20 44  1  0
 25 45  1  0
 25 46  1  0
 25 47  1  0
M  END
>  <UniqueID>  (5) 
4

>  <SMILES>  (5) 
Cc1cc(CN2CCOc3ccc(-c4ccccc4)cc3C2=O)n(C)n1

>  <Energy>  (5) 
93.38242044475938

>  <Genealogy>  (5) 
Cc1cc(CN2CCOc3ccc(-c4ccccc4)cc3C2=O)n(C)n1 (3D coordinates assigned)
Cc1cc(CN2CCOc3ccc(-c4ccccc4)cc3C2=O)n(C)n1 (nonaromatic ring conformer: 93.38242044475938 kcal/mol)

>  <smiles>  (5) 
Cc1cc(CN2CCOc3ccc(-c4ccccc4)cc3C2=O)n(C)n1

>  <score_type>  (5) 
oracle

>  <origin>  (5) 
adg

>  <m_score__min__energy>  (5) 
-7.5499999999999998

>  <m_primary>  (5) 
energy

$$$$
5:0
     RDKit          3D

 38 39  0  0  0  0  0  0  0  0999 V2000
   -7.3953   24.5090  -30.4148 H   0  0  0  0  0  0  0  0  0  0  0  0
   -6.8050   23.6470  -30.7590 C   0  0  0  0  0  0  0  0  0  0  0  0
   -5.7460   23.8760  -31.4830 N   0  0  0  0  0  0  0  0  0  0  0  0
   -4.5880   23.0360  -31.5900 C   0  0  0  0  0  0  0  0  0  0  0  0
   -3.4660   23.4200  -31.1610 O   0  0  0  0  0  0  0  0  0  0  0  0
   -4.7050   21.7200  -32.2220 C   0  0  0  0  0  0  0  0  0  0  0  0
   -3.7180   20.7380  -32.2460 C   0  0  0  0  0  0  0  0  0  0  0  0
   -2.7403   20.7818  -31.7439 H   0  0  0  0  0  0  0  0  0  0  0  0
   -4.1840   19.7280  -32.9970 N   0  0  0  0  0  0  0  0  0  0  0  0
   -3.5880   18.5580  -33.3530 C   0  0  0  0  0  0  0  0  0  0  0  0
   -2.5812   18.3032  -32.9904 H   0  0  0  0  0  0  0  0  0  0  0  0
   -4.2920   17.6870  -34.1940 C   0  0  0  0  0  0  0  0  0  0  0  0
   -3.4990   16.0380  -34.7490 Br  0  0  0  0  0  0  0  0  0  0  0  0
   -5.5820   18.0470  -34.6370 C   0  0  0  0  0  0  0  0  0  0  0  0
   -6.1415   17.3674  -35.2966 H   0  0  0  0  0  0  0  0  0  0  0  0
   -6.1580   19.2660  -34.2430 C   0  0  0  0  0  0  0  0  0  0  0  0
   -7.1628   19.5576  -34.5825 H   0  0  0  0  0  0  0  0  0  0  0  0
   -5.4100   20.0930  -33.4060 C   0  0  0  0  0  0  0  0  0  0  0  0
   -5.7680   21.3100  -32.9510 N   0  0  0  0  0  0  0  0  0  0  0  0
   -6.6520   21.8290  -33.1410 H   0  0  0  0  0  0  0  0  0  0  0  0
   -7.2660   22.2660  -30.3670 C   0  0  0  0  0  0  0  0  0  0  0  0
   -7.9066   22.3400  -29.4758 H   0  0  0  0  0  0  0  0  0  0  0  0
   -6.3811   21.6480  -30.1550 H   0  0  0  0  0  0  0  0  0  0  0  0
   -8.0340   21.6310  -31.4650 N   0  0  0  0  0  0  0  0  0  0  0  0
   -8.0030   20.1480  -31.3850 C   0  0  0  0  0  0  0  0  0  0  0  0
   -8.1878   19.8344  -30.3470 H   0  0  0  0  0  0  0  0  0  0  0  0
   -7.0163   19.7873  -31.7112 H   0  0  0  0  0  0  0  0  0  0  0  0
   -9.0790   19.5590  -32.2910 C   0  0  0  0  0  0  0  0  0  0  0  0
   -9.8782   19.1215  -31.6746 H   0  0  0  0  0  0  0  0  0  0  0  0
   -9.4987   20.3531  -32.9260 H   0  0  0  0  0  0  0  0  0  0  0  0
   -8.6362   18.7775  -32.9260 H   0  0  0  0  0  0  0  0  0  0  0  0
   -9.4170   22.1540  -31.5050 C   0  0  0  0  0  0  0  0  0  0  0  0
  -10.0785   21.3953  -31.9486 H   0  0  0  0  0  0  0  0  0  0  0  0
   -9.7405   22.3850  -30.4793 H   0  0  0  0  0  0  0  0  0  0  0  0
   -9.4810   23.4290  -32.3430 C   0  0  0  0  0  0  0  0  0  0  0  0
   -9.5249   24.3035  -31.6772 H   0  0  0  0  0  0  0  0  0  0  0  0
   -8.5851   23.4960  -32.9777 H   0  0  0  0  0  0  0  0  0  0  0  0
  -10.3791   23.4059  -32.9777 H   0  0  0  0  0  0  0  0  0  0  0  0
  1  2  1  0
  2  3  2  0
  3  4  1  0
  4  5  2  0
  4  6  1  0
  6  7  2  0
  7  8  1  0
  7  9  1  0
  9 10  1  0
 10 11  1  0
 10 12  2  0
 12 13  1  0
 12 14  1  0
 14 15  1  0
 14 16  2  0
 16 17  1  0
 16 18  1  0
 18 19  2  0
 19 20  1  0
  2 21  1  0
 21 22  1  0
 21 23  1  0
 21 24  1  0
 24 25  1  0
 25 26  1  0
 25 27  1  0
 25 28  1  0
 28 29  1  0
 28 30  1  0
 28 31  1  0
 24 32  1  0
 32 33  1  0
 32 34  1  0
 32 35  1  0
 35 36  1  0
 35 37  1  0
 35 38  1  0
 19  6  1  0
 18  9  1  0
M  CHG  1  19   1
M  END
>  <UniqueID>  (6) 
5

>  <SMILES>  (6) 
CCN(CC)C/C=N\C(=O)c1cn2cc(Br)ccc2[nH+]1

>  <Energy>  (6) 
74.45453356172352

>  <Genealogy>  (6) 
CCN(CC)CC=NC(=O)c1cn2cc(Br)ccc2[nH+]1 (protonated)
CCN(CC)C/C=N\C(=O)c1cn2cc(Br)ccc2[nH+]1 (cis-trans isomerization)
CCN(CC)C/C=N\C(=O)c1cn2cc(Br)ccc2[nH+]1 (3D coordinates assigned)
CCN(CC)C/C=N\C(=O)c1cn2cc(Br)ccc2[nH+]1 (optimized conformer: 74.45453356172352 kcal/mol)

>  <smiles>  (6) 
CCN(CC)CC=NC(=O)c1cn2cc(Br)ccc2n1

>  <score_type>  (6) 
oracle

>  <origin>  (6) 
adg

>  <m_score__min__energy>  (6) 
-6.6200000000000001

>  <m_primary>  (6) 
energy

$$$$
6:0
     RDKit          3D

 50 51  0  0  0  0  0  0  0  0999 V2000
   -5.7990   15.2030  -33.8410 C   0  0  0  0  0  0  0  0  0  0  0  0
   -6.5330   16.5020  -34.2020 C   0  0  0  0  0  0  0  0  0  0  0  0
   -6.2560   17.6220  -33.2740 N   0  0  0  0  0  0  0  0  0  0  0  0
   -4.8080   17.9030  -33.1430 C   0  0  0  0  0  0  0  0  0  0  0  0
   -4.1750   18.1720  -34.5070 C   0  0  0  0  0  0  0  0  0  0  0  0
   -6.9470   17.4740  -31.9710 C   0  0  0  0  0  0  0  0  0  0  0  0
   -8.2800   18.2390  -32.0130 C   0  0  0  0  0  0  0  0  0  0  0  0
   -8.3120   19.2540  -33.0800 N   0  0  0  0  0  0  0  0  0  0  0  0
   -7.8900   20.5470  -32.5950 C   0  0  0  0  0  0  0  0  0  0  0  0
   -6.5720   20.9880  -32.8030 C   0  0  0  0  0  0  0  0  0  0  0  0
   -6.1420   22.2080  -32.2750 C   0  0  0  0  0  0  0  0  0  0  0  0
   -7.0250   23.0120  -31.5390 C   0  0  0  0  0  0  0  0  0  0  0  0
   -6.5330   24.2890  -30.9120 C   0  0  0  0  0  0  0  0  0  0  0  0
   -6.3900   24.1190  -29.4600 N   0  0  0  0  0  0  0  0  0  0  0  0
   -5.3350   23.1500  -29.1380 C   0  0  0  0  0  0  0  0  0  0  0  0
   -4.0390   23.8690  -28.9420 C   0  0  0  0  0  0  0  0  0  0  0  0
   -3.3720   24.0560  -27.7500 C   0  0  0  0  0  0  0  0  0  0  0  0
   -2.2800   24.8400  -28.0610 C   0  0  0  0  0  0  0  0  0  0  0  0
   -2.2840   25.1240  -29.3440 O   0  0  0  0  0  0  0  0  0  0  0  0
   -3.3310   24.5610  -29.9030 C   0  0  0  0  0  0  0  0  0  0  0  0
   -8.3460   22.5830  -31.3440 C   0  0  0  0  0  0  0  0  0  0  0  0
   -8.7770   21.3610  -31.8680 C   0  0  0  0  0  0  0  0  0  0  0  0
   -5.7437   15.1051  -32.7468 H   0  0  0  0  0  0  0  0  0  0  0  0
   -6.3456   14.3447  -34.2588 H   0  0  0  0  0  0  0  0  0  0  0  0
   -4.7817   15.2284  -34.2588 H   0  0  0  0  0  0  0  0  0  0  0  0
   -6.2246   16.8051  -35.2134 H   0  0  0  0  0  0  0  0  0  0  0  0
   -7.6104   16.2903  -34.1364 H   0  0  0  0  0  0  0  0  0  0  0  0
   -4.6699   18.7864  -32.5022 H   0  0  0  0  0  0  0  0  0  0  0  0
   -4.3199   17.0231  -32.6984 H   0  0  0  0  0  0  0  0  0  0  0  0
   -3.1708   18.5987  -34.3675 H   0  0  0  0  0  0  0  0  0  0  0  0
   -4.0979   17.2289  -35.0679 H   0  0  0  0  0  0  0  0  0  0  0  0
   -4.8005   18.8821  -35.0679 H   0  0  0  0  0  0  0  0  0  0  0  0
   -7.1406   16.4088  -31.7767 H   0  0  0  0  0  0  0  0  0  0  0  0
   -6.3134   17.8815  -31.1695 H   0  0  0  0  0  0  0  0  0  0  0  0
   -9.0946   17.5200  -32.1849 H   0  0  0  0  0  0  0  0  0  0  0  0
   -8.3981   18.7598  -31.0513 H   0  0  0  0  0  0  0  0  0  0  0  0
   -7.6630   18.9560  -33.8460 H   0  0  0  0  0  0  0  0  0  0  0  0
   -9.2740   19.3050  -33.4930 H   0  0  0  0  0  0  0  0  0  0  0  0
   -5.8742   20.3685  -33.3854 H   0  0  0  0  0  0  0  0  0  0  0  0
   -5.1058   22.5397  -32.4373 H   0  0  0  0  0  0  0  0  0  0  0  0
   -5.5569   24.5537  -31.3447 H   0  0  0  0  0  0  0  0  0  0  0  0
   -7.2610   25.0896  -31.1097 H   0  0  0  0  0  0  0  0  0  0  0  0
   -7.2940   23.7390  -29.0930 H   0  0  0  0  0  0  0  0  0  0  0  0
   -5.5996   22.6135  -28.2149 H   0  0  0  0  0  0  0  0  0  0  0  0
   -5.2335   22.4312  -29.9644 H   0  0  0  0  0  0  0  0  0  0  0  0
   -3.6511   23.6635  -26.7610 H   0  0  0  0  0  0  0  0  0  0  0  0
   -1.5191   25.1772  -27.3418 H   0  0  0  0  0  0  0  0  0  0  0  0
   -3.6003   24.6302  -30.9673 H   0  0  0  0  0  0  0  0  0  0  0  0
   -9.0469   23.2119  -30.7754 H   0  0  0  0  0  0  0  0  0  0  0  0
   -9.8155   21.0342  -31.7109 H   0  0  0  0  0  0  0  0  0  0  0  0
  1  2  1  0
  2  3  1  0
  3  4  1  0
  4  5  1  0
  3  6  1  0
  6  7  1  0
  7  8  1  0
  8  9  1  0
  9 10  2  0
 10 11  1  0
 11 12  2  0
 12 13  1  0
 13 14  1  0
 14 15  1  0
 15 16  1  0
 16 17  1  0
 17 18  2  0
 18 19  1  0
 19 20  1  0
 12 21  1  0
 21 22  2  0
 22  9  1  0
 20 16  2  0
  1 23  1  0
  1 24  1  0
  1 25  1  0
  2 26  1  0
  2 27  1  0
  4 28  1  0
  4 29  1  0
  5 30  1  0
  5 31  1  0
  5 32  1  0
  6 33  1  0
  6 34  1  0
  7 35  1  0
  7 36  1  0
  8 37  1  0
  8 38  1  0
 10 39  1  0
 11 40  1  0
 13 41  1  0
 13 42  1  0
 14 43  1  0
 15 44  1  0
 15 45  1  0
 17 46  1  0
 18 47  1  0
 20 48  1  0
 21 49  1  0
 22 50  1  0
M  CHG  1   8   1
M  END
>  <UniqueID>  (7) 
6

>  <SMILES>  (7) 
CCN(CC)CC[NH2+]c1ccc(CNCc2ccoc2)cc1

>  <Energy>  (7) 
72.87264074928257

>  <Genealogy>  (7) 
CCN(CC)CC[NH2+]c1ccc(CNCc2ccoc2)cc1 (protonated)
CCN(CC)CC[NH2+]c1ccc(CNCc2ccoc2)cc1 (3D coordinates assigned)
CCN(CC)CC[NH2+]c1ccc(CNCc2ccoc2)cc1 (optimized conformer: 72.87264074928257 kcal/mol)

>  <smiles>  (7) 
CCN(CC)CCNc1ccc(CNCc2ccoc2)cc1

>  <score_type>  (7) 
oracle

>  <origin>  (7) 
adg

>  <m_score__min__energy>  (7) 
-6.8200000000000003

>  <m_primary>  (7) 
energy

$$$$
7:0
     RDKit          3D

 36 38  0  0  0  0  0  0  0  0999 V2000
    1.3690   16.7840  -27.5930 C   0  0  0  0  0  0  0  0  0  0  0  0
   -0.0210   17.0910  -27.5740 O   0  0  0  0  0  0  0  0  0  0  0  0
   -0.5500   18.3860  -27.6800 C   0  0  0  0  0  0  0  0  0  0  0  0
   -1.4830   18.8010  -26.7230 C   0  0  0  0  0  0  0  0  0  0  0  0
   -2.0410   20.0800  -26.7790 C   0  0  0  0  0  0  0  0  0  0  0  0
   -1.6740   20.9670  -27.8000 C   0  0  0  0  0  0  0  0  0  0  0  0
   -2.2300   22.2530  -27.8650 C   0  0  0  0  0  0  0  0  0  0  0  0
   -1.8630   23.1310  -28.8930 C   0  0  0  0  0  0  0  0  0  0  0  0
   -2.5820   24.7360  -28.9800 S   0  0  0  0  0  0  0  0  0  0  0  0
   -1.5160   25.7960  -28.9420 O   0  0  0  0  0  0  0  0  0  0  0  0
   -3.5000   24.9210  -27.8060 O   0  0  0  0  0  0  0  0  0  0  0  0
   -3.4930   24.9040  -30.4450 N   0  0  0  0  0  0  0  0  0  0  0  0
   -4.7020   24.1950  -30.7520 C   0  0  0  0  0  0  0  0  0  0  0  0
   -5.9120   24.6820  -30.2410 C   0  0  0  0  0  0  0  0  0  0  0  0
   -7.1120   24.0160  -30.5060 C   0  0  0  0  0  0  0  0  0  0  0  0
   -7.1120   22.8560  -31.2880 C   0  0  0  0  0  0  0  0  0  0  0  0
   -8.7510   21.9450  -31.6500 Br  0  0  0  0  0  0  0  0  0  0  0  0
   -5.9090   22.3660  -31.8060 C   0  0  0  0  0  0  0  0  0  0  0  0
   -4.7080   23.0310  -31.5420 C   0  0  0  0  0  0  0  0  0  0  0  0
   -0.9260   22.7260  -29.8530 C   0  0  0  0  0  0  0  0  0  0  0  0
   -0.3630   21.4480  -29.7960 C   0  0  0  0  0  0  0  0  0  0  0  0
   -0.7320   20.5590  -28.7740 C   0  0  0  0  0  0  0  0  0  0  0  0
   -0.1760   19.2720  -28.7090 C   0  0  0  0  0  0  0  0  0  0  0  0
    1.7405   16.7019  -26.5609 H   0  0  0  0  0  0  0  0  0  0  0  0
    1.5266   15.8294  -28.1164 H   0  0  0  0  0  0  0  0  0  0  0  0
    1.9139   17.5834  -28.1164 H   0  0  0  0  0  0  0  0  0  0  0  0
   -1.7800   18.1125  -25.9182 H   0  0  0  0  0  0  0  0  0  0  0  0
   -2.7717   20.3925  -26.0185 H   0  0  0  0  0  0  0  0  0  0  0  0
   -2.9578   22.5737  -27.1051 H   0  0  0  0  0  0  0  0  0  0  0  0
   -5.9178   25.5947  -29.6270 H   0  0  0  0  0  0  0  0  0  0  0  0
   -8.0574   24.4044  -30.0992 H   0  0  0  0  0  0  0  0  0  0  0  0
   -5.9077   21.4551  -32.4227 H   0  0  0  0  0  0  0  0  0  0  0  0
   -3.7646   22.6428  -31.9534 H   0  0  0  0  0  0  0  0  0  0  0  0
   -0.6319   23.4178  -30.6560 H   0  0  0  0  0  0  0  0  0  0  0  0
    0.3713   21.1379  -30.5540 H   0  0  0  0  0  0  0  0  0  0  0  0
    0.5559   18.9535  -29.4659 H   0  0  0  0  0  0  0  0  0  0  0  0
  1  2  1  0
  2  3  1  0
  3  4  2  0
  4  5  1  0
  5  6  2  0
  6  7  1  0
  7  8  2  0
  8  9  1  0
  9 10  2  0
  9 11  2  0
  9 12  1  0
 12 13  1  0
 13 14  2  0
 14 15  1  0
 15 16  2  0
 16 17  1  0
 16 18  1  0
 18 19  2  0
  8 20  1  0
 20 21  2  0
 21 22  1  0
 22 23  2  0
 23  3  1  0
 22  6  1  0
 19 13  1  0
  1 24  1  0
  1 25  1  0
  1 26  1  0
  4 27  1  0
  5 28  1  0
  7 29  1  0
 14 30  1  0
 15 31  1  0
 18 32  1  0
 19 33  1  0
 20 34  1  0
 21 35  1  0
 23 36  1  0
M  CHG  1  12  -1
M  END
>  <UniqueID>  (8) 
7

>  <SMILES>  (8) 
COc1ccc2cc(S(=O)(=O)[N-]c3ccc(Br)cc3)ccc2c1

>  <Energy>  (8) 
43.684828930400094

>  <Genealogy>  (8) 
COc1ccc2cc(S(=O)(=O)[N-]c3ccc(Br)cc3)ccc2c1 (protonated)
COc1ccc2cc(S(=O)(=O)[N-]c3ccc(Br)cc3)ccc2c1 (3D coordinates assigned)
COc1ccc2cc(S(=O)(=O)[N-]c3ccc(Br)cc3)ccc2c1 (optimized conformer: 43.684828930400094 kcal/mol)

>  <smiles>  (8) 
COc1ccc2cc(S(=O)(=O)Nc3ccc(Br)cc3)ccc2c1

>  <score_type>  (8) 
oracle

>  <origin>  (8) 
adg

>  <m_score__min__energy>  (8) 
-10.140000000000001

>  <m_primary>  (8) 
energy

$$$$
8:0
     RDKit          3D

 47 49  0  0  0  0  0  0  0  0999 V2000
   -2.8520   19.7710  -32.4090 C   0  0  0  0  0  0  0  0  0  0  0  0
   -3.5580   21.0600  -32.1130 C   0  0  0  0  0  0  0  0  0  0  0  0
   -3.0910   22.0160  -31.2340 C   0  0  0  0  0  0  0  0  0  0  0  0
   -4.0640   22.9940  -31.1680 C   0  0  0  0  0  0  0  0  0  0  0  0
   -3.9970   24.1760  -30.2880 C   0  0  0  0  0  0  0  0  0  0  0  0
   -4.2200   25.3160  -30.7770 O   0  0  0  0  0  0  0  0  0  0  0  0
   -3.6060   24.0660  -28.8410 C   0  0  0  0  0  0  0  0  0  0  0  0
   -2.1770   24.3960  -28.6680 N   0  0  0  0  0  0  0  0  0  0  0  0
   -1.3500   23.1740  -28.6150 C   0  0  0  0  0  0  0  0  0  0  0  0
    0.1400   23.5490  -28.4630 C   0  0  0  0  0  0  0  0  0  0  0  0
    0.3240   24.9280  -28.1890 O   0  0  0  0  0  0  0  0  0  0  0  0
   -0.4790   25.3080  -27.0900 C   0  0  0  0  0  0  0  0  0  0  0  0
   -1.9770   25.1880  -27.4370 C   0  0  0  0  0  0  0  0  0  0  0  0
   -5.0820   22.6080  -32.0360 C   0  0  0  0  0  0  0  0  0  0  0  0
   -6.3140   23.4070  -32.3630 C   0  0  0  0  0  0  0  0  0  0  0  0
   -4.7760   21.4090  -32.5910 N   0  0  0  0  0  0  0  0  0  0  0  0
   -5.6250   20.5940  -33.4740 C   0  0  0  0  0  0  0  0  0  0  0  0
   -6.7100   19.9130  -32.6830 C   0  0  0  0  0  0  0  0  0  0  0  0
   -7.8760   20.6120  -32.3190 C   0  0  0  0  0  0  0  0  0  0  0  0
   -8.8830   19.9710  -31.5920 C   0  0  0  0  0  0  0  0  0  0  0  0
   -8.7350   18.6330  -31.2190 C   0  0  0  0  0  0  0  0  0  0  0  0
   -7.5780   17.9330  -31.5710 C   0  0  0  0  0  0  0  0  0  0  0  0
   -6.5680   18.5700  -32.2990 C   0  0  0  0  0  0  0  0  0  0  0  0
   -2.5810   19.2762  -31.4647 H   0  0  0  0  0  0  0  0  0  0  0  0
   -3.5162   19.1141  -32.9897 H   0  0  0  0  0  0  0  0  0  0  0  0
   -1.9408   19.9770  -32.9897 H   0  0  0  0  0  0  0  0  0  0  0  0
   -2.1333   22.0019  -30.6930 H   0  0  0  0  0  0  0  0  0  0  0  0
   -4.2139   24.7644  -28.2471 H   0  0  0  0  0  0  0  0  0  0  0  0
   -3.7776   23.0336  -28.5022 H   0  0  0  0  0  0  0  0  0  0  0  0
   -1.6606   22.5613  -27.7559 H   0  0  0  0  0  0  0  0  0  0  0  0
   -1.4855   22.6064  -29.5475 H   0  0  0  0  0  0  0  0  0  0  0  0
    0.5692   22.9640  -27.6362 H   0  0  0  0  0  0  0  0  0  0  0  0
    0.6414   23.3262  -29.4164 H   0  0  0  0  0  0  0  0  0  0  0  0
   -0.2535   24.6532  -26.2354 H   0  0  0  0  0  0  0  0  0  0  0  0
   -0.2587   26.3560  -26.8388 H   0  0  0  0  0  0  0  0  0  0  0  0
   -2.5002   24.6954  -26.6041 H   0  0  0  0  0  0  0  0  0  0  0  0
   -2.3788   26.1985  -27.6030 H   0  0  0  0  0  0  0  0  0  0  0  0
   -6.8034   23.7244  -31.4304 H   0  0  0  0  0  0  0  0  0  0  0  0
   -6.0310   24.2940  -32.9488 H   0  0  0  0  0  0  0  0  0  0  0  0
   -7.0084   22.7869  -32.9488 H   0  0  0  0  0  0  0  0  0  0  0  0
   -6.0845   21.2430  -34.2340 H   0  0  0  0  0  0  0  0  0  0  0  0
   -5.0020   19.8264  -33.9563 H   0  0  0  0  0  0  0  0  0  0  0  0
   -7.9953   21.6667  -32.6077 H   0  0  0  0  0  0  0  0  0  0  0  0
   -9.7938   20.5212  -31.3130 H   0  0  0  0  0  0  0  0  0  0  0  0
   -9.5295   18.1303  -30.6480 H   0  0  0  0  0  0  0  0  0  0  0  0
   -7.4615   16.8799  -31.2752 H   0  0  0  0  0  0  0  0  0  0  0  0
   -5.6578   18.0160  -32.5721 H   0  0  0  0  0  0  0  0  0  0  0  0
  1  2  1  0
  2  3  2  0
  3  4  1  0
  4  5  1  0
  5  6  2  0
  5  7  1  0
  7  8  1  0
  8  9  1  0
  9 10  1  0
 10 11  1  0
 11 12  1  0
 12 13  1  0
  4 14  2  0
 14 15  1  0
 14 16  1  0
 16 17  1  0
 17 18  1  0
 18 19  2  0
 19 20  1  0
 20 21  2  0
 21 22  1  0
 22 23  2  0
 16  2  1  0
 23 18  1  0
 13  8  1  0
  1 24  1  0
  1 25  1  0
  1 26  1  0
  3 27  1  0
  7 28  1  0
  7 29  1  0
  9 30  1  0
  9 31  1  0
 10 32  1  0
 10 33  1  0
 12 34  1  0
 12 35  1  0
 13 36  1  0
 13 37  1  0
 15 38  1  0
 15 39  1  0
 15 40  1  0
 17 41  1  0
 17 42  1  0
 19 43  1  0
 20 44  1  0
 21 45  1  0
 22 46  1  0
 23 47  1  0
M  END
>  <UniqueID>  (9) 
8

>  <SMILES>  (9) 
Cc1cc(C(=O)CN2CCOCC2)c(C)n1Cc1ccccc1

>  <Energy>  (9) 
84.17678295037763

>  <Genealogy>  (9) 
Cc1cc(C(=O)CN2CCOCC2)c(C)n1Cc1ccccc1 (3D coordinates assigned)
Cc1cc(C(=O)CN2CCOCC2)c(C)n1Cc1ccccc1 (nonaromatic ring conformer: 84.17678295037763 kcal/mol)

>  <smiles>  (9) 
Cc1cc(C(=O)CN2CCOCC2)c(C)n1Cc1ccccc1

>  <score_type>  (9) 
oracle

>  <origin>  (9) 
adg

>  <m_score__min__energy>  (9) 
-9.1999999999999993

>  <m_primary>  (9) 
energy

$$$$
9:0
     RDKit          3D

 37 40  0  0  0  0  0  0  0  0999 V2000
   -5.3660   25.6790  -30.4990 C   0  0  0  0  0  0  0  0  0  0  0  0
   -4.1580   25.0010  -30.8260 O   0  0  0  0  0  0  0  0  0  0  0  0
   -3.9530   23.6240  -30.6610 C   0  0  0  0  0  0  0  0  0  0  0  0
   -3.3960   23.1660  -29.4630 C   0  0  0  0  0  0  0  0  0  0  0  0
   -3.1800   21.8400  -29.2680 N   0  0  0  0  0  0  0  0  0  0  0  0
   -3.4970   20.9150  -30.2120 C   0  0  0  0  0  0  0  0  0  0  0  0
   -4.0690   21.3160  -31.4280 C   0  0  0  0  0  0  0  0  0  0  0  0
   -4.4130   20.3180  -32.4680 C   0  0  0  0  0  0  0  0  0  0  0  0
   -3.3710   19.5270  -33.0070 C   0  0  0  0  0  0  0  0  0  0  0  0
   -3.6980   18.5460  -33.9320 C   0  0  0  0  0  0  0  0  0  0  0  0
   -4.9740   18.3300  -34.3300 C   0  0  0  0  0  0  0  0  0  0  0  0
   -6.0350   19.0820  -33.8440 C   0  0  0  0  0  0  0  0  0  0  0  0
   -5.7630   20.1030  -32.9020 C   0  0  0  0  0  0  0  0  0  0  0  0
   -6.8760   20.9670  -32.4400 C   0  0  0  0  0  0  0  0  0  0  0  0
   -7.9650   20.4280  -31.7360 C   0  0  0  0  0  0  0  0  0  0  0  0
   -8.9970   21.2700  -31.3170 C   0  0  0  0  0  0  0  0  0  0  0  0
   -8.9400   22.6350  -31.6030 C   0  0  0  0  0  0  0  0  0  0  0  0
   -7.8460   23.1390  -32.3090 C   0  0  0  0  0  0  0  0  0  0  0  0
   -6.8500   22.3030  -32.7090 N   0  0  0  0  0  0  0  0  0  0  0  0
   -5.0030   17.3000  -35.2500 O   0  0  0  0  0  0  0  0  0  0  0  0
   -3.6580   16.8370  -35.4380 C   0  0  0  0  0  0  0  0  0  0  0  0
   -2.8570   17.6590  -34.5780 O   0  0  0  0  0  0  0  0  0  0  0  0
   -4.2870   22.6830  -31.6510 C   0  0  0  0  0  0  0  0  0  0  0  0
   -5.4694   25.7370  -29.4054 H   0  0  0  0  0  0  0  0  0  0  0  0
   -5.3415   26.6952  -30.9194 H   0  0  0  0  0  0  0  0  0  0  0  0
   -6.2207   25.1288  -30.9194 H   0  0  0  0  0  0  0  0  0  0  0  0
   -3.1311   23.8847  -28.6735 H   0  0  0  0  0  0  0  0  0  0  0  0
   -3.3044   19.8489  -30.0217 H   0  0  0  0  0  0  0  0  0  0  0  0
   -2.3267   19.6860  -32.7000 H   0  0  0  0  0  0  0  0  0  0  0  0
   -7.0634   18.8889  -34.1832 H   0  0  0  0  0  0  0  0  0  0  0  0
   -8.0047   19.3509  -31.5164 H   0  0  0  0  0  0  0  0  0  0  0  0
   -9.8533   20.8584  -30.7626 H   0  0  0  0  0  0  0  0  0  0  0  0
   -9.7479   23.3061  -31.2759 H   0  0  0  0  0  0  0  0  0  0  0  0
   -7.7893   24.2126  -32.5419 H   0  0  0  0  0  0  0  0  0  0  0  0
   -3.5703   15.7784  -35.1521 H   0  0  0  0  0  0  0  0  0  0  0  0
   -3.3406   16.9075  -36.4889 H   0  0  0  0  0  0  0  0  0  0  0  0
   -4.7209   23.0205  -32.6038 H   0  0  0  0  0  0  0  0  0  0  0  0
  1  2  1  0
  2  3  1  0
  3  4  2  0
  4  5  1  0
  5  6  2  0
  6  7  1  0
  7  8  1  0
  8  9  2  0
  9 10  1  0
 10 11  2  0
 11 12  1  0
 12 13  2  0
 13 14  1  0
 14 15  2  0
 15 16  1  0
 16 17  2  0
 17 18  1  0
 18 19  2  0
 11 20  1  0
 20 21  1  0
 21 22  1  0
  7 23  2  0
 23  3  1  0
 13  8  1  0
 19 14  1  0
 22 10  1  0
  1 24  1  0
  1 25  1  0
  1 26  1  0
  4 27  1  0
  6 28  1  0
  9 29  1  0
 12 30  1  0
 15 31  1  0
 16 32  1  0
 17 33  1  0
 18 34  1  0
 21 35  1  0
 21 36  1  0
 23 37  1  0
M  END
>  <UniqueID>  (10) 
9

>  <SMILES>  (10) 
COc1cncc(-c2cc3c(cc2-c2ccccn2)OCO3)c1

>  <Energy>  (10) 
81.78692818113286

>  <Genealogy>  (10) 
COc1cncc(-c2cc3c(cc2-c2ccccn2)OCO3)c1 (3D coordinates assigned)
COc1cncc(-c2cc3c(cc2-c2ccccn2)OCO3)c1 (nonaromatic ring conformer: 81.78692818113286 kcal/mol)

>  <smiles>  (10) 
COc1cncc(-c2cc3c(cc2-c2ccccn2)OCO3)c1

>  <score_type>  (10) 
oracle

>  <origin>  (10) 
adg

>  <m_score__min__energy>  (10) 
-7.9299999999999997

>  <m_primary>  (10) 
energy

$$$$
10:0
     RDKit          3D

 48 50  0  0  0  0  0  0  0  0999 V2000
   -6.1620   25.3570  -29.5390 C   0  0  0  0  0  0  0  0  0  0  0  0
   -5.3860   25.2560  -30.8450 C   0  0  0  0  0  0  0  0  0  0  0  0
   -3.9440   25.3070  -30.5700 N   0  0  0  0  0  0  0  0  0  0  0  0
   -3.5420   24.4110  -29.4720 C   0  0  0  0  0  0  0  0  0  0  0  0
   -3.1980   22.9810  -29.9300 C   0  0  0  0  0  0  0  0  0  0  0  0
   -3.3280   22.8380  -31.3840 N   0  0  0  0  0  0  0  0  0  0  0  0
   -3.9640   21.7190  -32.0330 C   0  0  0  0  0  0  0  0  0  0  0  0
   -5.3390   21.4840  -31.8850 C   0  0  0  0  0  0  0  0  0  0  0  0
   -5.9680   20.4210  -32.5400 C   0  0  0  0  0  0  0  0  0  0  0  0
   -7.4340   20.2920  -32.4000 C   0  0  0  0  0  0  0  0  0  0  0  0
   -8.1320   19.1060  -32.3100 C   0  0  0  0  0  0  0  0  0  0  0  0
   -9.4500   19.4940  -32.1610 C   0  0  0  0  0  0  0  0  0  0  0  0
   -9.5300   20.8400  -32.1470 N   0  0  0  0  0  0  0  0  0  0  0  0
   -8.3030   21.3170  -32.2780 N   0  0  0  0  0  0  0  0  0  0  0  0
   -7.9920   22.7420  -32.3020 C   0  0  0  0  0  0  0  0  0  0  0  0
   -5.2040   19.5220  -33.3180 C   0  0  0  0  0  0  0  0  0  0  0  0
   -5.7900   18.4020  -33.9450 C   0  0  0  0  0  0  0  0  0  0  0  0
   -5.0130   17.5260  -34.7040 C   0  0  0  0  0  0  0  0  0  0  0  0
   -3.6440   17.7430  -34.8430 C   0  0  0  0  0  0  0  0  0  0  0  0
   -3.0400   18.8340  -34.2190 C   0  0  0  0  0  0  0  0  0  0  0  0
   -3.8050   19.7310  -33.4490 C   0  0  0  0  0  0  0  0  0  0  0  0
   -3.1950   20.8340  -32.8140 C   0  0  0  0  0  0  0  0  0  0  0  0
   -1.8190   21.0410  -32.9560 O   0  0  0  0  0  0  0  0  0  0  0  0
   -0.9070   20.7260  -31.9130 C   0  0  0  0  0  0  0  0  0  0  0  0
   -5.4667   25.2665  -28.6914 H   0  0  0  0  0  0  0  0  0  0  0  0
   -6.6741   26.3294  -29.4910 H   0  0  0  0  0  0  0  0  0  0  0  0
   -6.9059   24.5481  -29.4910 H   0  0  0  0  0  0  0  0  0  0  0  0
   -5.6299   24.3057  -31.3425 H   0  0  0  0  0  0  0  0  0  0  0  0
   -5.6619   26.0968  -31.4983 H   0  0  0  0  0  0  0  0  0  0  0  0
   -3.4160   25.0710  -31.4400 H   0  0  0  0  0  0  0  0  0  0  0  0
   -2.6563   24.8403  -28.9809 H   0  0  0  0  0  0  0  0  0  0  0  0
   -4.4033   24.3310  -28.7924 H   0  0  0  0  0  0  0  0  0  0  0  0
   -2.1622   22.7517  -29.6392 H   0  0  0  0  0  0  0  0  0  0  0  0
   -3.9019   22.2853  -29.4498 H   0  0  0  0  0  0  0  0  0  0  0  0
   -3.1270   23.6930  -31.9500 H   0  0  0  0  0  0  0  0  0  0  0  0
   -5.9337   22.1488  -31.2413 H   0  0  0  0  0  0  0  0  0  0  0  0
   -7.7305   18.0826  -32.3482 H   0  0  0  0  0  0  0  0  0  0  0  0
  -10.3050   18.8082  -32.0679 H   0  0  0  0  0  0  0  0  0  0  0  0
   -7.9102   23.1169  -31.2711 H   0  0  0  0  0  0  0  0  0  0  0  0
   -7.0382   22.9003  -32.8265 H   0  0  0  0  0  0  0  0  0  0  0  0
   -8.7931   23.2834  -32.8265 H   0  0  0  0  0  0  0  0  0  0  0  0
   -6.8688   18.2178  -33.8345 H   0  0  0  0  0  0  0  0  0  0  0  0
   -5.4832   16.6609  -35.1944 H   0  0  0  0  0  0  0  0  0  0  0  0
   -3.0377   17.0517  -35.4467 H   0  0  0  0  0  0  0  0  0  0  0  0
   -1.9575   18.9952  -34.3291 H   0  0  0  0  0  0  0  0  0  0  0  0
   -1.3912   20.8933  -30.9396 H   0  0  0  0  0  0  0  0  0  0  0  0
   -0.6051   19.6715  -31.9960 H   0  0  0  0  0  0  0  0  0  0  0  0
   -0.0186   21.3694  -31.9960 H   0  0  0  0  0  0  0  0  0  0  0  0
  1  2  1  0
  2  3  1  0
  3  4  1  0
  4  5  1  0
  5  6  1  0
  6  7  1  0
  7  8  2  0
  8  9  1  0
  9 10  1  0
 10 11  2  0
 11 12  1  0
 12 13  2  0
 13 14  1  0
 14 15  1  0
  9 16  2  0
 16 17  1  0
 17 18  2  0
 18 19  1  0
 19 20  2  0
 20 21  1  0
 21 22  2  0
 22 23  1  0
 23 24  1  0
 22  7  1  0
 14 10  1  0
 21 16  1  0
  1 25  1  0
  1 26  1  0
  1 27  1  0
  2 28  1  0
  2 29  1  0
  3 30  1  0
  4 31  1  0
  4 32  1  0
  5 33  1  0
  5 34  1  0
  6 35  1  0
  8 36  1  0
 11 37  1  0
 12 38  1  0
 15 39  1  0
 15 40  1  0
 15 41  1  0
 17 42  1  0
 18 43  1  0
 19 44  1  0
 20 45  1  0
 24 46  1  0
 24 47  1  0
 24 48  1  0
M  END
>  <UniqueID>  (11) 
10

>  <SMILES>  (11) 
CCNCCNc1cc(-c2ccnn2C)c2ccccc2c1OC

>  <Energy>  (11) 
93.14401721731842

>  <Genealogy>  (11) 
CCNCCNc1cc(-c2ccnn2C)c2ccccc2c1OC (3D coordinates assigned)
CCNCCNc1cc(-c2ccnn2C)c2ccccc2c1OC (optimized conformer: 93.14401721731842 kcal/mol)

>  <smiles>  (11) 
CCNCCNc1cc(-c2ccnn2C)c2ccccc2c1OC

>  <score_type>  (11) 
oracle

>  <origin>  (11) 
adg

>  <m_score__min__energy>  (11) 
-8.2799999999999994

>  <m_primary>  (11) 
energy

$$$$
11:0
     RDKit          3D

 46 48  0  0  0  0  0  0  0  0999 V2000
    0.7120   24.2910  -27.1350 C   0  0  0  0  0  0  0  0  0  0  0  0
    0.6220   24.2740  -28.5410 O   0  0  0  0  0  0  0  0  0  0  0  0
   -0.6900   23.9360  -28.9570 C   0  0  0  0  0  0  0  0  0  0  0  0
   -1.5890   25.1720  -28.9150 C   0  0  0  0  0  0  0  0  0  0  0  0
   -2.8410   24.9270  -29.6230 N   0  0  0  0  0  0  0  0  0  0  0  0
   -3.9330   24.1910  -29.0610 C   0  0  0  0  0  0  0  0  0  0  0  0
   -3.7360   23.0740  -28.5100 O   0  0  0  0  0  0  0  0  0  0  0  0
   -5.3170   24.7500  -29.1330 C   0  0  0  0  0  0  0  0  0  0  0  0
   -5.7660   25.1520  -30.8580 S   0  0  0  0  0  0  0  0  0  0  0  0
   -5.5330   23.4760  -31.4780 C   0  0  0  0  0  0  0  0  0  0  0  0
   -4.2630   23.0490  -31.7010 N   0  0  0  0  0  0  0  0  0  0  0  0
   -3.9960   21.8060  -32.1840 C   0  0  0  0  0  0  0  0  0  0  0  0
   -2.5950   21.3800  -32.4220 C   0  0  0  0  0  0  0  0  0  0  0  0
   -2.2100   20.8470  -33.6680 C   0  0  0  0  0  0  0  0  0  0  0  0
   -0.8890   20.4460  -33.8900 C   0  0  0  0  0  0  0  0  0  0  0  0
    0.0620   20.5720  -32.8750 C   0  0  0  0  0  0  0  0  0  0  0  0
    1.3420   20.1830  -33.0940 F   0  0  0  0  0  0  0  0  0  0  0  0
   -0.3060   21.0980  -31.6350 C   0  0  0  0  0  0  0  0  0  0  0  0
   -1.6260   21.5010  -31.4070 C   0  0  0  0  0  0  0  0  0  0  0  0
   -5.0260   20.9610  -32.4510 N   0  0  0  0  0  0  0  0  0  0  0  0
   -6.3200   21.3210  -32.2420 C   0  0  0  0  0  0  0  0  0  0  0  0
   -7.3630   20.4170  -32.5280 C   0  0  0  0  0  0  0  0  0  0  0  0
   -7.0640   19.0480  -33.0750 C   0  0  0  0  0  0  0  0  0  0  0  0
   -8.6920   20.8040  -32.2930 C   0  0  0  0  0  0  0  0  0  0  0  0
   -8.9810   22.0690  -31.7780 C   0  0  0  0  0  0  0  0  0  0  0  0
   -7.9500   22.9650  -31.4930 C   0  0  0  0  0  0  0  0  0  0  0  0
   -6.6120   22.6060  -31.7320 C   0  0  0  0  0  0  0  0  0  0  0  0
   -0.2815   24.1033  -26.7017 H   0  0  0  0  0  0  0  0  0  0  0  0
    1.4106   23.5089  -26.8028 H   0  0  0  0  0  0  0  0  0  0  0  0
    1.0772   25.2740  -26.8028 H   0  0  0  0  0  0  0  0  0  0  0  0
   -0.6565   23.5452  -29.9847 H   0  0  0  0  0  0  0  0  0  0  0  0
   -1.0970   23.1714  -28.2790 H   0  0  0  0  0  0  0  0  0  0  0  0
   -1.8104   25.4213  -27.8668 H   0  0  0  0  0  0  0  0  0  0  0  0
   -1.0647   26.0059  -29.4047 H   0  0  0  0  0  0  0  0  0  0  0  0
   -6.0267   24.0074  -28.7394 H   0  0  0  0  0  0  0  0  0  0  0  0
   -5.3562   25.6722  -28.5346 H   0  0  0  0  0  0  0  0  0  0  0  0
   -2.9539   20.7456  -34.4719 H   0  0  0  0  0  0  0  0  0  0  0  0
   -0.5982   20.0304  -34.8661 H   0  0  0  0  0  0  0  0  0  0  0  0
    0.4436   21.1957  -30.8359 H   0  0  0  0  0  0  0  0  0  0  0  0
   -1.9092   21.9153  -30.4282 H   0  0  0  0  0  0  0  0  0  0  0  0
   -6.9106   18.3459  -32.2422 H   0  0  0  0  0  0  0  0  0  0  0  0
   -7.9088   18.7069  -33.6914 H   0  0  0  0  0  0  0  0  0  0  0  0
   -6.1539   19.0902  -33.6914 H   0  0  0  0  0  0  0  0  0  0  0  0
   -9.5117   20.1052  -32.5163 H   0  0  0  0  0  0  0  0  0  0  0  0
  -10.0259   22.3606  -31.5961 H   0  0  0  0  0  0  0  0  0  0  0  0
   -8.1853   23.9568  -31.0794 H   0  0  0  0  0  0  0  0  0  0  0  0
  1  2  1  0
  2  3  1  0
  3  4  1  0
  4  5  1  0
  5  6  1  0
  6  7  2  0
  6  8  1  0
  8  9  1  0
  9 10  1  0
 10 11  2  0
 11 12  1  0
 12 13  1  0
 13 14  2  0
 14 15  1  0
 15 16  2  0
 16 17  1  0
 16 18  1  0
 18 19  2  0
 12 20  2  0
 20 21  1  0
 21 22  2  0
 22 23  1  0
 22 24  1  0
 24 25  2  0
 25 26  1  0
 26 27  2  0
 27 10  1  0
 19 13  1  0
 27 21  1  0
  1 28  1  0
  1 29  1  0
  1 30  1  0
  3 31  1  0
  3 32  1  0
  4 33  1  0
  4 34  1  0
  8 35  1  0
  8 36  1  0
 14 37  1  0
 15 38  1  0
 18 39  1  0
 19 40  1  0
 23 41  1  0
 23 42  1  0
 23 43  1  0
 24 44  1  0
 25 45  1  0
 26 46  1  0
M  CHG  1   5  -1
M  END
>  <UniqueID>  (12) 
11

>  <SMILES>  (12) 
COCC[N-]C(=O)CSc1nc(-c2ccc(F)cc2)nc2c(C)cccc12

>  <Energy>  (12) 
46.19807091871489

>  <Genealogy>  (12) 
COCC[N-]C(=O)CSc1nc(-c2ccc(F)cc2)nc2c(C)cccc12 (protonated)
COCC[N-]C(=O)CSc1nc(-c2ccc(F)cc2)nc2c(C)cccc12 (3D coordinates assigned)
COCC[N-]C(=O)CSc1nc(-c2ccc(F)cc2)nc2c(C)cccc12 (optimized conformer: 46.19807091871489 kcal/mol)

>  <smiles>  (12) 
COCCNC(=O)CSc1nc(-c2ccc(F)cc2)nc2c(C)cccc12

>  <score_type>  (12) 
oracle

>  <origin>  (12) 
adg

>  <m_score__min__energy>  (12) 
-11.59

>  <m_primary>  (12) 
energy

$$$$
12:0
     RDKit          3D

 39 41  0  0  0  0  0  0  0  0999 V2000
   -6.4940   16.6790  -33.5460 C   0  0  0  0  0  0  0  0  0  0  0  0
   -5.8950   17.7330  -34.4690 C   0  0  0  0  0  0  0  0  0  0  0  0
   -6.0780   19.1010  -33.8920 C   0  0  0  0  0  0  0  0  0  0  0  0
   -5.0590   19.9580  -33.6530 N   0  0  0  0  0  0  0  0  0  0  0  0
   -5.6150   21.0100  -33.0770 N   0  0  0  0  0  0  0  0  0  0  0  0
   -6.9400   20.8030  -32.9920 C   0  0  0  0  0  0  0  0  0  0  0  0
   -7.2660   19.5930  -33.4760 N   0  0  0  0  0  0  0  0  0  0  0  0
   -7.8820   21.7530  -32.3150 C   0  0  0  0  0  0  0  0  0  0  0  0
   -7.2440   23.1480  -32.2020 C   0  0  0  0  0  0  0  0  0  0  0  0
   -5.7750   23.0520  -31.7130 C   0  0  2  0  0  0  0  0  0  0  0  0
   -5.1430   24.3500  -31.3730 N   0  0  0  0  0  0  0  0  0  0  0  0
   -5.3250   24.8450  -29.9960 C   0  0  0  0  0  0  0  0  0  0  0  0
   -4.1350   24.5480  -29.1380 C   0  0  0  0  0  0  0  0  0  0  0  0
   -4.2310   24.2350  -27.7840 C   0  0  0  0  0  0  0  0  0  0  0  0
   -2.6740   23.9710  -27.2070 S   0  0  0  0  0  0  0  0  0  0  0  0
   -1.9520   24.2760  -28.6930 C   0  0  0  0  0  0  0  0  0  0  0  0
   -0.4930   24.1570  -28.9710 C   0  0  0  0  0  0  0  0  0  0  0  0
   -2.8710   24.5570  -29.6420 N   0  0  0  0  0  0  0  0  0  0  0  0
   -4.9170   22.2390  -32.7070 C   0  0  0  0  0  0  0  0  0  0  0  0
   -6.3277   16.9716  -32.4987 H   0  0  0  0  0  0  0  0  0  0  0  0
   -7.5742   16.5960  -33.7365 H   0  0  0  0  0  0  0  0  0  0  0  0
   -6.0125   15.7085  -33.7365 H   0  0  0  0  0  0  0  0  0  0  0  0
   -4.8205   17.5345  -34.5957 H   0  0  0  0  0  0  0  0  0  0  0  0
   -6.4070   17.6861  -35.4415 H   0  0  0  0  0  0  0  0  0  0  0  0
   -8.2050   19.1370  -33.5020 H   0  0  0  0  0  0  0  0  0  0  0  0
   -8.8093   21.8246  -32.9023 H   0  0  0  0  0  0  0  0  0  0  0  0
   -8.1035   21.3781  -31.3049 H   0  0  0  0  0  0  0  0  0  0  0  0
   -7.2631   23.6329  -33.1892 H   0  0  0  0  0  0  0  0  0  0  0  0
   -7.8179   23.7366  -31.4711 H   0  0  0  0  0  0  0  0  0  0  0  0
   -5.8205   22.5130  -30.7552 H   0  0  0  0  0  0  0  0  0  0  0  0
   -4.1120   24.2480  -31.5230 H   0  0  0  0  0  0  0  0  0  0  0  0
   -5.4796   25.9337  -30.0263 H   0  0  0  0  0  0  0  0  0  0  0  0
   -6.1968   24.3344  -29.5610 H   0  0  0  0  0  0  0  0  0  0  0  0
   -5.1593   24.1719  -27.1973 H   0  0  0  0  0  0  0  0  0  0  0  0
    0.0589   24.1120  -28.0205 H   0  0  0  0  0  0  0  0  0  0  0  0
   -0.3034   23.2404  -29.5489 H   0  0  0  0  0  0  0  0  0  0  0  0
   -0.1574   25.0308  -29.5489 H   0  0  0  0  0  0  0  0  0  0  0  0
   -4.7355   22.8412  -33.6095 H   0  0  0  0  0  0  0  0  0  0  0  0
   -3.9585   21.9822  -32.2323 H   0  0  0  0  0  0  0  0  0  0  0  0
  1  2  1  0
  2  3  1  0
  3  4  2  0
  4  5  1  0
  5  6  1  0
  6  7  2  0
  6  8  1  0
  8  9  1  0
  9 10  1  0
 10 11  1  0
 11 12  1  0
 12 13  1  0
 13 14  2  0
 14 15  1  0
 15 16  1  0
 16 17  1  0
 16 18  2  0
 10 19  1  0
  7  3  1  0
 18 13  1  0
 19  5  1  0
  1 20  1  0
  1 21  1  0
  1 22  1  0
  2 23  1  0
  2 24  1  0
  7 25  1  0
  8 26  1  0
  8 27  1  0
  9 28  1  0
  9 29  1  0
 10 30  1  1
 11 31  1  0
 12 32  1  0
 12 33  1  0
 14 34  1  0
 17 35  1  0
 17 36  1  0
 17 37  1  0
 19 38  1  0
 19 39  1  0
M  CHG  1   7   1
M  END
>  <UniqueID>  (13) 
12

>  <SMILES>  (13) 
CCc1nn2c([nH+]1)CC[C@H](NCc1csc(C)n1)C2

>  <Energy>  (13) 
102.01991504629544

>  <Genealogy>  (13) 
CCc1nn2c([nH+]1)CCC(NCc1csc(C)n1)C2 (protonated)
CCc1nn2c([nH+]1)CC[C@H](NCc1csc(C)n1)C2 (chirality)
CCc1nn2c([nH+]1)CC[C@H](NCc1csc(C)n1)C2 (3D coordinates assigned)
CCc1nn2c([nH+]1)CC[C@H](NCc1csc(C)n1)C2 (nonaromatic ring conformer: 102.01991504629544 kcal/mol)

>  <smiles>  (13) 
CCc1nc2n(n1)CC(NCc1csc(C)n1)CC2

>  <score_type>  (13) 
oracle

>  <origin>  (13) 
adg

>  <m_score__min__energy>  (13) 
-7.1500000000000004

>  <m_primary>  (13) 
energy

$$$$
13:0
     RDKit          3D

 40 43  0  0  0  0  0  0  0  0999 V2000
   -9.2670   18.9420  -32.7120 C   0  0  0  0  0  0  0  0  0  0  0  0
   -8.4320   20.0820  -32.3130 N   0  0  0  0  0  0  0  0  0  0  0  0
   -7.0970   19.9530  -32.3000 N   0  0  0  0  0  0  0  0  0  0  0  0
   -6.2760   20.9810  -31.9380 C   0  0  0  0  0  0  0  0  0  0  0  0
   -6.8390   22.2010  -31.5280 C   0  0  0  0  0  0  0  0  0  0  0  0
   -8.2270   22.3350  -31.5430 C   0  0  0  0  0  0  0  0  0  0  0  0
   -9.0190   21.2590  -31.9360 C   0  0  0  0  0  0  0  0  0  0  0  0
  -10.2750   21.3850  -31.9400 O   0  0  0  0  0  0  0  0  0  0  0  0
   -5.9870   23.3840  -31.1330 C   0  0  0  0  0  0  0  0  0  0  0  0
   -4.5650   23.0310  -31.0270 N   0  0  0  0  0  0  0  0  0  0  0  0
   -3.6780   23.8860  -30.2840 C   0  0  0  0  0  0  0  0  0  0  0  0
   -3.5010   25.0770  -30.6600 O   0  0  0  0  0  0  0  0  0  0  0  0
   -2.9300   23.3720  -29.1150 C   0  0  0  0  0  0  0  0  0  0  0  0
   -3.1260   22.0440  -28.6710 C   0  0  0  0  0  0  0  0  0  0  0  0
   -2.3990   21.5320  -27.5760 C   0  0  0  0  0  0  0  0  0  0  0  0
   -1.4630   22.3340  -26.9050 C   0  0  0  0  0  0  0  0  0  0  0  0
   -1.2820   23.6370  -27.3570 C   0  0  0  0  0  0  0  0  0  0  0  0
   -0.4620   24.6360  -26.8790 C   0  0  0  0  0  0  0  0  0  0  0  0
   -0.7170   25.7340  -27.6910 C   0  0  0  0  0  0  0  0  0  0  0  0
   -1.6460   25.4340  -28.6270 N   0  0  0  0  0  0  0  0  0  0  0  0
   -1.9840   24.1470  -28.4210 C   0  0  0  0  0  0  0  0  0  0  0  0
   -4.0150   22.0710  -31.9860 C   0  0  0  0  0  0  0  0  0  0  0  0
   -4.7860   20.7580  -31.8900 C   0  0  0  0  0  0  0  0  0  0  0  0
   -9.6420   18.4300  -31.8136 H   0  0  0  0  0  0  0  0  0  0  0  0
  -10.1168   19.3017  -33.3107 H   0  0  0  0  0  0  0  0  0  0  0  0
   -8.6677   18.2403  -33.3107 H   0  0  0  0  0  0  0  0  0  0  0  0
   -6.6610   19.0410  -32.5700 H   0  0  0  0  0  0  0  0  0  0  0  0
   -8.6939   23.2857  -31.2459 H   0  0  0  0  0  0  0  0  0  0  0  0
   -6.1010   24.1722  -31.8918 H   0  0  0  0  0  0  0  0  0  0  0  0
   -6.3246   23.7291  -30.1446 H   0  0  0  0  0  0  0  0  0  0  0  0
   -3.8551   21.4015  -29.1864 H   0  0  0  0  0  0  0  0  0  0  0  0
   -2.5670   20.4963  -27.2455 H   0  0  0  0  0  0  0  0  0  0  0  0
   -0.8912   21.9449  -26.0496 H   0  0  0  0  0  0  0  0  0  0  0  0
    0.2425   24.5768  -26.0363 H   0  0  0  0  0  0  0  0  0  0  0  0
   -0.2294   26.7145  -27.5868 H   0  0  0  0  0  0  0  0  0  0  0  0
   -2.0290   26.0920  -29.3400 H   0  0  0  0  0  0  0  0  0  0  0  0
   -4.1067   22.4765  -33.0044 H   0  0  0  0  0  0  0  0  0  0  0  0
   -2.9542   21.8910  -31.7573 H   0  0  0  0  0  0  0  0  0  0  0  0
   -4.4951   20.1116  -32.7312 H   0  0  0  0  0  0  0  0  0  0  0  0
   -4.5410   20.2863  -30.9269 H   0  0  0  0  0  0  0  0  0  0  0  0
  1  2  1  0
  2  3  1  0
  3  4  2  0
  4  5  1  0
  5  6  2  0
  6  7  1  0
  7  8  2  0
  5  9  1  0
  9 10  1  0
 10 11  1  0
 11 12  2  0
 11 13  1  0
 13 14  2  0
 14 15  1  0
 15 16  2  0
 16 17  1  0
 17 18  1  0
 18 19  2  0
 19 20  1  0
 20 21  1  0
 10 22  1  0
 22 23  1  0
  7  2  1  0
 21 13  1  0
 23  4  1  0
 21 17  2  0
  1 24  1  0
  1 25  1  0
  1 26  1  0
  3 27  1  0
  6 28  1  0
  9 29  1  0
  9 30  1  0
 14 31  1  0
 15 32  1  0
 16 33  1  0
 18 34  1  0
 19 35  1  0
 20 36  1  0
 22 37  1  0
 22 38  1  0
 23 39  1  0
 23 40  1  0
M  CHG  1   3   1
M  END
>  <UniqueID>  (14) 
13

>  <SMILES>  (14) 
Cn1[nH+]c2c(cc1=O)CN(C(=O)c1cccc3cc[nH]c13)CC2

>  <Energy>  (14) 
85.1552998720183

>  <Genealogy>  (14) 
Cn1[nH+]c2c(cc1=O)CN(C(=O)c1cccc3cc[nH]c13)CC2 (protonated)
Cn1[nH+]c2c(cc1=O)CN(C(=O)c1cccc3cc[nH]c13)CC2 (3D coordinates assigned)
Cn1[nH+]c2c(cc1=O)CN(C(=O)c1cccc3cc[nH]c13)CC2 (nonaromatic ring conformer: 85.1552998720183 kcal/mol)

>  <smiles>  (14) 
Cn1nc2c(cc1=O)CN(C(=O)c1cccc3cc[nH]c13)CC2

>  <score_type>  (14) 
oracle

>  <origin>  (14) 
adg

>  <m_score__min__energy>  (14) 
-8.5800000000000001

>  <m_primary>  (14) 
energy

$$$$
14:0
     RDKit          3D

 33 35  0  0  0  0  0  0  0  0999 V2000
   -4.7010   17.3360  -34.9400 C   0  0  0  0  0  0  0  0  0  0  0  0
   -5.0090   18.6830  -34.5940 O   0  0  0  0  0  0  0  0  0  0  0  0
   -6.0490   19.0590  -33.7300 C   0  0  0  0  0  0  0  0  0  0  0  0
   -6.8800   18.0430  -33.2030 C   0  0  0  0  0  0  0  0  0  0  0  0
   -7.9410   18.3570  -32.3360 C   0  0  0  0  0  0  0  0  0  0  0  0
   -8.1450   19.6950  -32.0140 C   0  0  0  0  0  0  0  0  0  0  0  0
   -9.1020   20.2860  -31.2180 C   0  0  0  0  0  0  0  0  0  0  0  0
   -8.8370   21.6490  -31.2760 C   0  0  0  0  0  0  0  0  0  0  0  0
   -7.7600   21.8930  -32.0610 N   0  0  0  0  0  0  0  0  0  0  0  0
   -7.2320   23.2140  -32.4090 C   0  0  0  0  0  0  0  0  0  0  0  0
   -6.0590   23.5530  -31.5280 C   0  0  0  0  0  0  0  0  0  0  0  0
   -6.1540   24.5770  -30.5720 C   0  0  0  0  0  0  0  0  0  0  0  0
   -5.0680   24.8680  -29.7410 C   0  0  0  0  0  0  0  0  0  0  0  0
   -3.8800   24.1390  -29.8580 C   0  0  0  0  0  0  0  0  0  0  0  0
   -2.3980   24.5360  -28.7210 Br  0  0  0  0  0  0  0  0  0  0  0  0
   -3.7780   23.1180  -30.8090 C   0  0  0  0  0  0  0  0  0  0  0  0
   -4.8640   22.8250  -31.6400 C   0  0  0  0  0  0  0  0  0  0  0  0
   -7.3470   20.6910  -32.5150 C   0  0  0  0  0  0  0  0  0  0  0  0
   -6.2850   20.4110  -33.3780 C   0  0  0  0  0  0  0  0  0  0  0  0
   -4.5656   16.7437  -34.0230 H   0  0  0  0  0  0  0  0  0  0  0  0
   -5.5253   16.9119  -35.5321 H   0  0  0  0  0  0  0  0  0  0  0  0
   -3.7742   17.3122  -35.5321 H   0  0  0  0  0  0  0  0  0  0  0  0
   -6.6936   16.9936  -33.4751 H   0  0  0  0  0  0  0  0  0  0  0  0
   -8.5897   17.5694  -31.9250 H   0  0  0  0  0  0  0  0  0  0  0  0
   -9.9046   19.7856  -30.6564 H   0  0  0  0  0  0  0  0  0  0  0  0
   -9.4210   22.4229  -30.7563 H   0  0  0  0  0  0  0  0  0  0  0  0
   -6.9080   23.2106  -33.4602 H   0  0  0  0  0  0  0  0  0  0  0  0
   -8.0209   23.9663  -32.2620 H   0  0  0  0  0  0  0  0  0  0  0  0
   -7.0866   25.1525  -30.4765 H   0  0  0  0  0  0  0  0  0  0  0  0
   -5.1479   25.6715  -28.9940 H   0  0  0  0  0  0  0  0  0  0  0  0
   -2.8434   22.5456  -30.9031 H   0  0  0  0  0  0  0  0  0  0  0  0
   -4.7814   22.0200  -32.3851 H   0  0  0  0  0  0  0  0  0  0  0  0
   -5.6498   21.2174  -33.7732 H   0  0  0  0  0  0  0  0  0  0  0  0
  1  2  1  0
  2  3  1  0
  3  4  2  0
  4  5  1  0
  5  6  2  0
  6  7  1  0
  7  8  2  0
  8  9  1  0
  9 10  1  0
 10 11  1  0
 11 12  2  0
 12 13  1  0
 13 14  2  0
 14 15  1  0
 14 16  1  0
 16 17  2  0
  9 18  1  0
 18 19  2  0
 19  3  1  0
 18  6  1  0
 17 11  1  0
  1 20  1  0
  1 21  1  0
  1 22  1  0
  4 23  1  0
  5 24  1  0
  7 25  1  0
  8 26  1  0
 10 27  1  0
 10 28  1  0
 12 29  1  0
 13 30  1  0
 16 31  1  0
 17 32  1  0
 19 33  1  0
M  END
>  <UniqueID>  (15) 
14

>  <SMILES>  (15) 
COc1ccc2ccn(Cc3ccc(Br)cc3)c2c1

>  <Energy>  (15) 
65.99092755903555

>  <Genealogy>  (15) 
COc1ccc2ccn(Cc3ccc(Br)cc3)c2c1 (3D coordinates assigned)
COc1ccc2ccn(Cc3ccc(Br)cc3)c2c1 (optimized conformer: 65.99092755903555 kcal/mol)

>  <smiles>  (15) 
COc1ccc2ccn(Cc3ccc(Br)cc3)c2c1

>  <score_type>  (15) 
oracle

>  <origin>  (15) 
adg

>  <m_score__min__energy>  (15) 
-7.7599999999999998

>  <m_primary>  (15) 
energy

$$$$
15:0
     RDKit          3D

 44 46  0  0  0  0  0  0  0  0999 V2000
   -9.4850   21.9210  -31.2760 C   0  0  0  0  0  0  0  0  0  0  0  0
   -8.3060   21.1870  -31.8510 C   0  0  0  0  0  0  0  0  0  0  0  0
   -8.4360   19.8490  -32.0430 N   0  0  0  0  0  0  0  0  0  0  0  0
   -7.4350   19.0980  -32.5590 C   0  0  0  0  0  0  0  0  0  0  0  0
   -7.6140   17.7220  -32.7410 C   0  0  0  0  0  0  0  0  0  0  0  0
   -6.5840   16.9480  -33.2860 C   0  0  0  0  0  0  0  0  0  0  0  0
   -5.3750   17.5470  -33.6480 C   0  0  0  0  0  0  0  0  0  0  0  0
   -5.1890   18.9220  -33.4680 C   0  0  0  0  0  0  0  0  0  0  0  0
   -6.2210   19.7070  -32.9180 C   0  0  0  0  0  0  0  0  0  0  0  0
   -6.0870   21.0920  -32.7150 C   0  0  0  0  0  0  0  0  0  0  0  0
   -5.0090   21.6640  -33.0410 O   0  0  0  0  0  0  0  0  0  0  0  0
   -7.1200   21.8190  -32.1680 N   0  0  0  0  0  0  0  0  0  0  0  0
   -6.9470   23.2750  -31.9680 C   0  0  0  0  0  0  0  0  0  0  0  0
   -6.1700   23.5610  -30.6790 C   0  0  0  0  0  0  0  0  0  0  0  0
   -4.9380   24.3240  -31.0030 N   0  0  0  0  0  0  0  0  0  0  0  0
   -5.0200   25.7010  -30.4890 C   0  0  0  0  0  0  0  0  0  0  0  0
   -3.7180   23.6650  -30.4880 C   0  0  0  0  0  0  0  0  0  0  0  0
   -3.3540   24.1950  -29.1250 C   0  0  0  0  0  0  0  0  0  0  0  0
   -4.2470   24.0700  -28.0470 C   0  0  0  0  0  0  0  0  0  0  0  0
   -3.8900   24.5420  -26.7800 C   0  0  0  0  0  0  0  0  0  0  0  0
   -2.6450   25.1440  -26.5810 C   0  0  0  0  0  0  0  0  0  0  0  0
   -1.7550   25.2800  -27.6500 C   0  0  0  0  0  0  0  0  0  0  0  0
   -2.1090   24.8110  -28.9200 C   0  0  0  0  0  0  0  0  0  0  0  0
   -9.4358   21.8904  -30.1775 H   0  0  0  0  0  0  0  0  0  0  0  0
   -9.4663   22.9673  -31.6148 H   0  0  0  0  0  0  0  0  0  0  0  0
  -10.4157   21.4424  -31.6148 H   0  0  0  0  0  0  0  0  0  0  0  0
   -8.5651   17.2488  -32.4554 H   0  0  0  0  0  0  0  0  0  0  0  0
   -6.7262   15.8667  -33.4296 H   0  0  0  0  0  0  0  0  0  0  0  0
   -4.5667   16.9358  -34.0759 H   0  0  0  0  0  0  0  0  0  0  0  0
   -4.2362   19.3902  -33.7562 H   0  0  0  0  0  0  0  0  0  0  0  0
   -6.3939   23.6927  -32.8222 H   0  0  0  0  0  0  0  0  0  0  0  0
   -7.9410   23.7397  -31.8898 H   0  0  0  0  0  0  0  0  0  0  0  0
   -6.7980   24.1515  -29.9956 H   0  0  0  0  0  0  0  0  0  0  0  0
   -5.8968   22.6108  -30.1969 H   0  0  0  0  0  0  0  0  0  0  0  0
   -5.0189   25.6825  -29.3892 H   0  0  0  0  0  0  0  0  0  0  0  0
   -4.1546   26.2781  -30.8469 H   0  0  0  0  0  0  0  0  0  0  0  0
   -5.9477   26.1713  -30.8469 H   0  0  0  0  0  0  0  0  0  0  0  0
   -3.8965   22.5819  -30.4172 H   0  0  0  0  0  0  0  0  0  0  0  0
   -2.8879   23.8737  -31.1790 H   0  0  0  0  0  0  0  0  0  0  0  0
   -5.2295   23.5996  -28.2003 H   0  0  0  0  0  0  0  0  0  0  0  0
   -4.5908   24.4391  -25.9384 H   0  0  0  0  0  0  0  0  0  0  0  0
   -2.3651   25.5111  -25.5825 H   0  0  0  0  0  0  0  0  0  0  0  0
   -0.7758   25.7559  -27.4930 H   0  0  0  0  0  0  0  0  0  0  0  0
   -1.4092   24.9254  -29.7610 H   0  0  0  0  0  0  0  0  0  0  0  0
  1  2  1  0
  2  3  2  0
  3  4  1  0
  4  5  2  0
  5  6  1  0
  6  7  2  0
  7  8  1  0
  8  9  2  0
  9 10  1  0
 10 11  2  0
 10 12  1  0
 12 13  1  0
 13 14  1  0
 14 15  1  0
 15 16  1  0
 15 17  1  0
 17 18  1  0
 18 19  2  0
 19 20  1  0
 20 21  2  0
 21 22  1  0
 22 23  2  0
 12  2  1  0
 23 18  1  0
  9  4  1  0
  1 24  1  0
  1 25  1  0
  1 26  1  0
  5 27  1  0
  6 28  1  0
  7 29  1  0
  8 30  1  0
 13 31  1  0
 13 32  1  0
 14 33  1  0
 14 34  1  0
 16 35  1  0
 16 36  1  0
 16 37  1  0
 17 38  1  0
 17 39  1  0
 19 40  1  0
 20 41  1  0
 21 42  1  0
 22 43  1  0
 23 44  1  0
M  END
>  <UniqueID>  (16) 
15

>  <SMILES>  (16) 
Cc1nc2ccccc2c(=O)n1CCN(C)Cc1ccccc1

>  <Energy>  (16) 
53.00783138136748

>  <Genealogy>  (16) 
Cc1nc2ccccc2c(=O)n1CCN(C)Cc1ccccc1 (3D coordinates assigned)
Cc1nc2ccccc2c(=O)n1CCN(C)Cc1ccccc1 (optimized conformer: 53.00783138136748 kcal/mol)

>  <smiles>  (16) 
Cc1nc2ccccc2c(=O)n1CCN(C)Cc1ccccc1

>  <score_type>  (16) 
oracle

>  <origin>  (16) 
adg

>  <m_score__min__energy>  (16) 
-8.4199999999999999

>  <m_primary>  (16) 
energy

$$$$
16:0
     RDKit          3D

 51 54  0  0  0  0  0  0  0  0999 V2000
   -8.1060   23.2380  -32.0410 C   0  0  0  0  0  0  0  0  0  0  0  0
   -6.8360   23.6440  -31.3420 C   0  0  0  0  0  0  0  0  0  0  0  0
   -6.8570   24.7150  -30.4440 C   0  0  0  0  0  0  0  0  0  0  0  0
   -5.6970   25.0790  -29.7680 C   0  0  0  0  0  0  0  0  0  0  0  0
   -4.5220   24.3620  -29.9800 C   0  0  0  0  0  0  0  0  0  0  0  0
   -4.4920   23.2960  -30.8440 N   0  0  0  0  0  0  0  0  0  0  0  0
   -3.3310   22.5880  -31.0390 C   0  0  0  0  0  0  0  0  0  0  0  0
   -2.2770   22.9090  -30.4200 O   0  0  0  0  0  0  0  0  0  0  0  0
   -3.3060   21.4950  -31.9270 C   0  0  0  0  0  0  0  0  0  0  0  0
   -2.1440   20.7530  -32.1530 C   0  0  0  0  0  0  0  0  0  0  0  0
   -2.1540   19.6720  -33.0360 C   0  0  0  0  0  0  0  0  0  0  0  0
   -0.9010   18.8990  -33.2100 C   0  0  0  0  0  0  0  0  0  0  0  0
   -0.2080   18.6100  -32.1940 O   0  0  0  0  0  0  0  0  0  0  0  0
   -0.4650   18.4860  -34.5260 N   0  0  0  0  0  0  0  0  0  0  0  0
    0.2120   19.5970  -35.2130 C   0  0  0  0  0  0  0  0  0  0  0  0
    0.4240   17.3180  -34.4200 C   0  0  0  0  0  0  0  0  0  0  0  0
   -3.3560   19.3450  -33.7130 C   0  0  0  0  0  0  0  0  0  0  0  0
   -3.3770   18.3870  -34.5950 N   0  0  0  0  0  0  0  0  0  0  0  0
   -4.5060   20.0690  -33.4690 N   0  0  0  0  0  0  0  0  0  0  0  0
   -5.7810   19.6860  -34.1220 C   0  0  0  0  0  0  0  0  0  0  0  0
   -6.8130   19.3150  -33.0880 C   0  0  0  0  0  0  0  0  0  0  0  0
   -6.5970   18.2240  -32.2270 C   0  0  0  0  0  0  0  0  0  0  0  0
   -7.5730   17.8540  -31.2970 C   0  0  0  0  0  0  0  0  0  0  0  0
   -8.7720   18.5660  -31.2200 C   0  0  0  0  0  0  0  0  0  0  0  0
   -8.9960   19.6530  -32.0690 C   0  0  0  0  0  0  0  0  0  0  0  0
   -8.0220   20.0260  -33.0000 C   0  0  0  0  0  0  0  0  0  0  0  0
   -4.4870   21.1340  -32.5940 C   0  0  0  0  0  0  0  0  0  0  0  0
   -5.6090   21.8640  -32.3670 N   0  0  0  0  0  0  0  0  0  0  0  0
   -5.6350   22.9270  -31.5210 C   0  0  0  0  0  0  0  0  0  0  0  0
   -8.8740   22.9925  -31.2927 H   0  0  0  0  0  0  0  0  0  0  0  0
   -8.4595   24.0679  -32.6705 H   0  0  0  0  0  0  0  0  0  0  0  0
   -7.9125   22.3569  -32.6705 H   0  0  0  0  0  0  0  0  0  0  0  0
   -7.7910   25.2701  -30.2719 H   0  0  0  0  0  0  0  0  0  0  0  0
   -5.7077   25.9288  -29.0696 H   0  0  0  0  0  0  0  0  0  0  0  0
   -3.6050   24.6542  -29.4474 H   0  0  0  0  0  0  0  0  0  0  0  0
   -1.2141   21.0228  -31.6311 H   0  0  0  0  0  0  0  0  0  0  0  0
   -1.2930   18.2060  -35.1020 H   0  0  0  0  0  0  0  0  0  0  0  0
    0.6327   20.2874  -34.4671 H   0  0  0  0  0  0  0  0  0  0  0  0
    1.0217   19.1998  -35.8428 H   0  0  0  0  0  0  0  0  0  0  0  0
   -0.5122   20.1345  -35.8428 H   0  0  0  0  0  0  0  0  0  0  0  0
    0.6003   17.0864  -33.3592 H   0  0  0  0  0  0  0  0  0  0  0  0
   -0.0466   16.4533  -34.9108 H   0  0  0  0  0  0  0  0  0  0  0  0
    1.3828   17.5412  -34.9108 H   0  0  0  0  0  0  0  0  0  0  0  0
   -3.9260   17.5030  -34.5120 H   0  0  0  0  0  0  0  0  0  0  0  0
   -6.1524   20.5340  -34.7161 H   0  0  0  0  0  0  0  0  0  0  0  0
   -5.6007   18.8174  -34.7724 H   0  0  0  0  0  0  0  0  0  0  0  0
   -5.6551   17.6589  -32.2857 H   0  0  0  0  0  0  0  0  0  0  0  0
   -7.3964   17.0011  -30.6251 H   0  0  0  0  0  0  0  0  0  0  0  0
   -9.5406   18.2709  -30.4905 H   0  0  0  0  0  0  0  0  0  0  0  0
   -9.9391   20.2155  -32.0048 H   0  0  0  0  0  0  0  0  0  0  0  0
   -8.2031   20.8812  -33.6677 H   0  0  0  0  0  0  0  0  0  0  0  0
  1  2  1  0
  2  3  2  0
  3  4  1  0
  4  5  2  0
  5  6  1  0
  6  7  1  0
  7  8  2  0
  7  9  1  0
  9 10  1  0
 10 11  2  0
 11 12  1  0
 12 13  2  0
 12 14  1  0
 14 15  1  0
 14 16  1  0
 11 17  1  0
 17 18  2  3
 17 19  1  0
 19 20  1  0
 20 21  1  0
 21 22  2  0
 22 23  1  0
 23 24  2  0
 24 25  1  0
 25 26  2  0
 19 27  1  0
 27 28  1  0
 28 29  2  0
 29  2  1  0
 29  6  1  0
 27  9  2  0
 26 21  1  0
  1 30  1  0
  1 31  1  0
  1 32  1  0
  3 33  1  0
  4 34  1  0
  5 35  1  0
 10 36  1  0
 14 37  1  0
 15 38  1  0
 15 39  1  0
 15 40  1  0
 16 41  1  0
 16 42  1  0
 16 43  1  0
 18 44  1  0
 20 45  1  0
 20 46  1  0
 22 47  1  0
 23 48  1  0
 24 49  1  0
 25 50  1  0
 26 51  1  0
M  CHG  1  14   1
M  END
>  <UniqueID>  (17) 
16

>  <SMILES>  (17) 
Cc1cccn2c(=O)c3cc(C(=O)[NH+](C)C)c(=N)n(Cc4ccccc4)c3nc12

>  <Energy>  (17) 
77.30138382847345

>  <Genealogy>  (17) 
Cc1cccn2c(=O)c3cc(C(=O)[NH+](C)C)c(=N)n(Cc4ccccc4)c3nc12 (protonated)
Cc1cccn2c(=O)c3cc(C(=O)[NH+](C)C)c(=N)n(Cc4ccccc4)c3nc12 (3D coordinates assigned)
Cc1cccn2c(=O)c3cc(C(=O)[NH+](C)C)c(=N)n(Cc4ccccc4)c3nc12 (optimized conformer: 77.30138382847345 kcal/mol)

>  <smiles>  (17) 
Cc1cccn2c(=O)c3cc(C(=O)N(C)C)c(=N)n(Cc4ccccc4)c3nc12

>  <score_type>  (17) 
oracle

>  <origin>  (17) 
adg

>  <m_score__min__energy>  (17) 
-7.6600000000000001

>  <m_primary>  (17) 
energy

$$$$
17:0
     RDKit          3D

 50 52  0  0  0  0  0  0  0  0999 V2000
   -5.7370   25.7350  -30.1410 C   0  0  0  0  0  0  0  0  0  0  0  0
   -5.0020   24.4640  -30.4050 C   0  0  0  0  0  0  0  0  0  0  0  0
   -4.2340   23.7720  -29.4890 C   0  0  0  0  0  0  0  0  0  0  0  0
   -3.7480   22.6710  -30.1640 C   0  0  0  0  0  0  0  0  0  0  0  0
   -4.2550   22.7670  -31.4470 C   0  0  0  0  0  0  0  0  0  0  0  0
   -4.0340   21.7840  -32.5560 C   0  0  0  0  0  0  0  0  0  0  0  0
   -4.7690   20.5310  -32.2800 N   0  0  0  0  0  0  0  0  0  0  0  0
   -3.8810   19.3500  -32.4490 C   0  0  0  0  0  0  0  0  0  0  0  0
   -3.8290   18.9040  -33.9230 C   0  0  0  0  0  0  0  0  0  0  0  0
   -4.4480   17.5820  -34.1640 N   0  0  0  0  0  0  0  0  0  0  0  0
   -4.2340   16.5920  -33.0870 C   0  0  0  0  0  0  0  0  0  0  0  0
   -5.3850   16.5620  -32.0480 C   0  0  0  0  0  0  0  0  0  0  0  0
   -6.5610   17.2300  -32.4630 O   0  0  0  0  0  0  0  0  0  0  0  0
   -6.8410   16.9300  -33.8100 C   0  0  0  0  0  0  0  0  0  0  0  0
   -5.8220   17.6280  -34.7180 C   0  0  0  0  0  0  0  0  0  0  0  0
   -5.9830   20.4330  -33.1240 C   0  0  0  0  0  0  0  0  0  0  0  0
   -7.0930   21.2550  -32.5320 C   0  0  0  0  0  0  0  0  0  0  0  0
   -7.1380   22.6010  -32.6160 N   0  0  0  0  0  0  0  0  0  0  0  0
   -8.2800   22.9640  -31.9990 C   0  0  0  0  0  0  0  0  0  0  0  0
   -8.9220   21.8260  -31.5470 C   0  0  0  0  0  0  0  0  0  0  0  0
   -8.1740   20.7570  -31.8860 N   0  0  0  0  0  0  0  0  0  0  0  0
   -8.4750   19.3610  -31.5800 C   0  0  0  0  0  0  0  0  0  0  0  0
   -4.9950   23.8470  -31.5640 O   0  0  0  0  0  0  0  0  0  0  0  0
   -5.8258   25.8885  -29.0554 H   0  0  0  0  0  0  0  0  0  0  0  0
   -5.1861   26.5765  -30.5865 H   0  0  0  0  0  0  0  0  0  0  0  0
   -6.7411   25.6772  -30.5865 H   0  0  0  0  0  0  0  0  0  0  0  0
   -4.0483   24.0425  -28.4391 H   0  0  0  0  0  0  0  0  0  0  0  0
   -3.0939   21.8818  -29.7649 H   0  0  0  0  0  0  0  0  0  0  0  0
   -4.3937   22.2158  -33.5016 H   0  0  0  0  0  0  0  0  0  0  0  0
   -2.9593   21.5615  -32.6303 H   0  0  0  0  0  0  0  0  0  0  0  0
   -2.8659   19.6129  -32.1168 H   0  0  0  0  0  0  0  0  0  0  0  0
   -4.2815   18.5215  -31.8463 H   0  0  0  0  0  0  0  0  0  0  0  0
   -4.3584   19.6520  -34.5315 H   0  0  0  0  0  0  0  0  0  0  0  0
   -2.7671   18.8177  -34.1966 H   0  0  0  0  0  0  0  0  0  0  0  0
   -4.1471   15.5941  -33.5415 H   0  0  0  0  0  0  0  0  0  0  0  0
   -3.3180   16.8833  -32.5521 H   0  0  0  0  0  0  0  0  0  0  0  0
   -5.6390   15.5111  -31.8453 H   0  0  0  0  0  0  0  0  0  0  0  0
   -5.0189   17.0927  -31.1567 H   0  0  0  0  0  0  0  0  0  0  0  0
   -6.7815   15.8422  -33.9622 H   0  0  0  0  0  0  0  0  0  0  0  0
   -7.8525   17.2833  -34.0590 H   0  0  0  0  0  0  0  0  0  0  0  0
   -5.8242   17.1309  -35.6993 H   0  0  0  0  0  0  0  0  0  0  0  0
   -6.1152   18.6849  -34.8014 H   0  0  0  0  0  0  0  0  0  0  0  0
   -5.7546   20.8042  -34.1340 H   0  0  0  0  0  0  0  0  0  0  0  0
   -6.3019   19.3814  -33.1742 H   0  0  0  0  0  0  0  0  0  0  0  0
   -6.4370   23.2330  -33.0630 H   0  0  0  0  0  0  0  0  0  0  0  0
   -8.6416   23.9955  -31.8754 H   0  0  0  0  0  0  0  0  0  0  0  0
   -9.8784   21.7978  -31.0043 H   0  0  0  0  0  0  0  0  0  0  0  0
   -8.5048   19.2229  -30.4891 H   0  0  0  0  0  0  0  0  0  0  0  0
   -9.4514   19.0936  -32.0102 H   0  0  0  0  0  0  0  0  0  0  0  0
   -7.6955   18.7150  -32.0102 H   0  0  0  0  0  0  0  0  0  0  0  0
  1  2  1  0
  2  3  2  0
  3  4  1  0
  4  5  2  0
  5  6  1  0
  6  7  1  0
  7  8  1  0
  8  9  1  0
  9 10  1  0
 10 11  1  0
 11 12  1  0
 12 13  1  0
 13 14  1  0
 14 15  1  0
  7 16  1  0
 16 17  1  0
 17 18  2  0
 18 19  1  0
 19 20  2  0
 20 21  1  0
 21 22  1  0
  5 23  1  0
 23  2  1  0
 15 10  1  0
 21 17  1  0
  1 24  1  0
  1 25  1  0
  1 26  1  0
  3 27  1  0
  4 28  1  0
  6 29  1  0
  6 30  1  0
  8 31  1  0
  8 32  1  0
  9 33  1  0
  9 34  1  0
 11 35  1  0
 11 36  1  0
 12 37  1  0
 12 38  1  0
 14 39  1  0
 14 40  1  0
 15 41  1  0
 15 42  1  0
 16 43  1  0
 16 44  1  0
 18 45  1  0
 19 46  1  0
 20 47  1  0
 22 48  1  0
 22 49  1  0
 22 50  1  0
M  CHG  1  18   1
M  END
>  <UniqueID>  (18) 
17

>  <SMILES>  (18) 
Cc1ccc(CN(CCN2CCOCC2)Cc2[nH+]ccn2C)o1

>  <Energy>  (18) 
120.20337233274853

>  <Genealogy>  (18) 
Cc1ccc(CN(CCN2CCOCC2)Cc2[nH+]ccn2C)o1 (protonated)
Cc1ccc(CN(CCN2CCOCC2)Cc2[nH+]ccn2C)o1 (3D coordinates assigned)
Cc1ccc(CN(CCN2CCOCC2)Cc2[nH+]ccn2C)o1 (nonaromatic ring conformer: 120.20337233274853 kcal/mol)

>  <smiles>  (18) 
Cc1ccc(CN(CCN2CCOCC2)Cc2nccn2C)o1

>  <score_type>  (18) 
oracle

>  <origin>  (18) 
adg

>  <m_score__min__energy>  (18) 
-7.2800000000000002

>  <m_primary>  (18) 
energy

$$$$
18:0
     RDKit          3D

 40 41  0  0  0  0  0  0  0  0999 V2000
   -9.1020   18.9560  -32.0540 C   0  0  0  0  0  0  0  0  0  0  0  0
   -7.9050   18.2550  -31.4200 C   0  0  0  0  0  0  0  0  0  0  0  0
   -6.6360   18.8190  -31.9590 N   0  0  0  0  0  0  0  0  0  0  0  0
   -5.8310   17.7930  -32.6620 C   0  0  0  0  0  0  0  0  0  0  0  0
   -6.0780   17.8200  -34.1700 C   0  0  0  0  0  0  0  0  0  0  0  0
   -6.9010   19.9630  -32.8650 C   0  0  0  0  0  0  0  0  0  0  0  0
   -5.8390   21.0430  -32.7270 C   0  0  0  0  0  0  0  0  0  0  0  0
   -4.5850   20.7870  -33.3060 C   0  0  0  0  0  0  0  0  0  0  0  0
   -3.4990   21.5980  -32.9910 C   0  0  0  0  0  0  0  0  0  0  0  0
   -2.3650   21.3470  -33.4740 O   0  0  0  0  0  0  0  0  0  0  0  0
   -3.6480   22.6210  -32.1640 O   0  0  0  0  0  0  0  0  0  0  0  0
   -4.8230   22.9670  -31.6510 C   0  0  0  0  0  0  0  0  0  0  0  0
   -4.8680   24.0600  -30.7820 C   0  0  0  0  0  0  0  0  0  0  0  0
   -6.0800   24.4880  -30.2410 C   0  0  0  0  0  0  0  0  0  0  0  0
   -6.1180   25.6730  -29.3220 C   0  0  0  0  0  0  0  0  0  0  0  0
   -7.2680   23.8860  -30.6620 C   0  0  0  0  0  0  0  0  0  0  0  0
   -7.2600   22.8090  -31.5690 C   0  0  0  0  0  0  0  0  0  0  0  0
   -8.5970   22.4200  -32.1490 C   0  0  0  0  0  0  0  0  0  0  0  0
   -6.0080   22.2510  -31.9820 C   0  0  0  0  0  0  0  0  0  0  0  0
   -9.7618   19.3424  -31.2632 H   0  0  0  0  0  0  0  0  0  0  0  0
   -8.7499   19.7906  -32.6780 H   0  0  0  0  0  0  0  0  0  0  0  0
   -9.6576   18.2406  -32.6780 H   0  0  0  0  0  0  0  0  0  0  0  0
   -7.9337   18.4006  -30.3301 H   0  0  0  0  0  0  0  0  0  0  0  0
   -7.9504   17.1816  -31.6559 H   0  0  0  0  0  0  0  0  0  0  0  0
   -4.7645   17.9837  -32.4715 H   0  0  0  0  0  0  0  0  0  0  0  0
   -6.1271   16.8039  -32.2825 H   0  0  0  0  0  0  0  0  0  0  0  0
   -7.1545   17.9377  -34.3632 H   0  0  0  0  0  0  0  0  0  0  0  0
   -5.5310   18.6637  -34.6161 H   0  0  0  0  0  0  0  0  0  0  0  0
   -5.7262   16.8781  -34.6161 H   0  0  0  0  0  0  0  0  0  0  0  0
   -6.9097   19.6013  -33.9038 H   0  0  0  0  0  0  0  0  0  0  0  0
   -7.8735   20.3995  -32.5933 H   0  0  0  0  0  0  0  0  0  0  0  0
   -4.4619   19.9478  -34.0064 H   0  0  0  0  0  0  0  0  0  0  0  0
   -3.9387   24.5880  -30.5221 H   0  0  0  0  0  0  0  0  0  0  0  0
   -6.1069   25.3276  -28.2777 H   0  0  0  0  0  0  0  0  0  0  0  0
   -5.2398   26.3090  -29.5072 H   0  0  0  0  0  0  0  0  0  0  0  0
   -7.0352   26.2514  -29.5072 H   0  0  0  0  0  0  0  0  0  0  0  0
   -8.2282   24.2605  -30.2776 H   0  0  0  0  0  0  0  0  0  0  0  0
   -9.3049   22.2140  -31.3326 H   0  0  0  0  0  0  0  0  0  0  0  0
   -8.9815   23.2435  -32.7687 H   0  0  0  0  0  0  0  0  0  0  0  0
   -8.4796   21.5188  -32.7687 H   0  0  0  0  0  0  0  0  0  0  0  0
  1  2  1  0
  2  3  1  0
  3  4  1  0
  4  5  1  0
  3  6  1  0
  6  7  1  0
  7  8  2  0
  8  9  1  0
  9 10  2  0
  9 11  1  0
 11 12  1  0
 12 13  2  0
 13 14  1  0
 14 15  1  0
 14 16  2  0
 16 17  1  0
 17 18  1  0
 17 19  2  0
 19  7  1  0
 19 12  1  0
  1 20  1  0
  1 21  1  0
  1 22  1  0
  2 23  1  0
  2 24  1  0
  4 25  1  0
  4 26  1  0
  5 27  1  0
  5 28  1  0
  5 29  1  0
  6 30  1  0
  6 31  1  0
  8 32  1  0
 13 33  1  0
 15 34  1  0
 15 35  1  0
 15 36  1  0
 16 37  1  0
 18 38  1  0
 18 39  1  0
 18 40  1  0
M  END
>  <UniqueID>  (19) 
18

>  <SMILES>  (19) 
CCN(CC)Cc1cc(=O)oc2cc(C)cc(C)c12

>  <Energy>  (19) 
56.89613280939586

>  <Genealogy>  (19) 
CCN(CC)Cc1cc(=O)oc2cc(C)cc(C)c12 (3D coordinates assigned)
CCN(CC)Cc1cc(=O)oc2cc(C)cc(C)c12 (optimized conformer: 56.89613280939586 kcal/mol)

>  <smiles>  (19) 
CCN(CC)Cc1cc(=O)oc2cc(C)cc(C)c12

>  <score_type>  (19) 
oracle

>  <origin>  (19) 
adg

>  <m_score__min__energy>  (19) 
-7.1100000000000003

>  <m_primary>  (19) 
energy

$$$$
19:0
     RDKit          3D

 38 39  0  0  0  0  0  0  0  0999 V2000
   -3.2200   21.5520  -33.4020 C   0  0  0  0  0  0  0  0  0  0  0  0
   -3.1100   20.8820  -32.0360 C   0  0  0  0  0  0  0  0  0  0  0  0
   -2.9410   21.8980  -30.9710 N   0  0  0  0  0  0  0  0  0  0  0  0
   -1.5230   22.3020  -30.8330 C   0  0  0  0  0  0  0  0  0  0  0  0
   -0.8430   21.4940  -29.7320 C   0  0  0  0  0  0  0  0  0  0  0  0
   -3.5150   21.4440  -29.6780 C   0  0  0  0  0  0  0  0  0  0  0  0
   -3.9730   22.6490  -28.8500 C   0  0  0  0  0  0  0  0  0  0  0  0
   -4.4010   23.8010  -29.7190 C   0  0  0  0  0  0  0  0  0  0  0  0
   -5.4340   23.8620  -30.6440 C   0  0  0  0  0  0  0  0  0  0  0  0
   -6.4490   22.8370  -30.9500 C   0  0  0  0  0  0  0  0  0  0  0  0
   -7.6080   22.7050  -30.1650 C   0  0  0  0  0  0  0  0  0  0  0  0
   -8.5570   21.7240  -30.4690 C   0  0  0  0  0  0  0  0  0  0  0  0
   -8.3630   20.8760  -31.5620 C   0  0  0  0  0  0  0  0  0  0  0  0
   -7.2240   21.0130  -32.3580 C   0  0  0  0  0  0  0  0  0  0  0  0
   -6.2730   21.9930  -32.0580 C   0  0  0  0  0  0  0  0  0  0  0  0
   -5.2950   25.0100  -31.3460 N   0  0  0  0  0  0  0  0  0  0  0  0
   -4.2440   25.6030  -30.8580 O   0  0  0  0  0  0  0  0  0  0  0  0
   -3.6910   24.9250  -29.9000 N   0  0  0  0  0  0  0  0  0  0  0  0
   -2.5180   25.2700  -29.2730 O   0  0  0  0  0  0  0  0  0  0  0  0
   -3.3969   22.6295  -33.2687 H   0  0  0  0  0  0  0  0  0  0  0  0
   -2.2849   21.4003  -33.9611 H   0  0  0  0  0  0  0  0  0  0  0  0
   -4.0575   21.1093  -33.9611 H   0  0  0  0  0  0  0  0  0  0  0  0
   -4.0251   20.3033  -31.8421 H   0  0  0  0  0  0  0  0  0  0  0  0
   -2.2334   20.2175  -32.0356 H   0  0  0  0  0  0  0  0  0  0  0  0
   -1.0020   22.1262  -31.7857 H   0  0  0  0  0  0  0  0  0  0  0  0
   -1.4807   23.3691  -30.5695 H   0  0  0  0  0  0  0  0  0  0  0  0
   -1.1615   21.8724  -28.7495 H   0  0  0  0  0  0  0  0  0  0  0  0
   -1.1258   20.4352  -29.8263 H   0  0  0  0  0  0  0  0  0  0  0  0
    0.2486   21.5918  -29.8263 H   0  0  0  0  0  0  0  0  0  0  0  0
   -4.3767   20.7887  -29.8731 H   0  0  0  0  0  0  0  0  0  0  0  0
   -2.7448   20.8947  -29.1166 H   0  0  0  0  0  0  0  0  0  0  0  0
   -4.8219   22.3449  -28.2201 H   0  0  0  0  0  0  0  0  0  0  0  0
   -3.1225   22.9832  -28.2377 H   0  0  0  0  0  0  0  0  0  0  0  0
   -7.7688   23.3761  -29.3084 H   0  0  0  0  0  0  0  0  0  0  0  0
   -9.4578   21.6199  -29.8464 H   0  0  0  0  0  0  0  0  0  0  0  0
   -9.1073   20.1005  -31.7955 H   0  0  0  0  0  0  0  0  0  0  0  0
   -7.0747   20.3490  -33.2222 H   0  0  0  0  0  0  0  0  0  0  0  0
   -5.3820   22.1033  -32.6936 H   0  0  0  0  0  0  0  0  0  0  0  0
  1  2  1  0
  2  3  1  0
  3  4  1  0
  4  5  1  0
  3  6  1  0
  6  7  1  0
  7  8  1  0
  8  9  1  0
  9 10  1  0
 10 11  2  0
 11 12  1  0
 12 13  2  0
 13 14  1  0
 14 15  2  0
  9 16  2  0
 16 17  1  0
 17 18  1  0
 18 19  1  0
 18  8  2  0
 15 10  1  0
  1 20  1  0
  1 21  1  0
  1 22  1  0
  2 23  1  0
  2 24  1  0
  4 25  1  0
  4 26  1  0
  5 27  1  0
  5 28  1  0
  5 29  1  0
  6 30  1  0
  6 31  1  0
  7 32  1  0
  7 33  1  0
 11 34  1  0
 12 35  1  0
 13 36  1  0
 14 37  1  0
 15 38  1  0
M  CHG  2  18   1  19  -1
M  END
>  <UniqueID>  (20) 
19

>  <SMILES>  (20) 
CCN(CC)CCc1c(-c2ccccc2)no[n+]1[O-]

>  <Energy>  (20) 
75.86021008381275

>  <Genealogy>  (20) 
CCN(CC)CCc1c(-c2ccccc2)no[n+]1[O-] (3D coordinates assigned)
CCN(CC)CCc1c(-c2ccccc2)no[n+]1[O-] (optimized conformer: 75.86021008381275 kcal/mol)

>  <smiles>  (20) 
CCN(CC)CCc1c(-c2ccccc2)no[n+]1[O-]

>  <score_type>  (20) 
oracle

>  <origin>  (20) 
adg

>  <m_score__min__energy>  (20) 
-8.3699999999999992

>  <m_primary>  (20) 
energy

$$$$
20:0
     RDKit          3D

 36 38  0  0  0  0  0  0  0  0999 V2000
    0.5200   20.3370  -28.2060 C   0  0  0  0  0  0  0  0  0  0  0  0
    0.2640   21.7330  -28.1030 O   0  0  0  0  0  0  0  0  0  0  0  0
   -0.8230   22.3900  -28.7020 C   0  0  0  0  0  0  0  0  0  0  0  0
   -1.9170   21.6840  -29.2410 C   0  0  0  0  0  0  0  0  0  0  0  0
   -2.9800   22.3710  -29.8300 C   0  0  0  0  0  0  0  0  0  0  0  0
   -4.0300   21.6820  -30.3470 N   0  0  0  0  0  0  0  0  0  0  0  0
   -5.0830   22.3200  -30.9270 C   0  0  0  0  0  0  0  0  0  0  0  0
   -6.2170   21.5410  -31.4850 C   0  0  0  0  0  0  0  0  0  0  0  0
   -7.5430   21.9790  -31.3070 C   0  0  0  0  0  0  0  0  0  0  0  0
   -8.6110   21.2450  -31.8320 C   0  0  0  0  0  0  0  0  0  0  0  0
   -8.3730   20.0620  -32.5440 C   0  0  0  0  0  0  0  0  0  0  0  0
   -9.4650   19.3120  -33.0810 N   0  0  0  0  0  0  0  0  0  0  0  0
   -7.0560   19.6200  -32.7260 C   0  0  0  0  0  0  0  0  0  0  0  0
   -5.9870   20.3520  -32.2010 C   0  0  0  0  0  0  0  0  0  0  0  0
   -5.0850   23.6800  -30.9920 N   0  0  0  0  0  0  0  0  0  0  0  0
   -4.0620   24.4200  -30.4910 C   0  0  0  0  0  0  0  0  0  0  0  0
   -4.1120   25.6760  -30.5760 O   0  0  0  0  0  0  0  0  0  0  0  0
   -2.9680   23.7770  -29.8880 C   0  0  0  0  0  0  0  0  0  0  0  0
   -1.8790   24.4850  -29.3520 C   0  0  0  0  0  0  0  0  0  0  0  0
   -0.8050   23.7940  -28.7580 C   0  0  0  0  0  0  0  0  0  0  0  0
    0.3010   24.4650  -28.2110 O   0  0  0  0  0  0  0  0  0  0  0  0
    0.5680   24.5790  -26.8170 C   0  0  0  0  0  0  0  0  0  0  0  0
    0.5995   19.9035  -27.1982 H   0  0  0  0  0  0  0  0  0  0  0  0
   -0.3042   19.8522  -28.7497 H   0  0  0  0  0  0  0  0  0  0  0  0
    1.4626   20.1762  -28.7497 H   0  0  0  0  0  0  0  0  0  0  0  0
   -1.9335   20.5850  -29.1974 H   0  0  0  0  0  0  0  0  0  0  0  0
   -7.7406   22.9068  -30.7500 H   0  0  0  0  0  0  0  0  0  0  0  0
   -9.6425   21.5978  -31.6854 H   0  0  0  0  0  0  0  0  0  0  0  0
  -10.0310   18.6810  -32.4710 H   0  0  0  0  0  0  0  0  0  0  0  0
   -9.7160   19.3820  -34.0930 H   0  0  0  0  0  0  0  0  0  0  0  0
   -6.8622   18.6925  -33.2847 H   0  0  0  0  0  0  0  0  0  0  0  0
   -4.9570   19.9952  -32.3490 H   0  0  0  0  0  0  0  0  0  0  0  0
   -1.8652   25.5840  -29.3965 H   0  0  0  0  0  0  0  0  0  0  0  0
   -0.2970   24.2097  -26.2466 H   0  0  0  0  0  0  0  0  0  0  0  0
    1.4563   23.9817  -26.5638 H   0  0  0  0  0  0  0  0  0  0  0  0
    0.7510   25.6337  -26.5638 H   0  0  0  0  0  0  0  0  0  0  0  0
  1  2  1  0
  2  3  1  0
  3  4  2  0
  4  5  1  0
  5  6  1  0
  6  7  2  0
  7  8  1  0
  8  9  2  0
  9 10  1  0
 10 11  2  0
 11 12  1  0
 11 13  1  0
 13 14  2  0
  7 15  1  0
 15 16  1  0
 16 17  2  0
 16 18  1  0
 18 19  1  0
 19 20  2  0
 20 21  1  0
 21 22  1  0
 20  3  1  0
 18  5  2  0
 14  8  1  0
  1 23  1  0
  1 24  1  0
  1 25  1  0
  4 26  1  0
  9 27  1  0
 10 28  1  0
 12 29  1  0
 12 30  1  0
 13 31  1  0
 14 32  1  0
 19 33  1  0
 22 34  1  0
 22 35  1  0
 22 36  1  0
M  CHG  1  15  -1
M  END
>  <UniqueID>  (21) 
20

>  <SMILES>  (21) 
COc1cc2nc(-c3ccc(N)cc3)[n-]c(=O)c2cc1OC

>  <Energy>  (21) 
42.81465530799942

>  <Genealogy>  (21) 
COc1cc2nc(-c3ccc(N)cc3)[n-]c(=O)c2cc1OC (protonated)
COc1cc2nc(-c3ccc(N)cc3)[n-]c(=O)c2cc1OC (3D coordinates assigned)
COc1cc2nc(-c3ccc(N)cc3)[n-]c(=O)c2cc1OC (optimized conformer: 42.81465530799942 kcal/mol)

>  <smiles>  (21) 
COc1cc2nc(-c3ccc(N)cc3)[nH]c(=O)c2cc1OC

>  <score_type>  (21) 
oracle

>  <origin>  (21) 
adg

>  <m_score__min__energy>  (21) 
-7.4800000000000004

>  <m_primary>  (21) 
energy

$$$$
21:0
     RDKit          3D

 37 39  0  0  1  0  0  0  0  0999 V2000
   -6.8810   24.4870  -30.4720 C   0  0  0  0  0  0  0  0  0  0  0  0
   -7.2100   23.2610  -31.1750 N   0  0  0  0  0  0  0  0  0  0  0  0
   -8.4780   23.0420  -31.6040 C   0  0  0  0  0  0  0  0  0  0  0  0
   -8.4880   21.8060  -32.1770 C   0  0  0  0  0  0  0  0  0  0  0  0
   -7.2510   21.3270  -32.0790 N   0  0  0  0  0  0  0  0  0  0  0  0
   -6.9040   20.0240  -32.5910 C   0  0  0  0  0  0  0  0  0  0  0  0
   -7.4140   18.9450  -31.8970 C   0  0  0  0  0  0  0  0  0  0  0  0
   -7.1080   17.6720  -32.3520 C   0  0  0  0  0  0  0  0  0  0  0  0
   -6.3170   17.4760  -33.4670 C   0  0  0  0  0  0  0  0  0  0  0  0
   -5.8210   18.5930  -34.1410 C   0  0  0  0  0  0  0  0  0  0  0  0
   -6.1070   19.8830  -33.7150 C   0  0  0  0  0  0  0  0  0  0  0  0
   -6.4230   22.2170  -31.4560 C   0  0  0  0  0  0  0  0  0  0  0  0
   -5.0220   21.9490  -31.3140 C   0  0  0  0  0  0  0  0  0  0  0  0
   -3.9970   22.7450  -31.4210 C   0  0  0  0  0  0  0  0  0  0  0  0
   -3.8680   24.0140  -30.8410 N   0  0  0  0  0  0  0  0  0  0  0  0
   -3.4910   24.2200  -29.6350 C   0  0  0  0  0  0  0  0  0  0  0  0
   -4.3520   23.9430  -28.5670 C   0  0  0  0  0  0  0  0  0  0  0  0
   -3.8730   24.1930  -27.2760 C   0  0  0  0  0  0  0  0  0  0  0  0
   -2.6290   24.6790  -27.1410 N   0  0  0  0  0  0  0  0  0  0  0  0
   -1.8020   24.9450  -28.1700 C   0  0  0  0  0  0  0  0  0  0  0  0
   -2.2600   24.7060  -29.4160 N   0  0  0  0  0  0  0  0  0  0  0  0
   -6.9281   24.3115  -29.3871 H   0  0  0  0  0  0  0  0  0  0  0  0
   -5.8653   24.8067  -30.7480 H   0  0  0  0  0  0  0  0  0  0  0  0
   -7.6002   25.2722  -30.7480 H   0  0  0  0  0  0  0  0  0  0  0  0
   -9.3320   23.7287  -31.5080 H   0  0  0  0  0  0  0  0  0  0  0  0
   -9.3526   21.3014  -32.6329 H   0  0  0  0  0  0  0  0  0  0  0  0
   -8.0453   19.0914  -31.0082 H   0  0  0  0  0  0  0  0  0  0  0  0
   -7.5039   16.7986  -31.8131 H   0  0  0  0  0  0  0  0  0  0  0  0
   -6.0826   16.4598  -33.8169 H   0  0  0  0  0  0  0  0  0  0  0  0
   -5.1893   18.4480  -35.0297 H   0  0  0  0  0  0  0  0  0  0  0  0
   -5.7152   20.7605  -34.2502 H   0  0  0  0  0  0  0  0  0  0  0  0
   -4.7730   20.9041  -31.0768 H   0  0  0  0  0  0  0  0  0  0  0  0
   -3.1505   22.3865  -32.0251 H   0  0  0  0  0  0  0  0  0  0  0  0
   -5.3636   23.5451  -28.7354 H   0  0  0  0  0  0  0  0  0  0  0  0
   -4.5002   23.9962  -26.3940 H   0  0  0  0  0  0  0  0  0  0  0  0
   -0.7904   25.3425  -28.0007 H   0  0  0  0  0  0  0  0  0  0  0  0
   -1.6020   24.9190  -30.2070 H   0  0  0  0  0  0  0  0  0  0  0  0
  1  2  1  0
  2  3  1  0
  3  4  2  0
  4  5  1  0
  5  6  1  0
  6  7  2  0
  7  8  1  0
  8  9  2  0
  9 10  1  0
 10 11  2  0
  5 12  1  0
 12 13  1  0
 13 14  2  0
 14 15  1  0
 15 16  2  0
 16 17  1  0
 17 18  2  0
 18 19  1  0
 19 20  2  0
 20 21  1  0
 12  2  2  0
 21 16  1  0
 11  6  1  0
  1 22  1  0
  1 23  1  0
  1 24  1  0
  3 25  1  0
  4 26  1  0
  7 27  1  0
  8 28  1  0
  9 29  1  0
 10 30  1  0
 11 31  1  0
 13 32  1  0
 14 33  1  0
 17 34  1  0
 18 35  1  0
 20 36  1  0
 21 37  1  0
M  CHG  1   2   1
M  END
>  <smiles>  (22) 
C[n+]1ccn(-c2ccccc2)c1C=CN=c1ccnc[nH]1

>  <score_type>  (22) 
oracle

>  <origin>  (22) 
adg

>  <m_score__min__energy>  (22) 
-6.9400000000000004

>  <m_primary>  (22) 
energy

$$$$
22:0
     RDKit          3D

 38 40  0  0  0  0  0  0  0  0999 V2000
   -5.4870   25.6440  -30.5040 C   0  0  0  0  0  0  0  0  0  0  0  0
   -4.2430   24.9970  -30.6620 O   0  0  0  0  0  0  0  0  0  0  0  0
   -4.1470   23.8880  -29.7890 C   0  0  0  0  0  0  0  0  0  0  0  0
   -5.0950   22.7720  -30.2360 C   0  0  0  0  0  0  0  0  0  0  0  0
   -4.6020   22.1240  -31.4550 N   0  0  0  0  0  0  0  0  0  0  0  0
   -3.3670   22.2550  -31.9710 C   0  0  0  0  0  0  0  0  0  0  0  0
   -3.3440   21.6360  -33.2000 C   0  0  0  0  0  0  0  0  0  0  0  0
   -4.5620   21.1290  -33.4740 N   0  0  0  0  0  0  0  0  0  0  0  0
   -5.3030   21.4410  -32.3890 C   0  0  0  0  0  0  0  0  0  0  0  0
   -6.7370   21.1160  -32.2970 C   0  0  0  0  0  0  0  0  0  0  0  0
   -7.3310   19.8620  -32.3110 C   0  0  0  0  0  0  0  0  0  0  0  0
   -6.6920   18.5560  -32.5860 C   0  0  0  0  0  0  0  0  0  0  0  0
   -6.3260   17.7210  -31.5160 C   0  0  0  0  0  0  0  0  0  0  0  0
   -5.7280   16.4800  -31.7580 C   0  0  0  0  0  0  0  0  0  0  0  0
   -5.4980   16.0570  -33.0710 C   0  0  0  0  0  0  0  0  0  0  0  0
   -5.8750   16.8710  -34.1420 C   0  0  0  0  0  0  0  0  0  0  0  0
   -6.4730   18.1120  -33.9040 C   0  0  0  0  0  0  0  0  0  0  0  0
   -8.6420   19.9980  -32.0250 N   0  0  0  0  0  0  0  0  0  0  0  0
   -8.8680   21.2650  -31.8270 O   0  0  0  0  0  0  0  0  0  0  0  0
   -7.7690   21.9700  -31.9600 C   0  0  0  0  0  0  0  0  0  0  0  0
   -7.6960   23.4470  -31.7510 C   0  0  0  0  0  0  0  0  0  0  0  0
   -5.7072   25.7585  -29.4324 H   0  0  0  0  0  0  0  0  0  0  0  0
   -5.4473   26.6357  -30.9782 H   0  0  0  0  0  0  0  0  0  0  0  0
   -6.2762   25.0421  -30.9782 H   0  0  0  0  0  0  0  0  0  0  0  0
   -3.1140   23.5101  -29.7956 H   0  0  0  0  0  0  0  0  0  0  0  0
   -4.4265   24.2079  -28.7743 H   0  0  0  0  0  0  0  0  0  0  0  0
   -5.1713   22.0219  -29.4350 H   0  0  0  0  0  0  0  0  0  0  0  0
   -6.0812   23.2116  -30.4459 H   0  0  0  0  0  0  0  0  0  0  0  0
   -2.5202   22.7689  -31.4926 H   0  0  0  0  0  0  0  0  0  0  0  0
   -2.4654   21.5659  -33.8582 H   0  0  0  0  0  0  0  0  0  0  0  0
   -6.5111   18.0458  -30.4815 H   0  0  0  0  0  0  0  0  0  0  0  0
   -5.4383   15.8360  -30.9146 H   0  0  0  0  0  0  0  0  0  0  0  0
   -5.0207   15.0842  -33.2603 H   0  0  0  0  0  0  0  0  0  0  0  0
   -5.7009   16.5347  -35.1748 H   0  0  0  0  0  0  0  0  0  0  0  0
   -6.7742   18.7453  -34.7515 H   0  0  0  0  0  0  0  0  0  0  0  0
   -7.6852   23.6647  -30.6728 H   0  0  0  0  0  0  0  0  0  0  0  0
   -6.7774   23.8378  -32.2131 H   0  0  0  0  0  0  0  0  0  0  0  0
   -8.5715   23.9264  -32.2131 H   0  0  0  0  0  0  0  0  0  0  0  0
  1  2  1  0
  2  3  1  0
  3  4  1  0
  4  5  1  0
  5  6  1  0
  6  7  2  0
  7  8  1  0
  8  9  2  0
  9 10  1  0
 10 11  1  0
 11 12  1  0
 12 13  2  0
 13 14  1  0
 14 15  2  0
 15 16  1  0
 16 17  2  0
 11 18  2  0
 18 19  1  0
 19 20  1  0
 20 21  1  0
  9  5  1  0
 20 10  2  0
 17 12  1  0
  1 22  1  0
  1 23  1  0
  1 24  1  0
  3 25  1  0
  3 26  1  0
  4 27  1  0
  4 28  1  0
  6 29  1  0
  7 30  1  0
 13 31  1  0
 14 32  1  0
 15 33  1  0
 16 34  1  0
 17 35  1  0
 21 36  1  0
 21 37  1  0
 21 38  1  0
M  END
>  <UniqueID>  (23) 
21

>  <SMILES>  (23) 
COCCn1ccnc1-c1c(-c2ccccc2)noc1C

>  <Energy>  (23) 
107.3315716236389

>  <Genealogy>  (23) 
COCCn1ccnc1-c1c(-c2ccccc2)noc1C (3D coordinates assigned)
COCCn1ccnc1-c1c(-c2ccccc2)noc1C (optimized conformer: 107.3315716236389 kcal/mol)

>  <smiles>  (23) 
COCCn1ccnc1-c1c(-c2ccccc2)noc1C

>  <score_type>  (23) 
oracle

>  <origin>  (23) 
adg

>  <m_score__min__energy>  (23) 
-7.6299999999999999

>  <m_primary>  (23) 
energy

$$$$
23:0
     RDKit          3D

 54 56  0  0  0  0  0  0  0  0999 V2000
   -0.3790   28.0140  -27.0760 C   0  0  0  0  0  0  0  0  0  0  0  0
   -0.9950   26.7690  -27.3760 O   0  0  0  0  0  0  0  0  0  0  0  0
   -0.9860   25.6220  -26.5660 C   0  0  0  0  0  0  0  0  0  0  0  0
   -0.9920   24.3350  -27.0670 C   0  0  0  0  0  0  0  0  0  0  0  0
   -1.0160   23.9110  -28.5180 C   0  0  0  0  0  0  0  0  0  0  0  0
   -2.3380   24.0590  -29.1680 N   0  0  0  0  0  0  0  0  0  0  0  0
   -3.4670   23.9960  -28.2250 C   0  0  0  0  0  0  0  0  0  0  0  0
   -4.7530   24.5310  -28.8850 C   0  0  0  0  0  0  0  0  0  0  0  0
   -4.6910   24.5130  -30.4320 C   0  0  0  0  0  0  0  0  0  0  0  0
   -3.9870   25.6320  -30.8580 F   0  0  0  0  0  0  0  0  0  0  0  0
   -6.1160   24.5780  -31.0200 C   0  0  0  0  0  0  0  0  0  0  0  0
   -6.3470   23.4650  -31.9540 N   0  0  0  0  0  0  0  0  0  0  0  0
   -7.7470   23.0140  -31.9360 C   0  0  0  0  0  0  0  0  0  0  0  0
   -7.8630   21.5170  -32.0920 C   0  0  0  0  0  0  0  0  0  0  0  0
   -6.7870   20.7610  -32.5790 C   0  0  0  0  0  0  0  0  0  0  0  0
   -6.9020   19.3740  -32.6930 C   0  0  0  0  0  0  0  0  0  0  0  0
   -8.0950   18.7550  -32.3140 C   0  0  0  0  0  0  0  0  0  0  0  0
   -9.1270   19.4980  -31.8360 N   0  0  0  0  0  0  0  0  0  0  0  0
   -9.0390   20.8500  -31.7160 C   0  0  0  0  0  0  0  0  0  0  0  0
   -3.9490   23.2490  -30.9140 C   0  0  0  0  0  0  0  0  0  0  0  0
   -2.5320   23.1350  -30.3060 C   0  0  0  0  0  0  0  0  0  0  0  0
   -0.9260   23.5270  -25.9430 C   0  0  0  0  0  0  0  0  0  0  0  0
   -0.8140   22.0360  -25.9180 C   0  0  0  0  0  0  0  0  0  0  0  0
   -0.8900   24.2920  -24.8350 N   0  0  0  0  0  0  0  0  0  0  0  0
   -0.9380   25.5630  -25.2100 N   0  0  0  0  0  0  0  0  0  0  0  0
   -0.8640   26.6540  -24.2460 C   0  0  0  0  0  0  0  0  0  0  0  0
   -0.3172   28.1390  -25.9849 H   0  0  0  0  0  0  0  0  0  0  0  0
    0.6335   28.0351  -27.5055 H   0  0  0  0  0  0  0  0  0  0  0  0
   -0.9765   28.8316  -27.5055 H   0  0  0  0  0  0  0  0  0  0  0  0
   -0.2889   24.5250  -29.0696 H   0  0  0  0  0  0  0  0  0  0  0  0
   -0.7693   22.8392  -28.5400 H   0  0  0  0  0  0  0  0  0  0  0  0
   -3.6250   22.9513  -27.9189 H   0  0  0  0  0  0  0  0  0  0  0  0
   -3.2327   24.6172  -27.3479 H   0  0  0  0  0  0  0  0  0  0  0  0
   -5.5991   23.9073  -28.5607 H   0  0  0  0  0  0  0  0  0  0  0  0
   -4.8721   25.5789  -28.5724 H   0  0  0  0  0  0  0  0  0  0  0  0
   -6.8473   24.5188  -30.2005 H   0  0  0  0  0  0  0  0  0  0  0  0
   -6.2291   25.5260  -31.5663 H   0  0  0  0  0  0  0  0  0  0  0  0
   -6.1010   23.7750  -32.9230 H   0  0  0  0  0  0  0  0  0  0  0  0
   -8.2019   23.3072  -30.9783 H   0  0  0  0  0  0  0  0  0  0  0  0
   -8.2655   23.4843  -32.7845 H   0  0  0  0  0  0  0  0  0  0  0  0
   -5.8518   21.2609  -32.8714 H   0  0  0  0  0  0  0  0  0  0  0  0
   -6.0625   18.7759  -33.0770 H   0  0  0  0  0  0  0  0  0  0  0  0
   -8.1993   17.6636  -32.4027 H   0  0  0  0  0  0  0  0  0  0  0  0
   -9.8923   21.4223  -31.3230 H   0  0  0  0  0  0  0  0  0  0  0  0
   -4.5320   22.3631  -30.6218 H   0  0  0  0  0  0  0  0  0  0  0  0
   -3.8428   23.3163  -32.0068 H   0  0  0  0  0  0  0  0  0  0  0  0
   -2.3786   22.1037  -29.9554 H   0  0  0  0  0  0  0  0  0  0  0  0
   -1.8059   23.4036  -31.0875 H   0  0  0  0  0  0  0  0  0  0  0  0
   -0.7878   21.6877  -24.8749 H   0  0  0  0  0  0  0  0  0  0  0  0
   -1.6815   21.5945  -26.4303 H   0  0  0  0  0  0  0  0  0  0  0  0
    0.1097   21.7290  -26.4303 H   0  0  0  0  0  0  0  0  0  0  0  0
   -0.8918   26.2442  -23.2256 H   0  0  0  0  0  0  0  0  0  0  0  0
    0.0739   27.2098  -24.3925 H   0  0  0  0  0  0  0  0  0  0  0  0
   -1.7183   27.3313  -24.3925 H   0  0  0  0  0  0  0  0  0  0  0  0
  1  2  1  0
  2  3  1  0
  3  4  2  0
  4  5  1  0
  5  6  1  0
  6  7  1  0
  7  8  1  0
  8  9  1  0
  9 10  1  0
  9 11  1  0
 11 12  1  0
 12 13  1  0
 13 14  1  0
 14 15  2  0
 15 16  1  0
 16 17  2  0
 17 18  1  0
 18 19  2  0
  9 20  1  0
 20 21  1  0
  4 22  1  0
 22 23  1  0
 22 24  2  0
 24 25  1  0
 25 26  1  0
 25  3  1  0
 21  6  1  0
 19 14  1  0
  1 27  1  0
  1 28  1  0
  1 29  1  0
  5 30  1  0
  5 31  1  0
  7 32  1  0
  7 33  1  0
  8 34  1  0
  8 35  1  0
 11 36  1  0
 11 37  1  0
 12 38  1  0
 13 39  1  0
 13 40  1  0
 15 41  1  0
 16 42  1  0
 17 43  1  0
 19 44  1  0
 20 45  1  0
 20 46  1  0
 21 47  1  0
 21 48  1  0
 23 49  1  0
 23 50  1  0
 23 51  1  0
 26 52  1  0
 26 53  1  0
 26 54  1  0
M  END
>  <UniqueID>  (24) 
22

>  <SMILES>  (24) 
COc1c(CN2CCC(F)(CNCc3cccnc3)CC2)c(C)nn1C

>  <Energy>  (24) 
92.83806699375667

>  <Genealogy>  (24) 
COc1c(CN2CCC(F)(CNCc3cccnc3)CC2)c(C)nn1C (3D coordinates assigned)
COc1c(CN2CCC(F)(CNCc3cccnc3)CC2)c(C)nn1C (nonaromatic ring conformer: 92.83806699375667 kcal/mol)

>  <smiles>  (24) 
COc1c(CN2CCC(F)(CNCc3cccnc3)CC2)c(C)nn1C

>  <score_type>  (24) 
oracle

>  <origin>  (24) 
adg

>  <m_score__min__energy>  (24) 
-8.4700000000000006

>  <m_primary>  (24) 
energy

$$$$
24:0
     RDKit          3D

 44 47  0  0  0  0  0  0  0  0999 V2000
    0.3850   20.7720  -34.6380 C   0  0  0  0  0  0  0  0  0  0  0  0
   -0.3520   19.9790  -33.7140 O   0  0  0  0  0  0  0  0  0  0  0  0
   -1.6770   20.2370  -33.3300 C   0  0  0  0  0  0  0  0  0  0  0  0
   -2.4170   19.1970  -32.7540 C   0  0  0  0  0  0  0  0  0  0  0  0
   -3.7420   19.4020  -32.3600 C   0  0  0  0  0  0  0  0  0  0  0  0
   -4.3490   20.6490  -32.5570 C   0  0  0  0  0  0  0  0  0  0  0  0
   -5.6960   20.8740  -32.1240 N   0  0  0  0  0  0  0  0  0  0  0  0
   -6.2500   21.9720  -31.5310 C   0  0  0  0  0  0  0  0  0  0  0  0
   -5.5520   23.2840  -31.2420 C   0  0  0  0  0  0  0  0  0  0  0  0
   -6.4640   24.3470  -30.6100 C   0  0  0  0  0  0  0  0  0  0  0  0
   -5.7290   25.7020  -30.4990 C   0  0  0  0  0  0  0  0  0  0  0  0
   -4.2590   25.5600  -30.4710 N   0  0  0  0  0  0  0  0  0  0  0  0
   -3.8420   24.3850  -29.6960 C   0  0  0  0  0  0  0  0  0  0  0  0
   -4.2700   23.0870  -30.4070 C   0  0  0  0  0  0  0  0  0  0  0  0
   -7.5710   21.8050  -31.2460 N   0  0  0  0  0  0  0  0  0  0  0  0
   -7.8270   20.5540  -31.6690 C   0  0  0  0  0  0  0  0  0  0  0  0
   -9.0370   19.8690  -31.6120 C   0  0  0  0  0  0  0  0  0  0  0  0
   -9.0710   18.5560  -32.1200 C   0  0  0  0  0  0  0  0  0  0  0  0
   -7.9070   17.9690  -32.6650 C   0  0  0  0  0  0  0  0  0  0  0  0
   -6.6990   18.6910  -32.7080 C   0  0  0  0  0  0  0  0  0  0  0  0
   -6.7040   19.9900  -32.1960 C   0  0  0  0  0  0  0  0  0  0  0  0
   -3.6050   21.7030  -33.1020 C   0  0  0  0  0  0  0  0  0  0  0  0
   -2.2810   21.4990  -33.4980 C   0  0  0  0  0  0  0  0  0  0  0  0
    1.0332   21.4695  -34.0872 H   0  0  0  0  0  0  0  0  0  0  0  0
    1.0036   20.1183  -35.2705 H   0  0  0  0  0  0  0  0  0  0  0  0
   -0.3122   21.3411  -35.2705 H   0  0  0  0  0  0  0  0  0  0  0  0
   -1.9515   18.2107  -32.6105 H   0  0  0  0  0  0  0  0  0  0  0  0
   -4.3093   18.5827  -31.8943 H   0  0  0  0  0  0  0  0  0  0  0  0
   -5.2626   23.6757  -32.2283 H   0  0  0  0  0  0  0  0  0  0  0  0
   -7.3598   24.4724  -31.2360 H   0  0  0  0  0  0  0  0  0  0  0  0
   -6.7471   24.0147  -29.6003 H   0  0  0  0  0  0  0  0  0  0  0  0
   -6.0049   26.3225  -31.3644 H   0  0  0  0  0  0  0  0  0  0  0  0
   -6.0333   26.1648  -29.5486 H   0  0  0  0  0  0  0  0  0  0  0  0
   -3.8590   26.4120  -30.0130 H   0  0  0  0  0  0  0  0  0  0  0  0
   -2.7474   24.3936  -29.5871 H   0  0  0  0  0  0  0  0  0  0  0  0
   -4.3229   24.4231  -28.7074 H   0  0  0  0  0  0  0  0  0  0  0  0
   -3.4577   22.7624  -31.0739 H   0  0  0  0  0  0  0  0  0  0  0  0
   -4.4779   22.3293  -29.6371 H   0  0  0  0  0  0  0  0  0  0  0  0
   -9.9361   20.3371  -31.1848 H   0  0  0  0  0  0  0  0  0  0  0  0
  -10.0099   17.9836  -32.0923 H   0  0  0  0  0  0  0  0  0  0  0  0
   -7.9448   16.9422  -33.0579 H   0  0  0  0  0  0  0  0  0  0  0  0
   -5.7847   18.2479  -33.1296 H   0  0  0  0  0  0  0  0  0  0  0  0
   -4.0650   22.6954  -33.2187 H   0  0  0  0  0  0  0  0  0  0  0  0
   -1.7081   22.3262  -33.9424 H   0  0  0  0  0  0  0  0  0  0  0  0
  1  2  1  0
  2  3  1  0
  3  4  2  0
  4  5  1  0
  5  6  2  0
  6  7  1  0
  7  8  1  0
  8  9  1  0
  9 10  1  0
 10 11  1  0
 11 12  1  0
 12 13  1  0
 13 14  1  0
  8 15  2  0
 15 16  1  0
 16 17  2  0
 17 18  1  0
 18 19  2  0
 19 20  1  0
 20 21  2  0
  6 22  1  0
 22 23  2  0
 23  3  1  0
 21  7  1  0
 14  9  1  0
 21 16  1  0
  1 24  1  0
  1 25  1  0
  1 26  1  0
  4 27  1  0
  5 28  1  0
  9 29  1  0
 10 30  1  0
 10 31  1  0
 11 32  1  0
 11 33  1  0
 12 34  1  0
 13 35  1  0
 13 36  1  0
 14 37  1  0
 14 38  1  0
 17 39  1  0
 18 40  1  0
 19 41  1  0
 20 42  1  0
 22 43  1  0
 23 44  1  0
M  END
>  <UniqueID>  (25) 
23

>  <SMILES>  (25) 
COc1ccc(-n2c(C3CCNCC3)nc3ccccc32)cc1

>  <Energy>  (25) 
96.31531596144404

>  <Genealogy>  (25) 
COc1ccc(-n2c(C3CCNCC3)nc3ccccc32)cc1 (3D coordinates assigned)
COc1ccc(-n2c(C3CCNCC3)nc3ccccc32)cc1 (nonaromatic ring conformer: 96.31531596144404 kcal/mol)

>  <smiles>  (25) 
COc1ccc(-n2c(C3CCNCC3)nc3ccccc32)cc1

>  <score_type>  (25) 
oracle

>  <origin>  (25) 
adg

>  <m_score__min__energy>  (25) 
-9.0199999999999996

>  <m_primary>  (25) 
energy

$$$$
25:0
     RDKit          3D

 27 29  0  0  0  0  0  0  0  0999 V2000
    0.3250   25.0700  -25.5290 F   0  0  0  0  0  0  0  0  0  0  0  0
   -0.6190   24.9030  -26.4890 C   0  0  0  0  0  0  0  0  0  0  0  0
   -0.2370   24.6970  -27.8170 C   0  0  0  0  0  0  0  0  0  0  0  0
   -1.2090   24.5250  -28.8080 C   0  0  0  0  0  0  0  0  0  0  0  0
   -2.5740   24.5590  -28.4750 C   0  0  0  0  0  0  0  0  0  0  0  0
   -3.6060   24.3780  -29.5160 C   0  0  0  0  0  0  0  0  0  0  0  0
   -4.4080   23.3000  -29.6140 N   0  0  0  0  0  0  0  0  0  0  0  0
   -5.1510   23.6100  -30.6970 C   0  0  0  0  0  0  0  0  0  0  0  0
   -6.2110   22.7370  -31.2450 C   0  0  0  0  0  0  0  0  0  0  0  0
   -5.8770   21.5900  -31.9880 C   0  0  0  0  0  0  0  0  0  0  0  0
   -6.8820   20.7670  -32.5060 C   0  0  0  0  0  0  0  0  0  0  0  0
   -8.2250   21.0780  -32.2880 C   0  0  0  0  0  0  0  0  0  0  0  0
   -8.5680   22.2150  -31.5520 C   0  0  0  0  0  0  0  0  0  0  0  0
   -7.5680   23.0420  -31.0320 C   0  0  0  0  0  0  0  0  0  0  0  0
   -4.8170   24.8070  -31.2200 N   0  0  0  0  0  0  0  0  0  0  0  0
   -3.8600   25.2480  -30.4630 O   0  0  0  0  0  0  0  0  0  0  0  0
   -2.9490   24.7670  -27.1370 C   0  0  0  0  0  0  0  0  0  0  0  0
   -1.9740   24.9380  -26.1500 C   0  0  0  0  0  0  0  0  0  0  0  0
    0.8299   24.6700  -28.0836 H   0  0  0  0  0  0  0  0  0  0  0  0
   -0.9038   24.3625  -29.8522 H   0  0  0  0  0  0  0  0  0  0  0  0
   -4.8202   21.3393  -32.1623 H   0  0  0  0  0  0  0  0  0  0  0  0
   -6.6133   19.8723  -33.0867 H   0  0  0  0  0  0  0  0  0  0  0  0
   -9.0133   20.4281  -32.6956 H   0  0  0  0  0  0  0  0  0  0  0  0
   -9.6267   22.4599  -31.3814 H   0  0  0  0  0  0  0  0  0  0  0  0
   -7.8435   23.9359  -30.4532 H   0  0  0  0  0  0  0  0  0  0  0  0
   -4.0145   24.7954  -26.8650 H   0  0  0  0  0  0  0  0  0  0  0  0
   -2.2742   25.1004  -25.1043 H   0  0  0  0  0  0  0  0  0  0  0  0
  1  2  1  0
  2  3  2  0
  3  4  1  0
  4  5  2  0
  5  6  1  0
  6  7  2  0
  7  8  1  0
  8  9  1  0
  9 10  2  0
 10 11  1  0
 11 12  2  0
 12 13  1  0
 13 14  2  0
  8 15  2  0
 15 16  1  0
  5 17  1  0
 17 18  2  0
 18  2  1  0
 16  6  1  0
 14  9  1  0
  3 19  1  0
  4 20  1  0
 10 21  1  0
 11 22  1  0
 12 23  1  0
 13 24  1  0
 14 25  1  0
 17 26  1  0
 18 27  1  0
M  END
>  <UniqueID>  (26) 
24

>  <SMILES>  (26) 
Fc1ccc(-c2nc(-c3ccccc3)no2)cc1

>  <Energy>  (26) 
63.59797422217612

>  <Genealogy>  (26) 
Fc1ccc(-c2nc(-c3ccccc3)no2)cc1 (3D coordinates assigned)
Fc1ccc(-c2nc(-c3ccccc3)no2)cc1 (optimized conformer: 63.59797422217612 kcal/mol)

>  <smiles>  (26) 
Fc1ccc(-c2nc(-c3ccccc3)no2)cc1

>  <score_type>  (26) 
oracle

>  <origin>  (26) 
adg

>  <m_score__min__energy>  (26) 
-7.5

>  <m_primary>  (26) 
energy

$$$$
26:0
     RDKit          3D

 63 66  0  0  0  0  0  0  0  0999 V2000
   -5.7370   26.2940  -30.1150 C   0  0  0  0  0  0  0  0  0  0  0  0
   -4.9820   25.3580  -30.8780 O   0  0  0  0  0  0  0  0  0  0  0  0
   -5.4130   24.0590  -31.2000 C   0  0  0  0  0  0  0  0  0  0  0  0
   -6.5270   23.8330  -32.0320 C   0  0  0  0  0  0  0  0  0  0  0  0
   -6.9400   22.5320  -32.3220 C   0  0  0  0  0  0  0  0  0  0  0  0
   -6.2550   21.4350  -31.7860 C   0  0  0  0  0  0  0  0  0  0  0  0
   -6.6890   20.0580  -32.1010 C   0  0  0  0  0  0  0  0  0  0  0  0
   -5.7370   19.1480  -32.5890 C   0  0  0  0  0  0  0  0  0  0  0  0
   -6.1070   17.8400  -32.9490 C   0  0  0  0  0  0  0  0  0  0  0  0
   -5.0900   16.8980  -33.4800 C   0  0  0  0  0  0  0  0  0  0  0  0
   -3.8830   17.2620  -33.5420 O   0  0  0  0  0  0  0  0  0  0  0  0
   -5.4670   15.5980  -33.9630 N   0  0  0  0  0  0  0  0  0  0  0  0
   -4.5190   14.5340  -34.1680 C   0  0  0  0  0  0  0  0  0  0  0  0
   -4.5940   13.3680  -33.3840 C   0  0  0  0  0  0  0  0  0  0  0  0
   -3.7280   12.2980  -33.6150 C   0  0  0  0  0  0  0  0  0  0  0  0
   -2.7820   12.3740  -34.6370 C   0  0  0  0  0  0  0  0  0  0  0  0
   -2.6950   13.5240  -35.4250 C   0  0  0  0  0  0  0  0  0  0  0  0
   -3.5540   14.6110  -35.2000 C   0  0  0  0  0  0  0  0  0  0  0  0
   -3.4050   15.7930  -35.9980 N   0  0  0  0  0  0  0  0  0  0  0  0
   -7.4440   17.4430  -32.7880 C   0  0  0  0  0  0  0  0  0  0  0  0
   -8.3940   18.3370  -32.2900 C   0  0  0  0  0  0  0  0  0  0  0  0
   -8.0310   19.6430  -31.9310 C   0  0  0  0  0  0  0  0  0  0  0  0
   -9.0830   20.5760  -31.3910 C   0  0  0  0  0  0  0  0  0  0  0  0
   -5.1400   21.6510  -30.9640 C   0  0  0  0  0  0  0  0  0  0  0  0
   -4.7100   22.9570  -30.6720 C   0  0  0  0  0  0  0  0  0  0  0  0
   -3.5470   23.1630  -29.7390 C   0  0  0  0  0  0  0  0  0  0  0  0
   -3.9880   23.9750  -28.5920 N   0  0  0  0  0  0  0  0  0  0  0  0
   -3.0220   24.0730  -27.4780 C   0  0  0  0  0  0  0  0  0  0  0  0
   -3.4690   24.9960  -26.3340 C   0  0  0  0  0  0  0  0  0  0  0  0
   -2.2070   25.7060  -25.8740 C   0  0  0  0  0  0  0  0  0  0  0  0
   -1.3160   25.7860  -27.1020 C   0  0  0  0  0  0  0  0  0  0  0  0
   -1.6360   24.5510  -27.9350 C   0  0  0  0  0  0  0  0  0  0  0  0
   -5.5825   26.1025  -29.0429 H   0  0  0  0  0  0  0  0  0  0  0  0
   -5.4067   27.3151  -30.3564 H   0  0  0  0  0  0  0  0  0  0  0  0
   -6.8049   26.1873  -30.3564 H   0  0  0  0  0  0  0  0  0  0  0  0
   -7.0749   24.6875  -32.4558 H   0  0  0  0  0  0  0  0  0  0  0  0
   -7.8092   22.3674  -32.9758 H   0  0  0  0  0  0  0  0  0  0  0  0
   -4.6879   19.4627  -32.6910 H   0  0  0  0  0  0  0  0  0  0  0  0
   -6.4640   15.4310  -34.2210 H   0  0  0  0  0  0  0  0  0  0  0  0
   -5.3426   13.2990  -32.5810 H   0  0  0  0  0  0  0  0  0  0  0  0
   -3.7917   11.3945  -32.9908 H   0  0  0  0  0  0  0  0  0  0  0  0
   -2.1041   11.5279  -34.8226 H   0  0  0  0  0  0  0  0  0  0  0  0
   -1.9465   13.5783  -36.2292 H   0  0  0  0  0  0  0  0  0  0  0  0
   -3.4770   16.7500  -35.5920 H   0  0  0  0  0  0  0  0  0  0  0  0
   -3.1370   15.7200  -37.0070 H   0  0  0  0  0  0  0  0  0  0  0  0
   -7.7455   16.4197  -33.0563 H   0  0  0  0  0  0  0  0  0  0  0  0
   -9.4392   18.0130  -32.1780 H   0  0  0  0  0  0  0  0  0  0  0  0
   -9.0609   20.5564  -30.2914 H   0  0  0  0  0  0  0  0  0  0  0  0
   -8.8822   21.5984  -31.7436 H   0  0  0  0  0  0  0  0  0  0  0  0
  -10.0741   20.2545  -31.7436 H   0  0  0  0  0  0  0  0  0  0  0  0
   -4.5972   20.7913  -30.5441 H   0  0  0  0  0  0  0  0  0  0  0  0
   -3.1837   22.1880  -29.3822 H   0  0  0  0  0  0  0  0  0  0  0  0
   -2.7337   23.6805  -30.2688 H   0  0  0  0  0  0  0  0  0  0  0  0
   -4.2000   24.9420  -28.9300 H   0  0  0  0  0  0  0  0  0  0  0  0
   -2.9706   23.0401  -27.1033 H   0  0  0  0  0  0  0  0  0  0  0  0
   -4.2110   25.7239  -26.6940 H   0  0  0  0  0  0  0  0  0  0  0  0
   -3.9443   24.4343  -25.5163 H   0  0  0  0  0  0  0  0  0  0  0  0
   -2.4458   26.7147  -25.5059 H   0  0  0  0  0  0  0  0  0  0  0  0
   -1.7160   25.1713  -25.0476 H   0  0  0  0  0  0  0  0  0  0  0  0
   -1.5347   26.6998  -27.6739 H   0  0  0  0  0  0  0  0  0  0  0  0
   -0.2518   25.8207  -26.8258 H   0  0  0  0  0  0  0  0  0  0  0  0
   -1.6545   24.8069  -29.0047 H   0  0  0  0  0  0  0  0  0  0  0  0
   -0.8764   23.7673  -27.7978 H   0  0  0  0  0  0  0  0  0  0  0  0
  1  2  1  0
  2  3  1  0
  3  4  2  0
  4  5  1  0
  5  6  2  0
  6  7  1  0
  7  8  2  0
  8  9  1  0
  9 10  1  0
 10 11  2  0
 10 12  1  0
 12 13  1  0
 13 14  2  0
 14 15  1  0
 15 16  2  0
 16 17  1  0
 17 18  2  0
 18 19  1  0
  9 20  2  0
 20 21  1  0
 21 22  2  0
 22 23  1  0
  6 24  1  0
 24 25  2  0
 25 26  1  0
 26 27  1  0
 27 28  1  0
 28 29  1  0
 29 30  1  0
 30 31  1  0
 31 32  1  0
 25  3  1  0
 32 28  1  0
 22  7  1  0
 18 13  1  0
  1 33  1  0
  1 34  1  0
  1 35  1  0
  4 36  1  0
  5 37  1  0
  8 38  1  0
 12 39  1  0
 14 40  1  0
 15 41  1  0
 16 42  1  0
 17 43  1  0
 19 44  1  0
 19 45  1  0
 20 46  1  0
 21 47  1  0
 23 48  1  0
 23 49  1  0
 23 50  1  0
 24 51  1  0
 26 52  1  0
 26 53  1  0
 27 54  1  0
 28 55  1  0
 29 56  1  0
 29 57  1  0
 30 58  1  0
 30 59  1  0
 31 60  1  0
 31 61  1  0
 32 62  1  0
 32 63  1  0
M  END
>  <UniqueID>  (27) 
25

>  <SMILES>  (27) 
COc1ccc(-c2cc(C(=O)Nc3ccccc3N)ccc2C)cc1CNC1CCCC1

>  <Energy>  (27) 
83.59204502517187

>  <Genealogy>  (27) 
COc1ccc(-c2cc(C(=O)Nc3ccccc3N)ccc2C)cc1CNC1CCCC1 (3D coordinates assigned)
COc1ccc(-c2cc(C(=O)Nc3ccccc3N)ccc2C)cc1CNC1CCCC1 (nonaromatic ring conformer: 83.59204502517187 kcal/mol)

>  <smiles>  (27) 
COc1ccc(-c2cc(C(=O)Nc3ccccc3N)ccc2C)cc1CNC1CCCC1

>  <score_type>  (27) 
oracle

>  <origin>  (27) 
adg

>  <m_score__min__energy>  (27) 
-10.390000000000001

>  <m_primary>  (27) 
energy

$$$$
27:0
     RDKit          3D

 43 44  0  0  0  0  0  0  0  0999 V2000
   -0.8310   21.7700  -27.4800 C   0  0  0  0  0  0  0  0  0  0  0  0
   -0.8370   22.2290  -29.2010 S   0  0  0  0  0  0  0  0  0  0  0  0
   -0.0710   21.2120  -29.9990 O   0  0  0  0  0  0  0  0  0  0  0  0
   -0.1680   23.5680  -29.3260 O   0  0  0  0  0  0  0  0  0  0  0  0
   -2.4700   22.3290  -29.7970 N   0  0  0  0  0  0  0  0  0  0  0  0
   -3.4150   23.2580  -29.1680 C   0  0  0  0  0  0  0  0  0  0  0  0
   -3.1020   24.6680  -29.5650 C   0  0  0  0  0  0  0  0  0  0  0  0
   -2.1640   25.2870  -28.9960 O   0  0  0  0  0  0  0  0  0  0  0  0
   -3.8680   25.2970  -30.5980 N   0  0  0  0  0  0  0  0  0  0  0  0
   -5.2830   25.6260  -30.4710 C   0  0  0  0  0  0  0  0  0  0  0  0
   -6.1520   24.3800  -30.6410 C   0  0  0  0  0  0  0  0  0  0  0  0
   -5.6430   23.4460  -32.1240 S   0  0  0  0  0  0  0  0  0  0  0  0
   -6.9800   22.2590  -31.9810 C   0  0  0  0  0  0  0  0  0  0  0  0
   -8.0730   22.5300  -31.1480 C   0  0  0  0  0  0  0  0  0  0  0  0
   -9.1160   21.6050  -31.0370 C   0  0  0  0  0  0  0  0  0  0  0  0
   -9.0710   20.4090  -31.7620 C   0  0  0  0  0  0  0  0  0  0  0  0
   -7.9820   20.1370  -32.5960 C   0  0  0  0  0  0  0  0  0  0  0  0
   -6.9380   21.0620  -32.7080 C   0  0  0  0  0  0  0  0  0  0  0  0
   -2.8590   21.5740  -30.9580 C   0  0  0  0  0  0  0  0  0  0  0  0
   -2.3330   21.8940  -32.2210 C   0  0  0  0  0  0  0  0  0  0  0  0
   -2.7250   21.1720  -33.3510 C   0  0  0  0  0  0  0  0  0  0  0  0
   -3.6470   20.1290  -33.2310 C   0  0  0  0  0  0  0  0  0  0  0  0
   -4.1800   19.8080  -31.9800 C   0  0  0  0  0  0  0  0  0  0  0  0
   -3.7910   20.5290  -30.8470 C   0  0  0  0  0  0  0  0  0  0  0  0
   -0.8429   22.6775  -26.8584 H   0  0  0  0  0  0  0  0  0  0  0  0
   -1.7213   21.1628  -27.2594 H   0  0  0  0  0  0  0  0  0  0  0  0
    0.0749   21.1863  -27.2594 H   0  0  0  0  0  0  0  0  0  0  0  0
   -4.4370   23.0090  -29.4899 H   0  0  0  0  0  0  0  0  0  0  0  0
   -3.3309   23.1676  -28.0750 H   0  0  0  0  0  0  0  0  0  0  0  0
   -5.4641   26.0579  -29.4757 H   0  0  0  0  0  0  0  0  0  0  0  0
   -5.5472   26.3478  -31.2579 H   0  0  0  0  0  0  0  0  0  0  0  0
   -6.0434   23.7387  -29.7539 H   0  0  0  0  0  0  0  0  0  0  0  0
   -7.2010   24.6900  -30.7575 H   0  0  0  0  0  0  0  0  0  0  0  0
   -8.1110   23.4715  -30.5805 H   0  0  0  0  0  0  0  0  0  0  0  0
   -9.9719   21.8177  -30.3796 H   0  0  0  0  0  0  0  0  0  0  0  0
   -9.8925   19.6826  -31.6759 H   0  0  0  0  0  0  0  0  0  0  0  0
   -7.9460   19.1957  -33.1641 H   0  0  0  0  0  0  0  0  0  0  0  0
   -6.0836   20.8492  -33.3674 H   0  0  0  0  0  0  0  0  0  0  0  0
   -1.6094   22.7165  -32.3205 H   0  0  0  0  0  0  0  0  0  0  0  0
   -2.3072   21.4250  -34.3366 H   0  0  0  0  0  0  0  0  0  0  0  0
   -3.9533   19.5605  -34.1215 H   0  0  0  0  0  0  0  0  0  0  0  0
   -4.9064   18.9873  -31.8864 H   0  0  0  0  0  0  0  0  0  0  0  0
   -4.2166   20.2768  -29.8645 H   0  0  0  0  0  0  0  0  0  0  0  0
  1  2  1  0
  2  3  2  0
  2  4  2  0
  2  5  1  0
  5  6  1  0
  6  7  1  0
  7  8  2  0
  7  9  1  0
  9 10  1  0
 10 11  1  0
 11 12  1  0
 12 13  1  0
 13 14  2  0
 14 15  1  0
 15 16  2  0
 16 17  1  0
 17 18  2  0
  5 19  1  0
 19 20  2  0
 20 21  1  0
 21 22  2  0
 22 23  1  0
 23 24  2  0
 18 13  1  0
 24 19  1  0
  1 25  1  0
  1 26  1  0
  1 27  1  0
  6 28  1  0
  6 29  1  0
 10 30  1  0
 10 31  1  0
 11 32  1  0
 11 33  1  0
 14 34  1  0
 15 35  1  0
 16 36  1  0
 17 37  1  0
 18 38  1  0
 20 39  1  0
 21 40  1  0
 22 41  1  0
 23 42  1  0
 24 43  1  0
M  CHG  1   9  -1
M  END
>  <UniqueID>  (28) 
26

>  <SMILES>  (28) 
CS(=O)(=O)N(CC(=O)[N-]CCSc1ccccc1)c1ccccc1

>  <Energy>  (28) 
34.44659512727328

>  <Genealogy>  (28) 
CS(=O)(=O)N(CC(=O)[N-]CCSc1ccccc1)c1ccccc1 (protonated)
CS(=O)(=O)N(CC(=O)[N-]CCSc1ccccc1)c1ccccc1 (3D coordinates assigned)
CS(=O)(=O)N(CC(=O)[N-]CCSc1ccccc1)c1ccccc1 (optimized conformer: 34.44659512727328 kcal/mol)

>  <smiles>  (28) 
CS(=O)(=O)N(CC(=O)NCCSc1ccccc1)c1ccccc1

>  <score_type>  (28) 
oracle

>  <origin>  (28) 
adg

>  <m_score__min__energy>  (28) 
-10.73

>  <m_primary>  (28) 
energy

$$$$
28:0
     RDKit          3D

 38 39  0  0  0  0  0  0  0  0999 V2000
   -8.7507   19.3205  -32.9971 H   0  0  0  0  0  0  0  0  0  0  0  0
   -7.7600   19.7870  -32.8930 C   0  0  0  0  0  0  0  0  0  0  0  0
   -7.6360   21.0250  -32.2620 C   0  0  0  0  0  0  0  0  0  0  0  0
   -9.1880   21.9050  -31.5780 Br  0  0  0  0  0  0  0  0  0  0  0  0
   -6.3800   21.6220  -32.1280 C   0  0  0  0  0  0  0  0  0  0  0  0
   -6.2915   22.5965  -31.6256 H   0  0  0  0  0  0  0  0  0  0  0  0
   -5.2200   20.9860  -32.6320 C   0  0  0  0  0  0  0  0  0  0  0  0
   -3.9300   21.5670  -32.4950 C   0  0  0  0  0  0  0  0  0  0  0  0
   -3.8470   22.6590  -31.7710 N   0  0  0  0  0  0  0  0  0  0  0  0
   -3.6100   23.0040  -30.3630 C   0  0  1  0  0  0  0  0  0  0  0  0
   -2.6283   22.5902  -30.0892 H   0  0  0  0  0  0  0  0  0  0  0  0
   -3.4520   24.4850  -30.1430 C   0  0  0  0  0  0  0  0  0  0  0  0
   -2.5400   24.9150  -29.3840 O   0  0  0  0  0  0  0  0  0  0  0  0
   -4.2710   25.3790  -30.8400 O   0  0  0  0  0  0  0  0  0  0  0  0
   -5.6900   25.3080  -30.8020 C   0  0  0  0  0  0  0  0  0  0  0  0
   -6.0284   25.2911  -29.7555 H   0  0  0  0  0  0  0  0  0  0  0  0
   -6.1148   26.1860  -31.3106 H   0  0  0  0  0  0  0  0  0  0  0  0
   -6.0250   24.3920  -31.3106 H   0  0  0  0  0  0  0  0  0  0  0  0
   -4.5970   22.3050  -29.4130 C   0  0  0  0  0  0  0  0  0  0  0  0
   -4.3095   22.5086  -28.3709 H   0  0  0  0  0  0  0  0  0  0  0  0
   -5.6128   22.6862  -29.5943 H   0  0  0  0  0  0  0  0  0  0  0  0
   -4.5746   21.2203  -29.5943 H   0  0  0  0  0  0  0  0  0  0  0  0
   -2.8260   20.8890  -33.0960 C   0  0  0  0  0  0  0  0  0  0  0  0
   -1.1570   21.5390  -33.2600 S   0  0  0  0  0  0  0  0  0  0  0  0
   -0.4790   20.6520  -31.8080 C   0  0  0  0  0  0  0  0  0  0  0  0
    0.5864   20.4408  -31.9824 H   0  0  0  0  0  0  0  0  0  0  0  0
   -1.0444   19.7176  -31.6766 H   0  0  0  0  0  0  0  0  0  0  0  0
   -0.6190   21.4810  -30.5390 C   0  0  0  0  0  0  0  0  0  0  0  0
   -0.5088   20.8282  -29.6605 H   0  0  0  0  0  0  0  0  0  0  0  0
    0.1609   22.2565  -30.5197 H   0  0  0  0  0  0  0  0  0  0  0  0
   -1.6103   21.9574  -30.5197 H   0  0  0  0  0  0  0  0  0  0  0  0
   -3.0300   19.6300  -33.6710 C   0  0  0  0  0  0  0  0  0  0  0  0
   -2.1690   19.0746  -34.0712 H   0  0  0  0  0  0  0  0  0  0  0  0
   -4.2660   19.0810  -33.7450 N   0  0  0  0  0  0  0  0  0  0  0  0
   -4.3650   18.1450  -34.2010 H   0  0  0  0  0  0  0  0  0  0  0  0
   -5.3610   19.7290  -33.2680 C   0  0  0  0  0  0  0  0  0  0  0  0
   -6.6300   19.1400  -33.3920 C   0  0  0  0  0  0  0  0  0  0  0  0
   -6.7331   18.1624  -33.8857 H   0  0  0  0  0  0  0  0  0  0  0  0
  1  2  1  0
  2  3  2  0
  3  4  1  0
  3  5  1  0
  5  6  1  0
  5  7  2  0
  7  8  1  0
  8  9  2  0
  9 10  1  0
 10 11  1  1
 10 12  1  0
 12 13  2  0
 12 14  1  0
 14 15  1  0
 15 16  1  0
 15 17  1  0
 15 18  1  0
 10 19  1  0
 19 20  1  0
 19 21  1  0
 19 22  1  0
  8 23  1  0
 23 24  1  0
 24 25  1  0
 25 26  1  0
 25 27  1  0
 25 28  1  0
 28 29  1  0
 28 30  1  0
 28 31  1  0
 23 32  2  0
 32 33  1  0
 32 34  1  0
 34 35  1  0
 34 36  1  0
 36 37  2  0
 37 38  1  0
 37  2  1  0
 36  7  1  0
M  END
>  <UniqueID>  (29) 
27

>  <SMILES>  (29) 
CCSc1c[nH]c2ccc(Br)cc2/c1=N/[C@H](C)C(=O)OC

>  <Energy>  (29) 
52.88380005760723

>  <Genealogy>  (29) 
CCSc1c[nH]c2ccc(Br)cc2c1=N[C@H](C)C(=O)OC (chirality)
CCSc1c[nH]c2ccc(Br)cc2/c1=N/[C@H](C)C(=O)OC (cis-trans isomerization)
CCSc1c[nH]c2ccc(Br)cc2/c1=N/[C@H](C)C(=O)OC (3D coordinates assigned)
CCSc1c[nH]c2ccc(Br)cc2/c1=N/[C@H](C)C(=O)OC (optimized conformer: 52.88380005760723 kcal/mol)

>  <smiles>  (29) 
CCSc1c[nH]c2ccc(Br)cc2c1=NC(C)C(=O)OC

>  <score_type>  (29) 
oracle

>  <origin>  (29) 
adg

>  <m_score__min__energy>  (29) 
-7.8600000000000003

>  <m_primary>  (29) 
energy

$$$$
29:0
     RDKit          3D

 40 43  0  0  0  0  0  0  0  0999 V2000
   -4.0670   17.2120  -34.9910 C   0  0  0  0  0  0  0  0  0  0  0  0
   -5.2960   17.9090  -35.1630 O   0  0  0  0  0  0  0  0  0  0  0  0
   -6.1090   18.3530  -34.1090 C   0  0  0  0  0  0  0  0  0  0  0  0
   -6.8340   17.4010  -33.3830 C   0  0  0  0  0  0  0  0  0  0  0  0
   -7.6590   17.7940  -32.3260 C   0  0  0  0  0  0  0  0  0  0  0  0
   -7.7600   19.1430  -31.9800 C   0  0  0  0  0  0  0  0  0  0  0  0
   -7.0260   20.1100  -32.6820 C   0  0  0  0  0  0  0  0  0  0  0  0
   -7.1530   21.4980  -32.3420 N   0  0  0  0  0  0  0  0  0  0  0  0
   -8.2930   22.0570  -31.9490 N   0  0  0  0  0  0  0  0  0  0  0  0
   -8.0440   23.3510  -31.6450 C   0  0  0  0  0  0  0  0  0  0  0  0
   -6.7090   23.6110  -31.8830 C   0  0  0  0  0  0  0  0  0  0  0  0
   -6.1810   22.4330  -32.3100 C   0  0  0  0  0  0  0  0  0  0  0  0
   -4.8250   22.3360  -31.7920 C   0  0  0  0  0  0  0  0  0  0  0  0
   -3.8970   21.2930  -31.8430 C   0  0  0  0  0  0  0  0  0  0  0  0
   -2.6610   21.4680  -31.2040 C   0  0  0  0  0  0  0  0  0  0  0  0
   -2.3710   22.6660  -30.5250 C   0  0  0  0  0  0  0  0  0  0  0  0
   -3.3160   23.7130  -30.4820 C   0  0  0  0  0  0  0  0  0  0  0  0
   -3.0790   24.9220  -29.7480 N   0  0  0  0  0  0  0  0  0  0  0  0
   -2.0600   25.1400  -28.7630 C   0  0  0  0  0  0  0  0  0  0  0  0
   -1.9470   24.2890  -27.5350 C   0  0  0  0  0  0  0  0  0  0  0  0
   -1.2120   26.0500  -28.9550 O   0  0  0  0  0  0  0  0  0  0  0  0
   -4.5510   23.5130  -31.1070 C   0  0  0  0  0  0  0  0  0  0  0  0
   -5.7390   24.4390  -31.1020 C   0  0  0  0  0  0  0  0  0  0  0  0
   -6.2190   19.7130  -33.7610 C   0  0  0  0  0  0  0  0  0  0  0  0
   -3.8594   17.0943  -33.9172 H   0  0  0  0  0  0  0  0  0  0  0  0
   -4.1390   16.2203  -35.4614 H   0  0  0  0  0  0  0  0  0  0  0  0
   -3.2528   17.7828  -35.4614 H   0  0  0  0  0  0  0  0  0  0  0  0
   -6.7537   16.3360  -33.6464 H   0  0  0  0  0  0  0  0  0  0  0  0
   -8.2300   17.0392  -31.7654 H   0  0  0  0  0  0  0  0  0  0  0  0
   -8.4181   19.4485  -31.1532 H   0  0  0  0  0  0  0  0  0  0  0  0
   -8.7820   24.0756  -31.2705 H   0  0  0  0  0  0  0  0  0  0  0  0
   -4.1302   20.3570  -32.3717 H   0  0  0  0  0  0  0  0  0  0  0  0
   -1.9124   20.6626  -31.2338 H   0  0  0  0  0  0  0  0  0  0  0  0
   -1.3995   22.7873  -30.0236 H   0  0  0  0  0  0  0  0  0  0  0  0
   -2.0312   24.9233  -26.6403 H   0  0  0  0  0  0  0  0  0  0  0  0
   -2.7537   23.5412  -27.5316 H   0  0  0  0  0  0  0  0  0  0  0  0
   -0.9731   23.7777  -27.5316 H   0  0  0  0  0  0  0  0  0  0  0  0
   -6.0989   24.6374  -30.0817 H   0  0  0  0  0  0  0  0  0  0  0  0
   -5.5489   25.4426  -31.5103 H   0  0  0  0  0  0  0  0  0  0  0  0
   -5.6687   20.4704  -34.3386 H   0  0  0  0  0  0  0  0  0  0  0  0
  1  2  1  0
  2  3  1  0
  3  4  2  0
  4  5  1  0
  5  6  2  0
  6  7  1  0
  7  8  1  0
  8  9  1  0
  9 10  2  0
 10 11  1  0
 11 12  2  0
 12 13  1  0
 13 14  2  0
 14 15  1  0
 15 16  2  0
 16 17  1  0
 17 18  1  0
 18 19  1  0
 19 20  1  0
 19 21  2  0
 17 22  2  0
 22 23  1  0
  7 24  2  0
 24  3  1  0
 12  8  1  0
 22 13  1  0
 23 11  1  0
  1 25  1  0
  1 26  1  0
  1 27  1  0
  4 28  1  0
  5 29  1  0
  6 30  1  0
 10 31  1  0
 14 32  1  0
 15 33  1  0
 16 34  1  0
 20 35  1  0
 20 36  1  0
 20 37  1  0
 23 38  1  0
 23 39  1  0
 24 40  1  0
M  CHG  1  18  -1
M  END
>  <UniqueID>  (30) 
28

>  <SMILES>  (30) 
COc1cccc(-n2ncc3c2-c2cccc([N-]C(C)=O)c2C3)c1

>  <Energy>  (30) 
121.8117482915639

>  <Genealogy>  (30) 
COc1cccc(-n2ncc3c2-c2cccc([N-]C(C)=O)c2C3)c1 (protonated)
COc1cccc(-n2ncc3c2-c2cccc([N-]C(C)=O)c2C3)c1 (3D coordinates assigned)
COc1cccc(-n2ncc3c2-c2cccc([N-]C(C)=O)c2C3)c1 (nonaromatic ring conformer: 121.8117482915639 kcal/mol)

>  <smiles>  (30) 
COc1cccc(-n2ncc3c2-c2cccc(NC(C)=O)c2C3)c1

>  <score_type>  (30) 
oracle

>  <origin>  (30) 
adg

>  <m_score__min__energy>  (30) 
-10.84

>  <m_primary>  (30) 
energy

$$$$
30:0
     RDKit          3D

 46 48  0  0  0  0  0  0  0  0999 V2000
   -2.4840   21.6120  -32.5810 C   0  0  0  0  0  0  0  0  0  0  0  0
   -3.4520   22.6280  -32.3340 O   0  0  0  0  0  0  0  0  0  0  0  0
   -4.8320   22.4020  -32.2100 C   0  0  0  0  0  0  0  0  0  0  0  0
   -5.4260   21.1840  -32.5910 C   0  0  0  0  0  0  0  0  0  0  0  0
   -6.8110   20.9790  -32.4400 C   0  0  0  0  0  0  0  0  0  0  0  0
   -7.4400   19.7590  -32.7990 C   0  0  0  0  0  0  0  0  0  0  0  0
   -6.6840   18.5770  -33.2710 C   0  0  0  0  0  0  0  0  0  0  0  0
   -6.5850   17.4250  -32.4770 C   0  0  0  0  0  0  0  0  0  0  0  0
   -5.8840   16.3130  -32.9460 C   0  0  0  0  0  0  0  0  0  0  0  0
   -5.2970   16.3580  -34.2110 C   0  0  0  0  0  0  0  0  0  0  0  0
   -5.4120   17.4760  -34.9760 N   0  0  0  0  0  0  0  0  0  0  0  0
   -6.0890   18.5730  -34.5410 C   0  0  0  0  0  0  0  0  0  0  0  0
   -8.8330   19.6520  -32.6830 C   0  0  0  0  0  0  0  0  0  0  0  0
   -9.5770   20.7240  -32.1960 C   0  0  0  0  0  0  0  0  0  0  0  0
   -8.9620   21.8780  -31.8320 N   0  0  0  0  0  0  0  0  0  0  0  0
   -7.6110   22.0360  -31.9420 C   0  0  0  0  0  0  0  0  0  0  0  0
   -7.0140   23.2480  -31.5700 C   0  0  0  0  0  0  0  0  0  0  0  0
   -5.6250   23.4310  -31.6820 C   0  0  0  0  0  0  0  0  0  0  0  0
   -4.9880   24.6240  -31.3000 O   0  0  0  0  0  0  0  0  0  0  0  0
   -5.1240   25.2860  -30.0410 C   0  0  0  0  0  0  0  0  0  0  0  0
   -4.3770   24.5260  -28.9390 C   0  0  0  0  0  0  0  0  0  0  0  0
   -2.9140   24.6720  -29.0930 N   0  0  0  0  0  0  0  0  0  0  0  0
   -2.2750   24.9200  -27.7910 C   0  0  0  0  0  0  0  0  0  0  0  0
   -2.3250   23.4720  -29.7120 C   0  0  0  0  0  0  0  0  0  0  0  0
   -2.1109   21.2204  -31.6232 H   0  0  0  0  0  0  0  0  0  0  0  0
   -2.9472   20.7961  -33.1553 H   0  0  0  0  0  0  0  0  0  0  0  0
   -1.6466   22.0352  -33.1553 H   0  0  0  0  0  0  0  0  0  0  0  0
   -4.8008   20.3827  -33.0117 H   0  0  0  0  0  0  0  0  0  0  0  0
   -7.0597   17.3980  -31.4851 H   0  0  0  0  0  0  0  0  0  0  0  0
   -5.7951   15.4098  -32.3244 H   0  0  0  0  0  0  0  0  0  0  0  0
   -4.7406   15.4880  -34.5897 H   0  0  0  0  0  0  0  0  0  0  0  0
   -6.1699   19.4594  -35.1873 H   0  0  0  0  0  0  0  0  0  0  0  0
   -9.3389   18.7205  -32.9769 H   0  0  0  0  0  0  0  0  0  0  0  0
  -10.6697   20.6349  -32.1058 H   0  0  0  0  0  0  0  0  0  0  0  0
   -9.5540   22.6590  -31.4650 H   0  0  0  0  0  0  0  0  0  0  0  0
   -7.6404   24.0664  -31.1855 H   0  0  0  0  0  0  0  0  0  0  0  0
   -4.7100   26.3019  -30.1218 H   0  0  0  0  0  0  0  0  0  0  0  0
   -6.1915   25.3255  -29.7786 H   0  0  0  0  0  0  0  0  0  0  0  0
   -4.6773   24.9259  -27.9593 H   0  0  0  0  0  0  0  0  0  0  0  0
   -4.6325   23.4587  -29.0143 H   0  0  0  0  0  0  0  0  0  0  0  0
   -2.9713   24.6498  -26.9834 H   0  0  0  0  0  0  0  0  0  0  0  0
   -1.3630   24.3105  -27.7081 H   0  0  0  0  0  0  0  0  0  0  0  0
   -2.0130   25.9851  -27.7081 H   0  0  0  0  0  0  0  0  0  0  0  0
   -1.9864   22.7821  -28.9250 H   0  0  0  0  0  0  0  0  0  0  0  0
   -3.0807   22.9732  -30.3366 H   0  0  0  0  0  0  0  0  0  0  0  0
   -1.4681   23.7647  -30.3366 H   0  0  0  0  0  0  0  0  0  0  0  0
  1  2  1  0
  2  3  1  0
  3  4  2  0
  4  5  1  0
  5  6  2  0
  6  7  1  0
  7  8  2  0
  8  9  1  0
  9 10  2  0
 10 11  1  0
 11 12  2  0
  6 13  1  0
 13 14  2  0
 14 15  1  0
 15 16  2  0
 16 17  1  0
 17 18  2  0
 18 19  1  0
 19 20  1  0
 20 21  1  0
 21 22  1  0
 22 23  1  0
 22 24  1  0
 18  3  1  0
 16  5  1  0
 12  7  1  0
  1 25  1  0
  1 26  1  0
  1 27  1  0
  4 28  1  0
  8 29  1  0
  9 30  1  0
 10 31  1  0
 12 32  1  0
 13 33  1  0
 14 34  1  0
 15 35  1  0
 17 36  1  0
 20 37  1  0
 20 38  1  0
 21 39  1  0
 21 40  1  0
 23 41  1  0
 23 42  1  0
 23 43  1  0
 24 44  1  0
 24 45  1  0
 24 46  1  0
M  CHG  1  15   1
M  END
>  <UniqueID>  (31) 
29

>  <SMILES>  (31) 
COc1cc2c(-c3cccnc3)cc[nH+]c2cc1OCCN(C)C

>  <Energy>  (31) 
60.01023051197972

>  <Genealogy>  (31) 
COc1cc2c(-c3cccnc3)cc[nH+]c2cc1OCCN(C)C (protonated)
COc1cc2c(-c3cccnc3)cc[nH+]c2cc1OCCN(C)C (3D coordinates assigned)
COc1cc2c(-c3cccnc3)cc[nH+]c2cc1OCCN(C)C (optimized conformer: 60.01023051197972 kcal/mol)

>  <smiles>  (31) 
COc1cc2c(-c3cccnc3)ccnc2cc1OCCN(C)C

>  <score_type>  (31) 
oracle

>  <origin>  (31) 
adg

>  <m_score__min__energy>  (31) 
-7.6399999999999997

>  <m_primary>  (31) 
energy

$$$$
31:0
     RDKit          3D

 48 50  0  0  0  0  0  0  0  0999 V2000
   -1.8730   24.9740  -28.2850 C   0  0  0  0  0  0  0  0  0  0  0  0
   -2.7450   25.2930  -29.3640 O   0  0  0  0  0  0  0  0  0  0  0  0
   -3.8140   24.4870  -29.7840 C   0  0  0  0  0  0  0  0  0  0  0  0
   -3.8300   23.0930  -29.5890 C   0  0  0  0  0  0  0  0  0  0  0  0
   -4.9190   22.3310  -30.0250 C   0  0  0  0  0  0  0  0  0  0  0  0
   -6.0120   22.9450  -30.6640 C   0  0  0  0  0  0  0  0  0  0  0  0
   -7.1780   22.1550  -31.1300 C   0  0  0  0  0  0  0  0  0  0  0  0
   -8.2770   22.7050  -31.6910 N   0  0  0  0  0  0  0  0  0  0  0  0
   -9.0630   21.7050  -31.9650 O   0  0  0  0  0  0  0  0  0  0  0  0
   -8.4980   20.5830  -31.5940 C   0  0  0  0  0  0  0  0  0  0  0  0
   -9.1010   19.2270  -31.7820 C   0  0  0  0  0  0  0  0  0  0  0  0
   -8.2280   18.3790  -32.7150 C   0  0  0  0  0  0  0  0  0  0  0  0
   -6.9150   17.9820  -32.0850 C   0  0  0  0  0  0  0  0  0  0  0  0
   -6.7490   18.1430  -30.8440 O   0  0  0  0  0  0  0  0  0  0  0  0
   -5.8480   17.4070  -32.8710 N   0  0  0  0  0  0  0  0  0  0  0  0
   -5.3570   16.0700  -32.5200 C   0  0  0  0  0  0  0  0  0  0  0  0
   -5.3340   18.0560  -34.0870 C   0  0  0  0  0  0  0  0  0  0  0  0
   -4.5030   19.2570  -33.7210 C   0  0  0  0  0  0  0  0  0  0  0  0
   -5.1160   20.4940  -33.4570 C   0  0  0  0  0  0  0  0  0  0  0  0
   -4.3410   21.5980  -33.0880 C   0  0  0  0  0  0  0  0  0  0  0  0
   -2.9540   21.4750  -32.9720 C   0  0  0  0  0  0  0  0  0  0  0  0
   -2.3390   20.2450  -33.2240 C   0  0  0  0  0  0  0  0  0  0  0  0
   -3.1100   19.1380  -33.5940 C   0  0  0  0  0  0  0  0  0  0  0  0
   -7.2880   20.8120  -31.0570 N   0  0  0  0  0  0  0  0  0  0  0  0
   -5.9890   24.3390  -30.8550 C   0  0  0  0  0  0  0  0  0  0  0  0
   -4.8990   25.0980  -30.4180 C   0  0  0  0  0  0  0  0  0  0  0  0
   -2.3866   25.1619  -27.3306 H   0  0  0  0  0  0  0  0  0  0  0  0
   -1.5878   23.9133  -28.3453 H   0  0  0  0  0  0  0  0  0  0  0  0
   -0.9707   25.6003  -28.3453 H   0  0  0  0  0  0  0  0  0  0  0  0
   -2.9818   22.6004  -29.0912 H   0  0  0  0  0  0  0  0  0  0  0  0
   -4.9209   21.2424  -29.8670 H   0  0  0  0  0  0  0  0  0  0  0  0
   -9.1801   18.7268  -30.8055 H   0  0  0  0  0  0  0  0  0  0  0  0
  -10.0990   19.3391  -32.2309 H   0  0  0  0  0  0  0  0  0  0  0  0
   -8.7810   17.4659  -32.9806 H   0  0  0  0  0  0  0  0  0  0  0  0
   -7.9996   18.9893  -33.6012 H   0  0  0  0  0  0  0  0  0  0  0  0
   -5.3198   15.9688  -31.4253 H   0  0  0  0  0  0  0  0  0  0  0  0
   -6.0346   15.3097  -32.9357 H   0  0  0  0  0  0  0  0  0  0  0  0
   -4.3484   15.9290  -32.9357 H   0  0  0  0  0  0  0  0  0  0  0  0
   -4.7130   17.3408  -34.6463 H   0  0  0  0  0  0  0  0  0  0  0  0
   -6.1822   18.3808  -34.7076 H   0  0  0  0  0  0  0  0  0  0  0  0
   -6.2082   20.5939  -33.5409 H   0  0  0  0  0  0  0  0  0  0  0  0
   -4.8245   22.5657  -32.8886 H   0  0  0  0  0  0  0  0  0  0  0  0
   -2.3465   22.3452  -32.6827 H   0  0  0  0  0  0  0  0  0  0  0  0
   -1.2473   20.1476  -33.1312 H   0  0  0  0  0  0  0  0  0  0  0  0
   -2.6229   18.1706  -33.7862 H   0  0  0  0  0  0  0  0  0  0  0  0
   -6.6130   20.1060  -30.6910 H   0  0  0  0  0  0  0  0  0  0  0  0
   -6.8353   24.8356  -31.3521 H   0  0  0  0  0  0  0  0  0  0  0  0
   -4.8956   26.1868  -30.5749 H   0  0  0  0  0  0  0  0  0  0  0  0
  1  2  1  0
  2  3  1  0
  3  4  2  0
  4  5  1  0
  5  6  2  0
  6  7  1  0
  7  8  2  0
  8  9  1  0
  9 10  1  0
 10 11  1  0
 11 12  1  0
 12 13  1  0
 13 14  2  0
 13 15  1  0
 15 16  1  0
 15 17  1  0
 17 18  1  0
 18 19  2  0
 19 20  1  0
 20 21  2  0
 21 22  1  0
 22 23  2  0
 10 24  2  0
  6 25  1  0
 25 26  2  0
 26  3  1  0
 24  7  1  0
 23 18  1  0
  1 27  1  0
  1 28  1  0
  1 29  1  0
  4 30  1  0
  5 31  1  0
 11 32  1  0
 11 33  1  0
 12 34  1  0
 12 35  1  0
 16 36  1  0
 16 37  1  0
 16 38  1  0
 17 39  1  0
 17 40  1  0
 19 41  1  0
 20 42  1  0
 21 43  1  0
 22 44  1  0
 23 45  1  0
 24 46  1  0
 25 47  1  0
 26 48  1  0
M  CHG  1  24   1
M  END
>  <UniqueID>  (32) 
30

>  <SMILES>  (32) 
COc1ccc(-c2noc(CCC(=O)N(C)Cc3ccccc3)[nH+]2)cc1

>  <Energy>  (32) 
81.59902283380968

>  <Genealogy>  (32) 
COc1ccc(-c2noc(CCC(=O)N(C)Cc3ccccc3)[nH+]2)cc1 (protonated)
COc1ccc(-c2noc(CCC(=O)N(C)Cc3ccccc3)[nH+]2)cc1 (3D coordinates assigned)
COc1ccc(-c2noc(CCC(=O)N(C)Cc3ccccc3)[nH+]2)cc1 (optimized conformer: 81.59902283380968 kcal/mol)

>  <smiles>  (32) 
COc1ccc(-c2noc(CCC(=O)N(C)Cc3ccccc3)n2)cc1

>  <score_type>  (32) 
oracle

>  <origin>  (32) 
adg

>  <m_score__min__energy>  (32) 
-8.2799999999999994

>  <m_primary>  (32) 
energy

$$$$
32:0
     RDKit          3D

 43 45  0  0  0  0  0  0  0  0999 V2000
   -9.4680   21.5780  -31.4410 C   0  0  0  0  0  0  0  0  0  0  0  0
   -9.8810   20.4330  -32.3600 C   0  0  0  0  0  0  0  0  0  0  0  0
   -8.7170   19.8460  -33.0220 N   0  0  0  0  0  0  0  0  0  0  0  0
   -8.0870   18.6630  -32.5220 C   0  0  0  0  0  0  0  0  0  0  0  0
   -8.5140   18.1170  -31.4670 O   0  0  0  0  0  0  0  0  0  0  0  0
   -6.9640   18.1560  -33.1880 O   0  0  0  0  0  0  0  0  0  0  0  0
   -5.6720   18.6980  -33.1280 C   0  0  0  0  0  0  0  0  0  0  0  0
   -4.6250   17.9860  -33.7210 C   0  0  0  0  0  0  0  0  0  0  0  0
   -3.3100   18.4780  -33.6890 C   0  0  0  0  0  0  0  0  0  0  0  0
   -2.2070   17.7220  -34.3380 C   0  0  0  0  0  0  0  0  0  0  0  0
   -0.9220   18.2850  -34.4490 C   0  0  0  0  0  0  0  0  0  0  0  0
    0.1140   17.5710  -35.0600 C   0  0  0  0  0  0  0  0  0  0  0  0
   -0.1210   16.2910  -35.5660 C   0  0  0  0  0  0  0  0  0  0  0  0
   -1.3930   15.7210  -35.4620 C   0  0  0  0  0  0  0  0  0  0  0  0
   -2.4320   16.4300  -34.8520 C   0  0  0  0  0  0  0  0  0  0  0  0
   -3.0510   19.6970  -33.0380 C   0  0  0  0  0  0  0  0  0  0  0  0
   -4.0880   20.4150  -32.4160 C   0  0  0  0  0  0  0  0  0  0  0  0
   -3.8030   21.6900  -31.7110 C   0  0  0  0  0  0  0  0  0  0  0  0
   -2.5360   21.9260  -31.1440 C   0  0  0  0  0  0  0  0  0  0  0  0
   -2.2680   23.1270  -30.4800 C   0  0  0  0  0  0  0  0  0  0  0  0
   -3.2600   24.1060  -30.3750 C   0  0  0  0  0  0  0  0  0  0  0  0
   -2.9920   25.2990  -29.7160 O   0  0  0  0  0  0  0  0  0  0  0  0
   -4.5210   23.8840  -30.9340 C   0  0  0  0  0  0  0  0  0  0  0  0
   -4.7930   22.6840  -31.5980 C   0  0  0  0  0  0  0  0  0  0  0  0
   -5.3960   19.9040  -32.4620 C   0  0  0  0  0  0  0  0  0  0  0  0
   -9.5807   21.2654  -30.3924 H   0  0  0  0  0  0  0  0  0  0  0  0
   -8.4178   21.8424  -31.6339 H   0  0  0  0  0  0  0  0  0  0  0  0
  -10.1076   22.4519  -31.6339 H   0  0  0  0  0  0  0  0  0  0  0  0
  -10.3850   19.6576  -31.7643 H   0  0  0  0  0  0  0  0  0  0  0  0
  -10.5592   20.8292  -33.1301 H   0  0  0  0  0  0  0  0  0  0  0  0
   -8.3240   20.2860  -33.8850 H   0  0  0  0  0  0  0  0  0  0  0  0
   -4.8340   17.0278  -34.2192 H   0  0  0  0  0  0  0  0  0  0  0  0
   -0.7311   19.2932  -34.0526 H   0  0  0  0  0  0  0  0  0  0  0  0
    1.1155   18.0186  -35.1420 H   0  0  0  0  0  0  0  0  0  0  0  0
    0.6949   15.7312  -36.0465 H   0  0  0  0  0  0  0  0  0  0  0  0
   -1.5769   14.7125  -35.8609 H   0  0  0  0  0  0  0  0  0  0  0  0
   -3.4310   15.9763  -34.7730 H   0  0  0  0  0  0  0  0  0  0  0  0
   -2.0253   20.0937  -33.0149 H   0  0  0  0  0  0  0  0  0  0  0  0
   -1.7509   21.1597  -31.2240 H   0  0  0  0  0  0  0  0  0  0  0  0
   -1.2752   23.3016  -30.0397 H   0  0  0  0  0  0  0  0  0  0  0  0
   -5.3014   24.6548  -30.8516 H   0  0  0  0  0  0  0  0  0  0  0  0
   -5.7882   22.5155  -32.0353 H   0  0  0  0  0  0  0  0  0  0  0  0
   -6.2126   20.4539  -31.9714 H   0  0  0  0  0  0  0  0  0  0  0  0
  1  2  1  0
  2  3  1  0
  3  4  1  0
  4  5  2  0
  4  6  1  0
  6  7  1  0
  7  8  2  0
  8  9  1  0
  9 10  1  0
 10 11  2  0
 11 12  1  0
 12 13  2  0
 13 14  1  0
 14 15  2  0
  9 16  2  0
 16 17  1  0
 17 18  1  0
 18 19  2  0
 19 20  1  0
 20 21  2  0
 21 22  1  0
 21 23  1  0
 23 24  2  0
 17 25  2  0
 25  7  1  0
 15 10  1  0
 24 18  1  0
  1 26  1  0
  1 27  1  0
  1 28  1  0
  2 29  1  0
  2 30  1  0
  3 31  1  0
  8 32  1  0
 11 33  1  0
 12 34  1  0
 13 35  1  0
 14 36  1  0
 15 37  1  0
 16 38  1  0
 19 39  1  0
 20 40  1  0
 23 41  1  0
 24 42  1  0
 25 43  1  0
M  CHG  1  22  -1
M  END
>  <UniqueID>  (33) 
31

>  <SMILES>  (33) 
CCNC(=O)Oc1cc(-c2ccccc2)cc(-c2ccc([O-])cc2)c1

>  <Energy>  (33) 
55.16905793505669

>  <Genealogy>  (33) 
CCNC(=O)Oc1cc(-c2ccccc2)cc(-c2ccc([O-])cc2)c1 (protonated)
CCNC(=O)Oc1cc(-c2ccccc2)cc(-c2ccc([O-])cc2)c1 (3D coordinates assigned)
CCNC(=O)Oc1cc(-c2ccccc2)cc(-c2ccc([O-])cc2)c1 (optimized conformer: 55.16905793505669 kcal/mol)

>  <smiles>  (33) 
CCNC(=O)Oc1cc(-c2ccccc2)cc(-c2ccc(O)cc2)c1

>  <score_type>  (33) 
oracle

>  <origin>  (33) 
adg

>  <m_score__min__energy>  (33) 
-9.9900000000000002

>  <m_primary>  (33) 
energy

$$$$
33:0
     RDKit          3D

 52 54  0  0  0  0  0  0  0  0999 V2000
   -6.2200   19.6760  -34.3990 O   0  0  0  0  0  0  0  0  0  0  0  0
   -5.5760   18.6710  -34.1310 C   0  0  0  0  0  0  0  0  0  0  0  0
   -6.1070   17.3370  -34.6030 C   0  0  0  0  0  0  0  0  0  0  0  0
   -5.2460   16.1850  -34.0750 C   0  0  0  0  0  0  0  0  0  0  0  0
   -3.7610   16.4440  -34.3470 C   0  0  0  0  0  0  0  0  0  0  0  0
   -3.3700   17.8470  -33.9450 C   0  0  0  0  0  0  0  0  0  0  0  0
   -2.2150   18.2050  -34.1330 O   0  0  0  0  0  0  0  0  0  0  0  0
   -4.3530   18.7380  -33.3390 N   0  0  0  0  0  0  0  0  0  0  0  0
   -3.8520   20.1310  -33.1800 C   0  0  0  0  0  0  0  0  0  0  0  0
   -3.2740   20.4000  -31.7650 C   0  0  0  0  0  0  0  0  0  0  0  0
   -3.3110   21.8850  -31.3600 C   0  0  0  0  0  0  0  0  0  0  0  0
   -4.4190   22.6600  -32.0880 C   0  0  0  0  0  0  0  0  0  0  0  0
   -5.0010   23.7130  -31.2200 N   0  0  0  0  0  0  0  0  0  0  0  0
   -6.1390   24.4300  -31.8460 C   0  0  0  0  0  0  0  0  0  0  0  0
   -7.3450   23.5040  -32.0960 C   0  0  0  0  0  0  0  0  0  0  0  0
   -7.3630   22.4150  -31.1140 N   0  0  0  0  0  0  0  0  0  0  0  0
   -7.8070   21.0980  -31.4940 C   0  0  0  0  0  0  0  0  0  0  0  0
   -9.0370   20.9270  -32.1520 C   0  0  0  0  0  0  0  0  0  0  0  0
   -9.4570   19.6510  -32.5430 C   0  0  0  0  0  0  0  0  0  0  0  0
   -8.6520   18.5390  -32.2880 C   0  0  0  0  0  0  0  0  0  0  0  0
   -7.4230   18.7000  -31.6440 C   0  0  0  0  0  0  0  0  0  0  0  0
   -6.9970   19.9730  -31.2540 C   0  0  0  0  0  0  0  0  0  0  0  0
   -6.8220   22.6860  -29.7790 C   0  0  0  0  0  0  0  0  0  0  0  0
   -5.3680   23.1960  -29.8750 C   0  0  0  0  0  0  0  0  0  0  0  0
   -7.1377   17.2113  -34.2399 H   0  0  0  0  0  0  0  0  0  0  0  0
   -6.0806   17.3186  -35.7025 H   0  0  0  0  0  0  0  0  0  0  0  0
   -5.4018   16.0865  -32.9905 H   0  0  0  0  0  0  0  0  0  0  0  0
   -5.5419   15.2597  -34.5910 H   0  0  0  0  0  0  0  0  0  0  0  0
   -3.1598   15.7248  -33.7714 H   0  0  0  0  0  0  0  0  0  0  0  0
   -3.5780   16.3261  -35.4252 H   0  0  0  0  0  0  0  0  0  0  0  0
   -4.5840   18.3520  -32.3950 H   0  0  0  0  0  0  0  0  0  0  0  0
   -3.0605   20.3076  -33.9232 H   0  0  0  0  0  0  0  0  0  0  0  0
   -4.7048   20.8103  -33.3260 H   0  0  0  0  0  0  0  0  0  0  0  0
   -3.8608   19.8247  -31.0338 H   0  0  0  0  0  0  0  0  0  0  0  0
   -2.2172   20.0952  -31.7832 H   0  0  0  0  0  0  0  0  0  0  0  0
   -3.4861   21.9518  -30.2761 H   0  0  0  0  0  0  0  0  0  0  0  0
   -2.3466   22.3343  -31.6395 H   0  0  0  0  0  0  0  0  0  0  0  0
   -3.9952   23.1309  -32.9873 H   0  0  0  0  0  0  0  0  0  0  0  0
   -5.2171   21.9527  -32.3579 H   0  0  0  0  0  0  0  0  0  0  0  0
   -6.4522   25.2472  -31.1797 H   0  0  0  0  0  0  0  0  0  0  0  0
   -5.8011   24.8140  -32.8198 H   0  0  0  0  0  0  0  0  0  0  0  0
   -8.2740   24.0866  -32.0088 H   0  0  0  0  0  0  0  0  0  0  0  0
   -7.2629   23.0743  -33.1052 H   0  0  0  0  0  0  0  0  0  0  0  0
   -9.6724   21.8004  -32.3606 H   0  0  0  0  0  0  0  0  0  0  0  0
  -10.4236   19.5235  -33.0524 H   0  0  0  0  0  0  0  0  0  0  0  0
   -8.9855   17.5365  -32.5942 H   0  0  0  0  0  0  0  0  0  0  0  0
   -6.7893   17.8236  -31.4434 H   0  0  0  0  0  0  0  0  0  0  0  0
   -6.0234   20.0958  -30.7569 H   0  0  0  0  0  0  0  0  0  0  0  0
   -7.4413   23.4500  -29.2863 H   0  0  0  0  0  0  0  0  0  0  0  0
   -6.8328   21.7533  -29.1960 H   0  0  0  0  0  0  0  0  0  0  0  0
   -5.2360   24.0071  -29.1438 H   0  0  0  0  0  0  0  0  0  0  0  0
   -4.7128   22.3359  -29.6726 H   0  0  0  0  0  0  0  0  0  0  0  0
  1  2  2  0
  2  3  1  0
  3  4  1  0
  4  5  1  0
  5  6  1  0
  6  7  2  0
  6  8  1  0
  8  9  1  0
  9 10  1  0
 10 11  1  0
 11 12  1  0
 12 13  1  0
 13 14  1  0
 14 15  1  0
 15 16  1  0
 16 17  1  0
 17 18  2  0
 18 19  1  0
 19 20  2  0
 20 21  1  0
 21 22  2  0
 16 23  1  0
 23 24  1  0
  8  2  1  0
 24 13  1  0
 22 17  1  0
  3 25  1  0
  3 26  1  0
  4 27  1  0
  4 28  1  0
  5 29  1  0
  5 30  1  0
  8 31  1  0
  9 32  1  0
  9 33  1  0
 10 34  1  0
 10 35  1  0
 11 36  1  0
 11 37  1  0
 12 38  1  0
 12 39  1  0
 14 40  1  0
 14 41  1  0
 15 42  1  0
 15 43  1  0
 18 44  1  0
 19 45  1  0
 20 46  1  0
 21 47  1  0
 22 48  1  0
 23 49  1  0
 23 50  1  0
 24 51  1  0
 24 52  1  0
M  CHG  1   8   1
M  END
>  <UniqueID>  (34) 
32

>  <SMILES>  (34) 
O=C1CCCC(=O)[NH+]1CCCCN1CCN(c2ccccc2)CC1

>  <Energy>  (34) 
67.85124919032404

>  <Genealogy>  (34) 
O=C1CCCC(=O)[NH+]1CCCCN1CCN(c2ccccc2)CC1 (protonated)
O=C1CCCC(=O)[NH+]1CCCCN1CCN(c2ccccc2)CC1 (3D coordinates assigned)
O=C1CCCC(=O)[NH+]1CCCCN1CCN(c2ccccc2)CC1 (nonaromatic ring conformer: 67.85124919032404 kcal/mol)

>  <smiles>  (34) 
O=C1CCCC(=O)N1CCCCN1CCN(c2ccccc2)CC1

>  <score_type>  (34) 
oracle

>  <origin>  (34) 
adg

>  <m_score__min__energy>  (34) 
-7.4199999999999999

>  <m_primary>  (34) 
energy

$$$$
34:0
     RDKit          3D

 65 68  0  0  0  0  0  0  0  0999 V2000
   -0.8880   30.0990  -25.2410 C   0  0  0  0  0  0  0  0  0  0  0  0
   -1.1830   28.8910  -25.9360 O   0  0  0  0  0  0  0  0  0  0  0  0
   -0.9370   27.6050  -25.4300 C   0  0  0  0  0  0  0  0  0  0  0  0
   -0.5350   27.3840  -24.1030 C   0  0  0  0  0  0  0  0  0  0  0  0
   -0.3180   26.0890  -23.6420 C   0  0  0  0  0  0  0  0  0  0  0  0
   -0.4880   24.9900  -24.4970 C   0  0  0  0  0  0  0  0  0  0  0  0
   -0.2960   23.7300  -24.0260 N   0  0  0  0  0  0  0  0  0  0  0  0
   -0.4800   22.6510  -24.8230 C   0  0  0  0  0  0  0  0  0  0  0  0
   -0.8510   22.8230  -26.1560 C   0  0  0  0  0  0  0  0  0  0  0  0
   -1.0300   21.7970  -26.8680 O   0  0  0  0  0  0  0  0  0  0  0  0
   -1.0170   24.0860  -26.6770 N   0  0  0  0  0  0  0  0  0  0  0  0
   -1.3810   24.2200  -28.1050 C   0  0  0  0  0  0  0  0  0  0  0  0
   -2.8750   24.5380  -28.2540 C   0  0  0  0  0  0  0  0  0  0  0  0
   -3.5400   23.5090  -29.0810 N   0  0  0  0  0  0  0  0  0  0  0  0
   -2.8920   23.4020  -30.4110 C   0  0  0  0  0  0  0  0  0  0  0  0
   -3.7790   22.6540  -31.4090 C   0  0  0  0  0  0  0  0  0  0  0  0
   -5.0980   23.4290  -31.6700 C   0  0  0  0  0  0  0  0  0  0  0  0
   -6.2110   22.5210  -32.0050 N   0  0  0  0  0  0  0  0  0  0  0  0
   -7.3800   22.7380  -31.1430 C   0  0  0  0  0  0  0  0  0  0  0  0
   -8.4450   21.6810  -31.4370 C   0  0  0  0  0  0  0  0  0  0  0  0
   -8.2220   21.0800  -32.7130 O   0  0  0  0  0  0  0  0  0  0  0  0
   -7.4120   19.9570  -32.9640 C   0  0  0  0  0  0  0  0  0  0  0  0
   -6.2290   20.0380  -33.7290 C   0  0  0  0  0  0  0  0  0  0  0  0
   -5.4550   18.8990  -33.9550 C   0  0  0  0  0  0  0  0  0  0  0  0
   -5.8470   17.6680  -33.4290 C   0  0  0  0  0  0  0  0  0  0  0  0
   -7.0170   17.5720  -32.6740 C   0  0  0  0  0  0  0  0  0  0  0  0
   -7.8060   18.7100  -32.4380 C   0  0  0  0  0  0  0  0  0  0  0  0
   -9.0630   18.5980  -31.6220 C   0  0  0  0  0  0  0  0  0  0  0  0
   -5.4940   24.3080  -30.4610 C   0  0  0  0  0  0  0  0  0  0  0  0
   -5.0170   23.6940  -29.1360 C   0  0  0  0  0  0  0  0  0  0  0  0
   -0.8720   25.1860  -25.8480 C   0  0  0  0  0  0  0  0  0  0  0  0
   -1.1040   26.5130  -26.2900 C   0  0  0  0  0  0  0  0  0  0  0  0
   -0.9321   29.9184  -24.1568 H   0  0  0  0  0  0  0  0  0  0  0  0
    0.1205   30.4426  -25.5148 H   0  0  0  0  0  0  0  0  0  0  0  0
   -1.6246   30.8688  -25.5148 H   0  0  0  0  0  0  0  0  0  0  0  0
   -0.3910   28.2381  -23.4249 H   0  0  0  0  0  0  0  0  0  0  0  0
   -0.0106   25.9258  -22.5985 H   0  0  0  0  0  0  0  0  0  0  0  0
   -0.0150   23.5720  -23.0310 H   0  0  0  0  0  0  0  0  0  0  0  0
   -0.3367   21.6381  -24.4186 H   0  0  0  0  0  0  0  0  0  0  0  0
   -0.7918   25.0334  -28.5535 H   0  0  0  0  0  0  0  0  0  0  0  0
   -1.1680   23.2695  -28.6160 H   0  0  0  0  0  0  0  0  0  0  0  0
   -3.3420   24.5605  -27.2583 H   0  0  0  0  0  0  0  0  0  0  0  0
   -2.9847   25.5164  -28.7447 H   0  0  0  0  0  0  0  0  0  0  0  0
   -2.6961   24.4138  -30.7955 H   0  0  0  0  0  0  0  0  0  0  0  0
   -1.9543   22.8391  -30.2935 H   0  0  0  0  0  0  0  0  0  0  0  0
   -3.2351   22.5395  -32.3583 H   0  0  0  0  0  0  0  0  0  0  0  0
   -4.0286   21.6694  -30.9868 H   0  0  0  0  0  0  0  0  0  0  0  0
   -4.9058   24.0822  -32.5340 H   0  0  0  0  0  0  0  0  0  0  0  0
   -6.4930   22.6660  -33.0040 H   0  0  0  0  0  0  0  0  0  0  0  0
   -7.0747   22.6651  -30.0887 H   0  0  0  0  0  0  0  0  0  0  0  0
   -7.7960   23.7369  -31.3407 H   0  0  0  0  0  0  0  0  0  0  0  0
   -8.4059   20.9034  -30.6600 H   0  0  0  0  0  0  0  0  0  0  0  0
   -9.4322   22.1662  -31.4427 H   0  0  0  0  0  0  0  0  0  0  0  0
   -5.9151   21.0047  -34.1497 H   0  0  0  0  0  0  0  0  0  0  0  0
   -4.5327   18.9722  -34.5499 H   0  0  0  0  0  0  0  0  0  0  0  0
   -5.2339   16.7727  -33.6093 H   0  0  0  0  0  0  0  0  0  0  0  0
   -7.3231   16.5994  -32.2613 H   0  0  0  0  0  0  0  0  0  0  0  0
   -8.8088   18.6206  -30.5520 H   0  0  0  0  0  0  0  0  0  0  0  0
   -9.7299   19.4403  -31.8584 H   0  0  0  0  0  0  0  0  0  0  0  0
   -9.5704   17.6511  -31.8584 H   0  0  0  0  0  0  0  0  0  0  0  0
   -5.0387   25.3025  -30.5781 H   0  0  0  0  0  0  0  0  0  0  0  0
   -6.5913   24.3797  -30.4321 H   0  0  0  0  0  0  0  0  0  0  0  0
   -5.3183   24.3584  -28.3127 H   0  0  0  0  0  0  0  0  0  0  0  0
   -5.4776   22.6989  -29.0487 H   0  0  0  0  0  0  0  0  0  0  0  0
   -1.4213   26.6879  -27.3286 H   0  0  0  0  0  0  0  0  0  0  0  0
  1  2  1  0
  2  3  1  0
  3  4  2  0
  4  5  1  0
  5  6  2  0
  6  7  1  0
  7  8  2  0
  8  9  1  0
  9 10  2  0
  9 11  1  0
 11 12  1  0
 12 13  1  0
 13 14  1  0
 14 15  1  0
 15 16  1  0
 16 17  1  0
 17 18  1  0
 18 19  1  0
 19 20  1  0
 20 21  1  0
 21 22  1  0
 22 23  2  0
 23 24  1  0
 24 25  2  0
 25 26  1  0
 26 27  2  0
 27 28  1  0
 17 29  1  0
 29 30  1  0
 11 31  1  0
 31 32  2  0
 32  3  1  0
 31  6  1  0
 30 14  1  0
 27 22  1  0
  1 33  1  0
  1 34  1  0
  1 35  1  0
  4 36  1  0
  5 37  1  0
  7 38  1  0
  8 39  1  0
 12 40  1  0
 12 41  1  0
 13 42  1  0
 13 43  1  0
 15 44  1  0
 15 45  1  0
 16 46  1  0
 16 47  1  0
 17 48  1  0
 18 49  1  0
 19 50  1  0
 19 51  1  0
 20 52  1  0
 20 53  1  0
 23 54  1  0
 24 55  1  0
 25 56  1  0
 26 57  1  0
 28 58  1  0
 28 59  1  0
 28 60  1  0
 29 61  1  0
 29 62  1  0
 30 63  1  0
 30 64  1  0
 32 65  1  0
M  CHG  1   7   1
M  END
>  <UniqueID>  (35) 
33

>  <SMILES>  (35) 
COc1ccc2[nH+]cc(=O)n(CCN3CCC(NCCOc4ccccc4C)CC3)c2c1

>  <Energy>  (35) 
83.35455329692198

>  <Genealogy>  (35) 
COc1ccc2[nH+]cc(=O)n(CCN3CCC(NCCOc4ccccc4C)CC3)c2c1 (protonated)
COc1ccc2[nH+]cc(=O)n(CCN3CCC(NCCOc4ccccc4C)CC3)c2c1 (3D coordinates assigned)
COc1ccc2[nH+]cc(=O)n(CCN3CCC(NCCOc4ccccc4C)CC3)c2c1 (nonaromatic ring conformer: 83.35455329692198 kcal/mol)

>  <smiles>  (35) 
COc1ccc2ncc(=O)n(CCN3CCC(NCCOc4ccccc4C)CC3)c2c1

>  <score_type>  (35) 
oracle

>  <origin>  (35) 
adg

>  <m_score__min__energy>  (35) 
-9.4299999999999997

>  <m_primary>  (35) 
energy

$$$$
35:0
     RDKit          3D

 43 46  0  0  0  0  0  0  0  0999 V2000
   -2.5160   19.1660  -26.3810 C   0  0  0  0  0  0  0  0  0  0  0  0
   -2.7530   19.7410  -27.6610 O   0  0  0  0  0  0  0  0  0  0  0  0
   -2.5240   21.0870  -27.9820 C   0  0  0  0  0  0  0  0  0  0  0  0
   -1.4050   21.7930  -27.5110 C   0  0  0  0  0  0  0  0  0  0  0  0
   -1.2170   23.1310  -27.8600 C   0  0  0  0  0  0  0  0  0  0  0  0
   -2.1450   23.7950  -28.6870 C   0  0  0  0  0  0  0  0  0  0  0  0
   -1.9690   25.1390  -29.0530 O   0  0  0  0  0  0  0  0  0  0  0  0
   -1.2160   26.0910  -28.3080 C   0  0  0  0  0  0  0  0  0  0  0  0
   -3.2780   23.0920  -29.1580 C   0  0  0  0  0  0  0  0  0  0  0  0
   -4.2910   23.7620  -30.0690 C   0  0  2  0  0  0  0  0  0  0  0  0
   -5.3360   24.9300  -29.1360 S   0  0  0  0  0  0  0  0  0  0  0  0
   -6.6570   24.7630  -30.3640 C   0  0  0  0  0  0  0  0  0  0  0  0
   -6.5310   23.4020  -30.9460 C   0  0  0  0  0  0  0  0  0  0  0  0
   -7.5900   22.7870  -31.3800 N   0  0  0  0  0  0  0  0  0  0  0  0
   -7.6860   21.4320  -31.8470 C   0  0  0  0  0  0  0  0  0  0  0  0
   -8.8930   20.7600  -31.6120 C   0  0  0  0  0  0  0  0  0  0  0  0
   -9.0870   19.4540  -32.0650 C   0  0  0  0  0  0  0  0  0  0  0  0
   -8.0800   18.8100  -32.7810 C   0  0  0  0  0  0  0  0  0  0  0  0
   -6.8820   19.4730  -33.0490 C   0  0  0  0  0  0  0  0  0  0  0  0
   -6.6620   20.7820  -32.5850 C   0  0  0  0  0  0  0  0  0  0  0  0
   -5.4440   21.4370  -32.9720 N   0  0  0  0  0  0  0  0  0  0  0  0
   -4.6820   22.3040  -32.1260 C   0  0  0  0  0  0  0  0  0  0  0  0
   -3.5390   22.6710  -32.5150 O   0  0  0  0  0  0  0  0  0  0  0  0
   -5.2070   22.7370  -30.7810 C   0  0  1  0  0  0  0  0  0  0  0  0
   -3.4480   21.7410  -28.8010 C   0  0  0  0  0  0  0  0  0  0  0  0
   -2.8104   19.8803  -25.5980 H   0  0  0  0  0  0  0  0  0  0  0  0
   -3.1076   18.2444  -26.2778 H   0  0  0  0  0  0  0  0  0  0  0  0
   -1.4468   18.9289  -26.2778 H   0  0  0  0  0  0  0  0  0  0  0  0
   -0.6728   21.2885  -26.8635 H   0  0  0  0  0  0  0  0  0  0  0  0
   -0.3358   23.6727  -27.4859 H   0  0  0  0  0  0  0  0  0  0  0  0
   -1.3587   25.9106  -27.2323 H   0  0  0  0  0  0  0  0  0  0  0  0
   -0.1494   25.9917  -28.5581 H   0  0  0  0  0  0  0  0  0  0  0  0
   -1.5583   27.1060  -28.5581 H   0  0  0  0  0  0  0  0  0  0  0  0
   -3.7099   24.3030  -30.8303 H   0  0  0  0  0  0  0  0  0  0  0  0
   -7.6390   24.8797  -29.8823 H   0  0  0  0  0  0  0  0  0  0  0  0
   -6.5724   25.5352  -31.1428 H   0  0  0  0  0  0  0  0  0  0  0  0
   -9.6989   21.2688  -31.0628 H   0  0  0  0  0  0  0  0  0  0  0  0
  -10.0337   18.9339  -31.8570 H   0  0  0  0  0  0  0  0  0  0  0  0
   -8.2295   17.7792  -33.1348 H   0  0  0  0  0  0  0  0  0  0  0  0
   -6.0991   18.9649  -33.6311 H   0  0  0  0  0  0  0  0  0  0  0  0
   -4.9860   21.1240  -33.8580 H   0  0  0  0  0  0  0  0  0  0  0  0
   -5.2649   21.8208  -30.1749 H   0  0  0  0  0  0  0  0  0  0  0  0
   -4.3242   21.1901  -29.1736 H   0  0  0  0  0  0  0  0  0  0  0  0
  1  2  1  0
  2  3  1  0
  3  4  2  0
  4  5  1  0
  5  6  2  0
  6  7  1  0
  7  8  1  0
  6  9  1  0
  9 10  1  0
 10 11  1  0
 11 12  1  0
 12 13  1  0
 13 14  2  0
 14 15  1  0
 15 16  2  0
 16 17  1  0
 17 18  2  0
 18 19  1  0
 19 20  2  0
 20 21  1  0
 21 22  1  0
 22 23  2  0
 22 24  1  0
  9 25  2  0
 25  3  1  0
 24 10  1  0
 24 13  1  0
 20 15  1  0
  1 26  1  0
  1 27  1  0
  1 28  1  0
  4 29  1  0
  5 30  1  0
  8 31  1  0
  8 32  1  0
  8 33  1  0
 10 34  1  6
 12 35  1  0
 12 36  1  0
 16 37  1  0
 17 38  1  0
 18 39  1  0
 19 40  1  0
 21 41  1  0
 24 42  1  1
 25 43  1  0
M  END
>  <UniqueID>  (36) 
34

>  <SMILES>  (36) 
COc1ccc(OC)c([C@@H]2SCC3=Nc4ccccc4NC(=O)[C@H]32)c1

>  <Energy>  (36) 
56.274742917492404

>  <Genealogy>  (36) 
COc1ccc(OC)c([C@@H]2SCC3=Nc4ccccc4NC(=O)[C@H]32)c1 (chirality)
COc1ccc(OC)c([C@@H]2SCC3=Nc4ccccc4NC(=O)[C@H]32)c1 (3D coordinates assigned)
COc1ccc(OC)c([C@@H]2SCC3=Nc4ccccc4NC(=O)[C@H]32)c1 (nonaromatic ring conformer: 56.274742917492404 kcal/mol)

>  <smiles>  (36) 
COc1ccc(OC)c(C2SCC3=Nc4ccccc4NC(=O)C32)c1

>  <score_type>  (36) 
oracle

>  <origin>  (36) 
adg

>  <m_score__min__energy>  (36) 
-7.9800000000000004

>  <m_primary>  (36) 
energy

$$$$
36:0
     RDKit          3D

 72 76  0  0  0  0  0  0  0  0999 V2000
   -7.0680   14.2060  -34.5390 C   0  0  0  0  0  0  0  0  0  0  0  0
   -5.9540   14.9970  -33.8550 C   0  0  0  0  0  0  0  0  0  0  0  0
   -6.2400   16.4490  -33.8270 N   0  0  0  0  0  0  0  0  0  0  0  0
   -6.3670   17.0850  -32.4910 C   0  0  0  0  0  0  0  0  0  0  0  0
   -7.5540   18.0420  -32.3490 C   0  0  0  0  0  0  0  0  0  0  0  0
   -5.5070   17.2480  -34.8390 C   0  0  0  0  0  0  0  0  0  0  0  0
   -4.2080   16.5830  -35.3700 C   0  0  0  0  0  0  0  0  0  0  0  0
   -2.9090   17.2590  -34.8890 C   0  0  0  0  0  0  0  0  0  0  0  0
   -2.6120   16.9650  -33.4750 N   0  0  0  0  0  0  0  0  0  0  0  0
   -1.9800   18.1080  -32.8460 C   0  0  0  0  0  0  0  0  0  0  0  0
   -2.7350   19.2480  -32.5540 C   0  0  0  0  0  0  0  0  0  0  0  0
   -2.1740   20.3450  -31.9420 C   0  0  0  0  0  0  0  0  0  0  0  0
   -0.8320   20.4190  -31.6690 N   0  0  0  0  0  0  0  0  0  0  0  0
   -0.2170   21.7130  -31.3320 C   0  0  0  0  0  0  0  0  0  0  0  0
   -0.0720   19.2660  -31.7890 C   0  0  0  0  0  0  0  0  0  0  0  0
    1.2500   19.2010  -31.2850 C   0  0  0  0  0  0  0  0  0  0  0  0
    2.0250   18.0550  -31.4420 C   0  0  0  0  0  0  0  0  0  0  0  0
    1.5050   16.9410  -32.0920 C   0  0  0  0  0  0  0  0  0  0  0  0
    0.1950   16.9540  -32.5700 C   0  0  0  0  0  0  0  0  0  0  0  0
   -0.6230   18.0950  -32.4130 C   0  0  0  0  0  0  0  0  0  0  0  0
   -3.2600   21.3120  -31.7340 C   0  0  0  0  0  0  0  0  0  0  0  0
   -3.2800   22.4950  -30.9860 C   0  0  0  0  0  0  0  0  0  0  0  0
   -4.4790   23.2360  -30.9000 C   0  0  0  0  0  0  0  0  0  0  0  0
   -5.6540   22.7110  -31.5000 C   0  0  0  0  0  0  0  0  0  0  0  0
   -5.5990   21.4670  -32.1570 C   0  0  0  0  0  0  0  0  0  0  0  0
   -6.6430   20.9470  -32.6390 O   0  0  0  0  0  0  0  0  0  0  0  0
   -4.4050   20.8200  -32.2560 N   0  0  0  0  0  0  0  0  0  0  0  0
   -4.1910   19.4910  -32.8240 C   0  0  0  0  0  0  0  0  0  0  0  0
   -6.9620   23.4370  -31.3180 C   0  0  0  0  0  0  0  0  0  0  0  0
   -6.7540   24.8440  -31.2650 O   0  0  0  0  0  0  0  0  0  0  0  0
   -5.6500   25.4050  -30.6230 C   0  0  0  0  0  0  0  0  0  0  0  0
   -5.5850   26.6590  -30.5040 O   0  0  0  0  0  0  0  0  0  0  0  0
   -4.5440   24.5260  -30.0790 C   0  0  2  0  0  0  0  0  0  0  0  0
   -3.3310   25.2390  -30.2100 O   0  0  0  0  0  0  0  0  0  0  0  0
   -4.8380   24.1610  -28.5940 C   0  0  0  0  0  0  0  0  0  0  0  0
   -3.5960   23.7290  -27.8090 C   0  0  0  0  0  0  0  0  0  0  0  0
   -7.7139   13.7474  -33.7758 H   0  0  0  0  0  0  0  0  0  0  0  0
   -7.6660   14.8829  -35.1668 H   0  0  0  0  0  0  0  0  0  0  0  0
   -6.6261   13.4183  -35.1668 H   0  0  0  0  0  0  0  0  0  0  0  0
   -5.8460   14.6366  -32.8214 H   0  0  0  0  0  0  0  0  0  0  0  0
   -5.0281   14.8446  -34.4290 H   0  0  0  0  0  0  0  0  0  0  0  0
   -6.4777   16.2879  -31.7410 H   0  0  0  0  0  0  0  0  0  0  0  0
   -5.4601   17.6908  -32.3475 H   0  0  0  0  0  0  0  0  0  0  0  0
   -7.7633   18.2108  -31.2824 H   0  0  0  0  0  0  0  0  0  0  0  0
   -7.3119   19.0005  -32.8313 H   0  0  0  0  0  0  0  0  0  0  0  0
   -8.4394   17.6021  -32.8313 H   0  0  0  0  0  0  0  0  0  0  0  0
   -6.1787   17.4194  -35.6931 H   0  0  0  0  0  0  0  0  0  0  0  0
   -5.1993   18.1782  -34.3389 H   0  0  0  0  0  0  0  0  0  0  0  0
   -4.1956   15.5351  -35.0357 H   0  0  0  0  0  0  0  0  0  0  0  0
   -4.2281   16.6812  -36.4654 H   0  0  0  0  0  0  0  0  0  0  0  0
   -2.0736   16.8991  -35.5076 H   0  0  0  0  0  0  0  0  0  0  0  0
   -3.0421   18.3467  -34.9844 H   0  0  0  0  0  0  0  0  0  0  0  0
   -1.9830   16.1340  -33.4120 H   0  0  0  0  0  0  0  0  0  0  0  0
   -3.4750   16.7020  -32.9540 H   0  0  0  0  0  0  0  0  0  0  0  0
   -0.1657   21.8209  -30.2385 H   0  0  0  0  0  0  0  0  0  0  0  0
    0.7984   21.7571  -31.7528 H   0  0  0  0  0  0  0  0  0  0  0  0
   -0.8240   22.5281  -31.7528 H   0  0  0  0  0  0  0  0  0  0  0  0
    1.6718   20.0710  -30.7604 H   0  0  0  0  0  0  0  0  0  0  0  0
    3.0526   18.0307  -31.0504 H   0  0  0  0  0  0  0  0  0  0  0  0
    2.1295   16.0460  -32.2297 H   0  0  0  0  0  0  0  0  0  0  0  0
   -0.2068   16.0638  -33.0761 H   0  0  0  0  0  0  0  0  0  0  0  0
   -2.3724   22.8433  -30.4713 H   0  0  0  0  0  0  0  0  0  0  0  0
   -4.8184   18.7394  -32.3224 H   0  0  0  0  0  0  0  0  0  0  0  0
   -4.4546   19.4240  -33.8898 H   0  0  0  0  0  0  0  0  0  0  0  0
   -7.6260   23.2018  -32.1629 H   0  0  0  0  0  0  0  0  0  0  0  0
   -7.4182   23.1113  -30.3715 H   0  0  0  0  0  0  0  0  0  0  0  0
   -3.4860   26.0450  -30.7670 H   0  0  0  0  0  0  0  0  0  0  0  0
   -5.2725   25.0421  -28.0992 H   0  0  0  0  0  0  0  0  0  0  0  0
   -5.5266   23.3032  -28.6039 H   0  0  0  0  0  0  0  0  0  0  0  0
   -3.8007   23.8002  -26.7306 H   0  0  0  0  0  0  0  0  0  0  0  0
   -3.3427   22.6900  -28.0663 H   0  0  0  0  0  0  0  0  0  0  0  0
   -2.7525   24.3865  -28.0663 H   0  0  0  0  0  0  0  0  0  0  0  0
  1  2  1  0
  2  3  1  0
  3  4  1  0
  4  5  1  0
  3  6  1  0
  6  7  1  0
  7  8  1  0
  8  9  1  0
  9 10  1  0
 10 11  2  0
 11 12  1  0
 12 13  2  0
 13 14  1  0
 13 15  1  0
 15 16  2  0
 16 17  1  0
 17 18  2  0
 18 19  1  0
 19 20  2  0
 12 21  1  0
 21 22  2  0
 22 23  1  0
 23 24  2  0
 24 25  1  0
 25 26  2  0
 25 27  1  0
 27 28  1  0
 24 29  1  0
 29 30  1  0
 30 31  1  0
 31 32  2  0
 31 33  1  0
 33 34  1  1
 33 35  1  0
 35 36  1  0
 20 10  1  0
 27 21  1  0
 28 11  1  0
 20 15  1  0
 33 23  1  0
  1 37  1  0
  1 38  1  0
  1 39  1  0
  2 40  1  0
  2 41  1  0
  4 42  1  0
  4 43  1  0
  5 44  1  0
  5 45  1  0
  5 46  1  0
  6 47  1  0
  6 48  1  0
  7 49  1  0
  7 50  1  0
  8 51  1  0
  8 52  1  0
  9 53  1  0
  9 54  1  0
 14 55  1  0
 14 56  1  0
 14 57  1  0
 16 58  1  0
 17 59  1  0
 18 60  1  0
 19 61  1  0
 22 62  1  0
 28 63  1  0
 28 64  1  0
 29 65  1  0
 29 66  1  0
 34 67  1  0
 35 68  1  0
 35 69  1  0
 36 70  1  0
 36 71  1  0
 36 72  1  0
M  CHG  2   9   1  13   1
M  END
>  <UniqueID>  (37) 
35

>  <SMILES>  (37) 
CCN(CC)CCC[NH2+]c1c2c([n+](C)c3ccccc13)-c1cc3c(c(=O)n1C2)COC(=O)[C@@]3(O)CC

>  <Energy>  (37) 
130.841869901457

>  <Genealogy>  (37) 
CCN(CC)CCC[NH2+]c1c2c([n+](C)c3ccccc13)-c1cc3c(c(=O)n1C2)COC(=O)C3(O)CC (protonated)
CCN(CC)CCC[NH2+]c1c2c([n+](C)c3ccccc13)-c1cc3c(c(=O)n1C2)COC(=O)[C@@]3(O)CC (chirality)
CCN(CC)CCC[NH2+]c1c2c([n+](C)c3ccccc13)-c1cc3c(c(=O)n1C2)COC(=O)[C@@]3(O)CC (3D coordinates assigned)
CCN(CC)CCC[NH2+]c1c2c([n+](C)c3ccccc13)-c1cc3c(c(=O)n1C2)COC(=O)[C@@]3(O)CC (nonaromatic ring conformer: 130.841869901457 kcal/mol)

>  <smiles>  (37) 
CCN(CC)CCCNc1c2c([n+](C)c3ccccc13)-c1cc3c(c(=O)n1C2)COC(=O)C3(O)CC

>  <score_type>  (37) 
oracle

>  <origin>  (37) 
adg

>  <m_score__min__energy>  (37) 
-8.0999999999999996

>  <m_primary>  (37) 
energy

$$$$
37:0
     RDKit          3D

 55 58  0  0  0  0  0  0  0  0999 V2000
   -6.5980   19.6730  -33.5050 C   0  0  0  0  0  0  0  0  0  0  0  0
   -6.5410   20.3980  -32.1630 C   0  0  0  0  0  0  0  0  0  0  0  0
   -7.8930   20.4730  -31.5640 N   0  0  0  0  0  0  0  0  0  0  0  0
   -8.8640   19.6510  -32.3220 C   0  0  0  0  0  0  0  0  0  0  0  0
   -9.0780   18.3100  -31.6250 C   0  0  0  0  0  0  0  0  0  0  0  0
   -8.3530   21.8760  -31.4450 C   0  0  0  0  0  0  0  0  0  0  0  0
   -7.2950   22.8220  -32.0300 C   0  0  0  0  0  0  0  0  0  0  0  0
   -7.2340   24.1630  -31.2820 C   0  0  0  0  0  0  0  0  0  0  0  0
   -5.8600   24.6600  -31.1720 N   0  0  0  0  0  0  0  0  0  0  0  0
   -4.8050   23.9930  -30.4510 C   0  0  0  0  0  0  0  0  0  0  0  0
   -4.9710   22.6490  -30.0940 C   0  0  0  0  0  0  0  0  0  0  0  0
   -3.9870   21.9760  -29.3680 C   0  0  0  0  0  0  0  0  0  0  0  0
   -2.8110   22.6420  -28.9830 C   0  0  0  0  0  0  0  0  0  0  0  0
   -2.6190   23.9980  -29.3520 C   0  0  0  0  0  0  0  0  0  0  0  0
   -3.6170   24.6560  -30.0950 C   0  0  0  0  0  0  0  0  0  0  0  0
   -1.4420   24.6800  -28.9630 C   0  0  0  0  0  0  0  0  0  0  0  0
   -1.2460   26.0060  -29.3400 O   0  0  0  0  0  0  0  0  0  0  0  0
   -0.4610   24.0340  -28.1910 C   0  0  0  0  0  0  0  0  0  0  0  0
    1.0060   24.9300  -27.6520 S   0  0  0  0  0  0  0  0  0  0  0  0
    0.1740   25.6560  -26.2340 C   0  0  0  0  0  0  0  0  0  0  0  0
   -0.4490   26.9050  -26.3560 C   0  0  0  0  0  0  0  0  0  0  0  0
   -1.1140   27.4700  -25.2640 C   0  0  0  0  0  0  0  0  0  0  0  0
   -1.1480   26.7950  -24.0410 C   0  0  0  0  0  0  0  0  0  0  0  0
   -0.5110   25.5570  -23.9070 C   0  0  0  0  0  0  0  0  0  0  0  0
    0.1540   24.9880  -24.9990 C   0  0  0  0  0  0  0  0  0  0  0  0
    0.7850   23.7980  -24.8480 F   0  0  0  0  0  0  0  0  0  0  0  0
   -0.6390   22.6900  -27.8440 C   0  0  0  0  0  0  0  0  0  0  0  0
    0.2760   21.9880  -27.1290 N   0  0  0  0  0  0  0  0  0  0  0  0
   -0.4750   20.5190  -27.0390 S   0  0  0  0  0  0  0  0  0  0  0  0
   -1.9020   20.6910  -27.8520 N   0  0  0  0  0  0  0  0  0  0  0  0
   -1.8150   21.9910  -28.2380 C   0  0  0  0  0  0  0  0  0  0  0  0
   -6.6832   18.5898  -33.3333 H   0  0  0  0  0  0  0  0  0  0  0  0
   -7.4713   20.0237  -34.0744 H   0  0  0  0  0  0  0  0  0  0  0  0
   -5.6806   19.8829  -34.0744 H   0  0  0  0  0  0  0  0  0  0  0  0
   -5.8721   19.8507  -31.4826 H   0  0  0  0  0  0  0  0  0  0  0  0
   -6.1621   21.4183  -32.3223 H   0  0  0  0  0  0  0  0  0  0  0  0
   -9.8233   20.1859  -32.3828 H   0  0  0  0  0  0  0  0  0  0  0  0
   -8.4693   19.4708  -33.3328 H   0  0  0  0  0  0  0  0  0  0  0  0
   -9.0548   18.4555  -30.5349 H   0  0  0  0  0  0  0  0  0  0  0  0
  -10.0536   17.8956  -31.9189 H   0  0  0  0  0  0  0  0  0  0  0  0
   -8.2798   17.6125  -31.9189 H   0  0  0  0  0  0  0  0  0  0  0  0
   -9.2971   21.9987  -31.9960 H   0  0  0  0  0  0  0  0  0  0  0  0
   -8.5091   22.1180  -30.3834 H   0  0  0  0  0  0  0  0  0  0  0  0
   -6.3106   22.3354  -31.9647 H   0  0  0  0  0  0  0  0  0  0  0  0
   -7.5713   23.0313  -33.0740 H   0  0  0  0  0  0  0  0  0  0  0  0
   -7.8383   24.9031  -31.8271 H   0  0  0  0  0  0  0  0  0  0  0  0
   -7.6247   24.0069  -30.2656 H   0  0  0  0  0  0  0  0  0  0  0  0
   -5.6200   25.5160  -31.7210 H   0  0  0  0  0  0  0  0  0  0  0  0
   -5.8877   22.1175  -30.3892 H   0  0  0  0  0  0  0  0  0  0  0  0
   -4.1326   20.9201  -29.0961 H   0  0  0  0  0  0  0  0  0  0  0  0
   -3.4659   25.7017  -30.4010 H   0  0  0  0  0  0  0  0  0  0  0  0
   -0.4147   27.4431  -27.3148 H   0  0  0  0  0  0  0  0  0  0  0  0
   -1.6106   28.4461  -25.3674 H   0  0  0  0  0  0  0  0  0  0  0  0
   -1.6759   27.2374  -23.1833 H   0  0  0  0  0  0  0  0  0  0  0  0
   -0.5328   25.0298  -22.9418 H   0  0  0  0  0  0  0  0  0  0  0  0
  1  2  1  0
  2  3  1  0
  3  4  1  0
  4  5  1  0
  3  6  1  0
  6  7  1  0
  7  8  1  0
  8  9  1  0
  9 10  1  0
 10 11  2  0
 11 12  1  0
 12 13  2  0
 13 14  1  0
 14 15  2  0
 14 16  1  0
 16 17  1  0
 16 18  2  0
 18 19  1  0
 19 20  1  0
 20 21  2  0
 21 22  1  0
 22 23  2  0
 23 24  1  0
 24 25  2  0
 25 26  1  0
 18 27  1  0
 27 28  2  0
 28 29  1  0
 29 30  1  0
 30 31  2  0
 15 10  1  0
 25 20  1  0
 31 27  1  0
 31 13  1  0
  1 32  1  0
  1 33  1  0
  1 34  1  0
  2 35  1  0
  2 36  1  0
  4 37  1  0
  4 38  1  0
  5 39  1  0
  5 40  1  0
  5 41  1  0
  6 42  1  0
  6 43  1  0
  7 44  1  0
  7 45  1  0
  8 46  1  0
  8 47  1  0
  9 48  1  0
 11 49  1  0
 12 50  1  0
 15 51  1  0
 21 52  1  0
 22 53  1  0
 23 54  1  0
 24 55  1  0
M  CHG  1  17  -1
M  END
>  <UniqueID>  (38) 
36

>  <SMILES>  (38) 
CCN(CC)CCCNc1ccc2c(c1)c([O-])c(Sc1ccccc1F)c1nsnc12

>  <Energy>  (38) 
92.67820699990833

>  <Genealogy>  (38) 
CCN(CC)CCCNc1ccc2c(c1)c([O-])c(Sc1ccccc1F)c1nsnc12 (protonated)
CCN(CC)CCCNc1ccc2c(c1)c([O-])c(Sc1ccccc1F)c1nsnc12 (3D coordinates assigned)
CCN(CC)CCCNc1ccc2c(c1)c([O-])c(Sc1ccccc1F)c1nsnc12 (optimized conformer: 92.67820699990833 kcal/mol)

>  <smiles>  (38) 
CCN(CC)CCCNc1ccc2c(c1)c(O)c(Sc1ccccc1F)c1nsnc12

>  <score_type>  (38) 
oracle

>  <origin>  (38) 
adg

>  <m_score__min__energy>  (38) 
-11.33

>  <m_primary>  (38) 
energy

$$$$
38:0
     RDKit          3D

 61 65  0  0  0  0  0  0  0  0999 V2000
   -1.0090   21.5220  -31.9390 O   0  0  0  0  0  0  0  0  0  0  0  0
   -2.2200   21.4100  -32.0910 C   0  0  0  0  0  0  0  0  0  0  0  0
   -3.1130   21.5290  -30.8700 C   0  0  0  0  0  0  0  0  0  0  0  0
   -2.8790   22.7870  -30.1540 N   0  0  0  0  0  0  0  0  0  0  0  0
   -3.6430   23.9130  -30.1530 C   0  0  0  0  0  0  0  0  0  0  0  0
   -5.1800   24.0790  -30.9990 S   0  0  0  0  0  0  0  0  0  0  0  0
   -5.0980   23.4040  -32.3400 O   0  0  0  0  0  0  0  0  0  0  0  0
   -5.4570   25.5420  -31.2160 O   0  0  0  0  0  0  0  0  0  0  0  0
   -6.5240   23.3770  -30.0540 C   0  0  0  0  0  0  0  0  0  0  0  0
   -7.2950   22.3880  -30.8800 C   0  0  0  0  0  0  0  0  0  0  0  0
   -6.7480   21.1280  -31.1740 C   0  0  0  0  0  0  0  0  0  0  0  0
   -7.4830   20.1990  -31.9210 C   0  0  0  0  0  0  0  0  0  0  0  0
   -8.7730   20.5100  -32.3580 C   0  0  0  0  0  0  0  0  0  0  0  0
   -9.3290   21.7550  -32.0540 C   0  0  0  0  0  0  0  0  0  0  0  0
   -8.5950   22.6910  -31.3160 C   0  0  0  0  0  0  0  0  0  0  0  0
   -3.1200   24.9220  -29.4070 N   0  0  0  0  0  0  0  0  0  0  0  0
   -1.9770   24.3890  -28.9390 C   0  0  0  0  0  0  0  0  0  0  0  0
   -1.0360   24.9990  -28.1110 C   0  0  0  0  0  0  0  0  0  0  0  0
    0.0930   24.2460  -27.7410 C   0  0  0  0  0  0  0  0  0  0  0  0
    0.2560   22.9210  -28.2080 C   0  0  0  0  0  0  0  0  0  0  0  0
   -0.7090   22.3360  -29.0470 C   0  0  0  0  0  0  0  0  0  0  0  0
   -1.8230   23.1080  -29.3880 C   0  0  0  0  0  0  0  0  0  0  0  0
   -2.7300   21.1570  -33.4350 N   0  0  0  0  0  0  0  0  0  0  0  0
   -4.2010   21.0060  -33.5540 C   0  0  0  0  0  0  0  0  0  0  0  0
   -4.7380   19.6250  -33.1310 C   0  0  0  0  0  0  0  0  0  0  0  0
   -3.8660   18.5290  -33.5600 N   0  0  0  0  0  0  0  0  0  0  0  0
   -4.4160   17.2000  -33.5860 C   0  0  0  0  0  0  0  0  0  0  0  0
   -3.6400   16.1160  -33.1380 C   0  0  0  0  0  0  0  0  0  0  0  0
   -4.1720   14.8230  -33.1440 C   0  0  0  0  0  0  0  0  0  0  0  0
   -5.4690   14.5990  -33.6200 C   0  0  0  0  0  0  0  0  0  0  0  0
   -6.2360   15.6670  -34.0910 C   0  0  0  0  0  0  0  0  0  0  0  0
   -5.7140   16.9650  -34.0790 C   0  0  0  0  0  0  0  0  0  0  0  0
   -6.4610   17.9840  -34.5740 F   0  0  0  0  0  0  0  0  0  0  0  0
   -2.4110   18.6930  -33.5150 C   0  0  0  0  0  0  0  0  0  0  0  0
   -2.0110   20.0490  -34.0920 C   0  0  0  0  0  0  0  0  0  0  0  0
   -4.1644   21.4906  -31.1910 H   0  0  0  0  0  0  0  0  0  0  0  0
   -2.8807   20.6963  -30.1899 H   0  0  0  0  0  0  0  0  0  0  0  0
   -6.1153   22.8673  -29.1690 H   0  0  0  0  0  0  0  0  0  0  0  0
   -7.2024   24.1874  -29.7489 H   0  0  0  0  0  0  0  0  0  0  0  0
   -5.7400   20.8704  -30.8167 H   0  0  0  0  0  0  0  0  0  0  0  0
   -7.0429   19.2207  -32.1646 H   0  0  0  0  0  0  0  0  0  0  0  0
   -9.3496   19.7761  -32.9402 H   0  0  0  0  0  0  0  0  0  0  0  0
  -10.3456   22.0003  -32.3952 H   0  0  0  0  0  0  0  0  0  0  0  0
   -9.0387   23.6686  -31.0764 H   0  0  0  0  0  0  0  0  0  0  0  0
   -1.1715   26.0325  -27.7595 H   0  0  0  0  0  0  0  0  0  0  0  0
    0.8546   24.6909  -27.0837 H   0  0  0  0  0  0  0  0  0  0  0  0
    1.1445   22.3436  -27.9126 H   0  0  0  0  0  0  0  0  0  0  0  0
   -0.5914   21.3083  -29.4212 H   0  0  0  0  0  0  0  0  0  0  0  0
   -2.5030   22.0180  -33.9880 H   0  0  0  0  0  0  0  0  0  0  0  0
   -4.6770   21.7686  -32.9201 H   0  0  0  0  0  0  0  0  0  0  0  0
   -4.4420   21.1219  -34.6210 H   0  0  0  0  0  0  0  0  0  0  0  0
   -4.8226   19.6001  -32.0345 H   0  0  0  0  0  0  0  0  0  0  0  0
   -5.7155   19.4837  -33.6152 H   0  0  0  0  0  0  0  0  0  0  0  0
   -2.6130   16.2857  -32.7824 H   0  0  0  0  0  0  0  0  0  0  0  0
   -3.5700   13.9801  -32.7739 H   0  0  0  0  0  0  0  0  0  0  0  0
   -5.8848   13.5806  -33.6232 H   0  0  0  0  0  0  0  0  0  0  0  0
   -7.2521   15.4873  -34.4720 H   0  0  0  0  0  0  0  0  0  0  0  0
   -2.0710   18.6287  -32.4709 H   0  0  0  0  0  0  0  0  0  0  0  0
   -1.9432   17.8978  -34.1141 H   0  0  0  0  0  0  0  0  0  0  0  0
   -0.9297   20.1918  -33.9492 H   0  0  0  0  0  0  0  0  0  0  0  0
   -2.2729   20.0570  -35.1603 H   0  0  0  0  0  0  0  0  0  0  0  0
  1  2  2  0
  2  3  1  0
  3  4  1  0
  4  5  1  0
  5  6  1  0
  6  7  2  0
  6  8  2  0
  6  9  1  0
  9 10  1  0
 10 11  2  0
 11 12  1  0
 12 13  2  0
 13 14  1  0
 14 15  2  0
  5 16  2  0
 16 17  1  0
 17 18  2  0
 18 19  1  0
 19 20  2  0
 20 21  1  0
 21 22  2  0
  2 23  1  0
 23 24  1  0
 24 25  1  0
 25 26  1  0
 26 27  1  0
 27 28  2  0
 28 29  1  0
 29 30  2  0
 30 31  1  0
 31 32  2  0
 32 33  1  0
 26 34  1  0
 34 35  1  0
 22  4  1  0
 35 23  1  0
 15 10  1  0
 22 17  1  0
 32 27  1  0
  3 36  1  0
  3 37  1  0
  9 38  1  0
  9 39  1  0
 11 40  1  0
 12 41  1  0
 13 42  1  0
 14 43  1  0
 15 44  1  0
 18 45  1  0
 19 46  1  0
 20 47  1  0
 21 48  1  0
 23 49  1  0
 24 50  1  0
 24 51  1  0
 25 52  1  0
 25 53  1  0
 28 54  1  0
 29 55  1  0
 30 56  1  0
 31 57  1  0
 34 58  1  0
 34 59  1  0
 35 60  1  0
 35 61  1  0
M  CHG  1  23   1
M  END
>  <UniqueID>  (39) 
37

>  <SMILES>  (39) 
O=C(Cn1c(S(=O)(=O)Cc2ccccc2)nc2ccccc21)[NH+]1CCN(c2ccccc2F)CC1

>  <Energy>  (39) 
111.98335122863494

>  <Genealogy>  (39) 
O=C(Cn1c(S(=O)(=O)Cc2ccccc2)nc2ccccc21)[NH+]1CCN(c2ccccc2F)CC1 (protonated)
O=C(Cn1c(S(=O)(=O)Cc2ccccc2)nc2ccccc21)[NH+]1CCN(c2ccccc2F)CC1 (3D coordinates assigned)
O=C(Cn1c(S(=O)(=O)Cc2ccccc2)nc2ccccc21)[NH+]1CCN(c2ccccc2F)CC1 (nonaromatic ring conformer: 111.98335122863494 kcal/mol)

>  <smiles>  (39) 
O=C(Cn1c(S(=O)(=O)Cc2ccccc2)nc2ccccc21)N1CCN(c2ccccc2F)CC1

>  <score_type>  (39) 
oracle

>  <origin>  (39) 
adg

>  <m_score__min__energy>  (39) 
-9.6099999999999994

>  <m_primary>  (39) 
energy

$$$$
39:0
     RDKit          3D

 30 32  0  0  0  0  0  0  0  0999 V2000
   -9.7577   22.3825  -31.1735 H   0  0  0  0  0  0  0  0  0  0  0  0
   -8.7980   22.2840  -31.7020 C   0  0  0  0  0  0  0  0  0  0  0  0
   -8.1250   23.4150  -31.9730 C   0  0  0  0  0  0  0  0  0  0  0  0
   -8.5557   24.0901  -32.7271 H   0  0  0  0  0  0  0  0  0  0  0  0
   -6.8530   23.8270  -31.3410 C   0  0  0  0  0  0  0  0  0  0  0  0
   -5.6050   23.4370  -31.8600 C   0  0  0  0  0  0  0  0  0  0  0  0
   -5.5580   22.8320  -32.7775 H   0  0  0  0  0  0  0  0  0  0  0  0
   -4.4570   23.8050  -31.2320 N   0  0  0  0  0  0  0  0  0  0  0  0
   -4.4730   24.5430  -30.0900 C   0  0  0  0  0  0  0  0  0  0  0  0
   -3.5266   24.8378  -29.6132 H   0  0  0  0  0  0  0  0  0  0  0  0
   -5.6890   24.9270  -29.5220 C   0  0  0  0  0  0  0  0  0  0  0  0
   -5.7070   25.5144  -28.5921 H   0  0  0  0  0  0  0  0  0  0  0  0
   -6.8820   24.5580  -30.1460 C   0  0  0  0  0  0  0  0  0  0  0  0
   -7.8462   24.8415  -29.6989 H   0  0  0  0  0  0  0  0  0  0  0  0
   -8.3560   20.9190  -32.0550 C   0  0  0  0  0  0  0  0  0  0  0  0
   -7.2130   20.7720  -32.7800 N   0  0  0  0  0  0  0  0  0  0  0  0
   -6.7250   19.5480  -33.1160 C   0  0  0  0  0  0  0  0  0  0  0  0
   -5.5540   19.4430  -33.8770 C   0  0  0  0  0  0  0  0  0  0  0  0
   -5.0263   20.3514  -34.2031 H   0  0  0  0  0  0  0  0  0  0  0  0
   -5.0560   18.1830  -34.2220 C   0  0  0  0  0  0  0  0  0  0  0  0
   -4.1355   18.1021  -34.8188 H   0  0  0  0  0  0  0  0  0  0  0  0
   -5.7240   17.0250  -33.8110 C   0  0  0  0  0  0  0  0  0  0  0  0
   -5.3285   16.0365  -34.0875 H   0  0  0  0  0  0  0  0  0  0  0  0
   -6.8940   17.1200  -33.0490 C   0  0  0  0  0  0  0  0  0  0  0  0
   -7.4162   16.2074  -32.7257 H   0  0  0  0  0  0  0  0  0  0  0  0
   -7.4000   18.3800  -32.6980 C   0  0  0  0  0  0  0  0  0  0  0  0
   -8.5620   18.5100  -31.9290 C   0  0  0  0  0  0  0  0  0  0  0  0
   -9.0997   17.6134  -31.5870 H   0  0  0  0  0  0  0  0  0  0  0  0
   -9.0370   19.7790  -31.5970 C   0  0  0  0  0  0  0  0  0  0  0  0
   -9.9408   19.8864  -30.9793 H   0  0  0  0  0  0  0  0  0  0  0  0
  1  2  1  0
  2  3  2  0
  3  4  1  0
  3  5  1  0
  5  6  2  0
  6  7  1  0
  6  8  1  0
  8  9  2  0
  9 10  1  0
  9 11  1  0
 11 12  1  0
 11 13  2  0
 13 14  1  0
  2 15  1  0
 15 16  2  0
 16 17  1  0
 17 18  2  0
 18 19  1  0
 18 20  1  0
 20 21  1  0
 20 22  2  0
 22 23  1  0
 22 24  1  0
 24 25  1  0
 24 26  2  0
 26 27  1  0
 27 28  1  0
 27 29  2  0
 29 30  1  0
 13  5  1  0
 29 15  1  0
 26 17  1  0
M  END
>  <UniqueID>  (40) 
38

>  <SMILES>  (40) 
C(=C\c1ccc2ccccc2n1)\c1cccnc1

>  <Energy>  (40) 
46.24807059591168

>  <Genealogy>  (40) 
C(=C\c1ccc2ccccc2n1)\c1cccnc1 (cis-trans isomerization)
C(=C\c1ccc2ccccc2n1)\c1cccnc1 (3D coordinates assigned)
C(=C\c1ccc2ccccc2n1)\c1cccnc1 (optimized conformer: 46.24807059591168 kcal/mol)

>  <smiles>  (40) 
C(=Cc1ccc2ccccc2n1)c1cccnc1

>  <score_type>  (40) 
oracle

>  <origin>  (40) 
adg

>  <m_score__min__energy>  (40) 
-8.5

>  <m_primary>  (40) 
energy

$$$$
40:0
     RDKit          3D

 53 55  0  0  0  0  0  0  0  0999 V2000
   -3.9040   25.2870  -30.4480 O   0  0  0  0  0  0  0  0  0  0  0  0
   -3.8540   24.0270  -30.4890 C   0  0  0  0  0  0  0  0  0  0  0  0
   -2.5250   23.3370  -30.4350 C   0  0  0  0  0  0  0  0  0  0  0  0
   -2.6970   21.8750  -30.3590 N   0  0  0  0  0  0  0  0  0  0  0  0
   -1.4980   21.1490  -29.8880 C   0  0  0  0  0  0  0  0  0  0  0  0
   -1.7230   20.3010  -28.6540 C   0  0  0  0  0  0  0  0  0  0  0  0
   -0.7780   19.3240  -28.2910 C   0  0  0  0  0  0  0  0  0  0  0  0
   -0.9850   18.5220  -27.1640 C   0  0  0  0  0  0  0  0  0  0  0  0
   -2.1420   18.6780  -26.3980 C   0  0  0  0  0  0  0  0  0  0  0  0
   -3.1020   19.6210  -26.7690 C   0  0  0  0  0  0  0  0  0  0  0  0
   -2.9040   20.4190  -27.8990 C   0  0  0  0  0  0  0  0  0  0  0  0
   -3.4340   21.1780  -31.7930 S   0  0  0  0  0  0  0  0  0  0  0  0
   -4.0760   22.2750  -32.5950 O   0  0  0  0  0  0  0  0  0  0  0  0
   -4.5210   20.2270  -31.3730 O   0  0  0  0  0  0  0  0  0  0  0  0
   -2.2900   20.3280  -32.8420 C   0  0  0  0  0  0  0  0  0  0  0  0
   -2.4670   18.9660  -33.1350 C   0  0  0  0  0  0  0  0  0  0  0  0
   -1.5600   18.2960  -33.9620 C   0  0  0  0  0  0  0  0  0  0  0  0
   -0.4860   18.9890  -34.5270 C   0  0  0  0  0  0  0  0  0  0  0  0
    0.3920   18.3400  -35.3310 F   0  0  0  0  0  0  0  0  0  0  0  0
   -0.3300   20.3550  -34.2790 C   0  0  0  0  0  0  0  0  0  0  0  0
   -1.2340   21.0240  -33.4500 C   0  0  0  0  0  0  0  0  0  0  0  0
   -5.0640   23.2590  -30.5400 N   0  0  0  0  0  0  0  0  0  0  0  0
   -6.3730   23.9050  -30.6380 C   0  0  0  0  0  0  0  0  0  0  0  0
   -7.0780   23.5560  -31.9550 C   0  0  0  0  0  0  0  0  0  0  0  0
   -7.5600   22.1270  -31.9670 C   0  0  0  0  0  0  0  0  0  0  0  0
   -6.8850   21.1510  -32.7200 C   0  0  0  0  0  0  0  0  0  0  0  0
   -7.3240   19.8230  -32.7080 C   0  0  0  0  0  0  0  0  0  0  0  0
   -8.4380   19.4610  -31.9450 C   0  0  0  0  0  0  0  0  0  0  0  0
   -9.1130   20.4250  -31.1910 C   0  0  0  0  0  0  0  0  0  0  0  0
   -8.6760   21.7540  -31.2010 C   0  0  0  0  0  0  0  0  0  0  0  0
   -1.9522   23.5862  -31.3405 H   0  0  0  0  0  0  0  0  0  0  0  0
   -1.9879   23.6760  -29.5369 H   0  0  0  0  0  0  0  0  0  0  0  0
   -1.1539   20.4908  -30.6994 H   0  0  0  0  0  0  0  0  0  0  0  0
   -0.7571   21.9137  -29.6117 H   0  0  0  0  0  0  0  0  0  0  0  0
    0.1298   19.1900  -28.8976 H   0  0  0  0  0  0  0  0  0  0  0  0
   -0.2359   17.7679  -26.8809 H   0  0  0  0  0  0  0  0  0  0  0  0
   -2.2969   18.0581  -25.5026 H   0  0  0  0  0  0  0  0  0  0  0  0
   -4.0173   19.7364  -26.1699 H   0  0  0  0  0  0  0  0  0  0  0  0
   -3.6756   21.1431  -28.1996 H   0  0  0  0  0  0  0  0  0  0  0  0
   -3.3245   18.4228  -32.7113 H   0  0  0  0  0  0  0  0  0  0  0  0
   -1.6919   17.2235  -34.1678 H   0  0  0  0  0  0  0  0  0  0  0  0
    0.5056   20.9045  -34.7370 H   0  0  0  0  0  0  0  0  0  0  0  0
   -1.1172   22.1033  -33.2728 H   0  0  0  0  0  0  0  0  0  0  0  0
   -4.9930   22.2170  -30.5310 H   0  0  0  0  0  0  0  0  0  0  0  0
   -6.9998   23.5707  -29.7981 H   0  0  0  0  0  0  0  0  0  0  0  0
   -6.2223   24.9942  -30.6067 H   0  0  0  0  0  0  0  0  0  0  0  0
   -7.9416   24.2248  -32.0854 H   0  0  0  0  0  0  0  0  0  0  0  0
   -6.3555   23.6815  -32.7749 H   0  0  0  0  0  0  0  0  0  0  0  0
   -6.0079   21.4326  -33.3212 H   0  0  0  0  0  0  0  0  0  0  0  0
   -6.7923   19.0630  -33.2993 H   0  0  0  0  0  0  0  0  0  0  0  0
   -8.7836   18.4167  -31.9380 H   0  0  0  0  0  0  0  0  0  0  0  0
   -9.9883   20.1386  -30.5894 H   0  0  0  0  0  0  0  0  0  0  0  0
   -9.2092   22.5101  -30.6060 H   0  0  0  0  0  0  0  0  0  0  0  0
  1  2  2  0
  2  3  1  0
  3  4  1  0
  4  5  1  0
  5  6  1  0
  6  7  2  0
  7  8  1  0
  8  9  2  0
  9 10  1  0
 10 11  2  0
  4 12  1  0
 12 13  2  0
 12 14  2  0
 12 15  1  0
 15 16  2  0
 16 17  1  0
 17 18  2  0
 18 19  1  0
 18 20  1  0
 20 21  2  0
  2 22  1  0
 22 23  1  0
 23 24  1  0
 24 25  1  0
 25 26  2  0
 26 27  1  0
 27 28  2  0
 28 29  1  0
 29 30  2  0
 11  6  1  0
 21 15  1  0
 30 25  1  0
  3 31  1  0
  3 32  1  0
  5 33  1  0
  5 34  1  0
  7 35  1  0
  8 36  1  0
  9 37  1  0
 10 38  1  0
 11 39  1  0
 16 40  1  0
 17 41  1  0
 20 42  1  0
 21 43  1  0
 22 44  1  0
 23 45  1  0
 23 46  1  0
 24 47  1  0
 24 48  1  0
 26 49  1  0
 27 50  1  0
 28 51  1  0
 29 52  1  0
 30 53  1  0
M  END
>  <UniqueID>  (41) 
39

>  <SMILES>  (41) 
O=C(CN(Cc1ccccc1)S(=O)(=O)c1ccc(F)cc1)NCCc1ccccc1

>  <Energy>  (41) 
52.792454769750066

>  <Genealogy>  (41) 
O=C(CN(Cc1ccccc1)S(=O)(=O)c1ccc(F)cc1)NCCc1ccccc1 (3D coordinates assigned)
O=C(CN(Cc1ccccc1)S(=O)(=O)c1ccc(F)cc1)NCCc1ccccc1 (optimized conformer: 52.792454769750066 kcal/mol)

>  <smiles>  (41) 
O=C(CN(Cc1ccccc1)S(=O)(=O)c1ccc(F)cc1)NCCc1ccccc1

>  <score_type>  (41) 
oracle

>  <origin>  (41) 
adg

>  <m_score__min__energy>  (41) 
-10.35

>  <m_primary>  (41) 
energy

$$$$
41:0
     RDKit          3D

 23 23  0  0  0  0  0  0  0  0999 V2000
   -4.9360   22.9880  -33.4360 H   0  0  0  0  0  0  0  0  0  0  0  0
   -5.5860   22.6180  -32.7050 N   0  0  0  0  0  0  0  0  0  0  0  0
   -6.0110   23.5500  -31.7040 C   0  0  0  0  0  0  0  0  0  0  0  0
   -5.1820   24.4790  -31.3200 N   0  0  0  0  0  0  0  0  0  0  0  0
   -5.3230   25.3090  -30.1280 C   0  0  0  0  0  0  0  0  0  0  0  0
   -5.2166   24.6824  -29.2302 H   0  0  0  0  0  0  0  0  0  0  0  0
   -4.5439   26.0855  -30.1277 H   0  0  0  0  0  0  0  0  0  0  0  0
   -6.3148   25.7847  -30.1277 H   0  0  0  0  0  0  0  0  0  0  0  0
   -7.4080   23.4260  -31.1460 C   0  0  0  0  0  0  0  0  0  0  0  0
   -7.3443   23.0445  -30.1162 H   0  0  0  0  0  0  0  0  0  0  0  0
   -7.8716   24.4230  -31.1792 H   0  0  0  0  0  0  0  0  0  0  0  0
   -8.2860   22.4750  -31.9700 C   0  0  0  0  0  0  0  0  0  0  0  0
   -9.3350   22.6475  -31.6876 H   0  0  0  0  0  0  0  0  0  0  0  0
   -8.0769   22.6995  -33.0264 H   0  0  0  0  0  0  0  0  0  0  0  0
   -7.9780   20.9750  -31.7770 C   0  0  0  0  0  0  0  0  0  0  0  0
   -7.6695   20.8165  -30.7331 H   0  0  0  0  0  0  0  0  0  0  0  0
   -8.8952   20.4254  -32.0350 H   0  0  0  0  0  0  0  0  0  0  0  0
   -6.8640   20.4420  -32.6980 C   0  0  0  0  0  0  0  0  0  0  0  0
   -6.7203   19.3707  -32.4940 H   0  0  0  0  0  0  0  0  0  0  0  0
   -7.1776   20.6176  -33.7376 H   0  0  0  0  0  0  0  0  0  0  0  0
   -5.5240   21.1690  -32.4850 C   0  0  0  0  0  0  0  0  0  0  0  0
   -5.1951   20.9906  -31.4506 H   0  0  0  0  0  0  0  0  0  0  0  0
   -4.8227   20.7652  -33.2301 H   0  0  0  0  0  0  0  0  0  0  0  0
  1  2  1  0
  2  3  1  0
  3  4  2  0
  4  5  1  0
  5  6  1  0
  5  7  1  0
  5  8  1  0
  3  9  1  0
  9 10  1  0
  9 11  1  0
  9 12  1  0
 12 13  1  0
 12 14  1  0
 12 15  1  0
 15 16  1  0
 15 17  1  0
 15 18  1  0
 18 19  1  0
 18 20  1  0
 18 21  1  0
 21 22  1  0
 21 23  1  0
 21  2  1  0
M  END
>  <UniqueID>  (42) 
40

>  <SMILES>  (42) 
C/N=C1\CCCCCN1

>  <Energy>  (42) 
25.220917752673373

>  <Genealogy>  (42) 
C/N=C1\CCCCCN1 (cis-trans isomerization)
C/N=C1\CCCCCN1 (3D coordinates assigned)
C/N=C1\CCCCCN1 (nonaromatic ring conformer: 25.220917752673373 kcal/mol)

>  <smiles>  (42) 
CN=C1CCCCCN1

>  <score_type>  (42) 
oracle

>  <origin>  (42) 
adg

>  <m_score__min__energy>  (42) 
-3.1099999999999999

>  <m_primary>  (42) 
energy

$$$$
42:0
     RDKit          3D

 48 50  0  0  0  0  0  0  0  0999 V2000
   -2.6260   24.7190  -27.6220 C   0  0  0  0  0  0  0  0  0  0  0  0
   -3.0200   24.9460  -28.9700 O   0  0  0  0  0  0  0  0  0  0  0  0
   -3.5300   23.9300  -29.7860 C   0  0  0  0  0  0  0  0  0  0  0  0
   -3.2040   22.5980  -29.5150 C   0  0  0  0  0  0  0  0  0  0  0  0
   -3.7060   21.6140  -30.3070 N   0  0  0  0  0  0  0  0  0  0  0  0
   -4.5320   21.8900  -31.3540 C   0  0  0  0  0  0  0  0  0  0  0  0
   -4.9950   20.8200  -32.2010 N   0  0  0  0  0  0  0  0  0  0  0  0
   -6.2320   20.1550  -31.7440 C   0  0  0  0  0  0  0  0  0  0  0  0
   -6.8880   19.3590  -32.8770 C   0  0  2  0  0  0  0  0  0  0  0  0
   -8.1110   18.5630  -32.3990 C   0  0  0  0  0  0  0  0  0  0  0  0
   -5.8660   18.5200  -33.5170 N   0  0  0  0  0  0  0  0  0  0  0  0
   -5.5760   17.1790  -33.0780 C   0  0  0  0  0  0  0  0  0  0  0  0
   -5.2200   16.1950  -34.0080 C   0  0  0  0  0  0  0  0  0  0  0  0
   -4.9110   14.9080  -33.5640 C   0  0  0  0  0  0  0  0  0  0  0  0
   -4.9610   14.5970  -32.1920 C   0  0  0  0  0  0  0  0  0  0  0  0
   -4.6420   13.2330  -31.6890 C   0  0  0  0  0  0  0  0  0  0  0  0
   -3.2680   12.8660  -31.2080 C   0  0  0  0  0  0  0  0  0  0  0  0
   -5.5460   12.3500  -31.6590 O   0  0  0  0  0  0  0  0  0  0  0  0
   -5.3280   15.6180  -31.2960 C   0  0  0  0  0  0  0  0  0  0  0  0
   -5.6110   16.8670  -31.7540 N   0  0  0  0  0  0  0  0  0  0  0  0
   -4.8020   19.2810  -34.1680 C   0  0  0  0  0  0  0  0  0  0  0  0
   -4.0530   20.1200  -33.1120 C   0  0  1  0  0  0  0  0  0  0  0  0
   -3.1260   21.1090  -33.8400 C   0  0  0  0  0  0  0  0  0  0  0  0
   -4.8380   23.2310  -31.6380 C   0  0  0  0  0  0  0  0  0  0  0  0
   -4.3400   24.2130  -30.8430 N   0  0  0  0  0  0  0  0  0  0  0  0
   -3.3759   25.1511  -26.9431 H   0  0  0  0  0  0  0  0  0  0  0  0
   -2.5471   23.6370  -27.4403 H   0  0  0  0  0  0  0  0  0  0  0  0
   -1.6503   25.1934  -27.4403 H   0  0  0  0  0  0  0  0  0  0  0  0
   -2.5473   22.3484  -28.6686 H   0  0  0  0  0  0  0  0  0  0  0  0
   -5.9865   19.4691  -30.9198 H   0  0  0  0  0  0  0  0  0  0  0  0
   -6.9386   20.9288  -31.4093 H   0  0  0  0  0  0  0  0  0  0  0  0
   -7.2880   20.0555  -33.6286 H   0  0  0  0  0  0  0  0  0  0  0  0
   -8.1325   18.5490  -31.2993 H   0  0  0  0  0  0  0  0  0  0  0  0
   -9.0283   19.0376  -32.7776 H   0  0  0  0  0  0  0  0  0  0  0  0
   -8.0484   17.5321  -32.7776 H   0  0  0  0  0  0  0  0  0  0  0  0
   -5.1840   16.4342  -35.0811 H   0  0  0  0  0  0  0  0  0  0  0  0
   -4.6268   14.1325  -34.2905 H   0  0  0  0  0  0  0  0  0  0  0  0
   -3.2534   12.8621  -30.1081 H   0  0  0  0  0  0  0  0  0  0  0  0
   -3.0037   11.8658  -31.5817 H   0  0  0  0  0  0  0  0  0  0  0  0
   -2.5401   13.6012  -31.5817 H   0  0  0  0  0  0  0  0  0  0  0  0
   -5.3864   15.4047  -30.2185 H   0  0  0  0  0  0  0  0  0  0  0  0
   -4.0986   18.5879  -34.6525 H   0  0  0  0  0  0  0  0  0  0  0  0
   -5.2381   19.9483  -34.9259 H   0  0  0  0  0  0  0  0  0  0  0  0
   -3.4497   19.4548  -32.4767 H   0  0  0  0  0  0  0  0  0  0  0  0
   -2.5695   21.7027  -33.0998 H   0  0  0  0  0  0  0  0  0  0  0  0
   -2.4176   20.5515  -34.4703 H   0  0  0  0  0  0  0  0  0  0  0  0
   -3.7282   21.7799  -34.4703 H   0  0  0  0  0  0  0  0  0  0  0  0
   -5.4760   23.4839  -32.4976 H   0  0  0  0  0  0  0  0  0  0  0  0
  1  2  1  0
  2  3  1  0
  3  4  2  0
  4  5  1  0
  5  6  2  0
  6  7  1  0
  7  8  1  0
  8  9  1  0
  9 10  1  0
  9 11  1  0
 11 12  1  0
 12 13  2  0
 13 14  1  0
 14 15  2  0
 15 16  1  0
 16 17  1  0
 16 18  2  0
 15 19  1  0
 19 20  2  0
 11 21  1  0
 21 22  1  0
 22 23  1  0
  6 24  1  0
 24 25  2  0
 25  3  1  0
 22  7  1  0
 20 12  1  0
  1 26  1  0
  1 27  1  0
  1 28  1  0
  4 29  1  0
  8 30  1  0
  8 31  1  0
  9 32  1  6
 10 33  1  0
 10 34  1  0
 10 35  1  0
 13 36  1  0
 14 37  1  0
 17 38  1  0
 17 39  1  0
 17 40  1  0
 19 41  1  0
 21 42  1  0
 21 43  1  0
 22 44  1  1
 23 45  1  0
 23 46  1  0
 23 47  1  0
 24 48  1  0
M  END
>  <UniqueID>  (43) 
41

>  <SMILES>  (43) 
COc1cnc(N2C[C@H](C)N(c3ccc(C(C)=O)cn3)C[C@H]2C)cn1

>  <Energy>  (43) 
60.21708877961176

>  <Genealogy>  (43) 
COc1cnc(N2C[C@H](C)N(c3ccc(C(C)=O)cn3)C[C@H]2C)cn1 (chirality)
COc1cnc(N2C[C@H](C)N(c3ccc(C(C)=O)cn3)C[C@H]2C)cn1 (3D coordinates assigned)
COc1cnc(N2C[C@H](C)N(c3ccc(C(C)=O)cn3)C[C@H]2C)cn1 (nonaromatic ring conformer: 60.21708877961176 kcal/mol)

>  <smiles>  (43) 
COc1cnc(N2CC(C)N(c3ccc(C(C)=O)cn3)CC2C)cn1

>  <score_type>  (43) 
oracle

>  <origin>  (43) 
adg

>  <m_score__min__energy>  (43) 
-6.8399999999999999

>  <m_primary>  (43) 
energy

$$$$
43:0
     RDKit          3D

 41 42  0  0  0  0  0  0  0  0999 V2000
   -4.9650   15.5870  -32.6940 C   0  0  0  0  0  0  0  0  0  0  0  0
   -6.0880   15.9220  -33.6900 C   0  0  0  0  0  0  0  0  0  0  0  0
   -6.6470   17.2860  -33.5420 N   0  0  0  0  0  0  0  0  0  0  0  0
   -6.8900   17.7130  -32.1500 C   0  0  0  0  0  0  0  0  0  0  0  0
   -8.3350   18.1710  -31.9610 C   0  0  0  0  0  0  0  0  0  0  0  0
   -6.0840   18.3120  -34.4570 C   0  0  0  0  0  0  0  0  0  0  0  0
   -5.1380   19.3020  -33.7920 C   0  0  0  0  0  0  0  0  0  0  0  0
   -3.7570   19.0640  -33.8950 C   0  0  0  0  0  0  0  0  0  0  0  0
   -2.8550   19.9200  -33.2650 C   0  0  0  0  0  0  0  0  0  0  0  0
   -1.6180   19.6950  -33.3390 O   0  0  0  0  0  0  0  0  0  0  0  0
   -3.2890   20.9710  -32.5860 O   0  0  0  0  0  0  0  0  0  0  0  0
   -4.5770   21.2750  -32.4780 C   0  0  0  0  0  0  0  0  0  0  0  0
   -4.9480   22.4150  -31.7580 C   0  0  0  0  0  0  0  0  0  0  0  0
   -6.2940   22.7760  -31.6310 C   0  0  0  0  0  0  0  0  0  0  0  0
   -6.6390   23.9670  -30.9010 N   0  0  0  0  0  0  0  0  0  0  0  0
   -5.6830   24.9360  -30.4420 C   0  0  0  0  0  0  0  0  0  0  0  0
   -6.1190   26.0350  -29.5300 C   0  0  0  0  0  0  0  0  0  0  0  0
   -4.4960   24.9190  -30.8660 O   0  0  0  0  0  0  0  0  0  0  0  0
   -7.2710   22.0050  -32.2780 C   0  0  0  0  0  0  0  0  0  0  0  0
   -6.9140   20.8620  -32.9980 C   0  0  0  0  0  0  0  0  0  0  0  0
   -5.5650   20.4620  -33.0910 C   0  0  0  0  0  0  0  0  0  0  0  0
   -5.3409   15.6991  -31.6663 H   0  0  0  0  0  0  0  0  0  0  0  0
   -4.6322   14.5505  -32.8517 H   0  0  0  0  0  0  0  0  0  0  0  0
   -4.1187   16.2718  -32.8517 H   0  0  0  0  0  0  0  0  0  0  0  0
   -5.6856   15.8233  -34.7090 H   0  0  0  0  0  0  0  0  0  0  0  0
   -6.9103   15.2206  -33.4854 H   0  0  0  0  0  0  0  0  0  0  0  0
   -6.6894   16.8683  -31.4746 H   0  0  0  0  0  0  0  0  0  0  0  0
   -6.2226   18.5570  -31.9213 H   0  0  0  0  0  0  0  0  0  0  0  0
   -8.5595   18.2422  -30.8865 H   0  0  0  0  0  0  0  0  0  0  0  0
   -8.4716   19.1565  -32.4302 H   0  0  0  0  0  0  0  0  0  0  0  0
   -9.0144   17.4442  -32.4302 H   0  0  0  0  0  0  0  0  0  0  0  0
   -5.5329   17.7942  -35.2559 H   0  0  0  0  0  0  0  0  0  0  0  0
   -6.9364   18.8979  -34.8314 H   0  0  0  0  0  0  0  0  0  0  0  0
   -3.3881   18.2032  -34.4721 H   0  0  0  0  0  0  0  0  0  0  0  0
   -4.1722   23.0356  -31.2857 H   0  0  0  0  0  0  0  0  0  0  0  0
   -7.6530   24.1860  -30.7690 H   0  0  0  0  0  0  0  0  0  0  0  0
   -5.9925   25.7161  -28.4849 H   0  0  0  0  0  0  0  0  0  0  0  0
   -5.5080   26.9305  -29.7166 H   0  0  0  0  0  0  0  0  0  0  0  0
   -7.1777   26.2681  -29.7166 H   0  0  0  0  0  0  0  0  0  0  0  0
   -8.3282   22.3030  -32.2180 H   0  0  0  0  0  0  0  0  0  0  0  0
   -7.6935   20.2679  -33.4975 H   0  0  0  0  0  0  0  0  0  0  0  0
  1  2  1  0
  2  3  1  0
  3  4  1  0
  4  5  1  0
  3  6  1  0
  6  7  1  0
  7  8  2  0
  8  9  1  0
  9 10  2  0
  9 11  1  0
 11 12  1  0
 12 13  2  0
 13 14  1  0
 14 15  1  0
 15 16  1  0
 16 17  1  0
 16 18  2  0
 14 19  2  0
 19 20  1  0
 20 21  2  0
 21  7  1  0
 21 12  1  0
  1 22  1  0
  1 23  1  0
  1 24  1  0
  2 25  1  0
  2 26  1  0
  4 27  1  0
  4 28  1  0
  5 29  1  0
  5 30  1  0
  5 31  1  0
  6 32  1  0
  6 33  1  0
  8 34  1  0
 13 35  1  0
 15 36  1  0
 17 37  1  0
 17 38  1  0
 17 39  1  0
 19 40  1  0
 20 41  1  0
M  END
>  <UniqueID>  (44) 
42

>  <SMILES>  (44) 
CCN(CC)Cc1cc(=O)oc2cc(NC(C)=O)ccc12

>  <Energy>  (44) 
55.83155825333193

>  <Genealogy>  (44) 
CCN(CC)Cc1cc(=O)oc2cc(NC(C)=O)ccc12 (3D coordinates assigned)
CCN(CC)Cc1cc(=O)oc2cc(NC(C)=O)ccc12 (optimized conformer: 55.83155825333193 kcal/mol)

>  <smiles>  (44) 
CCN(CC)Cc1cc(=O)oc2cc(NC(C)=O)ccc12

>  <score_type>  (44) 
oracle

>  <origin>  (44) 
adg

>  <m_score__min__energy>  (44) 
-7.3200000000000003

>  <m_primary>  (44) 
energy

$$$$
44:0
     RDKit          3D

 55 59  0  0  0  0  0  0  0  0999 V2000
   -1.5990   26.3850  -25.1200 C   0  0  0  0  0  0  0  0  0  0  0  0
   -2.2270   25.6430  -26.2640 C   0  0  0  0  0  0  0  0  0  0  0  0
   -3.5520   25.1940  -26.1720 C   0  0  0  0  0  0  0  0  0  0  0  0
   -4.1280   24.4710  -27.2200 C   0  0  0  0  0  0  0  0  0  0  0  0
   -3.3830   24.1730  -28.3770 C   0  0  0  0  0  0  0  0  0  0  0  0
   -3.9750   23.4070  -29.5020 C   0  0  0  0  0  0  0  0  0  0  0  0
   -4.9680   23.8270  -30.3670 C   0  0  0  0  0  0  0  0  0  0  0  0
   -5.2100   22.8330  -31.2390 N   0  0  0  0  0  0  0  0  0  0  0  0
   -6.2230   22.8560  -32.2940 C   0  0  0  0  0  0  0  0  0  0  0  0
   -7.6020   23.1370  -31.6880 C   0  0  0  0  0  0  0  0  0  0  0  0
   -8.6480   22.0600  -31.9310 C   0  0  0  0  0  0  0  0  0  0  0  0
   -8.0180   22.2120  -30.5540 C   0  0  0  0  0  0  0  0  0  0  0  0
   -4.3780   21.8260  -30.8810 C   0  0  0  0  0  0  0  0  0  0  0  0
   -4.3000   20.4740  -31.5570 C   0  0  0  0  0  0  0  0  0  0  0  0
   -5.6870   19.7880  -31.5770 C   0  0  0  0  0  0  0  0  0  0  0  0
   -6.3720   19.9040  -32.9470 C   0  0  0  0  0  0  0  0  0  0  0  0
   -5.5530   19.3400  -34.0520 N   0  0  0  0  0  0  0  0  0  0  0  0
   -6.0990   18.0460  -34.5470 C   0  0  0  0  0  0  0  0  0  0  0  0
   -5.1480   16.8650  -34.5430 C   0  0  0  0  0  0  0  0  0  0  0  0
   -5.9150   16.1700  -33.5870 O   0  0  0  0  0  0  0  0  0  0  0  0
   -6.8600   17.2130  -33.5350 C   0  0  0  0  0  0  0  0  0  0  0  0
   -4.0800   19.4330  -33.8560 C   0  0  0  0  0  0  0  0  0  0  0  0
   -3.6970   20.6230  -32.9690 C   0  0  0  0  0  0  0  0  0  0  0  0
   -3.6030   22.1500  -29.8240 N   0  0  0  0  0  0  0  0  0  0  0  0
   -2.0490   24.6110  -28.4540 C   0  0  0  0  0  0  0  0  0  0  0  0
   -1.4750   25.3340  -27.4050 C   0  0  0  0  0  0  0  0  0  0  0  0
   -1.9562   25.9630  -24.1690 H   0  0  0  0  0  0  0  0  0  0  0  0
   -0.5048   26.2876  -25.1764 H   0  0  0  0  0  0  0  0  0  0  0  0
   -1.8759   27.4481  -25.1764 H   0  0  0  0  0  0  0  0  0  0  0  0
   -4.1417   25.4122  -25.2694 H   0  0  0  0  0  0  0  0  0  0  0  0
   -5.1715   24.1321  -27.1404 H   0  0  0  0  0  0  0  0  0  0  0  0
   -5.4723   24.8043  -30.3455 H   0  0  0  0  0  0  0  0  0  0  0  0
   -5.9759   23.6450  -33.0195 H   0  0  0  0  0  0  0  0  0  0  0  0
   -6.2419   21.8788  -32.7988 H   0  0  0  0  0  0  0  0  0  0  0  0
   -7.5575   24.2274  -31.8262 H   0  0  0  0  0  0  0  0  0  0  0  0
   -9.6999   22.3405  -32.0886 H   0  0  0  0  0  0  0  0  0  0  0  0
   -8.7611   21.2332  -32.6476 H   0  0  0  0  0  0  0  0  0  0  0  0
   -8.6144   22.6025  -29.7163 H   0  0  0  0  0  0  0  0  0  0  0  0
   -7.4871   21.5408  -29.8630 H   0  0  0  0  0  0  0  0  0  0  0  0
   -3.6319   19.8184  -30.9792 H   0  0  0  0  0  0  0  0  0  0  0  0
   -5.5589   18.7228  -31.3340 H   0  0  0  0  0  0  0  0  0  0  0  0
   -6.3245   20.2936  -30.8368 H   0  0  0  0  0  0  0  0  0  0  0  0
   -7.3291   19.3632  -32.9080 H   0  0  0  0  0  0  0  0  0  0  0  0
   -6.5154   20.9746  -33.1552 H   0  0  0  0  0  0  0  0  0  0  0  0
   -6.5469   18.4646  -35.4603 H   0  0  0  0  0  0  0  0  0  0  0  0
   -5.0837   16.3499  -35.5128 H   0  0  0  0  0  0  0  0  0  0  0  0
   -4.0801   17.0402  -34.3456 H   0  0  0  0  0  0  0  0  0  0  0  0
   -7.8620   16.9146  -33.8770 H   0  0  0  0  0  0  0  0  0  0  0  0
   -7.1116   17.6566  -32.5604 H   0  0  0  0  0  0  0  0  0  0  0  0
   -3.7249   18.5064  -33.3813 H   0  0  0  0  0  0  0  0  0  0  0  0
   -3.6127   19.5771  -34.8413 H   0  0  0  0  0  0  0  0  0  0  0  0
   -2.6011   20.6745  -32.8890 H   0  0  0  0  0  0  0  0  0  0  0  0
   -4.0927   21.5426  -33.4248 H   0  0  0  0  0  0  0  0  0  0  0  0
   -1.4515   24.3822  -29.3488 H   0  0  0  0  0  0  0  0  0  0  0  0
   -0.4275   25.6622  -27.4754 H   0  0  0  0  0  0  0  0  0  0  0  0
  1  2  1  0
  2  3  2  0
  3  4  1  0
  4  5  2  0
  5  6  1  0
  6  7  2  0
  7  8  1  0
  8  9  1  0
  9 10  1  0
 10 11  1  0
 11 12  1  0
  8 13  1  0
 13 14  1  0
 14 15  1  0
 15 16  1  0
 16 17  1  0
 17 18  1  0
 18 19  1  0
 19 20  1  0
 20 21  1  0
 17 22  1  0
 22 23  1  0
 13 24  2  0
  5 25  1  0
 25 26  2  0
 26  2  1  0
 24  6  1  0
 12 10  1  0
 23 14  1  0
 21 18  1  0
  1 27  1  0
  1 28  1  0
  1 29  1  0
  3 30  1  0
  4 31  1  0
  7 32  1  0
  9 33  1  0
  9 34  1  0
 10 35  1  0
 11 36  1  0
 11 37  1  0
 12 38  1  0
 12 39  1  0
 14 40  1  0
 15 41  1  0
 15 42  1  0
 16 43  1  0
 16 44  1  0
 18 45  1  0
 19 46  1  0
 19 47  1  0
 21 48  1  0
 21 49  1  0
 22 50  1  0
 22 51  1  0
 23 52  1  0
 23 53  1  0
 25 54  1  0
 26 55  1  0
M  END
>  <UniqueID>  (45) 
43

>  <SMILES>  (45) 
Cc1ccc(-c2cn(CC3CC3)c(C3CCN(C4COC4)CC3)n2)cc1

>  <Energy>  (45) 
428.94639120662555

>  <Genealogy>  (45) 
Cc1ccc(-c2cn(CC3CC3)c(C3CCN(C4COC4)CC3)n2)cc1 (3D coordinates assigned)
Cc1ccc(-c2cn(CC3CC3)c(C3CCN(C4COC4)CC3)n2)cc1 (nonaromatic ring conformer: 428.94639120662555 kcal/mol)

>  <smiles>  (45) 
Cc1ccc(-c2cn(CC3CC3)c(C3CCN(C4COC4)CC3)n2)cc1

>  <score_type>  (45) 
oracle

>  <origin>  (45) 
adg

>  <m_score__min__energy>  (45) 
-8.4600000000000009

>  <m_primary>  (45) 
energy

$$$$
45:0
     RDKit          3D

 60 63  0  0  0  0  0  0  0  0999 V2000
   -4.5640   13.4300  -31.7250 C   0  0  0  0  0  0  0  0  0  0  0  0
   -4.0770   12.9670  -33.0880 C   0  0  0  0  0  0  0  0  0  0  0  0
   -4.5160   13.8870  -34.0880 O   0  0  0  0  0  0  0  0  0  0  0  0
   -4.9560   15.1910  -33.8240 C   0  0  0  0  0  0  0  0  0  0  0  0
   -6.3260   15.4560  -33.9010 C   0  0  0  0  0  0  0  0  0  0  0  0
   -6.8200   16.7310  -33.6170 C   0  0  0  0  0  0  0  0  0  0  0  0
   -5.9450   17.7710  -33.2570 C   0  0  0  0  0  0  0  0  0  0  0  0
   -6.4730   19.1150  -32.9120 C   0  0  0  0  0  0  0  0  0  0  0  0
   -5.6690   20.2580  -33.0450 C   0  0  0  0  0  0  0  0  0  0  0  0
   -6.1670   21.5200  -32.7040 C   0  0  0  0  0  0  0  0  0  0  0  0
   -7.4750   21.6670  -32.2130 C   0  0  0  0  0  0  0  0  0  0  0  0
   -7.9790   23.0210  -31.8610 C   0  0  0  0  0  0  0  0  0  0  0  0
   -9.0510   23.4260  -32.4000 O   0  0  0  0  0  0  0  0  0  0  0  0
   -7.2800   23.8850  -30.9250 N   0  0  0  0  0  0  0  0  0  0  0  0
   -6.9000   23.1360  -29.6900 C   0  0  0  0  0  0  0  0  0  0  0  0
   -5.4290   22.6920  -29.6850 C   0  0  0  0  0  0  0  0  0  0  0  0
   -4.5620   23.8610  -29.8740 N   0  0  0  0  0  0  0  0  0  0  0  0
   -3.2120   23.8430  -29.3820 C   0  0  0  0  0  0  0  0  0  0  0  0
   -2.9050   24.4810  -28.1690 C   0  0  0  0  0  0  0  0  0  0  0  0
   -1.6160   24.4060  -27.6340 C   0  0  0  0  0  0  0  0  0  0  0  0
   -0.6240   23.6890  -28.3040 C   0  0  0  0  0  0  0  0  0  0  0  0
   -0.9090   23.0700  -29.5250 C   0  0  0  0  0  0  0  0  0  0  0  0
   -2.1910   23.1590  -30.0810 C   0  0  0  0  0  0  0  0  0  0  0  0
   -2.4340   22.5660  -31.3240 O   0  0  0  0  0  0  0  0  0  0  0  0
   -2.6270   21.1640  -31.4620 C   0  0  0  0  0  0  0  0  0  0  0  0
   -5.0570   25.0100  -30.6340 C   0  0  0  0  0  0  0  0  0  0  0  0
   -6.1430   24.5510  -31.6140 C   0  0  0  0  0  0  0  0  0  0  0  0
   -8.2830   20.5210  -32.0920 C   0  0  0  0  0  0  0  0  0  0  0  0
   -7.7870   19.2620  -32.4360 C   0  0  0  0  0  0  0  0  0  0  0  0
   -4.5650   17.5100  -33.2020 C   0  0  0  0  0  0  0  0  0  0  0  0
   -4.0720   16.2310  -33.4800 C   0  0  0  0  0  0  0  0  0  0  0  0
   -4.0074   12.9008  -30.9375 H   0  0  0  0  0  0  0  0  0  0  0  0
   -4.3997   14.5131  -31.6254 H   0  0  0  0  0  0  0  0  0  0  0  0
   -5.6374   13.2113  -31.6254 H   0  0  0  0  0  0  0  0  0  0  0  0
   -2.9779   12.9216  -33.0887 H   0  0  0  0  0  0  0  0  0  0  0  0
   -4.4854   11.9686  -33.3036 H   0  0  0  0  0  0  0  0  0  0  0  0
   -7.0213   14.6533  -34.1878 H   0  0  0  0  0  0  0  0  0  0  0  0
   -7.9015   16.9230  -33.6754 H   0  0  0  0  0  0  0  0  0  0  0  0
   -4.6396   20.1606  -33.4202 H   0  0  0  0  0  0  0  0  0  0  0  0
   -5.5273   22.4071  -32.8216 H   0  0  0  0  0  0  0  0  0  0  0  0
   -7.9400   24.6330  -30.6100 H   0  0  0  0  0  0  0  0  0  0  0  0
   -7.0730   23.7854  -28.8192 H   0  0  0  0  0  0  0  0  0  0  0  0
   -7.5180   22.2267  -29.6538 H   0  0  0  0  0  0  0  0  0  0  0  0
   -5.1941   22.2136  -28.7227 H   0  0  0  0  0  0  0  0  0  0  0  0
   -5.2605   21.9758  -30.5027 H   0  0  0  0  0  0  0  0  0  0  0  0
   -3.6852   25.0441  -27.6359 H   0  0  0  0  0  0  0  0  0  0  0  0
   -1.3836   24.9119  -26.6853 H   0  0  0  0  0  0  0  0  0  0  0  0
    0.3841   23.6106  -27.8708 H   0  0  0  0  0  0  0  0  0  0  0  0
   -0.1220   22.5102  -30.0515 H   0  0  0  0  0  0  0  0  0  0  0  0
   -2.6905   20.7028  -30.4654 H   0  0  0  0  0  0  0  0  0  0  0  0
   -3.5597   20.9748  -32.0137 H   0  0  0  0  0  0  0  0  0  0  0  0
   -1.7802   20.7298  -32.0137 H   0  0  0  0  0  0  0  0  0  0  0  0
   -5.4797   25.7524  -29.9410 H   0  0  0  0  0  0  0  0  0  0  0  0
   -4.2258   25.4611  -31.1958 H   0  0  0  0  0  0  0  0  0  0  0  0
   -6.5235   25.4288  -32.1568 H   0  0  0  0  0  0  0  0  0  0  0  0
   -5.6902   23.8198  -32.2997 H   0  0  0  0  0  0  0  0  0  0  0  0
   -9.3147   20.6181  -31.7230 H   0  0  0  0  0  0  0  0  0  0  0  0
   -8.4312   18.3763  -32.3334 H   0  0  0  0  0  0  0  0  0  0  0  0
   -3.8670   18.3182  -32.9382 H   0  0  0  0  0  0  0  0  0  0  0  0
   -2.9904   16.0373  -33.4297 H   0  0  0  0  0  0  0  0  0  0  0  0
  1  2  1  0
  2  3  1  0
  3  4  1  0
  4  5  2  0
  5  6  1  0
  6  7  2  0
  7  8  1  0
  8  9  2  0
  9 10  1  0
 10 11  2  0
 11 12  1  0
 12 13  2  0
 12 14  1  0
 14 15  1  0
 15 16  1  0
 16 17  1  0
 17 18  1  0
 18 19  2  0
 19 20  1  0
 20 21  2  0
 21 22  1  0
 22 23  2  0
 23 24  1  0
 24 25  1  0
 17 26  1  0
 26 27  1  0
 11 28  1  0
 28 29  2  0
  7 30  1  0
 30 31  2  0
 31  4  1  0
 29  8  1  0
 27 14  1  0
 23 18  1  0
  1 32  1  0
  1 33  1  0
  1 34  1  0
  2 35  1  0
  2 36  1  0
  5 37  1  0
  6 38  1  0
  9 39  1  0
 10 40  1  0
 14 41  1  0
 15 42  1  0
 15 43  1  0
 16 44  1  0
 16 45  1  0
 19 46  1  0
 20 47  1  0
 21 48  1  0
 22 49  1  0
 25 50  1  0
 25 51  1  0
 25 52  1  0
 26 53  1  0
 26 54  1  0
 27 55  1  0
 27 56  1  0
 28 57  1  0
 29 58  1  0
 30 59  1  0
 31 60  1  0
M  CHG  1  14   1
M  END
>  <UniqueID>  (46) 
44

>  <SMILES>  (46) 
CCOc1ccc(-c2ccc(C(=O)[NH+]3CCN(c4ccccc4OC)CC3)cc2)cc1

>  <Energy>  (46) 
87.43028999953006

>  <Genealogy>  (46) 
CCOc1ccc(-c2ccc(C(=O)[NH+]3CCN(c4ccccc4OC)CC3)cc2)cc1 (protonated)
CCOc1ccc(-c2ccc(C(=O)[NH+]3CCN(c4ccccc4OC)CC3)cc2)cc1 (3D coordinates assigned)
CCOc1ccc(-c2ccc(C(=O)[NH+]3CCN(c4ccccc4OC)CC3)cc2)cc1 (nonaromatic ring conformer: 87.43028999953006 kcal/mol)

>  <smiles>  (46) 
CCOc1ccc(-c2ccc(C(=O)N3CCN(c4ccccc4OC)CC3)cc2)cc1

>  <score_type>  (46) 
oracle

>  <origin>  (46) 
adg

>  <m_score__min__energy>  (46) 
-8.0700000000000003

>  <m_primary>  (46) 
energy

$$$$
46:0
     RDKit          3D

 32 33  0  0  0  0  0  0  0  0999 V2000
   -2.5210   24.8860  -28.9770 C   0  0  0  0  0  0  0  0  0  0  0  0
   -3.4830   25.2930  -29.9450 O   0  0  0  0  0  0  0  0  0  0  0  0
   -4.6490   24.5830  -30.2710 C   0  0  0  0  0  0  0  0  0  0  0  0
   -5.9070   25.0150  -29.8050 C   0  0  0  0  0  0  0  0  0  0  0  0
   -7.0670   24.3160  -30.1250 C   0  0  0  0  0  0  0  0  0  0  0  0
   -7.0010   23.1670  -30.9180 C   0  0  0  0  0  0  0  0  0  0  0  0
   -8.1670   22.4630  -31.2430 C   0  0  0  0  0  0  0  0  0  0  0  0
   -8.1180   21.3400  -32.0230 N   0  0  0  0  0  0  0  0  0  0  0  0
   -9.3740   20.6380  -32.3300 C   0  0  0  0  0  0  0  0  0  0  0  0
   -6.9130   20.8670  -32.4890 C   0  0  0  0  0  0  0  0  0  0  0  0
   -6.8340   19.6260  -33.3460 C   0  0  0  0  0  0  0  0  0  0  0  0
   -5.7260   21.5540  -32.1870 C   0  0  0  0  0  0  0  0  0  0  0  0
   -5.7570   22.7120  -31.3950 C   0  0  0  0  0  0  0  0  0  0  0  0
   -4.5710   23.4150  -31.0780 C   0  0  0  0  0  0  0  0  0  0  0  0
   -3.3560   22.9110  -31.5860 O   0  0  0  0  0  0  0  0  0  0  0  0
   -2.6180   21.7980  -31.0920 C   0  0  0  0  0  0  0  0  0  0  0  0
   -2.9225   25.0559  -27.9671 H   0  0  0  0  0  0  0  0  0  0  0  0
   -2.2987   23.8167  -29.1081 H   0  0  0  0  0  0  0  0  0  0  0  0
   -1.5988   25.4710  -29.1081 H   0  0  0  0  0  0  0  0  0  0  0  0
   -5.9729   25.9175  -29.1795 H   0  0  0  0  0  0  0  0  0  0  0  0
   -8.0398   24.6692  -29.7523 H   0  0  0  0  0  0  0  0  0  0  0  0
   -9.1372   22.8183  -30.8654 H   0  0  0  0  0  0  0  0  0  0  0  0
   -9.8759   20.3575  -31.3923 H   0  0  0  0  0  0  0  0  0  0  0  0
  -10.0308   21.2998  -32.9136 H   0  0  0  0  0  0  0  0  0  0  0  0
   -9.1544   19.7318  -32.9136 H   0  0  0  0  0  0  0  0  0  0  0  0
   -6.7774   18.7374  -32.7001 H   0  0  0  0  0  0  0  0  0  0  0  0
   -7.7298   19.5613  -33.9810 H   0  0  0  0  0  0  0  0  0  0  0  0
   -5.9372   19.6754  -33.9810 H   0  0  0  0  0  0  0  0  0  0  0  0
   -4.7658   21.1820  -32.5738 H   0  0  0  0  0  0  0  0  0  0  0  0
   -2.6268   21.8113  -29.9921 H   0  0  0  0  0  0  0  0  0  0  0  0
   -3.0771   20.8651  -31.4511 H   0  0  0  0  0  0  0  0  0  0  0  0
   -1.5800   21.8578  -31.4511 H   0  0  0  0  0  0  0  0  0  0  0  0
  1  2  1  0
  2  3  1  0
  3  4  2  0
  4  5  1  0
  5  6  2  0
  6  7  1  0
  7  8  2  0
  8  9  1  0
  8 10  1  0
 10 11  1  0
 10 12  2  0
 12 13  1  0
 13 14  2  0
 14 15  1  0
 15 16  1  0
 14  3  1  0
 13  6  1  0
  1 17  1  0
  1 18  1  0
  1 19  1  0
  4 20  1  0
  5 21  1  0
  7 22  1  0
  9 23  1  0
  9 24  1  0
  9 25  1  0
 11 26  1  0
 11 27  1  0
 11 28  1  0
 12 29  1  0
 16 30  1  0
 16 31  1  0
 16 32  1  0
M  CHG  1   8   1
M  END
>  <UniqueID>  (47) 
45

>  <SMILES>  (47) 
COc1ccc2c[n+](C)c(C)cc2c1OC

>  <Energy>  (47) 
40.37060984742346

>  <Genealogy>  (47) 
COc1ccc2c[n+](C)c(C)cc2c1OC (3D coordinates assigned)
COc1ccc2c[n+](C)c(C)cc2c1OC (optimized conformer: 40.37060984742346 kcal/mol)

>  <smiles>  (47) 
COc1ccc2c[n+](C)c(C)cc2c1OC

>  <score_type>  (47) 
oracle

>  <origin>  (47) 
adg

>  <m_score__min__energy>  (47) 
-6.0300000000000002

>  <m_primary>  (47) 
energy

$$$$
47:0
     RDKit          3D

 34 36  0  0  0  0  0  0  0  0999 V2000
   -4.7840   12.0930  -32.8050 C   0  0  0  0  0  0  0  0  0  0  0  0
   -4.9170   13.1480  -33.7510 O   0  0  0  0  0  0  0  0  0  0  0  0
   -5.3690   14.4390  -33.4380 C   0  0  0  0  0  0  0  0  0  0  0  0
   -6.3780   14.9990  -34.2270 C   0  0  0  0  0  0  0  0  0  0  0  0
   -6.8640   16.2830  -33.9590 C   0  0  0  0  0  0  0  0  0  0  0  0
   -6.3420   17.0360  -32.8900 C   0  0  0  0  0  0  0  0  0  0  0  0
   -6.8430   18.4030  -32.5820 C   0  0  0  0  0  0  0  0  0  0  0  0
   -8.1820   18.7920  -32.6730 C   0  0  0  0  0  0  0  0  0  0  0  0
   -8.2800   20.4140  -32.2440 S   0  0  0  0  0  0  0  0  0  0  0  0
   -6.6280   20.5670  -31.9580 C   0  0  0  0  0  0  0  0  0  0  0  0
   -5.9320   21.7980  -31.5200 C   0  0  0  0  0  0  0  0  0  0  0  0
   -6.5780   23.0480  -31.5580 C   0  0  0  0  0  0  0  0  0  0  0  0
   -5.9110   24.2040  -31.1420 C   0  0  0  0  0  0  0  0  0  0  0  0
   -4.5890   24.1300  -30.6820 C   0  0  0  0  0  0  0  0  0  0  0  0
   -3.9090   25.3140  -30.2570 N   0  0  0  0  0  0  0  0  0  0  0  0
   -3.9410   22.8900  -30.6420 C   0  0  0  0  0  0  0  0  0  0  0  0
   -4.6060   21.7330  -31.0570 C   0  0  0  0  0  0  0  0  0  0  0  0
   -5.9950   19.3940  -32.1870 N   0  0  0  0  0  0  0  0  0  0  0  0
   -5.3310   16.4660  -32.0940 C   0  0  0  0  0  0  0  0  0  0  0  0
   -4.8470   15.1830  -32.3650 C   0  0  0  0  0  0  0  0  0  0  0  0
   -4.8360   12.5051  -31.7864 H   0  0  0  0  0  0  0  0  0  0  0  0
   -5.5977   11.3669  -32.9487 H   0  0  0  0  0  0  0  0  0  0  0  0
   -3.8155   11.5916  -32.9487 H   0  0  0  0  0  0  0  0  0  0  0  0
   -6.7941   14.4240  -35.0673 H   0  0  0  0  0  0  0  0  0  0  0  0
   -7.6601   16.7076  -34.5882 H   0  0  0  0  0  0  0  0  0  0  0  0
   -9.0234   18.1499  -32.9726 H   0  0  0  0  0  0  0  0  0  0  0  0
   -7.6153   23.1157  -31.9177 H   0  0  0  0  0  0  0  0  0  0  0  0
   -6.4257   25.1756  -31.1758 H   0  0  0  0  0  0  0  0  0  0  0  0
   -4.2340   25.8480  -29.4200 H   0  0  0  0  0  0  0  0  0  0  0  0
   -3.0730   25.6660  -30.7760 H   0  0  0  0  0  0  0  0  0  0  0  0
   -2.9035   22.8259  -30.2822 H   0  0  0  0  0  0  0  0  0  0  0  0
   -4.0877   20.7634  -31.0211 H   0  0  0  0  0  0  0  0  0  0  0  0
   -4.9172   17.0364  -31.2494 H   0  0  0  0  0  0  0  0  0  0  0  0
   -4.0538   14.7532  -31.7357 H   0  0  0  0  0  0  0  0  0  0  0  0
  1  2  1  0
  2  3  1  0
  3  4  2  0
  4  5  1  0
  5  6  2  0
  6  7  1  0
  7  8  2  0
  8  9  1  0
  9 10  1  0
 10 11  1  0
 11 12  2  0
 12 13  1  0
 13 14  2  0
 14 15  1  0
 14 16  1  0
 16 17  2  0
 10 18  2  0
  6 19  1  0
 19 20  2  0
 20  3  1  0
 18  7  1  0
 17 11  1  0
  1 21  1  0
  1 22  1  0
  1 23  1  0
  4 24  1  0
  5 25  1  0
  8 26  1  0
 12 27  1  0
 13 28  1  0
 15 29  1  0
 15 30  1  0
 16 31  1  0
 17 32  1  0
 19 33  1  0
 20 34  1  0
M  END
>  <UniqueID>  (48) 
46

>  <SMILES>  (48) 
COc1ccc(-c2csc(-c3ccc(N)cc3)n2)cc1

>  <Energy>  (48) 
67.83806660359555

>  <Genealogy>  (48) 
COc1ccc(-c2csc(-c3ccc(N)cc3)n2)cc1 (3D coordinates assigned)
COc1ccc(-c2csc(-c3ccc(N)cc3)n2)cc1 (optimized conformer: 67.83806660359555 kcal/mol)

>  <smiles>  (48) 
COc1ccc(-c2csc(-c3ccc(N)cc3)n2)cc1

>  <score_type>  (48) 
oracle

>  <origin>  (48) 
adg

>  <m_score__min__energy>  (48) 
-7.5999999999999996

>  <m_primary>  (48) 
energy

$$$$
