0:0
     RDKit          3D

 44 46  0  0  0  0  0  0  0  0999 V2000
   -9.4600   21.7350  -31.2440 C   0  0  0  0  0  0  0  0  0  0  0  0
   -8.1570   22.8250  -31.9030 S   0  0  0  0  0  0  0  0  0  0  0  0
   -7.0440   21.4770  -32.3410 C   0  0  0  0  0  0  0  0  0  0  0  0
   -7.5700   20.1750  -32.3480 C   0  0  0  0  0  0  0  0  0  0  0  0
   -6.7490   19.0790  -32.6240 C   0  0  0  0  0  0  0  0  0  0  0  0
   -5.3940   19.2720  -32.8910 C   0  0  0  0  0  0  0  0  0  0  0  0
   -4.8570   20.5620  -32.8890 C   0  0  0  0  0  0  0  0  0  0  0  0
   -5.6710   21.6810  -32.6290 C   0  0  0  0  0  0  0  0  0  0  0  0
   -5.0240   23.0500  -32.6120 C   0  0  0  0  0  0  0  0  0  0  0  0
   -4.7040   23.4460  -31.2240 N   0  0  0  0  0  0  0  0  0  0  0  0
   -5.5970   24.5340  -30.7630 C   0  0  0  0  0  0  0  0  0  0  0  0
   -5.3600   24.9030  -29.2800 C   0  0  0  0  0  0  0  0  0  0  0  0
   -4.1200   24.1940  -28.6980 C   0  0  0  0  0  0  0  0  0  0  0  0
   -4.2410   22.6650  -28.9070 C   0  0  0  0  0  0  0  0  0  0  0  0
   -4.7810   22.2930  -30.3050 C   0  0  0  0  0  0  0  0  0  0  0  0
   -3.8850   24.5590  -27.2000 C   0  0  0  0  0  0  0  0  0  0  0  0
   -2.5090   25.0950  -27.0810 N   0  0  1  0  0  0  0  0  0  0  0  0
   -1.6270   24.1880  -26.3310 C   0  0  0  0  0  0  0  0  0  0  0  0
   -2.0800   25.1910  -28.4360 C   0  0  0  0  0  0  0  0  0  0  0  0
   -0.9950   25.7350  -28.7730 O   0  0  0  0  0  0  0  0  0  0  0  0
   -2.9590   24.6730  -29.3540 O   0  0  0  0  0  0  0  0  0  0  0  0
   -9.4345   21.7563  -30.1445 H   0  0  0  0  0  0  0  0  0  0  0  0
  -10.4423   22.0842  -31.5948 H   0  0  0  0  0  0  0  0  0  0  0  0
   -9.2898   20.7064  -31.5948 H   0  0  0  0  0  0  0  0  0  0  0  0
   -8.6374   20.0168  -32.1344 H   0  0  0  0  0  0  0  0  0  0  0  0
   -7.1715   18.0634  -32.6307 H   0  0  0  0  0  0  0  0  0  0  0  0
   -4.7473   18.4079  -33.1034 H   0  0  0  0  0  0  0  0  0  0  0  0
   -3.7856   20.7050  -33.0930 H   0  0  0  0  0  0  0  0  0  0  0  0
   -4.0977   23.0215  -33.2045 H   0  0  0  0  0  0  0  0  0  0  0  0
   -5.7226   23.7826  -33.0424 H   0  0  0  0  0  0  0  0  0  0  0  0
   -5.4165   25.4252  -31.3819 H   0  0  0  0  0  0  0  0  0  0  0  0
   -6.6340   24.1799  -30.8588 H   0  0  0  0  0  0  0  0  0  0  0  0
   -5.2153   25.9908  -29.2037 H   0  0  0  0  0  0  0  0  0  0  0  0
   -6.2388   24.5765  -28.7045 H   0  0  0  0  0  0  0  0  0  0  0  0
   -3.2456   22.2135  -28.7832 H   0  0  0  0  0  0  0  0  0  0  0  0
   -4.9570   22.2848  -28.1635 H   0  0  0  0  0  0  0  0  0  0  0  0
   -4.1820   21.4660  -30.7140 H   0  0  0  0  0  0  0  0  0  0  0  0
   -5.8345   21.9924  -30.2061 H   0  0  0  0  0  0  0  0  0  0  0  0
   -4.6128   25.3193  -26.8804 H   0  0  0  0  0  0  0  0  0  0  0  0
   -4.0111   23.6722  -26.5615 H   0  0  0  0  0  0  0  0  0  0  0  0
   -2.5140   26.0470  -26.6400 H   0  0  0  0  0  0  0  0  0  0  0  0
   -1.7758   24.3410  -25.2519 H   0  0  0  0  0  0  0  0  0  0  0  0
   -1.8667   23.1462  -26.5901 H   0  0  0  0  0  0  0  0  0  0  0  0
   -0.5789   24.3984  -26.5901 H   0  0  0  0  0  0  0  0  0  0  0  0
  1  2  1  0
  2  3  1  0
  3  4  2  0
  4  5  1  0
  5  6  2  0
  6  7  1  0
  7  8  2  0
  8  9  1  0
  9 10  1  0
 10 11  1  0
 11 12  1  0
 12 13  1  0
 13 14  1  0
 14 15  1  0
 13 16  1  0
 16 17  1  0
 17 18  1  0
 17 19  1  0
 19 20  2  0
 19 21  1  0
  8  3  1  0
 15 10  1  0
 21 13  1  0
  1 22  1  0
  1 23  1  0
  1 24  1  0
  4 25  1  0
  5 26  1  0
  6 27  1  0
  7 28  1  0
  9 29  1  0
  9 30  1  0
 11 31  1  0
 11 32  1  0
 12 33  1  0
 12 34  1  0
 14 35  1  0
 14 36  1  0
 15 37  1  0
 15 38  1  0
 16 39  1  0
 16 40  1  0
 17 41  1  1
 18 42  1  0
 18 43  1  0
 18 44  1  0
M  CHG  1  17   1
M  END
>  <UniqueID>  (1) 
1

>  <SMILES>  (1) 
CSc1ccccc1CN1CCC2(CC1)C[N@@H+](C)C(=O)O2

>  <Energy>  (1) 
59.738551183911646

>  <Genealogy>  (1) 
CSc1ccccc1CN1CCC2(CC1)C[NH+](C)C(=O)O2 (protonated)
CSc1ccccc1CN1CCC2(CC1)C[N@@H+](C)C(=O)O2 (chirality)
CSc1ccccc1CN1CCC2(CC1)C[N@@H+](C)C(=O)O2 (3D coordinates assigned)
CSc1ccccc1CN1CCC2(CC1)C[N@@H+](C)C(=O)O2 (nonaromatic ring conformer: 59.738551183911646 kcal/mol)

>  <smiles>  (1) 
CSc1ccccc1CN1CCC2(CC1)CN(C)C(=O)O2

>  <score_type>  (1) 
oracle

>  <origin>  (1) 
adg

>  <m_score__min__energy>  (1) 
-7.6500000000000004

>  <m_primary>  (1) 
energy

$$$$
1:0
     RDKit          3D

 40 42  0  0  0  0  0  0  0  0999 V2000
   -2.3860   24.5670  -28.1840 C   0  0  0  0  0  0  0  0  0  0  0  0
   -2.7560   24.8860  -29.5220 O   0  0  0  0  0  0  0  0  0  0  0  0
   -3.3940   23.9990  -30.4030 C   0  0  0  0  0  0  0  0  0  0  0  0
   -2.7720   22.8180  -30.8550 C   0  0  0  0  0  0  0  0  0  0  0  0
   -3.4530   21.9480  -31.7160 C   0  0  0  0  0  0  0  0  0  0  0  0
   -4.7400   22.2570  -32.1470 C   0  0  0  0  0  0  0  0  0  0  0  0
   -5.3550   23.4440  -31.7300 C   0  0  0  0  0  0  0  0  0  0  0  0
   -4.6920   24.3100  -30.8400 C   0  0  0  0  0  0  0  0  0  0  0  0
   -5.2910   25.4870  -30.3630 O   0  0  0  0  0  0  0  0  0  0  0  0
   -6.4580   25.5230  -29.5480 C   0  0  0  0  0  0  0  0  0  0  0  0
   -5.4300   21.2800  -33.0620 C   0  0  0  0  0  0  0  0  0  0  0  0
   -5.2260   19.8720  -32.6210 N   0  0  2  0  0  0  0  0  0  0  0  0
   -6.2640   19.4170  -31.6540 C   0  0  0  0  0  0  0  0  0  0  0  0
   -7.5620   20.1850  -31.7330 C   0  0  0  0  0  0  0  0  0  0  0  0
   -8.6640   19.8900  -32.5290 C   0  0  0  0  0  0  0  0  0  0  0  0
   -9.7300   20.7790  -32.3480 C   0  0  0  0  0  0  0  0  0  0  0  0
   -9.4720   21.7830  -31.4230 C   0  0  0  0  0  0  0  0  0  0  0  0
   -7.9160   21.5620  -30.8300 S   0  0  0  0  0  0  0  0  0  0  0  0
   -3.8370   19.5270  -32.1690 C   0  0  0  0  0  0  0  0  0  0  0  0
   -2.8270   20.6890  -32.2330 C   0  0  0  0  0  0  0  0  0  0  0  0
   -3.0286   25.1210  -27.4839 H   0  0  0  0  0  0  0  0  0  0  0  0
   -2.5083   23.4866  -28.0174 H   0  0  0  0  0  0  0  0  0  0  0  0
   -1.3354   24.8471  -28.0174 H   0  0  0  0  0  0  0  0  0  0  0  0
   -1.7485   22.5786  -30.5307 H   0  0  0  0  0  0  0  0  0  0  0  0
   -6.3590   23.7004  -32.0990 H   0  0  0  0  0  0  0  0  0  0  0  0
   -6.1652   25.5140  -28.4877 H   0  0  0  0  0  0  0  0  0  0  0  0
   -7.0275   26.4391  -29.7633 H   0  0  0  0  0  0  0  0  0  0  0  0
   -7.0829   24.6437  -29.7633 H   0  0  0  0  0  0  0  0  0  0  0  0
   -6.5080   21.4986  -33.0688 H   0  0  0  0  0  0  0  0  0  0  0  0
   -4.9986   21.3897  -34.0679 H   0  0  0  0  0  0  0  0  0  0  0  0
   -5.3960   19.2930  -33.4800 H   0  0  0  0  0  0  0  0  0  0  0  0
   -6.4781   18.3562  -31.8513 H   0  0  0  0  0  0  0  0  0  0  0  0
   -5.8555   19.5889  -30.6472 H   0  0  0  0  0  0  0  0  0  0  0  0
   -8.6947   19.0431  -33.2303 H   0  0  0  0  0  0  0  0  0  0  0  0
  -10.6841   20.6908  -32.8884 H   0  0  0  0  0  0  0  0  0  0  0  0
  -10.1665   22.5840  -31.1297 H   0  0  0  0  0  0  0  0  0  0  0  0
   -3.8931   19.1799  -31.1267 H   0  0  0  0  0  0  0  0  0  0  0  0
   -3.4680   18.7586  -32.8643 H   0  0  0  0  0  0  0  0  0  0  0  0
   -1.9487   20.4412  -31.6188 H   0  0  0  0  0  0  0  0  0  0  0  0
   -2.5228   20.8428  -33.2789 H   0  0  0  0  0  0  0  0  0  0  0  0
  1  2  1  0
  2  3  1  0
  3  4  2  0
  4  5  1  0
  5  6  2  0
  6  7  1  0
  7  8  2  0
  8  9  1  0
  9 10  1  0
  6 11  1  0
 11 12  1  0
 12 13  1  0
 13 14  1  0
 14 15  2  0
 15 16  1  0
 16 17  2  0
 17 18  1  0
 12 19  1  0
 19 20  1  0
  8  3  1  0
 18 14  1  0
 20  5  1  0
  1 21  1  0
  1 22  1  0
  1 23  1  0
  4 24  1  0
  7 25  1  0
 10 26  1  0
 10 27  1  0
 10 28  1  0
 11 29  1  0
 11 30  1  0
 12 31  1  6
 13 32  1  0
 13 33  1  0
 15 34  1  0
 16 35  1  0
 17 36  1  0
 19 37  1  0
 19 38  1  0
 20 39  1  0
 20 40  1  0
M  CHG  1  12   1
M  END
>  <UniqueID>  (2) 
2

>  <SMILES>  (2) 
COc1cc2c(cc1OC)C[N@H+](Cc1cccs1)CC2

>  <Energy>  (2) 
77.76065057037879

>  <Genealogy>  (2) 
COc1cc2c(cc1OC)C[NH+](Cc1cccs1)CC2 (protonated)
COc1cc2c(cc1OC)C[N@H+](Cc1cccs1)CC2 (chirality)
COc1cc2c(cc1OC)C[N@H+](Cc1cccs1)CC2 (3D coordinates assigned)
COc1cc2c(cc1OC)C[N@H+](Cc1cccs1)CC2 (nonaromatic ring conformer: 77.76065057037879 kcal/mol)

>  <smiles>  (2) 
COc1cc2c(cc1OC)CN(Cc1cccs1)CC2

>  <score_type>  (2) 
oracle

>  <origin>  (2) 
adg

>  <m_score__min__energy>  (2) 
-6.5

>  <m_primary>  (2) 
energy

$$$$
2:0
     RDKit          3D

 58 59  0  0  0  0  0  0  0  0999 V2000
   -3.2647   25.1096  -27.3672 H   0  0  0  0  0  0  0  0  0  0  0  0
   -2.5450   24.7140  -28.0990 C   0  0  0  0  0  0  0  0  0  0  0  0
   -2.7850   24.9070  -29.3640 N   0  0  0  0  0  0  0  0  0  0  0  0
   -3.9170   24.3880  -30.0700 C   0  0  0  0  0  0  0  0  0  0  0  0
   -5.0080   25.2220  -30.3370 C   0  0  0  0  0  0  0  0  0  0  0  0
   -5.0236   26.2482  -29.9413 H   0  0  0  0  0  0  0  0  0  0  0  0
   -6.0780   24.7550  -31.1050 C   0  0  0  0  0  0  0  0  0  0  0  0
   -6.9238   25.4223  -31.3271 H   0  0  0  0  0  0  0  0  0  0  0  0
   -6.0800   23.4360  -31.5960 C   0  0  0  0  0  0  0  0  0  0  0  0
   -7.1590   22.9290  -32.4010 N   0  0  0  0  0  0  0  0  0  0  0  0
   -7.1170   23.0750  -33.4360 H   0  0  0  0  0  0  0  0  0  0  0  0
   -8.3940   22.3610  -31.8610 C   0  0  0  0  0  0  0  0  0  0  0  0
   -9.2471   22.9678  -32.1985 H   0  0  0  0  0  0  0  0  0  0  0  0
   -8.3311   22.3635  -30.7628 H   0  0  0  0  0  0  0  0  0  0  0  0
   -8.5860   20.9170  -32.3370 C   0  0  0  0  0  0  0  0  0  0  0  0
   -8.8882   20.9211  -33.3947 H   0  0  0  0  0  0  0  0  0  0  0  0
   -9.3642   20.4393  -31.7237 H   0  0  0  0  0  0  0  0  0  0  0  0
   -7.3190   20.1510  -32.1920 N   0  0  0  0  0  0  0  0  0  0  0  0
   -7.5670   18.7680  -31.7220 C   0  0  0  0  0  0  0  0  0  0  0  0
   -7.1470   18.6553  -30.7116 H   0  0  0  0  0  0  0  0  0  0  0  0
   -7.0878   18.0766  -32.4307 H   0  0  0  0  0  0  0  0  0  0  0  0
   -9.0600   18.4390  -31.6760 C   0  0  0  0  0  0  0  0  0  0  0  0
   -9.3875   18.3668  -30.6284 H   0  0  0  0  0  0  0  0  0  0  0  0
   -9.6264   19.2339  -32.1833 H   0  0  0  0  0  0  0  0  0  0  0  0
   -9.2399   17.4797  -32.1833 H   0  0  0  0  0  0  0  0  0  0  0  0
   -6.5550   20.1200  -33.4610 C   0  0  0  0  0  0  0  0  0  0  0  0
   -7.1829   20.5268  -34.2673 H   0  0  0  0  0  0  0  0  0  0  0  0
   -5.6452   20.7250  -33.3334 H   0  0  0  0  0  0  0  0  0  0  0  0
   -6.1400   18.6960  -33.8240 C   0  0  0  0  0  0  0  0  0  0  0  0
   -5.9714   18.1174  -32.9038 H   0  0  0  0  0  0  0  0  0  0  0  0
   -6.9371   18.2211  -34.4148 H   0  0  0  0  0  0  0  0  0  0  0  0
   -5.2126   18.7237  -34.4148 H   0  0  0  0  0  0  0  0  0  0  0  0
   -5.0100   22.5870  -31.2700 C   0  0  0  0  0  0  0  0  0  0  0  0
   -5.0209   21.5405  -31.6087 H   0  0  0  0  0  0  0  0  0  0  0  0
   -3.9320   23.0610  -30.5190 C   0  0  0  0  0  0  0  0  0  0  0  0
   -3.0931   22.3910  -30.2796 H   0  0  0  0  0  0  0  0  0  0  0  0
   -1.3330   23.9770  -27.5810 C   0  0  0  0  0  0  0  0  0  0  0  0
   -0.4258   24.4886  -27.9349 H   0  0  0  0  0  0  0  0  0  0  0  0
   -1.3771   23.9715  -26.4819 H   0  0  0  0  0  0  0  0  0  0  0  0
   -1.3070   22.5460  -28.0600 C   0  0  0  0  0  0  0  0  0  0  0  0
   -0.9260   22.2450  -29.3780 C   0  0  0  0  0  0  0  0  0  0  0  0
   -0.7146   23.0630  -30.0824 H   0  0  0  0  0  0  0  0  0  0  0  0
   -0.8120   20.9190  -29.8060 C   0  0  0  0  0  0  0  0  0  0  0  0
   -0.3810   20.6790  -31.1190 O   0  0  0  0  0  0  0  0  0  0  0  0
   -1.1850   20.8740  -32.2770 C   0  0  0  0  0  0  0  0  0  0  0  0
   -2.2122   21.1231  -31.9725 H   0  0  0  0  0  0  0  0  0  0  0  0
   -0.7704   21.6976  -32.8768 H   0  0  0  0  0  0  0  0  0  0  0  0
   -1.1938   19.9520  -32.8768 H   0  0  0  0  0  0  0  0  0  0  0  0
   -1.1200   19.8790  -28.9100 C   0  0  0  0  0  0  0  0  0  0  0  0
   -1.0385   18.8334  -29.2417 H   0  0  0  0  0  0  0  0  0  0  0  0
   -1.5290   20.1600  -27.6010 C   0  0  0  0  0  0  0  0  0  0  0  0
   -1.8260   19.0830  -26.7520 O   0  0  0  0  0  0  0  0  0  0  0  0
   -3.0780   18.8950  -26.0990 C   0  0  0  0  0  0  0  0  0  0  0  0
   -2.9301   18.9172  -25.0092 H   0  0  0  0  0  0  0  0  0  0  0  0
   -3.7687   19.6995  -26.3918 H   0  0  0  0  0  0  0  0  0  0  0  0
   -3.5020   17.9231  -26.3918 H   0  0  0  0  0  0  0  0  0  0  0  0
   -1.6220   21.5000  -27.1800 C   0  0  0  0  0  0  0  0  0  0  0  0
   -1.9441   21.7286  -26.1533 H   0  0  0  0  0  0  0  0  0  0  0  0
  1  2  1  0
  2  3  2  0
  3  4  1  0
  4  5  2  0
  5  6  1  0
  5  7  1  0
  7  8  1  0
  7  9  2  0
  9 10  1  0
 10 11  1  0
 10 12  1  0
 12 13  1  0
 12 14  1  0
 12 15  1  0
 15 16  1  0
 15 17  1  0
 15 18  1  0
 18 19  1  0
 19 20  1  0
 19 21  1  0
 19 22  1  0
 22 23  1  0
 22 24  1  0
 22 25  1  0
 18 26  1  0
 26 27  1  0
 26 28  1  0
 26 29  1  0
 29 30  1  0
 29 31  1  0
 29 32  1  0
  9 33  1  0
 33 34  1  0
 33 35  2  0
 35 36  1  0
  2 37  1  0
 37 38  1  0
 37 39  1  0
 37 40  1  0
 40 41  2  0
 41 42  1  0
 41 43  1  0
 43 44  1  0
 44 45  1  0
 45 46  1  0
 45 47  1  0
 45 48  1  0
 43 49  2  0
 49 50  1  0
 49 51  1  0
 51 52  1  0
 52 53  1  0
 53 54  1  0
 53 55  1  0
 53 56  1  0
 51 57  2  0
 57 58  1  0
 35  4  1  0
 57 40  1  0
M  END
>  <UniqueID>  (3) 
3

>  <SMILES>  (3) 
CCN(CC)CCNc1ccc(/N=C\Cc2cc(OC)cc(OC)c2)cc1

>  <Energy>  (3) 
57.22695863229303

>  <Genealogy>  (3) 
CCN(CC)CCNc1ccc(/N=C\Cc2cc(OC)cc(OC)c2)cc1 (cis-trans isomerization)
CCN(CC)CCNc1ccc(/N=C\Cc2cc(OC)cc(OC)c2)cc1 (3D coordinates assigned)
CCN(CC)CCNc1ccc(/N=C\Cc2cc(OC)cc(OC)c2)cc1 (optimized conformer: 57.22695863229303 kcal/mol)

>  <smiles>  (3) 
CCN(CC)CCNc1ccc(N=CCc2cc(OC)cc(OC)c2)cc1

>  <score_type>  (3) 
oracle

>  <origin>  (3) 
adg

>  <m_score__min__energy>  (3) 
-8.1600000000000001

>  <m_primary>  (3) 
energy

$$$$
3:0
     RDKit          3D

 34 36  0  0  0  0  0  0  0  0999 V2000
   -0.8510   26.4160  -27.3330 C   0  0  0  0  0  0  0  0  0  0  0  0
   -1.4310   25.9180  -28.4970 O   0  0  0  0  0  0  0  0  0  0  0  0
   -1.4410   24.5930  -28.9020 C   0  0  0  0  0  0  0  0  0  0  0  0
   -0.4550   23.7080  -28.5190 C   0  0  0  0  0  0  0  0  0  0  0  0
   -0.5610   22.4170  -28.9740 C   0  0  0  0  0  0  0  0  0  0  0  0
   -1.6130   22.0160  -29.7850 C   0  0  0  0  0  0  0  0  0  0  0  0
   -2.6140   22.9100  -30.1770 C   0  0  0  0  0  0  0  0  0  0  0  0
   -3.6790   22.4220  -31.0230 C   0  0  0  0  0  0  0  0  0  0  0  0
   -4.9260   21.9640  -30.7400 C   0  0  0  0  0  0  0  0  0  0  0  0
   -5.5560   21.6140  -31.9170 C   0  0  0  0  0  0  0  0  0  0  0  0
   -6.8950   21.0820  -32.0600 C   0  0  0  0  0  0  0  0  0  0  0  0
   -7.0570   19.7750  -32.4680 C   0  0  0  0  0  0  0  0  0  0  0  0
   -8.3350   19.2580  -32.6080 C   0  0  0  0  0  0  0  0  0  0  0  0
   -9.4310   20.0670  -32.3350 C   0  0  0  0  0  0  0  0  0  0  0  0
   -9.2700   21.3920  -31.9220 C   0  0  0  0  0  0  0  0  0  0  0  0
   -7.9890   21.8920  -31.7870 C   0  0  0  0  0  0  0  0  0  0  0  0
   -4.6800   21.8680  -32.8870 N   0  0  0  0  0  0  0  0  0  0  0  0
   -3.5620   22.3470  -32.3750 N   0  0  0  0  0  0  0  0  0  0  0  0
   -2.4980   24.1910  -29.7170 C   0  0  0  0  0  0  0  0  0  0  0  0
   -3.4670   25.1170  -30.0770 O   0  0  0  0  0  0  0  0  0  0  0  0
   -1.3560   25.9824  -26.4572 H   0  0  0  0  0  0  0  0  0  0  0  0
    0.2156   26.1481  -27.3112 H   0  0  0  0  0  0  0  0  0  0  0  0
   -0.9545   27.5109  -27.3112 H   0  0  0  0  0  0  0  0  0  0  0  0
    0.3805   24.0230  -27.8765 H   0  0  0  0  0  0  0  0  0  0  0  0
    0.2067   21.6827  -28.6887 H   0  0  0  0  0  0  0  0  0  0  0  0
   -1.6605   20.9716  -30.1271 H   0  0  0  0  0  0  0  0  0  0  0  0
   -5.3636   21.8847  -29.7339 H   0  0  0  0  0  0  0  0  0  0  0  0
   -6.1788   19.1477  -32.6807 H   0  0  0  0  0  0  0  0  0  0  0  0
   -8.4804   18.2170  -32.9322 H   0  0  0  0  0  0  0  0  0  0  0  0
  -10.4454   19.6563  -32.4462 H   0  0  0  0  0  0  0  0  0  0  0  0
  -10.1448   22.0239  -31.7088 H   0  0  0  0  0  0  0  0  0  0  0  0
   -7.8360   22.9320  -31.4632 H   0  0  0  0  0  0  0  0  0  0  0  0
   -4.8830   21.6990  -33.9000 H   0  0  0  0  0  0  0  0  0  0  0  0
   -3.4850   26.0700  -29.7460 H   0  0  0  0  0  0  0  0  0  0  0  0
  1  2  1  0
  2  3  1  0
  3  4  2  0
  4  5  1  0
  5  6  2  0
  6  7  1  0
  7  8  1  0
  8  9  1  0
  9 10  2  0
 10 11  1  0
 11 12  2  0
 12 13  1  0
 13 14  2  0
 14 15  1  0
 15 16  2  0
 10 17  1  0
 17 18  1  0
  7 19  2  0
 19 20  1  0
 19  3  1  0
 18  8  2  0
 16 11  1  0
  1 21  1  0
  1 22  1  0
  1 23  1  0
  4 24  1  0
  5 25  1  0
  6 26  1  0
  9 27  1  0
 12 28  1  0
 13 29  1  0
 14 30  1  0
 15 31  1  0
 16 32  1  0
 17 33  1  0
 20 34  1  0
M  END
>  <smiles>  (4) 
COc1cccc(-c2cc(-c3ccccc3)[nH]n2)c1O

>  <score_type>  (4) 
oracle

>  <origin>  (4) 
adg

>  <m_score__min__energy>  (4) 
-9.1699999999999999

>  <m_primary>  (4) 
energy

$$$$
4:0
     RDKit          3D

 44 46  0  0  0  0  0  0  0  0999 V2000
   -0.0510   23.0690  -24.7180 C   0  0  0  0  0  0  0  0  0  0  0  0
    0.0350   22.3010  -25.9130 O   0  0  0  0  0  0  0  0  0  0  0  0
   -1.0220   21.8950  -26.7520 C   0  0  0  0  0  0  0  0  0  0  0  0
   -1.6550   20.7370  -26.4150 N   0  0  0  0  0  0  0  0  0  0  0  0
   -2.6820   20.2430  -27.1480 C   0  0  0  0  0  0  0  0  0  0  0  0
   -3.1030   20.8960  -28.2560 N   0  0  0  0  0  0  0  0  0  0  0  0
   -2.5200   22.0540  -28.6600 C   0  0  0  0  0  0  0  0  0  0  0  0
   -3.0060   22.6920  -29.8570 N   0  0  0  0  0  0  0  0  0  0  0  0
   -4.0320   23.7350  -29.7520 C   0  0  0  0  0  0  0  0  0  0  0  0
   -5.3890   23.2180  -30.2600 C   0  0  0  0  0  0  0  0  0  0  0  0
   -5.2590   22.1260  -31.3590 C   0  0  0  0  0  0  0  0  0  0  0  0
   -6.4550   22.1470  -32.3340 C   0  0  0  0  0  0  0  0  0  0  0  0
   -7.2790   20.8880  -32.2340 C   0  0  0  0  0  0  0  0  0  0  0  0
   -6.6560   19.6360  -32.0940 C   0  0  0  0  0  0  0  0  0  0  0  0
   -7.4250   18.4710  -32.0300 C   0  0  0  0  0  0  0  0  0  0  0  0
   -8.8180   18.5450  -32.1090 C   0  0  0  0  0  0  0  0  0  0  0  0
   -9.4460   19.7850  -32.2540 C   0  0  0  0  0  0  0  0  0  0  0  0
   -8.6800   20.9530  -32.3190 C   0  0  0  0  0  0  0  0  0  0  0  0
   -3.9310   22.2710  -32.1260 C   0  0  0  0  0  0  0  0  0  0  0  0
   -2.7400   22.0860  -31.1710 C   0  0  0  0  0  0  0  0  0  0  0  0
   -1.4630   22.6040  -27.9040 C   0  0  0  0  0  0  0  0  0  0  0  0
   -0.9310   23.8930  -28.2770 C   0  0  0  0  0  0  0  0  0  0  0  0
   -0.5100   24.9270  -28.5850 N   0  0  0  0  0  0  0  0  0  0  0  0
    0.0238   22.4014  -23.8469 H   0  0  0  0  0  0  0  0  0  0  0  0
    0.7710   23.7995  -24.6917 H   0  0  0  0  0  0  0  0  0  0  0  0
   -1.0142   23.5997  -24.6917 H   0  0  0  0  0  0  0  0  0  0  0  0
   -1.3430   20.2100  -25.5680 H   0  0  0  0  0  0  0  0  0  0  0  0
   -3.1749   19.3086  -26.8416 H   0  0  0  0  0  0  0  0  0  0  0  0
   -4.1324   24.0377  -28.6993 H   0  0  0  0  0  0  0  0  0  0  0  0
   -3.7276   24.5931  -30.3693 H   0  0  0  0  0  0  0  0  0  0  0  0
   -5.9414   22.7928  -29.4090 H   0  0  0  0  0  0  0  0  0  0  0  0
   -5.9151   24.0725  -30.7105 H   0  0  0  0  0  0  0  0  0  0  0  0
   -5.2632   21.1508  -30.8500 H   0  0  0  0  0  0  0  0  0  0  0  0
   -7.0935   23.0106  -32.0963 H   0  0  0  0  0  0  0  0  0  0  0  0
   -6.0607   22.2180  -33.3585 H   0  0  0  0  0  0  0  0  0  0  0  0
   -5.5594   19.5729  -32.0346 H   0  0  0  0  0  0  0  0  0  0  0  0
   -6.9327   17.4938  -31.9172 H   0  0  0  0  0  0  0  0  0  0  0  0
   -9.4209   17.6264  -32.0570 H   0  0  0  0  0  0  0  0  0  0  0  0
  -10.5427   19.8422  -32.3170 H   0  0  0  0  0  0  0  0  0  0  0  0
   -9.1766   21.9274  -32.4372 H   0  0  0  0  0  0  0  0  0  0  0  0
   -3.8837   21.5081  -32.9170 H   0  0  0  0  0  0  0  0  0  0  0  0
   -3.8816   23.2767  -32.5688 H   0  0  0  0  0  0  0  0  0  0  0  0
   -2.5520   21.0104  -31.0376 H   0  0  0  0  0  0  0  0  0  0  0  0
   -1.8633   22.5840  -31.6107 H   0  0  0  0  0  0  0  0  0  0  0  0
  1  2  1  0
  2  3  1  0
  3  4  2  0
  4  5  1  0
  5  6  2  0
  6  7  1  0
  7  8  1  0
  8  9  1  0
  9 10  1  0
 10 11  1  0
 11 12  1  0
 12 13  1  0
 13 14  2  0
 14 15  1  0
 15 16  2  0
 16 17  1  0
 17 18  2  0
 11 19  1  0
 19 20  1  0
  7 21  2  0
 21 22  1  0
 22 23  3  0
 21  3  1  0
 20  8  1  0
 18 13  1  0
  1 24  1  0
  1 25  1  0
  1 26  1  0
  4 27  1  0
  5 28  1  0
  9 29  1  0
  9 30  1  0
 10 31  1  0
 10 32  1  0
 11 33  1  0
 12 34  1  0
 12 35  1  0
 14 36  1  0
 15 37  1  0
 16 38  1  0
 17 39  1  0
 18 40  1  0
 19 41  1  0
 19 42  1  0
 20 43  1  0
 20 44  1  0
M  CHG  1   4   1
M  END
>  <UniqueID>  (5) 
4

>  <SMILES>  (5) 
COc1[nH+]cnc(N2CCC(Cc3ccccc3)CC2)c1C#N

>  <Energy>  (5) 
56.1781779369486

>  <Genealogy>  (5) 
COc1[nH+]cnc(N2CCC(Cc3ccccc3)CC2)c1C#N (protonated)
COc1[nH+]cnc(N2CCC(Cc3ccccc3)CC2)c1C#N (3D coordinates assigned)
COc1[nH+]cnc(N2CCC(Cc3ccccc3)CC2)c1C#N (nonaromatic ring conformer: 56.1781779369486 kcal/mol)

>  <smiles>  (5) 
COc1ncnc(N2CCC(Cc3ccccc3)CC2)c1C#N

>  <score_type>  (5) 
oracle

>  <origin>  (5) 
adg

>  <m_score__min__energy>  (5) 
-6.8799999999999999

>  <m_primary>  (5) 
energy

$$$$
5:0
     RDKit          3D

 61 65  0  0  0  0  0  0  0  0999 V2000
   -5.3730   16.2470  -31.6240 C   0  0  0  0  0  0  0  0  0  0  0  0
   -6.1450   17.5490  -31.4170 C   0  0  0  0  0  0  0  0  0  0  0  0
   -7.1120   17.7800  -32.5150 N   0  0  0  0  0  0  0  0  0  0  0  0
   -7.3840   19.2280  -32.7150 C   0  0  0  0  0  0  0  0  0  0  0  0
   -8.8510   19.5160  -32.4270 C   0  0  0  0  0  0  0  0  0  0  0  0
   -6.6440   17.1350  -33.7620 C   0  0  0  0  0  0  0  0  0  0  0  0
   -6.1110   18.1810  -34.7500 C   0  0  0  0  0  0  0  0  0  0  0  0
   -4.7860   17.8000  -35.2360 N   0  0  0  0  0  0  0  0  0  0  0  0
   -3.6280   17.8210  -34.3860 C   0  0  0  0  0  0  0  0  0  0  0  0
   -2.7380   16.7290  -34.3960 C   0  0  0  0  0  0  0  0  0  0  0  0
   -3.0210   15.6310  -35.2250 O   0  0  0  0  0  0  0  0  0  0  0  0
   -2.0760   14.9940  -36.0770 C   0  0  0  0  0  0  0  0  0  0  0  0
   -1.6030   16.7530  -33.5660 C   0  0  0  0  0  0  0  0  0  0  0  0
   -1.3630   17.8380  -32.7250 C   0  0  0  0  0  0  0  0  0  0  0  0
   -2.2470   18.9230  -32.6990 C   0  0  0  0  0  0  0  0  0  0  0  0
   -2.0010   20.0130  -31.8580 C   0  0  0  0  0  0  0  0  0  0  0  0
   -2.8830   21.1070  -31.8460 C   0  0  0  0  0  0  0  0  0  0  0  0
   -4.0100   21.0760  -32.6350 N   0  0  0  0  0  0  0  0  0  0  0  0
   -4.2520   20.0270  -33.4780 C   0  0  0  0  0  0  0  0  0  0  0  0
   -3.3890   18.9190  -33.5250 C   0  0  0  0  0  0  0  0  0  0  0  0
   -4.9360   22.2230  -32.6520 C   0  0  0  0  0  0  0  0  0  0  0  0
   -5.1020   22.8180  -31.2510 C   0  0  0  0  0  0  0  0  0  0  0  0
   -3.7580   23.1280  -30.6590 C   0  0  0  0  0  0  0  0  0  0  0  0
   -3.6050   24.2240  -29.7820 C   0  0  0  0  0  0  0  0  0  0  0  0
   -2.3450   24.4590  -29.2480 C   0  0  0  0  0  0  0  0  0  0  0  0
   -1.2810   23.6740  -29.5420 C   0  0  0  0  0  0  0  0  0  0  0  0
   -1.3850   22.5740  -30.3870 C   0  0  0  0  0  0  0  0  0  0  0  0
   -2.6550   22.2730  -30.9420 C   0  0  0  0  0  0  0  0  0  0  0  0
   -0.1620   24.1490  -28.8840 O   0  0  0  0  0  0  0  0  0  0  0  0
   -0.5520   25.2980  -28.1210 C   0  0  0  0  0  0  0  0  0  0  0  0
   -1.9510   25.4630  -28.3840 O   0  0  0  0  0  0  0  0  0  0  0  0
   -5.1161   15.8136  -30.6462 H   0  0  0  0  0  0  0  0  0  0  0  0
   -5.9961   15.5369  -32.1874 H   0  0  0  0  0  0  0  0  0  0  0  0
   -4.4510   16.4530  -32.1874 H   0  0  0  0  0  0  0  0  0  0  0  0
   -6.6912   17.4944  -30.4637 H   0  0  0  0  0  0  0  0  0  0  0  0
   -5.4262   18.3816  -31.4057 H   0  0  0  0  0  0  0  0  0  0  0  0
   -6.7542   19.8167  -32.0317 H   0  0  0  0  0  0  0  0  0  0  0  0
   -7.1549   19.5027  -33.7552 H   0  0  0  0  0  0  0  0  0  0  0  0
   -9.0118   19.5476  -31.3393 H   0  0  0  0  0  0  0  0  0  0  0  0
   -9.1275   20.4856  -32.8668 H   0  0  0  0  0  0  0  0  0  0  0  0
   -9.4736   18.7229  -32.8668 H   0  0  0  0  0  0  0  0  0  0  0  0
   -5.8398   16.4244  -33.5205 H   0  0  0  0  0  0  0  0  0  0  0  0
   -7.4917   16.6106  -34.2272 H   0  0  0  0  0  0  0  0  0  0  0  0
   -6.8011   18.2573  -35.6032 H   0  0  0  0  0  0  0  0  0  0  0  0
   -6.0352   19.1499  -34.2348 H   0  0  0  0  0  0  0  0  0  0  0  0
   -4.7010   17.3920  -36.1950 H   0  0  0  0  0  0  0  0  0  0  0  0
   -1.3176   14.4828  -35.4659 H   0  0  0  0  0  0  0  0  0  0  0  0
   -2.5920   14.2587  -36.7119 H   0  0  0  0  0  0  0  0  0  0  0  0
   -1.5879   15.7481  -36.7119 H   0  0  0  0  0  0  0  0  0  0  0  0
   -0.8987   15.9082  -33.5807 H   0  0  0  0  0  0  0  0  0  0  0  0
   -0.4736   17.8418  -32.0778 H   0  0  0  0  0  0  0  0  0  0  0  0
   -1.1158   20.0140  -31.2050 H   0  0  0  0  0  0  0  0  0  0  0  0
   -5.1373   20.0508  -34.1305 H   0  0  0  0  0  0  0  0  0  0  0  0
   -4.5381   22.9961  -33.3258 H   0  0  0  0  0  0  0  0  0  0  0  0
   -5.9186   21.8737  -33.0020 H   0  0  0  0  0  0  0  0  0  0  0  0
   -5.6928   23.7436  -31.3166 H   0  0  0  0  0  0  0  0  0  0  0  0
   -5.6182   22.0888  -30.6093 H   0  0  0  0  0  0  0  0  0  0  0  0
   -4.4576   24.8716  -29.5296 H   0  0  0  0  0  0  0  0  0  0  0  0
   -0.5061   21.9544  -30.6185 H   0  0  0  0  0  0  0  0  0  0  0  0
   -0.3782   25.1266  -27.0484 H   0  0  0  0  0  0  0  0  0  0  0  0
    0.0274   26.1917  -28.3960 H   0  0  0  0  0  0  0  0  0  0  0  0
  1  2  1  0
  2  3  1  0
  3  4  1  0
  4  5  1  0
  3  6  1  0
  6  7  1  0
  7  8  1  0
  8  9  1  0
  9 10  2  0
 10 11  1  0
 11 12  1  0
 10 13  1  0
 13 14  2  0
 14 15  1  0
 15 16  2  0
 16 17  1  0
 17 18  2  0
 18 19  1  0
 19 20  2  0
 18 21  1  0
 21 22  1  0
 22 23  1  0
 23 24  2  0
 24 25  1  0
 25 26  2  0
 26 27  1  0
 27 28  2  0
 26 29  1  0
 29 30  1  0
 30 31  1  0
 20  9  1  0
 28 23  1  0
 20 15  1  0
 31 25  1  0
 28 17  1  0
  1 32  1  0
  1 33  1  0
  1 34  1  0
  2 35  1  0
  2 36  1  0
  4 37  1  0
  4 38  1  0
  5 39  1  0
  5 40  1  0
  5 41  1  0
  6 42  1  0
  6 43  1  0
  7 44  1  0
  7 45  1  0
  8 46  1  0
 12 47  1  0
 12 48  1  0
 12 49  1  0
 13 50  1  0
 14 51  1  0
 16 52  1  0
 19 53  1  0
 21 54  1  0
 21 55  1  0
 22 56  1  0
 22 57  1  0
 24 58  1  0
 27 59  1  0
 30 60  1  0
 30 61  1  0
M  CHG  1  18   1
M  END
>  <UniqueID>  (6) 
5

>  <SMILES>  (6) 
CCN(CC)CCNc1c(OC)ccc2cc3[n+](cc12)CCc1cc2c(cc1-3)OCO2

>  <Energy>  (6) 
105.29948800468019

>  <Genealogy>  (6) 
CCN(CC)CCNc1c(OC)ccc2cc3[n+](cc12)CCc1cc2c(cc1-3)OCO2 (3D coordinates assigned)
CCN(CC)CCNc1c(OC)ccc2cc3[n+](cc12)CCc1cc2c(cc1-3)OCO2 (nonaromatic ring conformer: 105.29948800468019 kcal/mol)

>  <smiles>  (6) 
CCN(CC)CCNc1c(OC)ccc2cc3[n+](cc12)CCc1cc2c(cc1-3)OCO2

>  <score_type>  (6) 
oracle

>  <origin>  (6) 
adg

>  <m_score__min__energy>  (6) 
-7.9299999999999997

>  <m_primary>  (6) 
energy

$$$$
6:0
     RDKit          3D

 45 47  0  0  0  0  0  0  0  0999 V2000
    1.0377   20.0290  -33.0122 H   0  0  0  0  0  0  0  0  0  0  0  0
   -0.0100   20.3270  -32.8590 C   0  0  0  0  0  0  0  0  0  0  0  0
   -0.5730   20.2690  -31.5800 C   0  0  0  0  0  0  0  0  0  0  0  0
    0.0334   19.9289  -30.7276 H   0  0  0  0  0  0  0  0  0  0  0  0
   -1.9060   20.6430  -31.3840 C   0  0  0  0  0  0  0  0  0  0  0  0
   -2.3442   20.6035  -30.3758 H   0  0  0  0  0  0  0  0  0  0  0  0
   -2.6870   21.0690  -32.4710 C   0  0  0  0  0  0  0  0  0  0  0  0
   -4.0910   21.4890  -32.2580 C   0  0  0  0  0  0  0  0  0  0  0  0
   -5.1050   20.7620  -32.8970 C   0  0  0  0  0  0  0  0  0  0  0  0
   -4.8424   19.9236  -33.5589 H   0  0  0  0  0  0  0  0  0  0  0  0
   -6.4560   21.0980  -32.6970 C   0  0  0  0  0  0  0  0  0  0  0  0
   -7.4290   20.4450  -33.2740 N   0  0  0  0  0  0  0  0  0  0  0  0
   -8.5980   19.8290  -32.6420 C   0  0  0  0  0  0  0  0  0  0  0  0
   -9.3743   19.6718  -33.4053 H   0  0  0  0  0  0  0  0  0  0  0  0
   -8.9545   20.5038  -31.8498 H   0  0  0  0  0  0  0  0  0  0  0  0
   -8.2500   18.4730  -31.9970 C   0  0  0  0  0  0  0  0  0  0  0  0
   -8.9586   17.7180  -32.3684 H   0  0  0  0  0  0  0  0  0  0  0  0
   -8.3168   18.6050  -30.9070 H   0  0  0  0  0  0  0  0  0  0  0  0
   -6.8820   18.0170  -32.2970 N   0  0  0  0  0  0  0  0  0  0  0  0
   -6.2510   18.8440  -32.4180 H   0  0  0  0  0  0  0  0  0  0  0  0
   -6.8200   17.1780  -33.5000 C   0  0  0  0  0  0  0  0  0  0  0  0
   -7.8105   17.1502  -33.9776 H   0  0  0  0  0  0  0  0  0  0  0  0
   -6.5167   16.1590  -33.2177 H   0  0  0  0  0  0  0  0  0  0  0  0
   -5.8030   17.7540  -34.4770 C   0  0  0  0  0  0  0  0  0  0  0  0
   -4.9795   18.2204  -33.9165 H   0  0  0  0  0  0  0  0  0  0  0  0
   -5.4050   16.9472  -35.1100 H   0  0  0  0  0  0  0  0  0  0  0  0
   -6.2902   18.5103  -35.1100 H   0  0  0  0  0  0  0  0  0  0  0  0
   -6.7700   22.1320  -31.8670 N   0  0  0  0  0  0  0  0  0  0  0  0
   -7.7790   22.3670  -31.7210 H   0  0  0  0  0  0  0  0  0  0  0  0
   -5.8140   22.8750  -31.2390 C   0  0  0  0  0  0  0  0  0  0  0  0
   -6.1890   23.9450  -30.4110 C   0  0  0  0  0  0  0  0  0  0  0  0
   -7.2551   24.1680  -30.2566 H   0  0  0  0  0  0  0  0  0  0  0  0
   -5.2210   24.7270  -29.7830 C   0  0  0  0  0  0  0  0  0  0  0  0
   -5.5272   25.5585  -29.1312 H   0  0  0  0  0  0  0  0  0  0  0  0
   -3.8610   24.4590  -29.9780 C   0  0  0  0  0  0  0  0  0  0  0  0
   -2.8720   25.2740  -29.3430 N   0  0  0  0  0  0  0  0  0  0  0  0
   -2.9270   25.4850  -28.3220 H   0  0  0  0  0  0  0  0  0  0  0  0
   -2.0760   25.6730  -29.8910 H   0  0  0  0  0  0  0  0  0  0  0  0
   -3.4740   23.3920  -30.8000 C   0  0  0  0  0  0  0  0  0  0  0  0
   -2.4050   23.1869  -30.9588 H   0  0  0  0  0  0  0  0  0  0  0  0
   -4.4420   22.5780  -31.4260 C   0  0  0  0  0  0  0  0  0  0  0  0
   -2.1100   21.1390  -33.7500 C   0  0  0  0  0  0  0  0  0  0  0  0
   -2.7088   21.4907  -34.6031 H   0  0  0  0  0  0  0  0  0  0  0  0
   -0.7770   20.7630  -33.9420 C   0  0  0  0  0  0  0  0  0  0  0  0
   -0.3319   20.8106  -34.9468 H   0  0  0  0  0  0  0  0  0  0  0  0
  1  2  1  0
  2  3  2  0
  3  4  1  0
  3  5  1  0
  5  6  1  0
  5  7  2  0
  7  8  1  0
  8  9  2  0
  9 10  1  0
  9 11  1  0
 11 12  2  0
 12 13  1  0
 13 14  1  0
 13 15  1  0
 13 16  1  0
 16 17  1  0
 16 18  1  0
 16 19  1  0
 19 20  1  0
 19 21  1  0
 21 22  1  0
 21 23  1  0
 21 24  1  0
 24 25  1  0
 24 26  1  0
 24 27  1  0
 11 28  1  0
 28 29  1  0
 28 30  1  0
 30 31  2  0
 31 32  1  0
 31 33  1  0
 33 34  1  0
 33 35  2  0
 35 36  1  0
 36 37  1  0
 36 38  1  0
 35 39  1  0
 39 40  1  0
 39 41  2  0
  7 42  1  0
 42 43  1  0
 42 44  2  0
 44 45  1  0
 44  2  1  0
 41  8  1  0
 41 30  1  0
M  END
>  <UniqueID>  (7) 
6

>  <SMILES>  (7) 
CCNCC/N=c1\cc(-c2ccccc2)c2cc(N)ccc2[nH]1

>  <Energy>  (7) 
56.76386899329461

>  <Genealogy>  (7) 
CCNCC/N=c1\cc(-c2ccccc2)c2cc(N)ccc2[nH]1 (cis-trans isomerization)
CCNCC/N=c1\cc(-c2ccccc2)c2cc(N)ccc2[nH]1 (3D coordinates assigned)
CCNCC/N=c1\cc(-c2ccccc2)c2cc(N)ccc2[nH]1 (optimized conformer: 56.76386899329461 kcal/mol)

>  <smiles>  (7) 
CCNCCN=c1cc(-c2ccccc2)c2cc(N)ccc2[nH]1

>  <score_type>  (7) 
oracle

>  <origin>  (7) 
adg

>  <m_score__min__energy>  (7) 
-7.9800000000000004

>  <m_primary>  (7) 
energy

$$$$
7:0
     RDKit          3D

 48 49  0  0  0  0  0  0  0  0999 V2000
   -7.1580   22.9260  -32.3430 C   0  0  0  0  0  0  0  0  0  0  0  0
   -7.5380   21.8230  -31.3560 C   0  0  0  0  0  0  0  0  0  0  0  0
   -8.9840   21.3280  -31.5280 C   0  0  0  0  0  0  0  0  0  0  0  0
   -9.0810   19.8460  -31.9340 C   0  0  0  0  0  0  0  0  0  0  0  0
   -8.2340   19.5430  -33.0870 N   0  0  0  0  0  0  0  0  0  0  0  0
   -7.1760   18.5820  -33.0120 C   0  0  0  0  0  0  0  0  0  0  0  0
   -7.0060   17.9050  -31.9610 O   0  0  0  0  0  0  0  0  0  0  0  0
   -6.2450   18.3990  -34.1670 C   0  0  0  0  0  0  0  0  0  0  0  0
   -4.7680   17.4870  -33.6100 S   0  0  0  0  0  0  0  0  0  0  0  0
   -3.8270   18.9700  -33.2590 C   0  0  0  0  0  0  0  0  0  0  0  0
   -2.8700   19.4650  -34.0660 N   0  0  0  0  0  0  0  0  0  0  0  0
   -2.4360   20.5900  -33.5110 N   0  0  0  0  0  0  0  0  0  0  0  0
   -3.1300   20.7640  -32.3670 C   0  0  0  0  0  0  0  0  0  0  0  0
   -2.9260   21.9070  -31.4560 C   0  0  0  0  0  0  0  0  0  0  0  0
   -1.8870   21.8900  -30.5140 C   0  0  0  0  0  0  0  0  0  0  0  0
   -1.6940   22.9750  -29.6580 C   0  0  0  0  0  0  0  0  0  0  0  0
   -2.5380   24.1000  -29.7310 C   0  0  0  0  0  0  0  0  0  0  0  0
   -2.3840   25.2030  -28.8760 O   0  0  0  0  0  0  0  0  0  0  0  0
   -1.9590   25.1180  -27.5190 C   0  0  0  0  0  0  0  0  0  0  0  0
   -3.5680   24.1350  -30.6860 C   0  0  0  0  0  0  0  0  0  0  0  0
   -4.3880   25.2710  -30.7370 O   0  0  0  0  0  0  0  0  0  0  0  0
   -5.6960   25.3500  -30.1810 C   0  0  0  0  0  0  0  0  0  0  0  0
   -3.7490   23.0390  -31.5520 C   0  0  0  0  0  0  0  0  0  0  0  0
   -4.0120   19.7590  -32.1870 N   0  0  0  0  0  0  0  0  0  0  0  0
   -5.0140   19.6400  -31.2090 N   0  0  0  0  0  0  0  0  0  0  0  0
   -6.8486   23.8240  -31.7881 H   0  0  0  0  0  0  0  0  0  0  0  0
   -6.3267   22.5815  -32.9757 H   0  0  0  0  0  0  0  0  0  0  0  0
   -8.0251   23.1666  -32.9757 H   0  0  0  0  0  0  0  0  0  0  0  0
   -6.8571   20.9718  -31.5038 H   0  0  0  0  0  0  0  0  0  0  0  0
   -7.4557   22.2470  -30.3443 H   0  0  0  0  0  0  0  0  0  0  0  0
   -9.5142   21.4631  -30.5737 H   0  0  0  0  0  0  0  0  0  0  0  0
   -9.4332   21.9167  -32.3415 H   0  0  0  0  0  0  0  0  0  0  0  0
   -8.7635   19.2226  -31.0851 H   0  0  0  0  0  0  0  0  0  0  0  0
  -10.1244   19.6346  -32.2108 H   0  0  0  0  0  0  0  0  0  0  0  0
   -8.3910   20.0370  -33.9950 H   0  0  0  0  0  0  0  0  0  0  0  0
   -6.7511   17.8296  -34.9605 H   0  0  0  0  0  0  0  0  0  0  0  0
   -5.9455   19.3822  -34.5588 H   0  0  0  0  0  0  0  0  0  0  0  0
   -1.2209   21.0170  -30.4497 H   0  0  0  0  0  0  0  0  0  0  0  0
   -0.8773   22.9514  -28.9214 H   0  0  0  0  0  0  0  0  0  0  0  0
   -2.8183   25.2899  -26.8542 H   0  0  0  0  0  0  0  0  0  0  0  0
   -1.5414   24.1185  -27.3275 H   0  0  0  0  0  0  0  0  0  0  0  0
   -1.1891   25.8800  -27.3275 H   0  0  0  0  0  0  0  0  0  0  0  0
   -5.6286   25.3459  -29.0831 H   0  0  0  0  0  0  0  0  0  0  0  0
   -6.1810   26.2791  -30.5151 H   0  0  0  0  0  0  0  0  0  0  0  0
   -6.2892   24.4860  -30.5151 H   0  0  0  0  0  0  0  0  0  0  0  0
   -4.5440   23.0710  -32.3116 H   0  0  0  0  0  0  0  0  0  0  0  0
   -5.2570   20.4390  -30.5850 H   0  0  0  0  0  0  0  0  0  0  0  0
   -5.5780   18.7630  -31.1280 H   0  0  0  0  0  0  0  0  0  0  0  0
  1  2  1  0
  2  3  1  0
  3  4  1  0
  4  5  1  0
  5  6  1  0
  6  7  2  0
  6  8  1  0
  8  9  1  0
  9 10  1  0
 10 11  2  0
 11 12  1  0
 12 13  2  0
 13 14  1  0
 14 15  2  0
 15 16  1  0
 16 17  2  0
 17 18  1  0
 18 19  1  0
 17 20  1  0
 20 21  1  0
 21 22  1  0
 20 23  2  0
 13 24  1  0
 24 25  1  0
 24 10  1  0
 23 14  1  0
  1 26  1  0
  1 27  1  0
  1 28  1  0
  2 29  1  0
  2 30  1  0
  3 31  1  0
  3 32  1  0
  4 33  1  0
  4 34  1  0
  5 35  1  0
  8 36  1  0
  8 37  1  0
 15 38  1  0
 16 39  1  0
 19 40  1  0
 19 41  1  0
 19 42  1  0
 22 43  1  0
 22 44  1  0
 22 45  1  0
 23 46  1  0
 25 47  1  0
 25 48  1  0
M  END
>  <UniqueID>  (8) 
7

>  <SMILES>  (8) 
CCCCNC(=O)CSc1nnc(-c2ccc(OC)c(OC)c2)n1N

>  <Energy>  (8) 
74.89679876647409

>  <Genealogy>  (8) 
CCCCNC(=O)CSc1nnc(-c2ccc(OC)c(OC)c2)n1N (3D coordinates assigned)
CCCCNC(=O)CSc1nnc(-c2ccc(OC)c(OC)c2)n1N (optimized conformer: 74.89679876647409 kcal/mol)

>  <smiles>  (8) 
CCCCNC(=O)CSc1nnc(-c2ccc(OC)c(OC)c2)n1N

>  <score_type>  (8) 
oracle

>  <origin>  (8) 
adg

>  <m_score__min__energy>  (8) 
-8.1199999999999992

>  <m_primary>  (8) 
energy

$$$$
8:0
     RDKit          3D

 65 68  0  0  0  0  0  0  0  0999 V2000
   -1.1840   21.6320  -31.5570 C   0  0  0  0  0  0  0  0  0  0  0  0
   -2.5190   21.8390  -30.9650 N   0  0  0  0  0  0  0  0  0  0  0  0
   -3.4560   22.2700  -32.0140 C   0  0  0  0  0  0  0  0  0  0  0  0
   -3.0080   20.6050  -30.3110 C   0  0  0  0  0  0  0  0  0  0  0  0
   -2.7410   20.6360  -28.7950 C   0  0  0  0  0  0  0  0  0  0  0  0
   -2.7830   22.0160  -28.2610 N   0  0  0  0  0  0  0  0  0  0  0  0
   -1.9190   22.1860  -27.0780 C   0  0  0  0  0  0  0  0  0  0  0  0
   -4.1690   22.4740  -28.0020 C   0  0  0  0  0  0  0  0  0  0  0  0
   -4.7330   23.3550  -29.1000 C   0  0  0  0  0  0  0  0  0  0  0  0
   -4.0650   24.5300  -29.4830 C   0  0  0  0  0  0  0  0  0  0  0  0
   -4.5800   25.3360  -30.5000 C   0  0  0  0  0  0  0  0  0  0  0  0
   -5.7650   24.9780  -31.1470 C   0  0  0  0  0  0  0  0  0  0  0  0
   -6.4410   23.8030  -30.7830 C   0  0  0  0  0  0  0  0  0  0  0  0
   -7.7380   23.4360  -31.4540 C   0  0  0  0  0  0  0  0  0  0  0  0
   -7.5140   22.4380  -32.5030 N   0  0  0  0  0  0  0  0  0  0  0  0
   -7.6580   21.0230  -32.2880 C   0  0  0  0  0  0  0  0  0  0  0  0
   -8.6790   20.5560  -31.4450 C   0  0  0  0  0  0  0  0  0  0  0  0
   -8.8470   19.1860  -31.2240 C   0  0  0  0  0  0  0  0  0  0  0  0
   -8.0020   18.2660  -31.8460 C   0  0  0  0  0  0  0  0  0  0  0  0
   -6.9810   18.7100  -32.6990 C   0  0  0  0  0  0  0  0  0  0  0  0
   -6.0720   17.7340  -33.3430 C   0  0  0  0  0  0  0  0  0  0  0  0
   -6.5800   16.4610  -33.6540 C   0  0  0  0  0  0  0  0  0  0  0  0
   -5.7570   15.4820  -34.2120 C   0  0  0  0  0  0  0  0  0  0  0  0
   -4.4160   15.7530  -34.4700 C   0  0  0  0  0  0  0  0  0  0  0  0
   -3.8840   17.0190  -34.1890 C   0  0  0  0  0  0  0  0  0  0  0  0
   -2.5340   17.2900  -34.4690 C   0  0  0  0  0  0  0  0  0  0  0  0
   -2.0030   18.5550  -34.2140 C   0  0  0  0  0  0  0  0  0  0  0  0
   -2.8130   19.5620  -33.6890 C   0  0  0  0  0  0  0  0  0  0  0  0
   -4.1570   19.3090  -33.4040 C   0  0  0  0  0  0  0  0  0  0  0  0
   -4.7120   18.0300  -33.6310 C   0  0  0  0  0  0  0  0  0  0  0  0
   -6.8010   20.0890  -32.9030 C   0  0  0  0  0  0  0  0  0  0  0  0
   -5.9310   23.0060  -29.7460 C   0  0  0  0  0  0  0  0  0  0  0  0
   -0.4408   21.5168  -30.7543 H   0  0  0  0  0  0  0  0  0  0  0  0
   -1.1954   20.7249  -32.1791 H   0  0  0  0  0  0  0  0  0  0  0  0
   -0.9202   22.5000  -32.1791 H   0  0  0  0  0  0  0  0  0  0  0  0
   -4.3614   22.6865  -31.5484 H   0  0  0  0  0  0  0  0  0  0  0  0
   -2.9783   23.0389  -32.6390 H   0  0  0  0  0  0  0  0  0  0  0  0
   -3.7289   21.4069  -32.6390 H   0  0  0  0  0  0  0  0  0  0  0  0
   -4.0905   20.5124  -30.4830 H   0  0  0  0  0  0  0  0  0  0  0  0
   -2.4724   19.7463  -30.7419 H   0  0  0  0  0  0  0  0  0  0  0  0
   -3.5069   20.0329  -28.2855 H   0  0  0  0  0  0  0  0  0  0  0  0
   -1.7352   20.2286  -28.6150 H   0  0  0  0  0  0  0  0  0  0  0  0
   -2.5205   22.0677  -26.1646 H   0  0  0  0  0  0  0  0  0  0  0  0
   -1.1227   21.4273  -27.0935 H   0  0  0  0  0  0  0  0  0  0  0  0
   -1.4694   23.1898  -27.0935 H   0  0  0  0  0  0  0  0  0  0  0  0
   -4.8143   21.5890  -27.9004 H   0  0  0  0  0  0  0  0  0  0  0  0
   -4.1421   23.0800  -27.0844 H   0  0  0  0  0  0  0  0  0  0  0  0
   -3.1305   24.8167  -28.9785 H   0  0  0  0  0  0  0  0  0  0  0  0
   -4.0513   26.2552  -30.7925 H   0  0  0  0  0  0  0  0  0  0  0  0
   -6.1697   25.6189  -31.9442 H   0  0  0  0  0  0  0  0  0  0  0  0
   -8.4283   23.0227  -30.7039 H   0  0  0  0  0  0  0  0  0  0  0  0
   -8.1677   24.3395  -31.9113 H   0  0  0  0  0  0  0  0  0  0  0  0
   -7.2080   22.7650  -33.4490 H   0  0  0  0  0  0  0  0  0  0  0  0
   -9.3524   21.2742  -30.9543 H   0  0  0  0  0  0  0  0  0  0  0  0
   -9.6476   18.8321  -30.5579 H   0  0  0  0  0  0  0  0  0  0  0  0
   -8.1371   17.1891  -31.6667 H   0  0  0  0  0  0  0  0  0  0  0  0
   -7.6378   16.2340  -33.4554 H   0  0  0  0  0  0  0  0  0  0  0  0
   -6.1701   14.4905  -34.4494 H   0  0  0  0  0  0  0  0  0  0  0  0
   -3.7712   14.9703  -34.8962 H   0  0  0  0  0  0  0  0  0  0  0  0
   -1.8931   16.5018  -34.8909 H   0  0  0  0  0  0  0  0  0  0  0  0
   -0.9433   18.7585  -34.4275 H   0  0  0  0  0  0  0  0  0  0  0  0
   -2.3915   20.5600  -33.4985 H   0  0  0  0  0  0  0  0  0  0  0  0
   -4.7889   20.1132  -32.9991 H   0  0  0  0  0  0  0  0  0  0  0  0
   -5.9835   20.4422  -33.5487 H   0  0  0  0  0  0  0  0  0  0  0  0
   -6.4738   22.1007  -29.4366 H   0  0  0  0  0  0  0  0  0  0  0  0
  1  2  1  0
  2  3  1  0
  2  4  1  0
  4  5  1  0
  5  6  1  0
  6  7  1  0
  6  8  1  0
  8  9  1  0
  9 10  2  0
 10 11  1  0
 11 12  2  0
 12 13  1  0
 13 14  1  0
 14 15  1  0
 15 16  1  0
 16 17  2  0
 17 18  1  0
 18 19  2  0
 19 20  1  0
 20 21  1  0
 21 22  2  0
 22 23  1  0
 23 24  2  0
 24 25  1  0
 25 26  2  0
 26 27  1  0
 27 28  2  0
 28 29  1  0
 29 30  2  0
 20 31  2  0
 13 32  2  0
 32  9  1  0
 31 16  1  0
 30 21  1  0
 30 25  1  0
  1 33  1  0
  1 34  1  0
  1 35  1  0
  3 36  1  0
  3 37  1  0
  3 38  1  0
  4 39  1  0
  4 40  1  0
  5 41  1  0
  5 42  1  0
  7 43  1  0
  7 44  1  0
  7 45  1  0
  8 46  1  0
  8 47  1  0
 10 48  1  0
 11 49  1  0
 12 50  1  0
 14 51  1  0
 14 52  1  0
 15 53  1  0
 17 54  1  0
 18 55  1  0
 19 56  1  0
 22 57  1  0
 23 58  1  0
 24 59  1  0
 26 60  1  0
 27 61  1  0
 28 62  1  0
 29 63  1  0
 31 64  1  0
 32 65  1  0
M  END
>  <UniqueID>  (9) 
8

>  <SMILES>  (9) 
CN(C)CCN(C)Cc1cccc(CNc2cccc(-c3cccc4ccccc34)c2)c1

>  <Energy>  (9) 
83.17916211711169

>  <Genealogy>  (9) 
CN(C)CCN(C)Cc1cccc(CNc2cccc(-c3cccc4ccccc34)c2)c1 (3D coordinates assigned)
CN(C)CCN(C)Cc1cccc(CNc2cccc(-c3cccc4ccccc34)c2)c1 (optimized conformer: 83.17916211711169 kcal/mol)

>  <smiles>  (9) 
CN(C)CCN(C)Cc1cccc(CNc2cccc(-c3cccc4ccccc34)c2)c1

>  <score_type>  (9) 
oracle

>  <origin>  (9) 
adg

>  <m_score__min__energy>  (9) 
-10.07

>  <m_primary>  (9) 
energy

$$$$
9:0
     RDKit          3D

 31 33  0  0  0  0  0  0  0  0999 V2000
   -2.2630   24.5040  -29.0330 C   0  0  0  0  0  0  0  0  0  0  0  0
   -3.1150   24.9260  -30.0930 O   0  0  0  0  0  0  0  0  0  0  0  0
   -4.3800   24.3790  -30.3610 C   0  0  0  0  0  0  0  0  0  0  0  0
   -5.5630   24.9660  -29.8920 C   0  0  0  0  0  0  0  0  0  0  0  0
   -6.7940   24.3870  -30.1840 C   0  0  0  0  0  0  0  0  0  0  0  0
   -6.8700   23.2130  -30.9480 C   0  0  0  0  0  0  0  0  0  0  0  0
   -8.1220   22.6600  -31.2210 C   0  0  0  0  0  0  0  0  0  0  0  0
   -8.2500   21.4920  -31.9770 C   0  0  0  0  0  0  0  0  0  0  0  0
   -9.6380   20.9520  -32.2320 C   0  0  0  0  0  0  0  0  0  0  0  0
   -7.0900   20.8520  -32.4790 C   0  0  0  0  0  0  0  0  0  0  0  0
   -7.1950   19.6700  -33.2470 C   0  0  0  0  0  0  0  0  0  0  0  0
   -6.0600   19.0360  -33.7430 C   0  0  0  0  0  0  0  0  0  0  0  0
   -4.8000   19.5630  -33.4880 C   0  0  0  0  0  0  0  0  0  0  0  0
   -4.6640   20.7270  -32.7340 C   0  0  0  0  0  0  0  0  0  0  0  0
   -5.7970   21.4010  -32.2120 C   0  0  0  0  0  0  0  0  0  0  0  0
   -5.6880   22.5970  -31.4360 C   0  0  0  0  0  0  0  0  0  0  0  0
   -4.4460   23.2080  -31.1240 C   0  0  0  0  0  0  0  0  0  0  0  0
   -2.7354   24.7380  -28.0676 H   0  0  0  0  0  0  0  0  0  0  0  0
   -2.0963   23.4192  -29.1063 H   0  0  0  0  0  0  0  0  0  0  0  0
   -1.2991   25.0288  -29.1063 H   0  0  0  0  0  0  0  0  0  0  0  0
   -5.5182   25.8866  -29.2916 H   0  0  0  0  0  0  0  0  0  0  0  0
   -7.7174   24.8548  -29.8118 H   0  0  0  0  0  0  0  0  0  0  0  0
   -9.0256   23.1533  -30.8334 H   0  0  0  0  0  0  0  0  0  0  0  0
  -10.1379   20.7575  -31.2717 H   0  0  0  0  0  0  0  0  0  0  0  0
  -10.2189   21.6897  -32.8050 H   0  0  0  0  0  0  0  0  0  0  0  0
   -9.5676   20.0157  -32.8050 H   0  0  0  0  0  0  0  0  0  0  0  0
   -8.1881   19.2453  -33.4555 H   0  0  0  0  0  0  0  0  0  0  0  0
   -6.1605   18.1162  -34.3379 H   0  0  0  0  0  0  0  0  0  0  0  0
   -3.9056   19.0591  -33.8831 H   0  0  0  0  0  0  0  0  0  0  0  0
   -3.6591   21.1304  -32.5402 H   0  0  0  0  0  0  0  0  0  0  0  0
   -3.5147   22.7511  -31.4899 H   0  0  0  0  0  0  0  0  0  0  0  0
  1  2  1  0
  2  3  1  0
  3  4  2  0
  4  5  1  0
  5  6  2  0
  6  7  1  0
  7  8  2  0
  8  9  1  0
  8 10  1  0
 10 11  2  0
 11 12  1  0
 12 13  2  0
 13 14  1  0
 14 15  2  0
 15 16  1  0
 16 17  2  0
 17  3  1  0
 16  6  1  0
 15 10  1  0
  1 18  1  0
  1 19  1  0
  1 20  1  0
  4 21  1  0
  5 22  1  0
  7 23  1  0
  9 24  1  0
  9 25  1  0
  9 26  1  0
 11 27  1  0
 12 28  1  0
 13 29  1  0
 14 30  1  0
 17 31  1  0
M  END
>  <UniqueID>  (10) 
9

>  <SMILES>  (10) 
COc1ccc2cc(C)c3ccccc3c2c1

>  <Energy>  (10) 
46.581976050877024

>  <Genealogy>  (10) 
COc1ccc2cc(C)c3ccccc3c2c1 (3D coordinates assigned)
COc1ccc2cc(C)c3ccccc3c2c1 (optimized conformer: 46.581976050877024 kcal/mol)

>  <smiles>  (10) 
COc1ccc2cc(C)c3ccccc3c2c1

>  <score_type>  (10) 
oracle

>  <origin>  (10) 
adg

>  <m_score__min__energy>  (10) 
-8.3800000000000008

>  <m_primary>  (10) 
energy

$$$$
10:0
     RDKit          3D

 48 50  0  0  0  0  0  0  0  0999 V2000
   -9.8370   20.8980  -32.0190 C   0  0  0  0  0  0  0  0  0  0  0  0
   -9.2520   19.6780  -32.7340 C   0  0  0  0  0  0  0  0  0  0  0  0
   -7.8190   19.7920  -33.1170 N   0  0  0  0  0  0  0  0  0  0  0  0
   -7.0310   18.5440  -32.9090 C   0  0  0  0  0  0  0  0  0  0  0  0
   -6.1890   18.5110  -31.6190 C   0  0  0  0  0  0  0  0  0  0  0  0
   -5.4780   19.7730  -31.3840 N   0  0  0  0  0  0  0  0  0  0  0  0
   -4.1060   20.0020  -31.9240 C   0  0  1  0  0  0  0  0  0  0  0  0
   -3.8760   19.0930  -33.1080 C   0  0  0  0  0  0  0  0  0  0  0  0
   -2.7620   19.7670  -33.8800 C   0  0  0  0  0  0  0  0  0  0  0  0
   -2.8110   21.2000  -33.5890 N   0  0  0  0  0  0  0  0  0  0  0  0
   -3.7560   21.4050  -32.4810 C   0  0  2  0  0  0  0  0  0  0  0  0
   -3.1000   22.3070  -31.4160 C   0  0  0  0  0  0  0  0  0  0  0  0
   -4.0960   23.2730  -30.8230 C   0  0  0  0  0  0  0  0  0  0  0  0
   -5.1720   23.7450  -31.5930 C   0  0  0  0  0  0  0  0  0  0  0  0
   -6.1110   24.6170  -31.0330 C   0  0  0  0  0  0  0  0  0  0  0  0
   -5.9860   25.0180  -29.7010 C   0  0  0  0  0  0  0  0  0  0  0  0
   -4.9240   24.5470  -28.9250 C   0  0  0  0  0  0  0  0  0  0  0  0
   -3.9830   23.6750  -29.4810 C   0  0  0  0  0  0  0  0  0  0  0  0
   -6.3790   20.9280  -31.3650 C   0  0  0  0  0  0  0  0  0  0  0  0
   -7.1650   21.0520  -32.6750 C   0  0  0  0  0  0  0  0  0  0  0  0
   -9.7677   20.7534  -30.9308 H   0  0  0  0  0  0  0  0  0  0  0  0
   -9.2721   21.7971  -32.3062 H   0  0  0  0  0  0  0  0  0  0  0  0
  -10.8918   21.0204  -32.3062 H   0  0  0  0  0  0  0  0  0  0  0  0
   -9.3573   18.8101  -32.0665 H   0  0  0  0  0  0  0  0  0  0  0  0
   -9.8117   19.5802  -33.6759 H   0  0  0  0  0  0  0  0  0  0  0  0
   -7.8730   19.8860  -34.1610 H   0  0  0  0  0  0  0  0  0  0  0  0
   -7.7336   17.6981  -32.8793 H   0  0  0  0  0  0  0  0  0  0  0  0
   -6.3162   18.4900  -33.7433 H   0  0  0  0  0  0  0  0  0  0  0  0
   -6.8562   18.3171  -30.7662 H   0  0  0  0  0  0  0  0  0  0  0  0
   -5.4360   17.7168  -31.7296 H   0  0  0  0  0  0  0  0  0  0  0  0
   -3.4873   19.8305  -31.0308 H   0  0  0  0  0  0  0  0  0  0  0  0
   -3.5699   18.0898  -32.7765 H   0  0  0  0  0  0  0  0  0  0  0  0
   -4.7832   18.9508  -33.7136 H   0  0  0  0  0  0  0  0  0  0  0  0
   -1.7904   19.3561  -33.5682 H   0  0  0  0  0  0  0  0  0  0  0  0
   -2.8857   19.5924  -34.9590 H   0  0  0  0  0  0  0  0  0  0  0  0
   -3.1670   21.7030  -34.4380 H   0  0  0  0  0  0  0  0  0  0  0  0
   -4.6783   21.9087  -32.8059 H   0  0  0  0  0  0  0  0  0  0  0  0
   -2.6930   21.6748  -30.6131 H   0  0  0  0  0  0  0  0  0  0  0  0
   -2.3003   22.8876  -31.8992 H   0  0  0  0  0  0  0  0  0  0  0  0
   -5.2764   23.4273  -32.6409 H   0  0  0  0  0  0  0  0  0  0  0  0
   -6.9487   24.9874  -31.6421 H   0  0  0  0  0  0  0  0  0  0  0  0
   -6.7244   25.7053  -29.2625 H   0  0  0  0  0  0  0  0  0  0  0  0
   -4.8280   24.8625  -27.8756 H   0  0  0  0  0  0  0  0  0  0  0  0
   -3.1510   23.3021  -28.8656 H   0  0  0  0  0  0  0  0  0  0  0  0
   -7.0887   20.8135  -30.5324 H   0  0  0  0  0  0  0  0  0  0  0  0
   -5.7713   21.8365  -31.2411 H   0  0  0  0  0  0  0  0  0  0  0  0
   -7.9450   21.8154  -32.5380 H   0  0  0  0  0  0  0  0  0  0  0  0
   -6.4373   21.3200  -33.4551 H   0  0  0  0  0  0  0  0  0  0  0  0
  1  2  1  0
  2  3  1  0
  3  4  1  0
  4  5  1  0
  5  6  1  0
  6  7  1  0
  7  8  1  0
  8  9  1  0
  9 10  1  0
 10 11  1  0
 11 12  1  0
 12 13  1  0
 13 14  2  0
 14 15  1  0
 15 16  2  0
 16 17  1  0
 17 18  2  0
  6 19  1  0
 19 20  1  0
 20  3  1  0
 11  7  1  0
 18 13  1  0
  1 21  1  0
  1 22  1  0
  1 23  1  0
  2 24  1  0
  2 25  1  0
  3 26  1  0
  4 27  1  0
  4 28  1  0
  5 29  1  0
  5 30  1  0
  7 31  1  1
  8 32  1  0
  8 33  1  0
  9 34  1  0
  9 35  1  0
 10 36  1  0
 11 37  1  6
 12 38  1  0
 12 39  1  0
 14 40  1  0
 15 41  1  0
 16 42  1  0
 17 43  1  0
 18 44  1  0
 19 45  1  0
 19 46  1  0
 20 47  1  0
 20 48  1  0
M  CHG  1   3   1
M  END
>  <UniqueID>  (11) 
10

>  <SMILES>  (11) 
CC[NH+]1CCN([C@H]2CCN[C@@H]2Cc2ccccc2)CC1

>  <Energy>  (11) 
73.04222790543027

>  <Genealogy>  (11) 
CC[NH+]1CCN(C2CCNC2Cc2ccccc2)CC1 (protonated)
CC[NH+]1CCN([C@H]2CCN[C@@H]2Cc2ccccc2)CC1 (chirality)
CC[NH+]1CCN([C@H]2CCN[C@@H]2Cc2ccccc2)CC1 (3D coordinates assigned)
CC[NH+]1CCN([C@H]2CCN[C@@H]2Cc2ccccc2)CC1 (nonaromatic ring conformer: 73.04222790543027 kcal/mol)

>  <smiles>  (11) 
CCN1CCN(C2CCNC2Cc2ccccc2)CC1

>  <score_type>  (11) 
oracle

>  <origin>  (11) 
adg

>  <m_score__min__energy>  (11) 
-7

>  <m_primary>  (11) 
energy

$$$$
11:0
     RDKit          3D

 39 42  0  0  0  0  0  0  0  0999 V2000
   -0.7130   19.1080  -34.4940 C   0  0  0  0  0  0  0  0  0  0  0  0
   -1.9530   19.7020  -33.9110 C   0  0  0  0  0  0  0  0  0  0  0  0
   -1.9340   20.9580  -33.3480 C   0  0  0  0  0  0  0  0  0  0  0  0
   -3.0840   21.4910  -32.8140 C   0  0  0  0  0  0  0  0  0  0  0  0
   -3.3550   22.6570  -32.2380 N   0  0  0  0  0  0  0  0  0  0  0  0
   -4.6220   22.7300  -31.8930 N   0  0  0  0  0  0  0  0  0  0  0  0
   -5.2810   21.5850  -32.2280 C   0  0  0  0  0  0  0  0  0  0  0  0
   -6.6990   21.3230  -32.0530 C   0  0  0  0  0  0  0  0  0  0  0  0
   -7.4630   20.4860  -32.8230 C   0  0  0  0  0  0  0  0  0  0  0  0
   -8.7850   20.3050  -32.6910 N   0  0  0  0  0  0  0  0  0  0  0  0
   -9.4720   20.9570  -31.7580 C   0  0  0  0  0  0  0  0  0  0  0  0
   -8.7770   21.8260  -30.9300 C   0  0  0  0  0  0  0  0  0  0  0  0
   -7.4120   22.0230  -31.0570 C   0  0  0  0  0  0  0  0  0  0  0  0
   -6.7440   22.8730  -30.2420 O   0  0  0  0  0  0  0  0  0  0  0  0
   -7.0730   24.1050  -29.7590 C   0  0  0  0  0  0  0  0  0  0  0  0
   -5.9080   25.0170  -29.5440 C   0  0  0  0  0  0  0  0  0  0  0  0
   -4.5590   24.3160  -29.5090 C   0  0  0  0  0  0  0  0  0  0  0  0
   -4.0530   25.2950  -30.4550 N   0  0  0  0  0  0  0  0  0  0  0  0
   -5.3980   25.6490  -30.8450 C   0  0  0  0  0  0  0  0  0  0  0  0
   -4.3030   20.8010  -32.8140 C   0  0  0  0  0  0  0  0  0  0  0  0
   -4.2640   19.5530  -33.3900 C   0  0  0  0  0  0  0  0  0  0  0  0
   -3.1320   19.0530  -33.9040 N   0  0  0  0  0  0  0  0  0  0  0  0
   -0.0434   18.7873  -33.6823 H   0  0  0  0  0  0  0  0  0  0  0  0
   -0.9791   18.2396  -35.1145 H   0  0  0  0  0  0  0  0  0  0  0  0
   -0.2031   19.8596  -35.1145 H   0  0  0  0  0  0  0  0  0  0  0  0
   -0.9983   21.5359  -33.3252 H   0  0  0  0  0  0  0  0  0  0  0  0
   -4.9960   23.5890  -31.4160 H   0  0  0  0  0  0  0  0  0  0  0  0
   -6.9508   19.9169  -33.6128 H   0  0  0  0  0  0  0  0  0  0  0  0
  -10.5567   20.8119  -31.6463 H   0  0  0  0  0  0  0  0  0  0  0  0
   -9.3257   22.3744  -30.1501 H   0  0  0  0  0  0  0  0  0  0  0  0
   -7.7567   24.5838  -30.4755 H   0  0  0  0  0  0  0  0  0  0  0  0
   -7.5301   23.9426  -28.7717 H   0  0  0  0  0  0  0  0  0  0  0  0
   -6.2950   25.5960  -28.6925 H   0  0  0  0  0  0  0  0  0  0  0  0
   -4.0633   24.3367  -28.5272 H   0  0  0  0  0  0  0  0  0  0  0  0
   -4.4767   23.2382  -29.7128 H   0  0  0  0  0  0  0  0  0  0  0  0
   -3.4890   24.8350  -31.2250 H   0  0  0  0  0  0  0  0  0  0  0  0
   -5.5773   26.7314  -30.9242 H   0  0  0  0  0  0  0  0  0  0  0  0
   -5.8042   25.3442  -31.8207 H   0  0  0  0  0  0  0  0  0  0  0  0
   -5.1837   18.9509  -33.4298 H   0  0  0  0  0  0  0  0  0  0  0  0
  1  2  1  0
  2  3  2  0
  3  4  1  0
  4  5  2  0
  5  6  1  0
  6  7  1  0
  7  8  1  0
  8  9  2  0
  9 10  1  0
 10 11  2  0
 11 12  1  0
 12 13  2  0
 13 14  1  0
 14 15  1  0
 15 16  1  0
 16 17  1  0
 17 18  1  0
 18 19  1  0
  7 20  2  0
 20 21  1  0
 21 22  2  0
 22  2  1  0
 20  4  1  0
 13  8  1  0
 19 16  1  0
  1 23  1  0
  1 24  1  0
  1 25  1  0
  3 26  1  0
  6 27  1  0
  9 28  1  0
 11 29  1  0
 12 30  1  0
 15 31  1  0
 15 32  1  0
 16 33  1  0
 17 34  1  0
 17 35  1  0
 18 36  1  0
 19 37  1  0
 19 38  1  0
 21 39  1  0
M  END
>  <smiles>  (12) 
Cc1cc2n[nH]c(-c3cnccc3OCC3CNC3)c2cn1

>  <score_type>  (12) 
oracle

>  <origin>  (12) 
adg

>  <m_score__min__energy>  (12) 
-7.9000000000000004

>  <m_primary>  (12) 
energy

$$$$
12:0
     RDKit          3D

 60 63  0  0  0  0  0  0  0  0999 V2000
   -4.6090   14.2700  -31.7100 C   0  0  0  0  0  0  0  0  0  0  0  0
   -5.0430   15.5750  -32.3720 C   0  0  0  0  0  0  0  0  0  0  0  0
   -5.3110   15.3690  -33.8690 C   0  0  0  0  0  0  0  0  0  0  0  0
   -5.8950   16.6200  -34.5490 C   0  0  0  0  0  0  0  0  0  0  0  0
   -5.2200   17.8610  -34.0930 N   0  0  0  0  0  0  0  0  0  0  0  0
   -5.8850   18.8670  -33.4110 C   0  0  0  0  0  0  0  0  0  0  0  0
   -7.3700   18.8310  -33.0960 C   0  0  0  0  0  0  0  0  0  0  0  0
   -7.8130   20.1450  -32.5940 N   0  0  0  0  0  0  0  0  0  0  0  0
   -7.3320   20.3670  -31.2140 C   0  0  0  0  0  0  0  0  0  0  0  0
   -8.0480   21.5540  -30.5320 C   0  0  0  0  0  0  0  0  0  0  0  0
   -8.6890   22.4600  -31.5050 N   0  0  0  0  0  0  0  0  0  0  0  0
   -7.6980   23.2150  -32.3060 C   0  0  0  0  0  0  0  0  0  0  0  0
   -6.5960   23.7280  -31.4180 C   0  0  0  0  0  0  0  0  0  0  0  0
   -6.8660   24.7250  -30.4670 C   0  0  0  0  0  0  0  0  0  0  0  0
   -5.8430   25.2160  -29.6490 C   0  0  0  0  0  0  0  0  0  0  0  0
   -4.5450   24.7140  -29.7750 C   0  0  0  0  0  0  0  0  0  0  0  0
   -4.2680   23.7190  -30.7180 C   0  0  0  0  0  0  0  0  0  0  0  0
   -5.2870   23.2270  -31.5390 C   0  0  0  0  0  0  0  0  0  0  0  0
   -9.6810   21.7450  -32.3440 C   0  0  0  0  0  0  0  0  0  0  0  0
   -9.2760   20.2900  -32.6600 C   0  0  0  0  0  0  0  0  0  0  0  0
   -5.2110   19.9900  -33.0280 N   0  0  0  0  0  0  0  0  0  0  0  0
   -3.8890   20.1530  -33.2780 C   0  0  0  0  0  0  0  0  0  0  0  0
   -3.2250   21.3220  -32.8690 C   0  0  0  0  0  0  0  0  0  0  0  0
   -1.8630   21.4860  -33.1300 C   0  0  0  0  0  0  0  0  0  0  0  0
   -1.1540   20.4870  -33.8000 C   0  0  0  0  0  0  0  0  0  0  0  0
   -1.8050   19.3210  -34.2120 C   0  0  0  0  0  0  0  0  0  0  0  0
   -3.1790   19.1470  -33.9540 C   0  0  0  0  0  0  0  0  0  0  0  0
   -3.8750   17.9960  -34.3550 C   0  0  0  0  0  0  0  0  0  0  0  0
   -3.2500   17.0830  -34.9670 O   0  0  0  0  0  0  0  0  0  0  0  0
   -4.6467   14.3833  -30.6165 H   0  0  0  0  0  0  0  0  0  0  0  0
   -5.2860   13.4597  -32.0182 H   0  0  0  0  0  0  0  0  0  0  0  0
   -3.5815   14.0265  -32.0182 H   0  0  0  0  0  0  0  0  0  0  0  0
   -5.9627   15.9355  -31.8881 H   0  0  0  0  0  0  0  0  0  0  0  0
   -4.2341   16.3117  -32.2587 H   0  0  0  0  0  0  0  0  0  0  0  0
   -4.3629   15.1108  -34.3633 H   0  0  0  0  0  0  0  0  0  0  0  0
   -6.0540   14.5635  -33.9642 H   0  0  0  0  0  0  0  0  0  0  0  0
   -5.7686   16.5253  -35.6376 H   0  0  0  0  0  0  0  0  0  0  0  0
   -6.9591   16.6906  -34.2792 H   0  0  0  0  0  0  0  0  0  0  0  0
   -7.9299   18.5829  -34.0097 H   0  0  0  0  0  0  0  0  0  0  0  0
   -7.5563   18.0692  -32.3247 H   0  0  0  0  0  0  0  0  0  0  0  0
   -7.5145   19.4566  -30.6242 H   0  0  0  0  0  0  0  0  0  0  0  0
   -6.2587   20.6025  -31.2636 H   0  0  0  0  0  0  0  0  0  0  0  0
   -8.8202   21.1590  -29.8555 H   0  0  0  0  0  0  0  0  0  0  0  0
   -7.2896   22.1329  -29.9846 H   0  0  0  0  0  0  0  0  0  0  0  0
   -7.2689   22.5524  -33.0720 H   0  0  0  0  0  0  0  0  0  0  0  0
   -8.1991   24.0683  -32.7864 H   0  0  0  0  0  0  0  0  0  0  0  0
   -7.8868   25.1219  -30.3647 H   0  0  0  0  0  0  0  0  0  0  0  0
   -6.0604   25.9977  -28.9062 H   0  0  0  0  0  0  0  0  0  0  0  0
   -3.7408   25.1016  -29.1323 H   0  0  0  0  0  0  0  0  0  0  0  0
   -3.2463   23.3228  -30.8139 H   0  0  0  0  0  0  0  0  0  0  0  0
   -5.0647   22.4463  -32.2814 H   0  0  0  0  0  0  0  0  0  0  0  0
  -10.6437   21.7319  -31.8120 H   0  0  0  0  0  0  0  0  0  0  0  0
   -9.7448   22.2813  -33.3023 H   0  0  0  0  0  0  0  0  0  0  0  0
   -9.7416   19.6155  -31.9263 H   0  0  0  0  0  0  0  0  0  0  0  0
   -9.6171   20.0342  -33.6740 H   0  0  0  0  0  0  0  0  0  0  0  0
   -5.7310   20.7490  -32.5290 H   0  0  0  0  0  0  0  0  0  0  0  0
   -3.7804   22.1112  -32.3411 H   0  0  0  0  0  0  0  0  0  0  0  0
   -1.3482   22.4030  -32.8075 H   0  0  0  0  0  0  0  0  0  0  0  0
   -0.0810   20.6180  -34.0039 H   0  0  0  0  0  0  0  0  0  0  0  0
   -1.2427   18.5365  -34.7395 H   0  0  0  0  0  0  0  0  0  0  0  0
  1  2  1  0
  2  3  1  0
  3  4  1  0
  4  5  1  0
  5  6  1  0
  6  7  1  0
  7  8  1  0
  8  9  1  0
  9 10  1  0
 10 11  1  0
 11 12  1  0
 12 13  1  0
 13 14  2  0
 14 15  1  0
 15 16  2  0
 16 17  1  0
 17 18  2  0
 11 19  1  0
 19 20  1  0
  6 21  2  0
 21 22  1  0
 22 23  2  0
 23 24  1  0
 24 25  2  0
 25 26  1  0
 26 27  2  0
 27 28  1  0
 28 29  2  0
 28  5  1  0
 20  8  1  0
 27 22  1  0
 18 13  1  0
  1 30  1  0
  1 31  1  0
  1 32  1  0
  2 33  1  0
  2 34  1  0
  3 35  1  0
  3 36  1  0
  4 37  1  0
  4 38  1  0
  7 39  1  0
  7 40  1  0
  9 41  1  0
  9 42  1  0
 10 43  1  0
 10 44  1  0
 12 45  1  0
 12 46  1  0
 14 47  1  0
 15 48  1  0
 16 49  1  0
 17 50  1  0
 18 51  1  0
 19 52  1  0
 19 53  1  0
 20 54  1  0
 20 55  1  0
 21 56  1  0
 23 57  1  0
 24 58  1  0
 25 59  1  0
 26 60  1  0
M  CHG  1  21   1
M  END
>  <UniqueID>  (13) 
11

>  <SMILES>  (13) 
CCCCn1c(CN2CCN(Cc3ccccc3)CC2)[nH+]c2ccccc2c1=O

>  <Energy>  (13) 
78.49230909142305

>  <Genealogy>  (13) 
CCCCn1c(CN2CCN(Cc3ccccc3)CC2)[nH+]c2ccccc2c1=O (protonated)
CCCCn1c(CN2CCN(Cc3ccccc3)CC2)[nH+]c2ccccc2c1=O (3D coordinates assigned)
CCCCn1c(CN2CCN(Cc3ccccc3)CC2)[nH+]c2ccccc2c1=O (nonaromatic ring conformer: 78.49230909142305 kcal/mol)

>  <smiles>  (13) 
CCCCn1c(CN2CCN(Cc3ccccc3)CC2)nc2ccccc2c1=O

>  <score_type>  (13) 
oracle

>  <origin>  (13) 
adg

>  <m_score__min__energy>  (13) 
-8.4299999999999997

>  <m_primary>  (13) 
energy

$$$$
13:0
     RDKit          3D

 40 42  0  0  0  0  0  0  0  0999 V2000
   -4.9450   14.0180  -33.4230 C   0  0  0  0  0  0  0  0  0  0  0  0
   -5.1390   14.9810  -34.5910 C   0  0  0  0  0  0  0  0  0  0  0  0
   -5.6230   16.2850  -34.1060 N   0  0  0  0  0  0  0  0  0  0  0  0
   -6.4790   16.3160  -33.0410 C   0  0  0  0  0  0  0  0  0  0  0  0
   -6.9440   17.5300  -32.5320 C   0  0  0  0  0  0  0  0  0  0  0  0
   -6.5260   18.7360  -33.1110 C   0  0  0  0  0  0  0  0  0  0  0  0
   -7.0100   20.0390  -32.5850 C   0  0  0  0  0  0  0  0  0  0  0  0
   -8.3850   20.2920  -32.4630 C   0  0  0  0  0  0  0  0  0  0  0  0
   -8.8190   21.5160  -31.9570 C   0  0  0  0  0  0  0  0  0  0  0  0
   -7.9160   22.4610  -31.5900 N   0  0  0  0  0  0  0  0  0  0  0  0
   -6.5730   22.2660  -31.6980 C   0  0  0  0  0  0  0  0  0  0  0  0
   -5.6670   23.3150  -31.2930 N   0  0  0  0  0  0  0  0  0  0  0  0
   -6.1010   24.7190  -31.2510 C   0  0  0  0  0  0  0  0  0  0  0  0
   -5.2620   25.5050  -30.2390 C   0  0  0  0  0  0  0  0  0  0  0  0
   -3.8800   25.3120  -30.4710 O   0  0  0  0  0  0  0  0  0  0  0  0
   -3.5450   23.9610  -30.2250 C   0  0  0  0  0  0  0  0  0  0  0  0
   -4.2250   23.0390  -31.2400 C   0  0  0  0  0  0  0  0  0  0  0  0
   -6.1000   21.0370  -32.1960 C   0  0  0  0  0  0  0  0  0  0  0  0
   -5.6380   18.6880  -34.1940 C   0  0  0  0  0  0  0  0  0  0  0  0
   -5.1870   17.4540  -34.6780 C   0  0  0  0  0  0  0  0  0  0  0  0
   -4.3760   17.4370  -35.6430 O   0  0  0  0  0  0  0  0  0  0  0  0
   -5.0551   14.5647  -32.4749 H   0  0  0  0  0  0  0  0  0  0  0  0
   -5.7005   13.2202  -33.4762 H   0  0  0  0  0  0  0  0  0  0  0  0
   -3.9396   13.5750  -33.4762 H   0  0  0  0  0  0  0  0  0  0  0  0
   -4.1787   15.1206  -35.1091 H   0  0  0  0  0  0  0  0  0  0  0  0
   -5.8832   14.5586  -35.2821 H   0  0  0  0  0  0  0  0  0  0  0  0
   -6.8057   15.3726  -32.5791 H   0  0  0  0  0  0  0  0  0  0  0  0
   -7.6372   17.5400  -31.6780 H   0  0  0  0  0  0  0  0  0  0  0  0
   -9.1165   19.5281  -32.7652 H   0  0  0  0  0  0  0  0  0  0  0  0
   -9.8957   21.7168  -31.8548 H   0  0  0  0  0  0  0  0  0  0  0  0
   -5.9793   25.1664  -32.2485 H   0  0  0  0  0  0  0  0  0  0  0  0
   -7.1574   24.7579  -30.9468 H   0  0  0  0  0  0  0  0  0  0  0  0
   -5.4966   26.5757  -30.3311 H   0  0  0  0  0  0  0  0  0  0  0  0
   -5.5024   25.1446  -29.2279 H   0  0  0  0  0  0  0  0  0  0  0  0
   -2.4544   23.8401  -30.3020 H   0  0  0  0  0  0  0  0  0  0  0  0
   -3.8900   23.6902  -29.2162 H   0  0  0  0  0  0  0  0  0  0  0  0
   -3.7864   23.2078  -32.2345 H   0  0  0  0  0  0  0  0  0  0  0  0
   -4.0716   21.9939  -30.9332 H   0  0  0  0  0  0  0  0  0  0  0  0
   -5.0180   20.8578  -32.2807 H   0  0  0  0  0  0  0  0  0  0  0  0
   -5.2948   19.6211  -34.6646 H   0  0  0  0  0  0  0  0  0  0  0  0
  1  2  1  0
  2  3  1  0
  3  4  1  0
  4  5  2  0
  5  6  1  0
  6  7  1  0
  7  8  2  0
  8  9  1  0
  9 10  2  0
 10 11  1  0
 11 12  1  0
 12 13  1  0
 13 14  1  0
 14 15  1  0
 15 16  1  0
 16 17  1  0
 11 18  2  0
  6 19  2  0
 19 20  1  0
 20 21  2  0
 20  3  1  0
 18  7  1  0
 17 12  1  0
  1 22  1  0
  1 23  1  0
  1 24  1  0
  2 25  1  0
  2 26  1  0
  4 27  1  0
  5 28  1  0
  8 29  1  0
  9 30  1  0
 13 31  1  0
 13 32  1  0
 14 33  1  0
 14 34  1  0
 16 35  1  0
 16 36  1  0
 17 37  1  0
 17 38  1  0
 18 39  1  0
 19 40  1  0
M  END
>  <UniqueID>  (14) 
12

>  <SMILES>  (14) 
CCn1ccc(-c2ccnc(N3CCOCC3)c2)cc1=O

>  <Energy>  (14) 
50.77058724115377

>  <Genealogy>  (14) 
CCn1ccc(-c2ccnc(N3CCOCC3)c2)cc1=O (3D coordinates assigned)
CCn1ccc(-c2ccnc(N3CCOCC3)c2)cc1=O (nonaromatic ring conformer: 50.77058724115377 kcal/mol)

>  <smiles>  (14) 
CCn1ccc(-c2ccnc(N3CCOCC3)c2)cc1=O

>  <score_type>  (14) 
oracle

>  <origin>  (14) 
adg

>  <m_score__min__energy>  (14) 
-8.0299999999999994

>  <m_primary>  (14) 
energy

$$$$
14:0
     RDKit          3D

 42 43  0  0  0  0  0  0  0  0999 V2000
   -5.9950   18.8020  -34.2600 C   0  0  0  0  0  0  0  0  0  0  0  0
   -6.4980   18.1440  -32.9760 C   0  0  0  0  0  0  0  0  0  0  0  0
   -7.9670   18.1760  -32.8800 N   0  0  0  0  0  0  0  0  0  0  0  0
   -8.4950   18.5850  -31.5640 C   0  0  0  0  0  0  0  0  0  0  0  0
   -8.6590   20.1090  -31.3770 C   0  0  0  0  0  0  0  0  0  0  0  0
   -8.1860   20.8690  -32.5450 N   0  0  0  0  0  0  0  0  0  0  0  0
   -7.3630   21.9730  -32.1120 C   0  0  0  0  0  0  0  0  0  0  0  0
   -7.9480   23.1190  -31.5500 C   0  0  0  0  0  0  0  0  0  0  0  0
   -7.1490   24.1720  -31.0970 C   0  0  0  0  0  0  0  0  0  0  0  0
   -5.7490   24.0910  -31.1780 C   0  0  0  0  0  0  0  0  0  0  0  0
   -4.9090   25.2090  -30.6900 C   0  0  0  0  0  0  0  0  0  0  0  0
   -5.4420   26.3280  -30.4640 O   0  0  0  0  0  0  0  0  0  0  0  0
   -3.4920   25.0780  -30.5150 N   0  0  0  0  0  0  0  0  0  0  0  0
   -2.8290   24.5040  -29.3780 C   0  0  0  0  0  0  0  0  0  0  0  0
   -3.4410   23.4390  -28.7030 C   0  0  0  0  0  0  0  0  0  0  0  0
   -2.8150   22.8490  -27.6000 C   0  0  0  0  0  0  0  0  0  0  0  0
   -1.5670   23.3110  -27.1730 C   0  0  0  0  0  0  0  0  0  0  0  0
   -0.9400   24.3570  -27.8550 C   0  0  0  0  0  0  0  0  0  0  0  0
   -1.5620   24.9480  -28.9580 C   0  0  0  0  0  0  0  0  0  0  0  0
   -5.1640   22.9450  -31.7460 C   0  0  0  0  0  0  0  0  0  0  0  0
   -5.9640   21.8920  -32.2000 C   0  0  0  0  0  0  0  0  0  0  0  0
   -5.3450   19.6523  -34.0060 H   0  0  0  0  0  0  0  0  0  0  0  0
   -5.4254   18.0683  -34.8492 H   0  0  0  0  0  0  0  0  0  0  0  0
   -6.8525   19.1592  -34.8492 H   0  0  0  0  0  0  0  0  0  0  0  0
   -6.1635   17.0962  -32.9591 H   0  0  0  0  0  0  0  0  0  0  0  0
   -6.0890   18.7055  -32.1231 H   0  0  0  0  0  0  0  0  0  0  0  0
   -8.3430   18.8100  -33.6210 H   0  0  0  0  0  0  0  0  0  0  0  0
   -9.4808   18.1158  -31.4300 H   0  0  0  0  0  0  0  0  0  0  0  0
   -7.7544   18.2596  -30.8186 H   0  0  0  0  0  0  0  0  0  0  0  0
   -9.7239   20.3332  -31.2167 H   0  0  0  0  0  0  0  0  0  0  0  0
   -8.0505   20.4092  -30.5112 H   0  0  0  0  0  0  0  0  0  0  0  0
   -7.6210   20.2510  -33.1710 H   0  0  0  0  0  0  0  0  0  0  0  0
   -9.0020   21.2300  -33.0920 H   0  0  0  0  0  0  0  0  0  0  0  0
   -9.0426   23.1883  -31.4658 H   0  0  0  0  0  0  0  0  0  0  0  0
   -7.6200   25.0714  -30.6737 H   0  0  0  0  0  0  0  0  0  0  0  0
   -4.4184   23.0653  -29.0423 H   0  0  0  0  0  0  0  0  0  0  0  0
   -3.3055   22.0205  -27.0681 H   0  0  0  0  0  0  0  0  0  0  0  0
   -1.0788   22.8516  -26.3009 H   0  0  0  0  0  0  0  0  0  0  0  0
    0.0453   24.7160  -27.5230 H   0  0  0  0  0  0  0  0  0  0  0  0
   -1.0593   25.7629  -29.4995 H   0  0  0  0  0  0  0  0  0  0  0  0
   -4.0696   22.8767  -31.8337 H   0  0  0  0  0  0  0  0  0  0  0  0
   -5.4944   20.9944  -32.6288 H   0  0  0  0  0  0  0  0  0  0  0  0
  1  2  1  0
  2  3  1  0
  3  4  1  0
  4  5  1  0
  5  6  1  0
  6  7  1  0
  7  8  2  0
  8  9  1  0
  9 10  2  0
 10 11  1  0
 11 12  2  0
 11 13  1  0
 13 14  1  0
 14 15  2  0
 15 16  1  0
 16 17  2  0
 17 18  1  0
 18 19  2  0
 10 20  1  0
 20 21  2  0
 21  7  1  0
 19 14  1  0
  1 22  1  0
  1 23  1  0
  1 24  1  0
  2 25  1  0
  2 26  1  0
  3 27  1  0
  4 28  1  0
  4 29  1  0
  5 30  1  0
  5 31  1  0
  6 32  1  0
  6 33  1  0
  8 34  1  0
  9 35  1  0
 15 36  1  0
 16 37  1  0
 17 38  1  0
 18 39  1  0
 19 40  1  0
 20 41  1  0
 21 42  1  0
M  CHG  2   6   1  13  -1
M  END
>  <UniqueID>  (15) 
13

>  <SMILES>  (15) 
CCNCC[NH2+]c1ccc(C(=O)[N-]c2ccccc2)cc1

>  <Energy>  (15) 
48.506601517530605

>  <Genealogy>  (15) 
CCNCC[NH2+]c1ccc(C(=O)[N-]c2ccccc2)cc1 (protonated)
CCNCC[NH2+]c1ccc(C(=O)[N-]c2ccccc2)cc1 (3D coordinates assigned)
CCNCC[NH2+]c1ccc(C(=O)[N-]c2ccccc2)cc1 (optimized conformer: 48.506601517530605 kcal/mol)

>  <smiles>  (15) 
CCNCCNc1ccc(C(=O)Nc2ccccc2)cc1

>  <score_type>  (15) 
oracle

>  <origin>  (15) 
adg

>  <m_score__min__energy>  (15) 
-8.4100000000000001

>  <m_primary>  (15) 
energy

$$$$
15:0
     RDKit          3D

 70 74  0  0  0  0  0  0  0  0999 V2000
    0.2470   21.8680  -35.5670 C   0  0  0  0  0  0  0  0  0  0  0  0
   -0.2820   21.5420  -34.5350 C   0  0  0  0  0  0  0  0  0  0  0  0
   -0.9220   21.1470  -33.2730 C   0  0  0  0  0  0  0  0  0  0  0  0
   -0.3600   19.8860  -32.7520 N   0  0  0  0  0  0  0  0  0  0  0  0
    0.2700   20.0880  -31.4370 C   0  0  0  0  0  0  0  0  0  0  0  0
   -1.2710   18.7130  -32.7930 C   0  0  0  0  0  0  0  0  0  0  0  0
   -2.2300   18.6390  -34.0040 C   0  0  0  0  0  0  0  0  0  0  0  0
   -3.6330   18.5660  -33.5960 N   0  0  0  0  0  0  0  0  0  0  0  0
   -4.4430   19.6460  -33.1430 C   0  0  0  0  0  0  0  0  0  0  0  0
   -3.9890   20.8080  -32.9620 O   0  0  0  0  0  0  0  0  0  0  0  0
   -5.8910   19.2600  -32.9390 C   0  0  1  0  0  0  0  0  0  0  0  0
   -6.2470   19.3760  -31.4480 C   0  0  0  0  0  0  0  0  0  0  0  0
   -7.7540   19.2460  -31.1740 C   0  0  0  0  0  0  0  0  0  0  0  0
   -8.6140   20.0980  -32.0350 N   0  0  1  0  0  0  0  0  0  0  0  0
   -8.8970   21.4620  -31.5000 C   0  0  0  0  0  0  0  0  0  0  0  0
   -7.6830   22.3280  -31.2430 C   0  0  0  0  0  0  0  0  0  0  0  0
   -7.0040   22.9310  -32.3180 C   0  0  0  0  0  0  0  0  0  0  0  0
   -5.8650   23.7060  -32.0920 C   0  0  0  0  0  0  0  0  0  0  0  0
   -5.3840   23.8920  -30.7920 C   0  0  0  0  0  0  0  0  0  0  0  0
   -4.2170   24.6450  -30.6080 O   0  0  0  0  0  0  0  0  0  0  0  0
   -3.0610   24.1700  -29.9810 C   0  0  0  0  0  0  0  0  0  0  0  0
   -2.5020   22.9570  -30.4080 C   0  0  0  0  0  0  0  0  0  0  0  0
   -1.3370   22.4710  -29.8060 C   0  0  0  0  0  0  0  0  0  0  0  0
   -0.7060   23.2080  -28.8000 C   0  0  0  0  0  0  0  0  0  0  0  0
    0.4320   22.7420  -28.2320 F   0  0  0  0  0  0  0  0  0  0  0  0
   -1.2570   24.4250  -28.3750 C   0  0  0  0  0  0  0  0  0  0  0  0
   -2.4330   24.9040  -28.9590 C   0  0  0  0  0  0  0  0  0  0  0  0
   -6.0470   23.2760  -29.7160 C   0  0  0  0  0  0  0  0  0  0  0  0
   -7.1720   22.4810  -29.9450 C   0  0  0  0  0  0  0  0  0  0  0  0
   -8.2790   20.0540  -33.4830 C   0  0  0  0  0  0  0  0  0  0  0  0
   -6.7830   20.1640  -33.8070 C   0  0  0  0  0  0  0  0  0  0  0  0
   -5.8290   17.8200  -33.4230 C   0  0  0  0  0  0  0  0  0  0  0  0
   -6.8620   16.8820  -33.5530 C   0  0  0  0  0  0  0  0  0  0  0  0
   -6.5640   15.6070  -34.0550 C   0  0  0  0  0  0  0  0  0  0  0  0
   -5.2510   15.2790  -34.4310 C   0  0  0  0  0  0  0  0  0  0  0  0
   -4.2230   16.2230  -34.3010 C   0  0  0  0  0  0  0  0  0  0  0  0
   -4.5330   17.4840  -33.7840 C   0  0  0  0  0  0  0  0  0  0  0  0
    0.7301   22.1657  -36.5094 H   0  0  0  0  0  0  0  0  0  0  0  0
   -0.7658   21.9421  -32.5290 H   0  0  0  0  0  0  0  0  0  0  0  0
   -1.9944   20.9936  -33.4636 H   0  0  0  0  0  0  0  0  0  0  0  0
   -0.4553   19.8554  -30.6433 H   0  0  0  0  0  0  0  0  0  0  0  0
    1.1423   19.4245  -31.3425 H   0  0  0  0  0  0  0  0  0  0  0  0
    0.5938   21.1350  -31.3425 H   0  0  0  0  0  0  0  0  0  0  0  0
   -0.6500   17.8051  -32.8000 H   0  0  0  0  0  0  0  0  0  0  0  0
   -1.9182   18.8102  -31.9088 H   0  0  0  0  0  0  0  0  0  0  0  0
   -2.0878   19.5368  -34.6235 H   0  0  0  0  0  0  0  0  0  0  0  0
   -1.9941   17.7229  -34.5653 H   0  0  0  0  0  0  0  0  0  0  0  0
   -5.7220   18.5797  -30.9001 H   0  0  0  0  0  0  0  0  0  0  0  0
   -5.9392   20.3782  -31.1152 H   0  0  0  0  0  0  0  0  0  0  0  0
   -8.0424   18.1964  -31.3324 H   0  0  0  0  0  0  0  0  0  0  0  0
   -7.9137   19.5855  -30.1400 H   0  0  0  0  0  0  0  0  0  0  0  0
   -9.5530   19.6350  -31.9910 H   0  0  0  0  0  0  0  0  0  0  0  0
   -9.5377   21.9841  -32.2259 H   0  0  0  0  0  0  0  0  0  0  0  0
   -9.3704   21.3084  -30.5190 H   0  0  0  0  0  0  0  0  0  0  0  0
   -7.3736   22.7906  -33.3445 H   0  0  0  0  0  0  0  0  0  0  0  0
   -5.3433   24.1726  -32.9406 H   0  0  0  0  0  0  0  0  0  0  0  0
   -2.9806   22.3868  -31.2178 H   0  0  0  0  0  0  0  0  0  0  0  0
   -0.9162   21.5061  -30.1251 H   0  0  0  0  0  0  0  0  0  0  0  0
   -0.7630   25.0038  -27.5807 H   0  0  0  0  0  0  0  0  0  0  0  0
   -2.8675   25.8556  -28.6190 H   0  0  0  0  0  0  0  0  0  0  0  0
   -5.6781   23.4208  -28.6899 H   0  0  0  0  0  0  0  0  0  0  0  0
   -7.6611   21.9711  -29.1019 H   0  0  0  0  0  0  0  0  0  0  0  0
   -8.6468   19.1003  -33.8894 H   0  0  0  0  0  0  0  0  0  0  0  0
   -8.7568   20.9353  -33.9357 H   0  0  0  0  0  0  0  0  0  0  0  0
   -6.6354   19.8873  -34.8613 H   0  0  0  0  0  0  0  0  0  0  0  0
   -6.4858   21.2023  -33.5983 H   0  0  0  0  0  0  0  0  0  0  0  0
   -7.8914   17.1420  -33.2655 H   0  0  0  0  0  0  0  0  0  0  0  0
   -7.3640   14.8586  -34.1550 H   0  0  0  0  0  0  0  0  0  0  0  0
   -5.0287   14.2779  -34.8289 H   0  0  0  0  0  0  0  0  0  0  0  0
   -3.1935   15.9764  -34.5997 H   0  0  0  0  0  0  0  0  0  0  0  0
  1  2  3  0
  2  3  1  0
  3  4  1  0
  4  5  1  0
  4  6  1  0
  6  7  1  0
  7  8  1  0
  8  9  1  0
  9 10  2  0
  9 11  1  0
 11 12  1  1
 12 13  1  0
 13 14  1  0
 14 15  1  0
 15 16  1  0
 16 17  2  0
 17 18  1  0
 18 19  2  0
 19 20  1  0
 20 21  1  0
 21 22  2  0
 22 23  1  0
 23 24  2  0
 24 25  1  0
 24 26  1  0
 26 27  2  0
 19 28  1  0
 28 29  2  0
 14 30  1  0
 30 31  1  0
 11 32  1  0
 32 33  2  0
 33 34  1  0
 34 35  2  0
 35 36  1  0
 36 37  2  0
 37  8  1  0
 31 11  1  0
 37 32  1  0
 29 16  1  0
 27 21  1  0
  1 38  1  0
  3 39  1  0
  3 40  1  0
  5 41  1  0
  5 42  1  0
  5 43  1  0
  6 44  1  0
  6 45  1  0
  7 46  1  0
  7 47  1  0
 12 48  1  0
 12 49  1  0
 13 50  1  0
 13 51  1  0
 14 52  1  6
 15 53  1  0
 15 54  1  0
 17 55  1  0
 18 56  1  0
 22 57  1  0
 23 58  1  0
 26 59  1  0
 27 60  1  0
 28 61  1  0
 29 62  1  0
 30 63  1  0
 30 64  1  0
 31 65  1  0
 31 66  1  0
 33 67  1  0
 34 68  1  0
 35 69  1  0
 36 70  1  0
M  CHG  1  14   1
M  END
>  <UniqueID>  (16) 
14

>  <SMILES>  (16) 
C#CCN(C)CCN1C(=O)C2(CC[NH+](Cc3ccc(Oc4ccc(F)cc4)cc3)CC2)c2ccccc21

>  <Energy>  (16) 
114.84409144461269

>  <Genealogy>  (16) 
C#CCN(C)CCN1C(=O)C2(CC[NH+](Cc3ccc(Oc4ccc(F)cc4)cc3)CC2)c2ccccc21 (protonated)
C#CCN(C)CCN1C(=O)C2(CC[NH+](Cc3ccc(Oc4ccc(F)cc4)cc3)CC2)c2ccccc21 (3D coordinates assigned)
C#CCN(C)CCN1C(=O)C2(CC[NH+](Cc3ccc(Oc4ccc(F)cc4)cc3)CC2)c2ccccc21 (nonaromatic ring conformer: 114.84409144461269 kcal/mol)

>  <smiles>  (16) 
C#CCN(C)CCN1C(=O)C2(CCN(Cc3ccc(Oc4ccc(F)cc4)cc3)CC2)c2ccccc21

>  <score_type>  (16) 
oracle

>  <origin>  (16) 
adg

>  <m_score__min__energy>  (16) 
-8.8699999999999992

>  <m_primary>  (16) 
energy

$$$$
16:0
     RDKit          3D

 44 45  0  0  0  0  0  0  0  0999 V2000
   -1.9820   25.6830  -26.5310 C   0  0  0  0  0  0  0  0  0  0  0  0
   -1.2320   26.0690  -27.8000 C   0  0  0  0  0  0  0  0  0  0  0  0
   -1.9560   25.6630  -28.9630 O   0  0  0  0  0  0  0  0  0  0  0  0
   -2.2380   24.3370  -29.3360 C   0  0  0  0  0  0  0  0  0  0  0  0
   -1.4750   23.2440  -28.8770 C   0  0  0  0  0  0  0  0  0  0  0  0
   -1.7800   21.9480  -29.2920 C   0  0  0  0  0  0  0  0  0  0  0  0
   -2.8340   21.7280  -30.1790 C   0  0  0  0  0  0  0  0  0  0  0  0
   -3.5910   22.8010  -30.6480 C   0  0  0  0  0  0  0  0  0  0  0  0
   -3.3140   24.1130  -30.2120 C   0  0  0  0  0  0  0  0  0  0  0  0
   -4.0620   25.2310  -30.6250 O   0  0  0  0  0  0  0  0  0  0  0  0
   -5.3520   25.6280  -30.1530 C   0  0  0  0  0  0  0  0  0  0  0  0
   -6.4190   24.5690  -30.4780 C   0  0  0  0  0  0  0  0  0  0  0  0
   -6.4810   24.1930  -31.9640 C   0  0  0  0  0  0  0  0  0  0  0  0
   -6.4690   22.7360  -32.1450 N   0  0  0  0  0  0  0  0  0  0  0  0
   -7.8020   22.1480  -31.9710 C   0  0  0  0  0  0  0  0  0  0  0  0
   -7.7220   20.6570  -32.1620 C   0  0  0  0  0  0  0  0  0  0  0  0
   -8.7130   19.8220  -31.6190 C   0  0  0  0  0  0  0  0  0  0  0  0
   -8.6550   18.4390  -31.8120 C   0  0  0  0  0  0  0  0  0  0  0  0
   -7.6040   17.8790  -32.5400 C   0  0  0  0  0  0  0  0  0  0  0  0
   -6.6120   18.7010  -33.0810 C   0  0  0  0  0  0  0  0  0  0  0  0
   -6.6770   20.0870  -32.9080 C   0  0  0  0  0  0  0  0  0  0  0  0
   -1.3945   25.9854  -25.6515 H   0  0  0  0  0  0  0  0  0  0  0  0
   -2.9575   26.1911  -26.5127 H   0  0  0  0  0  0  0  0  0  0  0  0
   -2.1354   24.5939  -26.5127 H   0  0  0  0  0  0  0  0  0  0  0  0
   -1.0985   27.1607  -27.8216 H   0  0  0  0  0  0  0  0  0  0  0  0
   -0.2554   25.5627  -27.7991 H   0  0  0  0  0  0  0  0  0  0  0  0
   -0.6347   23.4143  -28.1879 H   0  0  0  0  0  0  0  0  0  0  0  0
   -1.1889   21.0984  -28.9195 H   0  0  0  0  0  0  0  0  0  0  0  0
   -3.0686   20.7053  -30.5093 H   0  0  0  0  0  0  0  0  0  0  0  0
   -4.4087   22.6230  -31.3620 H   0  0  0  0  0  0  0  0  0  0  0  0
   -5.3068   25.7677  -29.0628 H   0  0  0  0  0  0  0  0  0  0  0  0
   -5.6309   26.5659  -30.6555 H   0  0  0  0  0  0  0  0  0  0  0  0
   -6.1950   23.6610  -29.8989 H   0  0  0  0  0  0  0  0  0  0  0  0
   -7.3946   25.0039  -30.2151 H   0  0  0  0  0  0  0  0  0  0  0  0
   -7.4055   24.6008  -32.3988 H   0  0  0  0  0  0  0  0  0  0  0  0
   -5.5972   24.6132  -32.4663 H   0  0  0  0  0  0  0  0  0  0  0  0
   -6.1630   22.5420  -33.1290 H   0  0  0  0  0  0  0  0  0  0  0  0
   -8.1707   22.3686  -30.9584 H   0  0  0  0  0  0  0  0  0  0  0  0
   -8.4912   22.5762  -32.7137 H   0  0  0  0  0  0  0  0  0  0  0  0
   -9.5390   20.2592  -31.0388 H   0  0  0  0  0  0  0  0  0  0  0  0
   -9.4379   17.7916  -31.3900 H   0  0  0  0  0  0  0  0  0  0  0  0
   -7.5566   16.7900  -32.6879 H   0  0  0  0  0  0  0  0  0  0  0  0
   -5.7781   18.2568  -33.6442 H   0  0  0  0  0  0  0  0  0  0  0  0
   -5.9080   20.7326  -33.3572 H   0  0  0  0  0  0  0  0  0  0  0  0
  1  2  1  0
  2  3  1  0
  3  4  1  0
  4  5  2  0
  5  6  1  0
  6  7  2  0
  7  8  1  0
  8  9  2  0
  9 10  1  0
 10 11  1  0
 11 12  1  0
 12 13  1  0
 13 14  1  0
 14 15  1  0
 15 16  1  0
 16 17  2  0
 17 18  1  0
 18 19  2  0
 19 20  1  0
 20 21  2  0
  9  4  1  0
 21 16  1  0
  1 22  1  0
  1 23  1  0
  1 24  1  0
  2 25  1  0
  2 26  1  0
  5 27  1  0
  6 28  1  0
  7 29  1  0
  8 30  1  0
 11 31  1  0
 11 32  1  0
 12 33  1  0
 12 34  1  0
 13 35  1  0
 13 36  1  0
 14 37  1  0
 15 38  1  0
 15 39  1  0
 17 40  1  0
 18 41  1  0
 19 42  1  0
 20 43  1  0
 21 44  1  0
M  END
>  <UniqueID>  (17) 
15

>  <SMILES>  (17) 
CCOc1ccccc1OCCCNCc1ccccc1

>  <Energy>  (17) 
37.870706363960785

>  <Genealogy>  (17) 
CCOc1ccccc1OCCCNCc1ccccc1 (3D coordinates assigned)
CCOc1ccccc1OCCCNCc1ccccc1 (optimized conformer: 37.870706363960785 kcal/mol)

>  <smiles>  (17) 
CCOc1ccccc1OCCCNCc1ccccc1

>  <score_type>  (17) 
oracle

>  <origin>  (17) 
adg

>  <m_score__min__energy>  (17) 
-8.5899999999999999

>  <m_primary>  (17) 
energy

$$$$
17:0
     RDKit          3D

 31 33  0  0  0  0  0  0  0  0999 V2000
   -4.4770   21.4150  -33.0700 C   0  0  0  0  0  0  0  0  0  0  0  0
   -5.6490   20.7010  -32.5180 N   0  0  0  0  0  0  0  0  0  0  0  0
   -6.4960   21.3420  -31.6350 C   0  0  0  0  0  0  0  0  0  0  0  0
   -6.1810   22.6680  -31.0500 C   0  0  0  0  0  0  0  0  0  0  0  0
   -7.1620   23.6730  -30.9990 C   0  0  0  0  0  0  0  0  0  0  0  0
   -6.8660   24.9160  -30.4310 C   0  0  0  0  0  0  0  0  0  0  0  0
   -5.5940   25.1620  -29.9060 C   0  0  0  0  0  0  0  0  0  0  0  0
   -4.6170   24.1640  -29.9450 C   0  0  0  0  0  0  0  0  0  0  0  0
   -4.9080   22.9190  -30.5110 C   0  0  0  0  0  0  0  0  0  0  0  0
   -7.6860   20.7290  -31.2270 C   0  0  0  0  0  0  0  0  0  0  0  0
   -8.0040   19.4510  -31.6630 C   0  0  0  0  0  0  0  0  0  0  0  0
   -9.0860   18.9230  -31.2860 O   0  0  0  0  0  0  0  0  0  0  0  0
   -7.1110   18.7580  -32.4920 C   0  0  0  0  0  0  0  0  0  0  0  0
   -7.3920   17.4420  -32.9100 C   0  0  0  0  0  0  0  0  0  0  0  0
   -6.4870   16.7460  -33.7110 C   0  0  0  0  0  0  0  0  0  0  0  0
   -6.8460   15.1050  -34.2190 Cl  0  0  0  0  0  0  0  0  0  0  0  0
   -5.2920   17.3480  -34.0970 C   0  0  0  0  0  0  0  0  0  0  0  0
   -4.9990   18.6540  -33.6980 C   0  0  0  0  0  0  0  0  0  0  0  0
   -5.9080   19.3960  -32.9020 C   0  0  0  0  0  0  0  0  0  0  0  0
   -3.8560   21.7933  -32.2447 H   0  0  0  0  0  0  0  0  0  0  0  0
   -3.8845   20.7243  -33.6879 H   0  0  0  0  0  0  0  0  0  0  0  0
   -4.8190   22.2583  -33.6879 H   0  0  0  0  0  0  0  0  0  0  0  0
   -8.1654   23.4813  -31.4070 H   0  0  0  0  0  0  0  0  0  0  0  0
   -7.6353   25.7015  -30.3972 H   0  0  0  0  0  0  0  0  0  0  0  0
   -5.3622   26.1414  -29.4621 H   0  0  0  0  0  0  0  0  0  0  0  0
   -3.6171   24.3581  -29.5297 H   0  0  0  0  0  0  0  0  0  0  0  0
   -4.1380   22.1338  -30.5344 H   0  0  0  0  0  0  0  0  0  0  0  0
   -8.3740   21.2642  -30.5560 H   0  0  0  0  0  0  0  0  0  0  0  0
   -8.3318   16.9602  -32.6024 H   0  0  0  0  0  0  0  0  0  0  0  0
   -4.5752   16.7921  -34.7193 H   0  0  0  0  0  0  0  0  0  0  0  0
   -4.0485   19.1140  -34.0060 H   0  0  0  0  0  0  0  0  0  0  0  0
  1  2  1  0
  2  3  1  0
  3  4  1  0
  4  5  2  0
  5  6  1  0
  6  7  2  0
  7  8  1  0
  8  9  2  0
  3 10  2  0
 10 11  1  0
 11 12  2  0
 11 13  1  0
 13 14  2  0
 14 15  1  0
 15 16  1  0
 15 17  2  0
 17 18  1  0
 18 19  2  0
 19  2  1  0
  9  4  1  0
 19 13  1  0
  1 20  1  0
  1 21  1  0
  1 22  1  0
  5 23  1  0
  6 24  1  0
  7 25  1  0
  8 26  1  0
  9 27  1  0
 10 28  1  0
 14 29  1  0
 17 30  1  0
 18 31  1  0
M  END
>  <UniqueID>  (18) 
16

>  <SMILES>  (18) 
Cn1c(-c2ccccc2)cc(=O)c2cc(Cl)ccc21

>  <Energy>  (18) 
53.317831064286274

>  <Genealogy>  (18) 
Cn1c(-c2ccccc2)cc(=O)c2cc(Cl)ccc21 (3D coordinates assigned)
Cn1c(-c2ccccc2)cc(=O)c2cc(Cl)ccc21 (optimized conformer: 53.317831064286274 kcal/mol)

>  <smiles>  (18) 
Cn1c(-c2ccccc2)cc(=O)c2cc(Cl)ccc21

>  <score_type>  (18) 
oracle

>  <origin>  (18) 
adg

>  <m_score__min__energy>  (18) 
-7.7400000000000002

>  <m_primary>  (18) 
energy

$$$$
18:0
     RDKit          3D

 64 66  0  0  0  0  0  0  0  0999 V2000
   -3.1540   21.5400  -33.0640 C   0  0  0  0  0  0  0  0  0  0  0  0
   -4.0810   20.4920  -32.4700 C   0  0  0  0  0  0  0  0  0  0  0  0
   -5.2400   20.3640  -33.2860 O   0  0  0  0  0  0  0  0  0  0  0  0
   -6.5080   19.9840  -32.8130 C   0  0  0  0  0  0  0  0  0  0  0  0
   -6.9250   18.6370  -32.8300 C   0  0  0  0  0  0  0  0  0  0  0  0
   -8.2050   18.2850  -32.3900 C   0  0  0  0  0  0  0  0  0  0  0  0
   -9.0890   19.2710  -31.9520 C   0  0  0  0  0  0  0  0  0  0  0  0
   -8.6870   20.6080  -31.9270 C   0  0  0  0  0  0  0  0  0  0  0  0
   -7.3870   20.9760  -32.3190 C   0  0  0  0  0  0  0  0  0  0  0  0
   -6.9590   22.4340  -32.2210 C   0  0  0  0  0  0  0  0  0  0  0  0
   -6.3360   22.8050  -30.9250 N   0  0  0  0  0  0  0  0  0  0  0  0
   -7.2960   22.8130  -29.8100 C   0  0  0  0  0  0  0  0  0  0  0  0
   -5.5560   24.0610  -30.9690 C   0  0  0  0  0  0  0  0  0  0  0  0
   -4.5100   24.0810  -29.8840 C   0  0  0  0  0  0  0  0  0  0  0  0
   -4.8520   24.5000  -28.5930 C   0  0  0  0  0  0  0  0  0  0  0  0
   -3.8900   24.5410  -27.5820 C   0  0  0  0  0  0  0  0  0  0  0  0
   -2.5570   24.1660  -27.8420 C   0  0  0  0  0  0  0  0  0  0  0  0
   -2.2090   23.7550  -29.1520 C   0  0  0  0  0  0  0  0  0  0  0  0
   -3.1860   23.7160  -30.1590 C   0  0  0  0  0  0  0  0  0  0  0  0
   -0.8120   23.2820  -29.4750 C   0  0  0  0  0  0  0  0  0  0  0  0
    0.2220   23.7840  -28.4670 C   0  0  0  0  0  0  0  0  0  0  0  0
   -0.2640   23.5250  -27.0420 C   0  0  0  0  0  0  0  0  0  0  0  0
   -1.5340   24.2300  -26.8140 N   0  0  0  0  0  0  0  0  0  0  0  0
   -1.6980   25.0310  -25.5870 C   0  0  0  0  0  0  0  0  0  0  0  0
   -0.7270   24.5540  -24.4890 C   0  0  0  0  0  0  0  0  0  0  0  0
    0.0420   25.6680  -23.8860 N   0  0  0  0  0  0  0  0  0  0  0  0
    1.1270   26.1300  -24.7740 C   0  0  0  0  0  0  0  0  0  0  0  0
   -0.8600   26.7920  -23.5860 C   0  0  0  0  0  0  0  0  0  0  0  0
   -2.6619   22.0964  -32.2527 H   0  0  0  0  0  0  0  0  0  0  0  0
   -2.3919   21.0460  -33.6846 H   0  0  0  0  0  0  0  0  0  0  0  0
   -3.7374   22.2361  -33.6846 H   0  0  0  0  0  0  0  0  0  0  0  0
   -3.5582   19.5254  -32.4221 H   0  0  0  0  0  0  0  0  0  0  0  0
   -4.3791   20.7993  -31.4567 H   0  0  0  0  0  0  0  0  0  0  0  0
   -6.2385   17.8575  -33.1920 H   0  0  0  0  0  0  0  0  0  0  0  0
   -8.5149   17.2296  -32.3893 H   0  0  0  0  0  0  0  0  0  0  0  0
  -10.1029   18.9953  -31.6263 H   0  0  0  0  0  0  0  0  0  0  0  0
   -9.3950   21.3825  -31.5970 H   0  0  0  0  0  0  0  0  0  0  0  0
   -6.2318   22.6336  -33.0219 H   0  0  0  0  0  0  0  0  0  0  0  0
   -7.8746   23.0367  -32.3129 H   0  0  0  0  0  0  0  0  0  0  0  0
   -6.7493   22.8084  -28.8555 H   0  0  0  0  0  0  0  0  0  0  0  0
   -7.9207   23.7164  -29.8705 H   0  0  0  0  0  0  0  0  0  0  0  0
   -7.9357   21.9202  -29.8705 H   0  0  0  0  0  0  0  0  0  0  0  0
   -5.0614   24.1440  -31.9480 H   0  0  0  0  0  0  0  0  0  0  0  0
   -6.2416   24.9069  -30.8128 H   0  0  0  0  0  0  0  0  0  0  0  0
   -5.8874   24.7995  -28.3731 H   0  0  0  0  0  0  0  0  0  0  0  0
   -4.1758   24.8695  -26.5719 H   0  0  0  0  0  0  0  0  0  0  0  0
   -2.9091   23.3956  -31.1742 H   0  0  0  0  0  0  0  0  0  0  0  0
   -0.8023   22.1820  -29.4726 H   0  0  0  0  0  0  0  0  0  0  0  0
   -0.5414   23.6859  -30.4617 H   0  0  0  0  0  0  0  0  0  0  0  0
    1.1734   23.2560  -28.6284 H   0  0  0  0  0  0  0  0  0  0  0  0
    0.3653   24.8656  -28.6071 H   0  0  0  0  0  0  0  0  0  0  0  0
   -0.4147   22.4449  -26.8980 H   0  0  0  0  0  0  0  0  0  0  0  0
    0.4887   23.8920  -26.3288 H   0  0  0  0  0  0  0  0  0  0  0  0
   -1.4932   26.0873  -25.8157 H   0  0  0  0  0  0  0  0  0  0  0  0
   -2.7290   24.9114  -25.2226 H   0  0  0  0  0  0  0  0  0  0  0  0
   -1.3069   24.0570  -23.6974 H   0  0  0  0  0  0  0  0  0  0  0  0
   -0.0069   23.8664  -24.9565 H   0  0  0  0  0  0  0  0  0  0  0  0
    0.4660   25.3510  -22.9810 H   0  0  0  0  0  0  0  0  0  0  0  0
    1.9705   26.4892  -24.1661 H   0  0  0  0  0  0  0  0  0  0  0  0
    1.4614   25.2962  -25.4088 H   0  0  0  0  0  0  0  0  0  0  0  0
    0.7576   26.9489  -25.4088 H   0  0  0  0  0  0  0  0  0  0  0  0
   -0.9524   26.9071  -22.4959 H   0  0  0  0  0  0  0  0  0  0  0  0
   -0.4503   27.7165  -24.0189 H   0  0  0  0  0  0  0  0  0  0  0  0
   -1.8513   26.5923  -24.0189 H   0  0  0  0  0  0  0  0  0  0  0  0
  1  2  1  0
  2  3  1  0
  3  4  1  0
  4  5  2  0
  5  6  1  0
  6  7  2  0
  7  8  1  0
  8  9  2  0
  9 10  1  0
 10 11  1  0
 11 12  1  0
 11 13  1  0
 13 14  1  0
 14 15  2  0
 15 16  1  0
 16 17  2  0
 17 18  1  0
 18 19  2  0
 18 20  1  0
 20 21  1  0
 21 22  1  0
 22 23  1  0
 23 24  1  0
 24 25  1  0
 25 26  1  0
 26 27  1  0
 26 28  1  0
  9  4  1  0
 19 14  1  0
 23 17  1  0
  1 29  1  0
  1 30  1  0
  1 31  1  0
  2 32  1  0
  2 33  1  0
  5 34  1  0
  6 35  1  0
  7 36  1  0
  8 37  1  0
 10 38  1  0
 10 39  1  0
 12 40  1  0
 12 41  1  0
 12 42  1  0
 13 43  1  0
 13 44  1  0
 15 45  1  0
 16 46  1  0
 19 47  1  0
 20 48  1  0
 20 49  1  0
 21 50  1  0
 21 51  1  0
 22 52  1  0
 22 53  1  0
 24 54  1  0
 24 55  1  0
 25 56  1  0
 25 57  1  0
 26 58  1  0
 27 59  1  0
 27 60  1  0
 27 61  1  0
 28 62  1  0
 28 63  1  0
 28 64  1  0
M  CHG  1  26   1
M  END
>  <UniqueID>  (19) 
17

>  <SMILES>  (19) 
CCOc1ccccc1CN(C)Cc1ccc2c(c1)CCCN2CC[NH+](C)C

>  <Energy>  (19) 
64.78934098070742

>  <Genealogy>  (19) 
CCOc1ccccc1CN(C)Cc1ccc2c(c1)CCCN2CC[NH+](C)C (protonated)
CCOc1ccccc1CN(C)Cc1ccc2c(c1)CCCN2CC[NH+](C)C (3D coordinates assigned)
CCOc1ccccc1CN(C)Cc1ccc2c(c1)CCCN2CC[NH+](C)C (nonaromatic ring conformer: 64.78934098070742 kcal/mol)

>  <smiles>  (19) 
CCOc1ccccc1CN(C)Cc1ccc2c(c1)CCCN2CCN(C)C

>  <score_type>  (19) 
oracle

>  <origin>  (19) 
adg

>  <m_score__min__energy>  (19) 
-8.4399999999999995

>  <m_primary>  (19) 
energy

$$$$
19:0
     RDKit          3D

 47 48  0  0  0  0  0  0  0  0999 V2000
   -6.1400   25.7080  -29.6020 C   0  0  0  0  0  0  0  0  0  0  0  0
   -5.1520   25.6590  -30.7600 C   0  0  0  0  0  0  0  0  0  0  0  0
   -3.8770   25.2390  -30.2790 O   0  0  0  0  0  0  0  0  0  0  0  0
   -3.6780   24.0080  -29.6460 C   0  0  0  0  0  0  0  0  0  0  0  0
   -4.3870   23.6890  -28.6540 O   0  0  0  0  0  0  0  0  0  0  0  0
   -2.6580   23.0700  -30.1700 C   0  0  0  0  0  0  0  0  0  0  0  0
   -1.3070   23.0330  -29.8290 C   0  0  0  0  0  0  0  0  0  0  0  0
   -0.5900   23.9800  -28.9150 C   0  0  0  0  0  0  0  0  0  0  0  0
   -0.7190   21.9470  -30.3650 N   0  0  0  0  0  0  0  0  0  0  0  0
   -1.6630   21.2890  -31.0650 C   0  0  0  0  0  0  0  0  0  0  0  0
   -1.4170   19.9930  -31.7670 C   0  0  0  0  0  0  0  0  0  0  0  0
   -2.8760   21.9560  -30.9770 C   0  0  0  0  0  0  0  0  0  0  0  0
   -4.1310   21.5300  -31.6260 C   0  0  0  0  0  0  0  0  0  0  0  0
   -4.5920   20.3800  -31.3770 O   0  0  0  0  0  0  0  0  0  0  0  0
   -4.7720   22.3570  -32.6990 C   0  0  0  0  0  0  0  0  0  0  0  0
   -5.6240   23.3230  -32.0930 O   0  0  0  0  0  0  0  0  0  0  0  0
   -6.7350   22.9720  -31.3240 C   0  0  0  0  0  0  0  0  0  0  0  0
   -6.5890   22.5840  -30.1310 O   0  0  0  0  0  0  0  0  0  0  0  0
   -8.0880   23.0010  -31.9150 C   0  0  0  0  0  0  0  0  0  0  0  0
   -8.9060   21.9400  -32.0030 C   0  0  0  0  0  0  0  0  0  0  0  0
   -8.4710   20.5350  -32.1610 C   0  0  0  0  0  0  0  0  0  0  0  0
   -9.0990   19.4880  -31.4610 C   0  0  0  0  0  0  0  0  0  0  0  0
   -8.6400   18.1730  -31.5950 C   0  0  0  0  0  0  0  0  0  0  0  0
   -7.5420   17.8940  -32.4140 C   0  0  0  0  0  0  0  0  0  0  0  0
   -6.8940   18.9330  -33.0930 C   0  0  0  0  0  0  0  0  0  0  0  0
   -5.3960   18.5520  -34.2160 Br  0  0  0  0  0  0  0  0  0  0  0  0
   -7.3520   20.2490  -32.9610 C   0  0  0  0  0  0  0  0  0  0  0  0
   -5.5903   25.6807  -28.6496 H   0  0  0  0  0  0  0  0  0  0  0  0
   -6.7272   26.6364  -29.6600 H   0  0  0  0  0  0  0  0  0  0  0  0
   -6.8161   24.8423  -29.6600 H   0  0  0  0  0  0  0  0  0  0  0  0
   -5.5106   24.9473  -31.5182 H   0  0  0  0  0  0  0  0  0  0  0  0
   -5.0634   26.6592  -31.2092 H   0  0  0  0  0  0  0  0  0  0  0  0
   -0.7964   23.7074  -27.8695 H   0  0  0  0  0  0  0  0  0  0  0  0
    0.4924   23.9216  -29.1024 H   0  0  0  0  0  0  0  0  0  0  0  0
   -0.9398   25.0059  -29.1024 H   0  0  0  0  0  0  0  0  0  0  0  0
    0.2780   21.6560  -30.2430 H   0  0  0  0  0  0  0  0  0  0  0  0
   -1.2658   19.1963  -31.0237 H   0  0  0  0  0  0  0  0  0  0  0  0
   -2.2845   19.7468  -32.3970 H   0  0  0  0  0  0  0  0  0  0  0  0
   -0.5197   20.0818  -32.3970 H   0  0  0  0  0  0  0  0  0  0  0  0
   -3.9939   22.8677  -33.2853 H   0  0  0  0  0  0  0  0  0  0  0  0
   -5.3599   21.7093  -33.3660 H   0  0  0  0  0  0  0  0  0  0  0  0
   -8.4516   23.9605  -32.3115 H   0  0  0  0  0  0  0  0  0  0  0  0
   -9.9881   22.1311  -31.9536 H   0  0  0  0  0  0  0  0  0  0  0  0
   -9.9551   19.7045  -30.8051 H   0  0  0  0  0  0  0  0  0  0  0  0
   -9.1438   17.3577  -31.0552 H   0  0  0  0  0  0  0  0  0  0  0  0
   -7.1873   16.8587  -32.5250 H   0  0  0  0  0  0  0  0  0  0  0  0
   -6.8329   21.0640  -33.4866 H   0  0  0  0  0  0  0  0  0  0  0  0
  1  2  1  0
  2  3  1  0
  3  4  1  0
  4  5  2  0
  4  6  1  0
  6  7  2  0
  7  8  1  0
  7  9  1  0
  9 10  1  0
 10 11  1  0
 10 12  2  0
 12 13  1  0
 13 14  2  0
 13 15  1  0
 15 16  1  0
 16 17  1  0
 17 18  2  0
 17 19  1  0
 19 20  2  3
 20 21  1  0
 21 22  2  0
 22 23  1  0
 23 24  2  0
 24 25  1  0
 25 26  1  0
 25 27  2  0
 12  6  1  0
 27 21  1  0
  1 28  1  0
  1 29  1  0
  1 30  1  0
  2 31  1  0
  2 32  1  0
  8 33  1  0
  8 34  1  0
  8 35  1  0
  9 36  1  0
 11 37  1  0
 11 38  1  0
 11 39  1  0
 15 40  1  0
 15 41  1  0
 19 42  1  0
 20 43  1  0
 22 44  1  0
 23 45  1  0
 24 46  1  0
 27 47  1  0
M  END
>  <UniqueID>  (20) 
18

>  <SMILES>  (20) 
CCOC(=O)c1c(C)[nH]c(C)c1C(=O)COC(=O)C=Cc1cccc(Br)c1

>  <Energy>  (20) 
70.56273349898859

>  <Genealogy>  (20) 
CCOC(=O)c1c(C)[nH]c(C)c1C(=O)COC(=O)C=Cc1cccc(Br)c1 (3D coordinates assigned)
CCOC(=O)c1c(C)[nH]c(C)c1C(=O)COC(=O)C=Cc1cccc(Br)c1 (optimized conformer: 70.56273349898859 kcal/mol)

>  <smiles>  (20) 
CCOC(=O)c1c(C)[nH]c(C)c1C(=O)COC(=O)C=Cc1cccc(Br)c1

>  <score_type>  (20) 
oracle

>  <origin>  (20) 
adg

>  <m_score__min__energy>  (20) 
-9.2400000000000002

>  <m_primary>  (20) 
energy

$$$$
20:0
     RDKit          3D

 48 50  0  0  0  0  0  0  0  0999 V2000
   -5.8770   14.4880  -34.2010 C   0  0  0  0  0  0  0  0  0  0  0  0
   -6.8640   15.5100  -34.3010 O   0  0  0  0  0  0  0  0  0  0  0  0
   -6.6770   16.8350  -33.8810 C   0  0  0  0  0  0  0  0  0  0  0  0
   -5.8980   17.7550  -34.6080 C   0  0  0  0  0  0  0  0  0  0  0  0
   -5.7420   19.0640  -34.1460 C   0  0  0  0  0  0  0  0  0  0  0  0
   -6.3630   19.4850  -32.9570 C   0  0  0  0  0  0  0  0  0  0  0  0
   -6.2060   20.8820  -32.4720 C   0  0  0  0  0  0  0  0  0  0  0  0
   -7.3150   21.6030  -31.9930 C   0  0  0  0  0  0  0  0  0  0  0  0
   -7.1680   22.9190  -31.5450 C   0  0  0  0  0  0  0  0  0  0  0  0
   -5.9110   23.5400  -31.5710 C   0  0  0  0  0  0  0  0  0  0  0  0
   -5.7510   24.9720  -31.1260 C   0  0  0  0  0  0  0  0  0  0  0  0
   -6.3460   25.1960  -29.7250 C   0  0  0  0  0  0  0  0  0  0  0  0
   -5.3660   24.9180  -28.6490 N   0  0  0  0  0  0  0  0  0  0  0  0
   -4.7400   23.5900  -28.7810 C   0  0  0  0  0  0  0  0  0  0  0  0
   -3.2320   23.6860  -28.8200 C   0  0  0  0  0  0  0  0  0  0  0  0
   -2.5480   24.5860  -27.9850 C   0  0  0  0  0  0  0  0  0  0  0  0
   -1.1530   24.6630  -28.0270 C   0  0  0  0  0  0  0  0  0  0  0  0
   -0.4320   23.8460  -28.9020 C   0  0  0  0  0  0  0  0  0  0  0  0
   -1.1030   22.9410  -29.7270 C   0  0  0  0  0  0  0  0  0  0  0  0
   -2.4980   22.8600  -29.6870 C   0  0  0  0  0  0  0  0  0  0  0  0
   -4.8030   22.8270  -32.0510 C   0  0  0  0  0  0  0  0  0  0  0  0
   -4.9470   21.5100  -32.4930 C   0  0  0  0  0  0  0  0  0  0  0  0
   -7.1380   18.5590  -32.2350 C   0  0  0  0  0  0  0  0  0  0  0  0
   -7.2910   17.2490  -32.6950 C   0  0  0  0  0  0  0  0  0  0  0  0
   -5.6735   14.2773  -33.1407 H   0  0  0  0  0  0  0  0  0  0  0  0
   -6.2437   13.5748  -34.6925 H   0  0  0  0  0  0  0  0  0  0  0  0
   -4.9516   14.8226  -34.6925 H   0  0  0  0  0  0  0  0  0  0  0  0
   -5.4105   17.4420  -35.5431 H   0  0  0  0  0  0  0  0  0  0  0  0
   -5.1265   19.7732  -34.7188 H   0  0  0  0  0  0  0  0  0  0  0  0
   -8.3065   21.1271  -31.9708 H   0  0  0  0  0  0  0  0  0  0  0  0
   -8.0430   23.4703  -31.1701 H   0  0  0  0  0  0  0  0  0  0  0  0
   -4.6800   25.2220  -31.1038 H   0  0  0  0  0  0  0  0  0  0  0  0
   -6.2886   25.6168  -31.8368 H   0  0  0  0  0  0  0  0  0  0  0  0
   -6.6746   26.2426  -29.6430 H   0  0  0  0  0  0  0  0  0  0  0  0
   -7.1892   24.5005  -29.6014 H   0  0  0  0  0  0  0  0  0  0  0  0
   -5.8690   24.9450  -27.7310 H   0  0  0  0  0  0  0  0  0  0  0  0
   -4.6200   25.6490  -28.5950 H   0  0  0  0  0  0  0  0  0  0  0  0
   -5.0359   22.9691  -27.9225 H   0  0  0  0  0  0  0  0  0  0  0  0
   -5.0804   23.1421  -29.7263 H   0  0  0  0  0  0  0  0  0  0  0  0
   -3.1123   25.2319  -27.2962 H   0  0  0  0  0  0  0  0  0  0  0  0
   -0.6219   25.3678  -27.3703 H   0  0  0  0  0  0  0  0  0  0  0  0
    0.6651   23.9159  -28.9409 H   0  0  0  0  0  0  0  0  0  0  0  0
   -0.5338   22.2917  -30.4085 H   0  0  0  0  0  0  0  0  0  0  0  0
   -3.0235   22.1457  -30.3379 H   0  0  0  0  0  0  0  0  0  0  0  0
   -3.8142   23.3080  -32.0796 H   0  0  0  0  0  0  0  0  0  0  0  0
   -4.0688   20.9590  -32.8606 H   0  0  0  0  0  0  0  0  0  0  0  0
   -7.6277   18.8693  -31.3002 H   0  0  0  0  0  0  0  0  0  0  0  0
   -7.9000   16.5367  -32.1190 H   0  0  0  0  0  0  0  0  0  0  0  0
  1  2  1  0
  2  3  1  0
  3  4  2  0
  4  5  1  0
  5  6  2  0
  6  7  1  0
  7  8  2  0
  8  9  1  0
  9 10  2  0
 10 11  1  0
 11 12  1  0
 12 13  1  0
 13 14  1  0
 14 15  1  0
 15 16  2  0
 16 17  1  0
 17 18  2  0
 18 19  1  0
 19 20  2  0
 10 21  1  0
 21 22  2  0
  6 23  1  0
 23 24  2  0
 24  3  1  0
 22  7  1  0
 20 15  1  0
  1 25  1  0
  1 26  1  0
  1 27  1  0
  4 28  1  0
  5 29  1  0
  8 30  1  0
  9 31  1  0
 11 32  1  0
 11 33  1  0
 12 34  1  0
 12 35  1  0
 13 36  1  0
 13 37  1  0
 14 38  1  0
 14 39  1  0
 16 40  1  0
 17 41  1  0
 18 42  1  0
 19 43  1  0
 20 44  1  0
 21 45  1  0
 22 46  1  0
 23 47  1  0
 24 48  1  0
M  CHG  1  13   1
M  END
>  <UniqueID>  (21) 
19

>  <SMILES>  (21) 
COc1ccc(-c2ccc(CC[NH2+]Cc3ccccc3)cc2)cc1

>  <Energy>  (21) 
49.83857248753513

>  <Genealogy>  (21) 
COc1ccc(-c2ccc(CC[NH2+]Cc3ccccc3)cc2)cc1 (protonated)
COc1ccc(-c2ccc(CC[NH2+]Cc3ccccc3)cc2)cc1 (3D coordinates assigned)
COc1ccc(-c2ccc(CC[NH2+]Cc3ccccc3)cc2)cc1 (optimized conformer: 49.83857248753513 kcal/mol)

>  <smiles>  (21) 
COc1ccc(-c2ccc(CCNCc3ccccc3)cc2)cc1

>  <score_type>  (21) 
oracle

>  <origin>  (21) 
adg

>  <m_score__min__energy>  (21) 
-8.1300000000000008

>  <m_primary>  (21) 
energy

$$$$
21:0
     RDKit          3D

 54 57  0  0  0  0  0  0  0  0999 V2000
   -0.2800   26.5920  -24.4300 C   0  0  0  0  0  0  0  0  0  0  0  0
    0.3970   25.3230  -24.0800 N   0  0  0  0  0  0  0  0  0  0  0  0
   -0.5040   24.1500  -24.3060 C   0  0  0  0  0  0  0  0  0  0  0  0
    0.0320   23.1240  -25.3190 C   0  0  0  0  0  0  0  0  0  0  0  0
    0.6200   23.8040  -26.4780 N   0  0  0  0  0  0  0  0  0  0  0  0
    0.3420   23.3720  -27.8280 C   0  0  0  0  0  0  0  0  0  0  0  0
    0.4220   24.2000  -28.7780 O   0  0  0  0  0  0  0  0  0  0  0  0
   -0.0410   21.9760  -28.1330 C   0  0  0  0  0  0  0  0  0  0  0  0
    0.9500   20.9840  -28.0550 C   0  0  0  0  0  0  0  0  0  0  0  0
    0.6710   19.6510  -28.4020 C   0  0  0  0  0  0  0  0  0  0  0  0
    1.7380   18.6180  -28.3420 C   0  0  0  0  0  0  0  0  0  0  0  0
    1.4440   17.3080  -27.9130 C   0  0  0  0  0  0  0  0  0  0  0  0
    2.4510   16.3380  -27.8510 C   0  0  0  0  0  0  0  0  0  0  0  0
    3.7610   16.6640  -28.2080 C   0  0  0  0  0  0  0  0  0  0  0  0
    4.0660   17.9600  -28.6320 C   0  0  0  0  0  0  0  0  0  0  0  0
    3.0630   18.9330  -28.7010 C   0  0  0  0  0  0  0  0  0  0  0  0
   -0.6250   19.3170  -28.8280 C   0  0  0  0  0  0  0  0  0  0  0  0
   -1.6240   20.2910  -28.8910 C   0  0  0  0  0  0  0  0  0  0  0  0
   -1.3550   21.6230  -28.5330 C   0  0  0  0  0  0  0  0  0  0  0  0
   -2.4680   22.6080  -28.5500 C   0  0  0  0  0  0  0  0  0  0  0  0
   -3.3560   22.7020  -27.4650 C   0  0  0  0  0  0  0  0  0  0  0  0
   -4.3780   23.6540  -27.4700 C   0  0  0  0  0  0  0  0  0  0  0  0
   -4.5330   24.5120  -28.5610 C   0  0  0  0  0  0  0  0  0  0  0  0
   -3.6740   24.4130  -29.6640 C   0  0  0  0  0  0  0  0  0  0  0  0
   -3.8290   25.2950  -30.7780 N   0  0  0  0  0  0  0  0  0  0  0  0
   -2.6490   23.4540  -29.6590 C   0  0  0  0  0  0  0  0  0  0  0  0
    1.5560   24.9110  -26.2610 C   0  0  0  0  0  0  0  0  0  0  0  0
    1.7100   25.2110  -24.7620 C   0  0  0  0  0  0  0  0  0  0  0  0
   -0.5631   27.1227  -23.5090 H   0  0  0  0  0  0  0  0  0  0  0  0
    0.4024   27.2209  -25.0205 H   0  0  0  0  0  0  0  0  0  0  0  0
   -1.1824   26.3754  -25.0205 H   0  0  0  0  0  0  0  0  0  0  0  0
    0.6030   25.3770  -23.0490 H   0  0  0  0  0  0  0  0  0  0  0  0
   -0.6513   23.6386  -23.3433 H   0  0  0  0  0  0  0  0  0  0  0  0
   -1.4390   24.5483  -24.7269 H   0  0  0  0  0  0  0  0  0  0  0  0
    0.8011   22.5047  -24.8342 H   0  0  0  0  0  0  0  0  0  0  0  0
   -0.8020   22.4941  -25.6620 H   0  0  0  0  0  0  0  0  0  0  0  0
    1.9611   21.2547  -27.7168 H   0  0  0  0  0  0  0  0  0  0  0  0
    0.4153   17.0460  -27.6247 H   0  0  0  0  0  0  0  0  0  0  0  0
    2.2100   15.3169  -27.5204 H   0  0  0  0  0  0  0  0  0  0  0  0
    4.5520   15.9014  -28.1555 H   0  0  0  0  0  0  0  0  0  0  0  0
    5.0983   18.2162  -28.9125 H   0  0  0  0  0  0  0  0  0  0  0  0
    3.3108   19.9504  -29.0378 H   0  0  0  0  0  0  0  0  0  0  0  0
   -0.8550   18.2801  -29.1143 H   0  0  0  0  0  0  0  0  0  0  0  0
   -2.6342   20.0119  -29.2251 H   0  0  0  0  0  0  0  0  0  0  0  0
   -3.2457   22.0223  -26.6072 H   0  0  0  0  0  0  0  0  0  0  0  0
   -5.0627   23.7282  -26.6123 H   0  0  0  0  0  0  0  0  0  0  0  0
   -5.3320   25.2680  -28.5546 H   0  0  0  0  0  0  0  0  0  0  0  0
   -4.6180   25.9800  -30.8100 H   0  0  0  0  0  0  0  0  0  0  0  0
   -3.1700   25.2530  -31.5880 H   0  0  0  0  0  0  0  0  0  0  0  0
   -1.9822   23.3634  -30.5291 H   0  0  0  0  0  0  0  0  0  0  0  0
    2.5375   24.6399  -26.6770 H   0  0  0  0  0  0  0  0  0  0  0  0
    1.1622   25.8082  -26.7610 H   0  0  0  0  0  0  0  0  0  0  0  0
    2.2850   24.3982  -24.2943 H   0  0  0  0  0  0  0  0  0  0  0  0
    2.2293   26.1753  -24.6600 H   0  0  0  0  0  0  0  0  0  0  0  0
  1  2  1  0
  2  3  1  0
  3  4  1  0
  4  5  1  0
  5  6  1  0
  6  7  2  0
  6  8  1  0
  8  9  2  0
  9 10  1  0
 10 11  1  0
 11 12  2  0
 12 13  1  0
 13 14  2  0
 14 15  1  0
 15 16  2  0
 10 17  2  0
 17 18  1  0
 18 19  2  0
 19 20  1  0
 20 21  2  0
 21 22  1  0
 22 23  2  0
 23 24  1  0
 24 25  1  0
 24 26  2  0
  5 27  1  0
 27 28  1  0
 28  2  1  0
 19  8  1  0
 26 20  1  0
 16 11  1  0
  1 29  1  0
  1 30  1  0
  1 31  1  0
  2 32  1  0
  3 33  1  0
  3 34  1  0
  4 35  1  0
  4 36  1  0
  9 37  1  0
 12 38  1  0
 13 39  1  0
 14 40  1  0
 15 41  1  0
 16 42  1  0
 17 43  1  0
 18 44  1  0
 21 45  1  0
 22 46  1  0
 23 47  1  0
 25 48  1  0
 25 49  1  0
 26 50  1  0
 27 51  1  0
 27 52  1  0
 28 53  1  0
 28 54  1  0
M  CHG  1   2   1
M  END
>  <UniqueID>  (22) 
20

>  <SMILES>  (22) 
C[NH+]1CCN(C(=O)c2cc(-c3ccccc3)ccc2-c2cccc(N)c2)CC1

>  <Energy>  (22) 
80.50621198764269

>  <Genealogy>  (22) 
C[NH+]1CCN(C(=O)c2cc(-c3ccccc3)ccc2-c2cccc(N)c2)CC1 (protonated)
C[NH+]1CCN(C(=O)c2cc(-c3ccccc3)ccc2-c2cccc(N)c2)CC1 (3D coordinates assigned)
C[NH+]1CCN(C(=O)c2cc(-c3ccccc3)ccc2-c2cccc(N)c2)CC1 (nonaromatic ring conformer: 80.50621198764269 kcal/mol)

>  <smiles>  (22) 
CN1CCN(C(=O)c2cc(-c3ccccc3)ccc2-c2cccc(N)c2)CC1

>  <score_type>  (22) 
oracle

>  <origin>  (22) 
adg

>  <m_score__min__energy>  (22) 
-8.5399999999999991

>  <m_primary>  (22) 
energy

$$$$
22:0
     RDKit          3D

 39 42  0  0  0  0  0  0  0  0999 V2000
   -8.0130   22.6730  -30.9370 O   0  0  0  0  0  0  0  0  0  0  0  0
   -6.8490   22.3900  -31.3320 C   0  0  0  0  0  0  0  0  0  0  0  0
   -6.5890   21.0420  -31.8880 C   0  0  0  0  0  0  0  0  0  0  0  0
   -7.6160   20.0980  -31.9420 C   0  0  0  0  0  0  0  0  0  0  0  0
   -7.3880   18.8260  -32.4650 C   0  0  0  0  0  0  0  0  0  0  0  0
   -6.1150   18.4590  -32.9650 C   0  0  0  0  0  0  0  0  0  0  0  0
   -5.0740   19.4290  -32.9300 C   0  0  0  0  0  0  0  0  0  0  0  0
   -5.3290   20.7100  -32.3990 C   0  0  0  0  0  0  0  0  0  0  0  0
   -3.8000   19.0930  -33.4290 C   0  0  0  0  0  0  0  0  0  0  0  0
   -2.4560   20.2390  -33.4140 Cl  0  0  0  0  0  0  0  0  0  0  0  0
   -3.5700   17.8570  -33.9390 N   0  0  0  0  0  0  0  0  0  0  0  0
   -4.5350   16.8990  -33.9900 C   0  0  0  0  0  0  0  0  0  0  0  0
   -4.2280   15.6390  -34.5300 C   0  0  0  0  0  0  0  0  0  0  0  0
   -5.1970   14.6410  -34.5930 C   0  0  0  0  0  0  0  0  0  0  0  0
   -6.4820   14.8880  -34.1190 C   0  0  0  0  0  0  0  0  0  0  0  0
   -6.8080   16.1340  -33.5780 C   0  0  0  0  0  0  0  0  0  0  0  0
   -5.8420   17.1690  -33.5040 C   0  0  0  0  0  0  0  0  0  0  0  0
   -5.8060   23.3790  -31.2210 N   0  0  0  0  0  0  0  0  0  0  0  0
   -6.0870   24.7910  -31.4950 C   0  0  0  0  0  0  0  0  0  0  0  0
   -5.3290   25.6680  -30.4940 C   0  0  0  0  0  0  0  0  0  0  0  0
   -3.9540   25.3310  -30.4690 O   0  0  0  0  0  0  0  0  0  0  0  0
   -3.7910   24.0120  -29.9840 C   0  0  0  0  0  0  0  0  0  0  0  0
   -4.4160   22.9980  -30.9460 C   0  0  0  0  0  0  0  0  0  0  0  0
   -8.6164   20.3608  -31.5677 H   0  0  0  0  0  0  0  0  0  0  0  0
   -8.2102   18.0957  -32.4897 H   0  0  0  0  0  0  0  0  0  0  0  0
   -4.5248   21.4604  -32.3861 H   0  0  0  0  0  0  0  0  0  0  0  0
   -2.6120   17.6420  -34.3000 H   0  0  0  0  0  0  0  0  0  0  0  0
   -3.2138   15.4391  -34.9061 H   0  0  0  0  0  0  0  0  0  0  0  0
   -4.9469   13.6575  -35.0174 H   0  0  0  0  0  0  0  0  0  0  0  0
   -7.2453   14.0976  -34.1707 H   0  0  0  0  0  0  0  0  0  0  0  0
   -7.8269   16.3143  -33.2048 H   0  0  0  0  0  0  0  0  0  0  0  0
   -5.7628   25.0374  -32.5169 H   0  0  0  0  0  0  0  0  0  0  0  0
   -7.1672   24.9746  -31.3977 H   0  0  0  0  0  0  0  0  0  0  0  0
   -5.4362   26.7232  -30.7858 H   0  0  0  0  0  0  0  0  0  0  0  0
   -5.7503   25.5027  -29.4914 H   0  0  0  0  0  0  0  0  0  0  0  0
   -2.7174   23.7961  -29.8799 H   0  0  0  0  0  0  0  0  0  0  0  0
   -4.2943   23.9300  -29.0093 H   0  0  0  0  0  0  0  0  0  0  0  0
   -3.8461   22.9852  -31.8868 H   0  0  0  0  0  0  0  0  0  0  0  0
   -4.3929   21.9971  -30.4904 H   0  0  0  0  0  0  0  0  0  0  0  0
  1  2  2  0
  2  3  1  0
  3  4  2  0
  4  5  1  0
  5  6  2  0
  6  7  1  0
  7  8  2  0
  7  9  1  0
  9 10  1  0
  9 11  2  0
 11 12  1  0
 12 13  2  0
 13 14  1  0
 14 15  2  0
 15 16  1  0
 16 17  2  0
  2 18  1  0
 18 19  1  0
 19 20  1  0
 20 21  1  0
 21 22  1  0
 22 23  1  0
  8  3  1  0
 17 12  1  0
 23 18  1  0
 17  6  1  0
  4 24  1  0
  5 25  1  0
  8 26  1  0
 11 27  1  0
 13 28  1  0
 14 29  1  0
 15 30  1  0
 16 31  1  0
 19 32  1  0
 19 33  1  0
 20 34  1  0
 20 35  1  0
 22 36  1  0
 22 37  1  0
 23 38  1  0
 23 39  1  0
M  CHG  1  11   1
M  END
>  <UniqueID>  (23) 
21

>  <SMILES>  (23) 
O=C(c1ccc2c(c1)c(Cl)[nH+]c1ccccc12)N1CCOCC1

>  <Energy>  (23) 
62.485567991973646

>  <Genealogy>  (23) 
O=C(c1ccc2c(c1)c(Cl)[nH+]c1ccccc12)N1CCOCC1 (protonated)
O=C(c1ccc2c(c1)c(Cl)[nH+]c1ccccc12)N1CCOCC1 (3D coordinates assigned)
O=C(c1ccc2c(c1)c(Cl)[nH+]c1ccccc12)N1CCOCC1 (nonaromatic ring conformer: 62.485567991973646 kcal/mol)

>  <smiles>  (23) 
O=C(c1ccc2c(c1)c(Cl)nc1ccccc12)N1CCOCC1

>  <score_type>  (23) 
oracle

>  <origin>  (23) 
adg

>  <m_score__min__energy>  (23) 
-8.5299999999999994

>  <m_primary>  (23) 
energy

$$$$
23:0
     RDKit          3D

 48 50  0  0  0  0  0  0  0  0999 V2000
   -4.4360   18.8400  -34.2400 C   0  0  0  0  0  0  0  0  0  0  0  0
   -4.4830   19.7550  -33.0520 C   0  0  0  0  0  0  0  0  0  0  0  0
   -5.6870   20.3720  -32.6810 C   0  0  0  0  0  0  0  0  0  0  0  0
   -5.7210   21.2620  -31.6050 C   0  0  0  0  0  0  0  0  0  0  0  0
   -4.5470   21.5690  -30.9000 C   0  0  0  0  0  0  0  0  0  0  0  0
   -4.5830   22.5430  -29.7870 C   0  0  0  0  0  0  0  0  0  0  0  0
   -5.6630   22.7230  -29.1630 O   0  0  0  0  0  0  0  0  0  0  0  0
   -3.3850   23.3100  -29.3820 C   0  0  0  0  0  0  0  0  0  0  0  0
   -3.0980   24.6120  -29.7390 C   0  0  0  0  0  0  0  0  0  0  0  0
   -3.8860   25.4510  -30.5180 O   0  0  0  0  0  0  0  0  0  0  0  0
   -1.8830   24.9280  -29.1860 C   0  0  0  0  0  0  0  0  0  0  0  0
   -1.2280   26.1460  -29.3370 O   0  0  0  0  0  0  0  0  0  0  0  0
   -1.3920   23.8810  -28.4910 N   0  0  0  0  0  0  0  0  0  0  0  0
   -0.0740   23.8300  -27.8460 C   0  0  0  0  0  0  0  0  0  0  0  0
    0.0210   24.8140  -26.6730 C   0  0  0  0  0  0  0  0  0  0  0  0
   -0.8570   24.3830  -25.5610 N   0  0  0  0  0  0  0  0  0  0  0  0
   -0.4540   23.0660  -25.0450 C   0  0  0  0  0  0  0  0  0  0  0  0
   -0.8600   25.3650  -24.4640 C   0  0  0  0  0  0  0  0  0  0  0  0
   -2.2990   22.8770  -28.6160 C   0  0  0  0  0  0  0  0  0  0  0  0
   -2.0810   21.4880  -28.1600 C   0  0  0  0  0  0  0  0  0  0  0  0
   -3.0810   20.7930  -27.4670 C   0  0  0  0  0  0  0  0  0  0  0  0
   -2.8750   19.4650  -27.0890 C   0  0  0  0  0  0  0  0  0  0  0  0
   -1.6670   18.8440  -27.4100 C   0  0  0  0  0  0  0  0  0  0  0  0
   -0.7050   19.5290  -28.0850 N   0  0  0  0  0  0  0  0  0  0  0  0
   -0.8840   20.8230  -28.4630 C   0  0  0  0  0  0  0  0  0  0  0  0
   -3.3440   20.9430  -31.2670 C   0  0  0  0  0  0  0  0  0  0  0  0
   -3.3100   20.0530  -32.3440 C   0  0  0  0  0  0  0  0  0  0  0  0
   -4.3824   17.7962  -33.8970 H   0  0  0  0  0  0  0  0  0  0  0  0
   -5.3425   18.9804  -34.8470 H   0  0  0  0  0  0  0  0  0  0  0  0
   -3.5486   19.0725  -34.8470 H   0  0  0  0  0  0  0  0  0  0  0  0
   -6.6088   20.1539  -33.2402 H   0  0  0  0  0  0  0  0  0  0  0  0
   -6.6737   21.7250  -31.3084 H   0  0  0  0  0  0  0  0  0  0  0  0
    0.1006   22.8106  -27.4714 H   0  0  0  0  0  0  0  0  0  0  0  0
    0.6843   24.1106  -28.5918 H   0  0  0  0  0  0  0  0  0  0  0  0
    1.0613   24.8543  -26.3179 H   0  0  0  0  0  0  0  0  0  0  0  0
   -0.3018   25.8081  -27.0160 H   0  0  0  0  0  0  0  0  0  0  0  0
   -0.4600   23.0856  -23.9452 H   0  0  0  0  0  0  0  0  0  0  0  0
   -1.1591   22.3009  -25.4019 H   0  0  0  0  0  0  0  0  0  0  0  0
    0.5585   22.8265  -25.4019 H   0  0  0  0  0  0  0  0  0  0  0  0
   -0.8584   24.8368  -23.4991 H   0  0  0  0  0  0  0  0  0  0  0  0
    0.0362   25.9987  -24.5367 H   0  0  0  0  0  0  0  0  0  0  0  0
   -1.7601   25.9932  -24.5367 H   0  0  0  0  0  0  0  0  0  0  0  0
   -4.0288   21.2940  -27.2207 H   0  0  0  0  0  0  0  0  0  0  0  0
   -3.6560   18.9142  -26.5443 H   0  0  0  0  0  0  0  0  0  0  0  0
   -1.4925   17.7983  -27.1165 H   0  0  0  0  0  0  0  0  0  0  0  0
   -0.0871   21.3499  -29.0083 H   0  0  0  0  0  0  0  0  0  0  0  0
   -2.4234   21.1546  -30.7033 H   0  0  0  0  0  0  0  0  0  0  0  0
   -2.3591   19.5843  -32.6375 H   0  0  0  0  0  0  0  0  0  0  0  0
  1  2  1  0
  2  3  2  0
  3  4  1  0
  4  5  2  0
  5  6  1  0
  6  7  2  0
  6  8  1  0
  8  9  1  0
  9 10  1  0
  9 11  2  0
 11 12  1  0
 11 13  1  0
 13 14  1  0
 14 15  1  0
 15 16  1  0
 16 17  1  0
 16 18  1  0
 13 19  1  0
 19 20  1  0
 20 21  2  0
 21 22  1  0
 22 23  2  0
 23 24  1  0
 24 25  2  0
  5 26  1  0
 26 27  2  0
 27  2  1  0
 19  8  2  0
 25 20  1  0
  1 28  1  0
  1 29  1  0
  1 30  1  0
  3 31  1  0
  4 32  1  0
 14 33  1  0
 14 34  1  0
 15 35  1  0
 15 36  1  0
 17 37  1  0
 17 38  1  0
 17 39  1  0
 18 40  1  0
 18 41  1  0
 18 42  1  0
 21 43  1  0
 22 44  1  0
 23 45  1  0
 25 46  1  0
 26 47  1  0
 27 48  1  0
M  CHG  2  10  -1  12  -1
M  END
>  <UniqueID>  (24) 
22

>  <SMILES>  (24) 
Cc1ccc(C(=O)c2c([O-])c([O-])n(CCN(C)C)c2-c2cccnc2)cc1

>  <Energy>  (24) 
88.17763190675956

>  <Genealogy>  (24) 
Cc1ccc(C(=O)c2c([O-])c([O-])n(CCN(C)C)c2-c2cccnc2)cc1 (protonated)
Cc1ccc(C(=O)c2c([O-])c([O-])n(CCN(C)C)c2-c2cccnc2)cc1 (3D coordinates assigned)
Cc1ccc(C(=O)c2c([O-])c([O-])n(CCN(C)C)c2-c2cccnc2)cc1 (optimized conformer: 88.17763190675956 kcal/mol)

>  <smiles>  (24) 
Cc1ccc(C(=O)c2c(O)c(O)n(CCN(C)C)c2-c2cccnc2)cc1

>  <score_type>  (24) 
oracle

>  <origin>  (24) 
adg

>  <m_score__min__energy>  (24) 
-13.390000000000001

>  <m_primary>  (24) 
energy

$$$$
24:0
     RDKit          3D

 37 39  0  0  0  0  0  0  0  0999 V2000
   -5.2330   25.4900  -30.3020 C   0  0  0  0  0  0  0  0  0  0  0  0
   -3.8380   25.2450  -30.4590 O   0  0  0  0  0  0  0  0  0  0  0  0
   -3.0730   24.4140  -29.6270 C   0  0  0  0  0  0  0  0  0  0  0  0
   -2.4260   24.9200  -28.4800 C   0  0  0  0  0  0  0  0  0  0  0  0
   -1.6300   24.0890  -27.6900 C   0  0  0  0  0  0  0  0  0  0  0  0
   -1.4630   22.7490  -28.0320 C   0  0  0  0  0  0  0  0  0  0  0  0
   -2.1010   22.2310  -29.1590 C   0  0  0  0  0  0  0  0  0  0  0  0
   -2.9240   23.0460  -29.9560 C   0  0  0  0  0  0  0  0  0  0  0  0
   -3.6040   22.4340  -31.1230 C   0  0  0  0  0  0  0  0  0  0  0  0
   -3.1080   22.6040  -32.2710 O   0  0  0  0  0  0  0  0  0  0  0  0
   -4.8100   21.5360  -30.9850 C   0  0  0  0  0  0  0  0  0  0  0  0
   -5.7090   21.5380  -32.2460 C   0  0  2  0  0  0  0  0  0  0  0  0
   -4.9740   21.3750  -33.4320 O   0  0  0  0  0  0  0  0  0  0  0  0
   -6.5620   22.7810  -32.3360 C   0  0  0  0  0  0  0  0  0  0  0  0
   -6.1070   23.9450  -32.4900 O   0  0  0  0  0  0  0  0  0  0  0  0
   -7.9560   22.5060  -32.2720 N   0  0  0  0  0  0  0  0  0  0  0  0
   -8.0440   21.0990  -32.1590 C   0  0  0  0  0  0  0  0  0  0  0  0
   -9.2170   20.3490  -32.0780 C   0  0  0  0  0  0  0  0  0  0  0  0
   -9.1080   18.9520  -31.9780 C   0  0  0  0  0  0  0  0  0  0  0  0
   -7.8420   18.3370  -31.9620 C   0  0  0  0  0  0  0  0  0  0  0  0
   -6.6740   19.1130  -32.0460 C   0  0  0  0  0  0  0  0  0  0  0  0
   -6.7980   20.5020  -32.1440 C   0  0  0  0  0  0  0  0  0  0  0  0
   -5.4794   25.5333  -29.2308 H   0  0  0  0  0  0  0  0  0  0  0  0
   -5.4929   26.4475  -30.7770 H   0  0  0  0  0  0  0  0  0  0  0  0
   -5.8036   24.6783  -30.7770 H   0  0  0  0  0  0  0  0  0  0  0  0
   -2.5498   25.9781  -28.2060 H   0  0  0  0  0  0  0  0  0  0  0  0
   -1.1335   24.4931  -26.7955 H   0  0  0  0  0  0  0  0  0  0  0  0
   -0.8275   22.0989  -27.4128 H   0  0  0  0  0  0  0  0  0  0  0  0
   -1.9588   21.1737  -29.4271 H   0  0  0  0  0  0  0  0  0  0  0  0
   -4.4634   20.5081  -30.8024 H   0  0  0  0  0  0  0  0  0  0  0  0
   -5.4131   21.9187  -30.1485 H   0  0  0  0  0  0  0  0  0  0  0  0
   -4.6870   22.2780  -33.7300 H   0  0  0  0  0  0  0  0  0  0  0  0
   -8.7430   23.1900  -32.3270 H   0  0  0  0  0  0  0  0  0  0  0  0
  -10.2019   20.8386  -32.0920 H   0  0  0  0  0  0  0  0  0  0  0  0
  -10.0167   18.3356  -31.9119 H   0  0  0  0  0  0  0  0  0  0  0  0
   -7.7668   17.2424  -31.8833 H   0  0  0  0  0  0  0  0  0  0  0  0
   -5.6822   18.6374  -32.0349 H   0  0  0  0  0  0  0  0  0  0  0  0
  1  2  1  0
  2  3  1  0
  3  4  2  0
  4  5  1  0
  5  6  2  0
  6  7  1  0
  7  8  2  0
  8  9  1  0
  9 10  2  0
  9 11  1  0
 11 12  1  0
 12 13  1  6
 12 14  1  0
 14 15  2  0
 14 16  1  0
 16 17  1  0
 17 18  2  0
 18 19  1  0
 19 20  2  0
 20 21  1  0
 21 22  2  0
  8  3  1  0
 22 12  1  0
 22 17  1  0
  1 23  1  0
  1 24  1  0
  1 25  1  0
  4 26  1  0
  5 27  1  0
  6 28  1  0
  7 29  1  0
 11 30  1  0
 11 31  1  0
 13 32  1  0
 16 33  1  0
 18 34  1  0
 19 35  1  0
 20 36  1  0
 21 37  1  0
M  END
>  <UniqueID>  (25) 
23

>  <SMILES>  (25) 
COc1ccccc1C(=O)C[C@]1(O)C(=O)Nc2ccccc21

>  <Energy>  (25) 
63.41008868989728

>  <Genealogy>  (25) 
COc1ccccc1C(=O)C[C@]1(O)C(=O)Nc2ccccc21 (chirality)
COc1ccccc1C(=O)C[C@]1(O)C(=O)Nc2ccccc21 (3D coordinates assigned)
COc1ccccc1C(=O)C[C@]1(O)C(=O)Nc2ccccc21 (nonaromatic ring conformer: 63.41008868989728 kcal/mol)

>  <smiles>  (25) 
COc1ccccc1C(=O)CC1(O)C(=O)Nc2ccccc21

>  <score_type>  (25) 
oracle

>  <origin>  (25) 
adg

>  <m_score__min__energy>  (25) 
-8.9199999999999999

>  <m_primary>  (25) 
energy

$$$$
25:0
     RDKit          3D

 54 57  0  0  0  0  0  0  0  0999 V2000
    1.6600   26.7310  -24.1630 C   0  0  0  0  0  0  0  0  0  0  0  0
    0.3960   26.0230  -23.8900 N   0  0  0  0  0  0  0  0  0  0  0  0
   -0.6170   26.9370  -23.3330 C   0  0  0  0  0  0  0  0  0  0  0  0
   -0.0920   25.2220  -25.0450 C   0  0  0  0  0  0  0  0  0  0  0  0
   -1.2490   25.8300  -25.8820 C   0  0  0  0  0  0  0  0  0  0  0  0
   -0.8190   26.6990  -27.0660 C   0  0  0  0  0  0  0  0  0  0  0  0
   -1.2870   26.1440  -28.2910 O   0  0  0  0  0  0  0  0  0  0  0  0
   -0.9980   24.8360  -28.6770 C   0  0  0  0  0  0  0  0  0  0  0  0
    0.1840   24.2100  -28.4810 N   0  0  0  0  0  0  0  0  0  0  0  0
    0.0490   23.0020  -28.9580 O   0  0  0  0  0  0  0  0  0  0  0  0
   -1.1600   22.8250  -29.4410 C   0  0  0  0  0  0  0  0  0  0  0  0
   -1.8710   23.9810  -29.3000 C   0  0  0  0  0  0  0  0  0  0  0  0
   -3.3070   24.1440  -29.6730 C   0  0  0  0  0  0  0  0  0  0  0  0
   -3.7780   22.9450  -30.3950 N   0  0  0  0  0  0  0  0  0  0  0  0
   -4.8480   23.0500  -31.3580 C   0  0  0  0  0  0  0  0  0  0  0  0
   -5.3250   24.1800  -31.6490 O   0  0  0  0  0  0  0  0  0  0  0  0
   -5.3880   21.8500  -32.0380 C   0  0  0  0  0  0  0  0  0  0  0  0
   -4.4990   21.0440  -32.7660 C   0  0  0  0  0  0  0  0  0  0  0  0
   -4.9560   19.9210  -33.4550 C   0  0  0  0  0  0  0  0  0  0  0  0
   -6.3070   19.5840  -33.4330 C   0  0  0  0  0  0  0  0  0  0  0  0
   -7.2190   20.3670  -32.7110 C   0  0  0  0  0  0  0  0  0  0  0  0
   -8.5780   20.0160  -32.6840 C   0  0  0  0  0  0  0  0  0  0  0  0
   -9.4870   20.7770  -31.9500 C   0  0  0  0  0  0  0  0  0  0  0  0
   -9.0490   21.8890  -31.2310 C   0  0  0  0  0  0  0  0  0  0  0  0
   -7.7010   22.2550  -31.2490 C   0  0  0  0  0  0  0  0  0  0  0  0
   -6.7660   21.5100  -31.9990 C   0  0  0  0  0  0  0  0  0  0  0  0
   -3.2470   21.6170  -30.0140 C   0  0  0  0  0  0  0  0  0  0  0  0
   -1.7080   21.5930  -30.0810 C   0  0  0  0  0  0  0  0  0  0  0  0
    2.1419   27.0009  -23.2117 H   0  0  0  0  0  0  0  0  0  0  0  0
    2.3295   26.0766  -24.7405 H   0  0  0  0  0  0  0  0  0  0  0  0
    1.4517   27.6438  -24.7405 H   0  0  0  0  0  0  0  0  0  0  0  0
    0.6160   25.3310  -23.1320 H   0  0  0  0  0  0  0  0  0  0  0  0
   -0.5780   26.9018  -22.2343 H   0  0  0  0  0  0  0  0  0  0  0  0
   -0.4129   27.9625  -23.6745 H   0  0  0  0  0  0  0  0  0  0  0  0
   -1.6162   26.6289  -23.6745 H   0  0  0  0  0  0  0  0  0  0  0  0
    0.7599   25.0623  -25.7223 H   0  0  0  0  0  0  0  0  0  0  0  0
   -0.5090   24.3052  -24.6026 H   0  0  0  0  0  0  0  0  0  0  0  0
   -1.8565   25.0006  -26.2732 H   0  0  0  0  0  0  0  0  0  0  0  0
   -1.7967   26.4975  -25.2004 H   0  0  0  0  0  0  0  0  0  0  0  0
   -1.2370   27.7091  -26.9437 H   0  0  0  0  0  0  0  0  0  0  0  0
    0.2798   26.7427  -27.0933 H   0  0  0  0  0  0  0  0  0  0  0  0
   -3.9074   24.2802  -28.7614 H   0  0  0  0  0  0  0  0  0  0  0  0
   -3.4144   25.0242  -30.3239 H   0  0  0  0  0  0  0  0  0  0  0  0
   -3.4298   21.3010  -32.7934 H   0  0  0  0  0  0  0  0  0  0  0  0
   -4.2458   19.2983  -34.0187 H   0  0  0  0  0  0  0  0  0  0  0  0
   -6.6601   18.7000  -33.9842 H   0  0  0  0  0  0  0  0  0  0  0  0
   -8.9274   19.1364  -33.2446 H   0  0  0  0  0  0  0  0  0  0  0  0
  -10.5515   20.4999  -31.9380 H   0  0  0  0  0  0  0  0  0  0  0  0
   -9.7689   22.4809  -30.6467 H   0  0  0  0  0  0  0  0  0  0  0  0
   -7.3656   23.1308  -30.6741 H   0  0  0  0  0  0  0  0  0  0  0  0
   -3.5652   21.3843  -28.9871 H   0  0  0  0  0  0  0  0  0  0  0  0
   -3.6384   20.8695  -30.7197 H   0  0  0  0  0  0  0  0  0  0  0  0
   -1.3322   20.7062  -29.5496 H   0  0  0  0  0  0  0  0  0  0  0  0
   -1.3886   21.5546  -31.1329 H   0  0  0  0  0  0  0  0  0  0  0  0
  1  2  1  0
  2  3  1  0
  2  4  1  0
  4  5  1  0
  5  6  1  0
  6  7  1  0
  7  8  1  0
  8  9  2  0
  9 10  1  0
 10 11  1  0
 11 12  2  0
 12 13  1  0
 13 14  1  0
 14 15  1  0
 15 16  2  0
 15 17  1  0
 17 18  2  0
 18 19  1  0
 19 20  2  0
 20 21  1  0
 21 22  2  0
 22 23  1  0
 23 24  2  0
 24 25  1  0
 25 26  2  0
 14 27  1  0
 27 28  1  0
 12  8  1  0
 26 17  1  0
 28 11  1  0
 26 21  1  0
  1 29  1  0
  1 30  1  0
  1 31  1  0
  2 32  1  0
  3 33  1  0
  3 34  1  0
  3 35  1  0
  4 36  1  0
  4 37  1  0
  5 38  1  0
  5 39  1  0
  6 40  1  0
  6 41  1  0
 13 42  1  0
 13 43  1  0
 18 44  1  0
 19 45  1  0
 20 46  1  0
 22 47  1  0
 23 48  1  0
 24 49  1  0
 25 50  1  0
 27 51  1  0
 27 52  1  0
 28 53  1  0
 28 54  1  0
M  CHG  1   2   1
M  END
>  <UniqueID>  (26) 
24

>  <SMILES>  (26) 
C[NH+](C)CCCOc1noc2c1CN(C(=O)c1cccc3ccccc13)CC2

>  <Energy>  (26) 
104.82804439388143

>  <Genealogy>  (26) 
C[NH+](C)CCCOc1noc2c1CN(C(=O)c1cccc3ccccc13)CC2 (protonated)
C[NH+](C)CCCOc1noc2c1CN(C(=O)c1cccc3ccccc13)CC2 (3D coordinates assigned)
C[NH+](C)CCCOc1noc2c1CN(C(=O)c1cccc3ccccc13)CC2 (nonaromatic ring conformer: 104.82804439388143 kcal/mol)

>  <smiles>  (26) 
CN(C)CCCOc1noc2c1CN(C(=O)c1cccc3ccccc13)CC2

>  <score_type>  (26) 
oracle

>  <origin>  (26) 
adg

>  <m_score__min__energy>  (26) 
-10.08

>  <m_primary>  (26) 
energy

$$$$
26:0
     RDKit          3D

 53 55  0  0  0  0  0  0  0  0999 V2000
   -3.9370   22.4648  -26.8988 H   0  0  0  0  0  0  0  0  0  0  0  0
   -3.4780   22.0060  -27.7870 C   0  0  0  0  0  0  0  0  0  0  0  0
   -3.7340   22.5490  -28.9860 C   0  0  0  0  0  0  0  0  0  0  0  0
   -3.8617   21.8726  -29.8440 H   0  0  0  0  0  0  0  0  0  0  0  0
   -3.8570   24.0310  -29.2270 C   0  0  0  0  0  0  0  0  0  0  0  0
   -2.9115   24.5204  -28.9503 H   0  0  0  0  0  0  0  0  0  0  0  0
   -4.6844   24.4188  -28.6147 H   0  0  0  0  0  0  0  0  0  0  0  0
   -4.1500   24.3130  -30.6500 N   0  0  0  0  0  0  0  0  0  0  0  0
   -4.2660   23.0820  -31.4730 C   0  0  0  0  0  0  0  0  0  0  0  0
   -3.6961   22.2794  -30.9820 H   0  0  0  0  0  0  0  0  0  0  0  0
   -3.8719   23.3211  -32.4718 H   0  0  0  0  0  0  0  0  0  0  0  0
   -5.7190   22.6050  -31.6600 C   0  0  0  0  0  0  0  0  0  0  0  0
   -5.7390   21.5064  -31.7112 H   0  0  0  0  0  0  0  0  0  0  0  0
   -6.1227   23.0269  -32.5923 H   0  0  0  0  0  0  0  0  0  0  0  0
   -6.5410   23.0560  -30.5270 N   0  0  0  0  0  0  0  0  0  0  0  0
   -7.8460   22.3680  -30.4160 C   0  0  0  0  0  0  0  0  0  0  0  0
   -8.5372   23.0281  -29.8714 H   0  0  0  0  0  0  0  0  0  0  0  0
   -7.6559   21.4190  -29.8933 H   0  0  0  0  0  0  0  0  0  0  0  0
   -8.4940   22.0020  -31.7690 C   0  0  0  0  0  0  0  0  0  0  0  0
   -8.1083   22.6737  -32.5501 H   0  0  0  0  0  0  0  0  0  0  0  0
   -9.5854   22.1108  -31.6853 H   0  0  0  0  0  0  0  0  0  0  0  0
   -8.1690   20.5780  -32.1330 C   0  0  0  0  0  0  0  0  0  0  0  0
   -8.7990   19.5170  -31.4640 C   0  0  0  0  0  0  0  0  0  0  0  0
   -9.5527   19.7268  -30.6907 H   0  0  0  0  0  0  0  0  0  0  0  0
   -8.4720   18.1960  -31.7770 C   0  0  0  0  0  0  0  0  0  0  0  0
   -8.9746   17.3681  -31.2554 H   0  0  0  0  0  0  0  0  0  0  0  0
   -7.5080   17.9230  -32.7510 C   0  0  0  0  0  0  0  0  0  0  0  0
   -7.2592   16.8799  -32.9958 H   0  0  0  0  0  0  0  0  0  0  0  0
   -6.8570   18.9670  -33.4170 C   0  0  0  0  0  0  0  0  0  0  0  0
   -5.8900   18.6400  -34.3800 O   0  0  0  0  0  0  0  0  0  0  0  0
   -5.3800   17.3270  -34.5950 C   0  0  0  0  0  0  0  0  0  0  0  0
   -5.1921   16.8433  -33.6251 H   0  0  0  0  0  0  0  0  0  0  0  0
   -6.1143   16.7369  -35.1629 H   0  0  0  0  0  0  0  0  0  0  0  0
   -4.4399   17.3872  -35.1629 H   0  0  0  0  0  0  0  0  0  0  0  0
   -7.1890   20.2990  -33.1010 C   0  0  0  0  0  0  0  0  0  0  0  0
   -6.6779   21.1262  -33.6153 H   0  0  0  0  0  0  0  0  0  0  0  0
   -6.6510   24.5270  -30.4770 C   0  0  0  0  0  0  0  0  0  0  0  0
   -6.9480   24.8282  -29.4616 H   0  0  0  0  0  0  0  0  0  0  0  0
   -7.4029   24.8406  -31.2162 H   0  0  0  0  0  0  0  0  0  0  0  0
   -5.3120   25.2110  -30.8310 C   0  0  0  0  0  0  0  0  0  0  0  0
   -5.1828   26.0898  -30.1821 H   0  0  0  0  0  0  0  0  0  0  0  0
   -5.3526   25.4940  -31.8932 H   0  0  0  0  0  0  0  0  0  0  0  0
   -2.6150   20.8280  -27.5960 C   0  0  0  0  0  0  0  0  0  0  0  0
   -1.2850   20.8370  -28.0420 C   0  0  0  0  0  0  0  0  0  0  0  0
   -0.8806   21.7277  -28.5451 H   0  0  0  0  0  0  0  0  0  0  0  0
   -0.4720   19.7150  -27.8480 C   0  0  0  0  0  0  0  0  0  0  0  0
    0.5670   19.7196  -28.2093 H   0  0  0  0  0  0  0  0  0  0  0  0
   -0.9800   18.5880  -27.1950 C   0  0  0  0  0  0  0  0  0  0  0  0
   -0.3424   17.7037  -27.0487 H   0  0  0  0  0  0  0  0  0  0  0  0
   -2.2970   18.5840  -26.7280 C   0  0  0  0  0  0  0  0  0  0  0  0
   -2.6930   17.6992  -26.2081 H   0  0  0  0  0  0  0  0  0  0  0  0
   -3.1120   19.7040  -26.9210 C   0  0  0  0  0  0  0  0  0  0  0  0
   -4.1448   19.7031  -26.5426 H   0  0  0  0  0  0  0  0  0  0  0  0
  1  2  1  0
  2  3  2  0
  3  4  1  0
  3  5  1  0
  5  6  1  0
  5  7  1  0
  5  8  1  0
  8  9  1  0
  9 10  1  0
  9 11  1  0
  9 12  1  0
 12 13  1  0
 12 14  1  0
 12 15  1  0
 15 16  1  0
 16 17  1  0
 16 18  1  0
 16 19  1  0
 19 20  1  0
 19 21  1  0
 19 22  1  0
 22 23  2  0
 23 24  1  0
 23 25  1  0
 25 26  1  0
 25 27  2  0
 27 28  1  0
 27 29  1  0
 29 30  1  0
 30 31  1  0
 31 32  1  0
 31 33  1  0
 31 34  1  0
 29 35  2  0
 35 36  1  0
 15 37  1  0
 37 38  1  0
 37 39  1  0
 37 40  1  0
 40 41  1  0
 40 42  1  0
  2 43  1  0
 43 44  2  0
 44 45  1  0
 44 46  1  0
 46 47  1  0
 46 48  2  0
 48 49  1  0
 48 50  1  0
 50 51  1  0
 50 52  2  0
 52 53  1  0
 40  8  1  0
 52 43  1  0
 35 22  1  0
M  END
>  <UniqueID>  (27) 
25

>  <SMILES>  (27) 
COc1cccc(CCN2CCN(C/C=C\c3ccccc3)CC2)c1

>  <Energy>  (27) 
71.62162674917698

>  <Genealogy>  (27) 
COc1cccc(CCN2CCN(C/C=C\c3ccccc3)CC2)c1 (cis-trans isomerization)
COc1cccc(CCN2CCN(C/C=C\c3ccccc3)CC2)c1 (3D coordinates assigned)
COc1cccc(CCN2CCN(C/C=C\c3ccccc3)CC2)c1 (nonaromatic ring conformer: 71.62162674917698 kcal/mol)

>  <smiles>  (27) 
COc1cccc(CCN2CCN(CC=Cc3ccccc3)CC2)c1

>  <score_type>  (27) 
oracle

>  <origin>  (27) 
adg

>  <m_score__min__energy>  (27) 
-8.7699999999999996

>  <m_primary>  (27) 
energy

$$$$
27:0
     RDKit          3D

 45 47  0  0  0  0  0  0  0  0999 V2000
   -5.6040   18.1720  -35.3170 C   0  0  0  0  0  0  0  0  0  0  0  0
   -4.7870   17.4710  -34.2400 C   0  0  0  0  0  0  0  0  0  0  0  0
   -5.3520   17.7020  -32.9500 O   0  0  0  0  0  0  0  0  0  0  0  0
   -6.4430   18.5500  -32.7240 C   0  0  0  0  0  0  0  0  0  0  0  0
   -7.7100   18.1800  -33.0640 N   0  0  0  0  0  0  0  0  0  0  0  0
   -8.7670   18.9760  -32.8530 N   0  0  0  0  0  0  0  0  0  0  0  0
   -8.6360   20.2150  -32.2830 C   0  0  0  0  0  0  0  0  0  0  0  0
   -9.8540   21.0670  -32.0700 C   0  0  0  0  0  0  0  0  0  0  0  0
   -7.3440   20.6240  -31.9080 C   0  0  0  0  0  0  0  0  0  0  0  0
   -6.8420   21.7720  -31.2960 C   0  0  0  0  0  0  0  0  0  0  0  0
   -7.6370   22.9520  -30.8090 C   0  0  0  0  0  0  0  0  0  0  0  0
   -5.4910   21.6580  -31.1790 N   0  0  0  0  0  0  0  0  0  0  0  0
   -4.6000   22.6300  -30.6090 C   0  0  0  0  0  0  0  0  0  0  0  0
   -3.5320   22.2220  -29.7990 C   0  0  0  0  0  0  0  0  0  0  0  0
   -2.6640   23.1670  -29.2460 C   0  0  0  0  0  0  0  0  0  0  0  0
   -2.8550   24.5400  -29.4990 C   0  0  0  0  0  0  0  0  0  0  0  0
   -2.0140   25.5270  -28.9670 O   0  0  0  0  0  0  0  0  0  0  0  0
   -1.4630   25.4920  -27.6550 C   0  0  0  0  0  0  0  0  0  0  0  0
   -3.9240   24.9420  -30.3100 C   0  0  0  0  0  0  0  0  0  0  0  0
   -4.7920   23.9950  -30.8630 C   0  0  0  0  0  0  0  0  0  0  0  0
   -5.1330   20.4550  -31.6980 C   0  0  0  0  0  0  0  0  0  0  0  0
   -3.7280   19.9280  -31.7780 C   0  0  0  0  0  0  0  0  0  0  0  0
   -6.2700   19.8020  -32.1410 C   0  0  0  0  0  0  0  0  0  0  0  0
   -6.3574   18.8184  -34.8432 H   0  0  0  0  0  0  0  0  0  0  0  0
   -4.9375   18.7836  -35.9429 H   0  0  0  0  0  0  0  0  0  0  0  0
   -6.1072   17.4204  -35.9429 H   0  0  0  0  0  0  0  0  0  0  0  0
   -4.7759   16.3896  -34.4413 H   0  0  0  0  0  0  0  0  0  0  0  0
   -3.7627   17.8717  -34.2552 H   0  0  0  0  0  0  0  0  0  0  0  0
   -9.7090   18.6290  -33.1380 H   0  0  0  0  0  0  0  0  0  0  0  0
  -10.0309   21.1907  -30.9914 H   0  0  0  0  0  0  0  0  0  0  0  0
   -9.6969   22.0532  -32.5313 H   0  0  0  0  0  0  0  0  0  0  0  0
  -10.7265   20.5812  -32.5313 H   0  0  0  0  0  0  0  0  0  0  0  0
   -7.6432   22.9612  -29.7091 H   0  0  0  0  0  0  0  0  0  0  0  0
   -7.1798   23.8808  -31.1809 H   0  0  0  0  0  0  0  0  0  0  0  0
   -8.6695   22.8771  -31.1809 H   0  0  0  0  0  0  0  0  0  0  0  0
   -3.3760   21.1519  -29.5974 H   0  0  0  0  0  0  0  0  0  0  0  0
   -1.8284   22.8379  -28.6108 H   0  0  0  0  0  0  0  0  0  0  0  0
   -2.2750   25.5436  -26.9148 H   0  0  0  0  0  0  0  0  0  0  0  0
   -0.9010   24.5563  -27.5182 H   0  0  0  0  0  0  0  0  0  0  0  0
   -0.7871   26.3490  -27.5182 H   0  0  0  0  0  0  0  0  0  0  0  0
   -4.0821   26.0114  -30.5136 H   0  0  0  0  0  0  0  0  0  0  0  0
   -5.6277   24.3223  -31.4990 H   0  0  0  0  0  0  0  0  0  0  0  0
   -3.3335   19.7800  -30.7619 H   0  0  0  0  0  0  0  0  0  0  0  0
   -3.7264   18.9682  -32.3153 H   0  0  0  0  0  0  0  0  0  0  0  0
   -3.0956   20.6500  -32.3153 H   0  0  0  0  0  0  0  0  0  0  0  0
  1  2  1  0
  2  3  1  0
  3  4  1  0
  4  5  2  0
  5  6  1  0
  6  7  2  0
  7  8  1  0
  7  9  1  0
  9 10  2  0
 10 11  1  0
 10 12  1  0
 12 13  1  0
 13 14  2  0
 14 15  1  0
 15 16  2  0
 16 17  1  0
 17 18  1  0
 16 19  1  0
 19 20  2  0
 12 21  1  0
 21 22  1  0
 21 23  2  0
 23  4  1  0
 23  9  1  0
 20 13  1  0
  1 24  1  0
  1 25  1  0
  1 26  1  0
  2 27  1  0
  2 28  1  0
  6 29  1  0
  8 30  1  0
  8 31  1  0
  8 32  1  0
 11 33  1  0
 11 34  1  0
 11 35  1  0
 14 36  1  0
 15 37  1  0
 18 38  1  0
 18 39  1  0
 18 40  1  0
 19 41  1  0
 20 42  1  0
 22 43  1  0
 22 44  1  0
 22 45  1  0
M  CHG  1   6   1
M  END
>  <UniqueID>  (28) 
26

>  <SMILES>  (28) 
CCOc1n[nH+]c(C)c2c(C)n(-c3ccc(OC)cc3)c(C)c12

>  <Energy>  (28) 
85.12226845252785

>  <Genealogy>  (28) 
CCOc1n[nH+]c(C)c2c(C)n(-c3ccc(OC)cc3)c(C)c12 (protonated)
CCOc1n[nH+]c(C)c2c(C)n(-c3ccc(OC)cc3)c(C)c12 (3D coordinates assigned)
CCOc1n[nH+]c(C)c2c(C)n(-c3ccc(OC)cc3)c(C)c12 (optimized conformer: 85.12226845252785 kcal/mol)

>  <smiles>  (28) 
CCOc1nnc(C)c2c(C)n(-c3ccc(OC)cc3)c(C)c12

>  <score_type>  (28) 
oracle

>  <origin>  (28) 
adg

>  <m_score__min__energy>  (28) 
-7.2300000000000004

>  <m_primary>  (28) 
energy

$$$$
28:0
     RDKit          3D

 39 39  0  0  0  0  0  0  0  0999 V2000
   -2.0028   20.4117  -33.5195 H   0  0  0  0  0  0  0  0  0  0  0  0
   -1.9500   21.0340  -32.6140 C   0  0  0  0  0  0  0  0  0  0  0  0
   -3.0170   21.9210  -32.4280 C   0  0  0  0  0  0  0  0  0  0  0  0
   -4.0680   21.9450  -33.4210 N   0  0  0  0  0  0  0  0  0  0  0  0
   -4.5610   22.8680  -33.4550 H   0  0  0  0  0  0  0  0  0  0  0  0
   -3.6260   21.8060  -34.3590 H   0  0  0  0  0  0  0  0  0  0  0  0
   -5.0470   20.8640  -33.2100 C   0  0  0  0  0  0  0  0  0  0  0  0
   -4.5443   20.0300  -32.6984 H   0  0  0  0  0  0  0  0  0  0  0  0
   -5.4294   20.5672  -34.1978 H   0  0  0  0  0  0  0  0  0  0  0  0
   -6.2530   21.3060  -32.3610 C   0  0  0  0  0  0  0  0  0  0  0  0
   -6.2771   20.7147  -31.4338 H   0  0  0  0  0  0  0  0  0  0  0  0
   -7.1720   21.1436  -32.9434 H   0  0  0  0  0  0  0  0  0  0  0  0
   -6.1580   22.7330  -32.0200 N   0  0  0  0  0  0  0  0  0  0  0  0
   -5.3390   22.8510  -31.3790 H   0  0  0  0  0  0  0  0  0  0  0  0
   -7.3560   23.1950  -31.3040 C   0  0  0  0  0  0  0  0  0  0  0  0
   -7.6296   24.1971  -31.6657 H   0  0  0  0  0  0  0  0  0  0  0  0
   -7.1357   23.2270  -30.2268 H   0  0  0  0  0  0  0  0  0  0  0  0
   -8.5220   22.2410  -31.5400 C   0  0  0  0  0  0  0  0  0  0  0  0
   -8.9266   21.9100  -30.5722 H   0  0  0  0  0  0  0  0  0  0  0  0
   -9.3090   22.7576  -32.1090 H   0  0  0  0  0  0  0  0  0  0  0  0
   -8.1715   21.3673  -32.1090 H   0  0  0  0  0  0  0  0  0  0  0  0
   -3.1420   22.7750  -31.3820 N   0  0  0  0  0  0  0  0  0  0  0  0
   -2.4030   23.0610  -30.2800 C   0  0  0  0  0  0  0  0  0  0  0  0
   -2.8350   23.9770  -29.4600 N   0  0  0  0  0  0  0  0  0  0  0  0
   -4.1890   24.0680  -28.9080 C   0  0  0  0  0  0  0  0  0  0  0  0
   -4.6157   23.0568  -28.8346 H   0  0  0  0  0  0  0  0  0  0  0  0
   -4.1303   24.5361  -27.9143 H   0  0  0  0  0  0  0  0  0  0  0  0
   -5.0910   24.9280  -29.7980 C   0  0  0  0  0  0  0  0  0  0  0  0
   -6.1109   24.5164  -29.7798 H   0  0  0  0  0  0  0  0  0  0  0  0
   -5.0820   25.9580  -29.4119 H   0  0  0  0  0  0  0  0  0  0  0  0
   -4.6090   24.9460  -31.1760 N   0  0  0  0  0  0  0  0  0  0  0  0
   -4.9050   24.0550  -31.6360 H   0  0  0  0  0  0  0  0  0  0  0  0
   -3.5640   24.9340  -31.1480 H   0  0  0  0  0  0  0  0  0  0  0  0
   -1.1930   22.4540  -29.9500 C   0  0  0  0  0  0  0  0  0  0  0  0
   -0.7235   22.8086  -29.0206 H   0  0  0  0  0  0  0  0  0  0  0  0
   -0.4980   21.4650  -30.6300 C   0  0  0  0  0  0  0  0  0  0  0  0
    0.4461   21.1409  -30.1678 H   0  0  0  0  0  0  0  0  0  0  0  0
   -0.8360   20.8320  -31.8140 C   0  0  0  0  0  0  0  0  0  0  0  0
   -0.1272   20.0681  -32.1663 H   0  0  0  0  0  0  0  0  0  0  0  0
  1  2  1  0
  2  3  1  0
  3  4  1  0
  4  5  1  0
  4  6  1  0
  4  7  1  0
  7  8  1  0
  7  9  1  0
  7 10  1  0
 10 11  1  0
 10 12  1  0
 10 13  1  0
 13 14  1  0
 13 15  1  0
 15 16  1  0
 15 17  1  0
 15 18  1  0
 18 19  1  0
 18 20  1  0
 18 21  1  0
  3 22  2  0
 22 23  1  0
 23 24  2  0
 24 25  1  0
 25 26  1  0
 25 27  1  0
 25 28  1  0
 28 29  1  0
 28 30  1  0
 28 31  1  0
 31 32  1  0
 31 33  1  0
 23 34  1  0
 34 35  1  0
 34 36  2  0
 36 37  1  0
 36 38  1  0
 38 39  1  0
 38  2  2  0
M  CHG  1   4   1
M  END
>  <UniqueID>  (29) 
27

>  <SMILES>  (29) 
CCNCC[NH2+]c1cccc/c(=N/CCN)n1

>  <Energy>  (29) 
47.432290042516264

>  <Genealogy>  (29) 
CCNCC[NH2+]c1ccccc(=NCCN)n1 (protonated)
CCNCC[NH2+]c1cccc/c(=N/CCN)n1 (cis-trans isomerization)
CCNCC[NH2+]c1cccc/c(=N/CCN)n1 (3D coordinates assigned)
CCNCC[NH2+]c1cccc/c(=N/CCN)n1 (optimized conformer: 47.432290042516264 kcal/mol)

>  <smiles>  (29) 
CCNCCNc1ccccc(=NCCN)n1

>  <score_type>  (29) 
oracle

>  <origin>  (29) 
adg

>  <m_score__min__energy>  (29) 
-4.5199999999999996

>  <m_primary>  (29) 
energy

$$$$
29:0
     RDKit          3D

 61 64  0  0  0  0  0  0  0  0999 V2000
   -6.1660   17.2360  -32.0250 C   0  0  0  0  0  0  0  0  0  0  0  0
   -6.4320   17.7640  -33.3750 N   0  0  0  0  0  0  0  0  0  0  0  0
   -7.1730   19.0530  -33.2980 C   0  0  0  0  0  0  0  0  0  0  0  0
   -7.6360   19.3410  -31.8620 C   0  0  0  0  0  0  0  0  0  0  0  0
   -8.6020   20.5350  -31.7520 C   0  0  0  0  0  0  0  0  0  0  0  0
   -7.8970   21.8360  -31.4430 C   0  0  0  0  0  0  0  0  0  0  0  0
   -7.2970   22.5840  -32.4730 C   0  0  0  0  0  0  0  0  0  0  0  0
   -6.6340   23.7800  -32.1830 C   0  0  0  0  0  0  0  0  0  0  0  0
   -6.5580   24.2390  -30.8660 C   0  0  0  0  0  0  0  0  0  0  0  0
   -7.1330   23.4930  -29.8330 C   0  0  0  0  0  0  0  0  0  0  0  0
   -7.7910   22.2920  -30.1160 C   0  0  0  0  0  0  0  0  0  0  0  0
   -5.1650   17.8680  -34.1440 C   0  0  0  0  0  0  0  0  0  0  0  0
   -4.0260   18.5040  -33.3110 C   0  0  0  0  0  0  0  0  0  0  0  0
   -4.2740   19.8850  -32.8080 N   0  0  1  0  0  0  0  0  0  0  0  0
   -4.3250   19.9670  -31.3280 C   0  0  0  0  0  0  0  0  0  0  0  0
   -4.6830   21.3880  -30.8700 C   0  0  0  0  0  0  0  0  0  0  0  0
   -3.7270   22.4540  -31.4650 C   0  0  1  0  0  0  0  0  0  0  0  0
   -3.0190   23.1900  -30.4030 N   0  0  0  0  0  0  0  0  0  0  0  0
   -3.1310   24.5070  -30.0780 C   0  0  0  0  0  0  0  0  0  0  0  0
   -3.8600   25.3180  -30.7090 O   0  0  0  0  0  0  0  0  0  0  0  0
   -2.3810   24.8840  -29.0130 N   0  0  0  0  0  0  0  0  0  0  0  0
   -1.7790   23.7360  -28.6570 C   0  0  0  0  0  0  0  0  0  0  0  0
   -0.8990   23.5400  -27.5950 C   0  0  0  0  0  0  0  0  0  0  0  0
   -0.4040   22.2400  -27.3840 C   0  0  0  0  0  0  0  0  0  0  0  0
   -0.7990   21.1780  -28.2290 C   0  0  0  0  0  0  0  0  0  0  0  0
   -1.6890   21.4080  -29.2970 C   0  0  0  0  0  0  0  0  0  0  0  0
   -2.1610   22.7120  -29.4820 C   0  0  0  0  0  0  0  0  0  0  0  0
   -2.7100   21.8590  -32.4590 C   0  0  0  0  0  0  0  0  0  0  0  0
   -3.4010   20.9120  -33.4520 C   0  0  0  0  0  0  0  0  0  0  0  0
   -6.5272   17.9530  -31.2731 H   0  0  0  0  0  0  0  0  0  0  0  0
   -6.6882   16.2763  -31.8971 H   0  0  0  0  0  0  0  0  0  0  0  0
   -5.0840   17.0845  -31.8971 H   0  0  0  0  0  0  0  0  0  0  0  0
   -6.5131   19.8670  -33.6326 H   0  0  0  0  0  0  0  0  0  0  0  0
   -8.0609   18.9842  -33.9437 H   0  0  0  0  0  0  0  0  0  0  0  0
   -8.1445   18.4458  -31.4747 H   0  0  0  0  0  0  0  0  0  0  0  0
   -6.7387   19.5981  -31.2799 H   0  0  0  0  0  0  0  0  0  0  0  0
   -9.1360   20.6436  -32.7076 H   0  0  0  0  0  0  0  0  0  0  0  0
   -9.2903   20.3269  -30.9196 H   0  0  0  0  0  0  0  0  0  0  0  0
   -7.3500   22.2257  -33.5117 H   0  0  0  0  0  0  0  0  0  0  0  0
   -6.1709   24.3612  -32.9941 H   0  0  0  0  0  0  0  0  0  0  0  0
   -6.0462   25.1865  -30.6419 H   0  0  0  0  0  0  0  0  0  0  0  0
   -7.0677   23.8516  -28.7951 H   0  0  0  0  0  0  0  0  0  0  0  0
   -8.2278   21.7010  -29.2975 H   0  0  0  0  0  0  0  0  0  0  0  0
   -4.8556   16.8593  -34.4551 H   0  0  0  0  0  0  0  0  0  0  0  0
   -5.3499   18.5160  -35.0134 H   0  0  0  0  0  0  0  0  0  0  0  0
   -3.8446   17.8567  -32.4403 H   0  0  0  0  0  0  0  0  0  0  0  0
   -3.1701   18.5886  -33.9968 H   0  0  0  0  0  0  0  0  0  0  0  0
   -5.2500   20.1050  -33.1250 H   0  0  0  0  0  0  0  0  0  0  0  0
   -3.3416   19.6935  -30.9181 H   0  0  0  0  0  0  0  0  0  0  0  0
   -5.0988   19.2751  -30.9641 H   0  0  0  0  0  0  0  0  0  0  0  0
   -4.6233   21.4319  -29.7725 H   0  0  0  0  0  0  0  0  0  0  0  0
   -5.6999   21.6109  -31.2252 H   0  0  0  0  0  0  0  0  0  0  0  0
   -4.3651   23.1533  -32.0251 H   0  0  0  0  0  0  0  0  0  0  0  0
   -0.6009   24.3742  -26.9428 H   0  0  0  0  0  0  0  0  0  0  0  0
    0.2948   22.0489  -26.5562 H   0  0  0  0  0  0  0  0  0  0  0  0
   -0.4089   20.1649  -28.0517 H   0  0  0  0  0  0  0  0  0  0  0  0
   -2.0020   20.5901  -29.9626 H   0  0  0  0  0  0  0  0  0  0  0  0
   -1.9458   21.2990  -31.9000 H   0  0  0  0  0  0  0  0  0  0  0  0
   -2.2480   22.6825  -33.0232 H   0  0  0  0  0  0  0  0  0  0  0  0
   -2.6239   20.3912  -34.0307 H   0  0  0  0  0  0  0  0  0  0  0  0
   -4.0541   21.5340  -34.0818 H   0  0  0  0  0  0  0  0  0  0  0  0
  1  2  1  0
  2  3  1  0
  3  4  1  0
  4  5  1  0
  5  6  1  0
  6  7  2  0
  7  8  1  0
  8  9  2  0
  9 10  1  0
 10 11  2  0
  2 12  1  0
 12 13  1  0
 13 14  1  0
 14 15  1  0
 15 16  1  0
 16 17  1  0
 17 18  1  0
 18 19  1  0
 19 20  2  0
 19 21  1  0
 21 22  1  0
 22 23  2  0
 23 24  1  0
 24 25  2  0
 25 26  1  0
 26 27  2  0
 17 28  1  0
 28 29  1  0
 11  6  1  0
 29 14  1  0
 27 18  1  0
 27 22  1  0
  1 30  1  0
  1 31  1  0
  1 32  1  0
  3 33  1  0
  3 34  1  0
  4 35  1  0
  4 36  1  0
  5 37  1  0
  5 38  1  0
  7 39  1  0
  8 40  1  0
  9 41  1  0
 10 42  1  0
 11 43  1  0
 12 44  1  0
 12 45  1  0
 13 46  1  0
 13 47  1  0
 14 48  1  6
 15 49  1  0
 15 50  1  0
 16 51  1  0
 16 52  1  0
 17 53  1  6
 23 54  1  0
 24 55  1  0
 25 56  1  0
 26 57  1  0
 28 58  1  0
 28 59  1  0
 29 60  1  0
 29 61  1  0
M  CHG  2  14   1  21  -1
M  END
>  <UniqueID>  (30) 
28

>  <SMILES>  (30) 
CN(CCCc1ccccc1)CC[NH+]1CCC(n2c(=O)[n-]c3ccccc32)CC1

>  <Energy>  (30) 
117.16423765017895

>  <Genealogy>  (30) 
CN(CCCc1ccccc1)CC[NH+]1CCC(n2c(=O)[n-]c3ccccc32)CC1 (protonated)
CN(CCCc1ccccc1)CC[NH+]1CCC(n2c(=O)[n-]c3ccccc32)CC1 (3D coordinates assigned)
CN(CCCc1ccccc1)CC[NH+]1CCC(n2c(=O)[n-]c3ccccc32)CC1 (nonaromatic ring conformer: 117.16423765017895 kcal/mol)

>  <smiles>  (30) 
CN(CCCc1ccccc1)CCN1CCC(n2c(=O)[nH]c3ccccc32)CC1

>  <score_type>  (30) 
oracle

>  <origin>  (30) 
adg

>  <m_score__min__energy>  (30) 
-9.5500000000000007

>  <m_primary>  (30) 
energy

$$$$
30:0
     RDKit          3D

 55 57  0  0  0  0  0  0  0  0999 V2000
   -3.2600   18.9890  -26.4620 C   0  0  0  0  0  0  0  0  0  0  0  0
   -1.9450   19.3170  -27.1640 C   0  0  0  0  0  0  0  0  0  0  0  0
   -2.0950   20.5010  -28.0350 N   0  0  0  0  0  0  0  0  0  0  0  0
   -1.0050   20.7010  -29.0140 C   0  0  0  0  0  0  0  0  0  0  0  0
   -1.3930   20.3210  -30.4420 C   0  0  0  0  0  0  0  0  0  0  0  0
   -2.7040   21.7340  -27.4690 C   0  0  0  0  0  0  0  0  0  0  0  0
   -3.8090   22.3980  -28.3160 C   0  0  0  0  0  0  0  0  0  0  0  0
   -3.9150   21.8050  -29.6060 O   0  0  0  0  0  0  0  0  0  0  0  0
   -4.2680   22.5230  -30.7550 C   0  0  0  0  0  0  0  0  0  0  0  0
   -3.5180   23.4380  -31.1940 O   0  0  0  0  0  0  0  0  0  0  0  0
   -5.5350   22.1990  -31.4470 C   0  0  0  0  0  0  0  0  0  0  0  0
   -6.7240   22.7130  -31.0410 C   0  0  0  0  0  0  0  0  0  0  0  0
   -6.8280   23.7270  -29.9350 C   0  0  0  0  0  0  0  0  0  0  0  0
   -7.9560   22.1730  -31.5580 N   0  0  0  0  0  0  0  0  0  0  0  0
   -8.0200   21.1140  -32.3150 C   0  0  0  0  0  0  0  0  0  0  0  0
   -9.3330   20.3800  -32.4150 C   0  0  0  0  0  0  0  0  0  0  0  0
   -9.1280   18.8460  -32.3670 C   0  0  0  0  0  0  0  0  0  0  0  0
   -7.9950   18.4200  -31.4000 C   0  0  0  0  0  0  0  0  0  0  0  0
   -6.7320   19.2250  -31.6270 C   0  0  0  0  0  0  0  0  0  0  0  0
   -5.7360   18.9950  -30.9580 O   0  0  0  0  0  0  0  0  0  0  0  0
   -6.7650   20.3460  -32.6420 C   0  0  2  0  0  0  0  0  0  0  0  0
   -5.5530   21.3100  -32.6840 C   0  0  2  0  0  0  0  0  0  0  0  0
   -4.2290   20.6730  -33.0760 C   0  0  0  0  0  0  0  0  0  0  0  0
   -3.9880   19.3480  -33.4480 C   0  0  0  0  0  0  0  0  0  0  0  0
   -2.6810   19.1190  -33.8990 C   0  0  0  0  0  0  0  0  0  0  0  0
   -1.8900   20.2560  -33.9280 C   0  0  0  0  0  0  0  0  0  0  0  0
   -2.8220   21.5470  -33.4000 S   0  0  0  0  0  0  0  0  0  0  0  0
   -3.1131   19.0256  -25.3725 H   0  0  0  0  0  0  0  0  0  0  0  0
   -4.0247   19.7239  -26.7538 H   0  0  0  0  0  0  0  0  0  0  0  0
   -3.5899   17.9810  -26.7538 H   0  0  0  0  0  0  0  0  0  0  0  0
   -1.1736   19.5218  -26.4070 H   0  0  0  0  0  0  0  0  0  0  0  0
   -1.6537   18.4574  -27.7855 H   0  0  0  0  0  0  0  0  0  0  0  0
   -0.7164   21.7624  -29.0021 H   0  0  0  0  0  0  0  0  0  0  0  0
   -0.1769   20.0409  -28.7165 H   0  0  0  0  0  0  0  0  0  0  0  0
   -2.1787   19.5515  -30.4161 H   0  0  0  0  0  0  0  0  0  0  0  0
   -1.7683   21.2106  -30.9690 H   0  0  0  0  0  0  0  0  0  0  0  0
   -0.5114   19.9273  -30.9690 H   0  0  0  0  0  0  0  0  0  0  0  0
   -3.1393   21.4756  -26.4924 H   0  0  0  0  0  0  0  0  0  0  0  0
   -1.8879   22.4700  -27.4203 H   0  0  0  0  0  0  0  0  0  0  0  0
   -4.7712   22.2894  -27.7941 H   0  0  0  0  0  0  0  0  0  0  0  0
   -3.5479   23.4584  -28.4477 H   0  0  0  0  0  0  0  0  0  0  0  0
   -6.7755   23.2156  -28.9625 H   0  0  0  0  0  0  0  0  0  0  0  0
   -5.9988   24.4451  -30.0168 H   0  0  0  0  0  0  0  0  0  0  0  0
   -7.7857   24.2619  -30.0168 H   0  0  0  0  0  0  0  0  0  0  0  0
   -9.9764   20.6815  -31.5753 H   0  0  0  0  0  0  0  0  0  0  0  0
   -9.8007   20.6368  -33.3770 H   0  0  0  0  0  0  0  0  0  0  0  0
  -10.0664   18.3765  -32.0369 H   0  0  0  0  0  0  0  0  0  0  0  0
   -8.8405   18.5192  -33.3772 H   0  0  0  0  0  0  0  0  0  0  0  0
   -8.3338   18.5728  -30.3647 H   0  0  0  0  0  0  0  0  0  0  0  0
   -7.7647   17.3608  -31.5873 H   0  0  0  0  0  0  0  0  0  0  0  0
   -6.7319   19.8916  -33.6432 H   0  0  0  0  0  0  0  0  0  0  0  0
   -5.7006   21.9842  -33.5405 H   0  0  0  0  0  0  0  0  0  0  0  0
   -4.7522   18.5588  -33.3921 H   0  0  0  0  0  0  0  0  0  0  0  0
   -2.3163   18.1266  -34.2024 H   0  0  0  0  0  0  0  0  0  0  0  0
   -0.8368   20.3038  -34.2418 H   0  0  0  0  0  0  0  0  0  0  0  0
  1  2  1  0
  2  3  1  0
  3  4  1  0
  4  5  1  0
  3  6  1  0
  6  7  1  0
  7  8  1  0
  8  9  1  0
  9 10  2  0
  9 11  1  0
 11 12  2  0
 12 13  1  0
 12 14  1  0
 14 15  2  0
 15 16  1  0
 16 17  1  0
 17 18  1  0
 18 19  1  0
 19 20  2  0
 19 21  1  0
 21 22  1  0
 22 23  1  0
 23 24  2  0
 24 25  1  0
 25 26  2  0
 26 27  1  0
 22 11  1  0
 27 23  1  0
 21 15  1  0
  1 28  1  0
  1 29  1  0
  1 30  1  0
  2 31  1  0
  2 32  1  0
  4 33  1  0
  4 34  1  0
  5 35  1  0
  5 36  1  0
  5 37  1  0
  6 38  1  0
  6 39  1  0
  7 40  1  0
  7 41  1  0
 13 42  1  0
 13 43  1  0
 13 44  1  0
 16 45  1  0
 16 46  1  0
 17 47  1  0
 17 48  1  0
 18 49  1  0
 18 50  1  0
 21 51  1  6
 22 52  1  6
 24 53  1  0
 25 54  1  0
 26 55  1  0
M  END
>  <UniqueID>  (31) 
29

>  <SMILES>  (31) 
CCN(CC)CCOC(=O)C1=C(C)N=C2CCCC(=O)[C@@H]2[C@@H]1c1cccs1

>  <Energy>  (31) 
108.14937120123778

>  <Genealogy>  (31) 
CCN(CC)CCOC(=O)C1=C(C)N=C2CCCC(=O)[C@@H]2[C@@H]1c1cccs1 (chirality)
CCN(CC)CCOC(=O)C1=C(C)N=C2CCCC(=O)[C@@H]2[C@@H]1c1cccs1 (3D coordinates assigned)
CCN(CC)CCOC(=O)C1=C(C)N=C2CCCC(=O)[C@@H]2[C@@H]1c1cccs1 (nonaromatic ring conformer: 108.14937120123778 kcal/mol)

>  <smiles>  (31) 
CCN(CC)CCOC(=O)C1=C(C)N=C2CCCC(=O)C2C1c1cccs1

>  <score_type>  (31) 
oracle

>  <origin>  (31) 
adg

>  <m_score__min__energy>  (31) 
-8.6899999999999995

>  <m_primary>  (31) 
energy

$$$$
31:0
     RDKit          3D

 41 43  0  0  0  0  0  0  0  0999 V2000
   -3.9190   17.1290  -35.3720 C   0  0  0  0  0  0  0  0  0  0  0  0
   -4.7280   18.2150  -34.9320 O   0  0  0  0  0  0  0  0  0  0  0  0
   -5.4840   18.2100  -33.7500 C   0  0  0  0  0  0  0  0  0  0  0  0
   -5.2480   17.2940  -32.7060 C   0  0  0  0  0  0  0  0  0  0  0  0
   -6.0340   17.3270  -31.5520 C   0  0  0  0  0  0  0  0  0  0  0  0
   -7.0520   18.2730  -31.4210 C   0  0  0  0  0  0  0  0  0  0  0  0
   -7.2830   19.2090  -32.4420 C   0  0  0  0  0  0  0  0  0  0  0  0
   -8.3560   20.2200  -32.3180 C   0  0  0  0  0  0  0  0  0  0  0  0
   -9.6420   19.9620  -32.6340 N   0  0  0  0  0  0  0  0  0  0  0  0
  -10.3220   21.0590  -32.3420 N   0  0  0  0  0  0  0  0  0  0  0  0
   -9.4660   21.9730  -31.8580 C   0  0  0  0  0  0  0  0  0  0  0  0
   -8.2130   21.4790  -31.8330 N   0  0  0  0  0  0  0  0  0  0  0  0
   -7.0190   22.2070  -31.4960 C   0  0  0  0  0  0  0  0  0  0  0  0
   -7.0700   23.2440  -30.5550 C   0  0  0  0  0  0  0  0  0  0  0  0
   -5.9160   23.9540  -30.2220 C   0  0  0  0  0  0  0  0  0  0  0  0
   -4.6860   23.6420  -30.8310 C   0  0  0  0  0  0  0  0  0  0  0  0
   -3.5020   24.3270  -30.5150 O   0  0  0  0  0  0  0  0  0  0  0  0
   -2.4880   23.8290  -29.6480 C   0  0  0  0  0  0  0  0  0  0  0  0
   -4.6270   22.6140  -31.7860 C   0  0  0  0  0  0  0  0  0  0  0  0
   -3.3870   22.3200  -32.3740 O   0  0  0  0  0  0  0  0  0  0  0  0
   -3.1170   21.1510  -33.1420 C   0  0  0  0  0  0  0  0  0  0  0  0
   -5.7990   21.9120  -32.1250 C   0  0  0  0  0  0  0  0  0  0  0  0
   -6.5060   19.1570  -33.6110 C   0  0  0  0  0  0  0  0  0  0  0  0
   -3.5192   16.5923  -34.4990 H   0  0  0  0  0  0  0  0  0  0  0  0
   -4.5267   16.4413  -35.9785 H   0  0  0  0  0  0  0  0  0  0  0  0
   -3.0861   17.5144  -35.9785 H   0  0  0  0  0  0  0  0  0  0  0  0
   -4.4425   16.5508  -32.8000 H   0  0  0  0  0  0  0  0  0  0  0  0
   -5.8501   16.6046  -30.7431 H   0  0  0  0  0  0  0  0  0  0  0  0
   -7.6755   18.2853  -30.5148 H   0  0  0  0  0  0  0  0  0  0  0  0
  -11.3490   21.1770  -32.4840 H   0  0  0  0  0  0  0  0  0  0  0  0
   -9.7483   22.9837  -31.5281 H   0  0  0  0  0  0  0  0  0  0  0  0
   -8.0263   23.5000  -30.0756 H   0  0  0  0  0  0  0  0  0  0  0  0
   -5.9678   24.7630  -29.4785 H   0  0  0  0  0  0  0  0  0  0  0  0
   -2.7937   23.9791  -28.6020 H   0  0  0  0  0  0  0  0  0  0  0  0
   -2.3395   22.7554  -29.8361 H   0  0  0  0  0  0  0  0  0  0  0  0
   -1.5476   24.3678  -29.8361 H   0  0  0  0  0  0  0  0  0  0  0  0
   -2.9217   20.3053  -32.4662 H   0  0  0  0  0  0  0  0  0  0  0  0
   -3.9855   20.9204  -33.7764 H   0  0  0  0  0  0  0  0  0  0  0  0
   -2.2353   21.3246  -33.7764 H   0  0  0  0  0  0  0  0  0  0  0  0
   -5.7586   21.1237  -32.8911 H   0  0  0  0  0  0  0  0  0  0  0  0
   -6.7026   19.8684  -34.4266 H   0  0  0  0  0  0  0  0  0  0  0  0
  1  2  1  0
  2  3  1  0
  3  4  2  0
  4  5  1  0
  5  6  2  0
  6  7  1  0
  7  8  1  0
  8  9  2  0
  9 10  1  0
 10 11  2  0
 11 12  1  0
 12 13  1  0
 13 14  2  0
 14 15  1  0
 15 16  2  0
 16 17  1  0
 17 18  1  0
 16 19  1  0
 19 20  1  0
 20 21  1  0
 19 22  2  0
  7 23  2  0
 23  3  1  0
 12  8  1  0
 22 13  1  0
  1 24  1  0
  1 25  1  0
  1 26  1  0
  4 27  1  0
  5 28  1  0
  6 29  1  0
 10 30  1  0
 11 31  1  0
 14 32  1  0
 15 33  1  0
 18 34  1  0
 18 35  1  0
 18 36  1  0
 21 37  1  0
 21 38  1  0
 21 39  1  0
 22 40  1  0
 23 41  1  0
M  CHG  1  10   1
M  END
>  <UniqueID>  (32) 
30

>  <SMILES>  (32) 
COc1cccc(-c2n[nH+]cn2-c2ccc(OC)c(OC)c2)c1

>  <Energy>  (32) 
84.68825694730414

>  <Genealogy>  (32) 
COc1cccc(-c2n[nH+]cn2-c2ccc(OC)c(OC)c2)c1 (protonated)
COc1cccc(-c2n[nH+]cn2-c2ccc(OC)c(OC)c2)c1 (3D coordinates assigned)
COc1cccc(-c2n[nH+]cn2-c2ccc(OC)c(OC)c2)c1 (optimized conformer: 84.68825694730414 kcal/mol)

>  <smiles>  (32) 
COc1cccc(-c2nncn2-c2ccc(OC)c(OC)c2)c1

>  <score_type>  (32) 
oracle

>  <origin>  (32) 
adg

>  <m_score__min__energy>  (32) 
-7.1399999999999997

>  <m_primary>  (32) 
energy

$$$$
32:0
     RDKit          3D

 45 48  0  0  0  0  0  0  0  0999 V2000
   -9.0820   19.1290  -31.3330 C   0  0  0  0  0  0  0  0  0  0  0  0
   -7.8470   19.1300  -32.1950 C   0  0  0  0  0  0  0  0  0  0  0  0
   -7.2490   17.9050  -32.5350 C   0  0  0  0  0  0  0  0  0  0  0  0
   -6.1060   17.8700  -33.3360 C   0  0  0  0  0  0  0  0  0  0  0  0
   -5.5450   19.0550  -33.8060 C   0  0  0  0  0  0  0  0  0  0  0  0
   -6.1200   20.2820  -33.4730 C   0  0  0  0  0  0  0  0  0  0  0  0
   -7.2640   20.3400  -32.6550 C   0  0  0  0  0  0  0  0  0  0  0  0
   -7.8670   21.6910  -32.3490 C   0  0  0  0  0  0  0  0  0  0  0  0
   -7.0220   22.4200  -31.4100 N   0  0  0  0  0  0  0  0  0  0  0  0
   -5.7010   22.6540  -31.5260 C   0  0  0  0  0  0  0  0  0  0  0  0
   -5.3320   23.4030  -30.4210 C   0  0  0  0  0  0  0  0  0  0  0  0
   -3.9550   23.9970  -30.1450 C   0  0  2  0  0  0  0  0  0  0  0  0
   -3.8650   25.2420  -30.8080 O   0  0  0  0  0  0  0  0  0  0  0  0
   -2.7980   23.0900  -30.6930 C   0  0  0  0  0  0  0  0  0  0  0  0
   -1.8350   22.7290  -29.6220 N   0  0  0  0  0  0  0  0  0  0  0  0
   -1.2550   23.9640  -29.0410 C   0  0  0  0  0  0  0  0  0  0  0  0
   -2.3510   24.8540  -28.3990 C   0  0  0  0  0  0  0  0  0  0  0  0
   -3.7270   24.1860  -28.6090 C   0  0  0  0  0  0  0  0  0  0  0  0
   -3.6630   22.8090  -27.9140 C   0  0  0  0  0  0  0  0  0  0  0  0
   -2.5360   21.9660  -28.5620 C   0  0  0  0  0  0  0  0  0  0  0  0
   -6.4550   23.6130  -29.6970 N   0  0  0  0  0  0  0  0  0  0  0  0
   -7.4610   23.0110  -30.3110 N   0  0  0  0  0  0  0  0  0  0  0  0
   -8.7891   19.1292  -30.2727 H   0  0  0  0  0  0  0  0  0  0  0  0
   -9.6802   20.0267  -31.5484 H   0  0  0  0  0  0  0  0  0  0  0  0
   -9.6787   18.2304  -31.5484 H   0  0  0  0  0  0  0  0  0  0  0  0
   -7.6853   16.9648  -32.1667 H   0  0  0  0  0  0  0  0  0  0  0  0
   -5.6476   16.9046  -33.5964 H   0  0  0  0  0  0  0  0  0  0  0  0
   -4.6472   19.0236  -34.4408 H   0  0  0  0  0  0  0  0  0  0  0  0
   -5.6749   21.2132  -33.8535 H   0  0  0  0  0  0  0  0  0  0  0  0
   -7.9562   22.2684  -33.2810 H   0  0  0  0  0  0  0  0  0  0  0  0
   -8.8605   21.5465  -31.8995 H   0  0  0  0  0  0  0  0  0  0  0  0
   -5.0429   22.3160  -32.3401 H   0  0  0  0  0  0  0  0  0  0  0  0
   -3.2580   25.1400  -31.5870 H   0  0  0  0  0  0  0  0  0  0  0  0
   -3.2324   22.1687  -31.1083 H   0  0  0  0  0  0  0  0  0  0  0  0
   -2.2568   23.6522  -31.4682 H   0  0  0  0  0  0  0  0  0  0  0  0
   -0.5214   23.6868  -28.2697 H   0  0  0  0  0  0  0  0  0  0  0  0
   -0.7738   24.5347  -29.8489 H   0  0  0  0  0  0  0  0  0  0  0  0
   -2.1541   24.9626  -27.3222 H   0  0  0  0  0  0  0  0  0  0  0  0
   -2.3449   25.8486  -28.8689 H   0  0  0  0  0  0  0  0  0  0  0  0
   -4.5477   24.7910  -28.1963 H   0  0  0  0  0  0  0  0  0  0  0  0
   -3.4512   22.9463  -26.8434 H   0  0  0  0  0  0  0  0  0  0  0  0
   -4.6264   22.2907  -28.0290 H   0  0  0  0  0  0  0  0  0  0  0  0
   -1.8103   21.6810  -27.7860 H   0  0  0  0  0  0  0  0  0  0  0  0
   -2.9885   21.0731  -29.0181 H   0  0  0  0  0  0  0  0  0  0  0  0
   -6.5600   24.1730  -28.8240 H   0  0  0  0  0  0  0  0  0  0  0  0
  1  2  1  0
  2  3  2  0
  3  4  1  0
  4  5  2  0
  5  6  1  0
  6  7  2  0
  7  8  1  0
  8  9  1  0
  9 10  1  0
 10 11  2  0
 11 12  1  0
 12 13  1  6
 12 14  1  0
 14 15  1  0
 15 16  1  0
 16 17  1  0
 17 18  1  0
 18 19  1  0
 19 20  1  0
 11 21  1  0
 21 22  2  0
  7  2  1  0
 22  9  1  0
 18 12  1  0
 20 15  1  0
  1 23  1  0
  1 24  1  0
  1 25  1  0
  3 26  1  0
  4 27  1  0
  5 28  1  0
  6 29  1  0
  8 30  1  0
  8 31  1  0
 10 32  1  0
 13 33  1  0
 14 34  1  0
 14 35  1  0
 16 36  1  0
 16 37  1  0
 17 38  1  0
 17 39  1  0
 18 40  1  0
 19 41  1  0
 19 42  1  0
 20 43  1  0
 20 44  1  0
 21 45  1  0
M  CHG  1  21   1
M  END
>  <UniqueID>  (33) 
31

>  <SMILES>  (33) 
Cc1ccccc1Cn1cc([C@]2(O)CN3CCC2CC3)[nH+]n1

>  <Energy>  (33) 
101.81255863761746

>  <Genealogy>  (33) 
Cc1ccccc1Cn1cc(C2(O)CN3CCC2CC3)[nH+]n1 (protonated)
Cc1ccccc1Cn1cc([C@]2(O)CN3CCC2CC3)[nH+]n1 (chirality)
Cc1ccccc1Cn1cc([C@]2(O)CN3CCC2CC3)[nH+]n1 (3D coordinates assigned)
Cc1ccccc1Cn1cc([C@]2(O)CN3CCC2CC3)[nH+]n1 (nonaromatic ring conformer: 101.81255863761746 kcal/mol)

>  <smiles>  (33) 
Cc1ccccc1Cn1cc(C2(O)CN3CCC2CC3)nn1

>  <score_type>  (33) 
oracle

>  <origin>  (33) 
adg

>  <m_score__min__energy>  (33) 
-9.2100000000000009

>  <m_primary>  (33) 
energy

$$$$
33:0
     RDKit          3D

 33 34  0  0  0  0  0  0  0  0999 V2000
   -9.5260   21.9000  -31.4470 C   0  0  0  0  0  0  0  0  0  0  0  0
   -9.0990   20.7850  -31.7620 C   0  0  0  0  0  0  0  0  0  0  0  0
   -8.5840   19.4890  -32.1470 C   0  0  0  0  0  0  0  0  0  0  0  0
   -7.1770   19.4400  -32.1670 N   0  0  0  0  0  0  0  0  0  0  0  0
   -6.6800   18.1500  -32.5380 C   0  0  0  0  0  0  0  0  0  0  0  0
   -6.1090   18.0730  -33.8470 C   0  0  0  0  0  0  0  0  0  0  0  0
   -5.6240   17.9860  -34.9640 C   0  0  0  0  0  0  0  0  0  0  0  0
   -6.5480   20.3950  -33.0370 C   0  0  0  0  0  0  0  0  0  0  0  0
   -5.7970   21.4710  -32.3530 C   0  0  0  0  0  0  0  0  0  0  0  0
   -4.4290   21.3020  -32.1070 C   0  0  0  0  0  0  0  0  0  0  0  0
   -3.6850   22.2930  -31.4750 C   0  0  0  0  0  0  0  0  0  0  0  0
   -2.2160   22.0850  -31.2230 C   0  0  0  0  0  0  0  0  0  0  0  0
   -4.3290   23.4570  -31.0910 C   0  0  0  0  0  0  0  0  0  0  0  0
   -3.8580   24.5550  -30.4750 N   0  0  0  0  0  0  0  0  0  0  0  0
   -4.8560   25.4280  -30.3100 N   0  0  0  0  0  0  0  0  0  0  0  0
   -6.0010   24.8980  -30.8250 C   0  0  0  0  0  0  0  0  0  0  0  0
   -5.6760   23.6640  -31.3140 C   0  0  0  0  0  0  0  0  0  0  0  0
   -6.3780   22.6560  -31.9440 C   0  0  0  0  0  0  0  0  0  0  0  0
   -9.9064   22.8933  -31.1664 H   0  0  0  0  0  0  0  0  0  0  0  0
   -8.9507   18.7391  -31.4306 H   0  0  0  0  0  0  0  0  0  0  0  0
   -8.9349   19.2860  -33.1696 H   0  0  0  0  0  0  0  0  0  0  0  0
   -5.9064   17.8610  -31.8113 H   0  0  0  0  0  0  0  0  0  0  0  0
   -7.5498   17.4766  -32.5433 H   0  0  0  0  0  0  0  0  0  0  0  0
   -5.1870   17.9076  -35.9704 H   0  0  0  0  0  0  0  0  0  0  0  0
   -5.8474   19.8521  -33.6885 H   0  0  0  0  0  0  0  0  0  0  0  0
   -7.3623   20.8917  -33.5849 H   0  0  0  0  0  0  0  0  0  0  0  0
   -3.9344   20.3702  -32.4186 H   0  0  0  0  0  0  0  0  0  0  0  0
   -2.0300   22.0587  -30.1392 H   0  0  0  0  0  0  0  0  0  0  0  0
   -1.8980   21.1329  -31.6728 H   0  0  0  0  0  0  0  0  0  0  0  0
   -1.6462   22.9114  -31.6728 H   0  0  0  0  0  0  0  0  0  0  0  0
   -4.8060   26.3850  -29.8570 H   0  0  0  0  0  0  0  0  0  0  0  0
   -6.9937   25.3714  -30.8435 H   0  0  0  0  0  0  0  0  0  0  0  0
   -7.4522   22.8034  -32.1294 H   0  0  0  0  0  0  0  0  0  0  0  0
  1  2  3  0
  2  3  1  0
  3  4  1  0
  4  5  1  0
  5  6  1  0
  6  7  3  0
  4  8  1  0
  8  9  1  0
  9 10  1  0
 10 11  2  0
 11 12  1  0
 11 13  1  0
 13 14  2  0
 14 15  1  0
 15 16  1  0
 16 17  2  0
 17 18  1  0
 18  9  2  0
 17 13  1  0
  1 19  1  0
  3 20  1  0
  3 21  1  0
  5 22  1  0
  5 23  1  0
  7 24  1  0
  8 25  1  0
  8 26  1  0
 10 27  1  0
 12 28  1  0
 12 29  1  0
 12 30  1  0
 15 31  1  0
 16 32  1  0
 18 33  1  0
M  END
>  <smiles>  (34) 
C#CCN(CC#C)Cc1cc(C)c2n[nH]cc2c1

>  <score_type>  (34) 
oracle

>  <origin>  (34) 
adg

>  <m_score__min__energy>  (34) 
-7.3300000000000001

>  <m_primary>  (34) 
energy

$$$$
34:0
     RDKit          3D

 40 41  0  0  0  0  0  0  0  0999 V2000
   -0.8630   23.2600  -29.5610 C   0  0  0  0  0  0  0  0  0  0  0  0
   -0.4490   24.5170  -28.9170 N   0  0  0  0  0  0  0  0  0  0  0  0
    0.4540   24.2180  -27.7930 C   0  0  0  0  0  0  0  0  0  0  0  0
   -1.6380   25.2710  -28.4590 C   0  0  0  0  0  0  0  0  0  0  0  0
   -2.9360   24.6020  -28.9260 C   0  0  0  0  0  0  0  0  0  0  0  0
   -3.4880   25.2880  -30.0910 N   0  0  0  0  0  0  0  0  0  0  0  0
   -4.7080   24.9060  -30.7370 C   0  0  0  0  0  0  0  0  0  0  0  0
   -5.6130   25.7620  -30.9310 O   0  0  0  0  0  0  0  0  0  0  0  0
   -4.9130   23.5160  -31.1840 C   0  0  0  0  0  0  0  0  0  0  0  0
   -6.1920   22.9370  -31.2040 C   0  0  0  0  0  0  0  0  0  0  0  0
   -6.3430   21.6170  -31.6370 C   0  0  0  0  0  0  0  0  0  0  0  0
   -5.2240   20.8860  -32.0460 C   0  0  0  0  0  0  0  0  0  0  0  0
   -5.3650   19.5270  -32.4940 C   0  0  0  0  0  0  0  0  0  0  0  0
   -5.4840   18.3870  -32.8710 C   0  0  0  0  0  0  0  0  0  0  0  0
   -5.6260   17.0280  -33.3210 C   0  0  0  0  0  0  0  0  0  0  0  0
   -6.8660   16.5660  -33.7800 C   0  0  0  0  0  0  0  0  0  0  0  0
   -7.0030   15.2440  -34.2160 C   0  0  0  0  0  0  0  0  0  0  0  0
   -5.9020   14.3830  -34.1950 C   0  0  0  0  0  0  0  0  0  0  0  0
   -4.6630   14.8410  -33.7370 C   0  0  0  0  0  0  0  0  0  0  0  0
   -3.5960   14.0040  -33.7180 F   0  0  0  0  0  0  0  0  0  0  0  0
   -4.5230   16.1630  -33.3000 C   0  0  0  0  0  0  0  0  0  0  0  0
   -3.9640   21.4940  -32.0130 C   0  0  0  0  0  0  0  0  0  0  0  0
   -3.8390   22.7800  -31.5880 N   0  0  0  0  0  0  0  0  0  0  0  0
   -1.1081   22.5158  -28.7889 H   0  0  0  0  0  0  0  0  0  0  0  0
   -1.7482   23.4433  -30.1877 H   0  0  0  0  0  0  0  0  0  0  0  0
   -0.0421   22.8814  -30.1877 H   0  0  0  0  0  0  0  0  0  0  0  0
   -0.0727   24.3924  -26.8432 H   0  0  0  0  0  0  0  0  0  0  0  0
    0.7723   23.1665  -27.8481 H   0  0  0  0  0  0  0  0  0  0  0  0
    1.3369   24.8717  -27.8481 H   0  0  0  0  0  0  0  0  0  0  0  0
   -1.6329   25.3149  -27.3599 H   0  0  0  0  0  0  0  0  0  0  0  0
   -1.5945   26.2824  -28.8892 H   0  0  0  0  0  0  0  0  0  0  0  0
   -2.7262   23.5552  -29.1908 H   0  0  0  0  0  0  0  0  0  0  0  0
   -3.6704   24.6527  -28.1086 H   0  0  0  0  0  0  0  0  0  0  0  0
   -7.0685   23.5181  -30.8813 H   0  0  0  0  0  0  0  0  0  0  0  0
   -7.3406   21.1540  -31.6559 H   0  0  0  0  0  0  0  0  0  0  0  0
   -7.7327   17.2432  -33.7976 H   0  0  0  0  0  0  0  0  0  0  0  0
   -7.9775   14.8818  -34.5755 H   0  0  0  0  0  0  0  0  0  0  0  0
   -6.0106   13.3439  -34.5392 H   0  0  0  0  0  0  0  0  0  0  0  0
   -3.5479   16.5233  -32.9402 H   0  0  0  0  0  0  0  0  0  0  0  0
   -3.0739   20.9314  -32.3311 H   0  0  0  0  0  0  0  0  0  0  0  0
  1  2  1  0
  2  3  1  0
  2  4  1  0
  4  5  1  0
  5  6  1  0
  6  7  1  0
  7  8  2  0
  7  9  1  0
  9 10  2  0
 10 11  1  0
 11 12  2  0
 12 13  1  0
 13 14  3  0
 14 15  1  0
 15 16  2  0
 16 17  1  0
 17 18  2  0
 18 19  1  0
 19 20  1  0
 19 21  2  0
 12 22  1  0
 22 23  2  0
 23  9  1  0
 21 15  1  0
  1 24  1  0
  1 25  1  0
  1 26  1  0
  3 27  1  0
  3 28  1  0
  3 29  1  0
  4 30  1  0
  4 31  1  0
  5 32  1  0
  5 33  1  0
 10 34  1  0
 11 35  1  0
 16 36  1  0
 17 37  1  0
 18 38  1  0
 21 39  1  0
 22 40  1  0
M  CHG  1   6  -1
M  END
>  <UniqueID>  (35) 
32

>  <SMILES>  (35) 
CN(C)CC[N-]C(=O)c1ccc(C#Cc2cccc(F)c2)cn1

>  <Energy>  (35) 
33.868934504585226

>  <Genealogy>  (35) 
CN(C)CC[N-]C(=O)c1ccc(C#Cc2cccc(F)c2)cn1 (protonated)
CN(C)CC[N-]C(=O)c1ccc(C#Cc2cccc(F)c2)cn1 (3D coordinates assigned)
CN(C)CC[N-]C(=O)c1ccc(C#Cc2cccc(F)c2)cn1 (optimized conformer: 33.868934504585226 kcal/mol)

>  <smiles>  (35) 
CN(C)CCNC(=O)c1ccc(C#Cc2cccc(F)c2)cn1

>  <score_type>  (35) 
oracle

>  <origin>  (35) 
adg

>  <m_score__min__energy>  (35) 
-8.2300000000000004

>  <m_primary>  (35) 
energy

$$$$
35:0
     RDKit          3D

 29 31  0  0  0  0  0  0  0  0999 V2000
   -4.6670   17.2110  -34.5200 C   0  0  0  0  0  0  0  0  0  0  0  0
   -5.6950   17.7350  -33.6310 N   0  0  0  0  0  0  0  0  0  0  0  0
   -6.1230   17.1840  -32.4780 C   0  0  0  0  0  0  0  0  0  0  0  0
   -7.1550   17.9570  -31.9870 C   0  0  0  0  0  0  0  0  0  0  0  0
   -7.3750   18.9660  -32.8540 N   0  0  0  0  0  0  0  0  0  0  0  0
   -8.3300   20.0580  -32.7030 C   0  0  0  0  0  0  0  0  0  0  0  0
   -7.6370   21.2680  -32.1660 C   0  0  0  0  0  0  0  0  0  0  0  0
   -6.2590   21.3970  -31.9940 C   0  0  0  0  0  0  0  0  0  0  0  0
   -5.9110   22.6080  -31.3890 C   0  0  0  0  0  0  0  0  0  0  0  0
   -4.6170   23.0370  -31.0840 C   0  0  0  0  0  0  0  0  0  0  0  0
   -4.4470   24.2870  -30.4640 C   0  0  0  0  0  0  0  0  0  0  0  0
   -5.5630   25.0900  -30.1560 C   0  0  0  0  0  0  0  0  0  0  0  0
   -6.8600   24.6480  -30.4630 C   0  0  0  0  0  0  0  0  0  0  0  0
   -7.0030   23.4070  -31.0790 C   0  0  0  0  0  0  0  0  0  0  0  0
   -8.4200   22.6330  -31.5430 S   0  0  0  0  0  0  0  0  0  0  0  0
   -6.4730   18.8130  -33.8440 C   0  0  0  0  0  0  0  0  0  0  0  0
   -3.8443   16.7916  -33.9223 H   0  0  0  0  0  0  0  0  0  0  0  0
   -5.0981   16.4226  -35.1546 H   0  0  0  0  0  0  0  0  0  0  0  0
   -4.2823   18.0230  -35.1546 H   0  0  0  0  0  0  0  0  0  0  0  0
   -5.7191   16.2746  -32.0091 H   0  0  0  0  0  0  0  0  0  0  0  0
   -7.7036   17.7806  -31.0500 H   0  0  0  0  0  0  0  0  0  0  0  0
   -8.7713   20.2948  -33.6824 H   0  0  0  0  0  0  0  0  0  0  0  0
   -9.1216   19.7530  -32.0028 H   0  0  0  0  0  0  0  0  0  0  0  0
   -5.5292   20.6328  -32.2996 H   0  0  0  0  0  0  0  0  0  0  0  0
   -3.7471   22.4082  -31.3246 H   0  0  0  0  0  0  0  0  0  0  0  0
   -3.4351   24.6409  -30.2174 H   0  0  0  0  0  0  0  0  0  0  0  0
   -5.4176   26.0675  -29.6729 H   0  0  0  0  0  0  0  0  0  0  0  0
   -7.7388   25.2648  -30.2236 H   0  0  0  0  0  0  0  0  0  0  0  0
   -6.3841   19.4818  -34.7128 H   0  0  0  0  0  0  0  0  0  0  0  0
  1  2  1  0
  2  3  1  0
  3  4  2  0
  4  5  1  0
  5  6  1  0
  6  7  1  0
  7  8  2  0
  8  9  1  0
  9 10  2  0
 10 11  1  0
 11 12  2  0
 12 13  1  0
 13 14  2  0
 14 15  1  0
  5 16  1  0
 16  2  2  0
 15  7  1  0
 14  9  1  0
  1 17  1  0
  1 18  1  0
  1 19  1  0
  3 20  1  0
  4 21  1  0
  6 22  1  0
  6 23  1  0
  8 24  1  0
 10 25  1  0
 11 26  1  0
 12 27  1  0
 13 28  1  0
 16 29  1  0
M  CHG  1   2   1
M  END
>  <UniqueID>  (36) 
33

>  <SMILES>  (36) 
C[n+]1ccn(Cc2cc3ccccc3s2)c1

>  <Energy>  (36) 
89.17633998981617

>  <Genealogy>  (36) 
C[n+]1ccn(Cc2cc3ccccc3s2)c1 (3D coordinates assigned)
C[n+]1ccn(Cc2cc3ccccc3s2)c1 (optimized conformer: 89.17633998981617 kcal/mol)

>  <smiles>  (36) 
C[n+]1ccn(Cc2cc3ccccc3s2)c1

>  <score_type>  (36) 
oracle

>  <origin>  (36) 
adg

>  <m_score__min__energy>  (36) 
-6.0199999999999996

>  <m_primary>  (36) 
energy

$$$$
36:0
     RDKit          3D

 36 39  0  0  0  0  0  0  0  0999 V2000
   -8.7350   18.9140  -32.0660 C   0  0  0  0  0  0  0  0  0  0  0  0
   -8.4800   20.0530  -32.8350 C   0  0  0  0  0  0  0  0  0  0  0  0
   -7.1620   20.4510  -33.0800 C   0  0  0  0  0  0  0  0  0  0  0  0
   -6.0870   19.7190  -32.5420 C   0  0  0  0  0  0  0  0  0  0  0  0
   -4.6870   20.1200  -32.8030 C   0  0  0  0  0  0  0  0  0  0  0  0
   -3.8780   19.2370  -33.4520 N   0  0  0  0  0  0  0  0  0  0  0  0
   -2.6040   19.5500  -33.7940 C   0  0  0  0  0  0  0  0  0  0  0  0
   -1.7960   18.6250  -34.4650 C   0  0  0  0  0  0  0  0  0  0  0  0
   -0.4880   18.9730  -34.8200 C   0  0  0  0  0  0  0  0  0  0  0  0
    0.0130   20.2420  -34.5070 C   0  0  0  0  0  0  0  0  0  0  0  0
   -0.7920   21.1690  -33.8360 C   0  0  0  0  0  0  0  0  0  0  0  0
   -2.1000   20.8250  -33.4790 C   0  0  0  0  0  0  0  0  0  0  0  0
   -2.8910   21.7050  -32.8150 N   0  0  0  0  0  0  0  0  0  0  0  0
   -4.1660   21.3930  -32.4510 C   0  0  0  0  0  0  0  0  0  0  0  0
   -4.9280   22.3870  -31.6620 C   0  0  0  0  0  0  0  0  0  0  0  0
   -4.6970   22.5460  -30.2830 C   0  0  0  0  0  0  0  0  0  0  0  0
   -5.4150   23.4990  -29.5540 C   0  0  0  0  0  0  0  0  0  0  0  0
   -6.3560   24.3090  -30.1950 C   0  0  0  0  0  0  0  0  0  0  0  0
   -6.5740   24.1730  -31.5690 C   0  0  0  0  0  0  0  0  0  0  0  0
   -5.8600   23.2210  -32.3020 C   0  0  0  0  0  0  0  0  0  0  0  0
   -6.3550   18.5630  -31.7900 C   0  0  0  0  0  0  0  0  0  0  0  0
   -7.6740   18.1680  -31.5480 C   0  0  0  0  0  0  0  0  0  0  0  0
   -9.7721   18.6050  -31.8687 H   0  0  0  0  0  0  0  0  0  0  0  0
   -9.3163   20.6364  -33.2476 H   0  0  0  0  0  0  0  0  0  0  0  0
   -6.9645   21.3405  -33.6962 H   0  0  0  0  0  0  0  0  0  0  0  0
   -2.1880   17.6275  -34.7126 H   0  0  0  0  0  0  0  0  0  0  0  0
    0.1486   18.2469  -35.3468 H   0  0  0  0  0  0  0  0  0  0  0  0
    1.0416   20.5110  -34.7891 H   0  0  0  0  0  0  0  0  0  0  0  0
   -0.3973   22.1658  -33.5898 H   0  0  0  0  0  0  0  0  0  0  0  0
   -3.9489   21.9183  -29.7767 H   0  0  0  0  0  0  0  0  0  0  0  0
   -5.2388   23.6112  -28.4740 H   0  0  0  0  0  0  0  0  0  0  0  0
   -6.9250   25.0533  -29.6186 H   0  0  0  0  0  0  0  0  0  0  0  0
   -7.3091   24.8166  -32.0744 H   0  0  0  0  0  0  0  0  0  0  0  0
   -6.0285   23.1243  -33.3847 H   0  0  0  0  0  0  0  0  0  0  0  0
   -5.5227   17.9656  -31.3895 H   0  0  0  0  0  0  0  0  0  0  0  0
   -7.8765   17.2682  -30.9486 H   0  0  0  0  0  0  0  0  0  0  0  0
  1  2  2  0
  2  3  1  0
  3  4  2  0
  4  5  1  0
  5  6  2  0
  6  7  1  0
  7  8  2  0
  8  9  1  0
  9 10  2  0
 10 11  1  0
 11 12  2  0
 12 13  1  0
 13 14  2  0
 14 15  1  0
 15 16  2  0
 16 17  1  0
 17 18  2  0
 18 19  1  0
 19 20  2  0
  4 21  1  0
 21 22  2  0
 22  1  1  0
 14  5  1  0
 20 15  1  0
 12  7  1  0
  1 23  1  0
  2 24  1  0
  3 25  1  0
  8 26  1  0
  9 27  1  0
 10 28  1  0
 11 29  1  0
 16 30  1  0
 17 31  1  0
 18 32  1  0
 19 33  1  0
 20 34  1  0
 21 35  1  0
 22 36  1  0
M  END
>  <UniqueID>  (37) 
34

>  <SMILES>  (37) 
c1ccc(-c2nc3ccccc3nc2-c2ccccc2)cc1

>  <Energy>  (37) 
56.11856811355952

>  <Genealogy>  (37) 
c1ccc(-c2nc3ccccc3nc2-c2ccccc2)cc1 (3D coordinates assigned)
c1ccc(-c2nc3ccccc3nc2-c2ccccc2)cc1 (optimized conformer: 56.11856811355952 kcal/mol)

>  <smiles>  (37) 
c1ccc(-c2nc3ccccc3nc2-c2ccccc2)cc1

>  <score_type>  (37) 
oracle

>  <origin>  (37) 
adg

>  <m_score__min__energy>  (37) 
-7.9299999999999997

>  <m_primary>  (37) 
energy

$$$$
37:0
     RDKit          3D

 40 40  0  0  0  0  0  0  0  0999 V2000
   -3.2060   24.1480  -29.7470 C   0  0  0  0  0  0  0  0  0  0  0  0
   -4.0640   24.4890  -30.8310 O   0  0  0  0  0  0  0  0  0  0  0  0
   -5.2130   23.7670  -31.1890 C   0  0  0  0  0  0  0  0  0  0  0  0
   -5.0560   22.5930  -31.9340 C   0  0  0  0  0  0  0  0  0  0  0  0
   -6.1690   21.8390  -32.3170 C   0  0  0  0  0  0  0  0  0  0  0  0
   -7.4620   22.2590  -31.9660 C   0  0  0  0  0  0  0  0  0  0  0  0
   -8.6570   21.4290  -32.3430 C   0  0  0  0  0  0  0  0  0  0  0  0
   -8.2090   20.1160  -32.8210 N   0  0  0  0  0  0  0  0  0  0  0  0
   -8.9680   19.0090  -32.2180 C   0  0  0  0  0  0  0  0  0  0  0  0
   -8.0670   17.8120  -31.8400 C   0  0  0  0  0  0  0  0  0  0  0  0
   -6.6610   18.0340  -32.2310 N   0  0  0  0  0  0  0  0  0  0  0  0
   -6.3060   17.2860  -33.4530 C   0  0  0  0  0  0  0  0  0  0  0  0
   -5.7620   18.2030  -34.5720 C   0  0  2  0  0  0  0  0  0  0  0  0
   -4.2340   18.2580  -34.5880 C   0  0  0  0  0  0  0  0  0  0  0  0
   -6.2720   19.5040  -34.4410 O   0  0  0  0  0  0  0  0  0  0  0  0
   -7.6220   23.4260  -31.2050 C   0  0  0  0  0  0  0  0  0  0  0  0
   -6.5090   24.1800  -30.8230 C   0  0  0  0  0  0  0  0  0  0  0  0
   -3.7188   24.3518  -28.7954 H   0  0  0  0  0  0  0  0  0  0  0  0
   -2.9499   23.0797  -29.8041 H   0  0  0  0  0  0  0  0  0  0  0  0
   -2.2865   24.7490  -29.8041 H   0  0  0  0  0  0  0  0  0  0  0  0
   -4.0475   22.2604  -32.2209 H   0  0  0  0  0  0  0  0  0  0  0  0
   -6.0314   20.9135  -32.8953 H   0  0  0  0  0  0  0  0  0  0  0  0
   -9.3045   21.2977  -31.4635 H   0  0  0  0  0  0  0  0  0  0  0  0
   -9.2198   21.9370  -33.1400 H   0  0  0  0  0  0  0  0  0  0  0  0
   -8.3060   20.0770  -33.8620 H   0  0  0  0  0  0  0  0  0  0  0  0
   -9.4662   19.3767  -31.3088 H   0  0  0  0  0  0  0  0  0  0  0  0
   -9.6963   18.6574  -32.9636 H   0  0  0  0  0  0  0  0  0  0  0  0
   -8.1136   17.6621  -30.7513 H   0  0  0  0  0  0  0  0  0  0  0  0
   -8.4342   16.9263  -32.3792 H   0  0  0  0  0  0  0  0  0  0  0  0
   -6.4830   19.0570  -32.3580 H   0  0  0  0  0  0  0  0  0  0  0  0
   -6.0570   17.6950  -31.4470 H   0  0  0  0  0  0  0  0  0  0  0  0
   -5.5354   16.5429  -33.2002 H   0  0  0  0  0  0  0  0  0  0  0  0
   -7.2220   16.8072  -33.8294 H   0  0  0  0  0  0  0  0  0  0  0  0
   -6.0972   17.7666  -35.5245 H   0  0  0  0  0  0  0  0  0  0  0  0
   -3.8567   18.2716  -33.5548 H   0  0  0  0  0  0  0  0  0  0  0  0
   -3.8407   17.3734  -35.1104 H   0  0  0  0  0  0  0  0  0  0  0  0
   -3.9053   19.1686  -35.1104 H   0  0  0  0  0  0  0  0  0  0  0  0
   -7.2420   19.4550  -34.6520 H   0  0  0  0  0  0  0  0  0  0  0  0
   -8.6300   23.7500  -30.9068 H   0  0  0  0  0  0  0  0  0  0  0  0
   -6.6455   25.0992  -30.2344 H   0  0  0  0  0  0  0  0  0  0  0  0
  1  2  1  0
  2  3  1  0
  3  4  2  0
  4  5  1  0
  5  6  2  0
  6  7  1  0
  7  8  1  0
  8  9  1  0
  9 10  1  0
 10 11  1  0
 11 12  1  0
 12 13  1  0
 13 14  1  0
 13 15  1  0
  6 16  1  0
 16 17  2  0
 17  3  1  0
  1 18  1  0
  1 19  1  0
  1 20  1  0
  4 21  1  0
  5 22  1  0
  7 23  1  0
  7 24  1  0
  8 25  1  0
  9 26  1  0
  9 27  1  0
 10 28  1  0
 10 29  1  0
 11 30  1  0
 11 31  1  0
 12 32  1  0
 12 33  1  0
 13 34  1  6
 14 35  1  0
 14 36  1  0
 14 37  1  0
 15 38  1  0
 16 39  1  0
 17 40  1  0
M  CHG  1  11   1
M  END
>  <UniqueID>  (38) 
35

>  <SMILES>  (38) 
COc1ccc(CNCC[NH2+]C[C@H](C)O)cc1

>  <Energy>  (38) 
33.048214375163425

>  <Genealogy>  (38) 
COc1ccc(CNCC[NH2+]CC(C)O)cc1 (protonated)
COc1ccc(CNCC[NH2+]C[C@H](C)O)cc1 (chirality)
COc1ccc(CNCC[NH2+]C[C@H](C)O)cc1 (3D coordinates assigned)
COc1ccc(CNCC[NH2+]C[C@H](C)O)cc1 (optimized conformer: 33.048214375163425 kcal/mol)

>  <smiles>  (38) 
COc1ccc(CNCCNCC(C)O)cc1

>  <score_type>  (38) 
oracle

>  <origin>  (38) 
adg

>  <m_score__min__energy>  (38) 
-5.1600000000000001

>  <m_primary>  (38) 
energy

$$$$
38:0
     RDKit          3D

 59 62  0  0  0  0  0  0  0  0999 V2000
    4.6230   21.4920  -35.8690 C   0  0  0  0  0  0  0  0  0  0  0  0
    3.1700   21.4230  -35.5030 C   0  0  0  0  0  0  0  0  0  0  0  0
    2.2820   22.4150  -35.9460 C   0  0  0  0  0  0  0  0  0  0  0  0
    0.9210   22.3360  -35.6380 C   0  0  0  0  0  0  0  0  0  0  0  0
    0.4270   21.2570  -34.8900 C   0  0  0  0  0  0  0  0  0  0  0  0
   -0.9020   21.1750  -34.5850 N   0  0  0  0  0  0  0  0  0  0  0  0
   -1.4140   20.1310  -33.8660 C   0  0  0  0  0  0  0  0  0  0  0  0
   -2.8230   20.0850  -33.5520 N   0  0  0  0  0  0  0  0  0  0  0  0
   -3.6030   18.8780  -33.8580 C   0  0  0  0  0  0  0  0  0  0  0  0
   -5.0910   19.2170  -34.0170 C   0  0  0  0  0  0  0  0  0  0  0  0
   -5.6400   19.9430  -32.8470 N   0  0  0  0  0  0  0  0  0  0  0  0
   -6.5180   19.1280  -31.9760 C   0  0  0  0  0  0  0  0  0  0  0  0
   -7.6050   19.9530  -31.2350 C   0  0  0  0  0  0  0  0  0  0  0  0
   -8.6740   20.4720  -32.1170 N   0  0  0  0  0  0  0  0  0  0  0  0
   -9.4930   19.4070  -32.7180 C   0  0  0  0  0  0  0  0  0  0  0  0
   -9.5150   21.4890  -31.4650 C   0  0  0  0  0  0  0  0  0  0  0  0
   -4.6850   20.8070  -32.1050 C   0  0  2  0  0  0  0  0  0  0  0  0
   -5.4050   22.0230  -31.5590 C   0  0  0  0  0  0  0  0  0  0  0  0
   -5.1220   22.5010  -30.2660 C   0  0  0  0  0  0  0  0  0  0  0  0
   -5.7930   23.6210  -29.7660 C   0  0  0  0  0  0  0  0  0  0  0  0
   -6.7540   24.2690  -30.5460 C   0  0  0  0  0  0  0  0  0  0  0  0
   -7.0450   23.7980  -31.8290 C   0  0  0  0  0  0  0  0  0  0  0  0
   -6.3760   22.6790  -32.3340 C   0  0  0  0  0  0  0  0  0  0  0  0
   -3.5040   21.2550  -32.9850 C   0  0  0  0  0  0  0  0  0  0  0  0
   -0.5530   19.1110  -33.4250 C   0  0  0  0  0  0  0  0  0  0  0  0
    0.8080   19.1700  -33.7240 C   0  0  0  0  0  0  0  0  0  0  0  0
    1.3130   20.2460  -34.4590 C   0  0  0  0  0  0  0  0  0  0  0  0
    2.6780   20.3310  -34.7720 C   0  0  0  0  0  0  0  0  0  0  0  0
    5.2310   21.5209  -34.9527 H   0  0  0  0  0  0  0  0  0  0  0  0
    4.8944   20.6057  -36.4613 H   0  0  0  0  0  0  0  0  0  0  0  0
    4.8092   22.4000  -36.4613 H   0  0  0  0  0  0  0  0  0  0  0  0
    2.6596   23.2606  -36.5397 H   0  0  0  0  0  0  0  0  0  0  0  0
    0.2345   23.1230  -35.9835 H   0  0  0  0  0  0  0  0  0  0  0  0
   -1.5450   21.9240  -34.9270 H   0  0  0  0  0  0  0  0  0  0  0  0
   -3.2316   18.4364  -34.7945 H   0  0  0  0  0  0  0  0  0  0  0  0
   -3.4904   18.1653  -33.0277 H   0  0  0  0  0  0  0  0  0  0  0  0
   -5.2153   19.8454  -34.9112 H   0  0  0  0  0  0  0  0  0  0  0  0
   -5.6403   18.2683  -34.1073 H   0  0  0  0  0  0  0  0  0  0  0  0
   -7.0200   18.3729  -32.5987 H   0  0  0  0  0  0  0  0  0  0  0  0
   -5.8758   18.6779  -31.2047 H   0  0  0  0  0  0  0  0  0  0  0  0
   -8.0680   19.3090  -30.4728 H   0  0  0  0  0  0  0  0  0  0  0  0
   -7.0988   20.8278  -30.8007 H   0  0  0  0  0  0  0  0  0  0  0  0
   -9.9552   18.8060  -31.9210 H   0  0  0  0  0  0  0  0  0  0  0  0
  -10.2799   19.8570  -33.3411 H   0  0  0  0  0  0  0  0  0  0  0  0
   -8.8560   18.7620  -33.3411 H   0  0  0  0  0  0  0  0  0  0  0  0
   -9.4317   21.3883  -30.3728 H   0  0  0  0  0  0  0  0  0  0  0  0
   -9.1787   22.4917  -31.7675 H   0  0  0  0  0  0  0  0  0  0  0  0
  -10.5630   21.3470  -31.7675 H   0  0  0  0  0  0  0  0  0  0  0  0
   -4.2762   20.2097  -31.2767 H   0  0  0  0  0  0  0  0  0  0  0  0
   -4.3697   21.9913  -29.6461 H   0  0  0  0  0  0  0  0  0  0  0  0
   -5.5638   23.9928  -28.7564 H   0  0  0  0  0  0  0  0  0  0  0  0
   -7.2813   25.1496  -30.1503 H   0  0  0  0  0  0  0  0  0  0  0  0
   -7.8018   24.3085  -32.4427 H   0  0  0  0  0  0  0  0  0  0  0  0
   -6.6111   22.3103  -33.3433 H   0  0  0  0  0  0  0  0  0  0  0  0
   -3.8794   21.8885  -33.8022 H   0  0  0  0  0  0  0  0  0  0  0  0
   -2.7910   21.8217  -32.3682 H   0  0  0  0  0  0  0  0  0  0  0  0
   -0.9526   18.2666  -32.8443 H   0  0  0  0  0  0  0  0  0  0  0  0
    1.4825   18.3712  -33.3820 H   0  0  0  0  0  0  0  0  0  0  0  0
    3.3656   19.5380  -34.4429 H   0  0  0  0  0  0  0  0  0  0  0  0
  1  2  1  0
  2  3  2  0
  3  4  1  0
  4  5  2  0
  5  6  1  0
  6  7  2  0
  7  8  1  0
  8  9  1  0
  9 10  1  0
 10 11  1  0
 11 12  1  0
 12 13  1  0
 13 14  1  0
 14 15  1  0
 14 16  1  0
 11 17  1  0
 17 18  1  0
 18 19  2  0
 19 20  1  0
 20 21  2  0
 21 22  1  0
 22 23  2  0
 17 24  1  0
  7 25  1  0
 25 26  2  0
 26 27  1  0
 27 28  2  0
 28  2  1  0
 27  5  1  0
 24  8  1  0
 23 18  1  0
  1 29  1  0
  1 30  1  0
  1 31  1  0
  3 32  1  0
  4 33  1  0
  6 34  1  0
  9 35  1  0
  9 36  1  0
 10 37  1  0
 10 38  1  0
 12 39  1  0
 12 40  1  0
 13 41  1  0
 13 42  1  0
 15 43  1  0
 15 44  1  0
 15 45  1  0
 16 46  1  0
 16 47  1  0
 16 48  1  0
 17 49  1  1
 19 50  1  0
 20 51  1  0
 21 52  1  0
 22 53  1  0
 23 54  1  0
 24 55  1  0
 24 56  1  0
 25 57  1  0
 26 58  1  0
 28 59  1  0
M  CHG  1   6   1
M  END
>  <UniqueID>  (39) 
36

>  <SMILES>  (39) 
Cc1ccc2[nH+]c(N3CCN(CCN(C)C)[C@H](c4ccccc4)C3)ccc2c1

>  <Energy>  (39) 
79.04339863573276

>  <Genealogy>  (39) 
Cc1ccc2[nH+]c(N3CCN(CCN(C)C)C(c4ccccc4)C3)ccc2c1 (protonated)
Cc1ccc2[nH+]c(N3CCN(CCN(C)C)[C@H](c4ccccc4)C3)ccc2c1 (chirality)
Cc1ccc2[nH+]c(N3CCN(CCN(C)C)[C@H](c4ccccc4)C3)ccc2c1 (3D coordinates assigned)
Cc1ccc2[nH+]c(N3CCN(CCN(C)C)[C@H](c4ccccc4)C3)ccc2c1 (nonaromatic ring conformer: 79.04339863573276 kcal/mol)

>  <smiles>  (39) 
Cc1ccc2nc(N3CCN(CCN(C)C)C(c4ccccc4)C3)ccc2c1

>  <score_type>  (39) 
oracle

>  <origin>  (39) 
adg

>  <m_score__min__energy>  (39) 
-8.1600000000000001

>  <m_primary>  (39) 
energy

$$$$
39:0
     RDKit          3D

 31 33  0  0  0  0  0  0  0  0999 V2000
   -6.2160   16.1690  -33.9460 C   0  0  0  0  0  0  0  0  0  0  0  0
   -6.1910   17.5210  -34.3930 O   0  0  0  0  0  0  0  0  0  0  0  0
   -6.3430   18.6360  -33.5540 C   0  0  0  0  0  0  0  0  0  0  0  0
   -5.1970   19.3320  -33.1610 C   0  0  0  0  0  0  0  0  0  0  0  0
   -5.2890   20.4510  -32.3300 C   0  0  0  0  0  0  0  0  0  0  0  0
   -6.5450   20.9040  -31.8820 C   0  0  0  0  0  0  0  0  0  0  0  0
   -6.7030   22.0320  -31.0430 C   0  0  0  0  0  0  0  0  0  0  0  0
   -5.5650   22.8820  -30.6250 C   0  0  0  0  0  0  0  0  0  0  0  0
   -5.5770   24.2630  -30.8790 C   0  0  0  0  0  0  0  0  0  0  0  0
   -4.5110   25.0650  -30.4620 C   0  0  0  0  0  0  0  0  0  0  0  0
   -3.4300   24.4970  -29.7800 C   0  0  0  0  0  0  0  0  0  0  0  0
   -2.3710   25.2960  -29.3680 O   0  0  0  0  0  0  0  0  0  0  0  0
   -3.4170   23.1250  -29.5140 C   0  0  0  0  0  0  0  0  0  0  0  0
   -4.4820   22.3190  -29.9290 C   0  0  0  0  0  0  0  0  0  0  0  0
   -7.9890   22.3690  -30.6030 C   0  0  0  0  0  0  0  0  0  0  0  0
   -9.0800   21.6060  -31.0220 C   0  0  0  0  0  0  0  0  0  0  0  0
  -10.2410   21.9070  -30.6400 O   0  0  0  0  0  0  0  0  0  0  0  0
   -8.9050   20.5630  -31.8250 O   0  0  0  0  0  0  0  0  0  0  0  0
   -7.7060   20.1860  -32.2620 C   0  0  0  0  0  0  0  0  0  0  0  0
   -7.6020   19.0690  -33.0960 C   0  0  0  0  0  0  0  0  0  0  0  0
   -6.2164   16.1464  -32.8462 H   0  0  0  0  0  0  0  0  0  0  0  0
   -7.1234   15.6748  -34.3233 H   0  0  0  0  0  0  0  0  0  0  0  0
   -5.3275   15.6416  -34.3233 H   0  0  0  0  0  0  0  0  0  0  0  0
   -4.2100   18.9946  -33.5103 H   0  0  0  0  0  0  0  0  0  0  0  0
   -4.3753   20.9814  -32.0238 H   0  0  0  0  0  0  0  0  0  0  0  0
   -6.4287   24.7154  -31.4082 H   0  0  0  0  0  0  0  0  0  0  0  0
   -4.5222   26.1450  -30.6706 H   0  0  0  0  0  0  0  0  0  0  0  0
   -2.5673   22.6781  -28.9771 H   0  0  0  0  0  0  0  0  0  0  0  0
   -4.4717   21.2411  -29.7099 H   0  0  0  0  0  0  0  0  0  0  0  0
   -8.1381   23.2282  -29.9325 H   0  0  0  0  0  0  0  0  0  0  0  0
   -8.5096   18.5249  -33.3964 H   0  0  0  0  0  0  0  0  0  0  0  0
  1  2  1  0
  2  3  1  0
  3  4  2  0
  4  5  1  0
  5  6  2  0
  6  7  1  0
  7  8  1  0
  8  9  2  0
  9 10  1  0
 10 11  2  0
 11 12  1  0
 11 13  1  0
 13 14  2  0
  7 15  2  0
 15 16  1  0
 16 17  2  0
 16 18  1  0
 18 19  1  0
 19 20  2  0
 20  3  1  0
 19  6  1  0
 14  8  1  0
  1 21  1  0
  1 22  1  0
  1 23  1  0
  4 24  1  0
  5 25  1  0
  9 26  1  0
 10 27  1  0
 13 28  1  0
 14 29  1  0
 15 30  1  0
 20 31  1  0
M  CHG  1  12  -1
M  END
>  <UniqueID>  (40) 
37

>  <SMILES>  (40) 
COc1ccc2c(-c3ccc([O-])cc3)cc(=O)oc2c1

>  <Energy>  (40) 
45.879907430708386

>  <Genealogy>  (40) 
COc1ccc2c(-c3ccc([O-])cc3)cc(=O)oc2c1 (protonated)
COc1ccc2c(-c3ccc([O-])cc3)cc(=O)oc2c1 (3D coordinates assigned)
COc1ccc2c(-c3ccc([O-])cc3)cc(=O)oc2c1 (optimized conformer: 45.879907430708386 kcal/mol)

>  <smiles>  (40) 
COc1ccc2c(-c3ccc(O)cc3)cc(=O)oc2c1

>  <score_type>  (40) 
oracle

>  <origin>  (40) 
adg

>  <m_score__min__energy>  (40) 
-10.31

>  <m_primary>  (40) 
energy

$$$$
40:0
     RDKit          3D

 47 48  0  0  0  0  0  0  0  0999 V2000
   -2.7200   20.8200  -28.1120 C   0  0  0  0  0  0  0  0  0  0  0  0
   -2.5780   22.3380  -28.0240 C   0  0  0  0  0  0  0  0  0  0  0  0
   -2.7870   22.9890  -29.3290 N   0  0  0  0  0  0  0  0  0  0  0  0
   -1.8850   22.6140  -30.4290 C   0  0  0  0  0  0  0  0  0  0  0  0
   -2.6450   21.8680  -31.5240 C   0  0  0  0  0  0  0  0  0  0  0  0
   -3.6960   24.1020  -29.5270 C   0  0  0  0  0  0  0  0  0  0  0  0
   -3.4770   24.9120  -30.4680 O   0  0  0  0  0  0  0  0  0  0  0  0
   -4.9620   24.2990  -28.7260 C   0  0  0  0  0  0  0  0  0  0  0  0
   -5.7790   25.4530  -29.1530 N   0  0  0  0  0  0  0  0  0  0  0  0
   -7.0000   25.0860  -29.8990 C   0  0  0  0  0  0  0  0  0  0  0  0
   -6.8760   23.7460  -30.5930 C   0  0  0  0  0  0  0  0  0  0  0  0
   -7.6180   22.6420  -30.1440 C   0  0  0  0  0  0  0  0  0  0  0  0
   -7.5340   21.4150  -30.8070 C   0  0  0  0  0  0  0  0  0  0  0  0
   -6.6870   21.2610  -31.9180 C   0  0  0  0  0  0  0  0  0  0  0  0
   -6.6190   19.9670  -32.6430 C   0  0  0  0  0  0  0  0  0  0  0  0
   -5.8110   19.8280  -33.7870 C   0  0  0  0  0  0  0  0  0  0  0  0
   -5.7450   18.6060  -34.4650 C   0  0  0  0  0  0  0  0  0  0  0  0
   -6.4840   17.5120  -34.0090 C   0  0  0  0  0  0  0  0  0  0  0  0
   -7.2890   17.6380  -32.8740 C   0  0  0  0  0  0  0  0  0  0  0  0
   -7.3590   18.8560  -32.1950 C   0  0  0  0  0  0  0  0  0  0  0  0
   -5.9070   22.3540  -32.3340 C   0  0  0  0  0  0  0  0  0  0  0  0
   -5.9960   23.5810  -31.6730 C   0  0  0  0  0  0  0  0  0  0  0  0
   -2.7597   20.3960  -27.0978 H   0  0  0  0  0  0  0  0  0  0  0  0
   -3.6456   20.5689  -28.6508 H   0  0  0  0  0  0  0  0  0  0  0  0
   -1.8571   20.4016  -28.6508 H   0  0  0  0  0  0  0  0  0  0  0  0
   -3.3223   22.7235  -27.3117 H   0  0  0  0  0  0  0  0  0  0  0  0
   -1.5542   22.5645  -27.6917 H   0  0  0  0  0  0  0  0  0  0  0  0
   -1.4390   23.5244  -30.8559 H   0  0  0  0  0  0  0  0  0  0  0  0
   -1.1006   21.9531  -30.0317 H   0  0  0  0  0  0  0  0  0  0  0  0
   -3.3580   21.1681  -31.0638 H   0  0  0  0  0  0  0  0  0  0  0  0
   -3.1913   22.5903  -32.1484 H   0  0  0  0  0  0  0  0  0  0  0  0
   -1.9330   21.3084  -32.1484 H   0  0  0  0  0  0  0  0  0  0  0  0
   -5.5742   23.3900  -28.8204 H   0  0  0  0  0  0  0  0  0  0  0  0
   -4.6509   24.4998  -27.6902 H   0  0  0  0  0  0  0  0  0  0  0  0
   -5.2020   26.1490  -29.6720 H   0  0  0  0  0  0  0  0  0  0  0  0
   -6.0860   25.9390  -28.2780 H   0  0  0  0  0  0  0  0  0  0  0  0
   -7.8436   25.0414  -29.1945 H   0  0  0  0  0  0  0  0  0  0  0  0
   -7.1597   25.8499  -30.6742 H   0  0  0  0  0  0  0  0  0  0  0  0
   -8.2701   22.7437  -29.2640 H   0  0  0  0  0  0  0  0  0  0  0  0
   -8.1353   20.5631  -30.4568 H   0  0  0  0  0  0  0  0  0  0  0  0
   -5.2271   20.6864  -34.1507 H   0  0  0  0  0  0  0  0  0  0  0  0
   -5.1105   18.5067  -35.3581 H   0  0  0  0  0  0  0  0  0  0  0  0
   -6.4323   16.5518  -34.5431 H   0  0  0  0  0  0  0  0  0  0  0  0
   -7.8691   16.7754  -32.5144 H   0  0  0  0  0  0  0  0  0  0  0  0
   -7.9969   18.9483  -31.3036 H   0  0  0  0  0  0  0  0  0  0  0  0
   -5.2212   22.2420  -33.1868 H   0  0  0  0  0  0  0  0  0  0  0  0
   -5.3713   24.4246  -32.0017 H   0  0  0  0  0  0  0  0  0  0  0  0
  1  2  1  0
  2  3  1  0
  3  4  1  0
  4  5  1  0
  3  6  1  0
  6  7  2  0
  6  8  1  0
  8  9  1  0
  9 10  1  0
 10 11  1  0
 11 12  2  0
 12 13  1  0
 13 14  2  0
 14 15  1  0
 15 16  2  0
 16 17  1  0
 17 18  2  0
 18 19  1  0
 19 20  2  0
 14 21  1  0
 21 22  2  0
 22 11  1  0
 20 15  1  0
  1 23  1  0
  1 24  1  0
  1 25  1  0
  2 26  1  0
  2 27  1  0
  4 28  1  0
  4 29  1  0
  5 30  1  0
  5 31  1  0
  5 32  1  0
  8 33  1  0
  8 34  1  0
  9 35  1  0
  9 36  1  0
 10 37  1  0
 10 38  1  0
 12 39  1  0
 13 40  1  0
 16 41  1  0
 17 42  1  0
 18 43  1  0
 19 44  1  0
 20 45  1  0
 21 46  1  0
 22 47  1  0
M  CHG  1   9   1
M  END
>  <UniqueID>  (41) 
38

>  <SMILES>  (41) 
CCN(CC)C(=O)C[NH2+]Cc1ccc(-c2ccccc2)cc1

>  <Energy>  (41) 
49.02673766109217

>  <Genealogy>  (41) 
CCN(CC)C(=O)C[NH2+]Cc1ccc(-c2ccccc2)cc1 (protonated)
CCN(CC)C(=O)C[NH2+]Cc1ccc(-c2ccccc2)cc1 (3D coordinates assigned)
CCN(CC)C(=O)C[NH2+]Cc1ccc(-c2ccccc2)cc1 (optimized conformer: 49.02673766109217 kcal/mol)

>  <smiles>  (41) 
CCN(CC)C(=O)CNCc1ccc(-c2ccccc2)cc1

>  <score_type>  (41) 
oracle

>  <origin>  (41) 
adg

>  <m_score__min__energy>  (41) 
-7.6600000000000001

>  <m_primary>  (41) 
energy

$$$$
41:0
     RDKit          3D

 56 58  0  0  0  0  0  0  0  0999 V2000
   -9.0720   22.5580  -31.9640 C   0  0  0  0  0  0  0  0  0  0  0  0
   -9.1390   21.5720  -30.8040 C   0  0  0  0  0  0  0  0  0  0  0  0
   -8.7630   20.1560  -31.2570 C   0  0  0  0  0  0  0  0  0  0  0  0
   -8.4410   20.0800  -32.7550 C   0  0  0  0  0  0  0  0  0  0  0  0
   -7.0720   19.4980  -33.0440 C   0  0  0  0  0  0  0  0  0  0  0  0
   -6.9890   18.2030  -33.4720 N   0  0  0  0  0  0  0  0  0  0  0  0
   -5.7950   17.6370  -33.8190 C   0  0  0  0  0  0  0  0  0  0  0  0
   -5.7010   16.2430  -34.2010 N   0  0  0  0  0  0  0  0  0  0  0  0
   -4.3870   15.6750  -34.5200 C   0  0  0  0  0  0  0  0  0  0  0  0
   -6.8880   15.3780  -34.2110 C   0  0  0  0  0  0  0  0  0  0  0  0
   -4.6700   18.4000  -33.7920 N   0  0  0  0  0  0  0  0  0  0  0  0
   -4.6870   19.6950  -33.3880 C   0  0  0  0  0  0  0  0  0  0  0  0
   -5.8880   20.2630  -32.9230 C   0  0  0  0  0  0  0  0  0  0  0  0
   -5.9000   21.6820  -32.3920 C   0  0  0  0  0  0  0  0  0  0  0  0
   -4.5610   22.1350  -31.9600 N   0  0  0  0  0  0  0  0  0  0  0  0
   -4.0870   21.7280  -30.6020 C   0  0  0  0  0  0  0  0  0  0  0  0
   -3.1140   22.6780  -29.9140 C   0  0  0  0  0  0  0  0  0  0  0  0
   -1.7640   22.2960  -29.8060 C   0  0  0  0  0  0  0  0  0  0  0  0
   -0.8150   23.1490  -29.2450 C   0  0  0  0  0  0  0  0  0  0  0  0
   -1.1830   24.4200  -28.8190 C   0  0  0  0  0  0  0  0  0  0  0  0
   -2.5090   24.8360  -28.9450 C   0  0  0  0  0  0  0  0  0  0  0  0
   -3.4930   23.9720  -29.4660 C   0  0  0  0  0  0  0  0  0  0  0  0
   -4.8990   24.4870  -29.6140 C   0  0  0  0  0  0  0  0  0  0  0  0
   -3.5640   21.9390  -33.0270 C   0  0  0  0  0  0  0  0  0  0  0  0
   -3.3850   20.4560  -33.3750 C   0  0  0  0  0  0  0  0  0  0  0  0
   -9.0024   23.5829  -31.5705 H   0  0  0  0  0  0  0  0  0  0  0  0
   -8.1866   22.3405  -32.5794 H   0  0  0  0  0  0  0  0  0  0  0  0
   -9.9787   22.4623  -32.5794 H   0  0  0  0  0  0  0  0  0  0  0  0
   -8.4402   21.8946  -30.0181 H   0  0  0  0  0  0  0  0  0  0  0  0
  -10.1705   21.5531  -30.4222 H   0  0  0  0  0  0  0  0  0  0  0  0
   -7.8793   19.8280  -30.6899 H   0  0  0  0  0  0  0  0  0  0  0  0
   -9.6304   19.5059  -31.0700 H   0  0  0  0  0  0  0  0  0  0  0  0
   -9.1987   19.4499  -33.2437 H   0  0  0  0  0  0  0  0  0  0  0  0
   -8.4463   21.1095  -33.1425 H   0  0  0  0  0  0  0  0  0  0  0  0
   -7.8690   17.6480  -33.5350 H   0  0  0  0  0  0  0  0  0  0  0  0
   -3.8514   15.4435  -33.5875 H   0  0  0  0  0  0  0  0  0  0  0  0
   -4.5184   14.7533  -35.1059 H   0  0  0  0  0  0  0  0  0  0  0  0
   -3.8056   16.4022  -35.1059 H   0  0  0  0  0  0  0  0  0  0  0  0
   -7.1900   15.1579  -33.1764 H   0  0  0  0  0  0  0  0  0  0  0  0
   -7.7104   15.8900  -34.7320 H   0  0  0  0  0  0  0  0  0  0  0  0
   -6.6525   14.4383  -34.7320 H   0  0  0  0  0  0  0  0  0  0  0  0
   -6.2605   22.3528  -33.1857 H   0  0  0  0  0  0  0  0  0  0  0  0
   -6.5608   21.7048  -31.5129 H   0  0  0  0  0  0  0  0  0  0  0  0
   -4.9707   21.6268  -29.9549 H   0  0  0  0  0  0  0  0  0  0  0  0
   -3.5266   20.7938  -30.7546 H   0  0  0  0  0  0  0  0  0  0  0  0
   -1.4519   21.3063  -30.1709 H   0  0  0  0  0  0  0  0  0  0  0  0
    0.2279   22.8155  -29.1391 H   0  0  0  0  0  0  0  0  0  0  0  0
   -0.4316   25.0955  -28.3841 H   0  0  0  0  0  0  0  0  0  0  0  0
   -2.7902   25.8527  -28.6333 H   0  0  0  0  0  0  0  0  0  0  0  0
   -5.3374   24.6476  -28.6180 H   0  0  0  0  0  0  0  0  0  0  0  0
   -4.8848   25.4383  -30.1661 H   0  0  0  0  0  0  0  0  0  0  0  0
   -5.5026   23.7516  -30.1661 H   0  0  0  0  0  0  0  0  0  0  0  0
   -3.8950   22.4783  -33.9268 H   0  0  0  0  0  0  0  0  0  0  0  0
   -2.5985   22.3244  -32.6673 H   0  0  0  0  0  0  0  0  0  0  0  0
   -2.9254   20.3823  -34.3717 H   0  0  0  0  0  0  0  0  0  0  0  0
   -2.7490   20.0088  -32.5969 H   0  0  0  0  0  0  0  0  0  0  0  0
  1  2  1  0
  2  3  1  0
  3  4  1  0
  4  5  1  0
  5  6  2  0
  6  7  1  0
  7  8  1  0
  8  9  1  0
  8 10  1  0
  7 11  2  0
 11 12  1  0
 12 13  2  0
 13 14  1  0
 14 15  1  0
 15 16  1  0
 16 17  1  0
 17 18  2  0
 18 19  1  0
 19 20  2  0
 20 21  1  0
 21 22  2  0
 22 23  1  0
 15 24  1  0
 24 25  1  0
 13  5  1  0
 22 17  1  0
 25 12  1  0
  1 26  1  0
  1 27  1  0
  1 28  1  0
  2 29  1  0
  2 30  1  0
  3 31  1  0
  3 32  1  0
  4 33  1  0
  4 34  1  0
  6 35  1  0
  9 36  1  0
  9 37  1  0
  9 38  1  0
 10 39  1  0
 10 40  1  0
 10 41  1  0
 14 42  1  0
 14 43  1  0
 16 44  1  0
 16 45  1  0
 18 46  1  0
 19 47  1  0
 20 48  1  0
 21 49  1  0
 23 50  1  0
 23 51  1  0
 23 52  1  0
 24 53  1  0
 24 54  1  0
 25 55  1  0
 25 56  1  0
M  CHG  1   6   1
M  END
>  <UniqueID>  (42) 
39

>  <SMILES>  (42) 
CCCCc1[nH+]c(N(C)C)nc2c1CN(Cc1ccccc1C)CC2

>  <Energy>  (42) 
61.76192832585431

>  <Genealogy>  (42) 
CCCCc1[nH+]c(N(C)C)nc2c1CN(Cc1ccccc1C)CC2 (protonated)
CCCCc1[nH+]c(N(C)C)nc2c1CN(Cc1ccccc1C)CC2 (3D coordinates assigned)
CCCCc1[nH+]c(N(C)C)nc2c1CN(Cc1ccccc1C)CC2 (nonaromatic ring conformer: 61.76192832585431 kcal/mol)

>  <smiles>  (42) 
CCCCc1nc(N(C)C)nc2c1CN(Cc1ccccc1C)CC2

>  <score_type>  (42) 
oracle

>  <origin>  (42) 
adg

>  <m_score__min__energy>  (42) 
-7.4500000000000002

>  <m_primary>  (42) 
energy

$$$$
