0:0
     RDKit          3D

 64 65  0  0  0  0  0  0  0  0999 V2000
   -0.3231   19.6385  -33.8339 H   0  0  0  0  0  0  0  0  0  0  0  0
   -1.3540   19.9020  -33.5550 C   0  0  0  0  0  0  0  0  0  0  0  0
   -1.8290   21.1990  -33.7780 C   0  0  0  0  0  0  0  0  0  0  0  0
   -1.1676   21.9588  -34.2198 H   0  0  0  0  0  0  0  0  0  0  0  0
   -3.1450   21.5290  -33.4390 C   0  0  0  0  0  0  0  0  0  0  0  0
   -3.5129   22.5532  -33.5994 H   0  0  0  0  0  0  0  0  0  0  0  0
   -3.9980   20.5550  -32.8940 C   0  0  0  0  0  0  0  0  0  0  0  0
   -5.3400   20.8840  -32.5180 N   0  0  0  0  0  0  0  0  0  0  0  0
   -5.7110   21.6900  -31.5580 C   0  0  0  0  0  0  0  0  0  0  0  0
   -4.6440   22.2990  -30.7020 C   0  0  0  0  0  0  0  0  0  0  0  0
   -3.7690   21.4720  -29.9700 C   0  0  0  0  0  0  0  0  0  0  0  0
   -3.8596   20.3788  -30.0518 H   0  0  0  0  0  0  0  0  0  0  0  0
   -2.7870   22.0230  -29.1410 C   0  0  0  0  0  0  0  0  0  0  0  0
   -2.1194   21.3593  -28.5720 H   0  0  0  0  0  0  0  0  0  0  0  0
   -2.6450   23.4130  -29.0280 C   0  0  0  0  0  0  0  0  0  0  0  0
   -1.6440   23.9850  -28.1570 N   0  0  0  0  0  0  0  0  0  0  0  0
   -1.8350   25.3350  -27.6060 C   0  0  0  0  0  0  0  0  0  0  0  0
   -2.4286   25.9317  -28.3142 H   0  0  0  0  0  0  0  0  0  0  0  0
   -0.8468   25.7922  -27.4496 H   0  0  0  0  0  0  0  0  0  0  0  0
   -2.5640   25.2820  -26.2640 C   0  0  0  0  0  0  0  0  0  0  0  0
   -1.8305   25.3353  -25.4459 H   0  0  0  0  0  0  0  0  0  0  0  0
   -3.2582   26.1320  -26.1900 H   0  0  0  0  0  0  0  0  0  0  0  0
   -3.1280   24.3405  -26.1900 H   0  0  0  0  0  0  0  0  0  0  0  0
   -0.4290   23.2290  -27.8200 C   0  0  0  0  0  0  0  0  0  0  0  0
   -0.5435   22.7895  -26.8181 H   0  0  0  0  0  0  0  0  0  0  0  0
   -0.2858   22.4373  -28.5701 H   0  0  0  0  0  0  0  0  0  0  0  0
    0.7940   24.1410  -27.8300 C   0  0  0  0  0  0  0  0  0  0  0  0
    1.0934   24.3642  -26.7953 H   0  0  0  0  0  0  0  0  0  0  0  0
    1.6221   23.6382  -28.3509 H   0  0  0  0  0  0  0  0  0  0  0  0
    0.5483   25.0782  -28.3509 H   0  0  0  0  0  0  0  0  0  0  0  0
   -3.5020   24.2430  -29.7670 C   0  0  0  0  0  0  0  0  0  0  0  0
   -3.3949   25.3356  -29.6977 H   0  0  0  0  0  0  0  0  0  0  0  0
   -4.4900   23.6960  -30.5900 C   0  0  0  0  0  0  0  0  0  0  0  0
   -5.1555   24.3633  -31.1572 H   0  0  0  0  0  0  0  0  0  0  0  0
   -7.1820   21.8850  -31.2160 C   0  0  0  0  0  0  0  0  0  0  0  0
   -7.4066   21.3323  -30.2919 H   0  0  0  0  0  0  0  0  0  0  0  0
   -7.3585   22.9636  -31.0920 H   0  0  0  0  0  0  0  0  0  0  0  0
   -8.1150   21.3800  -32.3350 C   0  0  0  0  0  0  0  0  0  0  0  0
   -9.1380   21.3165  -31.9357 H   0  0  0  0  0  0  0  0  0  0  0  0
   -8.0420   22.0930  -33.1695 H   0  0  0  0  0  0  0  0  0  0  0  0
   -7.7290   20.0480  -32.8570 N   0  0  0  0  0  0  0  0  0  0  0  0
   -8.0390   19.9700  -33.8530 H   0  0  0  0  0  0  0  0  0  0  0  0
   -6.6870   19.9520  -32.8640 H   0  0  0  0  0  0  0  0  0  0  0  0
   -8.3010   18.9280  -32.0850 C   0  0  0  0  0  0  0  0  0  0  0  0
   -8.2357   19.1668  -31.0132 H   0  0  0  0  0  0  0  0  0  0  0  0
   -9.3458   18.7975  -32.4035 H   0  0  0  0  0  0  0  0  0  0  0  0
   -7.5590   17.6030  -32.3440 C   0  0  0  0  0  0  0  0  0  0  0  0
   -7.6838   16.9430  -31.4729 H   0  0  0  0  0  0  0  0  0  0  0  0
   -7.9809   17.1313  -33.2437 H   0  0  0  0  0  0  0  0  0  0  0  0
   -6.1250   17.8450  -32.5650 N   0  0  0  0  0  0  0  0  0  0  0  0
   -6.0210   18.8410  -32.8660 H   0  0  0  0  0  0  0  0  0  0  0  0
   -5.6030   17.0000  -33.6480 C   0  0  0  0  0  0  0  0  0  0  0  0
   -4.5661   16.7147  -33.4169 H   0  0  0  0  0  0  0  0  0  0  0  0
   -6.2328   16.1023  -33.7342 H   0  0  0  0  0  0  0  0  0  0  0  0
   -5.6330   17.7560  -34.9790 C   0  0  0  0  0  0  0  0  0  0  0  0
   -4.6147   17.7995  -35.3928 H   0  0  0  0  0  0  0  0  0  0  0  0
   -6.3036   17.2267  -35.6719 H   0  0  0  0  0  0  0  0  0  0  0  0
   -6.1320   19.1160  -34.7880 N   0  0  0  0  0  0  0  0  0  0  0  0
   -7.1550   19.0530  -34.5810 H   0  0  0  0  0  0  0  0  0  0  0  0
   -5.6790   19.5140  -33.9320 H   0  0  0  0  0  0  0  0  0  0  0  0
   -3.5060   19.2690  -32.6400 C   0  0  0  0  0  0  0  0  0  0  0  0
   -4.1568   18.5148  -32.1735 H   0  0  0  0  0  0  0  0  0  0  0  0
   -2.1890   18.9410  -32.9780 C   0  0  0  0  0  0  0  0  0  0  0  0
   -1.8100   17.9257  -32.7895 H   0  0  0  0  0  0  0  0  0  0  0  0
  1  2  1  0
  2  3  2  0
  3  4  1  0
  3  5  1  0
  5  6  1  0
  5  7  2  0
  7  8  1  0
  8  9  2  0
  9 10  1  0
 10 11  2  0
 11 12  1  0
 11 13  1  0
 13 14  1  0
 13 15  2  0
 15 16  1  0
 16 17  1  0
 17 18  1  0
 17 19  1  0
 17 20  1  0
 20 21  1  0
 20 22  1  0
 20 23  1  0
 16 24  1  0
 24 25  1  0
 24 26  1  0
 24 27  1  0
 27 28  1  0
 27 29  1  0
 27 30  1  0
 15 31  1  0
 31 32  1  0
 31 33  2  0
 33 34  1  0
  9 35  1  0
 35 36  1  0
 35 37  1  0
 35 38  1  0
 38 39  1  0
 38 40  1  0
 38 41  1  0
 41 42  1  0
 41 43  1  0
 41 44  1  0
 44 45  1  0
 44 46  1  0
 44 47  1  0
 47 48  1  0
 47 49  1  0
 47 50  1  0
 50 51  1  0
 50 52  1  0
 52 53  1  0
 52 54  1  0
 52 55  1  0
 55 56  1  0
 55 57  1  0
 55 58  1  0
 58 59  1  0
 58 60  1  0
  7 61  1  0
 61 62  1  0
 61 63  2  0
 63 64  1  0
 63  2  1  0
 33 10  1  0
M  CHG  1  41   1
M  END
>  <UniqueID>  (1) 
1

>  <SMILES>  (1) 
CCN(CC)c1ccc(/C(CC[NH2+]CCNCCN)=N/c2ccccc2)cc1

>  <Energy>  (1) 
64.34501291150794

>  <Genealogy>  (1) 
CCN(CC)c1ccc(C(CC[NH2+]CCNCCN)=Nc2ccccc2)cc1 (protonated)
CCN(CC)c1ccc(/C(CC[NH2+]CCNCCN)=N/c2ccccc2)cc1 (cis-trans isomerization)
CCN(CC)c1ccc(/C(CC[NH2+]CCNCCN)=N/c2ccccc2)cc1 (3D coordinates assigned)
CCN(CC)c1ccc(/C(CC[NH2+]CCNCCN)=N/c2ccccc2)cc1 (optimized conformer: 64.34501291150794 kcal/mol)

>  <smiles>  (1) 
CCN(CC)c1ccc(C(CCNCCNCCN)=Nc2ccccc2)cc1

>  <score_type>  (1) 
oracle

>  <origin>  (1) 
adg

>  <m_score__min__energy>  (1) 
-7.1799999999999997

>  <m_primary>  (1) 
energy

$$$$
1:0
     RDKit          3D

 41 43  0  0  0  0  0  0  0  0999 V2000
   -6.4810   25.6210  -29.4920 C   0  0  0  0  0  0  0  0  0  0  0  0
   -5.9770   24.3490  -30.1670 C   0  0  0  0  0  0  0  0  0  0  0  0
   -6.5200   24.1870  -31.5960 C   0  0  0  0  0  0  0  0  0  0  0  0
   -6.6840   22.7620  -31.9560 N   0  0  0  0  0  0  0  0  0  0  0  0
   -5.5800   22.0240  -32.3180 C   0  0  0  0  0  0  0  0  0  0  0  0
   -4.4320   22.5470  -32.3410 O   0  0  0  0  0  0  0  0  0  0  0  0
   -5.7560   20.6900  -32.6760 C   0  0  0  0  0  0  0  0  0  0  0  0
   -7.0050   20.1500  -32.6710 C   0  0  0  0  0  0  0  0  0  0  0  0
   -6.9070   18.8430  -33.1070 C   0  0  0  0  0  0  0  0  0  0  0  0
   -5.5540   18.6500  -33.3710 C   0  0  0  0  0  0  0  0  0  0  0  0
   -4.9950   17.3970  -33.9240 C   0  0  0  0  0  0  0  0  0  0  0  0
   -5.1830   16.1720  -33.2660 C   0  0  0  0  0  0  0  0  0  0  0  0
   -4.6230   15.0060  -33.7910 C   0  0  0  0  0  0  0  0  0  0  0  0
   -3.8690   15.0770  -34.9640 C   0  0  0  0  0  0  0  0  0  0  0  0
   -3.6770   16.2730  -35.5830 N   0  0  0  0  0  0  0  0  0  0  0  0
   -4.2140   17.4220  -35.0880 C   0  0  0  0  0  0  0  0  0  0  0  0
   -4.8430   19.7760  -33.0830 N   0  0  0  0  0  0  0  0  0  0  0  0
   -3.3910   19.9570  -33.1590 C   0  0  0  0  0  0  0  0  0  0  0  0
   -8.1090   20.8590  -32.3060 N   0  0  0  0  0  0  0  0  0  0  0  0
   -9.4370   20.2290  -32.3440 C   0  0  0  0  0  0  0  0  0  0  0  0
   -7.9440   22.1820  -31.9600 C   0  0  0  0  0  0  0  0  0  0  0  0
   -8.9520   22.8760  -31.6510 O   0  0  0  0  0  0  0  0  0  0  0  0
   -6.4331   25.5001  -28.3997 H   0  0  0  0  0  0  0  0  0  0  0  0
   -5.8517   26.4708  -29.7948 H   0  0  0  0  0  0  0  0  0  0  0  0
   -7.5216   25.8092  -29.7948 H   0  0  0  0  0  0  0  0  0  0  0  0
   -4.8783   24.3832  -30.2087 H   0  0  0  0  0  0  0  0  0  0  0  0
   -6.3324   23.4927  -29.5750 H   0  0  0  0  0  0  0  0  0  0  0  0
   -7.4968   24.6879  -31.6660 H   0  0  0  0  0  0  0  0  0  0  0  0
   -5.7976   24.6376  -32.2925 H   0  0  0  0  0  0  0  0  0  0  0  0
   -7.7217   18.1128  -33.2209 H   0  0  0  0  0  0  0  0  0  0  0  0
   -5.7711   16.1305  -32.3373 H   0  0  0  0  0  0  0  0  0  0  0  0
   -4.7743   14.0408  -33.2855 H   0  0  0  0  0  0  0  0  0  0  0  0
   -3.4288   14.1629  -35.3889 H   0  0  0  0  0  0  0  0  0  0  0  0
   -3.1060   16.3110  -36.4560 H   0  0  0  0  0  0  0  0  0  0  0  0
   -4.0339   18.3762  -35.6048 H   0  0  0  0  0  0  0  0  0  0  0  0
   -2.9743   20.0089  -32.1423 H   0  0  0  0  0  0  0  0  0  0  0  0
   -2.9432   19.1077  -33.6959 H   0  0  0  0  0  0  0  0  0  0  0  0
   -3.1654   20.8902  -33.6959 H   0  0  0  0  0  0  0  0  0  0  0  0
   -9.7924   20.0604  -31.3167 H   0  0  0  0  0  0  0  0  0  0  0  0
  -10.1410   20.8891  -32.8719 H   0  0  0  0  0  0  0  0  0  0  0  0
   -9.3711   19.2662  -32.8719 H   0  0  0  0  0  0  0  0  0  0  0  0
  1  2  1  0
  2  3  1  0
  3  4  1  0
  4  5  1  0
  5  6  2  0
  5  7  1  0
  7  8  2  0
  8  9  1  0
  9 10  2  0
 10 11  1  0
 11 12  2  0
 12 13  1  0
 13 14  2  0
 14 15  1  0
 15 16  2  0
 10 17  1  0
 17 18  1  0
  8 19  1  0
 19 20  1  0
 19 21  1  0
 21 22  2  0
 21  4  1  0
 17  7  1  0
 16 11  1  0
  1 23  1  0
  1 24  1  0
  1 25  1  0
  2 26  1  0
  2 27  1  0
  3 28  1  0
  3 29  1  0
  9 30  1  0
 12 31  1  0
 13 32  1  0
 14 33  1  0
 15 34  1  0
 16 35  1  0
 18 36  1  0
 18 37  1  0
 18 38  1  0
 20 39  1  0
 20 40  1  0
 20 41  1  0
M  CHG  1  15   1
M  END
>  <UniqueID>  (2) 
2

>  <SMILES>  (2) 
CCCn1c(=O)c2c(cc(-c3ccc[nH+]c3)n2C)n(C)c1=O

>  <Energy>  (2) 
86.99195893038838

>  <Genealogy>  (2) 
CCCn1c(=O)c2c(cc(-c3ccc[nH+]c3)n2C)n(C)c1=O (protonated)
CCCn1c(=O)c2c(cc(-c3ccc[nH+]c3)n2C)n(C)c1=O (3D coordinates assigned)
CCCn1c(=O)c2c(cc(-c3ccc[nH+]c3)n2C)n(C)c1=O (optimized conformer: 86.99195893038838 kcal/mol)

>  <smiles>  (2) 
CCCn1c(=O)c2c(cc(-c3cccnc3)n2C)n(C)c1=O

>  <score_type>  (2) 
oracle

>  <origin>  (2) 
adg

>  <m_score__min__energy>  (2) 
-6.6799999999999997

>  <m_primary>  (2) 
energy

$$$$
2:0
     RDKit          3D

 25 25  0  0  0  0  0  0  0  0999 V2000
   -9.1490   18.9360  -32.3190 C   0  0  0  0  0  0  0  0  0  0  0  0
   -8.3580   20.1820  -32.7270 C   0  0  0  0  0  0  0  0  0  0  0  0
   -6.9370   20.2670  -32.1140 C   0  0  2  0  0  0  0  0  0  0  0  0
   -6.5190   18.9570  -31.4260 C   0  0  0  0  0  0  0  0  0  0  0  0
   -6.8460   21.6470  -30.8910 S   0  0  0  0  0  0  0  0  0  0  0  0
   -5.6680   22.5320  -31.9160 C   0  0  0  0  0  0  0  0  0  0  0  0
   -5.2910   23.7630  -31.7260 N   0  0  0  0  0  0  0  0  0  0  0  0
   -4.6770   24.3330  -30.5590 C   0  0  0  0  0  0  0  0  0  0  0  0
   -4.8930   23.7840  -29.1810 C   0  0  0  0  0  0  0  0  0  0  0  0
   -3.8860   25.3000  -30.7050 O   0  0  0  0  0  0  0  0  0  0  0  0
   -5.2780   21.8370  -33.0830 N   0  0  0  0  0  0  0  0  0  0  0  0
   -5.9500   20.5970  -33.2010 C   0  0  0  0  0  0  0  0  0  0  0  0
   -5.7320   19.8280  -34.1760 O   0  0  0  0  0  0  0  0  0  0  0  0
   -9.1903   18.8709  -31.2217 H   0  0  0  0  0  0  0  0  0  0  0  0
  -10.1707   19.0024  -32.7211 H   0  0  0  0  0  0  0  0  0  0  0  0
   -8.6542   18.0396  -32.7211 H   0  0  0  0  0  0  0  0  0  0  0  0
   -8.2608   20.1844  -33.8227 H   0  0  0  0  0  0  0  0  0  0  0  0
   -8.9174   21.0484  -32.3444 H   0  0  0  0  0  0  0  0  0  0  0  0
   -6.5604   19.0867  -30.3345 H   0  0  0  0  0  0  0  0  0  0  0  0
   -7.2044   18.1505  -31.7257 H   0  0  0  0  0  0  0  0  0  0  0  0
   -5.4931   18.6966  -31.7257 H   0  0  0  0  0  0  0  0  0  0  0  0
   -4.5968   24.5369  -28.4358 H   0  0  0  0  0  0  0  0  0  0  0  0
   -5.9561   23.5349  -29.0480 H   0  0  0  0  0  0  0  0  0  0  0  0
   -4.2846   22.8773  -29.0480 H   0  0  0  0  0  0  0  0  0  0  0  0
   -4.6080   22.2100  -33.7930 H   0  0  0  0  0  0  0  0  0  0  0  0
  1  2  1  0
  3  2  1  6
  3  4  1  0
  3  5  1  0
  5  6  1  0
  6  7  2  3
  7  8  1  0
  8  9  1  0
  8 10  2  0
  6 11  1  0
 11 12  1  0
 12 13  2  0
 12  3  1  0
  1 14  1  0
  1 15  1  0
  1 16  1  0
  2 17  1  0
  2 18  1  0
  4 19  1  0
  4 20  1  0
  4 21  1  0
  9 22  1  0
  9 23  1  0
  9 24  1  0
 11 25  1  0
M  END
>  <UniqueID>  (3) 
3

>  <SMILES>  (3) 
CC[C@]1(C)SC(=NC(C)=O)NC1=O

>  <Energy>  (3) 
30.73878467227734

>  <Genealogy>  (3) 
CC[C@]1(C)SC(=NC(C)=O)NC1=O (chirality)
CC[C@]1(C)SC(=NC(C)=O)NC1=O (3D coordinates assigned)
CC[C@]1(C)SC(=NC(C)=O)NC1=O (nonaromatic ring conformer: 30.73878467227734 kcal/mol)

>  <smiles>  (3) 
CCC1(C)SC(=NC(C)=O)NC1=O

>  <score_type>  (3) 
oracle

>  <origin>  (3) 
adg

>  <m_score__min__energy>  (3) 
-6.3399999999999999

>  <m_primary>  (3) 
energy

$$$$
3:0
     RDKit          3D

 54 56  0  0  0  0  0  0  0  0999 V2000
   -4.9590   12.5490  -31.5280 C   0  0  0  0  0  0  0  0  0  0  0  0
   -4.5730   13.9080  -31.3490 O   0  0  0  0  0  0  0  0  0  0  0  0
   -4.6760   14.8990  -32.3380 C   0  0  0  0  0  0  0  0  0  0  0  0
   -4.0710   14.6630  -33.5750 C   0  0  0  0  0  0  0  0  0  0  0  0
   -4.1350   15.6130  -34.6000 C   0  0  0  0  0  0  0  0  0  0  0  0
   -3.4970   15.3190  -35.8160 O   0  0  0  0  0  0  0  0  0  0  0  0
   -2.0880   15.1860  -35.9750 C   0  0  0  0  0  0  0  0  0  0  0  0
   -4.8240   16.8200  -34.3800 C   0  0  0  0  0  0  0  0  0  0  0  0
   -5.4510   17.0710  -33.1470 C   0  0  0  0  0  0  0  0  0  0  0  0
   -6.1780   18.3390  -32.9040 C   0  0  0  0  0  0  0  0  0  0  0  0
   -7.3010   18.3070  -32.3300 O   0  0  0  0  0  0  0  0  0  0  0  0
   -5.6360   19.6000  -33.3300 N   0  0  0  0  0  0  0  0  0  0  0  0
   -6.2800   20.8750  -33.0170 C   0  0  0  0  0  0  0  0  0  0  0  0
   -5.4600   21.6510  -32.0000 C   0  0  0  0  0  0  0  0  0  0  0  0
   -4.5890   20.9200  -31.1880 C   0  0  0  0  0  0  0  0  0  0  0  0
   -3.8030   21.5820  -30.2580 C   0  0  0  0  0  0  0  0  0  0  0  0
   -3.0000   20.9140  -29.5470 O   0  0  0  0  0  0  0  0  0  0  0  0
   -3.8890   22.9380  -30.1270 N   0  0  0  0  0  0  0  0  0  0  0  0
   -3.0610   23.6190  -29.1610 C   0  0  0  0  0  0  0  0  0  0  0  0
   -3.6340   24.1730  -28.0060 C   0  0  0  0  0  0  0  0  0  0  0  0
   -2.8320   24.8330  -27.0720 C   0  0  0  0  0  0  0  0  0  0  0  0
   -1.4560   24.9460  -27.2840 C   0  0  0  0  0  0  0  0  0  0  0  0
   -0.8670   24.4000  -28.4300 C   0  0  0  0  0  0  0  0  0  0  0  0
    0.5190   24.5400  -28.5970 O   0  0  0  0  0  0  0  0  0  0  0  0
    1.4760   24.3680  -27.5560 C   0  0  0  0  0  0  0  0  0  0  0  0
   -1.6780   23.7340  -29.3710 C   0  0  0  0  0  0  0  0  0  0  0  0
   -4.7620   23.6520  -30.9080 C   0  0  0  0  0  0  0  0  0  0  0  0
   -4.8430   24.9050  -30.7590 O   0  0  0  0  0  0  0  0  0  0  0  0
   -5.5550   23.0170  -31.8400 N   0  0  0  0  0  0  0  0  0  0  0  0
   -6.5050   23.7990  -32.6540 C   0  0  0  0  0  0  0  0  0  0  0  0
   -5.3630   16.1080  -32.1260 C   0  0  0  0  0  0  0  0  0  0  0  0
   -5.0940   12.0737  -30.5452 H   0  0  0  0  0  0  0  0  0  0  0  0
   -5.9046   12.5072  -32.0885 H   0  0  0  0  0  0  0  0  0  0  0  0
   -4.1766   12.0164  -32.0885 H   0  0  0  0  0  0  0  0  0  0  0  0
   -3.5367   13.7167  -33.7455 H   0  0  0  0  0  0  0  0  0  0  0  0
   -1.6100   15.1409  -34.9853 H   0  0  0  0  0  0  0  0  0  0  0  0
   -1.8673   14.2630  -36.5312 H   0  0  0  0  0  0  0  0  0  0  0  0
   -1.6985   16.0514  -36.5312 H   0  0  0  0  0  0  0  0  0  0  0  0
   -4.8724   17.5737  -35.1797 H   0  0  0  0  0  0  0  0  0  0  0  0
   -4.7800   19.6240  -33.9290 H   0  0  0  0  0  0  0  0  0  0  0  0
   -6.3714   21.4698  -33.9378 H   0  0  0  0  0  0  0  0  0  0  0  0
   -7.2754   20.6758  -32.5933 H   0  0  0  0  0  0  0  0  0  0  0  0
   -4.5275   19.8261  -31.2862 H   0  0  0  0  0  0  0  0  0  0  0  0
   -4.7174   24.0873  -27.8357 H   0  0  0  0  0  0  0  0  0  0  0  0
   -3.2851   25.2648  -26.1674 H   0  0  0  0  0  0  0  0  0  0  0  0
   -0.8308   25.4680  -26.5447 H   0  0  0  0  0  0  0  0  0  0  0  0
    0.9764   24.4578  -26.5801 H   0  0  0  0  0  0  0  0  0  0  0  0
    1.9364   23.3727  -27.6420 H   0  0  0  0  0  0  0  0  0  0  0  0
    2.2542   25.1407  -27.6420 H   0  0  0  0  0  0  0  0  0  0  0  0
   -1.2244   23.3019  -30.2752 H   0  0  0  0  0  0  0  0  0  0  0  0
   -7.1829   24.3570  -31.9913 H   0  0  0  0  0  0  0  0  0  0  0  0
   -5.9494   24.5050  -33.2888 H   0  0  0  0  0  0  0  0  0  0  0  0
   -7.0910   23.1181  -33.2888 H   0  0  0  0  0  0  0  0  0  0  0  0
   -5.8360   16.3021  -31.1520 H   0  0  0  0  0  0  0  0  0  0  0  0
  1  2  1  0
  2  3  1  0
  3  4  2  0
  4  5  1  0
  5  6  1  0
  6  7  1  0
  5  8  2  0
  8  9  1  0
  9 10  1  0
 10 11  2  0
 10 12  1  0
 12 13  1  0
 13 14  1  0
 14 15  2  0
 15 16  1  0
 16 17  2  0
 16 18  1  0
 18 19  1  0
 19 20  2  0
 20 21  1  0
 21 22  2  0
 22 23  1  0
 23 24  1  0
 24 25  1  0
 23 26  2  0
 18 27  1  0
 27 28  2  0
 27 29  1  0
 29 30  1  0
  9 31  2  0
 31  3  1  0
 29 14  1  0
 26 19  1  0
  1 32  1  0
  1 33  1  0
  1 34  1  0
  4 35  1  0
  7 36  1  0
  7 37  1  0
  7 38  1  0
  8 39  1  0
 12 40  1  0
 13 41  1  0
 13 42  1  0
 15 43  1  0
 20 44  1  0
 21 45  1  0
 22 46  1  0
 25 47  1  0
 25 48  1  0
 25 49  1  0
 26 50  1  0
 30 51  1  0
 30 52  1  0
 30 53  1  0
 31 54  1  0
M  END
>  <UniqueID>  (4) 
4

>  <SMILES>  (4) 
COc1cc(OC)cc(C(=O)NCc2cc(=O)n(-c3cccc(OC)c3)c(=O)n2C)c1

>  <Energy>  (4) 
71.41209035586837

>  <Genealogy>  (4) 
COc1cc(OC)cc(C(=O)NCc2cc(=O)n(-c3cccc(OC)c3)c(=O)n2C)c1 (3D coordinates assigned)
COc1cc(OC)cc(C(=O)NCc2cc(=O)n(-c3cccc(OC)c3)c(=O)n2C)c1 (optimized conformer: 71.41209035586837 kcal/mol)

>  <smiles>  (4) 
COc1cc(OC)cc(C(=O)NCc2cc(=O)n(-c3cccc(OC)c3)c(=O)n2C)c1

>  <score_type>  (4) 
oracle

>  <origin>  (4) 
adg

>  <m_score__min__energy>  (4) 
-8.1199999999999992

>  <m_primary>  (4) 
energy

$$$$
4:0
     RDKit          3D

 34 35  0  0  0  0  0  0  0  0999 V2000
   -3.7380   23.1590  -29.2710 C   0  0  0  0  0  0  0  0  0  0  0  0
   -4.6850   23.3490  -30.4120 C   0  0  0  0  0  0  0  0  0  0  0  0
   -5.7970   24.1640  -30.4170 C   0  0  0  0  0  0  0  0  0  0  0  0
   -6.3140   24.0870  -31.6960 C   0  0  0  0  0  0  0  0  0  0  0  0
   -5.5680   23.2920  -32.4300 O   0  0  0  0  0  0  0  0  0  0  0  0
   -4.5790   22.8370  -31.6950 C   0  0  0  0  0  0  0  0  0  0  0  0
   -3.5060   21.9230  -32.2200 C   0  0  0  0  0  0  0  0  0  0  0  0
   -3.8780   21.3260  -33.5160 N   0  0  0  0  0  0  0  0  0  0  0  0
   -4.0850   19.8620  -33.4470 C   0  0  0  0  0  0  0  0  0  0  0  0
   -5.3600   19.4000  -34.1780 C   0  0  0  0  0  0  0  0  0  0  0  0
   -6.5610   19.3810  -33.2700 C   0  0  0  0  0  0  0  0  0  0  0  0
   -7.0260   18.1710  -32.7290 C   0  0  0  0  0  0  0  0  0  0  0  0
   -8.1170   18.1630  -31.8560 C   0  0  0  0  0  0  0  0  0  0  0  0
   -8.7510   19.3610  -31.5140 C   0  0  0  0  0  0  0  0  0  0  0  0
   -8.2920   20.5710  -32.0450 C   0  0  0  0  0  0  0  0  0  0  0  0
   -9.0810   22.0750  -31.6070 Cl  0  0  0  0  0  0  0  0  0  0  0  0
   -7.2000   20.5820  -32.9200 C   0  0  0  0  0  0  0  0  0  0  0  0
   -4.2818   23.2681  -28.3211 H   0  0  0  0  0  0  0  0  0  0  0  0
   -3.2944   22.1539  -29.3262 H   0  0  0  0  0  0  0  0  0  0  0  0
   -2.9410   23.9151  -29.3262 H   0  0  0  0  0  0  0  0  0  0  0  0
   -6.1912   24.7538  -29.5763 H   0  0  0  0  0  0  0  0  0  0  0  0
   -7.2145   24.6121  -32.0471 H   0  0  0  0  0  0  0  0  0  0  0  0
   -2.5783   22.5001  -32.3475 H   0  0  0  0  0  0  0  0  0  0  0  0
   -3.3688   21.1068  -31.4955 H   0  0  0  0  0  0  0  0  0  0  0  0
   -3.1350   21.5600  -34.2150 H   0  0  0  0  0  0  0  0  0  0  0  0
   -4.7570   21.7790  -33.8580 H   0  0  0  0  0  0  0  0  0  0  0  0
   -3.2180   19.3633  -33.9049 H   0  0  0  0  0  0  0  0  0  0  0  0
   -4.1986   19.5951  -32.3859 H   0  0  0  0  0  0  0  0  0  0  0  0
   -5.5583   20.0877  -35.0133 H   0  0  0  0  0  0  0  0  0  0  0  0
   -5.1910   18.3737  -34.5359 H   0  0  0  0  0  0  0  0  0  0  0  0
   -6.5293   17.2259  -32.9937 H   0  0  0  0  0  0  0  0  0  0  0  0
   -8.4777   17.2120  -31.4370 H   0  0  0  0  0  0  0  0  0  0  0  0
   -9.6105   19.3522  -30.8276 H   0  0  0  0  0  0  0  0  0  0  0  0
   -6.8405   21.5350  -33.3354 H   0  0  0  0  0  0  0  0  0  0  0  0
  1  2  1  0
  2  3  1  0
  3  4  2  0
  4  5  1  0
  5  6  1  0
  6  7  1  0
  7  8  1  0
  8  9  1  0
  9 10  1  0
 10 11  1  0
 11 12  2  0
 12 13  1  0
 13 14  2  0
 14 15  1  0
 15 16  1  0
 15 17  2  0
  6  2  2  0
 17 11  1  0
  1 18  1  0
  1 19  1  0
  1 20  1  0
  3 21  1  0
  4 22  1  0
  7 23  1  0
  7 24  1  0
  8 25  1  0
  8 26  1  0
  9 27  1  0
  9 28  1  0
 10 29  1  0
 10 30  1  0
 12 31  1  0
 13 32  1  0
 14 33  1  0
 17 34  1  0
M  CHG  1   8   1
M  END
>  <UniqueID>  (5) 
5

>  <SMILES>  (5) 
Cc1ccoc1C[NH2+]CCc1cccc(Cl)c1

>  <Energy>  (5) 
57.93811434084257

>  <Genealogy>  (5) 
Cc1ccoc1C[NH2+]CCc1cccc(Cl)c1 (protonated)
Cc1ccoc1C[NH2+]CCc1cccc(Cl)c1 (3D coordinates assigned)
Cc1ccoc1C[NH2+]CCc1cccc(Cl)c1 (optimized conformer: 57.93811434084257 kcal/mol)

>  <smiles>  (5) 
Cc1ccoc1CNCCc1cccc(Cl)c1

>  <score_type>  (5) 
oracle

>  <origin>  (5) 
adg

>  <m_score__min__energy>  (5) 
-6.71

>  <m_primary>  (5) 
energy

$$$$
5:0
     RDKit          3D

 56 58  0  0  0  0  0  0  0  0999 V2000
   -0.8790   27.7330  -25.7890 C   0  0  0  0  0  0  0  0  0  0  0  0
   -0.4830   26.9530  -27.0470 C   0  0  0  0  0  0  0  0  0  0  0  0
   -1.0950   25.5970  -27.0790 N   0  0  0  0  0  0  0  0  0  0  0  0
   -0.0380   24.5490  -27.1100 C   0  0  0  0  0  0  0  0  0  0  0  0
   -0.2790   23.4970  -28.2010 C   0  0  0  0  0  0  0  0  0  0  0  0
   -1.9950   25.3920  -25.9010 C   0  0  0  0  0  0  0  0  0  0  0  0
   -3.4790   25.2540  -26.2980 C   0  0  0  0  0  0  0  0  0  0  0  0
   -3.8080   23.9770  -27.0900 C   0  0  0  0  0  0  0  0  0  0  0  0
   -4.5200   24.2750  -28.4210 C   0  0  0  0  0  0  0  0  0  0  0  0
   -3.5600   24.5800  -29.5470 C   0  0  0  0  0  0  0  0  0  0  0  0
   -2.5290   25.2710  -29.3380 O   0  0  0  0  0  0  0  0  0  0  0  0
   -3.8210   24.1230  -30.8780 N   0  0  0  0  0  0  0  0  0  0  0  0
   -5.0590   23.4690  -31.2920 C   0  0  0  0  0  0  0  0  0  0  0  0
   -4.7490   22.3410  -32.2470 C   0  0  0  0  0  0  0  0  0  0  0  0
   -3.4230   22.2610  -32.6940 C   0  0  0  0  0  0  0  0  0  0  0  0
   -2.9730   21.1010  -33.3140 C   0  0  0  0  0  0  0  0  0  0  0  0
   -1.7800   21.0190  -33.7100 O   0  0  0  0  0  0  0  0  0  0  0  0
   -3.7830   20.0650  -33.4580 O   0  0  0  0  0  0  0  0  0  0  0  0
   -5.0600   20.0910  -33.0940 C   0  0  0  0  0  0  0  0  0  0  0  0
   -5.8060   18.9210  -33.2240 C   0  0  0  0  0  0  0  0  0  0  0  0
   -7.1430   18.8900  -32.8520 C   0  0  0  0  0  0  0  0  0  0  0  0
   -7.7900   20.0630  -32.4520 C   0  0  0  0  0  0  0  0  0  0  0  0
   -9.1690   20.0300  -32.1820 C   0  0  0  0  0  0  0  0  0  0  0  0
   -9.8610   21.2090  -31.9200 C   0  0  0  0  0  0  0  0  0  0  0  0
   -9.1960   22.4320  -31.9700 C   0  0  0  0  0  0  0  0  0  0  0  0
   -7.8230   22.4760  -32.2190 C   0  0  0  0  0  0  0  0  0  0  0  0
   -7.0690   21.2890  -32.3730 C   0  0  0  0  0  0  0  0  0  0  0  0
   -5.6480   21.2750  -32.5680 C   0  0  0  0  0  0  0  0  0  0  0  0
   -0.5883   27.1604  -24.8959 H   0  0  0  0  0  0  0  0  0  0  0  0
   -0.3656   28.7059  -25.7840 H   0  0  0  0  0  0  0  0  0  0  0  0
   -1.9673   27.8927  -25.7840 H   0  0  0  0  0  0  0  0  0  0  0  0
   -0.8168   27.5141  -27.9323 H   0  0  0  0  0  0  0  0  0  0  0  0
    0.6103   26.8318  -27.0410 H   0  0  0  0  0  0  0  0  0  0  0  0
   -1.6510   25.5190  -27.9650 H   0  0  0  0  0  0  0  0  0  0  0  0
    0.9321   25.0330  -27.2960 H   0  0  0  0  0  0  0  0  0  0  0  0
   -0.0549   24.0312  -26.1396 H   0  0  0  0  0  0  0  0  0  0  0  0
   -0.5012   22.5270  -27.7323 H   0  0  0  0  0  0  0  0  0  0  0  0
   -1.1297   23.8055  -28.8264 H   0  0  0  0  0  0  0  0  0  0  0  0
    0.6212   23.4044  -28.8264 H   0  0  0  0  0  0  0  0  0  0  0  0
   -1.6849   24.4757  -25.3773 H   0  0  0  0  0  0  0  0  0  0  0  0
   -1.9059   26.2802  -25.2582 H   0  0  0  0  0  0  0  0  0  0  0  0
   -4.0827   25.2538  -25.3785 H   0  0  0  0  0  0  0  0  0  0  0  0
   -3.7073   26.1021  -26.9602 H   0  0  0  0  0  0  0  0  0  0  0  0
   -2.8702   23.4432  -27.3036 H   0  0  0  0  0  0  0  0  0  0  0  0
   -4.4890   23.3695  -26.4759 H   0  0  0  0  0  0  0  0  0  0  0  0
   -5.1218   23.3978  -28.7010 H   0  0  0  0  0  0  0  0  0  0  0  0
   -5.1437   25.1682  -28.2685 H   0  0  0  0  0  0  0  0  0  0  0  0
   -5.5729   23.0666  -30.4065 H   0  0  0  0  0  0  0  0  0  0  0  0
   -5.7058   24.2027  -31.7954 H   0  0  0  0  0  0  0  0  0  0  0  0
   -2.7411   23.1128  -32.5548 H   0  0  0  0  0  0  0  0  0  0  0  0
   -5.3309   18.0136  -33.6251 H   0  0  0  0  0  0  0  0  0  0  0  0
   -7.6954   17.9390  -32.8720 H   0  0  0  0  0  0  0  0  0  0  0  0
   -9.7035   19.0686  -32.1777 H   0  0  0  0  0  0  0  0  0  0  0  0
  -10.9325   21.1750  -31.6736 H   0  0  0  0  0  0  0  0  0  0  0  0
   -9.7547   23.3664  -31.8127 H   0  0  0  0  0  0  0  0  0  0  0  0
   -7.3188   23.4505  -32.2968 H   0  0  0  0  0  0  0  0  0  0  0  0
  1  2  1  0
  2  3  1  0
  3  4  1  0
  4  5  1  0
  3  6  1  0
  6  7  1  0
  7  8  1  0
  8  9  1  0
  9 10  1  0
 10 11  2  0
 10 12  1  0
 12 13  1  0
 13 14  1  0
 14 15  2  0
 15 16  1  0
 16 17  2  0
 16 18  1  0
 18 19  1  0
 19 20  2  0
 20 21  1  0
 21 22  2  0
 22 23  1  0
 23 24  2  0
 24 25  1  0
 25 26  2  0
 26 27  1  0
 27 28  2  0
 28 14  1  0
 28 19  1  0
 27 22  1  0
  1 29  1  0
  1 30  1  0
  1 31  1  0
  2 32  1  0
  2 33  1  0
  3 34  1  0
  4 35  1  0
  4 36  1  0
  5 37  1  0
  5 38  1  0
  5 39  1  0
  6 40  1  0
  6 41  1  0
  7 42  1  0
  7 43  1  0
  8 44  1  0
  8 45  1  0
  9 46  1  0
  9 47  1  0
 13 48  1  0
 13 49  1  0
 15 50  1  0
 20 51  1  0
 21 52  1  0
 23 53  1  0
 24 54  1  0
 25 55  1  0
 26 56  1  0
M  CHG  2   3   1  12  -1
M  END
>  <UniqueID>  (6) 
6

>  <SMILES>  (6) 
CC[NH+](CC)CCCCC(=O)[N-]Cc1cc(=O)oc2ccc3ccccc3c12

>  <Energy>  (6) 
79.17473713242792

>  <Genealogy>  (6) 
CC[NH+](CC)CCCCC(=O)[N-]Cc1cc(=O)oc2ccc3ccccc3c12 (protonated)
CC[NH+](CC)CCCCC(=O)[N-]Cc1cc(=O)oc2ccc3ccccc3c12 (3D coordinates assigned)
CC[NH+](CC)CCCCC(=O)[N-]Cc1cc(=O)oc2ccc3ccccc3c12 (optimized conformer: 79.17473713242792 kcal/mol)

>  <smiles>  (6) 
CCN(CC)CCCCC(=O)NCc1cc(=O)oc2ccc3ccccc3c12

>  <score_type>  (6) 
oracle

>  <origin>  (6) 
adg

>  <m_score__min__energy>  (6) 
-10.41

>  <m_primary>  (6) 
energy

$$$$
6:0
     RDKit          3D

 30 31  0  0  0  0  0  0  0  0999 V2000
   -5.9020   18.7920  -33.9240 C   0  0  0  0  0  0  0  0  0  0  0  0
   -6.1550   20.0120  -33.0890 C   0  0  0  0  0  0  0  0  0  0  0  0
   -7.4630   20.3430  -32.7030 C   0  0  0  0  0  0  0  0  0  0  0  0
   -7.7070   21.5000  -31.9580 C   0  0  0  0  0  0  0  0  0  0  0  0
   -6.6490   22.3400  -31.6000 C   0  0  0  0  0  0  0  0  0  0  0  0
   -6.8900   23.4660  -30.8850 N   0  0  0  0  0  0  0  0  0  0  0  0
   -5.8880   24.3080  -30.5200 C   0  0  0  0  0  0  0  0  0  0  0  0
   -6.2260   25.5340  -29.7130 C   0  0  0  0  0  0  0  0  0  0  0  0
   -5.6740   26.6510  -30.3100 F   0  0  0  0  0  0  0  0  0  0  0  0
   -7.6000   25.6810  -29.6440 F   0  0  0  0  0  0  0  0  0  0  0  0
   -5.7280   25.4230  -28.4260 F   0  0  0  0  0  0  0  0  0  0  0  0
   -4.5910   24.0200  -30.8610 N   0  0  0  0  0  0  0  0  0  0  0  0
   -3.5680   24.9050  -30.4660 N   0  0  0  0  0  0  0  0  0  0  0  0
   -2.4190   24.5300  -29.2220 S   0  0  0  0  0  0  0  0  0  0  0  0
   -3.2640   24.0580  -27.7280 C   0  0  0  0  0  0  0  0  0  0  0  0
   -1.5120   23.4210  -29.6750 O   0  0  0  0  0  0  0  0  0  0  0  0
   -1.5980   25.7550  -28.9370 O   0  0  0  0  0  0  0  0  0  0  0  0
   -4.3060   22.9110  -31.6160 C   0  0  0  0  0  0  0  0  0  0  0  0
   -3.1240   22.6890  -31.9950 O   0  0  0  0  0  0  0  0  0  0  0  0
   -5.3360   22.0290  -31.9910 C   0  0  0  0  0  0  0  0  0  0  0  0
   -5.0940   20.8660  -32.7460 C   0  0  0  0  0  0  0  0  0  0  0  0
   -5.7229   17.9284  -33.2666 H   0  0  0  0  0  0  0  0  0  0  0  0
   -6.7782   18.5940  -34.5589 H   0  0  0  0  0  0  0  0  0  0  0  0
   -5.0193   18.9588  -34.5589 H   0  0  0  0  0  0  0  0  0  0  0  0
   -8.3001   19.6888  -32.9881 H   0  0  0  0  0  0  0  0  0  0  0  0
   -8.7338   21.7500  -31.6528 H   0  0  0  0  0  0  0  0  0  0  0  0
   -2.6782   24.3852  -26.8564 H   0  0  0  0  0  0  0  0  0  0  0  0
   -4.2560   24.5327  -27.7022 H   0  0  0  0  0  0  0  0  0  0  0  0
   -3.3800   22.9644  -27.7022 H   0  0  0  0  0  0  0  0  0  0  0  0
   -4.0703   20.6251  -33.0685 H   0  0  0  0  0  0  0  0  0  0  0  0
  1  2  1  0
  2  3  2  0
  3  4  1  0
  4  5  2  0
  5  6  1  0
  6  7  2  0
  7  8  1  0
  8  9  1  0
  8 10  1  0
  8 11  1  0
  7 12  1  0
 12 13  1  0
 13 14  1  0
 14 15  1  0
 14 16  2  0
 14 17  2  0
 12 18  1  0
 18 19  2  0
 18 20  1  0
 20 21  2  0
 21  2  1  0
 20  5  1  0
  1 22  1  0
  1 23  1  0
  1 24  1  0
  3 25  1  0
  4 26  1  0
 15 27  1  0
 15 28  1  0
 15 29  1  0
 21 30  1  0
M  CHG  1  13  -1
M  END
>  <UniqueID>  (7) 
7

>  <SMILES>  (7) 
Cc1ccc2nc(C(F)(F)F)n([N-]S(C)(=O)=O)c(=O)c2c1

>  <Energy>  (7) 
38.730854471841276

>  <Genealogy>  (7) 
Cc1ccc2nc(C(F)(F)F)n([N-]S(C)(=O)=O)c(=O)c2c1 (protonated)
Cc1ccc2nc(C(F)(F)F)n([N-]S(C)(=O)=O)c(=O)c2c1 (3D coordinates assigned)
Cc1ccc2nc(C(F)(F)F)n([N-]S(C)(=O)=O)c(=O)c2c1 (optimized conformer: 38.730854471841276 kcal/mol)

>  <smiles>  (7) 
Cc1ccc2nc(C(F)(F)F)n(NS(C)(=O)=O)c(=O)c2c1

>  <score_type>  (7) 
oracle

>  <origin>  (7) 
adg

>  <m_score__min__energy>  (7) 
-8.8699999999999992

>  <m_primary>  (7) 
energy

$$$$
7:0
     RDKit          3D

 76 77  0  0  0  0  0  0  0  0999 V2000
    0.0720   25.4420  -36.4660 C   0  0  0  0  0  0  0  0  0  0  0  0
    1.3360   24.6550  -36.1380 C   0  0  0  0  0  0  0  0  0  0  0  0
    1.0030   23.4350  -35.4070 N   0  0  0  0  0  0  0  0  0  0  0  0
    1.1510   22.1260  -35.9610 C   0  0  0  0  0  0  0  0  0  0  0  0
    2.1580   21.8400  -36.6640 O   0  0  0  0  0  0  0  0  0  0  0  0
    0.0990   21.0950  -35.7040 C   0  0  0  0  0  0  0  0  0  0  0  0
    0.6830   19.8890  -35.0690 N   0  0  0  0  0  0  0  0  0  0  0  0
    0.2490   18.6130  -35.6950 C   0  0  0  0  0  0  0  0  0  0  0  0
    1.1440   18.2430  -36.8900 C   0  0  0  0  0  0  0  0  0  0  0  0
    2.1240   19.2910  -37.1920 N   0  0  0  0  0  0  0  0  0  0  0  0
    0.5080   19.8800  -33.5940 C   0  0  0  0  0  0  0  0  0  0  0  0
   -0.2960   21.0970  -33.0500 C   0  0  0  0  0  0  0  0  0  0  0  0
   -1.7640   20.8940  -33.0250 N   0  0  0  0  0  0  0  0  0  0  0  0
   -2.1310   19.4820  -32.7680 C   0  0  0  0  0  0  0  0  0  0  0  0
   -3.0980   18.9670  -33.8310 C   0  0  0  0  0  0  0  0  0  0  0  0
   -2.4870   21.8570  -32.1570 C   0  0  0  0  0  0  0  0  0  0  0  0
   -3.9800   21.8390  -32.4940 C   0  0  0  0  0  0  0  0  0  0  0  0
   -4.6600   22.9310  -31.7590 N   0  0  0  0  0  0  0  0  0  0  0  0
   -5.9120   23.3540  -32.4180 C   0  0  0  0  0  0  0  0  0  0  0  0
   -6.9910   22.3420  -32.1540 C   0  0  0  0  0  0  0  0  0  0  0  0
   -8.2000   22.7500  -31.5660 C   0  0  0  0  0  0  0  0  0  0  0  0
   -9.2140   21.8180  -31.3300 C   0  0  0  0  0  0  0  0  0  0  0  0
   -9.0330   20.4780  -31.6840 C   0  0  0  0  0  0  0  0  0  0  0  0
   -7.8330   20.0660  -32.2760 C   0  0  0  0  0  0  0  0  0  0  0  0
   -7.6030   18.3830  -32.7230 Cl  0  0  0  0  0  0  0  0  0  0  0  0
   -6.8150   20.9950  -32.5120 C   0  0  0  0  0  0  0  0  0  0  0  0
   -4.8830   22.5810  -30.3400 C   0  0  0  0  0  0  0  0  0  0  0  0
   -3.7230   23.0650  -29.5040 C   0  0  0  0  0  0  0  0  0  0  0  0
   -3.0990   22.1610  -28.6250 C   0  0  0  0  0  0  0  0  0  0  0  0
   -2.0300   22.5710  -27.8290 C   0  0  0  0  0  0  0  0  0  0  0  0
   -1.5700   23.8830  -27.9040 C   0  0  0  0  0  0  0  0  0  0  0  0
   -2.1710   24.7930  -28.7770 C   0  0  0  0  0  0  0  0  0  0  0  0
   -3.2550   24.3960  -29.5860 C   0  0  0  0  0  0  0  0  0  0  0  0
   -3.8790   25.2920  -30.4690 O   0  0  0  0  0  0  0  0  0  0  0  0
   -5.2400   25.6980  -30.3820 C   0  0  0  0  0  0  0  0  0  0  0  0
   -0.4214   25.7492  -35.5321 H   0  0  0  0  0  0  0  0  0  0  0  0
    0.3374   26.3347  -37.0513 H   0  0  0  0  0  0  0  0  0  0  0  0
   -0.6120   24.8099  -37.0513 H   0  0  0  0  0  0  0  0  0  0  0  0
    1.8493   24.3879  -37.0735 H   0  0  0  0  0  0  0  0  0  0  0  0
    1.9908   25.2781  -35.5112 H   0  0  0  0  0  0  0  0  0  0  0  0
   -0.6653   21.5192  -35.0362 H   0  0  0  0  0  0  0  0  0  0  0  0
   -0.3493   20.8035  -36.6653 H   0  0  0  0  0  0  0  0  0  0  0  0
    0.3025   17.8099  -34.9453 H   0  0  0  0  0  0  0  0  0  0  0  0
   -0.7814   18.7381  -36.0591 H   0  0  0  0  0  0  0  0  0  0  0  0
    1.6813   17.3122  -36.6556 H   0  0  0  0  0  0  0  0  0  0  0  0
    0.4975   18.1203  -37.7715 H   0  0  0  0  0  0  0  0  0  0  0  0
    1.6590   20.0410  -37.7540 H   0  0  0  0  0  0  0  0  0  0  0  0
    2.4490   19.7180  -36.2940 H   0  0  0  0  0  0  0  0  0  0  0  0
   -0.0242   18.9591  -33.3134 H   0  0  0  0  0  0  0  0  0  0  0  0
    1.5135   19.9362  -33.1514 H   0  0  0  0  0  0  0  0  0  0  0  0
    0.0413   21.3020  -32.0233 H   0  0  0  0  0  0  0  0  0  0  0  0
   -0.1047   21.9345  -33.7370 H   0  0  0  0  0  0  0  0  0  0  0  0
   -1.2202   18.8653  -32.7809 H   0  0  0  0  0  0  0  0  0  0  0  0
   -2.6235   19.4205  -31.7863 H   0  0  0  0  0  0  0  0  0  0  0  0
   -3.9677   18.5038  -33.3420 H   0  0  0  0  0  0  0  0  0  0  0  0
   -3.4338   19.8058  -34.4585 H   0  0  0  0  0  0  0  0  0  0  0  0
   -2.5894   18.2203  -34.4585 H   0  0  0  0  0  0  0  0  0  0  0  0
   -2.3471   21.5750  -31.1030 H   0  0  0  0  0  0  0  0  0  0  0  0
   -2.0887   22.8683  -32.3260 H   0  0  0  0  0  0  0  0  0  0  0  0
   -4.1145   21.9847  -33.5760 H   0  0  0  0  0  0  0  0  0  0  0  0
   -4.4128   20.8713  -32.2004 H   0  0  0  0  0  0  0  0  0  0  0  0
   -6.2223   24.3314  -32.0201 H   0  0  0  0  0  0  0  0  0  0  0  0
   -5.7441   23.4326  -33.5023 H   0  0  0  0  0  0  0  0  0  0  0  0
   -8.3486   23.8047  -31.2910 H   0  0  0  0  0  0  0  0  0  0  0  0
  -10.1572   22.1397  -30.8644 H   0  0  0  0  0  0  0  0  0  0  0  0
   -9.8335   19.7470  -31.4974 H   0  0  0  0  0  0  0  0  0  0  0  0
   -5.8737   20.6702  -32.9793 H   0  0  0  0  0  0  0  0  0  0  0  0
   -5.8101   23.0570  -29.9881 H   0  0  0  0  0  0  0  0  0  0  0  0
   -4.9674   21.4884  -30.2450 H   0  0  0  0  0  0  0  0  0  0  0  0
   -3.4572   21.1227  -28.5652 H   0  0  0  0  0  0  0  0  0  0  0  0
   -1.5503   21.8582  -27.1421 H   0  0  0  0  0  0  0  0  0  0  0  0
   -0.7288   24.2047  -27.2724 H   0  0  0  0  0  0  0  0  0  0  0  0
   -1.7961   25.8256  -28.8335 H   0  0  0  0  0  0  0  0  0  0  0  0
   -5.5299   25.7845  -29.3244 H   0  0  0  0  0  0  0  0  0  0  0  0
   -5.3643   26.6723  -30.8772 H   0  0  0  0  0  0  0  0  0  0  0  0
   -5.8778   24.9510  -30.8772 H   0  0  0  0  0  0  0  0  0  0  0  0
  1  2  1  0
  2  3  1  0
  3  4  1  0
  4  5  2  0
  4  6  1  0
  6  7  1  0
  7  8  1  0
  8  9  1  0
  9 10  1  0
  7 11  1  0
 11 12  1  0
 12 13  1  0
 13 14  1  0
 14 15  1  0
 13 16  1  0
 16 17  1  0
 17 18  1  0
 18 19  1  0
 19 20  1  0
 20 21  2  0
 21 22  1  0
 22 23  2  0
 23 24  1  0
 24 25  1  0
 24 26  2  0
 18 27  1  0
 27 28  1  0
 28 29  2  0
 29 30  1  0
 30 31  2  0
 31 32  1  0
 32 33  2  0
 33 34  1  0
 34 35  1  0
 26 20  1  0
 33 28  1  0
  1 36  1  0
  1 37  1  0
  1 38  1  0
  2 39  1  0
  2 40  1  0
  6 41  1  0
  6 42  1  0
  8 43  1  0
  8 44  1  0
  9 45  1  0
  9 46  1  0
 10 47  1  0
 10 48  1  0
 11 49  1  0
 11 50  1  0
 12 51  1  0
 12 52  1  0
 14 53  1  0
 14 54  1  0
 15 55  1  0
 15 56  1  0
 15 57  1  0
 16 58  1  0
 16 59  1  0
 17 60  1  0
 17 61  1  0
 19 62  1  0
 19 63  1  0
 21 64  1  0
 22 65  1  0
 23 66  1  0
 26 67  1  0
 27 68  1  0
 27 69  1  0
 29 70  1  0
 30 71  1  0
 31 72  1  0
 32 73  1  0
 35 74  1  0
 35 75  1  0
 35 76  1  0
M  CHG  1   3  -1
M  END
>  <UniqueID>  (8) 
8

>  <SMILES>  (8) 
CC[N-]C(=O)CN(CCN)CCN(CC)CCN(Cc1cccc(Cl)c1)Cc1ccccc1OC

>  <Energy>  (8) 
77.88024907751407

>  <Genealogy>  (8) 
CC[N-]C(=O)CN(CCN)CCN(CC)CCN(Cc1cccc(Cl)c1)Cc1ccccc1OC (protonated)
CC[N-]C(=O)CN(CCN)CCN(CC)CCN(Cc1cccc(Cl)c1)Cc1ccccc1OC (3D coordinates assigned)
CC[N-]C(=O)CN(CCN)CCN(CC)CCN(Cc1cccc(Cl)c1)Cc1ccccc1OC (optimized conformer: 77.88024907751407 kcal/mol)

>  <smiles>  (8) 
CCNC(=O)CN(CCN)CCN(CC)CCN(Cc1cccc(Cl)c1)Cc1ccccc1OC

>  <score_type>  (8) 
oracle

>  <origin>  (8) 
adg

>  <m_score__min__energy>  (8) 
-10.24

>  <m_primary>  (8) 
energy

$$$$
8:0
     RDKit          3D

 50 52  0  0  0  0  0  0  0  0999 V2000
   -5.7730   18.8480  -34.5830 C   0  0  0  0  0  0  0  0  0  0  0  0
   -5.7500   19.0630  -33.2640 C   0  0  0  0  0  0  0  0  0  0  0  0
   -6.4120   18.0820  -32.3400 C   0  0  0  0  0  0  0  0  0  0  0  0
   -5.0880   20.2330  -32.7310 N   0  0  0  0  0  0  0  0  0  0  0  0
   -3.7230   20.3270  -32.7870 C   0  0  0  0  0  0  0  0  0  0  0  0
   -3.0580   19.4150  -33.3580 O   0  0  0  0  0  0  0  0  0  0  0  0
   -3.0740   21.4020  -32.2370 N   0  0  0  0  0  0  0  0  0  0  0  0
   -1.6040   21.4900  -32.3150 C   0  0  0  0  0  0  0  0  0  0  0  0
   -3.7880   22.4370  -31.6920 C   0  0  0  0  0  0  0  0  0  0  0  0
   -3.1720   23.4310  -31.2180 O   0  0  0  0  0  0  0  0  0  0  0  0
   -5.1990   22.3940  -31.6640 C   0  0  0  0  0  0  0  0  0  0  0  0
   -6.0320   23.4230  -31.1430 C   0  0  0  0  0  0  0  0  0  0  0  0
   -5.3930   25.0070  -30.5480 S   0  0  0  0  0  0  0  0  0  0  0  0
   -4.9910   24.4410  -28.8520 C   0  0  0  0  0  0  0  0  0  0  0  0
   -3.4950   24.5430  -28.5190 C   0  0  0  0  0  0  0  0  0  0  0  0
   -2.8050   23.2060  -28.3810 C   0  0  0  0  0  0  0  0  0  0  0  0
   -1.4590   23.0670  -28.7630 C   0  0  0  0  0  0  0  0  0  0  0  0
   -0.8210   21.8270  -28.6710 C   0  0  0  0  0  0  0  0  0  0  0  0
   -1.5240   20.7090  -28.2160 C   0  0  0  0  0  0  0  0  0  0  0  0
   -2.8710   20.8280  -27.8650 C   0  0  0  0  0  0  0  0  0  0  0  0
   -3.5150   22.0650  -27.9610 C   0  0  0  0  0  0  0  0  0  0  0  0
   -7.3780   23.2290  -31.0810 N   0  0  0  0  0  0  0  0  0  0  0  0
   -7.9550   22.1010  -31.5680 C   0  0  0  0  0  0  0  0  0  0  0  0
   -9.4460   21.9570  -31.5960 C   0  0  0  0  0  0  0  0  0  0  0  0
   -9.8430   20.6840  -32.3340 C   0  0  0  0  0  0  0  0  0  0  0  0
   -7.1830   21.1350  -32.1190 N   0  0  0  0  0  0  0  0  0  0  0  0
   -5.8290   21.2420  -32.1780 C   0  0  0  0  0  0  0  0  0  0  0  0
   -5.2899   19.5629  -35.2653 H   0  0  0  0  0  0  0  0  0  0  0  0
   -6.2751   17.9562  -34.9862 H   0  0  0  0  0  0  0  0  0  0  0  0
   -6.2167   18.3715  -31.2969 H   0  0  0  0  0  0  0  0  0  0  0  0
   -7.4967   18.0803  -32.5231 H   0  0  0  0  0  0  0  0  0  0  0  0
   -6.0077   17.0755  -32.5231 H   0  0  0  0  0  0  0  0  0  0  0  0
   -1.1837   21.5152  -31.2988 H   0  0  0  0  0  0  0  0  0  0  0  0
   -1.2122   20.6137  -32.8522 H   0  0  0  0  0  0  0  0  0  0  0  0
   -1.3195   22.4068  -32.8522 H   0  0  0  0  0  0  0  0  0  0  0  0
   -5.5517   25.0588  -28.1351 H   0  0  0  0  0  0  0  0  0  0  0  0
   -5.2687   23.3786  -28.7874 H   0  0  0  0  0  0  0  0  0  0  0  0
   -2.9992   25.1071  -29.3227 H   0  0  0  0  0  0  0  0  0  0  0  0
   -3.4191   25.0433  -27.5423 H   0  0  0  0  0  0  0  0  0  0  0  0
   -0.9043   23.9403  -29.1368 H   0  0  0  0  0  0  0  0  0  0  0  0
    0.2367   21.7312  -28.9574 H   0  0  0  0  0  0  0  0  0  0  0  0
   -1.0176   19.7359  -28.1341 H   0  0  0  0  0  0  0  0  0  0  0  0
   -3.4261   19.9463  -27.5123 H   0  0  0  0  0  0  0  0  0  0  0  0
   -4.5821   22.1474  -27.7071 H   0  0  0  0  0  0  0  0  0  0  0  0
   -7.9850   23.9790  -30.6770 H   0  0  0  0  0  0  0  0  0  0  0  0
   -9.8251   21.9111  -30.5644 H   0  0  0  0  0  0  0  0  0  0  0  0
   -9.8783   22.8225  -32.1195 H   0  0  0  0  0  0  0  0  0  0  0  0
  -10.0880   19.8983  -31.6042 H   0  0  0  0  0  0  0  0  0  0  0  0
  -10.7212   20.8848  -32.9652 H   0  0  0  0  0  0  0  0  0  0  0  0
   -9.0063   20.3500  -32.9652 H   0  0  0  0  0  0  0  0  0  0  0  0
  1  2  2  0
  2  3  1  0
  2  4  1  0
  4  5  1  0
  5  6  2  0
  5  7  1  0
  7  8  1  0
  7  9  1  0
  9 10  2  0
  9 11  1  0
 11 12  2  0
 12 13  1  0
 13 14  1  0
 14 15  1  0
 15 16  1  0
 16 17  2  0
 17 18  1  0
 18 19  2  0
 19 20  1  0
 20 21  2  0
 12 22  1  0
 22 23  2  0
 23 24  1  0
 24 25  1  0
 23 26  1  0
 26 27  2  0
 27  4  1  0
 27 11  1  0
 21 16  1  0
  1 28  1  0
  1 29  1  0
  3 30  1  0
  3 31  1  0
  3 32  1  0
  8 33  1  0
  8 34  1  0
  8 35  1  0
 14 36  1  0
 14 37  1  0
 15 38  1  0
 15 39  1  0
 17 40  1  0
 18 41  1  0
 19 42  1  0
 20 43  1  0
 21 44  1  0
 22 45  1  0
 24 46  1  0
 24 47  1  0
 25 48  1  0
 25 49  1  0
 25 50  1  0
M  CHG  1  22   1
M  END
>  <UniqueID>  (9) 
9

>  <SMILES>  (9) 
C=C(C)n1c(=O)n(C)c(=O)c2c(SCCc3ccccc3)[nH+]c(CC)nc21

>  <Energy>  (9) 
57.89959246126824

>  <Genealogy>  (9) 
C=C(C)n1c(=O)n(C)c(=O)c2c(SCCc3ccccc3)[nH+]c(CC)nc21 (protonated)
C=C(C)n1c(=O)n(C)c(=O)c2c(SCCc3ccccc3)[nH+]c(CC)nc21 (3D coordinates assigned)
C=C(C)n1c(=O)n(C)c(=O)c2c(SCCc3ccccc3)[nH+]c(CC)nc21 (optimized conformer: 57.89959246126824 kcal/mol)

>  <smiles>  (9) 
C=C(C)n1c(=O)n(C)c(=O)c2c(SCCc3ccccc3)nc(CC)nc21

>  <score_type>  (9) 
oracle

>  <origin>  (9) 
adg

>  <m_score__min__energy>  (9) 
-8.2599999999999998

>  <m_primary>  (9) 
energy

$$$$
9:0
     RDKit          3D

 50 52  0  0  0  0  0  0  0  0999 V2000
   -5.1013   24.3259  -31.3910 H   0  0  0  0  0  0  0  0  0  0  0  0
   -4.2220   24.0320  -30.7990 C   0  0  0  0  0  0  0  0  0  0  0  0
   -3.5340   24.9720  -30.0990 N   0  0  0  0  0  0  0  0  0  0  0  0
   -2.4410   24.6700  -29.3480 C   0  0  0  0  0  0  0  0  0  0  0  0
   -1.8310   25.6400  -28.7240 N   0  0  0  0  0  0  0  0  0  0  0  0
   -0.7180   25.5350  -27.8200 C   0  0  0  0  0  0  0  0  0  0  0  0
    0.3010   24.8930  -28.1930 O   0  0  0  0  0  0  0  0  0  0  0  0
   -0.7780   26.0830  -26.4400 C   0  0  0  0  0  0  0  0  0  0  0  0
   -0.7820   25.2140  -25.3320 C   0  0  0  0  0  0  0  0  0  0  0  0
   -0.7614   24.1257  -25.4906 H   0  0  0  0  0  0  0  0  0  0  0  0
   -0.8120   25.7270  -24.0300 C   0  0  0  0  0  0  0  0  0  0  0  0
   -0.8057   25.0416  -23.1696 H   0  0  0  0  0  0  0  0  0  0  0  0
   -0.8500   27.1090  -23.8210 C   0  0  0  0  0  0  0  0  0  0  0  0
   -0.8689   27.5104  -22.7970 H   0  0  0  0  0  0  0  0  0  0  0  0
   -0.8640   27.9810  -24.9150 C   0  0  0  0  0  0  0  0  0  0  0  0
   -0.9002   29.0680  -24.7502 H   0  0  0  0  0  0  0  0  0  0  0  0
   -0.8320   27.4730  -26.2180 C   0  0  0  0  0  0  0  0  0  0  0  0
   -0.8491   28.1631  -27.0744 H   0  0  0  0  0  0  0  0  0  0  0  0
   -2.0240   23.3280  -29.2600 C   0  0  0  0  0  0  0  0  0  0  0  0
   -1.1653   23.0548  -28.6291 H   0  0  0  0  0  0  0  0  0  0  0  0
   -2.7090   22.3460  -29.9800 C   0  0  0  0  0  0  0  0  0  0  0  0
   -2.3780   21.2983  -29.9267 H   0  0  0  0  0  0  0  0  0  0  0  0
   -3.8170   22.6880  -30.7710 C   0  0  0  0  0  0  0  0  0  0  0  0
   -4.5200   21.6640  -31.5830 C   0  0  0  0  0  0  0  0  0  0  0  0
   -3.8240   20.5380  -32.0650 C   0  0  0  0  0  0  0  0  0  0  0  0
   -2.7680   20.3914  -31.7940 H   0  0  0  0  0  0  0  0  0  0  0  0
   -4.4650   19.6070  -32.8840 C   0  0  0  0  0  0  0  0  0  0  0  0
   -3.9041   18.7454  -33.2753 H   0  0  0  0  0  0  0  0  0  0  0  0
   -5.8160   19.7630  -33.2100 C   0  0  0  0  0  0  0  0  0  0  0  0
   -6.4170   18.8270  -34.0490 O   0  0  0  0  0  0  0  0  0  0  0  0
   -5.7290   18.2080  -35.1280 C   0  0  0  0  0  0  0  0  0  0  0  0
   -4.9446   18.8858  -35.4957 H   0  0  0  0  0  0  0  0  0  0  0  0
   -6.4453   17.9914  -35.9342 H   0  0  0  0  0  0  0  0  0  0  0  0
   -5.0850   16.8910  -34.6600 C   0  0  0  0  0  0  0  0  0  0  0  0
   -4.0842   17.1132  -34.2612 H   0  0  0  0  0  0  0  0  0  0  0  0
   -5.0422   16.2197  -35.5303 H   0  0  0  0  0  0  0  0  0  0  0  0
   -5.8740   16.1970  -33.6020 N   0  0  0  0  0  0  0  0  0  0  0  0
   -6.4700   16.8890  -33.0910 H   0  0  0  0  0  0  0  0  0  0  0  0
   -6.7810   15.2050  -34.2090 C   0  0  0  0  0  0  0  0  0  0  0  0
   -7.2945   14.6434  -33.4147 H   0  0  0  0  0  0  0  0  0  0  0  0
   -7.5253   15.7219  -34.8325 H   0  0  0  0  0  0  0  0  0  0  0  0
   -6.1996   14.5098  -34.8325 H   0  0  0  0  0  0  0  0  0  0  0  0
   -5.0010   15.5230  -32.6170 C   0  0  0  0  0  0  0  0  0  0  0  0
   -5.3313   15.7780  -31.5992 H   0  0  0  0  0  0  0  0  0  0  0  0
   -5.0600   14.4339  -32.7595 H   0  0  0  0  0  0  0  0  0  0  0  0
   -3.9623   15.8557  -32.7595 H   0  0  0  0  0  0  0  0  0  0  0  0
   -6.5270   20.8650  -32.7120 C   0  0  0  0  0  0  0  0  0  0  0  0
   -7.5947   20.9819  -32.9493 H   0  0  0  0  0  0  0  0  0  0  0  0
   -5.8810   21.8160  -31.9140 C   0  0  0  0  0  0  0  0  0  0  0  0
   -6.4395   22.6879  -31.5427 H   0  0  0  0  0  0  0  0  0  0  0  0
  1  2  1  0
  2  3  1  0
  3  4  1  0
  4  5  2  0
  5  6  1  0
  6  7  2  0
  6  8  1  0
  8  9  2  0
  9 10  1  0
  9 11  1  0
 11 12  1  0
 11 13  2  0
 13 14  1  0
 13 15  1  0
 15 16  1  0
 15 17  2  0
 17 18  1  0
  4 19  1  0
 19 20  1  0
 19 21  2  0
 21 22  1  0
 21 23  1  0
 23 24  1  0
 24 25  2  0
 25 26  1  0
 25 27  1  0
 27 28  1  0
 27 29  2  0
 29 30  1  0
 30 31  1  0
 31 32  1  0
 31 33  1  0
 31 34  1  0
 34 35  1  0
 34 36  1  0
 34 37  1  0
 37 38  1  0
 37 39  1  0
 39 40  1  0
 39 41  1  0
 39 42  1  0
 37 43  1  0
 43 44  1  0
 43 45  1  0
 43 46  1  0
 29 47  1  0
 47 48  1  0
 47 49  2  0
 49 50  1  0
 23  2  2  0
 49 24  1  0
 17  8  1  0
M  CHG  2   3  -1  37   1
M  END
>  <UniqueID>  (10) 
10

>  <SMILES>  (10) 
C[NH+](C)CCOc1ccc(-c2cc/c(=N\C(=O)c3ccccc3)[n-]c2)cc1

>  <Energy>  (10) 
74.92155594095243

>  <Genealogy>  (10) 
C[NH+](C)CCOc1ccc(-c2ccc(=NC(=O)c3ccccc3)[n-]c2)cc1 (protonated)
C[NH+](C)CCOc1ccc(-c2cc/c(=N\C(=O)c3ccccc3)[n-]c2)cc1 (cis-trans isomerization)
C[NH+](C)CCOc1ccc(-c2cc/c(=N\C(=O)c3ccccc3)[n-]c2)cc1 (3D coordinates assigned)
C[NH+](C)CCOc1ccc(-c2cc/c(=N\C(=O)c3ccccc3)[n-]c2)cc1 (optimized conformer: 74.92155594095243 kcal/mol)

>  <smiles>  (10) 
CN(C)CCOc1ccc(-c2ccc(=NC(=O)c3ccccc3)[nH]c2)cc1

>  <score_type>  (10) 
oracle

>  <origin>  (10) 
adg

>  <m_score__min__energy>  (10) 
-9.8900000000000006

>  <m_primary>  (10) 
energy

$$$$
10:0
     RDKit          3D

 36 37  0  0  0  0  0  0  0  0999 V2000
   -0.0270   20.1000  -32.5640 C   0  0  0  0  0  0  0  0  0  0  0  0
   -0.6980   21.1880  -33.4220 C   0  0  2  0  0  0  0  0  0  0  0  0
   -2.1520   21.1230  -33.1680 C   0  0  0  0  0  0  0  0  0  0  0  0
   -3.3390   21.0720  -32.9630 C   0  0  0  0  0  0  0  0  0  0  0  0
   -4.7560   21.0090  -32.7240 C   0  0  0  0  0  0  0  0  0  0  0  0
   -5.4590   22.1760  -32.3400 C   0  0  0  0  0  0  0  0  0  0  0  0
   -6.8440   22.1300  -32.1030 C   0  0  0  0  0  0  0  0  0  0  0  0
   -7.4930   20.9030  -32.2580 C   0  0  0  0  0  0  0  0  0  0  0  0
   -6.8110   19.7730  -32.6300 C   0  0  0  0  0  0  0  0  0  0  0  0
   -7.7220   18.7400  -32.6960 C   0  0  0  0  0  0  0  0  0  0  0  0
   -8.9450   19.3050  -32.3530 C   0  0  0  0  0  0  0  0  0  0  0  0
   -8.8000   20.6250  -32.0870 N   0  0  0  0  0  0  0  0  0  0  0  0
   -9.8560   21.5520  -31.6930 C   0  0  0  0  0  0  0  0  0  0  0  0
   -5.4390   19.7860  -32.8720 C   0  0  0  0  0  0  0  0  0  0  0  0
   -0.4040   21.0320  -34.8790 N   0  0  0  0  0  0  0  0  0  0  0  0
    0.7320   21.8880  -35.2860 C   0  0  0  0  0  0  0  0  0  0  0  0
   -0.0860   19.6310  -35.2270 C   0  0  0  0  0  0  0  0  0  0  0  0
   -0.1706   20.3328  -31.4986 H   0  0  0  0  0  0  0  0  0  0  0  0
   -0.4799   19.1234  -32.7902 H   0  0  0  0  0  0  0  0  0  0  0  0
    1.0490   20.0664  -32.7902 H   0  0  0  0  0  0  0  0  0  0  0  0
   -0.2937   22.1713  -33.1395 H   0  0  0  0  0  0  0  0  0  0  0  0
   -4.9173   23.1266  -32.2261 H   0  0  0  0  0  0  0  0  0  0  0  0
   -7.3989   23.0318  -31.8049 H   0  0  0  0  0  0  0  0  0  0  0  0
   -7.5233   17.6916  -32.9633 H   0  0  0  0  0  0  0  0  0  0  0  0
   -9.8973   18.7566  -32.3044 H   0  0  0  0  0  0  0  0  0  0  0  0
   -9.9109   21.6002  -30.5954 H   0  0  0  0  0  0  0  0  0  0  0  0
   -9.6340   22.5522  -32.0933 H   0  0  0  0  0  0  0  0  0  0  0  0
  -10.8191   21.2023  -32.0933 H   0  0  0  0  0  0  0  0  0  0  0  0
   -4.9063   18.8706  -33.1691 H   0  0  0  0  0  0  0  0  0  0  0  0
   -1.2440   21.3210  -35.4360 H   0  0  0  0  0  0  0  0  0  0  0  0
    1.2414   22.2718  -34.3898 H   0  0  0  0  0  0  0  0  0  0  0  0
    1.4401   21.2970  -35.8854 H   0  0  0  0  0  0  0  0  0  0  0  0
    0.3591   22.7316  -35.8854 H   0  0  0  0  0  0  0  0  0  0  0  0
    0.0469   19.0454  -34.3054 H   0  0  0  0  0  0  0  0  0  0  0  0
   -0.9100   19.2037  -35.8173 H   0  0  0  0  0  0  0  0  0  0  0  0
    0.8417   19.6013  -35.8173 H   0  0  0  0  0  0  0  0  0  0  0  0
  1  2  1  0
  2  3  1  0
  3  4  3  0
  4  5  1  0
  5  6  2  0
  6  7  1  0
  7  8  2  0
  8  9  1  0
  9 10  1  0
 10 11  2  0
 11 12  1  0
 12 13  1  0
  9 14  2  0
  2 15  1  0
 15 16  1  0
 15 17  1  0
 14  5  1  0
 12  8  1  0
  1 18  1  0
  1 19  1  0
  1 20  1  0
  2 21  1  1
  6 22  1  0
  7 23  1  0
 10 24  1  0
 11 25  1  0
 13 26  1  0
 13 27  1  0
 13 28  1  0
 14 29  1  0
 15 30  1  0
 16 31  1  0
 16 32  1  0
 16 33  1  0
 17 34  1  0
 17 35  1  0
 17 36  1  0
M  CHG  1  15   1
M  END
>  <UniqueID>  (11) 
11

>  <SMILES>  (11) 
C[C@H](C#Cc1ccc2c(ccn2C)c1)[NH+](C)C

>  <Energy>  (11) 
66.56304874187353

>  <Genealogy>  (11) 
CC(C#Cc1ccc2c(ccn2C)c1)[NH+](C)C (protonated)
C[C@H](C#Cc1ccc2c(ccn2C)c1)[NH+](C)C (chirality)
C[C@H](C#Cc1ccc2c(ccn2C)c1)[NH+](C)C (3D coordinates assigned)
C[C@H](C#Cc1ccc2c(ccn2C)c1)[NH+](C)C (optimized conformer: 66.56304874187353 kcal/mol)

>  <smiles>  (11) 
CC(C#Cc1ccc2c(ccn2C)c1)N(C)C

>  <score_type>  (11) 
oracle

>  <origin>  (11) 
adg

>  <m_score__min__energy>  (11) 
-5.2599999999999998

>  <m_primary>  (11) 
energy

$$$$
11:0
     RDKit          3D

 45 48  0  0  0  0  0  0  0  0999 V2000
   -1.3950   23.8670  -26.7420 C   0  0  0  0  0  0  0  0  0  0  0  0
   -2.4860   23.7570  -27.7630 C   0  0  0  0  0  0  0  0  0  0  0  0
   -2.4710   24.5770  -28.9010 C   0  0  0  0  0  0  0  0  0  0  0  0
   -3.5010   24.4990  -29.8420 C   0  0  0  0  0  0  0  0  0  0  0  0
   -4.5660   23.6110  -29.6490 C   0  0  0  0  0  0  0  0  0  0  0  0
   -5.8340   23.4900  -30.8620 S   0  0  0  0  0  0  0  0  0  0  0  0
   -5.6270   24.5590  -31.8970 O   0  0  0  0  0  0  0  0  0  0  0  0
   -7.1820   23.7100  -30.2360 O   0  0  0  0  0  0  0  0  0  0  0  0
   -5.7730   21.9050  -31.5820 N   0  0  0  0  0  0  0  0  0  0  0  0
   -6.8130   21.0730  -31.8530 C   0  0  0  0  0  0  0  0  0  0  0  0
   -6.3830   19.9800  -32.5790 C   0  0  0  0  0  0  0  0  0  0  0  0
   -5.0230   20.1240  -32.7270 C   0  0  0  0  0  0  0  0  0  0  0  0
   -4.0850   19.3280  -33.3820 C   0  0  0  0  0  0  0  0  0  0  0  0
   -2.7510   19.7700  -33.4040 C   0  0  0  0  0  0  0  0  0  0  0  0
   -2.3830   20.9840  -32.7720 C   0  0  0  0  0  0  0  0  0  0  0  0
   -0.9640   21.4640  -32.8410 C   0  0  0  0  0  0  0  0  0  0  0  0
   -3.3640   21.7760  -32.1400 C   0  0  0  0  0  0  0  0  0  0  0  0
   -4.6820   21.3110  -32.1210 C   0  0  0  0  0  0  0  0  0  0  0  0
   -7.2940   18.8890  -33.0510 C   0  0  0  0  0  0  0  0  0  0  0  0
   -8.6890   19.3700  -33.0920 N   0  0  0  0  0  0  0  0  0  0  0  0
   -9.0850   20.0290  -31.8310 C   0  0  0  0  0  0  0  0  0  0  0  0
   -8.2670   21.3150  -31.5730 C   0  0  0  0  0  0  0  0  0  0  0  0
   -4.5960   22.8050  -28.4990 C   0  0  0  0  0  0  0  0  0  0  0  0
   -3.5660   22.8840  -27.5560 C   0  0  0  0  0  0  0  0  0  0  0  0
   -1.8312   23.8230  -25.7331 H   0  0  0  0  0  0  0  0  0  0  0  0
   -0.6863   23.0358  -26.8716 H   0  0  0  0  0  0  0  0  0  0  0  0
   -0.8665   24.8230  -26.8716 H   0  0  0  0  0  0  0  0  0  0  0  0
   -1.6436   25.2856  -29.0535 H   0  0  0  0  0  0  0  0  0  0  0  0
   -3.4750   25.1374  -30.7374 H   0  0  0  0  0  0  0  0  0  0  0  0
   -4.3790   18.3849  -33.8658 H   0  0  0  0  0  0  0  0  0  0  0  0
   -1.9858   19.1683  -33.9163 H   0  0  0  0  0  0  0  0  0  0  0  0
   -0.5718   21.5967  -31.8219 H   0  0  0  0  0  0  0  0  0  0  0  0
   -0.3518   20.7229  -33.3759 H   0  0  0  0  0  0  0  0  0  0  0  0
   -0.9274   22.4245  -33.3759 H   0  0  0  0  0  0  0  0  0  0  0  0
   -3.0984   22.7361  -31.6735 H   0  0  0  0  0  0  0  0  0  0  0  0
   -6.9893   18.5724  -34.0594 H   0  0  0  0  0  0  0  0  0  0  0  0
   -7.2279   18.0404  -32.3542 H   0  0  0  0  0  0  0  0  0  0  0  0
   -9.3200   18.5520  -33.2570 H   0  0  0  0  0  0  0  0  0  0  0  0
   -8.8070   20.0390  -33.8900 H   0  0  0  0  0  0  0  0  0  0  0  0
  -10.1520   20.2909  -31.8861 H   0  0  0  0  0  0  0  0  0  0  0  0
   -8.8914   19.3294  -31.0045 H   0  0  0  0  0  0  0  0  0  0  0  0
   -8.6345   22.1167  -32.2304 H   0  0  0  0  0  0  0  0  0  0  0  0
   -8.3843   21.6079  -30.5192 H   0  0  0  0  0  0  0  0  0  0  0  0
   -5.4327   22.1090  -28.3394 H   0  0  0  0  0  0  0  0  0  0  0  0
   -3.6022   22.2608  -26.6503 H   0  0  0  0  0  0  0  0  0  0  0  0
  1  2  1  0
  2  3  2  0
  3  4  1  0
  4  5  2  0
  5  6  1  0
  6  7  2  0
  6  8  2  0
  6  9  1  0
  9 10  1  0
 10 11  2  0
 11 12  1  0
 12 13  2  0
 13 14  1  0
 14 15  2  0
 15 16  1  0
 15 17  1  0
 17 18  2  0
 11 19  1  0
 19 20  1  0
 20 21  1  0
 21 22  1  0
  5 23  1  0
 23 24  2  0
 24  2  1  0
 18  9  1  0
 22 10  1  0
 18 12  1  0
  1 25  1  0
  1 26  1  0
  1 27  1  0
  3 28  1  0
  4 29  1  0
 13 30  1  0
 14 31  1  0
 16 32  1  0
 16 33  1  0
 16 34  1  0
 17 35  1  0
 19 36  1  0
 19 37  1  0
 20 38  1  0
 20 39  1  0
 21 40  1  0
 21 41  1  0
 22 42  1  0
 22 43  1  0
 23 44  1  0
 24 45  1  0
M  CHG  1  20   1
M  END
>  <UniqueID>  (12) 
12

>  <SMILES>  (12) 
Cc1ccc(S(=O)(=O)n2c3c(c4ccc(C)cc42)C[NH2+]CC3)cc1

>  <Energy>  (12) 
86.3999382545709

>  <Genealogy>  (12) 
Cc1ccc(S(=O)(=O)n2c3c(c4ccc(C)cc42)C[NH2+]CC3)cc1 (protonated)
Cc1ccc(S(=O)(=O)n2c3c(c4ccc(C)cc42)C[NH2+]CC3)cc1 (3D coordinates assigned)
Cc1ccc(S(=O)(=O)n2c3c(c4ccc(C)cc42)C[NH2+]CC3)cc1 (nonaromatic ring conformer: 86.3999382545709 kcal/mol)

>  <smiles>  (12) 
Cc1ccc(S(=O)(=O)n2c3c(c4ccc(C)cc42)CNCC3)cc1

>  <score_type>  (12) 
oracle

>  <origin>  (12) 
adg

>  <m_score__min__energy>  (12) 
-8.7300000000000004

>  <m_primary>  (12) 
energy

$$$$
12:0
     RDKit          3D

 38 38  0  0  0  0  0  0  0  0999 V2000
   -6.2987   23.1875  -28.9995 H   0  0  0  0  0  0  0  0  0  0  0  0
   -5.5040   23.4340  -29.7190 C   0  0  0  0  0  0  0  0  0  0  0  0
   -5.7690   23.3370  -30.9910 N   0  0  0  0  0  0  0  0  0  0  0  0
   -7.0130   23.7320  -31.6570 C   0  0  0  0  0  0  0  0  0  0  0  0
   -6.7666   24.3994  -32.4960 H   0  0  0  0  0  0  0  0  0  0  0  0
   -7.6451   24.2346  -30.9101 H   0  0  0  0  0  0  0  0  0  0  0  0
   -7.8060   22.5230  -32.2030 C   0  0  0  0  0  0  0  0  0  0  0  0
   -7.8292   22.5935  -33.3005 H   0  0  0  0  0  0  0  0  0  0  0  0
   -8.8072   22.5725  -31.7501 H   0  0  0  0  0  0  0  0  0  0  0  0
   -7.2360   21.1990  -31.8330 N   0  0  0  0  0  0  0  0  0  0  0  0
   -6.5500   21.3830  -31.0630 H   0  0  0  0  0  0  0  0  0  0  0  0
   -6.4110   20.5860  -32.9150 C   0  0  0  0  0  0  0  0  0  0  0  0
   -6.8043   20.9370  -33.8805 H   0  0  0  0  0  0  0  0  0  0  0  0
   -6.4881   19.4980  -32.7723 H   0  0  0  0  0  0  0  0  0  0  0  0
   -4.9070   20.9110  -32.8700 C   0  0  0  0  0  0  0  0  0  0  0  0
   -4.5784   20.9820  -31.8226 H   0  0  0  0  0  0  0  0  0  0  0  0
   -4.3442   20.1137  -33.3776 H   0  0  0  0  0  0  0  0  0  0  0  0
   -4.7236   21.8695  -33.3776 H   0  0  0  0  0  0  0  0  0  0  0  0
   -8.2140   20.2480  -31.2360 C   0  0  0  0  0  0  0  0  0  0  0  0
   -7.7416   19.7779  -30.3609 H   0  0  0  0  0  0  0  0  0  0  0  0
   -9.1056   20.8419  -30.9862 H   0  0  0  0  0  0  0  0  0  0  0  0
   -8.6920   19.1340  -32.1730 C   0  0  0  0  0  0  0  0  0  0  0  0
   -9.0565   18.2845  -31.5767 H   0  0  0  0  0  0  0  0  0  0  0  0
   -9.5067   19.5130  -32.8075 H   0  0  0  0  0  0  0  0  0  0  0  0
   -7.8560   18.8047  -32.8075 H   0  0  0  0  0  0  0  0  0  0  0  0
   -4.1910   23.8580  -29.1950 C   0  0  0  0  0  0  0  0  0  0  0  0
   -3.4890   24.9300  -29.7720 C   0  0  0  0  0  0  0  0  0  0  0  0
   -4.0260   25.6300  -30.8460 O   0  0  0  0  0  0  0  0  0  0  0  0
   -2.3060   25.2980  -29.2850 O   0  0  0  0  0  0  0  0  0  0  0  0
   -1.7380   24.6990  -28.2410 C   0  0  0  0  0  0  0  0  0  0  0  0
   -0.4050   25.1680  -27.7560 C   0  0  0  0  0  0  0  0  0  0  0  0
   -0.3954   25.1714  -26.6560 H   0  0  0  0  0  0  0  0  0  0  0  0
    0.3790   24.4917  -28.1274 H   0  0  0  0  0  0  0  0  0  0  0  0
   -0.2171   26.1862  -28.1274 H   0  0  0  0  0  0  0  0  0  0  0  0
   -2.3910   23.6420  -27.5970 C   0  0  0  0  0  0  0  0  0  0  0  0
   -1.9327   23.1494  -26.7267 H   0  0  0  0  0  0  0  0  0  0  0  0
   -3.6320   23.2230  -28.0760 C   0  0  0  0  0  0  0  0  0  0  0  0
   -4.2340   22.2720  -27.5070 O   0  0  0  0  0  0  0  0  0  0  0  0
  1  2  1  0
  2  3  2  0
  3  4  1  0
  4  5  1  0
  4  6  1  0
  4  7  1  0
  7  8  1  0
  7  9  1  0
  7 10  1  0
 10 11  1  0
 10 12  1  0
 12 13  1  0
 12 14  1  0
 12 15  1  0
 15 16  1  0
 15 17  1  0
 15 18  1  0
 10 19  1  0
 19 20  1  0
 19 21  1  0
 19 22  1  0
 22 23  1  0
 22 24  1  0
 22 25  1  0
  2 26  1  0
 26 27  2  0
 27 28  1  0
 27 29  1  0
 29 30  1  0
 30 31  1  0
 31 32  1  0
 31 33  1  0
 31 34  1  0
 30 35  2  0
 35 36  1  0
 35 37  1  0
 37 38  2  0
 37 26  1  0
M  CHG  2  10   1  28  -1
M  END
>  <UniqueID>  (13) 
13

>  <SMILES>  (13) 
CC[NH+](CC)CC/N=C\c1c([O-])oc(C)cc1=O

>  <Energy>  (13) 
51.19453417793816

>  <Genealogy>  (13) 
CC[NH+](CC)CCN=Cc1c([O-])oc(C)cc1=O (protonated)
CC[NH+](CC)CC/N=C\c1c([O-])oc(C)cc1=O (cis-trans isomerization)
CC[NH+](CC)CC/N=C\c1c([O-])oc(C)cc1=O (3D coordinates assigned)
CC[NH+](CC)CC/N=C\c1c([O-])oc(C)cc1=O (optimized conformer: 51.19453417793816 kcal/mol)

>  <smiles>  (13) 
CCN(CC)CCN=Cc1c(O)oc(C)cc1=O

>  <score_type>  (13) 
oracle

>  <origin>  (13) 
adg

>  <m_score__min__energy>  (13) 
-7.7599999999999998

>  <m_primary>  (13) 
energy

$$$$
13:0
     RDKit          3D

 46 49  0  0  0  0  0  0  0  0999 V2000
   -9.4560   22.0110  -31.5680 C   0  0  0  0  0  0  0  0  0  0  0  0
   -8.7380   20.7130  -31.9310 C   0  0  0  0  0  0  0  0  0  0  0  0
   -7.2880   20.9480  -32.1100 N   0  0  0  0  0  0  0  0  0  0  0  0
   -6.7500   20.2170  -33.2880 C   0  0  0  0  0  0  0  0  0  0  0  0
   -6.8700   18.7160  -33.0570 C   0  0  0  0  0  0  0  0  0  0  0  0
   -7.0030   22.3980  -32.1880 C   0  0  0  0  0  0  0  0  0  0  0  0
   -5.6830   22.7170  -31.5360 C   0  0  0  0  0  0  0  0  0  0  0  0
   -4.4730   22.3290  -32.1680 C   0  0  0  0  0  0  0  0  0  0  0  0
   -3.2300   22.6460  -31.5880 C   0  0  0  0  0  0  0  0  0  0  0  0
   -3.2360   23.3470  -30.3860 C   0  0  0  0  0  0  0  0  0  0  0  0
   -2.1810   23.7580  -29.6710 N   0  0  0  0  0  0  0  0  0  0  0  0
   -2.7610   24.3820  -28.6120 C   0  0  0  0  0  0  0  0  0  0  0  0
   -2.0010   25.0460  -27.5360 C   0  0  0  0  0  0  0  0  0  0  0  0
   -0.3150   25.2050  -27.5690 S   0  0  0  0  0  0  0  0  0  0  0  0
   -0.1920   25.9480  -26.0730 C   0  0  0  0  0  0  0  0  0  0  0  0
    0.9510   26.3930  -25.4180 C   0  0  0  0  0  0  0  0  0  0  0  0
    0.7920   26.9980  -24.1660 C   0  0  0  0  0  0  0  0  0  0  0  0
   -0.4970   27.1410  -23.6190 C   0  0  0  0  0  0  0  0  0  0  0  0
   -1.5950   26.6900  -24.2970 N   0  0  0  0  0  0  0  0  0  0  0  0
   -1.4500   26.0920  -25.5160 C   0  0  0  0  0  0  0  0  0  0  0  0
   -2.4850   25.5910  -26.3310 C   0  0  0  0  0  0  0  0  0  0  0  0
   -3.8740   25.6720  -25.9840 N   0  0  0  0  0  0  0  0  0  0  0  0
   -4.1210   24.3880  -28.6460 N   0  0  0  0  0  0  0  0  0  0  0  0
   -4.3910   23.7210  -29.7770 C   0  0  0  0  0  0  0  0  0  0  0  0
   -5.6410   23.4290  -30.3150 C   0  0  0  0  0  0  0  0  0  0  0  0
   -9.5091   22.1069  -30.4735 H   0  0  0  0  0  0  0  0  0  0  0  0
   -8.9021   22.8653  -31.9845 H   0  0  0  0  0  0  0  0  0  0  0  0
  -10.4740   21.9958  -31.9845 H   0  0  0  0  0  0  0  0  0  0  0  0
   -8.8879   19.9801  -31.1246 H   0  0  0  0  0  0  0  0  0  0  0  0
   -9.1532   20.3323  -32.8758 H   0  0  0  0  0  0  0  0  0  0  0  0
   -7.3225   20.4962  -34.1848 H   0  0  0  0  0  0  0  0  0  0  0  0
   -5.6916   20.4812  -33.4295 H   0  0  0  0  0  0  0  0  0  0  0  0
   -6.8863   18.5115  -31.9763 H   0  0  0  0  0  0  0  0  0  0  0  0
   -7.8004   18.3479  -33.5139 H   0  0  0  0  0  0  0  0  0  0  0  0
   -6.0099   18.2048  -33.5139 H   0  0  0  0  0  0  0  0  0  0  0  0
   -6.9669   22.7026  -33.2444 H   0  0  0  0  0  0  0  0  0  0  0  0
   -7.7991   22.9438  -31.6604 H   0  0  0  0  0  0  0  0  0  0  0  0
   -4.5066   21.7763  -33.1185 H   0  0  0  0  0  0  0  0  0  0  0  0
   -2.2860   22.3496  -32.0687 H   0  0  0  0  0  0  0  0  0  0  0  0
    1.9472   26.2735  -25.8689 H   0  0  0  0  0  0  0  0  0  0  0  0
    1.6705   27.3602  -23.6119 H   0  0  0  0  0  0  0  0  0  0  0  0
   -0.6220   27.6201  -22.6368 H   0  0  0  0  0  0  0  0  0  0  0  0
   -2.5340   26.8190  -23.8630 H   0  0  0  0  0  0  0  0  0  0  0  0
   -4.6200   25.6270  -26.7100 H   0  0  0  0  0  0  0  0  0  0  0  0
   -4.1900   25.7090  -24.9930 H   0  0  0  0  0  0  0  0  0  0  0  0
   -6.5654   23.7417  -29.8073 H   0  0  0  0  0  0  0  0  0  0  0  0
  1  2  1  0
  2  3  1  0
  3  4  1  0
  4  5  1  0
  3  6  1  0
  6  7  1  0
  7  8  2  0
  8  9  1  0
  9 10  2  0
 10 11  1  0
 11 12  1  0
 12 13  1  0
 13 14  1  0
 14 15  1  0
 15 16  2  0
 16 17  1  0
 17 18  2  0
 18 19  1  0
 19 20  2  0
 20 21  1  0
 21 22  1  0
 12 23  2  0
 23 24  1  0
 24 25  2  0
 25  7  1  0
 24 10  1  0
 21 13  2  0
 20 15  1  0
  1 26  1  0
  1 27  1  0
  1 28  1  0
  2 29  1  0
  2 30  1  0
  4 31  1  0
  4 32  1  0
  5 33  1  0
  5 34  1  0
  5 35  1  0
  6 36  1  0
  6 37  1  0
  8 38  1  0
  9 39  1  0
 16 40  1  0
 17 41  1  0
 18 42  1  0
 19 43  1  0
 22 44  1  0
 22 45  1  0
 25 46  1  0
M  CHG  2  11  -1  19   1
M  END
>  <UniqueID>  (14) 
14

>  <SMILES>  (14) 
CCN(CC)Cc1ccc2[n-]c(-c3sc4ccc[nH+]c4c3N)nc2c1

>  <Energy>  (14) 
117.4946236618964

>  <Genealogy>  (14) 
CCN(CC)Cc1ccc2[n-]c(-c3sc4ccc[nH+]c4c3N)nc2c1 (protonated)
CCN(CC)Cc1ccc2[n-]c(-c3sc4ccc[nH+]c4c3N)nc2c1 (3D coordinates assigned)
CCN(CC)Cc1ccc2[n-]c(-c3sc4ccc[nH+]c4c3N)nc2c1 (optimized conformer: 117.4946236618964 kcal/mol)

>  <smiles>  (14) 
CCN(CC)Cc1ccc2[nH]c(-c3sc4cccnc4c3N)nc2c1

>  <score_type>  (14) 
oracle

>  <origin>  (14) 
adg

>  <m_score__min__energy>  (14) 
-8.5800000000000001

>  <m_primary>  (14) 
energy

$$$$
14:0
     RDKit          3D

 33 33  0  0  0  0  0  0  0  0999 V2000
   -5.2343   20.8198  -30.5353 H   0  0  0  0  0  0  0  0  0  0  0  0
   -5.7660   21.2070  -31.4170 C   0  0  0  0  0  0  0  0  0  0  0  0
   -5.2180   22.2400  -32.0780 C   0  0  0  0  0  0  0  0  0  0  0  0
   -3.8270   21.9230  -33.1050 Cl  0  0  0  0  0  0  0  0  0  0  0  0
   -5.7030   23.6650  -31.9550 C   0  0  0  0  0  0  0  0  0  0  0  0
   -6.7240   23.6624  -31.5458 H   0  0  0  0  0  0  0  0  0  0  0  0
   -5.6865   24.1259  -32.9536 H   0  0  0  0  0  0  0  0  0  0  0  0
   -4.8270   24.4530  -31.0610 N   0  0  0  0  0  0  0  0  0  0  0  0
   -5.4050   25.6840  -30.4670 C   0  0  0  0  0  0  0  0  0  0  0  0
   -5.8563   26.2751  -31.2775 H   0  0  0  0  0  0  0  0  0  0  0  0
   -4.5763   26.2005  -29.9606 H   0  0  0  0  0  0  0  0  0  0  0  0
   -6.4790   25.4430  -29.3980 C   0  0  0  0  0  0  0  0  0  0  0  0
   -6.0306   25.5436  -28.3986 H   0  0  0  0  0  0  0  0  0  0  0  0
   -7.2848   26.1827  -29.5145 H   0  0  0  0  0  0  0  0  0  0  0  0
   -6.8915   24.4300  -29.5145 H   0  0  0  0  0  0  0  0  0  0  0  0
   -3.9930   23.6420  -30.1480 C   0  0  0  0  0  0  0  0  0  0  0  0
   -4.6566   23.1173  -29.4449 H   0  0  0  0  0  0  0  0  0  0  0  0
   -3.4123   22.9477  -30.7732 H   0  0  0  0  0  0  0  0  0  0  0  0
   -2.9880   24.4660  -29.3410 C   0  0  0  0  0  0  0  0  0  0  0  0
   -3.1702   24.3166  -28.2665 H   0  0  0  0  0  0  0  0  0  0  0  0
   -1.9661   24.1424  -29.5881 H   0  0  0  0  0  0  0  0  0  0  0  0
   -3.1050   25.5315  -29.5881 H   0  0  0  0  0  0  0  0  0  0  0  0
   -7.0360   20.5580  -31.7980 C   0  0  0  0  0  0  0  0  0  0  0  0
   -7.1130   19.1690  -31.9950 C   0  0  0  0  0  0  0  0  0  0  0  0
   -6.2160   18.5457  -31.8651 H   0  0  0  0  0  0  0  0  0  0  0  0
   -8.3280   18.5770  -32.3560 C   0  0  0  0  0  0  0  0  0  0  0  0
   -8.3821   17.4909  -32.5219 H   0  0  0  0  0  0  0  0  0  0  0  0
   -9.4730   19.3640  -32.5060 C   0  0  0  0  0  0  0  0  0  0  0  0
  -10.4257   18.8986  -32.7989 H   0  0  0  0  0  0  0  0  0  0  0  0
   -9.4080   20.7420  -32.2840 C   0  0  0  0  0  0  0  0  0  0  0  0
  -10.3119   21.3591  -32.3942 H   0  0  0  0  0  0  0  0  0  0  0  0
   -8.1960   21.3380  -31.9220 C   0  0  0  0  0  0  0  0  0  0  0  0
   -8.1517   22.4209  -31.7340 H   0  0  0  0  0  0  0  0  0  0  0  0
  1  2  1  0
  2  3  2  0
  3  4  1  0
  3  5  1  0
  5  6  1  0
  5  7  1  0
  5  8  1  0
  8  9  1  0
  9 10  1  0
  9 11  1  0
  9 12  1  0
 12 13  1  0
 12 14  1  0
 12 15  1  0
  8 16  1  0
 16 17  1  0
 16 18  1  0
 16 19  1  0
 19 20  1  0
 19 21  1  0
 19 22  1  0
  2 23  1  0
 23 24  2  0
 24 25  1  0
 24 26  1  0
 26 27  1  0
 26 28  2  0
 28 29  1  0
 28 30  1  0
 30 31  1  0
 30 32  2  0
 32 33  1  0
 32 23  1  0
M  END
>  <UniqueID>  (15) 
15

>  <SMILES>  (15) 
CCN(CC)C/C(Cl)=C\c1ccccc1

>  <Energy>  (15) 
40.13060817925864

>  <Genealogy>  (15) 
CCN(CC)C/C(Cl)=C\c1ccccc1 (cis-trans isomerization)
CCN(CC)C/C(Cl)=C\c1ccccc1 (3D coordinates assigned)
CCN(CC)C/C(Cl)=C\c1ccccc1 (optimized conformer: 40.13060817925864 kcal/mol)

>  <smiles>  (15) 
CCN(CC)CC(Cl)=Cc1ccccc1

>  <score_type>  (15) 
oracle

>  <origin>  (15) 
adg

>  <m_score__min__energy>  (15) 
-6.3700000000000001

>  <m_primary>  (15) 
energy

$$$$
15:0
     RDKit          3D

 36 38  0  0  0  0  0  0  0  0999 V2000
    0.6670   22.8360  -35.7640 C   0  0  0  0  0  0  0  0  0  0  0  0
    0.8910   22.0420  -34.6040 O   0  0  0  0  0  0  0  0  0  0  0  0
    0.1890   20.8660  -34.2990 C   0  0  0  0  0  0  0  0  0  0  0  0
    0.9220   19.6980  -34.0690 C   0  0  0  0  0  0  0  0  0  0  0  0
    0.2720   18.5020  -33.7620 C   0  0  0  0  0  0  0  0  0  0  0  0
   -1.1220   18.4610  -33.6810 C   0  0  0  0  0  0  0  0  0  0  0  0
   -1.8840   19.6230  -33.9070 C   0  0  0  0  0  0  0  0  0  0  0  0
   -3.3650   19.5780  -33.8210 C   0  0  0  0  0  0  0  0  0  0  0  0
   -4.0600   18.5680  -34.4080 N   0  0  0  0  0  0  0  0  0  0  0  0
   -5.4130   18.5150  -34.3380 C   0  0  0  0  0  0  0  0  0  0  0  0
   -6.1190   19.5060  -33.6550 C   0  0  0  0  0  0  0  0  0  0  0  0
   -5.4020   20.5540  -33.0460 C   0  0  0  0  0  0  0  0  0  0  0  0
   -6.0640   21.6660  -32.2900 C   0  0  0  0  0  0  0  0  0  0  0  0
   -7.4280   21.6300  -31.9290 C   0  0  0  0  0  0  0  0  0  0  0  0
   -8.0080   22.6860  -31.2250 C   0  0  0  0  0  0  0  0  0  0  0  0
   -7.2460   23.7980  -30.8660 C   0  0  0  0  0  0  0  0  0  0  0  0
   -5.8880   23.8670  -31.2080 C   0  0  0  0  0  0  0  0  0  0  0  0
   -5.1050   25.0160  -30.8370 N   0  0  0  0  0  0  0  0  0  0  0  0
   -3.8570   24.9650  -30.8370 O   0  0  0  0  0  0  0  0  0  0  0  0
   -5.7180   26.1930  -30.4730 O   0  0  0  0  0  0  0  0  0  0  0  0
   -5.3080   22.7990  -31.9180 C   0  0  0  0  0  0  0  0  0  0  0  0
   -4.0440   20.5500  -33.1530 N   0  0  0  0  0  0  0  0  0  0  0  0
   -1.2170   20.8240  -34.2170 C   0  0  0  0  0  0  0  0  0  0  0  0
    0.3798   23.8539  -35.4617 H   0  0  0  0  0  0  0  0  0  0  0  0
    1.5884   22.8777  -36.3633 H   0  0  0  0  0  0  0  0  0  0  0  0
   -0.1404   22.3900  -36.3633 H   0  0  0  0  0  0  0  0  0  0  0  0
    2.0200   19.7220  -34.1305 H   0  0  0  0  0  0  0  0  0  0  0  0
    0.8589   17.5890  -33.5833 H   0  0  0  0  0  0  0  0  0  0  0  0
   -1.6276   17.5145  -33.4390 H   0  0  0  0  0  0  0  0  0  0  0  0
   -5.9554   17.6888  -34.8208 H   0  0  0  0  0  0  0  0  0  0  0  0
   -7.2167   19.4693  -33.5933 H   0  0  0  0  0  0  0  0  0  0  0  0
   -8.0409   20.7595  -32.2058 H   0  0  0  0  0  0  0  0  0  0  0  0
   -9.0725   22.6413  -30.9515 H   0  0  0  0  0  0  0  0  0  0  0  0
   -7.7131   24.6253  -30.3115 H   0  0  0  0  0  0  0  0  0  0  0  0
   -4.2430   22.8481  -32.1888 H   0  0  0  0  0  0  0  0  0  0  0  0
   -1.8000   21.7392  -34.3971 H   0  0  0  0  0  0  0  0  0  0  0  0
  1  2  1  0
  2  3  1  0
  3  4  2  0
  4  5  1  0
  5  6  2  0
  6  7  1  0
  7  8  1  0
  8  9  2  0
  9 10  1  0
 10 11  2  0
 11 12  1  0
 12 13  1  0
 13 14  2  0
 14 15  1  0
 15 16  2  0
 16 17  1  0
 17 18  1  0
 18 19  2  0
 18 20  1  0
 17 21  2  0
 12 22  2  0
  7 23  2  0
 23  3  1  0
 22  8  1  0
 21 13  1  0
  1 24  1  0
  1 25  1  0
  1 26  1  0
  4 27  1  0
  5 28  1  0
  6 29  1  0
 10 30  1  0
 11 31  1  0
 14 32  1  0
 15 33  1  0
 16 34  1  0
 21 35  1  0
 23 36  1  0
M  CHG  2  18   1  20  -1
M  END
>  <UniqueID>  (16) 
16

>  <SMILES>  (16) 
COc1cccc(-c2nccc(-c3cccc([N+](=O)[O-])c3)n2)c1

>  <Energy>  (16) 
46.46466923456516

>  <Genealogy>  (16) 
COc1cccc(-c2nccc(-c3cccc([N+](=O)[O-])c3)n2)c1 (3D coordinates assigned)
COc1cccc(-c2nccc(-c3cccc([N+](=O)[O-])c3)n2)c1 (optimized conformer: 46.46466923456516 kcal/mol)

>  <smiles>  (16) 
COc1cccc(-c2nccc(-c3cccc([N+](=O)[O-])c3)n2)c1

>  <score_type>  (16) 
oracle

>  <origin>  (16) 
adg

>  <m_score__min__energy>  (16) 
-8.5199999999999996

>  <m_primary>  (16) 
energy

$$$$
16:0
     RDKit          3D

 63 68  0  0  1  0  0  0  0  0999 V2000
   -7.1280   17.1850  -33.8900 O   0  0  0  0  0  0  0  0  0  0  0  0
   -6.3220   16.0530  -33.6470 C   0  0  0  0  0  0  0  0  0  0  0  0
   -5.0120   16.2830  -34.4020 C   0  0  0  0  0  0  0  0  0  0  0  0
   -1.7590   20.0960  -32.9690 N   0  0  0  0  0  0  0  0  0  0  0  0
   -3.0100   19.9270  -33.1870 C   0  0  0  0  0  0  0  0  0  0  0  0
   -3.3940   18.8650  -33.9450 N   0  0  0  0  0  0  0  0  0  0  0  0
   -4.6990   18.6340  -34.2100 C   0  0  0  0  0  0  0  0  0  0  0  0
   -5.0010   17.6270  -34.9240 N   0  0  0  0  0  0  0  0  0  0  0  0
   -1.1880   19.4920  -31.7790 C   0  0  0  0  0  0  0  0  0  0  0  0
   -1.1310   20.5690  -30.7400 C   0  0  0  0  0  0  0  0  0  0  0  0
   -1.2830   20.2180  -29.4150 C   0  0  0  0  0  0  0  0  0  0  0  0
   -1.2390   21.1740  -28.4210 C   0  0  0  0  0  0  0  0  0  0  0  0
   -1.0420   22.4770  -28.7700 C   0  0  0  0  0  0  0  0  0  0  0  0
   -0.9950   23.4920  -27.7120 C   0  0  0  0  0  0  0  0  0  0  0  0
   -0.6800   23.4560  -26.3990 C   0  0  0  0  0  0  0  0  0  0  0  0
   -0.7380   24.5910  -25.6870 C   0  0  0  0  0  0  0  0  0  0  0  0
   -0.4480   24.7590  -24.3090 C   0  0  0  0  0  0  0  0  0  0  0  0
   -0.5560   25.9950  -23.7230 C   0  0  0  0  0  0  0  0  0  0  0  0
   -0.9380   27.1410  -24.3860 C   0  0  0  0  0  0  0  0  0  0  0  0
   -1.2240   26.9770  -25.7460 C   0  0  0  0  0  0  0  0  0  0  0  0
   -1.1120   25.7390  -26.3150 C   0  0  0  0  0  0  0  0  0  0  0  0
   -1.4210   25.2700  -28.0250 S   0  0  0  0  0  0  0  0  0  0  0  0
   -0.8890   22.8530  -30.0680 C   0  0  0  0  0  0  0  0  0  0  0  0
   -0.9330   21.8960  -31.0620 C   0  0  0  0  0  0  0  0  0  0  0  0
   -3.9940   20.7690  -32.6910 C   0  0  0  0  0  0  0  0  0  0  0  0
   -3.8820   21.8650  -31.9310 N   0  0  0  0  0  0  0  0  0  0  0  0
   -5.1340   22.3140  -31.7260 C   0  0  0  0  0  0  0  0  0  0  0  0
   -6.0000   21.5080  -32.3490 N   0  0  0  0  0  0  0  0  0  0  0  0
   -7.4410   21.6540  -32.3670 C   0  0  0  0  0  0  0  0  0  0  0  0
   -7.9560   22.1620  -31.0260 C   0  0  0  0  0  0  0  0  0  0  0  0
   -9.4490   21.9020  -31.1860 C   0  0  0  0  0  0  0  0  0  0  0  0
   -9.4950   20.5690  -31.8950 C   0  0  0  0  0  0  0  0  0  0  0  0
   -8.1230   20.3170  -32.4650 C   0  0  0  0  0  0  0  0  0  0  0  0
   -5.3360   20.5320  -32.9630 C   0  0  0  0  0  0  0  0  0  0  0  0
   -5.6340   19.4620  -33.7200 N   0  0  0  0  0  0  0  0  0  0  0  0
   -6.8830   17.5930  -34.7600 H   0  0  0  0  0  0  0  0  0  0  0  0
   -6.1266   15.9498  -32.5694 H   0  0  0  0  0  0  0  0  0  0  0  0
   -6.8188   15.1311  -33.9837 H   0  0  0  0  0  0  0  0  0  0  0  0
   -4.1625   16.1465  -33.7167 H   0  0  0  0  0  0  0  0  0  0  0  0
   -4.9281   15.5624  -35.2288 H   0  0  0  0  0  0  0  0  0  0  0  0
   -2.6750   18.2030  -34.3410 H   0  0  0  0  0  0  0  0  0  0  0  0
   -1.8222   18.6628  -31.4322 H   0  0  0  0  0  0  0  0  0  0  0  0
   -0.1875   19.0824  -31.9822 H   0  0  0  0  0  0  0  0  0  0  0  0
   -1.4413   19.1629  -29.1473 H   0  0  0  0  0  0  0  0  0  0  0  0
   -1.3608   20.8897  -27.3654 H   0  0  0  0  0  0  0  0  0  0  0  0
   -0.3808   22.5112  -25.9216 H   0  0  0  0  0  0  0  0  0  0  0  0
   -0.1347   23.8936  -23.7066 H   0  0  0  0  0  0  0  0  0  0  0  0
   -0.3218   26.0766  -22.6513 H   0  0  0  0  0  0  0  0  0  0  0  0
   -1.0128   28.1158  -23.8819 H   0  0  0  0  0  0  0  0  0  0  0  0
   -1.5370   27.8390  -26.3535 H   0  0  0  0  0  0  0  0  0  0  0  0
   -0.7315   23.9112  -30.3238 H   0  0  0  0  0  0  0  0  0  0  0  0
   -0.8098   22.1923  -32.1141 H   0  0  0  0  0  0  0  0  0  0  0  0
   -5.4027   23.2042  -31.1383 H   0  0  0  0  0  0  0  0  0  0  0  0
   -7.6490   22.3253  -33.2132 H   0  0  0  0  0  0  0  0  0  0  0  0
   -7.5322   21.5922  -30.1859 H   0  0  0  0  0  0  0  0  0  0  0  0
   -7.6940   23.2061  -30.7998 H   0  0  0  0  0  0  0  0  0  0  0  0
   -9.9463   21.8448  -30.2065 H   0  0  0  0  0  0  0  0  0  0  0  0
   -9.9687   22.7004  -31.7359 H   0  0  0  0  0  0  0  0  0  0  0  0
   -9.7589   19.7730  -31.1832 H   0  0  0  0  0  0  0  0  0  0  0  0
  -10.2524   20.5781  -32.6926 H   0  0  0  0  0  0  0  0  0  0  0  0
   -7.5867   19.5596  -31.8745 H   0  0  0  0  0  0  0  0  0  0  0  0
   -8.1551   19.9309  -33.4945 H   0  0  0  0  0  0  0  0  0  0  0  0
   -6.6390   19.2860  -33.9220 H   0  0  0  0  0  0  0  0  0  0  0  0
  1  2  1  0
  2  3  1  0
  3  4  1  0
  4  5  2  0
  5  6  1  0
  6  7  1  0
  7  8  2  0
  8  9  1  0
  9 10  1  0
 10 11  2  0
 11 12  1  0
 12 13  2  0
 13 14  1  0
 14 15  2  0
 15 16  1  0
 16 17  2  0
 17 18  1  0
 18 19  2  0
 19 20  1  0
 20 21  2  0
 21 22  1  0
 13 23  1  0
 23 24  2  0
  7 25  1  0
 25 26  1  0
 26 27  2  0
 27 28  1  0
 28 29  1  0
 29 30  1  0
 30 31  1  0
 31 32  1  0
 32 33  1  0
 28 34  1  0
 34 35  1  0
 35  5  1  0
 24 10  1  0
 34 25  2  0
 22 14  1  0
 33 29  1  0
 21 16  1  0
  1 36  1  0
  2 37  1  0
  2 38  1  0
  3 39  1  0
  3 40  1  0
  6 41  1  0
  9 42  1  0
  9 43  1  0
 11 44  1  0
 12 45  1  0
 15 46  1  0
 17 47  1  0
 18 48  1  0
 19 49  1  0
 20 50  1  0
 23 51  1  0
 24 52  1  0
 27 53  1  0
 29 54  1  0
 30 55  1  0
 30 56  1  0
 31 57  1  0
 31 58  1  0
 32 59  1  0
 32 60  1  0
 33 61  1  0
 33 62  1  0
 35 63  1  0
M  END
>  <smiles>  (17) 
OCCN=c1[nH]c(=NCc2ccc(-c3cc4ccccc4s3)cc2)c2ncn(C3CCCC3)c2[nH]1

>  <score_type>  (17) 
oracle

>  <origin>  (17) 
adg

>  <m_score__min__energy>  (17) 
-10.93

>  <m_primary>  (17) 
energy

$$$$
17:0
     RDKit          3D

 60 62  0  0  1  0  0  0  0  0999 V2000
   -3.0860   21.1100  -29.0060 C   0  0  0  0  0  0  0  0  0  0  0  0
   -3.4000   22.2790  -28.1450 C   0  0  0  0  0  0  0  0  0  0  0  0
   -3.7040   23.4830  -28.8060 N   0  0  0  0  0  0  0  0  0  0  0  0
   -2.6530   24.4920  -28.6440 C   0  0  0  0  0  0  0  0  0  0  0  0
   -1.3180   24.0370  -29.1210 C   0  0  0  0  0  0  0  0  0  0  0  0
   -4.9870   24.0270  -28.8000 C   0  0  0  0  0  0  0  0  0  0  0  0
   -5.4020   25.0490  -29.7710 C   0  0  0  0  0  0  0  0  0  0  0  0
   -5.0110   24.6870  -31.1400 N   0  0  0  0  0  0  0  0  0  0  0  0
   -4.9810   23.4920  -31.5870 C   0  0  0  0  0  0  0  0  0  0  0  0
   -6.1250   22.7980  -31.7050 N   0  0  0  0  0  0  0  0  0  0  0  0
   -6.0320   21.5410  -32.1770 C   0  0  0  0  0  0  0  0  0  0  0  0
   -7.1870   20.7370  -32.3320 N   0  0  0  0  0  0  0  0  0  0  0  0
   -7.2480   19.3680  -32.8600 C   0  0  0  0  0  0  0  0  0  0  0  0
   -8.6940   18.9560  -32.7210 C   0  0  0  0  0  0  0  0  0  0  0  0
   -9.1110   19.8150  -31.5140 C   0  0  0  0  0  0  0  0  0  0  0  0
   -8.5500   21.1610  -31.9780 C   0  0  0  0  0  0  0  0  0  0  0  0
   -4.8220   21.0210  -32.5090 N   0  0  0  0  0  0  0  0  0  0  0  0
   -3.6770   21.7160  -32.3890 C   0  0  0  0  0  0  0  0  0  0  0  0
   -2.4020   21.1730  -32.7290 N   0  0  0  0  0  0  0  0  0  0  0  0
   -2.2670   20.2950  -33.8750 C   0  0  0  0  0  0  0  0  0  0  0  0
   -1.0120   19.4890  -33.8910 C   0  0  0  0  0  0  0  0  0  0  0  0
    0.0970   20.1130  -33.2440 N   0  0  0  0  0  0  0  0  0  0  0  0
    0.6540   21.1760  -34.0290 C   0  0  0  0  0  0  0  0  0  0  0  0
   -0.1980   20.4780  -31.8920 C   0  0  0  0  0  0  0  0  0  0  0  0
   -1.2690   21.5300  -31.8930 C   0  0  0  0  0  0  0  0  0  0  0  0
   -3.7850   22.9720  -31.9170 N   0  0  0  0  0  0  0  0  0  0  0  0
   -2.8526   20.2409  -28.3734 H   0  0  0  0  0  0  0  0  0  0  0  0
   -3.9539   20.8787  -29.6411 H   0  0  0  0  0  0  0  0  0  0  0  0
   -2.2191   21.3447  -29.6411 H   0  0  0  0  0  0  0  0  0  0  0  0
   -4.2665   22.0119  -27.5222 H   0  0  0  0  0  0  0  0  0  0  0  0
   -2.4770   22.4816  -27.5820 H   0  0  0  0  0  0  0  0  0  0  0  0
   -2.9397   25.3886  -29.2132 H   0  0  0  0  0  0  0  0  0  0  0  0
   -2.5611   24.6951  -27.5668 H   0  0  0  0  0  0  0  0  0  0  0  0
   -0.6747   23.8178  -28.2560 H   0  0  0  0  0  0  0  0  0  0  0  0
   -1.4362   23.1284  -29.7297 H   0  0  0  0  0  0  0  0  0  0  0  0
   -0.8567   24.8287  -29.7297 H   0  0  0  0  0  0  0  0  0  0  0  0
   -5.6805   23.1825  -28.9258 H   0  0  0  0  0  0  0  0  0  0  0  0
   -4.9964   24.5884  -27.8541 H   0  0  0  0  0  0  0  0  0  0  0  0
   -6.4959   25.1573  -29.7293 H   0  0  0  0  0  0  0  0  0  0  0  0
   -4.9026   25.9937  -29.5098 H   0  0  0  0  0  0  0  0  0  0  0  0
   -6.9405   19.3475  -33.9160 H   0  0  0  0  0  0  0  0  0  0  0  0
   -6.5723   18.6880  -32.3204 H   0  0  0  0  0  0  0  0  0  0  0  0
   -9.2767   19.2069  -33.6196 H   0  0  0  0  0  0  0  0  0  0  0  0
   -8.8542   17.8752  -32.5937 H   0  0  0  0  0  0  0  0  0  0  0  0
  -10.2031   19.8447  -31.3857 H   0  0  0  0  0  0  0  0  0  0  0  0
   -8.7528   19.4636  -30.5351 H   0  0  0  0  0  0  0  0  0  0  0  0
   -9.0965   21.5576  -32.8464 H   0  0  0  0  0  0  0  0  0  0  0  0
   -8.6141   21.9771  -31.2432 H   0  0  0  0  0  0  0  0  0  0  0  0
   -4.8160   20.0440  -32.8690 H   0  0  0  0  0  0  0  0  0  0  0  0
   -3.1209   19.6016  -33.8793 H   0  0  0  0  0  0  0  0  0  0  0  0
   -2.2349   20.9425  -34.7637 H   0  0  0  0  0  0  0  0  0  0  0  0
   -1.2110   18.5321  -33.3863 H   0  0  0  0  0  0  0  0  0  0  0  0
   -0.7310   19.3659  -34.9474 H   0  0  0  0  0  0  0  0  0  0  0  0
    1.0599   21.9507  -33.3618 H   0  0  0  0  0  0  0  0  0  0  0  0
    1.4602   20.7795  -34.6637 H   0  0  0  0  0  0  0  0  0  0  0  0
   -0.1309   21.6132  -34.6637 H   0  0  0  0  0  0  0  0  0  0  0  0
   -0.5496   19.5941  -31.3396 H   0  0  0  0  0  0  0  0  0  0  0  0
    0.7079   20.8700  -31.4065 H   0  0  0  0  0  0  0  0  0  0  0  0
   -1.6234   21.6729  -30.8615 H   0  0  0  0  0  0  0  0  0  0  0  0
   -0.8301   22.4518  -32.3026 H   0  0  0  0  0  0  0  0  0  0  0  0
  1  2  1  0
  2  3  1  0
  3  4  1  0
  4  5  1  0
  3  6  1  0
  6  7  1  0
  7  8  1  0
  8  9  2  0
  9 10  1  0
 10 11  2  0
 11 12  1  0
 12 13  1  0
 13 14  1  0
 14 15  1  0
 15 16  1  0
 11 17  1  0
 17 18  1  0
 18 19  1  0
 19 20  1  0
 20 21  1  0
 21 22  1  0
 22 23  1  0
 22 24  1  0
 24 25  1  0
 18 26  2  0
 26  9  1  0
 16 12  1  0
 25 19  1  0
  1 27  1  0
  1 28  1  0
  1 29  1  0
  2 30  1  0
  2 31  1  0
  4 32  1  0
  4 33  1  0
  5 34  1  0
  5 35  1  0
  5 36  1  0
  6 37  1  0
  6 38  1  0
  7 39  1  0
  7 40  1  0
 13 41  1  0
 13 42  1  0
 14 43  1  0
 14 44  1  0
 15 45  1  0
 15 46  1  0
 16 47  1  0
 16 48  1  0
 17 49  1  0
 20 50  1  0
 20 51  1  0
 21 52  1  0
 21 53  1  0
 23 54  1  0
 23 55  1  0
 23 56  1  0
 24 57  1  0
 24 58  1  0
 25 59  1  0
 25 60  1  0
M  END
>  <smiles>  (18) 
CCN(CC)CCN=c1nc(N2CCCC2)[nH]c(N2CCN(C)CC2)n1

>  <score_type>  (18) 
oracle

>  <origin>  (18) 
adg

>  <m_score__min__energy>  (18) 
-7.0700000000000003

>  <m_primary>  (18) 
energy

$$$$
18:0
     RDKit          3D

 45 48  0  0  0  0  0  0  0  0999 V2000
   -4.0430   22.0170  -32.0560 C   0  0  0  0  0  0  0  0  0  0  0  0
   -5.4710   21.5510  -32.0580 C   0  0  0  0  0  0  0  0  0  0  0  0
   -5.6890   20.2030  -32.0380 N   0  0  0  0  0  0  0  0  0  0  0  0
   -6.9530   19.7350  -32.0060 C   0  0  0  0  0  0  0  0  0  0  0  0
   -7.3050   18.4390  -32.0010 N   0  0  0  0  0  0  0  0  0  0  0  0
   -8.6600   18.5390  -31.9680 C   0  0  0  0  0  0  0  0  0  0  0  0
   -9.0970   19.8210  -31.9540 N   0  0  0  0  0  0  0  0  0  0  0  0
   -7.9990   20.5530  -31.9760 N   0  0  0  0  0  0  0  0  0  0  0  0
   -7.8930   21.9070  -31.9740 C   0  0  0  0  0  0  0  0  0  0  0  0
   -9.1480   22.7450  -31.9630 C   0  0  0  0  0  0  0  0  0  0  0  0
   -6.5790   22.4620  -32.0440 C   0  0  0  0  0  0  0  0  0  0  0  0
   -6.3570   23.9680  -32.1380 C   0  0  0  0  0  0  0  0  0  0  0  0
   -6.2910   24.6550  -30.7640 C   0  0  0  0  0  0  0  0  0  0  0  0
   -4.9150   24.6020  -30.1690 C   0  0  0  0  0  0  0  0  0  0  0  0
   -3.9480   25.1040  -30.8040 O   0  0  0  0  0  0  0  0  0  0  0  0
   -4.7070   23.9870  -28.8880 N   0  0  0  0  0  0  0  0  0  0  0  0
   -3.4170   23.6160  -28.3720 C   0  0  0  0  0  0  0  0  0  0  0  0
   -3.2310   22.3270  -27.8470 C   0  0  0  0  0  0  0  0  0  0  0  0
   -1.9800   21.9310  -27.3600 C   0  0  0  0  0  0  0  0  0  0  0  0
   -0.9010   22.8170  -27.4110 C   0  0  0  0  0  0  0  0  0  0  0  0
   -1.0630   24.0870  -27.9780 C   0  0  0  0  0  0  0  0  0  0  0  0
   -2.3160   24.4920  -28.4490 C   0  0  0  0  0  0  0  0  0  0  0  0
    0.0450   24.9360  -28.0710 O   0  0  0  0  0  0  0  0  0  0  0  0
    1.3700   24.4470  -27.8550 C   0  0  0  0  0  0  0  0  0  0  0  0
    1.3790   23.4260  -26.7090 C   0  0  0  0  0  0  0  0  0  0  0  0
    0.3500   22.4520  -26.9050 O   0  0  0  0  0  0  0  0  0  0  0  0
   -3.6957   22.1303  -31.0184 H   0  0  0  0  0  0  0  0  0  0  0  0
   -3.4151   21.2771  -32.5741 H   0  0  0  0  0  0  0  0  0  0  0  0
   -3.9724   22.9848  -32.5741 H   0  0  0  0  0  0  0  0  0  0  0  0
   -9.3325   17.6686  -31.9541 H   0  0  0  0  0  0  0  0  0  0  0  0
   -9.4466   22.9444  -30.9233 H   0  0  0  0  0  0  0  0  0  0  0  0
   -8.9573   23.6976  -32.4789 H   0  0  0  0  0  0  0  0  0  0  0  0
   -9.9548   22.2038  -32.4789 H   0  0  0  0  0  0  0  0  0  0  0  0
   -5.4094   24.1499  -32.6662 H   0  0  0  0  0  0  0  0  0  0  0  0
   -7.2169   24.3933  -32.6763 H   0  0  0  0  0  0  0  0  0  0  0  0
   -6.5863   25.7082  -30.8801 H   0  0  0  0  0  0  0  0  0  0  0  0
   -6.9726   24.1202  -30.0862 H   0  0  0  0  0  0  0  0  0  0  0  0
   -5.5410   23.8450  -28.2740 H   0  0  0  0  0  0  0  0  0  0  0  0
   -4.0754   21.6227  -27.8182 H   0  0  0  0  0  0  0  0  0  0  0  0
   -1.8466   20.9240  -26.9379 H   0  0  0  0  0  0  0  0  0  0  0  0
   -2.4422   25.4960  -28.8803 H   0  0  0  0  0  0  0  0  0  0  0  0
    1.7334   23.9644  -28.7743 H   0  0  0  0  0  0  0  0  0  0  0  0
    2.0244   25.2902  -27.5891 H   0  0  0  0  0  0  0  0  0  0  0  0
    2.3559   22.9212  -26.6801 H   0  0  0  0  0  0  0  0  0  0  0  0
    1.1987   23.9515  -25.7596 H   0  0  0  0  0  0  0  0  0  0  0  0
  1  2  1  0
  2  3  2  0
  3  4  1  0
  4  5  2  0
  5  6  1  0
  6  7  2  0
  7  8  1  0
  8  9  1  0
  9 10  1  0
  9 11  2  0
 11 12  1  0
 12 13  1  0
 13 14  1  0
 14 15  2  0
 14 16  1  0
 16 17  1  0
 17 18  2  0
 18 19  1  0
 19 20  2  0
 20 21  1  0
 21 22  2  0
 21 23  1  0
 23 24  1  0
 24 25  1  0
 25 26  1  0
 11  2  1  0
 22 17  1  0
  8  4  1  0
 26 20  1  0
  1 27  1  0
  1 28  1  0
  1 29  1  0
  6 30  1  0
 10 31  1  0
 10 32  1  0
 10 33  1  0
 12 34  1  0
 12 35  1  0
 13 36  1  0
 13 37  1  0
 16 38  1  0
 18 39  1  0
 19 40  1  0
 22 41  1  0
 24 42  1  0
 24 43  1  0
 25 44  1  0
 25 45  1  0
M  END
>  <UniqueID>  (19) 
17

>  <SMILES>  (19) 
Cc1nc2ncnn2c(C)c1CCC(=O)Nc1ccc2c(c1)OCCO2

>  <Energy>  (19) 
90.8189731351062

>  <Genealogy>  (19) 
Cc1nc2ncnn2c(C)c1CCC(=O)Nc1ccc2c(c1)OCCO2 (3D coordinates assigned)
Cc1nc2ncnn2c(C)c1CCC(=O)Nc1ccc2c(c1)OCCO2 (nonaromatic ring conformer: 90.8189731351062 kcal/mol)

>  <smiles>  (19) 
Cc1nc2ncnn2c(C)c1CCC(=O)Nc1ccc2c(c1)OCCO2

>  <score_type>  (19) 
oracle

>  <origin>  (19) 
adg

>  <m_score__min__energy>  (19) 
-9.3000000000000007

>  <m_primary>  (19) 
energy

$$$$
19:0
     RDKit          3D

 71 75  0  0  0  0  0  0  0  0999 V2000
   -4.6840   26.6910  -29.7600 H   0  0  0  0  0  0  0  0  0  0  0  0
   -4.2410   26.0640  -30.4190 O   0  0  0  0  0  0  0  0  0  0  0  0
   -4.8620   24.8930  -30.8430 C   0  0  0  0  0  0  0  0  0  0  0  0
   -6.1420   24.8650  -31.2820 N   0  0  0  0  0  0  0  0  0  0  0  0
   -6.3650   23.5690  -31.5710 C   0  0  0  0  0  0  0  0  0  0  0  0
   -7.5480   23.0230  -32.0570 C   0  0  0  0  0  0  0  0  0  0  0  0
   -8.4247   23.6579  -32.2529 H   0  0  0  0  0  0  0  0  0  0  0  0
   -7.5930   21.6380  -32.2910 C   0  0  0  0  0  0  0  0  0  0  0  0
   -8.5161   21.1837  -32.6802 H   0  0  0  0  0  0  0  0  0  0  0  0
   -6.4630   20.8160  -32.0320 C   0  0  0  0  0  0  0  0  0  0  0  0
   -6.5290   19.3560  -32.2900 C   0  0  0  0  0  0  0  0  0  0  0  0
   -5.2200   18.3650  -32.6750 S   0  0  0  0  0  0  0  0  0  0  0  0
   -6.1470   16.9620  -32.7780 C   0  0  0  0  0  0  0  0  0  0  0  0
   -5.6380   15.6090  -33.0980 C   0  0  0  0  0  0  0  0  0  0  0  0
   -6.1760   14.8870  -34.1800 C   0  0  0  0  0  0  0  0  0  0  0  0
   -6.9767   15.3323  -34.7888 H   0  0  0  0  0  0  0  0  0  0  0  0
   -5.7010   13.6090  -34.4870 C   0  0  0  0  0  0  0  0  0  0  0  0
   -6.1281   13.0535  -35.3349 H   0  0  0  0  0  0  0  0  0  0  0  0
   -4.6850   13.0360  -33.7190 C   0  0  0  0  0  0  0  0  0  0  0  0
   -4.3124   12.0301  -33.9624 H   0  0  0  0  0  0  0  0  0  0  0  0
   -4.1420   13.7400  -32.6420 C   0  0  0  0  0  0  0  0  0  0  0  0
   -3.3425   13.2872  -32.0372 H   0  0  0  0  0  0  0  0  0  0  0  0
   -4.6130   15.0200  -32.3310 C   0  0  0  0  0  0  0  0  0  0  0  0
   -4.1805   15.5702  -31.4824 H   0  0  0  0  0  0  0  0  0  0  0  0
   -7.4490   17.2310  -32.5270 N   0  0  0  0  0  0  0  0  0  0  0  0
   -7.6670   18.5470  -32.2570 C   0  0  0  0  0  0  0  0  0  0  0  0
   -8.6670   18.9447  -32.0293 H   0  0  0  0  0  0  0  0  0  0  0  0
   -5.2780   21.4100  -31.5360 C   0  0  0  0  0  0  0  0  0  0  0  0
   -4.3885   20.7991  -31.3227 H   0  0  0  0  0  0  0  0  0  0  0  0
   -5.2650   22.7890  -31.3240 C   0  0  0  0  0  0  0  0  0  0  0  0
   -4.2750   23.6300  -30.8630 C   0  0  0  0  0  0  0  0  0  0  0  0
   -2.8950   23.2590  -30.4000 C   0  0  0  0  0  0  0  0  0  0  0  0
   -2.1806   23.4266  -31.2195 H   0  0  0  0  0  0  0  0  0  0  0  0
   -2.8907   22.1992  -30.1052 H   0  0  0  0  0  0  0  0  0  0  0  0
   -2.4960   24.0960  -29.2160 C   0  0  0  0  0  0  0  0  0  0  0  0
   -3.0650   24.0750  -27.9470 C   0  0  0  0  0  0  0  0  0  0  0  0
   -4.2120   23.2210  -27.4880 C   0  0  0  0  0  0  0  0  0  0  0  0
   -4.2378   23.2018  -26.3885 H   0  0  0  0  0  0  0  0  0  0  0  0
   -5.1555   23.6383  -27.8697 H   0  0  0  0  0  0  0  0  0  0  0  0
   -4.0828   22.1975  -27.8697 H   0  0  0  0  0  0  0  0  0  0  0  0
   -2.3520   24.9980  -27.1830 C   0  0  0  0  0  0  0  0  0  0  0  0
   -2.5390   25.3090  -25.7500 C   0  0  0  0  0  0  0  0  0  0  0  0
   -3.6720   25.6690  -25.3360 O   0  0  0  0  0  0  0  0  0  0  0  0
   -1.4160   25.2300  -24.8560 N   0  0  0  0  0  0  0  0  0  0  0  0
   -0.3740   24.4520  -24.9310 C   0  0  0  0  0  0  0  0  0  0  0  0
    0.5744   24.8911  -25.2741 H   0  0  0  0  0  0  0  0  0  0  0  0
   -0.3880   22.9890  -24.5770 C   0  0  0  0  0  0  0  0  0  0  0  0
   -1.3717   22.7259  -24.1609 H   0  0  0  0  0  0  0  0  0  0  0  0
    0.4001   22.7933  -23.8350 H   0  0  0  0  0  0  0  0  0  0  0  0
   -0.1310   22.1660  -25.7800 N   0  0  0  0  0  0  0  0  0  0  0  0
   -1.4020   21.6970  -26.3810 C   0  0  0  0  0  0  0  0  0  0  0  0
   -1.4550   22.0337  -27.4269 H   0  0  0  0  0  0  0  0  0  0  0  0
   -2.2439   22.1132  -25.8084 H   0  0  0  0  0  0  0  0  0  0  0  0
   -1.4770   20.1730  -26.3380 C   0  0  0  0  0  0  0  0  0  0  0  0
   -1.4936   19.8361  -25.2910 H   0  0  0  0  0  0  0  0  0  0  0  0
   -2.3928   19.8365  -26.8460 H   0  0  0  0  0  0  0  0  0  0  0  0
   -0.5987   19.7482  -26.8460 H   0  0  0  0  0  0  0  0  0  0  0  0
    0.6850   22.9110  -26.7660 C   0  0  0  0  0  0  0  0  0  0  0  0
    0.5389   23.9910  -26.6168 H   0  0  0  0  0  0  0  0  0  0  0  0
    1.7447   22.6525  -26.6238 H   0  0  0  0  0  0  0  0  0  0  0  0
    0.2670   22.5370  -28.1850 C   0  0  0  0  0  0  0  0  0  0  0  0
   -0.5522   21.8040  -28.1448 H   0  0  0  0  0  0  0  0  0  0  0  0
   -0.0729   23.4380  -28.7166 H   0  0  0  0  0  0  0  0  0  0  0  0
    1.1248   22.0993  -28.7166 H   0  0  0  0  0  0  0  0  0  0  0  0
   -1.4130   25.5610  -28.0390 C   0  0  0  0  0  0  0  0  0  0  0  0
   -0.4090   26.6160  -27.6900 C   0  0  0  0  0  0  0  0  0  0  0  0
   -0.3298   26.6992  -26.5960 H   0  0  0  0  0  0  0  0  0  0  0  0
    0.5707   26.3427  -28.1088 H   0  0  0  0  0  0  0  0  0  0  0  0
   -0.7305   27.5810  -28.1088 H   0  0  0  0  0  0  0  0  0  0  0  0
   -1.5120   25.0160  -29.2660 N   0  0  0  0  0  0  0  0  0  0  0  0
   -0.9270   25.2530  -30.0980 H   0  0  0  0  0  0  0  0  0  0  0  0
  1  2  1  0
  2  3  1  0
  3  4  1  0
  4  5  1  0
  5  6  2  0
  6  7  1  0
  6  8  1  0
  8  9  1  0
  8 10  2  0
 10 11  1  0
 11 12  1  0
 12 13  1  0
 13 14  1  0
 14 15  2  0
 15 16  1  0
 15 17  1  0
 17 18  1  0
 17 19  2  0
 19 20  1  0
 19 21  1  0
 21 22  1  0
 21 23  2  0
 23 24  1  0
 13 25  2  0
 25 26  1  0
 26 27  1  0
 10 28  1  0
 28 29  1  0
 28 30  2  0
 30 31  1  0
 31 32  1  0
 32 33  1  0
 32 34  1  0
 32 35  1  0
 35 36  2  0
 36 37  1  0
 37 38  1  0
 37 39  1  0
 37 40  1  0
 36 41  1  0
 41 42  1  0
 42 43  2  0
 42 44  1  0
 44 45  2  0
 45 46  1  0
 45 47  1  0
 47 48  1  0
 47 49  1  0
 47 50  1  0
 50 51  1  0
 51 52  1  0
 51 53  1  0
 51 54  1  0
 54 55  1  0
 54 56  1  0
 54 57  1  0
 50 58  1  0
 58 59  1  0
 58 60  1  0
 58 61  1  0
 61 62  1  0
 61 63  1  0
 61 64  1  0
 41 65  2  0
 65 66  1  0
 66 67  1  0
 66 68  1  0
 66 69  1  0
 65 70  1  0
 70 71  1  0
 31  3  2  0
 70 35  1  0
 30  5  1  0
 26 11  2  0
 23 14  1  0
M  CHG  1   4  -1
M  END
>  <UniqueID>  (20) 
18

>  <SMILES>  (20) 
CCN(CC)C/C=N\C(=O)c1c(C)[nH]c(Cc2c(O)[n-]c3ccc(-c4cnc(-c5ccccc5)s4)cc23)c1C

>  <Energy>  (20) 
167.35158259109676

>  <Genealogy>  (20) 
CCN(CC)CC=NC(=O)c1c(C)[nH]c(Cc2c(O)[n-]c3ccc(-c4cnc(-c5ccccc5)s4)cc23)c1C (protonated)
CCN(CC)C/C=N\C(=O)c1c(C)[nH]c(Cc2c(O)[n-]c3ccc(-c4cnc(-c5ccccc5)s4)cc23)c1C (cis-trans isomerization)
CCN(CC)C/C=N\C(=O)c1c(C)[nH]c(Cc2c(O)[n-]c3ccc(-c4cnc(-c5ccccc5)s4)cc23)c1C (3D coordinates assigned)
CCN(CC)C/C=N\C(=O)c1c(C)[nH]c(Cc2c(O)[n-]c3ccc(-c4cnc(-c5ccccc5)s4)cc23)c1C (optimized conformer: 167.35158259109676 kcal/mol)

>  <smiles>  (20) 
CCN(CC)CC=NC(=O)c1c(C)[nH]c(Cc2c(O)[nH]c3ccc(-c4cnc(-c5ccccc5)s4)cc23)c1C

>  <score_type>  (20) 
oracle

>  <origin>  (20) 
adg

>  <m_score__min__energy>  (20) 
-11.41

>  <m_primary>  (20) 
energy

$$$$
20:0
     RDKit          3D

 48 51  0  0  0  0  0  0  0  0999 V2000
   -1.6710   20.0070  -28.4830 C   0  0  0  0  0  0  0  0  0  0  0  0
   -2.6530   21.1160  -28.2570 C   0  0  0  0  0  0  0  0  0  0  0  0
   -2.8280   21.5300  -27.0750 O   0  0  0  0  0  0  0  0  0  0  0  0
   -3.3680   21.7340  -29.3510 N   0  0  0  0  0  0  0  0  0  0  0  0
   -3.0160   21.4490  -30.7550 C   0  0  0  0  0  0  0  0  0  0  0  0
   -3.3500   22.6490  -31.6530 C   0  0  0  0  0  0  0  0  0  0  0  0
   -4.8380   23.0870  -31.5520 C   0  0  0  0  0  0  0  0  0  0  0  0
   -5.6050   22.5880  -32.7170 N   0  0  0  0  0  0  0  0  0  0  0  0
   -6.8980   22.0540  -32.3370 C   0  0  0  0  0  0  0  0  0  0  0  0
   -7.9350   22.9570  -31.9960 C   0  0  0  0  0  0  0  0  0  0  0  0
   -9.1910   22.5070  -31.5610 C   0  0  0  0  0  0  0  0  0  0  0  0
   -9.4480   21.1400  -31.4540 C   0  0  0  0  0  0  0  0  0  0  0  0
   -8.4360   20.2540  -31.8060 C   0  0  0  0  0  0  0  0  0  0  0  0
   -8.4800   18.5910  -31.8380 S   0  0  0  0  0  0  0  0  0  0  0  0
   -6.9380   18.3160  -32.4040 N   0  0  0  0  0  0  0  0  0  0  0  0
   -6.3960   17.0230  -32.7370 C   0  0  0  0  0  0  0  0  0  0  0  0
   -5.3970   16.4360  -31.9400 C   0  0  0  0  0  0  0  0  0  0  0  0
   -4.8410   15.2040  -32.2970 C   0  0  0  0  0  0  0  0  0  0  0  0
   -5.2720   14.5460  -33.4530 C   0  0  0  0  0  0  0  0  0  0  0  0
   -4.7220   13.3560  -33.8030 F   0  0  0  0  0  0  0  0  0  0  0  0
   -6.2590   15.1240  -34.2550 C   0  0  0  0  0  0  0  0  0  0  0  0
   -6.8180   16.3570  -33.9020 C   0  0  0  0  0  0  0  0  0  0  0  0
   -6.3480   19.5370  -32.5620 C   0  0  0  0  0  0  0  0  0  0  0  0
   -5.1510   19.6340  -32.9420 O   0  0  0  0  0  0  0  0  0  0  0  0
   -7.1750   20.6600  -32.2440 C   0  0  0  0  0  0  0  0  0  0  0  0
   -5.4860   22.6750  -30.2040 C   0  0  0  0  0  0  0  0  0  0  0  0
   -4.4710   22.6630  -29.0560 C   0  0  0  0  0  0  0  0  0  0  0  0
   -1.3270   19.6185  -27.5131 H   0  0  0  0  0  0  0  0  0  0  0  0
   -2.1550   19.1988  -29.0509 H   0  0  0  0  0  0  0  0  0  0  0  0
   -0.8101   20.3896  -29.0509 H   0  0  0  0  0  0  0  0  0  0  0  0
   -1.9386   21.2373  -30.8213 H   0  0  0  0  0  0  0  0  0  0  0  0
   -3.5976   20.5797  -31.0958 H   0  0  0  0  0  0  0  0  0  0  0  0
   -2.7142   23.4963  -31.3567 H   0  0  0  0  0  0  0  0  0  0  0  0
   -3.1669   22.3426  -32.6935 H   0  0  0  0  0  0  0  0  0  0  0  0
   -4.8651   24.1864  -31.5738 H   0  0  0  0  0  0  0  0  0  0  0  0
   -5.0300   21.9150  -33.2650 H   0  0  0  0  0  0  0  0  0  0  0  0
   -5.7830   23.3980  -33.3580 H   0  0  0  0  0  0  0  0  0  0  0  0
   -7.7509   24.0387  -32.0742 H   0  0  0  0  0  0  0  0  0  0  0  0
   -9.9752   23.2342  -31.3036 H   0  0  0  0  0  0  0  0  0  0  0  0
  -10.4234   20.7736  -31.1012 H   0  0  0  0  0  0  0  0  0  0  0  0
   -5.0511   16.9491  -31.0306 H   0  0  0  0  0  0  0  0  0  0  0  0
   -4.0619   14.7508  -31.6664 H   0  0  0  0  0  0  0  0  0  0  0  0
   -6.5974   14.6086  -35.1660 H   0  0  0  0  0  0  0  0  0  0  0  0
   -7.5924   16.8085  -34.5395 H   0  0  0  0  0  0  0  0  0  0  0  0
   -6.2865   23.3897  -29.9622 H   0  0  0  0  0  0  0  0  0  0  0  0
   -5.8821   21.6550  -30.3165 H   0  0  0  0  0  0  0  0  0  0  0  0
   -4.0645   23.6763  -28.9220 H   0  0  0  0  0  0  0  0  0  0  0  0
   -4.9777   22.3324  -28.1373 H   0  0  0  0  0  0  0  0  0  0  0  0
  1  2  1  0
  2  3  2  0
  2  4  1  0
  4  5  1  0
  5  6  1  0
  6  7  1  0
  7  8  1  0
  8  9  1  0
  9 10  2  0
 10 11  1  0
 11 12  2  0
 12 13  1  0
 13 14  1  0
 14 15  1  0
 15 16  1  0
 16 17  2  0
 17 18  1  0
 18 19  2  0
 19 20  1  0
 19 21  1  0
 21 22  2  0
 15 23  1  0
 23 24  2  0
 23 25  1  0
  7 26  1  0
 26 27  1  0
 27  4  1  0
 25  9  1  0
 25 13  2  0
 22 16  1  0
  1 28  1  0
  1 29  1  0
  1 30  1  0
  5 31  1  0
  5 32  1  0
  6 33  1  0
  6 34  1  0
  7 35  1  0
  8 36  1  0
  8 37  1  0
 10 38  1  0
 11 39  1  0
 12 40  1  0
 17 41  1  0
 18 42  1  0
 21 43  1  0
 22 44  1  0
 26 45  1  0
 26 46  1  0
 27 47  1  0
 27 48  1  0
M  CHG  1   8   1
M  END
>  <UniqueID>  (21) 
19

>  <SMILES>  (21) 
CC(=O)N1CCC([NH2+]c2cccc3sn(-c4ccc(F)cc4)c(=O)c23)CC1

>  <Energy>  (21) 
104.4957450314412

>  <Genealogy>  (21) 
CC(=O)N1CCC([NH2+]c2cccc3sn(-c4ccc(F)cc4)c(=O)c23)CC1 (protonated)
CC(=O)N1CCC([NH2+]c2cccc3sn(-c4ccc(F)cc4)c(=O)c23)CC1 (3D coordinates assigned)
CC(=O)N1CCC([NH2+]c2cccc3sn(-c4ccc(F)cc4)c(=O)c23)CC1 (nonaromatic ring conformer: 104.4957450314412 kcal/mol)

>  <smiles>  (21) 
CC(=O)N1CCC(Nc2cccc3sn(-c4ccc(F)cc4)c(=O)c23)CC1

>  <score_type>  (21) 
oracle

>  <origin>  (21) 
adg

>  <m_score__min__energy>  (21) 
-8.0500000000000007

>  <m_primary>  (21) 
energy

$$$$
21:0
     RDKit          3D

 49 51  0  0  0  0  0  0  0  0999 V2000
   -6.0880   17.0510  -31.3030 C   0  0  0  0  0  0  0  0  0  0  0  0
   -6.7800   18.3670  -31.6540 C   0  0  0  0  0  0  0  0  0  0  0  0
   -7.1580   18.4010  -33.0830 N   0  0  0  0  0  0  0  0  0  0  0  0
   -6.5250   17.3000  -33.8540 C   0  0  0  0  0  0  0  0  0  0  0  0
   -5.5600   17.8820  -34.8790 C   0  0  0  0  0  0  0  0  0  0  0  0
   -6.8590   19.7280  -33.6670 C   0  0  0  0  0  0  0  0  0  0  0  0
   -7.0140   20.8230  -32.6290 C   0  0  0  0  0  0  0  0  0  0  0  0
   -8.2530   21.1170  -31.9840 C   0  0  0  0  0  0  0  0  0  0  0  0
   -9.5240   20.3890  -32.3380 C   0  0  0  0  0  0  0  0  0  0  0  0
   -8.3050   22.1270  -30.9880 C   0  0  0  0  0  0  0  0  0  0  0  0
   -7.1590   22.8530  -30.6320 C   0  0  0  0  0  0  0  0  0  0  0  0
   -5.9680   22.5660  -31.2930 C   0  0  0  0  0  0  0  0  0  0  0  0
   -5.9000   21.5970  -32.2620 C   0  0  0  0  0  0  0  0  0  0  0  0
   -4.5880   21.5540  -32.7010 C   0  0  0  0  0  0  0  0  0  0  0  0
   -3.9120   22.5100  -31.9560 C   0  0  0  0  0  0  0  0  0  0  0  0
   -4.7570   23.1280  -31.1000 N   0  0  0  0  0  0  0  0  0  0  0  0
   -4.3830   24.1260  -30.0950 C   0  0  0  0  0  0  0  0  0  0  0  0
   -3.4220   23.5310  -29.0980 C   0  0  0  0  0  0  0  0  0  0  0  0
   -3.7240   22.2990  -28.4900 C   0  0  0  0  0  0  0  0  0  0  0  0
   -2.8540   21.7430  -27.5480 C   0  0  0  0  0  0  0  0  0  0  0  0
   -1.6720   22.4050  -27.2090 C   0  0  0  0  0  0  0  0  0  0  0  0
   -0.8300   21.8640  -26.2950 F   0  0  0  0  0  0  0  0  0  0  0  0
   -1.3550   23.6220  -27.8170 C   0  0  0  0  0  0  0  0  0  0  0  0
   -2.2210   24.1870  -28.7600 C   0  0  0  0  0  0  0  0  0  0  0  0
   -1.8860   25.3680  -29.3380 F   0  0  0  0  0  0  0  0  0  0  0  0
   -6.0328   16.9460  -30.2094 H   0  0  0  0  0  0  0  0  0  0  0  0
   -6.6614   16.2117  -31.7234 H   0  0  0  0  0  0  0  0  0  0  0  0
   -5.0715   17.0477  -31.7234 H   0  0  0  0  0  0  0  0  0  0  0  0
   -7.6862   18.4722  -31.0394 H   0  0  0  0  0  0  0  0  0  0  0  0
   -6.0824   19.1941  -31.4558 H   0  0  0  0  0  0  0  0  0  0  0  0
   -5.9748   16.6410  -33.1663 H   0  0  0  0  0  0  0  0  0  0  0  0
   -7.3044   16.7229  -34.3731 H   0  0  0  0  0  0  0  0  0  0  0  0
   -4.7302   18.3825  -34.3585 H   0  0  0  0  0  0  0  0  0  0  0  0
   -5.1627   17.0728  -35.5093 H   0  0  0  0  0  0  0  0  0  0  0  0
   -6.0904   18.6110  -35.5093 H   0  0  0  0  0  0  0  0  0  0  0  0
   -5.8252   19.7316  -34.0427 H   0  0  0  0  0  0  0  0  0  0  0  0
   -7.5664   19.9186  -34.4875 H   0  0  0  0  0  0  0  0  0  0  0  0
  -10.0447   20.0908  -31.4161 H   0  0  0  0  0  0  0  0  0  0  0  0
  -10.1740   21.0518  -32.9282 H   0  0  0  0  0  0  0  0  0  0  0  0
   -9.2812   19.4930  -32.9282 H   0  0  0  0  0  0  0  0  0  0  0  0
   -9.2600   22.3439  -30.4870 H   0  0  0  0  0  0  0  0  0  0  0  0
   -7.2002   23.6277  -29.8521 H   0  0  0  0  0  0  0  0  0  0  0  0
   -4.1685   20.8986  -33.4785 H   0  0  0  0  0  0  0  0  0  0  0  0
   -2.8390   22.7337  -32.0488 H   0  0  0  0  0  0  0  0  0  0  0  0
   -3.9044   24.9816  -30.5940 H   0  0  0  0  0  0  0  0  0  0  0  0
   -5.2886   24.4565  -29.5652 H   0  0  0  0  0  0  0  0  0  0  0  0
   -4.6506   21.7699  -28.7576 H   0  0  0  0  0  0  0  0  0  0  0  0
   -3.1008   20.7822  -27.0727 H   0  0  0  0  0  0  0  0  0  0  0  0
   -0.4204   24.1386  -27.5533 H   0  0  0  0  0  0  0  0  0  0  0  0
  1  2  1  0
  2  3  1  0
  3  4  1  0
  4  5  1  0
  3  6  1  0
  6  7  1  0
  7  8  2  0
  8  9  1  0
  8 10  1  0
 10 11  2  0
 11 12  1  0
 12 13  2  0
 13 14  1  0
 14 15  2  0
 15 16  1  0
 16 17  1  0
 17 18  1  0
 18 19  2  0
 19 20  1  0
 20 21  2  0
 21 22  1  0
 21 23  1  0
 23 24  2  0
 24 25  1  0
 13  7  1  0
 24 18  1  0
 16 12  1  0
  1 26  1  0
  1 27  1  0
  1 28  1  0
  2 29  1  0
  2 30  1  0
  4 31  1  0
  4 32  1  0
  5 33  1  0
  5 34  1  0
  5 35  1  0
  6 36  1  0
  6 37  1  0
  9 38  1  0
  9 39  1  0
  9 40  1  0
 10 41  1  0
 11 42  1  0
 14 43  1  0
 15 44  1  0
 17 45  1  0
 17 46  1  0
 19 47  1  0
 20 48  1  0
 23 49  1  0
M  END
>  <UniqueID>  (22) 
20

>  <SMILES>  (22) 
CCN(CC)Cc1c(C)ccc2c1ccn2Cc1ccc(F)cc1F

>  <Energy>  (22) 
82.61493388737998

>  <Genealogy>  (22) 
CCN(CC)Cc1c(C)ccc2c1ccn2Cc1ccc(F)cc1F (3D coordinates assigned)
CCN(CC)Cc1c(C)ccc2c1ccn2Cc1ccc(F)cc1F (optimized conformer: 82.61493388737998 kcal/mol)

>  <smiles>  (22) 
CCN(CC)Cc1c(C)ccc2c1ccn2Cc1ccc(F)cc1F

>  <score_type>  (22) 
oracle

>  <origin>  (22) 
adg

>  <m_score__min__energy>  (22) 
-8.0600000000000005

>  <m_primary>  (22) 
energy

$$$$
22:0
     RDKit          3D

 56 59  0  0  0  0  0  0  0  0999 V2000
   -8.8930   19.6970  -32.7040 C   0  0  0  0  0  0  0  0  0  0  0  0
   -7.4460   20.0930  -32.7430 C   0  0  0  0  0  0  0  0  0  0  0  0
   -6.5170   19.3030  -33.4350 C   0  0  0  0  0  0  0  0  0  0  0  0
   -5.1610   19.6640  -33.4660 C   0  0  0  0  0  0  0  0  0  0  0  0
   -4.1680   18.8050  -34.1900 C   0  0  0  0  0  0  0  0  0  0  0  0
   -4.7310   20.7940  -32.7540 C   0  0  0  0  0  0  0  0  0  0  0  0
   -5.6450   21.5670  -32.0240 C   0  0  0  0  0  0  0  0  0  0  0  0
   -5.1890   22.7340  -31.3190 N   0  0  0  0  0  0  0  0  0  0  0  0
   -5.4960   23.9660  -31.7020 N   0  0  0  0  0  0  0  0  0  0  0  0
   -4.9560   24.8280  -30.8180 C   0  0  0  0  0  0  0  0  0  0  0  0
   -4.2820   24.1100  -29.8510 C   0  0  0  0  0  0  0  0  0  0  0  0
   -3.5880   24.6260  -28.7070 N   0  0  0  0  0  0  0  0  0  0  0  0
   -2.5250   23.8950  -28.0160 C   0  0  0  0  0  0  0  0  0  0  0  0
   -1.1550   24.6070  -28.1640 C   0  0  2  0  0  0  0  0  0  0  0  0
   -1.2260   25.4050  -29.3250 O   0  0  0  0  0  0  0  0  0  0  0  0
   -0.0510   23.5300  -28.3840 C   0  0  0  0  0  0  0  0  0  0  0  0
   -0.4620   22.5080  -29.3480 N   0  0  0  0  0  0  0  0  0  0  0  0
   -0.4090   21.1760  -29.1860 C   0  0  0  0  0  0  0  0  0  0  0  0
   -0.8770   20.5350  -30.2750 N   0  0  0  0  0  0  0  0  0  0  0  0
   -1.2080   21.5570  -31.0940 C   0  0  0  0  0  0  0  0  0  0  0  0
   -0.9610   22.7610  -30.5440 N   0  0  0  0  0  0  0  0  0  0  0  0
   -0.8940   25.4710  -26.9130 C   0  0  0  0  0  0  0  0  0  0  0  0
   -1.9130   25.6730  -25.9530 C   0  0  0  0  0  0  0  0  0  0  0  0
   -1.6740   26.4150  -24.7950 C   0  0  0  0  0  0  0  0  0  0  0  0
   -0.4110   26.9560  -24.5580 C   0  0  0  0  0  0  0  0  0  0  0  0
   -0.1810   27.6730  -23.4300 F   0  0  0  0  0  0  0  0  0  0  0  0
    0.6190   26.7430  -25.4720 C   0  0  0  0  0  0  0  0  0  0  0  0
    0.3920   25.9980  -26.6330 C   0  0  0  0  0  0  0  0  0  0  0  0
    1.4420   25.7790  -27.4630 F   0  0  0  0  0  0  0  0  0  0  0  0
   -4.4260   22.7820  -30.2010 C   0  0  0  0  0  0  0  0  0  0  0  0
   -3.8720   21.6020  -29.4570 C   0  0  0  0  0  0  0  0  0  0  0  0
   -7.0060   21.2200  -32.0360 C   0  0  0  0  0  0  0  0  0  0  0  0
   -9.2205   19.6074  -31.6577 H   0  0  0  0  0  0  0  0  0  0  0  0
   -9.4966   20.4630  -33.2128 H   0  0  0  0  0  0  0  0  0  0  0  0
   -9.0225   18.7304  -33.2128 H   0  0  0  0  0  0  0  0  0  0  0  0
   -6.8530   18.3948  -33.9568 H   0  0  0  0  0  0  0  0  0  0  0  0
   -3.5464   18.2673  -33.4589 H   0  0  0  0  0  0  0  0  0  0  0  0
   -4.7021   18.0795  -34.8211 H   0  0  0  0  0  0  0  0  0  0  0  0
   -3.5269   19.4380  -34.8211 H   0  0  0  0  0  0  0  0  0  0  0  0
   -3.6678   21.0758  -32.7687 H   0  0  0  0  0  0  0  0  0  0  0  0
   -5.0388   25.9241  -30.8602 H   0  0  0  0  0  0  0  0  0  0  0  0
   -3.7770   25.6060  -28.4000 H   0  0  0  0  0  0  0  0  0  0  0  0
   -2.7769   23.8235  -26.9476 H   0  0  0  0  0  0  0  0  0  0  0  0
   -2.4444   22.8953  -28.4677 H   0  0  0  0  0  0  0  0  0  0  0  0
   -0.8660   24.8840  -30.0890 H   0  0  0  0  0  0  0  0  0  0  0  0
    0.8576   24.0248  -28.7576 H   0  0  0  0  0  0  0  0  0  0  0  0
    0.1327   23.0320  -27.4205 H   0  0  0  0  0  0  0  0  0  0  0  0
   -0.0328   20.6738  -28.2825 H   0  0  0  0  0  0  0  0  0  0  0  0
   -1.6326   21.4206  -32.0996 H   0  0  0  0  0  0  0  0  0  0  0  0
   -2.9094   25.2386  -26.1216 H   0  0  0  0  0  0  0  0  0  0  0  0
   -2.4840   26.5733  -24.0678 H   0  0  0  0  0  0  0  0  0  0  0  0
    1.6169   27.1636  -25.2788 H   0  0  0  0  0  0  0  0  0  0  0  0
   -3.9551   21.7791  -28.3745 H   0  0  0  0  0  0  0  0  0  0  0  0
   -4.4404   20.6994  -29.7256 H   0  0  0  0  0  0  0  0  0  0  0  0
   -2.8144   21.4628  -29.7256 H   0  0  0  0  0  0  0  0  0  0  0  0
   -7.7317   21.8374  -31.4864 H   0  0  0  0  0  0  0  0  0  0  0  0
  1  2  1  0
  2  3  2  0
  3  4  1  0
  4  5  1  0
  4  6  2  0
  6  7  1  0
  7  8  1  0
  8  9  1  0
  9 10  2  0
 10 11  1  0
 11 12  1  0
 12 13  1  0
 13 14  1  0
 14 15  1  6
 14 16  1  0
 16 17  1  0
 17 18  1  0
 18 19  2  0
 19 20  1  0
 20 21  2  0
 14 22  1  0
 22 23  2  0
 23 24  1  0
 24 25  2  0
 25 26  1  0
 25 27  1  0
 27 28  2  0
 28 29  1  0
 11 30  2  0
 30 31  1  0
  7 32  2  0
 32  2  1  0
 30  8  1  0
 21 17  1  0
 28 22  1  0
  1 33  1  0
  1 34  1  0
  1 35  1  0
  3 36  1  0
  5 37  1  0
  5 38  1  0
  5 39  1  0
  6 40  1  0
 10 41  1  0
 12 42  1  0
 13 43  1  0
 13 44  1  0
 15 45  1  0
 16 46  1  0
 16 47  1  0
 18 48  1  0
 20 49  1  0
 23 50  1  0
 24 51  1  0
 27 52  1  0
 31 53  1  0
 31 54  1  0
 31 55  1  0
 32 56  1  0
M  END
>  <UniqueID>  (23) 
21

>  <SMILES>  (23) 
Cc1cc(C)cc(-n2ncc(NC[C@](O)(Cn3cncn3)c3ccc(F)cc3F)c2C)c1

>  <Energy>  (23) 
129.41239473905605

>  <Genealogy>  (23) 
Cc1cc(C)cc(-n2ncc(NC[C@](O)(Cn3cncn3)c3ccc(F)cc3F)c2C)c1 (chirality)
Cc1cc(C)cc(-n2ncc(NC[C@](O)(Cn3cncn3)c3ccc(F)cc3F)c2C)c1 (3D coordinates assigned)
Cc1cc(C)cc(-n2ncc(NC[C@](O)(Cn3cncn3)c3ccc(F)cc3F)c2C)c1 (optimized conformer: 129.41239473905605 kcal/mol)

>  <smiles>  (23) 
Cc1cc(C)cc(-n2ncc(NCC(O)(Cn3cncn3)c3ccc(F)cc3F)c2C)c1

>  <score_type>  (23) 
oracle

>  <origin>  (23) 
adg

>  <m_score__min__energy>  (23) 
-9.3900000000000006

>  <m_primary>  (23) 
energy

$$$$
23:0
     RDKit          3D

 52 55  0  0  0  0  0  0  0  0999 V2000
   -9.0780   21.4770  -31.2660 C   0  0  0  0  0  0  0  0  0  0  0  0
   -9.2360   20.2370  -32.1390 C   0  0  0  0  0  0  0  0  0  0  0  0
   -7.8940   19.6410  -32.4680 C   0  0  0  0  0  0  0  0  0  0  0  0
   -7.2170   20.0210  -33.6380 C   0  0  0  0  0  0  0  0  0  0  0  0
   -5.9560   19.4920  -33.9280 C   0  0  0  0  0  0  0  0  0  0  0  0
   -5.3550   18.5720  -33.0510 C   0  0  0  0  0  0  0  0  0  0  0  0
   -4.0520   18.0240  -33.2990 N   0  0  0  0  0  0  0  0  0  0  0  0
   -2.8150   18.7480  -33.3260 C   0  0  0  0  0  0  0  0  0  0  0  0
   -1.7770   18.2710  -32.7940 O   0  0  0  0  0  0  0  0  0  0  0  0
   -2.7850   20.1280  -33.9010 C   0  0  0  0  0  0  0  0  0  0  0  0
   -3.1630   21.1060  -32.8770 N   0  0  0  0  0  0  0  0  0  0  0  0
   -4.3850   21.6600  -32.9500 N   0  0  0  0  0  0  0  0  0  0  0  0
   -4.8250   22.6040  -32.0650 C   0  0  0  0  0  0  0  0  0  0  0  0
   -6.2000   23.1700  -32.2170 C   0  0  0  0  0  0  0  0  0  0  0  0
   -3.9470   22.9860  -31.0460 C   0  0  0  0  0  0  0  0  0  0  0  0
   -4.0080   23.8690  -29.9770 C   0  0  0  0  0  0  0  0  0  0  0  0
   -5.1930   24.6830  -29.5420 C   0  0  0  0  0  0  0  0  0  0  0  0
   -2.8010   23.8310  -29.3470 N   0  0  0  0  0  0  0  0  0  0  0  0
   -2.3790   24.6010  -28.2100 C   0  0  0  0  0  0  0  0  0  0  0  0
   -1.2640   25.4500  -28.3160 C   0  0  0  0  0  0  0  0  0  0  0  0
   -0.8610   26.2250  -27.2260 C   0  0  0  0  0  0  0  0  0  0  0  0
   -1.5760   26.1700  -26.0250 C   0  0  0  0  0  0  0  0  0  0  0  0
   -2.7000   25.3460  -25.9180 C   0  0  0  0  0  0  0  0  0  0  0  0
   -3.1060   24.5700  -27.0090 C   0  0  0  0  0  0  0  0  0  0  0  0
   -2.0050   22.9510  -29.9450 N   0  0  0  0  0  0  0  0  0  0  0  0
   -2.6990   22.4400  -30.9760 C   0  0  0  0  0  0  0  0  0  0  0  0
   -2.2790   21.4890  -31.8950 C   0  0  0  0  0  0  0  0  0  0  0  0
   -1.1190   20.9980  -31.8220 O   0  0  0  0  0  0  0  0  0  0  0  0
   -6.0160   18.2240  -31.8670 C   0  0  0  0  0  0  0  0  0  0  0  0
   -7.2770   18.7510  -31.5770 C   0  0  0  0  0  0  0  0  0  0  0  0
   -9.1151   21.1861  -30.2058 H   0  0  0  0  0  0  0  0  0  0  0  0
   -8.1115   21.9562  -31.4812 H   0  0  0  0  0  0  0  0  0  0  0  0
   -9.8934   22.1833  -31.4812 H   0  0  0  0  0  0  0  0  0  0  0  0
   -9.8396   19.4914  -31.6007 H   0  0  0  0  0  0  0  0  0  0  0  0
   -9.7327   20.5268  -33.0767 H   0  0  0  0  0  0  0  0  0  0  0  0
   -7.6814   20.7388  -34.3301 H   0  0  0  0  0  0  0  0  0  0  0  0
   -5.4319   19.7967  -34.8459 H   0  0  0  0  0  0  0  0  0  0  0  0
   -1.7695   20.3509  -34.2604 H   0  0  0  0  0  0  0  0  0  0  0  0
   -3.4978   20.1865  -34.7368 H   0  0  0  0  0  0  0  0  0  0  0  0
   -6.6348   23.3490  -31.2226 H   0  0  0  0  0  0  0  0  0  0  0  0
   -6.1467   24.1193  -32.7701 H   0  0  0  0  0  0  0  0  0  0  0  0
   -6.8304   22.4582  -32.7701 H   0  0  0  0  0  0  0  0  0  0  0  0
   -5.2347   24.7116  -28.4432 H   0  0  0  0  0  0  0  0  0  0  0  0
   -5.0975   25.7071  -29.9321 H   0  0  0  0  0  0  0  0  0  0  0  0
   -6.1146   24.2264  -29.9321 H   0  0  0  0  0  0  0  0  0  0  0  0
   -0.7058   25.5045  -29.2623 H   0  0  0  0  0  0  0  0  0  0  0  0
    0.0192   26.8790  -27.3121 H   0  0  0  0  0  0  0  0  0  0  0  0
   -1.2537   26.7752  -25.1648 H   0  0  0  0  0  0  0  0  0  0  0  0
   -3.2657   25.3077  -24.9754 H   0  0  0  0  0  0  0  0  0  0  0  0
   -3.9987   23.9327  -26.9256 H   0  0  0  0  0  0  0  0  0  0  0  0
   -5.5387   17.5301  -31.1594 H   0  0  0  0  0  0  0  0  0  0  0  0
   -7.7882   18.4665  -30.6455 H   0  0  0  0  0  0  0  0  0  0  0  0
  1  2  1  0
  2  3  1  0
  3  4  2  0
  4  5  1  0
  5  6  2  0
  6  7  1  0
  7  8  1  0
  8  9  2  0
  8 10  1  0
 10 11  1  0
 11 12  1  0
 12 13  2  0
 13 14  1  0
 13 15  1  0
 15 16  2  0
 16 17  1  0
 16 18  1  0
 18 19  1  0
 19 20  2  0
 20 21  1  0
 21 22  2  0
 22 23  1  0
 23 24  2  0
 18 25  1  0
 25 26  2  0
 26 27  1  0
 27 28  2  0
  6 29  1  0
 29 30  2  0
 30  3  1  0
 27 11  1  0
 26 15  1  0
 24 19  1  0
  1 31  1  0
  1 32  1  0
  1 33  1  0
  2 34  1  0
  2 35  1  0
  4 36  1  0
  5 37  1  0
 10 38  1  0
 10 39  1  0
 14 40  1  0
 14 41  1  0
 14 42  1  0
 17 43  1  0
 17 44  1  0
 17 45  1  0
 20 46  1  0
 21 47  1  0
 22 48  1  0
 23 49  1  0
 24 50  1  0
 29 51  1  0
 30 52  1  0
M  CHG  1   7  -1
M  END
>  <UniqueID>  (24) 
22

>  <SMILES>  (24) 
CCc1ccc([N-]C(=O)Cn2nc(C)c3c(C)n(-c4ccccc4)nc3c2=O)cc1

>  <Energy>  (24) 
101.18038677030005

>  <Genealogy>  (24) 
CCc1ccc([N-]C(=O)Cn2nc(C)c3c(C)n(-c4ccccc4)nc3c2=O)cc1 (protonated)
CCc1ccc([N-]C(=O)Cn2nc(C)c3c(C)n(-c4ccccc4)nc3c2=O)cc1 (3D coordinates assigned)
CCc1ccc([N-]C(=O)Cn2nc(C)c3c(C)n(-c4ccccc4)nc3c2=O)cc1 (optimized conformer: 101.18038677030005 kcal/mol)

>  <smiles>  (24) 
CCc1ccc(NC(=O)Cn2nc(C)c3c(C)n(-c4ccccc4)nc3c2=O)cc1

>  <score_type>  (24) 
oracle

>  <origin>  (24) 
adg

>  <m_score__min__energy>  (24) 
-11.289999999999999

>  <m_primary>  (24) 
energy

$$$$
24:0
     RDKit          3D

 44 46  0  0  0  0  0  0  0  0999 V2000
   -2.3960   24.9200  -28.8830 C   0  0  0  0  0  0  0  0  0  0  0  0
   -3.6980   24.5030  -29.5050 C   0  0  0  0  0  0  0  0  0  0  0  0
   -4.2020   25.2550  -30.5220 N   0  0  0  0  0  0  0  0  0  0  0  0
   -5.3730   24.9510  -31.1380 C   0  0  0  0  0  0  0  0  0  0  0  0
   -6.1040   23.8350  -30.7340 C   0  0  0  0  0  0  0  0  0  0  0  0
   -5.6200   23.0410  -29.6960 C   0  0  0  0  0  0  0  0  0  0  0  0
   -4.4070   23.3600  -29.0630 C   0  0  0  0  0  0  0  0  0  0  0  0
   -3.9090   22.4950  -27.9280 C   0  0  0  0  0  0  0  0  0  0  0  0
   -3.0730   21.3930  -28.4560 N   0  0  0  0  0  0  0  0  0  0  0  0
   -1.9930   21.8700  -29.3550 C   0  0  0  0  0  0  0  0  0  0  0  0
   -0.6570   22.1170  -28.6250 C   0  0  0  0  0  0  0  0  0  0  0  0
   -0.9060   22.3980  -27.2040 N   0  0  0  0  0  0  0  0  0  0  0  0
    0.2560   22.9810  -26.4970 C   0  0  0  0  0  0  0  0  0  0  0  0
   -0.0840   24.1790  -25.6340 C   0  0  0  0  0  0  0  0  0  0  0  0
   -1.1580   25.0190  -25.9680 C   0  0  0  0  0  0  0  0  0  0  0  0
   -1.4570   26.1210  -25.1660 C   0  0  0  0  0  0  0  0  0  0  0  0
   -0.6740   26.3830  -24.0410 C   0  0  0  0  0  0  0  0  0  0  0  0
    0.3730   25.5700  -23.7340 N   0  0  0  0  0  0  0  0  0  0  0  0
    0.6840   24.4890  -24.5010 C   0  0  0  0  0  0  0  0  0  0  0  0
   -1.4920   21.2340  -26.5110 C   0  0  0  0  0  0  0  0  0  0  0  0
   -2.5500   20.5230  -27.3840 C   0  0  0  0  0  0  0  0  0  0  0  0
   -2.4872   24.8908  -27.7872 H   0  0  0  0  0  0  0  0  0  0  0  0
   -1.5997   24.2320  -29.2031 H   0  0  0  0  0  0  0  0  0  0  0  0
   -2.1476   25.9426  -29.2031 H   0  0  0  0  0  0  0  0  0  0  0  0
   -5.7450   25.5854  -31.9560 H   0  0  0  0  0  0  0  0  0  0  0  0
   -7.0533   23.5836  -31.2295 H   0  0  0  0  0  0  0  0  0  0  0  0
   -6.1912   22.1591  -29.3703 H   0  0  0  0  0  0  0  0  0  0  0  0
   -3.3095   23.1084  -27.2393 H   0  0  0  0  0  0  0  0  0  0  0  0
   -4.7719   22.0685  -27.3955 H   0  0  0  0  0  0  0  0  0  0  0  0
   -1.8293   21.1133  -30.1364 H   0  0  0  0  0  0  0  0  0  0  0  0
   -2.3189   22.8337  -29.7735 H   0  0  0  0  0  0  0  0  0  0  0  0
   -0.0224   21.2229  -28.7139 H   0  0  0  0  0  0  0  0  0  0  0  0
   -0.1503   22.9804  -29.0808 H   0  0  0  0  0  0  0  0  0  0  0  0
    0.6942   22.2043  -25.8530 H   0  0  0  0  0  0  0  0  0  0  0  0
    0.9540   23.3343  -27.2703 H   0  0  0  0  0  0  0  0  0  0  0  0
   -1.7637   24.8085  -26.8618 H   0  0  0  0  0  0  0  0  0  0  0  0
   -2.3027   26.7776  -25.4184 H   0  0  0  0  0  0  0  0  0  0  0  0
   -0.9035   27.2480  -23.4015 H   0  0  0  0  0  0  0  0  0  0  0  0
    0.9540   25.7830  -22.8920 H   0  0  0  0  0  0  0  0  0  0  0  0
    1.5417   23.8553  -24.2313 H   0  0  0  0  0  0  0  0  0  0  0  0
   -0.6897   20.5207  -26.2713 H   0  0  0  0  0  0  0  0  0  0  0  0
   -1.9866   21.5925  -25.5962 H   0  0  0  0  0  0  0  0  0  0  0  0
   -2.0905   19.6350  -27.8426 H   0  0  0  0  0  0  0  0  0  0  0  0
   -3.3933   20.2500  -26.7326 H   0  0  0  0  0  0  0  0  0  0  0  0
  1  2  1  0
  2  3  2  0
  3  4  1  0
  4  5  2  0
  5  6  1  0
  6  7  2  0
  7  8  1  0
  8  9  1  0
  9 10  1  0
 10 11  1  0
 11 12  1  0
 12 13  1  0
 13 14  1  0
 14 15  2  0
 15 16  1  0
 16 17  2  0
 17 18  1  0
 18 19  2  0
 12 20  1  0
 20 21  1  0
  7  2  1  0
 21  9  1  0
 19 14  1  0
  1 22  1  0
  1 23  1  0
  1 24  1  0
  4 25  1  0
  5 26  1  0
  6 27  1  0
  8 28  1  0
  8 29  1  0
 10 30  1  0
 10 31  1  0
 11 32  1  0
 11 33  1  0
 13 34  1  0
 13 35  1  0
 15 36  1  0
 16 37  1  0
 17 38  1  0
 18 39  1  0
 19 40  1  0
 20 41  1  0
 20 42  1  0
 21 43  1  0
 21 44  1  0
M  CHG  1  18   1
M  END
>  <UniqueID>  (25) 
23

>  <SMILES>  (25) 
Cc1ncccc1CN1CCN(Cc2ccc[nH+]c2)CC1

>  <Energy>  (25) 
59.52182049984231

>  <Genealogy>  (25) 
Cc1ncccc1CN1CCN(Cc2ccc[nH+]c2)CC1 (protonated)
Cc1ncccc1CN1CCN(Cc2ccc[nH+]c2)CC1 (3D coordinates assigned)
Cc1ncccc1CN1CCN(Cc2ccc[nH+]c2)CC1 (nonaromatic ring conformer: 59.52182049984231 kcal/mol)

>  <smiles>  (25) 
Cc1ncccc1CN1CCN(Cc2cccnc2)CC1

>  <score_type>  (25) 
oracle

>  <origin>  (25) 
adg

>  <m_score__min__energy>  (25) 
-7.5899999999999999

>  <m_primary>  (25) 
energy

$$$$
25:0
     RDKit          3D

 39 41  0  0  0  0  0  0  0  0999 V2000
   -4.9550   18.9510  -33.8720 C   0  0  0  0  0  0  0  0  0  0  0  0
   -3.7700   19.6780  -34.1790 O   0  0  0  0  0  0  0  0  0  0  0  0
   -3.0140   20.3930  -33.2390 C   0  0  0  0  0  0  0  0  0  0  0  0
   -1.6080   20.4310  -33.2720 C   0  0  0  0  0  0  0  0  0  0  0  0
   -0.8980   21.1590  -32.3120 C   0  0  0  0  0  0  0  0  0  0  0  0
   -1.5810   21.8710  -31.3090 C   0  0  0  0  0  0  0  0  0  0  0  0
   -0.8780   22.5910  -30.2810 N   0  0  0  0  0  0  0  0  0  0  0  0
   -0.0900   21.9760  -29.2490 C   0  0  0  0  0  0  0  0  0  0  0  0
    0.3270   20.7940  -29.3750 O   0  0  0  0  0  0  0  0  0  0  0  0
    0.2460   22.7450  -28.0070 C   0  0  0  0  0  0  0  0  0  0  0  0
   -0.2600   24.4940  -28.1630 S   0  0  0  0  0  0  0  0  0  0  0  0
   -1.9830   24.1340  -28.5250 C   0  0  0  0  0  0  0  0  0  0  0  0
   -2.5820   23.0950  -27.8000 C   0  0  0  0  0  0  0  0  0  0  0  0
   -3.8700   22.5530  -27.8890 C   0  0  0  0  0  0  0  0  0  0  0  0
   -4.1420   21.5870  -27.1270 O   0  0  0  0  0  0  0  0  0  0  0  0
   -4.8480   22.9760  -28.7250 N   0  0  0  0  0  0  0  0  0  0  0  0
   -4.8350   23.9760  -29.6270 C   0  0  0  0  0  0  0  0  0  0  0  0
   -5.8940   24.3390  -30.4310 C   0  0  0  0  0  0  0  0  0  0  0  0
   -7.2310   23.6750  -30.4970 C   0  0  0  0  0  0  0  0  0  0  0  0
   -5.5190   25.3670  -31.2170 N   0  0  0  0  0  0  0  0  0  0  0  0
   -4.2620   25.6770  -30.9280 N   0  0  0  0  0  0  0  0  0  0  0  0
   -3.8290   24.8430  -29.9630 C   0  0  0  0  0  0  0  0  0  0  0  0
   -2.5760   24.8970  -29.4720 N   0  0  0  0  0  0  0  0  0  0  0  0
   -2.9820   21.8130  -31.2690 C   0  0  0  0  0  0  0  0  0  0  0  0
   -3.6900   21.0880  -32.2310 C   0  0  0  0  0  0  0  0  0  0  0  0
   -5.0696   18.8807  -32.7802 H   0  0  0  0  0  0  0  0  0  0  0  0
   -5.8252   19.4709  -34.2993 H   0  0  0  0  0  0  0  0  0  0  0  0
   -4.8858   17.9397  -34.2993 H   0  0  0  0  0  0  0  0  0  0  0  0
   -1.0643   19.8852  -34.0571 H   0  0  0  0  0  0  0  0  0  0  0  0
    0.2015   21.1751  -32.3413 H   0  0  0  0  0  0  0  0  0  0  0  0
   -0.9340   23.6340  -30.2930 H   0  0  0  0  0  0  0  0  0  0  0  0
   -0.2781   22.2938  -27.1516 H   0  0  0  0  0  0  0  0  0  0  0  0
    1.3348   22.7073  -27.8551 H   0  0  0  0  0  0  0  0  0  0  0  0
   -1.9371   22.6310  -27.0392 H   0  0  0  0  0  0  0  0  0  0  0  0
   -7.6001   23.4917  -29.4771 H   0  0  0  0  0  0  0  0  0  0  0  0
   -7.9381   24.3267  -31.0312 H   0  0  0  0  0  0  0  0  0  0  0  0
   -7.1391   22.7178  -31.0312 H   0  0  0  0  0  0  0  0  0  0  0  0
   -3.5276   22.3425  -30.4740 H   0  0  0  0  0  0  0  0  0  0  0  0
   -4.7891   21.0636  -32.1952 H   0  0  0  0  0  0  0  0  0  0  0  0
  1  2  1  0
  2  3  1  0
  3  4  2  0
  4  5  1  0
  5  6  2  0
  6  7  1  0
  7  8  1  0
  8  9  2  0
  8 10  1  0
 10 11  1  0
 11 12  1  0
 12 13  2  0
 13 14  1  0
 14 15  2  0
 14 16  1  0
 16 17  2  0
 17 18  1  0
 18 19  1  0
 18 20  2  0
 20 21  1  0
 21 22  1  0
 22 23  2  0
  6 24  1  0
 24 25  2  0
 25  3  1  0
 23 12  1  0
 22 17  1  0
  1 26  1  0
  1 27  1  0
  1 28  1  0
  4 29  1  0
  5 30  1  0
  7 31  1  0
 10 32  1  0
 10 33  1  0
 13 34  1  0
 19 35  1  0
 19 36  1  0
 19 37  1  0
 24 38  1  0
 25 39  1  0
M  CHG  1  21  -1
M  END
>  <UniqueID>  (26) 
24

>  <SMILES>  (26) 
COc1ccc(NC(=O)CSc2cc(=O)nc3c(C)n[n-]c3n2)cc1

>  <Energy>  (26) 
83.47987657077087

>  <Genealogy>  (26) 
COc1ccc(NC(=O)CSc2cc(=O)nc3c(C)n[n-]c3n2)cc1 (protonated)
COc1ccc(NC(=O)CSc2cc(=O)nc3c(C)n[n-]c3n2)cc1 (3D coordinates assigned)
COc1ccc(NC(=O)CSc2cc(=O)nc3c(C)n[n-]c3n2)cc1 (optimized conformer: 83.47987657077087 kcal/mol)

>  <smiles>  (26) 
COc1ccc(NC(=O)CSc2cc(=O)nc3c(C)n[nH]c3n2)cc1

>  <score_type>  (26) 
oracle

>  <origin>  (26) 
adg

>  <m_score__min__energy>  (26) 
-9.4800000000000004

>  <m_primary>  (26) 
energy

$$$$
26:0
     RDKit          3D

 55 57  0  0  0  0  0  0  0  0999 V2000
   -3.0540   18.9190  -26.3380 C   0  0  0  0  0  0  0  0  0  0  0  0
   -2.4140   19.5160  -27.4450 O   0  0  0  0  0  0  0  0  0  0  0  0
   -2.7320   20.8950  -27.5160 C   0  0  0  0  0  0  0  0  0  0  0  0
   -1.4600   21.7480  -27.4520 C   0  0  0  0  0  0  0  0  0  0  0  0
   -1.7840   23.1830  -27.5800 N   0  0  0  0  0  0  0  0  0  0  0  0
   -0.9470   24.0730  -26.7480 C   0  0  0  0  0  0  0  0  0  0  0  0
   -1.7140   24.8980  -25.6950 C   0  0  0  0  0  0  0  0  0  0  0  0
   -2.7450   25.6760  -26.2730 O   0  0  0  0  0  0  0  0  0  0  0  0
   -3.9440   24.9350  -26.3360 C   0  0  0  0  0  0  0  0  0  0  0  0
   -1.9840   23.7290  -29.2390 S   0  0  0  0  0  0  0  0  0  0  0  0
   -0.7540   23.3880  -30.0340 O   0  0  0  0  0  0  0  0  0  0  0  0
   -2.1210   25.2260  -29.2410 O   0  0  0  0  0  0  0  0  0  0  0  0
   -3.4010   23.0440  -30.0480 C   0  0  0  0  0  0  0  0  0  0  0  0
   -3.2510   22.1890  -31.1640 C   0  0  0  0  0  0  0  0  0  0  0  0
   -4.3770   21.6460  -31.8010 C   0  0  0  0  0  0  0  0  0  0  0  0
   -5.6460   21.9760  -31.3150 C   0  0  0  0  0  0  0  0  0  0  0  0
   -5.7970   22.8490  -30.2730 C   0  0  0  0  0  0  0  0  0  0  0  0
   -4.6950   23.4000  -29.6190 C   0  0  0  0  0  0  0  0  0  0  0  0
   -7.2350   23.0850  -29.9900 C   0  0  0  0  0  0  0  0  0  0  0  0
   -7.9580   22.2800  -31.1080 C   0  0  1  0  0  0  0  0  0  0  0  0
   -8.7160   23.2160  -32.0550 C   0  0  0  0  0  0  0  0  0  0  0  0
   -6.9010   21.5500  -31.8300 N   0  0  0  0  0  0  0  0  0  0  0  0
   -7.1150   20.3110  -32.5310 C   0  0  0  0  0  0  0  0  0  0  0  0
   -7.0220   20.2740  -33.7880 O   0  0  0  0  0  0  0  0  0  0  0  0
   -7.3770   19.0390  -31.7760 C   0  0  0  0  0  0  0  0  0  0  0  0
   -8.7860   18.4940  -31.9560 C   0  0  0  0  0  0  0  0  0  0  0  0
   -7.6180   17.7980  -32.6300 C   0  0  0  0  0  0  0  0  0  0  0  0
   -2.6254   19.3188  -25.4072 H   0  0  0  0  0  0  0  0  0  0  0  0
   -4.1304   19.1432  -26.3720 H   0  0  0  0  0  0  0  0  0  0  0  0
   -2.9051   17.8297  -26.3720 H   0  0  0  0  0  0  0  0  0  0  0  0
   -3.2549   21.0968  -28.4625 H   0  0  0  0  0  0  0  0  0  0  0  0
   -3.3751   21.1542  -26.6621 H   0  0  0  0  0  0  0  0  0  0  0  0
   -0.9586   21.5761  -26.4881 H   0  0  0  0  0  0  0  0  0  0  0  0
   -0.8001   21.4600  -28.2836 H   0  0  0  0  0  0  0  0  0  0  0  0
   -0.2080   23.4513  -26.2213 H   0  0  0  0  0  0  0  0  0  0  0  0
   -0.4956   24.8013  -27.4378 H   0  0  0  0  0  0  0  0  0  0  0  0
   -2.1586   24.2099  -24.9609 H   0  0  0  0  0  0  0  0  0  0  0  0
   -0.9994   25.5850  -25.2181 H   0  0  0  0  0  0  0  0  0  0  0  0
   -4.2950   24.7181  -25.3163 H   0  0  0  0  0  0  0  0  0  0  0  0
   -4.7081   25.5186  -26.8704 H   0  0  0  0  0  0  0  0  0  0  0  0
   -3.7637   23.9906  -26.8704 H   0  0  0  0  0  0  0  0  0  0  0  0
   -2.2441   21.9478  -31.5356 H   0  0  0  0  0  0  0  0  0  0  0  0
   -4.2639   20.9745  -32.6649 H   0  0  0  0  0  0  0  0  0  0  0  0
   -4.8339   24.1006  -28.7824 H   0  0  0  0  0  0  0  0  0  0  0  0
   -7.5075   22.7070  -28.9936 H   0  0  0  0  0  0  0  0  0  0  0  0
   -7.5031   24.1518  -29.9865 H   0  0  0  0  0  0  0  0  0  0  0  0
   -8.7049   21.5922  -30.6848 H   0  0  0  0  0  0  0  0  0  0  0  0
   -9.3008   23.9381  -31.4664 H   0  0  0  0  0  0  0  0  0  0  0  0
   -7.9977   23.7562  -32.6893 H   0  0  0  0  0  0  0  0  0  0  0  0
   -9.3937   22.6257  -32.6893 H   0  0  0  0  0  0  0  0  0  0  0  0
   -6.7210   19.2733  -30.9246 H   0  0  0  0  0  0  0  0  0  0  0  0
   -9.3002   18.0112  -31.1119 H   0  0  0  0  0  0  0  0  0  0  0  0
   -9.7427   18.9140  -32.2999 H   0  0  0  0  0  0  0  0  0  0  0  0
   -7.2853   16.8120  -32.2736 H   0  0  0  0  0  0  0  0  0  0  0  0
   -7.3775   17.5058  -33.6628 H   0  0  0  0  0  0  0  0  0  0  0  0
  1  2  1  0
  2  3  1  0
  3  4  1  0
  4  5  1  0
  5  6  1  0
  6  7  1  0
  7  8  1  0
  8  9  1  0
  5 10  1  0
 10 11  2  0
 10 12  2  0
 10 13  1  0
 13 14  2  0
 14 15  1  0
 15 16  2  0
 16 17  1  0
 17 18  2  0
 17 19  1  0
 19 20  1  0
 20 21  1  0
 20 22  1  0
 22 23  1  0
 23 24  2  0
 23 25  1  0
 25 26  1  0
 26 27  1  0
 18 13  1  0
 27 25  1  0
 22 16  1  0
  1 28  1  0
  1 29  1  0
  1 30  1  0
  3 31  1  0
  3 32  1  0
  4 33  1  0
  4 34  1  0
  6 35  1  0
  6 36  1  0
  7 37  1  0
  7 38  1  0
  9 39  1  0
  9 40  1  0
  9 41  1  0
 14 42  1  0
 15 43  1  0
 18 44  1  0
 19 45  1  0
 19 46  1  0
 20 47  1  1
 21 48  1  0
 21 49  1  0
 21 50  1  0
 25 51  1  0
 26 52  1  0
 26 53  1  0
 27 54  1  0
 27 55  1  0
M  END
>  <UniqueID>  (27) 
25

>  <SMILES>  (27) 
COCCN(CCOC)S(=O)(=O)c1ccc2c(c1)C[C@@H](C)N2C(=O)C1CC1

>  <Energy>  (27) 
340.70119461132157

>  <Genealogy>  (27) 
COCCN(CCOC)S(=O)(=O)c1ccc2c(c1)C[C@@H](C)N2C(=O)C1CC1 (chirality)
COCCN(CCOC)S(=O)(=O)c1ccc2c(c1)C[C@@H](C)N2C(=O)C1CC1 (3D coordinates assigned)
COCCN(CCOC)S(=O)(=O)c1ccc2c(c1)C[C@@H](C)N2C(=O)C1CC1 (nonaromatic ring conformer: 340.70119461132157 kcal/mol)

>  <smiles>  (27) 
COCCN(CCOC)S(=O)(=O)c1ccc2c(c1)CC(C)N2C(=O)C1CC1

>  <score_type>  (27) 
oracle

>  <origin>  (27) 
adg

>  <m_score__min__energy>  (27) 
-9.4299999999999997

>  <m_primary>  (27) 
energy

$$$$
27:0
     RDKit          3D

 44 46  0  0  0  0  0  0  0  0999 V2000
    0.8320   21.5460  -34.9510 C   0  0  0  0  0  0  0  0  0  0  0  0
    0.6880   20.4260  -33.9250 C   0  0  0  0  0  0  0  0  0  0  0  0
   -0.5140   20.6320  -32.9970 C   0  0  0  0  0  0  0  0  0  0  0  0
   -1.6530   21.1850  -33.7340 N   0  0  0  0  0  0  0  0  0  0  0  0
   -3.0230   21.1740  -33.2840 C   0  0  0  0  0  0  0  0  0  0  0  0
   -3.4190   22.0850  -32.2960 C   0  0  0  0  0  0  0  0  0  0  0  0
   -4.7330   22.1060  -31.8290 C   0  0  0  0  0  0  0  0  0  0  0  0
   -5.6930   21.2220  -32.3510 C   0  0  0  0  0  0  0  0  0  0  0  0
   -5.2900   20.2570  -33.2970 C   0  0  0  0  0  0  0  0  0  0  0  0
   -3.9660   20.2490  -33.7710 C   0  0  0  0  0  0  0  0  0  0  0  0
   -6.2630   19.2340  -33.7520 C   0  0  0  0  0  0  0  0  0  0  0  0
   -5.9820   18.4800  -34.7240 O   0  0  0  0  0  0  0  0  0  0  0  0
   -7.5090   19.0540  -33.0450 N   0  0  1  0  0  0  0  0  0  0  0  0
   -7.2720   18.1630  -31.8910 C   0  0  0  0  0  0  0  0  0  0  0  0
   -8.0720   20.3890  -32.7050 C   0  0  1  0  0  0  0  0  0  0  0  0
   -9.4860   20.3250  -32.0710 C   0  0  0  0  0  0  0  0  0  0  0  0
   -9.8600   21.6540  -31.3840 C   0  0  0  0  0  0  0  0  0  0  0  0
   -9.1400   22.7770  -31.9950 N   0  0  0  0  0  0  0  0  0  0  0  0
   -7.6890   22.7020  -31.7380 C   0  0  0  0  0  0  0  0  0  0  0  0
   -7.1240   21.2520  -31.8300 C   0  0  2  0  0  0  0  0  0  0  0  0
    0.9555   22.5069  -34.4300 H   0  0  0  0  0  0  0  0  0  0  0  0
    1.7130   21.3548  -35.5814 H   0  0  0  0  0  0  0  0  0  0  0  0
   -0.0687   21.5838  -35.5814 H   0  0  0  0  0  0  0  0  0  0  0  0
    0.5623   19.4725  -34.4588 H   0  0  0  0  0  0  0  0  0  0  0  0
    1.5948   20.4241  -33.3024 H   0  0  0  0  0  0  0  0  0  0  0  0
   -0.8025   19.6643  -32.5608 H   0  0  0  0  0  0  0  0  0  0  0  0
   -0.2299   21.3403  -32.2048 H   0  0  0  0  0  0  0  0  0  0  0  0
   -1.4470   21.5890  -34.6770 H   0  0  0  0  0  0  0  0  0  0  0  0
   -2.6845   22.7924  -31.8835 H   0  0  0  0  0  0  0  0  0  0  0  0
   -5.0209   22.8214  -31.0445 H   0  0  0  0  0  0  0  0  0  0  0  0
   -3.6641   19.5124  -34.5301 H   0  0  0  0  0  0  0  0  0  0  0  0
   -8.1840   18.5750  -33.6870 H   0  0  0  0  0  0  0  0  0  0  0  0
   -7.4214   18.7248  -30.9572 H   0  0  0  0  0  0  0  0  0  0  0  0
   -7.9770   17.3194  -31.9282 H   0  0  0  0  0  0  0  0  0  0  0  0
   -6.2411   17.7812  -31.9282 H   0  0  0  0  0  0  0  0  0  0  0  0
   -8.1733   20.8896  -33.6793 H   0  0  0  0  0  0  0  0  0  0  0  0
  -10.2219   20.1115  -32.8602 H   0  0  0  0  0  0  0  0  0  0  0  0
   -9.4862   19.5315  -31.3091 H   0  0  0  0  0  0  0  0  0  0  0  0
  -10.9424   21.8209  -31.4867 H   0  0  0  0  0  0  0  0  0  0  0  0
   -9.5811   21.5925  -30.3217 H   0  0  0  0  0  0  0  0  0  0  0  0
   -9.5010   23.6640  -31.5710 H   0  0  0  0  0  0  0  0  0  0  0  0
   -7.1697   23.3274  -32.4791 H   0  0  0  0  0  0  0  0  0  0  0  0
   -7.5202   23.0544  -30.7097 H   0  0  0  0  0  0  0  0  0  0  0  0
   -7.0836   20.8276  -30.8160 H   0  0  0  0  0  0  0  0  0  0  0  0
  1  2  1  0
  2  3  1  0
  3  4  1  0
  4  5  1  0
  5  6  2  0
  6  7  1  0
  7  8  2  0
  8  9  1  0
  9 10  2  0
  9 11  1  0
 11 12  2  0
 11 13  1  0
 13 14  1  0
 13 15  1  0
 15 16  1  0
 16 17  1  0
 17 18  1  0
 18 19  1  0
 19 20  1  0
 10  5  1  0
 20 15  1  0
 20  8  1  0
  1 21  1  0
  1 22  1  0
  1 23  1  0
  2 24  1  0
  2 25  1  0
  3 26  1  0
  3 27  1  0
  4 28  1  0
  6 29  1  0
  7 30  1  0
 10 31  1  0
 13 32  1  6
 14 33  1  0
 14 34  1  0
 14 35  1  0
 15 36  1  6
 16 37  1  0
 16 38  1  0
 17 39  1  0
 17 40  1  0
 18 41  1  0
 19 42  1  0
 19 43  1  0
 20 44  1  1
M  CHG  1  13   1
M  END
>  <UniqueID>  (28) 
26

>  <SMILES>  (28) 
CCCNc1ccc2c(c1)C(=O)[N@@H+](C)[C@H]1CCNCC21

>  <Energy>  (28) 
58.27900454433592

>  <Genealogy>  (28) 
CCCNc1ccc2c(c1)C(=O)[NH+](C)C1CCNCC21 (protonated)
CCCNc1ccc2c(c1)C(=O)[N@@H+](C)[C@H]1CCNCC21 (chirality)
CCCNc1ccc2c(c1)C(=O)[N@@H+](C)[C@H]1CCNCC21 (3D coordinates assigned)
CCCNc1ccc2c(c1)C(=O)[N@@H+](C)[C@H]1CCNCC21 (nonaromatic ring conformer: 58.27900454433592 kcal/mol)

>  <smiles>  (28) 
CCCNc1ccc2c(c1)C(=O)N(C)C1CCNCC21

>  <score_type>  (28) 
oracle

>  <origin>  (28) 
adg

>  <m_score__min__energy>  (28) 
-7.2699999999999996

>  <m_primary>  (28) 
energy

$$$$
28:0
     RDKit          3D

 37 40  0  0  0  0  0  0  0  0999 V2000
   -2.7330   19.8960  -27.3200 C   0  0  0  0  0  0  0  0  0  0  0  0
   -2.4220   21.2710  -27.1180 O   0  0  0  0  0  0  0  0  0  0  0  0
   -2.7600   22.2970  -28.0130 C   0  0  0  0  0  0  0  0  0  0  0  0
   -1.9750   23.4740  -28.0080 C   0  0  0  0  0  0  0  0  0  0  0  0
   -2.2720   24.5440  -28.8710 C   0  0  0  0  0  0  0  0  0  0  0  0
   -3.3510   24.3970  -29.7380 C   0  0  0  0  0  0  0  0  0  0  0  0
   -3.8290   25.3020  -30.6090 N   0  0  0  0  0  0  0  0  0  0  0  0
   -4.8840   24.7540  -31.2070 N   0  0  0  0  0  0  0  0  0  0  0  0
   -5.0720   23.5030  -30.7230 C   0  0  0  0  0  0  0  0  0  0  0  0
   -6.1560   22.6060  -31.1760 C   0  0  0  0  0  0  0  0  0  0  0  0
   -7.4900   22.9280  -30.8860 C   0  0  0  0  0  0  0  0  0  0  0  0
   -8.5260   22.0960  -31.3150 C   0  0  0  0  0  0  0  0  0  0  0  0
   -8.2400   20.9390  -32.0430 C   0  0  0  0  0  0  0  0  0  0  0  0
   -6.9120   20.6030  -32.3600 C   0  0  0  0  0  0  0  0  0  0  0  0
   -6.6320   19.4110  -33.1200 N   0  0  0  0  0  0  0  0  0  0  0  0
   -6.8500   18.1300  -32.7610 C   0  0  0  0  0  0  0  0  0  0  0  0
   -6.4400   17.3580  -33.8240 C   0  0  0  0  0  0  0  0  0  0  0  0
   -6.4190   15.8680  -33.8880 C   0  0  0  0  0  0  0  0  0  0  0  0
   -5.9700   18.1720  -34.7890 N   0  0  0  0  0  0  0  0  0  0  0  0
   -6.1070   19.4110  -34.3380 N   0  0  0  0  0  0  0  0  0  0  0  0
   -5.8760   21.4560  -31.9330 C   0  0  0  0  0  0  0  0  0  0  0  0
   -4.1030   23.2570  -29.7680 C   0  0  0  0  0  0  0  0  0  0  0  0
   -3.8550   22.1880  -28.9060 C   0  0  0  0  0  0  0  0  0  0  0  0
   -2.8455   19.3985  -26.3454 H   0  0  0  0  0  0  0  0  0  0  0  0
   -3.6729   19.8119  -27.8853 H   0  0  0  0  0  0  0  0  0  0  0  0
   -1.9208   19.4156  -27.8853 H   0  0  0  0  0  0  0  0  0  0  0  0
   -1.1206   23.5533  -27.3197 H   0  0  0  0  0  0  0  0  0  0  0  0
   -1.6719   25.4659  -28.8612 H   0  0  0  0  0  0  0  0  0  0  0  0
   -7.7213   23.8409  -30.3175 H   0  0  0  0  0  0  0  0  0  0  0  0
   -9.5694   22.3523  -31.0791 H   0  0  0  0  0  0  0  0  0  0  0  0
   -9.0610   20.2847  -32.3713 H   0  0  0  0  0  0  0  0  0  0  0  0
   -7.2711   17.7734  -31.8094 H   0  0  0  0  0  0  0  0  0  0  0  0
   -6.4132   15.4572  -32.8676 H   0  0  0  0  0  0  0  0  0  0  0  0
   -7.3122   15.5113  -34.4218 H   0  0  0  0  0  0  0  0  0  0  0  0
   -5.5161   15.5366  -34.4218 H   0  0  0  0  0  0  0  0  0  0  0  0
   -4.8344   21.2189  -32.1955 H   0  0  0  0  0  0  0  0  0  0  0  0
   -4.4892   21.2894  -28.9192 H   0  0  0  0  0  0  0  0  0  0  0  0
  1  2  1  0
  2  3  1  0
  3  4  2  0
  4  5  1  0
  5  6  2  0
  6  7  1  0
  7  8  1  0
  8  9  2  0
  9 10  1  0
 10 11  2  0
 11 12  1  0
 12 13  2  0
 13 14  1  0
 14 15  1  0
 15 16  1  0
 16 17  2  0
 17 18  1  0
 17 19  1  0
 19 20  2  0
 14 21  2  0
  9 22  1  0
 22 23  2  0
 23  3  1  0
 22  6  1  0
 21 10  1  0
 20 15  1  0
  1 24  1  0
  1 25  1  0
  1 26  1  0
  4 27  1  0
  5 28  1  0
 11 29  1  0
 12 30  1  0
 13 31  1  0
 16 32  1  0
 18 33  1  0
 18 34  1  0
 18 35  1  0
 21 36  1  0
 23 37  1  0
M  CHG  1   7  -1
M  END
>  <UniqueID>  (29) 
27

>  <SMILES>  (29) 
COc1ccc2[n-]nc(-c3cccc(-n4cc(C)nn4)c3)c2c1

>  <Energy>  (29) 
118.45964815028606

>  <Genealogy>  (29) 
COc1ccc2[n-]nc(-c3cccc(-n4cc(C)nn4)c3)c2c1 (protonated)
COc1ccc2[n-]nc(-c3cccc(-n4cc(C)nn4)c3)c2c1 (3D coordinates assigned)
COc1ccc2[n-]nc(-c3cccc(-n4cc(C)nn4)c3)c2c1 (optimized conformer: 118.45964815028606 kcal/mol)

>  <smiles>  (29) 
COc1ccc2[nH]nc(-c3cccc(-n4cc(C)nn4)c3)c2c1

>  <score_type>  (29) 
oracle

>  <origin>  (29) 
adg

>  <m_score__min__energy>  (29) 
-10.890000000000001

>  <m_primary>  (29) 
energy

$$$$
29:0
     RDKit          3D

 40 42  0  0  0  0  0  0  0  0999 V2000
   -3.1990   24.4920  -29.5090 C   0  0  0  0  0  0  0  0  0  0  0  0
   -3.9910   24.7020  -30.6740 O   0  0  0  0  0  0  0  0  0  0  0  0
   -4.9720   23.8120  -31.1400 C   0  0  0  0  0  0  0  0  0  0  0  0
   -4.6380   22.5910  -31.7580 C   0  0  0  0  0  0  0  0  0  0  0  0
   -5.6420   21.7270  -32.2180 C   0  0  0  0  0  0  0  0  0  0  0  0
   -6.9880   22.0730  -32.0480 C   0  0  0  0  0  0  0  0  0  0  0  0
   -7.3260   23.2870  -31.4320 C   0  0  0  0  0  0  0  0  0  0  0  0
   -6.3210   24.1620  -30.9780 C   0  0  0  0  0  0  0  0  0  0  0  0
   -6.6200   25.3860  -30.3590 O   0  0  0  0  0  0  0  0  0  0  0  0
   -6.3630   25.6830  -28.9900 C   0  0  0  0  0  0  0  0  0  0  0  0
   -8.0190   21.1280  -32.5070 C   0  0  0  0  0  0  0  0  0  0  0  0
   -9.2430   21.3700  -32.3240 O   0  0  0  0  0  0  0  0  0  0  0  0
   -7.6280   19.9120  -33.1500 N   0  0  0  0  0  0  0  0  0  0  0  0
   -6.2540   19.6820  -33.6070 C   0  0  2  0  0  0  0  0  0  0  0  0
   -5.9140   18.2160  -33.4730 C   0  0  0  0  0  0  0  0  0  0  0  0
   -5.7570   17.6410  -32.2010 C   0  0  0  0  0  0  0  0  0  0  0  0
   -5.4400   16.2870  -32.0710 C   0  0  0  0  0  0  0  0  0  0  0  0
   -5.2870   15.4840  -33.2120 C   0  0  0  0  0  0  0  0  0  0  0  0
   -4.9070   14.0400  -33.0740 C   0  0  0  0  0  0  0  0  0  0  0  0
   -5.4240   16.0600  -34.4840 C   0  0  0  0  0  0  0  0  0  0  0  0
   -5.7410   17.4160  -34.6130 C   0  0  0  0  0  0  0  0  0  0  0  0
   -5.2890   20.4850  -32.8450 N   0  0  0  0  0  0  0  0  0  0  0  0
   -3.8151   24.6554  -28.6125 H   0  0  0  0  0  0  0  0  0  0  0  0
   -2.8153   23.4611  -29.5074 H   0  0  0  0  0  0  0  0  0  0  0  0
   -2.3549   25.1974  -29.5074 H   0  0  0  0  0  0  0  0  0  0  0  0
   -3.5808   22.3130  -31.8807 H   0  0  0  0  0  0  0  0  0  0  0  0
   -8.3844   23.5574  -31.3027 H   0  0  0  0  0  0  0  0  0  0  0  0
   -6.9491   25.0056  -28.3516 H   0  0  0  0  0  0  0  0  0  0  0  0
   -5.2915   25.5487  -28.7805 H   0  0  0  0  0  0  0  0  0  0  0  0
   -6.6499   26.7241  -28.7805 H   0  0  0  0  0  0  0  0  0  0  0  0
   -8.3780   19.2590  -33.4720 H   0  0  0  0  0  0  0  0  0  0  0  0
   -6.1909   19.9879  -34.6617 H   0  0  0  0  0  0  0  0  0  0  0  0
   -5.8846   18.2612  -31.3015 H   0  0  0  0  0  0  0  0  0  0  0  0
   -5.3098   15.8483  -31.0707 H   0  0  0  0  0  0  0  0  0  0  0  0
   -4.8384   13.7792  -32.0076 H   0  0  0  0  0  0  0  0  0  0  0  0
   -5.6705   13.4122  -33.5566 H   0  0  0  0  0  0  0  0  0  0  0  0
   -3.9334   13.8693  -33.5566 H   0  0  0  0  0  0  0  0  0  0  0  0
   -5.2815   15.4427  -35.3832 H   0  0  0  0  0  0  0  0  0  0  0  0
   -5.8554   17.8580  -35.6138 H   0  0  0  0  0  0  0  0  0  0  0  0
   -4.2750   20.2400  -32.9330 H   0  0  0  0  0  0  0  0  0  0  0  0
  1  2  1  0
  2  3  1  0
  3  4  2  0
  4  5  1  0
  5  6  2  0
  6  7  1  0
  7  8  2  0
  8  9  1  0
  9 10  1  0
  6 11  1  0
 11 12  2  0
 11 13  1  0
 13 14  1  0
 14 15  1  0
 15 16  2  0
 16 17  1  0
 17 18  2  0
 18 19  1  0
 18 20  1  0
 20 21  2  0
 14 22  1  0
  8  3  1  0
 21 15  1  0
 22  5  1  0
  1 23  1  0
  1 24  1  0
  1 25  1  0
  4 26  1  0
  7 27  1  0
 10 28  1  0
 10 29  1  0
 10 30  1  0
 13 31  1  0
 14 32  1  6
 16 33  1  0
 17 34  1  0
 19 35  1  0
 19 36  1  0
 19 37  1  0
 20 38  1  0
 21 39  1  0
 22 40  1  0
M  END
>  <UniqueID>  (30) 
28

>  <SMILES>  (30) 
COc1cc2c(cc1OC)C(=O)N[C@H](c1ccc(C)cc1)N2

>  <Energy>  (30) 
41.12170709891462

>  <Genealogy>  (30) 
COc1cc2c(cc1OC)C(=O)N[C@H](c1ccc(C)cc1)N2 (chirality)
COc1cc2c(cc1OC)C(=O)N[C@H](c1ccc(C)cc1)N2 (3D coordinates assigned)
COc1cc2c(cc1OC)C(=O)N[C@H](c1ccc(C)cc1)N2 (nonaromatic ring conformer: 41.12170709891462 kcal/mol)

>  <smiles>  (30) 
COc1cc2c(cc1OC)C(=O)NC(c1ccc(C)cc1)N2

>  <score_type>  (30) 
oracle

>  <origin>  (30) 
adg

>  <m_score__min__energy>  (30) 
-7.7199999999999998

>  <m_primary>  (30) 
energy

$$$$
30:0
     RDKit          3D

 44 45  0  0  0  0  0  0  0  0999 V2000
   -6.1340   17.2380  -31.5620 C   0  0  0  0  0  0  0  0  0  0  0  0
   -6.7920   17.1680  -32.9340 C   0  0  0  0  0  0  0  0  0  0  0  0
   -6.8240   18.4980  -33.5600 N   0  0  0  0  0  0  0  0  0  0  0  0
   -5.8360   18.8530  -34.5860 C   0  0  0  0  0  0  0  0  0  0  0  0
   -4.8440   17.7150  -34.8270 C   0  0  0  0  0  0  0  0  0  0  0  0
   -7.4810   19.5600  -32.8470 C   0  0  0  0  0  0  0  0  0  0  0  0
   -8.8420   19.6400  -32.8900 N   0  0  0  0  0  0  0  0  0  0  0  0
   -9.5230   20.6460  -32.2820 C   0  0  0  0  0  0  0  0  0  0  0  0
   -8.8350   21.6440  -31.5960 C   0  0  0  0  0  0  0  0  0  0  0  0
   -7.4440   21.5910  -31.5290 C   0  0  0  0  0  0  0  0  0  0  0  0
   -6.7420   20.5350  -32.1340 C   0  0  0  0  0  0  0  0  0  0  0  0
   -5.2290   20.4940  -32.0300 C   0  0  0  0  0  0  0  0  0  0  0  0
   -4.5770   21.5810  -32.7780 N   0  0  0  0  0  0  0  0  0  0  0  0
   -3.6070   22.3130  -31.9550 C   0  0  0  0  0  0  0  0  0  0  0  0
   -4.3310   23.2650  -31.0410 C   0  0  0  0  0  0  0  0  0  0  0  0
   -5.4140   24.0160  -31.5260 C   0  0  0  0  0  0  0  0  0  0  0  0
   -6.1130   24.8770  -30.6750 C   0  0  0  0  0  0  0  0  0  0  0  0
   -5.7430   24.9860  -29.3310 C   0  0  0  0  0  0  0  0  0  0  0  0
   -4.6780   24.2300  -28.8370 C   0  0  0  0  0  0  0  0  0  0  0  0
   -3.9740   23.3660  -29.6830 C   0  0  0  0  0  0  0  0  0  0  0  0
   -2.9530   22.6290  -29.1790 F   0  0  0  0  0  0  0  0  0  0  0  0
   -6.9045   17.1560  -30.7812 H   0  0  0  0  0  0  0  0  0  0  0  0
   -5.4162   16.4112  -31.4570 H   0  0  0  0  0  0  0  0  0  0  0  0
   -5.6062   18.1974  -31.4570 H   0  0  0  0  0  0  0  0  0  0  0  0
   -6.2204   16.4804  -33.5746 H   0  0  0  0  0  0  0  0  0  0  0  0
   -7.8241   16.8068  -32.8147 H   0  0  0  0  0  0  0  0  0  0  0  0
   -6.3615   19.0742  -35.5267 H   0  0  0  0  0  0  0  0  0  0  0  0
   -5.2746   19.7313  -34.2348 H   0  0  0  0  0  0  0  0  0  0  0  0
   -4.4987   17.3188  -33.8607 H   0  0  0  0  0  0  0  0  0  0  0  0
   -5.3368   16.9135  -35.3969 H   0  0  0  0  0  0  0  0  0  0  0  0
   -3.9828   18.0938  -35.3969 H   0  0  0  0  0  0  0  0  0  0  0  0
   -9.3830   18.9130  -33.4110 H   0  0  0  0  0  0  0  0  0  0  0  0
  -10.6216   20.6725  -32.3316 H   0  0  0  0  0  0  0  0  0  0  0  0
   -9.3838   22.4654  -31.1122 H   0  0  0  0  0  0  0  0  0  0  0  0
   -6.8920   22.3812  -30.9989 H   0  0  0  0  0  0  0  0  0  0  0  0
   -4.9470   20.5782  -30.9701 H   0  0  0  0  0  0  0  0  0  0  0  0
   -4.8923   19.5424  -32.4671 H   0  0  0  0  0  0  0  0  0  0  0  0
   -5.3010   22.2490  -33.1320 H   0  0  0  0  0  0  0  0  0  0  0  0
   -3.0262   21.5989  -31.3528 H   0  0  0  0  0  0  0  0  0  0  0  0
   -2.9302   22.8814  -32.6098 H   0  0  0  0  0  0  0  0  0  0  0  0
   -5.7137   23.9263  -32.5806 H   0  0  0  0  0  0  0  0  0  0  0  0
   -6.9548   25.4693  -31.0630 H   0  0  0  0  0  0  0  0  0  0  0  0
   -6.2907   25.6671  -28.6631 H   0  0  0  0  0  0  0  0  0  0  0  0
   -4.3913   24.3140  -27.7784 H   0  0  0  0  0  0  0  0  0  0  0  0
  1  2  1  0
  2  3  1  0
  3  4  1  0
  4  5  1  0
  3  6  1  0
  6  7  2  0
  7  8  1  0
  8  9  2  0
  9 10  1  0
 10 11  2  0
 11 12  1  0
 12 13  1  0
 13 14  1  0
 14 15  1  0
 15 16  2  0
 16 17  1  0
 17 18  2  0
 18 19  1  0
 19 20  2  0
 20 21  1  0
 11  6  1  0
 20 15  1  0
  1 22  1  0
  1 23  1  0
  1 24  1  0
  2 25  1  0
  2 26  1  0
  4 27  1  0
  4 28  1  0
  5 29  1  0
  5 30  1  0
  5 31  1  0
  7 32  1  0
  8 33  1  0
  9 34  1  0
 10 35  1  0
 12 36  1  0
 12 37  1  0
 13 38  1  0
 14 39  1  0
 14 40  1  0
 16 41  1  0
 17 42  1  0
 18 43  1  0
 19 44  1  0
M  CHG  1   7   1
M  END
>  <UniqueID>  (31) 
29

>  <SMILES>  (31) 
CCN(CC)c1[nH+]cccc1CNCc1ccccc1F

>  <Energy>  (31) 
43.20940027213584

>  <Genealogy>  (31) 
CCN(CC)c1[nH+]cccc1CNCc1ccccc1F (protonated)
CCN(CC)c1[nH+]cccc1CNCc1ccccc1F (3D coordinates assigned)
CCN(CC)c1[nH+]cccc1CNCc1ccccc1F (optimized conformer: 43.20940027213584 kcal/mol)

>  <smiles>  (31) 
CCN(CC)c1ncccc1CNCc1ccccc1F

>  <score_type>  (31) 
oracle

>  <origin>  (31) 
adg

>  <m_score__min__energy>  (31) 
-6.4500000000000002

>  <m_primary>  (31) 
energy

$$$$
31:0
     RDKit          3D

 41 44  0  0  0  0  0  0  0  0999 V2000
   -6.4100   18.5330  -33.5570 C   0  0  0  0  0  0  0  0  0  0  0  0
   -6.9520   19.7950  -32.9680 C   0  0  0  0  0  0  0  0  0  0  0  0
   -6.4960   21.0390  -33.0940 N   0  0  0  0  0  0  0  0  0  0  0  0
   -7.2610   21.8810  -32.4130 N   0  0  0  0  0  0  0  0  0  0  0  0
   -7.0230   23.2950  -32.3550 C   0  0  0  0  0  0  0  0  0  0  0  0
   -5.8800   23.5480  -31.4710 C   0  0  0  0  0  0  0  0  0  0  0  0
   -4.6970   22.8360  -31.4930 C   0  0  0  0  0  0  0  0  0  0  0  0
   -3.6710   23.1410  -30.6230 C   0  0  0  0  0  0  0  0  0  0  0  0
   -3.8220   24.1760  -29.7100 C   0  0  0  0  0  0  0  0  0  0  0  0
   -2.7620   24.5330  -28.7700 C   0  0  0  0  0  0  0  0  0  0  0  0
   -2.5970   23.9720  -27.5490 N   0  0  0  0  0  0  0  0  0  0  0  0
   -1.5460   24.5010  -26.9250 C   0  0  0  0  0  0  0  0  0  0  0  0
   -0.9380   24.3130  -25.7010 C   0  0  0  0  0  0  0  0  0  0  0  0
    0.1760   25.0280  -25.3090 C   0  0  0  0  0  0  0  0  0  0  0  0
    0.7070   25.9740  -26.1760 C   0  0  0  0  0  0  0  0  0  0  0  0
    0.0870   26.1480  -27.3920 C   0  0  0  0  0  0  0  0  0  0  0  0
   -1.0220   25.4420  -27.7940 C   0  0  0  0  0  0  0  0  0  0  0  0
   -1.7820   25.4390  -28.9060 N   0  0  0  0  0  0  0  0  0  0  0  0
   -5.0100   24.9140  -29.6620 C   0  0  0  0  0  0  0  0  0  0  0  0
   -6.0080   24.5820  -30.5430 C   0  0  0  0  0  0  0  0  0  0  0  0
   -8.2350   21.1770  -31.8310 C   0  0  0  0  0  0  0  0  0  0  0  0
   -9.3270   21.6920  -30.9690 C   0  0  0  0  0  0  0  0  0  0  0  0
   -8.0730   19.8330  -32.1620 C   0  0  0  0  0  0  0  0  0  0  0  0
   -9.0510   18.4870  -31.6800 Cl  0  0  0  0  0  0  0  0  0  0  0  0
   -6.1157   17.8478  -32.7484 H   0  0  0  0  0  0  0  0  0  0  0  0
   -7.1829   18.0567  -34.1781 H   0  0  0  0  0  0  0  0  0  0  0  0
   -5.5324   18.7656  -34.1781 H   0  0  0  0  0  0  0  0  0  0  0  0
   -6.8009   23.6738  -33.3635 H   0  0  0  0  0  0  0  0  0  0  0  0
   -7.9154   23.8078  -31.9668 H   0  0  0  0  0  0  0  0  0  0  0  0
   -4.5712   22.0147  -32.2139 H   0  0  0  0  0  0  0  0  0  0  0  0
   -2.7344   22.5650  -30.6525 H   0  0  0  0  0  0  0  0  0  0  0  0
   -1.3566   23.5652  -25.0114 H   0  0  0  0  0  0  0  0  0  0  0  0
    0.6358   24.8512  -24.3255 H   0  0  0  0  0  0  0  0  0  0  0  0
    1.5932   26.5642  -25.9000 H   0  0  0  0  0  0  0  0  0  0  0  0
    0.5031   26.8959  -28.0830 H   0  0  0  0  0  0  0  0  0  0  0  0
   -1.6210   26.0540  -29.7410 H   0  0  0  0  0  0  0  0  0  0  0  0
   -5.1396   25.7344  -28.9407 H   0  0  0  0  0  0  0  0  0  0  0  0
   -6.9471   25.1542  -30.5166 H   0  0  0  0  0  0  0  0  0  0  0  0
   -9.0519   21.5622  -29.9119 H   0  0  0  0  0  0  0  0  0  0  0  0
   -9.4863   22.7602  -31.1780 H   0  0  0  0  0  0  0  0  0  0  0  0
  -10.2525   21.1355  -31.1780 H   0  0  0  0  0  0  0  0  0  0  0  0
  1  2  1  0
  2  3  2  0
  3  4  1  0
  4  5  1  0
  5  6  1  0
  6  7  2  0
  7  8  1  0
  8  9  2  0
  9 10  1  0
 10 11  2  0
 11 12  1  0
 12 13  2  0
 13 14  1  0
 14 15  2  0
 15 16  1  0
 16 17  2  0
 17 18  1  0
  9 19  1  0
 19 20  2  0
  4 21  1  0
 21 22  1  0
 21 23  2  0
 23 24  1  0
 23  2  1  0
 20  6  1  0
 18 10  1  0
 17 12  1  0
  1 25  1  0
  1 26  1  0
  1 27  1  0
  5 28  1  0
  5 29  1  0
  7 30  1  0
  8 31  1  0
 13 32  1  0
 14 33  1  0
 15 34  1  0
 16 35  1  0
 18 36  1  0
 19 37  1  0
 20 38  1  0
 22 39  1  0
 22 40  1  0
 22 41  1  0
M  END
>  <smiles>  (32) 
Cc1nn(Cc2ccc(-c3nc4ccccc4[nH]3)cc2)c(C)c1Cl

>  <score_type>  (32) 
oracle

>  <origin>  (32) 
adg

>  <m_score__min__energy>  (32) 
-9.6300000000000008

>  <m_primary>  (32) 
energy

$$$$
32:0
     RDKit          3D

 49 51  0  0  0  0  0  0  0  0999 V2000
   -2.6530   18.9250  -26.6140 C   0  0  0  0  0  0  0  0  0  0  0  0
   -1.9550   20.2790  -26.5290 C   0  0  0  0  0  0  0  0  0  0  0  0
   -0.7800   20.2960  -27.3400 O   0  0  0  0  0  0  0  0  0  0  0  0
   -0.7400   20.5500  -28.7220 C   0  0  0  0  0  0  0  0  0  0  0  0
   -0.4950   19.5370  -29.6720 C   0  0  0  0  0  0  0  0  0  0  0  0
   -0.4670   19.8380  -31.0360 C   0  0  0  0  0  0  0  0  0  0  0  0
   -0.6820   21.1460  -31.4680 C   0  0  0  0  0  0  0  0  0  0  0  0
   -0.9280   22.1590  -30.5400 C   0  0  0  0  0  0  0  0  0  0  0  0
   -0.9620   21.8690  -29.1600 C   0  0  0  0  0  0  0  0  0  0  0  0
   -1.2140   22.8560  -28.1900 O   0  0  0  0  0  0  0  0  0  0  0  0
   -2.4050   23.6380  -28.0960 C   0  0  0  0  0  0  0  0  0  0  0  0
   -2.3690   24.7800  -29.0750 C   0  0  0  0  0  0  0  0  0  0  0  0
   -1.4790   25.6620  -28.9550 O   0  0  0  0  0  0  0  0  0  0  0  0
   -3.3550   24.9250  -30.1040 N   0  0  0  0  0  0  0  0  0  0  0  0
   -4.3890   23.9860  -30.4280 C   0  0  0  0  0  0  0  0  0  0  0  0
   -5.7250   24.3940  -30.3420 C   0  0  0  0  0  0  0  0  0  0  0  0
   -6.7560   23.5110  -30.6780 C   0  0  0  0  0  0  0  0  0  0  0  0
   -6.4630   22.2140  -31.1300 C   0  0  0  0  0  0  0  0  0  0  0  0
   -7.5270   21.3040  -31.4650 N   0  0  0  0  0  0  0  0  0  0  0  0
   -8.8950   21.8240  -31.5940 C   0  0  0  0  0  0  0  0  0  0  0  0
   -9.8420   20.7540  -32.1330 C   0  0  0  0  0  0  0  0  0  0  0  0
   -9.1770   19.9850  -33.1090 O   0  0  0  0  0  0  0  0  0  0  0  0
   -8.2540   19.1200  -32.4770 C   0  0  0  0  0  0  0  0  0  0  0  0
   -7.2400   19.8640  -31.5740 C   0  0  0  0  0  0  0  0  0  0  0  0
   -5.1210   21.8130  -31.2340 C   0  0  0  0  0  0  0  0  0  0  0  0
   -4.0900   22.6960  -30.8950 C   0  0  0  0  0  0  0  0  0  0  0  0
   -2.8472   18.5482  -25.5989 H   0  0  0  0  0  0  0  0  0  0  0  0
   -3.6058   19.0368  -27.1522 H   0  0  0  0  0  0  0  0  0  0  0  0
   -2.0092   18.2137  -27.1522 H   0  0  0  0  0  0  0  0  0  0  0  0
   -2.6444   21.0625  -26.8767 H   0  0  0  0  0  0  0  0  0  0  0  0
   -1.6644   20.4606  -25.4837 H   0  0  0  0  0  0  0  0  0  0  0  0
   -0.3248   18.5032  -29.3369 H   0  0  0  0  0  0  0  0  0  0  0  0
   -0.2750   19.0417  -31.7702 H   0  0  0  0  0  0  0  0  0  0  0  0
   -0.6577   21.3801  -32.5425 H   0  0  0  0  0  0  0  0  0  0  0  0
   -1.0963   23.1893  -30.8867 H   0  0  0  0  0  0  0  0  0  0  0  0
   -3.2740   23.0006  -28.3163 H   0  0  0  0  0  0  0  0  0  0  0  0
   -2.4806   24.0469  -27.0776 H   0  0  0  0  0  0  0  0  0  0  0  0
   -5.9652   25.4143  -30.0085 H   0  0  0  0  0  0  0  0  0  0  0  0
   -7.8035   23.8345  -30.5877 H   0  0  0  0  0  0  0  0  0  0  0  0
   -9.2492   22.1522  -30.6056 H   0  0  0  0  0  0  0  0  0  0  0  0
   -8.8828   22.6672  -32.3002 H   0  0  0  0  0  0  0  0  0  0  0  0
  -10.1641   20.1008  -31.3086 H   0  0  0  0  0  0  0  0  0  0  0  0
  -10.7214   21.2369  -32.5840 H   0  0  0  0  0  0  0  0  0  0  0  0
   -8.8138   18.4038  -31.8576 H   0  0  0  0  0  0  0  0  0  0  0  0
   -7.6793   18.6196  -33.2703 H   0  0  0  0  0  0  0  0  0  0  0  0
   -7.2737   19.4212  -30.5676 H   0  0  0  0  0  0  0  0  0  0  0  0
   -6.2457   19.7568  -32.0321 H   0  0  0  0  0  0  0  0  0  0  0  0
   -4.8791   20.7986  -31.5841 H   0  0  0  0  0  0  0  0  0  0  0  0
   -3.0415   22.3785  -30.9947 H   0  0  0  0  0  0  0  0  0  0  0  0
  1  2  1  0
  2  3  1  0
  3  4  1  0
  4  5  2  0
  5  6  1  0
  6  7  2  0
  7  8  1  0
  8  9  2  0
  9 10  1  0
 10 11  1  0
 11 12  1  0
 12 13  2  0
 12 14  1  0
 14 15  1  0
 15 16  2  0
 16 17  1  0
 17 18  2  0
 18 19  1  0
 19 20  1  0
 20 21  1  0
 21 22  1  0
 22 23  1  0
 23 24  1  0
 18 25  1  0
 25 26  2  0
  9  4  1  0
 26 15  1  0
 24 19  1  0
  1 27  1  0
  1 28  1  0
  1 29  1  0
  2 30  1  0
  2 31  1  0
  5 32  1  0
  6 33  1  0
  7 34  1  0
  8 35  1  0
 11 36  1  0
 11 37  1  0
 16 38  1  0
 17 39  1  0
 20 40  1  0
 20 41  1  0
 21 42  1  0
 21 43  1  0
 23 44  1  0
 23 45  1  0
 24 46  1  0
 24 47  1  0
 25 48  1  0
 26 49  1  0
M  CHG  1  14  -1
M  END
>  <UniqueID>  (33) 
30

>  <SMILES>  (33) 
CCOc1ccccc1OCC(=O)[N-]c1ccc(N2CCOCC2)cc1

>  <Energy>  (33) 
62.97183809167483

>  <Genealogy>  (33) 
CCOc1ccccc1OCC(=O)[N-]c1ccc(N2CCOCC2)cc1 (protonated)
CCOc1ccccc1OCC(=O)[N-]c1ccc(N2CCOCC2)cc1 (3D coordinates assigned)
CCOc1ccccc1OCC(=O)[N-]c1ccc(N2CCOCC2)cc1 (nonaromatic ring conformer: 62.97183809167483 kcal/mol)

>  <smiles>  (33) 
CCOc1ccccc1OCC(=O)Nc1ccc(N2CCOCC2)cc1

>  <score_type>  (33) 
oracle

>  <origin>  (33) 
adg

>  <m_score__min__energy>  (33) 
-8.9600000000000009

>  <m_primary>  (33) 
energy

$$$$
33:0
     RDKit          3D

 27 28  0  0  0  0  0  0  0  0999 V2000
   -6.7273   24.7326  -30.0957 H   0  0  0  0  0  0  0  0  0  0  0  0
   -5.9920   24.3080  -30.7950 C   0  0  0  0  0  0  0  0  0  0  0  0
   -4.5630   24.3330  -30.4190 C   0  0  0  0  0  0  0  0  0  0  0  0
   -3.8620   25.2990  -30.8240 O   0  0  0  0  0  0  0  0  0  0  0  0
   -3.9190   23.2710  -29.6090 C   0  0  0  0  0  0  0  0  0  0  0  0
   -4.2370   23.0930  -28.2510 C   0  0  0  0  0  0  0  0  0  0  0  0
   -4.9620   23.7630  -27.7658 H   0  0  0  0  0  0  0  0  0  0  0  0
   -3.6520   22.0960  -27.5350 N   0  0  0  0  0  0  0  0  0  0  0  0
   -2.7570   21.2420  -28.0980 C   0  0  0  0  0  0  0  0  0  0  0  0
   -2.2947   20.4510  -27.4892 H   0  0  0  0  0  0  0  0  0  0  0  0
   -2.4240   21.3670  -29.4460 C   0  0  0  0  0  0  0  0  0  0  0  0
   -1.7052   20.6737  -29.9072 H   0  0  0  0  0  0  0  0  0  0  0  0
   -3.0120   22.3810  -30.2050 C   0  0  0  0  0  0  0  0  0  0  0  0
   -2.7639   22.4824  -31.2718 H   0  0  0  0  0  0  0  0  0  0  0  0
   -6.4310   23.7910  -31.9500 C   0  0  0  0  0  0  0  0  0  0  0  0
   -6.1747   24.2991  -32.8913 H   0  0  0  0  0  0  0  0  0  0  0  0
   -7.2480   22.5610  -32.0020 C   0  0  0  0  0  0  0  0  0  0  0  0
   -8.6300   22.6760  -31.7820 C   0  0  0  0  0  0  0  0  0  0  0  0
   -9.0704   23.6643  -31.5836 H   0  0  0  0  0  0  0  0  0  0  0  0
   -9.4500   21.5460  -31.8130 C   0  0  0  0  0  0  0  0  0  0  0  0
  -10.5295   21.6457  -31.6267 H   0  0  0  0  0  0  0  0  0  0  0  0
   -8.9020   20.2900  -32.0800 C   0  0  0  0  0  0  0  0  0  0  0  0
   -9.5480   19.3998  -32.0942 H   0  0  0  0  0  0  0  0  0  0  0  0
   -7.5340   20.1640  -32.3290 C   0  0  0  0  0  0  0  0  0  0  0  0
   -7.1075   19.1741  -32.5486 H   0  0  0  0  0  0  0  0  0  0  0  0
   -6.7010   21.2900  -32.3010 C   0  0  0  0  0  0  0  0  0  0  0  0
   -5.0070   21.0730  -32.7350 Cl  0  0  0  0  0  0  0  0  0  0  0  0
  1  2  1  0
  2  3  1  0
  3  4  2  0
  3  5  1  0
  5  6  2  0
  6  7  1  0
  6  8  1  0
  8  9  2  0
  9 10  1  0
  9 11  1  0
 11 12  1  0
 11 13  2  0
 13 14  1  0
  2 15  2  0
 15 16  1  0
 15 17  1  0
 17 18  2  0
 18 19  1  0
 18 20  1  0
 20 21  1  0
 20 22  2  0
 22 23  1  0
 22 24  1  0
 24 25  1  0
 24 26  2  0
 26 27  1  0
 13  5  1  0
 26 17  1  0
M  END
>  <UniqueID>  (34) 
31

>  <SMILES>  (34) 
O=C(/C=C/c1ccccc1Cl)c1cccnc1

>  <Energy>  (34) 
39.58443106570389

>  <Genealogy>  (34) 
O=C(/C=C/c1ccccc1Cl)c1cccnc1 (cis-trans isomerization)
O=C(/C=C/c1ccccc1Cl)c1cccnc1 (3D coordinates assigned)
O=C(/C=C/c1ccccc1Cl)c1cccnc1 (optimized conformer: 39.58443106570389 kcal/mol)

>  <smiles>  (34) 
O=C(C=Cc1ccccc1Cl)c1cccnc1

>  <score_type>  (34) 
oracle

>  <origin>  (34) 
adg

>  <m_score__min__energy>  (34) 
-7.3799999999999999

>  <m_primary>  (34) 
energy

$$$$
34:0
     RDKit          3D

 50 53  0  0  0  0  0  0  0  0999 V2000
   -2.0546   19.5491  -34.7557 H   0  0  0  0  0  0  0  0  0  0  0  0
   -2.8480   19.6290  -33.9980 C   0  0  0  0  0  0  0  0  0  0  0  0
   -2.8770   20.7240  -33.2300 C   0  0  0  0  0  0  0  0  0  0  0  0
   -1.9336   21.1987  -32.9225 H   0  0  0  0  0  0  0  0  0  0  0  0
   -4.1840   21.3110  -32.7840 C   0  0  0  0  0  0  0  0  0  0  0  0
   -4.9725   21.0288  -33.4972 H   0  0  0  0  0  0  0  0  0  0  0  0
   -4.0930   22.4065  -32.7432 H   0  0  0  0  0  0  0  0  0  0  0  0
   -4.5360   20.7990  -31.4320 N   0  0  0  0  0  0  0  0  0  0  0  0
   -3.4060   21.0150  -30.4980 C   0  0  0  0  0  0  0  0  0  0  0  0
   -2.4838   20.6286  -30.9566 H   0  0  0  0  0  0  0  0  0  0  0  0
   -3.6269   20.4856  -29.5594 H   0  0  0  0  0  0  0  0  0  0  0  0
   -3.2310   22.4090  -30.2000 O   0  0  0  0  0  0  0  0  0  0  0  0
   -4.2560   23.3570  -30.3470 C   0  0  0  0  0  0  0  0  0  0  0  0
   -3.9780   24.7150  -30.1380 C   0  0  0  0  0  0  0  0  0  0  0  0
   -2.6940   25.0770  -29.7030 O   0  0  0  0  0  0  0  0  0  0  0  0
   -2.0690   24.5730  -28.5270 C   0  0  0  0  0  0  0  0  0  0  0  0
   -2.5748   24.9809  -27.6394 H   0  0  0  0  0  0  0  0  0  0  0  0
   -2.1385   23.4752  -28.5166 H   0  0  0  0  0  0  0  0  0  0  0  0
   -1.0109   24.8735  -28.5166 H   0  0  0  0  0  0  0  0  0  0  0  0
   -4.9840   25.6680  -30.3830 C   0  0  0  0  0  0  0  0  0  0  0  0
   -4.7816   26.7349  -30.2079 H   0  0  0  0  0  0  0  0  0  0  0  0
   -6.2370   25.2660  -30.8470 C   0  0  0  0  0  0  0  0  0  0  0  0
   -7.0096   26.0196  -31.0595 H   0  0  0  0  0  0  0  0  0  0  0  0
   -6.5150   23.9110  -31.0430 C   0  0  0  0  0  0  0  0  0  0  0  0
   -7.5023   23.6013  -31.4162 H   0  0  0  0  0  0  0  0  0  0  0  0
   -5.5350   22.9430  -30.7640 C   0  0  0  0  0  0  0  0  0  0  0  0
   -5.7490   21.4370  -30.8530 C   0  0  1  0  0  0  0  0  0  0  0  0
   -5.8853   21.0959  -29.8161 H   0  0  0  0  0  0  0  0  0  0  0  0
   -7.0660   20.9470  -31.4620 C   0  0  0  0  0  0  0  0  0  0  0  0
   -8.3320   21.2920  -30.9470 C   0  0  0  0  0  0  0  0  0  0  0  0
   -8.4028   21.9020  -30.0344 H   0  0  0  0  0  0  0  0  0  0  0  0
   -9.4960   20.8650  -31.5870 C   0  0  0  0  0  0  0  0  0  0  0  0
  -10.4816   21.1083  -31.1635 H   0  0  0  0  0  0  0  0  0  0  0  0
   -9.4020   20.1290  -32.7650 C   0  0  0  0  0  0  0  0  0  0  0  0
  -10.3145   19.7734  -33.2659 H   0  0  0  0  0  0  0  0  0  0  0  0
   -8.1820   19.8500  -33.2960 N   0  0  0  0  0  0  0  0  0  0  0  0
   -8.1260   19.3210  -34.1940 H   0  0  0  0  0  0  0  0  0  0  0  0
   -7.0330   20.2540  -32.6890 C   0  0  0  0  0  0  0  0  0  0  0  0
   -6.0644   20.0366  -33.1628 H   0  0  0  0  0  0  0  0  0  0  0  0
   -3.8230   18.5160  -33.8880 C   0  0  0  0  0  0  0  0  0  0  0  0
   -5.0230   18.6000  -34.6160 C   0  0  0  0  0  0  0  0  0  0  0  0
   -5.2195   19.4821  -35.2431 H   0  0  0  0  0  0  0  0  0  0  0  0
   -5.9690   17.5720  -34.5500 C   0  0  0  0  0  0  0  0  0  0  0  0
   -6.9078   17.6520  -35.1177 H   0  0  0  0  0  0  0  0  0  0  0  0
   -5.7230   16.4440  -33.7640 C   0  0  0  0  0  0  0  0  0  0  0  0
   -6.4702   15.6387  -33.7082 H   0  0  0  0  0  0  0  0  0  0  0  0
   -4.5280   16.3390  -33.0490 C   0  0  0  0  0  0  0  0  0  0  0  0
   -4.3324   15.4468  -32.4360 H   0  0  0  0  0  0  0  0  0  0  0  0
   -3.5790   17.3650  -33.1100 C   0  0  0  0  0  0  0  0  0  0  0  0
   -2.6376   17.2737  -32.5483 H   0  0  0  0  0  0  0  0  0  0  0  0
  1  2  1  0
  2  3  2  0
  3  4  1  0
  3  5  1  0
  5  6  1  0
  5  7  1  0
  5  8  1  0
  8  9  1  0
  9 10  1  0
  9 11  1  0
  9 12  1  0
 12 13  1  0
 13 14  2  0
 14 15  1  0
 15 16  1  0
 16 17  1  0
 16 18  1  0
 16 19  1  0
 14 20  1  0
 20 21  1  0
 20 22  2  0
 22 23  1  0
 22 24  1  0
 24 25  1  0
 24 26  2  0
 26 27  1  0
 27 28  1  1
 27 29  1  0
 29 30  2  0
 30 31  1  0
 30 32  1  0
 32 33  1  0
 32 34  2  0
 34 35  1  0
 34 36  1  0
 36 37  1  0
 36 38  2  0
 38 39  1  0
  2 40  1  0
 40 41  2  0
 41 42  1  0
 41 43  1  0
 43 44  1  0
 43 45  2  0
 45 46  1  0
 45 47  1  0
 47 48  1  0
 47 49  2  0
 49 50  1  0
 27  8  1  0
 38 29  1  0
 49 40  1  0
 26 13  1  0
M  CHG  1  36   1
M  END
>  <UniqueID>  (35) 
32

>  <SMILES>  (35) 
COc1cccc2c1OCN(C/C=C/c1ccccc1)[C@@H]2c1ccc[nH+]c1

>  <Energy>  (35) 
73.70915674466428

>  <Genealogy>  (35) 
COc1cccc2c1OCN(CC=Cc1ccccc1)C2c1ccc[nH+]c1 (protonated)
COc1cccc2c1OCN(CC=Cc1ccccc1)[C@@H]2c1ccc[nH+]c1 (chirality)
COc1cccc2c1OCN(C/C=C/c1ccccc1)[C@@H]2c1ccc[nH+]c1 (cis-trans isomerization)
COc1cccc2c1OCN(C/C=C/c1ccccc1)[C@@H]2c1ccc[nH+]c1 (3D coordinates assigned)
COc1cccc2c1OCN(C/C=C/c1ccccc1)[C@@H]2c1ccc[nH+]c1 (nonaromatic ring conformer: 73.70915674466428 kcal/mol)

>  <smiles>  (35) 
COc1cccc2c1OCN(CC=Cc1ccccc1)C2c1cccnc1

>  <score_type>  (35) 
oracle

>  <origin>  (35) 
adg

>  <m_score__min__energy>  (35) 
-8.4100000000000001

>  <m_primary>  (35) 
energy

$$$$
35:0
     RDKit          3D

 48 49  0  0  0  0  0  0  0  0999 V2000
   -3.8130   21.9390  -33.0790 C   0  0  0  0  0  0  0  0  0  0  0  0
   -3.0440   22.1760  -31.7650 C   0  0  0  0  0  0  0  0  0  0  0  0
   -3.8850   22.5110  -30.5780 N   0  0  0  0  0  0  0  0  0  0  0  0
   -3.2890   22.1590  -29.2640 C   0  0  0  0  0  0  0  0  0  0  0  0
   -4.0700   22.7560  -28.0880 C   0  0  0  0  0  0  0  0  0  0  0  0
   -4.3830   23.8840  -30.5530 C   0  0  0  0  0  0  0  0  0  0  0  0
   -3.5640   24.7920  -30.4790 O   0  0  0  0  0  0  0  0  0  0  0  0
   -5.8470   24.2550  -30.7460 C   0  0  2  0  0  0  0  0  0  0  0  0
   -6.2190   25.2620  -29.7430 C   0  0  0  0  0  0  0  0  0  0  0  0
   -6.5110   26.0570  -28.9540 N   0  0  0  0  0  0  0  0  0  0  0  0
   -6.7560   23.0610  -30.6220 C   0  0  0  0  0  0  0  0  0  0  0  0
   -6.5760   22.0360  -31.4010 N   0  0  0  0  0  0  0  0  0  0  0  0
   -7.5750   21.0730  -31.7870 C   0  0  0  0  0  0  0  0  0  0  0  0
   -8.9380   21.4220  -31.8890 C   0  0  0  0  0  0  0  0  0  0  0  0
   -9.8820   20.4800  -32.3030 C   0  0  0  0  0  0  0  0  0  0  0  0
   -9.4830   19.1860  -32.6300 C   0  0  0  0  0  0  0  0  0  0  0  0
   -8.1360   18.8290  -32.5530 C   0  0  0  0  0  0  0  0  0  0  0  0
   -7.1700   19.7660  -32.1450 C   0  0  0  0  0  0  0  0  0  0  0  0
   -5.7480   19.3500  -32.0460 C   0  0  0  0  0  0  0  0  0  0  0  0
   -5.0000   19.9320  -31.2140 O   0  0  0  0  0  0  0  0  0  0  0  0
   -5.1870   18.2600  -32.8830 C   0  0  0  0  0  0  0  0  0  0  0  0
   -4.5020   18.5430  -34.0810 C   0  0  0  0  0  0  0  0  0  0  0  0
   -3.9690   17.5070  -34.8520 C   0  0  0  0  0  0  0  0  0  0  0  0
   -4.1050   16.1810  -34.4360 C   0  0  0  0  0  0  0  0  0  0  0  0
   -4.7690   15.8880  -33.2430 C   0  0  0  0  0  0  0  0  0  0  0  0
   -4.8960   14.6000  -32.8380 F   0  0  0  0  0  0  0  0  0  0  0  0
   -5.3040   16.9210  -32.4660 C   0  0  0  0  0  0  0  0  0  0  0  0
   -4.8412   21.6221  -32.8501 H   0  0  0  0  0  0  0  0  0  0  0  0
   -3.8379   22.8711  -33.6625 H   0  0  0  0  0  0  0  0  0  0  0  0
   -3.3089   21.1545  -33.6625 H   0  0  0  0  0  0  0  0  0  0  0  0
   -2.4800   21.2606  -31.5329 H   0  0  0  0  0  0  0  0  0  0  0  0
   -2.4086   23.0563  -31.9423 H   0  0  0  0  0  0  0  0  0  0  0  0
   -4.7430   21.9170  -30.6830 H   0  0  0  0  0  0  0  0  0  0  0  0
   -3.2803   21.0637  -29.1623 H   0  0  0  0  0  0  0  0  0  0  0  0
   -2.2712   22.5752  -29.2357 H   0  0  0  0  0  0  0  0  0  0  0  0
   -3.6247   22.4156  -27.1415 H   0  0  0  0  0  0  0  0  0  0  0  0
   -4.0275   23.8540  -28.1392 H   0  0  0  0  0  0  0  0  0  0  0  0
   -5.1184   22.4269  -28.1392 H   0  0  0  0  0  0  0  0  0  0  0  0
   -5.9664   24.6557  -31.7634 H   0  0  0  0  0  0  0  0  0  0  0  0
   -7.5662   23.0561  -29.8779 H   0  0  0  0  0  0  0  0  0  0  0  0
   -9.2597   22.4441  -31.6405 H   0  0  0  0  0  0  0  0  0  0  0  0
  -10.9435   20.7605  -32.3711 H   0  0  0  0  0  0  0  0  0  0  0  0
  -10.2304   18.4448  -32.9493 H   0  0  0  0  0  0  0  0  0  0  0  0
   -7.8273   17.8059  -32.8137 H   0  0  0  0  0  0  0  0  0  0  0  0
   -4.3861   19.5858  -34.4113 H   0  0  0  0  0  0  0  0  0  0  0  0
   -3.4408   17.7365  -35.7892 H   0  0  0  0  0  0  0  0  0  0  0  0
   -3.6891   15.3672  -35.0481 H   0  0  0  0  0  0  0  0  0  0  0  0
   -5.8193   16.6852  -31.5232 H   0  0  0  0  0  0  0  0  0  0  0  0
  1  2  1  0
  2  3  1  0
  3  4  1  0
  4  5  1  0
  3  6  1  0
  6  7  2  0
  6  8  1  0
  8  9  1  0
  9 10  3  0
  8 11  1  0
 11 12  2  3
 12 13  1  0
 13 14  2  0
 14 15  1  0
 15 16  2  0
 16 17  1  0
 17 18  2  0
 18 19  1  0
 19 20  2  0
 19 21  1  0
 21 22  2  0
 22 23  1  0
 23 24  2  0
 24 25  1  0
 25 26  1  0
 25 27  2  0
 18 13  1  0
 27 21  1  0
  1 28  1  0
  1 29  1  0
  1 30  1  0
  2 31  1  0
  2 32  1  0
  3 33  1  0
  4 34  1  0
  4 35  1  0
  5 36  1  0
  5 37  1  0
  5 38  1  0
  8 39  1  6
 11 40  1  0
 14 41  1  0
 15 42  1  0
 16 43  1  0
 17 44  1  0
 22 45  1  0
 23 46  1  0
 24 47  1  0
 27 48  1  0
M  CHG  1   3   1
M  END
>  <UniqueID>  (36) 
33

>  <SMILES>  (36) 
CC[NH+](CC)C(=O)[C@H](C#N)C=Nc1ccccc1C(=O)c1cccc(F)c1

>  <Energy>  (36) 
65.40338351828673

>  <Genealogy>  (36) 
CC[NH+](CC)C(=O)C(C#N)C=Nc1ccccc1C(=O)c1cccc(F)c1 (protonated)
CC[NH+](CC)C(=O)[C@H](C#N)C=Nc1ccccc1C(=O)c1cccc(F)c1 (chirality)
CC[NH+](CC)C(=O)[C@H](C#N)C=Nc1ccccc1C(=O)c1cccc(F)c1 (3D coordinates assigned)
CC[NH+](CC)C(=O)[C@H](C#N)C=Nc1ccccc1C(=O)c1cccc(F)c1 (optimized conformer: 65.40338351828673 kcal/mol)

>  <smiles>  (36) 
CCN(CC)C(=O)C(C#N)C=Nc1ccccc1C(=O)c1cccc(F)c1

>  <score_type>  (36) 
oracle

>  <origin>  (36) 
adg

>  <m_score__min__energy>  (36) 
-6.8899999999999997

>  <m_primary>  (36) 
energy

$$$$
36:0
     RDKit          3D

 45 47  0  0  0  0  0  0  0  0999 V2000
   -0.7305   25.3953  -28.5546 H   0  0  0  0  0  0  0  0  0  0  0  0
   -1.7740   25.0490  -28.5190 C   0  0  0  0  0  0  0  0  0  0  0  0
   -2.4850   24.9190  -29.6700 N   0  0  0  0  0  0  0  0  0  0  0  0
   -3.7840   24.5120  -29.6890 C   0  0  0  0  0  0  0  0  0  0  0  0
   -4.3790   24.4090  -30.8450 N   0  0  0  0  0  0  0  0  0  0  0  0
   -5.5060   23.6000  -31.2080 C   0  0  0  0  0  0  0  0  0  0  0  0
   -6.7480   24.0790  -31.4410 N   0  0  0  0  0  0  0  0  0  0  0  0
   -7.5930   23.1110  -31.8880 C   0  0  0  0  0  0  0  0  0  0  0  0
   -9.0190   23.4220  -32.2090 C   0  0  0  0  0  0  0  0  0  0  0  0
   -9.5865   23.5458  -31.2749 H   0  0  0  0  0  0  0  0  0  0  0  0
   -9.0687   24.3521  -32.7942 H   0  0  0  0  0  0  0  0  0  0  0  0
   -9.4514   22.5971  -32.7942 H   0  0  0  0  0  0  0  0  0  0  0  0
   -7.0040   21.8510  -32.0320 C   0  0  0  0  0  0  0  0  0  0  0  0
   -7.7520   20.3610  -32.6070 S   0  0  0  0  0  0  0  0  0  0  0  0
   -7.2190   20.0620  -33.9790 O   0  0  0  0  0  0  0  0  0  0  0  0
   -9.2450   20.5110  -32.6970 O   0  0  0  0  0  0  0  0  0  0  0  0
   -7.3780   19.0250  -31.5530 N   0  0  0  0  0  0  0  0  0  0  0  0
   -7.1700   17.7830  -32.3020 C   0  0  0  0  0  0  0  0  0  0  0  0
   -8.0054   17.6455  -33.0043 H   0  0  0  0  0  0  0  0  0  0  0  0
   -7.1203   16.9519  -31.5831 H   0  0  0  0  0  0  0  0  0  0  0  0
   -5.8770   17.8130  -33.0790 C   0  0  0  0  0  0  0  0  0  0  0  0
   -4.8600   18.7050  -32.7000 C   0  0  0  0  0  0  0  0  0  0  0  0
   -5.0193   19.3866  -31.8515 H   0  0  0  0  0  0  0  0  0  0  0  0
   -3.6490   18.7320  -33.3930 C   0  0  0  0  0  0  0  0  0  0  0  0
   -2.8559   19.4296  -33.0860 H   0  0  0  0  0  0  0  0  0  0  0  0
   -3.4430   17.8750  -34.4750 C   0  0  0  0  0  0  0  0  0  0  0  0
   -2.4881   17.8984  -35.0206 H   0  0  0  0  0  0  0  0  0  0  0  0
   -4.4490   16.9870  -34.8660 C   0  0  0  0  0  0  0  0  0  0  0  0
   -4.2820   16.3145  -35.7203 H   0  0  0  0  0  0  0  0  0  0  0  0
   -5.6750   16.9470  -34.1740 C   0  0  0  0  0  0  0  0  0  0  0  0
   -6.7050   16.0650  -34.5410 O   0  0  0  0  0  0  0  0  0  0  0  0
   -6.7300   14.6760  -34.2260 C   0  0  0  0  0  0  0  0  0  0  0  0
   -6.7323   14.5478  -33.1335 H   0  0  0  0  0  0  0  0  0  0  0  0
   -7.6365   14.2200  -34.6506 H   0  0  0  0  0  0  0  0  0  0  0  0
   -5.8405   14.1877  -34.6506 H   0  0  0  0  0  0  0  0  0  0  0  0
   -5.3810   21.9730  -31.6050 S   0  0  0  0  0  0  0  0  0  0  0  0
   -4.4130   24.1920  -28.4660 C   0  0  0  0  0  0  0  0  0  0  0  0
   -5.4560   23.8427  -28.4543 H   0  0  0  0  0  0  0  0  0  0  0  0
   -3.7020   24.3220  -27.2720 C   0  0  0  0  0  0  0  0  0  0  0  0
   -4.1926   24.0927  -26.3145 H   0  0  0  0  0  0  0  0  0  0  0  0
   -2.3670   24.7430  -27.2880 C   0  0  0  0  0  0  0  0  0  0  0  0
   -1.6070   24.9210  -26.0080 C   0  0  0  0  0  0  0  0  0  0  0  0
   -2.2832   24.7626  -25.1550 H   0  0  0  0  0  0  0  0  0  0  0  0
   -0.7853   24.1910  -25.9649 H   0  0  0  0  0  0  0  0  0  0  0  0
   -1.1949   25.9400  -25.9649 H   0  0  0  0  0  0  0  0  0  0  0  0
  1  2  1  0
  2  3  1  0
  3  4  1  0
  4  5  2  0
  5  6  1  0
  6  7  2  0
  7  8  1  0
  8  9  1  0
  9 10  1  0
  9 11  1  0
  9 12  1  0
  8 13  2  0
 13 14  1  0
 14 15  2  0
 14 16  2  0
 14 17  1  0
 17 18  1  0
 18 19  1  0
 18 20  1  0
 18 21  1  0
 21 22  2  0
 22 23  1  0
 22 24  1  0
 24 25  1  0
 24 26  2  0
 26 27  1  0
 26 28  1  0
 28 29  1  0
 28 30  2  0
 30 31  1  0
 31 32  1  0
 32 33  1  0
 32 34  1  0
 32 35  1  0
 13 36  1  0
  4 37  1  0
 37 38  1  0
 37 39  2  0
 39 40  1  0
 39 41  1  0
 41 42  1  0
 42 43  1  0
 42 44  1  0
 42 45  1  0
 41  2  2  0
 36  6  1  0
 30 21  1  0
M  CHG  2   3  -1  17  -1
M  END
>  <UniqueID>  (37) 
34

>  <SMILES>  (37) 
COc1ccccc1C[N-]S(=O)(=O)c1sc(/N=c2\ccc(C)c[n-]2)nc1C

>  <Energy>  (37) 
82.16975051540643

>  <Genealogy>  (37) 
COc1ccccc1C[N-]S(=O)(=O)c1sc(N=c2ccc(C)c[n-]2)nc1C (protonated)
COc1ccccc1C[N-]S(=O)(=O)c1sc(/N=c2\ccc(C)c[n-]2)nc1C (cis-trans isomerization)
COc1ccccc1C[N-]S(=O)(=O)c1sc(/N=c2\ccc(C)c[n-]2)nc1C (3D coordinates assigned)
COc1ccccc1C[N-]S(=O)(=O)c1sc(/N=c2\ccc(C)c[n-]2)nc1C (optimized conformer: 82.16975051540643 kcal/mol)

>  <smiles>  (37) 
COc1ccccc1CNS(=O)(=O)c1sc(N=c2ccc(C)c[nH]2)nc1C

>  <score_type>  (37) 
oracle

>  <origin>  (37) 
adg

>  <m_score__min__energy>  (37) 
-10.140000000000001

>  <m_primary>  (37) 
energy

$$$$
37:0
     RDKit          3D

 39 41  0  0  0  0  0  0  0  0999 V2000
   -5.7620   25.5950  -30.1640 C   0  0  0  0  0  0  0  0  0  0  0  0
   -4.7710   24.4800  -30.1430 C   0  0  0  0  0  0  0  0  0  0  0  0
   -4.2600   23.8800  -29.0090 C   0  0  0  0  0  0  0  0  0  0  0  0
   -3.4070   22.8950  -29.4610 C   0  0  0  0  0  0  0  0  0  0  0  0
   -3.4590   22.9600  -30.8410 C   0  0  0  0  0  0  0  0  0  0  0  0
   -2.7170   22.0650  -31.7900 C   0  0  0  0  0  0  0  0  0  0  0  0
   -3.3330   22.0440  -33.1300 N   0  0  0  0  0  0  0  0  0  0  0  0
   -4.0470   20.7910  -33.4580 C   0  0  0  0  0  0  0  0  0  0  0  0
   -5.5480   20.8160  -33.0890 C   0  0  1  0  0  0  0  0  0  0  0  0
   -5.8440   19.7030  -32.0510 C   0  0  0  0  0  0  0  0  0  0  0  0
   -7.2660   19.3470  -32.0500 N   0  0  0  0  0  0  0  0  0  0  0  0
   -7.7670   18.1010  -31.9740 C   0  0  0  0  0  0  0  0  0  0  0  0
   -9.1400   18.1940  -31.9460 C   0  0  0  0  0  0  0  0  0  0  0  0
   -9.5090   19.4900  -31.9880 N   0  0  0  0  0  0  0  0  0  0  0  0
   -8.3400   20.1660  -32.0330 C   0  0  0  0  0  0  0  0  0  0  0  0
   -8.2730   21.6630  -32.1160 C   0  0  0  0  0  0  0  0  0  0  0  0
   -6.9040   22.1880  -31.6570 C   0  0  0  0  0  0  0  0  0  0  0  0
   -5.8790   22.1250  -32.6380 O   0  0  0  0  0  0  0  0  0  0  0  0
   -4.2830   23.9100  -31.2190 O   0  0  0  0  0  0  0  0  0  0  0  0
   -6.0153   25.8799  -29.1322 H   0  0  0  0  0  0  0  0  0  0  0  0
   -5.3294   26.4602  -30.6877 H   0  0  0  0  0  0  0  0  0  0  0  0
   -6.6720   25.2669  -30.6877 H   0  0  0  0  0  0  0  0  0  0  0  0
   -4.4862   24.1346  -27.9631 H   0  0  0  0  0  0  0  0  0  0  0  0
   -2.8096   22.2019  -28.8505 H   0  0  0  0  0  0  0  0  0  0  0  0
   -1.6817   22.4254  -31.8812 H   0  0  0  0  0  0  0  0  0  0  0  0
   -2.7497   21.0423  -31.3863 H   0  0  0  0  0  0  0  0  0  0  0  0
   -2.5910   22.2230  -33.8450 H   0  0  0  0  0  0  0  0  0  0  0  0
   -4.0160   22.8350  -33.1950 H   0  0  0  0  0  0  0  0  0  0  0  0
   -3.9583   20.6138  -34.5400 H   0  0  0  0  0  0  0  0  0  0  0  0
   -3.5829   19.9912  -32.8622 H   0  0  0  0  0  0  0  0  0  0  0  0
   -6.1853   20.6001  -33.9592 H   0  0  0  0  0  0  0  0  0  0  0  0
   -5.2506   18.8113  -32.3013 H   0  0  0  0  0  0  0  0  0  0  0  0
   -5.5768   20.0772  -31.0517 H   0  0  0  0  0  0  0  0  0  0  0  0
   -7.1817   17.1703  -31.9401 H   0  0  0  0  0  0  0  0  0  0  0  0
   -9.8316   17.3400  -31.8968 H   0  0  0  0  0  0  0  0  0  0  0  0
   -8.4441   21.9719  -33.1578 H   0  0  0  0  0  0  0  0  0  0  0  0
   -9.0448   22.0818  -31.4535 H   0  0  0  0  0  0  0  0  0  0  0  0
   -7.0247   23.2392  -31.3562 H   0  0  0  0  0  0  0  0  0  0  0  0
   -6.5831   21.5330  -30.8336 H   0  0  0  0  0  0  0  0  0  0  0  0
  1  2  1  0
  2  3  2  0
  3  4  1  0
  4  5  2  0
  5  6  1  0
  6  7  1  0
  7  8  1  0
  8  9  1  0
  9 10  1  0
 10 11  1  0
 11 12  1  0
 12 13  2  0
 13 14  1  0
 14 15  2  0
 15 16  1  0
 16 17  1  0
 17 18  1  0
  5 19  1  0
 19  2  1  0
 18  9  1  0
 15 11  1  0
  1 20  1  0
  1 21  1  0
  1 22  1  0
  3 23  1  0
  4 24  1  0
  6 25  1  0
  6 26  1  0
  7 27  1  0
  7 28  1  0
  8 29  1  0
  8 30  1  0
  9 31  1  6
 10 32  1  0
 10 33  1  0
 12 34  1  0
 13 35  1  0
 16 36  1  0
 16 37  1  0
 17 38  1  0
 17 39  1  0
M  CHG  1   7   1
M  END
>  <UniqueID>  (38) 
35

>  <SMILES>  (38) 
Cc1ccc(C[NH2+]C[C@H]2Cn3ccnc3CCO2)o1

>  <Energy>  (38) 
104.52443934173422

>  <Genealogy>  (38) 
Cc1ccc(C[NH2+]CC2Cn3ccnc3CCO2)o1 (protonated)
Cc1ccc(C[NH2+]C[C@H]2Cn3ccnc3CCO2)o1 (chirality)
Cc1ccc(C[NH2+]C[C@H]2Cn3ccnc3CCO2)o1 (3D coordinates assigned)
Cc1ccc(C[NH2+]C[C@H]2Cn3ccnc3CCO2)o1 (nonaromatic ring conformer: 104.52443934173422 kcal/mol)

>  <smiles>  (38) 
Cc1ccc(CNCC2Cn3ccnc3CCO2)o1

>  <score_type>  (38) 
oracle

>  <origin>  (38) 
adg

>  <m_score__min__energy>  (38) 
-4.9800000000000004

>  <m_primary>  (38) 
energy

$$$$
38:0
     RDKit          3D

 45 47  0  0  0  0  0  0  0  0999 V2000
   -7.6090   17.6340  -32.4800 C   0  0  0  0  0  0  0  0  0  0  0  0
   -7.6610   19.1140  -32.2370 C   0  0  0  0  0  0  0  0  0  0  0  0
   -8.6810   19.6650  -31.4470 C   0  0  0  0  0  0  0  0  0  0  0  0
   -8.7520   21.0480  -31.2520 C   0  0  0  0  0  0  0  0  0  0  0  0
   -7.8050   21.8970  -31.8460 C   0  0  0  0  0  0  0  0  0  0  0  0
   -7.9030   23.3860  -31.6670 C   0  0  0  0  0  0  0  0  0  0  0  0
   -7.0280   23.8070  -30.5700 N   0  0  0  0  0  0  0  0  0  0  0  0
   -5.3960   23.9600  -31.1450 S   0  0  0  0  0  0  0  0  0  0  0  0
   -5.3650   23.7640  -32.6360 O   0  0  0  0  0  0  0  0  0  0  0  0
   -4.8910   25.3420  -30.8380 O   0  0  0  0  0  0  0  0  0  0  0  0
   -4.3530   22.7790  -30.3570 C   0  0  0  0  0  0  0  0  0  0  0  0
   -3.8030   21.7260  -31.0930 C   0  0  0  0  0  0  0  0  0  0  0  0
   -2.9610   20.8040  -30.4710 C   0  0  0  0  0  0  0  0  0  0  0  0
   -2.6660   20.9430  -29.1040 C   0  0  0  0  0  0  0  0  0  0  0  0
   -1.7960   20.0020  -28.4430 N   0  0  0  0  0  0  0  0  0  0  0  0
   -0.5410   19.7910  -28.8200 N   0  0  0  0  0  0  0  0  0  0  0  0
   -0.0120   18.8640  -28.0000 C   0  0  0  0  0  0  0  0  0  0  0  0
    1.3650   18.3100  -28.1470 C   0  0  0  0  0  0  0  0  0  0  0  0
   -0.9550   18.4500  -27.0830 C   0  0  0  0  0  0  0  0  0  0  0  0
   -2.0750   19.1970  -27.3860 C   0  0  0  0  0  0  0  0  0  0  0  0
   -3.3830   19.1060  -26.6600 C   0  0  0  0  0  0  0  0  0  0  0  0
   -3.2120   21.9850  -28.4150 N   0  0  0  0  0  0  0  0  0  0  0  0
   -4.0350   22.8920  -29.0000 C   0  0  0  0  0  0  0  0  0  0  0  0
   -6.8050   21.3480  -32.6630 C   0  0  0  0  0  0  0  0  0  0  0  0
   -6.7340   19.9650  -32.8590 C   0  0  0  0  0  0  0  0  0  0  0  0
   -7.5904   17.1046  -31.5160 H   0  0  0  0  0  0  0  0  0  0  0  0
   -8.4968   17.3248  -33.0511 H   0  0  0  0  0  0  0  0  0  0  0  0
   -6.7017   17.3878  -33.0511 H   0  0  0  0  0  0  0  0  0  0  0  0
   -9.4278   19.0067  -30.9791 H   0  0  0  0  0  0  0  0  0  0  0  0
   -9.5539   21.4726  -30.6301 H   0  0  0  0  0  0  0  0  0  0  0  0
   -7.5933   23.8877  -32.5957 H   0  0  0  0  0  0  0  0  0  0  0  0
   -8.9423   23.6583  -31.4308 H   0  0  0  0  0  0  0  0  0  0  0  0
   -7.0230   23.0510  -29.8470 H   0  0  0  0  0  0  0  0  0  0  0  0
   -4.0342   21.6241  -32.1636 H   0  0  0  0  0  0  0  0  0  0  0  0
   -2.5301   19.9723  -31.0476 H   0  0  0  0  0  0  0  0  0  0  0  0
    1.7983   18.1357  -27.1511 H   0  0  0  0  0  0  0  0  0  0  0  0
    1.3209   17.3596  -28.6992 H   0  0  0  0  0  0  0  0  0  0  0  0
    1.9913   19.0261  -28.6992 H   0  0  0  0  0  0  0  0  0  0  0  0
   -0.8405   17.6959  -26.2904 H   0  0  0  0  0  0  0  0  0  0  0  0
   -3.2018   19.1186  -25.5751 H   0  0  0  0  0  0  0  0  0  0  0  0
   -4.0159   19.9623  -26.9360 H   0  0  0  0  0  0  0  0  0  0  0  0
   -3.8913   18.1703  -26.9360 H   0  0  0  0  0  0  0  0  0  0  0  0
   -4.4527   23.7178  -28.4053 H   0  0  0  0  0  0  0  0  0  0  0  0
   -6.0735   22.0084  -33.1516 H   0  0  0  0  0  0  0  0  0  0  0  0
   -5.9487   19.5425  -33.5031 H   0  0  0  0  0  0  0  0  0  0  0  0
  1  2  1  0
  2  3  2  0
  3  4  1  0
  4  5  2  0
  5  6  1  0
  6  7  1  0
  7  8  1  0
  8  9  2  0
  8 10  2  0
  8 11  1  0
 11 12  2  0
 12 13  1  0
 13 14  2  0
 14 15  1  0
 15 16  1  0
 16 17  2  0
 17 18  1  0
 17 19  1  0
 19 20  2  0
 20 21  1  0
 14 22  1  0
 22 23  2  0
  5 24  1  0
 24 25  2  0
 25  2  1  0
 23 11  1  0
 20 15  1  0
  1 26  1  0
  1 27  1  0
  1 28  1  0
  3 29  1  0
  4 30  1  0
  6 31  1  0
  6 32  1  0
  7 33  1  0
 12 34  1  0
 13 35  1  0
 18 36  1  0
 18 37  1  0
 18 38  1  0
 19 39  1  0
 21 40  1  0
 21 41  1  0
 21 42  1  0
 23 43  1  0
 24 44  1  0
 25 45  1  0
M  END
>  <UniqueID>  (39) 
36

>  <SMILES>  (39) 
Cc1ccc(CNS(=O)(=O)c2ccc(-n3nc(C)cc3C)nc2)cc1

>  <Energy>  (39) 
73.79421678752732

>  <Genealogy>  (39) 
Cc1ccc(CNS(=O)(=O)c2ccc(-n3nc(C)cc3C)nc2)cc1 (3D coordinates assigned)
Cc1ccc(CNS(=O)(=O)c2ccc(-n3nc(C)cc3C)nc2)cc1 (optimized conformer: 73.79421678752732 kcal/mol)

>  <smiles>  (39) 
Cc1ccc(CNS(=O)(=O)c2ccc(-n3nc(C)cc3C)nc2)cc1

>  <score_type>  (39) 
oracle

>  <origin>  (39) 
adg

>  <m_score__min__energy>  (39) 
-9.6199999999999992

>  <m_primary>  (39) 
energy

$$$$
39:0
     RDKit          3D

 36 39  0  0  0  0  0  0  0  0999 V2000
    0.1090   24.4710  -28.7670 O   0  0  0  0  0  0  0  0  0  0  0  0
   -0.7940   24.7370  -27.9290 C   0  0  0  0  0  0  0  0  0  0  0  0
   -0.6100   25.4690  -26.6810 C   0  0  0  0  0  0  0  0  0  0  0  0
    0.5350   26.0250  -26.1130 C   0  0  0  0  0  0  0  0  0  0  0  0
    0.4010   26.7040  -24.8880 C   0  0  0  0  0  0  0  0  0  0  0  0
   -0.8630   26.8180  -24.2680 C   0  0  0  0  0  0  0  0  0  0  0  0
   -2.0030   26.2520  -24.8640 C   0  0  0  0  0  0  0  0  0  0  0  0
   -1.8430   25.5790  -26.0740 C   0  0  0  0  0  0  0  0  0  0  0  0
   -2.8190   24.9170  -26.9310 C   0  0  0  0  0  0  0  0  0  0  0  0
   -4.0580   24.8420  -26.7140 O   0  0  0  0  0  0  0  0  0  0  0  0
   -2.1680   24.3800  -28.0860 N   0  0  0  0  0  0  0  0  0  0  0  0
   -2.8080   23.8770  -29.2990 C   0  0  0  0  0  0  0  0  0  0  0  0
   -4.2260   22.7990  -28.8960 S   0  0  0  0  0  0  0  0  0  0  0  0
   -5.4780   23.9740  -29.4260 C   0  0  0  0  0  0  0  0  0  0  0  0
   -5.6190   25.2040  -28.9080 N   0  0  0  0  0  0  0  0  0  0  0  0
   -6.7120   25.7140  -29.4520 N   0  0  0  0  0  0  0  0  0  0  0  0
   -7.2380   24.8280  -30.2850 N   0  0  0  0  0  0  0  0  0  0  0  0
   -6.4830   23.7400  -30.2940 N   0  0  0  0  0  0  0  0  0  0  0  0
   -6.7860   22.5480  -31.0370 C   0  0  0  0  0  0  0  0  0  0  0  0
   -5.8700   22.0210  -31.9640 C   0  0  0  0  0  0  0  0  0  0  0  0
   -6.1810   20.8630  -32.6820 C   0  0  0  0  0  0  0  0  0  0  0  0
   -7.4110   20.2290  -32.4910 C   0  0  0  0  0  0  0  0  0  0  0  0
   -8.3360   20.7560  -31.5850 C   0  0  0  0  0  0  0  0  0  0  0  0
   -8.0260   21.9140  -30.8650 C   0  0  0  0  0  0  0  0  0  0  0  0
    1.5136   25.9357  -26.6074 H   0  0  0  0  0  0  0  0  0  0  0  0
    1.2862   27.1489  -24.4101 H   0  0  0  0  0  0  0  0  0  0  0  0
   -0.9558   27.3537  -23.3117 H   0  0  0  0  0  0  0  0  0  0  0  0
   -2.9918   26.3376  -24.3898 H   0  0  0  0  0  0  0  0  0  0  0  0
   -3.1631   24.7289  -29.8975 H   0  0  0  0  0  0  0  0  0  0  0  0
   -2.0709   23.2878  -29.8642 H   0  0  0  0  0  0  0  0  0  0  0  0
   -5.0230   25.6720  -28.1900 H   0  0  0  0  0  0  0  0  0  0  0  0
   -4.9042   22.5223  -32.1250 H   0  0  0  0  0  0  0  0  0  0  0  0
   -5.4559   20.4501  -33.3988 H   0  0  0  0  0  0  0  0  0  0  0  0
   -7.6517   19.3149  -33.0536 H   0  0  0  0  0  0  0  0  0  0  0  0
   -9.3069   20.2602  -31.4386 H   0  0  0  0  0  0  0  0  0  0  0  0
   -8.7593   22.3308  -30.1589 H   0  0  0  0  0  0  0  0  0  0  0  0
  1  2  2  0
  2  3  1  0
  3  4  2  0
  4  5  1  0
  5  6  2  0
  6  7  1  0
  7  8  2  0
  8  9  1  0
  9 10  2  0
  9 11  1  0
 11 12  1  0
 12 13  1  0
 13 14  1  0
 14 15  2  0
 15 16  1  0
 16 17  2  0
 17 18  1  0
 18 19  1  0
 19 20  2  0
 20 21  1  0
 21 22  2  0
 22 23  1  0
 23 24  2  0
 11  2  1  0
 18 14  1  0
 24 19  1  0
  8  3  1  0
  4 25  1  0
  5 26  1  0
  6 27  1  0
  7 28  1  0
 12 29  1  0
 12 30  1  0
 15 31  1  0
 20 32  1  0
 21 33  1  0
 22 34  1  0
 23 35  1  0
 24 36  1  0
M  CHG  1  15   1
M  END
>  <UniqueID>  (40) 
37

>  <SMILES>  (40) 
O=C1c2ccccc2C(=O)N1CSc1[nH+]nnn1-c1ccccc1

>  <Energy>  (40) 
113.07995379519588

>  <Genealogy>  (40) 
O=C1c2ccccc2C(=O)N1CSc1[nH+]nnn1-c1ccccc1 (protonated)
O=C1c2ccccc2C(=O)N1CSc1[nH+]nnn1-c1ccccc1 (3D coordinates assigned)
O=C1c2ccccc2C(=O)N1CSc1[nH+]nnn1-c1ccccc1 (nonaromatic ring conformer: 113.07995379519588 kcal/mol)

>  <smiles>  (40) 
O=C1c2ccccc2C(=O)N1CSc1nnnn1-c1ccccc1

>  <score_type>  (40) 
oracle

>  <origin>  (40) 
adg

>  <m_score__min__energy>  (40) 
-8.3699999999999992

>  <m_primary>  (40) 
energy

$$$$
40:0
     RDKit          3D

 42 44  0  0  0  0  0  0  0  0999 V2000
   -5.3910   25.6700  -30.1560 C   0  0  0  0  0  0  0  0  0  0  0  0
   -4.7230   24.6150  -30.8360 O   0  0  0  0  0  0  0  0  0  0  0  0
   -5.3860   23.4700  -31.2860 C   0  0  0  0  0  0  0  0  0  0  0  0
   -7.0480   23.3030  -31.5110 S   0  0  0  0  0  0  0  0  0  0  0  0
   -6.9870   21.6970  -32.0250 C   0  0  0  0  0  0  0  0  0  0  0  0
   -8.1730   20.8660  -32.4470 C   0  0  0  0  0  0  0  0  0  0  0  0
   -7.8190   19.4990  -32.9090 N   0  0  0  0  0  0  0  0  0  0  0  0
   -7.6470   18.5320  -31.7850 C   0  0  0  0  0  0  0  0  0  0  0  0
   -6.1870   18.1030  -31.5730 C   0  0  0  0  0  0  0  0  0  0  0  0
   -5.6350   17.5690  -32.8250 N   0  0  0  0  0  0  0  0  0  0  0  0
   -4.5980   16.5620  -32.8030 C   0  0  0  0  0  0  0  0  0  0  0  0
   -3.2900   16.8740  -33.2220 C   0  0  0  0  0  0  0  0  0  0  0  0
   -2.2860   15.9010  -33.1980 C   0  0  0  0  0  0  0  0  0  0  0  0
   -2.5750   14.6080  -32.7580 C   0  0  0  0  0  0  0  0  0  0  0  0
   -3.8660   14.2850  -32.3380 C   0  0  0  0  0  0  0  0  0  0  0  0
   -4.8740   15.2550  -32.3590 C   0  0  0  0  0  0  0  0  0  0  0  0
   -6.1090   18.1210  -34.1020 C   0  0  0  0  0  0  0  0  0  0  0  0
   -6.7000   19.5180  -33.8860 C   0  0  0  0  0  0  0  0  0  0  0  0
   -5.6550   21.2830  -32.0440 C   0  0  0  0  0  0  0  0  0  0  0  0
   -4.7630   22.2760  -31.6220 C   0  0  0  0  0  0  0  0  0  0  0  0
   -3.3410   22.0750  -31.5520 C   0  0  0  0  0  0  0  0  0  0  0  0
   -2.1960   21.9140  -31.4940 N   0  0  0  0  0  0  0  0  0  0  0  0
   -5.2979   25.5230  -29.0698 H   0  0  0  0  0  0  0  0  0  0  0  0
   -4.9371   26.6321  -30.4360 H   0  0  0  0  0  0  0  0  0  0  0  0
   -6.4548   25.6711  -30.4360 H   0  0  0  0  0  0  0  0  0  0  0  0
   -8.8549   20.7753  -31.5886 H   0  0  0  0  0  0  0  0  0  0  0  0
   -8.6348   21.3814  -33.3020 H   0  0  0  0  0  0  0  0  0  0  0  0
   -8.6570   19.1700  -33.4470 H   0  0  0  0  0  0  0  0  0  0  0  0
   -8.0107   19.0031  -30.8599 H   0  0  0  0  0  0  0  0  0  0  0  0
   -8.2191   17.6281  -32.0413 H   0  0  0  0  0  0  0  0  0  0  0  0
   -5.5939   18.9731  -31.2549 H   0  0  0  0  0  0  0  0  0  0  0  0
   -6.1481   17.3227  -30.7987 H   0  0  0  0  0  0  0  0  0  0  0  0
   -3.0565   17.8908  -33.5708 H   0  0  0  0  0  0  0  0  0  0  0  0
   -1.2672   16.1547  -33.5262 H   0  0  0  0  0  0  0  0  0  0  0  0
   -1.7845   13.8432  -32.7424 H   0  0  0  0  0  0  0  0  0  0  0  0
   -4.0915   13.2662  -31.9899 H   0  0  0  0  0  0  0  0  0  0  0  0
   -5.8895   14.9944  -32.0262 H   0  0  0  0  0  0  0  0  0  0  0  0
   -5.2654   18.1877  -34.8048 H   0  0  0  0  0  0  0  0  0  0  0  0
   -6.8873   17.4608  -34.5123 H   0  0  0  0  0  0  0  0  0  0  0  0
   -5.9100   20.1844  -33.5095 H   0  0  0  0  0  0  0  0  0  0  0  0
   -7.0933   19.8754  -34.8491 H   0  0  0  0  0  0  0  0  0  0  0  0
   -5.3376   20.2779  -32.3587 H   0  0  0  0  0  0  0  0  0  0  0  0
  1  2  1  0
  2  3  1  0
  3  4  1  0
  4  5  1  0
  5  6  1  0
  6  7  1  0
  7  8  1  0
  8  9  1  0
  9 10  1  0
 10 11  1  0
 11 12  2  0
 12 13  1  0
 13 14  2  0
 14 15  1  0
 15 16  2  0
 10 17  1  0
 17 18  1  0
  5 19  2  0
 19 20  1  0
 20 21  1  0
 21 22  3  0
 20  3  2  0
 18  7  1  0
 16 11  1  0
  1 23  1  0
  1 24  1  0
  1 25  1  0
  6 26  1  0
  6 27  1  0
  7 28  1  0
  8 29  1  0
  8 30  1  0
  9 31  1  0
  9 32  1  0
 12 33  1  0
 13 34  1  0
 14 35  1  0
 15 36  1  0
 16 37  1  0
 17 38  1  0
 17 39  1  0
 18 40  1  0
 18 41  1  0
 19 42  1  0
M  CHG  1   7   1
M  END
>  <UniqueID>  (41) 
38

>  <SMILES>  (41) 
COc1sc(C[NH+]2CCN(c3ccccc3)CC2)cc1C#N

>  <Energy>  (41) 
78.95594139019221

>  <Genealogy>  (41) 
COc1sc(C[NH+]2CCN(c3ccccc3)CC2)cc1C#N (protonated)
COc1sc(C[NH+]2CCN(c3ccccc3)CC2)cc1C#N (3D coordinates assigned)
COc1sc(C[NH+]2CCN(c3ccccc3)CC2)cc1C#N (nonaromatic ring conformer: 78.95594139019221 kcal/mol)

>  <smiles>  (41) 
COc1sc(CN2CCN(c3ccccc3)CC2)cc1C#N

>  <score_type>  (41) 
oracle

>  <origin>  (41) 
adg

>  <m_score__min__energy>  (41) 
-6.8899999999999997

>  <m_primary>  (41) 
energy

$$$$
41:0
     RDKit          3D

 27 27  0  0  0  0  0  0  0  0999 V2000
   -7.2170   17.5660  -32.4880 C   0  0  0  0  0  0  0  0  0  0  0  0
   -8.3090   18.6040  -32.2540 C   0  0  0  0  0  0  0  0  0  0  0  0
   -7.7280   19.8690  -31.8110 N   0  0  0  0  0  0  0  0  0  0  0  0
   -6.8720   20.6600  -32.6470 C   0  0  0  0  0  0  0  0  0  0  0  0
   -6.6230   20.2960  -33.8280 O   0  0  0  0  0  0  0  0  0  0  0  0
   -6.2830   21.9170  -32.1350 C   0  0  0  0  0  0  0  0  0  0  0  0
   -7.1010   22.9890  -31.7130 C   0  0  0  0  0  0  0  0  0  0  0  0
   -8.6060   22.9110  -31.7410 C   0  0  0  0  0  0  0  0  0  0  0  0
   -6.4940   24.1690  -31.2680 C   0  0  0  0  0  0  0  0  0  0  0  0
   -5.1020   24.2450  -31.2190 C   0  0  0  0  0  0  0  0  0  0  0  0
   -4.5440   25.2950  -30.8090 O   0  0  0  0  0  0  0  0  0  0  0  0
   -4.3600   23.2140  -31.6030 O   0  0  0  0  0  0  0  0  0  0  0  0
   -4.8790   22.0750  -32.0550 C   0  0  0  0  0  0  0  0  0  0  0  0
   -3.9340   20.9870  -32.4740 C   0  0  0  0  0  0  0  0  0  0  0  0
   -6.8390   17.2067  -31.5195 H   0  0  0  0  0  0  0  0  0  0  0  0
   -7.6309   16.7202  -33.0567 H   0  0  0  0  0  0  0  0  0  0  0  0
   -6.3933   18.0222  -33.0567 H   0  0  0  0  0  0  0  0  0  0  0  0
   -8.8595   18.7677  -33.1922 H   0  0  0  0  0  0  0  0  0  0  0  0
   -8.9899   18.2334  -31.4736 H   0  0  0  0  0  0  0  0  0  0  0  0
   -7.9380   20.1970  -30.8420 H   0  0  0  0  0  0  0  0  0  0  0  0
   -8.9913   22.8910  -30.7109 H   0  0  0  0  0  0  0  0  0  0  0  0
   -9.0090   23.7895  -32.2663 H   0  0  0  0  0  0  0  0  0  0  0  0
   -8.9160   21.9956  -32.2663 H   0  0  0  0  0  0  0  0  0  0  0  0
   -7.1084   25.0278  -30.9600 H   0  0  0  0  0  0  0  0  0  0  0  0
   -3.5133   20.5026  -31.5805 H   0  0  0  0  0  0  0  0  0  0  0  0
   -4.4761   20.2415  -33.0743 H   0  0  0  0  0  0  0  0  0  0  0  0
   -3.1200   21.4194  -33.0743 H   0  0  0  0  0  0  0  0  0  0  0  0
  1  2  1  0
  2  3  1  0
  3  4  1  0
  4  5  2  0
  4  6  1  0
  6  7  1  0
  7  8  1  0
  7  9  2  0
  9 10  1  0
 10 11  2  0
 10 12  1  0
 12 13  1  0
 13 14  1  0
 13  6  2  0
  1 15  1  0
  1 16  1  0
  1 17  1  0
  2 18  1  0
  2 19  1  0
  3 20  1  0
  8 21  1  0
  8 22  1  0
  8 23  1  0
  9 24  1  0
 14 25  1  0
 14 26  1  0
 14 27  1  0
M  END
>  <UniqueID>  (42) 
39

>  <SMILES>  (42) 
CCNC(=O)c1c(C)cc(=O)oc1C

>  <Energy>  (42) 
27.828552874878604

>  <Genealogy>  (42) 
CCNC(=O)c1c(C)cc(=O)oc1C (3D coordinates assigned)
CCNC(=O)c1c(C)cc(=O)oc1C (optimized conformer: 27.828552874878604 kcal/mol)

>  <smiles>  (42) 
CCNC(=O)c1c(C)cc(=O)oc1C

>  <score_type>  (42) 
oracle

>  <origin>  (42) 
adg

>  <m_score__min__energy>  (42) 
-6.0300000000000002

>  <m_primary>  (42) 
energy

$$$$
42:0
     RDKit          3D

 49 51  0  0  1  0  0  0  0  0999 V2000
   -8.8560   19.5210  -32.3880 C   0  0  0  0  0  0  0  0  0  0  0  0
   -7.6050   19.1160  -31.6490 C   0  0  0  0  0  0  0  0  0  0  0  0
   -6.5400   18.9400  -32.6400 N   0  0  0  0  0  0  0  0  0  0  0  0
   -6.6110   17.5680  -33.1410 C   0  0  0  0  0  0  0  0  0  0  0  0
   -6.1060   17.6680  -34.5870 C   0  0  0  0  0  0  0  0  0  0  0  0
   -5.2500   19.1590  -32.0030 C   0  0  0  0  0  0  0  0  0  0  0  0
   -4.1320   19.4000  -32.9550 C   0  0  0  0  0  0  0  0  0  0  0  0
   -4.1360   20.8190  -33.3170 N   0  0  0  0  0  0  0  0  0  0  0  0
   -4.8450   21.6720  -32.6570 C   0  0  0  0  0  0  0  0  0  0  0  0
   -4.2480   22.6260  -31.8100 C   0  0  0  0  0  0  0  0  0  0  0  0
   -5.0390   23.5070  -31.1320 C   0  0  0  0  0  0  0  0  0  0  0  0
   -4.5120   24.4440  -30.3100 C   0  0  0  0  0  0  0  0  0  0  0  0
   -3.3010   24.5450  -30.1010 N   0  0  0  0  0  0  0  0  0  0  0  0
   -2.4020   23.8600  -29.3430 C   0  0  0  0  0  0  0  0  0  0  0  0
   -1.1900   24.4990  -28.9800 C   0  0  0  0  0  0  0  0  0  0  0  0
   -0.3130   23.8540  -28.1250 C   0  0  0  0  0  0  0  0  0  0  0  0
   -0.5660   22.6000  -27.6040 C   0  0  0  0  0  0  0  0  0  0  0  0
    0.3350   22.0200  -26.7730 F   0  0  0  0  0  0  0  0  0  0  0  0
   -1.7570   21.9750  -27.9630 C   0  0  0  0  0  0  0  0  0  0  0  0
   -2.0900   20.3640  -27.3000 Cl  0  0  0  0  0  0  0  0  0  0  0  0
   -2.6680   22.5720  -28.8100 C   0  0  0  0  0  0  0  0  0  0  0  0
   -5.3610   25.2830  -29.6770 N   0  0  0  0  0  0  0  0  0  0  0  0
   -6.6940   25.2460  -29.8110 C   0  0  0  0  0  0  0  0  0  0  0  0
   -7.2380   24.3240  -30.6210 N   0  0  0  0  0  0  0  0  0  0  0  0
   -6.4100   23.4790  -31.2600 C   0  0  0  0  0  0  0  0  0  0  0  0
   -6.9770   22.5480  -32.0850 C   0  0  0  0  0  0  0  0  0  0  0  0
   -6.1670   21.7050  -32.7290 N   0  0  0  0  0  0  0  0  0  0  0  0
   -9.6435   19.7759  -31.6635 H   0  0  0  0  0  0  0  0  0  0  0  0
   -8.6418   20.3957  -33.0197 H   0  0  0  0  0  0  0  0  0  0  0  0
   -9.1950   18.6867  -33.0197 H   0  0  0  0  0  0  0  0  0  0  0  0
   -7.3231   19.9005  -30.9313 H   0  0  0  0  0  0  0  0  0  0  0  0
   -7.7715   18.1821  -31.0921 H   0  0  0  0  0  0  0  0  0  0  0  0
   -5.9666   16.9024  -32.5480 H   0  0  0  0  0  0  0  0  0  0  0  0
   -7.6259   17.1485  -33.0774 H   0  0  0  0  0  0  0  0  0  0  0  0
   -5.0270   17.8817  -34.5846 H   0  0  0  0  0  0  0  0  0  0  0  0
   -6.2901   16.7160  -35.1064 H   0  0  0  0  0  0  0  0  0  0  0  0
   -6.6390   18.4780  -35.1064 H   0  0  0  0  0  0  0  0  0  0  0  0
   -5.3356   20.0347  -31.3428 H   0  0  0  0  0  0  0  0  0  0  0  0
   -5.0065   18.2355  -31.4572 H   0  0  0  0  0  0  0  0  0  0  0  0
   -3.1751   19.1400  -32.4788 H   0  0  0  0  0  0  0  0  0  0  0  0
   -4.2582   18.7786  -33.8538 H   0  0  0  0  0  0  0  0  0  0  0  0
   -3.1544   22.6604  -31.6962 H   0  0  0  0  0  0  0  0  0  0  0  0
   -0.9487   25.4974  -29.3737 H   0  0  0  0  0  0  0  0  0  0  0  0
    0.6236   24.3607  -27.8492 H   0  0  0  0  0  0  0  0  0  0  0  0
   -3.6000   22.0498  -29.0720 H   0  0  0  0  0  0  0  0  0  0  0  0
   -4.9890   26.0240  -29.0320 H   0  0  0  0  0  0  0  0  0  0  0  0
   -7.3312   25.9587  -29.2668 H   0  0  0  0  0  0  0  0  0  0  0  0
   -8.0681   22.4952  -32.2142 H   0  0  0  0  0  0  0  0  0  0  0  0
   -6.6220   21.0030  -33.3520 H   0  0  0  0  0  0  0  0  0  0  0  0
  1  2  1  0
  2  3  1  0
  3  4  1  0
  4  5  1  0
  3  6  1  0
  6  7  1  0
  7  8  1  0
  8  9  2  0
  9 10  1  0
 10 11  2  0
 11 12  1  0
 12 13  2  0
 13 14  1  0
 14 15  2  0
 15 16  1  0
 16 17  2  0
 17 18  1  0
 17 19  1  0
 19 20  1  0
 19 21  2  0
 12 22  1  0
 22 23  1  0
 23 24  2  0
 24 25  1  0
 25 26  2  0
 26 27  1  0
 27  9  1  0
 25 11  1  0
 21 14  1  0
  1 28  1  0
  1 29  1  0
  1 30  1  0
  2 31  1  0
  2 32  1  0
  4 33  1  0
  4 34  1  0
  5 35  1  0
  5 36  1  0
  5 37  1  0
  6 38  1  0
  6 39  1  0
  7 40  1  0
  7 41  1  0
 10 42  1  0
 15 43  1  0
 16 44  1  0
 21 45  1  0
 22 46  1  0
 23 47  1  0
 26 48  1  0
 27 49  1  0
M  END
>  <smiles>  (43) 
CCN(CC)CCN=c1cc2c(=Nc3ccc(F)c(Cl)c3)[nH]cnc2c[nH]1

>  <score_type>  (43) 
oracle

>  <origin>  (43) 
adg

>  <m_score__min__energy>  (43) 
-7.8399999999999999

>  <m_primary>  (43) 
energy

$$$$
43:0
     RDKit          3D

 50 53  0  0  0  0  0  0  0  0999 V2000
   -2.7650   20.3570  -33.8660 C   0  0  0  0  0  0  0  0  0  0  0  0
   -4.1930   20.2020  -33.4040 C   0  0  0  0  0  0  0  0  0  0  0  0
   -4.9320   21.2920  -32.8470 C   0  0  0  0  0  0  0  0  0  0  0  0
   -6.3150   21.1130  -32.5390 C   0  0  0  0  0  0  0  0  0  0  0  0
   -6.9030   19.8910  -32.6900 N   0  0  0  0  0  0  0  0  0  0  0  0
   -6.1750   18.8520  -33.1510 C   0  0  0  0  0  0  0  0  0  0  0  0
   -6.6140   17.6000  -33.3230 N   0  0  0  0  0  0  0  0  0  0  0  0
   -5.5940   16.8770  -33.7690 N   0  0  0  0  0  0  0  0  0  0  0  0
   -5.6870   15.4390  -34.0360 C   0  0  0  0  0  0  0  0  0  0  0  0
   -4.6970   14.6790  -33.1920 C   0  0  0  0  0  0  0  0  0  0  0  0
   -3.4710   14.2680  -33.7410 C   0  0  0  0  0  0  0  0  0  0  0  0
   -2.5490   13.5650  -32.9600 C   0  0  0  0  0  0  0  0  0  0  0  0
   -2.8410   13.2730  -31.6250 C   0  0  0  0  0  0  0  0  0  0  0  0
   -4.0530   13.6870  -31.0680 C   0  0  0  0  0  0  0  0  0  0  0  0
   -4.9780   14.3900  -31.8460 C   0  0  0  0  0  0  0  0  0  0  0  0
   -4.4890   17.6690  -33.8700 C   0  0  0  0  0  0  0  0  0  0  0  0
   -3.1340   17.2000  -34.3150 C   0  0  0  0  0  0  0  0  0  0  0  0
   -4.8550   18.9630  -33.4900 C   0  0  0  0  0  0  0  0  0  0  0  0
   -7.1530   22.2280  -31.9780 C   0  0  0  0  0  0  0  0  0  0  0  0
   -6.4540   23.5900  -32.0650 C   0  0  0  0  0  0  0  0  0  0  0  0
   -5.0240   23.5140  -31.6990 N   0  0  0  0  0  0  0  0  0  0  0  0
   -4.7720   23.1100  -30.2950 C   0  0  0  0  0  0  0  0  0  0  0  0
   -4.0480   24.2030  -29.4980 C   0  0  0  0  0  0  0  0  0  0  0  0
   -3.7350   25.2950  -30.3190 O   0  0  0  0  0  0  0  0  0  0  0  0
   -4.2930   22.6590  -32.6560 C   0  0  0  0  0  0  0  0  0  0  0  0
   -2.1023   20.4289  -32.9910 H   0  0  0  0  0  0  0  0  0  0  0  0
   -2.4789   19.4846  -34.4719 H   0  0  0  0  0  0  0  0  0  0  0  0
   -2.6727   21.2704  -34.4719 H   0  0  0  0  0  0  0  0  0  0  0  0
   -7.5770   17.2400  -33.1340 H   0  0  0  0  0  0  0  0  0  0  0  0
   -6.7041   15.0924  -33.8007 H   0  0  0  0  0  0  0  0  0  0  0  0
   -5.4604   15.2595  -35.0973 H   0  0  0  0  0  0  0  0  0  0  0  0
   -3.2354   14.5004  -34.7901 H   0  0  0  0  0  0  0  0  0  0  0  0
   -1.5927   13.2414  -33.3968 H   0  0  0  0  0  0  0  0  0  0  0  0
   -2.1160   12.7169  -31.0126 H   0  0  0  0  0  0  0  0  0  0  0  0
   -4.2802   13.4597  -30.0160 H   0  0  0  0  0  0  0  0  0  0  0  0
   -5.9296   14.7182  -31.4025 H   0  0  0  0  0  0  0  0  0  0  0  0
   -2.5126   16.9849  -33.4332 H   0  0  0  0  0  0  0  0  0  0  0  0
   -3.2421   16.2870  -34.9189 H   0  0  0  0  0  0  0  0  0  0  0  0
   -2.6545   17.9845  -34.9189 H   0  0  0  0  0  0  0  0  0  0  0  0
   -8.0958   22.2788  -32.5424 H   0  0  0  0  0  0  0  0  0  0  0  0
   -7.3292   22.0105  -30.9142 H   0  0  0  0  0  0  0  0  0  0  0  0
   -6.5352   23.9635  -33.0965 H   0  0  0  0  0  0  0  0  0  0  0  0
   -6.9473   24.2663  -31.3513 H   0  0  0  0  0  0  0  0  0  0  0  0
   -5.7357   22.8971  -29.8093 H   0  0  0  0  0  0  0  0  0  0  0  0
   -4.1260   22.2198  -30.3107 H   0  0  0  0  0  0  0  0  0  0  0  0
   -4.6990   24.5428  -28.6790 H   0  0  0  0  0  0  0  0  0  0  0  0
   -3.1130   23.7850  -29.0967 H   0  0  0  0  0  0  0  0  0  0  0  0
   -3.4870   24.9220  -31.2050 H   0  0  0  0  0  0  0  0  0  0  0  0
   -4.2632   23.1702  -33.6296 H   0  0  0  0  0  0  0  0  0  0  0  0
   -3.2861   22.4947  -32.2448 H   0  0  0  0  0  0  0  0  0  0  0  0
  1  2  1  0
  2  3  2  0
  3  4  1  0
  4  5  2  0
  5  6  1  0
  6  7  2  0
  7  8  1  0
  8  9  1  0
  9 10  1  0
 10 11  2  0
 11 12  1  0
 12 13  2  0
 13 14  1  0
 14 15  2  0
  8 16  1  0
 16 17  1  0
 16 18  2  0
  4 19  1  0
 19 20  1  0
 20 21  1  0
 21 22  1  0
 22 23  1  0
 23 24  1  0
 21 25  1  0
 18  2  1  0
 25  3  1  0
 18  6  1  0
 15 10  1  0
  1 26  1  0
  1 27  1  0
  1 28  1  0
  7 29  1  0
  9 30  1  0
  9 31  1  0
 11 32  1  0
 12 33  1  0
 13 34  1  0
 14 35  1  0
 15 36  1  0
 17 37  1  0
 17 38  1  0
 17 39  1  0
 19 40  1  0
 19 41  1  0
 20 42  1  0
 20 43  1  0
 22 44  1  0
 22 45  1  0
 23 46  1  0
 23 47  1  0
 24 48  1  0
 25 49  1  0
 25 50  1  0
M  CHG  1   7   1
M  END
>  <UniqueID>  (44) 
40

>  <SMILES>  (44) 
Cc1c2c(nc3[nH+]n(Cc4ccccc4)c(C)c13)CCN(CCO)C2

>  <Energy>  (44) 
101.4865221480019

>  <Genealogy>  (44) 
Cc1c2c(nc3[nH+]n(Cc4ccccc4)c(C)c13)CCN(CCO)C2 (protonated)
Cc1c2c(nc3[nH+]n(Cc4ccccc4)c(C)c13)CCN(CCO)C2 (3D coordinates assigned)
Cc1c2c(nc3[nH+]n(Cc4ccccc4)c(C)c13)CCN(CCO)C2 (nonaromatic ring conformer: 101.4865221480019 kcal/mol)

>  <smiles>  (44) 
Cc1c2c(nc3nn(Cc4ccccc4)c(C)c13)CCN(CCO)C2

>  <score_type>  (44) 
oracle

>  <origin>  (44) 
adg

>  <m_score__min__energy>  (44) 
-8.3800000000000008

>  <m_primary>  (44) 
energy

$$$$
44:0
     RDKit          3D

 28 30  0  0  0  0  0  0  0  0999 V2000
   -6.8170   25.3750  -29.3490 C   0  0  0  0  0  0  0  0  0  0  0  0
   -5.5480   25.9110  -30.5380 S   0  0  0  0  0  0  0  0  0  0  0  0
   -5.1000   24.2350  -30.9890 C   0  0  0  0  0  0  0  0  0  0  0  0
   -3.8140   23.8000  -30.8500 N   0  0  0  0  0  0  0  0  0  0  0  0
   -3.4560   22.5140  -31.1650 C   0  0  0  0  0  0  0  0  0  0  0  0
   -4.3880   21.6290  -31.6330 N   0  0  0  0  0  0  0  0  0  0  0  0
   -5.6630   22.0670  -31.7990 C   0  0  0  0  0  0  0  0  0  0  0  0
   -6.0380   23.3300  -31.4690 C   0  0  0  0  0  0  0  0  0  0  0  0
   -7.3990   23.3810  -31.6790 C   0  0  0  0  0  0  0  0  0  0  0  0
   -7.8040   22.1650  -32.1210 N   0  0  0  0  0  0  0  0  0  0  0  0
   -6.7420   21.3670  -32.2000 N   0  0  0  0  0  0  0  0  0  0  0  0
   -6.8060   20.0040  -32.6480 C   0  0  0  0  0  0  0  0  0  0  0  0
   -6.0560   19.5980  -33.7630 C   0  0  0  0  0  0  0  0  0  0  0  0
   -6.0920   18.2670  -34.1920 C   0  0  0  0  0  0  0  0  0  0  0  0
   -6.8650   17.3300  -33.5020 C   0  0  0  0  0  0  0  0  0  0  0  0
   -7.5950   17.7200  -32.3760 C   0  0  0  0  0  0  0  0  0  0  0  0
   -7.5620   19.0500  -31.9450 C   0  0  0  0  0  0  0  0  0  0  0  0
   -6.4485   25.5307  -28.3243 H   0  0  0  0  0  0  0  0  0  0  0  0
   -7.7343   25.9625  -29.5020 H   0  0  0  0  0  0  0  0  0  0  0  0
   -7.0354   24.3078  -29.5020 H   0  0  0  0  0  0  0  0  0  0  0  0
   -2.4116   22.1920  -31.0403 H   0  0  0  0  0  0  0  0  0  0  0  0
   -4.1140   20.6410  -31.8300 H   0  0  0  0  0  0  0  0  0  0  0  0
   -8.0448   24.2565  -31.5162 H   0  0  0  0  0  0  0  0  0  0  0  0
   -5.4369   20.3302  -34.3021 H   0  0  0  0  0  0  0  0  0  0  0  0
   -5.5111   17.9579  -35.0735 H   0  0  0  0  0  0  0  0  0  0  0  0
   -6.8990   16.2854  -33.8450 H   0  0  0  0  0  0  0  0  0  0  0  0
   -8.1964   16.9798  -31.8279 H   0  0  0  0  0  0  0  0  0  0  0  0
   -8.1299   19.3508  -31.0523 H   0  0  0  0  0  0  0  0  0  0  0  0
  1  2  1  0
  2  3  1  0
  3  4  2  0
  4  5  1  0
  5  6  2  0
  6  7  1  0
  7  8  2  0
  8  9  1  0
  9 10  2  0
 10 11  1  0
 11 12  1  0
 12 13  2  0
 13 14  1  0
 14 15  2  0
 15 16  1  0
 16 17  2  0
  8  3  1  0
 17 12  1  0
 11  7  1  0
  1 18  1  0
  1 19  1  0
  1 20  1  0
  5 21  1  0
  6 22  1  0
  9 23  1  0
 13 24  1  0
 14 25  1  0
 15 26  1  0
 16 27  1  0
 17 28  1  0
M  CHG  1   6   1
M  END
>  <UniqueID>  (45) 
41

>  <SMILES>  (45) 
CSc1nc[nH+]c2c1cnn2-c1ccccc1

>  <Energy>  (45) 
73.52188888329279

>  <Genealogy>  (45) 
CSc1nc[nH+]c2c1cnn2-c1ccccc1 (protonated)
CSc1nc[nH+]c2c1cnn2-c1ccccc1 (3D coordinates assigned)
CSc1nc[nH+]c2c1cnn2-c1ccccc1 (optimized conformer: 73.52188888329279 kcal/mol)

>  <smiles>  (45) 
CSc1ncnc2c1cnn2-c1ccccc1

>  <score_type>  (45) 
oracle

>  <origin>  (45) 
adg

>  <m_score__min__energy>  (45) 
-6.4100000000000001

>  <m_primary>  (45) 
energy

$$$$
45:0
     RDKit          3D

 65 68  0  0  0  0  0  0  0  0999 V2000
   -6.1030   23.5580  -31.9610 C   0  0  0  0  0  0  0  0  0  0  0  0
   -7.3090   23.1630  -31.1140 C   0  0  0  0  0  0  0  0  0  0  0  0
   -8.5860   23.1040  -31.9600 C   0  0  0  0  0  0  0  0  0  0  0  0
   -9.4680   21.9190  -31.5430 C   0  0  0  0  0  0  0  0  0  0  0  0
   -8.6790   20.7860  -30.8670 C   0  0  0  0  0  0  0  0  0  0  0  0
   -8.5900   19.4410  -31.6360 C   0  0  0  0  0  0  0  0  0  0  0  0
   -7.2490   19.0150  -32.1250 N   0  0  1  0  0  0  0  0  0  0  0  0
   -7.3070   17.8840  -33.0910 C   0  0  0  0  0  0  0  0  0  0  0  0
   -5.9150   17.2450  -33.2980 C   0  0  0  0  0  0  0  0  0  0  0  0
   -4.8660   18.3110  -33.4530 C   0  0  0  0  0  0  0  0  0  0  0  0
   -5.0740   19.6090  -33.0600 C   0  0  0  0  0  0  0  0  0  0  0  0
   -3.8740   20.2770  -33.1620 C   0  0  0  0  0  0  0  0  0  0  0  0
   -2.9540   19.3290  -33.5920 C   0  0  0  0  0  0  0  0  0  0  0  0
   -1.5170   19.6040  -33.8210 C   0  0  0  0  0  0  0  0  0  0  0  0
   -0.5320   19.0120  -33.0140 C   0  0  0  0  0  0  0  0  0  0  0  0
    0.8210   19.2860  -33.2300 C   0  0  0  0  0  0  0  0  0  0  0  0
    1.2170   20.1340  -34.2790 C   0  0  0  0  0  0  0  0  0  0  0  0
    2.6740   20.4770  -34.4770 C   0  0  0  0  0  0  0  0  0  0  0  0
    2.8370   21.8440  -34.6220 F   0  0  0  0  0  0  0  0  0  0  0  0
    3.1730   19.8600  -35.6110 F   0  0  0  0  0  0  0  0  0  0  0  0
    3.3940   20.0500  -33.3770 F   0  0  0  0  0  0  0  0  0  0  0  0
    0.2310   20.7310  -35.0820 C   0  0  0  0  0  0  0  0  0  0  0  0
   -1.1220   20.4580  -34.8630 C   0  0  0  0  0  0  0  0  0  0  0  0
   -3.5630   18.1250  -33.7610 N   0  0  0  0  0  0  0  0  0  0  0  0
   -2.9320   16.8630  -34.0300 C   0  0  0  0  0  0  0  0  0  0  0  0
   -2.9690   16.3150  -35.3210 C   0  0  0  0  0  0  0  0  0  0  0  0
   -2.3620   15.0840  -35.5820 C   0  0  0  0  0  0  0  0  0  0  0  0
   -1.7110   14.3810  -34.5610 C   0  0  0  0  0  0  0  0  0  0  0  0
   -1.1140   13.1500  -34.8740 O   0  0  0  0  0  0  0  0  0  0  0  0
   -0.4150   12.8810  -36.0850 C   0  0  0  0  0  0  0  0  0  0  0  0
   -1.6790   14.9280  -33.2640 C   0  0  0  0  0  0  0  0  0  0  0  0
   -2.2880   16.1590  -33.0040 C   0  0  0  0  0  0  0  0  0  0  0  0
   -6.4100   20.1300  -32.6330 C   0  0  0  0  0  0  0  0  0  0  0  0
   -5.2660   23.8321  -31.3019 H   0  0  0  0  0  0  0  0  0  0  0  0
   -5.8072   22.7098  -32.5959 H   0  0  0  0  0  0  0  0  0  0  0  0
   -6.3663   24.4169  -32.5959 H   0  0  0  0  0  0  0  0  0  0  0  0
   -7.1268   22.1732  -30.6701 H   0  0  0  0  0  0  0  0  0  0  0  0
   -7.4463   23.9212  -30.3290 H   0  0  0  0  0  0  0  0  0  0  0  0
   -9.1509   24.0381  -31.8243 H   0  0  0  0  0  0  0  0  0  0  0  0
   -8.3019   22.9752  -33.0148 H   0  0  0  0  0  0  0  0  0  0  0  0
  -10.2314   22.2819  -30.8390 H   0  0  0  0  0  0  0  0  0  0  0  0
   -9.9146   21.5053  -32.4592 H   0  0  0  0  0  0  0  0  0  0  0  0
   -7.6521   21.1457  -30.7054 H   0  0  0  0  0  0  0  0  0  0  0  0
   -9.2363   20.5557  -29.9470 H   0  0  0  0  0  0  0  0  0  0  0  0
   -8.9615   18.6527  -30.9648 H   0  0  0  0  0  0  0  0  0  0  0  0
   -9.1830   19.6006  -32.5486 H   0  0  0  0  0  0  0  0  0  0  0  0
   -6.7600   18.6420  -31.2740 H   0  0  0  0  0  0  0  0  0  0  0  0
   -7.9976   17.1195  -32.7055 H   0  0  0  0  0  0  0  0  0  0  0  0
   -7.6556   18.2738  -34.0588 H   0  0  0  0  0  0  0  0  0  0  0  0
   -5.6702   16.6197  -32.4268 H   0  0  0  0  0  0  0  0  0  0  0  0
   -5.9367   16.6308  -34.2103 H   0  0  0  0  0  0  0  0  0  0  0  0
   -3.6838   21.3390  -32.9478 H   0  0  0  0  0  0  0  0  0  0  0  0
   -0.8279   18.3273  -32.2055 H   0  0  0  0  0  0  0  0  0  0  0  0
    1.5812   18.8353  -32.5750 H   0  0  0  0  0  0  0  0  0  0  0  0
    0.5259   21.4181  -35.8888 H   0  0  0  0  0  0  0  0  0  0  0  0
   -1.8832   20.9157  -35.5119 H   0  0  0  0  0  0  0  0  0  0  0  0
   -3.4783   16.8571  -36.1314 H   0  0  0  0  0  0  0  0  0  0  0  0
   -2.3958   14.6636  -36.5979 H   0  0  0  0  0  0  0  0  0  0  0  0
    0.5882   12.4949  -35.8513 H   0  0  0  0  0  0  0  0  0  0  0  0
   -0.9692   12.1319  -36.6696 H   0  0  0  0  0  0  0  0  0  0  0  0
   -0.3240   13.8083  -36.6696 H   0  0  0  0  0  0  0  0  0  0  0  0
   -1.1729   14.3847  -32.4524 H   0  0  0  0  0  0  0  0  0  0  0  0
   -2.2615   16.5778  -31.9872 H   0  0  0  0  0  0  0  0  0  0  0  0
   -6.2729   20.8756  -31.8360 H   0  0  0  0  0  0  0  0  0  0  0  0
   -6.9097   20.5951  -33.4956 H   0  0  0  0  0  0  0  0  0  0  0  0
  1  2  1  0
  2  3  1  0
  3  4  1  0
  4  5  1  0
  5  6  1  0
  6  7  1  0
  7  8  1  0
  8  9  1  0
  9 10  1  0
 10 11  2  0
 11 12  1  0
 12 13  2  0
 13 14  1  0
 14 15  2  0
 15 16  1  0
 16 17  2  0
 17 18  1  0
 18 19  1  0
 18 20  1  0
 18 21  1  0
 17 22  1  0
 22 23  2  0
 13 24  1  0
 24 25  1  0
 25 26  2  0
 26 27  1  0
 27 28  2  0
 28 29  1  0
 29 30  1  0
 28 31  1  0
 31 32  2  0
 11 33  1  0
 33  7  1  0
 24 10  1  0
 32 25  1  0
 23 14  1  0
  1 34  1  0
  1 35  1  0
  1 36  1  0
  2 37  1  0
  2 38  1  0
  3 39  1  0
  3 40  1  0
  4 41  1  0
  4 42  1  0
  5 43  1  0
  5 44  1  0
  6 45  1  0
  6 46  1  0
  7 47  1  1
  8 48  1  0
  8 49  1  0
  9 50  1  0
  9 51  1  0
 12 52  1  0
 15 53  1  0
 16 54  1  0
 22 55  1  0
 23 56  1  0
 26 57  1  0
 27 58  1  0
 30 59  1  0
 30 60  1  0
 30 61  1  0
 31 62  1  0
 32 63  1  0
 33 64  1  0
 33 65  1  0
M  CHG  1   7   1
M  END
>  <UniqueID>  (46) 
42

>  <SMILES>  (46) 
CCCCCC[N@H+]1CCc2c(cc(-c3ccc(C(F)(F)F)cc3)n2-c2ccc(OC)cc2)C1

>  <Energy>  (46) 
107.60099877187022

>  <Genealogy>  (46) 
CCCCCC[NH+]1CCc2c(cc(-c3ccc(C(F)(F)F)cc3)n2-c2ccc(OC)cc2)C1 (protonated)
CCCCCC[N@H+]1CCc2c(cc(-c3ccc(C(F)(F)F)cc3)n2-c2ccc(OC)cc2)C1 (chirality)
CCCCCC[N@H+]1CCc2c(cc(-c3ccc(C(F)(F)F)cc3)n2-c2ccc(OC)cc2)C1 (3D coordinates assigned)
CCCCCC[N@H+]1CCc2c(cc(-c3ccc(C(F)(F)F)cc3)n2-c2ccc(OC)cc2)C1 (nonaromatic ring conformer: 107.60099877187022 kcal/mol)

>  <smiles>  (46) 
CCCCCCN1CCc2c(cc(-c3ccc(C(F)(F)F)cc3)n2-c2ccc(OC)cc2)C1

>  <score_type>  (46) 
oracle

>  <origin>  (46) 
adg

>  <m_score__min__energy>  (46) 
-7.71

>  <m_primary>  (46) 
energy

$$$$
46:0
     RDKit          3D

 38 41  0  0  0  0  0  0  0  0999 V2000
   -3.2230   24.4890  -29.3070 C   0  0  0  0  0  0  0  0  0  0  0  0
   -4.0190   24.7050  -30.4670 O   0  0  0  0  0  0  0  0  0  0  0  0
   -5.2180   24.0310  -30.7410 C   0  0  0  0  0  0  0  0  0  0  0  0
   -5.7320   24.0880  -32.0420 C   0  0  0  0  0  0  0  0  0  0  0  0
   -6.9190   23.4250  -32.3670 C   0  0  0  0  0  0  0  0  0  0  0  0
   -7.6140   22.6970  -31.3890 C   0  0  0  0  0  0  0  0  0  0  0  0
   -8.8640   21.9400  -31.7530 C   0  0  0  0  0  0  0  0  0  0  0  0
   -8.5600   20.4910  -31.9830 C   0  0  0  0  0  0  0  0  0  0  0  0
   -9.4890   19.5020  -31.9980 N   0  0  0  0  0  0  0  0  0  0  0  0
   -8.8520   18.3470  -32.2020 N   0  0  0  0  0  0  0  0  0  0  0  0
   -7.5500   18.6680  -32.3010 C   0  0  0  0  0  0  0  0  0  0  0  0
   -6.5160   17.8300  -32.5200 N   0  0  0  0  0  0  0  0  0  0  0  0
   -5.2860   18.3560  -32.5970 N   0  0  0  0  0  0  0  0  0  0  0  0
   -5.0700   19.7070  -32.4600 C   0  0  0  0  0  0  0  0  0  0  0  0
   -3.7010   20.2690  -32.5670 C   0  0  0  0  0  0  0  0  0  0  0  0
   -2.9890   20.1950  -33.7800 C   0  0  0  0  0  0  0  0  0  0  0  0
   -1.6970   20.7190  -33.8770 C   0  0  0  0  0  0  0  0  0  0  0  0
   -1.1000   21.3240  -32.7690 C   0  0  0  0  0  0  0  0  0  0  0  0
   -1.7950   21.4050  -31.5590 C   0  0  0  0  0  0  0  0  0  0  0  0
   -1.0430   22.1660  -30.1670 Cl  0  0  0  0  0  0  0  0  0  0  0  0
   -3.0880   20.8810  -31.4570 C   0  0  0  0  0  0  0  0  0  0  0  0
   -6.1390   20.5260  -32.2360 N   0  0  0  0  0  0  0  0  0  0  0  0
   -7.3410   19.9680  -32.1650 N   0  0  0  0  0  0  0  0  0  0  0  0
   -7.1030   22.6410  -30.0820 C   0  0  0  0  0  0  0  0  0  0  0  0
   -5.9150   23.3010  -29.7580 C   0  0  0  0  0  0  0  0  0  0  0  0
   -3.8337   24.6547  -28.4072 H   0  0  0  0  0  0  0  0  0  0  0  0
   -2.8453   23.4559  -29.3087 H   0  0  0  0  0  0  0  0  0  0  0  0
   -2.3749   25.1895  -29.3087 H   0  0  0  0  0  0  0  0  0  0  0  0
   -5.1973   24.6594  -32.8150 H   0  0  0  0  0  0  0  0  0  0  0  0
   -7.3101   23.4741  -33.3940 H   0  0  0  0  0  0  0  0  0  0  0  0
   -9.5919   22.0302  -30.9332 H   0  0  0  0  0  0  0  0  0  0  0  0
   -9.2767   22.3653  -32.6797 H   0  0  0  0  0  0  0  0  0  0  0  0
   -3.4533   19.7213  -34.6575 H   0  0  0  0  0  0  0  0  0  0  0  0
   -1.1490   20.6547  -34.8286 H   0  0  0  0  0  0  0  0  0  0  0  0
   -0.0834   21.7366  -32.8484 H   0  0  0  0  0  0  0  0  0  0  0  0
   -3.6301   20.9476  -30.5022 H   0  0  0  0  0  0  0  0  0  0  0  0
   -7.6416   22.0739  -29.3085 H   0  0  0  0  0  0  0  0  0  0  0  0
   -5.5224   23.2505  -28.7317 H   0  0  0  0  0  0  0  0  0  0  0  0
  1  2  1  0
  2  3  1  0
  3  4  2  0
  4  5  1  0
  5  6  2  0
  6  7  1  0
  7  8  1  0
  8  9  2  0
  9 10  1  0
 10 11  2  0
 11 12  1  0
 12 13  2  0
 13 14  1  0
 14 15  1  0
 15 16  2  0
 16 17  1  0
 17 18  2  0
 18 19  1  0
 19 20  1  0
 19 21  2  0
 14 22  2  0
 22 23  1  0
  6 24  1  0
 24 25  2  0
 25  3  1  0
 23  8  1  0
 23 11  1  0
 21 15  1  0
  1 26  1  0
  1 27  1  0
  1 28  1  0
  4 29  1  0
  5 30  1  0
  7 31  1  0
  7 32  1  0
 16 33  1  0
 17 34  1  0
 18 35  1  0
 21 36  1  0
 24 37  1  0
 25 38  1  0
M  END
>  <UniqueID>  (47) 
43

>  <SMILES>  (47) 
COc1ccc(Cc2nnc3nnc(-c4cccc(Cl)c4)nn23)cc1

>  <Energy>  (47) 
88.05548334317865

>  <Genealogy>  (47) 
COc1ccc(Cc2nnc3nnc(-c4cccc(Cl)c4)nn23)cc1 (3D coordinates assigned)
COc1ccc(Cc2nnc3nnc(-c4cccc(Cl)c4)nn23)cc1 (optimized conformer: 88.05548334317865 kcal/mol)

>  <smiles>  (47) 
COc1ccc(Cc2nnc3nnc(-c4cccc(Cl)c4)nn23)cc1

>  <score_type>  (47) 
oracle

>  <origin>  (47) 
adg

>  <m_score__min__energy>  (47) 
-9.5500000000000007

>  <m_primary>  (47) 
energy

$$$$
