0:0
     RDKit          3D

 36 37  0  0  0  0  0  0  0  0999 V2000
   -6.6490   24.9240  -30.0790 C   0  0  0  0  0  0  0  0  0  0  0  0
   -5.1680   25.2850  -30.0850 C   0  0  0  0  0  0  0  0  0  0  0  0
   -4.4980   24.6340  -31.2180 N   0  0  0  0  0  0  0  0  0  0  0  0
   -4.6050   23.1650  -31.1610 C   0  0  0  0  0  0  0  0  0  0  0  0
   -4.6090   22.4960  -32.5490 C   0  0  0  0  0  0  0  0  0  0  0  0
   -5.5970   21.3670  -32.6250 C   0  0  0  0  0  0  0  0  0  0  0  0
   -5.3090   20.0450  -32.9460 C   0  0  0  0  0  0  0  0  0  0  0  0
   -6.4310   19.2890  -32.8690 N   0  0  0  0  0  0  0  0  0  0  0  0
   -6.5250   17.8640  -33.1880 C   0  0  0  0  0  0  0  0  0  0  0  0
   -5.9240   17.5870  -34.5610 C   0  0  0  0  0  0  0  0  0  0  0  0
   -7.4290   20.1240  -32.5120 C   0  0  0  0  0  0  0  0  0  0  0  0
   -8.7790   19.8200  -32.3150 C   0  0  0  0  0  0  0  0  0  0  0  0
   -9.6420   20.8630  -31.9330 C   0  0  0  0  0  0  0  0  0  0  0  0
   -9.1470   22.1730  -31.7580 C   0  0  0  0  0  0  0  0  0  0  0  0
   -7.7860   22.4550  -31.9670 C   0  0  0  0  0  0  0  0  0  0  0  0
   -6.9520   21.4030  -32.3460 C   0  0  0  0  0  0  0  0  0  0  0  0
   -7.0013   24.8381  -29.0405 H   0  0  0  0  0  0  0  0  0  0  0  0
   -7.2199   25.7093  -30.5961 H   0  0  0  0  0  0  0  0  0  0  0  0
   -6.7945   23.9641  -30.5961 H   0  0  0  0  0  0  0  0  0  0  0  0
   -5.0591   26.3759  -30.1751 H   0  0  0  0  0  0  0  0  0  0  0  0
   -4.7082   24.9409  -29.1468 H   0  0  0  0  0  0  0  0  0  0  0  0
   -3.4930   24.9220  -31.2400 H   0  0  0  0  0  0  0  0  0  0  0  0
   -3.7501   22.7753  -30.5889 H   0  0  0  0  0  0  0  0  0  0  0  0
   -5.5677   22.9284  -30.6844 H   0  0  0  0  0  0  0  0  0  0  0  0
   -4.8716   23.2496  -33.3060 H   0  0  0  0  0  0  0  0  0  0  0  0
   -3.6057   22.0832  -32.7309 H   0  0  0  0  0  0  0  0  0  0  0  0
   -4.3136   19.6673  -33.2226 H   0  0  0  0  0  0  0  0  0  0  0  0
   -5.9775   17.2857  -32.4292 H   0  0  0  0  0  0  0  0  0  0  0  0
   -7.5846   17.5689  -33.1958 H   0  0  0  0  0  0  0  0  0  0  0  0
   -4.9310   17.1293  -34.4410 H   0  0  0  0  0  0  0  0  0  0  0  0
   -6.5796   16.9002  -35.1164 H   0  0  0  0  0  0  0  0  0  0  0  0
   -5.8277   18.5316  -35.1164 H   0  0  0  0  0  0  0  0  0  0  0  0
   -9.1553   18.7958  -32.4545 H   0  0  0  0  0  0  0  0  0  0  0  0
  -10.7100   20.6562  -31.7696 H   0  0  0  0  0  0  0  0  0  0  0  0
   -9.8314   22.9794  -31.4558 H   0  0  0  0  0  0  0  0  0  0  0  0
   -7.3909   23.4732  -31.8358 H   0  0  0  0  0  0  0  0  0  0  0  0
  1  2  1  0
  2  3  1  0
  3  4  1  0
  4  5  1  0
  5  6  1  0
  6  7  2  0
  7  8  1  0
  8  9  1  0
  9 10  1  0
  8 11  1  0
 11 12  2  0
 12 13  1  0
 13 14  2  0
 14 15  1  0
 15 16  2  0
 16  6  1  0
 16 11  1  0
  1 17  1  0
  1 18  1  0
  1 19  1  0
  2 20  1  0
  2 21  1  0
  3 22  1  0
  4 23  1  0
  4 24  1  0
  5 25  1  0
  5 26  1  0
  7 27  1  0
  9 28  1  0
  9 29  1  0
 10 30  1  0
 10 31  1  0
 10 32  1  0
 12 33  1  0
 13 34  1  0
 14 35  1  0
 15 36  1  0
M  END
>  <UniqueID>  (1) 
1

>  <SMILES>  (1) 
CCNCCc1cn(CC)c2ccccc12

>  <Energy>  (1) 
60.57312357216568

>  <Genealogy>  (1) 
CCNCCc1cn(CC)c2ccccc12 (3D coordinates assigned)
CCNCCc1cn(CC)c2ccccc12 (optimized conformer: 60.57312357216568 kcal/mol)

>  <smiles>  (1) 
CCNCCc1cn(CC)c2ccccc12

>  <score_type>  (1) 
oracle

>  <origin>  (1) 
adg

>  <m_score__min__energy>  (1) 
-7.25

>  <m_primary>  (1) 
energy

$$$$
1:0
     RDKit          3D

 54 56  0  0  0  0  0  0  0  0999 V2000
   -4.3170   20.3610  -33.0840 C   0  0  0  0  0  0  0  0  0  0  0  0
   -4.8970   19.1700  -32.3310 C   0  0  0  0  0  0  0  0  0  0  0  0
   -6.2120   18.8080  -32.9030 N   0  0  0  0  0  0  0  0  0  0  0  0
   -6.0860   18.0810  -34.1860 C   0  0  0  0  0  0  0  0  0  0  0  0
   -6.4930   16.6150  -34.0490 C   0  0  0  0  0  0  0  0  0  0  0  0
   -7.1580   18.2210  -31.9180 C   0  0  0  0  0  0  0  0  0  0  0  0
   -8.4340   19.0430  -31.6280 C   0  0  0  0  0  0  0  0  0  0  0  0
   -8.7960   20.0420  -32.7330 C   0  0  0  0  0  0  0  0  0  0  0  0
   -8.8070   21.3740  -32.2190 O   0  0  0  0  0  0  0  0  0  0  0  0
   -7.6820   22.0880  -31.7760 C   0  0  0  0  0  0  0  0  0  0  0  0
   -7.5460   23.4230  -32.1780 C   0  0  0  0  0  0  0  0  0  0  0  0
   -6.4530   24.1870  -31.7620 C   0  0  0  0  0  0  0  0  0  0  0  0
   -5.4700   23.6200  -30.9340 C   0  0  0  0  0  0  0  0  0  0  0  0
   -4.3590   24.3470  -30.4790 C   0  0  0  0  0  0  0  0  0  0  0  0
   -4.1980   25.5560  -30.8000 O   0  0  0  0  0  0  0  0  0  0  0  0
   -3.4210   23.7210  -29.6570 C   0  0  0  0  0  0  0  0  0  0  0  0
   -3.6060   22.3730  -29.3020 C   0  0  0  0  0  0  0  0  0  0  0  0
   -2.6470   21.6520  -28.4260 C   0  0  0  0  0  0  0  0  0  0  0  0
   -1.3050   22.0600  -28.3050 C   0  0  0  0  0  0  0  0  0  0  0  0
   -0.4250   21.3610  -27.4740 C   0  0  0  0  0  0  0  0  0  0  0  0
   -0.8670   20.2430  -26.7640 C   0  0  0  0  0  0  0  0  0  0  0  0
   -2.1910   19.8030  -26.8950 C   0  0  0  0  0  0  0  0  0  0  0  0
   -2.6760   18.6220  -26.1080 C   0  0  0  0  0  0  0  0  0  0  0  0
   -3.0780   20.5160  -27.7160 C   0  0  0  0  0  0  0  0  0  0  0  0
   -4.6770   21.7190  -29.7470 O   0  0  0  0  0  0  0  0  0  0  0  0
   -5.5960   22.2740  -30.5310 C   0  0  0  0  0  0  0  0  0  0  0  0
   -6.6920   21.5140  -30.9550 C   0  0  0  0  0  0  0  0  0  0  0  0
   -3.9531   21.1084  -32.3636 H   0  0  0  0  0  0  0  0  0  0  0  0
   -3.4821   20.0240  -33.7160 H   0  0  0  0  0  0  0  0  0  0  0  0
   -5.0971   20.8104  -33.7160 H   0  0  0  0  0  0  0  0  0  0  0  0
   -4.2122   18.3136  -32.4190 H   0  0  0  0  0  0  0  0  0  0  0  0
   -5.0228   19.4365  -31.2712 H   0  0  0  0  0  0  0  0  0  0  0  0
   -6.7341   18.5622  -34.9332 H   0  0  0  0  0  0  0  0  0  0  0  0
   -5.0314   18.1157  -34.4968 H   0  0  0  0  0  0  0  0  0  0  0  0
   -6.5658   16.3527  -32.9832 H   0  0  0  0  0  0  0  0  0  0  0  0
   -7.4685   16.4586  -34.5326 H   0  0  0  0  0  0  0  0  0  0  0  0
   -5.7377   15.9780  -34.5326 H   0  0  0  0  0  0  0  0  0  0  0  0
   -7.4710   17.2372  -32.2976 H   0  0  0  0  0  0  0  0  0  0  0  0
   -6.6080   18.1834  -30.9661 H   0  0  0  0  0  0  0  0  0  0  0  0
   -9.2747   18.3446  -31.5040 H   0  0  0  0  0  0  0  0  0  0  0  0
   -8.2346   19.6309  -30.7199 H   0  0  0  0  0  0  0  0  0  0  0  0
   -8.0535   19.9721  -33.5416 H   0  0  0  0  0  0  0  0  0  0  0  0
   -9.7983   19.8004  -33.1166 H   0  0  0  0  0  0  0  0  0  0  0  0
   -8.3089   23.8750  -32.8289 H   0  0  0  0  0  0  0  0  0  0  0  0
   -6.3619   25.2350  -32.0835 H   0  0  0  0  0  0  0  0  0  0  0  0
   -2.5454   24.2767  -29.2903 H   0  0  0  0  0  0  0  0  0  0  0  0
   -0.9468   22.9344  -28.8680 H   0  0  0  0  0  0  0  0  0  0  0  0
    0.6194   21.6929  -27.3790 H   0  0  0  0  0  0  0  0  0  0  0  0
   -0.1739   19.7060  -26.0998 H   0  0  0  0  0  0  0  0  0  0  0  0
   -2.5878   18.8367  -25.0328 H   0  0  0  0  0  0  0  0  0  0  0  0
   -3.7288   18.4228  -26.3570 H   0  0  0  0  0  0  0  0  0  0  0  0
   -2.0671   17.7404  -26.3570 H   0  0  0  0  0  0  0  0  0  0  0  0
   -4.1225   20.1830  -27.8056 H   0  0  0  0  0  0  0  0  0  0  0  0
   -6.7808   20.4622  -30.6453 H   0  0  0  0  0  0  0  0  0  0  0  0
  1  2  1  0
  2  3  1  0
  3  4  1  0
  4  5  1  0
  3  6  1  0
  6  7  1  0
  7  8  1  0
  8  9  1  0
  9 10  1  0
 10 11  2  0
 11 12  1  0
 12 13  2  0
 13 14  1  0
 14 15  2  0
 14 16  1  0
 16 17  2  0
 17 18  1  0
 18 19  2  0
 19 20  1  0
 20 21  2  0
 21 22  1  0
 22 23  1  0
 22 24  2  0
 17 25  1  0
 25 26  1  0
 26 27  2  0
 27 10  1  0
 26 13  1  0
 24 18  1  0
  1 28  1  0
  1 29  1  0
  1 30  1  0
  2 31  1  0
  2 32  1  0
  4 33  1  0
  4 34  1  0
  5 35  1  0
  5 36  1  0
  5 37  1  0
  6 38  1  0
  6 39  1  0
  7 40  1  0
  7 41  1  0
  8 42  1  0
  8 43  1  0
 11 44  1  0
 12 45  1  0
 16 46  1  0
 19 47  1  0
 20 48  1  0
 21 49  1  0
 23 50  1  0
 23 51  1  0
 23 52  1  0
 24 53  1  0
 27 54  1  0
M  END
>  <UniqueID>  (2) 
2

>  <SMILES>  (2) 
CCN(CC)CCCOc1ccc2c(=O)cc(-c3cccc(C)c3)oc2c1

>  <Energy>  (2) 
64.32846342243229

>  <Genealogy>  (2) 
CCN(CC)CCCOc1ccc2c(=O)cc(-c3cccc(C)c3)oc2c1 (3D coordinates assigned)
CCN(CC)CCCOc1ccc2c(=O)cc(-c3cccc(C)c3)oc2c1 (optimized conformer: 64.32846342243229 kcal/mol)

>  <smiles>  (2) 
CCN(CC)CCCOc1ccc2c(=O)cc(-c3cccc(C)c3)oc2c1

>  <score_type>  (2) 
oracle

>  <origin>  (2) 
adg

>  <m_score__min__energy>  (2) 
-8.9600000000000009

>  <m_primary>  (2) 
energy

$$$$
2:0
     RDKit          3D

 53 55  0  0  0  0  0  0  0  0999 V2000
   -1.5690   26.9410  -25.5700 C   0  0  0  0  0  0  0  0  0  0  0  0
   -0.8990   25.7140  -24.9600 C   0  0  0  0  0  0  0  0  0  0  0  0
   -1.3850   24.4830  -25.5870 N   0  0  0  0  0  0  0  0  0  0  0  0
   -2.0550   24.4570  -26.8610 C   0  0  0  0  0  0  0  0  0  0  0  0
   -1.3040   24.6280  -28.0350 C   0  0  0  0  0  0  0  0  0  0  0  0
   -1.9270   24.6100  -29.2860 C   0  0  0  0  0  0  0  0  0  0  0  0
   -3.3110   24.4360  -29.3870 C   0  0  0  0  0  0  0  0  0  0  0  0
   -3.8970   24.4110  -30.6600 O   0  0  0  0  0  0  0  0  0  0  0  0
   -5.0040   23.6310  -31.0290 C   0  0  0  0  0  0  0  0  0  0  0  0
   -6.3180   24.0800  -30.8060 C   0  0  0  0  0  0  0  0  0  0  0  0
   -7.4080   23.3020  -31.1990 C   0  0  0  0  0  0  0  0  0  0  0  0
   -7.2000   22.0710  -31.8260 C   0  0  0  0  0  0  0  0  0  0  0  0
   -8.6010   21.0710  -32.3270 S   0  0  0  0  0  0  0  0  0  0  0  0
   -7.5820   19.6170  -32.5810 C   0  0  0  0  0  0  0  0  0  0  0  0
   -7.3550   18.7290  -31.5230 C   0  0  0  0  0  0  0  0  0  0  0  0
   -6.5710   17.5950  -31.7390 C   0  0  0  0  0  0  0  0  0  0  0  0
   -6.0230   17.3610  -33.0010 C   0  0  0  0  0  0  0  0  0  0  0  0
   -6.2700   18.2700  -34.0330 C   0  0  0  0  0  0  0  0  0  0  0  0
   -7.0380   19.3720  -33.8050 N   0  0  0  0  0  0  0  0  0  0  0  0
   -5.8970   21.6240  -32.0720 C   0  0  0  0  0  0  0  0  0  0  0  0
   -4.7940   22.3980  -31.6780 C   0  0  0  0  0  0  0  0  0  0  0  0
   -3.3930   21.9130  -31.9640 C   0  0  0  0  0  0  0  0  0  0  0  0
   -3.4100   20.8560  -32.9960 N   0  0  0  0  0  0  0  0  0  0  0  0
   -2.1820   20.9240  -33.8050 C   0  0  0  0  0  0  0  0  0  0  0  0
   -3.5210   19.5230  -32.3800 C   0  0  0  0  0  0  0  0  0  0  0  0
   -4.0660   24.2480  -28.2170 C   0  0  0  0  0  0  0  0  0  0  0  0
   -3.4460   24.2610  -26.9650 C   0  0  0  0  0  0  0  0  0  0  0  0
   -1.9288   27.6000  -24.7661 H   0  0  0  0  0  0  0  0  0  0  0  0
   -0.8424   27.4844  -26.1919 H   0  0  0  0  0  0  0  0  0  0  0  0
   -2.4190   26.6235  -26.1919 H   0  0  0  0  0  0  0  0  0  0  0  0
    0.1886   25.7875  -25.1077 H   0  0  0  0  0  0  0  0  0  0  0  0
   -1.1414   25.6798  -23.8876 H   0  0  0  0  0  0  0  0  0  0  0  0
   -1.2400   23.5730  -25.0880 H   0  0  0  0  0  0  0  0  0  0  0  0
   -0.2162   24.7774  -27.9696 H   0  0  0  0  0  0  0  0  0  0  0  0
   -1.3243   24.7336  -30.1979 H   0  0  0  0  0  0  0  0  0  0  0  0
   -6.4878   25.0513  -30.3184 H   0  0  0  0  0  0  0  0  0  0  0  0
   -8.4322   23.6585  -31.0148 H   0  0  0  0  0  0  0  0  0  0  0  0
   -7.7901   18.9231  -30.5315 H   0  0  0  0  0  0  0  0  0  0  0  0
   -6.3855   16.8878  -30.9172 H   0  0  0  0  0  0  0  0  0  0  0  0
   -5.4032   16.4703  -33.1813 H   0  0  0  0  0  0  0  0  0  0  0  0
   -5.8434   18.0955  -35.0318 H   0  0  0  0  0  0  0  0  0  0  0  0
   -7.2160   20.0340  -34.5930 H   0  0  0  0  0  0  0  0  0  0  0  0
   -5.7360   20.6602  -32.5772 H   0  0  0  0  0  0  0  0  0  0  0  0
   -2.7839   22.7568  -32.3205 H   0  0  0  0  0  0  0  0  0  0  0  0
   -2.9649   21.4992  -31.0391 H   0  0  0  0  0  0  0  0  0  0  0  0
   -1.3071   20.9724  -33.1401 H   0  0  0  0  0  0  0  0  0  0  0  0
   -2.1110   20.0284  -34.4397 H   0  0  0  0  0  0  0  0  0  0  0  0
   -2.2103   21.8220  -34.4397 H   0  0  0  0  0  0  0  0  0  0  0  0
   -3.5126   19.6234  -31.2846 H   0  0  0  0  0  0  0  0  0  0  0  0
   -4.4617   19.0495  -32.6976 H   0  0  0  0  0  0  0  0  0  0  0  0
   -2.6716   18.9004  -32.6976 H   0  0  0  0  0  0  0  0  0  0  0  0
   -5.1523   24.0896  -28.2872 H   0  0  0  0  0  0  0  0  0  0  0  0
   -4.0476   24.1174  -26.0553 H   0  0  0  0  0  0  0  0  0  0  0  0
  1  2  1  0
  2  3  1  0
  3  4  1  0
  4  5  2  0
  5  6  1  0
  6  7  2  0
  7  8  1  0
  8  9  1  0
  9 10  2  0
 10 11  1  0
 11 12  2  0
 12 13  1  0
 13 14  1  0
 14 15  2  0
 15 16  1  0
 16 17  2  0
 17 18  1  0
 18 19  2  0
 12 20  1  0
 20 21  2  0
 21 22  1  0
 22 23  1  0
 23 24  1  0
 23 25  1  0
  7 26  1  0
 26 27  2  0
 27  4  1  0
 21  9  1  0
 19 14  1  0
  1 28  1  0
  1 29  1  0
  1 30  1  0
  2 31  1  0
  2 32  1  0
  3 33  1  0
  5 34  1  0
  6 35  1  0
 10 36  1  0
 11 37  1  0
 15 38  1  0
 16 39  1  0
 17 40  1  0
 18 41  1  0
 19 42  1  0
 20 43  1  0
 22 44  1  0
 22 45  1  0
 24 46  1  0
 24 47  1  0
 24 48  1  0
 25 49  1  0
 25 50  1  0
 25 51  1  0
 26 52  1  0
 27 53  1  0
M  CHG  1  19   1
M  END
>  <UniqueID>  (3) 
3

>  <SMILES>  (3) 
CCNc1ccc(Oc2ccc(Sc3cccc[nH+]3)cc2CN(C)C)cc1

>  <Energy>  (3) 
52.707950764704066

>  <Genealogy>  (3) 
CCNc1ccc(Oc2ccc(Sc3cccc[nH+]3)cc2CN(C)C)cc1 (protonated)
CCNc1ccc(Oc2ccc(Sc3cccc[nH+]3)cc2CN(C)C)cc1 (3D coordinates assigned)
CCNc1ccc(Oc2ccc(Sc3cccc[nH+]3)cc2CN(C)C)cc1 (optimized conformer: 52.707950764704066 kcal/mol)

>  <smiles>  (3) 
CCNc1ccc(Oc2ccc(Sc3ccccn3)cc2CN(C)C)cc1

>  <score_type>  (3) 
oracle

>  <origin>  (3) 
adg

>  <m_score__min__energy>  (3) 
-8.4600000000000009

>  <m_primary>  (3) 
energy

$$$$
3:0
     RDKit          3D

 43 44  0  0  0  0  0  0  0  0999 V2000
   -5.6320   26.1020  -30.5140 C   0  0  0  0  0  0  0  0  0  0  0  0
   -6.4330   25.3450  -29.4680 C   0  0  0  0  0  0  0  0  0  0  0  0
   -5.8960   24.0340  -29.3180 O   0  0  0  0  0  0  0  0  0  0  0  0
   -5.7900   23.0810  -30.3450 C   0  0  0  0  0  0  0  0  0  0  0  0
   -6.8350   22.1810  -30.6300 C   0  0  0  0  0  0  0  0  0  0  0  0
   -6.6980   21.1790  -31.6240 C   0  0  0  0  0  0  0  0  0  0  0  0
   -5.4610   21.0750  -32.2960 C   0  0  0  0  0  0  0  0  0  0  0  0
   -4.4260   21.9870  -32.0190 C   0  0  0  0  0  0  0  0  0  0  0  0
   -4.5960   23.0040  -31.0810 C   0  0  0  0  0  0  0  0  0  0  0  0
   -3.5020   23.9020  -30.8420 N   0  0  0  0  0  0  0  0  0  0  0  0
   -2.9300   24.1880  -29.5610 C   0  0  0  0  0  0  0  0  0  0  0  0
   -2.8960   23.1230  -28.5170 C   0  0  0  0  0  0  0  0  0  0  0  0
   -2.3740   25.2970  -29.3380 O   0  0  0  0  0  0  0  0  0  0  0  0
   -5.2850   20.0500  -33.2340 C   0  0  0  0  0  0  0  0  0  0  0  0
   -4.1900   19.9560  -33.8610 O   0  0  0  0  0  0  0  0  0  0  0  0
   -6.2870   19.1500  -33.4680 N   0  0  0  0  0  0  0  0  0  0  0  0
   -6.0840   18.0640  -34.4510 C   0  0  0  0  0  0  0  0  0  0  0  0
   -6.0090   16.7130  -33.7460 C   0  0  0  0  0  0  0  0  0  0  0  0
   -7.4970   19.2830  -32.8350 C   0  0  0  0  0  0  0  0  0  0  0  0
   -8.4180   18.4550  -33.0820 O   0  0  0  0  0  0  0  0  0  0  0  0
   -7.7210   20.3050  -31.9400 N   0  0  0  0  0  0  0  0  0  0  0  0
   -9.0640   20.4180  -31.3210 C   0  0  0  0  0  0  0  0  0  0  0  0
   -9.8640   21.5500  -31.9630 C   0  0  0  0  0  0  0  0  0  0  0  0
   -4.9198   26.7750  -30.0142 H   0  0  0  0  0  0  0  0  0  0  0  0
   -5.0812   25.3867  -31.1425 H   0  0  0  0  0  0  0  0  0  0  0  0
   -6.3150   26.6922  -31.1425 H   0  0  0  0  0  0  0  0  0  0  0  0
   -6.3766   25.8769  -28.5068 H   0  0  0  0  0  0  0  0  0  0  0  0
   -7.4834   25.2774  -29.7876 H   0  0  0  0  0  0  0  0  0  0  0  0
   -7.7783   22.2570  -30.0692 H   0  0  0  0  0  0  0  0  0  0  0  0
   -3.4675   21.8960  -32.5511 H   0  0  0  0  0  0  0  0  0  0  0  0
   -2.9108   23.5867  -27.5196 H   0  0  0  0  0  0  0  0  0  0  0  0
   -3.7738   22.4698  -28.6308 H   0  0  0  0  0  0  0  0  0  0  0  0
   -1.9784   22.5272  -28.6308 H   0  0  0  0  0  0  0  0  0  0  0  0
   -6.9246   18.0560  -35.1605 H   0  0  0  0  0  0  0  0  0  0  0  0
   -5.1387   18.2396  -34.9854 H   0  0  0  0  0  0  0  0  0  0  0  0
   -6.0175   16.8668  -32.6568 H   0  0  0  0  0  0  0  0  0  0  0  0
   -6.8745   16.0993  -34.0364 H   0  0  0  0  0  0  0  0  0  0  0  0
   -5.0809   16.1989  -34.0364 H   0  0  0  0  0  0  0  0  0  0  0  0
   -9.6055   19.4705  -31.4589 H   0  0  0  0  0  0  0  0  0  0  0  0
   -8.9412   20.6366  -30.2500 H   0  0  0  0  0  0  0  0  0  0  0  0
  -10.3076   22.1776  -31.1760 H   0  0  0  0  0  0  0  0  0  0  0  0
   -9.1968   22.1621  -32.5876 H   0  0  0  0  0  0  0  0  0  0  0  0
  -10.6637   21.1254  -32.5876 H   0  0  0  0  0  0  0  0  0  0  0  0
  1  2  1  0
  2  3  1  0
  3  4  1  0
  4  5  2  0
  5  6  1  0
  6  7  2  0
  7  8  1  0
  8  9  2  0
  9 10  1  0
 10 11  1  0
 11 12  1  0
 11 13  2  0
  7 14  1  0
 14 15  2  0
 14 16  1  0
 16 17  1  0
 17 18  1  0
 16 19  1  0
 19 20  2  0
 19 21  1  0
 21 22  1  0
 22 23  1  0
  9  4  1  0
 21  6  1  0
  1 24  1  0
  1 25  1  0
  1 26  1  0
  2 27  1  0
  2 28  1  0
  5 29  1  0
  8 30  1  0
 12 31  1  0
 12 32  1  0
 12 33  1  0
 17 34  1  0
 17 35  1  0
 18 36  1  0
 18 37  1  0
 18 38  1  0
 22 39  1  0
 22 40  1  0
 23 41  1  0
 23 42  1  0
 23 43  1  0
M  CHG  1  10  -1
M  END
>  <UniqueID>  (4) 
4

>  <SMILES>  (4) 
CCOc1cc2c(cc1[N-]C(C)=O)c(=O)n(CC)c(=O)n2CC

>  <Energy>  (4) 
53.21363710024928

>  <Genealogy>  (4) 
CCOc1cc2c(cc1[N-]C(C)=O)c(=O)n(CC)c(=O)n2CC (protonated)
CCOc1cc2c(cc1[N-]C(C)=O)c(=O)n(CC)c(=O)n2CC (3D coordinates assigned)
CCOc1cc2c(cc1[N-]C(C)=O)c(=O)n(CC)c(=O)n2CC (optimized conformer: 53.21363710024928 kcal/mol)

>  <smiles>  (4) 
CCOc1cc2c(cc1NC(C)=O)c(=O)n(CC)c(=O)n2CC

>  <score_type>  (4) 
oracle

>  <origin>  (4) 
adg

>  <m_score__min__energy>  (4) 
-8.4100000000000001

>  <m_primary>  (4) 
energy

$$$$
4:0
     RDKit          3D

 41 43  0  0  0  0  0  0  0  0999 V2000
   -2.4830   20.2890  -27.7460 C   0  0  0  0  0  0  0  0  0  0  0  0
   -3.0660   21.2200  -28.7270 N   0  0  0  0  0  0  0  0  0  0  0  0
   -3.4530   22.4910  -28.0760 C   0  0  0  0  0  0  0  0  0  0  0  0
   -4.1340   23.4120  -29.0550 C   0  0  0  0  0  0  0  0  0  0  0  0
   -5.5020   23.2840  -29.3340 C   0  0  0  0  0  0  0  0  0  0  0  0
   -6.1150   24.1590  -30.2320 C   0  0  0  0  0  0  0  0  0  0  0  0
   -5.3540   25.1560  -30.8440 C   0  0  0  0  0  0  0  0  0  0  0  0
   -4.0280   25.2700  -30.5630 N   0  0  0  0  0  0  0  0  0  0  0  0
   -3.4080   24.4300  -29.6920 C   0  0  0  0  0  0  0  0  0  0  0  0
   -2.1870   21.4050  -29.9050 C   0  0  0  0  0  0  0  0  0  0  0  0
   -2.9140   21.3030  -31.2180 C   0  0  0  0  0  0  0  0  0  0  0  0
   -4.1030   20.7020  -31.3870 N   0  0  0  0  0  0  0  0  0  0  0  0
   -4.3130   20.8350  -32.7090 C   0  0  0  0  0  0  0  0  0  0  0  0
   -5.4820   20.2520  -33.4380 C   0  0  0  0  0  0  0  0  0  0  0  0
   -6.7520   20.4950  -32.6620 C   0  0  0  0  0  0  0  0  0  0  0  0
   -7.1270   21.8170  -32.3600 C   0  0  0  0  0  0  0  0  0  0  0  0
   -8.3150   22.0790  -31.6740 C   0  0  0  0  0  0  0  0  0  0  0  0
   -9.1470   21.0270  -31.2890 C   0  0  0  0  0  0  0  0  0  0  0  0
   -8.7950   19.7100  -31.5930 C   0  0  0  0  0  0  0  0  0  0  0  0
   -7.6060   19.4350  -32.2810 C   0  0  0  0  0  0  0  0  0  0  0  0
   -7.2290   17.7560  -32.6500 Cl  0  0  0  0  0  0  0  0  0  0  0  0
   -3.2980   21.4840  -33.3140 N   0  0  0  0  0  0  0  0  0  0  0  0
   -2.4570   21.7610  -32.3600 O   0  0  0  0  0  0  0  0  0  0  0  0
   -2.7045   20.6427  -26.7282 H   0  0  0  0  0  0  0  0  0  0  0  0
   -2.9157   19.2878  -27.8885 H   0  0  0  0  0  0  0  0  0  0  0  0
   -1.3933   20.2411  -27.8885 H   0  0  0  0  0  0  0  0  0  0  0  0
   -4.1417   22.2752  -27.2459 H   0  0  0  0  0  0  0  0  0  0  0  0
   -2.5439   22.9854  -27.7029 H   0  0  0  0  0  0  0  0  0  0  0  0
   -6.0918   22.4944  -28.8454 H   0  0  0  0  0  0  0  0  0  0  0  0
   -7.1879   24.0637  -30.4553 H   0  0  0  0  0  0  0  0  0  0  0  0
   -5.8269   25.8502  -31.5542 H   0  0  0  0  0  0  0  0  0  0  0  0
   -2.3340   24.5488  -29.4860 H   0  0  0  0  0  0  0  0  0  0  0  0
   -1.7230   22.4002  -29.8403 H   0  0  0  0  0  0  0  0  0  0  0  0
   -1.4426   20.5955  -29.8836 H   0  0  0  0  0  0  0  0  0  0  0  0
   -4.7030   20.2320  -30.6730 H   0  0  0  0  0  0  0  0  0  0  0  0
   -5.5651   20.7238  -34.4282 H   0  0  0  0  0  0  0  0  0  0  0  0
   -5.3313   19.1682  -33.5505 H   0  0  0  0  0  0  0  0  0  0  0  0
   -6.4790   22.6513  -32.6668 H   0  0  0  0  0  0  0  0  0  0  0  0
   -8.5952   23.1160  -31.4369 H   0  0  0  0  0  0  0  0  0  0  0  0
  -10.0806   21.2350  -30.7458 H   0  0  0  0  0  0  0  0  0  0  0  0
   -9.4552   18.8838  -31.2904 H   0  0  0  0  0  0  0  0  0  0  0  0
  1  2  1  0
  2  3  1  0
  3  4  1  0
  4  5  2  0
  5  6  1  0
  6  7  2  0
  7  8  1  0
  8  9  2  0
  2 10  1  0
 10 11  1  0
 11 12  2  0
 12 13  1  0
 13 14  1  0
 14 15  1  0
 15 16  2  0
 16 17  1  0
 17 18  2  0
 18 19  1  0
 19 20  2  0
 20 21  1  0
 13 22  2  0
 22 23  1  0
  9  4  1  0
 23 11  1  0
 20 15  1  0
  1 24  1  0
  1 25  1  0
  1 26  1  0
  3 27  1  0
  3 28  1  0
  5 29  1  0
  6 30  1  0
  7 31  1  0
  9 32  1  0
 10 33  1  0
 10 34  1  0
 12 35  1  0
 14 36  1  0
 14 37  1  0
 16 38  1  0
 17 39  1  0
 18 40  1  0
 19 41  1  0
M  CHG  1  12   1
M  END
>  <UniqueID>  (5) 
5

>  <SMILES>  (5) 
CN(Cc1cccnc1)Cc1[nH+]c(Cc2ccccc2Cl)no1

>  <Energy>  (5) 
79.20170108335716

>  <Genealogy>  (5) 
CN(Cc1cccnc1)Cc1[nH+]c(Cc2ccccc2Cl)no1 (protonated)
CN(Cc1cccnc1)Cc1[nH+]c(Cc2ccccc2Cl)no1 (3D coordinates assigned)
CN(Cc1cccnc1)Cc1[nH+]c(Cc2ccccc2Cl)no1 (optimized conformer: 79.20170108335716 kcal/mol)

>  <smiles>  (5) 
CN(Cc1cccnc1)Cc1nc(Cc2ccccc2Cl)no1

>  <score_type>  (5) 
oracle

>  <origin>  (5) 
adg

>  <m_score__min__energy>  (5) 
-7.8600000000000003

>  <m_primary>  (5) 
energy

$$$$
5:0
     RDKit          3D

 39 42  0  0  0  0  0  0  0  0999 V2000
   -9.4310   18.1670  -31.9460 C   0  0  0  0  0  0  0  0  0  0  0  0
   -9.6460   19.4820  -32.6850 C   0  0  0  0  0  0  0  0  0  0  0  0
   -8.6650   20.4730  -32.2510 N   0  0  0  0  0  0  0  0  0  0  0  0
   -8.8970   21.6370  -31.5950 C   0  0  0  0  0  0  0  0  0  0  0  0
   -7.7690   22.3720  -31.3900 N   0  0  0  0  0  0  0  0  0  0  0  0
   -6.8090   21.6200  -31.9670 C   0  0  0  0  0  0  0  0  0  0  0  0
   -5.4330   21.8460  -32.0670 C   0  0  0  0  0  0  0  0  0  0  0  0
   -4.7900   23.0250  -31.5400 N   0  0  0  0  0  0  0  0  0  0  0  0
   -3.3620   23.0270  -31.1960 C   0  0  0  0  0  0  0  0  0  0  0  0
   -3.0940   24.0290  -30.0690 C   0  0  0  0  0  0  0  0  0  0  0  0
   -3.6360   25.2970  -30.3820 O   0  0  0  0  0  0  0  0  0  0  0  0
   -5.0460   25.2090  -30.4410 C   0  0  0  0  0  0  0  0  0  0  0  0
   -5.4860   24.3150  -31.6050 C   0  0  0  0  0  0  0  0  0  0  0  0
   -4.6910   20.8800  -32.6890 N   0  0  0  0  0  0  0  0  0  0  0  0
   -5.2590   19.7420  -33.2060 C   0  0  0  0  0  0  0  0  0  0  0  0
   -4.4140   18.7400  -33.8690 C   0  0  0  0  0  0  0  0  0  0  0  0
   -3.0250   18.6780  -33.8210 C   0  0  0  0  0  0  0  0  0  0  0  0
   -2.4950   17.6090  -34.5530 C   0  0  0  0  0  0  0  0  0  0  0  0
   -3.4590   16.8270  -35.1780 C   0  0  0  0  0  0  0  0  0  0  0  0
   -4.9720   17.4680  -34.8190 S   0  0  0  0  0  0  0  0  0  0  0  0
   -6.6070   19.5400  -33.1020 N   0  0  0  0  0  0  0  0  0  0  0  0
   -7.3480   20.4890  -32.4800 C   0  0  0  0  0  0  0  0  0  0  0  0
   -9.4604   18.3470  -30.8612 H   0  0  0  0  0  0  0  0  0  0  0  0
  -10.2251   17.4574  -32.2216 H   0  0  0  0  0  0  0  0  0  0  0  0
   -8.4523   17.7473  -32.2216 H   0  0  0  0  0  0  0  0  0  0  0  0
   -9.5369   19.3127  -33.7664 H   0  0  0  0  0  0  0  0  0  0  0  0
  -10.6560   19.8567  -32.4625 H   0  0  0  0  0  0  0  0  0  0  0  0
   -9.8958   21.9555  -31.2620 H   0  0  0  0  0  0  0  0  0  0  0  0
   -3.0658   22.0203  -30.8660 H   0  0  0  0  0  0  0  0  0  0  0  0
   -2.7784   23.3170  -32.0822 H   0  0  0  0  0  0  0  0  0  0  0  0
   -3.5550   23.6593  -29.1412 H   0  0  0  0  0  0  0  0  0  0  0  0
   -2.0063   24.1331  -29.9425 H   0  0  0  0  0  0  0  0  0  0  0  0
   -5.4208   24.7842  -29.4981 H   0  0  0  0  0  0  0  0  0  0  0  0
   -5.4565   26.2177  -30.5958 H   0  0  0  0  0  0  0  0  0  0  0  0
   -6.5713   24.1465  -31.5444 H   0  0  0  0  0  0  0  0  0  0  0  0
   -5.2371   24.8113  -32.5546 H   0  0  0  0  0  0  0  0  0  0  0  0
   -2.4057   19.3965  -33.2640 H   0  0  0  0  0  0  0  0  0  0  0  0
   -1.4163   17.4068  -34.6267 H   0  0  0  0  0  0  0  0  0  0  0  0
   -3.2657   15.9410  -35.8006 H   0  0  0  0  0  0  0  0  0  0  0  0
  1  2  1  0
  2  3  1  0
  3  4  1  0
  4  5  2  0
  5  6  1  0
  6  7  2  0
  7  8  1  0
  8  9  1  0
  9 10  1  0
 10 11  1  0
 11 12  1  0
 12 13  1  0
  7 14  1  0
 14 15  2  0
 15 16  1  0
 16 17  2  0
 17 18  1  0
 18 19  2  0
 19 20  1  0
 15 21  1  0
 21 22  2  0
 22  3  1  0
 22  6  1  0
 13  8  1  0
 20 16  1  0
  1 23  1  0
  1 24  1  0
  1 25  1  0
  2 26  1  0
  2 27  1  0
  4 28  1  0
  9 29  1  0
  9 30  1  0
 10 31  1  0
 10 32  1  0
 12 33  1  0
 12 34  1  0
 13 35  1  0
 13 36  1  0
 17 37  1  0
 18 38  1  0
 19 39  1  0
M  END
>  <UniqueID>  (6) 
6

>  <SMILES>  (6) 
CCn1cnc2c(N3CCOCC3)nc(-c3cccs3)nc21

>  <Energy>  (6) 
108.68216830558366

>  <Genealogy>  (6) 
CCn1cnc2c(N3CCOCC3)nc(-c3cccs3)nc21 (3D coordinates assigned)
CCn1cnc2c(N3CCOCC3)nc(-c3cccs3)nc21 (nonaromatic ring conformer: 108.68216830558366 kcal/mol)

>  <smiles>  (6) 
CCn1cnc2c(N3CCOCC3)nc(-c3cccs3)nc21

>  <score_type>  (6) 
oracle

>  <origin>  (6) 
adg

>  <m_score__min__energy>  (6) 
-7.4800000000000004

>  <m_primary>  (6) 
energy

$$$$
6:0
     RDKit          3D

 50 52  0  0  0  0  0  0  0  0999 V2000
   -4.9680   17.0790  -34.8540 C   0  0  0  0  0  0  0  0  0  0  0  0
   -5.7420   18.3890  -34.9540 C   0  0  0  0  0  0  0  0  0  0  0  0
   -5.9000   19.0010  -33.6260 N   0  0  0  0  0  0  0  0  0  0  0  0
   -7.1420   18.7780  -32.8740 C   0  0  0  0  0  0  0  0  0  0  0  0
   -8.1150   19.9450  -33.0960 C   0  0  0  0  0  0  0  0  0  0  0  0
   -9.1490   20.0030  -32.0420 N   0  0  0  0  0  0  0  0  0  0  0  0
   -9.1070   18.7710  -31.2380 C   0  0  0  0  0  0  0  0  0  0  0  0
   -8.9520   21.1680  -31.1620 C   0  0  0  0  0  0  0  0  0  0  0  0
   -4.9430   19.9800  -33.1800 C   0  0  0  0  0  0  0  0  0  0  0  0
   -3.5810   19.8400  -33.4680 C   0  0  0  0  0  0  0  0  0  0  0  0
   -2.6890   20.8340  -33.0390 C   0  0  0  0  0  0  0  0  0  0  0  0
   -1.2370   20.7220  -33.3370 C   0  0  0  0  0  0  0  0  0  0  0  0
   -0.3620   20.1320  -32.4050 C   0  0  0  0  0  0  0  0  0  0  0  0
    1.0050   20.0290  -32.6830 C   0  0  0  0  0  0  0  0  0  0  0  0
    1.5120   20.5100  -33.8920 C   0  0  0  0  0  0  0  0  0  0  0  0
    0.6550   21.0980  -34.8240 C   0  0  0  0  0  0  0  0  0  0  0  0
   -0.7120   21.2060  -34.5510 C   0  0  0  0  0  0  0  0  0  0  0  0
   -3.1700   21.9100  -32.3490 N   0  0  0  0  0  0  0  0  0  0  0  0
   -4.5020   22.0360  -32.0800 C   0  0  0  0  0  0  0  0  0  0  0  0
   -5.0240   23.2030  -31.3430 C   0  0  0  0  0  0  0  0  0  0  0  0
   -6.3630   23.5750  -31.2570 C   0  0  0  0  0  0  0  0  0  0  0  0
   -6.5720   24.7300  -30.4930 C   0  0  0  0  0  0  0  0  0  0  0  0
   -5.4050   25.2740  -29.9740 C   0  0  0  0  0  0  0  0  0  0  0  0
   -4.1140   24.3160  -30.4660 S   0  0  0  0  0  0  0  0  0  0  0  0
   -5.3670   21.0770  -32.5000 N   0  0  0  0  0  0  0  0  0  0  0  0
   -4.8165   16.8226  -33.7951 H   0  0  0  0  0  0  0  0  0  0  0  0
   -5.5378   16.2778  -35.3474 H   0  0  0  0  0  0  0  0  0  0  0  0
   -3.9913   17.1916  -35.3474 H   0  0  0  0  0  0  0  0  0  0  0  0
   -5.1946   19.0830  -35.6088 H   0  0  0  0  0  0  0  0  0  0  0  0
   -6.7393   18.1803  -35.3686 H   0  0  0  0  0  0  0  0  0  0  0  0
   -7.6112   17.8439  -33.2166 H   0  0  0  0  0  0  0  0  0  0  0  0
   -6.9043   18.7086  -31.8022 H   0  0  0  0  0  0  0  0  0  0  0  0
   -7.5480   20.8876  -33.0913 H   0  0  0  0  0  0  0  0  0  0  0  0
   -8.6185   19.7924  -34.0620 H   0  0  0  0  0  0  0  0  0  0  0  0
   -9.1158   19.0303  -30.1690 H   0  0  0  0  0  0  0  0  0  0  0  0
   -9.9845   18.1503  -31.4720 H   0  0  0  0  0  0  0  0  0  0  0  0
   -8.1893   18.2115  -31.4720 H   0  0  0  0  0  0  0  0  0  0  0  0
   -9.0063   20.8471  -30.1112 H   0  0  0  0  0  0  0  0  0  0  0  0
   -7.9658   21.6136  -31.3589 H   0  0  0  0  0  0  0  0  0  0  0  0
   -9.7369   21.9131  -31.3589 H   0  0  0  0  0  0  0  0  0  0  0  0
   -3.2151   18.9634  -34.0227 H   0  0  0  0  0  0  0  0  0  0  0  0
   -0.7560   19.7495  -31.4519 H   0  0  0  0  0  0  0  0  0  0  0  0
    1.6817   19.5684  -31.9482 H   0  0  0  0  0  0  0  0  0  0  0  0
    2.5869   20.4255  -34.1100 H   0  0  0  0  0  0  0  0  0  0  0  0
    1.0561   21.4773  -35.7754 H   0  0  0  0  0  0  0  0  0  0  0  0
   -1.3816   21.6719  -35.2890 H   0  0  0  0  0  0  0  0  0  0  0  0
   -2.5100   22.6610  -32.0490 H   0  0  0  0  0  0  0  0  0  0  0  0
   -7.1771   23.0163  -31.7418 H   0  0  0  0  0  0  0  0  0  0  0  0
   -7.5674   25.1652  -30.3204 H   0  0  0  0  0  0  0  0  0  0  0  0
   -5.3367   26.1764  -29.3486 H   0  0  0  0  0  0  0  0  0  0  0  0
  1  2  1  0
  2  3  1  0
  3  4  1  0
  4  5  1  0
  5  6  1  0
  6  7  1  0
  6  8  1  0
  3  9  1  0
  9 10  2  0
 10 11  1  0
 11 12  1  0
 12 13  2  0
 13 14  1  0
 14 15  2  0
 15 16  1  0
 16 17  2  0
 11 18  2  0
 18 19  1  0
 19 20  1  0
 20 21  2  0
 21 22  1  0
 22 23  2  0
 23 24  1  0
 19 25  2  0
 25  9  1  0
 17 12  1  0
 24 20  1  0
  1 26  1  0
  1 27  1  0
  1 28  1  0
  2 29  1  0
  2 30  1  0
  4 31  1  0
  4 32  1  0
  5 33  1  0
  5 34  1  0
  7 35  1  0
  7 36  1  0
  7 37  1  0
  8 38  1  0
  8 39  1  0
  8 40  1  0
 10 41  1  0
 13 42  1  0
 14 43  1  0
 15 44  1  0
 16 45  1  0
 17 46  1  0
 18 47  1  0
 21 48  1  0
 22 49  1  0
 23 50  1  0
M  CHG  1  18   1
M  END
>  <UniqueID>  (7) 
7

>  <SMILES>  (7) 
CCN(CCN(C)C)c1cc(-c2ccccc2)[nH+]c(-c2cccs2)n1

>  <Energy>  (7) 
81.07727427300368

>  <Genealogy>  (7) 
CCN(CCN(C)C)c1cc(-c2ccccc2)[nH+]c(-c2cccs2)n1 (protonated)
CCN(CCN(C)C)c1cc(-c2ccccc2)[nH+]c(-c2cccs2)n1 (3D coordinates assigned)
CCN(CCN(C)C)c1cc(-c2ccccc2)[nH+]c(-c2cccs2)n1 (optimized conformer: 81.07727427300368 kcal/mol)

>  <smiles>  (7) 
CCN(CCN(C)C)c1cc(-c2ccccc2)nc(-c2cccs2)n1

>  <score_type>  (7) 
oracle

>  <origin>  (7) 
adg

>  <m_score__min__energy>  (7) 
-7.1299999999999999

>  <m_primary>  (7) 
energy

$$$$
7:0
     RDKit          3D

 50 52  0  0  0  0  0  0  0  0999 V2000
    1.3490   23.8380  -26.0560 C   0  0  0  0  0  0  0  0  0  0  0  0
    1.5750   24.3970  -27.4560 C   0  0  0  0  0  0  0  0  0  0  0  0
    0.4720   25.2080  -27.8610 O   0  0  0  0  0  0  0  0  0  0  0  0
   -0.8270   25.1460  -27.3310 C   0  0  0  0  0  0  0  0  0  0  0  0
   -1.2140   25.8460  -26.1720 C   0  0  0  0  0  0  0  0  0  0  0  0
   -2.5220   25.7430  -25.6950 C   0  0  0  0  0  0  0  0  0  0  0  0
   -3.4590   24.9550  -26.3670 C   0  0  0  0  0  0  0  0  0  0  0  0
   -3.0950   24.2650  -27.5370 C   0  0  0  0  0  0  0  0  0  0  0  0
   -4.0470   23.4830  -28.2840 N   0  0  0  0  0  0  0  0  0  0  0  0
   -3.8520   23.0370  -29.6640 C   0  0  0  0  0  0  0  0  0  0  0  0
   -4.2300   24.1170  -30.6420 C   0  0  0  0  0  0  0  0  0  0  0  0
   -3.8070   25.2880  -30.4510 O   0  0  0  0  0  0  0  0  0  0  0  0
   -5.0800   23.8720  -31.7700 N   0  0  0  0  0  0  0  0  0  0  0  0
   -6.5390   23.8410  -31.7660 C   0  0  0  0  0  0  0  0  0  0  0  0
   -7.0630   22.7090  -30.8770 C   0  0  0  0  0  0  0  0  0  0  0  0
   -7.3640   21.5100  -31.6700 N   0  0  0  0  0  0  0  0  0  0  0  0
   -8.5940   20.9980  -31.9420 C   0  0  0  0  0  0  0  0  0  0  0  0
   -9.8830   21.5440  -31.4070 C   0  0  0  0  0  0  0  0  0  0  0  0
   -8.4950   19.8650  -32.7450 C   0  0  0  0  0  0  0  0  0  0  0  0
   -7.1460   19.7030  -32.9720 C   0  0  0  0  0  0  0  0  0  0  0  0
   -6.4700   18.7320  -33.7070 C   0  0  0  0  0  0  0  0  0  0  0  0
   -5.0660   18.8080  -33.7610 C   0  0  0  0  0  0  0  0  0  0  0  0
   -4.3800   19.8390  -33.0860 C   0  0  0  0  0  0  0  0  0  0  0  0
   -5.0910   20.8050  -32.3520 C   0  0  0  0  0  0  0  0  0  0  0  0
   -6.4860   20.7100  -32.3130 C   0  0  0  0  0  0  0  0  0  0  0  0
   -1.7740   24.3580  -28.0000 C   0  0  0  0  0  0  0  0  0  0  0  0
    1.6517   24.5866  -25.3090 H   0  0  0  0  0  0  0  0  0  0  0  0
    0.2835   23.5986  -25.9244 H   0  0  0  0  0  0  0  0  0  0  0  0
    1.9488   22.9254  -25.9244 H   0  0  0  0  0  0  0  0  0  0  0  0
    2.4908   25.0064  -27.4577 H   0  0  0  0  0  0  0  0  0  0  0  0
    1.6732   23.5574  -28.1599 H   0  0  0  0  0  0  0  0  0  0  0  0
   -0.4842   26.4752  -25.6414 H   0  0  0  0  0  0  0  0  0  0  0  0
   -2.8163   26.2857  -24.7846 H   0  0  0  0  0  0  0  0  0  0  0  0
   -4.4854   24.8738  -25.9797 H   0  0  0  0  0  0  0  0  0  0  0  0
   -4.9200   23.1670  -27.8010 H   0  0  0  0  0  0  0  0  0  0  0  0
   -2.7939   22.7743  -29.8104 H   0  0  0  0  0  0  0  0  0  0  0  0
   -4.4960   22.1633  -29.8427 H   0  0  0  0  0  0  0  0  0  0  0  0
   -6.9179   24.8012  -31.3860 H   0  0  0  0  0  0  0  0  0  0  0  0
   -6.8881   23.6681  -32.7947 H   0  0  0  0  0  0  0  0  0  0  0  0
   -6.2997   22.4601  -30.1250 H   0  0  0  0  0  0  0  0  0  0  0  0
   -7.9895   23.0475  -30.3901 H   0  0  0  0  0  0  0  0  0  0  0  0
   -9.8575   21.5332  -30.3073 H   0  0  0  0  0  0  0  0  0  0  0  0
  -10.0185   22.5768  -31.7605 H   0  0  0  0  0  0  0  0  0  0  0  0
  -10.7191   20.9228  -31.7605 H   0  0  0  0  0  0  0  0  0  0  0  0
   -9.3164   19.2353  -33.1176 H   0  0  0  0  0  0  0  0  0  0  0  0
   -7.0159   17.9318  -34.2283 H   0  0  0  0  0  0  0  0  0  0  0  0
   -4.4998   18.0585  -34.3334 H   0  0  0  0  0  0  0  0  0  0  0  0
   -3.2821   19.8878  -33.1340 H   0  0  0  0  0  0  0  0  0  0  0  0
   -4.5646   21.6132  -31.8230 H   0  0  0  0  0  0  0  0  0  0  0  0
   -1.4765   23.8038  -28.9024 H   0  0  0  0  0  0  0  0  0  0  0  0
  1  2  1  0
  2  3  1  0
  3  4  1  0
  4  5  2  0
  5  6  1  0
  6  7  2  0
  7  8  1  0
  8  9  1  0
  9 10  1  0
 10 11  1  0
 11 12  2  0
 11 13  1  0
 13 14  1  0
 14 15  1  0
 15 16  1  0
 16 17  1  0
 17 18  1  0
 17 19  2  0
 19 20  1  0
 20 21  2  0
 21 22  1  0
 22 23  2  0
 23 24  1  0
 24 25  2  0
  8 26  2  0
 26  4  1  0
 25 16  1  0
 25 20  1  0
  1 27  1  0
  1 28  1  0
  1 29  1  0
  2 30  1  0
  2 31  1  0
  5 32  1  0
  6 33  1  0
  7 34  1  0
  9 35  1  0
 10 36  1  0
 10 37  1  0
 14 38  1  0
 14 39  1  0
 15 40  1  0
 15 41  1  0
 18 42  1  0
 18 43  1  0
 18 44  1  0
 19 45  1  0
 21 46  1  0
 22 47  1  0
 23 48  1  0
 24 49  1  0
 26 50  1  0
M  CHG  1  13  -1
M  END
>  <UniqueID>  (8) 
8

>  <SMILES>  (8) 
CCOc1cccc(NCC(=O)[N-]CCn2c(C)cc3ccccc32)c1

>  <Energy>  (8) 
75.53345910985675

>  <Genealogy>  (8) 
CCOc1cccc(NCC(=O)[N-]CCn2c(C)cc3ccccc32)c1 (protonated)
CCOc1cccc(NCC(=O)[N-]CCn2c(C)cc3ccccc32)c1 (3D coordinates assigned)
CCOc1cccc(NCC(=O)[N-]CCn2c(C)cc3ccccc32)c1 (optimized conformer: 75.53345910985675 kcal/mol)

>  <smiles>  (8) 
CCOc1cccc(NCC(=O)NCCn2c(C)cc3ccccc32)c1

>  <score_type>  (8) 
oracle

>  <origin>  (8) 
adg

>  <m_score__min__energy>  (8) 
-10.039999999999999

>  <m_primary>  (8) 
energy

$$$$
8:0
     RDKit          3D

 78 80  0  0  0  0  0  0  0  0999 V2000
   -1.1080   16.0440  -35.6850 C   0  0  0  0  0  0  0  0  0  0  0  0
   -0.2110   17.1540  -35.1360 C   0  0  0  0  0  0  0  0  0  0  0  0
   -0.7710   17.7260  -33.9010 N   0  0  0  0  0  0  0  0  0  0  0  0
   -1.1910   16.6840  -32.9380 C   0  0  0  0  0  0  0  0  0  0  0  0
   -0.1060   16.3350  -31.8860 C   0  0  0  0  0  0  0  0  0  0  0  0
    0.7750   17.5280  -31.4810 C   0  0  0  0  0  0  0  0  0  0  0  0
   -0.0270   18.7670  -31.3620 N   0  0  0  0  0  0  0  0  0  0  0  0
   -0.4770   18.9950  -29.9630 C   0  0  0  0  0  0  0  0  0  0  0  0
    0.6250   19.6860  -29.1730 C   0  0  0  0  0  0  0  0  0  0  0  0
    0.7120   19.9480  -31.8690 C   0  0  0  0  0  0  0  0  0  0  0  0
   -0.2260   20.9570  -32.5640 C   0  0  0  0  0  0  0  0  0  0  0  0
   -1.0080   20.3210  -33.6510 N   0  0  0  0  0  0  0  0  0  0  0  0
   -0.5650   20.8440  -34.9630 C   0  0  0  0  0  0  0  0  0  0  0  0
   -2.4510   20.5900  -33.4510 C   0  0  0  0  0  0  0  0  0  0  0  0
   -3.2120   19.3640  -32.9380 C   0  0  0  0  0  0  0  0  0  0  0  0
   -3.5610   18.5220  -34.0180 O   0  0  0  0  0  0  0  0  0  0  0  0
   -4.4510   17.5190  -33.5740 C   0  0  0  0  0  0  0  0  0  0  0  0
   -5.7300   17.5530  -34.4070 C   0  0  0  0  0  0  0  0  0  0  0  0
   -6.8630   17.8010  -33.5730 O   0  0  0  0  0  0  0  0  0  0  0  0
   -7.2190   19.0350  -33.0010 C   0  0  0  0  0  0  0  0  0  0  0  0
   -8.5500   19.3940  -32.7110 C   0  0  0  0  0  0  0  0  0  0  0  0
   -8.8360   20.6150  -32.0900 C   0  0  0  0  0  0  0  0  0  0  0  0
   -7.7990   21.4970  -31.7620 C   0  0  0  0  0  0  0  0  0  0  0  0
   -8.0600   22.7110  -31.1130 C   0  0  0  0  0  0  0  0  0  0  0  0
   -6.9980   23.5620  -30.7740 C   0  0  0  0  0  0  0  0  0  0  0  0
   -7.2280   24.7670  -30.0960 C   0  0  0  0  0  0  0  0  0  0  0  0
   -6.1540   25.5940  -29.7620 C   0  0  0  0  0  0  0  0  0  0  0  0
   -4.8490   25.2300  -30.1040 C   0  0  0  0  0  0  0  0  0  0  0  0
   -4.5990   24.0230  -30.7870 C   0  0  0  0  0  0  0  0  0  0  0  0
   -3.3020   23.6240  -31.1530 O   0  0  0  0  0  0  0  0  0  0  0  0
   -2.5620   22.5980  -30.5010 C   0  0  0  0  0  0  0  0  0  0  0  0
   -5.6770   23.1870  -31.1170 C   0  0  0  0  0  0  0  0  0  0  0  0
   -5.4530   22.0050  -31.7530 N   0  0  0  0  0  0  0  0  0  0  0  0
   -6.4670   21.1550  -32.0730 C   0  0  0  0  0  0  0  0  0  0  0  0
   -6.1880   19.9320  -32.6900 C   0  0  0  0  0  0  0  0  0  0  0  0
   -1.5571   15.4882  -34.8487 H   0  0  0  0  0  0  0  0  0  0  0  0
   -1.9046   16.4871  -36.3006 H   0  0  0  0  0  0  0  0  0  0  0  0
   -0.5075   15.3581  -36.3006 H   0  0  0  0  0  0  0  0  0  0  0  0
    0.7841   16.7379  -34.9201 H   0  0  0  0  0  0  0  0  0  0  0  0
   -0.1413   17.9518  -35.8901 H   0  0  0  0  0  0  0  0  0  0  0  0
   -0.0710   18.3790  -33.4700 H   0  0  0  0  0  0  0  0  0  0  0  0
   -1.6140   18.2970  -34.1550 H   0  0  0  0  0  0  0  0  0  0  0  0
   -2.0865   17.0411  -32.4083 H   0  0  0  0  0  0  0  0  0  0  0  0
   -1.3837   15.7690  -33.5174 H   0  0  0  0  0  0  0  0  0  0  0  0
   -0.6076   15.9530  -30.9846 H   0  0  0  0  0  0  0  0  0  0  0  0
    0.5583   15.5894  -32.3474 H   0  0  0  0  0  0  0  0  0  0  0  0
    1.2486   17.3122  -30.5119 H   0  0  0  0  0  0  0  0  0  0  0  0
    1.5377   17.6790  -32.2591 H   0  0  0  0  0  0  0  0  0  0  0  0
   -1.3758   19.6291  -29.9673 H   0  0  0  0  0  0  0  0  0  0  0  0
   -0.7082   18.0274  -29.4937 H   0  0  0  0  0  0  0  0  0  0  0  0
    0.4344   19.5665  -28.0963 H   0  0  0  0  0  0  0  0  0  0  0  0
    1.5957   19.2346  -29.4259 H   0  0  0  0  0  0  0  0  0  0  0  0
    0.6414   20.7564  -29.4259 H   0  0  0  0  0  0  0  0  0  0  0  0
    1.2081   20.4472  -31.0236 H   0  0  0  0  0  0  0  0  0  0  0  0
    1.4470   19.5990  -32.6093 H   0  0  0  0  0  0  0  0  0  0  0  0
   -0.9220   21.3686  -31.8182 H   0  0  0  0  0  0  0  0  0  0  0  0
    0.3930   21.7512  -33.0068 H   0  0  0  0  0  0  0  0  0  0  0  0
    0.1389   21.6750  -34.8078 H   0  0  0  0  0  0  0  0  0  0  0  0
   -0.0670   20.0423  -35.5281 H   0  0  0  0  0  0  0  0  0  0  0  0
   -1.4377   21.2033  -35.5281 H   0  0  0  0  0  0  0  0  0  0  0  0
   -2.5597   21.4040  -32.7192 H   0  0  0  0  0  0  0  0  0  0  0  0
   -2.8779   20.8632  -34.4273 H   0  0  0  0  0  0  0  0  0  0  0  0
   -2.5746   18.8082  -32.2346 H   0  0  0  0  0  0  0  0  0  0  0  0
   -4.1291   19.6963  -32.4296 H   0  0  0  0  0  0  0  0  0  0  0  0
   -3.9728   16.5341  -33.6801 H   0  0  0  0  0  0  0  0  0  0  0  0
   -4.7017   17.6990  -32.5182 H   0  0  0  0  0  0  0  0  0  0  0  0
   -5.6516   18.3525  -35.1585 H   0  0  0  0  0  0  0  0  0  0  0  0
   -5.8586   16.5791  -34.9019 H   0  0  0  0  0  0  0  0  0  0  0  0
   -9.3701   18.7099  -32.9745 H   0  0  0  0  0  0  0  0  0  0  0  0
   -9.8777   20.8825  -31.8590 H   0  0  0  0  0  0  0  0  0  0  0  0
   -9.0944   22.9957  -30.8702 H   0  0  0  0  0  0  0  0  0  0  0  0
   -8.2535   25.0607  -29.8274 H   0  0  0  0  0  0  0  0  0  0  0  0
   -6.3361   26.5375  -29.2266 H   0  0  0  0  0  0  0  0  0  0  0  0
   -4.0106   25.8905  -29.8381 H   0  0  0  0  0  0  0  0  0  0  0  0
   -2.6493   22.7190  -29.4112 H   0  0  0  0  0  0  0  0  0  0  0  0
   -2.9608   21.6156  -30.7939 H   0  0  0  0  0  0  0  0  0  0  0  0
   -1.5039   22.6664  -30.7939 H   0  0  0  0  0  0  0  0  0  0  0  0
   -5.1477   19.6708  -32.9341 H   0  0  0  0  0  0  0  0  0  0  0  0
  1  2  1  0
  2  3  1  0
  3  4  1  0
  4  5  1  0
  5  6  1  0
  6  7  1  0
  7  8  1  0
  8  9  1  0
  7 10  1  0
 10 11  1  0
 11 12  1  0
 12 13  1  0
 12 14  1  0
 14 15  1  0
 15 16  1  0
 16 17  1  0
 17 18  1  0
 18 19  1  0
 19 20  1  0
 20 21  2  0
 21 22  1  0
 22 23  2  0
 23 24  1  0
 24 25  2  0
 25 26  1  0
 26 27  2  0
 27 28  1  0
 28 29  2  0
 29 30  1  0
 30 31  1  0
 29 32  1  0
 32 33  2  0
 33 34  1  0
 34 35  2  0
 35 20  1  0
 34 23  1  0
 32 25  1  0
  1 36  1  0
  1 37  1  0
  1 38  1  0
  2 39  1  0
  2 40  1  0
  3 41  1  0
  3 42  1  0
  4 43  1  0
  4 44  1  0
  5 45  1  0
  5 46  1  0
  6 47  1  0
  6 48  1  0
  8 49  1  0
  8 50  1  0
  9 51  1  0
  9 52  1  0
  9 53  1  0
 10 54  1  0
 10 55  1  0
 11 56  1  0
 11 57  1  0
 13 58  1  0
 13 59  1  0
 13 60  1  0
 14 61  1  0
 14 62  1  0
 15 63  1  0
 15 64  1  0
 17 65  1  0
 17 66  1  0
 18 67  1  0
 18 68  1  0
 21 69  1  0
 22 70  1  0
 24 71  1  0
 26 72  1  0
 27 73  1  0
 28 74  1  0
 31 75  1  0
 31 76  1  0
 31 77  1  0
 35 78  1  0
M  CHG  1   3   1
M  END
>  <UniqueID>  (9) 
9

>  <SMILES>  (9) 
CC[NH2+]CCCN(CC)CCN(C)CCOCCOc1ccc2cc3cccc(OC)c3nc2c1

>  <Energy>  (9) 
81.27649336524398

>  <Genealogy>  (9) 
CC[NH2+]CCCN(CC)CCN(C)CCOCCOc1ccc2cc3cccc(OC)c3nc2c1 (protonated)
CC[NH2+]CCCN(CC)CCN(C)CCOCCOc1ccc2cc3cccc(OC)c3nc2c1 (3D coordinates assigned)
CC[NH2+]CCCN(CC)CCN(C)CCOCCOc1ccc2cc3cccc(OC)c3nc2c1 (optimized conformer: 81.27649336524398 kcal/mol)

>  <smiles>  (9) 
CCNCCCN(CC)CCN(C)CCOCCOc1ccc2cc3cccc(OC)c3nc2c1

>  <score_type>  (9) 
oracle

>  <origin>  (9) 
adg

>  <m_score__min__energy>  (9) 
-9.4499999999999993

>  <m_primary>  (9) 
energy

$$$$
9:0
     RDKit          3D

 47 49  0  0  0  0  0  0  0  0999 V2000
   -2.3330   22.9590  -30.1280 C   0  0  0  0  0  0  0  0  0  0  0  0
   -3.6780   23.5510  -29.7260 C   0  0  0  0  0  0  0  0  0  0  0  0
   -4.2450   24.3110  -30.8460 N   0  0  0  0  0  0  0  0  0  0  0  0
   -5.3340   25.1830  -30.3860 C   0  0  0  0  0  0  0  0  0  0  0  0
   -6.7120   24.5710  -30.7000 C   0  0  0  0  0  0  0  0  0  0  0  0
   -6.6960   23.0720  -31.0860 C   0  0  0  0  0  0  0  0  0  0  0  0
   -6.1150   22.7770  -32.4140 N   0  0  0  0  0  0  0  0  0  0  0  0
   -5.9280   21.3530  -32.6740 C   0  0  0  0  0  0  0  0  0  0  0  0
   -7.0100   20.4290  -32.5680 C   0  0  0  0  0  0  0  0  0  0  0  0
   -8.3090   20.8240  -32.1480 C   0  0  0  0  0  0  0  0  0  0  0  0
   -9.3310   19.8940  -31.9830 C   0  0  0  0  0  0  0  0  0  0  0  0
   -9.0940   18.5490  -32.2100 C   0  0  0  0  0  0  0  0  0  0  0  0
   -7.8380   18.1250  -32.6260 C   0  0  0  0  0  0  0  0  0  0  0  0
   -6.7830   19.0480  -32.8500 C   0  0  0  0  0  0  0  0  0  0  0  0
   -5.5530   18.6200  -33.3050 N   0  0  0  0  0  0  0  0  0  0  0  0
   -5.4120   17.2660  -33.8880 C   0  0  0  0  0  0  0  0  0  0  0  0
   -4.4620   19.4610  -33.2530 C   0  0  0  0  0  0  0  0  0  0  0  0
   -3.1450   18.9630  -33.4290 C   0  0  0  0  0  0  0  0  0  0  0  0
   -2.0500   19.8200  -33.4810 C   0  0  0  0  0  0  0  0  0  0  0  0
   -0.8030   19.3190  -33.6600 F   0  0  0  0  0  0  0  0  0  0  0  0
   -2.2360   21.1890  -33.3570 C   0  0  0  0  0  0  0  0  0  0  0  0
   -3.5090   21.7030  -33.1280 C   0  0  0  0  0  0  0  0  0  0  0  0
   -4.6380   20.8520  -33.0140 C   0  0  0  0  0  0  0  0  0  0  0  0
   -1.7588   22.7063  -29.2244 H   0  0  0  0  0  0  0  0  0  0  0  0
   -2.4963   22.0496  -30.7249 H   0  0  0  0  0  0  0  0  0  0  0  0
   -1.7727   23.6937  -30.7249 H   0  0  0  0  0  0  0  0  0  0  0  0
   -4.3665   22.7383  -29.4512 H   0  0  0  0  0  0  0  0  0  0  0  0
   -3.5350   24.2240  -28.8677 H   0  0  0  0  0  0  0  0  0  0  0  0
   -3.4930   24.9210  -31.2460 H   0  0  0  0  0  0  0  0  0  0  0  0
   -5.2444   25.3250  -29.2989 H   0  0  0  0  0  0  0  0  0  0  0  0
   -5.2537   26.1456  -30.9123 H   0  0  0  0  0  0  0  0  0  0  0  0
   -7.3463   24.6859  -29.8087 H   0  0  0  0  0  0  0  0  0  0  0  0
   -7.0906   25.1088  -31.5817 H   0  0  0  0  0  0  0  0  0  0  0  0
   -6.1101   22.5304  -30.3288 H   0  0  0  0  0  0  0  0  0  0  0  0
   -7.7480   22.7540  -31.1320 H   0  0  0  0  0  0  0  0  0  0  0  0
   -5.1870   23.2520  -32.4830 H   0  0  0  0  0  0  0  0  0  0  0  0
   -6.6570   23.2710  -33.1510 H   0  0  0  0  0  0  0  0  0  0  0  0
   -8.5108   21.8869  -31.9492 H   0  0  0  0  0  0  0  0  0  0  0  0
  -10.3312   20.2289  -31.6709 H   0  0  0  0  0  0  0  0  0  0  0  0
   -9.9004   17.8158  -32.0610 H   0  0  0  0  0  0  0  0  0  0  0  0
   -7.6573   17.0517  -32.7851 H   0  0  0  0  0  0  0  0  0  0  0  0
   -5.3348   16.5247  -33.0790 H   0  0  0  0  0  0  0  0  0  0  0  0
   -6.2915   17.0408  -34.5090 H   0  0  0  0  0  0  0  0  0  0  0  0
   -4.5049   17.2268  -34.5090 H   0  0  0  0  0  0  0  0  0  0  0  0
   -2.9867   17.8788  -33.5262 H   0  0  0  0  0  0  0  0  0  0  0  0
   -1.3758   21.8696  -33.4398 H   0  0  0  0  0  0  0  0  0  0  0  0
   -3.6422   22.7908  -33.0335 H   0  0  0  0  0  0  0  0  0  0  0  0
  1  2  1  0
  2  3  1  0
  3  4  1  0
  4  5  1  0
  5  6  1  0
  6  7  1  0
  7  8  1  0
  8  9  2  0
  9 10  1  0
 10 11  2  0
 11 12  1  0
 12 13  2  0
 13 14  1  0
 14 15  2  0
 15 16  1  0
 15 17  1  0
 17 18  2  0
 18 19  1  0
 19 20  1  0
 19 21  2  0
 21 22  1  0
 22 23  2  0
 23  8  1  0
 14  9  1  0
 23 17  1  0
  1 24  1  0
  1 25  1  0
  1 26  1  0
  2 27  1  0
  2 28  1  0
  3 29  1  0
  4 30  1  0
  4 31  1  0
  5 32  1  0
  5 33  1  0
  6 34  1  0
  6 35  1  0
  7 36  1  0
  7 37  1  0
 10 38  1  0
 11 39  1  0
 12 40  1  0
 13 41  1  0
 16 42  1  0
 16 43  1  0
 16 44  1  0
 18 45  1  0
 21 46  1  0
 22 47  1  0
M  CHG  2   7   1  15   1
M  END
>  <UniqueID>  (10) 
10

>  <SMILES>  (10) 
CCNCCC[NH2+]c1c2ccccc2[n+](C)c2cc(F)ccc12

>  <Energy>  (10) 
72.75905696729497

>  <Genealogy>  (10) 
CCNCCC[NH2+]c1c2ccccc2[n+](C)c2cc(F)ccc12 (protonated)
CCNCCC[NH2+]c1c2ccccc2[n+](C)c2cc(F)ccc12 (3D coordinates assigned)
CCNCCC[NH2+]c1c2ccccc2[n+](C)c2cc(F)ccc12 (optimized conformer: 72.75905696729497 kcal/mol)

>  <smiles>  (10) 
CCNCCCNc1c2ccccc2[n+](C)c2cc(F)ccc12

>  <score_type>  (10) 
oracle

>  <origin>  (10) 
adg

>  <m_score__min__energy>  (10) 
-8.25

>  <m_primary>  (10) 
energy

$$$$
10:0
     RDKit          3D

 27 27  0  0  0  0  0  0  0  0999 V2000
   -2.0270   24.4200  -28.9100 C   0  0  0  0  0  0  0  0  0  0  0  0
   -3.5040   24.3260  -29.3070 C   0  0  0  0  0  0  0  0  0  0  0  0
   -3.8660   25.2800  -30.3660 N   0  0  0  0  0  0  0  0  0  0  0  0
   -5.3170   25.4800  -30.4640 C   0  0  0  0  0  0  0  0  0  0  0  0
   -5.9150   24.4570  -31.4290 C   0  0  0  0  0  0  0  0  0  0  0  0
   -4.9810   23.4110  -31.7000 O   0  0  0  0  0  0  0  0  0  0  0  0
   -5.3010   22.1400  -32.2080 C   0  0  0  0  0  0  0  0  0  0  0  0
   -4.3710   21.3360  -32.8960 C   0  0  0  0  0  0  0  0  0  0  0  0
   -4.7500   20.0790  -33.3770 C   0  0  0  0  0  0  0  0  0  0  0  0
   -6.0510   19.6110  -33.1760 C   0  0  0  0  0  0  0  0  0  0  0  0
   -6.9780   20.4020  -32.4900 C   0  0  0  0  0  0  0  0  0  0  0  0
   -8.7560   19.7640  -32.2130 Br  0  0  0  0  0  0  0  0  0  0  0  0
   -6.6020   21.6610  -32.0080 C   0  0  0  0  0  0  0  0  0  0  0  0
   -1.9417   24.4254  -27.8133 H   0  0  0  0  0  0  0  0  0  0  0  0
   -1.4824   23.5547  -29.3158 H   0  0  0  0  0  0  0  0  0  0  0  0
   -1.5965   25.3474  -29.3158 H   0  0  0  0  0  0  0  0  0  0  0  0
   -3.7082   23.3065  -29.6661 H   0  0  0  0  0  0  0  0  0  0  0  0
   -4.1044   24.5706  -28.4183 H   0  0  0  0  0  0  0  0  0  0  0  0
   -3.5060   24.9300  -31.2850 H   0  0  0  0  0  0  0  0  0  0  0  0
   -5.7712   25.3539  -29.4701 H   0  0  0  0  0  0  0  0  0  0  0  0
   -5.5200   26.4945  -30.8375 H   0  0  0  0  0  0  0  0  0  0  0  0
   -6.8213   24.0243  -30.9802 H   0  0  0  0  0  0  0  0  0  0  0  0
   -6.1611   24.9642  -32.3735 H   0  0  0  0  0  0  0  0  0  0  0  0
   -3.3445   21.6979  -33.0551 H   0  0  0  0  0  0  0  0  0  0  0  0
   -4.0209   19.4560  -33.9158 H   0  0  0  0  0  0  0  0  0  0  0  0
   -6.3456   18.6219  -33.5567 H   0  0  0  0  0  0  0  0  0  0  0  0
   -7.3340   22.2793  -31.4678 H   0  0  0  0  0  0  0  0  0  0  0  0
  1  2  1  0
  2  3  1  0
  3  4  1  0
  4  5  1  0
  5  6  1  0
  6  7  1  0
  7  8  2  0
  8  9  1  0
  9 10  2  0
 10 11  1  0
 11 12  1  0
 11 13  2  0
 13  7  1  0
  1 14  1  0
  1 15  1  0
  1 16  1  0
  2 17  1  0
  2 18  1  0
  3 19  1  0
  4 20  1  0
  4 21  1  0
  5 22  1  0
  5 23  1  0
  8 24  1  0
  9 25  1  0
 10 26  1  0
 13 27  1  0
M  END
>  <UniqueID>  (11) 
11

>  <SMILES>  (11) 
CCNCCOc1cccc(Br)c1

>  <Energy>  (11) 
21.096796850858198

>  <Genealogy>  (11) 
CCNCCOc1cccc(Br)c1 (3D coordinates assigned)
CCNCCOc1cccc(Br)c1 (optimized conformer: 21.096796850858198 kcal/mol)

>  <smiles>  (11) 
CCNCCOc1cccc(Br)c1

>  <score_type>  (11) 
oracle

>  <origin>  (11) 
adg

>  <m_score__min__energy>  (11) 
-6.2000000000000002

>  <m_primary>  (11) 
energy

$$$$
11:0
     RDKit          3D

 69 72  0  0  0  0  0  0  0  0999 V2000
   -4.4700   23.8370  -28.3330 C   0  0  0  0  0  0  0  0  0  0  0  0
   -3.3330   24.5810  -29.0420 C   0  0  0  0  0  0  0  0  0  0  0  0
   -3.6160   24.8230  -30.4650 N   0  0  0  0  0  0  0  0  0  0  0  0
   -5.0500   25.0030  -30.7220 C   0  0  0  0  0  0  0  0  0  0  0  0
   -5.5720   23.8400  -31.5640 C   0  0  0  0  0  0  0  0  0  0  0  0
   -4.8030   22.6170  -31.3260 N   0  0  0  0  0  0  0  0  0  0  0  0
   -5.0910   21.3990  -32.0320 C   0  0  0  0  0  0  0  0  0  0  0  0
   -6.4160   20.9200  -32.0600 C   0  0  0  0  0  0  0  0  0  0  0  0
   -7.4270   21.5390  -31.2920 C   0  0  0  0  0  0  0  0  0  0  0  0
   -8.7380   21.0710  -31.3280 C   0  0  0  0  0  0  0  0  0  0  0  0
   -9.0610   19.9660  -32.1060 C   0  0  0  0  0  0  0  0  0  0  0  0
   -8.0740   19.3210  -32.8490 C   0  0  0  0  0  0  0  0  0  0  0  0
   -6.7340   19.7880  -32.8500 C   0  0  0  0  0  0  0  0  0  0  0  0
   -5.7460   19.1500  -33.5690 N   0  0  0  0  0  0  0  0  0  0  0  0
   -6.1080   18.1610  -34.6070 C   0  0  0  0  0  0  0  0  0  0  0  0
   -4.4180   19.4310  -33.3120 C   0  0  0  0  0  0  0  0  0  0  0  0
   -3.3970   18.5410  -33.7160 C   0  0  0  0  0  0  0  0  0  0  0  0
   -2.0620   18.8150  -33.4580 C   0  0  0  0  0  0  0  0  0  0  0  0
   -1.7000   19.9910  -32.8220 C   0  0  0  0  0  0  0  0  0  0  0  0
   -2.6720   20.9220  -32.4170 C   0  0  0  0  0  0  0  0  0  0  0  0
   -2.2830   22.1510  -31.8540 O   0  0  0  0  0  0  0  0  0  0  0  0
   -1.6050   22.3360  -30.6090 C   0  0  0  0  0  0  0  0  0  0  0  0
   -2.2100   21.5510  -29.4110 C   0  0  0  0  0  0  0  0  0  0  0  0
   -1.2530   21.0430  -28.3680 N   0  0  0  0  0  0  0  0  0  0  0  0
   -0.0980   21.9690  -28.2470 C   0  0  0  0  0  0  0  0  0  0  0  0
   -1.9650   21.0320  -27.0400 C   0  0  0  0  0  0  0  0  0  0  0  0
   -2.7350   19.7270  -26.7850 C   0  0  0  0  0  0  0  0  0  0  0  0
   -1.7730   18.5300  -26.7180 C   0  0  0  0  0  0  0  0  0  0  0  0
   -0.4870   18.7690  -27.5250 C   0  0  0  0  0  0  0  0  0  0  0  0
   -0.7650   19.6690  -28.7410 C   0  0  0  0  0  0  0  0  0  0  0  0
   -4.0550   20.6110  -32.5960 C   0  0  0  0  0  0  0  0  0  0  0  0
   -4.3406   23.9217  -27.2439 H   0  0  0  0  0  0  0  0  0  0  0  0
   -5.4345   24.2792  -28.6231 H   0  0  0  0  0  0  0  0  0  0  0  0
   -4.4510   22.7761  -28.6231 H   0  0  0  0  0  0  0  0  0  0  0  0
   -3.1811   25.5496  -28.5434 H   0  0  0  0  0  0  0  0  0  0  0  0
   -2.4344   23.9493  -28.9838 H   0  0  0  0  0  0  0  0  0  0  0  0
   -3.1000   25.6790  -30.7810 H   0  0  0  0  0  0  0  0  0  0  0  0
   -5.5919   25.0339  -29.7652 H   0  0  0  0  0  0  0  0  0  0  0  0
   -5.2071   25.9460  -31.2661 H   0  0  0  0  0  0  0  0  0  0  0  0
   -6.6252   23.6559  -31.3052 H   0  0  0  0  0  0  0  0  0  0  0  0
   -5.4707   24.1100  -32.6255 H   0  0  0  0  0  0  0  0  0  0  0  0
   -3.9160   22.6760  -30.7770 H   0  0  0  0  0  0  0  0  0  0  0  0
   -7.1755   22.4016  -30.6575 H   0  0  0  0  0  0  0  0  0  0  0  0
   -9.5184   21.5764  -30.7402 H   0  0  0  0  0  0  0  0  0  0  0  0
  -10.0978   19.5996  -32.1355 H   0  0  0  0  0  0  0  0  0  0  0  0
   -8.3382   18.4349  -33.4448 H   0  0  0  0  0  0  0  0  0  0  0  0
   -6.4480   17.2321  -34.1257 H   0  0  0  0  0  0  0  0  0  0  0  0
   -6.9161   18.5663  -35.2337 H   0  0  0  0  0  0  0  0  0  0  0  0
   -5.2292   17.9489  -35.2337 H   0  0  0  0  0  0  0  0  0  0  0  0
   -3.6659   17.6145  -34.2445 H   0  0  0  0  0  0  0  0  0  0  0  0
   -1.2871   18.0950  -33.7599 H   0  0  0  0  0  0  0  0  0  0  0  0
   -0.6369   20.1992  -32.6312 H   0  0  0  0  0  0  0  0  0  0  0  0
   -0.5613   22.0130  -30.7370 H   0  0  0  0  0  0  0  0  0  0  0  0
   -1.7033   23.4029  -30.3598 H   0  0  0  0  0  0  0  0  0  0  0  0
   -2.9259   22.2169  -28.9069 H   0  0  0  0  0  0  0  0  0  0  0  0
   -2.6487   20.6465  -29.8575 H   0  0  0  0  0  0  0  0  0  0  0  0
    0.1212   22.1447  -27.1835 H   0  0  0  0  0  0  0  0  0  0  0  0
    0.7819   21.5233  -28.7340 H   0  0  0  0  0  0  0  0  0  0  0  0
   -0.3417   22.9248  -28.7340 H   0  0  0  0  0  0  0  0  0  0  0  0
   -1.2199   21.1617  -26.2412 H   0  0  0  0  0  0  0  0  0  0  0  0
   -2.6989   21.8512  -27.0522 H   0  0  0  0  0  0  0  0  0  0  0  0
   -3.2766   19.8083  -25.8310 H   0  0  0  0  0  0  0  0  0  0  0  0
   -3.4407   19.5663  -27.6133 H   0  0  0  0  0  0  0  0  0  0  0  0
   -1.5029   18.3518  -25.6667 H   0  0  0  0  0  0  0  0  0  0  0  0
   -2.2870   17.6606  -27.1538 H   0  0  0  0  0  0  0  0  0  0  0  0
    0.2589   19.2554  -26.8792 H   0  0  0  0  0  0  0  0  0  0  0  0
   -0.1096   17.7996  -27.8826 H   0  0  0  0  0  0  0  0  0  0  0  0
    0.1661   19.7741  -29.3172 H   0  0  0  0  0  0  0  0  0  0  0  0
   -1.5633   19.1882  -29.3254 H   0  0  0  0  0  0  0  0  0  0  0  0
  1  2  1  0
  2  3  1  0
  3  4  1  0
  4  5  1  0
  5  6  1  0
  6  7  1  0
  7  8  2  0
  8  9  1  0
  9 10  2  0
 10 11  1  0
 11 12  2  0
 12 13  1  0
 13 14  2  0
 14 15  1  0
 14 16  1  0
 16 17  2  0
 17 18  1  0
 18 19  2  0
 19 20  1  0
 20 21  1  0
 21 22  1  0
 22 23  1  0
 23 24  1  0
 24 25  1  0
 24 26  1  0
 26 27  1  0
 27 28  1  0
 28 29  1  0
 29 30  1  0
 20 31  2  0
 31  7  1  0
 13  8  1  0
 31 16  1  0
 30 24  1  0
  1 32  1  0
  1 33  1  0
  1 34  1  0
  2 35  1  0
  2 36  1  0
  3 37  1  0
  4 38  1  0
  4 39  1  0
  5 40  1  0
  5 41  1  0
  6 42  1  0
  9 43  1  0
 10 44  1  0
 11 45  1  0
 12 46  1  0
 15 47  1  0
 15 48  1  0
 15 49  1  0
 17 50  1  0
 18 51  1  0
 19 52  1  0
 22 53  1  0
 22 54  1  0
 23 55  1  0
 23 56  1  0
 25 57  1  0
 25 58  1  0
 25 59  1  0
 26 60  1  0
 26 61  1  0
 27 62  1  0
 27 63  1  0
 28 64  1  0
 28 65  1  0
 29 66  1  0
 29 67  1  0
 30 68  1  0
 30 69  1  0
M  CHG  2  14   1  24   1
M  END
>  <UniqueID>  (12) 
12

>  <SMILES>  (12) 
CCNCCNc1c2ccccc2[n+](C)c2cccc(OCC[N+]3(C)CCCCC3)c12

>  <Energy>  (12) 
115.63875797410883

>  <Genealogy>  (12) 
CCNCCNc1c2ccccc2[n+](C)c2cccc(OCC[N+]3(C)CCCCC3)c12 (3D coordinates assigned)
CCNCCNc1c2ccccc2[n+](C)c2cccc(OCC[N+]3(C)CCCCC3)c12 (nonaromatic ring conformer: 115.63875797410883 kcal/mol)

>  <smiles>  (12) 
CCNCCNc1c2ccccc2[n+](C)c2cccc(OCC[N+]3(C)CCCCC3)c12

>  <score_type>  (12) 
oracle

>  <origin>  (12) 
adg

>  <m_score__min__energy>  (12) 
-8.5099999999999998

>  <m_primary>  (12) 
energy

$$$$
12:0
     RDKit          3D

 68 70  0  0  0  0  0  0  0  0999 V2000
   -2.1150   24.9130  -28.6610 C   0  0  0  0  0  0  0  0  0  0  0  0
   -3.5610   24.5270  -29.0020 C   0  0  0  0  0  0  0  0  0  0  0  0
   -3.8560   24.5440  -30.4540 N   0  0  0  0  0  0  0  0  0  0  0  0
   -5.0760   25.3230  -30.7670 C   0  0  0  0  0  0  0  0  0  0  0  0
   -6.1380   25.1500  -29.6860 C   0  0  0  0  0  0  0  0  0  0  0  0
   -3.8460   23.1890  -31.0580 C   0  0  0  0  0  0  0  0  0  0  0  0
   -3.0720   22.2060  -30.1730 C   0  0  0  0  0  0  0  0  0  0  0  0
   -1.6850   22.2300  -30.4600 O   0  0  0  0  0  0  0  0  0  0  0  0
   -0.9170   21.7040  -29.3920 C   0  0  0  0  0  0  0  0  0  0  0  0
   -0.5790   20.2500  -29.6910 C   0  0  0  0  0  0  0  0  0  0  0  0
   -0.9120   19.9730  -31.0320 O   0  0  0  0  0  0  0  0  0  0  0  0
    0.2500   19.6380  -31.7570 C   0  0  0  0  0  0  0  0  0  0  0  0
    0.2880   20.4360  -33.0580 C   0  0  0  0  0  0  0  0  0  0  0  0
   -0.7070   21.5200  -33.0200 N   0  0  0  0  0  0  0  0  0  0  0  0
   -1.9130   21.2310  -33.8160 C   0  0  0  0  0  0  0  0  0  0  0  0
   -3.0840   20.6900  -32.9630 C   0  0  0  0  0  0  0  0  0  0  0  0
   -4.3850   21.1190  -33.4860 N   0  0  0  0  0  0  0  0  0  0  0  0
   -5.6110   20.4490  -33.1470 C   0  0  0  0  0  0  0  0  0  0  0  0
   -5.8270   19.0750  -33.3990 C   0  0  0  0  0  0  0  0  0  0  0  0
   -4.9100   18.3260  -34.1620 C   0  0  0  0  0  0  0  0  0  0  0  0
   -5.1360   16.9760  -34.4220 C   0  0  0  0  0  0  0  0  0  0  0  0
   -6.2910   16.3570  -33.9570 C   0  0  0  0  0  0  0  0  0  0  0  0
   -7.2370   17.0830  -33.2330 C   0  0  0  0  0  0  0  0  0  0  0  0
   -7.0310   18.4530  -32.9310 C   0  0  0  0  0  0  0  0  0  0  0  0
   -7.9790   19.1940  -32.2390 N   0  0  0  0  0  0  0  0  0  0  0  0
   -9.1500   18.5430  -31.6190 C   0  0  0  0  0  0  0  0  0  0  0  0
   -7.8250   20.5580  -32.1600 C   0  0  0  0  0  0  0  0  0  0  0  0
   -8.7720   21.4830  -31.6730 C   0  0  0  0  0  0  0  0  0  0  0  0
   -8.3230   22.7980  -31.7050 C   0  0  0  0  0  0  0  0  0  0  0  0
   -6.7660   22.8270  -32.3460 S   0  0  0  0  0  0  0  0  0  0  0  0
   -6.6590   21.1690  -32.5900 C   0  0  0  0  0  0  0  0  0  0  0  0
   -1.9922   24.9458  -27.5684 H   0  0  0  0  0  0  0  0  0  0  0  0
   -1.4266   24.1672  -29.0851 H   0  0  0  0  0  0  0  0  0  0  0  0
   -1.8899   25.9027  -29.0851 H   0  0  0  0  0  0  0  0  0  0  0  0
   -3.7483   23.5120  -28.6215 H   0  0  0  0  0  0  0  0  0  0  0  0
   -4.2132   25.2784  -28.5329 H   0  0  0  0  0  0  0  0  0  0  0  0
   -4.8114   26.3881  -30.8419 H   0  0  0  0  0  0  0  0  0  0  0  0
   -5.4872   24.9557  -31.7188 H   0  0  0  0  0  0  0  0  0  0  0  0
   -5.6678   25.2266  -28.6945 H   0  0  0  0  0  0  0  0  0  0  0  0
   -6.9004   25.9358  -29.7919 H   0  0  0  0  0  0  0  0  0  0  0  0
   -6.6116   24.1629  -29.7919 H   0  0  0  0  0  0  0  0  0  0  0  0
   -4.8818   22.8358  -31.1693 H   0  0  0  0  0  0  0  0  0  0  0  0
   -3.3532   23.2436  -32.0399 H   0  0  0  0  0  0  0  0  0  0  0  0
   -3.2235   22.4791  -29.1183 H   0  0  0  0  0  0  0  0  0  0  0  0
   -3.4482   21.1919  -30.3730 H   0  0  0  0  0  0  0  0  0  0  0  0
    0.0117   22.2838  -29.2856 H   0  0  0  0  0  0  0  0  0  0  0  0
   -1.4918   21.7662  -28.4562 H   0  0  0  0  0  0  0  0  0  0  0  0
    0.4966   20.0807  -29.5346 H   0  0  0  0  0  0  0  0  0  0  0  0
   -1.1473   19.5886  -29.0204 H   0  0  0  0  0  0  0  0  0  0  0  0
    1.1391   19.8766  -31.1548 H   0  0  0  0  0  0  0  0  0  0  0  0
    0.2401   18.5625  -31.9876 H   0  0  0  0  0  0  0  0  0  0  0  0
    1.2909   20.8681  -33.1898 H   0  0  0  0  0  0  0  0  0  0  0  0
    0.0545   19.7644  -33.8973 H   0  0  0  0  0  0  0  0  0  0  0  0
   -0.9810   21.7120  -32.0270 H   0  0  0  0  0  0  0  0  0  0  0  0
   -2.2381   22.1588  -34.3095 H   0  0  0  0  0  0  0  0  0  0  0  0
   -1.6477   20.4502  -34.5440 H   0  0  0  0  0  0  0  0  0  0  0  0
   -3.0457   19.5907  -32.9628 H   0  0  0  0  0  0  0  0  0  0  0  0
   -2.9772   21.0906  -31.9441 H   0  0  0  0  0  0  0  0  0  0  0  0
   -4.4450   22.0560  -33.9420 H   0  0  0  0  0  0  0  0  0  0  0  0
   -4.0057   18.8122  -34.5568 H   0  0  0  0  0  0  0  0  0  0  0  0
   -4.3980   16.3977  -34.9973 H   0  0  0  0  0  0  0  0  0  0  0  0
   -6.4597   15.2893  -34.1611 H   0  0  0  0  0  0  0  0  0  0  0  0
   -8.1565   16.5852  -32.8913 H   0  0  0  0  0  0  0  0  0  0  0  0
   -9.0602   18.5929  -30.5238 H   0  0  0  0  0  0  0  0  0  0  0  0
  -10.0676   19.0605  -31.9356 H   0  0  0  0  0  0  0  0  0  0  0  0
   -9.1948   17.4905  -31.9356 H   0  0  0  0  0  0  0  0  0  0  0  0
   -9.7669   21.1925  -31.3045 H   0  0  0  0  0  0  0  0  0  0  0  0
   -8.8919   23.6766  -31.3668 H   0  0  0  0  0  0  0  0  0  0  0  0
  1  2  1  0
  2  3  1  0
  3  4  1  0
  4  5  1  0
  3  6  1  0
  6  7  1  0
  7  8  1  0
  8  9  1  0
  9 10  1  0
 10 11  1  0
 11 12  1  0
 12 13  1  0
 13 14  1  0
 14 15  1  0
 15 16  1  0
 16 17  1  0
 17 18  1  0
 18 19  2  0
 19 20  1  0
 20 21  2  0
 21 22  1  0
 22 23  2  0
 23 24  1  0
 24 25  2  0
 25 26  1  0
 25 27  1  0
 27 28  1  0
 28 29  2  0
 29 30  1  0
 30 31  1  0
 31 18  1  0
 24 19  1  0
 31 27  2  0
  1 32  1  0
  1 33  1  0
  1 34  1  0
  2 35  1  0
  2 36  1  0
  4 37  1  0
  4 38  1  0
  5 39  1  0
  5 40  1  0
  5 41  1  0
  6 42  1  0
  6 43  1  0
  7 44  1  0
  7 45  1  0
  9 46  1  0
  9 47  1  0
 10 48  1  0
 10 49  1  0
 12 50  1  0
 12 51  1  0
 13 52  1  0
 13 53  1  0
 14 54  1  0
 15 55  1  0
 15 56  1  0
 16 57  1  0
 16 58  1  0
 17 59  1  0
 20 60  1  0
 21 61  1  0
 22 62  1  0
 23 63  1  0
 26 64  1  0
 26 65  1  0
 26 66  1  0
 28 67  1  0
 29 68  1  0
M  CHG  1  25   1
M  END
>  <UniqueID>  (13) 
13

>  <SMILES>  (13) 
CCN(CC)CCOCCOCCNCCNc1c2ccccc2[n+](C)c2ccsc12

>  <Energy>  (13) 
113.69545386726395

>  <Genealogy>  (13) 
CCN(CC)CCOCCOCCNCCNc1c2ccccc2[n+](C)c2ccsc12 (3D coordinates assigned)
CCN(CC)CCOCCOCCNCCNc1c2ccccc2[n+](C)c2ccsc12 (optimized conformer: 113.69545386726395 kcal/mol)

>  <smiles>  (13) 
CCN(CC)CCOCCOCCNCCNc1c2ccccc2[n+](C)c2ccsc12

>  <score_type>  (13) 
oracle

>  <origin>  (13) 
adg

>  <m_score__min__energy>  (13) 
-8.8300000000000001

>  <m_primary>  (13) 
energy

$$$$
13:0
     RDKit          3D

 50 53  0  0  0  0  0  0  0  0999 V2000
   -6.4290   25.2680  -29.7470 C   0  0  0  0  0  0  0  0  0  0  0  0
   -5.4750   25.2500  -30.9390 C   0  0  0  0  0  0  0  0  0  0  0  0
   -4.0760   25.2830  -30.4830 N   0  0  0  0  0  0  0  0  0  0  0  0
   -3.9050   24.5300  -29.2310 C   0  0  0  0  0  0  0  0  0  0  0  0
   -2.7440   23.5350  -29.3770 C   0  0  0  0  0  0  0  0  0  0  0  0
   -3.1900   22.1890  -29.9670 C   0  0  0  0  0  0  0  0  0  0  0  0
   -3.8900   22.3620  -31.2430 N   0  0  0  0  0  0  0  0  0  0  0  0
   -4.0600   21.2900  -32.1810 C   0  0  0  0  0  0  0  0  0  0  0  0
   -2.9620   20.6970  -32.8490 C   0  0  0  0  0  0  0  0  0  0  0  0
   -1.6650   21.2370  -32.7260 C   0  0  0  0  0  0  0  0  0  0  0  0
   -0.5880   20.6650  -33.3990 C   0  0  0  0  0  0  0  0  0  0  0  0
   -0.7830   19.5620  -34.2250 C   0  0  0  0  0  0  0  0  0  0  0  0
   -2.0580   19.0200  -34.3880 C   0  0  0  0  0  0  0  0  0  0  0  0
   -3.1750   19.5610  -33.7050 C   0  0  0  0  0  0  0  0  0  0  0  0
   -4.4480   19.0370  -33.8680 N   0  0  0  0  0  0  0  0  0  0  0  0
   -4.6780   17.8040  -34.6450 C   0  0  0  0  0  0  0  0  0  0  0  0
   -5.5050   19.7090  -33.3090 C   0  0  0  0  0  0  0  0  0  0  0  0
   -6.8210   19.4100  -33.4540 N   0  0  0  0  0  0  0  0  0  0  0  0
   -7.4740   20.3210  -32.7070 C   0  0  0  0  0  0  0  0  0  0  0  0
   -8.8540   20.4240  -32.5380 C   0  0  0  0  0  0  0  0  0  0  0  0
   -9.3440   21.4550  -31.7170 C   0  0  0  0  0  0  0  0  0  0  0  0
   -8.4550   22.3550  -31.0930 C   0  0  0  0  0  0  0  0  0  0  0  0
   -7.0670   22.2340  -31.2810 C   0  0  0  0  0  0  0  0  0  0  0  0
   -6.6010   21.1970  -32.0950 C   0  0  0  0  0  0  0  0  0  0  0  0
   -5.3310   20.8080  -32.4890 C   0  0  0  0  0  0  0  0  0  0  0  0
   -5.8486   25.2570  -28.8126 H   0  0  0  0  0  0  0  0  0  0  0  0
   -7.0459   26.1779  -29.7848 H   0  0  0  0  0  0  0  0  0  0  0  0
   -7.0798   24.3820  -29.7848 H   0  0  0  0  0  0  0  0  0  0  0  0
   -5.6434   24.3332  -31.5231 H   0  0  0  0  0  0  0  0  0  0  0  0
   -5.6667   26.1373  -31.5602 H   0  0  0  0  0  0  0  0  0  0  0  0
   -3.4940   24.8090  -31.2160 H   0  0  0  0  0  0  0  0  0  0  0  0
   -3.6855   25.2297  -28.4111 H   0  0  0  0  0  0  0  0  0  0  0  0
   -4.8306   23.9784  -29.0095 H   0  0  0  0  0  0  0  0  0  0  0  0
   -1.9839   23.9753  -30.0391 H   0  0  0  0  0  0  0  0  0  0  0  0
   -2.3430   23.3412  -28.3712 H   0  0  0  0  0  0  0  0  0  0  0  0
   -2.3027   21.5595  -30.1296 H   0  0  0  0  0  0  0  0  0  0  0  0
   -3.8839   21.7161  -29.2565 H   0  0  0  0  0  0  0  0  0  0  0  0
   -4.2490   23.3100  -31.4970 H   0  0  0  0  0  0  0  0  0  0  0  0
   -1.5020   22.1203  -32.0911 H   0  0  0  0  0  0  0  0  0  0  0  0
    0.4206   21.0867  -33.2772 H   0  0  0  0  0  0  0  0  0  0  0  0
    0.0729   19.1152  -34.7521 H   0  0  0  0  0  0  0  0  0  0  0  0
   -2.1983   18.1587  -35.0576 H   0  0  0  0  0  0  0  0  0  0  0  0
   -4.8353   16.9607  -33.9565 H   0  0  0  0  0  0  0  0  0  0  0  0
   -5.5680   17.9307  -35.2789 H   0  0  0  0  0  0  0  0  0  0  0  0
   -3.8022   17.6013  -35.2789 H   0  0  0  0  0  0  0  0  0  0  0  0
   -7.2680   18.6660  -34.0320 H   0  0  0  0  0  0  0  0  0  0  0  0
   -9.5392   19.7196  -33.0323 H   0  0  0  0  0  0  0  0  0  0  0  0
  -10.4277   21.5604  -31.5603 H   0  0  0  0  0  0  0  0  0  0  0  0
   -8.8510   23.1581  -30.4541 H   0  0  0  0  0  0  0  0  0  0  0  0
   -6.3678   22.9349  -30.8016 H   0  0  0  0  0  0  0  0  0  0  0  0
  1  2  1  0
  2  3  1  0
  3  4  1  0
  4  5  1  0
  5  6  1  0
  6  7  1  0
  7  8  1  0
  8  9  2  0
  9 10  1  0
 10 11  2  0
 11 12  1  0
 12 13  2  0
 13 14  1  0
 14 15  2  0
 15 16  1  0
 15 17  1  0
 17 18  1  0
 18 19  1  0
 19 20  2  0
 20 21  1  0
 21 22  2  0
 22 23  1  0
 23 24  2  0
 24 25  1  0
 25  8  1  0
 14  9  1  0
 25 17  2  0
 24 19  1  0
  1 26  1  0
  1 27  1  0
  1 28  1  0
  2 29  1  0
  2 30  1  0
  3 31  1  0
  4 32  1  0
  4 33  1  0
  5 34  1  0
  5 35  1  0
  6 36  1  0
  6 37  1  0
  7 38  1  0
 10 39  1  0
 11 40  1  0
 12 41  1  0
 13 42  1  0
 16 43  1  0
 16 44  1  0
 16 45  1  0
 18 46  1  0
 20 47  1  0
 21 48  1  0
 22 49  1  0
 23 50  1  0
M  CHG  1  15   1
M  END
>  <UniqueID>  (14) 
14

>  <SMILES>  (14) 
CCNCCCNc1c2ccccc2[n+](C)c2[nH]c3ccccc3c12

>  <Energy>  (14) 
103.87167500087934

>  <Genealogy>  (14) 
CCNCCCNc1c2ccccc2[n+](C)c2[nH]c3ccccc3c12 (3D coordinates assigned)
CCNCCCNc1c2ccccc2[n+](C)c2[nH]c3ccccc3c12 (optimized conformer: 103.87167500087934 kcal/mol)

>  <smiles>  (14) 
CCNCCCNc1c2ccccc2[n+](C)c2[nH]c3ccccc3c12

>  <score_type>  (14) 
oracle

>  <origin>  (14) 
adg

>  <m_score__min__energy>  (14) 
-9.1699999999999999

>  <m_primary>  (14) 
energy

$$$$
14:0
     RDKit          3D

 66 68  0  0  1  0  0  0  0  0999 V2000
   -6.7190   17.8460  -31.3780 C   0  0  0  0  0  0  0  0  0  0  0  0
   -7.2050   17.4760  -32.7710 C   0  0  0  0  0  0  0  0  0  0  0  0
   -6.3920   17.9210  -33.8330 N   0  0  0  0  0  0  0  0  0  0  0  0
   -5.4680   17.0000  -34.3950 C   0  0  0  0  0  0  0  0  0  0  0  0
   -5.7840   15.6170  -33.8190 C   0  0  0  0  0  0  0  0  0  0  0  0
   -6.0920   19.3030  -33.9410 C   0  0  0  0  0  0  0  0  0  0  0  0
   -4.8250   19.6060  -33.2120 C   0  0  0  0  0  0  0  0  0  0  0  0
   -3.6740   19.5600  -33.9360 O   0  0  0  0  0  0  0  0  0  0  0  0
   -2.7620   20.5420  -33.7830 C   0  0  0  0  0  0  0  0  0  0  0  0
   -3.0290   21.5590  -32.6940 C   0  0  0  0  0  0  0  0  0  0  0  0
   -2.8950   21.0760  -31.4170 O   0  0  0  0  0  0  0  0  0  0  0  0
   -1.7560   20.3580  -31.2590 C   0  0  0  0  0  0  0  0  0  0  0  0
   -0.7110   20.7980  -30.2820 C   0  0  0  0  0  0  0  0  0  0  0  0
   -1.1560   21.5500  -29.1970 N   0  0  0  0  0  0  0  0  0  0  0  0
   -1.5160   22.7060  -29.0670 C   0  0  0  0  0  0  0  0  0  0  0  0
   -2.6460   23.1270  -29.6940 N   0  0  0  0  0  0  0  0  0  0  0  0
   -3.0840   24.3960  -29.6500 C   0  0  0  0  0  0  0  0  0  0  0  0
   -4.3340   24.7870  -30.3400 C   0  0  0  0  0  0  0  0  0  0  0  0
   -5.5170   24.4600  -29.8530 C   0  0  0  0  0  0  0  0  0  0  0  0
   -6.3840   23.4660  -30.4640 C   0  0  0  0  0  0  0  0  0  0  0  0
   -7.4550   22.8790  -29.8000 C   0  0  0  0  0  0  0  0  0  0  0  0
   -8.2680   21.9280  -30.4090 C   0  0  0  0  0  0  0  0  0  0  0  0
   -8.0410   21.5300  -31.6980 C   0  0  0  0  0  0  0  0  0  0  0  0
   -9.0780   20.3290  -32.4230 Cl  0  0  0  0  0  0  0  0  0  0  0  0
   -6.9870   22.0980  -32.3740 C   0  0  0  0  0  0  0  0  0  0  0  0
   -6.1860   23.0420  -31.7630 C   0  0  0  0  0  0  0  0  0  0  0  0
   -2.3710   25.2970  -28.9500 N   0  0  0  0  0  0  0  0  0  0  0  0
   -1.2510   24.9060  -28.3180 C   0  0  0  0  0  0  0  0  0  0  0  0
   -0.5650   25.8670  -27.6090 C   0  0  0  0  0  0  0  0  0  0  0  0
    0.5760   25.4410  -26.9580 C   0  0  0  0  0  0  0  0  0  0  0  0
    1.0670   24.1760  -26.9580 C   0  0  0  0  0  0  0  0  0  0  0  0
    0.3370   23.2180  -27.6940 C   0  0  0  0  0  0  0  0  0  0  0  0
   -0.7840   23.6060  -28.3490 C   0  0  0  0  0  0  0  0  0  0  0  0
   -7.3576   17.3599  -30.6257 H   0  0  0  0  0  0  0  0  0  0  0  0
   -5.6799   17.5082  -31.2504 H   0  0  0  0  0  0  0  0  0  0  0  0
   -6.7680   18.9375  -31.2504 H   0  0  0  0  0  0  0  0  0  0  0  0
   -7.2679   16.3793  -32.8283 H   0  0  0  0  0  0  0  0  0  0  0  0
   -8.1736   17.9816  -32.8983 H   0  0  0  0  0  0  0  0  0  0  0  0
   -5.5738   16.9834  -35.4898 H   0  0  0  0  0  0  0  0  0  0  0  0
   -4.4356   17.2925  -34.1530 H   0  0  0  0  0  0  0  0  0  0  0  0
   -5.7728   15.6662  -32.7202 H   0  0  0  0  0  0  0  0  0  0  0  0
   -6.7787   15.2957  -34.1615 H   0  0  0  0  0  0  0  0  0  0  0  0
   -5.0275   14.8956  -34.1615 H   0  0  0  0  0  0  0  0  0  0  0  0
   -5.9750   19.5691  -35.0019 H   0  0  0  0  0  0  0  0  0  0  0  0
   -6.9127   19.8875  -33.4995 H   0  0  0  0  0  0  0  0  0  0  0  0
   -4.9154   20.6199  -32.7951 H   0  0  0  0  0  0  0  0  0  0  0  0
   -4.7258   18.8064  -32.4632 H   0  0  0  0  0  0  0  0  0  0  0  0
   -1.7946   20.0663  -33.5640 H   0  0  0  0  0  0  0  0  0  0  0  0
   -2.7934   21.1125  -34.7230 H   0  0  0  0  0  0  0  0  0  0  0  0
   -2.3223   22.3922  -32.8217 H   0  0  0  0  0  0  0  0  0  0  0  0
   -4.0800   21.8646  -32.8033 H   0  0  0  0  0  0  0  0  0  0  0  0
   -2.0611   19.3446  -30.9593 H   0  0  0  0  0  0  0  0  0  0  0  0
   -1.2525   20.4753  -32.2299 H   0  0  0  0  0  0  0  0  0  0  0  0
   -0.2218   19.8959  -29.8860 H   0  0  0  0  0  0  0  0  0  0  0  0
   -0.0446   21.4660  -30.8474 H   0  0  0  0  0  0  0  0  0  0  0  0
   -3.2310   22.4600  -30.2480 H   0  0  0  0  0  0  0  0  0  0  0  0
   -4.2762   25.3611  -31.2765 H   0  0  0  0  0  0  0  0  0  0  0  0
   -5.8637   24.9650  -28.9393 H   0  0  0  0  0  0  0  0  0  0  0  0
   -7.6661   23.1752  -28.7619 H   0  0  0  0  0  0  0  0  0  0  0  0
   -9.1053   21.4899  -29.8459 H   0  0  0  0  0  0  0  0  0  0  0  0
   -6.7800   21.7974  -33.4117 H   0  0  0  0  0  0  0  0  0  0  0  0
   -5.3533   23.4755  -32.3364 H   0  0  0  0  0  0  0  0  0  0  0  0
   -0.9057   26.9119  -27.5639 H   0  0  0  0  0  0  0  0  0  0  0  0
    1.1377   26.1955  -26.3878 H   0  0  0  0  0  0  0  0  0  0  0  0
    1.9852   23.9112  -26.4133 H   0  0  0  0  0  0  0  0  0  0  0  0
    0.6733   22.1715  -27.7353 H   0  0  0  0  0  0  0  0  0  0  0  0
  1  2  1  0
  2  3  1  0
  3  4  1  0
  4  5  1  0
  3  6  1  0
  6  7  1  0
  7  8  1  0
  8  9  1  0
  9 10  1  0
 10 11  1  0
 11 12  1  0
 12 13  1  0
 13 14  1  0
 14 15  2  0
 15 16  1  0
 16 17  1  0
 17 18  1  0
 18 19  2  0
 19 20  1  0
 20 21  2  0
 21 22  1  0
 22 23  2  0
 23 24  1  0
 23 25  1  0
 25 26  2  0
 17 27  2  0
 27 28  1  0
 28 29  2  0
 29 30  1  0
 30 31  2  0
 31 32  1  0
 32 33  2  0
 33 15  1  0
 26 20  1  0
 33 28  1  0
  1 34  1  0
  1 35  1  0
  1 36  1  0
  2 37  1  0
  2 38  1  0
  4 39  1  0
  4 40  1  0
  5 41  1  0
  5 42  1  0
  5 43  1  0
  6 44  1  0
  6 45  1  0
  7 46  1  0
  7 47  1  0
  9 48  1  0
  9 49  1  0
 10 50  1  0
 10 51  1  0
 12 52  1  0
 12 53  1  0
 13 54  1  0
 13 55  1  0
 16 56  1  0
 18 57  1  0
 19 58  1  0
 21 59  1  0
 22 60  1  0
 25 61  1  0
 26 62  1  0
 29 63  1  0
 30 64  1  0
 31 65  1  0
 32 66  1  0
M  END
>  <smiles>  (15) 
CCN(CC)CCOCCOCCN=c1[nH]c(C=Cc2ccc(Cl)cc2)nc2ccccc12

>  <score_type>  (15) 
oracle

>  <origin>  (15) 
adg

>  <m_score__min__energy>  (15) 
-9.6899999999999995

>  <m_primary>  (15) 
energy

$$$$
15:0
     RDKit          3D

 41 43  0  0  0  0  0  0  0  0999 V2000
   -0.8020   22.7330  -27.9350 C   0  0  0  0  0  0  0  0  0  0  0  0
   -2.2600   22.8250  -28.0550 N   0  0  0  0  0  0  0  0  0  0  0  0
   -3.1110   21.7700  -27.4920 C   0  0  0  0  0  0  0  0  0  0  0  0
   -2.8380   23.9350  -28.7750 C   0  0  0  0  0  0  0  0  0  0  0  0
   -2.0800   24.7480  -29.3690 O   0  0  0  0  0  0  0  0  0  0  0  0
   -4.2650   24.1270  -28.8180 N   0  0  0  0  0  0  0  0  0  0  0  0
   -4.9230   24.9870  -29.7640 C   0  0  0  0  0  0  0  0  0  0  0  0
   -4.2560   25.6780  -30.5800 O   0  0  0  0  0  0  0  0  0  0  0  0
   -6.4220   25.0580  -29.8060 C   0  0  0  0  0  0  0  0  0  0  0  0
   -6.9090   24.5730  -31.0580 O   0  0  0  0  0  0  0  0  0  0  0  0
   -6.7790   23.2550  -31.5260 C   0  0  0  0  0  0  0  0  0  0  0  0
   -5.6140   22.9120  -32.2140 C   0  0  0  0  0  0  0  0  0  0  0  0
   -5.4190   21.6140  -32.6950 C   0  0  0  0  0  0  0  0  0  0  0  0
   -6.4020   20.6180  -32.4950 C   0  0  0  0  0  0  0  0  0  0  0  0
   -7.5860   20.9740  -31.8020 C   0  0  0  0  0  0  0  0  0  0  0  0
   -7.7690   22.2780  -31.3300 C   0  0  0  0  0  0  0  0  0  0  0  0
   -8.5430   20.0800  -31.5850 O   0  0  0  0  0  0  0  0  0  0  0  0
   -8.4650   18.8220  -31.9900 C   0  0  0  0  0  0  0  0  0  0  0  0
   -9.4230   18.0420  -31.7400 O   0  0  0  0  0  0  0  0  0  0  0  0
   -7.3320   18.3660  -32.6870 C   0  0  0  0  0  0  0  0  0  0  0  0
   -7.2360   17.0300  -33.1230 C   0  0  0  0  0  0  0  0  0  0  0  0
   -6.1080   16.5930  -33.8130 C   0  0  0  0  0  0  0  0  0  0  0  0
   -5.0650   17.4750  -34.0770 C   0  0  0  0  0  0  0  0  0  0  0  0
   -5.1390   18.8040  -33.6520 C   0  0  0  0  0  0  0  0  0  0  0  0
   -6.2730   19.2760  -32.9490 C   0  0  0  0  0  0  0  0  0  0  0  0
   -0.5220   22.7153  -26.8714 H   0  0  0  0  0  0  0  0  0  0  0  0
   -0.4515   21.8110  -28.4218 H   0  0  0  0  0  0  0  0  0  0  0  0
   -0.3384   23.6037  -28.4218 H   0  0  0  0  0  0  0  0  0  0  0  0
   -3.0738   21.8161  -26.3936 H   0  0  0  0  0  0  0  0  0  0  0  0
   -4.1475   21.9155  -27.8302 H   0  0  0  0  0  0  0  0  0  0  0  0
   -2.7494   20.7877  -27.8302 H   0  0  0  0  0  0  0  0  0  0  0  0
   -4.8650   23.6010  -28.1470 H   0  0  0  0  0  0  0  0  0  0  0  0
   -6.8368   24.4436  -28.9933 H   0  0  0  0  0  0  0  0  0  0  0  0
   -6.7329   26.1061  -29.6843 H   0  0  0  0  0  0  0  0  0  0  0  0
   -4.8382   23.6740  -32.3801 H   0  0  0  0  0  0  0  0  0  0  0  0
   -4.4927   21.3655  -33.2337 H   0  0  0  0  0  0  0  0  0  0  0  0
   -8.6967   22.5407  -30.8005 H   0  0  0  0  0  0  0  0  0  0  0  0
   -8.0571   16.3275  -32.9172 H   0  0  0  0  0  0  0  0  0  0  0  0
   -6.0416   15.5480  -34.1501 H   0  0  0  0  0  0  0  0  0  0  0  0
   -4.1771   17.1242  -34.6234 H   0  0  0  0  0  0  0  0  0  0  0  0
   -4.3069   19.4908  -33.8661 H   0  0  0  0  0  0  0  0  0  0  0  0
  1  2  1  0
  2  3  1  0
  2  4  1  0
  4  5  2  0
  4  6  1  0
  6  7  1  0
  7  8  2  0
  7  9  1  0
  9 10  1  0
 10 11  1  0
 11 12  2  0
 12 13  1  0
 13 14  2  0
 14 15  1  0
 15 16  2  0
 15 17  1  0
 17 18  1  0
 18 19  2  0
 18 20  1  0
 20 21  2  0
 21 22  1  0
 22 23  2  0
 23 24  1  0
 24 25  2  0
 16 11  1  0
 25 20  1  0
 25 14  1  0
  1 26  1  0
  1 27  1  0
  1 28  1  0
  3 29  1  0
  3 30  1  0
  3 31  1  0
  6 32  1  0
  9 33  1  0
  9 34  1  0
 12 35  1  0
 13 36  1  0
 16 37  1  0
 21 38  1  0
 22 39  1  0
 23 40  1  0
 24 41  1  0
M  END
>  <UniqueID>  (16) 
15

>  <SMILES>  (16) 
CN(C)C(=O)NC(=O)COc1ccc2c(c1)oc(=O)c1ccccc12

>  <Energy>  (16) 
52.828809991397165

>  <Genealogy>  (16) 
CN(C)C(=O)NC(=O)COc1ccc2c(c1)oc(=O)c1ccccc12 (3D coordinates assigned)
CN(C)C(=O)NC(=O)COc1ccc2c(c1)oc(=O)c1ccccc12 (optimized conformer: 52.828809991397165 kcal/mol)

>  <smiles>  (16) 
CN(C)C(=O)NC(=O)COc1ccc2c(c1)oc(=O)c1ccccc12

>  <score_type>  (16) 
oracle

>  <origin>  (16) 
adg

>  <m_score__min__energy>  (16) 
-9.4600000000000009

>  <m_primary>  (16) 
energy

$$$$
16:0
     RDKit          3D

 49 52  0  0  0  0  0  0  0  0999 V2000
   -0.2480   23.3370  -29.3440 C   0  0  0  0  0  0  0  0  0  0  0  0
   -0.9710   24.5450  -29.1360 O   0  0  0  0  0  0  0  0  0  0  0  0
   -1.4510   24.9840  -27.8910 C   0  0  0  0  0  0  0  0  0  0  0  0
   -0.6320   25.6850  -26.9830 C   0  0  0  0  0  0  0  0  0  0  0  0
   -1.1510   26.1310  -25.7650 C   0  0  0  0  0  0  0  0  0  0  0  0
   -2.4850   25.8850  -25.4390 C   0  0  0  0  0  0  0  0  0  0  0  0
   -3.3050   25.1880  -26.3290 C   0  0  0  0  0  0  0  0  0  0  0  0
   -2.7940   24.7270  -27.5520 C   0  0  0  0  0  0  0  0  0  0  0  0
   -3.6460   24.0070  -28.4590 N   0  0  0  0  0  0  0  0  0  0  0  0
   -4.9500   24.5650  -28.8320 C   0  0  0  0  0  0  0  0  0  0  0  0
   -5.5650   23.7810  -29.9950 C   0  0  0  0  0  0  0  0  0  0  0  0
   -4.5140   23.4620  -30.9760 N   0  0  0  0  0  0  0  0  0  0  0  0
   -5.0430   23.0470  -32.2940 C   0  0  0  0  0  0  0  0  0  0  0  0
   -5.9000   21.7980  -32.2410 C   0  0  0  0  0  0  0  0  0  0  0  0
   -7.2270   21.8560  -31.9510 N   0  0  0  0  0  0  0  0  0  0  0  0
   -7.6200   20.5740  -32.0340 C   0  0  0  0  0  0  0  0  0  0  0  0
   -8.9040   20.0660  -31.8480 C   0  0  0  0  0  0  0  0  0  0  0  0
   -9.0900   18.6810  -32.0080 C   0  0  0  0  0  0  0  0  0  0  0  0
   -8.0000   17.8490  -32.3500 C   0  0  0  0  0  0  0  0  0  0  0  0
   -6.7150   18.3930  -32.5310 C   0  0  0  0  0  0  0  0  0  0  0  0
   -6.5660   19.7720  -32.3580 C   0  0  0  0  0  0  0  0  0  0  0  0
   -5.4600   20.5270  -32.4750 N   0  0  0  0  0  0  0  0  0  0  0  0
   -4.1250   20.0600  -32.8530 C   0  0  0  0  0  0  0  0  0  0  0  0
   -3.4720   22.5460  -30.4500 C   0  0  0  0  0  0  0  0  0  0  0  0
   -3.2690   22.6700  -28.9280 C   0  0  0  0  0  0  0  0  0  0  0  0
    0.0161   22.8957  -28.3716 H   0  0  0  0  0  0  0  0  0  0  0  0
   -0.8713   22.6295  -29.9106 H   0  0  0  0  0  0  0  0  0  0  0  0
    0.6700   23.5520  -29.9106 H   0  0  0  0  0  0  0  0  0  0  0  0
    0.4206   25.8818  -27.2345 H   0  0  0  0  0  0  0  0  0  0  0  0
   -0.5061   26.6776  -25.0612 H   0  0  0  0  0  0  0  0  0  0  0  0
   -2.8911   26.2402  -24.4804 H   0  0  0  0  0  0  0  0  0  0  0  0
   -4.3573   24.9993  -26.0699 H   0  0  0  0  0  0  0  0  0  0  0  0
   -5.6254   24.5135  -27.9653 H   0  0  0  0  0  0  0  0  0  0  0  0
   -4.8093   25.6096  -29.1466 H   0  0  0  0  0  0  0  0  0  0  0  0
   -6.0090   22.8488  -29.6158 H   0  0  0  0  0  0  0  0  0  0  0  0
   -6.3466   24.3874  -30.4760 H   0  0  0  0  0  0  0  0  0  0  0  0
   -5.6520   23.8691  -32.6982 H   0  0  0  0  0  0  0  0  0  0  0  0
   -4.1758   22.8150  -32.9297 H   0  0  0  0  0  0  0  0  0  0  0  0
   -9.7439   20.7258  -31.5849 H   0  0  0  0  0  0  0  0  0  0  0  0
  -10.0891   18.2432  -31.8662 H   0  0  0  0  0  0  0  0  0  0  0  0
   -8.1574   16.7676  -32.4757 H   0  0  0  0  0  0  0  0  0  0  0  0
   -5.8589   17.7563  -32.7989 H   0  0  0  0  0  0  0  0  0  0  0  0
   -3.5379   19.8546  -31.9458 H   0  0  0  0  0  0  0  0  0  0  0  0
   -4.2136   19.1395  -33.4486 H   0  0  0  0  0  0  0  0  0  0  0  0
   -3.6205   20.8350  -33.4486 H   0  0  0  0  0  0  0  0  0  0  0  0
   -3.7668   21.5116  -30.6805 H   0  0  0  0  0  0  0  0  0  0  0  0
   -2.5215   22.8209  -30.9306 H   0  0  0  0  0  0  0  0  0  0  0  0
   -3.8925   21.9203  -28.4189 H   0  0  0  0  0  0  0  0  0  0  0  0
   -2.2059   22.5033  -28.6996 H   0  0  0  0  0  0  0  0  0  0  0  0
  1  2  1  0
  2  3  1  0
  3  4  2  0
  4  5  1  0
  5  6  2  0
  6  7  1  0
  7  8  2  0
  8  9  1  0
  9 10  1  0
 10 11  1  0
 11 12  1  0
 12 13  1  0
 13 14  1  0
 14 15  2  0
 15 16  1  0
 16 17  2  0
 17 18  1  0
 18 19  2  0
 19 20  1  0
 20 21  2  0
 21 22  1  0
 22 23  1  0
 12 24  1  0
 24 25  1  0
  8  3  1  0
 25  9  1  0
 22 14  1  0
 21 16  1  0
  1 26  1  0
  1 27  1  0
  1 28  1  0
  4 29  1  0
  5 30  1  0
  6 31  1  0
  7 32  1  0
 10 33  1  0
 10 34  1  0
 11 35  1  0
 11 36  1  0
 13 37  1  0
 13 38  1  0
 17 39  1  0
 18 40  1  0
 19 41  1  0
 20 42  1  0
 23 43  1  0
 23 44  1  0
 23 45  1  0
 24 46  1  0
 24 47  1  0
 25 48  1  0
 25 49  1  0
M  END
>  <UniqueID>  (17) 
16

>  <SMILES>  (17) 
COc1ccccc1N1CCN(Cc2nc3ccccc3n2C)CC1

>  <Energy>  (17) 
101.84352634417509

>  <Genealogy>  (17) 
COc1ccccc1N1CCN(Cc2nc3ccccc3n2C)CC1 (3D coordinates assigned)
COc1ccccc1N1CCN(Cc2nc3ccccc3n2C)CC1 (nonaromatic ring conformer: 101.84352634417509 kcal/mol)

>  <smiles>  (17) 
COc1ccccc1N1CCN(Cc2nc3ccccc3n2C)CC1

>  <score_type>  (17) 
oracle

>  <origin>  (17) 
adg

>  <m_score__min__energy>  (17) 
-8.4299999999999997

>  <m_primary>  (17) 
energy

$$$$
17:0
     RDKit          3D

 49 51  0  0  0  0  0  0  0  0999 V2000
   -2.1080   21.3670  -32.2850 C   0  0  0  0  0  0  0  0  0  0  0  0
   -3.3110   21.8650  -32.8620 O   0  0  0  0  0  0  0  0  0  0  0  0
   -4.5520   21.2010  -32.8420 C   0  0  0  0  0  0  0  0  0  0  0  0
   -4.6780   19.8890  -33.3200 C   0  0  0  0  0  0  0  0  0  0  0  0
   -5.9020   19.2300  -33.2770 C   0  0  0  0  0  0  0  0  0  0  0  0
   -7.0320   19.8670  -32.7650 C   0  0  0  0  0  0  0  0  0  0  0  0
   -8.2510   19.1750  -32.7180 C   0  0  0  0  0  0  0  0  0  0  0  0
   -9.3930   19.7950  -32.2090 C   0  0  0  0  0  0  0  0  0  0  0  0
   -9.3280   21.1070  -31.7460 C   0  0  0  0  0  0  0  0  0  0  0  0
   -8.1200   21.8090  -31.7840 C   0  0  0  0  0  0  0  0  0  0  0  0
   -6.9460   21.2040  -32.2860 C   0  0  0  0  0  0  0  0  0  0  0  0
   -5.6870   21.8770  -32.3260 C   0  0  0  0  0  0  0  0  0  0  0  0
   -5.4900   23.2810  -31.7750 C   0  0  0  0  0  0  0  0  0  0  0  0
   -4.4760   23.3060  -30.6210 C   0  0  0  0  0  0  0  0  0  0  0  0
   -3.9460   24.6910  -30.3630 C   0  0  0  0  0  0  0  0  0  0  0  0
   -4.5520   25.6800  -30.8560 O   0  0  0  0  0  0  0  0  0  0  0  0
   -2.7440   24.9200  -29.6150 N   0  0  0  0  0  0  0  0  0  0  0  0
   -1.8760   23.8720  -29.0960 C   0  0  0  0  0  0  0  0  0  0  0  0
   -2.3960   23.3690  -27.7240 C   0  0  2  0  0  0  0  0  0  0  0  0
   -3.4740   24.3060  -27.1910 C   0  0  0  0  0  0  0  0  0  0  0  0
   -2.7310   25.3090  -26.3250 C   0  0  0  0  0  0  0  0  0  0  0  0
   -1.3580   24.6950  -26.0720 C   0  0  0  0  0  0  0  0  0  0  0  0
   -1.3790   23.3520  -26.6570 N   0  0  0  0  0  0  0  0  0  0  0  0
   -0.0440   22.8630  -27.0270 C   0  0  0  0  0  0  0  0  0  0  0  0
   -2.1865   21.3995  -31.1883 H   0  0  0  0  0  0  0  0  0  0  0  0
   -1.9477   20.3286  -32.6105 H   0  0  0  0  0  0  0  0  0  0  0  0
   -1.2606   21.9883  -32.6105 H   0  0  0  0  0  0  0  0  0  0  0  0
   -3.7982   19.3747  -33.7340 H   0  0  0  0  0  0  0  0  0  0  0  0
   -5.9794   18.1980  -33.6499 H   0  0  0  0  0  0  0  0  0  0  0  0
   -8.3072   18.1392  -33.0839 H   0  0  0  0  0  0  0  0  0  0  0  0
  -10.3459   19.2467  -32.1734 H   0  0  0  0  0  0  0  0  0  0  0  0
  -10.2314   21.5928  -31.3487 H   0  0  0  0  0  0  0  0  0  0  0  0
   -8.0828   22.8458  -31.4184 H   0  0  0  0  0  0  0  0  0  0  0  0
   -5.1255   23.9323  -32.5830 H   0  0  0  0  0  0  0  0  0  0  0  0
   -6.4569   23.6340  -31.3872 H   0  0  0  0  0  0  0  0  0  0  0  0
   -4.9682   22.9388  -29.7083 H   0  0  0  0  0  0  0  0  0  0  0  0
   -3.6271   22.6653  -30.9020 H   0  0  0  0  0  0  0  0  0  0  0  0
   -1.8570   23.0323  -29.8063 H   0  0  0  0  0  0  0  0  0  0  0  0
   -0.8628   24.2800  -28.9657 H   0  0  0  0  0  0  0  0  0  0  0  0
   -2.7464   22.3473  -27.9321 H   0  0  0  0  0  0  0  0  0  0  0  0
   -3.9870   24.8161  -28.0197 H   0  0  0  0  0  0  0  0  0  0  0  0
   -4.2479   23.7660  -26.6259 H   0  0  0  0  0  0  0  0  0  0  0  0
   -2.6308   26.2701  -26.8506 H   0  0  0  0  0  0  0  0  0  0  0  0
   -3.2661   25.5104  -25.3853 H   0  0  0  0  0  0  0  0  0  0  0  0
   -0.5770   25.3041  -26.5507 H   0  0  0  0  0  0  0  0  0  0  0  0
   -1.1377   24.6524  -24.9951 H   0  0  0  0  0  0  0  0  0  0  0  0
    0.5345   22.6511  -26.1157 H   0  0  0  0  0  0  0  0  0  0  0  0
   -0.1423   21.9425  -27.6212 H   0  0  0  0  0  0  0  0  0  0  0  0
    0.4755   23.6292  -27.6212 H   0  0  0  0  0  0  0  0  0  0  0  0
  1  2  1  0
  2  3  1  0
  3  4  2  0
  4  5  1  0
  5  6  2  0
  6  7  1  0
  7  8  2  0
  8  9  1  0
  9 10  2  0
 10 11  1  0
 11 12  2  0
 12 13  1  0
 13 14  1  0
 14 15  1  0
 15 16  2  0
 15 17  1  0
 17 18  1  0
 18 19  1  0
 19 20  1  0
 20 21  1  0
 21 22  1  0
 22 23  1  0
 23 24  1  0
 12  3  1  0
 23 19  1  0
 11  6  1  0
  1 25  1  0
  1 26  1  0
  1 27  1  0
  4 28  1  0
  5 29  1  0
  7 30  1  0
  8 31  1  0
  9 32  1  0
 10 33  1  0
 13 34  1  0
 13 35  1  0
 14 36  1  0
 14 37  1  0
 18 38  1  0
 18 39  1  0
 19 40  1  6
 20 41  1  0
 20 42  1  0
 21 43  1  0
 21 44  1  0
 22 45  1  0
 22 46  1  0
 24 47  1  0
 24 48  1  0
 24 49  1  0
M  CHG  1  17  -1
M  END
>  <UniqueID>  (18) 
17

>  <SMILES>  (18) 
COc1ccc2ccccc2c1CCC(=O)[N-]C[C@@H]1CCCN1C

>  <Energy>  (18) 
58.58658243384279

>  <Genealogy>  (18) 
COc1ccc2ccccc2c1CCC(=O)[N-]CC1CCCN1C (protonated)
COc1ccc2ccccc2c1CCC(=O)[N-]C[C@@H]1CCCN1C (chirality)
COc1ccc2ccccc2c1CCC(=O)[N-]C[C@@H]1CCCN1C (3D coordinates assigned)
COc1ccc2ccccc2c1CCC(=O)[N-]C[C@@H]1CCCN1C (nonaromatic ring conformer: 58.58658243384279 kcal/mol)

>  <smiles>  (18) 
COc1ccc2ccccc2c1CCC(=O)NCC1CCCN1C

>  <score_type>  (18) 
oracle

>  <origin>  (18) 
adg

>  <m_score__min__energy>  (18) 
-10.720000000000001

>  <m_primary>  (18) 
energy

$$$$
18:0
     RDKit          3D

 69 73  0  0  0  0  0  0  0  0999 V2000
   -3.2280   22.2630  -32.5270 C   0  0  0  0  0  0  0  0  0  0  0  0
   -2.8720   22.1270  -31.0390 C   0  0  0  0  0  0  0  0  0  0  0  0
   -2.9720   20.6830  -30.5340 C   0  0  0  0  0  0  0  0  0  0  0  0
   -3.6360   23.0930  -30.1430 C   0  0  0  0  0  0  0  0  0  0  0  0
   -3.0630   23.8990  -29.1610 C   0  0  0  0  0  0  0  0  0  0  0  0
   -1.6600   23.9510  -28.7100 C   0  0  0  0  0  0  0  0  0  0  0  0
   -0.8300   24.6250  -29.3740 O   0  0  0  0  0  0  0  0  0  0  0  0
   -1.2160   23.2690  -27.5320 N   0  0  0  0  0  0  0  0  0  0  0  0
   -0.0830   23.6940  -26.7140 C   0  0  0  0  0  0  0  0  0  0  0  0
   -0.5930   24.4620  -25.4960 C   0  0  0  0  0  0  0  0  0  0  0  0
   -1.1810   25.7590  -25.9050 N   0  0  0  0  0  0  0  0  0  0  0  0
   -1.6050   26.5820  -24.7440 C   0  0  0  0  0  0  0  0  0  0  0  0
   -0.5100   27.5760  -24.3240 C   0  0  0  0  0  0  0  0  0  0  0  0
   -0.1390   28.5070  -25.4200 N   0  0  0  0  0  0  0  0  0  0  0  0
   -0.7100   29.8450  -25.2090 C   0  0  0  0  0  0  0  0  0  0  0  0
   -0.4900   28.0080  -26.7710 C   0  0  0  0  0  0  0  0  0  0  0  0
   -0.3040   26.4860  -26.8610 C   0  0  0  0  0  0  0  0  0  0  0  0
   -4.1180   24.5520  -28.5620 C   0  0  0  0  0  0  0  0  0  0  0  0
   -5.2660   24.1720  -29.1500 N   0  0  0  0  0  0  0  0  0  0  0  0
   -4.9820   23.2900  -30.0950 N   0  0  0  0  0  0  0  0  0  0  0  0
   -6.0230   22.6170  -30.8160 C   0  0  0  0  0  0  0  0  0  0  0  0
   -7.3170   23.0000  -30.6500 N   0  0  0  0  0  0  0  0  0  0  0  0
   -8.3340   22.3260  -31.2480 C   0  0  0  0  0  0  0  0  0  0  0  0
   -8.0620   21.2010  -32.0350 C   0  0  0  0  0  0  0  0  0  0  0  0
   -6.7200   20.7970  -32.1700 C   0  0  0  0  0  0  0  0  0  0  0  0
   -5.7430   21.5110  -31.5520 N   0  0  0  0  0  0  0  0  0  0  0  0
   -6.3550   19.5700  -32.9160 C   0  0  0  0  0  0  0  0  0  0  0  0
   -5.2850   19.6000  -33.8220 C   0  0  0  0  0  0  0  0  0  0  0  0
   -4.9560   18.4640  -34.5630 C   0  0  0  0  0  0  0  0  0  0  0  0
   -5.6860   17.2850  -34.4030 C   0  0  0  0  0  0  0  0  0  0  0  0
   -6.7450   17.2330  -33.4930 C   0  0  0  0  0  0  0  0  0  0  0  0
   -7.0800   18.3650  -32.7310 C   0  0  0  0  0  0  0  0  0  0  0  0
   -8.1780   18.2820  -31.6940 C   0  0  0  0  0  0  0  0  0  0  0  0
   -9.4400   19.0610  -32.1060 C   0  0  0  0  0  0  0  0  0  0  0  0
   -9.1770   20.4470  -32.7270 C   0  0  0  0  0  0  0  0  0  0  0  0
   -4.2515   22.6540  -32.6249 H   0  0  0  0  0  0  0  0  0  0  0  0
   -2.5232   22.9552  -33.0109 H   0  0  0  0  0  0  0  0  0  0  0  0
   -3.1642   21.2772  -33.0109 H   0  0  0  0  0  0  0  0  0  0  0  0
   -1.8132   22.4175  -30.9714 H   0  0  0  0  0  0  0  0  0  0  0  0
   -2.9723   20.6784  -29.4340 H   0  0  0  0  0  0  0  0  0  0  0  0
   -3.9037   20.2293  -30.9028 H   0  0  0  0  0  0  0  0  0  0  0  0
   -2.1117   20.1052  -30.9028 H   0  0  0  0  0  0  0  0  0  0  0  0
    0.4803   22.8100  -26.3804 H   0  0  0  0  0  0  0  0  0  0  0  0
    0.5744   24.3452  -27.3088 H   0  0  0  0  0  0  0  0  0  0  0  0
   -1.3609   23.8619  -24.9860 H   0  0  0  0  0  0  0  0  0  0  0  0
    0.2523   24.6541  -24.8188 H   0  0  0  0  0  0  0  0  0  0  0  0
   -2.5110   27.1432  -25.0163 H   0  0  0  0  0  0  0  0  0  0  0  0
   -1.8000   25.9074  -23.8973 H   0  0  0  0  0  0  0  0  0  0  0  0
   -0.8760   28.1643  -23.4696 H   0  0  0  0  0  0  0  0  0  0  0  0
    0.3862   26.9954  -24.0597 H   0  0  0  0  0  0  0  0  0  0  0  0
   -0.7940   30.0418  -24.1300 H   0  0  0  0  0  0  0  0  0  0  0  0
   -0.0556   30.5997  -25.6695 H   0  0  0  0  0  0  0  0  0  0  0  0
   -1.7077   29.8947  -25.6695 H   0  0  0  0  0  0  0  0  0  0  0  0
   -1.5404   28.2553  -26.9841 H   0  0  0  0  0  0  0  0  0  0  0  0
    0.1750   28.4864  -27.5051 H   0  0  0  0  0  0  0  0  0  0  0  0
   -0.5451   26.1588  -27.8832 H   0  0  0  0  0  0  0  0  0  0  0  0
    0.7408   26.2562  -26.6051 H   0  0  0  0  0  0  0  0  0  0  0  0
   -4.0344   25.2708  -27.7335 H   0  0  0  0  0  0  0  0  0  0  0  0
   -9.3719   22.6648  -31.1135 H   0  0  0  0  0  0  0  0  0  0  0  0
   -4.7018   20.5240  -33.9493 H   0  0  0  0  0  0  0  0  0  0  0  0
   -4.1186   18.4978  -35.2755 H   0  0  0  0  0  0  0  0  0  0  0  0
   -5.4269   16.3947  -34.9948 H   0  0  0  0  0  0  0  0  0  0  0  0
   -7.3187   16.3022  -33.3727 H   0  0  0  0  0  0  0  0  0  0  0  0
   -8.4474   17.2253  -31.5497 H   0  0  0  0  0  0  0  0  0  0  0  0
   -7.7956   18.7329  -30.7664 H   0  0  0  0  0  0  0  0  0  0  0  0
   -9.9891   18.4559  -32.8424 H   0  0  0  0  0  0  0  0  0  0  0  0
  -10.0054   19.2417  -31.1799 H   0  0  0  0  0  0  0  0  0  0  0  0
   -8.9057   20.3120  -33.7844 H   0  0  0  0  0  0  0  0  0  0  0  0
  -10.0966   21.0397  -32.6125 H   0  0  0  0  0  0  0  0  0  0  0  0
  1  2  1  0
  2  3  1  0
  2  4  1  0
  4  5  2  0
  5  6  1  0
  6  7  2  0
  6  8  1  0
  8  9  1  0
  9 10  1  0
 10 11  1  0
 11 12  1  0
 12 13  1  0
 13 14  1  0
 14 15  1  0
 14 16  1  0
 16 17  1  0
  5 18  1  0
 18 19  2  0
 19 20  1  0
 20 21  1  0
 21 22  2  0
 22 23  1  0
 23 24  2  0
 24 25  1  0
 25 26  2  0
 25 27  1  0
 27 28  2  0
 28 29  1  0
 29 30  2  0
 30 31  1  0
 31 32  2  0
 32 33  1  0
 33 34  1  0
 34 35  1  0
 20  4  1  0
 26 21  1  0
 32 27  1  0
 17 11  1  0
 35 24  1  0
  1 36  1  0
  1 37  1  0
  1 38  1  0
  2 39  1  0
  3 40  1  0
  3 41  1  0
  3 42  1  0
  9 43  1  0
  9 44  1  0
 10 45  1  0
 10 46  1  0
 12 47  1  0
 12 48  1  0
 13 49  1  0
 13 50  1  0
 15 51  1  0
 15 52  1  0
 15 53  1  0
 16 54  1  0
 16 55  1  0
 17 56  1  0
 17 57  1  0
 18 58  1  0
 23 59  1  0
 28 60  1  0
 29 61  1  0
 30 62  1  0
 31 63  1  0
 33 64  1  0
 33 65  1  0
 34 66  1  0
 34 67  1  0
 35 68  1  0
 35 69  1  0
M  CHG  1   8  -1
M  END
>  <UniqueID>  (19) 
18

>  <SMILES>  (19) 
CC(C)c1c(C(=O)[N-]CCN2CCN(C)CC2)cnn1-c1ncc2c(n1)-c1ccccc1CCC2

>  <Energy>  (19) 
134.93891475275447

>  <Genealogy>  (19) 
CC(C)c1c(C(=O)[N-]CCN2CCN(C)CC2)cnn1-c1ncc2c(n1)-c1ccccc1CCC2 (protonated)
CC(C)c1c(C(=O)[N-]CCN2CCN(C)CC2)cnn1-c1ncc2c(n1)-c1ccccc1CCC2 (3D coordinates assigned)
CC(C)c1c(C(=O)[N-]CCN2CCN(C)CC2)cnn1-c1ncc2c(n1)-c1ccccc1CCC2 (nonaromatic ring conformer: 134.93891475275447 kcal/mol)

>  <smiles>  (19) 
CC(C)c1c(C(=O)NCCN2CCN(C)CC2)cnn1-c1ncc2c(n1)-c1ccccc1CCC2

>  <score_type>  (19) 
oracle

>  <origin>  (19) 
adg

>  <m_score__min__energy>  (19) 
-10.380000000000001

>  <m_primary>  (19) 
energy

$$$$
19:0
     RDKit          3D

 76 80  0  0  0  0  0  0  0  0999 V2000
    0.4070   19.3410  -29.7910 C   0  0  0  0  0  0  0  0  0  0  0  0
    0.2210   20.3990  -30.8740 C   0  0  0  0  0  0  0  0  0  0  0  0
   -1.0040   20.1270  -31.6620 N   0  0  0  0  0  0  0  0  0  0  0  0
   -0.9290   18.8030  -32.3060 C   0  0  0  0  0  0  0  0  0  0  0  0
   -1.2540   21.1850  -32.6720 C   0  0  0  0  0  0  0  0  0  0  0  0
   -2.7600   21.3920  -32.8790 C   0  0  0  0  0  0  0  0  0  0  0  0
   -3.5380   20.5750  -31.9440 N   0  0  0  0  0  0  0  0  0  0  0  0
   -4.9630   20.4900  -32.0570 C   0  0  0  0  0  0  0  0  0  0  0  0
   -5.6000   19.3230  -32.5350 C   0  0  0  0  0  0  0  0  0  0  0  0
   -4.8470   18.1830  -32.8820 C   0  0  0  0  0  0  0  0  0  0  0  0
   -5.4740   17.0260  -33.3390 C   0  0  0  0  0  0  0  0  0  0  0  0
   -6.8600   16.9760  -33.4420 C   0  0  0  0  0  0  0  0  0  0  0  0
   -7.6350   18.0760  -33.0700 C   0  0  0  0  0  0  0  0  0  0  0  0
   -7.0340   19.2780  -32.6220 C   0  0  0  0  0  0  0  0  0  0  0  0
   -7.7950   20.3760  -32.2400 N   0  0  0  0  0  0  0  0  0  0  0  0
   -9.2620   20.3960  -32.3960 C   0  0  0  0  0  0  0  0  0  0  0  0
   -7.1500   21.4500  -31.6840 C   0  0  0  0  0  0  0  0  0  0  0  0
   -7.7320   22.5420  -31.1290 N   0  0  0  0  0  0  0  0  0  0  0  0
   -6.7080   23.3200  -30.7230 C   0  0  0  0  0  0  0  0  0  0  0  0
   -6.8000   24.5410  -30.0660 C   0  0  0  0  0  0  0  0  0  0  0  0
   -5.6080   25.2050  -29.7270 C   0  0  0  0  0  0  0  0  0  0  0  0
   -4.3430   24.6340  -30.0430 C   0  0  0  0  0  0  0  0  0  0  0  0
   -3.1240   25.2790  -29.7720 O   0  0  0  0  0  0  0  0  0  0  0  0
   -2.1780   24.9330  -28.7590 C   0  0  0  0  0  0  0  0  0  0  0  0
   -1.6480   23.5000  -29.0200 C   0  0  0  0  0  0  0  0  0  0  0  0
   -2.1740   22.4290  -28.1050 N   0  0  0  0  0  0  0  0  0  0  0  0
   -3.4380   22.8880  -27.4580 C   0  0  0  0  0  0  0  0  0  0  0  0
   -1.1350   22.1760  -27.0390 C   0  0  0  0  0  0  0  0  0  0  0  0
   -0.8970   20.6890  -26.6950 C   0  0  0  0  0  0  0  0  0  0  0  0
   -2.1930   19.8820  -26.7040 C   0  0  0  0  0  0  0  0  0  0  0  0
   -2.9340   20.0070  -28.0450 C   0  0  0  0  0  0  0  0  0  0  0  0
   -2.4340   21.1900  -28.9010 C   0  0  0  0  0  0  0  0  0  0  0  0
   -4.2890   23.3860  -30.6950 C   0  0  0  0  0  0  0  0  0  0  0  0
   -5.4910   22.7450  -31.0120 C   0  0  0  0  0  0  0  0  0  0  0  0
   -5.7750   21.5290  -31.6100 C   0  0  0  0  0  0  0  0  0  0  0  0
    0.3242   19.8119  -28.8003 H   0  0  0  0  0  0  0  0  0  0  0  0
   -0.3691   18.5686  -29.8958 H   0  0  0  0  0  0  0  0  0  0  0  0
    1.4000   18.8796  -29.8958 H   0  0  0  0  0  0  0  0  0  0  0  0
    0.1351   21.3888  -30.4018 H   0  0  0  0  0  0  0  0  0  0  0  0
    1.0899   20.3739  -31.5481 H   0  0  0  0  0  0  0  0  0  0  0  0
   -0.8847   18.0214  -31.5333 H   0  0  0  0  0  0  0  0  0  0  0  0
   -1.8199   18.6491  -32.9326 H   0  0  0  0  0  0  0  0  0  0  0  0
   -0.0264   18.7506  -32.9326 H   0  0  0  0  0  0  0  0  0  0  0  0
   -0.8041   22.1275  -32.3266 H   0  0  0  0  0  0  0  0  0  0  0  0
   -0.8050   20.8753  -33.6272 H   0  0  0  0  0  0  0  0  0  0  0  0
   -3.0025   22.4526  -32.7170 H   0  0  0  0  0  0  0  0  0  0  0  0
   -3.0166   21.0891  -33.9049 H   0  0  0  0  0  0  0  0  0  0  0  0
   -3.0810   20.1600  -31.1030 H   0  0  0  0  0  0  0  0  0  0  0  0
   -3.7511   18.2073  -32.7908 H   0  0  0  0  0  0  0  0  0  0  0  0
   -4.8712   16.1496  -33.6192 H   0  0  0  0  0  0  0  0  0  0  0  0
   -7.3482   16.0650  -33.8185 H   0  0  0  0  0  0  0  0  0  0  0  0
   -8.7315   18.0082  -33.1257 H   0  0  0  0  0  0  0  0  0  0  0  0
   -9.7362   20.4025  -31.4035 H   0  0  0  0  0  0  0  0  0  0  0  0
   -9.5595   21.2983  -32.9504 H   0  0  0  0  0  0  0  0  0  0  0  0
   -9.5840   19.5022  -32.9504 H   0  0  0  0  0  0  0  0  0  0  0  0
   -8.7430   22.7460  -30.9850 H   0  0  0  0  0  0  0  0  0  0  0  0
   -7.7792   24.9764  -29.8178 H   0  0  0  0  0  0  0  0  0  0  0  0
   -5.6534   26.1760  -29.2121 H   0  0  0  0  0  0  0  0  0  0  0  0
   -1.3394   25.6445  -28.7811 H   0  0  0  0  0  0  0  0  0  0  0  0
   -2.6637   24.9720  -27.7728 H   0  0  0  0  0  0  0  0  0  0  0  0
   -1.9155   23.2241  -30.0507 H   0  0  0  0  0  0  0  0  0  0  0  0
   -0.5647   23.5447  -28.8345 H   0  0  0  0  0  0  0  0  0  0  0  0
   -3.3259   22.8473  -26.3645 H   0  0  0  0  0  0  0  0  0  0  0  0
   -3.6533   23.9217  -27.7663 H   0  0  0  0  0  0  0  0  0  0  0  0
   -4.2664   22.2333  -27.7663 H   0  0  0  0  0  0  0  0  0  0  0  0
   -0.1817   22.6026  -27.3844 H   0  0  0  0  0  0  0  0  0  0  0  0
   -1.5181   22.6451  -26.1207 H   0  0  0  0  0  0  0  0  0  0  0  0
   -0.2069   20.2597  -27.4362 H   0  0  0  0  0  0  0  0  0  0  0  0
   -0.4748   20.6398  -25.6804 H   0  0  0  0  0  0  0  0  0  0  0  0
   -1.9543   18.8230  -26.5265 H   0  0  0  0  0  0  0  0  0  0  0  0
   -2.8476   20.2776  -25.9135 H   0  0  0  0  0  0  0  0  0  0  0  0
   -2.7892   19.0767  -28.6138 H   0  0  0  0  0  0  0  0  0  0  0  0
   -3.9952   20.1888  -27.8194 H   0  0  0  0  0  0  0  0  0  0  0  0
   -1.4987   20.8912  -29.3969 H   0  0  0  0  0  0  0  0  0  0  0  0
   -3.2289   21.4280  -29.6231 H   0  0  0  0  0  0  0  0  0  0  0  0
   -3.3227   22.9260  -30.9491 H   0  0  0  0  0  0  0  0  0  0  0  0
  1  2  1  0
  2  3  1  0
  3  4  1  0
  3  5  1  0
  5  6  1  0
  6  7  1  0
  7  8  1  0
  8  9  2  0
  9 10  1  0
 10 11  2  0
 11 12  1  0
 12 13  2  0
 13 14  1  0
 14 15  2  0
 15 16  1  0
 15 17  1  0
 17 18  1  0
 18 19  1  0
 19 20  2  0
 20 21  1  0
 21 22  2  0
 22 23  1  0
 23 24  1  0
 24 25  1  0
 25 26  1  0
 26 27  1  0
 26 28  1  0
 28 29  1  0
 29 30  1  0
 30 31  1  0
 31 32  1  0
 22 33  1  0
 33 34  2  0
 34 35  1  0
 35  8  1  0
 14  9  1  0
 35 17  2  0
 34 19  1  0
 32 26  1  0
  1 36  1  0
  1 37  1  0
  1 38  1  0
  2 39  1  0
  2 40  1  0
  4 41  1  0
  4 42  1  0
  4 43  1  0
  5 44  1  0
  5 45  1  0
  6 46  1  0
  6 47  1  0
  7 48  1  0
 10 49  1  0
 11 50  1  0
 12 51  1  0
 13 52  1  0
 16 53  1  0
 16 54  1  0
 16 55  1  0
 18 56  1  0
 20 57  1  0
 21 58  1  0
 24 59  1  0
 24 60  1  0
 25 61  1  0
 25 62  1  0
 27 63  1  0
 27 64  1  0
 27 65  1  0
 28 66  1  0
 28 67  1  0
 29 68  1  0
 29 69  1  0
 30 70  1  0
 30 71  1  0
 31 72  1  0
 31 73  1  0
 32 74  1  0
 32 75  1  0
 33 76  1  0
M  CHG  2  15   1  26   1
M  END
>  <UniqueID>  (20) 
19

>  <SMILES>  (20) 
CCN(C)CCNc1c2ccccc2[n+](C)c2[nH]c3ccc(OCC[N+]4(C)CCCCC4)cc3c12

>  <Energy>  (20) 
158.7223609366729

>  <Genealogy>  (20) 
CCN(C)CCNc1c2ccccc2[n+](C)c2[nH]c3ccc(OCC[N+]4(C)CCCCC4)cc3c12 (3D coordinates assigned)
CCN(C)CCNc1c2ccccc2[n+](C)c2[nH]c3ccc(OCC[N+]4(C)CCCCC4)cc3c12 (nonaromatic ring conformer: 158.7223609366729 kcal/mol)

>  <smiles>  (20) 
CCN(C)CCNc1c2ccccc2[n+](C)c2[nH]c3ccc(OCC[N+]4(C)CCCCC4)cc3c12

>  <score_type>  (20) 
oracle

>  <origin>  (20) 
adg

>  <m_score__min__energy>  (20) 
-8.9000000000000004

>  <m_primary>  (20) 
energy

$$$$
20:0
     RDKit          3D

 67 71  0  0  0  0  0  0  0  0999 V2000
   -7.2140   21.0960  -32.4410 C   0  0  0  0  0  0  0  0  0  0  0  0
   -7.1950   19.7320  -33.1470 C   0  0  0  0  0  0  0  0  0  0  0  0
   -7.0580   18.5720  -32.2280 N   0  0  0  0  0  0  0  0  0  0  0  0
   -8.3580   18.2150  -31.6120 C   0  0  0  0  0  0  0  0  0  0  0  0
   -9.5120   18.8770  -32.3550 C   0  0  0  0  0  0  0  0  0  0  0  0
   -6.4080   17.3830  -32.8390 C   0  0  0  0  0  0  0  0  0  0  0  0
   -6.1060   17.5500  -34.3410 C   0  0  0  0  0  0  0  0  0  0  0  0
   -4.7430   17.1260  -34.6860 N   0  0  0  0  0  0  0  0  0  0  0  0
   -3.5840   17.5080  -33.9240 C   0  0  0  0  0  0  0  0  0  0  0  0
   -2.6040   16.5490  -33.6110 C   0  0  0  0  0  0  0  0  0  0  0  0
   -2.7130   15.2200  -34.0720 C   0  0  0  0  0  0  0  0  0  0  0  0
   -1.7370   14.2760  -33.7580 C   0  0  0  0  0  0  0  0  0  0  0  0
   -0.6440   14.6360  -32.9790 C   0  0  0  0  0  0  0  0  0  0  0  0
   -0.5110   15.9440  -32.5180 C   0  0  0  0  0  0  0  0  0  0  0  0
   -1.4790   16.9320  -32.8330 C   0  0  0  0  0  0  0  0  0  0  0  0
   -1.3430   18.2350  -32.4030 N   0  0  0  0  0  0  0  0  0  0  0  0
    0.0100   18.7210  -32.0470 C   0  0  0  0  0  0  0  0  0  0  0  0
   -2.4050   19.1180  -32.5180 C   0  0  0  0  0  0  0  0  0  0  0  0
   -3.4490   18.8170  -33.4270 C   0  0  0  0  0  0  0  0  0  0  0  0
   -4.3110   19.8470  -33.8460 C   0  0  0  0  0  0  0  0  0  0  0  0
   -4.2480   21.0720  -33.2720 N   0  0  0  0  0  0  0  0  0  0  0  0
   -3.3970   21.3410  -32.2540 C   0  0  0  0  0  0  0  0  0  0  0  0
   -3.4500   22.5580  -31.6530 N   0  0  0  0  0  0  0  0  0  0  0  0
   -2.6930   22.8740  -30.5700 C   0  0  0  0  0  0  0  0  0  0  0  0
   -2.7370   24.1700  -29.9960 C   0  0  0  0  0  0  0  0  0  0  0  0
   -3.5630   25.2060  -30.4720 O   0  0  0  0  0  0  0  0  0  0  0  0
   -4.9890   25.2000  -30.4770 C   0  0  0  0  0  0  0  0  0  0  0  0
   -1.9050   24.4670  -28.9010 C   0  0  0  0  0  0  0  0  0  0  0  0
   -1.9290   25.7720  -28.3840 O   0  0  0  0  0  0  0  0  0  0  0  0
   -1.3360   26.1600  -27.1500 C   0  0  0  0  0  0  0  0  0  0  0  0
   -1.0860   23.4650  -28.3490 C   0  0  0  0  0  0  0  0  0  0  0  0
   -1.0690   22.1830  -28.8950 C   0  0  0  0  0  0  0  0  0  0  0  0
   -1.8520   21.8880  -30.0150 C   0  0  0  0  0  0  0  0  0  0  0  0
   -1.7930   20.6200  -30.6100 C   0  0  0  0  0  0  0  0  0  0  0  0
   -2.4900   20.3550  -31.8040 C   0  0  0  0  0  0  0  0  0  0  0  0
   -7.2119   20.9450  -31.3514 H   0  0  0  0  0  0  0  0  0  0  0  0
   -6.3238   21.6724  -32.7330 H   0  0  0  0  0  0  0  0  0  0  0  0
   -8.1199   21.6474  -32.7330 H   0  0  0  0  0  0  0  0  0  0  0  0
   -8.1356   19.6199  -33.7061 H   0  0  0  0  0  0  0  0  0  0  0  0
   -6.3086   19.7256  -33.7983 H   0  0  0  0  0  0  0  0  0  0  0  0
   -8.4857   17.1230  -31.6479 H   0  0  0  0  0  0  0  0  0  0  0  0
   -8.3620   18.5683  -30.5703 H   0  0  0  0  0  0  0  0  0  0  0  0
  -10.2283   19.2879  -31.6283 H   0  0  0  0  0  0  0  0  0  0  0  0
   -9.1235   19.6895  -32.9865 H   0  0  0  0  0  0  0  0  0  0  0  0
  -10.0173   18.1314  -32.9865 H   0  0  0  0  0  0  0  0  0  0  0  0
   -5.4607   17.1952  -32.3124 H   0  0  0  0  0  0  0  0  0  0  0  0
   -7.1130   16.5441  -32.7425 H   0  0  0  0  0  0  0  0  0  0  0  0
   -6.8213   16.9429  -34.9153 H   0  0  0  0  0  0  0  0  0  0  0  0
   -6.1982   18.6184  -34.5860 H   0  0  0  0  0  0  0  0  0  0  0  0
   -4.6300   16.4030  -35.4310 H   0  0  0  0  0  0  0  0  0  0  0  0
   -3.5773   14.9259  -34.6856 H   0  0  0  0  0  0  0  0  0  0  0  0
   -1.8320   13.2442  -34.1274 H   0  0  0  0  0  0  0  0  0  0  0  0
    0.1191   13.8854  -32.7254 H   0  0  0  0  0  0  0  0  0  0  0  0
    0.3580   16.2148  -31.9003 H   0  0  0  0  0  0  0  0  0  0  0  0
    0.1104   18.7570  -30.9522 H   0  0  0  0  0  0  0  0  0  0  0  0
    0.7659   18.0382  -32.4622 H   0  0  0  0  0  0  0  0  0  0  0  0
    0.1586   19.7287  -32.4622 H   0  0  0  0  0  0  0  0  0  0  0  0
   -5.0416   19.6559  -34.6458 H   0  0  0  0  0  0  0  0  0  0  0  0
   -5.3593   25.1984  -29.4412 H   0  0  0  0  0  0  0  0  0  0  0  0
   -5.3576   26.0966  -30.9968 H   0  0  0  0  0  0  0  0  0  0  0  0
   -5.3501   24.3003  -30.9968 H   0  0  0  0  0  0  0  0  0  0  0  0
   -1.9358   25.7676  -26.3156 H   0  0  0  0  0  0  0  0  0  0  0  0
   -0.3152   25.7546  -27.0903 H   0  0  0  0  0  0  0  0  0  0  0  0
   -1.2987   27.2577  -27.0903 H   0  0  0  0  0  0  0  0  0  0  0  0
   -0.4537   23.6955  -27.4790 H   0  0  0  0  0  0  0  0  0  0  0  0
   -0.4388   21.4022  -28.4442 H   0  0  0  0  0  0  0  0  0  0  0  0
   -1.1964   19.8246  -30.1394 H   0  0  0  0  0  0  0  0  0  0  0  0
  1  2  1  0
  2  3  1  0
  3  4  1  0
  4  5  1  0
  3  6  1  0
  6  7  1  0
  7  8  1  0
  8  9  1  0
  9 10  2  0
 10 11  1  0
 11 12  2  0
 12 13  1  0
 13 14  2  0
 14 15  1  0
 15 16  2  0
 16 17  1  0
 16 18  1  0
 18 19  2  0
 19 20  1  0
 20 21  2  0
 21 22  1  0
 22 23  2  0
 23 24  1  0
 24 25  2  0
 25 26  1  0
 26 27  1  0
 25 28  1  0
 28 29  1  0
 29 30  1  0
 28 31  2  0
 31 32  1  0
 32 33  2  0
 33 34  1  0
 34 35  2  0
 19  9  1  0
 35 22  1  0
 15 10  1  0
 35 18  1  0
 33 24  1  0
  1 36  1  0
  1 37  1  0
  1 38  1  0
  2 39  1  0
  2 40  1  0
  4 41  1  0
  4 42  1  0
  5 43  1  0
  5 44  1  0
  5 45  1  0
  6 46  1  0
  6 47  1  0
  7 48  1  0
  7 49  1  0
  8 50  1  0
 11 51  1  0
 12 52  1  0
 13 53  1  0
 14 54  1  0
 17 55  1  0
 17 56  1  0
 17 57  1  0
 20 58  1  0
 27 59  1  0
 27 60  1  0
 27 61  1  0
 30 62  1  0
 30 63  1  0
 30 64  1  0
 31 65  1  0
 32 66  1  0
 34 67  1  0
M  CHG  1  16   1
M  END
>  <UniqueID>  (21) 
20

>  <SMILES>  (21) 
CCN(CC)CCNc1c2ccccc2[n+](C)c2c1cnc1nc3c(OC)c(OC)ccc3cc12

>  <Energy>  (21) 
117.04777743586548

>  <Genealogy>  (21) 
CCN(CC)CCNc1c2ccccc2[n+](C)c2c1cnc1nc3c(OC)c(OC)ccc3cc12 (3D coordinates assigned)
CCN(CC)CCNc1c2ccccc2[n+](C)c2c1cnc1nc3c(OC)c(OC)ccc3cc12 (optimized conformer: 117.04777743586548 kcal/mol)

>  <smiles>  (21) 
CCN(CC)CCNc1c2ccccc2[n+](C)c2c1cnc1nc3c(OC)c(OC)ccc3cc12

>  <score_type>  (21) 
oracle

>  <origin>  (21) 
adg

>  <m_score__min__energy>  (21) 
-9.1899999999999995

>  <m_primary>  (21) 
energy

$$$$
21:0
     RDKit          3D

 42 44  0  0  0  0  0  0  0  0999 V2000
   -7.2100   17.3650  -32.6970 C   0  0  0  0  0  0  0  0  0  0  0  0
   -7.6730   18.7750  -32.4380 C   0  0  0  0  0  0  0  0  0  0  0  0
   -9.0340   19.0210  -32.2020 C   0  0  0  0  0  0  0  0  0  0  0  0
   -9.4870   20.3160  -31.9620 C   0  0  0  0  0  0  0  0  0  0  0  0
   -8.5920   21.3850  -31.9630 C   0  0  0  0  0  0  0  0  0  0  0  0
   -7.2230   21.1730  -32.2090 C   0  0  0  0  0  0  0  0  0  0  0  0
   -6.2950   22.2780  -32.2010 N   0  0  0  0  0  0  0  0  0  0  0  0
   -6.0810   23.1560  -31.0460 C   0  0  0  0  0  0  0  0  0  0  0  0
   -4.7500   22.8060  -30.3490 C   0  0  0  0  0  0  0  0  0  0  0  0
   -3.6320   23.7630  -30.7920 C   0  0  0  0  0  0  0  0  0  0  0  0
   -3.8900   25.1280  -30.4860 O   0  0  0  0  0  0  0  0  0  0  0  0
   -5.2670   25.4920  -30.5370 C   0  0  0  0  0  0  0  0  0  0  0  0
   -6.1110   24.6320  -31.4900 C   0  0  0  0  0  0  0  0  0  0  0  0
   -6.7610   19.8560  -32.4420 C   0  0  0  0  0  0  0  0  0  0  0  0
   -5.3300   19.6150  -32.7100 C   0  0  0  0  0  0  0  0  0  0  0  0
   -4.2810   19.9750  -31.8850 C   0  0  0  0  0  0  0  0  0  0  0  0
   -3.1480   19.5650  -32.5630 C   0  0  0  0  0  0  0  0  0  0  0  0
   -3.5160   18.9930  -33.7260 N   0  0  0  0  0  0  0  0  0  0  0  0
   -4.8360   19.0140  -33.8110 N   0  0  0  0  0  0  0  0  0  0  0  0
   -5.5960   18.5380  -34.9630 C   0  0  0  0  0  0  0  0  0  0  0  0
   -7.0417   16.8524  -31.7384 H   0  0  0  0  0  0  0  0  0  0  0  0
   -7.9784   16.8263  -33.2709 H   0  0  0  0  0  0  0  0  0  0  0  0
   -6.2718   17.3867  -33.2709 H   0  0  0  0  0  0  0  0  0  0  0  0
   -9.7487   18.1848  -32.2066 H   0  0  0  0  0  0  0  0  0  0  0  0
  -10.5552   20.4961  -31.7709 H   0  0  0  0  0  0  0  0  0  0  0  0
   -8.9596   22.4036  -31.7697 H   0  0  0  0  0  0  0  0  0  0  0  0
   -5.6790   22.4160  -33.0340 H   0  0  0  0  0  0  0  0  0  0  0  0
   -6.8929   23.0025  -30.3198 H   0  0  0  0  0  0  0  0  0  0  0  0
   -4.8818   22.8855  -29.2598 H   0  0  0  0  0  0  0  0  0  0  0  0
   -4.4661   21.7804  -30.6273 H   0  0  0  0  0  0  0  0  0  0  0  0
   -2.7005   23.4648  -30.2886 H   0  0  0  0  0  0  0  0  0  0  0  0
   -3.5613   23.6880  -31.8872 H   0  0  0  0  0  0  0  0  0  0  0  0
   -5.6864   25.3978  -29.5245 H   0  0  0  0  0  0  0  0  0  0  0  0
   -5.3076   26.5220  -30.9211 H   0  0  0  0  0  0  0  0  0  0  0  0
   -7.1501   24.9929  -31.4806 H   0  0  0  0  0  0  0  0  0  0  0  0
   -5.6949   24.7091  -32.5053 H   0  0  0  0  0  0  0  0  0  0  0  0
   -4.3355   20.4759  -30.9072 H   0  0  0  0  0  0  0  0  0  0  0  0
   -2.1133   19.6862  -32.2099 H   0  0  0  0  0  0  0  0  0  0  0  0
   -2.8730   18.6040  -34.4520 H   0  0  0  0  0  0  0  0  0  0  0  0
   -6.4804   17.9841  -34.6153 H   0  0  0  0  0  0  0  0  0  0  0  0
   -5.9168   19.3968  -35.5709 H   0  0  0  0  0  0  0  0  0  0  0  0
   -4.9634   17.8745  -35.5709 H   0  0  0  0  0  0  0  0  0  0  0  0
  1  2  1  0
  2  3  2  0
  3  4  1  0
  4  5  2  0
  5  6  1  0
  6  7  1  0
  7  8  1  0
  8  9  1  0
  9 10  1  0
 10 11  1  0
 11 12  1  0
 12 13  1  0
  6 14  2  0
 14 15  1  0
 15 16  2  0
 16 17  1  0
 17 18  2  0
 18 19  1  0
 19 20  1  0
 14  2  1  0
 19 15  1  0
 13  8  1  0
  1 21  1  0
  1 22  1  0
  1 23  1  0
  3 24  1  0
  4 25  1  0
  5 26  1  0
  7 27  1  0
  8 28  1  0
  9 29  1  0
  9 30  1  0
 10 31  1  0
 10 32  1  0
 12 33  1  0
 12 34  1  0
 13 35  1  0
 13 36  1  0
 16 37  1  0
 17 38  1  0
 18 39  1  0
 20 40  1  0
 20 41  1  0
 20 42  1  0
M  CHG  1  18   1
M  END
>  <UniqueID>  (22) 
21

>  <SMILES>  (22) 
Cc1cccc(NC2CCOCC2)c1-c1cc[nH+]n1C

>  <Energy>  (22) 
91.87337392647845

>  <Genealogy>  (22) 
Cc1cccc(NC2CCOCC2)c1-c1cc[nH+]n1C (protonated)
Cc1cccc(NC2CCOCC2)c1-c1cc[nH+]n1C (3D coordinates assigned)
Cc1cccc(NC2CCOCC2)c1-c1cc[nH+]n1C (nonaromatic ring conformer: 91.87337392647845 kcal/mol)

>  <smiles>  (22) 
Cc1cccc(NC2CCOCC2)c1-c1ccnn1C

>  <score_type>  (22) 
oracle

>  <origin>  (22) 
adg

>  <m_score__min__energy>  (22) 
-8.1799999999999997

>  <m_primary>  (22) 
energy

$$$$
22:0
     RDKit          3D

 42 44  0  0  0  0  0  0  0  0999 V2000
   -3.0090   24.5810  -27.0290 C   0  0  0  0  0  0  0  0  0  0  0  0
   -1.8860   24.9030  -28.0090 C   0  0  0  0  0  0  0  0  0  0  0  0
   -2.3580   24.8460  -29.3560 O   0  0  0  0  0  0  0  0  0  0  0  0
   -3.0600   23.7750  -29.9350 C   0  0  0  0  0  0  0  0  0  0  0  0
   -2.6690   22.4330  -29.7610 C   0  0  0  0  0  0  0  0  0  0  0  0
   -3.3960   21.4020  -30.3550 C   0  0  0  0  0  0  0  0  0  0  0  0
   -4.5300   21.6830  -31.1310 C   0  0  0  0  0  0  0  0  0  0  0  0
   -5.2990   20.5800  -31.7610 C   0  0  0  0  0  0  0  0  0  0  0  0
   -6.7000   20.4890  -31.5740 C   0  0  0  0  0  0  0  0  0  0  0  0
   -7.4100   19.4370  -32.1800 C   0  0  0  0  0  0  0  0  0  0  0  0
   -8.9010   19.3310  -32.0260 C   0  0  0  0  0  0  0  0  0  0  0  0
   -9.5290   19.8140  -33.1600 F   0  0  0  0  0  0  0  0  0  0  0  0
   -9.2520   18.0060  -31.8380 F   0  0  0  0  0  0  0  0  0  0  0  0
   -6.7040   18.5590  -32.9410 N   0  0  0  0  0  0  0  0  0  0  0  0
   -7.1690   17.5140  -33.6080 N   0  0  0  0  0  0  0  0  0  0  0  0
   -6.1080   16.9330  -34.2180 C   0  0  0  0  0  0  0  0  0  0  0  0
   -4.9460   17.6370  -33.9220 C   0  0  0  0  0  0  0  0  0  0  0  0
   -3.1720   17.2630  -34.5150 Br  0  0  0  0  0  0  0  0  0  0  0  0
   -5.3810   18.6570  -33.1110 C   0  0  0  0  0  0  0  0  0  0  0  0
   -4.6560   19.6500  -32.5370 N   0  0  0  0  0  0  0  0  0  0  0  0
   -4.9280   23.0200  -31.2960 C   0  0  0  0  0  0  0  0  0  0  0  0
   -4.1950   24.0690  -30.7070 C   0  0  0  0  0  0  0  0  0  0  0  0
   -4.5610   25.4180  -30.8530 O   0  0  0  0  0  0  0  0  0  0  0  0
   -5.7280   26.0320  -30.3050 C   0  0  0  0  0  0  0  0  0  0  0  0
   -6.6740   24.9820  -29.7310 C   0  0  0  0  0  0  0  0  0  0  0  0
   -2.6383   24.6873  -25.9988 H   0  0  0  0  0  0  0  0  0  0  0  0
   -3.8469   25.2751  -27.1906 H   0  0  0  0  0  0  0  0  0  0  0  0
   -3.3518   23.5484  -27.1906 H   0  0  0  0  0  0  0  0  0  0  0  0
   -1.5057   25.9143  -27.8024 H   0  0  0  0  0  0  0  0  0  0  0  0
   -1.0844   24.1602  -27.8840 H   0  0  0  0  0  0  0  0  0  0  0  0
   -1.7838   22.1966  -29.1522 H   0  0  0  0  0  0  0  0  0  0  0  0
   -3.0772   20.3587  -30.2137 H   0  0  0  0  0  0  0  0  0  0  0  0
   -7.2278   21.2341  -30.9606 H   0  0  0  0  0  0  0  0  0  0  0  0
   -9.2158   19.9261  -31.1561 H   0  0  0  0  0  0  0  0  0  0  0  0
   -6.1583   16.0366  -34.8536 H   0  0  0  0  0  0  0  0  0  0  0  0
   -3.6210   19.6840  -32.6750 H   0  0  0  0  0  0  0  0  0  0  0  0
   -5.8230   23.2507  -31.8924 H   0  0  0  0  0  0  0  0  0  0  0  0
   -5.4290   26.7242  -29.5041 H   0  0  0  0  0  0  0  0  0  0  0  0
   -6.2495   26.5758  -31.1064 H   0  0  0  0  0  0  0  0  0  0  0  0
   -6.6402   25.0195  -28.6322 H   0  0  0  0  0  0  0  0  0  0  0  0
   -7.6993   25.1858  -30.0735 H   0  0  0  0  0  0  0  0  0  0  0  0
   -6.3647   23.9835  -30.0735 H   0  0  0  0  0  0  0  0  0  0  0  0
  1  2  1  0
  2  3  1  0
  3  4  1  0
  4  5  2  0
  5  6  1  0
  6  7  2  0
  7  8  1  0
  8  9  1  0
  9 10  2  0
 10 11  1  0
 11 12  1  0
 11 13  1  0
 10 14  1  0
 14 15  1  0
 15 16  2  0
 16 17  1  0
 17 18  1  0
 17 19  2  0
 19 20  1  0
  7 21  1  0
 21 22  2  0
 22 23  1  0
 23 24  1  0
 24 25  1  0
 22  4  1  0
 20  8  2  0
 19 14  1  0
  1 26  1  0
  1 27  1  0
  1 28  1  0
  2 29  1  0
  2 30  1  0
  5 31  1  0
  6 32  1  0
  9 33  1  0
 11 34  1  0
 16 35  1  0
 20 36  1  0
 21 37  1  0
 24 38  1  0
 24 39  1  0
 25 40  1  0
 25 41  1  0
 25 42  1  0
M  CHG  1  20   1
M  END
>  <UniqueID>  (23) 
22

>  <SMILES>  (23) 
CCOc1ccc(-c2cc(C(F)F)n3ncc(Br)c3[nH+]2)cc1OCC

>  <Energy>  (23) 
81.20623423674274

>  <Genealogy>  (23) 
CCOc1ccc(-c2cc(C(F)F)n3ncc(Br)c3[nH+]2)cc1OCC (protonated)
CCOc1ccc(-c2cc(C(F)F)n3ncc(Br)c3[nH+]2)cc1OCC (3D coordinates assigned)
CCOc1ccc(-c2cc(C(F)F)n3ncc(Br)c3[nH+]2)cc1OCC (optimized conformer: 81.20623423674274 kcal/mol)

>  <smiles>  (23) 
CCOc1ccc(-c2cc(C(F)F)n3ncc(Br)c3n2)cc1OCC

>  <score_type>  (23) 
oracle

>  <origin>  (23) 
adg

>  <m_score__min__energy>  (23) 
-8.0399999999999991

>  <m_primary>  (23) 
energy

$$$$
23:0
     RDKit          3D

 47 50  0  0  0  0  0  0  0  0999 V2000
   -6.8300   24.0360  -30.6060 C   0  0  0  0  0  0  0  0  0  0  0  0
   -5.7480   25.1140  -30.5190 C   0  0  0  0  0  0  0  0  0  0  0  0
   -4.5040   24.7130  -31.1950 N   0  0  0  0  0  0  0  0  0  0  0  0
   -3.5890   23.9410  -30.3290 C   0  0  0  0  0  0  0  0  0  0  0  0
   -3.5900   22.4380  -30.6550 C   0  0  0  0  0  0  0  0  0  0  0  0
   -4.0770   22.1930  -32.0140 N   0  0  0  0  0  0  0  0  0  0  0  0
   -3.8380   20.9440  -32.6790 C   0  0  0  0  0  0  0  0  0  0  0  0
   -2.5750   20.6320  -33.2380 C   0  0  0  0  0  0  0  0  0  0  0  0
   -1.5260   21.5730  -33.2180 C   0  0  0  0  0  0  0  0  0  0  0  0
   -0.2910   21.2730  -33.7900 C   0  0  0  0  0  0  0  0  0  0  0  0
   -0.0800   20.0400  -34.3950 C   0  0  0  0  0  0  0  0  0  0  0  0
   -1.0940   19.0810  -34.4160 C   0  0  0  0  0  0  0  0  0  0  0  0
   -2.3530   19.3370  -33.8190 C   0  0  0  0  0  0  0  0  0  0  0  0
   -3.3520   18.3750  -33.7940 N   0  0  0  0  0  0  0  0  0  0  0  0
   -3.1120   17.0030  -34.2770 C   0  0  0  0  0  0  0  0  0  0  0  0
   -4.5890   18.7350  -33.3230 C   0  0  0  0  0  0  0  0  0  0  0  0
   -5.7140   17.9780  -33.3550 N   0  0  0  0  0  0  0  0  0  0  0  0
   -6.6800   18.7610  -32.8350 C   0  0  0  0  0  0  0  0  0  0  0  0
   -8.0290   18.4390  -32.6990 C   0  0  0  0  0  0  0  0  0  0  0  0
   -8.8940   19.4200  -32.1880 C   0  0  0  0  0  0  0  0  0  0  0  0
   -8.4040   20.7000  -31.8450 C   0  0  0  0  0  0  0  0  0  0  0  0
   -9.5050   21.9230  -31.2410 Cl  0  0  0  0  0  0  0  0  0  0  0  0
   -7.0390   21.0040  -32.0030 C   0  0  0  0  0  0  0  0  0  0  0  0
   -6.1920   20.0010  -32.4790 C   0  0  0  0  0  0  0  0  0  0  0  0
   -4.8400   19.9810  -32.7830 C   0  0  0  0  0  0  0  0  0  0  0  0
   -7.1311   23.7360  -29.5914 H   0  0  0  0  0  0  0  0  0  0  0  0
   -7.7023   24.4347  -31.1446 H   0  0  0  0  0  0  0  0  0  0  0  0
   -6.4345   23.1622  -31.1446 H   0  0  0  0  0  0  0  0  0  0  0  0
   -6.1260   26.0333  -30.9901 H   0  0  0  0  0  0  0  0  0  0  0  0
   -5.5166   25.2732  -29.4555 H   0  0  0  0  0  0  0  0  0  0  0  0
   -4.0430   25.5590  -31.6000 H   0  0  0  0  0  0  0  0  0  0  0  0
   -2.5682   24.3291  -30.4612 H   0  0  0  0  0  0  0  0  0  0  0  0
   -3.9369   24.0562  -29.2919 H   0  0  0  0  0  0  0  0  0  0  0  0
   -2.5644   22.0505  -30.5657 H   0  0  0  0  0  0  0  0  0  0  0  0
   -4.2595   21.9277  -29.9470 H   0  0  0  0  0  0  0  0  0  0  0  0
   -4.3690   23.0170  -32.5850 H   0  0  0  0  0  0  0  0  0  0  0  0
   -1.6836   22.5541  -32.7462 H   0  0  0  0  0  0  0  0  0  0  0  0
    0.5202   22.0155  -33.7624 H   0  0  0  0  0  0  0  0  0  0  0  0
    0.8919   19.8184  -34.8601 H   0  0  0  0  0  0  0  0  0  0  0  0
   -0.9128   18.1117  -34.9035 H   0  0  0  0  0  0  0  0  0  0  0  0
   -2.9938   16.3271  -33.4173 H   0  0  0  0  0  0  0  0  0  0  0  0
   -3.9663   16.6743  -34.8871 H   0  0  0  0  0  0  0  0  0  0  0  0
   -2.1969   16.9839  -34.8871 H   0  0  0  0  0  0  0  0  0  0  0  0
   -5.8540   17.0200  -33.7440 H   0  0  0  0  0  0  0  0  0  0  0  0
   -8.4052   17.4453  -32.9837 H   0  0  0  0  0  0  0  0  0  0  0  0
   -9.9613   19.1902  -32.0537 H   0  0  0  0  0  0  0  0  0  0  0  0
   -6.6503   22.0035  -31.7584 H   0  0  0  0  0  0  0  0  0  0  0  0
  1  2  1  0
  2  3  1  0
  3  4  1  0
  4  5  1  0
  5  6  1  0
  6  7  1  0
  7  8  2  0
  8  9  1  0
  9 10  2  0
 10 11  1  0
 11 12  2  0
 12 13  1  0
 13 14  2  0
 14 15  1  0
 14 16  1  0
 16 17  1  0
 17 18  1  0
 18 19  2  0
 19 20  1  0
 20 21  2  0
 21 22  1  0
 21 23  1  0
 23 24  2  0
 24 25  1  0
 25  7  1  0
 13  8  1  0
 25 16  2  0
 24 18  1  0
  1 26  1  0
  1 27  1  0
  1 28  1  0
  2 29  1  0
  2 30  1  0
  3 31  1  0
  4 32  1  0
  4 33  1  0
  5 34  1  0
  5 35  1  0
  6 36  1  0
  9 37  1  0
 10 38  1  0
 11 39  1  0
 12 40  1  0
 15 41  1  0
 15 42  1  0
 15 43  1  0
 17 44  1  0
 19 45  1  0
 20 46  1  0
 23 47  1  0
M  CHG  1  14   1
M  END
>  <UniqueID>  (24) 
23

>  <SMILES>  (24) 
CCNCCNc1c2ccccc2[n+](C)c2[nH]c3ccc(Cl)cc3c12

>  <Energy>  (24) 
106.24952234013877

>  <Genealogy>  (24) 
CCNCCNc1c2ccccc2[n+](C)c2[nH]c3ccc(Cl)cc3c12 (3D coordinates assigned)
CCNCCNc1c2ccccc2[n+](C)c2[nH]c3ccc(Cl)cc3c12 (optimized conformer: 106.24952234013877 kcal/mol)

>  <smiles>  (24) 
CCNCCNc1c2ccccc2[n+](C)c2[nH]c3ccc(Cl)cc3c12

>  <score_type>  (24) 
oracle

>  <origin>  (24) 
adg

>  <m_score__min__energy>  (24) 
-9.0700000000000003

>  <m_primary>  (24) 
energy

$$$$
24:0
     RDKit          3D

 43 45  0  0  0  0  0  0  0  0999 V2000
   -8.6130   19.4150  -31.2180 C   0  0  0  0  0  0  0  0  0  0  0  0
   -8.6790   20.3540  -32.4160 C   0  0  0  0  0  0  0  0  0  0  0  0
   -7.3500   20.8960  -32.7190 N   0  0  0  0  0  0  0  0  0  0  0  0
   -6.2400   20.2520  -33.1650 C   0  0  0  0  0  0  0  0  0  0  0  0
   -6.1580   18.8470  -33.5960 C   0  0  0  0  0  0  0  0  0  0  0  0
   -5.2930   18.3040  -34.5280 C   0  0  0  0  0  0  0  0  0  0  0  0
   -5.5780   16.9560  -34.5600 C   0  0  0  0  0  0  0  0  0  0  0  0
   -6.5870   16.7550  -33.6420 C   0  0  0  0  0  0  0  0  0  0  0  0
   -6.9070   17.8980  -33.0810 O   0  0  0  0  0  0  0  0  0  0  0  0
   -5.1470   21.0390  -33.0860 N   0  0  0  0  0  0  0  0  0  0  0  0
   -5.5560   22.1980  -32.5980 N   0  0  0  0  0  0  0  0  0  0  0  0
   -6.8750   22.1090  -32.3670 C   0  0  0  0  0  0  0  0  0  0  0  0
   -7.8370   23.4170  -31.5960 S   0  0  0  0  0  0  0  0  0  0  0  0
   -6.6170   23.7460  -30.2720 C   0  0  0  0  0  0  0  0  0  0  0  0
   -5.6640   24.8840  -30.6490 C   0  0  0  0  0  0  0  0  0  0  0  0
   -4.3280   24.4070  -30.8170 O   0  0  0  0  0  0  0  0  0  0  0  0
   -3.7600   23.3030  -30.1570 C   0  0  0  0  0  0  0  0  0  0  0  0
   -3.2520   22.1880  -30.8550 C   0  0  0  0  0  0  0  0  0  0  0  0
   -2.6970   21.1110  -30.1600 C   0  0  0  0  0  0  0  0  0  0  0  0
   -2.6440   21.1300  -28.7660 C   0  0  0  0  0  0  0  0  0  0  0  0
   -3.1470   22.2250  -28.0620 C   0  0  0  0  0  0  0  0  0  0  0  0
   -3.7080   23.3140  -28.7480 C   0  0  0  0  0  0  0  0  0  0  0  0
   -4.2410   24.4930  -27.9830 C   0  0  0  0  0  0  0  0  0  0  0  0
   -8.6543   20.0025  -30.2889 H   0  0  0  0  0  0  0  0  0  0  0  0
   -9.4645   18.7193  -31.2501 H   0  0  0  0  0  0  0  0  0  0  0  0
   -7.6726   18.8453  -31.2501 H   0  0  0  0  0  0  0  0  0  0  0  0
   -9.0516   19.7997  -33.2901 H   0  0  0  0  0  0  0  0  0  0  0  0
   -9.3566   21.1871  -32.1776 H   0  0  0  0  0  0  0  0  0  0  0  0
   -4.5350   18.8371  -35.1207 H   0  0  0  0  0  0  0  0  0  0  0  0
   -5.0973   16.1938  -35.1909 H   0  0  0  0  0  0  0  0  0  0  0  0
   -7.0528   15.7848  -33.4144 H   0  0  0  0  0  0  0  0  0  0  0  0
   -4.9370   23.0150  -32.4010 H   0  0  0  0  0  0  0  0  0  0  0  0
   -7.1545   24.0211  -29.3525 H   0  0  0  0  0  0  0  0  0  0  0  0
   -6.0198   22.8345  -30.1222 H   0  0  0  0  0  0  0  0  0  0  0  0
   -6.0035   25.3385  -31.5914 H   0  0  0  0  0  0  0  0  0  0  0  0
   -5.6688   25.6250  -29.8361 H   0  0  0  0  0  0  0  0  0  0  0  0
   -3.2931   22.1663  -31.9540 H   0  0  0  0  0  0  0  0  0  0  0  0
   -2.3010   20.2463  -30.7127 H   0  0  0  0  0  0  0  0  0  0  0  0
   -2.2053   20.2810  -28.2212 H   0  0  0  0  0  0  0  0  0  0  0  0
   -3.1037   22.2349  -26.9629 H   0  0  0  0  0  0  0  0  0  0  0  0
   -4.1536   24.2996  -26.9037 H   0  0  0  0  0  0  0  0  0  0  0  0
   -3.6613   25.3911  -28.2428 H   0  0  0  0  0  0  0  0  0  0  0  0
   -5.2981   24.6511  -28.2428 H   0  0  0  0  0  0  0  0  0  0  0  0
  1  2  1  0
  2  3  1  0
  3  4  1  0
  4  5  1  0
  5  6  2  0
  6  7  1  0
  7  8  2  0
  8  9  1  0
  4 10  2  0
 10 11  1  0
 11 12  2  0
 12 13  1  0
 13 14  1  0
 14 15  1  0
 15 16  1  0
 16 17  1  0
 17 18  2  0
 18 19  1  0
 19 20  2  0
 20 21  1  0
 21 22  2  0
 22 23  1  0
 12  3  1  0
 22 17  1  0
  9  5  1  0
  1 24  1  0
  1 25  1  0
  1 26  1  0
  2 27  1  0
  2 28  1  0
  6 29  1  0
  7 30  1  0
  8 31  1  0
 11 32  1  0
 14 33  1  0
 14 34  1  0
 15 35  1  0
 15 36  1  0
 18 37  1  0
 19 38  1  0
 20 39  1  0
 21 40  1  0
 23 41  1  0
 23 42  1  0
 23 43  1  0
M  CHG  1  11   1
M  END
>  <UniqueID>  (25) 
24

>  <SMILES>  (25) 
CCn1c(-c2ccco2)n[nH+]c1SCCOc1ccccc1C

>  <Energy>  (25) 
101.65758528314757

>  <Genealogy>  (25) 
CCn1c(-c2ccco2)n[nH+]c1SCCOc1ccccc1C (protonated)
CCn1c(-c2ccco2)n[nH+]c1SCCOc1ccccc1C (3D coordinates assigned)
CCn1c(-c2ccco2)n[nH+]c1SCCOc1ccccc1C (optimized conformer: 101.65758528314757 kcal/mol)

>  <smiles>  (25) 
CCn1c(SCCOc2ccccc2C)nnc1-c1ccco1

>  <score_type>  (25) 
oracle

>  <origin>  (25) 
adg

>  <m_score__min__energy>  (25) 
-7.8200000000000003

>  <m_primary>  (25) 
energy

$$$$
25:0
     RDKit          3D

 45 47  0  0  0  0  0  0  0  0999 V2000
   -3.9550   24.1950  -28.1400 C   0  0  0  0  0  0  0  0  0  0  0  0
   -3.6730   23.9380  -29.6220 C   0  0  0  0  0  0  0  0  0  0  0  0
   -3.8730   25.1350  -30.4530 N   0  0  0  0  0  0  0  0  0  0  0  0
   -5.2620   25.6120  -30.4180 C   0  0  0  0  0  0  0  0  0  0  0  0
   -6.2350   24.4300  -30.5000 C   0  0  0  0  0  0  0  0  0  0  0  0
   -6.2980   23.8380  -31.9080 C   0  0  0  0  0  0  0  0  0  0  0  0
   -4.9870   23.4620  -32.3210 O   0  0  0  0  0  0  0  0  0  0  0  0
   -4.5840   22.1440  -32.5830 C   0  0  0  0  0  0  0  0  0  0  0  0
   -3.2360   21.7940  -32.7610 C   0  0  0  0  0  0  0  0  0  0  0  0
   -2.8870   20.4770  -33.0520 C   0  0  0  0  0  0  0  0  0  0  0  0
   -3.8740   19.4860  -33.1520 C   0  0  0  0  0  0  0  0  0  0  0  0
   -3.5140   18.1860  -33.4960 C   0  0  0  0  0  0  0  0  0  0  0  0
   -4.4960   17.2180  -33.6850 C   0  0  0  0  0  0  0  0  0  0  0  0
   -4.1350   15.9330  -34.1190 C   0  0  0  0  0  0  0  0  0  0  0  0
   -5.1140   14.9710  -34.3620 C   0  0  0  0  0  0  0  0  0  0  0  0
   -6.4590   15.2880  -34.1890 C   0  0  0  0  0  0  0  0  0  0  0  0
   -6.8330   16.5580  -33.7460 C   0  0  0  0  0  0  0  0  0  0  0  0
   -5.8570   17.5450  -33.4530 C   0  0  0  0  0  0  0  0  0  0  0  0
   -6.1930   18.8000  -32.9720 N   0  0  0  0  0  0  0  0  0  0  0  0
   -7.5660   19.0630  -32.4860 C   0  0  0  0  0  0  0  0  0  0  0  0
   -5.2370   19.8000  -32.9240 C   0  0  0  0  0  0  0  0  0  0  0  0
   -5.5680   21.1550  -32.6710 C   0  0  0  0  0  0  0  0  0  0  0  0
   -3.2802   23.5801  -27.5263 H   0  0  0  0  0  0  0  0  0  0  0  0
   -3.7887   25.2587  -27.9142 H   0  0  0  0  0  0  0  0  0  0  0  0
   -4.9987   23.9310  -27.9142 H   0  0  0  0  0  0  0  0  0  0  0  0
   -2.6301   23.6051  -29.7294 H   0  0  0  0  0  0  0  0  0  0  0  0
   -4.3820   23.1711  -29.9673 H   0  0  0  0  0  0  0  0  0  0  0  0
   -3.6100   24.9180  -31.4440 H   0  0  0  0  0  0  0  0  0  0  0  0
   -5.4340   26.1586  -29.4791 H   0  0  0  0  0  0  0  0  0  0  0  0
   -5.4333   26.2756  -31.2784 H   0  0  0  0  0  0  0  0  0  0  0  0
   -5.9042   23.6483  -29.8004 H   0  0  0  0  0  0  0  0  0  0  0  0
   -7.2388   24.7971  -30.2401 H   0  0  0  0  0  0  0  0  0  0  0  0
   -6.9503   22.9523  -31.9051 H   0  0  0  0  0  0  0  0  0  0  0  0
   -6.7026   24.5872  -32.6045 H   0  0  0  0  0  0  0  0  0  0  0  0
   -2.4534   22.5617  -32.6705 H   0  0  0  0  0  0  0  0  0  0  0  0
   -1.8301   20.2128  -33.2043 H   0  0  0  0  0  0  0  0  0  0  0  0
   -2.4528   17.9237  -33.6185 H   0  0  0  0  0  0  0  0  0  0  0  0
   -3.0740   15.6838  -34.2681 H   0  0  0  0  0  0  0  0  0  0  0  0
   -4.8243   13.9619  -34.6903 H   0  0  0  0  0  0  0  0  0  0  0  0
   -7.2307   14.5338  -34.4025 H   0  0  0  0  0  0  0  0  0  0  0  0
   -7.8996   16.7968  -33.6224 H   0  0  0  0  0  0  0  0  0  0  0  0
   -7.5717   19.0641  -31.3860 H   0  0  0  0  0  0  0  0  0  0  0  0
   -7.9044   20.0423  -32.8554 H   0  0  0  0  0  0  0  0  0  0  0  0
   -8.2424   18.2781  -32.8554 H   0  0  0  0  0  0  0  0  0  0  0  0
   -6.6239   21.4347  -32.5409 H   0  0  0  0  0  0  0  0  0  0  0  0
  1  2  1  0
  2  3  1  0
  3  4  1  0
  4  5  1  0
  5  6  1  0
  6  7  1  0
  7  8  1  0
  8  9  2  0
  9 10  1  0
 10 11  2  0
 11 12  1  0
 12 13  2  0
 13 14  1  0
 14 15  2  0
 15 16  1  0
 16 17  2  0
 17 18  1  0
 18 19  2  0
 19 20  1  0
 19 21  1  0
 21 22  2  0
 22  8  1  0
 21 11  1  0
 18 13  1  0
  1 23  1  0
  1 24  1  0
  1 25  1  0
  2 26  1  0
  2 27  1  0
  3 28  1  0
  4 29  1  0
  4 30  1  0
  5 31  1  0
  5 32  1  0
  6 33  1  0
  6 34  1  0
  9 35  1  0
 10 36  1  0
 12 37  1  0
 14 38  1  0
 15 39  1  0
 16 40  1  0
 17 41  1  0
 20 42  1  0
 20 43  1  0
 20 44  1  0
 22 45  1  0
M  CHG  1  19   1
M  END
>  <UniqueID>  (26) 
25

>  <SMILES>  (26) 
CCNCCCOc1ccc2cc3ccccc3[n+](C)c2c1

>  <Energy>  (26) 
58.209063884735556

>  <Genealogy>  (26) 
CCNCCCOc1ccc2cc3ccccc3[n+](C)c2c1 (3D coordinates assigned)
CCNCCCOc1ccc2cc3ccccc3[n+](C)c2c1 (optimized conformer: 58.209063884735556 kcal/mol)

>  <smiles>  (26) 
CCNCCCOc1ccc2cc3ccccc3[n+](C)c2c1

>  <score_type>  (26) 
oracle

>  <origin>  (26) 
adg

>  <m_score__min__energy>  (26) 
-8.3499999999999996

>  <m_primary>  (26) 
energy

$$$$
26:0
     RDKit          3D

 37 37  0  0  0  0  0  0  0  0999 V2000
   -6.4690   25.6680  -29.4840 C   0  0  0  0  0  0  0  0  0  0  0  0
   -5.4220   25.1860  -30.4880 C   0  0  0  0  0  0  0  0  0  0  0  0
   -5.9820   24.1810  -31.5120 C   0  0  0  0  0  0  0  0  0  0  0  0
   -5.9290   22.7230  -31.0350 C   0  0  0  0  0  0  0  0  0  0  0  0
   -7.2900   22.1830  -30.8550 N   0  0  0  0  0  0  0  0  0  0  0  0
   -8.2680   22.7660  -31.7860 C   0  0  0  0  0  0  0  0  0  0  0  0
   -9.4880   21.8530  -31.9670 C   0  0  0  0  0  0  0  0  0  0  0  0
   -9.1180   20.3700  -31.8400 C   0  0  0  0  0  0  0  0  0  0  0  0
   -8.4460   19.8950  -33.0480 N   0  0  0  0  0  0  0  0  0  0  0  0
   -7.0320   19.6630  -33.1010 C   0  0  0  0  0  0  0  0  0  0  0  0
   -6.2370   19.8420  -32.1020 N   0  0  0  0  0  0  0  0  0  0  0  0
   -4.8680   19.5210  -32.4870 C   0  0  0  0  0  0  0  0  0  0  0  0
   -4.9660   19.0930  -33.9620 C   0  0  0  0  0  0  0  0  0  0  0  0
   -6.3790   19.2140  -34.2710 N   0  0  0  0  0  0  0  0  0  0  0  0
   -6.1014   25.4988  -28.4612 H   0  0  0  0  0  0  0  0  0  0  0  0
   -6.6539   26.7419  -29.6342 H   0  0  0  0  0  0  0  0  0  0  0  0
   -7.4051   25.1102  -29.6342 H   0  0  0  0  0  0  0  0  0  0  0  0
   -5.0313   26.0586  -31.0320 H   0  0  0  0  0  0  0  0  0  0  0  0
   -4.6359   24.6689  -29.9182 H   0  0  0  0  0  0  0  0  0  0  0  0
   -7.0307   24.4417  -31.7173 H   0  0  0  0  0  0  0  0  0  0  0  0
   -5.3501   24.2496  -32.4098 H   0  0  0  0  0  0  0  0  0  0  0  0
   -5.3964   22.1175  -31.7832 H   0  0  0  0  0  0  0  0  0  0  0  0
   -5.4034   22.6859  -30.0694 H   0  0  0  0  0  0  0  0  0  0  0  0
   -7.6050   22.4120  -29.8830 H   0  0  0  0  0  0  0  0  0  0  0  0
   -8.6034   23.7361  -31.3904 H   0  0  0  0  0  0  0  0  0  0  0  0
   -7.7812   22.8885  -32.7648 H   0  0  0  0  0  0  0  0  0  0  0  0
  -10.2342   22.1003  -31.1975 H   0  0  0  0  0  0  0  0  0  0  0  0
   -9.8898   22.0182  -32.9776 H   0  0  0  0  0  0  0  0  0  0  0  0
   -8.4462   20.2388  -30.9789 H   0  0  0  0  0  0  0  0  0  0  0  0
  -10.0409   19.7882  -31.6993 H   0  0  0  0  0  0  0  0  0  0  0  0
   -9.0000   19.7220  -33.9180 H   0  0  0  0  0  0  0  0  0  0  0  0
   -6.5190   20.1700  -31.1530 H   0  0  0  0  0  0  0  0  0  0  0  0
   -4.2187   20.4026  -32.3814 H   0  0  0  0  0  0  0  0  0  0  0  0
   -4.4317   18.7343  -31.8539 H   0  0  0  0  0  0  0  0  0  0  0  0
   -4.3676   19.7578  -34.6024 H   0  0  0  0  0  0  0  0  0  0  0  0
   -4.5811   18.0770  -34.1339 H   0  0  0  0  0  0  0  0  0  0  0  0
   -6.8300   19.0070  -35.1890 H   0  0  0  0  0  0  0  0  0  0  0  0
  1  2  1  0
  2  3  1  0
  3  4  1  0
  4  5  1  0
  5  6  1  0
  6  7  1  0
  7  8  1  0
  8  9  1  0
  9 10  1  0
 10 11  2  0
 11 12  1  0
 12 13  1  0
 13 14  1  0
 14 10  1  0
  1 15  1  0
  1 16  1  0
  1 17  1  0
  2 18  1  0
  2 19  1  0
  3 20  1  0
  3 21  1  0
  4 22  1  0
  4 23  1  0
  5 24  1  0
  6 25  1  0
  6 26  1  0
  7 27  1  0
  7 28  1  0
  8 29  1  0
  8 30  1  0
  9 31  1  0
 11 32  1  0
 12 33  1  0
 12 34  1  0
 13 35  1  0
 13 36  1  0
 14 37  1  0
M  CHG  1  11   1
M  END
>  <UniqueID>  (27) 
26

>  <SMILES>  (27) 
CCCCNCCCNC1=[NH+]CCN1

>  <Energy>  (27) 
34.2244194305333

>  <Genealogy>  (27) 
CCCCNCCCNC1=[NH+]CCN1 (protonated)
CCCCNCCCNC1=[NH+]CCN1 (3D coordinates assigned)
CCCCNCCCNC1=[NH+]CCN1 (nonaromatic ring conformer: 34.2244194305333 kcal/mol)

>  <smiles>  (27) 
CCCCNCCCNC1=NCCN1

>  <score_type>  (27) 
oracle

>  <origin>  (27) 
adg

>  <m_score__min__energy>  (27) 
-4.4400000000000004

>  <m_primary>  (27) 
energy

$$$$
27:0
     RDKit          3D

 39 40  0  0  0  0  0  0  0  0999 V2000
   -1.5520   24.9350  -28.2810 C   0  0  0  0  0  0  0  0  0  0  0  0
   -2.4180   25.2980  -29.3520 O   0  0  0  0  0  0  0  0  0  0  0  0
   -3.6640   24.7020  -29.5990 C   0  0  0  0  0  0  0  0  0  0  0  0
   -4.6370   25.3020  -30.4200 C   0  0  0  0  0  0  0  0  0  0  0  0
   -5.8650   24.6690  -30.6340 C   0  0  0  0  0  0  0  0  0  0  0  0
   -6.1440   23.4350  -30.0240 C   0  0  0  0  0  0  0  0  0  0  0  0
   -7.4770   22.7610  -30.2380 C   0  0  0  0  0  0  0  0  0  0  0  0
   -8.0230   22.9900  -31.6560 C   0  0  0  0  0  0  0  0  0  0  0  0
   -7.1850   22.3670  -32.6880 N   0  0  0  0  0  0  0  0  0  0  0  0
   -6.8980   20.9570  -32.7590 C   0  0  0  0  0  0  0  0  0  0  0  0
   -7.9580   20.0590  -32.5790 C   0  0  0  0  0  0  0  0  0  0  0  0
   -7.7580   18.6830  -32.6900 C   0  0  0  0  0  0  0  0  0  0  0  0
   -6.4810   18.1710  -32.9670 C   0  0  0  0  0  0  0  0  0  0  0  0
   -6.2730   16.7520  -33.0970 N   0  0  0  0  0  0  0  0  0  0  0  0
   -6.8460   16.1030  -33.9970 O   0  0  0  0  0  0  0  0  0  0  0  0
   -5.4340   16.0850  -32.2330 O   0  0  0  0  0  0  0  0  0  0  0  0
   -5.4060   19.0630  -33.1050 C   0  0  0  0  0  0  0  0  0  0  0  0
   -5.5930   20.4510  -32.9770 C   0  0  0  0  0  0  0  0  0  0  0  0
   -4.3900   21.3490  -33.0610 C   0  0  0  0  0  0  0  0  0  0  0  0
   -5.1680   22.8340  -29.2150 C   0  0  0  0  0  0  0  0  0  0  0  0
   -3.9390   23.4660  -29.0040 C   0  0  0  0  0  0  0  0  0  0  0  0
   -2.0483   25.1430  -27.3216 H   0  0  0  0  0  0  0  0  0  0  0  0
   -1.3167   23.8625  -28.3471 H   0  0  0  0  0  0  0  0  0  0  0  0
   -0.6223   25.5191  -28.3471 H   0  0  0  0  0  0  0  0  0  0  0  0
   -4.4305   26.2724  -30.8950 H   0  0  0  0  0  0  0  0  0  0  0  0
   -6.6171   25.1401  -31.2839 H   0  0  0  0  0  0  0  0  0  0  0  0
   -7.3573   21.6798  -30.0749 H   0  0  0  0  0  0  0  0  0  0  0  0
   -8.1935   23.1967  -29.5261 H   0  0  0  0  0  0  0  0  0  0  0  0
   -9.0348   22.5629  -31.7178 H   0  0  0  0  0  0  0  0  0  0  0  0
   -8.0301   24.0744  -31.8406 H   0  0  0  0  0  0  0  0  0  0  0  0
   -6.5640   23.0100  -33.2310 H   0  0  0  0  0  0  0  0  0  0  0  0
   -8.9619   20.4443  -32.3469 H   0  0  0  0  0  0  0  0  0  0  0  0
   -8.6063   17.9950  -32.5596 H   0  0  0  0  0  0  0  0  0  0  0  0
   -4.4007   18.6699  -33.3168 H   0  0  0  0  0  0  0  0  0  0  0  0
   -4.0502   21.6026  -32.0460 H   0  0  0  0  0  0  0  0  0  0  0  0
   -3.5826   20.8309  -33.5992 H   0  0  0  0  0  0  0  0  0  0  0  0
   -4.6571   22.2704  -33.5992 H   0  0  0  0  0  0  0  0  0  0  0  0
   -5.3708   21.8607  -28.7444 H   0  0  0  0  0  0  0  0  0  0  0  0
   -3.1821   22.9876  -28.3650 H   0  0  0  0  0  0  0  0  0  0  0  0
  1  2  1  0
  2  3  1  0
  3  4  2  0
  4  5  1  0
  5  6  2  0
  6  7  1  0
  7  8  1  0
  8  9  1  0
  9 10  1  0
 10 11  2  0
 11 12  1  0
 12 13  2  0
 13 14  1  0
 14 15  2  0
 14 16  1  0
 13 17  1  0
 17 18  2  0
 18 19  1  0
  6 20  1  0
 20 21  2  0
 21  3  1  0
 18 10  1  0
  1 22  1  0
  1 23  1  0
  1 24  1  0
  4 25  1  0
  5 26  1  0
  7 27  1  0
  7 28  1  0
  8 29  1  0
  8 30  1  0
  9 31  1  0
 11 32  1  0
 12 33  1  0
 17 34  1  0
 19 35  1  0
 19 36  1  0
 19 37  1  0
 20 38  1  0
 21 39  1  0
M  CHG  2  14   1  16  -1
M  END
>  <UniqueID>  (28) 
27

>  <SMILES>  (28) 
COc1ccc(CCNc2ccc([N+](=O)[O-])cc2C)cc1

>  <Energy>  (28) 
40.97607301559196

>  <Genealogy>  (28) 
COc1ccc(CCNc2ccc([N+](=O)[O-])cc2C)cc1 (3D coordinates assigned)
COc1ccc(CCNc2ccc([N+](=O)[O-])cc2C)cc1 (optimized conformer: 40.97607301559196 kcal/mol)

>  <smiles>  (28) 
COc1ccc(CCNc2ccc([N+](=O)[O-])cc2C)cc1

>  <score_type>  (28) 
oracle

>  <origin>  (28) 
adg

>  <m_score__min__energy>  (28) 
-8.2300000000000004

>  <m_primary>  (28) 
energy

$$$$
28:0
     RDKit          3D

 60 63  0  0  0  0  0  0  0  0999 V2000
   -3.4990   23.8330  -27.3510 C   0  0  0  0  0  0  0  0  0  0  0  0
   -4.4900   23.4910  -28.4720 C   0  0  0  0  0  0  0  0  0  0  0  0
   -4.7960   24.6480  -29.3540 N   0  0  0  0  0  0  0  0  0  0  0  0
   -6.1150   25.3040  -29.0860 C   0  0  0  0  0  0  0  0  0  0  0  0
   -7.2440   25.0040  -30.0890 C   0  0  0  0  0  0  0  0  0  0  0  0
   -4.5570   24.3960  -30.8040 C   0  0  0  0  0  0  0  0  0  0  0  0
   -4.2230   22.9370  -31.1980 C   0  0  0  0  0  0  0  0  0  0  0  0
   -4.7700   22.5700  -32.5070 N   0  0  0  0  0  0  0  0  0  0  0  0
   -5.4440   21.3150  -32.6650 C   0  0  0  0  0  0  0  0  0  0  0  0
   -6.8260   21.1860  -32.4030 C   0  0  0  0  0  0  0  0  0  0  0  0
   -7.5970   22.3110  -32.0500 C   0  0  0  0  0  0  0  0  0  0  0  0
   -8.9660   22.1910  -31.8230 C   0  0  0  0  0  0  0  0  0  0  0  0
   -9.5910   20.9550  -31.9500 C   0  0  0  0  0  0  0  0  0  0  0  0
   -8.8520   19.8210  -32.2880 C   0  0  0  0  0  0  0  0  0  0  0  0
   -7.4540   19.8980  -32.5010 C   0  0  0  0  0  0  0  0  0  0  0  0
   -6.7010   18.7720  -32.8030 N   0  0  0  0  0  0  0  0  0  0  0  0
   -7.3000   17.4250  -32.8020 C   0  0  0  0  0  0  0  0  0  0  0  0
   -5.3780   18.9420  -33.1230 C   0  0  0  0  0  0  0  0  0  0  0  0
   -4.5200   17.9820  -33.5530 N   0  0  0  0  0  0  0  0  0  0  0  0
   -3.3520   18.6240  -33.7620 C   0  0  0  0  0  0  0  0  0  0  0  0
   -2.1680   18.0660  -34.2350 C   0  0  0  0  0  0  0  0  0  0  0  0
   -1.0510   18.9120  -34.4240 C   0  0  0  0  0  0  0  0  0  0  0  0
    0.2350   18.3190  -34.9340 C   0  0  0  0  0  0  0  0  0  0  0  0
   -1.1710   20.3140  -34.1710 C   0  0  0  0  0  0  0  0  0  0  0  0
   -0.0090   21.2470  -34.3830 C   0  0  0  0  0  0  0  0  0  0  0  0
   -2.3920   20.8380  -33.6930 C   0  0  0  0  0  0  0  0  0  0  0  0
   -3.4560   19.9650  -33.4810 C   0  0  0  0  0  0  0  0  0  0  0  0
   -4.7570   20.1730  -33.0620 C   0  0  0  0  0  0  0  0  0  0  0  0
   -3.9783   23.6676  -26.3748 H   0  0  0  0  0  0  0  0  0  0  0  0
   -2.6112   23.1892  -27.4374 H   0  0  0  0  0  0  0  0  0  0  0  0
   -3.1972   24.8873  -27.4374 H   0  0  0  0  0  0  0  0  0  0  0  0
   -4.0592   22.6868  -29.0866 H   0  0  0  0  0  0  0  0  0  0  0  0
   -5.4324   23.1850  -27.9942 H   0  0  0  0  0  0  0  0  0  0  0  0
   -4.0880   25.3800  -29.1050 H   0  0  0  0  0  0  0  0  0  0  0  0
   -6.4550   24.9784  -28.0918 H   0  0  0  0  0  0  0  0  0  0  0  0
   -5.9272   26.3845  -29.1713 H   0  0  0  0  0  0  0  0  0  0  0  0
   -8.1658   24.7591  -29.5410 H   0  0  0  0  0  0  0  0  0  0  0  0
   -7.4171   25.8873  -30.7213 H   0  0  0  0  0  0  0  0  0  0  0  0
   -6.9557   24.1513  -30.7213 H   0  0  0  0  0  0  0  0  0  0  0  0
   -5.4649   24.6917  -31.3501 H   0  0  0  0  0  0  0  0  0  0  0  0
   -3.6627   24.9825  -31.0612 H   0  0  0  0  0  0  0  0  0  0  0  0
   -3.1295   22.8211  -31.2275 H   0  0  0  0  0  0  0  0  0  0  0  0
   -4.6797   22.2752  -30.4474 H   0  0  0  0  0  0  0  0  0  0  0  0
   -4.9560   23.3040  -33.2260 H   0  0  0  0  0  0  0  0  0  0  0  0
   -7.1130   23.2940  -31.9527 H   0  0  0  0  0  0  0  0  0  0  0  0
   -9.5548   23.0767  -31.5423 H   0  0  0  0  0  0  0  0  0  0  0  0
  -10.6750   20.8710  -31.7829 H   0  0  0  0  0  0  0  0  0  0  0  0
   -9.3630   18.8523  -32.3906 H   0  0  0  0  0  0  0  0  0  0  0  0
   -7.4487   17.0906  -31.7647 H   0  0  0  0  0  0  0  0  0  0  0  0
   -8.2698   17.4546  -33.3203 H   0  0  0  0  0  0  0  0  0  0  0  0
   -6.6285   16.7247  -33.3203 H   0  0  0  0  0  0  0  0  0  0  0  0
   -4.6990   16.9720  -33.7410 H   0  0  0  0  0  0  0  0  0  0  0  0
   -2.1027   16.9906  -34.4569 H   0  0  0  0  0  0  0  0  0  0  0  0
    0.8674   18.0274  -34.0825 H   0  0  0  0  0  0  0  0  0  0  0  0
    0.0126   17.4325  -35.5461 H   0  0  0  0  0  0  0  0  0  0  0  0
    0.7648   19.0637  -35.5461 H   0  0  0  0  0  0  0  0  0  0  0  0
    0.3880   21.5657  -33.4079 H   0  0  0  0  0  0  0  0  0  0  0  0
    0.7794   20.7282  -34.9480 H   0  0  0  0  0  0  0  0  0  0  0  0
   -0.3452   22.1289  -34.9480 H   0  0  0  0  0  0  0  0  0  0  0  0
   -2.5005   21.9141  -33.4922 H   0  0  0  0  0  0  0  0  0  0  0  0
  1  2  1  0
  2  3  1  0
  3  4  1  0
  4  5  1  0
  3  6  1  0
  6  7  1  0
  7  8  1  0
  8  9  1  0
  9 10  2  0
 10 11  1  0
 11 12  2  0
 12 13  1  0
 13 14  2  0
 14 15  1  0
 15 16  2  0
 16 17  1  0
 16 18  1  0
 18 19  1  0
 19 20  1  0
 20 21  2  0
 21 22  1  0
 22 23  1  0
 22 24  2  0
 24 25  1  0
 24 26  1  0
 26 27  2  0
 27 28  1  0
 28  9  1  0
 15 10  1  0
 28 18  2  0
 27 20  1  0
  1 29  1  0
  1 30  1  0
  1 31  1  0
  2 32  1  0
  2 33  1  0
  3 34  1  0
  4 35  1  0
  4 36  1  0
  5 37  1  0
  5 38  1  0
  5 39  1  0
  6 40  1  0
  6 41  1  0
  7 42  1  0
  7 43  1  0
  8 44  1  0
 11 45  1  0
 12 46  1  0
 13 47  1  0
 14 48  1  0
 17 49  1  0
 17 50  1  0
 17 51  1  0
 19 52  1  0
 21 53  1  0
 23 54  1  0
 23 55  1  0
 23 56  1  0
 25 57  1  0
 25 58  1  0
 25 59  1  0
 26 60  1  0
M  CHG  2   3   1  16   1
M  END
>  <UniqueID>  (29) 
28

>  <SMILES>  (29) 
CC[NH+](CC)CCNc1c2ccccc2[n+](C)c2[nH]c3cc(C)c(C)cc3c12

>  <Energy>  (29) 
130.40904621792615

>  <Genealogy>  (29) 
CC[NH+](CC)CCNc1c2ccccc2[n+](C)c2[nH]c3cc(C)c(C)cc3c12 (protonated)
CC[NH+](CC)CCNc1c2ccccc2[n+](C)c2[nH]c3cc(C)c(C)cc3c12 (3D coordinates assigned)
CC[NH+](CC)CCNc1c2ccccc2[n+](C)c2[nH]c3cc(C)c(C)cc3c12 (optimized conformer: 130.40904621792615 kcal/mol)

>  <smiles>  (29) 
CCN(CC)CCNc1c2ccccc2[n+](C)c2[nH]c3cc(C)c(C)cc3c12

>  <score_type>  (29) 
oracle

>  <origin>  (29) 
adg

>  <m_score__min__energy>  (29) 
-7.8700000000000001

>  <m_primary>  (29) 
energy

$$$$
