0:0
     RDKit          3D

 40 41  0  0  1  0  0  0  0  0999 V2000
   -7.3100   17.9990  -31.9770 C   0  0  0  0  0  0  0  0  0  0  0  0
   -8.6760   18.5840  -31.6590 C   0  0  0  0  0  0  0  0  0  0  0  0
   -8.6710   19.9490  -31.4960 O   0  0  0  0  0  0  0  0  0  0  0  0
   -8.0700   20.6370  -32.5340 C   0  0  0  0  0  0  0  0  0  0  0  0
   -7.2830   21.7820  -31.9690 C   0  0  0  0  0  0  0  0  0  0  0  0
   -5.9720   22.0180  -32.3330 C   0  0  0  0  0  0  0  0  0  0  0  0
   -5.3080   23.1060  -31.7620 C   0  0  0  0  0  0  0  0  0  0  0  0
   -5.9190   23.9450  -30.8550 C   0  0  0  0  0  0  0  0  0  0  0  0
   -5.2400   25.1060  -30.2330 C   0  0  0  0  0  0  0  0  0  0  0  0
   -3.8100   25.0130  -30.5160 N   0  0  0  0  0  0  0  0  0  0  0  0
   -3.0100   24.4760  -29.6410 C   0  0  0  0  0  0  0  0  0  0  0  0
   -3.2730   23.2650  -29.0360 C   0  0  0  0  0  0  0  0  0  0  0  0
   -2.4000   22.7250  -28.1130 C   0  0  0  0  0  0  0  0  0  0  0  0
   -2.6960   21.4330  -27.4770 C   0  0  0  0  0  0  0  0  0  0  0  0
   -1.2720   23.4090  -27.8060 N   0  0  0  0  0  0  0  0  0  0  0  0
   -1.0000   24.5990  -28.3920 C   0  0  0  0  0  0  0  0  0  0  0  0
    0.1010   25.2200  -28.0630 N   0  0  0  0  0  0  0  0  0  0  0  0
   -1.8570   25.1120  -29.2890 N   0  0  0  0  0  0  0  0  0  0  0  0
   -7.2400   23.6720  -30.5170 C   0  0  0  0  0  0  0  0  0  0  0  0
   -7.9330   22.6060  -31.0580 C   0  0  0  0  0  0  0  0  0  0  0  0
   -6.7809   17.7724  -31.0396 H   0  0  0  0  0  0  0  0  0  0  0  0
   -7.4337   17.0749  -32.5608 H   0  0  0  0  0  0  0  0  0  0  0  0
   -6.7266   18.7262  -32.5608 H   0  0  0  0  0  0  0  0  0  0  0  0
   -9.3601   18.3358  -32.4839 H   0  0  0  0  0  0  0  0  0  0  0  0
   -8.9959   18.1482  -30.7010 H   0  0  0  0  0  0  0  0  0  0  0  0
   -7.3970   19.9621  -33.0831 H   0  0  0  0  0  0  0  0  0  0  0  0
   -8.8390   21.0179  -33.2222 H   0  0  0  0  0  0  0  0  0  0  0  0
   -5.4624   21.3641  -33.0560 H   0  0  0  0  0  0  0  0  0  0  0  0
   -4.2630   23.2997  -32.0455 H   0  0  0  0  0  0  0  0  0  0  0  0
   -5.6415   26.0397  -30.6536 H   0  0  0  0  0  0  0  0  0  0  0  0
   -5.4100   25.1042  -29.1462 H   0  0  0  0  0  0  0  0  0  0  0  0
   -4.1935   22.7204  -29.2931 H   0  0  0  0  0  0  0  0  0  0  0  0
   -2.6696   21.5481  -26.3834 H   0  0  0  0  0  0  0  0  0  0  0  0
   -3.6954   21.0927  -27.7859 H   0  0  0  0  0  0  0  0  0  0  0  0
   -1.9445   20.6915  -27.7859 H   0  0  0  0  0  0  0  0  0  0  0  0
   -0.5770   23.0490  -27.1140 H   0  0  0  0  0  0  0  0  0  0  0  0
    0.7910   24.7320  -27.4400 H   0  0  0  0  0  0  0  0  0  0  0  0
   -1.6000   26.0480  -29.7200 H   0  0  0  0  0  0  0  0  0  0  0  0
   -7.7502   24.3264  -29.7949 H   0  0  0  0  0  0  0  0  0  0  0  0
   -8.9780   22.4135  -30.7734 H   0  0  0  0  0  0  0  0  0  0  0  0
  1  2  1  0
  2  3  1  0
  3  4  1  0
  4  5  1  0
  5  6  2  0
  6  7  1  0
  7  8  2  0
  8  9  1  0
  9 10  1  0
 10 11  2  0
 11 12  1  0
 12 13  2  0
 13 14  1  0
 13 15  1  0
 15 16  1  0
 16 17  2  3
 16 18  1  0
  8 19  1  0
 19 20  2  0
 20  5  1  0
 18 11  1  0
  1 21  1  0
  1 22  1  0
  1 23  1  0
  2 24  1  0
  2 25  1  0
  4 26  1  0
  4 27  1  0
  6 28  1  0
  7 29  1  0
  9 30  1  0
  9 31  1  0
 12 32  1  0
 14 33  1  0
 14 34  1  0
 14 35  1  0
 15 36  1  0
 17 37  1  0
 18 38  1  0
 19 39  1  0
 20 40  1  0
M  END
>  <smiles>  (1) 
CCOCc1ccc(CN=c2cc(C)[nH]c(=N)[nH]2)cc1

>  <score_type>  (1) 
oracle

>  <origin>  (1) 
adg

>  <m_score__min__energy>  (1) 
-7.71

>  <m_primary>  (1) 
energy

$$$$
1:0
     RDKit          3D

 45 49  0  0  0  0  0  0  0  0999 V2000
   -2.6640   25.6400  -28.5720 H   0  0  0  0  0  0  0  0  0  0  0  0
   -2.6380   24.9330  -29.3400 N   0  0  0  0  0  0  0  0  0  0  0  0
   -3.6930   24.6640  -30.0370 C   0  0  0  0  0  0  0  0  0  0  0  0
   -4.3050   25.5500  -30.8420 N   0  0  0  0  0  0  0  0  0  0  0  0
   -5.3320   24.9010  -31.3700 N   0  0  0  0  0  0  0  0  0  0  0  0
   -5.2980   23.6490  -30.8640 C   0  0  0  0  0  0  0  0  0  0  0  0
   -6.2710   22.5910  -31.1940 C   0  0  0  0  0  0  0  0  0  0  0  0
   -5.8700   21.4410  -31.9090 C   0  0  0  0  0  0  0  0  0  0  0  0
   -4.8264   21.3073  -32.2299 H   0  0  0  0  0  0  0  0  0  0  0  0
   -6.8390   20.4810  -32.1950 C   0  0  0  0  0  0  0  0  0  0  0  0
   -6.7830   19.2470  -32.8270 C   0  0  0  0  0  0  0  0  0  0  0  0
   -5.6340   18.5820  -33.4700 C   0  0  0  0  0  0  0  0  0  0  0  0
   -4.3940   18.7500  -32.9390 N   0  0  0  0  0  0  0  0  0  0  0  0
   -3.3000   18.1480  -33.4830 C   0  0  0  0  0  0  0  0  0  0  0  0
   -2.1160   18.3240  -32.9730 N   0  0  0  0  0  0  0  0  0  0  0  0
   -1.5060   19.6300  -32.7020 C   0  0  0  0  0  0  0  0  0  0  0  0
   -0.4117   19.5240  -32.6648 H   0  0  0  0  0  0  0  0  0  0  0  0
   -1.9730   20.1650  -31.3310 C   0  0  0  0  0  0  0  0  0  0  0  0
   -2.9696   19.7579  -31.1050 H   0  0  0  0  0  0  0  0  0  0  0  0
   -1.2496   19.8514  -30.5640 H   0  0  0  0  0  0  0  0  0  0  0  0
   -2.0460   21.7000  -31.3430 C   0  0  0  0  0  0  0  0  0  0  0  0
   -2.3517   22.0404  -30.3426 H   0  0  0  0  0  0  0  0  0  0  0  0
   -1.0478   22.0657  -31.6258 H   0  0  0  0  0  0  0  0  0  0  0  0
   -2.9650   22.2250  -32.2960 O   0  0  0  0  0  0  0  0  0  0  0  0
   -3.1130   21.4300  -33.4680 C   0  0  0  0  0  0  0  0  0  0  0  0
   -3.9497   20.7338  -33.3093 H   0  0  0  0  0  0  0  0  0  0  0  0
   -3.2898   22.1254  -34.3017 H   0  0  0  0  0  0  0  0  0  0  0  0
   -1.8650   20.6090  -33.8340 C   0  0  0  0  0  0  0  0  0  0  0  0
   -2.0644   20.0397  -34.7539 H   0  0  0  0  0  0  0  0  0  0  0  0
   -1.0210   21.2978  -33.9865 H   0  0  0  0  0  0  0  0  0  0  0  0
   -3.4440   17.3490  -34.5710 N   0  0  0  0  0  0  0  0  0  0  0  0
   -4.6650   17.1360  -35.1250 C   0  0  0  0  0  0  0  0  0  0  0  0
   -4.7630   16.4830  -36.0047 H   0  0  0  0  0  0  0  0  0  0  0  0
   -5.7940   17.7440  -34.5800 C   0  0  0  0  0  0  0  0  0  0  0  0
   -6.7901   17.5692  -35.0128 H   0  0  0  0  0  0  0  0  0  0  0  0
   -8.0640   18.7090  -32.7060 C   0  0  0  0  0  0  0  0  0  0  0  0
   -8.3660   17.7218  -33.0857 H   0  0  0  0  0  0  0  0  0  0  0  0
   -8.8840   19.5670  -32.0580 N   0  0  0  0  0  0  0  0  0  0  0  0
   -9.8900   19.4200  -31.8260 H   0  0  0  0  0  0  0  0  0  0  0  0
   -8.1250   20.6340  -31.7560 C   0  0  0  0  0  0  0  0  0  0  0  0
   -8.5280   21.7270  -31.0610 N   0  0  0  0  0  0  0  0  0  0  0  0
   -9.5170   21.8150  -30.7370 H   0  0  0  0  0  0  0  0  0  0  0  0
   -7.6230   22.7120  -30.7820 C   0  0  0  0  0  0  0  0  0  0  0  0
   -7.9462   23.6082  -30.2321 H   0  0  0  0  0  0  0  0  0  0  0  0
   -4.2870   23.4980  -30.0390 O   0  0  0  0  0  0  0  0  0  0  0  0
  1  2  1  0
  2  3  2  0
  3  4  1  0
  4  5  1  0
  5  6  2  0
  6  7  1  0
  7  8  2  0
  8  9  1  0
  8 10  1  0
 10 11  1  0
 11 12  1  0
 12 13  2  0
 13 14  1  0
 14 15  2  0
 15 16  1  0
 16 17  1  0
 16 18  1  0
 18 19  1  0
 18 20  1  0
 18 21  1  0
 21 22  1  0
 21 23  1  0
 21 24  1  0
 24 25  1  0
 25 26  1  0
 25 27  1  0
 25 28  1  0
 28 29  1  0
 28 30  1  0
 14 31  1  0
 31 32  1  0
 32 33  1  0
 32 34  2  0
 34 35  1  0
 11 36  2  0
 36 37  1  0
 36 38  1  0
 38 39  1  0
 38 40  1  0
 40 41  1  0
 41 42  1  0
 41 43  2  0
 43 44  1  0
  6 45  1  0
 45  3  1  0
 43  7  1  0
 40 10  2  0
 34 12  1  0
 28 16  1  0
M  CHG  3   4  -1  31  -1  41   1
M  END
>  <UniqueID>  (2) 
1

>  <SMILES>  (2) 
[H]/N=c1\[n-]nc(-c2c[nH+]c3[nH]cc(-c4cc[n-]/c(=N/C5CCOCC5)n4)c3c2)o1

>  <Energy>  (2) 
133.59885627703133

>  <Genealogy>  (2) 
N=c1[n-]nc(-c2c[nH+]c3[nH]cc(-c4cc[n-]c(=NC5CCOCC5)n4)c3c2)o1 (protonated)
[H]/N=c1\[n-]nc(-c2c[nH+]c3[nH]cc(-c4cc[n-]/c(=N/C5CCOCC5)n4)c3c2)o1 (cis-trans isomerization)
[H]/N=c1\[n-]nc(-c2c[nH+]c3[nH]cc(-c4cc[n-]/c(=N/C5CCOCC5)n4)c3c2)o1 (3D coordinates assigned)
[H]/N=c1\[n-]nc(-c2c[nH+]c3[nH]cc(-c4cc[n-]/c(=N/C5CCOCC5)n4)c3c2)o1 (nonaromatic ring conformer: 133.59885627703133 kcal/mol)

>  <smiles>  (2) 
N=c1[nH]nc(-c2cnc3[nH]cc(-c4cc[nH]c(=NC5CCOCC5)n4)c3c2)o1

>  <score_type>  (2) 
oracle

>  <origin>  (2) 
adg

>  <m_score__min__energy>  (2) 
-10.1

>  <m_primary>  (2) 
energy

$$$$
2:0
     RDKit          3D

 36 38  0  0  0  0  0  0  0  0999 V2000
   -2.4190   20.4850  -28.0910 C   0  0  0  0  0  0  0  0  0  0  0  0
   -1.6760   21.6800  -28.3050 O   0  0  0  0  0  0  0  0  0  0  0  0
   -1.3340   22.5980  -27.2980 C   0  0  0  0  0  0  0  0  0  0  0  0
   -0.8410   22.1780  -26.0470 C   0  0  0  0  0  0  0  0  0  0  0  0
   -0.5040   23.1170  -25.0690 C   0  0  0  0  0  0  0  0  0  0  0  0
   -0.6530   24.4800  -25.3250 C   0  0  0  0  0  0  0  0  0  0  0  0
   -1.1410   24.9100  -26.5600 C   0  0  0  0  0  0  0  0  0  0  0  0
   -1.4880   23.9780  -27.5520 C   0  0  0  0  0  0  0  0  0  0  0  0
   -1.9940   24.4580  -28.8900 C   0  0  0  0  0  0  0  0  0  0  0  0
   -3.2070   23.7350  -29.2630 N   0  0  0  0  0  0  0  0  0  0  0  0
   -4.0940   24.2040  -30.2910 C   0  0  0  0  0  0  0  0  0  0  0  0
   -3.8870   25.3190  -30.8400 O   0  0  0  0  0  0  0  0  0  0  0  0
   -5.2490   23.3940  -30.7170 C   0  0  0  0  0  0  0  0  0  0  0  0
   -5.1860   22.2820  -31.5600 C   0  0  0  0  0  0  0  0  0  0  0  0
   -6.4420   21.7060  -31.7830 C   0  0  0  0  0  0  0  0  0  0  0  0
   -6.7070   20.5870  -32.5780 C   0  0  0  0  0  0  0  0  0  0  0  0
   -8.0340   20.1390  -32.6920 C   0  0  0  0  0  0  0  0  0  0  0  0
   -9.0750   20.8070  -32.0170 C   0  0  0  0  0  0  0  0  0  0  0  0
   -8.7980   21.9300  -31.2220 C   0  0  0  0  0  0  0  0  0  0  0  0
   -7.4750   22.3550  -31.1240 C   0  0  0  0  0  0  0  0  0  0  0  0
   -6.8600   23.6510  -30.2540 S   0  0  0  0  0  0  0  0  0  0  0  0
   -2.5281   20.3096  -27.0106 H   0  0  0  0  0  0  0  0  0  0  0  0
   -3.4143   20.5852  -28.5485 H   0  0  0  0  0  0  0  0  0  0  0  0
   -1.8888   19.6367  -28.5485 H   0  0  0  0  0  0  0  0  0  0  0  0
   -0.7207   21.1046  -25.8390 H   0  0  0  0  0  0  0  0  0  0  0  0
   -0.1202   22.7806  -24.0946 H   0  0  0  0  0  0  0  0  0  0  0  0
   -0.3857   25.2166  -24.5530 H   0  0  0  0  0  0  0  0  0  0  0  0
   -1.2546   25.9861  -26.7578 H   0  0  0  0  0  0  0  0  0  0  0  0
   -2.2170   25.5334  -28.8289 H   0  0  0  0  0  0  0  0  0  0  0  0
   -1.2209   24.2757  -29.6510 H   0  0  0  0  0  0  0  0  0  0  0  0
   -3.4240   22.8480  -28.7550 H   0  0  0  0  0  0  0  0  0  0  0  0
   -4.2525   21.9011  -31.9999 H   0  0  0  0  0  0  0  0  0  0  0  0
   -5.8926   20.0673  -33.1040 H   0  0  0  0  0  0  0  0  0  0  0  0
   -8.2619   19.2601  -33.3130 H   0  0  0  0  0  0  0  0  0  0  0  0
  -10.1098   20.4466  -32.1136 H   0  0  0  0  0  0  0  0  0  0  0  0
   -9.6029   22.4596  -30.6913 H   0  0  0  0  0  0  0  0  0  0  0  0
  1  2  1  0
  2  3  1  0
  3  4  2  0
  4  5  1  0
  5  6  2  0
  6  7  1  0
  7  8  2  0
  8  9  1  0
  9 10  1  0
 10 11  1  0
 11 12  2  0
 11 13  1  0
 13 14  2  0
 14 15  1  0
 15 16  2  0
 16 17  1  0
 17 18  2  0
 18 19  1  0
 19 20  2  0
 20 21  1  0
  8  3  1  0
 21 13  1  0
 20 15  1  0
  1 22  1  0
  1 23  1  0
  1 24  1  0
  4 25  1  0
  5 26  1  0
  6 27  1  0
  7 28  1  0
  9 29  1  0
  9 30  1  0
 10 31  1  0
 14 32  1  0
 16 33  1  0
 17 34  1  0
 18 35  1  0
 19 36  1  0
M  END
>  <UniqueID>  (3) 
2

>  <SMILES>  (3) 
COc1ccccc1CNC(=O)c1cc2ccccc2s1

>  <Energy>  (3) 
66.03099713117427

>  <Genealogy>  (3) 
COc1ccccc1CNC(=O)c1cc2ccccc2s1 (3D coordinates assigned)
COc1ccccc1CNC(=O)c1cc2ccccc2s1 (optimized conformer: 66.03099713117427 kcal/mol)

>  <smiles>  (3) 
COc1ccccc1CNC(=O)c1cc2ccccc2s1

>  <score_type>  (3) 
oracle

>  <origin>  (3) 
adg

>  <m_score__min__energy>  (3) 
-8.4499999999999993

>  <m_primary>  (3) 
energy

$$$$
3:0
     RDKit          3D

 40 41  0  0  0  0  0  0  0  0999 V2000
   -3.0680   22.7100  -28.0210 C   0  0  0  0  0  0  0  0  0  0  0  0
   -2.7790   23.3020  -29.2830 O   0  0  0  0  0  0  0  0  0  0  0  0
   -2.5100   22.5810  -30.4590 C   0  0  0  0  0  0  0  0  0  0  0  0
   -1.2680   21.9560  -30.6780 C   0  0  0  0  0  0  0  0  0  0  0  0
   -1.0300   21.2480  -31.8580 C   0  0  0  0  0  0  0  0  0  0  0  0
   -2.0180   21.1710  -32.8470 C   0  0  0  0  0  0  0  0  0  0  0  0
   -1.7690   20.3930  -34.1060 C   0  0  0  0  0  0  0  0  0  0  0  0
   -3.2630   21.7770  -32.6280 C   0  0  0  0  0  0  0  0  0  0  0  0
   -3.5190   22.4760  -31.4350 C   0  0  0  0  0  0  0  0  0  0  0  0
   -4.7850   23.1290  -31.2250 N   0  0  0  0  0  0  0  0  0  0  0  0
   -4.9160   24.4920  -30.7960 C   0  0  0  0  0  0  0  0  0  0  0  0
   -3.9320   25.2790  -30.8430 O   0  0  0  0  0  0  0  0  0  0  0  0
   -6.2480   25.0060  -30.3400 C   0  0  0  0  0  0  0  0  0  0  0  0
   -7.2340   23.9800  -30.4330 O   0  0  0  0  0  0  0  0  0  0  0  0
   -7.6540   23.4240  -31.6470 C   0  0  0  0  0  0  0  0  0  0  0  0
   -7.0510   23.7050  -32.7180 O   0  0  0  0  0  0  0  0  0  0  0  0
   -8.8570   22.5750  -31.7100 C   0  0  0  0  0  0  0  0  0  0  0  0
   -8.8660   21.2340  -31.7240 C   0  0  0  0  0  0  0  0  0  0  0  0
   -7.7520   20.3750  -32.1650 C   0  0  0  0  0  0  0  0  0  0  0  0
   -7.8950   19.0970  -32.6660 C   0  0  0  0  0  0  0  0  0  0  0  0
   -6.6230   18.6780  -32.9890 C   0  0  0  0  0  0  0  0  0  0  0  0
   -5.7830   19.7270  -32.6740 C   0  0  0  0  0  0  0  0  0  0  0  0
   -6.4850   20.7250  -32.1900 O   0  0  0  0  0  0  0  0  0  0  0  0
   -2.7391   23.3837  -27.2160 H   0  0  0  0  0  0  0  0  0  0  0  0
   -4.1512   22.5384  -27.9359 H   0  0  0  0  0  0  0  0  0  0  0  0
   -2.5370   21.7504  -27.9359 H   0  0  0  0  0  0  0  0  0  0  0  0
   -0.4793   22.0257  -29.9144 H   0  0  0  0  0  0  0  0  0  0  0  0
   -0.0619   20.7486  -32.0111 H   0  0  0  0  0  0  0  0  0  0  0  0
   -1.4430   19.3743  -33.8491 H   0  0  0  0  0  0  0  0  0  0  0  0
   -2.6962   20.3435  -34.6958 H   0  0  0  0  0  0  0  0  0  0  0  0
   -0.9854   20.8910  -34.6958 H   0  0  0  0  0  0  0  0  0  0  0  0
   -4.0468   21.7051  -33.3964 H   0  0  0  0  0  0  0  0  0  0  0  0
   -5.6610   22.6010  -31.4410 H   0  0  0  0  0  0  0  0  0  0  0  0
   -6.1694   25.3398  -29.2948 H   0  0  0  0  0  0  0  0  0  0  0  0
   -6.5457   25.8470  -30.9835 H   0  0  0  0  0  0  0  0  0  0  0  0
   -9.8309   23.0849  -31.7489 H   0  0  0  0  0  0  0  0  0  0  0  0
   -9.7817   20.7328  -31.3772 H   0  0  0  0  0  0  0  0  0  0  0  0
   -8.8306   18.5305  -32.7831 H   0  0  0  0  0  0  0  0  0  0  0  0
   -6.3350   17.7044  -33.4123 H   0  0  0  0  0  0  0  0  0  0  0  0
   -4.6912   19.7267  -32.8082 H   0  0  0  0  0  0  0  0  0  0  0  0
  1  2  1  0
  2  3  1  0
  3  4  2  0
  4  5  1  0
  5  6  2  0
  6  7  1  0
  6  8  1  0
  8  9  2  0
  9 10  1  0
 10 11  1  0
 11 12  2  0
 11 13  1  0
 13 14  1  0
 14 15  1  0
 15 16  2  0
 15 17  1  0
 17 18  2  3
 18 19  1  0
 19 20  2  0
 20 21  1  0
 21 22  2  0
 22 23  1  0
  9  3  1  0
 23 19  1  0
  1 24  1  0
  1 25  1  0
  1 26  1  0
  4 27  1  0
  5 28  1  0
  7 29  1  0
  7 30  1  0
  7 31  1  0
  8 32  1  0
 10 33  1  0
 13 34  1  0
 13 35  1  0
 17 36  1  0
 18 37  1  0
 20 38  1  0
 21 39  1  0
 22 40  1  0
M  END
>  <UniqueID>  (4) 
3

>  <SMILES>  (4) 
COc1ccc(C)cc1NC(=O)COC(=O)C=Cc1ccco1

>  <Energy>  (4) 
69.38491742026496

>  <Genealogy>  (4) 
COc1ccc(C)cc1NC(=O)COC(=O)C=Cc1ccco1 (3D coordinates assigned)
COc1ccc(C)cc1NC(=O)COC(=O)C=Cc1ccco1 (optimized conformer: 69.38491742026496 kcal/mol)

>  <smiles>  (4) 
COc1ccc(C)cc1NC(=O)COC(=O)C=Cc1ccco1

>  <score_type>  (4) 
oracle

>  <origin>  (4) 
adg

>  <m_score__min__energy>  (4) 
-7.1799999999999997

>  <m_primary>  (4) 
energy

$$$$
4:0
     RDKit          3D

 64 65  0  0  0  0  0  0  0  0999 V2000
   -7.8870   18.1860  -32.0000 C   0  0  0  0  0  0  0  0  0  0  0  0
   -6.4420   18.6030  -32.2730 C   0  0  0  0  0  0  0  0  0  0  0  0
   -6.1460   18.8600  -33.7620 C   0  0  0  0  0  0  0  0  0  0  0  0
   -4.7860   18.3110  -34.2440 C   0  0  0  0  0  0  0  0  0  0  0  0
   -3.5470   18.9160  -33.5510 C   0  0  0  0  0  0  0  0  0  0  0  0
   -3.3910   20.4330  -33.7560 C   0  0  0  0  0  0  0  0  0  0  0  0
   -3.0100   21.1030  -32.5080 C   0  0  0  0  0  0  0  0  0  0  0  0
   -2.7160   21.6490  -31.4740 C   0  0  0  0  0  0  0  0  0  0  0  0
   -2.3350   22.3080  -30.2100 C   0  0  2  0  0  0  0  0  0  0  0  0
   -1.6470   21.3350  -29.2610 C   0  0  0  0  0  0  0  0  0  0  0  0
   -0.7530   20.2840  -29.8180 C   0  0  0  0  0  0  0  0  0  0  0  0
   -1.2420   19.3560  -30.5190 O   0  0  0  0  0  0  0  0  0  0  0  0
    0.6180   20.3090  -29.5480 O   0  0  0  0  0  0  0  0  0  0  0  0
    1.3390   19.1560  -29.1310 C   0  0  0  0  0  0  0  0  0  0  0  0
   -1.7070   21.5740  -27.9290 C   0  0  0  0  0  0  0  0  0  0  0  0
   -0.9250   20.7720  -26.9240 C   0  0  0  0  0  0  0  0  0  0  0  0
   -2.5160   22.6450  -27.4180 N   0  0  0  0  0  0  0  0  0  0  0  0
   -3.3530   23.3330  -28.1330 C   0  0  0  0  0  0  0  0  0  0  0  0
   -4.2050   24.3490  -27.4280 C   0  0  0  0  0  0  0  0  0  0  0  0
   -3.5960   22.9520  -29.5790 C   0  0  1  0  0  0  0  0  0  0  0  0
   -4.0340   24.1330  -30.4100 C   0  0  0  0  0  0  0  0  0  0  0  0
   -3.5380   25.2750  -30.2000 O   0  0  0  0  0  0  0  0  0  0  0  0
   -4.9720   23.9390  -31.4290 O   0  0  0  0  0  0  0  0  0  0  0  0
   -6.3800   23.8500  -31.1980 C   0  0  0  0  0  0  0  0  0  0  0  0
   -6.6200   22.9710  -29.9500 C   0  0  0  0  0  0  0  0  0  0  0  0
   -8.0030   22.3150  -29.9800 C   0  0  0  0  0  0  0  0  0  0  0  0
   -8.1580   21.3750  -31.1920 C   0  0  0  0  0  0  0  0  0  0  0  0
   -7.3030   21.7930  -32.4060 C   0  0  0  0  0  0  0  0  0  0  0  0
   -7.1000   23.3120  -32.4610 C   0  0  0  0  0  0  0  0  0  0  0  0
   -8.0557   18.1373  -30.9141 H   0  0  0  0  0  0  0  0  0  0  0  0
   -8.5716   18.9232  -32.4447 H   0  0  0  0  0  0  0  0  0  0  0  0
   -8.0736   17.1974  -32.4447 H   0  0  0  0  0  0  0  0  0  0  0  0
   -6.2347   19.5266  -31.7127 H   0  0  0  0  0  0  0  0  0  0  0  0
   -5.7997   17.7683  -31.9556 H   0  0  0  0  0  0  0  0  0  0  0  0
   -6.9396   18.3855  -34.3578 H   0  0  0  0  0  0  0  0  0  0  0  0
   -6.1085   19.9517  -33.8916 H   0  0  0  0  0  0  0  0  0  0  0  0
   -4.7767   17.2250  -34.0691 H   0  0  0  0  0  0  0  0  0  0  0  0
   -4.7057   18.5874  -35.3057 H   0  0  0  0  0  0  0  0  0  0  0  0
   -3.6245   18.7194  -32.4715 H   0  0  0  0  0  0  0  0  0  0  0  0
   -2.6653   18.4419  -34.0068 H   0  0  0  0  0  0  0  0  0  0  0  0
   -2.6128   20.6143  -34.5120 H   0  0  0  0  0  0  0  0  0  0  0  0
   -4.3578   20.8398  -34.0874 H   0  0  0  0  0  0  0  0  0  0  0  0
   -1.6009   23.1011  -30.4152 H   0  0  0  0  0  0  0  0  0  0  0  0
    1.3637   19.1166  -28.0320 H   0  0  0  0  0  0  0  0  0  0  0  0
    0.8440   18.2537  -29.5193 H   0  0  0  0  0  0  0  0  0  0  0  0
    2.3670   19.2061  -29.5193 H   0  0  0  0  0  0  0  0  0  0  0  0
   -1.2180   21.0725  -25.9072 H   0  0  0  0  0  0  0  0  0  0  0  0
   -1.1358   19.7016  -27.0651 H   0  0  0  0  0  0  0  0  0  0  0  0
    0.1503   20.9557  -27.0651 H   0  0  0  0  0  0  0  0  0  0  0  0
   -4.1002   24.2240  -26.3402 H   0  0  0  0  0  0  0  0  0  0  0  0
   -3.8813   25.3607  -27.7137 H   0  0  0  0  0  0  0  0  0  0  0  0
   -5.2576   24.2065  -27.7137 H   0  0  0  0  0  0  0  0  0  0  0  0
   -4.4116   22.2139  -29.5751 H   0  0  0  0  0  0  0  0  0  0  0  0
   -6.8056   24.8451  -31.0014 H   0  0  0  0  0  0  0  0  0  0  0  0
   -5.8523   22.1840  -29.9147 H   0  0  0  0  0  0  0  0  0  0  0  0
   -6.5639   23.6148  -29.0598 H   0  0  0  0  0  0  0  0  0  0  0  0
   -8.1425   21.7334  -29.0568 H   0  0  0  0  0  0  0  0  0  0  0  0
   -8.7594   23.1095  -30.0613 H   0  0  0  0  0  0  0  0  0  0  0  0
   -7.8586   20.3613  -30.8874 H   0  0  0  0  0  0  0  0  0  0  0  0
   -9.2113   21.4214  -31.5058 H   0  0  0  0  0  0  0  0  0  0  0  0
   -6.3201   21.3044  -32.3349 H   0  0  0  0  0  0  0  0  0  0  0  0
   -7.8315   21.4845  -33.3200 H   0  0  0  0  0  0  0  0  0  0  0  0
   -6.4945   23.5571  -33.3460 H   0  0  0  0  0  0  0  0  0  0  0  0
   -8.0919   23.7847  -32.5128 H   0  0  0  0  0  0  0  0  0  0  0  0
  1  2  1  0
  2  3  1  0
  3  4  1  0
  4  5  1  0
  5  6  1  0
  6  7  1  0
  7  8  3  0
  8  9  1  0
  9 10  1  0
 10 11  1  0
 11 12  2  0
 11 13  1  0
 13 14  1  0
 10 15  2  0
 15 16  1  0
 15 17  1  0
 17 18  2  0
 18 19  1  0
 18 20  1  0
 20 21  1  0
 21 22  2  0
 21 23  1  0
 23 24  1  0
 24 25  1  0
 25 26  1  0
 26 27  1  0
 27 28  1  0
 28 29  1  0
 20  9  1  0
 29 24  1  0
  1 30  1  0
  1 31  1  0
  1 32  1  0
  2 33  1  0
  2 34  1  0
  3 35  1  0
  3 36  1  0
  4 37  1  0
  4 38  1  0
  5 39  1  0
  5 40  1  0
  6 41  1  0
  6 42  1  0
  9 43  1  6
 14 44  1  0
 14 45  1  0
 14 46  1  0
 16 47  1  0
 16 48  1  0
 16 49  1  0
 19 50  1  0
 19 51  1  0
 19 52  1  0
 20 53  1  1
 24 54  1  0
 25 55  1  0
 25 56  1  0
 26 57  1  0
 26 58  1  0
 27 59  1  0
 27 60  1  0
 28 61  1  0
 28 62  1  0
 29 63  1  0
 29 64  1  0
M  END
>  <UniqueID>  (5) 
4

>  <SMILES>  (5) 
CCCCCCC#C[C@@H]1C(C(=O)OC)=C(C)N=C(C)[C@H]1C(=O)OC1CCCCC1

>  <Energy>  (5) 
52.58017292912133

>  <Genealogy>  (5) 
CCCCCCC#C[C@@H]1C(C(=O)OC)=C(C)N=C(C)[C@H]1C(=O)OC1CCCCC1 (chirality)
CCCCCCC#C[C@@H]1C(C(=O)OC)=C(C)N=C(C)[C@H]1C(=O)OC1CCCCC1 (3D coordinates assigned)
CCCCCCC#C[C@@H]1C(C(=O)OC)=C(C)N=C(C)[C@H]1C(=O)OC1CCCCC1 (nonaromatic ring conformer: 52.58017292912133 kcal/mol)

>  <smiles>  (5) 
CCCCCCC#CC1C(C(=O)OC)=C(C)N=C(C)C1C(=O)OC1CCCCC1

>  <score_type>  (5) 
oracle

>  <origin>  (5) 
adg

>  <m_score__min__energy>  (5) 
-8.9299999999999997

>  <m_primary>  (5) 
energy

$$$$
5:0
     RDKit          3D

 42 43  0  0  0  0  0  0  0  0999 V2000
   -2.0090   25.5590  -26.1820 C   0  0  0  0  0  0  0  0  0  0  0  0
   -0.9520   26.3960  -26.9080 C   0  0  0  0  0  0  0  0  0  0  0  0
   -0.6030   25.7830  -28.1880 N   0  0  0  0  0  0  0  0  0  0  0  0
   -0.1220   24.4420  -28.3090 C   0  0  0  0  0  0  0  0  0  0  0  0
    1.1130   24.1930  -28.2090 O   0  0  0  0  0  0  0  0  0  0  0  0
   -1.0510   23.3780  -28.5620 N   0  0  0  0  0  0  0  0  0  0  0  0
   -0.8340   22.0720  -27.9260 C   0  0  0  0  0  0  0  0  0  0  0  0
   -0.5830   21.0200  -29.0080 C   0  0  0  0  0  0  0  0  0  0  0  0
   -1.6690   21.0200  -30.1090 C   0  0  0  0  0  0  0  0  0  0  0  0
   -2.7070   22.1500  -29.9690 C   0  0  0  0  0  0  0  0  0  0  0  0
   -2.0530   23.5130  -29.6370 C   0  0  1  0  0  0  0  0  0  0  0  0
   -3.1270   24.5510  -29.2650 C   0  0  0  0  0  0  0  0  0  0  0  0
   -3.7110   25.1310  -30.4720 N   0  0  0  0  0  0  0  0  0  0  0  0
   -5.1110   25.1610  -30.7790 C   0  0  0  0  0  0  0  0  0  0  0  0
   -5.7140   26.2640  -30.7390 O   0  0  0  0  0  0  0  0  0  0  0  0
   -5.8660   23.9440  -31.1380 C   0  0  0  0  0  0  0  0  0  0  0  0
   -5.3000   22.9750  -31.9810 C   0  0  0  0  0  0  0  0  0  0  0  0
   -6.0330   21.8400  -32.3430 C   0  0  0  0  0  0  0  0  0  0  0  0
   -7.3420   21.6710  -31.8760 C   0  0  0  0  0  0  0  0  0  0  0  0
   -8.3430   20.1260  -32.3750 Br  0  0  0  0  0  0  0  0  0  0  0  0
   -7.9200   22.6440  -31.0550 C   0  0  0  0  0  0  0  0  0  0  0  0
   -7.1890   23.7800  -30.6930 C   0  0  0  0  0  0  0  0  0  0  0  0
   -1.8766   25.6638  -25.0950 H   0  0  0  0  0  0  0  0  0  0  0  0
   -3.0124   25.9101  -26.4647 H   0  0  0  0  0  0  0  0  0  0  0  0
   -1.8973   24.5018  -26.4647 H   0  0  0  0  0  0  0  0  0  0  0  0
   -1.3502   27.4056  -27.0870 H   0  0  0  0  0  0  0  0  0  0  0  0
   -0.0493   26.4494  -26.2817 H   0  0  0  0  0  0  0  0  0  0  0  0
    0.0385   22.1285  -27.2585 H   0  0  0  0  0  0  0  0  0  0  0  0
   -1.7228   21.7944  -27.3403 H   0  0  0  0  0  0  0  0  0  0  0  0
    0.3916   21.2231  -29.4760 H   0  0  0  0  0  0  0  0  0  0  0  0
   -0.6052   20.0336  -28.5216 H   0  0  0  0  0  0  0  0  0  0  0  0
   -1.1719   21.1265  -31.0845 H   0  0  0  0  0  0  0  0  0  0  0  0
   -2.2179   20.0716  -30.0130 H   0  0  0  0  0  0  0  0  0  0  0  0
   -3.2575   22.2436  -30.9167 H   0  0  0  0  0  0  0  0  0  0  0  0
   -3.3782   21.8883  -29.1377 H   0  0  0  0  0  0  0  0  0  0  0  0
   -1.5278   23.8673  -30.5362 H   0  0  0  0  0  0  0  0  0  0  0  0
   -3.9180   24.0606  -28.6787 H   0  0  0  0  0  0  0  0  0  0  0  0
   -2.6606   25.3520  -28.6726 H   0  0  0  0  0  0  0  0  0  0  0  0
   -4.2755   23.1087  -32.3586 H   0  0  0  0  0  0  0  0  0  0  0  0
   -5.5803   21.0790  -32.9956 H   0  0  0  0  0  0  0  0  0  0  0  0
   -8.9509   22.5158  -30.6934 H   0  0  0  0  0  0  0  0  0  0  0  0
   -7.6518   24.5489  -30.0569 H   0  0  0  0  0  0  0  0  0  0  0  0
  1  2  1  0
  2  3  1  0
  3  4  1  0
  4  5  2  0
  4  6  1  0
  6  7  1  0
  7  8  1  0
  8  9  1  0
  9 10  1  0
 10 11  1  0
 11 12  1  0
 12 13  1  0
 13 14  1  0
 14 15  2  0
 14 16  1  0
 16 17  2  0
 17 18  1  0
 18 19  2  0
 19 20  1  0
 19 21  1  0
 21 22  2  0
 11  6  1  0
 22 16  1  0
  1 23  1  0
  1 24  1  0
  1 25  1  0
  2 26  1  0
  2 27  1  0
  7 28  1  0
  7 29  1  0
  8 30  1  0
  8 31  1  0
  9 32  1  0
  9 33  1  0
 10 34  1  0
 10 35  1  0
 11 36  1  6
 12 37  1  0
 12 38  1  0
 17 39  1  0
 18 40  1  0
 21 41  1  0
 22 42  1  0
M  CHG  2   3  -1  13  -1
M  END
>  <UniqueID>  (6) 
5

>  <SMILES>  (6) 
CC[N-]C(=O)N1CCCC[C@H]1C[N-]C(=O)c1ccc(Br)cc1

>  <Energy>  (6) 
45.723189303566556

>  <Genealogy>  (6) 
CC[N-]C(=O)N1CCCCC1C[N-]C(=O)c1ccc(Br)cc1 (protonated)
CC[N-]C(=O)N1CCCC[C@H]1C[N-]C(=O)c1ccc(Br)cc1 (chirality)
CC[N-]C(=O)N1CCCC[C@H]1C[N-]C(=O)c1ccc(Br)cc1 (3D coordinates assigned)
CC[N-]C(=O)N1CCCC[C@H]1C[N-]C(=O)c1ccc(Br)cc1 (nonaromatic ring conformer: 45.723189303566556 kcal/mol)

>  <smiles>  (6) 
CCNC(=O)N1CCCCC1CNC(=O)c1ccc(Br)cc1

>  <score_type>  (6) 
oracle

>  <origin>  (6) 
adg

>  <m_score__min__energy>  (6) 
-10.76

>  <m_primary>  (6) 
energy

$$$$
6:0
     RDKit          3D

 67 70  0  0  0  0  0  0  0  0999 V2000
   -2.3101   25.5517  -24.8905 H   0  0  0  0  0  0  0  0  0  0  0  0
   -2.3450   25.6450  -25.9860 C   0  0  0  0  0  0  0  0  0  0  0  0
   -3.2904   25.4765  -26.5225 H   0  0  0  0  0  0  0  0  0  0  0  0
   -1.2390   25.9630  -26.6650 C   0  0  0  0  0  0  0  0  0  0  0  0
   -0.2993   26.1292  -26.1179 H   0  0  0  0  0  0  0  0  0  0  0  0
   -1.2540   26.0980  -28.1610 C   0  0  0  0  0  0  0  0  0  0  0  0
   -2.2899   26.2398  -28.5029 H   0  0  0  0  0  0  0  0  0  0  0  0
   -0.6417   26.9650  -28.4498 H   0  0  0  0  0  0  0  0  0  0  0  0
   -0.7010   24.8950  -28.7810 N   0  0  0  0  0  0  0  0  0  0  0  0
    0.2600   24.9350  -29.1790 H   0  0  0  0  0  0  0  0  0  0  0  0
   -1.4320   23.6620  -28.8590 C   0  0  0  0  0  0  0  0  0  0  0  0
   -2.6940   23.6440  -28.5300 N   0  0  0  0  0  0  0  0  0  0  0  0
   -3.8020   23.2980  -29.3720 C   0  0  0  0  0  0  0  0  0  0  0  0
   -5.0880   23.8660  -29.1670 C   0  0  0  0  0  0  0  0  0  0  0  0
   -5.2378   24.6000  -28.3615 H   0  0  0  0  0  0  0  0  0  0  0  0
   -6.1710   23.4980  -29.9850 C   0  0  0  0  0  0  0  0  0  0  0  0
   -7.1708   23.9300  -29.8309 H   0  0  0  0  0  0  0  0  0  0  0  0
   -5.9370   22.5660  -31.0000 C   0  0  0  0  0  0  0  0  0  0  0  0
   -4.7110   21.9870  -31.1630 C   0  0  0  0  0  0  0  0  0  0  0  0
   -3.6210   22.3140  -30.3630 C   0  0  0  0  0  0  0  0  0  0  0  0
   -2.6481   21.8194  -30.5002 H   0  0  0  0  0  0  0  0  0  0  0  0
   -4.7730   21.0670  -32.1330 N   0  0  0  0  0  0  0  0  0  0  0  0
   -4.0100   20.4220  -32.4350 H   0  0  0  0  0  0  0  0  0  0  0  0
   -6.0570   21.1090  -32.5710 C   0  0  0  0  0  0  0  0  0  0  0  0
   -6.5750   20.1340  -33.6160 C   0  0  0  0  0  0  0  0  0  0  0  0
   -7.2555   20.6801  -34.2858 H   0  0  0  0  0  0  0  0  0  0  0  0
   -5.6895   19.7321  -34.1302 H   0  0  0  0  0  0  0  0  0  0  0  0
   -7.3080   18.9620  -33.0670 N   0  0  0  0  0  0  0  0  0  0  0  0
   -7.2660   18.8630  -31.6040 C   0  0  0  0  0  0  0  0  0  0  0  0
   -6.9690   19.8305  -31.1731 H   0  0  0  0  0  0  0  0  0  0  0  0
   -8.2579   18.5946  -31.2114 H   0  0  0  0  0  0  0  0  0  0  0  0
   -6.2430   17.7950  -31.2310 C   0  0  0  0  0  0  0  0  0  0  0  0
   -5.3481   18.2590  -30.7907 H   0  0  0  0  0  0  0  0  0  0  0  0
   -6.6443   17.0930  -30.4853 H   0  0  0  0  0  0  0  0  0  0  0  0
   -5.8890   17.0900  -32.5280 C   0  0  0  0  0  0  0  0  0  0  0  0
   -4.8407   17.2848  -32.7983 H   0  0  0  0  0  0  0  0  0  0  0  0
   -5.9995   15.9988  -32.4441 H   0  0  0  0  0  0  0  0  0  0  0  0
   -6.8260   17.6750  -33.5740 C   0  0  0  0  0  0  0  0  0  0  0  0
   -6.2856   17.8234  -34.5205 H   0  0  0  0  0  0  0  0  0  0  0  0
   -7.6690   16.9937  -33.7616 H   0  0  0  0  0  0  0  0  0  0  0  0
   -6.8050   22.0350  -31.8900 N   0  0  0  0  0  0  0  0  0  0  0  0
   -8.2420   22.3370  -31.9920 C   0  0  0  0  0  0  0  0  0  0  0  0
   -8.3931   23.4147  -31.8317 H   0  0  0  0  0  0  0  0  0  0  0  0
   -8.5875   22.0379  -32.9926 H   0  0  0  0  0  0  0  0  0  0  0  0
   -9.0530   21.5610  -30.9520 C   0  0  0  0  0  0  0  0  0  0  0  0
   -8.7380   21.8624  -29.9421 H   0  0  0  0  0  0  0  0  0  0  0  0
  -10.1229   21.7803  -31.0832 H   0  0  0  0  0  0  0  0  0  0  0  0
   -8.8810   20.4825  -31.0832 H   0  0  0  0  0  0  0  0  0  0  0  0
   -0.7360   22.4770  -29.2790 N   0  0  0  0  0  0  0  0  0  0  0  0
   -0.0260   22.5990  -30.0380 H   0  0  0  0  0  0  0  0  0  0  0  0
   -0.6410   21.2800  -28.4270 C   0  0  0  0  0  0  0  0  0  0  0  0
    0.3838   20.8824  -28.4696 H   0  0  0  0  0  0  0  0  0  0  0  0
   -1.5690   20.1490  -28.9560 C   0  0  0  0  0  0  0  0  0  0  0  0
   -1.8134   20.3550  -30.0085 H   0  0  0  0  0  0  0  0  0  0  0  0
   -1.0324   19.1948  -28.8480 H   0  0  0  0  0  0  0  0  0  0  0  0
   -2.8730   20.0470  -28.1580 C   0  0  0  0  0  0  0  0  0  0  0  0
   -3.4168   21.0000  -28.2362 H   0  0  0  0  0  0  0  0  0  0  0  0
   -3.4717   19.2231  -28.5736 H   0  0  0  0  0  0  0  0  0  0  0  0
   -2.5960   19.7470  -26.6720 C   0  0  0  0  0  0  0  0  0  0  0  0
   -3.4508   20.1058  -26.0799 H   0  0  0  0  0  0  0  0  0  0  0  0
   -2.4521   18.6600  -26.5846 H   0  0  0  0  0  0  0  0  0  0  0  0
   -1.3120   20.4180  -26.1320 C   0  0  0  0  0  0  0  0  0  0  0  0
   -1.4824   20.7216  -25.0885 H   0  0  0  0  0  0  0  0  0  0  0  0
   -0.4917   19.6890  -26.2066 H   0  0  0  0  0  0  0  0  0  0  0  0
   -0.9210   21.6530  -26.9480 C   0  0  0  0  0  0  0  0  0  0  0  0
   -1.7431   22.3829  -26.9111 H   0  0  0  0  0  0  0  0  0  0  0  0
   -0.0042   22.0808  -26.5162 H   0  0  0  0  0  0  0  0  0  0  0  0
  1  2  1  0
  2  3  1  0
  2  4  2  0
  4  5  1  0
  4  6  1  0
  6  7  1  0
  6  8  1  0
  6  9  1  0
  9 10  1  0
  9 11  1  0
 11 12  2  0
 12 13  1  0
 13 14  2  0
 14 15  1  0
 14 16  1  0
 16 17  1  0
 16 18  2  0
 18 19  1  0
 19 20  2  0
 20 21  1  0
 19 22  1  0
 22 23  1  0
 22 24  2  0
 24 25  1  0
 25 26  1  0
 25 27  1  0
 25 28  1  0
 28 29  1  0
 29 30  1  0
 29 31  1  0
 29 32  1  0
 32 33  1  0
 32 34  1  0
 32 35  1  0
 35 36  1  0
 35 37  1  0
 35 38  1  0
 38 39  1  0
 38 40  1  0
 24 41  1  0
 41 42  1  0
 42 43  1  0
 42 44  1  0
 42 45  1  0
 45 46  1  0
 45 47  1  0
 45 48  1  0
 11 49  1  0
 49 50  1  0
 49 51  1  0
 51 52  1  0
 51 53  1  0
 53 54  1  0
 53 55  1  0
 53 56  1  0
 56 57  1  0
 56 58  1  0
 56 59  1  0
 59 60  1  0
 59 61  1  0
 59 62  1  0
 62 63  1  0
 62 64  1  0
 62 65  1  0
 65 66  1  0
 65 67  1  0
 20 13  1  0
 38 28  1  0
 65 51  1  0
 41 18  1  0
M  CHG  1  22   1
M  END
>  <UniqueID>  (7) 
6

>  <SMILES>  (7) 
C=CCN/C(=N/c1ccc2c(c1)[nH+]c(CN1CCCC1)n2CC)NC1CCCCC1

>  <Energy>  (7) 
116.24348767273797

>  <Genealogy>  (7) 
C=CCNC(=Nc1ccc2c(c1)[nH+]c(CN1CCCC1)n2CC)NC1CCCCC1 (protonated)
C=CCN/C(=N/c1ccc2c(c1)[nH+]c(CN1CCCC1)n2CC)NC1CCCCC1 (cis-trans isomerization)
C=CCN/C(=N/c1ccc2c(c1)[nH+]c(CN1CCCC1)n2CC)NC1CCCCC1 (3D coordinates assigned)
C=CCN/C(=N/c1ccc2c(c1)[nH+]c(CN1CCCC1)n2CC)NC1CCCCC1 (nonaromatic ring conformer: 116.24348767273797 kcal/mol)

>  <smiles>  (7) 
C=CCNC(=Nc1ccc2c(c1)nc(CN1CCCC1)n2CC)NC1CCCCC1

>  <score_type>  (7) 
oracle

>  <origin>  (7) 
adg

>  <m_score__min__energy>  (7) 
-9.0399999999999991

>  <m_primary>  (7) 
energy

$$$$
7:0
     RDKit          3D

 55 58  0  0  0  0  0  0  0  0999 V2000
    1.4270   24.3310  -27.4140 C   0  0  0  0  0  0  0  0  0  0  0  0
    0.2580   24.5090  -28.2080 O   0  0  0  0  0  0  0  0  0  0  0  0
   -1.0450   24.5850  -27.6960 C   0  0  0  0  0  0  0  0  0  0  0  0
   -1.4480   25.6310  -26.8410 C   0  0  0  0  0  0  0  0  0  0  0  0
   -2.7510   25.6740  -26.3410 C   0  0  0  0  0  0  0  0  0  0  0  0
   -3.6610   24.6700  -26.6700 C   0  0  0  0  0  0  0  0  0  0  0  0
   -3.2760   23.6230  -27.5080 C   0  0  0  0  0  0  0  0  0  0  0  0
   -1.9730   23.5780  -28.0380 C   0  0  0  0  0  0  0  0  0  0  0  0
   -1.6080   22.5060  -28.9270 N   0  0  0  0  0  0  0  0  0  0  0  0
   -1.9380   21.1270  -28.5480 C   0  0  0  0  0  0  0  0  0  0  0  0
   -1.6410   20.1520  -29.6930 C   0  0  0  0  0  0  0  0  0  0  0  0
   -1.9610   20.7310  -31.0120 N   0  0  0  0  0  0  0  0  0  0  0  0
   -3.3820   21.0120  -31.1440 C   0  0  0  0  0  0  0  0  0  0  0  0
   -4.2050   20.3700  -30.5020 O   0  0  0  0  0  0  0  0  0  0  0  0
   -3.8500   22.1400  -32.0290 C   0  0  0  0  0  0  0  0  0  0  0  0
   -5.0660   22.7720  -31.4870 N   0  0  0  0  0  0  0  0  0  0  0  0
   -4.9730   24.0520  -30.8260 C   0  0  0  0  0  0  0  0  0  0  0  0
   -3.8840   24.6890  -30.8050 O   0  0  0  0  0  0  0  0  0  0  0  0
   -6.1610   24.6090  -30.1010 C   0  0  0  0  0  0  0  0  0  0  0  0
   -7.3740   24.1620  -30.6980 O   0  0  0  0  0  0  0  0  0  0  0  0
   -7.5100   22.8740  -31.2240 C   0  0  0  0  0  0  0  0  0  0  0  0
   -8.7860   22.3350  -31.4040 C   0  0  0  0  0  0  0  0  0  0  0  0
   -8.9370   21.0360  -31.8920 C   0  0  0  0  0  0  0  0  0  0  0  0
   -7.8080   20.2620  -32.1940 C   0  0  0  0  0  0  0  0  0  0  0  0
   -7.9590   18.8690  -32.7320 C   0  0  0  0  0  0  0  0  0  0  0  0
   -6.5280   20.8170  -32.0490 C   0  0  0  0  0  0  0  0  0  0  0  0
   -6.3650   22.1370  -31.5810 C   0  0  0  0  0  0  0  0  0  0  0  0
   -1.1260   21.9220  -31.3200 C   0  0  0  0  0  0  0  0  0  0  0  0
   -0.7420   22.7710  -30.0840 C   0  0  0  0  0  0  0  0  0  0  0  0
    1.1564   24.3722  -26.3486 H   0  0  0  0  0  0  0  0  0  0  0  0
    1.8785   23.3538  -27.6401 H   0  0  0  0  0  0  0  0  0  0  0  0
    2.1489   25.1296  -27.6401 H   0  0  0  0  0  0  0  0  0  0  0  0
   -0.7311   26.4186  -26.5659 H   0  0  0  0  0  0  0  0  0  0  0  0
   -3.0604   26.5018  -25.6860 H   0  0  0  0  0  0  0  0  0  0  0  0
   -4.6844   24.7035  -26.2681 H   0  0  0  0  0  0  0  0  0  0  0  0
   -3.9950   22.8282  -27.7558 H   0  0  0  0  0  0  0  0  0  0  0  0
   -1.3391   20.8429  -27.6702 H   0  0  0  0  0  0  0  0  0  0  0  0
   -3.0123   21.0765  -28.3169 H   0  0  0  0  0  0  0  0  0  0  0  0
   -0.5724   19.8922  -29.6695 H   0  0  0  0  0  0  0  0  0  0  0  0
   -2.2713   19.2616  -29.5519 H   0  0  0  0  0  0  0  0  0  0  0  0
   -1.7210   20.0010  -31.7240 H   0  0  0  0  0  0  0  0  0  0  0  0
   -3.0535   22.8955  -32.0991 H   0  0  0  0  0  0  0  0  0  0  0  0
   -4.0834   21.7299  -33.0226 H   0  0  0  0  0  0  0  0  0  0  0  0
   -6.1316   24.2773  -29.0526 H   0  0  0  0  0  0  0  0  0  0  0  0
   -6.1247   25.7070  -30.1568 H   0  0  0  0  0  0  0  0  0  0  0  0
   -9.6745   22.9360  -31.1604 H   0  0  0  0  0  0  0  0  0  0  0  0
   -9.9440   20.6188  -32.0399 H   0  0  0  0  0  0  0  0  0  0  0  0
   -8.0360   18.1591  -31.8953 H   0  0  0  0  0  0  0  0  0  0  0  0
   -8.8688   18.8103  -33.3475 H   0  0  0  0  0  0  0  0  0  0  0  0
   -7.0829   18.6167  -33.3475 H   0  0  0  0  0  0  0  0  0  0  0  0
   -5.6422   20.2162  -32.3030 H   0  0  0  0  0  0  0  0  0  0  0  0
   -0.1992   21.5771  -31.8018 H   0  0  0  0  0  0  0  0  0  0  0  0
   -1.7318   22.5703  -31.9701 H   0  0  0  0  0  0  0  0  0  0  0  0
    0.2972   22.5402  -29.8068 H   0  0  0  0  0  0  0  0  0  0  0  0
   -0.8630   23.8300  -30.3558 H   0  0  0  0  0  0  0  0  0  0  0  0
  1  2  1  0
  2  3  1  0
  3  4  2  0
  4  5  1  0
  5  6  2  0
  6  7  1  0
  7  8  2  0
  8  9  1  0
  9 10  1  0
 10 11  1  0
 11 12  1  0
 12 13  1  0
 13 14  2  0
 13 15  1  0
 15 16  1  0
 16 17  1  0
 17 18  2  0
 17 19  1  0
 19 20  1  0
 20 21  1  0
 21 22  2  0
 22 23  1  0
 23 24  2  0
 24 25  1  0
 24 26  1  0
 26 27  2  0
 12 28  1  0
 28 29  1  0
  8  3  1  0
 29  9  1  0
 27 16  1  0
 27 21  1  0
  1 30  1  0
  1 31  1  0
  1 32  1  0
  4 33  1  0
  5 34  1  0
  6 35  1  0
  7 36  1  0
 10 37  1  0
 10 38  1  0
 11 39  1  0
 11 40  1  0
 12 41  1  0
 15 42  1  0
 15 43  1  0
 19 44  1  0
 19 45  1  0
 22 46  1  0
 23 47  1  0
 25 48  1  0
 25 49  1  0
 25 50  1  0
 26 51  1  0
 28 52  1  0
 28 53  1  0
 29 54  1  0
 29 55  1  0
M  CHG  1  12   1
M  END
>  <UniqueID>  (8) 
7

>  <SMILES>  (8) 
COc1ccccc1N1CC[NH+](C(=O)CN2C(=O)COc3ccc(C)cc32)CC1

>  <Energy>  (8) 
74.18160473348674

>  <Genealogy>  (8) 
COc1ccccc1N1CC[NH+](C(=O)CN2C(=O)COc3ccc(C)cc32)CC1 (protonated)
COc1ccccc1N1CC[NH+](C(=O)CN2C(=O)COc3ccc(C)cc32)CC1 (3D coordinates assigned)
COc1ccccc1N1CC[NH+](C(=O)CN2C(=O)COc3ccc(C)cc32)CC1 (nonaromatic ring conformer: 74.18160473348674 kcal/mol)

>  <smiles>  (8) 
COc1ccccc1N1CCN(C(=O)CN2C(=O)COc3ccc(C)cc32)CC1

>  <score_type>  (8) 
oracle

>  <origin>  (8) 
adg

>  <m_score__min__energy>  (8) 
-8.5399999999999991

>  <m_primary>  (8) 
energy

$$$$
8:0
     RDKit          3D

 49 50  0  0  0  0  0  0  0  0999 V2000
   -1.6680   15.5460  -35.7080 C   0  0  0  0  0  0  0  0  0  0  0  0
   -3.1420   15.9250  -35.8890 C   0  0  0  0  0  0  0  0  0  0  0  0
   -3.7690   16.3720  -34.6160 N   0  0  0  0  0  0  0  0  0  0  0  0
   -2.8190   17.2180  -33.8420 C   0  0  0  0  0  0  0  0  0  0  0  0
   -3.1940   18.7040  -33.8890 C   0  0  0  0  0  0  0  0  0  0  0  0
   -4.1890   15.1940  -33.8080 C   0  0  0  0  0  0  0  0  0  0  0  0
   -4.4760   15.5720  -32.3420 C   0  0  0  0  0  0  0  0  0  0  0  0
   -5.7580   16.4030  -32.2090 C   0  0  0  0  0  0  0  0  0  0  0  0
   -6.2980   16.7200  -33.4910 O   0  0  0  0  0  0  0  0  0  0  0  0
   -6.4520   18.0300  -33.9630 C   0  0  0  0  0  0  0  0  0  0  0  0
   -6.0660   18.3350  -35.1250 O   0  0  0  0  0  0  0  0  0  0  0  0
   -7.0680   19.0550  -33.0920 C   0  0  0  0  0  0  0  0  0  0  0  0
   -8.4030   18.9220  -32.6780 C   0  0  0  0  0  0  0  0  0  0  0  0
   -8.9890   19.8880  -31.8580 C   0  0  0  0  0  0  0  0  0  0  0  0
   -8.2520   20.9990  -31.4430 C   0  0  0  0  0  0  0  0  0  0  0  0
   -6.9160   21.1570  -31.8460 C   0  0  0  0  0  0  0  0  0  0  0  0
   -6.1330   22.3410  -31.4080 C   0  0  0  0  0  0  0  0  0  0  0  0
   -6.7730   23.5690  -31.1580 C   0  0  0  0  0  0  0  0  0  0  0  0
   -6.0340   24.6830  -30.7450 C   0  0  0  0  0  0  0  0  0  0  0  0
   -4.6510   24.5830  -30.5790 C   0  0  0  0  0  0  0  0  0  0  0  0
   -3.9360   25.6640  -30.1800 F   0  0  0  0  0  0  0  0  0  0  0  0
   -4.0030   23.3700  -30.8250 C   0  0  0  0  0  0  0  0  0  0  0  0
   -4.7380   22.2540  -31.2370 C   0  0  0  0  0  0  0  0  0  0  0  0
   -6.3310   20.1790  -32.6720 C   0  0  0  0  0  0  0  0  0  0  0  0
   -1.4340   15.4858  -34.6349 H   0  0  0  0  0  0  0  0  0  0  0  0
   -1.4797   14.5702  -36.1796 H   0  0  0  0  0  0  0  0  0  0  0  0
   -1.0324   16.3099  -36.1796 H   0  0  0  0  0  0  0  0  0  0  0  0
   -3.2100   16.7415  -36.6230 H   0  0  0  0  0  0  0  0  0  0  0  0
   -3.6804   15.0299  -36.2339 H   0  0  0  0  0  0  0  0  0  0  0  0
   -4.6190   16.9440  -34.8410 H   0  0  0  0  0  0  0  0  0  0  0  0
   -2.8219   16.8852  -32.7936 H   0  0  0  0  0  0  0  0  0  0  0  0
   -1.8228   17.1072  -34.2951 H   0  0  0  0  0  0  0  0  0  0  0  0
   -3.2915   19.0902  -32.8636 H   0  0  0  0  0  0  0  0  0  0  0  0
   -2.4089   19.2637  -34.4185 H   0  0  0  0  0  0  0  0  0  0  0  0
   -4.1506   18.8242  -34.4185 H   0  0  0  0  0  0  0  0  0  0  0  0
   -5.1016   14.7674  -34.2499 H   0  0  0  0  0  0  0  0  0  0  0  0
   -3.3649   14.4655  -33.8158 H   0  0  0  0  0  0  0  0  0  0  0  0
   -4.5861   14.6504  -31.7516 H   0  0  0  0  0  0  0  0  0  0  0  0
   -3.6354   16.1788  -31.9743 H   0  0  0  0  0  0  0  0  0  0  0  0
   -6.5016   15.8279  -31.6378 H   0  0  0  0  0  0  0  0  0  0  0  0
   -5.5145   17.3417  -31.6898 H   0  0  0  0  0  0  0  0  0  0  0  0
   -8.9912   18.0507  -33.0020 H   0  0  0  0  0  0  0  0  0  0  0  0
  -10.0351   19.7735  -31.5377 H   0  0  0  0  0  0  0  0  0  0  0  0
   -8.7208   21.7553  -30.7963 H   0  0  0  0  0  0  0  0  0  0  0  0
   -7.8620   23.6537  -31.2882 H   0  0  0  0  0  0  0  0  0  0  0  0
   -6.5429   25.6387  -30.5508 H   0  0  0  0  0  0  0  0  0  0  0  0
   -2.9135   23.2927  -30.6945 H   0  0  0  0  0  0  0  0  0  0  0  0
   -4.2227   21.3013  -31.4289 H   0  0  0  0  0  0  0  0  0  0  0  0
   -5.2853   20.2941  -32.9934 H   0  0  0  0  0  0  0  0  0  0  0  0
  1  2  1  0
  2  3  1  0
  3  4  1  0
  4  5  1  0
  3  6  1  0
  6  7  1  0
  7  8  1  0
  8  9  1  0
  9 10  1  0
 10 11  2  0
 10 12  1  0
 12 13  2  0
 13 14  1  0
 14 15  2  0
 15 16  1  0
 16 17  1  0
 17 18  2  0
 18 19  1  0
 19 20  2  0
 20 21  1  0
 20 22  1  0
 22 23  2  0
 16 24  2  0
 24 12  1  0
 23 17  1  0
  1 25  1  0
  1 26  1  0
  1 27  1  0
  2 28  1  0
  2 29  1  0
  3 30  1  0
  4 31  1  0
  4 32  1  0
  5 33  1  0
  5 34  1  0
  5 35  1  0
  6 36  1  0
  6 37  1  0
  7 38  1  0
  7 39  1  0
  8 40  1  0
  8 41  1  0
 13 42  1  0
 14 43  1  0
 15 44  1  0
 18 45  1  0
 19 46  1  0
 22 47  1  0
 23 48  1  0
 24 49  1  0
M  CHG  1   3   1
M  END
>  <UniqueID>  (9) 
8

>  <SMILES>  (9) 
CC[NH+](CC)CCCOC(=O)c1cccc(-c2ccc(F)cc2)c1

>  <Energy>  (9) 
51.62335155338418

>  <Genealogy>  (9) 
CC[NH+](CC)CCCOC(=O)c1cccc(-c2ccc(F)cc2)c1 (protonated)
CC[NH+](CC)CCCOC(=O)c1cccc(-c2ccc(F)cc2)c1 (3D coordinates assigned)
CC[NH+](CC)CCCOC(=O)c1cccc(-c2ccc(F)cc2)c1 (optimized conformer: 51.62335155338418 kcal/mol)

>  <smiles>  (9) 
CCN(CC)CCCOC(=O)c1cccc(-c2ccc(F)cc2)c1

>  <score_type>  (9) 
oracle

>  <origin>  (9) 
adg

>  <m_score__min__energy>  (9) 
-7.1200000000000001

>  <m_primary>  (9) 
energy

$$$$
9:0
     RDKit          3D

 39 41  0  0  0  0  0  0  0  0999 V2000
   -6.8560   16.2450  -33.8300 C   0  0  0  0  0  0  0  0  0  0  0  0
   -7.5370   17.2530  -33.0880 O   0  0  0  0  0  0  0  0  0  0  0  0
   -7.1010   18.5800  -32.9710 C   0  0  0  0  0  0  0  0  0  0  0  0
   -5.9430   19.0520  -33.6110 C   0  0  0  0  0  0  0  0  0  0  0  0
   -5.5520   20.3840  -33.4670 C   0  0  0  0  0  0  0  0  0  0  0  0
   -6.2990   21.2690  -32.6720 C   0  0  0  0  0  0  0  0  0  0  0  0
   -5.9020   22.6480  -32.5530 N   0  0  0  0  0  0  0  0  0  0  0  0
   -4.9030   23.1060  -31.6290 C   0  0  0  0  0  0  0  0  0  0  0  0
   -5.0670   24.1020  -30.6810 C   0  0  0  0  0  0  0  0  0  0  0  0
   -6.3080   24.9000  -30.4350 C   0  0  0  0  0  0  0  0  0  0  0  0
   -6.1780   25.6530  -29.1920 N   0  0  0  0  0  0  0  0  0  0  0  0
   -3.9350   24.2260  -29.9470 N   0  0  0  0  0  0  0  0  0  0  0  0
   -3.1130   23.2930  -30.4770 C   0  0  0  0  0  0  0  0  0  0  0  0
   -1.8220   23.0100  -30.0370 C   0  0  0  0  0  0  0  0  0  0  0  0
   -1.1290   21.9670  -30.6710 C   0  0  0  0  0  0  0  0  0  0  0  0
   -1.7410   21.2310  -31.7030 C   0  0  0  0  0  0  0  0  0  0  0  0
   -3.0440   21.5560  -32.1040 C   0  0  0  0  0  0  0  0  0  0  0  0
   -3.6690   22.5940  -31.4850 N   0  0  0  0  0  0  0  0  0  0  0  0
   -7.4640   20.8000  -32.0240 C   0  0  0  0  0  0  0  0  0  0  0  0
   -8.3000   21.7160  -31.1710 C   0  0  0  0  0  0  0  0  0  0  0  0
   -7.8550   19.4600  -32.1870 C   0  0  0  0  0  0  0  0  0  0  0  0
   -6.3784   15.5381  -33.1355 H   0  0  0  0  0  0  0  0  0  0  0  0
   -7.5761   15.7066  -34.4636 H   0  0  0  0  0  0  0  0  0  0  0  0
   -6.0877   16.7122  -34.4636 H   0  0  0  0  0  0  0  0  0  0  0  0
   -5.3416   18.3686  -34.2285 H   0  0  0  0  0  0  0  0  0  0  0  0
   -4.6492   20.7447  -33.9816 H   0  0  0  0  0  0  0  0  0  0  0  0
   -6.2670   23.3350  -33.2500 H   0  0  0  0  0  0  0  0  0  0  0  0
   -6.4632   25.5990  -31.2700 H   0  0  0  0  0  0  0  0  0  0  0  0
   -7.1669   24.2173  -30.3559 H   0  0  0  0  0  0  0  0  0  0  0  0
   -5.1590   25.8070  -29.0200 H   0  0  0  0  0  0  0  0  0  0  0  0
   -6.5240   25.0510  -28.4080 H   0  0  0  0  0  0  0  0  0  0  0  0
   -1.3611   23.5846  -29.2201 H   0  0  0  0  0  0  0  0  0  0  0  0
   -0.1024   21.7235  -30.3598 H   0  0  0  0  0  0  0  0  0  0  0  0
   -1.2005   20.4067  -32.1912 H   0  0  0  0  0  0  0  0  0  0  0  0
   -3.5483   20.9866  -32.8986 H   0  0  0  0  0  0  0  0  0  0  0  0
   -8.1075   21.5050  -30.1087 H   0  0  0  0  0  0  0  0  0  0  0  0
   -8.0384   22.7617  -31.3904 H   0  0  0  0  0  0  0  0  0  0  0  0
   -9.3651   21.5507  -31.3904 H   0  0  0  0  0  0  0  0  0  0  0  0
   -8.7674   19.0976  -31.6908 H   0  0  0  0  0  0  0  0  0  0  0  0
  1  2  1  0
  2  3  1  0
  3  4  2  0
  4  5  1  0
  5  6  2  0
  6  7  1  0
  7  8  1  0
  8  9  2  0
  9 10  1  0
 10 11  1  0
  9 12  1  0
 12 13  2  0
 13 14  1  0
 14 15  2  0
 15 16  1  0
 16 17  2  0
 17 18  1  0
  6 19  1  0
 19 20  1  0
 19 21  2  0
 21  3  1  0
 18  8  1  0
 18 13  1  0
  1 22  1  0
  1 23  1  0
  1 24  1  0
  4 25  1  0
  5 26  1  0
  7 27  1  0
 10 28  1  0
 10 29  1  0
 11 30  1  0
 11 31  1  0
 14 32  1  0
 15 33  1  0
 16 34  1  0
 17 35  1  0
 20 36  1  0
 20 37  1  0
 20 38  1  0
 21 39  1  0
M  END
>  <UniqueID>  (10) 
9

>  <SMILES>  (10) 
COc1ccc(Nc2c(CN)nc3ccccn23)c(C)c1

>  <Energy>  (10) 
79.91439161672486

>  <Genealogy>  (10) 
COc1ccc(Nc2c(CN)nc3ccccn23)c(C)c1 (3D coordinates assigned)
COc1ccc(Nc2c(CN)nc3ccccn23)c(C)c1 (optimized conformer: 79.91439161672486 kcal/mol)

>  <smiles>  (10) 
COc1ccc(Nc2c(CN)nc3ccccn23)c(C)c1

>  <score_type>  (10) 
oracle

>  <origin>  (10) 
adg

>  <m_score__min__energy>  (10) 
-7.3499999999999996

>  <m_primary>  (10) 
energy

$$$$
10:0
     RDKit          3D

 39 40  0  0  0  0  0  0  0  0999 V2000
   -1.1200   24.5200  -28.9630 C   0  0  0  0  0  0  0  0  0  0  0  0
   -2.0930   24.9170  -27.9320 N   0  0  0  0  0  0  0  0  0  0  0  0
   -1.4890   25.9370  -27.0560 C   0  0  0  0  0  0  0  0  0  0  0  0
   -2.5170   23.7290  -27.1570 C   0  0  0  0  0  0  0  0  0  0  0  0
   -3.9800   23.3410  -27.4650 C   0  0  0  0  0  0  0  0  0  0  0  0
   -4.7380   24.4810  -28.0010 N   0  0  0  0  0  0  0  0  0  0  0  0
   -5.0030   24.2810  -29.3970 C   0  0  0  0  0  0  0  0  0  0  0  0
   -4.3980   24.9310  -30.4560 C   0  0  0  0  0  0  0  0  0  0  0  0
   -5.0150   24.5610  -31.5960 N   0  0  0  0  0  0  0  0  0  0  0  0
   -5.9790   23.7080  -31.2770 N   0  0  0  0  0  0  0  0  0  0  0  0
   -6.9130   23.1400  -32.2450 C   0  0  0  0  0  0  0  0  0  0  0  0
   -6.8220   21.6280  -32.2300 C   0  0  0  0  0  0  0  0  0  0  0  0
   -7.9510   20.8420  -31.8930 C   0  0  0  0  0  0  0  0  0  0  0  0
   -9.4930   21.5580  -31.4360 Cl  0  0  0  0  0  0  0  0  0  0  0  0
   -7.8660   19.4460  -31.9160 C   0  0  0  0  0  0  0  0  0  0  0  0
   -6.6770   18.8160  -32.2800 C   0  0  0  0  0  0  0  0  0  0  0  0
   -5.5630   19.5770  -32.6300 C   0  0  0  0  0  0  0  0  0  0  0  0
   -5.6260   20.9740  -32.6140 C   0  0  0  0  0  0  0  0  0  0  0  0
   -4.1800   21.8630  -33.0890 Cl  0  0  0  0  0  0  0  0  0  0  0  0
   -6.0140   23.5250  -29.9430 C   0  0  0  0  0  0  0  0  0  0  0  0
   -0.2052   24.1467  -28.4795 H   0  0  0  0  0  0  0  0  0  0  0  0
   -1.5532   23.7267  -29.5899 H   0  0  0  0  0  0  0  0  0  0  0  0
   -0.8746   25.3899  -29.5899 H   0  0  0  0  0  0  0  0  0  0  0  0
   -1.6528   25.6604  -26.0040 H   0  0  0  0  0  0  0  0  0  0  0  0
   -0.4089   25.9983  -27.2551 H   0  0  0  0  0  0  0  0  0  0  0  0
   -1.9545   26.9135  -27.2551 H   0  0  0  0  0  0  0  0  0  0  0  0
   -1.8620   22.8833  -27.4133 H   0  0  0  0  0  0  0  0  0  0  0  0
   -2.4439   23.9726  -26.0868 H   0  0  0  0  0  0  0  0  0  0  0  0
   -3.9858   22.5278  -28.2057 H   0  0  0  0  0  0  0  0  0  0  0  0
   -4.4567   23.0197  -26.5272 H   0  0  0  0  0  0  0  0  0  0  0  0
   -5.6470   24.5720  -27.4920 H   0  0  0  0  0  0  0  0  0  0  0  0
   -4.1970   25.3690  -27.8840 H   0  0  0  0  0  0  0  0  0  0  0  0
   -3.5543   25.6328  -30.3812 H   0  0  0  0  0  0  0  0  0  0  0  0
   -7.9372   23.4455  -31.9850 H   0  0  0  0  0  0  0  0  0  0  0  0
   -6.6572   23.5063  -33.2502 H   0  0  0  0  0  0  0  0  0  0  0  0
   -8.7437   18.8410  -31.6449 H   0  0  0  0  0  0  0  0  0  0  0  0
   -6.6179   17.7176  -32.2910 H   0  0  0  0  0  0  0  0  0  0  0  0
   -4.6281   19.0755  -32.9207 H   0  0  0  0  0  0  0  0  0  0  0  0
   -6.7212   22.8880  -29.3916 H   0  0  0  0  0  0  0  0  0  0  0  0
  1  2  1  0
  2  3  1  0
  2  4  1  0
  4  5  1  0
  5  6  1  0
  6  7  1  0
  7  8  1  0
  8  9  2  0
  9 10  1  0
 10 11  1  0
 11 12  1  0
 12 13  2  0
 13 14  1  0
 13 15  1  0
 15 16  2  0
 16 17  1  0
 17 18  2  0
 18 19  1  0
 10 20  1  0
 20  7  2  0
 18 12  1  0
  1 21  1  0
  1 22  1  0
  1 23  1  0
  3 24  1  0
  3 25  1  0
  3 26  1  0
  4 27  1  0
  4 28  1  0
  5 29  1  0
  5 30  1  0
  6 31  1  0
  6 32  1  0
  8 33  1  0
 11 34  1  0
 11 35  1  0
 15 36  1  0
 16 37  1  0
 17 38  1  0
 20 39  1  0
M  CHG  1   6   1
M  END
>  <UniqueID>  (11) 
10

>  <SMILES>  (11) 
CN(C)CC[NH2+]c1cnn(Cc2c(Cl)cccc2Cl)c1

>  <Energy>  (11) 
72.2671656170652

>  <Genealogy>  (11) 
CN(C)CC[NH2+]c1cnn(Cc2c(Cl)cccc2Cl)c1 (protonated)
CN(C)CC[NH2+]c1cnn(Cc2c(Cl)cccc2Cl)c1 (3D coordinates assigned)
CN(C)CC[NH2+]c1cnn(Cc2c(Cl)cccc2Cl)c1 (optimized conformer: 72.2671656170652 kcal/mol)

>  <smiles>  (11) 
CN(C)CCNc1cnn(Cc2c(Cl)cccc2Cl)c1

>  <score_type>  (11) 
oracle

>  <origin>  (11) 
adg

>  <m_score__min__energy>  (11) 
-7.04

>  <m_primary>  (11) 
energy

$$$$
11:0
     RDKit          3D

 54 57  0  0  0  0  0  0  0  0999 V2000
   -6.4800   16.9150  -34.2200 C   0  0  0  0  0  0  0  0  0  0  0  0
   -5.6900   18.1650  -34.5970 C   0  0  0  0  0  0  0  0  0  0  0  0
   -4.5390   18.3360  -33.6810 N   0  0  0  0  0  0  0  0  0  0  0  0
   -3.5420   17.2560  -33.8570 C   0  0  0  0  0  0  0  0  0  0  0  0
   -2.1610   17.8370  -34.1470 C   0  0  0  0  0  0  0  0  0  0  0  0
   -3.9120   19.6720  -33.8430 C   0  0  0  0  0  0  0  0  0  0  0  0
   -4.7170   20.7330  -33.0780 C   0  0  0  0  0  0  0  0  0  0  0  0
   -5.3390   20.1620  -31.8740 N   0  0  0  0  0  0  0  0  0  0  0  0
   -6.7510   20.4770  -31.8390 C   0  0  0  0  0  0  0  0  0  0  0  0
   -7.6800   19.4840  -32.2040 C   0  0  0  0  0  0  0  0  0  0  0  0
   -9.0450   19.7670  -32.2650 C   0  0  0  0  0  0  0  0  0  0  0  0
   -9.5050   21.0510  -31.9780 C   0  0  0  0  0  0  0  0  0  0  0  0
   -8.6030   22.0540  -31.6270 C   0  0  0  0  0  0  0  0  0  0  0  0
   -7.2260   21.7860  -31.5440 C   0  0  0  0  0  0  0  0  0  0  0  0
   -6.3250   22.8940  -31.1620 C   0  0  0  0  0  0  0  0  0  0  0  0
   -6.5240   24.2070  -31.5840 C   0  0  0  0  0  0  0  0  0  0  0  0
   -5.3470   25.1740  -30.8740 S   0  0  0  0  0  0  0  0  0  0  0  0
   -4.5840   23.9410  -30.0210 C   0  0  0  0  0  0  0  0  0  0  0  0
   -3.3980   24.1010  -29.1740 C   0  0  0  0  0  0  0  0  0  0  0  0
   -3.0500   23.1960  -28.2200 N   0  0  0  0  0  0  0  0  0  0  0  0
   -1.9260   23.7260  -27.7150 C   0  0  0  0  0  0  0  0  0  0  0  0
   -1.1270   23.2150  -26.6950 C   0  0  0  0  0  0  0  0  0  0  0  0
    0.0170   23.9510  -26.3320 C   0  0  0  0  0  0  0  0  0  0  0  0
    0.3270   25.1620  -26.9940 C   0  0  0  0  0  0  0  0  0  0  0  0
   -0.5060   25.6470  -28.0220 C   0  0  0  0  0  0  0  0  0  0  0  0
   -1.6280   24.8920  -28.3510 C   0  0  0  0  0  0  0  0  0  0  0  0
   -2.5510   25.1570  -29.2880 N   0  0  0  0  0  0  0  0  0  0  0  0
   -5.2520   22.7500  -30.2690 C   0  0  0  0  0  0  0  0  0  0  0  0
   -6.5329   16.8312  -33.1245 H   0  0  0  0  0  0  0  0  0  0  0  0
   -7.4975   16.9862  -34.6319 H   0  0  0  0  0  0  0  0  0  0  0  0
   -5.9790   16.0265  -34.6319 H   0  0  0  0  0  0  0  0  0  0  0  0
   -5.3220   18.0652  -35.6288 H   0  0  0  0  0  0  0  0  0  0  0  0
   -6.3471   19.0436  -34.5169 H   0  0  0  0  0  0  0  0  0  0  0  0
   -3.4947   16.6551  -32.9369 H   0  0  0  0  0  0  0  0  0  0  0  0
   -3.8471   16.6290  -34.7078 H   0  0  0  0  0  0  0  0  0  0  0  0
   -1.6475   18.0530  -33.1985 H   0  0  0  0  0  0  0  0  0  0  0  0
   -1.5717   17.1105  -34.7258 H   0  0  0  0  0  0  0  0  0  0  0  0
   -2.2683   18.7662  -34.7258 H   0  0  0  0  0  0  0  0  0  0  0  0
   -2.8853   19.6415  -33.4494 H   0  0  0  0  0  0  0  0  0  0  0  0
   -3.8976   19.9341  -34.9112 H   0  0  0  0  0  0  0  0  0  0  0  0
   -4.0428   21.5497  -32.7807 H   0  0  0  0  0  0  0  0  0  0  0  0
   -5.5136   21.1085  -33.7372 H   0  0  0  0  0  0  0  0  0  0  0  0
   -5.2160   19.1210  -31.8850 H   0  0  0  0  0  0  0  0  0  0  0  0
   -4.8540   20.5100  -31.0200 H   0  0  0  0  0  0  0  0  0  0  0  0
   -7.3248   18.4711  -32.4444 H   0  0  0  0  0  0  0  0  0  0  0  0
   -9.7585   18.9762  -32.5398 H   0  0  0  0  0  0  0  0  0  0  0  0
  -10.5812   21.2731  -32.0286 H   0  0  0  0  0  0  0  0  0  0  0  0
   -8.9734   23.0673  -31.4124 H   0  0  0  0  0  0  0  0  0  0  0  0
   -7.3159   24.5516  -32.2652 H   0  0  0  0  0  0  0  0  0  0  0  0
   -1.3806   22.2706  -26.1913 H   0  0  0  0  0  0  0  0  0  0  0  0
    0.6730   23.5825  -25.5296 H   0  0  0  0  0  0  0  0  0  0  0  0
    1.2241   25.7289  -26.7045 H   0  0  0  0  0  0  0  0  0  0  0  0
   -0.2779   26.5874  -28.5450 H   0  0  0  0  0  0  0  0  0  0  0  0
   -4.9691   21.7903  -29.8119 H   0  0  0  0  0  0  0  0  0  0  0  0
  1  2  1  0
  2  3  1  0
  3  4  1  0
  4  5  1  0
  3  6  1  0
  6  7  1  0
  7  8  1  0
  8  9  1  0
  9 10  2  0
 10 11  1  0
 11 12  2  0
 12 13  1  0
 13 14  2  0
 14 15  1  0
 15 16  2  0
 16 17  1  0
 17 18  1  0
 18 19  1  0
 19 20  2  0
 20 21  1  0
 21 22  2  0
 22 23  1  0
 23 24  2  0
 24 25  1  0
 25 26  2  0
 26 27  1  0
 18 28  2  0
 14  9  1  0
 28 15  1  0
 27 19  1  0
 26 21  1  0
  1 29  1  0
  1 30  1  0
  1 31  1  0
  2 32  1  0
  2 33  1  0
  4 34  1  0
  4 35  1  0
  5 36  1  0
  5 37  1  0
  5 38  1  0
  6 39  1  0
  6 40  1  0
  7 41  1  0
  7 42  1  0
  8 43  1  0
  8 44  1  0
 10 45  1  0
 11 46  1  0
 12 47  1  0
 13 48  1  0
 16 49  1  0
 22 50  1  0
 23 51  1  0
 24 52  1  0
 25 53  1  0
 28 54  1  0
M  CHG  2   8   1  27  -1
M  END
>  <UniqueID>  (12) 
11

>  <SMILES>  (12) 
CCN(CC)CC[NH2+]c1ccccc1-c1csc(-c2nc3ccccc3[n-]2)c1

>  <Energy>  (12) 
120.2978463540152

>  <Genealogy>  (12) 
CCN(CC)CC[NH2+]c1ccccc1-c1csc(-c2nc3ccccc3[n-]2)c1 (protonated)
CCN(CC)CC[NH2+]c1ccccc1-c1csc(-c2nc3ccccc3[n-]2)c1 (3D coordinates assigned)
CCN(CC)CC[NH2+]c1ccccc1-c1csc(-c2nc3ccccc3[n-]2)c1 (optimized conformer: 120.2978463540152 kcal/mol)

>  <smiles>  (12) 
CCN(CC)CCNc1ccccc1-c1csc(-c2nc3ccccc3[nH]2)c1

>  <score_type>  (12) 
oracle

>  <origin>  (12) 
adg

>  <m_score__min__energy>  (12) 
-9.4499999999999993

>  <m_primary>  (12) 
energy

$$$$
12:0
     RDKit          3D

 72 73  0  0  0  0  0  0  0  0999 V2000
   -5.7510   19.1970  -32.1980 H   0  0  0  0  0  0  0  0  0  0  0  0
   -5.6850   18.9120  -31.2490 O   0  0  0  0  0  0  0  0  0  0  0  0
   -6.4910   17.7730  -31.1160 C   0  0  0  0  0  0  0  0  0  0  0  0
   -6.5284   17.4765  -30.0574 H   0  0  0  0  0  0  0  0  0  0  0  0
   -6.0634   16.9593  -31.7202 H   0  0  0  0  0  0  0  0  0  0  0  0
   -7.9080   18.0660  -31.6080 C   0  0  0  0  0  0  0  0  0  0  0  0
   -8.5735   18.2019  -30.7427 H   0  0  0  0  0  0  0  0  0  0  0  0
   -8.2600   17.2223  -32.2198 H   0  0  0  0  0  0  0  0  0  0  0  0
   -7.9130   19.2860  -32.4210 N   0  0  0  0  0  0  0  0  0  0  0  0
   -6.9330   19.4550  -32.7530 H   0  0  0  0  0  0  0  0  0  0  0  0
   -8.3170   20.4420  -31.6120 C   0  0  0  0  0  0  0  0  0  0  0  0
   -7.8051   20.4003  -30.6393 H   0  0  0  0  0  0  0  0  0  0  0  0
   -9.4070   20.4126  -31.4672 H   0  0  0  0  0  0  0  0  0  0  0  0
   -7.9460   21.7450  -32.3210 C   0  0  0  0  0  0  0  0  0  0  0  0
   -8.4200   22.5893  -31.7990 H   0  0  0  0  0  0  0  0  0  0  0  0
   -8.2989   21.6978  -33.3618 H   0  0  0  0  0  0  0  0  0  0  0  0
   -6.4950   21.9310  -32.3200 N   0  0  0  0  0  0  0  0  0  0  0  0
   -5.6570   21.1650  -33.0160 N   0  0  0  0  0  0  0  0  0  0  0  0
   -4.3960   21.5650  -32.7160 C   0  0  0  0  0  0  0  0  0  0  0  0
   -3.3110   21.0440  -33.2040 N   0  0  0  0  0  0  0  0  0  0  0  0
   -2.9400   19.6360  -33.0650 C   0  0  0  0  0  0  0  0  0  0  0  0
   -1.8430   19.5545  -33.0703 H   0  0  0  0  0  0  0  0  0  0  0  0
   -3.3593   19.2635  -32.1187 H   0  0  0  0  0  0  0  0  0  0  0  0
   -3.5080   18.7810  -34.2090 C   0  0  0  0  0  0  0  0  0  0  0  0
   -4.1389   19.4200  -34.8444 H   0  0  0  0  0  0  0  0  0  0  0  0
   -2.6544   18.3651  -34.7643 H   0  0  0  0  0  0  0  0  0  0  0  0
   -4.3540   17.5970  -33.7110 C   0  0  0  0  0  0  0  0  0  0  0  0
   -4.0788   16.6966  -34.2798 H   0  0  0  0  0  0  0  0  0  0  0  0
   -4.1556   17.4575  -32.6381 H   0  0  0  0  0  0  0  0  0  0  0  0
   -5.8020   17.8540  -33.8870 N   0  0  0  0  0  0  0  0  0  0  0  0
   -6.5290   16.6130  -34.2090 C   0  0  0  0  0  0  0  0  0  0  0  0
   -6.8244   16.1088  -33.2771 H   0  0  0  0  0  0  0  0  0  0  0  0
   -7.4276   16.8560  -34.7951 H   0  0  0  0  0  0  0  0  0  0  0  0
   -5.8776   15.9480  -34.7951 H   0  0  0  0  0  0  0  0  0  0  0  0
   -6.0210   18.8460  -34.9510 C   0  0  0  0  0  0  0  0  0  0  0  0
   -6.2373   19.8257  -34.5000 H   0  0  0  0  0  0  0  0  0  0  0  0
   -5.1177   18.9206  -35.5743 H   0  0  0  0  0  0  0  0  0  0  0  0
   -6.8718   18.5334  -35.5743 H   0  0  0  0  0  0  0  0  0  0  0  0
   -4.4540   22.5910  -31.8100 C   0  0  0  0  0  0  0  0  0  0  0  0
   -3.4720   23.2920  -31.1920 N   0  0  0  0  0  0  0  0  0  0  0  0
   -3.8130   24.2610  -30.2870 C   0  0  0  0  0  0  0  0  0  0  0  0
   -2.8520   24.9190  -29.7000 N   0  0  0  0  0  0  0  0  0  0  0  0
   -2.3660   24.7570  -28.3290 C   0  0  0  0  0  0  0  0  0  0  0  0
   -3.0147   24.0450  -27.7977 H   0  0  0  0  0  0  0  0  0  0  0  0
   -2.3847   25.7367  -27.8291 H   0  0  0  0  0  0  0  0  0  0  0  0
   -0.9270   24.2280  -28.3230 C   0  0  0  0  0  0  0  0  0  0  0  0
   -0.4829   24.4467  -27.3407 H   0  0  0  0  0  0  0  0  0  0  0  0
   -0.4017   24.7301  -29.1488 H   0  0  0  0  0  0  0  0  0  0  0  0
   -0.8100   22.6990  -28.5820 C   0  0  0  0  0  0  0  0  0  0  0  0
   -0.6839   22.2111  -27.6042 H   0  0  0  0  0  0  0  0  0  0  0  0
    0.0363   22.6041  -29.2783 H   0  0  0  0  0  0  0  0  0  0  0  0
   -1.9470   22.0090  -29.2810 N   0  0  0  0  0  0  0  0  0  0  0  0
   -2.4200   22.7670  -29.8300 H   0  0  0  0  0  0  0  0  0  0  0  0
   -3.0070   21.5510  -28.3390 C   0  0  0  0  0  0  0  0  0  0  0  0
   -3.9303   21.3908  -28.9151 H   0  0  0  0  0  0  0  0  0  0  0  0
   -3.1016   22.3367  -27.5750 H   0  0  0  0  0  0  0  0  0  0  0  0
   -2.6850   20.2570  -27.5870 C   0  0  0  0  0  0  0  0  0  0  0  0
   -2.7309   20.4414  -26.5035 H   0  0  0  0  0  0  0  0  0  0  0  0
   -3.4179   19.4830  -27.8586 H   0  0  0  0  0  0  0  0  0  0  0  0
   -1.6748   19.9168  -27.8586 H   0  0  0  0  0  0  0  0  0  0  0  0
   -1.5520   21.0030  -30.3030 C   0  0  0  0  0  0  0  0  0  0  0  0
   -1.0623   20.1608  -29.7922 H   0  0  0  0  0  0  0  0  0  0  0  0
   -2.4689   20.6951  -30.8270 H   0  0  0  0  0  0  0  0  0  0  0  0
   -0.5890   21.5560  -31.3620 C   0  0  0  0  0  0  0  0  0  0  0  0
    0.2618   22.0446  -30.8645 H   0  0  0  0  0  0  0  0  0  0  0  0
   -0.2220   20.7311  -31.9903 H   0  0  0  0  0  0  0  0  0  0  0  0
   -1.1165   22.2888  -31.9903 H   0  0  0  0  0  0  0  0  0  0  0  0
   -5.1930   24.5060  -30.0060 C   0  0  0  0  0  0  0  0  0  0  0  0
   -5.4750   25.2793  -29.2763 H   0  0  0  0  0  0  0  0  0  0  0  0
   -6.1920   23.7610  -30.6600 C   0  0  0  0  0  0  0  0  0  0  0  0
   -7.2593   23.9330  -30.4569 H   0  0  0  0  0  0  0  0  0  0  0  0
   -5.7750   22.7980  -31.5740 C   0  0  0  0  0  0  0  0  0  0  0  0
  1  2  1  0
  2  3  1  0
  3  4  1  0
  3  5  1  0
  3  6  1  0
  6  7  1  0
  6  8  1  0
  6  9  1  0
  9 10  1  0
  9 11  1  0
 11 12  1  0
 11 13  1  0
 11 14  1  0
 14 15  1  0
 14 16  1  0
 14 17  1  0
 17 18  1  0
 18 19  1  0
 19 20  2  0
 20 21  1  0
 21 22  1  0
 21 23  1  0
 21 24  1  0
 24 25  1  0
 24 26  1  0
 24 27  1  0
 27 28  1  0
 27 29  1  0
 27 30  1  0
 30 31  1  0
 31 32  1  0
 31 33  1  0
 31 34  1  0
 30 35  1  0
 35 36  1  0
 35 37  1  0
 35 38  1  0
 19 39  1  0
 39 40  1  0
 40 41  1  0
 41 42  2  0
 42 43  1  0
 43 44  1  0
 43 45  1  0
 43 46  1  0
 46 47  1  0
 46 48  1  0
 46 49  1  0
 49 50  1  0
 49 51  1  0
 49 52  1  0
 52 53  1  0
 52 54  1  0
 54 55  1  0
 54 56  1  0
 54 57  1  0
 57 58  1  0
 57 59  1  0
 57 60  1  0
 52 61  1  0
 61 62  1  0
 61 63  1  0
 61 64  1  0
 64 65  1  0
 64 66  1  0
 64 67  1  0
 41 68  1  0
 68 69  1  0
 68 70  2  0
 70 71  1  0
 70 72  1  0
 72 17  1  0
 72 39  2  0
M  CHG  3  18  -1  40  -1  52   1
M  END
>  <UniqueID>  (13) 
12

>  <SMILES>  (13) 
CC[NH+](CC)CCC/N=c1\ccc2c([n-]1)/c(=N/CCCN(C)C)[n-]n2CCNCCO

>  <Energy>  (13) 
114.64178941574885

>  <Genealogy>  (13) 
CC[NH+](CC)CCCN=c1ccc2c([n-]1)c(=NCCCN(C)C)[n-]n2CCNCCO (protonated)
CC[NH+](CC)CCC/N=c1\ccc2c([n-]1)/c(=N/CCCN(C)C)[n-]n2CCNCCO (cis-trans isomerization)
CC[NH+](CC)CCC/N=c1\ccc2c([n-]1)/c(=N/CCCN(C)C)[n-]n2CCNCCO (3D coordinates assigned)
CC[NH+](CC)CCC/N=c1\ccc2c([n-]1)/c(=N/CCCN(C)C)[n-]n2CCNCCO (optimized conformer: 114.64178941574885 kcal/mol)

>  <smiles>  (13) 
CCN(CC)CCCN=c1ccc2c([nH]1)c(=NCCCN(C)C)[nH]n2CCNCCO

>  <score_type>  (13) 
oracle

>  <origin>  (13) 
adg

>  <m_score__min__energy>  (13) 
-8.6300000000000008

>  <m_primary>  (13) 
energy

$$$$
13:0
     RDKit          3D

 43 46  0  0  0  0  0  0  0  0999 V2000
   -5.5480   14.3910  -33.8590 C   0  0  0  0  0  0  0  0  0  0  0  0
   -7.1300   15.2160  -34.2190 S   0  0  0  0  0  0  0  0  0  0  0  0
   -6.5170   16.8440  -33.7840 C   0  0  0  0  0  0  0  0  0  0  0  0
   -6.6970   17.3380  -32.4860 C   0  0  0  0  0  0  0  0  0  0  0  0
   -6.2170   18.6050  -32.1460 C   0  0  0  0  0  0  0  0  0  0  0  0
   -5.5490   19.3870  -33.1010 C   0  0  0  0  0  0  0  0  0  0  0  0
   -5.0390   20.6830  -32.7450 N   0  0  0  0  0  0  0  0  0  0  0  0
   -3.7360   21.0620  -32.6820 C   0  0  0  0  0  0  0  0  0  0  0  0
   -2.5830   20.2450  -33.1270 C   0  0  0  0  0  0  0  0  0  0  0  0
   -1.6030   20.8040  -33.9660 C   0  0  0  0  0  0  0  0  0  0  0  0
   -0.5140   20.0370  -34.3910 C   0  0  0  0  0  0  0  0  0  0  0  0
   -0.3980   18.7050  -33.9890 C   0  0  0  0  0  0  0  0  0  0  0  0
   -1.3730   18.1350  -33.1680 C   0  0  0  0  0  0  0  0  0  0  0  0
   -2.4650   18.8980  -32.7420 C   0  0  0  0  0  0  0  0  0  0  0  0
   -3.6300   22.3330  -32.1290 C   0  0  0  0  0  0  0  0  0  0  0  0
   -4.9230   22.7230  -31.8520 C   0  0  0  0  0  0  0  0  0  0  0  0
   -5.7600   21.7120  -32.2490 C   0  0  0  0  0  0  0  0  0  0  0  0
   -7.2320   21.7190  -31.9290 C   0  0  0  0  0  0  0  0  0  0  0  0
   -7.7400   23.1700  -31.7840 C   0  0  0  0  0  0  0  0  0  0  0  0
   -6.8700   24.0110  -30.8230 C   0  0  0  0  0  0  0  0  0  0  0  0
   -5.4090   23.9310  -31.1830 C   0  0  0  0  0  0  0  0  0  0  0  0
   -4.6140   24.8530  -30.8560 O   0  0  0  0  0  0  0  0  0  0  0  0
   -5.3640   18.8850  -34.3970 C   0  0  0  0  0  0  0  0  0  0  0  0
   -5.8450   17.6180  -34.7370 C   0  0  0  0  0  0  0  0  0  0  0  0
   -5.4112   14.3197  -32.7699 H   0  0  0  0  0  0  0  0  0  0  0  0
   -5.5537   13.3810  -34.2948 H   0  0  0  0  0  0  0  0  0  0  0  0
   -4.7231   14.9737  -34.2948 H   0  0  0  0  0  0  0  0  0  0  0  0
   -7.2171   16.7275  -31.7332 H   0  0  0  0  0  0  0  0  0  0  0  0
   -6.3631   18.9911  -31.1264 H   0  0  0  0  0  0  0  0  0  0  0  0
   -1.6936   21.8513  -34.2900 H   0  0  0  0  0  0  0  0  0  0  0  0
    0.2518   20.4833  -35.0425 H   0  0  0  0  0  0  0  0  0  0  0  0
    0.4622   18.1042  -34.3193 H   0  0  0  0  0  0  0  0  0  0  0  0
   -1.2821   17.0842  -32.8558 H   0  0  0  0  0  0  0  0  0  0  0  0
   -3.2352   18.4420  -32.1026 H   0  0  0  0  0  0  0  0  0  0  0  0
   -2.7086   22.9067  -31.9501 H   0  0  0  0  0  0  0  0  0  0  0  0
   -7.7825   21.2208  -32.7406 H   0  0  0  0  0  0  0  0  0  0  0  0
   -7.3955   21.1854  -30.9811 H   0  0  0  0  0  0  0  0  0  0  0  0
   -7.7318   23.6469  -32.7752 H   0  0  0  0  0  0  0  0  0  0  0  0
   -8.7553   23.1270  -31.3629 H   0  0  0  0  0  0  0  0  0  0  0  0
   -7.1935   25.0611  -30.8753 H   0  0  0  0  0  0  0  0  0  0  0  0
   -6.9960   23.6110  -29.8061 H   0  0  0  0  0  0  0  0  0  0  0  0
   -4.8380   19.4912  -35.1492 H   0  0  0  0  0  0  0  0  0  0  0  0
   -5.6954   17.2284  -35.7548 H   0  0  0  0  0  0  0  0  0  0  0  0
  1  2  1  0
  2  3  1  0
  3  4  2  0
  4  5  1  0
  5  6  2  0
  6  7  1  0
  7  8  1  0
  8  9  1  0
  9 10  2  0
 10 11  1  0
 11 12  2  0
 12 13  1  0
 13 14  2  0
  8 15  2  0
 15 16  1  0
 16 17  2  0
 17 18  1  0
 18 19  1  0
 19 20  1  0
 20 21  1  0
 21 22  2  0
  6 23  1  0
 23 24  2  0
 24  3  1  0
 17  7  1  0
 14  9  1  0
 21 16  1  0
  1 25  1  0
  1 26  1  0
  1 27  1  0
  4 28  1  0
  5 29  1  0
 10 30  1  0
 11 31  1  0
 12 32  1  0
 13 33  1  0
 14 34  1  0
 15 35  1  0
 18 36  1  0
 18 37  1  0
 19 38  1  0
 19 39  1  0
 20 40  1  0
 20 41  1  0
 23 42  1  0
 24 43  1  0
M  END
>  <UniqueID>  (14) 
13

>  <SMILES>  (14) 
CSc1ccc(-n2c(-c3ccccc3)cc3c2CCCC3=O)cc1

>  <Energy>  (14) 
79.85861378414246

>  <Genealogy>  (14) 
CSc1ccc(-n2c(-c3ccccc3)cc3c2CCCC3=O)cc1 (3D coordinates assigned)
CSc1ccc(-n2c(-c3ccccc3)cc3c2CCCC3=O)cc1 (nonaromatic ring conformer: 79.85861378414246 kcal/mol)

>  <smiles>  (14) 
CSc1ccc(-n2c(-c3ccccc3)cc3c2CCCC3=O)cc1

>  <score_type>  (14) 
oracle

>  <origin>  (14) 
adg

>  <m_score__min__energy>  (14) 
-9

>  <m_primary>  (14) 
energy

$$$$
14:0
     RDKit          3D

 54 56  0  0  0  0  0  0  0  0999 V2000
   -3.1320   19.2900  -26.6010 C   0  0  0  0  0  0  0  0  0  0  0  0
   -1.7430   19.1530  -27.2350 C   0  0  0  0  0  0  0  0  0  0  0  0
   -1.2630   20.4310  -27.8100 N   0  0  0  0  0  0  0  0  0  0  0  0
   -1.5060   20.4800  -29.2750 C   0  0  0  0  0  0  0  0  0  0  0  0
   -2.7760   21.2710  -29.6260 C   0  0  0  0  0  0  0  0  0  0  0  0
   -2.6800   22.6860  -29.1890 N   0  0  0  0  0  0  0  0  0  0  0  0
   -4.0180   23.2940  -29.0130 C   0  0  0  0  0  0  0  0  0  0  0  0
   -4.6280   23.6980  -30.3310 C   0  0  0  0  0  0  0  0  0  0  0  0
   -4.2370   24.7820  -30.8550 O   0  0  0  0  0  0  0  0  0  0  0  0
   -5.6880   22.9200  -31.0260 C   0  0  0  0  0  0  0  0  0  0  0  0
   -7.0200   22.9570  -30.6440 C   0  0  0  0  0  0  0  0  0  0  0  0
   -7.6960   22.0770  -31.4620 C   0  0  0  0  0  0  0  0  0  0  0  0
   -9.1590   21.7600  -31.3430 C   0  0  0  0  0  0  0  0  0  0  0  0
   -6.8420   21.4930  -32.3340 N   0  0  0  0  0  0  0  0  0  0  0  0
   -7.2070   20.4670  -33.3190 C   0  0  0  0  0  0  0  0  0  0  0  0
   -6.6750   19.1110  -32.9200 C   0  0  0  0  0  0  0  0  0  0  0  0
   -6.8230   18.6580  -31.5990 C   0  0  0  0  0  0  0  0  0  0  0  0
   -6.2860   17.4240  -31.2110 C   0  0  0  0  0  0  0  0  0  0  0  0
   -5.5900   16.6380  -32.1380 C   0  0  0  0  0  0  0  0  0  0  0  0
   -5.4410   17.0750  -33.4530 C   0  0  0  0  0  0  0  0  0  0  0  0
   -5.9770   18.3080  -33.8450 C   0  0  0  0  0  0  0  0  0  0  0  0
   -5.6110   22.0220  -32.0990 C   0  0  0  0  0  0  0  0  0  0  0  0
   -4.3730   21.6680  -32.8840 C   0  0  0  0  0  0  0  0  0  0  0  0
   -1.8410   22.8650  -27.9750 C   0  0  0  0  0  0  0  0  0  0  0  0
   -1.8290   21.6060  -27.0920 C   0  0  0  0  0  0  0  0  0  0  0  0
   -3.0374   19.2807  -25.5051 H   0  0  0  0  0  0  0  0  0  0  0  0
   -3.5895   20.2376  -26.9215 H   0  0  0  0  0  0  0  0  0  0  0  0
   -3.7658   18.4500  -26.9215 H   0  0  0  0  0  0  0  0  0  0  0  0
   -1.0322   18.8224  -26.4633 H   0  0  0  0  0  0  0  0  0  0  0  0
   -1.8151   18.4204  -28.0524 H   0  0  0  0  0  0  0  0  0  0  0  0
   -0.6439   20.9598  -29.7613 H   0  0  0  0  0  0  0  0  0  0  0  0
   -1.6419   19.4477  -29.6298 H   0  0  0  0  0  0  0  0  0  0  0  0
   -2.9231   21.2437  -30.7158 H   0  0  0  0  0  0  0  0  0  0  0  0
   -3.6246   20.8072  -29.1018 H   0  0  0  0  0  0  0  0  0  0  0  0
   -4.6792   22.5636  -28.5238 H   0  0  0  0  0  0  0  0  0  0  0  0
   -3.9038   24.1988  -28.3979 H   0  0  0  0  0  0  0  0  0  0  0  0
   -7.4546   23.5712  -29.8415 H   0  0  0  0  0  0  0  0  0  0  0  0
   -9.4359   21.7000  -30.2801 H   0  0  0  0  0  0  0  0  0  0  0  0
   -9.7466   22.5517  -31.8309 H   0  0  0  0  0  0  0  0  0  0  0  0
   -9.3662   20.7961  -31.8309 H   0  0  0  0  0  0  0  0  0  0  0  0
   -8.3033   20.4146  -33.3926 H   0  0  0  0  0  0  0  0  0  0  0  0
   -6.7652   20.7425  -34.2880 H   0  0  0  0  0  0  0  0  0  0  0  0
   -7.3630   19.2750  -30.8658 H   0  0  0  0  0  0  0  0  0  0  0  0
   -6.4111   17.0716  -30.1765 H   0  0  0  0  0  0  0  0  0  0  0  0
   -5.1602   15.6742  -31.8277 H   0  0  0  0  0  0  0  0  0  0  0  0
   -4.9028   16.4519  -34.1824 H   0  0  0  0  0  0  0  0  0  0  0  0
   -5.8525   18.6525  -34.8822 H   0  0  0  0  0  0  0  0  0  0  0  0
   -3.5529   21.4335  -32.1894 H   0  0  0  0  0  0  0  0  0  0  0  0
   -4.5784   20.7926  -33.5176 H   0  0  0  0  0  0  0  0  0  0  0  0
   -4.0846   22.5197  -33.5176 H   0  0  0  0  0  0  0  0  0  0  0  0
   -0.8102   23.0906  -28.2858 H   0  0  0  0  0  0  0  0  0  0  0  0
   -2.2683   23.6894  -27.3853 H   0  0  0  0  0  0  0  0  0  0  0  0
   -1.2195   21.8042  -26.1980 H   0  0  0  0  0  0  0  0  0  0  0  0
   -2.8682   21.3709  -26.8186 H   0  0  0  0  0  0  0  0  0  0  0  0
  1  2  1  0
  2  3  1  0
  3  4  1  0
  4  5  1  0
  5  6  1  0
  6  7  1  0
  7  8  1  0
  8  9  2  0
  8 10  1  0
 10 11  1  0
 11 12  2  0
 12 13  1  0
 12 14  1  0
 14 15  1  0
 15 16  1  0
 16 17  2  0
 17 18  1  0
 18 19  2  0
 19 20  1  0
 20 21  2  0
 14 22  1  0
 22 23  1  0
  6 24  1  0
 24 25  1  0
 25  3  1  0
 22 10  2  0
 21 16  1  0
  1 26  1  0
  1 27  1  0
  1 28  1  0
  2 29  1  0
  2 30  1  0
  4 31  1  0
  4 32  1  0
  5 33  1  0
  5 34  1  0
  7 35  1  0
  7 36  1  0
 11 37  1  0
 13 38  1  0
 13 39  1  0
 13 40  1  0
 15 41  1  0
 15 42  1  0
 17 43  1  0
 18 44  1  0
 19 45  1  0
 20 46  1  0
 21 47  1  0
 23 48  1  0
 23 49  1  0
 23 50  1  0
 24 51  1  0
 24 52  1  0
 25 53  1  0
 25 54  1  0
M  END
>  <UniqueID>  (15) 
14

>  <SMILES>  (15) 
CCN1CCN(CC(=O)c2cc(C)n(Cc3ccccc3)c2C)CC1

>  <Energy>  (15) 
94.0233174709656

>  <Genealogy>  (15) 
CCN1CCN(CC(=O)c2cc(C)n(Cc3ccccc3)c2C)CC1 (3D coordinates assigned)
CCN1CCN(CC(=O)c2cc(C)n(Cc3ccccc3)c2C)CC1 (nonaromatic ring conformer: 94.0233174709656 kcal/mol)

>  <smiles>  (15) 
CCN1CCN(CC(=O)c2cc(C)n(Cc3ccccc3)c2C)CC1

>  <score_type>  (15) 
oracle

>  <origin>  (15) 
adg

>  <m_score__min__energy>  (15) 
-9.0199999999999996

>  <m_primary>  (15) 
energy

$$$$
15:0
     RDKit          3D

 57 59  0  0  0  0  0  0  0  0999 V2000
   -2.0290   17.7360  -34.2070 C   0  0  0  0  0  0  0  0  0  0  0  0
   -3.1260   17.1290  -34.8860 O   0  0  0  0  0  0  0  0  0  0  0  0
   -3.5050   15.7870  -34.7310 C   0  0  0  0  0  0  0  0  0  0  0  0
   -3.1520   14.8080  -35.6840 C   0  0  0  0  0  0  0  0  0  0  0  0
   -3.5340   13.4780  -35.5110 C   0  0  0  0  0  0  0  0  0  0  0  0
   -4.2690   13.1020  -34.3890 C   0  0  0  0  0  0  0  0  0  0  0  0
   -4.6290   14.0570  -33.4380 C   0  0  0  0  0  0  0  0  0  0  0  0
   -4.2580   15.4060  -33.5970 C   0  0  0  0  0  0  0  0  0  0  0  0
   -4.6880   16.4140  -32.5470 C   0  0  0  0  0  0  0  0  0  0  0  0
   -6.1480   16.6730  -32.5430 N   0  0  0  0  0  0  0  0  0  0  0  0
   -6.5850   17.1030  -33.9030 C   0  0  0  0  0  0  0  0  0  0  0  0
   -5.7200   18.1950  -34.5900 C   0  0  0  0  0  0  0  0  0  0  0  0
   -5.9520   19.6460  -34.1310 C   0  0  0  0  0  0  0  0  0  0  0  0
   -6.5080   19.7390  -32.7770 N   0  0  0  0  0  0  0  0  0  0  0  0
   -7.3180   20.8850  -32.4410 C   0  0  0  0  0  0  0  0  0  0  0  0
   -8.7030   20.7070  -32.2760 C   0  0  0  0  0  0  0  0  0  0  0  0
   -9.5370   21.7950  -32.0270 C   0  0  0  0  0  0  0  0  0  0  0  0
   -9.0030   23.0790  -31.9530 C   0  0  0  0  0  0  0  0  0  0  0  0
   -7.6300   23.2790  -32.1090 C   0  0  0  0  0  0  0  0  0  0  0  0
   -6.7580   22.1870  -32.3240 C   0  0  0  0  0  0  0  0  0  0  0  0
   -5.2630   22.4060  -32.5110 C   0  0  0  0  0  0  0  0  0  0  0  0
   -4.6370   23.1510  -31.3950 N   0  0  0  0  0  0  0  0  0  0  0  0
   -5.3460   22.8820  -30.1290 C   0  0  0  0  0  0  0  0  0  0  0  0
   -3.2240   22.7660  -31.2530 C   0  0  0  0  0  0  0  0  0  0  0  0
   -5.8840   18.9690  -31.6870 C   0  0  0  0  0  0  0  0  0  0  0  0
   -6.5670   17.6090  -31.4760 C   0  0  0  0  0  0  0  0  0  0  0  0
   -2.1790   17.6530  -33.1204 H   0  0  0  0  0  0  0  0  0  0  0  0
   -1.0960   17.2258  -34.4884 H   0  0  0  0  0  0  0  0  0  0  0  0
   -1.9657   18.7975  -34.4884 H   0  0  0  0  0  0  0  0  0  0  0  0
   -2.5700   15.0967  -36.5717 H   0  0  0  0  0  0  0  0  0  0  0  0
   -3.2544   12.7244  -36.2619 H   0  0  0  0  0  0  0  0  0  0  0  0
   -4.5657   12.0515  -34.2528 H   0  0  0  0  0  0  0  0  0  0  0  0
   -5.2090   13.7529  -32.5542 H   0  0  0  0  0  0  0  0  0  0  0  0
   -4.3990   16.0312  -31.5571 H   0  0  0  0  0  0  0  0  0  0  0  0
   -4.1899   17.3651  -32.7864 H   0  0  0  0  0  0  0  0  0  0  0  0
   -6.5819   16.2152  -34.5524 H   0  0  0  0  0  0  0  0  0  0  0  0
   -7.5761   17.5591  -33.7623 H   0  0  0  0  0  0  0  0  0  0  0  0
   -4.6638   17.9506  -34.4038 H   0  0  0  0  0  0  0  0  0  0  0  0
   -6.0142   18.1748  -35.6497 H   0  0  0  0  0  0  0  0  0  0  0  0
   -4.9893   20.1779  -34.1515 H   0  0  0  0  0  0  0  0  0  0  0  0
   -6.6848   20.0943  -34.8181 H   0  0  0  0  0  0  0  0  0  0  0  0
   -9.1331   19.6969  -32.3443 H   0  0  0  0  0  0  0  0  0  0  0  0
  -10.6172   21.6397  -31.8889 H   0  0  0  0  0  0  0  0  0  0  0  0
   -9.6650   23.9384  -31.7711 H   0  0  0  0  0  0  0  0  0  0  0  0
   -7.2214   24.2993  -32.0641 H   0  0  0  0  0  0  0  0  0  0  0  0
   -4.7738   21.4242  -32.5935 H   0  0  0  0  0  0  0  0  0  0  0  0
   -5.1332   23.0110  -33.4205 H   0  0  0  0  0  0  0  0  0  0  0  0
   -4.6903   23.1308  -29.2815 H   0  0  0  0  0  0  0  0  0  0  0  0
   -6.2567   23.4971  -30.0809 H   0  0  0  0  0  0  0  0  0  0  0  0
   -5.6195   21.8176  -30.0809 H   0  0  0  0  0  0  0  0  0  0  0  0
   -2.9685   22.6964  -30.1854 H   0  0  0  0  0  0  0  0  0  0  0  0
   -3.0597   21.7903  -31.7337 H   0  0  0  0  0  0  0  0  0  0  0  0
   -2.5875   23.5235  -31.7337 H   0  0  0  0  0  0  0  0  0  0  0  0
   -4.8253   18.7999  -31.9331 H   0  0  0  0  0  0  0  0  0  0  0  0
   -5.9900   19.5491  -30.7585 H   0  0  0  0  0  0  0  0  0  0  0  0
   -6.2766   17.2014  -30.4965 H   0  0  0  0  0  0  0  0  0  0  0  0
   -7.6587   17.7387  -31.5114 H   0  0  0  0  0  0  0  0  0  0  0  0
  1  2  1  0
  2  3  1  0
  3  4  2  0
  4  5  1  0
  5  6  2  0
  6  7  1  0
  7  8  2  0
  8  9  1  0
  9 10  1  0
 10 11  1  0
 11 12  1  0
 12 13  1  0
 13 14  1  0
 14 15  1  0
 15 16  2  0
 16 17  1  0
 17 18  2  0
 18 19  1  0
 19 20  2  0
 20 21  1  0
 21 22  1  0
 22 23  1  0
 22 24  1  0
 14 25  1  0
 25 26  1  0
  8  3  1  0
 26 10  1  0
 20 15  1  0
  1 27  1  0
  1 28  1  0
  1 29  1  0
  4 30  1  0
  5 31  1  0
  6 32  1  0
  7 33  1  0
  9 34  1  0
  9 35  1  0
 11 36  1  0
 11 37  1  0
 12 38  1  0
 12 39  1  0
 13 40  1  0
 13 41  1  0
 16 42  1  0
 17 43  1  0
 18 44  1  0
 19 45  1  0
 21 46  1  0
 21 47  1  0
 23 48  1  0
 23 49  1  0
 23 50  1  0
 24 51  1  0
 24 52  1  0
 24 53  1  0
 25 54  1  0
 25 55  1  0
 26 56  1  0
 26 57  1  0
M  END
>  <UniqueID>  (16) 
15

>  <SMILES>  (16) 
COc1ccccc1CN1CCCN(c2ccccc2CN(C)C)CC1

>  <Energy>  (16) 
78.4099422172122

>  <Genealogy>  (16) 
COc1ccccc1CN1CCCN(c2ccccc2CN(C)C)CC1 (3D coordinates assigned)
COc1ccccc1CN1CCCN(c2ccccc2CN(C)C)CC1 (nonaromatic ring conformer: 78.4099422172122 kcal/mol)

>  <smiles>  (16) 
COc1ccccc1CN1CCCN(c2ccccc2CN(C)C)CC1

>  <score_type>  (16) 
oracle

>  <origin>  (16) 
adg

>  <m_score__min__energy>  (16) 
-7.4100000000000001

>  <m_primary>  (16) 
energy

$$$$
16:0
     RDKit          3D

 52 54  0  0  0  0  0  0  0  0999 V2000
   -2.9200   21.1670  -33.0900 C   0  0  0  0  0  0  0  0  0  0  0  0
   -4.2970   20.9300  -32.8200 O   0  0  0  0  0  0  0  0  0  0  0  0
   -5.1350   21.7970  -32.1030 C   0  0  0  0  0  0  0  0  0  0  0  0
   -4.6060   22.7030  -31.1610 C   0  0  0  0  0  0  0  0  0  0  0  0
   -5.4430   23.5480  -30.4220 C   0  0  0  0  0  0  0  0  0  0  0  0
   -4.8670   24.4640  -29.3660 C   0  0  0  0  0  0  0  0  0  0  0  0
   -4.5770   23.7900  -28.0790 N   0  0  0  0  0  0  0  0  0  0  0  0
   -3.8100   24.5680  -27.0880 C   0  0  0  0  0  0  0  0  0  0  0  0
   -2.2870   24.4630  -27.2840 C   0  0  0  0  0  0  0  0  0  0  0  0
   -1.9150   23.2610  -28.0420 N   0  0  0  0  0  0  0  0  0  0  0  0
   -0.6250   23.2140  -28.6960 C   0  0  0  0  0  0  0  0  0  0  0  0
   -0.1740   22.0190  -29.4830 C   0  0  0  0  0  0  0  0  0  0  0  0
    0.1570   24.2020  -28.6130 O   0  0  0  0  0  0  0  0  0  0  0  0
   -2.7420   22.0630  -27.8550 C   0  0  0  0  0  0  0  0  0  0  0  0
   -4.2230   22.3560  -28.1590 C   0  0  0  0  0  0  0  0  0  0  0  0
   -6.8160   23.5600  -30.7000 C   0  0  0  0  0  0  0  0  0  0  0  0
   -7.3540   22.6870  -31.6470 C   0  0  0  0  0  0  0  0  0  0  0  0
   -9.0880   22.7110  -31.9340 Cl  0  0  0  0  0  0  0  0  0  0  0  0
   -6.5330   21.7760  -32.3300 C   0  0  0  0  0  0  0  0  0  0  0  0
   -7.1640   20.8830  -33.2130 O   0  0  0  0  0  0  0  0  0  0  0  0
   -7.7290   19.6190  -32.8690 C   0  0  0  0  0  0  0  0  0  0  0  0
   -6.7110   18.5440  -33.1210 C   0  0  0  0  0  0  0  0  0  0  0  0
   -5.9940   18.5010  -34.3310 C   0  0  0  0  0  0  0  0  0  0  0  0
   -5.0540   17.4900  -34.5550 C   0  0  0  0  0  0  0  0  0  0  0  0
   -4.8280   16.5130  -33.5800 C   0  0  0  0  0  0  0  0  0  0  0  0
   -5.5420   16.5460  -32.3770 C   0  0  0  0  0  0  0  0  0  0  0  0
   -6.4800   17.5580  -32.1470 C   0  0  0  0  0  0  0  0  0  0  0  0
   -2.3713   21.2614  -32.1413 H   0  0  0  0  0  0  0  0  0  0  0  0
   -2.5098   20.3262  -33.6687 H   0  0  0  0  0  0  0  0  0  0  0  0
   -2.8145   22.0965  -33.6687 H   0  0  0  0  0  0  0  0  0  0  0  0
   -3.5181   22.7467  -31.0041 H   0  0  0  0  0  0  0  0  0  0  0  0
   -3.9297   24.8911  -29.7521 H   0  0  0  0  0  0  0  0  0  0  0  0
   -5.6278   25.2313  -29.1599 H   0  0  0  0  0  0  0  0  0  0  0  0
   -4.1015   25.6254  -27.1718 H   0  0  0  0  0  0  0  0  0  0  0  0
   -4.0419   24.1536  -26.0958 H   0  0  0  0  0  0  0  0  0  0  0  0
   -1.9365   25.3510  -27.8305 H   0  0  0  0  0  0  0  0  0  0  0  0
   -1.8186   24.3989  -26.2908 H   0  0  0  0  0  0  0  0  0  0  0  0
    0.1283   21.2180  -28.7924 H   0  0  0  0  0  0  0  0  0  0  0  0
   -1.0001   21.6643  -30.1168 H   0  0  0  0  0  0  0  0  0  0  0  0
    0.6805   22.2986  -30.1168 H   0  0  0  0  0  0  0  0  0  0  0  0
   -2.3864   21.2722  -28.5319 H   0  0  0  0  0  0  0  0  0  0  0  0
   -2.6584   21.7421  -26.8062 H   0  0  0  0  0  0  0  0  0  0  0  0
   -4.4452   22.0002  -29.1759 H   0  0  0  0  0  0  0  0  0  0  0  0
   -4.8161   21.8365  -27.3920 H   0  0  0  0  0  0  0  0  0  0  0  0
   -7.4748   24.2623  -30.1683 H   0  0  0  0  0  0  0  0  0  0  0  0
   -8.0110   19.6181  -31.8058 H   0  0  0  0  0  0  0  0  0  0  0  0
   -8.6247   19.4334  -33.4800 H   0  0  0  0  0  0  0  0  0  0  0  0
   -6.1733   19.2643  -35.1025 H   0  0  0  0  0  0  0  0  0  0  0  0
   -4.4913   17.4631  -35.4998 H   0  0  0  0  0  0  0  0  0  0  0  0
   -4.0887   15.7184  -33.7589 H   0  0  0  0  0  0  0  0  0  0  0  0
   -5.3656   15.7757  -31.6118 H   0  0  0  0  0  0  0  0  0  0  0  0
   -7.0389   17.5820  -31.1999 H   0  0  0  0  0  0  0  0  0  0  0  0
  1  2  1  0
  2  3  1  0
  3  4  2  0
  4  5  1  0
  5  6  1  0
  6  7  1  0
  7  8  1  0
  8  9  1  0
  9 10  1  0
 10 11  1  0
 11 12  1  0
 11 13  2  0
 10 14  1  0
 14 15  1  0
  5 16  2  0
 16 17  1  0
 17 18  1  0
 17 19  2  0
 19 20  1  0
 20 21  1  0
 21 22  1  0
 22 23  2  0
 23 24  1  0
 24 25  2  0
 25 26  1  0
 26 27  2  0
 19  3  1  0
 27 22  1  0
 15  7  1  0
  1 28  1  0
  1 29  1  0
  1 30  1  0
  4 31  1  0
  6 32  1  0
  6 33  1  0
  8 34  1  0
  8 35  1  0
  9 36  1  0
  9 37  1  0
 12 38  1  0
 12 39  1  0
 12 40  1  0
 14 41  1  0
 14 42  1  0
 15 43  1  0
 15 44  1  0
 16 45  1  0
 21 46  1  0
 21 47  1  0
 23 48  1  0
 24 49  1  0
 25 50  1  0
 26 51  1  0
 27 52  1  0
M  END
>  <UniqueID>  (17) 
16

>  <SMILES>  (17) 
COc1cc(CN2CCN(C(C)=O)CC2)cc(Cl)c1OCc1ccccc1

>  <Energy>  (17) 
64.79468642360281

>  <Genealogy>  (17) 
COc1cc(CN2CCN(C(C)=O)CC2)cc(Cl)c1OCc1ccccc1 (3D coordinates assigned)
COc1cc(CN2CCN(C(C)=O)CC2)cc(Cl)c1OCc1ccccc1 (nonaromatic ring conformer: 64.79468642360281 kcal/mol)

>  <smiles>  (17) 
COc1cc(CN2CCN(C(C)=O)CC2)cc(Cl)c1OCc1ccccc1

>  <score_type>  (17) 
oracle

>  <origin>  (17) 
adg

>  <m_score__min__energy>  (17) 
-8.5700000000000003

>  <m_primary>  (17) 
energy

$$$$
17:0
     RDKit          3D

 28 29  0  0  0  0  0  0  0  0999 V2000
   -3.0650   24.1660  -28.2220 C   0  0  0  0  0  0  0  0  0  0  0  0
   -2.8910   23.9340  -29.7180 C   0  0  0  0  0  0  0  0  0  0  0  0
   -3.5950   24.9240  -30.4640 O   0  0  0  0  0  0  0  0  0  0  0  0
   -4.9900   25.0120  -30.5000 C   0  0  0  0  0  0  0  0  0  0  0  0
   -5.5620   26.0810  -30.8470 O   0  0  0  0  0  0  0  0  0  0  0  0
   -5.8070   23.8290  -30.0930 C   0  0  0  0  0  0  0  0  0  0  0  0
   -5.9460   22.9120  -31.2230 N   0  0  0  0  0  0  0  0  0  0  0  0
   -5.0230   22.6610  -32.1860 C   0  0  0  0  0  0  0  0  0  0  0  0
   -5.4230   21.6930  -33.0440 N   0  0  0  0  0  0  0  0  0  0  0  0
   -6.6320   21.3200  -32.5890 C   0  0  0  0  0  0  0  0  0  0  0  0
   -7.4780   20.3340  -33.0910 C   0  0  0  0  0  0  0  0  0  0  0  0
   -8.6910   20.1100  -32.4140 C   0  0  0  0  0  0  0  0  0  0  0  0
   -9.0210   20.8650  -31.2640 C   0  0  0  0  0  0  0  0  0  0  0  0
   -8.1410   21.8520  -30.7810 C   0  0  0  0  0  0  0  0  0  0  0  0
   -6.9510   22.0540  -31.4810 C   0  0  0  0  0  0  0  0  0  0  0  0
   -2.4960   23.4073  -27.6647 H   0  0  0  0  0  0  0  0  0  0  0  0
   -2.6938   25.1680  -27.9607 H   0  0  0  0  0  0  0  0  0  0  0  0
   -4.1308   24.0902  -27.9607 H   0  0  0  0  0  0  0  0  0  0  0  0
   -1.8214   23.9843  -29.9697 H   0  0  0  0  0  0  0  0  0  0  0  0
   -3.2955   22.9433  -29.9729 H   0  0  0  0  0  0  0  0  0  0  0  0
   -5.3092   23.3102  -29.2605 H   0  0  0  0  0  0  0  0  0  0  0  0
   -6.8040   24.1677  -29.7748 H   0  0  0  0  0  0  0  0  0  0  0  0
   -4.0587   23.1850  -32.2609 H   0  0  0  0  0  0  0  0  0  0  0  0
   -4.9000   21.3090  -33.8630 H   0  0  0  0  0  0  0  0  0  0  0  0
   -7.2077   19.7516  -33.9842 H   0  0  0  0  0  0  0  0  0  0  0  0
   -9.3878   19.3423  -32.7816 H   0  0  0  0  0  0  0  0  0  0  0  0
   -9.9721   20.6795  -30.7434 H   0  0  0  0  0  0  0  0  0  0  0  0
   -8.3826   22.4422  -29.8848 H   0  0  0  0  0  0  0  0  0  0  0  0
  1  2  1  0
  2  3  1  0
  3  4  1  0
  4  5  2  0
  4  6  1  0
  6  7  1  0
  7  8  1  0
  8  9  2  0
  9 10  1  0
 10 11  2  0
 11 12  1  0
 12 13  2  0
 13 14  1  0
 14 15  2  0
 15  7  1  0
 15 10  1  0
  1 16  1  0
  1 17  1  0
  1 18  1  0
  2 19  1  0
  2 20  1  0
  6 21  1  0
  6 22  1  0
  8 23  1  0
  9 24  1  0
 11 25  1  0
 12 26  1  0
 13 27  1  0
 14 28  1  0
M  CHG  1   9   1
M  END
>  <UniqueID>  (18) 
17

>  <SMILES>  (18) 
CCOC(=O)Cn1c[nH+]c2ccccc21

>  <Energy>  (18) 
60.37457403092407

>  <Genealogy>  (18) 
CCOC(=O)Cn1c[nH+]c2ccccc21 (protonated)
CCOC(=O)Cn1c[nH+]c2ccccc21 (3D coordinates assigned)
CCOC(=O)Cn1c[nH+]c2ccccc21 (optimized conformer: 60.37457403092407 kcal/mol)

>  <smiles>  (18) 
CCOC(=O)Cn1cnc2ccccc21

>  <score_type>  (18) 
oracle

>  <origin>  (18) 
adg

>  <m_score__min__energy>  (18) 
-5.5499999999999998

>  <m_primary>  (18) 
energy

$$$$
18:0
     RDKit          3D

 36 38  0  0  0  0  0  0  0  0999 V2000
   -1.7460   24.8540  -27.9770 C   0  0  0  0  0  0  0  0  0  0  0  0
   -2.1230   24.8490  -29.3500 O   0  0  0  0  0  0  0  0  0  0  0  0
   -2.9390   23.8750  -29.9470 C   0  0  0  0  0  0  0  0  0  0  0  0
   -2.5880   22.5130  -29.9600 C   0  0  0  0  0  0  0  0  0  0  0  0
   -3.4240   21.5710  -30.5640 C   0  0  0  0  0  0  0  0  0  0  0  0
   -4.6320   21.9650  -31.1670 C   0  0  0  0  0  0  0  0  0  0  0  0
   -5.5410   20.9800  -31.8170 C   0  0  0  0  0  0  0  0  0  0  0  0
   -6.8630   21.2430  -32.1910 C   0  0  0  0  0  0  0  0  0  0  0  0
   -7.4950   19.8480  -32.8830 S   0  0  0  0  0  0  0  0  0  0  0  0
   -6.0790   18.9600  -32.6880 C   0  0  0  0  0  0  0  0  0  0  0  0
   -5.8750   17.5500  -33.0920 C   0  0  0  0  0  0  0  0  0  0  0  0
   -6.8630   16.8520  -33.8110 C   0  0  0  0  0  0  0  0  0  0  0  0
   -6.6570   15.5210  -34.1880 C   0  0  0  0  0  0  0  0  0  0  0  0
   -5.4660   14.8720  -33.8510 C   0  0  0  0  0  0  0  0  0  0  0  0
   -5.1880   13.0540  -34.3650 Br  0  0  0  0  0  0  0  0  0  0  0  0
   -4.4780   15.5560  -33.1370 C   0  0  0  0  0  0  0  0  0  0  0  0
   -4.6800   16.8860  -32.7590 C   0  0  0  0  0  0  0  0  0  0  0  0
   -5.1240   19.7130  -32.0990 N   0  0  0  0  0  0  0  0  0  0  0  0
   -4.9780   23.3300  -31.1520 C   0  0  0  0  0  0  0  0  0  0  0  0
   -4.1390   24.2840  -30.5450 C   0  0  0  0  0  0  0  0  0  0  0  0
   -4.4620   25.6510  -30.5160 O   0  0  0  0  0  0  0  0  0  0  0  0
   -5.7330   26.1730  -30.1420 C   0  0  0  0  0  0  0  0  0  0  0  0
   -2.6489   24.8420  -27.3488 H   0  0  0  0  0  0  0  0  0  0  0  0
   -1.1370   23.9639  -27.7607 H   0  0  0  0  0  0  0  0  0  0  0  0
   -1.1608   25.7600  -27.7607 H   0  0  0  0  0  0  0  0  0  0  0  0
   -1.6479   22.1872  -29.4909 H   0  0  0  0  0  0  0  0  0  0  0  0
   -3.1345   20.5098  -30.5681 H   0  0  0  0  0  0  0  0  0  0  0  0
   -7.3956   22.1959  -32.0558 H   0  0  0  0  0  0  0  0  0  0  0  0
   -7.8033   17.3564  -34.0782 H   0  0  0  0  0  0  0  0  0  0  0  0
   -7.4343   14.9837  -34.7511 H   0  0  0  0  0  0  0  0  0  0  0  0
   -3.5398   15.0464  -32.8722 H   0  0  0  0  0  0  0  0  0  0  0  0
   -3.8986   17.4181  -32.1966 H   0  0  0  0  0  0  0  0  0  0  0  0
   -5.9179   23.6558  -31.6216 H   0  0  0  0  0  0  0  0  0  0  0  0
   -5.8083   26.2039  -29.0450 H   0  0  0  0  0  0  0  0  0  0  0  0
   -5.8450   27.1900  -30.5460 H   0  0  0  0  0  0  0  0  0  0  0  0
   -6.5275   25.5283  -30.5460 H   0  0  0  0  0  0  0  0  0  0  0  0
  1  2  1  0
  2  3  1  0
  3  4  2  0
  4  5  1  0
  5  6  2  0
  6  7  1  0
  7  8  2  0
  8  9  1  0
  9 10  1  0
 10 11  1  0
 11 12  2  0
 12 13  1  0
 13 14  2  0
 14 15  1  0
 14 16  1  0
 16 17  2  0
 10 18  2  0
  6 19  1  0
 19 20  2  0
 20 21  1  0
 21 22  1  0
 20  3  1  0
 18  7  1  0
 17 11  1  0
  1 23  1  0
  1 24  1  0
  1 25  1  0
  4 26  1  0
  5 27  1  0
  8 28  1  0
 12 29  1  0
 13 30  1  0
 16 31  1  0
 17 32  1  0
 19 33  1  0
 22 34  1  0
 22 35  1  0
 22 36  1  0
M  END
>  <UniqueID>  (19) 
18

>  <SMILES>  (19) 
COc1ccc(-c2csc(-c3ccc(Br)cc3)n2)cc1OC

>  <Energy>  (19) 
70.27579561062748

>  <Genealogy>  (19) 
COc1ccc(-c2csc(-c3ccc(Br)cc3)n2)cc1OC (3D coordinates assigned)
COc1ccc(-c2csc(-c3ccc(Br)cc3)n2)cc1OC (optimized conformer: 70.27579561062748 kcal/mol)

>  <smiles>  (19) 
COc1ccc(-c2csc(-c3ccc(Br)cc3)n2)cc1OC

>  <score_type>  (19) 
oracle

>  <origin>  (19) 
adg

>  <m_score__min__energy>  (19) 
-7.7599999999999998

>  <m_primary>  (19) 
energy

$$$$
19:0
     RDKit          3D

 55 58  0  0  0  0  0  0  0  0999 V2000
   -3.2390   18.6850  -34.9330 O   0  0  0  0  0  0  0  0  0  0  0  0
   -3.9250   18.8730  -33.8940 C   0  0  0  0  0  0  0  0  0  0  0  0
   -5.1980   18.0740  -33.6630 C   0  0  1  0  0  0  0  0  0  0  0  0
   -5.1580   17.4190  -32.2550 C   0  0  0  0  0  0  0  0  0  0  0  0
   -6.5620   17.2920  -31.6450 C   0  0  0  0  0  0  0  0  0  0  0  0
   -7.2520   18.6730  -31.5410 C   0  0  0  0  0  0  0  0  0  0  0  0
   -6.7810   19.6270  -32.5760 N   0  0  0  0  0  0  0  0  0  0  0  0
   -7.7640   20.7080  -32.7690 C   0  0  0  0  0  0  0  0  0  0  0  0
   -7.3690   21.9270  -31.9760 C   0  0  0  0  0  0  0  0  0  0  0  0
   -6.8740   23.0720  -32.6250 C   0  0  0  0  0  0  0  0  0  0  0  0
   -6.4890   24.1920  -31.8770 C   0  0  0  0  0  0  0  0  0  0  0  0
   -6.5990   24.1780  -30.4780 C   0  0  0  0  0  0  0  0  0  0  0  0
   -6.1120   25.5820  -29.5390 Cl  0  0  0  0  0  0  0  0  0  0  0  0
   -7.0930   23.0420  -29.8270 C   0  0  0  0  0  0  0  0  0  0  0  0
   -7.4760   21.9210  -30.5720 C   0  0  0  0  0  0  0  0  0  0  0  0
   -6.4770   18.9320  -33.8430 C   0  0  0  0  0  0  0  0  0  0  0  0
   -3.4950   19.8680  -32.9420 N   0  0  0  0  0  0  0  0  0  0  0  0
   -3.9580   21.2480  -33.0970 C   0  0  0  0  0  0  0  0  0  0  0  0
   -4.2920   21.8260  -31.7270 C   0  0  0  0  0  0  0  0  0  0  0  0
   -3.1490   21.7040  -30.8210 N   0  0  0  0  0  0  0  0  0  0  0  0
   -3.0150   22.6400  -29.7260 C   0  0  0  0  0  0  0  0  0  0  0  0
   -1.9530   23.5610  -29.7010 C   0  0  0  0  0  0  0  0  0  0  0  0
   -1.8280   24.4650  -28.6430 C   0  0  0  0  0  0  0  0  0  0  0  0
   -2.7630   24.4600  -27.6030 C   0  0  0  0  0  0  0  0  0  0  0  0
   -3.8150   23.5470  -27.6120 C   0  0  0  0  0  0  0  0  0  0  0  0
   -3.9400   22.6360  -28.6650 C   0  0  0  0  0  0  0  0  0  0  0  0
   -2.3090   20.5310  -30.8770 C   0  0  0  0  0  0  0  0  0  0  0  0
   -1.5090   20.2720  -29.9360 O   0  0  0  0  0  0  0  0  0  0  0  0
   -2.3530   19.5960  -32.0580 C   0  0  0  0  0  0  0  0  0  0  0  0
   -5.2437   17.2857  -34.4288 H   0  0  0  0  0  0  0  0  0  0  0  0
   -4.7152   16.4158  -32.3414 H   0  0  0  0  0  0  0  0  0  0  0  0
   -4.5556   18.0615  -31.5959 H   0  0  0  0  0  0  0  0  0  0  0  0
   -7.1715   16.6330  -32.2808 H   0  0  0  0  0  0  0  0  0  0  0  0
   -6.4661   16.8726  -30.6326 H   0  0  0  0  0  0  0  0  0  0  0  0
   -8.3369   18.5342  -31.6577 H   0  0  0  0  0  0  0  0  0  0  0  0
   -7.0001   19.0975  -30.5580 H   0  0  0  0  0  0  0  0  0  0  0  0
   -7.8098   20.9695  -33.8365 H   0  0  0  0  0  0  0  0  0  0  0  0
   -8.7482   20.3606  -32.4216 H   0  0  0  0  0  0  0  0  0  0  0  0
   -6.7890   23.0882  -33.7216 H   0  0  0  0  0  0  0  0  0  0  0  0
   -6.0993   25.0850  -32.3876 H   0  0  0  0  0  0  0  0  0  0  0  0
   -7.1802   23.0302  -28.7305 H   0  0  0  0  0  0  0  0  0  0  0  0
   -7.8632   21.0292  -30.0574 H   0  0  0  0  0  0  0  0  0  0  0  0
   -7.3205   18.2812  -34.1166 H   0  0  0  0  0  0  0  0  0  0  0  0
   -6.3146   19.6728  -34.6398 H   0  0  0  0  0  0  0  0  0  0  0  0
   -3.1663   21.8503  -33.5665 H   0  0  0  0  0  0  0  0  0  0  0  0
   -4.8558   21.2655  -33.7323 H   0  0  0  0  0  0  0  0  0  0  0  0
   -4.5533   22.8888  -31.8375 H   0  0  0  0  0  0  0  0  0  0  0  0
   -5.1394   21.2664  -31.3043 H   0  0  0  0  0  0  0  0  0  0  0  0
   -1.2169   23.5699  -30.5184 H   0  0  0  0  0  0  0  0  0  0  0  0
   -0.9934   25.1813  -28.6280 H   0  0  0  0  0  0  0  0  0  0  0  0
   -2.6674   25.1788  -26.7759 H   0  0  0  0  0  0  0  0  0  0  0  0
   -4.5470   23.5428  -26.7910 H   0  0  0  0  0  0  0  0  0  0  0  0
   -4.7671   21.9109  -28.6644 H   0  0  0  0  0  0  0  0  0  0  0  0
   -1.4236   19.7109  -32.6351 H   0  0  0  0  0  0  0  0  0  0  0  0
   -2.4622   18.5716  -31.6725 H   0  0  0  0  0  0  0  0  0  0  0  0
  1  2  2  0
  2  3  1  0
  3  4  1  0
  4  5  1  0
  5  6  1  0
  6  7  1  0
  7  8  1  0
  8  9  1  0
  9 10  2  0
 10 11  1  0
 11 12  2  0
 12 13  1  0
 12 14  1  0
 14 15  2  0
  7 16  1  0
  2 17  1  0
 17 18  1  0
 18 19  1  0
 19 20  1  0
 20 21  1  0
 21 22  2  0
 22 23  1  0
 23 24  2  0
 24 25  1  0
 25 26  2  0
 20 27  1  0
 27 28  2  0
 27 29  1  0
 16  3  1  0
 29 17  1  0
 15  9  1  0
 26 21  1  0
  3 30  1  6
  4 31  1  0
  4 32  1  0
  5 33  1  0
  5 34  1  0
  6 35  1  0
  6 36  1  0
  8 37  1  0
  8 38  1  0
 10 39  1  0
 11 40  1  0
 14 41  1  0
 15 42  1  0
 16 43  1  0
 16 44  1  0
 18 45  1  0
 18 46  1  0
 19 47  1  0
 19 48  1  0
 22 49  1  0
 23 50  1  0
 24 51  1  0
 25 52  1  0
 26 53  1  0
 29 54  1  0
 29 55  1  0
M  END
>  <UniqueID>  (20) 
19

>  <SMILES>  (20) 
O=C([C@H]1CCCN(Cc2ccc(Cl)cc2)C1)N1CCN(c2ccccc2)C(=O)C1

>  <Energy>  (20) 
72.53627724059541

>  <Genealogy>  (20) 
O=C([C@H]1CCCN(Cc2ccc(Cl)cc2)C1)N1CCN(c2ccccc2)C(=O)C1 (chirality)
O=C([C@H]1CCCN(Cc2ccc(Cl)cc2)C1)N1CCN(c2ccccc2)C(=O)C1 (3D coordinates assigned)
O=C([C@H]1CCCN(Cc2ccc(Cl)cc2)C1)N1CCN(c2ccccc2)C(=O)C1 (nonaromatic ring conformer: 72.53627724059541 kcal/mol)

>  <smiles>  (20) 
O=C(C1CCCN(Cc2ccc(Cl)cc2)C1)N1CCN(c2ccccc2)C(=O)C1

>  <score_type>  (20) 
oracle

>  <origin>  (20) 
adg

>  <m_score__min__energy>  (20) 
-9.4100000000000001

>  <m_primary>  (20) 
energy

$$$$
20:0
     RDKit          3D

 45 47  0  0  0  0  0  0  0  0999 V2000
   -8.7460   18.5640  -31.4050 C   0  0  0  0  0  0  0  0  0  0  0  0
   -8.0580   19.7280  -31.9740 N   0  0  0  0  0  0  0  0  0  0  0  0
   -8.7390   21.0330  -31.9920 C   0  0  0  0  0  0  0  0  0  0  0  0
   -7.7780   22.1320  -31.6200 C   0  0  0  0  0  0  0  0  0  0  0  0
   -7.5320   22.4180  -30.2700 C   0  0  0  0  0  0  0  0  0  0  0  0
   -6.6160   23.4110  -29.9130 C   0  0  0  0  0  0  0  0  0  0  0  0
   -5.9310   24.1390  -30.9020 C   0  0  0  0  0  0  0  0  0  0  0  0
   -4.9610   25.1940  -30.5260 C   0  0  0  0  0  0  0  0  0  0  0  0
   -5.3620   26.3700  -30.3090 O   0  0  0  0  0  0  0  0  0  0  0  0
   -3.5600   24.8910  -30.4620 N   0  0  0  0  0  0  0  0  0  0  0  0
   -2.9310   23.9340  -29.5940 C   0  0  0  0  0  0  0  0  0  0  0  0
   -1.8160   23.1870  -30.0200 C   0  0  0  0  0  0  0  0  0  0  0  0
   -1.2000   22.2810  -29.1540 C   0  0  0  0  0  0  0  0  0  0  0  0
   -1.6790   22.1190  -27.8540 C   0  0  0  0  0  0  0  0  0  0  0  0
   -2.7670   22.8730  -27.4110 C   0  0  0  0  0  0  0  0  0  0  0  0
   -3.3960   23.7880  -28.2700 C   0  0  0  0  0  0  0  0  0  0  0  0
   -4.5090   24.5510  -27.7910 N   0  0  0  0  0  0  0  0  0  0  0  0
   -6.1820   23.8490  -32.2560 C   0  0  0  0  0  0  0  0  0  0  0  0
   -7.0950   22.8520  -32.6110 C   0  0  0  0  0  0  0  0  0  0  0  0
   -6.6940   19.5970  -32.4380 C   0  0  0  0  0  0  0  0  0  0  0  0
   -6.4210   19.0710  -33.7150 C   0  0  0  0  0  0  0  0  0  0  0  0
   -5.1020   18.9280  -34.1570 C   0  0  0  0  0  0  0  0  0  0  0  0
   -4.0420   19.3090  -33.3320 C   0  0  0  0  0  0  0  0  0  0  0  0
   -4.2990   19.8360  -32.0650 C   0  0  0  0  0  0  0  0  0  0  0  0
   -5.6150   19.9810  -31.6180 C   0  0  0  0  0  0  0  0  0  0  0  0
   -8.7133   18.6194  -30.3069 H   0  0  0  0  0  0  0  0  0  0  0  0
   -9.7935   18.5569  -31.7407 H   0  0  0  0  0  0  0  0  0  0  0  0
   -8.2471   17.6429  -31.7407 H   0  0  0  0  0  0  0  0  0  0  0  0
   -9.1330   21.2223  -33.0014 H   0  0  0  0  0  0  0  0  0  0  0  0
   -9.5618   21.0162  -31.2621 H   0  0  0  0  0  0  0  0  0  0  0  0
   -8.0633   21.8573  -29.4868 H   0  0  0  0  0  0  0  0  0  0  0  0
   -6.4294   23.6248  -28.8503 H   0  0  0  0  0  0  0  0  0  0  0  0
   -1.4279   23.3178  -31.0409 H   0  0  0  0  0  0  0  0  0  0  0  0
   -0.3355   21.6941  -29.4977 H   0  0  0  0  0  0  0  0  0  0  0  0
   -1.1990   21.3966  -27.1774 H   0  0  0  0  0  0  0  0  0  0  0  0
   -3.1341   22.7493  -26.3815 H   0  0  0  0  0  0  0  0  0  0  0  0
   -4.9900   24.2910  -26.9020 H   0  0  0  0  0  0  0  0  0  0  0  0
   -4.8740   25.3770  -28.3170 H   0  0  0  0  0  0  0  0  0  0  0  0
   -5.6555   24.4114  -33.0412 H   0  0  0  0  0  0  0  0  0  0  0  0
   -7.2787   22.6310  -33.6728 H   0  0  0  0  0  0  0  0  0  0  0  0
   -7.2517   18.7701  -34.3703 H   0  0  0  0  0  0  0  0  0  0  0  0
   -4.8993   18.5148  -35.1561 H   0  0  0  0  0  0  0  0  0  0  0  0
   -3.0049   19.1940  -33.6801 H   0  0  0  0  0  0  0  0  0  0  0  0
   -3.4632   20.1379  -31.4167 H   0  0  0  0  0  0  0  0  0  0  0  0
   -5.8097   20.3979  -30.6189 H   0  0  0  0  0  0  0  0  0  0  0  0
  1  2  1  0
  2  3  1  0
  3  4  1  0
  4  5  2  0
  5  6  1  0
  6  7  2  0
  7  8  1  0
  8  9  2  0
  8 10  1  0
 10 11  1  0
 11 12  2  0
 12 13  1  0
 13 14  2  0
 14 15  1  0
 15 16  2  0
 16 17  1  0
  7 18  1  0
 18 19  2  0
  2 20  1  0
 20 21  2  0
 21 22  1  0
 22 23  2  0
 23 24  1  0
 24 25  2  0
 19  4  1  0
 25 20  1  0
 16 11  1  0
  1 26  1  0
  1 27  1  0
  1 28  1  0
  3 29  1  0
  3 30  1  0
  5 31  1  0
  6 32  1  0
 12 33  1  0
 13 34  1  0
 14 35  1  0
 15 36  1  0
 17 37  1  0
 17 38  1  0
 18 39  1  0
 19 40  1  0
 21 41  1  0
 22 42  1  0
 23 43  1  0
 24 44  1  0
 25 45  1  0
M  CHG  1  10  -1
M  END
>  <UniqueID>  (21) 
20

>  <SMILES>  (21) 
CN(Cc1ccc(C(=O)[N-]c2ccccc2N)cc1)c1ccccc1

>  <Energy>  (21) 
53.20669413287059

>  <Genealogy>  (21) 
CN(Cc1ccc(C(=O)[N-]c2ccccc2N)cc1)c1ccccc1 (protonated)
CN(Cc1ccc(C(=O)[N-]c2ccccc2N)cc1)c1ccccc1 (3D coordinates assigned)
CN(Cc1ccc(C(=O)[N-]c2ccccc2N)cc1)c1ccccc1 (optimized conformer: 53.20669413287059 kcal/mol)

>  <smiles>  (21) 
CN(Cc1ccc(C(=O)Nc2ccccc2N)cc1)c1ccccc1

>  <score_type>  (21) 
oracle

>  <origin>  (21) 
adg

>  <m_score__min__energy>  (21) 
-11.289999999999999

>  <m_primary>  (21) 
energy

$$$$
21:0
     RDKit          3D

 40 41  0  0  0  0  0  0  0  0999 V2000
   -6.5920   18.0800  -32.7370 C   0  0  0  0  0  0  0  0  0  0  0  0
   -7.9620   18.5480  -32.2390 C   0  0  0  0  0  0  0  0  0  0  0  0
   -8.5360   19.6220  -33.0730 N   0  0  0  0  0  0  0  0  0  0  0  0
   -8.9060   20.8360  -32.3210 C   0  0  0  0  0  0  0  0  0  0  0  0
   -7.6980   21.6040  -31.8420 C   0  0  0  0  0  0  0  0  0  0  0  0
   -6.5070   21.5780  -32.5790 C   0  0  0  0  0  0  0  0  0  0  0  0
   -5.3790   22.2680  -32.1290 C   0  0  0  0  0  0  0  0  0  0  0  0
   -5.4180   22.9990  -30.9240 C   0  0  0  0  0  0  0  0  0  0  0  0
   -4.2250   23.7320  -30.4170 C   0  0  0  0  0  0  0  0  0  0  0  0
   -4.0380   24.9300  -30.7650 O   0  0  0  0  0  0  0  0  0  0  0  0
   -3.2360   23.1090  -29.4660 C   0  0  0  0  0  0  0  0  0  0  0  0
   -3.1950   23.8530  -28.2090 N   0  0  0  0  0  0  0  0  0  0  0  0
   -4.2420   24.1710  -27.4200 C   0  0  0  0  0  0  0  0  0  0  0  0
   -3.7760   24.9280  -26.3650 C   0  0  0  0  0  0  0  0  0  0  0  0
   -2.4430   25.0670  -26.5050 N   0  0  0  0  0  0  0  0  0  0  0  0
   -1.5580   25.8710  -25.6710 C   0  0  0  0  0  0  0  0  0  0  0  0
   -2.1140   24.4250  -27.6410 C   0  0  0  0  0  0  0  0  0  0  0  0
   -6.6180   23.0220  -30.1910 C   0  0  0  0  0  0  0  0  0  0  0  0
   -7.7450   22.3310  -30.6430 C   0  0  0  0  0  0  0  0  0  0  0  0
   -5.9447   17.8589  -31.8756 H   0  0  0  0  0  0  0  0  0  0  0  0
   -6.7138   17.1725  -33.3466 H   0  0  0  0  0  0  0  0  0  0  0  0
   -6.1332   18.8724  -33.3466 H   0  0  0  0  0  0  0  0  0  0  0  0
   -8.6508   17.6904  -32.2468 H   0  0  0  0  0  0  0  0  0  0  0  0
   -7.8261   18.9521  -31.2250 H   0  0  0  0  0  0  0  0  0  0  0  0
   -9.3860   19.2600  -33.5660 H   0  0  0  0  0  0  0  0  0  0  0  0
   -7.8380   19.8790  -33.8110 H   0  0  0  0  0  0  0  0  0  0  0  0
   -9.5036   21.4885  -32.9746 H   0  0  0  0  0  0  0  0  0  0  0  0
   -9.4778   20.5219  -31.4353 H   0  0  0  0  0  0  0  0  0  0  0  0
   -6.4597   21.0097  -33.5196 H   0  0  0  0  0  0  0  0  0  0  0  0
   -4.4517   22.2408  -32.7202 H   0  0  0  0  0  0  0  0  0  0  0  0
   -3.5351   22.0703  -29.2621 H   0  0  0  0  0  0  0  0  0  0  0  0
   -2.2371   23.1331  -29.9260 H   0  0  0  0  0  0  0  0  0  0  0  0
   -5.2884   23.8770  -27.5890 H   0  0  0  0  0  0  0  0  0  0  0  0
   -4.3866   25.3456  -25.5509 H   0  0  0  0  0  0  0  0  0  0  0  0
   -1.7746   25.6743  -24.6106 H   0  0  0  0  0  0  0  0  0  0  0  0
   -0.5119   25.6079  -25.8865 H   0  0  0  0  0  0  0  0  0  0  0  0
   -1.7198   26.9375  -25.8865 H   0  0  0  0  0  0  0  0  0  0  0  0
   -1.0953   24.3735  -28.0529 H   0  0  0  0  0  0  0  0  0  0  0  0
   -6.6699   23.5907  -29.2508 H   0  0  0  0  0  0  0  0  0  0  0  0
   -8.6745   22.3571  -30.0554 H   0  0  0  0  0  0  0  0  0  0  0  0
  1  2  1  0
  2  3  1  0
  3  4  1  0
  4  5  1  0
  5  6  2  0
  6  7  1  0
  7  8  2  0
  8  9  1  0
  9 10  2  0
  9 11  1  0
 11 12  1  0
 12 13  1  0
 13 14  2  0
 14 15  1  0
 15 16  1  0
 15 17  1  0
  8 18  1  0
 18 19  2  0
 19  5  1  0
 17 12  2  0
  1 20  1  0
  1 21  1  0
  1 22  1  0
  2 23  1  0
  2 24  1  0
  3 25  1  0
  3 26  1  0
  4 27  1  0
  4 28  1  0
  6 29  1  0
  7 30  1  0
 11 31  1  0
 11 32  1  0
 13 33  1  0
 14 34  1  0
 16 35  1  0
 16 36  1  0
 16 37  1  0
 17 38  1  0
 18 39  1  0
 19 40  1  0
M  CHG  2   3   1  12   1
M  END
>  <UniqueID>  (22) 
21

>  <SMILES>  (22) 
CC[NH2+]Cc1ccc(C(=O)C[n+]2ccn(C)c2)cc1

>  <Energy>  (22) 
68.08015252543603

>  <Genealogy>  (22) 
CC[NH2+]Cc1ccc(C(=O)C[n+]2ccn(C)c2)cc1 (protonated)
CC[NH2+]Cc1ccc(C(=O)C[n+]2ccn(C)c2)cc1 (3D coordinates assigned)
CC[NH2+]Cc1ccc(C(=O)C[n+]2ccn(C)c2)cc1 (optimized conformer: 68.08015252543603 kcal/mol)

>  <smiles>  (22) 
CCNCc1ccc(C(=O)C[n+]2ccn(C)c2)cc1

>  <score_type>  (22) 
oracle

>  <origin>  (22) 
adg

>  <m_score__min__energy>  (22) 
-6.0300000000000002

>  <m_primary>  (22) 
energy

$$$$
22:0
     RDKit          3D

 45 48  0  0  0  0  0  0  0  0999 V2000
   -2.5070   24.8320  -26.5120 C   0  0  0  0  0  0  0  0  0  0  0  0
   -3.3140   24.1940  -27.5450 N   0  0  0  0  0  0  0  0  0  0  0  0
   -2.9650   23.1050  -28.2550 C   0  0  0  0  0  0  0  0  0  0  0  0
   -3.9990   22.8180  -29.1260 C   0  0  0  0  0  0  0  0  0  0  0  0
   -4.0860   21.6630  -30.0750 C   0  0  0  0  0  0  0  0  0  0  0  0
   -3.7700   22.0830  -31.4580 N   0  0  0  0  0  0  0  0  0  0  0  0
   -3.3510   20.9940  -32.3770 C   0  0  0  0  0  0  0  0  0  0  0  0
   -4.4010   19.8830  -32.6160 C   0  0  0  0  0  0  0  0  0  0  0  0
   -5.5980   20.3440  -33.4550 C   0  0  0  0  0  0  0  0  0  0  0  0
   -6.5180   21.2140  -32.6470 C   0  0  0  0  0  0  0  0  0  0  0  0
   -6.1500   22.3960  -32.0510 C   0  0  0  0  0  0  0  0  0  0  0  0
   -7.2620   22.8120  -31.3470 C   0  0  0  0  0  0  0  0  0  0  0  0
   -8.2510   21.9120  -31.5150 N   0  0  0  0  0  0  0  0  0  0  0  0
   -7.8010   20.9510  -32.3100 N   0  0  0  0  0  0  0  0  0  0  0  0
   -8.5770   19.7490  -32.6070 C   0  0  0  0  0  0  0  0  0  0  0  0
   -8.2500   18.6560  -31.5810 C   0  0  0  0  0  0  0  0  0  0  0  0
   -7.6200   17.4070  -32.1800 C   0  0  0  0  0  0  0  0  0  0  0  0
   -6.7770   18.3590  -31.3460 C   0  0  0  0  0  0  0  0  0  0  0  0
   -4.7770   23.0000  -32.0320 C   0  0  0  0  0  0  0  0  0  0  0  0
   -4.9670   23.7770  -28.8860 C   0  0  0  0  0  0  0  0  0  0  0  0
   -4.5160   24.6000  -27.9210 N   0  0  0  0  0  0  0  0  0  0  0  0
   -2.8805   24.5367  -25.5204 H   0  0  0  0  0  0  0  0  0  0  0  0
   -1.4588   24.5158  -26.6181 H   0  0  0  0  0  0  0  0  0  0  0  0
   -2.5728   25.9249  -26.6181 H   0  0  0  0  0  0  0  0  0  0  0  0
   -2.0241   22.5433  -28.1590 H   0  0  0  0  0  0  0  0  0  0  0  0
   -3.3709   20.8875  -29.7631 H   0  0  0  0  0  0  0  0  0  0  0  0
   -5.1141   21.2724  -30.0555 H   0  0  0  0  0  0  0  0  0  0  0  0
   -3.1087   21.4462  -33.3500 H   0  0  0  0  0  0  0  0  0  0  0  0
   -2.4956   20.5016  -31.8914 H   0  0  0  0  0  0  0  0  0  0  0  0
   -3.9113   19.0474  -33.1375 H   0  0  0  0  0  0  0  0  0  0  0  0
   -4.7907   19.5884  -31.6304 H   0  0  0  0  0  0  0  0  0  0  0  0
   -5.2318   20.9146  -34.3212 H   0  0  0  0  0  0  0  0  0  0  0  0
   -6.1564   19.4562  -33.7867 H   0  0  0  0  0  0  0  0  0  0  0  0
   -7.3300   23.7305  -30.7455 H   0  0  0  0  0  0  0  0  0  0  0  0
   -9.6502   19.9856  -32.5598 H   0  0  0  0  0  0  0  0  0  0  0  0
   -8.3219   19.3905  -33.6152 H   0  0  0  0  0  0  0  0  0  0  0  0
   -9.1012   18.8771  -30.9202 H   0  0  0  0  0  0  0  0  0  0  0  0
   -7.8828   16.4147  -31.7846 H   0  0  0  0  0  0  0  0  0  0  0  0
   -7.5434   16.9833  -33.1922 H   0  0  0  0  0  0  0  0  0  0  0  0
   -6.4298   18.0551  -30.3474 H   0  0  0  0  0  0  0  0  0  0  0  0
   -5.8378   18.9090  -31.5054 H   0  0  0  0  0  0  0  0  0  0  0  0
   -4.4843   23.2463  -33.0634 H   0  0  0  0  0  0  0  0  0  0  0  0
   -4.8131   23.8994  -31.3997 H   0  0  0  0  0  0  0  0  0  0  0  0
   -5.9385   23.8537  -29.3962 H   0  0  0  0  0  0  0  0  0  0  0  0
   -5.0260   25.4210  -27.5240 H   0  0  0  0  0  0  0  0  0  0  0  0
  1  2  1  0
  2  3  1  0
  3  4  2  0
  4  5  1  0
  5  6  1  0
  6  7  1  0
  7  8  1  0
  8  9  1  0
  9 10  1  0
 10 11  2  0
 11 12  1  0
 12 13  2  0
 13 14  1  0
 14 15  1  0
 15 16  1  0
 16 17  1  0
 17 18  1  0
 11 19  1  0
  4 20  1  0
 20 21  2  0
 21  2  1  0
 19  6  1  0
 14 10  1  0
 18 16  1  0
  1 22  1  0
  1 23  1  0
  1 24  1  0
  3 25  1  0
  5 26  1  0
  5 27  1  0
  7 28  1  0
  7 29  1  0
  8 30  1  0
  8 31  1  0
  9 32  1  0
  9 33  1  0
 12 34  1  0
 15 35  1  0
 15 36  1  0
 16 37  1  0
 17 38  1  0
 17 39  1  0
 18 40  1  0
 18 41  1  0
 19 42  1  0
 19 43  1  0
 20 44  1  0
 21 45  1  0
M  CHG  1  21   1
M  END
>  <UniqueID>  (23) 
22

>  <SMILES>  (23) 
Cn1cc(CN2CCCc3c(cnn3CC3CC3)C2)c[nH+]1

>  <Energy>  (23) 
374.62690487331844

>  <Genealogy>  (23) 
Cn1cc(CN2CCCc3c(cnn3CC3CC3)C2)c[nH+]1 (protonated)
Cn1cc(CN2CCCc3c(cnn3CC3CC3)C2)c[nH+]1 (3D coordinates assigned)
Cn1cc(CN2CCCc3c(cnn3CC3CC3)C2)c[nH+]1 (nonaromatic ring conformer: 374.62690487331844 kcal/mol)

>  <smiles>  (23) 
Cn1cc(CN2CCCc3c(cnn3CC3CC3)C2)cn1

>  <score_type>  (23) 
oracle

>  <origin>  (23) 
adg

>  <m_score__min__energy>  (23) 
-5.8200000000000003

>  <m_primary>  (23) 
energy

$$$$
23:0
     RDKit          3D

 33 35  0  0  0  0  0  0  0  0999 V2000
   -5.2780   24.6650  -30.2390 C   0  0  0  0  0  0  0  0  0  0  0  0
   -3.8790   24.5930  -30.4940 O   0  0  0  0  0  0  0  0  0  0  0  0
   -3.1930   23.4150  -30.8230 C   0  0  0  0  0  0  0  0  0  0  0  0
   -2.1870   22.9680  -29.9590 C   0  0  0  0  0  0  0  0  0  0  0  0
   -1.4810   21.7950  -30.2370 C   0  0  0  0  0  0  0  0  0  0  0  0
   -1.7710   21.0590  -31.3880 C   0  0  0  0  0  0  0  0  0  0  0  0
   -2.7680   21.4950  -32.2760 C   0  0  0  0  0  0  0  0  0  0  0  0
   -3.0910   20.7190  -33.4460 N   0  0  0  0  0  0  0  0  0  0  0  0
   -4.3600   20.0710  -33.2530 C   0  0  0  0  0  0  0  0  0  0  0  0
   -4.4870   18.6770  -33.3790 C   0  0  0  0  0  0  0  0  0  0  0  0
   -5.6890   18.0870  -33.1540 N   0  0  0  0  0  0  0  0  0  0  0  0
   -6.7780   18.8200  -32.8000 C   0  0  0  0  0  0  0  0  0  0  0  0
   -8.0110   18.2030  -32.5690 C   0  0  0  0  0  0  0  0  0  0  0  0
   -9.1180   18.9750  -32.2010 C   0  0  0  0  0  0  0  0  0  0  0  0
   -8.9940   20.3630  -32.0630 C   0  0  0  0  0  0  0  0  0  0  0  0
   -7.7630   20.9850  -32.2930 C   0  0  0  0  0  0  0  0  0  0  0  0
   -6.6530   20.2180  -32.6620 C   0  0  0  0  0  0  0  0  0  0  0  0
   -5.4480   20.8050  -32.8880 N   0  0  0  0  0  0  0  0  0  0  0  0
   -3.4820   22.6710  -31.9840 C   0  0  0  0  0  0  0  0  0  0  0  0
   -5.4528   24.6740  -29.1530 H   0  0  0  0  0  0  0  0  0  0  0  0
   -5.6848   25.5853  -30.6835 H   0  0  0  0  0  0  0  0  0  0  0  0
   -5.7772   23.7914  -30.6835 H   0  0  0  0  0  0  0  0  0  0  0  0
   -1.9501   23.5453  -29.0531 H   0  0  0  0  0  0  0  0  0  0  0  0
   -0.6955   21.4505  -29.5483 H   0  0  0  0  0  0  0  0  0  0  0  0
   -1.2159   20.1333  -31.6001 H   0  0  0  0  0  0  0  0  0  0  0  0
   -2.3450   20.0070  -33.6340 H   0  0  0  0  0  0  0  0  0  0  0  0
   -3.1420   21.3420  -34.2860 H   0  0  0  0  0  0  0  0  0  0  0  0
   -3.6159   18.0663  -33.6588 H   0  0  0  0  0  0  0  0  0  0  0  0
   -8.1105   17.1128  -32.6764 H   0  0  0  0  0  0  0  0  0  0  0  0
  -10.0887   18.4904  -32.0195 H   0  0  0  0  0  0  0  0  0  0  0  0
   -9.8673   20.9656  -31.7729 H   0  0  0  0  0  0  0  0  0  0  0  0
   -7.6677   22.0754  -32.1840 H   0  0  0  0  0  0  0  0  0  0  0  0
   -4.2728   23.0128  -32.6679 H   0  0  0  0  0  0  0  0  0  0  0  0
  1  2  1  0
  2  3  1  0
  3  4  2  0
  4  5  1  0
  5  6  2  0
  6  7  1  0
  7  8  1  0
  8  9  1  0
  9 10  2  0
 10 11  1  0
 11 12  2  0
 12 13  1  0
 13 14  2  0
 14 15  1  0
 15 16  2  0
 16 17  1  0
 17 18  2  0
  7 19  2  0
 19  3  1  0
 18  9  1  0
 17 12  1  0
  1 20  1  0
  1 21  1  0
  1 22  1  0
  4 23  1  0
  5 24  1  0
  6 25  1  0
  8 26  1  0
  8 27  1  0
 10 28  1  0
 13 29  1  0
 14 30  1  0
 15 31  1  0
 16 32  1  0
 19 33  1  0
M  CHG  1   8   1
M  END
>  <UniqueID>  (24) 
23

>  <SMILES>  (24) 
COc1cccc([NH2+]c2cnc3ccccc3n2)c1

>  <Energy>  (24) 
40.102272614384205

>  <Genealogy>  (24) 
COc1cccc([NH2+]c2cnc3ccccc3n2)c1 (protonated)
COc1cccc([NH2+]c2cnc3ccccc3n2)c1 (3D coordinates assigned)
COc1cccc([NH2+]c2cnc3ccccc3n2)c1 (optimized conformer: 40.102272614384205 kcal/mol)

>  <smiles>  (24) 
COc1cccc(Nc2cnc3ccccc3n2)c1

>  <score_type>  (24) 
oracle

>  <origin>  (24) 
adg

>  <m_score__min__energy>  (24) 
-6.5999999999999996

>  <m_primary>  (24) 
energy

$$$$
24:0
     RDKit          3D

 34 36  0  0  0  0  0  0  0  0999 V2000
   -9.9550   21.6070  -30.9120 H   0  0  0  0  0  0  0  0  0  0  0  0
   -9.4050   21.6800  -31.7320 O   0  0  0  0  0  0  0  0  0  0  0  0
   -7.8800   21.1400  -31.2780 S   0  0  0  0  0  0  0  0  0  0  0  0
   -7.2930   19.8110  -32.2600 C   0  0  0  0  0  0  0  0  0  0  0  0
   -7.6420   18.4960  -31.9320 C   0  0  0  0  0  0  0  0  0  0  0  0
   -8.2859   18.2991  -31.0621 H   0  0  0  0  0  0  0  0  0  0  0  0
   -7.1730   17.4320  -32.7090 C   0  0  0  0  0  0  0  0  0  0  0  0
   -7.4477   16.3990  -32.4492 H   0  0  0  0  0  0  0  0  0  0  0  0
   -6.3550   17.6800  -33.8160 C   0  0  0  0  0  0  0  0  0  0  0  0
   -5.9853   16.8423  -34.4255 H   0  0  0  0  0  0  0  0  0  0  0  0
   -6.0070   18.9940  -34.1480 C   0  0  0  0  0  0  0  0  0  0  0  0
   -5.3651   19.1893  -35.0197 H   0  0  0  0  0  0  0  0  0  0  0  0
   -6.4750   20.0590  -33.3720 C   0  0  0  0  0  0  0  0  0  0  0  0
   -6.2015   21.0918  -33.6338 H   0  0  0  0  0  0  0  0  0  0  0  0
   -6.7190   22.4390  -31.0690 C   0  0  0  0  0  0  0  0  0  0  0  0
   -6.9530   23.7050  -31.6570 C   0  0  0  0  0  0  0  0  0  0  0  0
   -7.8681   23.8747  -32.2434 H   0  0  0  0  0  0  0  0  0  0  0  0
   -6.0220   24.7480  -31.4960 C   0  0  0  0  0  0  0  0  0  0  0  0
   -6.1918   25.7369  -31.9469 H   0  0  0  0  0  0  0  0  0  0  0  0
   -4.8780   24.4850  -30.7460 C   0  0  0  0  0  0  0  0  0  0  0  0
   -3.8690   25.3220  -30.4670 N   0  0  0  0  0  0  0  0  0  0  0  0
   -3.0470   24.5430  -29.7140 C   0  0  0  0  0  0  0  0  0  0  0  0
   -1.9200   24.9580  -29.2160 N   0  0  0  0  0  0  0  0  0  0  0  0
   -0.7310   24.1730  -29.0480 C   0  0  0  0  0  0  0  0  0  0  0  0
    0.1750   24.5960  -28.2820 O   0  0  0  0  0  0  0  0  0  0  0  0
   -0.5710   22.9560  -29.7220 O   0  0  0  0  0  0  0  0  0  0  0  0
   -0.8460   21.7000  -29.1140 C   0  0  0  0  0  0  0  0  0  0  0  0
   -0.8221   21.8093  -28.0197 H   0  0  0  0  0  0  0  0  0  0  0  0
   -1.8417   21.3518  -29.4260 H   0  0  0  0  0  0  0  0  0  0  0  0
   -0.0869   20.9676  -29.4260 H   0  0  0  0  0  0  0  0  0  0  0  0
   -3.4890   23.2750  -29.5120 N   0  0  0  0  0  0  0  0  0  0  0  0
   -4.6530   23.2690  -30.1790 C   0  0  0  0  0  0  0  0  0  0  0  0
   -5.5510   22.2120  -30.3150 C   0  0  0  0  0  0  0  0  0  0  0  0
   -5.3546   21.2347  -29.8499 H   0  0  0  0  0  0  0  0  0  0  0  0
  1  2  1  0
  3  2  1  6
  3  4  1  0
  4  5  2  0
  5  6  1  0
  5  7  1  0
  7  8  1  0
  7  9  2  0
  9 10  1  0
  9 11  1  0
 11 12  1  0
 11 13  2  0
 13 14  1  0
  3 15  1  0
 15 16  2  0
 16 17  1  0
 16 18  1  0
 18 19  1  0
 18 20  2  0
 20 21  1  0
 21 22  1  0
 22 23  2  0
 23 24  1  0
 24 25  2  0
 24 26  1  0
 26 27  1  0
 27 28  1  0
 27 29  1  0
 27 30  1  0
 22 31  1  0
 31 32  1  0
 32 33  2  0
 33 34  1  0
 13  4  1  0
 33 15  1  0
 32 20  1  0
M  CHG  3   3   1  21  -1  31  -1
M  END
>  <UniqueID>  (25) 
24

>  <SMILES>  (25) 
COC(=O)/N=c1\[n-]c2ccc([S@@+](O)c3ccccc3)cc2[n-]1

>  <Energy>  (25) 
67.97597433232428

>  <Genealogy>  (25) 
COC(=O)N=c1[n-]c2ccc([S+](O)c3ccccc3)cc2[n-]1 (protonated)
COC(=O)N=c1[n-]c2ccc([S@@+](O)c3ccccc3)cc2[n-]1 (chirality)
COC(=O)/N=c1\[n-]c2ccc([S@@+](O)c3ccccc3)cc2[n-]1 (cis-trans isomerization)
COC(=O)/N=c1\[n-]c2ccc([S@@+](O)c3ccccc3)cc2[n-]1 (3D coordinates assigned)
COC(=O)/N=c1\[n-]c2ccc([S@@+](O)c3ccccc3)cc2[n-]1 (optimized conformer: 67.97597433232428 kcal/mol)

>  <smiles>  (25) 
COC(=O)N=c1[nH]c2ccc([S+]([O-])c3ccccc3)cc2[nH]1

>  <score_type>  (25) 
oracle

>  <origin>  (25) 
adg

>  <m_score__min__energy>  (25) 
-10.130000000000001

>  <m_primary>  (25) 
energy

$$$$
25:0
     RDKit          3D

 29 31  0  0  0  0  0  0  0  0999 V2000
   -8.6470   21.4800  -31.9580 C   0  0  0  0  0  0  0  0  0  0  0  0
   -7.2110   21.7140  -31.8050 N   0  0  0  0  0  0  0  0  0  0  0  0
   -6.1810   20.9110  -32.1890 C   0  0  0  0  0  0  0  0  0  0  0  0
   -6.3030   19.5750  -32.8120 C   0  0  0  0  0  0  0  0  0  0  0  0
   -7.0240   18.5480  -32.1790 C   0  0  0  0  0  0  0  0  0  0  0  0
   -7.1150   17.2830  -32.7680 C   0  0  0  0  0  0  0  0  0  0  0  0
   -6.4780   17.0280  -33.9850 C   0  0  0  0  0  0  0  0  0  0  0  0
   -5.7440   18.0380  -34.6130 C   0  0  0  0  0  0  0  0  0  0  0  0
   -5.6500   19.3040  -34.0270 C   0  0  0  0  0  0  0  0  0  0  0  0
   -4.9780   21.5410  -31.8930 C   0  0  0  0  0  0  0  0  0  0  0  0
   -5.2730   22.7110  -31.3030 N   0  0  0  0  0  0  0  0  0  0  0  0
   -4.4410   23.6680  -30.8170 C   0  0  0  0  0  0  0  0  0  0  0  0
   -5.0130   24.8070  -30.2320 C   0  0  0  0  0  0  0  0  0  0  0  0
   -6.4140   24.9210  -30.1630 C   0  0  0  0  0  0  0  0  0  0  0  0
   -7.2370   23.9060  -30.6770 C   0  0  0  0  0  0  0  0  0  0  0  0
   -6.6130   22.7950  -31.2540 C   0  0  0  0  0  0  0  0  0  0  0  0
   -9.1140   21.4039  -30.9649 H   0  0  0  0  0  0  0  0  0  0  0  0
   -9.0978   22.3165  -32.5120 H   0  0  0  0  0  0  0  0  0  0  0  0
   -8.8089   20.5436  -32.5120 H   0  0  0  0  0  0  0  0  0  0  0  0
   -7.5191   18.7402  -31.2157 H   0  0  0  0  0  0  0  0  0  0  0  0
   -7.6895   16.4868  -32.2720 H   0  0  0  0  0  0  0  0  0  0  0  0
   -6.5541   16.0333  -34.4484 H   0  0  0  0  0  0  0  0  0  0  0  0
   -5.2396   17.8367  -35.5696 H   0  0  0  0  0  0  0  0  0  0  0  0
   -5.0618   20.0923  -34.5195 H   0  0  0  0  0  0  0  0  0  0  0  0
   -3.9704   21.1530  -32.1031 H   0  0  0  0  0  0  0  0  0  0  0  0
   -3.3489   23.5530  -30.8804 H   0  0  0  0  0  0  0  0  0  0  0  0
   -4.3715   25.6052  -29.8302 H   0  0  0  0  0  0  0  0  0  0  0  0
   -6.8675   25.8115  -29.7032 H   0  0  0  0  0  0  0  0  0  0  0  0
   -8.3333   23.9819  -30.6277 H   0  0  0  0  0  0  0  0  0  0  0  0
  1  2  1  0
  2  3  1  0
  3  4  1  0
  4  5  2  0
  5  6  1  0
  6  7  2  0
  7  8  1  0
  8  9  2  0
  3 10  2  0
 10 11  1  0
 11 12  1  0
 12 13  2  0
 13 14  1  0
 14 15  2  0
 15 16  1  0
 16  2  2  0
  9  4  1  0
 16 11  1  0
  1 17  1  0
  1 18  1  0
  1 19  1  0
  5 20  1  0
  6 21  1  0
  7 22  1  0
  8 23  1  0
  9 24  1  0
 10 25  1  0
 12 26  1  0
 13 27  1  0
 14 28  1  0
 15 29  1  0
M  CHG  1   2   1
M  END
>  <UniqueID>  (26) 
25

>  <SMILES>  (26) 
C[n+]1c(-c2ccccc2)cn2ccccc21

>  <Energy>  (26) 
73.55975669007798

>  <Genealogy>  (26) 
C[n+]1c(-c2ccccc2)cn2ccccc21 (3D coordinates assigned)
C[n+]1c(-c2ccccc2)cn2ccccc21 (optimized conformer: 73.55975669007798 kcal/mol)

>  <smiles>  (26) 
C[n+]1c(-c2ccccc2)cn2ccccc21

>  <score_type>  (26) 
oracle

>  <origin>  (26) 
adg

>  <m_score__min__energy>  (26) 
-5.9299999999999997

>  <m_primary>  (26) 
energy

$$$$
26:0
     RDKit          3D

 41 43  0  0  0  0  0  0  0  0999 V2000
   -9.1130   19.1140  -32.0100 C   0  0  0  0  0  0  0  0  0  0  0  0
   -8.3290   20.2540  -32.3450 O   0  0  0  0  0  0  0  0  0  0  0  0
   -6.9670   20.2130  -32.6930 C   0  0  0  0  0  0  0  0  0  0  0  0
   -6.4440   19.2040  -33.5220 C   0  0  0  0  0  0  0  0  0  0  0  0
   -5.0840   19.1810  -33.8380 C   0  0  0  0  0  0  0  0  0  0  0  0
   -4.2130   20.1550  -33.3260 C   0  0  0  0  0  0  0  0  0  0  0  0
   -2.7690   20.1080  -33.6700 C   0  0  0  0  0  0  0  0  0  0  0  0
   -1.9160   21.2030  -33.4320 C   0  0  0  0  0  0  0  0  0  0  0  0
   -0.5640   21.1080  -33.7670 C   0  0  0  0  0  0  0  0  0  0  0  0
   -0.0670   19.9310  -34.3270 C   0  0  0  0  0  0  0  0  0  0  0  0
   -0.9340   18.8590  -34.5400 C   0  0  0  0  0  0  0  0  0  0  0  0
   -2.2470   18.9700  -34.2080 N   0  0  0  0  0  0  0  0  0  0  0  0
   -4.7380   21.1730  -32.5090 C   0  0  0  0  0  0  0  0  0  0  0  0
   -6.1070   21.2100  -32.1940 C   0  0  0  0  0  0  0  0  0  0  0  0
   -6.6400   22.2950  -31.2900 C   0  0  0  0  0  0  0  0  0  0  0  0
   -5.6290   23.3560  -31.1010 N   0  0  0  0  0  0  0  0  0  0  0  0
   -4.7860   23.0580  -29.9290 C   0  0  0  0  0  0  0  0  0  0  0  0
   -3.7140   24.1560  -29.7510 C   0  0  0  0  0  0  0  0  0  0  0  0
   -3.9230   25.2580  -30.6160 O   0  0  0  0  0  0  0  0  0  0  0  0
   -5.2440   25.7360  -30.4680 C   0  0  0  0  0  0  0  0  0  0  0  0
   -6.2660   24.6820  -30.9430 C   0  0  0  0  0  0  0  0  0  0  0  0
   -9.1766   19.0215  -30.9157 H   0  0  0  0  0  0  0  0  0  0  0  0
  -10.1241   19.2288  -32.4277 H   0  0  0  0  0  0  0  0  0  0  0  0
   -8.6441   18.2109  -32.4277 H   0  0  0  0  0  0  0  0  0  0  0  0
   -7.1112   18.4275  -33.9243 H   0  0  0  0  0  0  0  0  0  0  0  0
   -4.6913   18.3911  -34.4952 H   0  0  0  0  0  0  0  0  0  0  0  0
   -2.3122   22.1268  -32.9852 H   0  0  0  0  0  0  0  0  0  0  0  0
    0.1085   21.9602  -33.5896 H   0  0  0  0  0  0  0  0  0  0  0  0
    0.9961   19.8491  -34.5975 H   0  0  0  0  0  0  0  0  0  0  0  0
   -0.5546   17.9235  -34.9769 H   0  0  0  0  0  0  0  0  0  0  0  0
   -4.0683   21.9499  -32.1117 H   0  0  0  0  0  0  0  0  0  0  0  0
   -7.5426   22.7318  -31.7424 H   0  0  0  0  0  0  0  0  0  0  0  0
   -6.8806   21.8552  -30.3109 H   0  0  0  0  0  0  0  0  0  0  0  0
   -5.4167   23.0164  -29.0287 H   0  0  0  0  0  0  0  0  0  0  0  0
   -4.2867   22.0899  -30.0823 H   0  0  0  0  0  0  0  0  0  0  0  0
   -3.7425   24.5126  -28.7108 H   0  0  0  0  0  0  0  0  0  0  0  0
   -2.7371   23.7151  -29.9984 H   0  0  0  0  0  0  0  0  0  0  0  0
   -5.4280   25.9642  -29.4078 H   0  0  0  0  0  0  0  0  0  0  0  0
   -5.3614   26.6416  -31.0813 H   0  0  0  0  0  0  0  0  0  0  0  0
   -7.0748   24.6060  -30.2013 H   0  0  0  0  0  0  0  0  0  0  0  0
   -6.6646   24.9967  -31.9187 H   0  0  0  0  0  0  0  0  0  0  0  0
  1  2  1  0
  2  3  1  0
  3  4  2  0
  4  5  1  0
  5  6  2  0
  6  7  1  0
  7  8  2  0
  8  9  1  0
  9 10  2  0
 10 11  1  0
 11 12  2  0
  6 13  1  0
 13 14  2  0
 14 15  1  0
 15 16  1  0
 16 17  1  0
 17 18  1  0
 18 19  1  0
 19 20  1  0
 20 21  1  0
 14  3  1  0
 21 16  1  0
 12  7  1  0
  1 22  1  0
  1 23  1  0
  1 24  1  0
  4 25  1  0
  5 26  1  0
  8 27  1  0
  9 28  1  0
 10 29  1  0
 11 30  1  0
 13 31  1  0
 15 32  1  0
 15 33  1  0
 17 34  1  0
 17 35  1  0
 18 36  1  0
 18 37  1  0
 20 38  1  0
 20 39  1  0
 21 40  1  0
 21 41  1  0
M  END
>  <UniqueID>  (27) 
26

>  <SMILES>  (27) 
COc1ccc(-c2ccccn2)cc1CN1CCOCC1

>  <Energy>  (27) 
55.445929363003266

>  <Genealogy>  (27) 
COc1ccc(-c2ccccn2)cc1CN1CCOCC1 (3D coordinates assigned)
COc1ccc(-c2ccccn2)cc1CN1CCOCC1 (nonaromatic ring conformer: 55.445929363003266 kcal/mol)

>  <smiles>  (27) 
COc1ccc(-c2ccccn2)cc1CN1CCOCC1

>  <score_type>  (27) 
oracle

>  <origin>  (27) 
adg

>  <m_score__min__energy>  (27) 
-7.5499999999999998

>  <m_primary>  (27) 
energy

$$$$
27:0
     RDKit          3D

 37 39  0  0  0  0  0  0  0  0999 V2000
   -2.0160   24.9680  -27.2040 C   0  0  0  0  0  0  0  0  0  0  0  0
   -3.2070   24.2750  -26.9790 C   0  0  0  0  0  0  0  0  0  0  0  0
   -3.6870   23.3760  -27.9370 C   0  0  0  0  0  0  0  0  0  0  0  0
   -2.9840   23.1740  -29.1370 C   0  0  0  0  0  0  0  0  0  0  0  0
   -3.4970   22.2010  -30.1730 C   0  0  0  0  0  0  0  0  0  0  0  0
   -4.9750   22.4520  -30.5560 C   0  0  0  0  0  0  0  0  0  0  0  0
   -5.3270   21.9990  -31.9930 C   0  0  0  0  0  0  0  0  0  0  0  0
   -6.6560   21.2890  -32.1030 C   0  0  0  0  0  0  0  0  0  0  0  0
   -7.8490   21.9630  -31.7910 C   0  0  0  0  0  0  0  0  0  0  0  0
   -9.0810   21.3120  -31.9090 C   0  0  0  0  0  0  0  0  0  0  0  0
   -9.1310   19.9800  -32.3290 C   0  0  0  0  0  0  0  0  0  0  0  0
   -7.9490   19.2960  -32.6250 C   0  0  0  0  0  0  0  0  0  0  0  0
   -6.7160   19.9450  -32.5090 C   0  0  0  0  0  0  0  0  0  0  0  0
   -5.3280   23.8610  -30.3520 N   0  0  0  0  0  0  0  0  0  0  0  0
   -6.4160   24.3270  -29.7160 C   0  0  0  0  0  0  0  0  0  0  0  0
   -6.4730   25.6720  -29.7660 N   0  0  0  0  0  0  0  0  0  0  0  0
   -5.3620   25.9840  -30.4710 C   0  0  0  0  0  0  0  0  0  0  0  0
   -4.6620   24.8940  -30.8400 N   0  0  0  0  0  0  0  0  0  0  0  0
   -1.7730   23.8590  -29.3440 C   0  0  0  0  0  0  0  0  0  0  0  0
   -1.2970   24.7570  -28.3830 C   0  0  0  0  0  0  0  0  0  0  0  0
   -1.6438   25.6802  -26.4528 H   0  0  0  0  0  0  0  0  0  0  0  0
   -3.7686   24.4363  -26.0470 H   0  0  0  0  0  0  0  0  0  0  0  0
   -4.6199   22.8240  -27.7501 H   0  0  0  0  0  0  0  0  0  0  0  0
   -2.8792   22.2944  -31.0783 H   0  0  0  0  0  0  0  0  0  0  0  0
   -3.4358   21.1928  -29.7374 H   0  0  0  0  0  0  0  0  0  0  0  0
   -5.5790   21.8250  -29.8837 H   0  0  0  0  0  0  0  0  0  0  0  0
   -5.3551   22.8886  -32.6394 H   0  0  0  0  0  0  0  0  0  0  0  0
   -4.5540   21.2787  -32.2990 H   0  0  0  0  0  0  0  0  0  0  0  0
   -7.8135   23.0088  -31.4520 H   0  0  0  0  0  0  0  0  0  0  0  0
  -10.0113   21.8486  -31.6711 H   0  0  0  0  0  0  0  0  0  0  0  0
  -10.1008   19.4701  -32.4266 H   0  0  0  0  0  0  0  0  0  0  0  0
   -7.9886   18.2457  -32.9497 H   0  0  0  0  0  0  0  0  0  0  0  0
   -5.7878   19.4005  -32.7368 H   0  0  0  0  0  0  0  0  0  0  0  0
   -7.1639   23.6920  -29.2185 H   0  0  0  0  0  0  0  0  0  0  0  0
   -5.0631   27.0139  -30.7160 H   0  0  0  0  0  0  0  0  0  0  0  0
   -1.1977   23.6877  -30.2658 H   0  0  0  0  0  0  0  0  0  0  0  0
   -0.3549   25.2980  -28.5559 H   0  0  0  0  0  0  0  0  0  0  0  0
  1  2  2  0
  2  3  1  0
  3  4  2  0
  4  5  1  0
  5  6  1  0
  6  7  1  0
  7  8  1  0
  8  9  2  0
  9 10  1  0
 10 11  2  0
 11 12  1  0
 12 13  2  0
  6 14  1  0
 14 15  1  0
 15 16  2  0
 16 17  1  0
 17 18  2  0
  4 19  1  0
 19 20  2  0
 20  1  1  0
 13  8  1  0
 18 14  1  0
  1 21  1  0
  2 22  1  0
  3 23  1  0
  5 24  1  0
  5 25  1  0
  6 26  1  0
  7 27  1  0
  7 28  1  0
  9 29  1  0
 10 30  1  0
 11 31  1  0
 12 32  1  0
 13 33  1  0
 15 34  1  0
 17 35  1  0
 19 36  1  0
 20 37  1  0
M  END
>  <UniqueID>  (28) 
27

>  <SMILES>  (28) 
c1ccc(CC(Cc2ccccc2)n2cncn2)cc1

>  <Energy>  (28) 
69.16203777936869

>  <Genealogy>  (28) 
c1ccc(CC(Cc2ccccc2)n2cncn2)cc1 (3D coordinates assigned)
c1ccc(CC(Cc2ccccc2)n2cncn2)cc1 (optimized conformer: 69.16203777936869 kcal/mol)

>  <smiles>  (28) 
c1ccc(CC(Cc2ccccc2)n2cncn2)cc1

>  <score_type>  (28) 
oracle

>  <origin>  (28) 
adg

>  <m_score__min__energy>  (28) 
-7.4199999999999999

>  <m_primary>  (28) 
energy

$$$$
28:0
     RDKit          3D

 40 42  0  0  0  0  0  0  0  0999 V2000
   -2.5480   24.5600  -28.9500 C   0  0  0  0  0  0  0  0  0  0  0  0
   -3.4120   24.9330  -30.0190 O   0  0  0  0  0  0  0  0  0  0  0  0
   -4.4120   24.1060  -30.5490 C   0  0  0  0  0  0  0  0  0  0  0  0
   -5.7860   24.2710  -30.2360 C   0  0  0  0  0  0  0  0  0  0  0  0
   -6.7520   23.4190  -30.7920 C   0  0  0  0  0  0  0  0  0  0  0  0
   -6.3100   22.4150  -31.6530 C   0  0  0  0  0  0  0  0  0  0  0  0
   -7.0200   21.4390  -32.3320 C   0  0  0  0  0  0  0  0  0  0  0  0
   -8.5010   21.1700  -32.3090 C   0  0  0  0  0  0  0  0  0  0  0  0
   -8.8600   19.9880  -33.1090 N   0  0  0  0  0  0  0  0  0  0  0  0
   -9.1240   18.7920  -32.2870 C   0  0  0  0  0  0  0  0  0  0  0  0
   -7.8700   18.3840  -31.5090 C   0  0  0  0  0  0  0  0  0  0  0  0
   -6.8560   17.7310  -32.4010 C   0  0  0  0  0  0  0  0  0  0  0  0
   -5.8540   16.9050  -31.8680 C   0  0  0  0  0  0  0  0  0  0  0  0
   -4.8960   16.3530  -32.7220 C   0  0  0  0  0  0  0  0  0  0  0  0
   -4.9420   16.6300  -34.0890 C   0  0  0  0  0  0  0  0  0  0  0  0
   -5.9500   17.4600  -34.5850 C   0  0  0  0  0  0  0  0  0  0  0  0
   -6.8730   17.9890  -33.7390 N   0  0  0  0  0  0  0  0  0  0  0  0
   -6.0500   20.7210  -33.0250 C   0  0  0  0  0  0  0  0  0  0  0  0
   -4.8370   21.2550  -32.7650 N   0  0  0  0  0  0  0  0  0  0  0  0
   -5.0060   22.2730  -31.9380 N   0  0  0  0  0  0  0  0  0  0  0  0
   -4.0380   23.0730  -31.4240 C   0  0  0  0  0  0  0  0  0  0  0  0
   -3.0402   24.7725  -27.9895 H   0  0  0  0  0  0  0  0  0  0  0  0
   -2.3242   23.4851  -29.0174 H   0  0  0  0  0  0  0  0  0  0  0  0
   -1.6122   25.1343  -29.0174 H   0  0  0  0  0  0  0  0  0  0  0  0
   -6.0966   25.0740  -29.5514 H   0  0  0  0  0  0  0  0  0  0  0  0
   -7.8200   23.5387  -30.5572 H   0  0  0  0  0  0  0  0  0  0  0  0
   -8.8153   21.0030  -31.2682 H   0  0  0  0  0  0  0  0  0  0  0  0
   -9.0111   22.0420  -32.7441 H   0  0  0  0  0  0  0  0  0  0  0  0
   -8.0830   19.7830  -33.7810 H   0  0  0  0  0  0  0  0  0  0  0  0
   -9.9339   19.0135  -31.5764 H   0  0  0  0  0  0  0  0  0  0  0  0
   -9.4147   17.9637  -32.9499 H   0  0  0  0  0  0  0  0  0  0  0  0
   -7.4226   19.2813  -31.0567 H   0  0  0  0  0  0  0  0  0  0  0  0
   -8.1651   17.6601  -30.7351 H   0  0  0  0  0  0  0  0  0  0  0  0
   -5.8234   16.6945  -30.7888 H   0  0  0  0  0  0  0  0  0  0  0  0
   -4.1072   15.7015  -32.3178 H   0  0  0  0  0  0  0  0  0  0  0  0
   -4.1922   16.1992  -34.7688 H   0  0  0  0  0  0  0  0  0  0  0  0
   -5.9969   17.6856  -35.6606 H   0  0  0  0  0  0  0  0  0  0  0  0
   -6.2406   19.8575  -33.6793 H   0  0  0  0  0  0  0  0  0  0  0  0
   -3.9180   20.9270  -33.1400 H   0  0  0  0  0  0  0  0  0  0  0  0
   -2.9816   22.9156  -31.6873 H   0  0  0  0  0  0  0  0  0  0  0  0
  1  2  1  0
  2  3  1  0
  3  4  1  0
  4  5  2  0
  5  6  1  0
  6  7  2  0
  7  8  1  0
  8  9  1  0
  9 10  1  0
 10 11  1  0
 11 12  1  0
 12 13  2  0
 13 14  1  0
 14 15  2  0
 15 16  1  0
 16 17  2  0
  7 18  1  0
 18 19  2  0
 19 20  1  0
 20 21  1  0
 21  3  2  0
 20  6  1  0
 17 12  1  0
  1 22  1  0
  1 23  1  0
  1 24  1  0
  4 25  1  0
  5 26  1  0
  8 27  1  0
  8 28  1  0
  9 29  1  0
 10 30  1  0
 10 31  1  0
 11 32  1  0
 11 33  1  0
 13 34  1  0
 14 35  1  0
 15 36  1  0
 16 37  1  0
 18 38  1  0
 19 39  1  0
 21 40  1  0
M  CHG  1  19   1
M  END
>  <UniqueID>  (29) 
28

>  <SMILES>  (29) 
COc1ccc2c(CNCCc3ccccn3)c[nH+]n2c1

>  <Energy>  (29) 
75.41835249157528

>  <Genealogy>  (29) 
COc1ccc2c(CNCCc3ccccn3)c[nH+]n2c1 (protonated)
COc1ccc2c(CNCCc3ccccn3)c[nH+]n2c1 (3D coordinates assigned)
COc1ccc2c(CNCCc3ccccn3)c[nH+]n2c1 (optimized conformer: 75.41835249157528 kcal/mol)

>  <smiles>  (29) 
COc1ccc2c(CNCCc3ccccn3)cnn2c1

>  <score_type>  (29) 
oracle

>  <origin>  (29) 
adg

>  <m_score__min__energy>  (29) 
-7.0199999999999996

>  <m_primary>  (29) 
energy

$$$$
29:0
     RDKit          3D

 66 68  0  0  0  0  0  0  0  0999 V2000
   -0.6310   20.8350  -31.6480 H   0  0  0  0  0  0  0  0  0  0  0  0
   -0.1250   20.5340  -30.8270 O   0  0  0  0  0  0  0  0  0  0  0  0
   -0.7350   20.1300  -29.6320 C   0  0  0  0  0  0  0  0  0  0  0  0
   -1.8660   20.8290  -29.2020 C   0  0  0  0  0  0  0  0  0  0  0  0
   -2.3820   21.9620  -30.0010 C   0  0  0  0  0  0  0  0  0  0  0  0
   -2.7338   22.8591  -29.4705 H   0  0  0  0  0  0  0  0  0  0  0  0
   -2.4400   21.9490  -31.3010 N   0  0  0  0  0  0  0  0  0  0  0  0
   -3.6140   21.6190  -32.1140 C   0  0  0  0  0  0  0  0  0  0  0  0
   -4.1839   22.5385  -32.3133 H   0  0  0  0  0  0  0  0  0  0  0  0
   -4.2317   20.8958  -31.5614 H   0  0  0  0  0  0  0  0  0  0  0  0
   -3.1970   20.9880  -33.4480 C   0  0  0  0  0  0  0  0  0  0  0  0
   -3.1501   21.7733  -34.2169 H   0  0  0  0  0  0  0  0  0  0  0  0
   -3.9402   20.2233  -33.7181 H   0  0  0  0  0  0  0  0  0  0  0  0
   -1.8740   20.3370  -33.3430 N   0  0  0  0  0  0  0  0  0  0  0  0
   -0.8050   21.1630  -33.9310 C   0  0  0  0  0  0  0  0  0  0  0  0
   -0.2115   21.6216  -33.1264 H   0  0  0  0  0  0  0  0  0  0  0  0
   -0.1536   20.5313  -34.5528 H   0  0  0  0  0  0  0  0  0  0  0  0
   -1.2519   21.9527  -34.5528 H   0  0  0  0  0  0  0  0  0  0  0  0
   -1.8150   18.9040  -33.7340 C   0  0  0  0  0  0  0  0  0  0  0  0
   -1.9718   18.8483  -34.8213 H   0  0  0  0  0  0  0  0  0  0  0  0
   -0.8302   18.5514  -33.3936 H   0  0  0  0  0  0  0  0  0  0  0  0
   -2.8420   17.9570  -33.0620 C   0  0  0  0  0  0  0  0  0  0  0  0
   -2.3117   17.3651  -32.3014 H   0  0  0  0  0  0  0  0  0  0  0  0
   -3.6276   18.6053  -32.6467 H   0  0  0  0  0  0  0  0  0  0  0  0
   -3.5540   16.9810  -34.0120 C   0  0  0  0  0  0  0  0  0  0  0  0
   -3.3233   17.2636  -35.0497 H   0  0  0  0  0  0  0  0  0  0  0  0
   -3.1957   15.9656  -33.7870 H   0  0  0  0  0  0  0  0  0  0  0  0
   -5.0230   16.9990  -33.8270 N   0  0  0  0  0  0  0  0  0  0  0  0
   -5.6920   17.9050  -34.7960 C   0  0  0  0  0  0  0  0  0  0  0  0
   -5.0360   18.0315  -35.6699 H   0  0  0  0  0  0  0  0  0  0  0  0
   -6.6528   17.4454  -35.0710 H   0  0  0  0  0  0  0  0  0  0  0  0
   -5.9930   19.2870  -34.2050 C   0  0  0  0  0  0  0  0  0  0  0  0
   -5.0470   19.7870  -33.9500 H   0  0  0  0  0  0  0  0  0  0  0  0
   -6.5443   19.8827  -34.9475 H   0  0  0  0  0  0  0  0  0  0  0  0
   -6.8120   19.1530  -32.9950 N   0  0  0  0  0  0  0  0  0  0  0  0
   -7.6000   20.2670  -32.5220 C   0  0  0  0  0  0  0  0  0  0  0  0
   -6.9910   21.5130  -32.2790 C   0  0  0  0  0  0  0  0  0  0  0  0
   -5.9119   21.6353  -32.4539 H   0  0  0  0  0  0  0  0  0  0  0  0
   -7.7440   22.5950  -31.8180 C   0  0  0  0  0  0  0  0  0  0  0  0
   -7.2562   23.5632  -31.6317 H   0  0  0  0  0  0  0  0  0  0  0  0
   -9.1140   22.4510  -31.5930 C   0  0  0  0  0  0  0  0  0  0  0  0
   -9.7039   23.3038  -31.2258 H   0  0  0  0  0  0  0  0  0  0  0  0
   -9.7350   21.2250  -31.8340 C   0  0  0  0  0  0  0  0  0  0  0  0
  -10.8154   21.1141  -31.6595 H   0  0  0  0  0  0  0  0  0  0  0  0
   -8.9880   20.1360  -32.2970 C   0  0  0  0  0  0  0  0  0  0  0  0
   -9.6280   18.9670  -32.5500 F   0  0  0  0  0  0  0  0  0  0  0  0
   -6.7720   17.8890  -32.2490 C   0  0  0  0  0  0  0  0  0  0  0  0
   -6.9638   18.0872  -31.1841 H   0  0  0  0  0  0  0  0  0  0  0  0
   -7.5416   17.2097  -32.6441 H   0  0  0  0  0  0  0  0  0  0  0  0
   -5.3930   17.2370  -32.4050 C   0  0  0  0  0  0  0  0  0  0  0  0
   -4.6391   17.8975  -31.9519 H   0  0  0  0  0  0  0  0  0  0  0  0
   -5.4322   16.2577  -31.9055 H   0  0  0  0  0  0  0  0  0  0  0  0
   -2.4670   20.4600  -27.9940 C   0  0  0  0  0  0  0  0  0  0  0  0
   -3.4660   21.1100  -27.5760 O   0  0  0  0  0  0  0  0  0  0  0  0
   -1.9700   19.4110  -27.2690 N   0  0  0  0  0  0  0  0  0  0  0  0
   -2.6380   18.9940  -26.0230 C   0  0  0  0  0  0  0  0  0  0  0  0
   -2.0605   19.3545  -25.1590 H   0  0  0  0  0  0  0  0  0  0  0  0
   -3.6516   19.4200  -25.9901 H   0  0  0  0  0  0  0  0  0  0  0  0
   -2.7004   17.8963  -25.9901 H   0  0  0  0  0  0  0  0  0  0  0  0
   -0.8940   18.6990  -27.7380 C   0  0  0  0  0  0  0  0  0  0  0  0
   -0.4830   17.6960  -27.0900 O   0  0  0  0  0  0  0  0  0  0  0  0
   -0.2610   19.0680  -28.9020 N   0  0  0  0  0  0  0  0  0  0  0  0
    0.9140   18.3220  -29.3840 C   0  0  0  0  0  0  0  0  0  0  0  0
    1.4930   17.9544  -28.5240 H   0  0  0  0  0  0  0  0  0  0  0  0
    0.5819   17.4690  -29.9940 H   0  0  0  0  0  0  0  0  0  0  0  0
    1.5446   18.9855  -29.9940 H   0  0  0  0  0  0  0  0  0  0  0  0
  1  2  1  0
  2  3  1  0
  3  4  2  0
  4  5  1  0
  5  6  1  0
  5  7  2  0
  7  8  1  0
  8  9  1  0
  8 10  1  0
  8 11  1  0
 11 12  1  0
 11 13  1  0
 11 14  1  0
 14 15  1  0
 15 16  1  0
 15 17  1  0
 15 18  1  0
 14 19  1  0
 19 20  1  0
 19 21  1  0
 19 22  1  0
 22 23  1  0
 22 24  1  0
 22 25  1  0
 25 26  1  0
 25 27  1  0
 25 28  1  0
 28 29  1  0
 29 30  1  0
 29 31  1  0
 29 32  1  0
 32 33  1  0
 32 34  1  0
 32 35  1  0
 35 36  1  0
 36 37  2  0
 37 38  1  0
 37 39  1  0
 39 40  1  0
 39 41  2  0
 41 42  1  0
 41 43  1  0
 43 44  1  0
 43 45  2  0
 45 46  1  0
 35 47  1  0
 47 48  1  0
 47 49  1  0
 47 50  1  0
 50 51  1  0
 50 52  1  0
  4 53  1  0
 53 54  2  0
 53 55  1  0
 55 56  1  0
 56 57  1  0
 56 58  1  0
 56 59  1  0
 55 60  1  0
 60 61  2  0
 60 62  1  0
 62 63  1  0
 63 64  1  0
 63 65  1  0
 63 66  1  0
 62  3  1  0
 50 28  1  0
 45 36  1  0
M  END
>  <UniqueID>  (30) 
29

>  <SMILES>  (30) 
CN(CCCN1CCN(c2ccccc2F)CC1)CC/N=C\c1c(O)n(C)c(=O)n(C)c1=O

>  <Energy>  (30) 
99.34411382432094

>  <Genealogy>  (30) 
CN(CCCN1CCN(c2ccccc2F)CC1)CC/N=C\c1c(O)n(C)c(=O)n(C)c1=O (cis-trans isomerization)
CN(CCCN1CCN(c2ccccc2F)CC1)CC/N=C\c1c(O)n(C)c(=O)n(C)c1=O (3D coordinates assigned)
CN(CCCN1CCN(c2ccccc2F)CC1)CC/N=C\c1c(O)n(C)c(=O)n(C)c1=O (nonaromatic ring conformer: 99.34411382432094 kcal/mol)

>  <smiles>  (30) 
CN(CCCN1CCN(c2ccccc2F)CC1)CCN=Cc1c(O)n(C)c(=O)n(C)c1=O

>  <score_type>  (30) 
oracle

>  <origin>  (30) 
adg

>  <m_score__min__energy>  (30) 
-8.6600000000000001

>  <m_primary>  (30) 
energy

$$$$
30:0
     RDKit          3D

 63 67  0  0  0  0  0  0  0  0999 V2000
   -7.9940   22.3250  -29.3540 O   0  0  0  0  0  0  0  0  0  0  0  0
   -7.4450   22.5220  -30.4690 C   0  0  0  0  0  0  0  0  0  0  0  0
   -6.7700   23.8600  -30.7360 C   0  0  1  0  0  0  0  0  0  0  0  0
   -7.0310   24.9650  -29.7170 C   0  0  0  0  0  0  0  0  0  0  0  0
   -5.8680   25.9320  -29.9160 C   0  0  0  0  0  0  0  0  0  0  0  0
   -4.9570   25.2750  -30.9560 C   0  0  0  0  0  0  0  0  0  0  0  0
   -5.3170   23.8490  -31.0210 N   0  0  0  0  0  0  0  0  0  0  0  0
   -4.3670   22.9930  -30.2330 C   0  0  0  0  0  0  0  0  0  0  0  0
   -3.5680   21.9520  -31.0440 C   0  0  0  0  0  0  0  0  0  0  0  0
   -2.7010   21.0140  -30.4490 C   0  0  0  0  0  0  0  0  0  0  0  0
   -1.9750   20.1090  -31.2300 C   0  0  0  0  0  0  0  0  0  0  0  0
   -2.0990   20.1210  -32.6180 C   0  0  0  0  0  0  0  0  0  0  0  0
   -2.9580   21.0320  -33.2290 C   0  0  0  0  0  0  0  0  0  0  0  0
   -3.6870   21.9370  -32.4520 C   0  0  0  0  0  0  0  0  0  0  0  0
   -3.6200   23.7610  -29.1450 C   0  0  0  0  0  0  0  0  0  0  0  0
   -2.2860   24.2090  -29.2820 C   0  0  0  0  0  0  0  0  0  0  0  0
   -1.6230   24.8110  -28.2070 C   0  0  0  0  0  0  0  0  0  0  0  0
   -2.2610   24.9460  -26.9740 C   0  0  0  0  0  0  0  0  0  0  0  0
   -3.5670   24.4880  -26.8130 C   0  0  0  0  0  0  0  0  0  0  0  0
   -4.2360   23.8890  -27.8840 C   0  0  0  0  0  0  0  0  0  0  0  0
   -7.5330   21.4960  -31.4920 N   0  0  0  0  0  0  0  0  0  0  0  0
   -8.4250   20.3420  -31.3190 C   0  0  0  0  0  0  0  0  0  0  0  0
   -7.6390   19.0540  -31.5440 C   0  0  0  0  0  0  0  0  0  0  0  0
   -6.8120   19.1170  -32.7630 N   0  0  0  0  0  0  0  0  0  0  0  0
   -6.1320   17.9210  -33.2260 C   0  0  0  0  0  0  0  0  0  0  0  0
   -4.7570   17.9490  -33.5420 C   0  0  0  0  0  0  0  0  0  0  0  0
   -4.1110   16.8070  -34.0220 C   0  0  0  0  0  0  0  0  0  0  0  0
   -4.8210   15.6170  -34.1900 C   0  0  0  0  0  0  0  0  0  0  0  0
   -6.1750   15.5600  -33.8600 C   0  0  0  0  0  0  0  0  0  0  0  0
   -6.8270   16.6980  -33.3760 C   0  0  0  0  0  0  0  0  0  0  0  0
   -6.8440   20.3300  -33.6020 C   0  0  0  0  0  0  0  0  0  0  0  0
   -6.7910   21.6140  -32.7580 C   0  0  0  0  0  0  0  0  0  0  0  0
   -7.2977   24.0933  -31.6725 H   0  0  0  0  0  0  0  0  0  0  0  0
   -7.9916   25.4623  -29.9167 H   0  0  0  0  0  0  0  0  0  0  0  0
   -7.0942   24.5848  -28.6867 H   0  0  0  0  0  0  0  0  0  0  0  0
   -6.2341   26.9016  -30.2846 H   0  0  0  0  0  0  0  0  0  0  0  0
   -5.3349   26.1256  -28.9735 H   0  0  0  0  0  0  0  0  0  0  0  0
   -5.1080   25.7458  -31.9386 H   0  0  0  0  0  0  0  0  0  0  0  0
   -3.8999   25.3956  -30.6768 H   0  0  0  0  0  0  0  0  0  0  0  0
   -5.0084   22.3116  -29.6548 H   0  0  0  0  0  0  0  0  0  0  0  0
   -2.5936   20.9932  -29.3544 H   0  0  0  0  0  0  0  0  0  0  0  0
   -1.3031   19.3845  -30.7465 H   0  0  0  0  0  0  0  0  0  0  0  0
   -1.5202   19.4131  -33.2295 H   0  0  0  0  0  0  0  0  0  0  0  0
   -3.0627   21.0391  -34.3240 H   0  0  0  0  0  0  0  0  0  0  0  0
   -4.3647   22.6495  -32.9450 H   0  0  0  0  0  0  0  0  0  0  0  0
   -1.7647   24.0831  -30.2424 H   0  0  0  0  0  0  0  0  0  0  0  0
   -0.5944   25.1793  -28.3347 H   0  0  0  0  0  0  0  0  0  0  0  0
   -1.7336   25.4136  -26.1295 H   0  0  0  0  0  0  0  0  0  0  0  0
   -4.0720   24.5980  -25.8420 H   0  0  0  0  0  0  0  0  0  0  0  0
   -5.2592   23.5116  -27.7404 H   0  0  0  0  0  0  0  0  0  0  0  0
   -8.8372   20.3467  -30.2991 H   0  0  0  0  0  0  0  0  0  0  0  0
   -9.2475   20.4017  -32.0470 H   0  0  0  0  0  0  0  0  0  0  0  0
   -6.9826   18.8827  -30.6781 H   0  0  0  0  0  0  0  0  0  0  0  0
   -8.3605   18.2326  -31.6652 H   0  0  0  0  0  0  0  0  0  0  0  0
   -4.1873   18.8805  -33.4089 H   0  0  0  0  0  0  0  0  0  0  0  0
   -3.0396   16.8457  -34.2683 H   0  0  0  0  0  0  0  0  0  0  0  0
   -4.3126   14.7241  -34.5827 H   0  0  0  0  0  0  0  0  0  0  0  0
   -6.7306   14.6183  -33.9807 H   0  0  0  0  0  0  0  0  0  0  0  0
   -7.8926   16.6418  -33.1088 H   0  0  0  0  0  0  0  0  0  0  0  0
   -5.9789   20.3152  -34.2812 H   0  0  0  0  0  0  0  0  0  0  0  0
   -7.7899   20.3306  -34.1635 H   0  0  0  0  0  0  0  0  0  0  0  0
   -5.7393   21.8408  -32.5290 H   0  0  0  0  0  0  0  0  0  0  0  0
   -7.2631   22.4156  -33.3449 H   0  0  0  0  0  0  0  0  0  0  0  0
  1  2  2  0
  2  3  1  0
  3  4  1  0
  4  5  1  0
  5  6  1  0
  6  7  1  0
  7  8  1  0
  8  9  1  0
  9 10  2  0
 10 11  1  0
 11 12  2  0
 12 13  1  0
 13 14  2  0
  8 15  1  0
 15 16  2  0
 16 17  1  0
 17 18  2  0
 18 19  1  0
 19 20  2  0
  2 21  1  0
 21 22  1  0
 22 23  1  0
 23 24  1  0
 24 25  1  0
 25 26  2  0
 26 27  1  0
 27 28  2  0
 28 29  1  0
 29 30  2  0
 24 31  1  0
 31 32  1  0
  7  3  1  0
 14  9  1  0
 20 15  1  0
 32 21  1  0
 30 25  1  0
  3 33  1  6
  4 34  1  0
  4 35  1  0
  5 36  1  0
  5 37  1  0
  6 38  1  0
  6 39  1  0
  8 40  1  0
 10 41  1  0
 11 42  1  0
 12 43  1  0
 13 44  1  0
 14 45  1  0
 16 46  1  0
 17 47  1  0
 18 48  1  0
 19 49  1  0
 20 50  1  0
 22 51  1  0
 22 52  1  0
 23 53  1  0
 23 54  1  0
 26 55  1  0
 27 56  1  0
 28 57  1  0
 29 58  1  0
 30 59  1  0
 31 60  1  0
 31 61  1  0
 32 62  1  0
 32 63  1  0
M  END
>  <UniqueID>  (31) 
30

>  <SMILES>  (31) 
O=C([C@H]1CCCN1C(c1ccccc1)c1ccccc1)N1CCN(c2ccccc2)CC1

>  <Energy>  (31) 
100.58182068682089

>  <Genealogy>  (31) 
O=C([C@H]1CCCN1C(c1ccccc1)c1ccccc1)N1CCN(c2ccccc2)CC1 (chirality)
O=C([C@H]1CCCN1C(c1ccccc1)c1ccccc1)N1CCN(c2ccccc2)CC1 (3D coordinates assigned)
O=C([C@H]1CCCN1C(c1ccccc1)c1ccccc1)N1CCN(c2ccccc2)CC1 (nonaromatic ring conformer: 100.58182068682089 kcal/mol)

>  <smiles>  (31) 
O=C(C1CCCN1C(c1ccccc1)c1ccccc1)N1CCN(c2ccccc2)CC1

>  <score_type>  (31) 
oracle

>  <origin>  (31) 
adg

>  <m_score__min__energy>  (31) 
-10.07

>  <m_primary>  (31) 
energy

$$$$
31:0
     RDKit          3D

 39 41  0  0  0  0  0  0  0  0999 V2000
   -3.7270   24.1890  -27.3600 C   0  0  0  0  0  0  0  0  0  0  0  0
   -2.4400   24.7050  -27.9930 C   0  0  0  0  0  0  0  0  0  0  0  0
   -2.6720   25.1150  -29.3400 O   0  0  0  0  0  0  0  0  0  0  0  0
   -3.6870   24.5890  -30.1520 C   0  0  0  0  0  0  0  0  0  0  0  0
   -4.8470   25.2770  -30.3290 N   0  0  0  0  0  0  0  0  0  0  0  0
   -5.8580   24.8120  -31.1040 C   0  0  0  0  0  0  0  0  0  0  0  0
   -5.7430   23.5790  -31.7610 C   0  0  0  0  0  0  0  0  0  0  0  0
   -6.8380   23.0870  -32.5550 N   0  0  0  0  0  0  0  0  0  0  0  0
   -8.0070   22.4360  -31.9660 C   0  0  0  0  0  0  0  0  0  0  0  0
   -7.9350   20.9490  -32.1790 C   0  0  0  0  0  0  0  0  0  0  0  0
   -8.7450   20.0900  -31.4170 C   0  0  0  0  0  0  0  0  0  0  0  0
   -8.6470   18.7060  -31.5780 C   0  0  0  0  0  0  0  0  0  0  0  0
   -7.7360   18.1680  -32.4910 C   0  0  0  0  0  0  0  0  0  0  0  0
   -6.9200   19.0150  -33.2450 C   0  0  0  0  0  0  0  0  0  0  0  0
   -7.0130   20.4020  -33.0880 C   0  0  0  0  0  0  0  0  0  0  0  0
   -4.5480   22.8390  -31.6150 C   0  0  0  0  0  0  0  0  0  0  0  0
   -4.3440   21.6170  -32.2900 C   0  0  0  0  0  0  0  0  0  0  0  0
   -3.1520   20.9080  -32.1290 C   0  0  0  0  0  0  0  0  0  0  0  0
   -2.1440   21.4060  -31.3050 C   0  0  0  0  0  0  0  0  0  0  0  0
   -2.3160   22.6220  -30.6410 C   0  0  0  0  0  0  0  0  0  0  0  0
   -3.5090   23.3510  -30.7930 C   0  0  0  0  0  0  0  0  0  0  0  0
   -3.6368   24.2251  -26.2643 H   0  0  0  0  0  0  0  0  0  0  0  0
   -4.5707   24.8184  -27.6794 H   0  0  0  0  0  0  0  0  0  0  0  0
   -3.9022   23.1511  -27.6794 H   0  0  0  0  0  0  0  0  0  0  0  0
   -2.0704   25.5631  -27.4125 H   0  0  0  0  0  0  0  0  0  0  0  0
   -1.6950   23.8957  -27.9920 H   0  0  0  0  0  0  0  0  0  0  0  0
   -6.7760   25.4073  -31.2181 H   0  0  0  0  0  0  0  0  0  0  0  0
   -6.8460   23.2670  -33.5840 H   0  0  0  0  0  0  0  0  0  0  0  0
   -8.0357   22.6476  -30.8869 H   0  0  0  0  0  0  0  0  0  0  0  0
   -8.9158   22.8244  -32.4489 H   0  0  0  0  0  0  0  0  0  0  0  0
   -9.4582   20.5087  -30.6917 H   0  0  0  0  0  0  0  0  0  0  0  0
   -9.2885   18.0379  -30.9846 H   0  0  0  0  0  0  0  0  0  0  0  0
   -7.6614   17.0777  -32.6160 H   0  0  0  0  0  0  0  0  0  0  0  0
   -6.2032   18.5906  -33.9633 H   0  0  0  0  0  0  0  0  0  0  0  0
   -6.3632   21.0659  -33.6771 H   0  0  0  0  0  0  0  0  0  0  0  0
   -5.1304   21.2196  -32.9485 H   0  0  0  0  0  0  0  0  0  0  0  0
   -3.0078   19.9525  -32.6546 H   0  0  0  0  0  0  0  0  0  0  0  0
   -1.2100   20.8391  -31.1775 H   0  0  0  0  0  0  0  0  0  0  0  0
   -1.5147   23.0117  -29.9960 H   0  0  0  0  0  0  0  0  0  0  0  0
  1  2  1  0
  2  3  1  0
  3  4  1  0
  4  5  2  0
  5  6  1  0
  6  7  2  0
  7  8  1  0
  8  9  1  0
  9 10  1  0
 10 11  2  0
 11 12  1  0
 12 13  2  0
 13 14  1  0
 14 15  2  0
  7 16  1  0
 16 17  2  0
 17 18  1  0
 18 19  2  0
 19 20  1  0
 20 21  2  0
 21  4  1  0
 15 10  1  0
 21 16  1  0
  1 22  1  0
  1 23  1  0
  1 24  1  0
  2 25  1  0
  2 26  1  0
  6 27  1  0
  8 28  1  0
  9 29  1  0
  9 30  1  0
 11 31  1  0
 12 32  1  0
 13 33  1  0
 14 34  1  0
 15 35  1  0
 17 36  1  0
 18 37  1  0
 19 38  1  0
 20 39  1  0
M  END
>  <UniqueID>  (32) 
31

>  <SMILES>  (32) 
CCOc1ncc(NCc2ccccc2)c2ccccc12

>  <Energy>  (32) 
44.36534996882511

>  <Genealogy>  (32) 
CCOc1ncc(NCc2ccccc2)c2ccccc12 (3D coordinates assigned)
CCOc1ncc(NCc2ccccc2)c2ccccc12 (optimized conformer: 44.36534996882511 kcal/mol)

>  <smiles>  (32) 
CCOc1ncc(NCc2ccccc2)c2ccccc12

>  <score_type>  (32) 
oracle

>  <origin>  (32) 
adg

>  <m_score__min__energy>  (32) 
-8.6400000000000006

>  <m_primary>  (32) 
energy

$$$$
32:0
     RDKit          3D

 36 37  0  0  0  0  0  0  0  0999 V2000
   -9.7370   21.3820  -32.0500 C   0  0  0  0  0  0  0  0  0  0  0  0
   -9.1030   20.1620  -31.3920 C   0  0  0  0  0  0  0  0  0  0  0  0
   -7.7150   20.0170  -31.8250 N   0  0  0  0  0  0  0  0  0  0  0  0
   -7.3070   19.0200  -32.5970 N   0  0  0  0  0  0  0  0  0  0  0  0
   -5.9890   19.1870  -32.8140 C   0  0  0  0  0  0  0  0  0  0  0  0
   -5.1720   18.2820  -33.6350 C   0  0  0  0  0  0  0  0  0  0  0  0
   -3.8680   18.5170  -34.0490 C   0  0  0  0  0  0  0  0  0  0  0  0
   -3.3380   17.4740  -34.8190 C   0  0  0  0  0  0  0  0  0  0  0  0
   -4.2200   16.4190  -35.0130 C   0  0  0  0  0  0  0  0  0  0  0  0
   -5.6610   16.7830  -34.2250 S   0  0  0  0  0  0  0  0  0  0  0  0
   -5.5410   20.3220  -32.1650 C   0  0  0  0  0  0  0  0  0  0  0  0
   -6.6710   20.8370  -31.5600 C   0  0  0  0  0  0  0  0  0  0  0  0
   -6.7010   22.0700  -30.6950 C   0  0  0  0  0  0  0  0  0  0  0  0
   -6.5460   23.3040  -31.4850 N   0  0  0  0  0  0  0  0  0  0  0  0
   -7.3680   23.4970  -32.6870 C   0  0  0  0  0  0  0  0  0  0  0  0
   -5.6950   24.3980  -31.0640 C   0  0  0  0  0  0  0  0  0  0  0  0
   -6.0730   25.5860  -31.2520 O   0  0  0  0  0  0  0  0  0  0  0  0
   -4.3450   24.1850  -30.4400 C   0  0  0  0  0  0  0  0  0  0  0  0
   -3.4990   25.2420  -30.7960 O   0  0  0  0  0  0  0  0  0  0  0  0
  -10.0960   22.0727  -31.2728 H   0  0  0  0  0  0  0  0  0  0  0  0
   -8.9893   21.8910  -32.6760 H   0  0  0  0  0  0  0  0  0  0  0  0
  -10.5832   21.0627  -32.6760 H   0  0  0  0  0  0  0  0  0  0  0  0
   -9.1315   20.2831  -30.2991 H   0  0  0  0  0  0  0  0  0  0  0  0
   -9.6656   19.2636  -31.6861 H   0  0  0  0  0  0  0  0  0  0  0  0
   -3.3078   19.4297  -33.7978 H   0  0  0  0  0  0  0  0  0  0  0  0
   -2.3184   17.4891  -35.2315 H   0  0  0  0  0  0  0  0  0  0  0  0
   -4.0120   15.5022  -35.5842 H   0  0  0  0  0  0  0  0  0  0  0  0
   -4.5174   20.7238  -32.1367 H   0  0  0  0  0  0  0  0  0  0  0  0
   -7.6634   22.1074  -30.1636 H   0  0  0  0  0  0  0  0  0  0  0  0
   -5.8586   22.0104  -29.9902 H   0  0  0  0  0  0  0  0  0  0  0  0
   -8.3994   23.7392  -32.3909 H   0  0  0  0  0  0  0  0  0  0  0  0
   -6.9548   24.3226  -33.2851 H   0  0  0  0  0  0  0  0  0  0  0  0
   -7.3654   22.5738  -33.2851 H   0  0  0  0  0  0  0  0  0  0  0  0
   -4.4476   24.1491  -29.3454 H   0  0  0  0  0  0  0  0  0  0  0  0
   -3.9193   23.2358  -30.7975 H   0  0  0  0  0  0  0  0  0  0  0  0
   -3.9100   25.6690  -31.5920 H   0  0  0  0  0  0  0  0  0  0  0  0
  1  2  1  0
  2  3  1  0
  3  4  1  0
  4  5  2  0
  5  6  1  0
  6  7  2  0
  7  8  1  0
  8  9  2  0
  9 10  1  0
  5 11  1  0
 11 12  2  0
 12 13  1  0
 13 14  1  0
 14 15  1  0
 14 16  1  0
 16 17  2  0
 16 18  1  0
 18 19  1  0
 12  3  1  0
 10  6  1  0
  1 20  1  0
  1 21  1  0
  1 22  1  0
  2 23  1  0
  2 24  1  0
  7 25  1  0
  8 26  1  0
  9 27  1  0
 11 28  1  0
 13 29  1  0
 13 30  1  0
 15 31  1  0
 15 32  1  0
 15 33  1  0
 18 34  1  0
 18 35  1  0
 19 36  1  0
M  END
>  <UniqueID>  (33) 
32

>  <SMILES>  (33) 
CCn1nc(-c2cccs2)cc1CN(C)C(=O)CO

>  <Energy>  (33) 
83.3049936347385

>  <Genealogy>  (33) 
CCn1nc(-c2cccs2)cc1CN(C)C(=O)CO (3D coordinates assigned)
CCn1nc(-c2cccs2)cc1CN(C)C(=O)CO (optimized conformer: 83.3049936347385 kcal/mol)

>  <smiles>  (33) 
CCn1nc(-c2cccs2)cc1CN(C)C(=O)CO

>  <score_type>  (33) 
oracle

>  <origin>  (33) 
adg

>  <m_score__min__energy>  (33) 
-7.3200000000000003

>  <m_primary>  (33) 
energy

$$$$
33:0
     RDKit          3D

 49 53  0  0  0  0  0  0  0  0999 V2000
   -9.3725   20.8285  -30.3760 H   0  0  0  0  0  0  0  0  0  0  0  0
   -8.7010   21.6610  -30.6330 C   0  0  0  0  0  0  0  0  0  0  0  0
   -7.9770   22.2750  -29.6590 N   0  0  0  0  0  0  0  0  0  0  0  0
   -7.1390   23.3100  -29.9370 C   0  0  0  0  0  0  0  0  0  0  0  0
   -6.5624   23.7815  -29.1275 H   0  0  0  0  0  0  0  0  0  0  0  0
   -7.0080   23.7780  -31.2540 C   0  0  0  0  0  0  0  0  0  0  0  0
   -6.0550   24.9010  -31.5750 C   0  0  0  0  0  0  0  0  0  0  0  0
   -6.6196   25.7330  -32.0210 H   0  0  0  0  0  0  0  0  0  0  0  0
   -5.2978   24.5223  -32.2773 H   0  0  0  0  0  0  0  0  0  0  0  0
   -5.3390   25.4020  -30.3190 C   0  0  0  0  0  0  0  0  0  0  0  0
   -5.6719   24.8140  -29.4510 H   0  0  0  0  0  0  0  0  0  0  0  0
   -5.5806   26.4641  -30.1652 H   0  0  0  0  0  0  0  0  0  0  0  0
   -3.8940   25.2570  -30.4760 N   0  0  0  0  0  0  0  0  0  0  0  0
   -3.1480   24.2620  -30.0820 C   0  0  0  0  0  0  0  0  0  0  0  0
   -2.1040   24.5190  -29.2450 N   0  0  0  0  0  0  0  0  0  0  0  0
   -1.2820   23.5250  -28.7950 C   0  0  0  0  0  0  0  0  0  0  0  0
   -0.2190   23.8280  -27.9370 C   0  0  0  0  0  0  0  0  0  0  0  0
   -0.0448   24.8681  -27.6241 H   0  0  0  0  0  0  0  0  0  0  0  0
    0.6220   22.8100  -27.4770 C   0  0  0  0  0  0  0  0  0  0  0  0
    1.4568   23.0520  -26.8028 H   0  0  0  0  0  0  0  0  0  0  0  0
    0.4060   21.4840  -27.8710 C   0  0  0  0  0  0  0  0  0  0  0  0
    1.0713   20.6883  -27.5047 H   0  0  0  0  0  0  0  0  0  0  0  0
   -0.6530   21.1670  -28.7290 C   0  0  0  0  0  0  0  0  0  0  0  0
   -0.8202   20.1246  -29.0379 H   0  0  0  0  0  0  0  0  0  0  0  0
   -1.5010   22.1840  -29.1940 C   0  0  0  0  0  0  0  0  0  0  0  0
   -2.5810   21.9560  -30.0520 C   0  0  0  0  0  0  0  0  0  0  0  0
   -3.3600   22.9670  -30.4650 N   0  0  0  0  0  0  0  0  0  0  0  0
   -4.2980   22.4790  -31.2600 N   0  0  0  0  0  0  0  0  0  0  0  0
   -4.0630   21.1480  -31.3140 C   0  0  0  0  0  0  0  0  0  0  0  0
   -4.8820   20.2120  -32.0960 C   0  0  0  0  0  0  0  0  0  0  0  0
   -4.7080   19.8620  -33.4220 C   0  0  0  0  0  0  0  0  0  0  0  0
   -3.9115   20.2366  -34.0817 H   0  0  0  0  0  0  0  0  0  0  0  0
   -5.6710   18.9880  -33.7770 N   0  0  0  0  0  0  0  0  0  0  0  0
   -6.4310   18.7740  -32.7140 N   0  0  0  0  0  0  0  0  0  0  0  0
   -7.6180   17.9260  -32.7200 C   0  0  0  0  0  0  0  0  0  0  0  0
   -7.3639   16.9425  -32.2979 H   0  0  0  0  0  0  0  0  0  0  0  0
   -7.9713   17.8108  -33.7553 H   0  0  0  0  0  0  0  0  0  0  0  0
   -8.7230   18.5610  -31.8860 C   0  0  0  0  0  0  0  0  0  0  0  0
   -8.4966   18.4309  -30.8174 H   0  0  0  0  0  0  0  0  0  0  0  0
   -8.7877   19.6341  -32.1191 H   0  0  0  0  0  0  0  0  0  0  0  0
   -9.6827   18.0766  -32.1191 H   0  0  0  0  0  0  0  0  0  0  0  0
   -5.9900   19.5080  -31.6740 C   0  0  0  0  0  0  0  0  0  0  0  0
   -6.4343   19.5400  -30.6682 H   0  0  0  0  0  0  0  0  0  0  0  0
   -2.9930   20.7840  -30.5680 N   0  0  0  0  0  0  0  0  0  0  0  0
   -2.5950   19.8290  -30.4320 H   0  0  0  0  0  0  0  0  0  0  0  0
   -7.7390   23.1460  -32.2700 C   0  0  0  0  0  0  0  0  0  0  0  0
   -7.6397   23.4851  -33.3117 H   0  0  0  0  0  0  0  0  0  0  0  0
   -8.5930   22.0860  -31.9590 C   0  0  0  0  0  0  0  0  0  0  0  0
   -9.1748   21.5907  -32.7503 H   0  0  0  0  0  0  0  0  0  0  0  0
  1  2  1  0
  2  3  2  0
  3  4  1  0
  4  5  1  0
  4  6  2  0
  6  7  1  0
  7  8  1  0
  7  9  1  0
  7 10  1  0
 10 11  1  0
 10 12  1  0
 10 13  1  0
 13 14  2  0
 14 15  1  0
 15 16  1  0
 16 17  2  0
 17 18  1  0
 17 19  1  0
 19 20  1  0
 19 21  2  0
 21 22  1  0
 21 23  1  0
 23 24  1  0
 23 25  2  0
 25 26  1  0
 26 27  1  0
 27 28  1  0
 28 29  2  0
 29 30  1  0
 30 31  1  0
 31 32  1  0
 31 33  2  0
 33 34  1  0
 34 35  1  0
 35 36  1  0
 35 37  1  0
 35 38  1  0
 38 39  1  0
 38 40  1  0
 38 41  1  0
 34 42  1  0
 42 43  1  0
 29 44  1  0
 44 45  1  0
  6 46  1  0
 46 47  1  0
 46 48  2  0
 48 49  1  0
 48  2  1  0
 27 14  1  0
 42 30  2  0
 25 16  1  0
 44 26  2  0
M  CHG  2  15  -1  44   1
M  END
>  <UniqueID>  (34) 
33

>  <SMILES>  (34) 
CCn1cc(-c2nn3/c(=N\CCc4cccnc4)[n-]c4ccccc4c3[nH+]2)cn1

>  <Energy>  (34) 
125.56278630832242

>  <Genealogy>  (34) 
CCn1cc(-c2nn3c(=NCCc4cccnc4)[n-]c4ccccc4c3[nH+]2)cn1 (protonated)
CCn1cc(-c2nn3/c(=N\CCc4cccnc4)[n-]c4ccccc4c3[nH+]2)cn1 (cis-trans isomerization)
CCn1cc(-c2nn3/c(=N\CCc4cccnc4)[n-]c4ccccc4c3[nH+]2)cn1 (3D coordinates assigned)
CCn1cc(-c2nn3/c(=N\CCc4cccnc4)[n-]c4ccccc4c3[nH+]2)cn1 (optimized conformer: 125.56278630832242 kcal/mol)

>  <smiles>  (34) 
CCn1cc(-c2nc3c4ccccc4[nH]c(=NCCc4cccnc4)n3n2)cn1

>  <score_type>  (34) 
oracle

>  <origin>  (34) 
adg

>  <m_score__min__energy>  (34) 
-9.2100000000000009

>  <m_primary>  (34) 
energy

$$$$
34:0
     RDKit          3D

 50 53  0  0  0  0  0  0  0  0999 V2000
   -1.2630   21.1950  -26.0270 C   0  0  0  0  0  0  0  0  0  0  0  0
   -1.5640   21.1270  -27.4960 C   0  0  0  0  0  0  0  0  0  0  0  0
   -0.7290   20.4030  -28.3580 C   0  0  0  0  0  0  0  0  0  0  0  0
   -1.0330   20.3050  -29.7180 C   0  0  0  0  0  0  0  0  0  0  0  0
   -2.1850   20.9210  -30.2360 C   0  0  0  0  0  0  0  0  0  0  0  0
   -2.5300   20.7840  -31.6290 N   0  0  0  0  0  0  0  0  0  0  0  0
   -2.1750   19.5730  -32.3860 C   0  0  0  0  0  0  0  0  0  0  0  0
   -3.4550   18.8430  -32.8140 C   0  0  0  0  0  0  0  0  0  0  0  0
   -4.5140   19.7990  -33.1800 N   0  0  0  0  0  0  0  0  0  0  0  0
   -5.8880   19.4290  -32.9670 C   0  0  0  0  0  0  0  0  0  0  0  0
   -6.2580   18.0750  -32.9340 C   0  0  0  0  0  0  0  0  0  0  0  0
   -7.5760   17.7300  -32.6330 C   0  0  0  0  0  0  0  0  0  0  0  0
   -8.5070   18.7270  -32.3420 C   0  0  0  0  0  0  0  0  0  0  0  0
   -8.1070   20.0670  -32.3760 C   0  0  0  0  0  0  0  0  0  0  0  0
   -9.2560   21.3610  -31.9100 S   0  0  0  0  0  0  0  0  0  0  0  0
   -7.9290   22.4520  -31.3960 C   0  0  0  0  0  0  0  0  0  0  0  0
   -7.4030   23.3910  -32.2930 C   0  0  0  0  0  0  0  0  0  0  0  0
   -6.3430   24.2170  -31.9030 C   0  0  0  0  0  0  0  0  0  0  0  0
   -5.8130   24.1120  -30.6130 C   0  0  0  0  0  0  0  0  0  0  0  0
   -6.3450   23.1830  -29.7110 C   0  0  0  0  0  0  0  0  0  0  0  0
   -7.4010   22.3540  -30.1010 C   0  0  0  0  0  0  0  0  0  0  0  0
   -6.8250   20.3880  -32.7050 N   0  0  0  0  0  0  0  0  0  0  0  0
   -4.1490   21.1930  -33.4620 C   0  0  0  0  0  0  0  0  0  0  0  0
   -3.4090   21.7850  -32.2560 C   0  0  0  0  0  0  0  0  0  0  0  0
   -3.0340   21.6240  -29.3650 C   0  0  0  0  0  0  0  0  0  0  0  0
   -2.7260   21.7260  -28.0060 C   0  0  0  0  0  0  0  0  0  0  0  0
   -2.1795   20.9880  -25.4550 H   0  0  0  0  0  0  0  0  0  0  0  0
   -0.4966   20.4474  -25.7748 H   0  0  0  0  0  0  0  0  0  0  0  0
   -0.8924   22.1995  -25.7748 H   0  0  0  0  0  0  0  0  0  0  0  0
    0.1705   19.9093  -27.9615 H   0  0  0  0  0  0  0  0  0  0  0  0
   -0.3663   19.7420  -30.3878 H   0  0  0  0  0  0  0  0  0  0  0  0
   -1.5978   19.8550  -33.2789 H   0  0  0  0  0  0  0  0  0  0  0  0
   -1.5691   18.9090  -31.7520 H   0  0  0  0  0  0  0  0  0  0  0  0
   -3.2315   18.2050  -33.6817 H   0  0  0  0  0  0  0  0  0  0  0  0
   -3.8099   18.2356  -31.9684 H   0  0  0  0  0  0  0  0  0  0  0  0
   -5.5144   17.2921  -33.1439 H   0  0  0  0  0  0  0  0  0  0  0  0
   -7.8805   16.6730  -32.6252 H   0  0  0  0  0  0  0  0  0  0  0  0
   -9.5442   18.4625  -32.0886 H   0  0  0  0  0  0  0  0  0  0  0  0
   -7.8240   23.4790  -33.3054 H   0  0  0  0  0  0  0  0  0  0  0  0
   -5.9266   24.9488  -32.6109 H   0  0  0  0  0  0  0  0  0  0  0  0
   -4.9780   24.7595  -30.3071 H   0  0  0  0  0  0  0  0  0  0  0  0
   -5.9318   23.1052  -28.6945 H   0  0  0  0  0  0  0  0  0  0  0  0
   -7.8179   21.6243  -29.3913 H   0  0  0  0  0  0  0  0  0  0  0  0
   -6.5480   21.3930  -32.6940 H   0  0  0  0  0  0  0  0  0  0  0  0
   -3.4955   21.2287  -34.3461 H   0  0  0  0  0  0  0  0  0  0  0  0
   -5.0607   21.7777  -33.6543 H   0  0  0  0  0  0  0  0  0  0  0  0
   -2.8003   22.6377  -32.5913 H   0  0  0  0  0  0  0  0  0  0  0  0
   -4.1537   22.1091  -31.5142 H   0  0  0  0  0  0  0  0  0  0  0  0
   -3.9471   22.0972  -29.7554 H   0  0  0  0  0  0  0  0  0  0  0  0
   -3.3977   22.2786  -27.3326 H   0  0  0  0  0  0  0  0  0  0  0  0
  1  2  1  0
  2  3  2  0
  3  4  1  0
  4  5  2  0
  5  6  1  0
  6  7  1  0
  7  8  1  0
  8  9  1  0
  9 10  1  0
 10 11  2  0
 11 12  1  0
 12 13  2  0
 13 14  1  0
 14 15  1  0
 15 16  1  0
 16 17  2  0
 17 18  1  0
 18 19  2  0
 19 20  1  0
 20 21  2  0
 14 22  2  0
  9 23  1  0
 23 24  1  0
  5 25  1  0
 25 26  2  0
 26  2  1  0
 24  6  1  0
 22 10  1  0
 21 16  1  0
  1 27  1  0
  1 28  1  0
  1 29  1  0
  3 30  1  0
  4 31  1  0
  7 32  1  0
  7 33  1  0
  8 34  1  0
  8 35  1  0
 11 36  1  0
 12 37  1  0
 13 38  1  0
 17 39  1  0
 18 40  1  0
 19 41  1  0
 20 42  1  0
 21 43  1  0
 22 44  1  0
 23 45  1  0
 23 46  1  0
 24 47  1  0
 24 48  1  0
 25 49  1  0
 26 50  1  0
M  CHG  1  22   1
M  END
>  <UniqueID>  (35) 
34

>  <SMILES>  (35) 
Cc1ccc(N2CCN(c3cccc(Sc4ccccc4)[nH+]3)CC2)cc1

>  <Energy>  (35) 
56.44389425801144

>  <Genealogy>  (35) 
Cc1ccc(N2CCN(c3cccc(Sc4ccccc4)[nH+]3)CC2)cc1 (protonated)
Cc1ccc(N2CCN(c3cccc(Sc4ccccc4)[nH+]3)CC2)cc1 (3D coordinates assigned)
Cc1ccc(N2CCN(c3cccc(Sc4ccccc4)[nH+]3)CC2)cc1 (nonaromatic ring conformer: 56.44389425801144 kcal/mol)

>  <smiles>  (35) 
Cc1ccc(N2CCN(c3cccc(Sc4ccccc4)n3)CC2)cc1

>  <score_type>  (35) 
oracle

>  <origin>  (35) 
adg

>  <m_score__min__energy>  (35) 
-7.9100000000000001

>  <m_primary>  (35) 
energy

$$$$
35:0
     RDKit          3D

 48 51  0  0  0  0  0  0  0  0999 V2000
   -6.5790   24.7900  -29.8320 C   0  0  0  0  0  0  0  0  0  0  0  0
   -5.5120   25.6740  -30.4520 C   0  0  0  0  0  0  0  0  0  0  0  0
   -4.6380   24.8690  -31.2180 O   0  0  0  0  0  0  0  0  0  0  0  0
   -3.8720   24.0340  -30.3730 C   0  0  0  0  0  0  0  0  0  0  0  0
   -3.3750   22.8790  -31.1250 N   0  0  0  0  0  0  0  0  0  0  0  0
   -2.1850   22.2510  -30.9820 C   0  0  0  0  0  0  0  0  0  0  0  0
   -0.8920   22.7540  -29.8380 S   0  0  0  0  0  0  0  0  0  0  0  0
   -0.8790   21.1820  -28.9660 C   0  0  0  0  0  0  0  0  0  0  0  0
    0.2570   20.3560  -29.0770 C   0  0  0  0  0  0  0  0  0  0  0  0
    0.2580   19.1470  -28.3910 C   0  0  0  0  0  0  0  0  0  0  0  0
   -0.7850   18.7610  -27.6170 C   0  0  0  0  0  0  0  0  0  0  0  0
   -1.9190   19.5480  -27.4650 C   0  0  0  0  0  0  0  0  0  0  0  0
   -1.9680   20.7810  -28.1430 C   0  0  0  0  0  0  0  0  0  0  0  0
   -3.4790   21.9210  -27.8380 Br  0  0  0  0  0  0  0  0  0  0  0  0
   -0.5090   17.5330  -27.0500 O   0  0  0  0  0  0  0  0  0  0  0  0
    0.7860   17.1170  -27.5050 C   0  0  0  0  0  0  0  0  0  0  0  0
    1.2400   18.1770  -28.3570 O   0  0  0  0  0  0  0  0  0  0  0  0
   -2.0310   21.2090  -31.8280 N   0  0  0  0  0  0  0  0  0  0  0  0
   -3.1830   21.1740  -32.5250 C   0  0  0  0  0  0  0  0  0  0  0  0
   -3.4620   20.1760  -33.6030 C   0  0  0  0  0  0  0  0  0  0  0  0
   -4.0170   22.1800  -32.0790 C   0  0  0  0  0  0  0  0  0  0  0  0
   -5.3130   22.5120  -32.5990 N   0  0  0  0  0  0  0  0  0  0  0  0
   -6.4850   21.7120  -32.3750 C   0  0  0  0  0  0  0  0  0  0  0  0
   -7.5780   22.2070  -31.6380 C   0  0  0  0  0  0  0  0  0  0  0  0
   -8.7130   21.4150  -31.4460 C   0  0  0  0  0  0  0  0  0  0  0  0
   -8.7730   20.1300  -31.9940 C   0  0  0  0  0  0  0  0  0  0  0  0
   -7.6980   19.6380  -32.7400 C   0  0  0  0  0  0  0  0  0  0  0  0
   -6.5620   20.4270  -32.9360 C   0  0  0  0  0  0  0  0  0  0  0  0
   -6.5105   24.8467  -28.7356 H   0  0  0  0  0  0  0  0  0  0  0  0
   -7.5728   25.1330  -30.1556 H   0  0  0  0  0  0  0  0  0  0  0  0
   -6.4268   23.7497  -30.1556 H   0  0  0  0  0  0  0  0  0  0  0  0
   -5.9861   26.4251  -31.1009 H   0  0  0  0  0  0  0  0  0  0  0  0
   -4.9473   26.1875  -29.6599 H   0  0  0  0  0  0  0  0  0  0  0  0
   -3.0193   24.6033  -29.9744 H   0  0  0  0  0  0  0  0  0  0  0  0
   -4.5047   23.6805  -29.5455 H   0  0  0  0  0  0  0  0  0  0  0  0
    1.1190   20.6593  -29.6894 H   0  0  0  0  0  0  0  0  0  0  0  0
   -2.7559   19.2172  -26.8324 H   0  0  0  0  0  0  0  0  0  0  0  0
    1.4705   16.9853  -26.6541 H   0  0  0  0  0  0  0  0  0  0  0  0
    0.7478   16.1521  -28.0318 H   0  0  0  0  0  0  0  0  0  0  0  0
   -3.7317   19.2112  -33.1486 H   0  0  0  0  0  0  0  0  0  0  0  0
   -4.2947   20.5331  -34.2267 H   0  0  0  0  0  0  0  0  0  0  0  0
   -2.5648   20.0495  -34.2267 H   0  0  0  0  0  0  0  0  0  0  0  0
   -5.4100   23.3930  -33.1500 H   0  0  0  0  0  0  0  0  0  0  0  0
   -7.5382   23.2204  -31.2121 H   0  0  0  0  0  0  0  0  0  0  0  0
   -9.5610   21.8031  -30.8626 H   0  0  0  0  0  0  0  0  0  0  0  0
   -9.6657   19.5065  -31.8382 H   0  0  0  0  0  0  0  0  0  0  0  0
   -7.7467   18.6281  -33.1733 H   0  0  0  0  0  0  0  0  0  0  0  0
   -5.7233   20.0396  -33.5330 H   0  0  0  0  0  0  0  0  0  0  0  0
  1  2  1  0
  2  3  1  0
  3  4  1  0
  4  5  1  0
  5  6  1  0
  6  7  1  0
  7  8  1  0
  8  9  2  0
  9 10  1  0
 10 11  2  0
 11 12  1  0
 12 13  2  0
 13 14  1  0
 11 15  1  0
 15 16  1  0
 16 17  1  0
  6 18  2  0
 18 19  1  0
 19 20  1  0
 19 21  2  0
 21 22  1  0
 22 23  1  0
 23 24  2  0
 24 25  1  0
 25 26  2  0
 26 27  1  0
 27 28  2  0
 21  5  1  0
 28 23  1  0
 13  8  1  0
 17 10  1  0
  1 29  1  0
  1 30  1  0
  1 31  1  0
  2 32  1  0
  2 33  1  0
  4 34  1  0
  4 35  1  0
  9 36  1  0
 12 37  1  0
 16 38  1  0
 16 39  1  0
 20 40  1  0
 20 41  1  0
 20 42  1  0
 22 43  1  0
 24 44  1  0
 25 45  1  0
 26 46  1  0
 27 47  1  0
 28 48  1  0
M  END
>  <UniqueID>  (36) 
35

>  <SMILES>  (36) 
CCOCn1c(Sc2cc3c(cc2Br)OCO3)nc(C)c1Nc1ccccc1

>  <Energy>  (36) 
110.88418750869837

>  <Genealogy>  (36) 
CCOCn1c(Sc2cc3c(cc2Br)OCO3)nc(C)c1Nc1ccccc1 (3D coordinates assigned)
CCOCn1c(Sc2cc3c(cc2Br)OCO3)nc(C)c1Nc1ccccc1 (nonaromatic ring conformer: 110.88418750869837 kcal/mol)

>  <smiles>  (36) 
CCOCn1c(Sc2cc3c(cc2Br)OCO3)nc(C)c1Nc1ccccc1

>  <score_type>  (36) 
oracle

>  <origin>  (36) 
adg

>  <m_score__min__energy>  (36) 
-9.0199999999999996

>  <m_primary>  (36) 
energy

$$$$
36:0
     RDKit          3D

 34 36  0  0  0  0  0  0  0  0999 V2000
   -9.8571   19.0594  -33.1930 H   0  0  0  0  0  0  0  0  0  0  0  0
   -9.1130   19.7650  -32.7950 C   0  0  0  0  0  0  0  0  0  0  0  0
   -9.5240   20.8440  -32.0070 C   0  0  0  0  0  0  0  0  0  0  0  0
  -10.5917   20.9853  -31.7831 H   0  0  0  0  0  0  0  0  0  0  0  0
   -8.5800   21.7440  -31.5030 C   0  0  0  0  0  0  0  0  0  0  0  0
   -8.9077   22.5904  -30.8815 H   0  0  0  0  0  0  0  0  0  0  0  0
   -7.2140   21.5720  -31.7870 C   0  0  0  0  0  0  0  0  0  0  0  0
   -6.2370   22.4930  -31.2620 N   0  0  0  0  0  0  0  0  0  0  0  0
   -6.5470   23.8250  -31.2220 C   0  0  0  0  0  0  0  0  0  0  0  0
   -7.5308   24.1639  -31.5789 H   0  0  0  0  0  0  0  0  0  0  0  0
   -5.6330   24.7590  -30.7350 C   0  0  0  0  0  0  0  0  0  0  0  0
   -5.8920   25.8278  -30.7113 H   0  0  0  0  0  0  0  0  0  0  0  0
   -4.3900   24.3280  -30.2790 C   0  0  0  0  0  0  0  0  0  0  0  0
   -3.4890   25.2290  -29.8030 N   0  0  0  0  0  0  0  0  0  0  0  0
   -2.2630   24.8620  -29.3440 C   0  0  0  0  0  0  0  0  0  0  0  0
   -1.4600   25.7900  -28.9050 N   0  0  0  0  0  0  0  0  0  0  0  0
   -0.9330   25.9010  -27.5460 C   0  0  0  0  0  0  0  0  0  0  0  0
   -0.6425   26.9437  -27.3500 H   0  0  0  0  0  0  0  0  0  0  0  0
   -0.0542   25.2479  -27.4405 H   0  0  0  0  0  0  0  0  0  0  0  0
   -2.0000   25.4770  -26.5490 C   0  0  0  0  0  0  0  0  0  0  0  0
   -1.6254   25.6259  -25.5255 H   0  0  0  0  0  0  0  0  0  0  0  0
   -2.9049   26.0839  -26.7001 H   0  0  0  0  0  0  0  0  0  0  0  0
   -2.2416   24.4145  -26.7001 H   0  0  0  0  0  0  0  0  0  0  0  0
   -1.9050   23.4990  -29.3590 C   0  0  0  0  0  0  0  0  0  0  0  0
   -0.9177   23.1829  -28.9910 H   0  0  0  0  0  0  0  0  0  0  0  0
   -2.8090   22.5520  -29.8430 C   0  0  0  0  0  0  0  0  0  0  0  0
   -2.5343   21.4869  -29.8571 H   0  0  0  0  0  0  0  0  0  0  0  0
   -4.0690   22.9580  -30.3120 C   0  0  0  0  0  0  0  0  0  0  0  0
   -5.0190   22.0430  -30.8090 C   0  0  0  0  0  0  0  0  0  0  0  0
   -4.7540   20.8090  -30.8210 O   0  0  0  0  0  0  0  0  0  0  0  0
   -6.8090   20.4800  -32.5750 C   0  0  0  0  0  0  0  0  0  0  0  0
   -5.7420   20.3311  -32.7973 H   0  0  0  0  0  0  0  0  0  0  0  0
   -7.7560   19.5830  -33.0770 C   0  0  0  0  0  0  0  0  0  0  0  0
   -7.4329   18.7323  -33.6951 H   0  0  0  0  0  0  0  0  0  0  0  0
  1  2  1  0
  2  3  2  0
  3  4  1  0
  3  5  1  0
  5  6  1  0
  5  7  2  0
  7  8  1  0
  8  9  1  0
  9 10  1  0
  9 11  2  0
 11 12  1  0
 11 13  1  0
 13 14  1  0
 14 15  1  0
 15 16  2  0
 16 17  1  0
 17 18  1  0
 17 19  1  0
 17 20  1  0
 20 21  1  0
 20 22  1  0
 20 23  1  0
 15 24  1  0
 24 25  1  0
 24 26  2  0
 26 27  1  0
 26 28  1  0
 28 29  1  0
 29 30  2  0
  7 31  1  0
 31 32  1  0
 31 33  2  0
 33 34  1  0
 33  2  1  0
 29  8  1  0
 28 13  2  0
M  CHG  1  14  -1
M  END
>  <UniqueID>  (37) 
36

>  <SMILES>  (37) 
CC/N=c1\ccc2c(=O)n(-c3ccccc3)ccc2[n-]1

>  <Energy>  (37) 
47.99322789991557

>  <Genealogy>  (37) 
CCN=c1ccc2c(=O)n(-c3ccccc3)ccc2[n-]1 (protonated)
CC/N=c1\ccc2c(=O)n(-c3ccccc3)ccc2[n-]1 (cis-trans isomerization)
CC/N=c1\ccc2c(=O)n(-c3ccccc3)ccc2[n-]1 (3D coordinates assigned)
CC/N=c1\ccc2c(=O)n(-c3ccccc3)ccc2[n-]1 (optimized conformer: 47.99322789991557 kcal/mol)

>  <smiles>  (37) 
CCN=c1ccc2c(=O)n(-c3ccccc3)ccc2[nH]1

>  <score_type>  (37) 
oracle

>  <origin>  (37) 
adg

>  <m_score__min__energy>  (37) 
-9.2599999999999998

>  <m_primary>  (37) 
energy

$$$$
37:0
     RDKit          3D

 45 48  0  0  0  0  0  0  0  0999 V2000
   -4.8370   14.3600  -34.2900 C   0  0  0  0  0  0  0  0  0  0  0  0
   -4.6120   15.7400  -34.5550 O   0  0  0  0  0  0  0  0  0  0  0  0
   -5.3690   16.7850  -34.0060 C   0  0  0  0  0  0  0  0  0  0  0  0
   -6.0630   16.6560  -32.7870 C   0  0  0  0  0  0  0  0  0  0  0  0
   -6.8050   17.7280  -32.2810 C   0  0  0  0  0  0  0  0  0  0  0  0
   -6.8590   18.9400  -32.9820 C   0  0  0  0  0  0  0  0  0  0  0  0
   -7.6220   20.0450  -32.4590 N   0  0  0  0  0  0  0  0  0  0  0  0
   -8.9920   19.9890  -32.5360 C   0  0  0  0  0  0  0  0  0  0  0  0
   -9.5660   18.9950  -33.0630 O   0  0  0  0  0  0  0  0  0  0  0  0
   -9.7760   21.0270  -32.0310 C   0  0  0  0  0  0  0  0  0  0  0  0
   -9.1690   22.1280  -31.4410 C   0  0  0  0  0  0  0  0  0  0  0  0
   -7.7770   22.1960  -31.3610 C   0  0  0  0  0  0  0  0  0  0  0  0
   -7.1560   23.3070  -30.7700 C   0  0  0  0  0  0  0  0  0  0  0  0
   -5.7620   23.3780  -30.6900 C   0  0  0  0  0  0  0  0  0  0  0  0
   -4.9940   24.7710  -29.9320 S   0  0  0  0  0  0  0  0  0  0  0  0
   -3.9810   25.3880  -30.8570 O   0  0  0  0  0  0  0  0  0  0  0  0
   -6.0500   25.7920  -29.6150 O   0  0  0  0  0  0  0  0  0  0  0  0
   -4.2060   24.2970  -28.4600 N   0  0  0  0  0  0  0  0  0  0  0  0
   -2.9680   24.5410  -28.1330 C   0  0  0  0  0  0  0  0  0  0  0  0
   -2.6460   24.6910  -26.7820 C   0  0  0  0  0  0  0  0  0  0  0  0
   -1.3280   24.9440  -26.4150 C   0  0  0  0  0  0  0  0  0  0  0  0
   -0.3560   25.0410  -27.4040 C   0  0  0  0  0  0  0  0  0  0  0  0
   -0.7110   24.8900  -28.7070 N   0  0  0  0  0  0  0  0  0  0  0  0
   -1.9730   24.6480  -29.0680 N   0  0  0  0  0  0  0  0  0  0  0  0
   -4.9830   22.3430  -31.2150 C   0  0  0  0  0  0  0  0  0  0  0  0
   -5.5890   21.2320  -31.8070 C   0  0  0  0  0  0  0  0  0  0  0  0
   -6.9970   21.1330  -31.8840 C   0  0  0  0  0  0  0  0  0  0  0  0
   -6.1720   19.0710  -34.1960 C   0  0  0  0  0  0  0  0  0  0  0  0
   -5.4320   17.9990  -34.7020 C   0  0  0  0  0  0  0  0  0  0  0  0
   -4.8639   14.1950  -33.2028 H   0  0  0  0  0  0  0  0  0  0  0  0
   -5.7969   14.0537  -34.7312 H   0  0  0  0  0  0  0  0  0  0  0  0
   -4.0241   13.7646  -34.7312 H   0  0  0  0  0  0  0  0  0  0  0  0
   -6.0211   15.7080  -32.2307 H   0  0  0  0  0  0  0  0  0  0  0  0
   -7.3476   17.6194  -31.3303 H   0  0  0  0  0  0  0  0  0  0  0  0
  -10.8725   20.9733  -32.1001 H   0  0  0  0  0  0  0  0  0  0  0  0
   -9.7844   22.9455  -31.0372 H   0  0  0  0  0  0  0  0  0  0  0  0
   -7.7694   24.1266  -30.3674 H   0  0  0  0  0  0  0  0  0  0  0  0
   -3.4290   24.6097  -26.0137 H   0  0  0  0  0  0  0  0  0  0  0  0
   -1.0585   25.0657  -25.3555 H   0  0  0  0  0  0  0  0  0  0  0  0
    0.6919   25.2384  -27.1341 H   0  0  0  0  0  0  0  0  0  0  0  0
   -2.1690   24.5470  -30.0870 H   0  0  0  0  0  0  0  0  0  0  0  0
   -3.8860   22.4036  -31.1617 H   0  0  0  0  0  0  0  0  0  0  0  0
   -4.9637   20.4256  -32.2176 H   0  0  0  0  0  0  0  0  0  0  0  0
   -6.2152   20.0193  -34.7518 H   0  0  0  0  0  0  0  0  0  0  0  0
   -4.8943   18.1095  -35.6552 H   0  0  0  0  0  0  0  0  0  0  0  0
  1  2  1  0
  2  3  1  0
  3  4  2  0
  4  5  1  0
  5  6  2  0
  6  7  1  0
  7  8  1  0
  8  9  2  0
  8 10  1  0
 10 11  2  0
 11 12  1  0
 12 13  2  0
 13 14  1  0
 14 15  1  0
 15 16  2  0
 15 17  2  0
 15 18  1  0
 18 19  2  3
 19 20  1  0
 20 21  2  0
 21 22  1  0
 22 23  2  0
 23 24  1  0
 14 25  2  0
 25 26  1  0
 26 27  2  0
  6 28  1  0
 28 29  2  0
 29  3  1  0
 27  7  1  0
 27 12  1  0
 24 19  1  0
  1 30  1  0
  1 31  1  0
  1 32  1  0
  4 33  1  0
  5 34  1  0
 10 35  1  0
 11 36  1  0
 13 37  1  0
 20 38  1  0
 21 39  1  0
 22 40  1  0
 24 41  1  0
 25 42  1  0
 26 43  1  0
 28 44  1  0
 29 45  1  0
M  END
>  <UniqueID>  (38) 
37

>  <SMILES>  (38) 
COc1ccc(-n2c(=O)ccc3cc(S(=O)(=O)N=c4cccn[nH]4)ccc32)cc1

>  <Energy>  (38) 
69.9864035830409

>  <Genealogy>  (38) 
COc1ccc(-n2c(=O)ccc3cc(S(=O)(=O)N=c4cccn[nH]4)ccc32)cc1 (3D coordinates assigned)
COc1ccc(-n2c(=O)ccc3cc(S(=O)(=O)N=c4cccn[nH]4)ccc32)cc1 (optimized conformer: 69.9864035830409 kcal/mol)

>  <smiles>  (38) 
COc1ccc(-n2c(=O)ccc3cc(S(=O)(=O)N=c4cccn[nH]4)ccc32)cc1

>  <score_type>  (38) 
oracle

>  <origin>  (38) 
adg

>  <m_score__min__energy>  (38) 
-11.640000000000001

>  <m_primary>  (38) 
energy

$$$$
38:0
     RDKit          3D

 37 37  0  0  0  0  0  0  0  0999 V2000
   -5.6830   17.9330  -34.9290 C   0  0  0  0  0  0  0  0  0  0  0  0
   -4.4380   18.4160  -34.2020 C   0  0  0  0  0  0  0  0  0  0  0  0
   -4.8170   19.1390  -33.0360 O   0  0  0  0  0  0  0  0  0  0  0  0
   -5.3880   20.4150  -33.0900 C   0  0  0  0  0  0  0  0  0  0  0  0
   -4.6840   21.4090  -33.4150 O   0  0  0  0  0  0  0  0  0  0  0  0
   -6.8060   20.5940  -32.7050 C   0  0  0  0  0  0  0  0  0  0  0  0
   -7.6530   19.4730  -32.7730 C   0  0  0  0  0  0  0  0  0  0  0  0
   -8.9820   19.5550  -32.3580 C   0  0  0  0  0  0  0  0  0  0  0  0
   -9.4870   20.7580  -31.8710 C   0  0  0  0  0  0  0  0  0  0  0  0
   -8.6710   21.8890  -31.8140 C   0  0  0  0  0  0  0  0  0  0  0  0
   -7.3270   21.8340  -32.2390 C   0  0  0  0  0  0  0  0  0  0  0  0
   -6.5270   23.0350  -32.2660 N   0  0  0  0  0  0  0  0  0  0  0  0
   -6.6300   24.0840  -31.2460 C   0  0  0  0  0  0  0  0  0  0  0  0
   -5.3680   24.9770  -31.1960 C   0  0  0  0  0  0  0  0  0  0  0  0
   -4.1990   24.3740  -30.5150 N   0  0  0  0  0  0  0  0  0  0  0  0
   -3.7600   23.1100  -31.1210 C   0  0  0  0  0  0  0  0  0  0  0  0
   -4.3840   24.2330  -29.0600 C   0  0  0  0  0  0  0  0  0  0  0  0
   -6.4455   17.6372  -34.1935 H   0  0  0  0  0  0  0  0  0  0  0  0
   -6.0769   18.7435  -35.5598 H   0  0  0  0  0  0  0  0  0  0  0  0
   -5.4272   17.0689  -35.5598 H   0  0  0  0  0  0  0  0  0  0  0  0
   -3.8239   17.5504  -33.9127 H   0  0  0  0  0  0  0  0  0  0  0  0
   -3.8580   19.0728  -34.8670 H   0  0  0  0  0  0  0  0  0  0  0  0
   -7.2622   18.5197  -33.1583 H   0  0  0  0  0  0  0  0  0  0  0  0
   -9.6315   18.6691  -32.4154 H   0  0  0  0  0  0  0  0  0  0  0  0
  -10.5313   20.8170  -31.5305 H   0  0  0  0  0  0  0  0  0  0  0  0
   -9.0813   22.8357  -31.4327 H   0  0  0  0  0  0  0  0  0  0  0  0
   -5.9110   23.2090  -33.0920 H   0  0  0  0  0  0  0  0  0  0  0  0
   -7.5016   24.7151  -31.4738 H   0  0  0  0  0  0  0  0  0  0  0  0
   -6.7354   23.5936  -30.2670 H   0  0  0  0  0  0  0  0  0  0  0  0
   -5.0760   25.2127  -32.2300 H   0  0  0  0  0  0  0  0  0  0  0  0
   -5.6429   25.8637  -30.6059 H   0  0  0  0  0  0  0  0  0  0  0  0
   -3.5100   22.3903  -30.3275 H   0  0  0  0  0  0  0  0  0  0  0  0
   -4.5690   22.7019  -31.7446 H   0  0  0  0  0  0  0  0  0  0  0  0
   -2.8722   23.2912  -31.7446 H   0  0  0  0  0  0  0  0  0  0  0  0
   -3.6155   24.8187  -28.5342 H   0  0  0  0  0  0  0  0  0  0  0  0
   -5.3817   24.6018  -28.7798 H   0  0  0  0  0  0  0  0  0  0  0  0
   -4.2928   23.1732  -28.7798 H   0  0  0  0  0  0  0  0  0  0  0  0
  1  2  1  0
  2  3  1  0
  3  4  1  0
  4  5  2  0
  4  6  1  0
  6  7  2  0
  7  8  1  0
  8  9  2  0
  9 10  1  0
 10 11  2  0
 11 12  1  0
 12 13  1  0
 13 14  1  0
 14 15  1  0
 15 16  1  0
 15 17  1  0
 11  6  1  0
  1 18  1  0
  1 19  1  0
  1 20  1  0
  2 21  1  0
  2 22  1  0
  7 23  1  0
  8 24  1  0
  9 25  1  0
 10 26  1  0
 12 27  1  0
 13 28  1  0
 13 29  1  0
 14 30  1  0
 14 31  1  0
 16 32  1  0
 16 33  1  0
 16 34  1  0
 17 35  1  0
 17 36  1  0
 17 37  1  0
M  END
>  <UniqueID>  (39) 
38

>  <SMILES>  (39) 
CCOC(=O)c1ccccc1NCCN(C)C

>  <Energy>  (39) 
37.90732297148778

>  <Genealogy>  (39) 
CCOC(=O)c1ccccc1NCCN(C)C (3D coordinates assigned)
CCOC(=O)c1ccccc1NCCN(C)C (optimized conformer: 37.90732297148778 kcal/mol)

>  <smiles>  (39) 
CCOC(=O)c1ccccc1NCCN(C)C

>  <score_type>  (39) 
oracle

>  <origin>  (39) 
adg

>  <m_score__min__energy>  (39) 
-5.9299999999999997

>  <m_primary>  (39) 
energy

$$$$
39:0
     RDKit          3D

 57 60  0  0  0  0  0  0  0  0999 V2000
   -1.9490   20.8410  -27.3500 C   0  0  0  0  0  0  0  0  0  0  0  0
   -1.7000   22.2650  -27.7380 C   0  0  0  0  0  0  0  0  0  0  0  0
   -1.5420   23.2210  -26.7810 N   0  0  0  0  0  0  0  0  0  0  0  0
   -1.3150   24.4460  -27.3040 C   0  0  0  0  0  0  0  0  0  0  0  0
   -1.1210   25.6630  -26.4980 C   0  0  0  0  0  0  0  0  0  0  0  0
   -1.3790   25.6660  -25.1180 C   0  0  0  0  0  0  0  0  0  0  0  0
   -1.1870   26.8400  -24.3860 C   0  0  0  0  0  0  0  0  0  0  0  0
   -0.7420   27.9960  -25.0290 C   0  0  0  0  0  0  0  0  0  0  0  0
   -0.4930   27.9580  -26.4030 C   0  0  0  0  0  0  0  0  0  0  0  0
   -0.6860   26.8060  -27.0990 N   0  0  0  0  0  0  0  0  0  0  0  0
   -1.2940   24.3910  -28.9820 S   0  0  0  0  0  0  0  0  0  0  0  0
   -1.5710   22.7300  -29.0560 C   0  0  0  0  0  0  0  0  0  0  0  0
   -1.7060   21.9430  -30.3420 C   0  0  0  0  0  0  0  0  0  0  0  0
   -3.0890   21.8810  -30.8650 N   0  0  0  0  0  0  0  0  0  0  0  0
   -4.0300   22.7980  -30.1710 C   0  0  0  0  0  0  0  0  0  0  0  0
   -5.1450   23.3360  -31.0850 C   0  0  0  0  0  0  0  0  0  0  0  0
   -5.5790   22.2950  -32.0220 N   0  0  0  0  0  0  0  0  0  0  0  0
   -6.9610   21.8990  -32.0800 C   0  0  0  0  0  0  0  0  0  0  0  0
   -7.9610   22.8780  -31.9700 C   0  0  0  0  0  0  0  0  0  0  0  0
   -9.3090   22.5120  -31.9160 C   0  0  0  0  0  0  0  0  0  0  0  0
   -9.6680   21.1650  -31.9610 C   0  0  0  0  0  0  0  0  0  0  0  0
   -8.6840   20.1810  -32.0770 C   0  0  0  0  0  0  0  0  0  0  0  0
   -7.3310   20.5370  -32.1590 C   0  0  0  0  0  0  0  0  0  0  0  0
   -6.3850   19.5180  -32.3160 O   0  0  0  0  0  0  0  0  0  0  0  0
   -6.5800   18.3940  -33.1780 C   0  0  0  0  0  0  0  0  0  0  0  0
   -5.7420   18.5830  -34.4410 C   0  0  0  0  0  0  0  0  0  0  0  0
   -6.1800   17.1040  -32.4560 C   0  0  0  0  0  0  0  0  0  0  0  0
   -4.5780   21.5470  -32.7900 C   0  0  0  0  0  0  0  0  0  0  0  0
   -3.1610   21.9100  -32.3370 C   0  0  0  0  0  0  0  0  0  0  0  0
   -1.9637   20.7570  -26.2533 H   0  0  0  0  0  0  0  0  0  0  0  0
   -2.9179   20.5144  -27.7558 H   0  0  0  0  0  0  0  0  0  0  0  0
   -1.1484   20.2050  -27.7558 H   0  0  0  0  0  0  0  0  0  0  0  0
   -1.7294   24.7514  -24.6174 H   0  0  0  0  0  0  0  0  0  0  0  0
   -1.3862   26.8534  -23.3043 H   0  0  0  0  0  0  0  0  0  0  0  0
   -0.5892   28.9255  -24.4609 H   0  0  0  0  0  0  0  0  0  0  0  0
   -0.1403   28.8612  -26.9225 H   0  0  0  0  0  0  0  0  0  0  0  0
   -1.0682   22.4137  -31.1046 H   0  0  0  0  0  0  0  0  0  0  0  0
   -1.4032   20.9097  -30.1171 H   0  0  0  0  0  0  0  0  0  0  0  0
   -4.4957   22.2534  -29.3364 H   0  0  0  0  0  0  0  0  0  0  0  0
   -3.4454   23.6642  -29.8277 H   0  0  0  0  0  0  0  0  0  0  0  0
   -6.0004   23.6494  -30.4685 H   0  0  0  0  0  0  0  0  0  0  0  0
   -4.7586   24.1935  -31.6554 H   0  0  0  0  0  0  0  0  0  0  0  0
   -7.6818   23.9411  -31.9260 H   0  0  0  0  0  0  0  0  0  0  0  0
  -10.0865   23.2862  -31.8380 H   0  0  0  0  0  0  0  0  0  0  0  0
  -10.7282   20.8773  -31.9050 H   0  0  0  0  0  0  0  0  0  0  0  0
   -8.9726   19.1199  -32.1042 H   0  0  0  0  0  0  0  0  0  0  0  0
   -7.6417   18.3183  -33.4557 H   0  0  0  0  0  0  0  0  0  0  0  0
   -4.7043   18.8170  -34.1609 H   0  0  0  0  0  0  0  0  0  0  0  0
   -5.7615   17.6579  -35.0358 H   0  0  0  0  0  0  0  0  0  0  0  0
   -6.1567   19.4102  -35.0358 H   0  0  0  0  0  0  0  0  0  0  0  0
   -6.2290   17.2621  -31.3685 H   0  0  0  0  0  0  0  0  0  0  0  0
   -6.8697   16.2956  -32.7404 H   0  0  0  0  0  0  0  0  0  0  0  0
   -5.1540   16.8276  -32.7404 H   0  0  0  0  0  0  0  0  0  0  0  0
   -4.7396   20.4694  -32.6395 H   0  0  0  0  0  0  0  0  0  0  0  0
   -4.6848   21.8058  -33.8538 H   0  0  0  0  0  0  0  0  0  0  0  0
   -2.4467   21.1841  -32.7527 H   0  0  0  0  0  0  0  0  0  0  0  0
   -2.9108   22.9196  -32.6948 H   0  0  0  0  0  0  0  0  0  0  0  0
  1  2  1  0
  2  3  1  0
  3  4  2  0
  4  5  1  0
  5  6  2  0
  6  7  1  0
  7  8  2  0
  8  9  1  0
  9 10  2  0
  4 11  1  0
 11 12  1  0
 12 13  1  0
 13 14  1  0
 14 15  1  0
 15 16  1  0
 16 17  1  0
 17 18  1  0
 18 19  2  0
 19 20  1  0
 20 21  2  0
 21 22  1  0
 22 23  2  0
 23 24  1  0
 24 25  1  0
 25 26  1  0
 25 27  1  0
 17 28  1  0
 28 29  1  0
 12  2  2  0
 29 14  1  0
 10  5  1  0
 23 18  1  0
  1 30  1  0
  1 31  1  0
  1 32  1  0
  6 33  1  0
  7 34  1  0
  8 35  1  0
  9 36  1  0
 13 37  1  0
 13 38  1  0
 15 39  1  0
 15 40  1  0
 16 41  1  0
 16 42  1  0
 19 43  1  0
 20 44  1  0
 21 45  1  0
 22 46  1  0
 25 47  1  0
 26 48  1  0
 26 49  1  0
 26 50  1  0
 27 51  1  0
 27 52  1  0
 27 53  1  0
 28 54  1  0
 28 55  1  0
 29 56  1  0
 29 57  1  0
M  END
>  <UniqueID>  (40) 
39

>  <SMILES>  (40) 
Cc1nc(-c2ccccn2)sc1CN1CCN(c2ccccc2OC(C)C)CC1

>  <Energy>  (40) 
102.59337685763636

>  <Genealogy>  (40) 
Cc1nc(-c2ccccn2)sc1CN1CCN(c2ccccc2OC(C)C)CC1 (3D coordinates assigned)
Cc1nc(-c2ccccn2)sc1CN1CCN(c2ccccc2OC(C)C)CC1 (nonaromatic ring conformer: 102.59337685763636 kcal/mol)

>  <smiles>  (40) 
Cc1nc(-c2ccccn2)sc1CN1CCN(c2ccccc2OC(C)C)CC1

>  <score_type>  (40) 
oracle

>  <origin>  (40) 
adg

>  <m_score__min__energy>  (40) 
-8.6999999999999993

>  <m_primary>  (40) 
energy

$$$$
40:0
     RDKit          3D

 47 49  0  0  0  0  0  0  0  0999 V2000
   -5.3580   16.0560  -31.8110 C   0  0  0  0  0  0  0  0  0  0  0  0
   -6.2930   17.1430  -31.2850 C   0  0  0  0  0  0  0  0  0  0  0  0
   -6.6580   18.0990  -32.3520 N   0  0  0  0  0  0  0  0  0  0  0  0
   -8.1170   18.3400  -32.4610 C   0  0  0  0  0  0  0  0  0  0  0  0
   -8.4030   19.8290  -32.3100 C   0  0  0  0  0  0  0  0  0  0  0  0
   -6.0330   17.7670  -33.6550 C   0  0  0  0  0  0  0  0  0  0  0  0
   -4.6520   18.4290  -33.8800 C   0  0  0  0  0  0  0  0  0  0  0  0
   -4.3850   19.4880  -32.9060 N   0  0  0  0  0  0  0  0  0  0  0  0
   -3.3400   20.4490  -33.1200 C   0  0  0  0  0  0  0  0  0  0  0  0
   -2.6710   20.4220  -34.1880 O   0  0  0  0  0  0  0  0  0  0  0  0
   -3.0330   21.4700  -32.1010 C   0  0  0  0  0  0  0  0  0  0  0  0
   -3.7920   22.6160  -31.8540 C   0  0  0  0  0  0  0  0  0  0  0  0
   -3.2530   23.4090  -30.8320 C   0  0  0  0  0  0  0  0  0  0  0  0
   -3.7710   24.6150  -30.3470 C   0  0  0  0  0  0  0  0  0  0  0  0
   -4.8290   25.1040  -30.8270 O   0  0  0  0  0  0  0  0  0  0  0  0
   -3.1170   25.2640  -29.3430 N   0  0  0  0  0  0  0  0  0  0  0  0
   -1.9670   24.7770  -28.7870 C   0  0  0  0  0  0  0  0  0  0  0  0
   -1.3300   25.4830  -27.7620 C   0  0  0  0  0  0  0  0  0  0  0  0
   -0.1530   24.9870  -27.1940 C   0  0  0  0  0  0  0  0  0  0  0  0
    0.3950   23.7720  -27.6350 C   0  0  0  0  0  0  0  0  0  0  0  0
    1.6790   23.2670  -27.0480 C   0  0  0  0  0  0  0  0  0  0  0  0
   -0.2290   23.0650  -28.6770 C   0  0  0  0  0  0  0  0  0  0  0  0
   -1.4110   23.5590  -29.2500 C   0  0  0  0  0  0  0  0  0  0  0  0
   -2.0870   22.8990  -30.2830 C   0  0  0  0  0  0  0  0  0  0  0  0
   -1.7030   21.4530  -31.0540 S   0  0  0  0  0  0  0  0  0  0  0  0
   -4.9006   15.5242  -30.9636 H   0  0  0  0  0  0  0  0  0  0  0  0
   -5.9309   15.3447  -32.4241 H   0  0  0  0  0  0  0  0  0  0  0  0
   -4.5691   16.5161  -32.4241 H   0  0  0  0  0  0  0  0  0  0  0  0
   -7.2083   16.6718  -30.8974 H   0  0  0  0  0  0  0  0  0  0  0  0
   -5.7719   17.6939  -30.4881 H   0  0  0  0  0  0  0  0  0  0  0  0
   -8.4720   17.9971  -33.4440 H   0  0  0  0  0  0  0  0  0  0  0  0
   -8.6386   17.7860  -31.6667 H   0  0  0  0  0  0  0  0  0  0  0  0
   -8.4524   20.0864  -31.2417 H   0  0  0  0  0  0  0  0  0  0  0  0
   -7.5995   20.4072  -32.7897 H   0  0  0  0  0  0  0  0  0  0  0  0
   -9.3635   20.0684  -32.7897 H   0  0  0  0  0  0  0  0  0  0  0  0
   -5.9060   16.6757  -33.7092 H   0  0  0  0  0  0  0  0  0  0  0  0
   -6.7025   18.1559  -34.4364 H   0  0  0  0  0  0  0  0  0  0  0  0
   -3.8709   17.6596  -33.7908 H   0  0  0  0  0  0  0  0  0  0  0  0
   -4.6524   18.8823  -34.8823 H   0  0  0  0  0  0  0  0  0  0  0  0
   -4.9750   19.5670  -32.0500 H   0  0  0  0  0  0  0  0  0  0  0  0
   -4.7120   22.8685  -32.4016 H   0  0  0  0  0  0  0  0  0  0  0  0
   -1.7560   26.4310  -27.4017 H   0  0  0  0  0  0  0  0  0  0  0  0
    0.3479   25.5533  -26.3950 H   0  0  0  0  0  0  0  0  0  0  0  0
    1.6152   23.2921  -25.9501 H   0  0  0  0  0  0  0  0  0  0  0  0
    1.8532   22.2334  -27.3816 H   0  0  0  0  0  0  0  0  0  0  0  0
    2.5106   23.9050  -27.3816 H   0  0  0  0  0  0  0  0  0  0  0  0
    0.2089   22.1248  -29.0433 H   0  0  0  0  0  0  0  0  0  0  0  0
  1  2  1  0
  2  3  1  0
  3  4  1  0
  4  5  1  0
  3  6  1  0
  6  7  1  0
  7  8  1  0
  8  9  1  0
  9 10  2  0
  9 11  1  0
 11 12  2  0
 12 13  1  0
 13 14  1  0
 14 15  2  0
 14 16  1  0
 16 17  1  0
 17 18  2  0
 18 19  1  0
 19 20  2  0
 20 21  1  0
 20 22  1  0
 22 23  2  0
 23 24  1  0
 24 25  1  0
 25 11  1  0
 24 13  2  0
 23 17  1  0
  1 26  1  0
  1 27  1  0
  1 28  1  0
  2 29  1  0
  2 30  1  0
  4 31  1  0
  4 32  1  0
  5 33  1  0
  5 34  1  0
  5 35  1  0
  6 36  1  0
  6 37  1  0
  7 38  1  0
  7 39  1  0
  8 40  1  0
 12 41  1  0
 18 42  1  0
 19 43  1  0
 21 44  1  0
 21 45  1  0
 21 46  1  0
 22 47  1  0
M  CHG  1  16  -1
M  END
>  <UniqueID>  (41) 
40

>  <SMILES>  (41) 
CCN(CC)CCNC(=O)c1cc2c(=O)[n-]c3ccc(C)cc3c2s1

>  <Energy>  (41) 
82.12090828121883

>  <Genealogy>  (41) 
CCN(CC)CCNC(=O)c1cc2c(=O)[n-]c3ccc(C)cc3c2s1 (protonated)
CCN(CC)CCNC(=O)c1cc2c(=O)[n-]c3ccc(C)cc3c2s1 (3D coordinates assigned)
CCN(CC)CCNC(=O)c1cc2c(=O)[n-]c3ccc(C)cc3c2s1 (optimized conformer: 82.12090828121883 kcal/mol)

>  <smiles>  (41) 
CCN(CC)CCNC(=O)c1cc2c(=O)[nH]c3ccc(C)cc3c2s1

>  <score_type>  (41) 
oracle

>  <origin>  (41) 
adg

>  <m_score__min__energy>  (41) 
-9.3599999999999994

>  <m_primary>  (41) 
energy

$$$$
41:0
     RDKit          3D

 34 36  0  0  0  0  0  0  0  0999 V2000
   -2.3500   24.2970  -28.9580 C   0  0  0  0  0  0  0  0  0  0  0  0
   -3.1060   24.9320  -29.9830 O   0  0  0  0  0  0  0  0  0  0  0  0
   -4.3390   24.4650  -30.4620 C   0  0  0  0  0  0  0  0  0  0  0  0
   -5.4510   25.3030  -30.3730 C   0  0  0  0  0  0  0  0  0  0  0  0
   -6.6580   24.8920  -30.8380 N   0  0  0  0  0  0  0  0  0  0  0  0
   -6.8470   23.6650  -31.3970 C   0  0  0  0  0  0  0  0  0  0  0  0
   -8.2170   23.3360  -31.9160 C   0  0  0  0  0  0  0  0  0  0  0  0
   -5.7600   22.7620  -31.4790 C   0  0  0  0  0  0  0  0  0  0  0  0
   -5.8790   21.3980  -32.0410 C   0  0  0  0  0  0  0  0  0  0  0  0
   -5.0440   20.8130  -32.9850 C   0  0  0  0  0  0  0  0  0  0  0  0
   -5.5520   19.6050  -33.2610 N   0  0  0  0  0  0  0  0  0  0  0  0
   -5.1130   18.6560  -34.1240 C   0  0  0  0  0  0  0  0  0  0  0  0
   -5.8570   17.4750  -34.2410 C   0  0  0  0  0  0  0  0  0  0  0  0
   -7.0240   17.3100  -33.4700 C   0  0  0  0  0  0  0  0  0  0  0  0
   -7.4400   18.3180  -32.5770 C   0  0  0  0  0  0  0  0  0  0  0  0
   -8.7020   18.1780  -31.7770 C   0  0  0  0  0  0  0  0  0  0  0  0
   -6.6600   19.4780  -32.5130 C   0  0  0  0  0  0  0  0  0  0  0  0
   -6.9090   20.5640  -31.7510 N   0  0  0  0  0  0  0  0  0  0  0  0
   -4.5020   23.1890  -31.0250 C   0  0  0  0  0  0  0  0  0  0  0  0
   -2.7272   24.6138  -27.9745 H   0  0  0  0  0  0  0  0  0  0  0  0
   -2.4469   23.2055  -29.0536 H   0  0  0  0  0  0  0  0  0  0  0  0
   -1.2916   24.5809  -29.0536 H   0  0  0  0  0  0  0  0  0  0  0  0
   -5.3489   26.3018  -29.9237 H   0  0  0  0  0  0  0  0  0  0  0  0
   -8.9001   23.1720  -31.0696 H   0  0  0  0  0  0  0  0  0  0  0  0
   -8.5870   24.1708  -32.5293 H   0  0  0  0  0  0  0  0  0  0  0  0
   -8.1675   22.4242  -32.5293 H   0  0  0  0  0  0  0  0  0  0  0  0
   -4.1379   21.2576  -33.4225 H   0  0  0  0  0  0  0  0  0  0  0  0
   -4.1984   18.8092  -34.7156 H   0  0  0  0  0  0  0  0  0  0  0  0
   -5.5320   16.6818  -34.9304 H   0  0  0  0  0  0  0  0  0  0  0  0
   -7.6153   16.3874  -33.5655 H   0  0  0  0  0  0  0  0  0  0  0  0
   -8.4609   18.2048  -30.7041 H   0  0  0  0  0  0  0  0  0  0  0  0
   -9.3841   19.0060  -32.0203 H   0  0  0  0  0  0  0  0  0  0  0  0
   -9.1860   17.2206  -32.0203 H   0  0  0  0  0  0  0  0  0  0  0  0
   -3.6353   22.5172  -31.1112 H   0  0  0  0  0  0  0  0  0  0  0  0
  1  2  1  0
  2  3  1  0
  3  4  2  0
  4  5  1  0
  5  6  2  0
  6  7  1  0
  6  8  1  0
  8  9  1  0
  9 10  2  0
 10 11  1  0
 11 12  1  0
 12 13  2  0
 13 14  1  0
 14 15  2  0
 15 16  1  0
 15 17  1  0
 17 18  2  0
  8 19  2  0
 19  3  1  0
 18  9  1  0
 17 11  1  0
  1 20  1  0
  1 21  1  0
  1 22  1  0
  4 23  1  0
  7 24  1  0
  7 25  1  0
  7 26  1  0
 10 27  1  0
 12 28  1  0
 13 29  1  0
 14 30  1  0
 16 31  1  0
 16 32  1  0
 16 33  1  0
 19 34  1  0
M  END
>  <UniqueID>  (42) 
41

>  <SMILES>  (42) 
COc1cnc(C)c(-c2cn3cccc(C)c3n2)c1

>  <Energy>  (42) 
74.9787025370388

>  <Genealogy>  (42) 
COc1cnc(C)c(-c2cn3cccc(C)c3n2)c1 (3D coordinates assigned)
COc1cnc(C)c(-c2cn3cccc(C)c3n2)c1 (optimized conformer: 74.9787025370388 kcal/mol)

>  <smiles>  (42) 
COc1cnc(C)c(-c2cn3cccc(C)c3n2)c1

>  <score_type>  (42) 
oracle

>  <origin>  (42) 
adg

>  <m_score__min__energy>  (42) 
-7.9000000000000004

>  <m_primary>  (42) 
energy

$$$$
42:0
     RDKit          3D

 47 49  0  0  0  0  0  0  0  0999 V2000
   -3.7710   24.5370  -26.7790 C   0  0  0  0  0  0  0  0  0  0  0  0
   -4.1940   24.1570  -28.2020 C   0  0  0  0  0  0  0  0  0  0  0  0
   -5.3860   24.9010  -28.6520 N   0  0  0  0  0  0  0  0  0  0  0  0
   -6.0970   24.2020  -29.7370 C   0  0  0  0  0  0  0  0  0  0  0  0
   -5.3510   24.3090  -31.0780 C   0  0  0  0  0  0  0  0  0  0  0  0
   -4.5400   23.0500  -31.4090 C   0  0  0  0  0  0  0  0  0  0  0  0
   -4.9290   22.5160  -32.7140 N   0  0  0  0  0  0  0  0  0  0  0  0
   -5.2870   21.1350  -32.8900 C   0  0  0  0  0  0  0  0  0  0  0  0
   -6.5960   20.6990  -32.6250 C   0  0  0  0  0  0  0  0  0  0  0  0
   -7.5490   21.5740  -32.0630 C   0  0  0  0  0  0  0  0  0  0  0  0
   -8.8340   21.1290  -31.7640 C   0  0  0  0  0  0  0  0  0  0  0  0
   -9.1850   19.8050  -31.9970 C   0  0  0  0  0  0  0  0  0  0  0  0
   -8.2570   18.9190  -32.5430 C   0  0  0  0  0  0  0  0  0  0  0  0
   -6.9500   19.3490  -32.8920 C   0  0  0  0  0  0  0  0  0  0  0  0
   -6.0280   18.4880  -33.4570 N   0  0  0  0  0  0  0  0  0  0  0  0
   -6.4670   17.1830  -33.9990 C   0  0  0  0  0  0  0  0  0  0  0  0
   -4.6960   18.8550  -33.5280 C   0  0  0  0  0  0  0  0  0  0  0  0
   -3.6780   17.9170  -33.8390 C   0  0  0  0  0  0  0  0  0  0  0  0
   -2.3460   18.3140  -33.9590 C   0  0  0  0  0  0  0  0  0  0  0  0
   -1.9910   19.6430  -33.7610 C   0  0  0  0  0  0  0  0  0  0  0  0
   -2.9620   20.5790  -33.4160 C   0  0  0  0  0  0  0  0  0  0  0  0
   -4.3130   20.1980  -33.2750 C   0  0  0  0  0  0  0  0  0  0  0  0
   -4.3862   23.9843  -26.0537 H   0  0  0  0  0  0  0  0  0  0  0  0
   -2.7114   24.2816  -26.6309 H   0  0  0  0  0  0  0  0  0  0  0  0
   -3.9118   25.6179  -26.6309 H   0  0  0  0  0  0  0  0  0  0  0  0
   -3.3620   24.3746  -28.8879 H   0  0  0  0  0  0  0  0  0  0  0  0
   -4.4470   23.0865  -28.2021 H   0  0  0  0  0  0  0  0  0  0  0  0
   -6.0300   25.0690  -27.8440 H   0  0  0  0  0  0  0  0  0  0  0  0
   -5.0580   25.8290  -29.0080 H   0  0  0  0  0  0  0  0  0  0  0  0
   -6.1963   23.1396  -29.4697 H   0  0  0  0  0  0  0  0  0  0  0  0
   -7.0823   24.6759  -29.8578 H   0  0  0  0  0  0  0  0  0  0  0  0
   -6.0879   24.4728  -31.8781 H   0  0  0  0  0  0  0  0  0  0  0  0
   -4.6432   25.1472  -30.9973 H   0  0  0  0  0  0  0  0  0  0  0  0
   -3.4697   23.3035  -31.4264 H   0  0  0  0  0  0  0  0  0  0  0  0
   -4.7379   22.2882  -30.6405 H   0  0  0  0  0  0  0  0  0  0  0  0
   -4.9980   23.1630  -33.5320 H   0  0  0  0  0  0  0  0  0  0  0  0
   -7.2740   22.6193  -31.8587 H   0  0  0  0  0  0  0  0  0  0  0  0
   -9.5725   21.8268  -31.3426 H   0  0  0  0  0  0  0  0  0  0  0  0
  -10.1980   19.4547  -31.7500 H   0  0  0  0  0  0  0  0  0  0  0  0
   -8.5425   17.8693  -32.7060 H   0  0  0  0  0  0  0  0  0  0  0  0
   -6.6969   16.4996  -33.1683 H   0  0  0  0  0  0  0  0  0  0  0  0
   -7.3665   17.3260  -34.6158 H   0  0  0  0  0  0  0  0  0  0  0  0
   -5.6640   16.7533  -34.6158 H   0  0  0  0  0  0  0  0  0  0  0  0
   -3.9432   16.8599  -33.9879 H   0  0  0  0  0  0  0  0  0  0  0  0
   -1.5738   17.5723  -34.2113 H   0  0  0  0  0  0  0  0  0  0  0  0
   -0.9427   19.9553  -33.8769 H   0  0  0  0  0  0  0  0  0  0  0  0
   -2.6726   21.6274  -33.2515 H   0  0  0  0  0  0  0  0  0  0  0  0
  1  2  1  0
  2  3  1  0
  3  4  1  0
  4  5  1  0
  5  6  1  0
  6  7  1  0
  7  8  1  0
  8  9  2  0
  9 10  1  0
 10 11  2  0
 11 12  1  0
 12 13  2  0
 13 14  1  0
 14 15  2  0
 15 16  1  0
 15 17  1  0
 17 18  2  0
 18 19  1  0
 19 20  2  0
 20 21  1  0
 21 22  2  0
 22  8  1  0
 14  9  1  0
 22 17  1  0
  1 23  1  0
  1 24  1  0
  1 25  1  0
  2 26  1  0
  2 27  1  0
  3 28  1  0
  3 29  1  0
  4 30  1  0
  4 31  1  0
  5 32  1  0
  5 33  1  0
  6 34  1  0
  6 35  1  0
  7 36  1  0
 10 37  1  0
 11 38  1  0
 12 39  1  0
 13 40  1  0
 16 41  1  0
 16 42  1  0
 16 43  1  0
 18 44  1  0
 19 45  1  0
 20 46  1  0
 21 47  1  0
M  CHG  2   3   1  15   1
M  END
>  <UniqueID>  (43) 
42

>  <SMILES>  (43) 
CC[NH2+]CCCNc1c2ccccc2[n+](C)c2ccccc12

>  <Energy>  (43) 
69.43193945074844

>  <Genealogy>  (43) 
CC[NH2+]CCCNc1c2ccccc2[n+](C)c2ccccc12 (protonated)
CC[NH2+]CCCNc1c2ccccc2[n+](C)c2ccccc12 (3D coordinates assigned)
CC[NH2+]CCCNc1c2ccccc2[n+](C)c2ccccc12 (optimized conformer: 69.43193945074844 kcal/mol)

>  <smiles>  (43) 
CCNCCCNc1c2ccccc2[n+](C)c2ccccc12

>  <score_type>  (43) 
oracle

>  <origin>  (43) 
adg

>  <m_score__min__energy>  (43) 
-7.6100000000000003

>  <m_primary>  (43) 
energy

$$$$
43:0
     RDKit          3D

 37 37  0  0  0  0  0  0  0  0999 V2000
   -8.7850   18.4100  -31.5940 C   0  0  0  0  0  0  0  0  0  0  0  0
   -9.4860   19.4070  -32.5170 C   0  0  0  0  0  0  0  0  0  0  0  0
   -8.9450   20.8340  -32.3530 C   0  0  0  0  0  0  0  0  0  0  0  0
   -7.4540   20.8870  -32.5240 C   0  0  0  0  0  0  0  0  0  0  0  0
   -6.7460   21.8720  -31.9130 N   0  0  0  0  0  0  0  0  0  0  0  0
   -5.3950   21.9400  -32.0190 C   0  0  0  0  0  0  0  0  0  0  0  0
   -4.6560   23.0630  -31.3460 C   0  0  0  0  0  0  0  0  0  0  0  0
   -5.5630   23.8630  -30.4000 C   0  0  0  0  0  0  0  0  0  0  0  0
   -5.3300   25.3740  -30.4860 C   0  0  0  0  0  0  0  0  0  0  0  0
   -3.9770   25.6560  -30.5340 F   0  0  0  0  0  0  0  0  0  0  0  0
   -4.7140   20.9800  -32.7730 C   0  0  0  0  0  0  0  0  0  0  0  0
   -5.4450   19.9560  -33.4010 C   0  0  0  0  0  0  0  0  0  0  0  0
   -4.7740   18.9380  -34.1870 N   0  0  0  0  0  0  0  0  0  0  0  0
   -3.3090   18.8330  -34.1810 C   0  0  0  0  0  0  0  0  0  0  0  0
   -5.5510   17.9970  -35.0010 C   0  0  0  0  0  0  0  0  0  0  0  0
   -6.8060   19.9360  -33.2540 N   0  0  0  0  0  0  0  0  0  0  0  0
   -8.9770   18.6831  -30.5459 H   0  0  0  0  0  0  0  0  0  0  0  0
   -9.1715   17.3982  -31.7860 H   0  0  0  0  0  0  0  0  0  0  0  0
   -7.7021   18.4314  -31.7860 H   0  0  0  0  0  0  0  0  0  0  0  0
   -9.3359   19.0896  -33.5595 H   0  0  0  0  0  0  0  0  0  0  0  0
  -10.5530   19.4193  -32.2500 H   0  0  0  0  0  0  0  0  0  0  0  0
   -9.4135   21.4817  -33.1087 H   0  0  0  0  0  0  0  0  0  0  0  0
   -9.1854   21.1765  -31.3357 H   0  0  0  0  0  0  0  0  0  0  0  0
   -3.8215   22.6418  -30.7661 H   0  0  0  0  0  0  0  0  0  0  0  0
   -4.2925   23.7468  -32.1272 H   0  0  0  0  0  0  0  0  0  0  0  0
   -6.6114   23.6544  -30.6593 H   0  0  0  0  0  0  0  0  0  0  0  0
   -5.3251   23.5506  -29.3725 H   0  0  0  0  0  0  0  0  0  0  0  0
   -5.8128   25.7631  -31.3946 H   0  0  0  0  0  0  0  0  0  0  0  0
   -5.7600   25.8505  -29.5927 H   0  0  0  0  0  0  0  0  0  0  0  0
   -3.6196   21.0250  -32.8739 H   0  0  0  0  0  0  0  0  0  0  0  0
   -2.9475   18.8071  -33.1424 H   0  0  0  0  0  0  0  0  0  0  0  0
   -3.0054   17.9108  -34.6980 H   0  0  0  0  0  0  0  0  0  0  0  0
   -2.8770   19.7025  -34.6980 H   0  0  0  0  0  0  0  0  0  0  0  0
   -6.1116   17.3180  -34.3417 H   0  0  0  0  0  0  0  0  0  0  0  0
   -6.2546   18.5555  -35.6359 H   0  0  0  0  0  0  0  0  0  0  0  0
   -4.8694   17.4118  -35.6359 H   0  0  0  0  0  0  0  0  0  0  0  0
   -7.3760   19.1940  -33.7150 H   0  0  0  0  0  0  0  0  0  0  0  0
  1  2  1  0
  2  3  1  0
  3  4  1  0
  4  5  2  0
  5  6  1  0
  6  7  1  0
  7  8  1  0
  8  9  1  0
  9 10  1  0
  6 11  2  0
 11 12  1  0
 12 13  1  0
 13 14  1  0
 13 15  1  0
 12 16  2  0
 16  4  1  0
  1 17  1  0
  1 18  1  0
  1 19  1  0
  2 20  1  0
  2 21  1  0
  3 22  1  0
  3 23  1  0
  7 24  1  0
  7 25  1  0
  8 26  1  0
  8 27  1  0
  9 28  1  0
  9 29  1  0
 11 30  1  0
 14 31  1  0
 14 32  1  0
 14 33  1  0
 15 34  1  0
 15 35  1  0
 15 36  1  0
 16 37  1  0
M  CHG  1  16   1
M  END
>  <UniqueID>  (44) 
43

>  <SMILES>  (44) 
CCCc1nc(CCCF)cc(N(C)C)[nH+]1

>  <Energy>  (44) 
25.01747290898989

>  <Genealogy>  (44) 
CCCc1nc(CCCF)cc(N(C)C)[nH+]1 (protonated)
CCCc1nc(CCCF)cc(N(C)C)[nH+]1 (3D coordinates assigned)
CCCc1nc(CCCF)cc(N(C)C)[nH+]1 (optimized conformer: 25.01747290898989 kcal/mol)

>  <smiles>  (44) 
CCCc1nc(CCCF)cc(N(C)C)n1

>  <score_type>  (44) 
oracle

>  <origin>  (44) 
adg

>  <m_score__min__energy>  (44) 
-5.3300000000000001

>  <m_primary>  (44) 
energy

$$$$
44:0
     RDKit          3D

 49 51  0  0  0  0  0  0  0  0999 V2000
   -0.8130   20.6340  -31.3640 C   0  0  0  0  0  0  0  0  0  0  0  0
    0.0620   21.1730  -32.4970 C   0  0  0  0  0  0  0  0  0  0  0  0
   -0.5650   20.9660  -33.8220 N   0  0  0  0  0  0  0  0  0  0  0  0
    0.1300   21.7560  -34.8660 C   0  0  0  0  0  0  0  0  0  0  0  0
    0.2940   20.9750  -36.1700 C   0  0  0  0  0  0  0  0  0  0  0  0
   -0.7570   19.5320  -34.1730 C   0  0  0  0  0  0  0  0  0  0  0  0
   -2.2260   19.0670  -34.2350 C   0  0  0  0  0  0  0  0  0  0  0  0
   -3.1040   20.1590  -33.8180 N   0  0  0  0  0  0  0  0  0  0  0  0
   -4.4750   19.9450  -33.4430 C   0  0  0  0  0  0  0  0  0  0  0  0
   -5.1170   18.7980  -33.9310 C   0  0  0  0  0  0  0  0  0  0  0  0
   -6.4680   18.5770  -33.7040 C   0  0  0  0  0  0  0  0  0  0  0  0
   -7.2250   19.5100  -32.9880 C   0  0  0  0  0  0  0  0  0  0  0  0
   -8.6010   19.3300  -32.7630 O   0  0  0  0  0  0  0  0  0  0  0  0
   -9.1540   18.5680  -31.6950 C   0  0  0  0  0  0  0  0  0  0  0  0
   -6.5940   20.6580  -32.4780 C   0  0  0  0  0  0  0  0  0  0  0  0
   -7.5070   21.7830  -31.6160 S   0  0  0  0  0  0  0  0  0  0  0  0
   -6.5930   23.0730  -31.0620 C   0  0  0  0  0  0  0  0  0  0  0  0
   -7.2010   24.1010  -30.3340 C   0  0  0  0  0  0  0  0  0  0  0  0
   -6.4380   25.1660  -29.8610 C   0  0  0  0  0  0  0  0  0  0  0  0
   -5.0670   25.2040  -30.1120 C   0  0  0  0  0  0  0  0  0  0  0  0
   -4.4550   24.1750  -30.8360 C   0  0  0  0  0  0  0  0  0  0  0  0
   -5.2060   23.0810  -31.3320 C   0  0  0  0  0  0  0  0  0  0  0  0
   -4.5500   22.0400  -32.0660 C   0  0  0  0  0  0  0  0  0  0  0  0
   -3.2960   22.1320  -32.1710 O   0  0  0  0  0  0  0  0  0  0  0  0
   -5.2040   20.9010  -32.6640 C   0  0  0  0  0  0  0  0  0  0  0  0
   -0.3687   20.9077  -30.3957 H   0  0  0  0  0  0  0  0  0  0  0  0
   -1.8208   21.0681  -31.4408 H   0  0  0  0  0  0  0  0  0  0  0  0
   -0.8787   19.5387  -31.4408 H   0  0  0  0  0  0  0  0  0  0  0  0
    0.2206   22.2505  -32.3426 H   0  0  0  0  0  0  0  0  0  0  0  0
    1.0166   20.6266  -32.4813 H   0  0  0  0  0  0  0  0  0  0  0  0
   -0.4543   22.6655  -35.0693 H   0  0  0  0  0  0  0  0  0  0  0  0
    1.1348   22.0002  -34.4908 H   0  0  0  0  0  0  0  0  0  0  0  0
    0.5151   19.9220  -35.9414 H   0  0  0  0  0  0  0  0  0  0  0  0
   -0.6365   21.0360  -36.7534 H   0  0  0  0  0  0  0  0  0  0  0  0
    1.1214   21.4051  -36.7534 H   0  0  0  0  0  0  0  0  0  0  0  0
   -0.3022   19.3583  -35.1594 H   0  0  0  0  0  0  0  0  0  0  0  0
   -0.2849   18.9523  -33.3661 H   0  0  0  0  0  0  0  0  0  0  0  0
   -2.4733   18.7715  -35.2653 H   0  0  0  0  0  0  0  0  0  0  0  0
   -2.3661   18.2083  -33.5620 H   0  0  0  0  0  0  0  0  0  0  0  0
   -2.7840   21.1410  -33.9800 H   0  0  0  0  0  0  0  0  0  0  0  0
   -4.5385   18.0591  -34.5049 H   0  0  0  0  0  0  0  0  0  0  0  0
   -6.9457   17.6640  -34.0889 H   0  0  0  0  0  0  0  0  0  0  0  0
   -8.8395   19.0014  -30.7341 H   0  0  0  0  0  0  0  0  0  0  0  0
  -10.2518   18.5845  -31.7629 H   0  0  0  0  0  0  0  0  0  0  0  0
   -8.7980   17.5294  -31.7629 H   0  0  0  0  0  0  0  0  0  0  0  0
   -8.2823   24.0684  -30.1349 H   0  0  0  0  0  0  0  0  0  0  0  0
   -6.9163   25.9757  -29.2904 H   0  0  0  0  0  0  0  0  0  0  0  0
   -4.4646   26.0457  -29.7396 H   0  0  0  0  0  0  0  0  0  0  0  0
   -3.3719   24.2162  -31.0233 H   0  0  0  0  0  0  0  0  0  0  0  0
  1  2  1  0
  2  3  1  0
  3  4  1  0
  4  5  1  0
  3  6  1  0
  6  7  1  0
  7  8  1  0
  8  9  1  0
  9 10  2  0
 10 11  1  0
 11 12  2  0
 12 13  1  0
 13 14  1  0
 12 15  1  0
 15 16  1  0
 16 17  1  0
 17 18  2  0
 18 19  1  0
 19 20  2  0
 20 21  1  0
 21 22  2  0
 22 23  1  0
 23 24  2  0
 23 25  1  0
 25  9  1  0
 25 15  2  0
 22 17  1  0
  1 26  1  0
  1 27  1  0
  1 28  1  0
  2 29  1  0
  2 30  1  0
  4 31  1  0
  4 32  1  0
  5 33  1  0
  5 34  1  0
  5 35  1  0
  6 36  1  0
  6 37  1  0
  7 38  1  0
  7 39  1  0
  8 40  1  0
 10 41  1  0
 11 42  1  0
 14 43  1  0
 14 44  1  0
 14 45  1  0
 18 46  1  0
 19 47  1  0
 20 48  1  0
 21 49  1  0
M  END
>  <UniqueID>  (45) 
44

>  <SMILES>  (45) 
CCN(CC)CCNc1ccc(OC)c2sc3ccccc3c(=O)c12

>  <Energy>  (45) 
72.91394987774943

>  <Genealogy>  (45) 
CCN(CC)CCNc1ccc(OC)c2sc3ccccc3c(=O)c12 (3D coordinates assigned)
CCN(CC)CCNc1ccc(OC)c2sc3ccccc3c(=O)c12 (optimized conformer: 72.91394987774943 kcal/mol)

>  <smiles>  (45) 
CCN(CC)CCNc1ccc(OC)c2sc3ccccc3c(=O)c12

>  <score_type>  (45) 
oracle

>  <origin>  (45) 
adg

>  <m_score__min__energy>  (45) 
-7.9000000000000004

>  <m_primary>  (45) 
energy

$$$$
45:0
     RDKit          3D

 43 45  0  0  0  0  0  0  0  0999 V2000
   -8.7270   19.2810  -32.0700 C   0  0  0  0  0  0  0  0  0  0  0  0
   -7.7010   20.1830  -31.6730 O   0  0  0  0  0  0  0  0  0  0  0  0
   -7.7420   21.5490  -31.9700 C   0  0  0  0  0  0  0  0  0  0  0  0
   -8.8360   22.1780  -31.9480 O   0  0  0  0  0  0  0  0  0  0  0  0
   -6.4750   22.2700  -32.3400 C   0  0  0  0  0  0  0  0  0  0  0  0
   -5.3150   21.7980  -31.4370 C   0  0  0  0  0  0  0  0  0  0  0  0
   -4.1890   22.8410  -31.4040 C   0  0  0  0  0  0  0  0  0  0  0  0
   -4.6360   24.1640  -30.8870 N   0  0  0  0  0  0  0  0  0  0  0  0
   -4.1560   24.4320  -29.5130 C   0  0  0  0  0  0  0  0  0  0  0  0
   -2.6370   24.2360  -29.4260 C   0  0  0  0  0  0  0  0  0  0  0  0
   -1.9840   25.3860  -28.8890 O   0  0  0  0  0  0  0  0  0  0  0  0
   -1.4680   25.4950  -27.5860 C   0  0  0  0  0  0  0  0  0  0  0  0
   -1.2360   24.3040  -26.8660 C   0  0  0  0  0  0  0  0  0  0  0  0
   -0.7290   24.3380  -25.5550 C   0  0  0  0  0  0  0  0  0  0  0  0
   -0.4560   25.5770  -24.9750 C   0  0  0  0  0  0  0  0  0  0  0  0
    0.0340   25.7580  -23.7200 N   0  0  0  0  0  0  0  0  0  0  0  0
    0.2020   27.0690  -23.4250 C   0  0  0  0  0  0  0  0  0  0  0  0
   -0.2580   28.0560  -24.7220 S   0  0  0  0  0  0  0  0  0  0  0  0
   -0.6810   26.7450  -25.6830 C   0  0  0  0  0  0  0  0  0  0  0  0
   -1.1810   26.7420  -26.9810 C   0  0  0  0  0  0  0  0  0  0  0  0
   -6.0970   24.3980  -30.9950 C   0  0  0  0  0  0  0  0  0  0  0  0
   -6.6680   23.8050  -32.2880 C   0  0  0  0  0  0  0  0  0  0  0  0
   -9.2088   18.8574  -31.1764 H   0  0  0  0  0  0  0  0  0  0  0  0
   -9.4758   19.8186  -32.6703 H   0  0  0  0  0  0  0  0  0  0  0  0
   -8.2897   18.4695  -32.6703 H   0  0  0  0  0  0  0  0  0  0  0  0
   -6.2155   22.0216  -33.3797 H   0  0  0  0  0  0  0  0  0  0  0  0
   -5.6932   21.6435  -30.4157 H   0  0  0  0  0  0  0  0  0  0  0  0
   -4.9126   20.8583  -31.8432 H   0  0  0  0  0  0  0  0  0  0  0  0
   -3.3827   22.4659  -30.7565 H   0  0  0  0  0  0  0  0  0  0  0  0
   -3.8486   22.9904  -32.4393 H   0  0  0  0  0  0  0  0  0  0  0  0
   -4.4035   25.4682  -29.2389 H   0  0  0  0  0  0  0  0  0  0  0  0
   -4.6452   23.7295  -28.8222 H   0  0  0  0  0  0  0  0  0  0  0  0
   -2.4260   23.3720  -28.7787 H   0  0  0  0  0  0  0  0  0  0  0  0
   -2.2548   24.0700  -30.4440 H   0  0  0  0  0  0  0  0  0  0  0  0
   -1.4550   23.3345  -27.3373 H   0  0  0  0  0  0  0  0  0  0  0  0
   -0.5512   23.4063  -24.9979 H   0  0  0  0  0  0  0  0  0  0  0  0
    0.2570   24.9820  -23.0590 H   0  0  0  0  0  0  0  0  0  0  0  0
    0.5878   27.4447  -22.4658 H   0  0  0  0  0  0  0  0  0  0  0  0
   -1.3490   27.6842  -27.5232 H   0  0  0  0  0  0  0  0  0  0  0  0
   -6.5983   23.9295  -30.1353 H   0  0  0  0  0  0  0  0  0  0  0  0
   -6.2721   25.4839  -31.0071 H   0  0  0  0  0  0  0  0  0  0  0  0
   -7.7429   24.0324  -32.3417 H   0  0  0  0  0  0  0  0  0  0  0  0
   -6.1314   24.2500  -33.1389 H   0  0  0  0  0  0  0  0  0  0  0  0
  1  2  1  0
  2  3  1  0
  3  4  2  0
  3  5  1  0
  5  6  1  0
  6  7  1  0
  7  8  1  0
  8  9  1  0
  9 10  1  0
 10 11  1  0
 11 12  1  0
 12 13  2  0
 13 14  1  0
 14 15  2  0
 15 16  1  0
 16 17  2  0
 17 18  1  0
 18 19  1  0
 19 20  2  0
  8 21  1  0
 21 22  1  0
 22  5  1  0
 20 12  1  0
 19 15  1  0
  1 23  1  0
  1 24  1  0
  1 25  1  0
  5 26  1  0
  6 27  1  0
  6 28  1  0
  7 29  1  0
  7 30  1  0
  9 31  1  0
  9 32  1  0
 10 33  1  0
 10 34  1  0
 13 35  1  0
 14 36  1  0
 16 37  1  0
 17 38  1  0
 20 39  1  0
 21 40  1  0
 21 41  1  0
 22 42  1  0
 22 43  1  0
M  CHG  1  16   1
M  END
>  <UniqueID>  (46) 
45

>  <SMILES>  (46) 
COC(=O)C1CCN(CCOc2ccc3[nH+]csc3c2)CC1

>  <Energy>  (46) 
83.10095025087402

>  <Genealogy>  (46) 
COC(=O)C1CCN(CCOc2ccc3[nH+]csc3c2)CC1 (protonated)
COC(=O)C1CCN(CCOc2ccc3[nH+]csc3c2)CC1 (3D coordinates assigned)
COC(=O)C1CCN(CCOc2ccc3[nH+]csc3c2)CC1 (nonaromatic ring conformer: 83.10095025087402 kcal/mol)

>  <smiles>  (46) 
COC(=O)C1CCN(CCOc2ccc3ncsc3c2)CC1

>  <score_type>  (46) 
oracle

>  <origin>  (46) 
adg

>  <m_score__min__energy>  (46) 
-8.4100000000000001

>  <m_primary>  (46) 
energy

$$$$
46:0
     RDKit          3D

143145  0  0  0  0  0  0  0  0999 V2000
   -0.9410   27.9240  -34.4520 C   0  0  0  0  0  0  0  0  0  0  0  0
    0.1610   27.4530  -35.4090 C   0  0  0  0  0  0  0  0  0  0  0  0
   -0.1640   26.2110  -36.1620 N   0  0  0  0  0  0  0  0  0  0  0  0
   -0.6240   26.4310  -37.5490 C   0  0  0  0  0  0  0  0  0  0  0  0
   -1.6810   27.5340  -37.6310 C   0  0  0  0  0  0  0  0  0  0  0  0
    0.8960   25.1780  -36.0790 C   0  0  0  0  0  0  0  0  0  0  0  0
    0.2650   23.7820  -36.0400 C   0  0  0  0  0  0  0  0  0  0  0  0
    1.2970   22.6470  -36.1180 C   0  0  0  0  0  0  0  0  0  0  0  0
    1.2300   21.8120  -34.8900 N   0  0  0  0  0  0  0  0  0  0  0  0
   -0.1440   21.3740  -34.5250 C   0  0  0  0  0  0  0  0  0  0  0  0
   -0.3650   21.1450  -33.0130 C   0  0  0  0  0  0  0  0  0  0  0  0
   -1.7700   20.8700  -32.6430 N   0  0  0  0  0  0  0  0  0  0  0  0
   -2.2200   21.9100  -31.6950 C   0  0  0  0  0  0  0  0  0  0  0  0
   -2.6650   20.8300  -33.8210 C   0  0  0  0  0  0  0  0  0  0  0  0
   -3.4550   19.4960  -33.8510 C   0  0  0  0  0  0  0  0  0  0  0  0
   -4.6920   19.5050  -33.0370 N   0  0  0  0  0  0  0  0  0  0  0  0
   -5.5400   18.3040  -33.2110 C   0  0  0  0  0  0  0  0  0  0  0  0
   -5.2920   17.5820  -34.5610 C   0  0  0  0  0  0  0  0  0  0  0  0
   -4.4700   16.3430  -34.5020 N   0  0  0  0  0  0  0  0  0  0  0  0
   -4.5260   15.6960  -33.1760 C   0  0  0  0  0  0  0  0  0  0  0  0
   -3.0700   16.4810  -34.9560 C   0  0  0  0  0  0  0  0  0  0  0  0
   -2.0530   16.1830  -33.8390 C   0  0  0  0  0  0  0  0  0  0  0  0
   -1.0900   17.3570  -33.6000 C   0  0  0  0  0  0  0  0  0  0  0  0
   -1.1720   17.8830  -32.2310 N   0  0  0  0  0  0  0  0  0  0  0  0
   -0.1400   17.3150  -31.3570 C   0  0  0  0  0  0  0  0  0  0  0  0
    0.0790   18.2290  -30.1860 C   0  0  0  0  0  0  0  0  0  0  0  0
   -0.1000   19.6000  -30.2120 C   0  0  0  0  0  0  0  0  0  0  0  0
    0.3030   20.0690  -28.9780 C   0  0  0  0  0  0  0  0  0  0  0  0
    0.7260   18.9710  -28.2530 C   0  0  0  0  0  0  0  0  0  0  0  0
    0.5980   17.8550  -28.9960 N   0  0  0  0  0  0  0  0  0  0  0  0
    0.9330   16.5010  -28.5630 C   0  0  0  0  0  0  0  0  0  0  0  0
   -5.4570   20.7600  -33.2040 C   0  0  0  0  0  0  0  0  0  0  0  0
   -6.2410   21.0890  -31.9320 C   0  0  0  0  0  0  0  0  0  0  0  0
   -7.2100   22.1740  -32.2000 N   0  0  0  0  0  0  0  0  0  0  0  0
   -8.4940   21.9060  -31.5250 C   0  0  0  0  0  0  0  0  0  0  0  0
   -6.6750   23.5040  -31.8190 C   0  0  0  0  0  0  0  0  0  0  0  0
   -5.1750   23.3930  -31.4580 C   0  0  0  0  0  0  0  0  0  0  0  0
   -4.5950   24.6020  -30.8260 N   0  0  0  0  0  0  0  0  0  0  0  0
   -5.6240   25.5780  -30.4290 C   0  0  0  0  0  0  0  0  0  0  0  0
   -3.6510   24.3170  -29.7200 C   0  0  0  0  0  0  0  0  0  0  0  0
   -4.1160   23.1060  -28.8890 C   0  0  0  0  0  0  0  0  0  0  0  0
   -2.9750   22.4190  -28.2410 N   0  0  0  0  0  0  0  0  0  0  0  0
   -3.0100   20.9710  -28.5520 C   0  0  0  0  0  0  0  0  0  0  0  0
   -2.7340   20.1240  -27.3110 C   0  0  0  0  0  0  0  0  0  0  0  0
   -1.6790   23.0420  -28.6170 C   0  0  0  0  0  0  0  0  0  0  0  0
   -0.7500   23.0780  -27.4050 C   0  0  0  0  0  0  0  0  0  0  0  0
    2.1870   20.6660  -34.9050 C   0  0  1  0  0  0  0  0  0  0  0  0
    2.6570   20.2310  -33.4750 C   0  0  0  0  0  0  0  0  0  0  0  0
    2.1070   18.8810  -33.0010 C   0  0  0  0  0  0  0  0  0  0  0  0
    2.3500   17.8040  -34.0520 C   0  0  0  0  0  0  0  0  0  0  0  0
    1.7090   18.1810  -35.3510 C   0  0  0  0  0  0  0  0  0  0  0  0
    1.2360   17.1990  -36.1660 N   0  0  0  0  0  0  0  0  0  0  0  0
    0.6910   17.4690  -37.3800 C   0  0  0  0  0  0  0  0  0  0  0  0
    0.6290   18.7820  -37.8400 C   0  0  0  0  0  0  0  0  0  0  0  0
    1.1290   19.8080  -37.0390 C   0  0  0  0  0  0  0  0  0  0  0  0
    1.6560   19.5280  -35.7680 C   0  0  0  0  0  0  0  0  0  0  0  0
   -0.6094   27.7823  -33.4128 H   0  0  0  0  0  0  0  0  0  0  0  0
   -1.1490   28.9896  -34.6284 H   0  0  0  0  0  0  0  0  0  0  0  0
   -1.8550   27.3379  -34.6284 H   0  0  0  0  0  0  0  0  0  0  0  0
    0.3505   28.2561  -36.1365 H   0  0  0  0  0  0  0  0  0  0  0  0
    1.0375   27.2207  -34.7863 H   0  0  0  0  0  0  0  0  0  0  0  0
    0.2385   26.7181  -38.1684 H   0  0  0  0  0  0  0  0  0  0  0  0
   -1.0778   25.4963  -37.9101 H   0  0  0  0  0  0  0  0  0  0  0  0
   -1.9728   27.8385  -36.6151 H   0  0  0  0  0  0  0  0  0  0  0  0
   -1.2666   28.3997  -38.1685 H   0  0  0  0  0  0  0  0  0  0  0  0
   -2.5636   27.1569  -38.1685 H   0  0  0  0  0  0  0  0  0  0  0  0
    1.5515   25.2571  -36.9588 H   0  0  0  0  0  0  0  0  0  0  0  0
    1.4825   25.3351  -35.1617 H   0  0  0  0  0  0  0  0  0  0  0  0
   -0.2971   23.6789  -35.1001 H   0  0  0  0  0  0  0  0  0  0  0  0
   -0.3848   23.6931  -36.9231 H   0  0  0  0  0  0  0  0  0  0  0  0
    1.0833   22.0204  -36.9964 H   0  0  0  0  0  0  0  0  0  0  0  0
    2.3042   23.0808  -36.2045 H   0  0  0  0  0  0  0  0  0  0  0  0
   -0.8513   22.1460  -34.8622 H   0  0  0  0  0  0  0  0  0  0  0  0
   -0.3018   20.4015  -35.0142 H   0  0  0  0  0  0  0  0  0  0  0  0
    0.2488   20.2874  -32.7002 H   0  0  0  0  0  0  0  0  0  0  0  0
   -0.0804   22.0787  -32.5059 H   0  0  0  0  0  0  0  0  0  0  0  0
   -2.0674   21.5574  -30.6643 H   0  0  0  0  0  0  0  0  0  0  0  0
   -1.6395   22.8301  -31.8574 H   0  0  0  0  0  0  0  0  0  0  0  0
   -3.2881   22.1168  -31.8574 H   0  0  0  0  0  0  0  0  0  0  0  0
   -3.3731   21.6701  -33.7675 H   0  0  0  0  0  0  0  0  0  0  0  0
   -2.0576   20.9070  -34.7349 H   0  0  0  0  0  0  0  0  0  0  0  0
   -3.7300   19.2813  -34.8942 H   0  0  0  0  0  0  0  0  0  0  0  0
   -2.7967   18.7288  -33.4174 H   0  0  0  0  0  0  0  0  0  0  0  0
   -5.3258   17.6012  -32.3923 H   0  0  0  0  0  0  0  0  0  0  0  0
   -6.5888   18.6356  -33.2012 H   0  0  0  0  0  0  0  0  0  0  0  0
   -6.2718   17.3149  -34.9837 H   0  0  0  0  0  0  0  0  0  0  0  0
   -4.7132   18.2905  -35.1718 H   0  0  0  0  0  0  0  0  0  0  0  0
   -4.4596   16.4632  -32.3906 H   0  0  0  0  0  0  0  0  0  0  0  0
   -5.4749   15.1488  -33.0748 H   0  0  0  0  0  0  0  0  0  0  0  0
   -3.6853   14.9939  -33.0748 H   0  0  0  0  0  0  0  0  0  0  0  0
   -2.8979   15.7793  -35.7855 H   0  0  0  0  0  0  0  0  0  0  0  0
   -2.9231   17.5248  -35.2704 H   0  0  0  0  0  0  0  0  0  0  0  0
   -2.6005   15.9790  -32.9070 H   0  0  0  0  0  0  0  0  0  0  0  0
   -1.4545   15.3144  -34.1511 H   0  0  0  0  0  0  0  0  0  0  0  0
   -0.0617   17.0127  -33.7845 H   0  0  0  0  0  0  0  0  0  0  0  0
   -1.3749   18.1677  -34.2868 H   0  0  0  0  0  0  0  0  0  0  0  0
   -1.0170   18.9170  -32.2840 H   0  0  0  0  0  0  0  0  0  0  0  0
   -0.4664   16.3283  -30.9966 H   0  0  0  0  0  0  0  0  0  0  0  0
    0.7991   17.2062  -31.9193 H   0  0  0  0  0  0  0  0  0  0  0  0
   -0.4869   20.1983  -31.0501 H   0  0  0  0  0  0  0  0  0  0  0  0
    0.2900   21.1148  -28.6373 H   0  0  0  0  0  0  0  0  0  0  0  0
    1.1100   19.0037  -27.2227 H   0  0  0  0  0  0  0  0  0  0  0  0
    0.9433   16.4595  -27.4638 H   0  0  0  0  0  0  0  0  0  0  0  0
    0.1822   15.7961  -28.9495 H   0  0  0  0  0  0  0  0  0  0  0  0
    1.9259   16.2275  -28.9495 H   0  0  0  0  0  0  0  0  0  0  0  0
   -4.7591   21.5821  -33.4208 H   0  0  0  0  0  0  0  0  0  0  0  0
   -6.1673   20.6333  -34.0343 H   0  0  0  0  0  0  0  0  0  0  0  0
   -6.7822   20.1923  -31.5958 H   0  0  0  0  0  0  0  0  0  0  0  0
   -5.5395   21.4169  -31.1507 H   0  0  0  0  0  0  0  0  0  0  0  0
   -8.3486   21.9363  -30.4351 H   0  0  0  0  0  0  0  0  0  0  0  0
   -9.2289   22.6701  -31.8183 H   0  0  0  0  0  0  0  0  0  0  0  0
   -8.8619   20.9117  -31.8183 H   0  0  0  0  0  0  0  0  0  0  0  0
   -6.7951   24.1993  -32.6629 H   0  0  0  0  0  0  0  0  0  0  0  0
   -7.2281   23.8762  -30.9441 H   0  0  0  0  0  0  0  0  0  0  0  0
   -5.0525   22.5507  -30.7612 H   0  0  0  0  0  0  0  0  0  0  0  0
   -4.6382   23.2532  -32.4079 H   0  0  0  0  0  0  0  0  0  0  0  0
   -5.6773   25.6286  -29.3315 H   0  0  0  0  0  0  0  0  0  0  0  0
   -5.3635   26.5688  -30.8295 H   0  0  0  0  0  0  0  0  0  0  0  0
   -6.5997   25.2655  -30.8295 H   0  0  0  0  0  0  0  0  0  0  0  0
   -2.6580   24.1026  -30.1420 H   0  0  0  0  0  0  0  0  0  0  0  0
   -3.6106   25.1969  -29.0610 H   0  0  0  0  0  0  0  0  0  0  0  0
   -4.8122   23.4529  -28.1112 H   0  0  0  0  0  0  0  0  0  0  0  0
   -4.6077   22.3923  -29.5664 H   0  0  0  0  0  0  0  0  0  0  0  0
   -4.0044   20.7141  -28.9459 H   0  0  0  0  0  0  0  0  0  0  0  0
   -2.2271   20.7590  -29.2951 H   0  0  0  0  0  0  0  0  0  0  0  0
   -2.9288   20.7217  -26.4084 H   0  0  0  0  0  0  0  0  0  0  0  0
   -3.3912   19.2419  -27.3155 H   0  0  0  0  0  0  0  0  0  0  0  0
   -1.6833   19.7984  -27.3155 H   0  0  0  0  0  0  0  0  0  0  0  0
   -1.2100   22.4531  -29.4190 H   0  0  0  0  0  0  0  0  0  0  0  0
   -1.8584   24.0692  -28.9672 H   0  0  0  0  0  0  0  0  0  0  0  0
   -1.3493   23.0548  -26.4829 H   0  0  0  0  0  0  0  0  0  0  0  0
   -0.0811   22.2051  -27.4297 H   0  0  0  0  0  0  0  0  0  0  0  0
   -0.1506   24.0000  -27.4297 H   0  0  0  0  0  0  0  0  0  0  0  0
    3.1147   21.0117  -35.3844 H   0  0  0  0  0  0  0  0  0  0  0  0
    3.7553   20.1706  -33.4793 H   0  0  0  0  0  0  0  0  0  0  0  0
    2.2668   20.9867  -32.7774 H   0  0  0  0  0  0  0  0  0  0  0  0
    2.6102   18.5938  -32.0660 H   0  0  0  0  0  0  0  0  0  0  0  0
    1.0237   18.9775  -32.8359 H   0  0  0  0  0  0  0  0  0  0  0  0
    3.4329   17.6854  -34.2043 H   0  0  0  0  0  0  0  0  0  0  0  0
    1.9094   16.8595  -33.7002 H   0  0  0  0  0  0  0  0  0  0  0  0
    0.2982   16.6501  -38.0005 H   0  0  0  0  0  0  0  0  0  0  0  0
    0.1908   19.0070  -38.8235 H   0  0  0  0  0  0  0  0  0  0  0  0
    1.1104   20.8449  -37.4057 H   0  0  0  0  0  0  0  0  0  0  0  0
  1  2  1  0
  2  3  1  0
  3  4  1  0
  4  5  1  0
  3  6  1  0
  6  7  1  0
  7  8  1  0
  8  9  1  0
  9 10  1  0
 10 11  1  0
 11 12  1  0
 12 13  1  0
 12 14  1  0
 14 15  1  0
 15 16  1  0
 16 17  1  0
 17 18  1  0
 18 19  1  0
 19 20  1  0
 19 21  1  0
 21 22  1  0
 22 23  1  0
 23 24  1  0
 24 25  1  0
 25 26  1  0
 26 27  2  0
 27 28  1  0
 28 29  2  0
 29 30  1  0
 30 31  1  0
 16 32  1  0
 32 33  1  0
 33 34  1  0
 34 35  1  0
 34 36  1  0
 36 37  1  0
 37 38  1  0
 38 39  1  0
 38 40  1  0
 40 41  1  0
 41 42  1  0
 42 43  1  0
 43 44  1  0
 42 45  1  0
 45 46  1  0
  9 47  1  0
 47 48  1  0
 48 49  1  0
 49 50  1  0
 50 51  1  0
 51 52  2  0
 52 53  1  0
 53 54  2  0
 54 55  1  0
 55 56  2  0
 30 26  1  0
 56 47  1  0
 56 51  1  0
  1 57  1  0
  1 58  1  0
  1 59  1  0
  2 60  1  0
  2 61  1  0
  4 62  1  0
  4 63  1  0
  5 64  1  0
  5 65  1  0
  5 66  1  0
  6 67  1  0
  6 68  1  0
  7 69  1  0
  7 70  1  0
  8 71  1  0
  8 72  1  0
 10 73  1  0
 10 74  1  0
 11 75  1  0
 11 76  1  0
 13 77  1  0
 13 78  1  0
 13 79  1  0
 14 80  1  0
 14 81  1  0
 15 82  1  0
 15 83  1  0
 17 84  1  0
 17 85  1  0
 18 86  1  0
 18 87  1  0
 20 88  1  0
 20 89  1  0
 20 90  1  0
 21 91  1  0
 21 92  1  0
 22 93  1  0
 22 94  1  0
 23 95  1  0
 23 96  1  0
 24 97  1  0
 25 98  1  0
 25 99  1  0
 27100  1  0
 28101  1  0
 29102  1  0
 31103  1  0
 31104  1  0
 31105  1  0
 32106  1  0
 32107  1  0
 33108  1  0
 33109  1  0
 35110  1  0
 35111  1  0
 35112  1  0
 36113  1  0
 36114  1  0
 37115  1  0
 37116  1  0
 39117  1  0
 39118  1  0
 39119  1  0
 40120  1  0
 40121  1  0
 41122  1  0
 41123  1  0
 43124  1  0
 43125  1  0
 44126  1  0
 44127  1  0
 44128  1  0
 45129  1  0
 45130  1  0
 46131  1  0
 46132  1  0
 46133  1  0
 47134  1  6
 48135  1  0
 48136  1  0
 49137  1  0
 49138  1  0
 50139  1  0
 50140  1  0
 53141  1  0
 54142  1  0
 55143  1  0
M  END
>  <UniqueID>  (47) 
46

>  <SMILES>  (47) 
CCN(CC)CCCN(CCN(C)CCN(CCN(C)CCCNCc1cccn1C)CCN(C)CCN(C)CCN(CC)CC)[C@H]1CCCc2ncccc21

>  <Energy>  (47) 
183.32149813944565

>  <Genealogy>  (47) 
CCN(CC)CCCN(CCN(C)CCN(CCN(C)CCCNCc1cccn1C)CCN(C)CCN(C)CCN(CC)CC)[C@H]1CCCc2ncccc21 (chirality)
CCN(CC)CCCN(CCN(C)CCN(CCN(C)CCCNCc1cccn1C)CCN(C)CCN(C)CCN(CC)CC)[C@H]1CCCc2ncccc21 (3D coordinates assigned)
CCN(CC)CCCN(CCN(C)CCN(CCN(C)CCCNCc1cccn1C)CCN(C)CCN(C)CCN(CC)CC)[C@H]1CCCc2ncccc21 (nonaromatic ring conformer: 183.32149813944565 kcal/mol)

>  <smiles>  (47) 
CCN(CC)CCCN(CCN(C)CCN(CCN(C)CCCNCc1cccn1C)CCN(C)CCN(C)CCN(CC)CC)C1CCCc2ncccc21

>  <score_type>  (47) 
oracle

>  <origin>  (47) 
adg

>  <m_score__min__energy>  (47) 
-10.35

>  <m_primary>  (47) 
energy

$$$$
47:0
     RDKit          3D

 44 45  0  0  0  0  0  0  0  0999 V2000
   -4.9144   26.8208  -30.3011 H   0  0  0  0  0  0  0  0  0  0  0  0
   -4.9870   25.7360  -30.4680 C   0  0  0  0  0  0  0  0  0  0  0  0
   -3.8650   25.0060  -30.6520 N   0  0  0  0  0  0  0  0  0  0  0  0
   -3.9020   23.6600  -30.8280 C   0  0  0  0  0  0  0  0  0  0  0  0
   -2.6920   22.9750  -30.9870 C   0  0  0  0  0  0  0  0  0  0  0  0
   -1.7460   23.5355  -31.0165 H   0  0  0  0  0  0  0  0  0  0  0  0
   -2.6790   21.5880  -31.1080 C   0  0  0  0  0  0  0  0  0  0  0  0
   -1.1580   20.7360  -31.2980 Cl  0  0  0  0  0  0  0  0  0  0  0  0
   -3.8740   20.8760  -31.0430 C   0  0  0  0  0  0  0  0  0  0  0  0
   -3.8599   19.7783  -31.1133 H   0  0  0  0  0  0  0  0  0  0  0  0
   -5.0920   21.5460  -30.8890 C   0  0  0  0  0  0  0  0  0  0  0  0
   -6.0233   20.9653  -30.8156 H   0  0  0  0  0  0  0  0  0  0  0  0
   -5.1460   22.9610  -30.8260 C   0  0  0  0  0  0  0  0  0  0  0  0
   -6.3490   23.7400  -30.7100 C   0  0  0  0  0  0  0  0  0  0  0  0
   -7.5740   23.3040  -30.8590 N   0  0  0  0  0  0  0  0  0  0  0  0
   -8.3440   22.9010  -32.0310 C   0  0  0  0  0  0  0  0  0  0  0  0
   -7.6827   22.3839  -32.7418 H   0  0  0  0  0  0  0  0  0  0  0  0
   -8.7745   23.7947  -32.5064 H   0  0  0  0  0  0  0  0  0  0  0  0
   -9.4780   21.9560  -31.6110 C   0  0  0  0  0  0  0  0  0  0  0  0
  -10.3100   22.0734  -32.3209 H   0  0  0  0  0  0  0  0  0  0  0  0
   -9.7636   22.2295  -30.5845 H   0  0  0  0  0  0  0  0  0  0  0  0
   -9.0640   20.4720  -31.5860 C   0  0  0  0  0  0  0  0  0  0  0  0
   -9.9187   19.8737  -31.2373 H   0  0  0  0  0  0  0  0  0  0  0  0
   -8.2006   20.3785  -30.9108 H   0  0  0  0  0  0  0  0  0  0  0  0
   -8.6290   19.9510  -32.9780 C   0  0  0  0  0  0  0  0  0  0  0  0
   -8.3103   20.8111  -33.5851 H   0  0  0  0  0  0  0  0  0  0  0  0
   -9.4962   19.4276  -33.4071 H   0  0  0  0  0  0  0  0  0  0  0  0
   -7.5150   18.9720  -32.9350 N   0  0  0  0  0  0  0  0  0  0  0  0
   -6.2330   19.4650  -33.4880 C   0  0  0  0  0  0  0  0  0  0  0  0
   -5.4805   19.4760  -32.6858 H   0  0  0  0  0  0  0  0  0  0  0  0
   -6.4007   20.4758  -33.8883 H   0  0  0  0  0  0  0  0  0  0  0  0
   -5.7270   18.5820  -34.6280 C   0  0  0  0  0  0  0  0  0  0  0  0
   -5.2209   17.6989  -34.2109 H   0  0  0  0  0  0  0  0  0  0  0  0
   -6.5772   18.2592  -35.2469 H   0  0  0  0  0  0  0  0  0  0  0  0
   -5.0187   19.1523  -35.2469 H   0  0  0  0  0  0  0  0  0  0  0  0
   -7.3530   18.3650  -31.5930 C   0  0  0  0  0  0  0  0  0  0  0  0
   -7.1286   19.1538  -30.8599 H   0  0  0  0  0  0  0  0  0  0  0  0
   -8.2843   17.8519  -31.3112 H   0  0  0  0  0  0  0  0  0  0  0  0
   -6.2100   17.3570  -31.6180 C   0  0  0  0  0  0  0  0  0  0  0  0
   -5.9223   17.1033  -30.5871 H   0  0  0  0  0  0  0  0  0  0  0  0
   -6.5355   16.4465  -32.1425 H   0  0  0  0  0  0  0  0  0  0  0  0
   -5.3474   17.7938  -32.1425 H   0  0  0  0  0  0  0  0  0  0  0  0
   -6.2320   25.1200  -30.4890 C   0  0  0  0  0  0  0  0  0  0  0  0
   -7.1383   25.7228  -30.3301 H   0  0  0  0  0  0  0  0  0  0  0  0
  1  2  1  0
  2  3  1  0
  3  4  1  0
  4  5  2  0
  5  6  1  0
  5  7  1  0
  7  8  1  0
  7  9  2  0
  9 10  1  0
  9 11  1  0
 11 12  1  0
 11 13  2  0
 13 14  1  0
 14 15  2  0
 15 16  1  0
 16 17  1  0
 16 18  1  0
 16 19  1  0
 19 20  1  0
 19 21  1  0
 19 22  1  0
 22 23  1  0
 22 24  1  0
 22 25  1  0
 25 26  1  0
 25 27  1  0
 25 28  1  0
 28 29  1  0
 29 30  1  0
 29 31  1  0
 29 32  1  0
 32 33  1  0
 32 34  1  0
 32 35  1  0
 28 36  1  0
 36 37  1  0
 36 38  1  0
 36 39  1  0
 39 40  1  0
 39 41  1  0
 39 42  1  0
 14 43  1  0
 43 44  1  0
 43  2  2  0
 13  4  1  0
M  CHG  1   3  -1
M  END
>  <UniqueID>  (48) 
47

>  <SMILES>  (48) 
CCN(CC)CCCC/N=c1/cc[n-]c2cc(Cl)ccc12

>  <Energy>  (48) 
59.544388382761

>  <Genealogy>  (48) 
CCN(CC)CCCCN=c1cc[n-]c2cc(Cl)ccc12 (protonated)
CCN(CC)CCCC/N=c1/cc[n-]c2cc(Cl)ccc12 (cis-trans isomerization)
CCN(CC)CCCC/N=c1/cc[n-]c2cc(Cl)ccc12 (3D coordinates assigned)
CCN(CC)CCCC/N=c1/cc[n-]c2cc(Cl)ccc12 (optimized conformer: 59.544388382761 kcal/mol)

>  <smiles>  (48) 
CCN(CC)CCCCN=c1cc[nH]c2cc(Cl)ccc12

>  <score_type>  (48) 
oracle

>  <origin>  (48) 
adg

>  <m_score__min__energy>  (48) 
-8.7200000000000006

>  <m_primary>  (48) 
energy

$$$$
48:0
     RDKit          3D

 48 51  0  0  0  0  0  0  0  0999 V2000
   -7.2197   21.6393  -30.6468 H   0  0  0  0  0  0  0  0  0  0  0  0
   -6.6610   21.0270  -31.3700 C   0  0  0  0  0  0  0  0  0  0  0  0
   -5.4240   21.4120  -31.7380 C   0  0  0  0  0  0  0  0  0  0  0  0
   -4.7950   22.6400  -31.1820 C   0  0  0  0  0  0  0  0  0  0  0  0
   -3.5300   22.5600  -30.6920 N   0  0  0  0  0  0  0  0  0  0  0  0
   -2.8810   23.6420  -30.1820 C   0  0  0  0  0  0  0  0  0  0  0  0
   -1.6710   23.5330  -29.7150 N   0  0  0  0  0  0  0  0  0  0  0  0
   -1.3090   23.5080  -28.3240 C   0  0  0  0  0  0  0  0  0  0  0  0
   -1.1220   22.2640  -27.7060 C   0  0  0  0  0  0  0  0  0  0  0  0
   -1.2591   21.3399  -28.2867 H   0  0  0  0  0  0  0  0  0  0  0  0
   -0.7630   22.1890  -26.3590 C   0  0  0  0  0  0  0  0  0  0  0  0
   -0.6061   21.2083  -25.8861 H   0  0  0  0  0  0  0  0  0  0  0  0
   -0.6030   23.3560  -25.6120 C   0  0  0  0  0  0  0  0  0  0  0  0
   -0.3054   23.2946  -24.5548 H   0  0  0  0  0  0  0  0  0  0  0  0
   -0.8200   24.6030  -26.2040 C   0  0  0  0  0  0  0  0  0  0  0  0
   -0.6975   25.5197  -25.6085 H   0  0  0  0  0  0  0  0  0  0  0  0
   -1.1950   24.6930  -27.5600 C   0  0  0  0  0  0  0  0  0  0  0  0
   -1.4790   25.9270  -28.1660 O   0  0  0  0  0  0  0  0  0  0  0  0
   -0.8340   27.1550  -27.8420 C   0  0  0  0  0  0  0  0  0  0  0  0
   -0.7777   27.2623  -26.7487 H   0  0  0  0  0  0  0  0  0  0  0  0
    0.1820   27.1579  -28.2635 H   0  0  0  0  0  0  0  0  0  0  0  0
   -1.4083   27.9932  -28.2635 H   0  0  0  0  0  0  0  0  0  0  0  0
   -3.5190   24.8430  -30.1270 N   0  0  0  0  0  0  0  0  0  0  0  0
   -3.0240   25.6730  -29.7250 H   0  0  0  0  0  0  0  0  0  0  0  0
   -4.7950   24.9780  -30.5820 C   0  0  0  0  0  0  0  0  0  0  0  0
   -5.4530   26.2460  -30.5040 N   0  0  0  0  0  0  0  0  0  0  0  0
   -5.6850   26.6730  -29.5790 H   0  0  0  0  0  0  0  0  0  0  0  0
   -5.7140   26.7640  -31.3710 H   0  0  0  0  0  0  0  0  0  0  0  0
   -5.4640   23.8730  -31.1190 C   0  0  0  0  0  0  0  0  0  0  0  0
   -6.4967   23.9684  -31.4857 H   0  0  0  0  0  0  0  0  0  0  0  0
   -4.6660   20.6550  -32.8130 C   0  0  0  0  0  0  0  0  0  0  0  0
   -4.5763   21.3071  -33.6943 H   0  0  0  0  0  0  0  0  0  0  0  0
   -3.6925   20.3841  -32.3783 H   0  0  0  0  0  0  0  0  0  0  0  0
   -5.3170   19.3660  -33.2450 C   0  0  0  0  0  0  0  0  0  0  0  0
   -4.6630   18.5170  -34.1490 C   0  0  0  0  0  0  0  0  0  0  0  0
   -3.6617   18.7795  -34.5212 H   0  0  0  0  0  0  0  0  0  0  0  0
   -5.2790   17.3380  -34.5790 C   0  0  0  0  0  0  0  0  0  0  0  0
   -4.7581   16.6737  -35.2842 H   0  0  0  0  0  0  0  0  0  0  0  0
   -6.5640   16.9970  -34.1130 C   0  0  0  0  0  0  0  0  0  0  0  0
   -7.2250   15.8280  -34.5160 O   0  0  0  0  0  0  0  0  0  0  0  0
   -6.7480   14.5090  -34.2680 C   0  0  0  0  0  0  0  0  0  0  0  0
   -6.6866   14.3393  -33.1829 H   0  0  0  0  0  0  0  0  0  0  0  0
   -7.4391   13.7791  -34.7148 H   0  0  0  0  0  0  0  0  0  0  0  0
   -5.7499   14.3900  -34.7148 H   0  0  0  0  0  0  0  0  0  0  0  0
   -7.2140   17.8530  -33.2150 C   0  0  0  0  0  0  0  0  0  0  0  0
   -8.2187   17.5972  -32.8475 H   0  0  0  0  0  0  0  0  0  0  0  0
   -6.5960   19.0300  -32.7820 C   0  0  0  0  0  0  0  0  0  0  0  0
   -7.2530   19.8700  -31.8830 O   0  0  0  0  0  0  0  0  0  0  0  0
  1  2  1  0
  2  3  2  0
  3  4  1  0
  4  5  2  0
  5  6  1  0
  6  7  2  0
  7  8  1  0
  8  9  2  0
  9 10  1  0
  9 11  1  0
 11 12  1  0
 11 13  2  0
 13 14  1  0
 13 15  1  0
 15 16  1  0
 15 17  2  0
 17 18  1  0
 18 19  1  0
 19 20  1  0
 19 21  1  0
 19 22  1  0
  6 23  1  0
 23 24  1  0
 23 25  1  0
 25 26  1  0
 26 27  1  0
 26 28  1  0
 25 29  2  0
 29 30  1  0
  3 31  1  0
 31 32  1  0
 31 33  1  0
 31 34  1  0
 34 35  2  0
 35 36  1  0
 35 37  1  0
 37 38  1  0
 37 39  2  0
 39 40  1  0
 40 41  1  0
 41 42  1  0
 41 43  1  0
 41 44  1  0
 39 45  1  0
 45 46  1  0
 45 47  2  0
 47 48  1  0
 48  2  1  0
 29  4  1  0
 47 34  1  0
 17  8  1  0
M  END
>  <UniqueID>  (49) 
48

>  <SMILES>  (49) 
COc1ccc2c(c1)OC=C(c1cc(N)[nH]/c(=N/c3ccccc3OC)n1)C2

>  <Energy>  (49) 
62.40801436826045

>  <Genealogy>  (49) 
COc1ccc2c(c1)OC=C(c1cc(N)[nH]/c(=N/c3ccccc3OC)n1)C2 (cis-trans isomerization)
COc1ccc2c(c1)OC=C(c1cc(N)[nH]/c(=N/c3ccccc3OC)n1)C2 (3D coordinates assigned)
COc1ccc2c(c1)OC=C(c1cc(N)[nH]/c(=N/c3ccccc3OC)n1)C2 (nonaromatic ring conformer: 62.40801436826045 kcal/mol)

>  <smiles>  (49) 
COc1ccc2c(c1)OC=C(c1cc(N)[nH]c(=Nc3ccccc3OC)n1)C2

>  <score_type>  (49) 
oracle

>  <origin>  (49) 
adg

>  <m_score__min__energy>  (49) 
-8.5399999999999991

>  <m_primary>  (49) 
energy

$$$$
