0:0
     RDKit          3D

 54 57  0  0  0  0  0  0  0  0999 V2000
    0.6440   17.2760  -29.9060 C   0  0  0  0  0  0  0  0  0  0  0  0
    0.2640   18.4420  -30.6290 O   0  0  0  0  0  0  0  0  0  0  0  0
   -0.2570   19.6080  -30.0440 C   0  0  0  0  0  0  0  0  0  0  0  0
    0.3200   20.1830  -28.8940 C   0  0  0  0  0  0  0  0  0  0  0  0
   -0.1870   21.3750  -28.3690 C   0  0  0  0  0  0  0  0  0  0  0  0
   -1.2660   22.0090  -28.9850 C   0  0  0  0  0  0  0  0  0  0  0  0
   -1.8510   21.4460  -30.1200 C   0  0  0  0  0  0  0  0  0  0  0  0
   -1.3730   20.2350  -30.6420 C   0  0  0  0  0  0  0  0  0  0  0  0
   -1.9940   19.6880  -31.8150 N   0  0  0  0  0  0  0  0  0  0  0  0
   -2.6270   20.4990  -32.8160 C   0  0  0  0  0  0  0  0  0  0  0  0
   -2.4610   21.7490  -32.8100 O   0  0  0  0  0  0  0  0  0  0  0  0
   -3.5250   19.8570  -33.8380 C   0  0  0  0  0  0  0  0  0  0  0  0
   -4.5490   18.9990  -33.2070 N   0  0  0  0  0  0  0  0  0  0  0  0
   -4.2380   17.6160  -32.9050 C   0  0  0  0  0  0  0  0  0  0  0  0
   -3.0710   17.1660  -33.0700 O   0  0  0  0  0  0  0  0  0  0  0  0
   -5.2930   16.6980  -32.3660 C   0  0  0  0  0  0  0  0  0  0  0  0
   -6.7970   16.9160  -33.3530 S   0  0  0  0  0  0  0  0  0  0  0  0
   -6.9770   18.6310  -32.8540 C   0  0  0  0  0  0  0  0  0  0  0  0
   -8.2340   19.0870  -32.4460 C   0  0  0  0  0  0  0  0  0  0  0  0
   -8.4240   20.4320  -32.1290 C   0  0  0  0  0  0  0  0  0  0  0  0
   -7.3530   21.3290  -32.2040 C   0  0  0  0  0  0  0  0  0  0  0  0
   -7.5880   23.0410  -31.8660 S   0  0  0  0  0  0  0  0  0  0  0  0
   -6.8760   23.8760  -32.8940 O   0  0  0  0  0  0  0  0  0  0  0  0
   -9.0590   23.3430  -31.9330 O   0  0  0  0  0  0  0  0  0  0  0  0
   -6.9800   23.4020  -30.2640 N   0  0  0  0  0  0  0  0  0  0  0  0
   -5.6270   22.8610  -30.0930 C   0  0  0  0  0  0  0  0  0  0  0  0
   -4.6290   23.9570  -30.4380 C   0  0  0  0  0  0  0  0  0  0  0  0
   -5.4260   25.2470  -30.4430 C   0  0  0  0  0  0  0  0  0  0  0  0
   -6.8490   24.8500  -30.0780 C   0  0  0  0  0  0  0  0  0  0  0  0
   -6.0840   20.8670  -32.5770 C   0  0  0  0  0  0  0  0  0  0  0  0
   -5.8740   19.5100  -32.8980 C   0  0  0  0  0  0  0  0  0  0  0  0
    0.5787   17.4765  -28.8264 H   0  0  0  0  0  0  0  0  0  0  0  0
   -0.0305   16.4470  -30.1665 H   0  0  0  0  0  0  0  0  0  0  0  0
    1.6774   17.0036  -30.1665 H   0  0  0  0  0  0  0  0  0  0  0  0
    1.1745   19.6907  -28.4066 H   0  0  0  0  0  0  0  0  0  0  0  0
    0.2660   21.8142  -27.4679 H   0  0  0  0  0  0  0  0  0  0  0  0
   -1.6558   22.9528  -28.5761 H   0  0  0  0  0  0  0  0  0  0  0  0
   -2.6939   21.9561  -30.6093 H   0  0  0  0  0  0  0  0  0  0  0  0
   -1.8770   18.6660  -32.0030 H   0  0  0  0  0  0  0  0  0  0  0  0
   -4.0285   20.6463  -34.4155 H   0  0  0  0  0  0  0  0  0  0  0  0
   -2.9040   19.2251  -34.4899 H   0  0  0  0  0  0  0  0  0  0  0  0
   -4.9499   15.6553  -32.4366 H   0  0  0  0  0  0  0  0  0  0  0  0
   -5.4956   16.9324  -31.3105 H   0  0  0  0  0  0  0  0  0  0  0  0
   -9.0760   18.3828  -32.3747 H   0  0  0  0  0  0  0  0  0  0  0  0
   -9.4177   20.7880  -31.8195 H   0  0  0  0  0  0  0  0  0  0  0  0
   -5.4830   22.5411  -29.0504 H   0  0  0  0  0  0  0  0  0  0  0  0
   -5.4794   21.9921  -30.7512 H   0  0  0  0  0  0  0  0  0  0  0  0
   -3.8310   24.0015  -29.6822 H   0  0  0  0  0  0  0  0  0  0  0  0
   -4.1433   23.7747  -31.4080 H   0  0  0  0  0  0  0  0  0  0  0  0
   -5.0215   25.9512  -29.7011 H   0  0  0  0  0  0  0  0  0  0  0  0
   -5.3815   25.7492  -31.4206 H   0  0  0  0  0  0  0  0  0  0  0  0
   -7.0513   25.1109  -29.0287 H   0  0  0  0  0  0  0  0  0  0  0  0
   -7.5689   25.3828  -30.7167 H   0  0  0  0  0  0  0  0  0  0  0  0
   -5.2406   21.5719  -32.6200 H   0  0  0  0  0  0  0  0  0  0  0  0
  1  2  1  0
  2  3  1  0
  3  4  2  0
  4  5  1  0
  5  6  2  0
  6  7  1  0
  7  8  2  0
  8  9  1  0
  9 10  1  0
 10 11  2  0
 10 12  1  0
 12 13  1  0
 13 14  1  0
 14 15  2  0
 14 16  1  0
 16 17  1  0
 17 18  1  0
 18 19  2  0
 19 20  1  0
 20 21  2  0
 21 22  1  0
 22 23  2  0
 22 24  2  0
 22 25  1  0
 25 26  1  0
 26 27  1  0
 27 28  1  0
 28 29  1  0
 21 30  1  0
 30 31  2  0
  8  3  1  0
 31 13  1  0
 31 18  1  0
 29 25  1  0
  1 32  1  0
  1 33  1  0
  1 34  1  0
  4 35  1  0
  5 36  1  0
  6 37  1  0
  7 38  1  0
  9 39  1  0
 12 40  1  0
 12 41  1  0
 16 42  1  0
 16 43  1  0
 19 44  1  0
 20 45  1  0
 26 46  1  0
 26 47  1  0
 27 48  1  0
 27 49  1  0
 28 50  1  0
 28 51  1  0
 29 52  1  0
 29 53  1  0
 30 54  1  0
M  END
>  <UniqueID>  (1) 
1

>  <SMILES>  (1) 
COc1ccccc1NC(=O)CN1C(=O)CSc2ccc(S(=O)(=O)N3CCCC3)cc21

>  <Energy>  (1) 
68.0085625322933

>  <Genealogy>  (1) 
COc1ccccc1NC(=O)CN1C(=O)CSc2ccc(S(=O)(=O)N3CCCC3)cc21 (3D coordinates assigned)
COc1ccccc1NC(=O)CN1C(=O)CSc2ccc(S(=O)(=O)N3CCCC3)cc21 (nonaromatic ring conformer: 68.0085625322933 kcal/mol)

>  <smiles>  (1) 
COc1ccccc1NC(=O)CN1C(=O)CSc2ccc(S(=O)(=O)N3CCCC3)cc21

>  <score_type>  (1) 
oracle

>  <origin>  (1) 
adg

>  <m_score__min__energy>  (1) 
-9.9900000000000002

>  <m_primary>  (1) 
energy

$$$$
1:0
     RDKit          3D

 47 49  0  0  0  0  0  0  0  0999 V2000
   -8.7240   19.3840  -32.1100 C   0  0  0  0  0  0  0  0  0  0  0  0
   -7.6200   19.3860  -33.0900 N   0  0  0  0  0  0  0  0  0  0  0  0
   -6.9410   18.0780  -33.0700 C   0  0  0  0  0  0  0  0  0  0  0  0
   -6.6410   20.4640  -32.8140 C   0  0  0  0  0  0  0  0  0  0  0  0
   -7.0890   21.3930  -31.6700 C   0  0  0  0  0  0  0  0  0  0  0  0
   -6.7820   22.8010  -32.0090 N   0  0  0  0  0  0  0  0  0  0  0  0
   -5.3500   23.0110  -32.3060 C   0  0  0  0  0  0  0  0  0  0  0  0
   -4.4630   22.8620  -31.0540 C   0  0  0  0  0  0  0  0  0  0  0  0
   -5.1300   23.4360  -29.7800 C   0  0  0  0  0  0  0  0  0  0  0  0
   -4.1100   24.0540  -28.8440 C   0  0  0  0  0  0  0  0  0  0  0  0
   -4.4480   24.2930  -27.4840 C   0  0  0  0  0  0  0  0  0  0  0  0
   -3.5170   24.8660  -26.5980 C   0  0  0  0  0  0  0  0  0  0  0  0
   -2.2570   25.1870  -27.0970 C   0  0  0  0  0  0  0  0  0  0  0  0
   -1.1530   25.7460  -26.4920 C   0  0  0  0  0  0  0  0  0  0  0  0
   -1.0250   26.1570  -25.1200 C   0  0  0  0  0  0  0  0  0  0  0  0
   -0.9230   26.4870  -24.0150 N   0  0  0  0  0  0  0  0  0  0  0  0
   -0.1760   25.8330  -27.4760 C   0  0  0  0  0  0  0  0  0  0  0  0
   -0.6510   25.3480  -28.6470 N   0  0  0  0  0  0  0  0  0  0  0  0
   -1.9170   24.9600  -28.4040 C   0  0  0  0  0  0  0  0  0  0  0  0
   -2.8140   24.3950  -29.3080 C   0  0  0  0  0  0  0  0  0  0  0  0
   -6.2460   24.4340  -30.1290 C   0  0  0  0  0  0  0  0  0  0  0  0
   -7.3210   23.7720  -31.0160 C   0  0  0  0  0  0  0  0  0  0  0  0
   -8.3097   19.3848  -31.0910 H   0  0  0  0  0  0  0  0  0  0  0  0
   -9.3441   20.2810  -32.2544 H   0  0  0  0  0  0  0  0  0  0  0  0
   -9.3408   18.4847  -32.2544 H   0  0  0  0  0  0  0  0  0  0  0  0
   -8.0230   19.5190  -34.0480 H   0  0  0  0  0  0  0  0  0  0  0  0
   -6.7786   17.7651  -32.0280 H   0  0  0  0  0  0  0  0  0  0  0  0
   -7.5660   17.3325  -33.5835 H   0  0  0  0  0  0  0  0  0  0  0  0
   -5.9717   18.1602  -33.5835 H   0  0  0  0  0  0  0  0  0  0  0  0
   -5.6799   20.0050  -32.5391 H   0  0  0  0  0  0  0  0  0  0  0  0
   -6.5534   21.0752  -33.7243 H   0  0  0  0  0  0  0  0  0  0  0  0
   -8.1726   21.2838  -31.5157 H   0  0  0  0  0  0  0  0  0  0  0  0
   -6.5508   21.1181  -30.7509 H   0  0  0  0  0  0  0  0  0  0  0  0
   -5.0320   22.2704  -33.0546 H   0  0  0  0  0  0  0  0  0  0  0  0
   -5.2320   24.0384  -32.6807 H   0  0  0  0  0  0  0  0  0  0  0  0
   -4.2574   21.7934  -30.8931 H   0  0  0  0  0  0  0  0  0  0  0  0
   -3.5384   23.4309  -31.2311 H   0  0  0  0  0  0  0  0  0  0  0  0
   -5.5943   22.5924  -29.2483 H   0  0  0  0  0  0  0  0  0  0  0  0
   -5.4510   24.0264  -27.1193 H   0  0  0  0  0  0  0  0  0  0  0  0
   -3.7760   25.0542  -25.5456 H   0  0  0  0  0  0  0  0  0  0  0  0
    0.8359   26.2371  -27.3254 H   0  0  0  0  0  0  0  0  0  0  0  0
   -0.1370   25.2900  -29.5540 H   0  0  0  0  0  0  0  0  0  0  0  0
   -2.5245   24.2180  -30.3544 H   0  0  0  0  0  0  0  0  0  0  0  0
   -6.7150   24.7889  -29.1995 H   0  0  0  0  0  0  0  0  0  0  0  0
   -5.8037   25.2754  -30.6826 H   0  0  0  0  0  0  0  0  0  0  0  0
   -8.0276   23.2399  -30.3621 H   0  0  0  0  0  0  0  0  0  0  0  0
   -7.7969   24.5800  -31.5910 H   0  0  0  0  0  0  0  0  0  0  0  0
  1  2  1  0
  2  3  1  0
  2  4  1  0
  4  5  1  0
  5  6  1  0
  6  7  1  0
  7  8  1  0
  8  9  1  0
  9 10  1  0
 10 11  2  0
 11 12  1  0
 12 13  2  0
 13 14  1  0
 14 15  1  0
 15 16  3  0
 14 17  2  0
 17 18  1  0
 18 19  1  0
 19 20  2  0
  9 21  1  0
 21 22  1  0
 22  6  1  0
 20 10  1  0
 19 13  1  0
  1 23  1  0
  1 24  1  0
  1 25  1  0
  2 26  1  0
  3 27  1  0
  3 28  1  0
  3 29  1  0
  4 30  1  0
  4 31  1  0
  5 32  1  0
  5 33  1  0
  7 34  1  0
  7 35  1  0
  8 36  1  0
  8 37  1  0
  9 38  1  0
 11 39  1  0
 12 40  1  0
 17 41  1  0
 18 42  1  0
 20 43  1  0
 21 44  1  0
 21 45  1  0
 22 46  1  0
 22 47  1  0
M  CHG  1   2   1
M  END
>  <UniqueID>  (2) 
2

>  <SMILES>  (2) 
C[NH+](C)CCN1CCC(c2ccc3c(C#N)c[nH]c3c2)CC1

>  <Energy>  (2) 
90.69470582561578

>  <Genealogy>  (2) 
C[NH+](C)CCN1CCC(c2ccc3c(C#N)c[nH]c3c2)CC1 (protonated)
C[NH+](C)CCN1CCC(c2ccc3c(C#N)c[nH]c3c2)CC1 (3D coordinates assigned)
C[NH+](C)CCN1CCC(c2ccc3c(C#N)c[nH]c3c2)CC1 (nonaromatic ring conformer: 90.69470582561578 kcal/mol)

>  <smiles>  (2) 
CN(C)CCN1CCC(c2ccc3c(C#N)c[nH]c3c2)CC1

>  <score_type>  (2) 
oracle

>  <origin>  (2) 
adg

>  <m_score__min__energy>  (2) 
-7.2400000000000002

>  <m_primary>  (2) 
energy

$$$$
2:0
     RDKit          3D

 40 44  0  0  0  0  0  0  0  0999 V2000
   -9.3390   22.4800  -31.7550 C   0  0  0  0  0  0  0  0  0  0  0  0
   -9.8180   21.1850  -31.9650 C   0  0  0  0  0  0  0  0  0  0  0  0
   -8.9420   20.1640  -32.3460 C   0  0  0  0  0  0  0  0  0  0  0  0
   -7.5710   20.4330  -32.5270 C   0  0  0  0  0  0  0  0  0  0  0  0
   -6.6190   19.3700  -32.9280 C   0  0  0  0  0  0  0  0  0  0  0  0
   -6.9410   18.0510  -32.9950 N   0  0  0  0  0  0  0  0  0  0  0  0
   -5.8600   17.3600  -33.3520 N   0  0  0  0  0  0  0  0  0  0  0  0
   -5.8490   15.9340  -33.5160 C   0  0  0  0  0  0  0  0  0  0  0  0
   -4.8490   15.1660  -32.8980 C   0  0  0  0  0  0  0  0  0  0  0  0
   -4.8440   13.7740  -33.0340 C   0  0  0  0  0  0  0  0  0  0  0  0
   -5.8450   13.1380  -33.7720 C   0  0  0  0  0  0  0  0  0  0  0  0
   -6.8570   13.8920  -34.3720 C   0  0  0  0  0  0  0  0  0  0  0  0
   -6.8650   15.2850  -34.2400 C   0  0  0  0  0  0  0  0  0  0  0  0
   -4.8380   18.2270  -33.4990 C   0  0  0  0  0  0  0  0  0  0  0  0
   -3.5250   17.9570  -33.7150 N   0  0  0  0  0  0  0  0  0  0  0  0
   -2.6430   19.0060  -33.7250 C   0  0  0  0  0  0  0  0  0  0  0  0
   -1.2770   18.7950  -33.9640 C   0  0  0  0  0  0  0  0  0  0  0  0
   -0.3900   19.8770  -33.9610 C   0  0  0  0  0  0  0  0  0  0  0  0
   -0.8550   21.1730  -33.7160 C   0  0  0  0  0  0  0  0  0  0  0  0
   -2.2120   21.4020  -33.4700 C   0  0  0  0  0  0  0  0  0  0  0  0
   -3.1140   20.3340  -33.4730 C   0  0  0  0  0  0  0  0  0  0  0  0
   -4.4380   20.5500  -33.2150 N   0  0  0  0  0  0  0  0  0  0  0  0
   -5.2780   19.4880  -33.2460 C   0  0  0  0  0  0  0  0  0  0  0  0
   -7.0990   21.7390  -32.3020 C   0  0  0  0  0  0  0  0  0  0  0  0
   -7.9800   22.7560  -31.9210 C   0  0  0  0  0  0  0  0  0  0  0  0
  -10.0315   23.2818  -31.4591 H   0  0  0  0  0  0  0  0  0  0  0  0
  -10.8878   20.9676  -31.8302 H   0  0  0  0  0  0  0  0  0  0  0  0
   -9.3253   19.1453  -32.5053 H   0  0  0  0  0  0  0  0  0  0  0  0
   -4.0664   15.6612  -32.3045 H   0  0  0  0  0  0  0  0  0  0  0  0
   -4.0502   13.1789  -32.5589 H   0  0  0  0  0  0  0  0  0  0  0  0
   -5.8366   12.0434  -33.8809 H   0  0  0  0  0  0  0  0  0  0  0  0
   -7.6480   13.3901  -34.9485 H   0  0  0  0  0  0  0  0  0  0  0  0
   -7.6691   15.8747  -34.7044 H   0  0  0  0  0  0  0  0  0  0  0  0
   -3.1890   16.9760  -33.8420 H   0  0  0  0  0  0  0  0  0  0  0  0
   -0.9029   17.7781  -34.1539 H   0  0  0  0  0  0  0  0  0  0  0  0
    0.6798   19.7073  -34.1525 H   0  0  0  0  0  0  0  0  0  0  0  0
   -0.1492   22.0167  -33.7169 H   0  0  0  0  0  0  0  0  0  0  0  0
   -2.5703   22.4234  -33.2739 H   0  0  0  0  0  0  0  0  0  0  0  0
   -6.0291   21.9619  -32.4267 H   0  0  0  0  0  0  0  0  0  0  0  0
   -7.6020   23.7751  -31.7518 H   0  0  0  0  0  0  0  0  0  0  0  0
  1  2  2  0
  2  3  1  0
  3  4  2  0
  4  5  1  0
  5  6  2  0
  6  7  1  0
  7  8  1  0
  8  9  2  0
  9 10  1  0
 10 11  2  0
 11 12  1  0
 12 13  2  0
  7 14  1  0
 14 15  2  0
 15 16  1  0
 16 17  2  0
 17 18  1  0
 18 19  2  0
 19 20  1  0
 20 21  2  0
 21 22  1  0
 22 23  2  0
  4 24  1  0
 24 25  2  0
 25  1  1  0
 23  5  1  0
 13  8  1  0
 23 14  1  0
 21 16  1  0
  1 26  1  0
  2 27  1  0
  3 28  1  0
  9 29  1  0
 10 30  1  0
 11 31  1  0
 12 32  1  0
 13 33  1  0
 15 34  1  0
 17 35  1  0
 18 36  1  0
 19 37  1  0
 20 38  1  0
 24 39  1  0
 25 40  1  0
M  CHG  1  15   1
M  END
>  <UniqueID>  (3) 
3

>  <SMILES>  (3) 
c1ccc(-c2nn(-c3ccccc3)c3[nH+]c4ccccc4nc23)cc1

>  <Energy>  (3) 
100.81290457781665

>  <Genealogy>  (3) 
c1ccc(-c2nn(-c3ccccc3)c3[nH+]c4ccccc4nc23)cc1 (protonated)
c1ccc(-c2nn(-c3ccccc3)c3[nH+]c4ccccc4nc23)cc1 (3D coordinates assigned)
c1ccc(-c2nn(-c3ccccc3)c3[nH+]c4ccccc4nc23)cc1 (optimized conformer: 100.81290457781665 kcal/mol)

>  <smiles>  (3) 
c1ccc(-c2nn(-c3ccccc3)c3nc4ccccc4nc23)cc1

>  <score_type>  (3) 
oracle

>  <origin>  (3) 
adg

>  <m_score__min__energy>  (3) 
-7.8499999999999996

>  <m_primary>  (3) 
energy

$$$$
3:0
     RDKit          3D

 51 54  0  0  0  0  0  0  0  0999 V2000
    1.6660   18.6380  -30.8230 C   0  0  0  0  0  0  0  0  0  0  0  0
    0.9170   18.9330  -31.9970 O   0  0  0  0  0  0  0  0  0  0  0  0
   -0.3760   19.4760  -31.9950 C   0  0  0  0  0  0  0  0  0  0  0  0
   -1.2030   19.4650  -33.1350 C   0  0  0  0  0  0  0  0  0  0  0  0
   -2.4850   20.0210  -33.0810 C   0  0  0  0  0  0  0  0  0  0  0  0
   -2.9600   20.5930  -31.8920 C   0  0  0  0  0  0  0  0  0  0  0  0
   -4.2840   21.1640  -31.8360 N   0  0  0  0  0  0  0  0  0  0  0  0
   -5.3750   20.3460  -31.9010 C   0  0  0  0  0  0  0  0  0  0  0  0
   -5.2220   19.0970  -32.0350 O   0  0  0  0  0  0  0  0  0  0  0  0
   -6.6650   20.8860  -31.8250 C   0  0  0  0  0  0  0  0  0  0  0  0
   -7.8040   20.0560  -31.8640 C   0  0  0  0  0  0  0  0  0  0  0  0
   -9.0810   20.6050  -31.7670 C   0  0  0  0  0  0  0  0  0  0  0  0
   -9.2390   21.9800  -31.6270 C   0  0  0  0  0  0  0  0  0  0  0  0
   -8.1220   22.8170  -31.5920 C   0  0  0  0  0  0  0  0  0  0  0  0
   -6.8090   22.2890  -31.7010 C   0  0  0  0  0  0  0  0  0  0  0  0
   -5.6870   23.0930  -31.6830 N   0  0  0  0  0  0  0  0  0  0  0  0
   -5.7980   24.5690  -31.5920 C   0  0  0  0  0  0  0  0  0  0  0  0
   -5.2570   25.0590  -30.2740 C   0  0  0  0  0  0  0  0  0  0  0  0
   -6.0600   25.3270  -29.3430 O   0  0  0  0  0  0  0  0  0  0  0  0
   -3.8560   25.2810  -30.0620 N   0  0  0  0  0  0  0  0  0  0  0  0
   -3.0020   24.5420  -29.1790 C   0  0  0  0  0  0  0  0  0  0  0  0
   -1.6650   24.9180  -28.9620 C   0  0  0  0  0  0  0  0  0  0  0  0
   -0.8500   24.1620  -28.1160 C   0  0  0  0  0  0  0  0  0  0  0  0
   -1.3500   23.0040  -27.5000 C   0  0  0  0  0  0  0  0  0  0  0  0
   -0.4880   22.2150  -26.5590 C   0  0  0  0  0  0  0  0  0  0  0  0
   -2.6820   22.6250  -27.7240 C   0  0  0  0  0  0  0  0  0  0  0  0
   -3.4970   23.3820  -28.5730 C   0  0  0  0  0  0  0  0  0  0  0  0
   -4.4360   22.5200  -31.7180 C   0  0  0  0  0  0  0  0  0  0  0  0
   -3.4060   23.2500  -31.6260 O   0  0  0  0  0  0  0  0  0  0  0  0
   -2.1360   20.6030  -30.7560 C   0  0  0  0  0  0  0  0  0  0  0  0
   -0.8550   20.0490  -30.8100 C   0  0  0  0  0  0  0  0  0  0  0  0
    1.0631   18.8755  -29.9341 H   0  0  0  0  0  0  0  0  0  0  0  0
    1.9277   17.5696  -30.8138 H   0  0  0  0  0  0  0  0  0  0  0  0
    2.5860   19.2410  -30.8138 H   0  0  0  0  0  0  0  0  0  0  0  0
   -0.8390   19.0173  -34.0715 H   0  0  0  0  0  0  0  0  0  0  0  0
   -3.1243   20.0096  -33.9761 H   0  0  0  0  0  0  0  0  0  0  0  0
   -7.6838   18.9679  -31.9717 H   0  0  0  0  0  0  0  0  0  0  0  0
   -9.9647   19.9508  -31.8011 H   0  0  0  0  0  0  0  0  0  0  0  0
  -10.2482   22.4096  -31.5435 H   0  0  0  0  0  0  0  0  0  0  0  0
   -8.2617   23.9021  -31.4782 H   0  0  0  0  0  0  0  0  0  0  0  0
   -5.2240   25.0263  -32.4114 H   0  0  0  0  0  0  0  0  0  0  0  0
   -6.8585   24.8512  -31.6681 H   0  0  0  0  0  0  0  0  0  0  0  0
   -1.2590   25.8108  -29.4602 H   0  0  0  0  0  0  0  0  0  0  0  0
    0.1881   24.4755  -27.9317 H   0  0  0  0  0  0  0  0  0  0  0  0
   -0.7571   22.4614  -25.5213 H   0  0  0  0  0  0  0  0  0  0  0  0
   -0.6438   21.1401  -26.7329 H   0  0  0  0  0  0  0  0  0  0  0  0
    0.5690   22.4651  -26.7329 H   0  0  0  0  0  0  0  0  0  0  0  0
   -3.0873   21.7294  -27.2304 H   0  0  0  0  0  0  0  0  0  0  0  0
   -4.5322   23.0635  -28.7650 H   0  0  0  0  0  0  0  0  0  0  0  0
   -2.5006   21.0491  -29.8190 H   0  0  0  0  0  0  0  0  0  0  0  0
   -0.2168   20.0628  -29.9142 H   0  0  0  0  0  0  0  0  0  0  0  0
  1  2  1  0
  2  3  1  0
  3  4  2  0
  4  5  1  0
  5  6  2  0
  6  7  1  0
  7  8  1  0
  8  9  2  0
  8 10  1  0
 10 11  2  0
 11 12  1  0
 12 13  2  0
 13 14  1  0
 14 15  2  0
 15 16  1  0
 16 17  1  0
 17 18  1  0
 18 19  2  0
 18 20  1  0
 20 21  1  0
 21 22  2  0
 22 23  1  0
 23 24  2  0
 24 25  1  0
 24 26  1  0
 26 27  2  0
 16 28  1  0
 28 29  2  0
  6 30  1  0
 30 31  2  0
 31  3  1  0
 28  7  1  0
 15 10  1  0
 27 21  1  0
  1 32  1  0
  1 33  1  0
  1 34  1  0
  4 35  1  0
  5 36  1  0
 11 37  1  0
 12 38  1  0
 13 39  1  0
 14 40  1  0
 17 41  1  0
 17 42  1  0
 22 43  1  0
 23 44  1  0
 25 45  1  0
 25 46  1  0
 25 47  1  0
 26 48  1  0
 27 49  1  0
 30 50  1  0
 31 51  1  0
M  CHG  1  20  -1
M  END
>  <UniqueID>  (4) 
4

>  <SMILES>  (4) 
COc1ccc(-n2c(=O)c3ccccc3n(CC(=O)[N-]c3ccc(C)cc3)c2=O)cc1

>  <Energy>  (4) 
80.00423695890704

>  <Genealogy>  (4) 
COc1ccc(-n2c(=O)c3ccccc3n(CC(=O)[N-]c3ccc(C)cc3)c2=O)cc1 (protonated)
COc1ccc(-n2c(=O)c3ccccc3n(CC(=O)[N-]c3ccc(C)cc3)c2=O)cc1 (3D coordinates assigned)
COc1ccc(-n2c(=O)c3ccccc3n(CC(=O)[N-]c3ccc(C)cc3)c2=O)cc1 (optimized conformer: 80.00423695890704 kcal/mol)

>  <smiles>  (4) 
COc1ccc(-n2c(=O)c3ccccc3n(CC(=O)Nc3ccc(C)cc3)c2=O)cc1

>  <score_type>  (4) 
oracle

>  <origin>  (4) 
adg

>  <m_score__min__energy>  (4) 
-10.85

>  <m_primary>  (4) 
energy

$$$$
4:0
     RDKit          3D

 41 43  0  0  0  0  0  0  0  0999 V2000
   -4.6440   25.6910  -30.8470 O   0  0  0  0  0  0  0  0  0  0  0  0
   -4.3110   24.5430  -30.4470 C   0  0  0  0  0  0  0  0  0  0  0  0
   -4.3860   24.2150  -28.9890 C   0  0  0  0  0  0  0  0  0  0  0  0
   -3.1500   23.5480  -28.5500 N   0  0  0  0  0  0  0  0  0  0  0  0
   -3.2310   22.3230  -27.9420 C   0  0  0  0  0  0  0  0  0  0  0  0
   -2.0800   21.6690  -27.5000 C   0  0  0  0  0  0  0  0  0  0  0  0
   -0.8390   22.2750  -27.6710 C   0  0  0  0  0  0  0  0  0  0  0  0
   -0.7600   23.5280  -28.2750 C   0  0  0  0  0  0  0  0  0  0  0  0
   -1.9290   24.1590  -28.7140 C   0  0  0  0  0  0  0  0  0  0  0  0
   -1.8450   25.2920  -29.2610 O   0  0  0  0  0  0  0  0  0  0  0  0
   -3.8980   23.5350  -31.3750 N   0  0  0  0  0  0  0  0  0  0  0  0
   -4.6630   22.3820  -31.7530 C   0  0  0  0  0  0  0  0  0  0  0  0
   -6.0680   22.3860  -31.6560 C   0  0  0  0  0  0  0  0  0  0  0  0
   -6.8100   21.2820  -32.0820 C   0  0  0  0  0  0  0  0  0  0  0  0
   -8.5600   21.2980  -31.9560 Cl  0  0  0  0  0  0  0  0  0  0  0  0
   -6.1580   20.1690  -32.6180 C   0  0  0  0  0  0  0  0  0  0  0  0
   -4.7670   20.1590  -32.7350 C   0  0  0  0  0  0  0  0  0  0  0  0
   -4.0080   21.2600  -32.3090 C   0  0  0  0  0  0  0  0  0  0  0  0
   -2.5750   21.2170  -32.4250 N   0  0  0  0  0  0  0  0  0  0  0  0
   -1.7130   21.4530  -31.2660 C   0  0  0  0  0  0  0  0  0  0  0  0
   -0.4940   20.5300  -31.3440 C   0  0  0  0  0  0  0  0  0  0  0  0
    0.1570   20.6620  -32.5940 O   0  0  0  0  0  0  0  0  0  0  0  0
   -0.6960   20.2150  -33.6320 C   0  0  0  0  0  0  0  0  0  0  0  0
   -1.9390   21.1050  -33.7390 C   0  0  0  0  0  0  0  0  0  0  0  0
   -4.5205   25.1436  -28.4149 H   0  0  0  0  0  0  0  0  0  0  0  0
   -5.2368   23.5390  -28.8182 H   0  0  0  0  0  0  0  0  0  0  0  0
   -4.2139   21.8497  -27.8006 H   0  0  0  0  0  0  0  0  0  0  0  0
   -2.1532   20.6819  -27.0201 H   0  0  0  0  0  0  0  0  0  0  0  0
    0.0755   21.7670  -27.3308 H   0  0  0  0  0  0  0  0  0  0  0  0
    0.2159   24.0184  -28.4060 H   0  0  0  0  0  0  0  0  0  0  0  0
   -6.5845   23.2645  -31.2419 H   0  0  0  0  0  0  0  0  0  0  0  0
   -6.7424   19.2978  -32.9489 H   0  0  0  0  0  0  0  0  0  0  0  0
   -4.2618   19.2813  -33.1645 H   0  0  0  0  0  0  0  0  0  0  0  0
   -1.3802   22.5014  -31.2633 H   0  0  0  0  0  0  0  0  0  0  0  0
   -2.2732   21.2453  -30.3424 H   0  0  0  0  0  0  0  0  0  0  0  0
    0.2101   20.7937  -30.5410 H   0  0  0  0  0  0  0  0  0  0  0  0
   -0.8318   19.4893  -31.2304 H   0  0  0  0  0  0  0  0  0  0  0  0
   -0.1487   20.2443  -34.5858 H   0  0  0  0  0  0  0  0  0  0  0  0
   -1.0174   19.1877  -33.4052 H   0  0  0  0  0  0  0  0  0  0  0  0
   -1.6446   22.1050  -34.0900 H   0  0  0  0  0  0  0  0  0  0  0  0
   -2.6481   20.6595  -34.4522 H   0  0  0  0  0  0  0  0  0  0  0  0
  1  2  2  0
  2  3  1  0
  3  4  1  0
  4  5  1  0
  5  6  2  0
  6  7  1  0
  7  8  2  0
  8  9  1  0
  9 10  2  0
  2 11  1  0
 11 12  1  0
 12 13  2  0
 13 14  1  0
 14 15  1  0
 14 16  2  0
 16 17  1  0
 17 18  2  0
 18 19  1  0
 19 20  1  0
 20 21  1  0
 21 22  1  0
 22 23  1  0
 23 24  1  0
  9  4  1  0
 18 12  1  0
 24 19  1  0
  3 25  1  0
  3 26  1  0
  5 27  1  0
  6 28  1  0
  7 29  1  0
  8 30  1  0
 13 31  1  0
 16 32  1  0
 17 33  1  0
 20 34  1  0
 20 35  1  0
 21 36  1  0
 21 37  1  0
 23 38  1  0
 23 39  1  0
 24 40  1  0
 24 41  1  0
M  CHG  1  11  -1
M  END
>  <UniqueID>  (5) 
5

>  <SMILES>  (5) 
O=C(Cn1ccccc1=O)[N-]c1cc(Cl)ccc1N1CCOCC1

>  <Energy>  (5) 
53.39344132912548

>  <Genealogy>  (5) 
O=C(Cn1ccccc1=O)[N-]c1cc(Cl)ccc1N1CCOCC1 (protonated)
O=C(Cn1ccccc1=O)[N-]c1cc(Cl)ccc1N1CCOCC1 (3D coordinates assigned)
O=C(Cn1ccccc1=O)[N-]c1cc(Cl)ccc1N1CCOCC1 (nonaromatic ring conformer: 53.39344132912548 kcal/mol)

>  <smiles>  (5) 
O=C(Cn1ccccc1=O)Nc1cc(Cl)ccc1N1CCOCC1

>  <score_type>  (5) 
oracle

>  <origin>  (5) 
adg

>  <m_score__min__energy>  (5) 
-8.8900000000000006

>  <m_primary>  (5) 
energy

$$$$
5:0
     RDKit          3D

 39 41  0  0  0  0  0  0  0  0999 V2000
   -5.6432   25.5745  -30.6301 H   0  0  0  0  0  0  0  0  0  0  0  0
   -5.1000   24.6180  -30.6290 C   0  0  0  0  0  0  0  0  0  0  0  0
   -5.2990   23.8030  -31.6270 N   0  0  0  0  0  0  0  0  0  0  0  0
   -6.4100   22.9080  -31.8120 C   0  0  0  0  0  0  0  0  0  0  0  0
   -7.6950   23.2930  -31.3910 C   0  0  0  0  0  0  0  0  0  0  0  0
   -7.8368   24.2661  -30.8981 H   0  0  0  0  0  0  0  0  0  0  0  0
   -8.7910   22.4560  -31.5910 C   0  0  0  0  0  0  0  0  0  0  0  0
   -9.7868   22.7633  -31.2389 H   0  0  0  0  0  0  0  0  0  0  0  0
   -8.6300   21.2320  -32.2350 C   0  0  0  0  0  0  0  0  0  0  0  0
   -9.4987   20.5737  -32.3836 H   0  0  0  0  0  0  0  0  0  0  0  0
   -7.3670   20.8340  -32.6950 C   0  0  0  0  0  0  0  0  0  0  0  0
   -6.2430   21.6740  -32.4950 C   0  0  0  0  0  0  0  0  0  0  0  0
   -4.9990   21.2180  -32.9860 C   0  0  0  0  0  0  0  0  0  0  0  0
   -3.9490   21.9000  -32.8490 O   0  0  0  0  0  0  0  0  0  0  0  0
   -4.9190   20.0210  -33.6180 N   0  0  0  0  0  0  0  0  0  0  0  0
   -6.0080   19.2300  -33.7910 C   0  0  0  0  0  0  0  0  0  0  0  0
   -5.8650   17.9290  -34.5300 C   0  0  0  0  0  0  0  0  0  0  0  0
   -4.8302   17.8366  -34.8916 H   0  0  0  0  0  0  0  0  0  0  0  0
   -6.5775   17.9313  -35.3681 H   0  0  0  0  0  0  0  0  0  0  0  0
   -6.1870   16.7270  -33.6330 C   0  0  0  0  0  0  0  0  0  0  0  0
   -5.4661   15.9239  -33.8462 H   0  0  0  0  0  0  0  0  0  0  0  0
   -7.2179   16.4117  -33.8518 H   0  0  0  0  0  0  0  0  0  0  0  0
   -6.1110   17.0730  -32.1460 C   0  0  0  0  0  0  0  0  0  0  0  0
   -6.3092   16.1706  -31.5490 H   0  0  0  0  0  0  0  0  0  0  0  0
   -5.1073   17.4560  -31.9095 H   0  0  0  0  0  0  0  0  0  0  0  0
   -6.8618   17.8414  -31.9095 H   0  0  0  0  0  0  0  0  0  0  0  0
   -7.2240   19.6390  -33.3370 N   0  0  0  0  0  0  0  0  0  0  0  0
   -8.0580   19.0270  -33.4880 H   0  0  0  0  0  0  0  0  0  0  0  0
   -4.1910   24.3400  -29.4950 C   0  0  0  0  0  0  0  0  0  0  0  0
   -2.9050   23.8410  -29.7550 C   0  0  0  0  0  0  0  0  0  0  0  0
   -2.5795   23.6811  -30.7935 H   0  0  0  0  0  0  0  0  0  0  0  0
   -2.0350   23.5460  -28.6990 C   0  0  0  0  0  0  0  0  0  0  0  0
   -1.0231   23.1696  -28.9097 H   0  0  0  0  0  0  0  0  0  0  0  0
   -2.4500   23.7290  -27.3780 C   0  0  0  0  0  0  0  0  0  0  0  0
   -1.7622   23.5042  -26.5495 H   0  0  0  0  0  0  0  0  0  0  0  0
   -3.7400   24.1980  -27.1080 C   0  0  0  0  0  0  0  0  0  0  0  0
   -4.0684   24.3348  -26.0671 H   0  0  0  0  0  0  0  0  0  0  0  0
   -4.6120   24.4930  -28.1600 C   0  0  0  0  0  0  0  0  0  0  0  0
   -5.6312   24.8461  -27.9441 H   0  0  0  0  0  0  0  0  0  0  0  0
  1  2  1  0
  2  3  2  0
  3  4  1  0
  4  5  2  0
  5  6  1  0
  5  7  1  0
  7  8  1  0
  7  9  2  0
  9 10  1  0
  9 11  1  0
 11 12  2  0
 12 13  1  0
 13 14  2  0
 13 15  1  0
 15 16  2  0
 16 17  1  0
 17 18  1  0
 17 19  1  0
 17 20  1  0
 20 21  1  0
 20 22  1  0
 20 23  1  0
 23 24  1  0
 23 25  1  0
 23 26  1  0
 16 27  1  0
 27 28  1  0
  2 29  1  0
 29 30  2  0
 30 31  1  0
 30 32  1  0
 32 33  1  0
 32 34  2  0
 34 35  1  0
 34 36  1  0
 36 37  1  0
 36 38  2  0
 38 39  1  0
 12  4  1  0
 38 29  1  0
 27 11  1  0
M  END
>  <UniqueID>  (6) 
6

>  <SMILES>  (6) 
CCCc1nc(=O)c2c(/N=C\c3ccccc3)cccc2[nH]1

>  <Energy>  (6) 
53.91912140341797

>  <Genealogy>  (6) 
CCCc1nc(=O)c2c(/N=C\c3ccccc3)cccc2[nH]1 (cis-trans isomerization)
CCCc1nc(=O)c2c(/N=C\c3ccccc3)cccc2[nH]1 (3D coordinates assigned)
CCCc1nc(=O)c2c(/N=C\c3ccccc3)cccc2[nH]1 (optimized conformer: 53.91912140341797 kcal/mol)

>  <smiles>  (6) 
CCCc1nc(=O)c2c(N=Cc3ccccc3)cccc2[nH]1

>  <score_type>  (6) 
oracle

>  <origin>  (6) 
adg

>  <m_score__min__energy>  (6) 
-8.0299999999999994

>  <m_primary>  (6) 
energy

$$$$
6:0
     RDKit          3D

 61 64  0  0  0  0  0  0  0  0999 V2000
   -4.6190   19.8820  -30.9570 C   0  0  0  0  0  0  0  0  0  0  0  0
   -3.9840   20.8310  -30.0960 O   0  0  0  0  0  0  0  0  0  0  0  0
   -4.1150   22.2280  -30.2000 C   0  0  0  0  0  0  0  0  0  0  0  0
   -5.1930   22.8050  -30.8970 C   0  0  0  0  0  0  0  0  0  0  0  0
   -5.3030   24.1860  -31.0100 C   0  0  0  0  0  0  0  0  0  0  0  0
   -4.3360   25.0130  -30.4520 C   0  0  0  0  0  0  0  0  0  0  0  0
   -3.2420   24.4670  -29.7530 C   0  0  0  0  0  0  0  0  0  0  0  0
   -2.2520   25.2890  -29.1950 O   0  0  0  0  0  0  0  0  0  0  0  0
   -1.9060   25.3170  -27.8080 C   0  0  0  0  0  0  0  0  0  0  0  0
   -3.1400   23.0630  -29.6000 C   0  0  0  0  0  0  0  0  0  0  0  0
   -1.9710   22.4390  -28.8330 C   0  0  1  0  0  0  0  0  0  0  0  0
   -2.4630   21.9030  -27.4740 C   0  0  0  0  0  0  0  0  0  0  0  0
   -1.3400   21.1710  -26.7480 C   0  0  0  0  0  0  0  0  0  0  0  0
   -0.9130   19.9490  -27.5470 C   0  0  0  0  0  0  0  0  0  0  0  0
   -0.6030   20.3080  -28.9710 C   0  0  0  0  0  0  0  0  0  0  0  0
    0.2210   19.5880  -29.5960 O   0  0  0  0  0  0  0  0  0  0  0  0
   -1.2600   21.4120  -29.6370 N   0  0  0  0  0  0  0  0  0  0  0  0
   -0.8630   21.7430  -31.0220 C   0  0  0  0  0  0  0  0  0  0  0  0
   -1.6150   20.9070  -32.0260 C   0  0  0  0  0  0  0  0  0  0  0  0
   -2.5210   21.5100  -32.9140 C   0  0  0  0  0  0  0  0  0  0  0  0
   -3.2360   20.7350  -33.8320 C   0  0  0  0  0  0  0  0  0  0  0  0
   -3.0620   19.3470  -33.8760 C   0  0  0  0  0  0  0  0  0  0  0  0
   -3.8340   18.5990  -34.7790 O   0  0  0  0  0  0  0  0  0  0  0  0
   -4.7390   17.5730  -34.3830 C   0  0  0  0  0  0  0  0  0  0  0  0
   -5.8830   18.1650  -33.6070 C   0  0  0  0  0  0  0  0  0  0  0  0
   -6.6420   17.3610  -32.7380 C   0  0  0  0  0  0  0  0  0  0  0  0
   -7.6700   17.9320  -31.9760 C   0  0  0  0  0  0  0  0  0  0  0  0
   -7.9500   19.3000  -32.0810 C   0  0  0  0  0  0  0  0  0  0  0  0
   -7.2120   20.0940  -32.9560 C   0  0  0  0  0  0  0  0  0  0  0  0
   -7.4750   21.4240  -33.0520 F   0  0  0  0  0  0  0  0  0  0  0  0
   -6.1870   19.5280  -33.7240 C   0  0  0  0  0  0  0  0  0  0  0  0
   -2.1290   18.7460  -33.0110 C   0  0  0  0  0  0  0  0  0  0  0  0
   -1.4090   19.5210  -32.1020 C   0  0  0  0  0  0  0  0  0  0  0  0
   -5.1290   19.1197  -30.3497 H   0  0  0  0  0  0  0  0  0  0  0  0
   -5.3546   20.3976  -31.5918 H   0  0  0  0  0  0  0  0  0  0  0  0
   -3.8617   19.3987  -31.5918 H   0  0  0  0  0  0  0  0  0  0  0  0
   -5.9548   22.1577  -31.3561 H   0  0  0  0  0  0  0  0  0  0  0  0
   -6.1588   24.6258  -31.5432 H   0  0  0  0  0  0  0  0  0  0  0  0
   -4.4257   26.1043  -30.5571 H   0  0  0  0  0  0  0  0  0  0  0  0
   -2.8201   25.2430  -27.2005 H   0  0  0  0  0  0  0  0  0  0  0  0
   -1.2434   24.4695  -27.5782 H   0  0  0  0  0  0  0  0  0  0  0  0
   -1.3883   26.2600  -27.5782 H   0  0  0  0  0  0  0  0  0  0  0  0
   -1.2232   23.2208  -28.6342 H   0  0  0  0  0  0  0  0  0  0  0  0
   -2.8046   22.7458  -26.8551 H   0  0  0  0  0  0  0  0  0  0  0  0
   -3.2904   21.1995  -27.6486 H   0  0  0  0  0  0  0  0  0  0  0  0
   -0.4807   21.8476  -26.6302 H   0  0  0  0  0  0  0  0  0  0  0  0
   -1.6994   20.8484  -25.7597 H   0  0  0  0  0  0  0  0  0  0  0  0
   -0.0151   19.5141  -27.0837 H   0  0  0  0  0  0  0  0  0  0  0  0
   -1.7421   19.2261  -27.5444 H   0  0  0  0  0  0  0  0  0  0  0  0
   -1.0756   22.8056  -31.2107 H   0  0  0  0  0  0  0  0  0  0  0  0
    0.2111   21.5333  -31.1331 H   0  0  0  0  0  0  0  0  0  0  0  0
   -2.6690   22.5997  -32.8869 H   0  0  0  0  0  0  0  0  0  0  0  0
   -3.9401   21.2195  -34.5244 H   0  0  0  0  0  0  0  0  0  0  0  0
   -5.1297   17.0669  -35.2781 H   0  0  0  0  0  0  0  0  0  0  0  0
   -4.2078   16.8500  -33.7465 H   0  0  0  0  0  0  0  0  0  0  0  0
   -6.4289   16.2849  -32.6565 H   0  0  0  0  0  0  0  0  0  0  0  0
   -8.2594   17.3031  -31.2926 H   0  0  0  0  0  0  0  0  0  0  0  0
   -8.7511   19.7468  -31.4738 H   0  0  0  0  0  0  0  0  0  0  0  0
   -5.6169   20.1571  -34.4234 H   0  0  0  0  0  0  0  0  0  0  0  0
   -1.9666   17.6588  -33.0519 H   0  0  0  0  0  0  0  0  0  0  0  0
   -0.6735   19.0418  -31.4391 H   0  0  0  0  0  0  0  0  0  0  0  0
  1  2  1  0
  2  3  1  0
  3  4  2  0
  4  5  1  0
  5  6  2  0
  6  7  1  0
  7  8  1  0
  8  9  1  0
  7 10  2  0
 10 11  1  0
 11 12  1  0
 12 13  1  0
 13 14  1  0
 14 15  1  0
 15 16  2  0
 15 17  1  0
 17 18  1  0
 18 19  1  0
 19 20  2  0
 20 21  1  0
 21 22  2  0
 22 23  1  0
 23 24  1  0
 24 25  1  0
 25 26  2  0
 26 27  1  0
 27 28  2  0
 28 29  1  0
 29 30  1  0
 29 31  2  0
 22 32  1  0
 32 33  2  0
 10  3  1  0
 17 11  1  0
 33 19  1  0
 31 25  1  0
  1 34  1  0
  1 35  1  0
  1 36  1  0
  4 37  1  0
  5 38  1  0
  6 39  1  0
  9 40  1  0
  9 41  1  0
  9 42  1  0
 11 43  1  1
 12 44  1  0
 12 45  1  0
 13 46  1  0
 13 47  1  0
 14 48  1  0
 14 49  1  0
 18 50  1  0
 18 51  1  0
 20 52  1  0
 21 53  1  0
 24 54  1  0
 24 55  1  0
 26 56  1  0
 27 57  1  0
 28 58  1  0
 31 59  1  0
 32 60  1  0
 33 61  1  0
M  END
>  <UniqueID>  (7) 
7

>  <SMILES>  (7) 
COc1cccc(OC)c1[C@H]1CCCC(=O)N1Cc1ccc(OCc2cccc(F)c2)cc1

>  <Energy>  (7) 
61.39340431853026

>  <Genealogy>  (7) 
COc1cccc(OC)c1[C@H]1CCCC(=O)N1Cc1ccc(OCc2cccc(F)c2)cc1 (chirality)
COc1cccc(OC)c1[C@H]1CCCC(=O)N1Cc1ccc(OCc2cccc(F)c2)cc1 (3D coordinates assigned)
COc1cccc(OC)c1[C@H]1CCCC(=O)N1Cc1ccc(OCc2cccc(F)c2)cc1 (nonaromatic ring conformer: 61.39340431853026 kcal/mol)

>  <smiles>  (7) 
COc1cccc(OC)c1C1CCCC(=O)N1Cc1ccc(OCc2cccc(F)c2)cc1

>  <score_type>  (7) 
oracle

>  <origin>  (7) 
adg

>  <m_score__min__energy>  (7) 
-8.5999999999999996

>  <m_primary>  (7) 
energy

$$$$
7:0
     RDKit          3D

 45 47  0  0  0  0  0  0  0  0999 V2000
   -5.2570   25.6790  -30.4860 C   0  0  0  0  0  0  0  0  0  0  0  0
   -3.8830   25.3050  -30.4610 O   0  0  0  0  0  0  0  0  0  0  0  0
   -3.3930   24.1270  -29.8750 C   0  0  0  0  0  0  0  0  0  0  0  0
   -3.4130   23.9120  -28.4840 C   0  0  0  0  0  0  0  0  0  0  0  0
   -2.9000   22.7280  -27.9490 C   0  0  0  0  0  0  0  0  0  0  0  0
   -2.3750   21.7450  -28.7920 C   0  0  0  0  0  0  0  0  0  0  0  0
   -2.3720   21.9330  -30.1820 C   0  0  0  0  0  0  0  0  0  0  0  0
   -1.8100   20.9200  -31.0300 N   0  0  0  0  0  0  0  0  0  0  0  0
   -2.2610   20.6540  -32.3700 C   0  0  0  0  0  0  0  0  0  0  0  0
   -1.1540   20.0780  -33.4460 S   0  0  0  0  0  0  0  0  0  0  0  0
   -3.6830   20.6430  -32.6720 N   0  0  1  0  0  0  0  0  0  0  0  0
   -4.0370   19.8030  -33.8290 C   0  0  0  0  0  0  0  0  0  0  0  0
   -5.4730   19.3060  -33.6010 C   0  0  1  0  0  0  0  0  0  0  0  0
   -5.6120   17.7930  -33.8360 C   0  0  0  0  0  0  0  0  0  0  0  0
   -7.0230   17.3110  -33.4470 C   0  0  0  0  0  0  0  0  0  0  0  0
   -7.5210   17.8600  -32.1560 N   0  0  0  0  0  0  0  0  0  0  0  0
   -8.7270   18.6860  -32.3380 C   0  0  0  0  0  0  0  0  0  0  0  0
   -6.4920   18.5600  -31.3580 C   0  0  0  0  0  0  0  0  0  0  0  0
   -5.8190   19.6990  -32.1600 C   0  0  1  0  0  0  0  0  0  0  0  0
   -4.4980   20.1600  -31.5510 C   0  0  0  0  0  0  0  0  0  0  0  0
   -2.8650   23.1380  -30.7130 C   0  0  0  0  0  0  0  0  0  0  0  0
   -5.6283   25.7801  -29.4555 H   0  0  0  0  0  0  0  0  0  0  0  0
   -5.3661   26.6395  -31.0109 H   0  0  0  0  0  0  0  0  0  0  0  0
   -5.8378   24.9063  -31.0109 H   0  0  0  0  0  0  0  0  0  0  0  0
   -3.8337   24.6784  -27.8165 H   0  0  0  0  0  0  0  0  0  0  0  0
   -2.9093   22.5689  -26.8606 H   0  0  0  0  0  0  0  0  0  0  0  0
   -1.9623   20.8197  -28.3637 H   0  0  0  0  0  0  0  0  0  0  0  0
   -1.0180   20.3490  -30.6570 H   0  0  0  0  0  0  0  0  0  0  0  0
   -4.0010   21.6190  -32.8810 H   0  0  0  0  0  0  0  0  0  0  0  0
   -3.9845   20.3942  -34.7551 H   0  0  0  0  0  0  0  0  0  0  0  0
   -3.3402   18.9576  -33.9281 H   0  0  0  0  0  0  0  0  0  0  0  0
   -6.1696   19.7614  -34.3203 H   0  0  0  0  0  0  0  0  0  0  0  0
   -5.4359   17.5747  -34.8996 H   0  0  0  0  0  0  0  0  0  0  0  0
   -4.8735   17.2680  -33.2124 H   0  0  0  0  0  0  0  0  0  0  0  0
   -7.7215   17.6113  -34.2419 H   0  0  0  0  0  0  0  0  0  0  0  0
   -6.9614   16.2197  -33.3237 H   0  0  0  0  0  0  0  0  0  0  0  0
   -9.1329   18.9640  -31.3542 H   0  0  0  0  0  0  0  0  0  0  0  0
   -8.4668   19.5964  -32.8979 H   0  0  0  0  0  0  0  0  0  0  0  0
   -9.4819   18.1144  -32.8979 H   0  0  0  0  0  0  0  0  0  0  0  0
   -6.9660   18.9874  -30.4621 H   0  0  0  0  0  0  0  0  0  0  0  0
   -5.7161   17.8297  -31.0847 H   0  0  0  0  0  0  0  0  0  0  0  0
   -6.5767   20.4960  -32.1342 H   0  0  0  0  0  0  0  0  0  0  0  0
   -4.6725   20.9705  -30.8281 H   0  0  0  0  0  0  0  0  0  0  0  0
   -3.9966   19.3436  -31.0105 H   0  0  0  0  0  0  0  0  0  0  0  0
   -2.8354   23.3054  -31.7998 H   0  0  0  0  0  0  0  0  0  0  0  0
  1  2  1  0
  2  3  1  0
  3  4  2  0
  4  5  1  0
  5  6  2  0
  6  7  1  0
  7  8  1  0
  8  9  1  0
  9 10  2  0
  9 11  1  0
 11 12  1  0
 12 13  1  0
 13 14  1  0
 14 15  1  0
 15 16  1  0
 16 17  1  0
 16 18  1  0
 18 19  1  0
 19 20  1  0
  7 21  2  0
 21  3  1  0
 20 11  1  0
 19 13  1  0
  1 22  1  0
  1 23  1  0
  1 24  1  0
  4 25  1  0
  5 26  1  0
  6 27  1  0
  8 28  1  0
 11 29  1  6
 12 30  1  0
 12 31  1  0
 13 32  1  6
 14 33  1  0
 14 34  1  0
 15 35  1  0
 15 36  1  0
 17 37  1  0
 17 38  1  0
 17 39  1  0
 18 40  1  0
 18 41  1  0
 19 42  1  6
 20 43  1  0
 20 44  1  0
 21 45  1  0
M  CHG  1  11   1
M  END
>  <UniqueID>  (8) 
8

>  <SMILES>  (8) 
COc1cccc(NC(=S)[N@@H+]2CC3CN(C)CC[C@@H]3C2)c1

>  <Energy>  (8) 
65.11349650367578

>  <Genealogy>  (8) 
COc1cccc(NC(=S)[NH+]2CC3CCN(C)CC3C2)c1 (protonated)
COc1cccc(NC(=S)[N@@H+]2CC3CN(C)CC[C@@H]3C2)c1 (chirality)
COc1cccc(NC(=S)[N@@H+]2CC3CN(C)CC[C@@H]3C2)c1 (3D coordinates assigned)
COc1cccc(NC(=S)[N@@H+]2CC3CN(C)CC[C@@H]3C2)c1 (nonaromatic ring conformer: 65.11349650367578 kcal/mol)

>  <smiles>  (8) 
COc1cccc(NC(=S)N2CC3CCN(C)CC3C2)c1

>  <score_type>  (8) 
oracle

>  <origin>  (8) 
adg

>  <m_score__min__energy>  (8) 
-7.7999999999999998

>  <m_primary>  (8) 
energy

$$$$
8:0
     RDKit          3D

 43 46  0  0  0  0  0  0  0  0999 V2000
   -2.4320   17.0380  -34.8650 Cl  0  0  0  0  0  0  0  0  0  0  0  0
   -3.7170   17.9580  -34.0990 C   0  0  0  0  0  0  0  0  0  0  0  0
   -3.4720   19.2710  -33.6470 C   0  0  0  0  0  0  0  0  0  0  0  0
   -4.4920   20.0220  -33.0310 C   0  0  0  0  0  0  0  0  0  0  0  0
   -5.7530   19.4370  -32.8600 C   0  0  0  0  0  0  0  0  0  0  0  0
   -6.9080   20.0190  -32.2780 C   0  0  0  0  0  0  0  0  0  0  0  0
   -6.9290   21.3320  -31.6930 N   0  0  0  0  0  0  0  0  0  0  0  0
   -5.9770   22.3520  -32.1360 C   0  0  0  0  0  0  0  0  0  0  0  0
   -6.6340   23.7370  -32.0390 C   0  0  0  0  0  0  0  0  0  0  0  0
   -7.2960   24.0090  -30.7270 N   0  0  0  0  0  0  0  0  0  0  0  0
   -6.7510   25.2380  -30.1000 C   0  0  0  0  0  0  0  0  0  0  0  0
   -5.3030   25.5100  -30.5410 C   0  0  0  0  0  0  0  0  0  0  0  0
   -4.3770   24.4530  -30.0110 C   0  0  0  0  0  0  0  0  0  0  0  0
   -4.4260   24.0680  -28.6620 C   0  0  0  0  0  0  0  0  0  0  0  0
   -3.5720   23.0620  -28.2070 C   0  0  0  0  0  0  0  0  0  0  0  0
   -2.6880   22.4470  -29.0950 C   0  0  0  0  0  0  0  0  0  0  0  0
   -2.6720   22.8480  -30.4330 C   0  0  0  0  0  0  0  0  0  0  0  0
   -3.5120   23.8290  -30.8590 N   0  0  0  0  0  0  0  0  0  0  0  0
   -7.2730   22.8630  -29.7870 C   0  0  0  0  0  0  0  0  0  0  0  0
   -7.7060   21.5630  -30.4750 C   0  0  0  0  0  0  0  0  0  0  0  0
   -8.0310   19.2430  -32.3070 N   0  0  0  0  0  0  0  0  0  0  0  0
   -7.5790   17.8120  -33.0380 S   0  0  0  0  0  0  0  0  0  0  0  0
   -5.9780   18.1540  -33.3340 C   0  0  0  0  0  0  0  0  0  0  0  0
   -4.9940   17.3880  -33.9510 C   0  0  0  0  0  0  0  0  0  0  0  0
   -2.4734   19.7136  -33.7769 H   0  0  0  0  0  0  0  0  0  0  0  0
   -4.3015   21.0503  -32.6901 H   0  0  0  0  0  0  0  0  0  0  0  0
   -5.0835   22.3236  -31.4950 H   0  0  0  0  0  0  0  0  0  0  0  0
   -5.6850   22.1552  -33.1781 H   0  0  0  0  0  0  0  0  0  0  0  0
   -5.8573   24.4995  -32.1984 H   0  0  0  0  0  0  0  0  0  0  0  0
   -7.4235   23.7673  -32.8044 H   0  0  0  0  0  0  0  0  0  0  0  0
   -7.3783   26.0939  -30.3899 H   0  0  0  0  0  0  0  0  0  0  0  0
   -6.7554   25.0962  -29.0092 H   0  0  0  0  0  0  0  0  0  0  0  0
   -5.2552   25.5133  -31.6400 H   0  0  0  0  0  0  0  0  0  0  0  0
   -4.9899   26.4859  -30.1414 H   0  0  0  0  0  0  0  0  0  0  0  0
   -5.1301   24.5540  -27.9706 H   0  0  0  0  0  0  0  0  0  0  0  0
   -3.5956   22.7546  -27.1511 H   0  0  0  0  0  0  0  0  0  0  0  0
   -2.0106   21.6543  -28.7446 H   0  0  0  0  0  0  0  0  0  0  0  0
   -1.9799   22.3703  -31.1421 H   0  0  0  0  0  0  0  0  0  0  0  0
   -6.2510   22.7391  -29.3995 H   0  0  0  0  0  0  0  0  0  0  0  0
   -7.9789   23.0727  -28.9699 H   0  0  0  0  0  0  0  0  0  0  0  0
   -7.5511   20.7212  -29.7841 H   0  0  0  0  0  0  0  0  0  0  0  0
   -8.7685   21.6468  -30.7470 H   0  0  0  0  0  0  0  0  0  0  0  0
   -5.2077   16.3708  -34.3109 H   0  0  0  0  0  0  0  0  0  0  0  0
  1  2  1  0
  2  3  2  0
  3  4  1  0
  4  5  2  0
  5  6  1  0
  6  7  1  0
  7  8  1  0
  8  9  1  0
  9 10  1  0
 10 11  1  0
 11 12  1  0
 12 13  1  0
 13 14  2  0
 14 15  1  0
 15 16  2  0
 16 17  1  0
 17 18  2  0
 10 19  1  0
 19 20  1  0
  6 21  2  0
 21 22  1  0
 22 23  1  0
 23 24  2  0
 24  2  1  0
 23  5  1  0
 20  7  1  0
 18 13  1  0
  3 25  1  0
  4 26  1  0
  8 27  1  0
  8 28  1  0
  9 29  1  0
  9 30  1  0
 11 31  1  0
 11 32  1  0
 12 33  1  0
 12 34  1  0
 14 35  1  0
 15 36  1  0
 16 37  1  0
 17 38  1  0
 19 39  1  0
 19 40  1  0
 20 41  1  0
 20 42  1  0
 24 43  1  0
M  END
>  <UniqueID>  (9) 
9

>  <SMILES>  (9) 
Clc1ccc2c(N3CCN(CCc4ccccn4)CC3)nsc2c1

>  <Energy>  (9) 
95.5544065991822

>  <Genealogy>  (9) 
Clc1ccc2c(N3CCN(CCc4ccccn4)CC3)nsc2c1 (3D coordinates assigned)
Clc1ccc2c(N3CCN(CCc4ccccn4)CC3)nsc2c1 (nonaromatic ring conformer: 95.5544065991822 kcal/mol)

>  <smiles>  (9) 
Clc1ccc2c(N3CCN(CCc4ccccn4)CC3)nsc2c1

>  <score_type>  (9) 
oracle

>  <origin>  (9) 
adg

>  <m_score__min__energy>  (9) 
-8.9199999999999999

>  <m_primary>  (9) 
energy

$$$$
9:0
     RDKit          3D

 44 46  0  0  0  0  0  0  0  0999 V2000
   -7.6030   17.6240  -32.6940 C   0  0  0  0  0  0  0  0  0  0  0  0
   -8.4040   18.7990  -32.6540 O   0  0  0  0  0  0  0  0  0  0  0  0
   -7.9530   20.0490  -32.2030 C   0  0  0  0  0  0  0  0  0  0  0  0
   -8.8390   21.1370  -31.9670 C   0  0  0  0  0  0  0  0  0  0  0  0
   -8.3490   22.3750  -31.5140 C   0  0  0  0  0  0  0  0  0  0  0  0
   -6.9770   22.4980  -31.3090 C   0  0  0  0  0  0  0  0  0  0  0  0
   -6.3110   23.5810  -30.8750 N   0  0  0  0  0  0  0  0  0  0  0  0
   -5.0060   23.2190  -30.8350 C   0  0  0  0  0  0  0  0  0  0  0  0
   -3.9300   24.1180  -30.3700 C   0  0  0  0  0  0  0  0  0  0  0  0
   -3.8770   25.2900  -30.8350 O   0  0  0  0  0  0  0  0  0  0  0  0
   -2.9210   23.6970  -29.3700 C   0  0  0  0  0  0  0  0  0  0  0  0
   -3.1390   22.5760  -28.5600 C   0  0  0  0  0  0  0  0  0  0  0  0
   -2.1760   22.1730  -27.6180 C   0  0  0  0  0  0  0  0  0  0  0  0
   -2.3780   21.0620  -26.7830 O   0  0  0  0  0  0  0  0  0  0  0  0
   -2.4460   19.7130  -27.2330 C   0  0  0  0  0  0  0  0  0  0  0  0
   -0.9720   22.8870  -27.4940 C   0  0  0  0  0  0  0  0  0  0  0  0
   -0.0610   22.4210  -26.5260 O   0  0  0  0  0  0  0  0  0  0  0  0
   -0.1030   22.6760  -25.1270 C   0  0  0  0  0  0  0  0  0  0  0  0
   -0.7310   24.0100  -28.3270 C   0  0  0  0  0  0  0  0  0  0  0  0
    0.4740   24.7210  -28.2140 O   0  0  0  0  0  0  0  0  0  0  0  0
    0.8920   25.4450  -27.0620 C   0  0  0  0  0  0  0  0  0  0  0  0
   -1.7130   24.3960  -29.2600 C   0  0  0  0  0  0  0  0  0  0  0  0
   -4.8490   21.8900  -31.2340 C   0  0  0  0  0  0  0  0  0  0  0  0
   -6.1210   21.4550  -31.5350 C   0  0  0  0  0  0  0  0  0  0  0  0
   -6.5720   20.2160  -31.9800 C   0  0  0  0  0  0  0  0  0  0  0  0
   -7.3801   17.2971  -31.6676 H   0  0  0  0  0  0  0  0  0  0  0  0
   -8.1469   16.8273  -33.2227 H   0  0  0  0  0  0  0  0  0  0  0  0
   -6.6626   17.8391  -33.2227 H   0  0  0  0  0  0  0  0  0  0  0  0
   -9.9176   21.0086  -32.1405 H   0  0  0  0  0  0  0  0  0  0  0  0
   -9.0283   23.2198  -31.3274 H   0  0  0  0  0  0  0  0  0  0  0  0
   -6.7200   24.5080  -30.6200 H   0  0  0  0  0  0  0  0  0  0  0  0
   -4.0734   22.0046  -28.6616 H   0  0  0  0  0  0  0  0  0  0  0  0
   -2.4800   19.0382  -26.3650 H   0  0  0  0  0  0  0  0  0  0  0  0
   -3.3523   19.5745  -27.8409 H   0  0  0  0  0  0  0  0  0  0  0  0
   -1.5583   19.4840  -27.8409 H   0  0  0  0  0  0  0  0  0  0  0  0
    0.0519   21.7354  -24.5780 H   0  0  0  0  0  0  0  0  0  0  0  0
    0.6895   23.3908  -24.8606 H   0  0  0  0  0  0  0  0  0  0  0  0
   -1.0829   23.0989  -24.8606 H   0  0  0  0  0  0  0  0  0  0  0  0
    0.5800   24.9046  -26.1561 H   0  0  0  0  0  0  0  0  0  0  0  0
    1.9873   25.5459  -27.0698 H   0  0  0  0  0  0  0  0  0  0  0  0
    0.4317   26.4440  -27.0698 H   0  0  0  0  0  0  0  0  0  0  0  0
   -1.5276   25.2613  -29.9133 H   0  0  0  0  0  0  0  0  0  0  0  0
   -3.9130   21.3153  -31.2948 H   0  0  0  0  0  0  0  0  0  0  0  0
   -5.8684   19.3884  -32.1532 H   0  0  0  0  0  0  0  0  0  0  0  0
  1  2  1  0
  2  3  1  0
  3  4  2  0
  4  5  1  0
  5  6  2  0
  6  7  1  0
  7  8  1  0
  8  9  1  0
  9 10  2  0
  9 11  1  0
 11 12  2  0
 12 13  1  0
 13 14  1  0
 14 15  1  0
 13 16  2  0
 16 17  1  0
 17 18  1  0
 16 19  1  0
 19 20  1  0
 20 21  1  0
 19 22  2  0
  8 23  2  0
 23 24  1  0
 24 25  2  0
 25  3  1  0
 24  6  1  0
 22 11  1  0
  1 26  1  0
  1 27  1  0
  1 28  1  0
  4 29  1  0
  5 30  1  0
  7 31  1  0
 12 32  1  0
 15 33  1  0
 15 34  1  0
 15 35  1  0
 18 36  1  0
 18 37  1  0
 18 38  1  0
 21 39  1  0
 21 40  1  0
 21 41  1  0
 22 42  1  0
 23 43  1  0
 25 44  1  0
M  END
>  <UniqueID>  (10) 
10

>  <SMILES>  (10) 
COc1ccc2[nH]c(C(=O)c3cc(OC)c(OC)c(OC)c3)cc2c1

>  <Energy>  (10) 
83.700158463474

>  <Genealogy>  (10) 
COc1ccc2[nH]c(C(=O)c3cc(OC)c(OC)c(OC)c3)cc2c1 (3D coordinates assigned)
COc1ccc2[nH]c(C(=O)c3cc(OC)c(OC)c(OC)c3)cc2c1 (optimized conformer: 83.700158463474 kcal/mol)

>  <smiles>  (10) 
COc1ccc2[nH]c(C(=O)c3cc(OC)c(OC)c(OC)c3)cc2c1

>  <score_type>  (10) 
oracle

>  <origin>  (10) 
adg

>  <m_score__min__energy>  (10) 
-7.2699999999999996

>  <m_primary>  (10) 
energy

$$$$
10:0
     RDKit          3D

 38 41  0  0  0  0  0  0  0  0999 V2000
    1.1140   24.5480  -28.1430 N   0  0  0  0  0  0  0  0  0  0  0  0
   -0.0320   24.5480  -27.9800 C   0  0  0  0  0  0  0  0  0  0  0  0
   -1.4570   24.5470  -27.7790 C   0  0  0  0  0  0  0  0  0  0  0  0
   -1.9870   24.8950  -26.5310 C   0  0  0  0  0  0  0  0  0  0  0  0
   -3.3690   24.8950  -26.3370 C   0  0  0  0  0  0  0  0  0  0  0  0
   -4.2270   24.5470  -27.3840 C   0  0  0  0  0  0  0  0  0  0  0  0
   -3.7110   24.1960  -28.6440 C   0  0  0  0  0  0  0  0  0  0  0  0
   -4.6380   23.8300  -29.7450 C   0  0  0  0  0  0  0  0  0  0  0  0
   -5.4730   22.7290  -29.8020 C   0  0  0  0  0  0  0  0  0  0  0  0
   -6.1350   22.7710  -30.9730 N   0  0  0  0  0  0  0  0  0  0  0  0
   -7.1330   21.8400  -31.4320 C   0  0  0  0  0  0  0  0  0  0  0  0
   -8.4950   22.1300  -31.2360 C   0  0  0  0  0  0  0  0  0  0  0  0
   -9.4840   21.2510  -31.6840 C   0  0  0  0  0  0  0  0  0  0  0  0
   -9.1320   20.0640  -32.3270 C   0  0  0  0  0  0  0  0  0  0  0  0
   -7.7810   19.7450  -32.5200 C   0  0  0  0  0  0  0  0  0  0  0  0
   -7.4060   18.5490  -33.1430 C   0  0  0  0  0  0  0  0  0  0  0  0
   -6.0550   18.2420  -33.3050 C   0  0  0  0  0  0  0  0  0  0  0  0
   -5.0810   19.1360  -32.8360 C   0  0  0  0  0  0  0  0  0  0  0  0
   -3.6230   18.8200  -32.9920 C   0  0  0  0  0  0  0  0  0  0  0  0
   -3.1670   19.3100  -34.2030 F   0  0  0  0  0  0  0  0  0  0  0  0
   -2.8880   19.3970  -31.9710 F   0  0  0  0  0  0  0  0  0  0  0  0
   -3.4380   17.4490  -32.9580 F   0  0  0  0  0  0  0  0  0  0  0  0
   -5.4670   20.2940  -32.2330 N   0  0  0  0  0  0  0  0  0  0  0  0
   -6.7750   20.6320  -32.0700 C   0  0  0  0  0  0  0  0  0  0  0  0
   -5.7060   23.8890  -31.5930 C   0  0  0  0  0  0  0  0  0  0  0  0
   -4.7860   24.5610  -30.8710 N   0  0  0  0  0  0  0  0  0  0  0  0
   -2.3150   24.1990  -28.8320 C   0  0  0  0  0  0  0  0  0  0  0  0
   -1.3149   25.1682  -25.7041 H   0  0  0  0  0  0  0  0  0  0  0  0
   -3.7846   25.1699  -25.3564 H   0  0  0  0  0  0  0  0  0  0  0  0
   -5.3149   24.5477  -27.2210 H   0  0  0  0  0  0  0  0  0  0  0  0
   -5.5776   21.9554  -29.0270 H   0  0  0  0  0  0  0  0  0  0  0  0
   -8.7849   23.0595  -30.7241 H   0  0  0  0  0  0  0  0  0  0  0  0
  -10.5451   21.4959  -31.5291 H   0  0  0  0  0  0  0  0  0  0  0  0
   -9.9151   19.3782  -32.6826 H   0  0  0  0  0  0  0  0  0  0  0  0
   -8.1761   17.8517  -33.5046 H   0  0  0  0  0  0  0  0  0  0  0  0
   -5.7553   17.3051  -33.7973 H   0  0  0  0  0  0  0  0  0  0  0  0
   -6.0667   24.2169  -32.5791 H   0  0  0  0  0  0  0  0  0  0  0  0
   -1.8951   23.9265  -29.8115 H   0  0  0  0  0  0  0  0  0  0  0  0
  1  2  3  0
  2  3  1  0
  3  4  2  0
  4  5  1  0
  5  6  2  0
  6  7  1  0
  7  8  1  0
  8  9  2  0
  9 10  1  0
 10 11  1  0
 11 12  2  0
 12 13  1  0
 13 14  2  0
 14 15  1  0
 15 16  2  0
 16 17  1  0
 17 18  2  0
 18 19  1  0
 19 20  1  0
 19 21  1  0
 19 22  1  0
 18 23  1  0
 23 24  2  0
 10 25  1  0
 25 26  2  0
  7 27  2  0
 27  3  1  0
 26  8  1  0
 24 11  1  0
 24 15  1  0
  4 28  1  0
  5 29  1  0
  6 30  1  0
  9 31  1  0
 12 32  1  0
 13 33  1  0
 14 34  1  0
 16 35  1  0
 17 36  1  0
 25 37  1  0
 27 38  1  0
M  END
>  <UniqueID>  (11) 
11

>  <SMILES>  (11) 
N#Cc1cccc(-c2cn(-c3cccc4ccc(C(F)(F)F)nc34)cn2)c1

>  <Energy>  (11) 
80.72346244335392

>  <Genealogy>  (11) 
N#Cc1cccc(-c2cn(-c3cccc4ccc(C(F)(F)F)nc34)cn2)c1 (3D coordinates assigned)
N#Cc1cccc(-c2cn(-c3cccc4ccc(C(F)(F)F)nc34)cn2)c1 (optimized conformer: 80.72346244335392 kcal/mol)

>  <smiles>  (11) 
N#Cc1cccc(-c2cn(-c3cccc4ccc(C(F)(F)F)nc34)cn2)c1

>  <score_type>  (11) 
oracle

>  <origin>  (11) 
adg

>  <m_score__min__energy>  (11) 
-9.0299999999999994

>  <m_primary>  (11) 
energy

$$$$
11:0
     RDKit          3D

 42 45  0  0  0  0  0  0  0  0999 V2000
   -1.6150   26.3170  -24.8620 C   0  0  0  0  0  0  0  0  0  0  0  0
   -1.1240   25.7390  -26.1080 N   0  0  0  0  0  0  0  0  0  0  0  0
    0.1220   25.8480  -26.6300 C   0  0  0  0  0  0  0  0  0  0  0  0
    0.2530   25.2270  -27.8330 N   0  0  0  0  0  0  0  0  0  0  0  0
   -0.9770   24.7240  -28.0510 C   0  0  0  0  0  0  0  0  0  0  0  0
   -1.4120   23.9930  -29.1530 C   0  0  0  0  0  0  0  0  0  0  0  0
   -2.7610   23.5670  -29.1780 C   0  0  0  0  0  0  0  0  0  0  0  0
   -3.2610   22.8140  -30.3020 N   0  0  0  0  0  0  0  0  0  0  0  0
   -2.7990   21.5420  -30.5010 C   0  0  0  0  0  0  0  0  0  0  0  0
   -3.2470   20.7820  -31.5830 C   0  0  0  0  0  0  0  0  0  0  0  0
   -4.1750   21.3190  -32.4740 C   0  0  0  0  0  0  0  0  0  0  0  0
   -4.5960   20.5290  -33.5560 O   0  0  0  0  0  0  0  0  0  0  0  0
   -5.1570   19.2200  -33.4520 C   0  0  0  0  0  0  0  0  0  0  0  0
   -6.5340   19.2750  -32.8450 C   0  0  0  0  0  0  0  0  0  0  0  0
   -7.2830   20.4620  -32.9040 C   0  0  0  0  0  0  0  0  0  0  0  0
   -8.5670   20.5140  -32.3490 C   0  0  0  0  0  0  0  0  0  0  0  0
   -9.1120   19.3810  -31.7400 C   0  0  0  0  0  0  0  0  0  0  0  0
   -8.3790   18.1920  -31.6880 C   0  0  0  0  0  0  0  0  0  0  0  0
   -7.0960   18.1350  -32.2420 C   0  0  0  0  0  0  0  0  0  0  0  0
   -4.6530   22.6210  -32.2530 C   0  0  0  0  0  0  0  0  0  0  0  0
   -4.1860   23.3570  -31.1580 C   0  0  0  0  0  0  0  0  0  0  0  0
   -4.6420   24.5170  -30.9630 O   0  0  0  0  0  0  0  0  0  0  0  0
   -3.6230   23.9010  -28.0990 C   0  0  0  0  0  0  0  0  0  0  0  0
   -3.1480   24.6420  -27.0020 C   0  0  0  0  0  0  0  0  0  0  0  0
   -1.8100   25.0330  -27.0170 C   0  0  0  0  0  0  0  0  0  0  0  0
   -1.1649   25.7871  -24.0096 H   0  0  0  0  0  0  0  0  0  0  0  0
   -1.3407   27.3814  -24.8184 H   0  0  0  0  0  0  0  0  0  0  0  0
   -2.7097   26.2184  -24.8184 H   0  0  0  0  0  0  0  0  0  0  0  0
    0.9433   26.3839  -26.1317 H   0  0  0  0  0  0  0  0  0  0  0  0
   -0.7272   23.7537  -29.9799 H   0  0  0  0  0  0  0  0  0  0  0  0
   -2.0667   21.1133  -29.8010 H   0  0  0  0  0  0  0  0  0  0  0  0
   -2.8680   19.7602  -31.7324 H   0  0  0  0  0  0  0  0  0  0  0  0
   -5.2229   18.7751  -34.4559 H   0  0  0  0  0  0  0  0  0  0  0  0
   -4.5103   18.6097  -32.8044 H   0  0  0  0  0  0  0  0  0  0  0  0
   -6.8589   21.3540  -33.3882 H   0  0  0  0  0  0  0  0  0  0  0  0
   -9.1472   21.4475  -32.3924 H   0  0  0  0  0  0  0  0  0  0  0  0
  -10.1195   19.4247  -31.3007 H   0  0  0  0  0  0  0  0  0  0  0  0
   -8.8116   17.3002  -31.2109 H   0  0  0  0  0  0  0  0  0  0  0  0
   -6.5246   17.1958  -32.2061 H   0  0  0  0  0  0  0  0  0  0  0  0
   -5.3922   23.0610  -32.9385 H   0  0  0  0  0  0  0  0  0  0  0  0
   -4.6738   23.5764  -28.1219 H   0  0  0  0  0  0  0  0  0  0  0  0
   -3.8086   24.9036  -26.1623 H   0  0  0  0  0  0  0  0  0  0  0  0
  1  2  1  0
  2  3  1  0
  3  4  2  0
  4  5  1  0
  5  6  2  0
  6  7  1  0
  7  8  1  0
  8  9  1  0
  9 10  2  0
 10 11  1  0
 11 12  1  0
 12 13  1  0
 13 14  1  0
 14 15  2  0
 15 16  1  0
 16 17  2  0
 17 18  1  0
 18 19  2  0
 11 20  2  0
 20 21  1  0
 21 22  2  0
  7 23  2  0
 23 24  1  0
 24 25  2  0
 25  2  1  0
 25  5  1  0
 21  8  1  0
 19 14  1  0
  1 26  1  0
  1 27  1  0
  1 28  1  0
  3 29  1  0
  6 30  1  0
  9 31  1  0
 10 32  1  0
 13 33  1  0
 13 34  1  0
 15 35  1  0
 16 36  1  0
 17 37  1  0
 18 38  1  0
 19 39  1  0
 20 40  1  0
 23 41  1  0
 24 42  1  0
M  END
>  <UniqueID>  (12) 
12

>  <SMILES>  (12) 
Cn1cnc2cc(-n3ccc(OCc4ccccc4)cc3=O)ccc21

>  <Energy>  (12) 
91.79668211104152

>  <Genealogy>  (12) 
Cn1cnc2cc(-n3ccc(OCc4ccccc4)cc3=O)ccc21 (3D coordinates assigned)
Cn1cnc2cc(-n3ccc(OCc4ccccc4)cc3=O)ccc21 (optimized conformer: 91.79668211104152 kcal/mol)

>  <smiles>  (12) 
Cn1cnc2cc(-n3ccc(OCc4ccccc4)cc3=O)ccc21

>  <score_type>  (12) 
oracle

>  <origin>  (12) 
adg

>  <m_score__min__energy>  (12) 
-9.2799999999999994

>  <m_primary>  (12) 
energy

$$$$
12:0
     RDKit          3D

 44 46  0  0  0  0  0  0  0  0999 V2000
   -9.5382   21.1734  -30.9726 H   0  0  0  0  0  0  0  0  0  0  0  0
   -8.8800   20.4570  -31.4860 C   0  0  0  0  0  0  0  0  0  0  0  0
   -9.0260   19.0860  -31.2570 C   0  0  0  0  0  0  0  0  0  0  0  0
   -9.7982   18.7246  -30.5620 H   0  0  0  0  0  0  0  0  0  0  0  0
   -8.1920   18.1730  -31.9100 C   0  0  0  0  0  0  0  0  0  0  0  0
   -8.3059   17.0951  -31.7224 H   0  0  0  0  0  0  0  0  0  0  0  0
   -7.2090   18.6280  -32.8050 C   0  0  0  0  0  0  0  0  0  0  0  0
   -6.2860   17.6520  -33.4850 C   0  0  0  0  0  0  0  0  0  0  0  0
   -6.8420   16.7319  -33.7178 H   0  0  0  0  0  0  0  0  0  0  0  0
   -5.4464   17.4311  -32.8095 H   0  0  0  0  0  0  0  0  0  0  0  0
   -5.7290   18.2450  -34.7840 C   0  0  0  0  0  0  0  0  0  0  0  0
   -6.3315   19.1198  -35.0700 H   0  0  0  0  0  0  0  0  0  0  0  0
   -5.7738   17.4791  -35.5723 H   0  0  0  0  0  0  0  0  0  0  0  0
   -4.3350   18.6580  -34.6040 N   0  0  0  0  0  0  0  0  0  0  0  0
   -3.6570   19.1290  -33.5830 C   0  0  0  0  0  0  0  0  0  0  0  0
   -2.5240   18.5300  -33.0540 N   0  0  0  0  0  0  0  0  0  0  0  0
   -2.2430   17.0920  -33.2230 C   0  0  0  0  0  0  0  0  0  0  0  0
   -2.1504   16.6179  -32.2348 H   0  0  0  0  0  0  0  0  0  0  0  0
   -3.0660   16.6206  -33.7801 H   0  0  0  0  0  0  0  0  0  0  0  0
   -1.3031   16.9651  -33.7801 H   0  0  0  0  0  0  0  0  0  0  0  0
   -1.7180   19.2500  -32.2020 C   0  0  0  0  0  0  0  0  0  0  0  0
   -0.6150   18.7710  -31.8110 O   0  0  0  0  0  0  0  0  0  0  0  0
   -2.1150   20.5140  -31.7410 C   0  0  0  0  0  0  0  0  0  0  0  0
   -1.3330   21.2640  -30.8440 C   0  0  0  0  0  0  0  0  0  0  0  0
   -0.3639   20.8710  -30.5028 H   0  0  0  0  0  0  0  0  0  0  0  0
   -1.7800   22.5050  -30.3840 C   0  0  0  0  0  0  0  0  0  0  0  0
   -1.1598   23.0834  -29.6835 H   0  0  0  0  0  0  0  0  0  0  0  0
   -3.0170   23.0200  -30.8100 C   0  0  0  0  0  0  0  0  0  0  0  0
   -3.4950   24.3340  -30.3230 C   0  0  0  0  0  0  0  0  0  0  0  0
   -2.8820   24.9250  -29.3910 O   0  0  0  0  0  0  0  0  0  0  0  0
   -4.6280   24.9200  -30.8970 O   0  0  0  0  0  0  0  0  0  0  0  0
   -5.7800   25.2680  -30.1390 C   0  0  0  0  0  0  0  0  0  0  0  0
   -5.5479   25.1979  -29.0661 H   0  0  0  0  0  0  0  0  0  0  0  0
   -6.0818   26.2974  -30.3823 H   0  0  0  0  0  0  0  0  0  0  0  0
   -6.6013   24.5779  -30.3823 H   0  0  0  0  0  0  0  0  0  0  0  0
   -3.7950   22.2710  -31.7080 C   0  0  0  0  0  0  0  0  0  0  0  0
   -4.7634   22.6651  -32.0497 H   0  0  0  0  0  0  0  0  0  0  0  0
   -3.3480   21.0230  -32.1740 C   0  0  0  0  0  0  0  0  0  0  0  0
   -4.0830   20.3200  -33.0740 N   0  0  0  0  0  0  0  0  0  0  0  0
   -4.9720   20.7360  -33.4390 H   0  0  0  0  0  0  0  0  0  0  0  0
   -7.0620   20.0090  -33.0220 C   0  0  0  0  0  0  0  0  0  0  0  0
   -6.2860   20.3759  -33.7100 H   0  0  0  0  0  0  0  0  0  0  0  0
   -7.8980   20.9180  -32.3670 C   0  0  0  0  0  0  0  0  0  0  0  0
   -7.7828   21.9973  -32.5452 H   0  0  0  0  0  0  0  0  0  0  0  0
  1  2  1  0
  2  3  2  0
  3  4  1  0
  3  5  1  0
  5  6  1  0
  5  7  2  0
  7  8  1  0
  8  9  1  0
  8 10  1  0
  8 11  1  0
 11 12  1  0
 11 13  1  0
 11 14  1  0
 14 15  2  0
 15 16  1  0
 16 17  1  0
 17 18  1  0
 17 19  1  0
 17 20  1  0
 16 21  1  0
 21 22  2  0
 21 23  1  0
 23 24  2  0
 24 25  1  0
 24 26  1  0
 26 27  1  0
 26 28  2  0
 28 29  1  0
 29 30  2  0
 29 31  1  0
 31 32  1  0
 32 33  1  0
 32 34  1  0
 32 35  1  0
 28 36  1  0
 36 37  1  0
 36 38  2  0
 38 39  1  0
 39 40  1  0
  7 41  1  0
 41 42  1  0
 41 43  2  0
 43 44  1  0
 43  2  1  0
 39 15  1  0
 38 23  1  0
M  END
>  <UniqueID>  (13) 
13

>  <SMILES>  (13) 
COC(=O)c1ccc2c(=O)n(C)/c(=N\CCc3ccccc3)[nH]c2c1

>  <Energy>  (13) 
66.93015356535918

>  <Genealogy>  (13) 
COC(=O)c1ccc2c(=O)n(C)/c(=N\CCc3ccccc3)[nH]c2c1 (cis-trans isomerization)
COC(=O)c1ccc2c(=O)n(C)/c(=N\CCc3ccccc3)[nH]c2c1 (3D coordinates assigned)
COC(=O)c1ccc2c(=O)n(C)/c(=N\CCc3ccccc3)[nH]c2c1 (optimized conformer: 66.93015356535918 kcal/mol)

>  <smiles>  (13) 
COC(=O)c1ccc2c(=O)n(C)c(=NCCc3ccccc3)[nH]c2c1

>  <score_type>  (13) 
oracle

>  <origin>  (13) 
adg

>  <m_score__min__energy>  (13) 
-8.2899999999999991

>  <m_primary>  (13) 
energy

$$$$
13:0
     RDKit          3D

 35 37  0  0  1  0  0  0  0  0999 V2000
   -8.0170   23.0360  -31.3770 C   0  0  0  0  0  0  0  0  0  0  0  0
   -6.8640   23.7760  -32.0110 C   0  0  0  0  0  0  0  0  0  0  0  0
   -5.6180   23.8070  -31.2740 C   0  0  0  0  0  0  0  0  0  0  0  0
   -5.3740   24.6560  -30.1780 C   0  0  0  0  0  0  0  0  0  0  0  0
   -6.3980   25.6280  -29.7130 C   0  0  0  0  0  0  0  0  0  0  0  0
   -4.2030   24.6320  -29.5140 N   0  0  0  0  0  0  0  0  0  0  0  0
   -3.2070   23.8080  -29.8500 C   0  0  0  0  0  0  0  0  0  0  0  0
   -1.9510   23.6210  -29.3170 C   0  0  0  0  0  0  0  0  0  0  0  0
   -1.3720   22.6390  -30.0780 C   0  0  0  0  0  0  0  0  0  0  0  0
   -2.2610   22.2900  -30.9950 N   0  0  0  0  0  0  0  0  0  0  0  0
   -3.4010   22.9900  -30.8830 N   0  0  0  0  0  0  0  0  0  0  0  0
   -4.5670   22.9670  -31.5970 C   0  0  0  0  0  0  0  0  0  0  0  0
   -4.5950   22.1660  -32.5700 N   0  0  0  0  0  0  0  0  0  0  0  0
   -4.5630   20.7800  -32.4660 C   0  0  0  0  0  0  0  0  0  0  0  0
   -5.9200   20.1190  -32.4460 C   0  0  0  0  0  0  0  0  0  0  0  0
   -7.1060   20.4480  -32.9260 C   0  0  0  0  0  0  0  0  0  0  0  0
   -8.1620   19.6210  -32.7160 C   0  0  0  0  0  0  0  0  0  0  0  0
   -7.9550   18.5230  -32.0390 C   0  0  0  0  0  0  0  0  0  0  0  0
   -6.1420   18.5530  -31.6080 S   0  0  0  0  0  0  0  0  0  0  0  0
   -7.9305   23.0915  -30.2818 H   0  0  0  0  0  0  0  0  0  0  0  0
   -8.9654   23.4945  -31.6936 H   0  0  0  0  0  0  0  0  0  0  0  0
   -7.9952   21.9828  -31.6936 H   0  0  0  0  0  0  0  0  0  0  0  0
   -6.6622   23.3048  -32.9843 H   0  0  0  0  0  0  0  0  0  0  0  0
   -7.1915   24.8248  -32.0627 H   0  0  0  0  0  0  0  0  0  0  0  0
   -6.4153   25.6444  -28.6133 H   0  0  0  0  0  0  0  0  0  0  0  0
   -6.1499   26.6308  -30.0908 H   0  0  0  0  0  0  0  0  0  0  0  0
   -7.3866   25.3280  -30.0908 H   0  0  0  0  0  0  0  0  0  0  0  0
   -4.0280   25.2750  -28.6890 H   0  0  0  0  0  0  0  0  0  0  0  0
   -1.5060   24.1488  -28.4606 H   0  0  0  0  0  0  0  0  0  0  0  0
   -0.3624   22.2210  -29.9512 H   0  0  0  0  0  0  0  0  0  0  0  0
   -4.0015   20.3845  -33.3253 H   0  0  0  0  0  0  0  0  0  0  0  0
   -4.0909   20.5511  -31.4992 H   0  0  0  0  0  0  0  0  0  0  0  0
   -7.2367   21.3831  -33.4904 H   0  0  0  0  0  0  0  0  0  0  0  0
   -9.1613   19.8679  -33.1040 H   0  0  0  0  0  0  0  0  0  0  0  0
   -8.6915   17.7483  -31.7795 H   0  0  0  0  0  0  0  0  0  0  0  0
  1  2  1  0
  2  3  1  0
  3  4  2  0
  4  5  1  0
  4  6  1  0
  6  7  1  0
  7  8  2  0
  8  9  1  0
  9 10  2  0
 10 11  1  0
 11 12  1  0
 12 13  2  0
 13 14  1  0
 14 15  1  0
 15 16  2  0
 16 17  1  0
 17 18  2  0
 18 19  1  0
 12  3  1  0
 19 15  1  0
 11  7  1  0
  1 20  1  0
  1 21  1  0
  1 22  1  0
  2 23  1  0
  2 24  1  0
  5 25  1  0
  5 26  1  0
  5 27  1  0
  6 28  1  0
  8 29  1  0
  9 30  1  0
 14 31  1  0
 14 32  1  0
 16 33  1  0
 17 34  1  0
 18 35  1  0
M  END
>  <smiles>  (14) 
CCc1c(C)[nH]c2ccnn2c1=NCc1cccs1

>  <score_type>  (14) 
oracle

>  <origin>  (14) 
adg

>  <m_score__min__energy>  (14) 
-7.04

>  <m_primary>  (14) 
energy

$$$$
14:0
     RDKit          3D

 37 40  0  0  0  0  0  0  0  0999 V2000
   -9.4770   19.7150  -32.9290 O   0  0  0  0  0  0  0  0  0  0  0  0
   -8.5790   20.4060  -32.3730 C   0  0  0  0  0  0  0  0  0  0  0  0
   -8.9420   21.5480  -31.6640 C   0  0  0  0  0  0  0  0  0  0  0  0
   -7.9600   22.2960  -31.0270 C   0  0  0  0  0  0  0  0  0  0  0  0
   -6.6240   21.8880  -31.1090 C   0  0  0  0  0  0  0  0  0  0  0  0
   -5.5540   22.6740  -30.4430 C   0  0  0  0  0  0  0  0  0  0  0  0
   -5.8660   23.8380  -29.7190 C   0  0  0  0  0  0  0  0  0  0  0  0
   -4.8620   24.5760  -29.0900 C   0  0  0  0  0  0  0  0  0  0  0  0
   -3.5250   24.1640  -29.1730 C   0  0  0  0  0  0  0  0  0  0  0  0
   -2.5080   24.9000  -28.5440 C   0  0  0  0  0  0  0  0  0  0  0  0
   -1.1780   24.4790  -28.6370 C   0  0  0  0  0  0  0  0  0  0  0  0
   -0.8540   23.3250  -29.3560 C   0  0  0  0  0  0  0  0  0  0  0  0
   -1.8580   22.5840  -29.9860 C   0  0  0  0  0  0  0  0  0  0  0  0
   -3.1970   22.9950  -29.9000 C   0  0  0  0  0  0  0  0  0  0  0  0
   -4.2130   22.2590  -30.5300 C   0  0  0  0  0  0  0  0  0  0  0  0
   -6.3180   20.7620  -31.8190 N   0  0  0  0  0  0  0  0  0  0  0  0
   -7.2600   20.0380  -32.4440 N   0  0  0  0  0  0  0  0  0  0  0  0
   -6.8620   18.8600  -33.1740 C   0  0  0  0  0  0  0  0  0  0  0  0
   -7.2700   17.5900  -32.7390 C   0  0  0  0  0  0  0  0  0  0  0  0
   -6.8630   16.4560  -33.4460 C   0  0  0  0  0  0  0  0  0  0  0  0
   -6.0710   16.5830  -34.5440 N   0  0  0  0  0  0  0  0  0  0  0  0
   -5.6540   17.8010  -34.9830 C   0  0  0  0  0  0  0  0  0  0  0  0
   -6.0380   18.9610  -34.3060 C   0  0  0  0  0  0  0  0  0  0  0  0
   -9.9968   21.8551  -31.6088 H   0  0  0  0  0  0  0  0  0  0  0  0
   -8.2302   23.2010  -30.4631 H   0  0  0  0  0  0  0  0  0  0  0  0
   -6.9121   24.1706  -29.6475 H   0  0  0  0  0  0  0  0  0  0  0  0
   -5.1212   25.4847  -28.5269 H   0  0  0  0  0  0  0  0  0  0  0  0
   -2.7580   25.8090  -27.9773 H   0  0  0  0  0  0  0  0  0  0  0  0
   -0.3839   25.0579  -28.1427 H   0  0  0  0  0  0  0  0  0  0  0  0
    0.1942   22.9989  -29.4263 H   0  0  0  0  0  0  0  0  0  0  0  0
   -1.5978   21.6765  -30.5506 H   0  0  0  0  0  0  0  0  0  0  0  0
   -3.9583   21.3508  -31.0960 H   0  0  0  0  0  0  0  0  0  0  0  0
   -5.3210   20.4550  -31.8710 H   0  0  0  0  0  0  0  0  0  0  0  0
   -7.9060   17.4880  -31.8473 H   0  0  0  0  0  0  0  0  0  0  0  0
   -7.1840   15.4578  -33.1136 H   0  0  0  0  0  0  0  0  0  0  0  0
   -5.0125   17.8728  -35.8737 H   0  0  0  0  0  0  0  0  0  0  0  0
   -5.6973   19.9461  -34.6573 H   0  0  0  0  0  0  0  0  0  0  0  0
  1  2  2  0
  2  3  1  0
  3  4  2  0
  4  5  1  0
  5  6  1  0
  6  7  2  0
  7  8  1  0
  8  9  2  0
  9 10  1  0
 10 11  2  0
 11 12  1  0
 12 13  2  0
 13 14  1  0
 14 15  2  0
  5 16  2  0
 16 17  1  0
 17 18  1  0
 18 19  2  0
 19 20  1  0
 20 21  2  0
 21 22  1  0
 22 23  2  0
 17  2  1  0
 23 18  1  0
 15  6  1  0
 14  9  1  0
  3 24  1  0
  4 25  1  0
  7 26  1  0
  8 27  1  0
 10 28  1  0
 11 29  1  0
 12 30  1  0
 13 31  1  0
 15 32  1  0
 16 33  1  0
 19 34  1  0
 20 35  1  0
 22 36  1  0
 23 37  1  0
M  CHG  1  16   1
M  END
>  <UniqueID>  (15) 
14

>  <SMILES>  (15) 
O=c1ccc(-c2ccc3ccccc3c2)[nH+]n1-c1ccncc1

>  <Energy>  (15) 
59.17476340234434

>  <Genealogy>  (15) 
O=c1ccc(-c2ccc3ccccc3c2)[nH+]n1-c1ccncc1 (protonated)
O=c1ccc(-c2ccc3ccccc3c2)[nH+]n1-c1ccncc1 (3D coordinates assigned)
O=c1ccc(-c2ccc3ccccc3c2)[nH+]n1-c1ccncc1 (optimized conformer: 59.17476340234434 kcal/mol)

>  <smiles>  (15) 
O=c1ccc(-c2ccc3ccccc3c2)nn1-c1ccncc1

>  <score_type>  (15) 
oracle

>  <origin>  (15) 
adg

>  <m_score__min__energy>  (15) 
-8.1699999999999999

>  <m_primary>  (15) 
energy

$$$$
15:0
     RDKit          3D

 38 40  0  0  0  0  0  0  0  0999 V2000
   -2.1460   26.0710  -29.3480 H   0  0  0  0  0  0  0  0  0  0  0  0
   -1.2490   25.6870  -29.0730 O   0  0  0  0  0  0  0  0  0  0  0  0
   -0.9080   24.3630  -29.2580 N   0  0  0  0  0  0  0  0  0  0  0  0
    0.0270   24.0700  -28.9010 H   0  0  0  0  0  0  0  0  0  0  0  0
   -1.6860   23.4820  -29.8370 C   0  0  0  0  0  0  0  0  0  0  0  0
   -3.0540   23.8330  -30.2820 C   0  0  0  0  0  0  0  0  0  0  0  0
   -3.5180   25.0980  -30.3710 N   0  0  0  0  0  0  0  0  0  0  0  0
   -4.7490   25.0710  -30.8690 N   0  0  0  0  0  0  0  0  0  0  0  0
   -5.0780   23.7880  -31.0920 C   0  0  0  0  0  0  0  0  0  0  0  0
   -4.0200   22.9700  -30.7750 C   0  0  0  0  0  0  0  0  0  0  0  0
   -4.0720   21.4700  -30.8430 C   0  0  0  0  0  0  0  0  0  0  0  0
   -3.1123   21.0893  -31.2226 H   0  0  0  0  0  0  0  0  0  0  0  0
   -4.2607   21.0697  -29.8359 H   0  0  0  0  0  0  0  0  0  0  0  0
   -5.2090   21.0220  -31.7870 C   0  0  0  0  0  0  0  0  0  0  0  0
   -4.9019   21.2065  -32.8270 H   0  0  0  0  0  0  0  0  0  0  0  0
   -5.3955   19.9518  -31.6139 H   0  0  0  0  0  0  0  0  0  0  0  0
   -6.5220   21.7900  -31.5090 C   0  0  0  0  0  0  0  0  0  0  0  0
   -7.3027   21.4206  -32.1902 H   0  0  0  0  0  0  0  0  0  0  0  0
   -6.8042   21.6205  -30.4594 H   0  0  0  0  0  0  0  0  0  0  0  0
   -6.3480   23.3090  -31.7230 C   0  0  0  0  0  0  0  0  0  0  0  0
   -6.3179   23.5209  -32.8020 H   0  0  0  0  0  0  0  0  0  0  0  0
   -7.1953   23.8322  -31.2559 H   0  0  0  0  0  0  0  0  0  0  0  0
   -1.1670   22.1840  -30.1770 N   0  0  0  0  0  0  0  0  0  0  0  0
   -1.5210   21.7110  -31.0400 H   0  0  0  0  0  0  0  0  0  0  0  0
   -0.2890   21.4110  -29.2930 C   0  0  0  0  0  0  0  0  0  0  0  0
    0.3884   20.7949  -29.9025 H   0  0  0  0  0  0  0  0  0  0  0  0
    0.2926   22.1058  -28.6693 H   0  0  0  0  0  0  0  0  0  0  0  0
   -1.1070   20.5140  -28.3970 C   0  0  0  0  0  0  0  0  0  0  0  0
   -2.3780   20.9280  -27.9540 C   0  0  0  0  0  0  0  0  0  0  0  0
   -2.7867   21.8942  -28.2848 H   0  0  0  0  0  0  0  0  0  0  0  0
   -3.1220   20.1130  -27.0940 C   0  0  0  0  0  0  0  0  0  0  0  0
   -4.1189   20.4345  -26.7582 H   0  0  0  0  0  0  0  0  0  0  0  0
   -2.5990   18.8880  -26.6600 C   0  0  0  0  0  0  0  0  0  0  0  0
   -3.1864   18.2484  -25.9848 H   0  0  0  0  0  0  0  0  0  0  0  0
   -1.3310   18.4770  -27.0840 C   0  0  0  0  0  0  0  0  0  0  0  0
   -0.9202   17.5172  -26.7375 H   0  0  0  0  0  0  0  0  0  0  0  0
   -0.5850   19.2850  -27.9480 C   0  0  0  0  0  0  0  0  0  0  0  0
    0.4126   18.9598  -28.2781 H   0  0  0  0  0  0  0  0  0  0  0  0
  1  2  1  0
  2  3  1  0
  3  4  1  0
  3  5  2  0
  5  6  1  0
  6  7  1  0
  7  8  1  0
  8  9  2  0
  9 10  1  0
 10 11  1  0
 11 12  1  0
 11 13  1  0
 11 14  1  0
 14 15  1  0
 14 16  1  0
 14 17  1  0
 17 18  1  0
 17 19  1  0
 17 20  1  0
 20 21  1  0
 20 22  1  0
  5 23  1  0
 23 24  1  0
 23 25  1  0
 25 26  1  0
 25 27  1  0
 25 28  1  0
 28 29  2  0
 29 30  1  0
 29 31  1  0
 31 32  1  0
 31 33  2  0
 33 34  1  0
 33 35  1  0
 35 36  1  0
 35 37  2  0
 37 38  1  0
 10  6  2  0
 37 28  1  0
 20  9  1  0
M  CHG  2   3   1   7  -1
M  END
>  <UniqueID>  (16) 
15

>  <SMILES>  (16) 
O/[NH+]=C(/NCc1ccccc1)c1[n-]nc2c1CCCC2

>  <Energy>  (16) 
74.0206197531018

>  <Genealogy>  (16) 
O[NH+]=C(NCc1ccccc1)c1[n-]nc2c1CCCC2 (protonated)
O/[NH+]=C(/NCc1ccccc1)c1[n-]nc2c1CCCC2 (cis-trans isomerization)
O/[NH+]=C(/NCc1ccccc1)c1[n-]nc2c1CCCC2 (3D coordinates assigned)
O/[NH+]=C(/NCc1ccccc1)c1[n-]nc2c1CCCC2 (nonaromatic ring conformer: 74.0206197531018 kcal/mol)

>  <smiles>  (16) 
ON=C(NCc1ccccc1)c1[nH]nc2c1CCCC2

>  <score_type>  (16) 
oracle

>  <origin>  (16) 
adg

>  <m_score__min__energy>  (16) 
-8.7699999999999996

>  <m_primary>  (16) 
energy

$$$$
16:0
     RDKit          3D

 60 63  0  0  0  0  0  0  0  0999 V2000
   -1.6370   21.4830  -31.9170 C   0  0  0  0  0  0  0  0  0  0  0  0
   -1.9970   22.3540  -30.7360 C   0  0  0  0  0  0  0  0  0  0  0  0
   -1.0360   22.5020  -29.7220 C   0  0  0  0  0  0  0  0  0  0  0  0
   -1.3030   23.2950  -28.5940 C   0  0  0  0  0  0  0  0  0  0  0  0
   -0.3370   23.4740  -27.5290 N   0  0  0  0  0  0  0  0  0  0  0  0
    0.9740   24.0490  -27.8550 C   0  0  0  0  0  0  0  0  0  0  0  0
   -0.6130   23.0910  -26.1350 C   0  0  0  0  0  0  0  0  0  0  0  0
   -0.6750   21.5600  -26.0060 C   0  0  0  0  0  0  0  0  0  0  0  0
   -1.2690   20.8840  -27.1810 N   0  0  0  0  0  0  0  0  0  0  0  0
   -0.4960   19.7340  -27.6960 C   0  0  0  0  0  0  0  0  0  0  0  0
   -0.9570   18.3790  -27.1070 C   0  0  0  0  0  0  0  0  0  0  0  0
   -2.1390   18.4720  -26.3360 O   0  0  0  0  0  0  0  0  0  0  0  0
   -3.1150   19.1930  -27.0520 C   0  0  0  0  0  0  0  0  0  0  0  0
   -2.7330   20.6770  -27.1100 C   0  0  0  0  0  0  0  0  0  0  0  0
   -2.5050   23.9220  -28.5100 N   0  0  0  0  0  0  0  0  0  0  0  0
   -3.4660   23.8110  -29.4630 C   0  0  0  0  0  0  0  0  0  0  0  0
   -4.6640   24.4870  -29.2860 C   0  0  0  0  0  0  0  0  0  0  0  0
   -5.6770   24.3940  -30.2440 C   0  0  0  0  0  0  0  0  0  0  0  0
   -6.9570   25.1570  -29.9940 C   0  0  0  0  0  0  0  0  0  0  0  0
   -5.4870   23.6310  -31.3780 N   0  0  0  0  0  0  0  0  0  0  0  0
   -6.5650   23.5160  -32.3890 C   0  0  0  0  0  0  0  0  0  0  0  0
   -7.3930   22.2690  -32.1760 C   0  0  0  0  0  0  0  0  0  0  0  0
   -8.6850   22.3510  -31.6280 C   0  0  0  0  0  0  0  0  0  0  0  0
   -9.4370   21.1910  -31.4170 C   0  0  0  0  0  0  0  0  0  0  0  0
   -8.9030   19.9410  -31.7390 C   0  0  0  0  0  0  0  0  0  0  0  0
   -7.6120   19.8470  -32.2670 C   0  0  0  0  0  0  0  0  0  0  0  0
   -6.9400   18.2760  -32.6630 Cl  0  0  0  0  0  0  0  0  0  0  0  0
   -6.8560   21.0060  -32.4790 C   0  0  0  0  0  0  0  0  0  0  0  0
   -4.3010   22.9510  -31.5710 C   0  0  0  0  0  0  0  0  0  0  0  0
   -4.1510   22.2540  -32.6120 O   0  0  0  0  0  0  0  0  0  0  0  0
   -3.2520   23.0240  -30.6130 C   0  0  0  0  0  0  0  0  0  0  0  0
   -1.2400   20.5225  -31.5567 H   0  0  0  0  0  0  0  0  0  0  0  0
   -2.5345   21.3031  -32.5270 H   0  0  0  0  0  0  0  0  0  0  0  0
   -0.8744   21.9893  -32.5270 H   0  0  0  0  0  0  0  0  0  0  0  0
   -0.0655   21.9921  -29.8123 H   0  0  0  0  0  0  0  0  0  0  0  0
    1.5123   24.2851  -26.9252 H   0  0  0  0  0  0  0  0  0  0  0  0
    1.5567   23.3238  -28.4420 H   0  0  0  0  0  0  0  0  0  0  0  0
    0.8352   24.9689  -28.4420 H   0  0  0  0  0  0  0  0  0  0  0  0
    0.1871   23.4779  -25.4869 H   0  0  0  0  0  0  0  0  0  0  0  0
   -1.5813   23.5158  -25.8316 H   0  0  0  0  0  0  0  0  0  0  0  0
    0.3489   21.1819  -25.8696 H   0  0  0  0  0  0  0  0  0  0  0  0
   -1.3246   21.3375  -25.1467 H   0  0  0  0  0  0  0  0  0  0  0  0
   -0.6100   19.6972  -28.7895 H   0  0  0  0  0  0  0  0  0  0  0  0
    0.5517   19.8825  -27.3955 H   0  0  0  0  0  0  0  0  0  0  0  0
   -1.1374   17.6814  -27.9381 H   0  0  0  0  0  0  0  0  0  0  0  0
   -0.1590   18.0299  -26.4351 H   0  0  0  0  0  0  0  0  0  0  0  0
   -3.1848   18.7945  -28.0749 H   0  0  0  0  0  0  0  0  0  0  0  0
   -4.0853   19.0894  -26.5443 H   0  0  0  0  0  0  0  0  0  0  0  0
   -3.1962   21.1258  -28.0011 H   0  0  0  0  0  0  0  0  0  0  0  0
   -3.0927   21.1507  -26.1847 H   0  0  0  0  0  0  0  0  0  0  0  0
   -4.8177   25.1002  -28.3858 H   0  0  0  0  0  0  0  0  0  0  0  0
   -7.1202   25.2543  -28.9105 H   0  0  0  0  0  0  0  0  0  0  0  0
   -6.8814   26.1576  -30.4447 H   0  0  0  0  0  0  0  0  0  0  0  0
   -7.8012   24.6146  -30.4447 H   0  0  0  0  0  0  0  0  0  0  0  0
   -7.2198   24.3968  -32.3153 H   0  0  0  0  0  0  0  0  0  0  0  0
   -6.1002   23.4561  -33.3842 H   0  0  0  0  0  0  0  0  0  0  0  0
   -9.1064   23.3322  -31.3640 H   0  0  0  0  0  0  0  0  0  0  0  0
  -10.4510   21.2630  -30.9967 H   0  0  0  0  0  0  0  0  0  0  0  0
   -9.4985   19.0304  -31.5771 H   0  0  0  0  0  0  0  0  0  0  0  0
   -5.8366   20.9278  -32.8848 H   0  0  0  0  0  0  0  0  0  0  0  0
  1  2  1  0
  2  3  2  0
  3  4  1  0
  4  5  1  0
  5  6  1  0
  5  7  1  0
  7  8  1  0
  8  9  1  0
  9 10  1  0
 10 11  1  0
 11 12  1  0
 12 13  1  0
 13 14  1  0
  4 15  2  0
 15 16  1  0
 16 17  1  0
 17 18  2  0
 18 19  1  0
 18 20  1  0
 20 21  1  0
 21 22  1  0
 22 23  2  0
 23 24  1  0
 24 25  2  0
 25 26  1  0
 26 27  1  0
 26 28  2  0
 20 29  1  0
 29 30  2  0
 29 31  1  0
 31  2  1  0
 14  9  1  0
 31 16  2  0
 28 22  1  0
  1 32  1  0
  1 33  1  0
  1 34  1  0
  3 35  1  0
  6 36  1  0
  6 37  1  0
  6 38  1  0
  7 39  1  0
  7 40  1  0
  8 41  1  0
  8 42  1  0
 10 43  1  0
 10 44  1  0
 11 45  1  0
 11 46  1  0
 13 47  1  0
 13 48  1  0
 14 49  1  0
 14 50  1  0
 17 51  1  0
 19 52  1  0
 19 53  1  0
 19 54  1  0
 21 55  1  0
 21 56  1  0
 23 57  1  0
 24 58  1  0
 25 59  1  0
 28 60  1  0
M  END
>  <UniqueID>  (17) 
16

>  <SMILES>  (17) 
Cc1cc(N(C)CCN2CCOCC2)nc2cc(C)n(Cc3cccc(Cl)c3)c(=O)c12

>  <Energy>  (17) 
90.50348401108864

>  <Genealogy>  (17) 
Cc1cc(N(C)CCN2CCOCC2)nc2cc(C)n(Cc3cccc(Cl)c3)c(=O)c12 (3D coordinates assigned)
Cc1cc(N(C)CCN2CCOCC2)nc2cc(C)n(Cc3cccc(Cl)c3)c(=O)c12 (nonaromatic ring conformer: 90.50348401108864 kcal/mol)

>  <smiles>  (17) 
Cc1cc(N(C)CCN2CCOCC2)nc2cc(C)n(Cc3cccc(Cl)c3)c(=O)c12

>  <score_type>  (17) 
oracle

>  <origin>  (17) 
adg

>  <m_score__min__energy>  (17) 
-9.6600000000000001

>  <m_primary>  (17) 
energy

$$$$
17:0
     RDKit          3D

 28 29  0  0  0  0  0  0  0  0999 V2000
   -5.8950   21.2080  -32.6930 C   0  0  0  0  0  0  0  0  0  0  0  0
   -5.9300   22.4410  -31.8290 C   0  0  0  0  0  0  0  0  0  0  0  0
   -4.7330   23.1200  -31.5370 C   0  0  0  0  0  0  0  0  0  0  0  0
   -4.7360   24.2600  -30.7260 C   0  0  0  0  0  0  0  0  0  0  0  0
   -3.4940   24.9290  -30.4640 N   0  0  0  0  0  0  0  0  0  0  0  0
   -2.5450   24.5830  -29.4460 C   0  0  0  0  0  0  0  0  0  0  0  0
   -1.8200   25.4920  -28.9630 O   0  0  0  0  0  0  0  0  0  0  0  0
   -2.3580   23.1930  -28.9800 C   0  0  0  0  0  0  0  0  0  0  0  0
   -3.3030   22.5600  -28.1550 C   0  0  0  0  0  0  0  0  0  0  0  0
   -3.0860   21.2410  -27.7500 C   0  0  0  0  0  0  0  0  0  0  0  0
   -1.9440   20.5620  -28.1740 C   0  0  0  0  0  0  0  0  0  0  0  0
   -1.0340   21.2130  -29.0090 C   0  0  0  0  0  0  0  0  0  0  0  0
   -1.2610   22.4980  -29.3920 N   0  0  0  0  0  0  0  0  0  0  0  0
   -5.9550   24.7500  -30.2290 C   0  0  0  0  0  0  0  0  0  0  0  0
   -7.1490   24.0840  -30.5130 C   0  0  0  0  0  0  0  0  0  0  0  0
   -7.1460   22.9300  -31.3060 C   0  0  0  0  0  0  0  0  0  0  0  0
   -8.3990   22.2680  -31.5760 C   0  0  0  0  0  0  0  0  0  0  0  0
   -9.4050   21.7380  -31.7930 N   0  0  0  0  0  0  0  0  0  0  0  0
   -5.8696   20.3131  -32.0539 H   0  0  0  0  0  0  0  0  0  0  0  0
   -6.7927   21.1797  -33.3281 H   0  0  0  0  0  0  0  0  0  0  0  0
   -4.9971   21.2307  -33.3281 H   0  0  0  0  0  0  0  0  0  0  0  0
   -3.7834   22.7502  -31.9512 H   0  0  0  0  0  0  0  0  0  0  0  0
   -4.2058   23.0985  -27.8309 H   0  0  0  0  0  0  0  0  0  0  0  0
   -3.8150   20.7384  -27.0974 H   0  0  0  0  0  0  0  0  0  0  0  0
   -1.7623   19.5253  -27.8542 H   0  0  0  0  0  0  0  0  0  0  0  0
   -0.1332   20.6864  -29.3572 H   0  0  0  0  0  0  0  0  0  0  0  0
   -5.9691   25.6618  -29.6138 H   0  0  0  0  0  0  0  0  0  0  0  0
   -8.0981   24.4684  -30.1111 H   0  0  0  0  0  0  0  0  0  0  0  0
  1  2  1  0
  2  3  2  0
  3  4  1  0
  4  5  1  0
  5  6  1  0
  6  7  2  0
  6  8  1  0
  8  9  2  0
  9 10  1  0
 10 11  2  0
 11 12  1  0
 12 13  2  0
  4 14  2  0
 14 15  1  0
 15 16  2  0
 16 17  1  0
 17 18  3  0
 16  2  1  0
 13  8  1  0
  1 19  1  0
  1 20  1  0
  1 21  1  0
  3 22  1  0
  9 23  1  0
 10 24  1  0
 11 25  1  0
 12 26  1  0
 14 27  1  0
 15 28  1  0
M  CHG  1   5  -1
M  END
>  <UniqueID>  (18) 
17

>  <SMILES>  (18) 
Cc1cc([N-]C(=O)c2ccccn2)ccc1C#N

>  <Energy>  (18) 
35.56837622171921

>  <Genealogy>  (18) 
Cc1cc([N-]C(=O)c2ccccn2)ccc1C#N (protonated)
Cc1cc([N-]C(=O)c2ccccn2)ccc1C#N (3D coordinates assigned)
Cc1cc([N-]C(=O)c2ccccn2)ccc1C#N (optimized conformer: 35.56837622171921 kcal/mol)

>  <smiles>  (18) 
Cc1cc(NC(=O)c2ccccn2)ccc1C#N

>  <score_type>  (18) 
oracle

>  <origin>  (18) 
adg

>  <m_score__min__energy>  (18) 
-8.3000000000000007

>  <m_primary>  (18) 
energy

$$$$
18:0
     RDKit          3D

 41 44  0  0  0  0  0  0  0  0999 V2000
   -5.0483   22.4532  -33.3572 H   0  0  0  0  0  0  0  0  0  0  0  0
   -5.4420   22.2730  -32.3460 C   0  0  0  0  0  0  0  0  0  0  0  0
   -6.8140   21.7420  -32.2270 C   0  0  0  0  0  0  0  0  0  0  0  0
   -7.8350   22.5480  -31.6920 C   0  0  0  0  0  0  0  0  0  0  0  0
   -7.5987   23.5579  -31.3257 H   0  0  0  0  0  0  0  0  0  0  0  0
   -9.1470   22.0740  -31.6230 C   0  0  0  0  0  0  0  0  0  0  0  0
   -9.9373   22.7047  -31.1898 H   0  0  0  0  0  0  0  0  0  0  0  0
   -9.4560   20.7990  -32.1040 C   0  0  0  0  0  0  0  0  0  0  0  0
  -10.4893   20.4259  -32.0478 H   0  0  0  0  0  0  0  0  0  0  0  0
   -8.4540   19.9980  -32.6560 C   0  0  0  0  0  0  0  0  0  0  0  0
   -8.7019   18.9952  -33.0341 H   0  0  0  0  0  0  0  0  0  0  0  0
   -7.1350   20.4640  -32.7310 C   0  0  0  0  0  0  0  0  0  0  0  0
   -5.8000   19.3200  -33.4920 Br  0  0  0  0  0  0  0  0  0  0  0  0
   -4.6420   22.5510  -31.3050 C   0  0  0  0  0  0  0  0  0  0  0  0
   -3.8620   21.3300  -30.3690 S   0  0  0  0  0  0  0  0  0  0  0  0
   -3.1590   22.4820  -29.3740 C   0  0  0  0  0  0  0  0  0  0  0  0
   -2.3670   22.4160  -28.2950 N   0  0  0  0  0  0  0  0  0  0  0  0
   -2.2570   23.7540  -28.0120 C   0  0  0  0  0  0  0  0  0  0  0  0
   -1.4760   24.2610  -26.9110 N   0  0  0  0  0  0  0  0  0  0  0  0
   -2.0340   25.2890  -26.0240 C   0  0  0  0  0  0  0  0  0  0  0  0
   -3.0875   25.4644  -26.2873 H   0  0  0  0  0  0  0  0  0  0  0  0
   -1.9622   24.9443  -24.9819 H   0  0  0  0  0  0  0  0  0  0  0  0
   -1.2670   26.5650  -26.1730 C   0  0  0  0  0  0  0  0  0  0  0  0
   -0.7570   26.9890  -27.3070 O   0  0  0  0  0  0  0  0  0  0  0  0
   -0.1350   28.1240  -27.0860 C   0  0  0  0  0  0  0  0  0  0  0  0
    0.3898   28.7179  -27.8488 H   0  0  0  0  0  0  0  0  0  0  0  0
   -0.2400   28.4590  -25.7490 C   0  0  0  0  0  0  0  0  0  0  0  0
    0.1750   29.3511  -25.2571 H   0  0  0  0  0  0  0  0  0  0  0  0
   -0.9690   27.4510  -25.1560 C   0  0  0  0  0  0  0  0  0  0  0  0
   -1.2535   27.3692  -24.0966 H   0  0  0  0  0  0  0  0  0  0  0  0
   -0.0760   23.8510  -26.7470 C   0  0  0  0  0  0  0  0  0  0  0  0
    0.5783   24.7144  -26.9378 H   0  0  0  0  0  0  0  0  0  0  0  0
    0.1427   23.0428  -27.4604 H   0  0  0  0  0  0  0  0  0  0  0  0
    0.1710   23.3380  -25.3320 C   0  0  0  0  0  0  0  0  0  0  0  0
   -0.1870   24.0816  -24.6047 H   0  0  0  0  0  0  0  0  0  0  0  0
   -0.3702   22.3916  -25.1854 H   0  0  0  0  0  0  0  0  0  0  0  0
    1.2483   23.1709  -25.1854 H   0  0  0  0  0  0  0  0  0  0  0  0
   -2.9460   24.5620  -28.8700 N   0  0  0  0  0  0  0  0  0  0  0  0
   -3.4870   23.7030  -29.7020 N   0  0  0  0  0  0  0  0  0  0  0  0
   -4.3150   23.8150  -30.7600 C   0  0  0  0  0  0  0  0  0  0  0  0
   -4.7570   24.9240  -31.1610 O   0  0  0  0  0  0  0  0  0  0  0  0
  1  2  1  0
  2  3  1  0
  3  4  2  0
  4  5  1  0
  4  6  1  0
  6  7  1  0
  6  8  2  0
  8  9  1  0
  8 10  1  0
 10 11  1  0
 10 12  2  0
 12 13  1  0
  2 14  2  0
 14 15  1  0
 15 16  1  0
 16 17  2  0
 17 18  1  0
 18 19  1  0
 19 20  1  0
 20 21  1  0
 20 22  1  0
 20 23  1  0
 23 24  1  0
 24 25  1  0
 25 26  1  0
 25 27  2  0
 27 28  1  0
 27 29  1  0
 29 30  1  0
 19 31  1  0
 31 32  1  0
 31 33  1  0
 31 34  1  0
 34 35  1  0
 34 36  1  0
 34 37  1  0
 18 38  2  0
 38 39  1  0
 39 40  1  0
 40 41  2  0
 12  3  1  0
 40 14  1  0
 39 16  1  0
 29 23  2  0
M  END
>  <UniqueID>  (19) 
18

>  <SMILES>  (19) 
CCN(Cc1ccco1)c1nc2s/c(=C/c3ccccc3Br)c(=O)n2n1

>  <Energy>  (19) 
159.26020441109335

>  <Genealogy>  (19) 
CCN(Cc1ccco1)c1nc2s/c(=C/c3ccccc3Br)c(=O)n2n1 (cis-trans isomerization)
CCN(Cc1ccco1)c1nc2s/c(=C/c3ccccc3Br)c(=O)n2n1 (3D coordinates assigned)
CCN(Cc1ccco1)c1nc2s/c(=C/c3ccccc3Br)c(=O)n2n1 (optimized conformer: 159.26020441109335 kcal/mol)

>  <smiles>  (19) 
CCN(Cc1ccco1)c1nc2sc(=Cc3ccccc3Br)c(=O)n2n1

>  <score_type>  (19) 
oracle

>  <origin>  (19) 
adg

>  <m_score__min__energy>  (19) 
-8.6300000000000008

>  <m_primary>  (19) 
energy

$$$$
19:0
     RDKit          3D

 32 33  0  0  0  0  0  0  0  0999 V2000
   -7.0478   17.6767  -33.2248 H   0  0  0  0  0  0  0  0  0  0  0  0
   -6.6600   18.6960  -33.0810 C   0  0  0  0  0  0  0  0  0  0  0  0
   -7.4730   19.6680  -32.4890 C   0  0  0  0  0  0  0  0  0  0  0  0
   -9.1010   19.2070  -32.0010 Cl  0  0  0  0  0  0  0  0  0  0  0  0
   -6.9820   20.9740  -32.3030 C   0  0  0  0  0  0  0  0  0  0  0  0
   -7.9890   22.2320  -31.5760 S   0  0  0  0  0  0  0  0  0  0  0  0
   -8.1100   22.0320  -30.0910 O   0  0  0  0  0  0  0  0  0  0  0  0
   -9.3640   22.1700  -32.1800 O   0  0  0  0  0  0  0  0  0  0  0  0
   -7.2970   23.7920  -31.8820 N   0  0  0  0  0  0  0  0  0  0  0  0
   -6.2730   24.2470  -31.2330 C   0  0  0  0  0  0  0  0  0  0  0  0
   -4.9950   24.1820  -31.6560 N   0  0  0  0  0  0  0  0  0  0  0  0
   -4.3050   24.7540  -30.7100 O   0  0  0  0  0  0  0  0  0  0  0  0
   -5.0420   25.1780  -29.7220 N   0  0  0  0  0  0  0  0  0  0  0  0
   -4.6890   25.6630  -28.8680 H   0  0  0  0  0  0  0  0  0  0  0  0
   -6.3160   24.8740  -30.0140 C   0  0  0  0  0  0  0  0  0  0  0  0
   -7.2071   25.0836  -29.4041 H   0  0  0  0  0  0  0  0  0  0  0  0
   -5.6790   21.2850  -32.7190 C   0  0  0  0  0  0  0  0  0  0  0  0
   -5.2952   22.3066  -32.5809 H   0  0  0  0  0  0  0  0  0  0  0  0
   -4.8550   20.3080  -33.3110 C   0  0  0  0  0  0  0  0  0  0  0  0
   -3.5450   20.5890  -33.7400 O   0  0  0  0  0  0  0  0  0  0  0  0
   -2.6530   21.5330  -33.1450 C   0  0  0  0  0  0  0  0  0  0  0  0
   -3.0130   22.5512  -33.3539 H   0  0  0  0  0  0  0  0  0  0  0  0
   -1.6493   21.3880  -33.5710 H   0  0  0  0  0  0  0  0  0  0  0  0
   -2.5790   21.3280  -31.6350 C   0  0  0  0  0  0  0  0  0  0  0  0
   -2.9097   22.2442  -31.1239 H   0  0  0  0  0  0  0  0  0  0  0  0
   -3.2318   20.4910  -31.3462 H   0  0  0  0  0  0  0  0  0  0  0  0
   -1.5422   21.1009  -31.3462 H   0  0  0  0  0  0  0  0  0  0  0  0
   -5.3570   19.0060  -33.4930 C   0  0  0  0  0  0  0  0  0  0  0  0
   -4.4970   17.9480  -34.1270 C   0  0  0  0  0  0  0  0  0  0  0  0
   -4.0115   17.3507  -33.3412 H   0  0  0  0  0  0  0  0  0  0  0  0
   -5.1221   17.2932  -34.7518 H   0  0  0  0  0  0  0  0  0  0  0  0
   -3.7283   18.4262  -34.7518 H   0  0  0  0  0  0  0  0  0  0  0  0
  1  2  1  0
  2  3  2  0
  3  4  1  0
  3  5  1  0
  5  6  1  0
  6  7  2  0
  6  8  2  0
  6  9  1  0
  9 10  2  0
 10 11  1  0
 11 12  1  0
 12 13  1  0
 13 14  1  0
 13 15  2  0
 15 16  1  0
  5 17  2  0
 17 18  1  0
 17 19  1  0
 19 20  1  0
 20 21  1  0
 21 22  1  0
 21 23  1  0
 21 24  1  0
 24 25  1  0
 24 26  1  0
 24 27  1  0
 19 28  2  0
 28 29  1  0
 29 30  1  0
 29 31  1  0
 29 32  1  0
 28  2  1  0
 15 10  1  0
M  CHG  2  11  -1  13   1
M  END
>  <UniqueID>  (20) 
19

>  <SMILES>  (20) 
CCOc1cc(S(=O)(=O)/N=c2/c[nH+]o[n-]2)c(Cl)cc1C

>  <Energy>  (20) 
70.01404741352347

>  <Genealogy>  (20) 
CCOc1cc(S(=O)(=O)N=c2c[nH+]o[n-]2)c(Cl)cc1C (protonated)
CCOc1cc(S(=O)(=O)/N=c2/c[nH+]o[n-]2)c(Cl)cc1C (cis-trans isomerization)
CCOc1cc(S(=O)(=O)/N=c2/c[nH+]o[n-]2)c(Cl)cc1C (3D coordinates assigned)
CCOc1cc(S(=O)(=O)/N=c2/c[nH+]o[n-]2)c(Cl)cc1C (optimized conformer: 70.01404741352347 kcal/mol)

>  <smiles>  (20) 
CCOc1cc(S(=O)(=O)N=c2cno[nH]2)c(Cl)cc1C

>  <score_type>  (20) 
oracle

>  <origin>  (20) 
adg

>  <m_score__min__energy>  (20) 
-8.7899999999999991

>  <m_primary>  (20) 
energy

$$$$
20:0
     RDKit          3D

 33 35  0  0  0  0  0  0  0  0999 V2000
   -8.0632   24.1726  -30.3452 H   0  0  0  0  0  0  0  0  0  0  0  0
   -7.3620   23.4860  -30.8420 C   0  0  0  0  0  0  0  0  0  0  0  0
   -7.6740   22.2870  -31.2980 O   0  0  0  0  0  0  0  0  0  0  0  0
   -6.5910   21.7690  -31.8270 C   0  0  0  0  0  0  0  0  0  0  0  0
   -6.4390   20.5230  -32.4280 C   0  0  0  0  0  0  0  0  0  0  0  0
   -7.9120   19.3130  -32.5700 Br  0  0  0  0  0  0  0  0  0  0  0  0
   -5.2070   20.1840  -32.9130 N   0  0  0  0  0  0  0  0  0  0  0  0
   -5.0800   19.2510  -33.3660 H   0  0  0  0  0  0  0  0  0  0  0  0
   -4.1340   21.0330  -32.8190 C   0  0  0  0  0  0  0  0  0  0  0  0
   -2.5720   20.5470  -33.4530 Cl  0  0  0  0  0  0  0  0  0  0  0  0
   -4.2750   22.2970  -32.2130 C   0  0  0  0  0  0  0  0  0  0  0  0
   -3.4250   22.9899  -32.1272 H   0  0  0  0  0  0  0  0  0  0  0  0
   -5.5370   22.6320  -31.7270 C   0  0  0  0  0  0  0  0  0  0  0  0
   -6.0160   23.7560  -31.0810 C   0  0  0  0  0  0  0  0  0  0  0  0
   -5.2930   25.0020  -30.7540 C   0  0  0  0  0  0  0  0  0  0  0  0
   -5.9430   26.0280  -30.4220 O   0  0  0  0  0  0  0  0  0  0  0  0
   -3.8610   25.0510  -30.7160 N   0  0  0  0  0  0  0  0  0  0  0  0
   -3.1120   24.5330  -29.7880 C   0  0  0  0  0  0  0  0  0  0  0  0
   -2.0110   25.1600  -29.3230 N   0  0  0  0  0  0  0  0  0  0  0  0
   -1.3660   24.4210  -28.3800 C   0  0  0  0  0  0  0  0  0  0  0  0
   -0.1210   24.9190  -27.7170 C   0  0  0  0  0  0  0  0  0  0  0  0
   -0.2426   24.8704  -26.6248 H   0  0  0  0  0  0  0  0  0  0  0  0
    0.7311   24.2925  -28.0193 H   0  0  0  0  0  0  0  0  0  0  0  0
    0.0640   25.9603  -28.0193 H   0  0  0  0  0  0  0  0  0  0  0  0
   -1.9470   23.1760  -28.1140 C   0  0  0  0  0  0  0  0  0  0  0  0
   -1.5020   22.1710  -27.0940 C   0  0  0  0  0  0  0  0  0  0  0  0
   -1.8106   22.5103  -26.0942 H   0  0  0  0  0  0  0  0  0  0  0  0
   -0.4071   22.0772  -27.1440 H   0  0  0  0  0  0  0  0  0  0  0  0
   -2.1240   20.8080  -27.3740 C   0  0  0  0  0  0  0  0  0  0  0  0
   -2.3527   20.3068  -26.4219 H   0  0  0  0  0  0  0  0  0  0  0  0
   -3.0512   20.9396  -27.9511 H   0  0  0  0  0  0  0  0  0  0  0  0
   -1.4170   20.1939  -27.9511 H   0  0  0  0  0  0  0  0  0  0  0  0
   -3.3220   23.0180  -29.0700 S   0  0  0  0  0  0  0  0  0  0  0  0
  1  2  1  0
  2  3  1  0
  3  4  1  0
  4  5  2  0
  5  6  1  0
  5  7  1  0
  7  8  1  0
  7  9  2  0
  9 10  1  0
  9 11  1  0
 11 12  1  0
 11 13  2  0
 13 14  1  0
 14 15  1  0
 15 16  2  0
 15 17  1  0
 17 18  2  0
 18 19  1  0
 19 20  1  0
 20 21  1  0
 21 22  1  0
 21 23  1  0
 21 24  1  0
 20 25  2  0
 25 26  1  0
 26 27  1  0
 26 28  1  0
 26 29  1  0
 29 30  1  0
 29 31  1  0
 29 32  1  0
 25 33  1  0
 14  2  2  0
 33 18  1  0
 13  4  1  0
M  CHG  2   7   1  19  -1
M  END
>  <UniqueID>  (21) 
20

>  <SMILES>  (21) 
CCc1s/c(=N\C(=O)c2coc3c(Br)[nH+]c(Cl)cc23)[n-]c1C

>  <Energy>  (21) 
102.66730097845489

>  <Genealogy>  (21) 
CCc1sc(=NC(=O)c2coc3c(Br)[nH+]c(Cl)cc23)[n-]c1C (protonated)
CCc1s/c(=N\C(=O)c2coc3c(Br)[nH+]c(Cl)cc23)[n-]c1C (cis-trans isomerization)
CCc1s/c(=N\C(=O)c2coc3c(Br)[nH+]c(Cl)cc23)[n-]c1C (3D coordinates assigned)
CCc1s/c(=N\C(=O)c2coc3c(Br)[nH+]c(Cl)cc23)[n-]c1C (optimized conformer: 102.66730097845489 kcal/mol)

>  <smiles>  (21) 
CCc1sc(=NC(=O)c2coc3c(Br)nc(Cl)cc23)[nH]c1C

>  <score_type>  (21) 
oracle

>  <origin>  (21) 
adg

>  <m_score__min__energy>  (21) 
-9.5999999999999996

>  <m_primary>  (21) 
energy

$$$$
21:0
     RDKit          3D

 42 44  0  0  0  0  0  0  0  0999 V2000
   -6.8410   24.0320  -29.7280 C   0  0  0  0  0  0  0  0  0  0  0  0
   -6.6160   24.2440  -31.2250 C   0  0  0  0  0  0  0  0  0  0  0  0
   -5.6690   23.1890  -31.8510 C   0  0  1  0  0  0  0  0  0  0  0  0
   -4.4980   22.9450  -30.9990 N   0  0  0  0  0  0  0  0  0  0  0  0
   -3.7610   24.0020  -30.3650 C   0  0  0  0  0  0  0  0  0  0  0  0
   -3.8710   25.1840  -30.7900 O   0  0  0  0  0  0  0  0  0  0  0  0
   -2.8470   23.7190  -29.2320 C   0  0  0  0  0  0  0  0  0  0  0  0
   -3.1560   22.7180  -28.2890 C   0  0  0  0  0  0  0  0  0  0  0  0
   -2.2950   22.4590  -27.2180 C   0  0  0  0  0  0  0  0  0  0  0  0
   -1.1190   23.1980  -27.0720 C   0  0  0  0  0  0  0  0  0  0  0  0
   -0.2710   22.9570  -26.0360 N   0  0  0  0  0  0  0  0  0  0  0  0
    0.8730   23.6740  -25.8860 C   0  0  0  0  0  0  0  0  0  0  0  0
    1.1870   24.6760  -26.8100 C   0  0  0  0  0  0  0  0  0  0  0  0
    0.3430   24.9210  -27.8460 N   0  0  0  0  0  0  0  0  0  0  0  0
   -0.8030   24.2070  -28.0030 C   0  0  0  0  0  0  0  0  0  0  0  0
   -1.6650   24.4670  -29.0730 C   0  0  0  0  0  0  0  0  0  0  0  0
   -6.3840   21.8720  -32.1660 C   0  0  0  0  0  0  0  0  0  0  0  0
   -7.7640   21.7960  -31.8830 C   0  0  0  0  0  0  0  0  0  0  0  0
   -8.4930   20.6370  -32.1480 C   0  0  0  0  0  0  0  0  0  0  0  0
   -7.8620   19.5290  -32.7030 C   0  0  0  0  0  0  0  0  0  0  0  0
   -6.5030   19.5760  -33.0030 C   0  0  0  0  0  0  0  0  0  0  0  0
   -5.7480   20.7400  -32.7630 C   0  0  0  0  0  0  0  0  0  0  0  0
   -4.2770   20.6910  -33.0910 C   0  0  0  0  0  0  0  0  0  0  0  0
   -6.1558   24.6777  -29.1592 H   0  0  0  0  0  0  0  0  0  0  0  0
   -7.8805   24.2866  -29.4738 H   0  0  0  0  0  0  0  0  0  0  0  0
   -6.6487   22.9792  -29.4738 H   0  0  0  0  0  0  0  0  0  0  0  0
   -7.5882   24.1896  -31.7366 H   0  0  0  0  0  0  0  0  0  0  0  0
   -6.1404   25.2280  -31.3499 H   0  0  0  0  0  0  0  0  0  0  0  0
   -5.3247   23.6128  -32.8059 H   0  0  0  0  0  0  0  0  0  0  0  0
   -4.1010   21.9800  -30.9430 H   0  0  0  0  0  0  0  0  0  0  0  0
   -4.0828   22.1353  -28.3965 H   0  0  0  0  0  0  0  0  0  0  0  0
   -2.5441   21.6728  -26.4901 H   0  0  0  0  0  0  0  0  0  0  0  0
    1.5485   23.4678  -25.0427 H   0  0  0  0  0  0  0  0  0  0  0  0
    2.1113   25.2618  -26.6986 H   0  0  0  0  0  0  0  0  0  0  0  0
   -1.4182   25.2601  -29.7942 H   0  0  0  0  0  0  0  0  0  0  0  0
   -8.2743   22.6667  -31.4454 H   0  0  0  0  0  0  0  0  0  0  0  0
   -9.5680   20.5992  -31.9178 H   0  0  0  0  0  0  0  0  0  0  0  0
   -8.4375   18.6137  -32.9054 H   0  0  0  0  0  0  0  0  0  0  0  0
   -6.0121   18.6908  -33.4338 H   0  0  0  0  0  0  0  0  0  0  0  0
   -3.6939   20.6716  -32.1585 H   0  0  0  0  0  0  0  0  0  0  0  0
   -4.0619   19.7852  -33.6769 H   0  0  0  0  0  0  0  0  0  0  0  0
   -4.0021   21.5805  -33.6769 H   0  0  0  0  0  0  0  0  0  0  0  0
  1  2  1  0
  2  3  1  0
  3  4  1  0
  4  5  1  0
  5  6  2  0
  5  7  1  0
  7  8  2  0
  8  9  1  0
  9 10  2  0
 10 11  1  0
 11 12  2  0
 12 13  1  0
 13 14  2  0
 14 15  1  0
 15 16  2  0
  3 17  1  0
 17 18  2  0
 18 19  1  0
 19 20  2  0
 20 21  1  0
 21 22  2  0
 22 23  1  0
 16  7  1  0
 22 17  1  0
 15 10  1  0
  1 24  1  0
  1 25  1  0
  1 26  1  0
  2 27  1  0
  2 28  1  0
  3 29  1  6
  4 30  1  0
  8 31  1  0
  9 32  1  0
 12 33  1  0
 13 34  1  0
 16 35  1  0
 18 36  1  0
 19 37  1  0
 20 38  1  0
 21 39  1  0
 23 40  1  0
 23 41  1  0
 23 42  1  0
M  END
>  <UniqueID>  (22) 
21

>  <SMILES>  (22) 
CC[C@@H](NC(=O)c1ccc2nccnc2c1)c1ccccc1C

>  <Energy>  (22) 
52.780376916053285

>  <Genealogy>  (22) 
CC[C@@H](NC(=O)c1ccc2nccnc2c1)c1ccccc1C (chirality)
CC[C@@H](NC(=O)c1ccc2nccnc2c1)c1ccccc1C (3D coordinates assigned)
CC[C@@H](NC(=O)c1ccc2nccnc2c1)c1ccccc1C (optimized conformer: 52.780376916053285 kcal/mol)

>  <smiles>  (22) 
CCC(NC(=O)c1ccc2nccnc2c1)c1ccccc1C

>  <score_type>  (22) 
oracle

>  <origin>  (22) 
adg

>  <m_score__min__energy>  (22) 
-8.6699999999999999

>  <m_primary>  (22) 
energy

$$$$
22:0
     RDKit          3D

 45 48  0  0  0  0  0  0  0  0999 V2000
   -5.0550   16.4910  -33.8370 C   0  0  0  0  0  0  0  0  0  0  0  0
   -5.9640   17.3090  -34.5150 C   0  0  0  0  0  0  0  0  0  0  0  0
   -6.8350   18.1350  -33.7980 C   0  0  0  0  0  0  0  0  0  0  0  0
   -6.8060   18.1410  -32.3920 C   0  0  0  0  0  0  0  0  0  0  0  0
   -7.7150   19.0660  -31.6200 C   0  0  0  0  0  0  0  0  0  0  0  0
   -7.7730   20.4700  -32.2660 C   0  0  2  0  0  0  0  0  0  0  0  0
   -6.4020   20.9550  -32.7800 C   0  0  0  0  0  0  0  0  0  0  0  0
   -5.5520   21.3480  -31.6520 N   0  0  0  0  0  0  0  0  0  0  0  0
   -4.3790   20.5240  -31.3210 C   0  0  0  0  0  0  0  0  0  0  0  0
   -3.5090   20.3380  -32.5260 C   0  0  0  0  0  0  0  0  0  0  0  0
   -2.8190   21.3260  -33.1930 C   0  0  0  0  0  0  0  0  0  0  0  0
   -2.1830   20.7580  -34.2270 N   0  0  0  0  0  0  0  0  0  0  0  0
   -2.4910   19.4480  -34.1640 C   0  0  0  0  0  0  0  0  0  0  0  0
   -3.3060   19.1490  -33.1300 N   0  0  0  0  0  0  0  0  0  0  0  0
   -5.7380   22.6450  -31.0380 C   0  0  0  0  0  0  0  0  0  0  0  0
   -4.6760   23.2320  -30.3220 C   0  0  0  0  0  0  0  0  0  0  0  0
   -4.8250   24.4820  -29.7170 C   0  0  0  0  0  0  0  0  0  0  0  0
   -6.0380   25.1590  -29.8040 C   0  0  0  0  0  0  0  0  0  0  0  0
   -7.1080   24.5900  -30.4940 C   0  0  0  0  0  0  0  0  0  0  0  0
   -6.9750   23.3420  -31.1280 C   0  0  0  0  0  0  0  0  0  0  0  0
   -8.1930   22.7540  -31.8090 C   0  0  0  0  0  0  0  0  0  0  0  0
   -8.4140   21.4120  -31.4150 O   0  0  0  0  0  0  0  0  0  0  0  0
   -5.8900   17.3170  -31.7180 C   0  0  0  0  0  0  0  0  0  0  0  0
   -5.0200   16.4950  -32.4400 C   0  0  0  0  0  0  0  0  0  0  0  0
   -4.3679   15.8448  -34.4029 H   0  0  0  0  0  0  0  0  0  0  0  0
   -5.9939   17.3027  -35.6146 H   0  0  0  0  0  0  0  0  0  0  0  0
   -7.5446   18.7817  -34.3349 H   0  0  0  0  0  0  0  0  0  0  0  0
   -8.7284   18.6385  -31.6016 H   0  0  0  0  0  0  0  0  0  0  0  0
   -7.3165   19.1707  -30.6001 H   0  0  0  0  0  0  0  0  0  0  0  0
   -8.3996   20.3791  -33.1655 H   0  0  0  0  0  0  0  0  0  0  0  0
   -5.9140   20.1420  -33.3375 H   0  0  0  0  0  0  0  0  0  0  0  0
   -6.5508   21.8233  -33.4387 H   0  0  0  0  0  0  0  0  0  0  0  0
   -3.7992   21.0217  -30.5297 H   0  0  0  0  0  0  0  0  0  0  0  0
   -4.7239   19.5378  -30.9767 H   0  0  0  0  0  0  0  0  0  0  0  0
   -2.7943   22.3925  -32.9246 H   0  0  0  0  0  0  0  0  0  0  0  0
   -1.5720   21.2290  -34.9310 H   0  0  0  0  0  0  0  0  0  0  0  0
   -2.1178   18.7007  -34.8797 H   0  0  0  0  0  0  0  0  0  0  0  0
   -3.7174   22.6991  -30.2384 H   0  0  0  0  0  0  0  0  0  0  0  0
   -3.9827   24.9320  -29.1711 H   0  0  0  0  0  0  0  0  0  0  0  0
   -6.1528   26.1440  -29.3280 H   0  0  0  0  0  0  0  0  0  0  0  0
   -8.0683   25.1243  -30.5429 H   0  0  0  0  0  0  0  0  0  0  0  0
   -9.0755   23.3542  -31.5424 H   0  0  0  0  0  0  0  0  0  0  0  0
   -8.0206   22.7695  -32.8953 H   0  0  0  0  0  0  0  0  0  0  0  0
   -5.8571   17.3185  -30.6185 H   0  0  0  0  0  0  0  0  0  0  0  0
   -4.3061   15.8497  -31.9072 H   0  0  0  0  0  0  0  0  0  0  0  0
  1  2  2  0
  2  3  1  0
  3  4  2  0
  4  5  1  0
  5  6  1  0
  6  7  1  0
  7  8  1  0
  8  9  1  0
  9 10  1  0
 10 11  2  0
 11 12  1  0
 12 13  1  0
 13 14  2  0
  8 15  1  0
 15 16  2  0
 16 17  1  0
 17 18  2  0
 18 19  1  0
 19 20  2  0
 20 21  1  0
 21 22  1  0
  4 23  1  0
 23 24  2  0
 24  1  1  0
 22  6  1  0
 14 10  1  0
 20 15  1  0
  1 25  1  0
  2 26  1  0
  3 27  1  0
  5 28  1  0
  5 29  1  0
  6 30  1  6
  7 31  1  0
  7 32  1  0
  9 33  1  0
  9 34  1  0
 11 35  1  0
 12 36  1  0
 13 37  1  0
 16 38  1  0
 17 39  1  0
 18 40  1  0
 19 41  1  0
 21 42  1  0
 21 43  1  0
 23 44  1  0
 24 45  1  0
M  END
>  <UniqueID>  (23) 
22

>  <SMILES>  (23) 
c1ccc(C[C@@H]2CN(Cc3c[nH]cn3)c3ccccc3CO2)cc1

>  <Energy>  (23) 
87.21726698247022

>  <Genealogy>  (23) 
c1ccc(C[C@@H]2CN(Cc3c[nH]cn3)c3ccccc3CO2)cc1 (chirality)
c1ccc(C[C@@H]2CN(Cc3c[nH]cn3)c3ccccc3CO2)cc1 (3D coordinates assigned)
c1ccc(C[C@@H]2CN(Cc3c[nH]cn3)c3ccccc3CO2)cc1 (nonaromatic ring conformer: 87.21726698247022 kcal/mol)

>  <smiles>  (23) 
c1ccc(CC2CN(Cc3c[nH]cn3)c3ccccc3CO2)cc1

>  <score_type>  (23) 
oracle

>  <origin>  (23) 
adg

>  <m_score__min__energy>  (23) 
-6.5099999999999998

>  <m_primary>  (23) 
energy

$$$$
23:0
     RDKit          3D

 34 36  0  0  0  0  0  0  0  0999 V2000
   -6.3830   24.9840  -29.7200 C   0  0  0  0  0  0  0  0  0  0  0  0
   -5.3980   24.7130  -30.8580 C   0  0  0  0  0  0  0  0  0  0  0  0
   -4.9090   23.2520  -30.8830 C   0  0  0  0  0  0  0  0  0  0  0  0
   -4.7730   22.6700  -32.2990 C   0  0  0  0  0  0  0  0  0  0  0  0
   -5.7100   21.5650  -32.5300 N   0  0  0  0  0  0  0  0  0  0  0  0
   -7.0480   21.5400  -32.2930 C   0  0  0  0  0  0  0  0  0  0  0  0
   -7.8580   22.5590  -31.7800 C   0  0  0  0  0  0  0  0  0  0  0  0
   -9.2290   22.2950  -31.6050 C   0  0  0  0  0  0  0  0  0  0  0  0
   -9.7660   21.0330  -31.9390 C   0  0  0  0  0  0  0  0  0  0  0  0
   -8.9380   20.0190  -32.4500 C   0  0  0  0  0  0  0  0  0  0  0  0
   -7.5850   20.3070  -32.6150 C   0  0  0  0  0  0  0  0  0  0  0  0
   -6.5420   19.5360  -33.0730 C   0  0  0  0  0  0  0  0  0  0  0  0
   -6.4970   18.2180  -33.5270 C   0  0  0  0  0  0  0  0  0  0  0  0
   -5.2520   17.7080  -33.9310 C   0  0  0  0  0  0  0  0  0  0  0  0
   -4.0930   18.5140  -33.8750 C   0  0  0  0  0  0  0  0  0  0  0  0
   -4.1670   19.8400  -33.4110 C   0  0  0  0  0  0  0  0  0  0  0  0
   -5.4140   20.3300  -33.0100 C   0  0  0  0  0  0  0  0  0  0  0  0
   -5.8751   24.8443  -28.7543 H   0  0  0  0  0  0  0  0  0  0  0  0
   -6.7530   26.0173  -29.7935 H   0  0  0  0  0  0  0  0  0  0  0  0
   -7.2295   24.2854  -29.7935 H   0  0  0  0  0  0  0  0  0  0  0  0
   -5.8947   24.9347  -31.8141 H   0  0  0  0  0  0  0  0  0  0  0  0
   -4.5196   25.3557  -30.6985 H   0  0  0  0  0  0  0  0  0  0  0  0
   -3.9252   23.2067  -30.3930 H   0  0  0  0  0  0  0  0  0  0  0  0
   -5.6668   22.6504  -30.3597 H   0  0  0  0  0  0  0  0  0  0  0  0
   -4.9745   23.4658  -33.0312 H   0  0  0  0  0  0  0  0  0  0  0  0
   -3.7510   22.2783  -32.4093 H   0  0  0  0  0  0  0  0  0  0  0  0
   -7.4343   23.5404  -31.5204 H   0  0  0  0  0  0  0  0  0  0  0  0
   -9.8882   23.0791  -31.2043 H   0  0  0  0  0  0  0  0  0  0  0  0
  -10.8401   20.8419  -31.7983 H   0  0  0  0  0  0  0  0  0  0  0  0
   -9.3447   19.0308  -32.7110 H   0  0  0  0  0  0  0  0  0  0  0  0
   -7.4054   17.5990  -33.5673 H   0  0  0  0  0  0  0  0  0  0  0  0
   -5.1789   16.6722  -34.2941 H   0  0  0  0  0  0  0  0  0  0  0  0
   -3.1253   18.1015  -34.1967 H   0  0  0  0  0  0  0  0  0  0  0  0
   -3.2691   20.4738  -33.3649 H   0  0  0  0  0  0  0  0  0  0  0  0
  1  2  1  0
  2  3  1  0
  3  4  1  0
  4  5  1  0
  5  6  1  0
  6  7  2  0
  7  8  1  0
  8  9  2  0
  9 10  1  0
 10 11  2  0
 11 12  1  0
 12 13  2  0
 13 14  1  0
 14 15  2  0
 15 16  1  0
 16 17  2  0
 17  5  1  0
 11  6  1  0
 17 12  1  0
  1 18  1  0
  1 19  1  0
  1 20  1  0
  2 21  1  0
  2 22  1  0
  3 23  1  0
  3 24  1  0
  4 25  1  0
  4 26  1  0
  7 27  1  0
  8 28  1  0
  9 29  1  0
 10 30  1  0
 13 31  1  0
 14 32  1  0
 15 33  1  0
 16 34  1  0
M  END
>  <UniqueID>  (24) 
23

>  <SMILES>  (24) 
CCCCn1c2ccccc2c2ccccc21

>  <Energy>  (24) 
72.41892524519342

>  <Genealogy>  (24) 
CCCCn1c2ccccc2c2ccccc21 (3D coordinates assigned)
CCCCn1c2ccccc2c2ccccc21 (optimized conformer: 72.41892524519342 kcal/mol)

>  <smiles>  (24) 
CCCCn1c2ccccc2c2ccccc21

>  <score_type>  (24) 
oracle

>  <origin>  (24) 
adg

>  <m_score__min__energy>  (24) 
-7.2800000000000002

>  <m_primary>  (24) 
energy

$$$$
24:0
     RDKit          3D

 43 45  0  0  0  0  0  0  0  0999 V2000
   -3.1720   16.5680  -33.7120 C   0  0  0  0  0  0  0  0  0  0  0  0
   -3.5040   17.7530  -34.6170 C   0  0  0  0  0  0  0  0  0  0  0  0
   -4.2620   18.8270  -33.8570 C   0  0  0  0  0  0  0  0  0  0  0  0
   -3.5850   19.9710  -33.3280 C   0  0  0  0  0  0  0  0  0  0  0  0
   -2.0970   20.1410  -33.4340 C   0  0  0  0  0  0  0  0  0  0  0  0
   -4.2850   20.9360  -32.6660 N   0  0  0  0  0  0  0  0  0  0  0  0
   -5.6240   20.8140  -32.5280 C   0  0  0  0  0  0  0  0  0  0  0  0
   -6.4930   21.6600  -31.8750 C   0  0  0  0  0  0  0  0  0  0  0  0
   -6.1750   22.9370  -31.1950 C   0  0  0  0  0  0  0  0  0  0  0  0
   -7.2010   23.7780  -30.7350 C   0  0  0  0  0  0  0  0  0  0  0  0
   -6.8920   24.9760  -30.0860 C   0  0  0  0  0  0  0  0  0  0  0  0
   -5.5610   25.3420  -29.8840 C   0  0  0  0  0  0  0  0  0  0  0  0
   -4.5230   24.5150  -30.3260 C   0  0  0  0  0  0  0  0  0  0  0  0
   -3.2000   24.9250  -30.0960 O   0  0  0  0  0  0  0  0  0  0  0  0
   -2.2600   24.2040  -29.3070 C   0  0  0  0  0  0  0  0  0  0  0  0
   -4.8360   23.3090  -30.9840 C   0  0  0  0  0  0  0  0  0  0  0  0
   -7.7270   21.0200  -32.0240 C   0  0  0  0  0  0  0  0  0  0  0  0
   -9.0540   21.4950  -31.5250 C   0  0  0  0  0  0  0  0  0  0  0  0
   -7.5710   19.8610  -32.7090 N   0  0  0  0  0  0  0  0  0  0  0  0
   -6.2860   19.7580  -33.0070 N   0  0  0  0  0  0  0  0  0  0  0  0
   -5.6740   18.7470  -33.6830 C   0  0  0  0  0  0  0  0  0  0  0  0
   -6.4770   17.5650  -34.1660 C   0  0  0  0  0  0  0  0  0  0  0  0
   -3.2581   16.8752  -32.6593 H   0  0  0  0  0  0  0  0  0  0  0  0
   -3.8743   15.7454  -33.9125 H   0  0  0  0  0  0  0  0  0  0  0  0
   -2.1446   16.2300  -33.9125 H   0  0  0  0  0  0  0  0  0  0  0  0
   -2.5683   18.1810  -35.0060 H   0  0  0  0  0  0  0  0  0  0  0  0
   -4.1383   17.3954  -35.4415 H   0  0  0  0  0  0  0  0  0  0  0  0
   -1.6609   20.1908  -32.4254 H   0  0  0  0  0  0  0  0  0  0  0  0
   -1.6680   19.2860  -33.9771 H   0  0  0  0  0  0  0  0  0  0  0  0
   -1.8719   21.0707  -33.9771 H   0  0  0  0  0  0  0  0  0  0  0  0
   -8.2525   23.4924  -30.8863 H   0  0  0  0  0  0  0  0  0  0  0  0
   -7.7008   25.6328  -29.7331 H   0  0  0  0  0  0  0  0  0  0  0  0
   -5.3261   26.2876  -29.3735 H   0  0  0  0  0  0  0  0  0  0  0  0
   -2.4740   24.3681  -28.2406 H   0  0  0  0  0  0  0  0  0  0  0  0
   -2.3364   23.1307  -29.5353 H   0  0  0  0  0  0  0  0  0  0  0  0
   -1.2432   24.5560  -29.5353 H   0  0  0  0  0  0  0  0  0  0  0  0
   -4.0258   22.6532  -31.3355 H   0  0  0  0  0  0  0  0  0  0  0  0
   -9.0536   21.4948  -30.4250 H   0  0  0  0  0  0  0  0  0  0  0  0
   -9.2397   22.5154  -31.8914 H   0  0  0  0  0  0  0  0  0  0  0  0
   -9.8450   20.8242  -31.8914 H   0  0  0  0  0  0  0  0  0  0  0  0
   -6.8588   17.0030  -33.3009 H   0  0  0  0  0  0  0  0  0  0  0  0
   -7.3218   17.9197  -34.7747 H   0  0  0  0  0  0  0  0  0  0  0  0
   -5.8360   16.9103  -34.7747 H   0  0  0  0  0  0  0  0  0  0  0  0
  1  2  1  0
  2  3  1  0
  3  4  1  0
  4  5  1  0
  4  6  2  0
  6  7  1  0
  7  8  2  0
  8  9  1  0
  9 10  2  0
 10 11  1  0
 11 12  2  0
 12 13  1  0
 13 14  1  0
 14 15  1  0
 13 16  2  0
  8 17  1  0
 17 18  1  0
 17 19  2  0
 19 20  1  0
 20 21  1  0
 21 22  1  0
 21  3  2  0
 20  7  1  0
 16  9  1  0
  1 23  1  0
  1 24  1  0
  1 25  1  0
  2 26  1  0
  2 27  1  0
  5 28  1  0
  5 29  1  0
  5 30  1  0
 10 31  1  0
 11 32  1  0
 12 33  1  0
 15 34  1  0
 15 35  1  0
 15 36  1  0
 16 37  1  0
 18 38  1  0
 18 39  1  0
 18 40  1  0
 22 41  1  0
 22 42  1  0
 22 43  1  0
M  END
>  <UniqueID>  (25) 
24

>  <SMILES>  (25) 
CCc1c(C)nc2c(-c3cccc(OC)c3)c(C)nn2c1C

>  <Energy>  (25) 
83.53643170059527

>  <Genealogy>  (25) 
CCc1c(C)nc2c(-c3cccc(OC)c3)c(C)nn2c1C (3D coordinates assigned)
CCc1c(C)nc2c(-c3cccc(OC)c3)c(C)nn2c1C (optimized conformer: 83.53643170059527 kcal/mol)

>  <smiles>  (25) 
CCc1c(C)nc2c(-c3cccc(OC)c3)c(C)nn2c1C

>  <score_type>  (25) 
oracle

>  <origin>  (25) 
adg

>  <m_score__min__energy>  (25) 
-8.8000000000000007

>  <m_primary>  (25) 
energy

$$$$
25:0
     RDKit          3D

 60 65  0  0  0  0  0  0  0  0999 V2000
   -1.6360   19.1200  -33.9140 C   0  0  0  0  0  0  0  0  0  0  0  0
   -2.8650   19.8350  -33.8540 O   0  0  0  0  0  0  0  0  0  0  0  0
   -3.1310   20.8740  -32.9490 C   0  0  0  0  0  0  0  0  0  0  0  0
   -4.3380   21.5980  -33.0980 C   0  0  0  0  0  0  0  0  0  0  0  0
   -4.6620   22.6490  -32.2190 C   0  0  0  0  0  0  0  0  0  0  0  0
   -5.8330   23.3910  -32.3890 O   0  0  0  0  0  0  0  0  0  0  0  0
   -6.8530   23.4180  -31.3930 C   0  0  0  0  0  0  0  0  0  0  0  0
   -7.7140   22.1890  -31.5080 C   0  0  0  0  0  0  0  0  0  0  0  0
   -9.0620   22.3060  -31.8830 C   0  0  0  0  0  0  0  0  0  0  0  0
   -9.8290   21.1600  -32.1130 C   0  0  0  0  0  0  0  0  0  0  0  0
   -9.2480   19.8950  -32.0020 C   0  0  0  0  0  0  0  0  0  0  0  0
   -7.9000   19.7610  -31.6540 C   0  0  0  0  0  0  0  0  0  0  0  0
   -7.3470   18.4730  -31.6230 O   0  0  0  0  0  0  0  0  0  0  0  0
   -7.5840   17.4710  -32.6060 C   0  0  0  0  0  0  0  0  0  0  0  0
   -6.3000   17.1790  -33.3290 C   0  0  0  0  0  0  0  0  0  0  0  0
   -5.6300   15.9640  -33.1030 C   0  0  0  0  0  0  0  0  0  0  0  0
   -4.4570   15.6660  -33.8050 C   0  0  0  0  0  0  0  0  0  0  0  0
   -3.9540   16.5680  -34.7450 C   0  0  0  0  0  0  0  0  0  0  0  0
   -4.6230   17.7700  -34.9880 C   0  0  0  0  0  0  0  0  0  0  0  0
   -5.7960   18.0750  -34.2890 C   0  0  0  0  0  0  0  0  0  0  0  0
   -6.4380   19.2410  -34.5500 F   0  0  0  0  0  0  0  0  0  0  0  0
   -7.1430   20.9140  -31.3750 C   0  0  0  0  0  0  0  0  0  0  0  0
   -3.7660   22.9370  -31.1920 C   0  0  0  0  0  0  0  0  0  0  0  0
   -3.7880   23.9060  -30.2160 C   0  0  0  0  0  0  0  0  0  0  0  0
   -2.5760   23.7530  -29.5500 C   0  0  0  0  0  0  0  0  0  0  0  0
   -2.0890   24.5950  -28.4510 C   0  0  0  0  0  0  0  0  0  0  0  0
   -2.4130   24.4340  -27.0990 C   0  0  0  0  0  0  0  0  0  0  0  0
   -1.8010   25.4460  -26.4860 N   0  0  0  0  0  0  0  0  0  0  0  0
   -1.7580   25.8810  -25.2380 N   0  0  0  0  0  0  0  0  0  0  0  0
   -1.0120   27.0220  -25.1930 C   0  0  0  0  0  0  0  0  0  0  0  0
   -0.7640   27.7380  -24.0210 O   0  0  0  0  0  0  0  0  0  0  0  0
   -0.1350   27.1490  -22.8910 C   0  0  0  0  0  0  0  0  0  0  0  0
   -0.4120   27.4990  -26.7360 S   0  0  0  0  0  0  0  0  0  0  0  0
   -1.1690   26.1540  -27.3900 C   0  0  0  0  0  0  0  0  0  0  0  0
   -1.3010   25.6950  -28.6470 N   0  0  0  0  0  0  0  0  0  0  0  0
   -1.8830   22.7540  -30.0650 O   0  0  0  0  0  0  0  0  0  0  0  0
   -2.5840   22.2600  -31.0560 C   0  0  0  0  0  0  0  0  0  0  0  0
   -2.2330   21.2170  -31.9080 C   0  0  0  0  0  0  0  0  0  0  0  0
   -1.2816   18.9138  -32.8933 H   0  0  0  0  0  0  0  0  0  0  0  0
   -1.7899   18.1704  -34.4475 H   0  0  0  0  0  0  0  0  0  0  0  0
   -0.8866   19.7231  -34.4475 H   0  0  0  0  0  0  0  0  0  0  0  0
   -5.0316   21.3363  -33.9107 H   0  0  0  0  0  0  0  0  0  0  0  0
   -6.3887   23.4461  -30.3962 H   0  0  0  0  0  0  0  0  0  0  0  0
   -7.4770   24.3122  -31.5379 H   0  0  0  0  0  0  0  0  0  0  0  0
   -9.5156   23.3017  -31.9961 H   0  0  0  0  0  0  0  0  0  0  0  0
  -10.8914   21.2549  -32.3817 H   0  0  0  0  0  0  0  0  0  0  0  0
   -9.8551   18.9971  -32.1897 H   0  0  0  0  0  0  0  0  0  0  0  0
   -7.9486   16.5551  -32.1180 H   0  0  0  0  0  0  0  0  0  0  0  0
   -8.3403   17.8253  -33.3218 H   0  0  0  0  0  0  0  0  0  0  0  0
   -6.0292   15.2454  -32.3720 H   0  0  0  0  0  0  0  0  0  0  0  0
   -3.9299   14.7192  -33.6161 H   0  0  0  0  0  0  0  0  0  0  0  0
   -3.0307   16.3319  -35.2943 H   0  0  0  0  0  0  0  0  0  0  0  0
   -4.2267   18.4783  -35.7305 H   0  0  0  0  0  0  0  0  0  0  0  0
   -6.0966   20.8152  -31.0505 H   0  0  0  0  0  0  0  0  0  0  0  0
   -4.5838   24.6366  -30.0089 H   0  0  0  0  0  0  0  0  0  0  0  0
   -3.0339   23.6479  -26.6445 H   0  0  0  0  0  0  0  0  0  0  0  0
   -0.5747   27.5607  -21.9706 H   0  0  0  0  0  0  0  0  0  0  0  0
   -0.2856   26.0596  -22.9139 H   0  0  0  0  0  0  0  0  0  0  0  0
    0.9422   27.3708  -22.9139 H   0  0  0  0  0  0  0  0  0  0  0  0
   -1.2852   20.6743  -31.7770 H   0  0  0  0  0  0  0  0  0  0  0  0
  1  2  1  0
  2  3  1  0
  3  4  2  0
  4  5  1  0
  5  6  1  0
  6  7  1  0
  7  8  1  0
  8  9  2  0
  9 10  1  0
 10 11  2  0
 11 12  1  0
 12 13  1  0
 13 14  1  0
 14 15  1  0
 15 16  2  0
 16 17  1  0
 17 18  2  0
 18 19  1  0
 19 20  2  0
 20 21  1  0
 12 22  2  0
  5 23  2  0
 23 24  1  0
 24 25  2  0
 25 26  1  0
 26 27  2  0
 27 28  1  0
 28 29  1  0
 29 30  2  0
 30 31  1  0
 31 32  1  0
 30 33  1  0
 33 34  1  0
 34 35  2  0
 25 36  1  0
 36 37  1  0
 37 38  2  0
 38  3  1  0
 22  8  1  0
 37 23  1  0
 20 15  1  0
 35 26  1  0
 34 28  1  0
  1 39  1  0
  1 40  1  0
  1 41  1  0
  4 42  1  0
  7 43  1  0
  7 44  1  0
  9 45  1  0
 10 46  1  0
 11 47  1  0
 14 48  1  0
 14 49  1  0
 16 50  1  0
 17 51  1  0
 18 52  1  0
 19 53  1  0
 22 54  1  0
 24 55  1  0
 27 56  1  0
 32 57  1  0
 32 58  1  0
 32 59  1  0
 38 60  1  0
M  END
>  <UniqueID>  (26) 
25

>  <SMILES>  (26) 
COc1cc(OCc2cccc(OCc3ccccc3F)c2)c2cc(-c3cn4nc(OC)sc4n3)oc2c1

>  <Energy>  (26) 
183.0446814626414

>  <Genealogy>  (26) 
COc1cc(OCc2cccc(OCc3ccccc3F)c2)c2cc(-c3cn4nc(OC)sc4n3)oc2c1 (3D coordinates assigned)
COc1cc(OCc2cccc(OCc3ccccc3F)c2)c2cc(-c3cn4nc(OC)sc4n3)oc2c1 (optimized conformer: 183.0446814626414 kcal/mol)

>  <smiles>  (26) 
COc1cc(OCc2cccc(OCc3ccccc3F)c2)c2cc(-c3cn4nc(OC)sc4n3)oc2c1

>  <score_type>  (26) 
oracle

>  <origin>  (26) 
adg

>  <m_score__min__energy>  (26) 
-9.5099999999999998

>  <m_primary>  (26) 
energy

$$$$
26:0
     RDKit          3D

 44 45  0  0  0  0  0  0  0  0999 V2000
   -3.9320   24.1920  -27.3660 C   0  0  0  0  0  0  0  0  0  0  0  0
   -2.4720   24.1700  -27.8180 C   0  0  0  0  0  0  0  0  0  0  0  0
   -2.3160   24.5440  -29.2980 C   0  0  0  0  0  0  0  0  0  0  0  0
   -3.3610   23.9270  -30.1160 N   0  0  0  0  0  0  0  0  0  0  0  0
   -4.3830   24.6140  -30.6090 N   0  0  0  0  0  0  0  0  0  0  0  0
   -5.1990   23.7440  -31.2340 C   0  0  0  0  0  0  0  0  0  0  0  0
   -6.4590   24.1460  -31.9280 C   0  0  0  0  0  0  0  0  0  0  0  0
   -4.6910   22.4600  -31.1180 C   0  0  0  0  0  0  0  0  0  0  0  0
   -5.3070   21.1850  -31.6320 C   0  0  0  0  0  0  0  0  0  0  0  0
   -5.0750   20.9980  -33.0730 N   0  0  0  0  0  0  0  0  0  0  0  0
   -5.9940   20.0350  -33.7060 C   0  0  0  0  0  0  0  0  0  0  0  0
   -6.6280   19.0940  -32.7130 C   0  0  0  0  0  0  0  0  0  0  0  0
   -5.9840   18.0890  -32.0960 N   0  0  0  0  0  0  0  0  0  0  0  0
   -6.8540   17.5480  -31.2560 N   0  0  0  0  0  0  0  0  0  0  0  0
   -8.0060   18.2000  -31.3410 N   0  0  0  0  0  0  0  0  0  0  0  0
   -7.8900   19.1620  -32.2430 N   0  0  0  0  0  0  0  0  0  0  0  0
   -8.9380   20.1340  -32.5490 C   0  0  0  0  0  0  0  0  0  0  0  0
   -8.8550   21.3240  -31.6000 C   0  0  0  0  0  0  0  0  0  0  0  0
   -3.5020   22.6170  -30.4250 C   0  0  0  0  0  0  0  0  0  0  0  0
   -2.5820   21.5140  -29.9880 C   0  0  0  0  0  0  0  0  0  0  0  0
   -3.9756   24.1927  -26.2669 H   0  0  0  0  0  0  0  0  0  0  0  0
   -4.4220   25.0976  -27.7529 H   0  0  0  0  0  0  0  0  0  0  0  0
   -4.4491   23.3015  -27.7529 H   0  0  0  0  0  0  0  0  0  0  0  0
   -1.9023   24.8878  -27.2096 H   0  0  0  0  0  0  0  0  0  0  0  0
   -2.0943   23.1451  -27.6878 H   0  0  0  0  0  0  0  0  0  0  0  0
   -2.3802   25.6374  -29.3999 H   0  0  0  0  0  0  0  0  0  0  0  0
   -1.3398   24.1769  -29.6476 H   0  0  0  0  0  0  0  0  0  0  0  0
   -7.2274   24.3912  -31.1800 H   0  0  0  0  0  0  0  0  0  0  0  0
   -6.2658   25.0271  -32.5575 H   0  0  0  0  0  0  0  0  0  0  0  0
   -6.8118   23.3158  -32.5575 H   0  0  0  0  0  0  0  0  0  0  0  0
   -4.8677   20.3352  -31.0891 H   0  0  0  0  0  0  0  0  0  0  0  0
   -6.3933   21.2449  -31.4695 H   0  0  0  0  0  0  0  0  0  0  0  0
   -5.1780   21.9260  -33.5460 H   0  0  0  0  0  0  0  0  0  0  0  0
   -6.7906   20.5941  -34.2187 H   0  0  0  0  0  0  0  0  0  0  0  0
   -5.4050   19.4276  -34.4089 H   0  0  0  0  0  0  0  0  0  0  0  0
   -4.9930   17.7840  -32.2180 H   0  0  0  0  0  0  0  0  0  0  0  0
   -8.8140   20.4865  -33.5836 H   0  0  0  0  0  0  0  0  0  0  0  0
   -9.9185   19.6502  -32.4285 H   0  0  0  0  0  0  0  0  0  0  0  0
   -8.8800   20.9661  -30.5601 H   0  0  0  0  0  0  0  0  0  0  0  0
   -7.9166   21.8698  -31.7775 H   0  0  0  0  0  0  0  0  0  0  0  0
   -9.7085   21.9948  -31.7775 H   0  0  0  0  0  0  0  0  0  0  0  0
   -2.5507   21.4764  -28.8891 H   0  0  0  0  0  0  0  0  0  0  0  0
   -2.9503   20.5534  -30.3774 H   0  0  0  0  0  0  0  0  0  0  0  0
   -1.5709   21.7040  -30.3774 H   0  0  0  0  0  0  0  0  0  0  0  0
  1  2  1  0
  2  3  1  0
  3  4  1  0
  4  5  1  0
  5  6  2  0
  6  7  1  0
  6  8  1  0
  8  9  1  0
  9 10  1  0
 10 11  1  0
 11 12  1  0
 12 13  2  0
 13 14  1  0
 14 15  2  0
 15 16  1  0
 16 17  1  0
 17 18  1  0
  8 19  2  0
 19 20  1  0
 19  4  1  0
 16 12  1  0
  1 21  1  0
  1 22  1  0
  1 23  1  0
  2 24  1  0
  2 25  1  0
  3 26  1  0
  3 27  1  0
  7 28  1  0
  7 29  1  0
  7 30  1  0
  9 31  1  0
  9 32  1  0
 10 33  1  0
 11 34  1  0
 11 35  1  0
 13 36  1  0
 17 37  1  0
 17 38  1  0
 18 39  1  0
 18 40  1  0
 18 41  1  0
 20 42  1  0
 20 43  1  0
 20 44  1  0
M  CHG  1  13   1
M  END
>  <UniqueID>  (27) 
26

>  <SMILES>  (27) 
CCCn1nc(C)c(CNCc2[nH+]nnn2CC)c1C

>  <Energy>  (27) 
101.37064834154226

>  <Genealogy>  (27) 
CCCn1nc(C)c(CNCc2[nH+]nnn2CC)c1C (protonated)
CCCn1nc(C)c(CNCc2[nH+]nnn2CC)c1C (3D coordinates assigned)
CCCn1nc(C)c(CNCc2[nH+]nnn2CC)c1C (optimized conformer: 101.37064834154226 kcal/mol)

>  <smiles>  (27) 
CCCn1nc(C)c(CNCc2nnnn2CC)c1C

>  <score_type>  (27) 
oracle

>  <origin>  (27) 
adg

>  <m_score__min__energy>  (27) 
-6.8300000000000001

>  <m_primary>  (27) 
energy

$$$$
27:0
     RDKit          3D

 25 26  0  0  0  0  0  0  0  0999 V2000
   -6.2490   25.6760  -29.7300 C   0  0  0  0  0  0  0  0  0  0  0  0
   -5.7540   24.4150  -30.3810 C   0  0  0  0  0  0  0  0  0  0  0  0
   -6.6520   23.3800  -30.6920 C   0  0  0  0  0  0  0  0  0  0  0  0
   -6.2020   22.2040  -31.3210 C   0  0  0  0  0  0  0  0  0  0  0  0
   -7.1500   21.1080  -31.6450 C   0  0  0  0  0  0  0  0  0  0  0  0
   -8.4950   21.3930  -31.9380 C   0  0  0  0  0  0  0  0  0  0  0  0
   -9.3720   20.3490  -32.2340 C   0  0  0  0  0  0  0  0  0  0  0  0
   -8.9100   19.0340  -32.2370 C   0  0  0  0  0  0  0  0  0  0  0  0
   -7.5700   18.7810  -31.9440 C   0  0  0  0  0  0  0  0  0  0  0  0
   -6.7240   19.8080  -31.6560 N   0  0  0  0  0  0  0  0  0  0  0  0
   -4.8400   22.0820  -31.6440 C   0  0  0  0  0  0  0  0  0  0  0  0
   -3.9470   23.1130  -31.3460 C   0  0  0  0  0  0  0  0  0  0  0  0
   -4.3970   24.2780  -30.7200 C   0  0  0  0  0  0  0  0  0  0  0  0
   -3.4920   25.2960  -30.4400 O   0  0  0  0  0  0  0  0  0  0  0  0
   -6.2056   25.5655  -28.6364 H   0  0  0  0  0  0  0  0  0  0  0  0
   -5.6158   26.5209  -30.0386 H   0  0  0  0  0  0  0  0  0  0  0  0
   -7.2879   25.8645  -30.0386 H   0  0  0  0  0  0  0  0  0  0  0  0
   -7.7174   23.4899  -30.4414 H   0  0  0  0  0  0  0  0  0  0  0  0
   -8.8539   22.4328  -31.9339 H   0  0  0  0  0  0  0  0  0  0  0  0
  -10.4260   20.5633  -32.4646 H   0  0  0  0  0  0  0  0  0  0  0  0
   -9.5948   18.2047  -32.4679 H   0  0  0  0  0  0  0  0  0  0  0  0
   -7.1950   17.7469  -31.9456 H   0  0  0  0  0  0  0  0  0  0  0  0
   -5.7230   19.5800  -31.4620 H   0  0  0  0  0  0  0  0  0  0  0  0
   -4.4748   21.1679  -32.1350 H   0  0  0  0  0  0  0  0  0  0  0  0
   -2.8833   23.0074  -31.6055 H   0  0  0  0  0  0  0  0  0  0  0  0
  1  2  1  0
  2  3  2  0
  3  4  1  0
  4  5  1  0
  5  6  2  0
  6  7  1  0
  7  8  2  0
  8  9  1  0
  9 10  2  0
  4 11  2  0
 11 12  1  0
 12 13  2  0
 13 14  1  0
 13  2  1  0
 10  5  1  0
  1 15  1  0
  1 16  1  0
  1 17  1  0
  3 18  1  0
  6 19  1  0
  7 20  1  0
  8 21  1  0
  9 22  1  0
 10 23  1  0
 11 24  1  0
 12 25  1  0
M  CHG  2  10   1  14  -1
M  END
>  <UniqueID>  (28) 
27

>  <SMILES>  (28) 
Cc1cc(-c2cccc[nH+]2)ccc1[O-]

>  <Energy>  (28) 
30.637877888608582

>  <Genealogy>  (28) 
Cc1cc(-c2cccc[nH+]2)ccc1[O-] (protonated)
Cc1cc(-c2cccc[nH+]2)ccc1[O-] (3D coordinates assigned)
Cc1cc(-c2cccc[nH+]2)ccc1[O-] (optimized conformer: 30.637877888608582 kcal/mol)

>  <smiles>  (28) 
Cc1cc(-c2ccccn2)ccc1O

>  <score_type>  (28) 
oracle

>  <origin>  (28) 
adg

>  <m_score__min__energy>  (28) 
-9.2100000000000009

>  <m_primary>  (28) 
energy

$$$$
28:0
     RDKit          3D

 22 22  0  0  0  0  0  0  0  0999 V2000
   -3.8146   22.3398  -30.3040 H   0  0  0  0  0  0  0  0  0  0  0  0
   -3.3430   23.3000  -30.0480 C   0  0  0  0  0  0  0  0  0  0  0  0
   -3.5110   24.3040  -30.8540 N   0  0  0  0  0  0  0  0  0  0  0  0
   -4.5400   25.2090  -30.7100 O   0  0  0  0  0  0  0  0  0  0  0  0
   -5.8870   24.7960  -30.8680 C   0  0  0  0  0  0  0  0  0  0  0  0
   -5.9335   23.6971  -30.8853 H   0  0  0  0  0  0  0  0  0  0  0  0
   -6.2836   25.1958  -31.8129 H   0  0  0  0  0  0  0  0  0  0  0  0
   -6.7200   25.3200  -29.7080 C   0  0  0  0  0  0  0  0  0  0  0  0
   -6.2514   25.0252  -28.7575 H   0  0  0  0  0  0  0  0  0  0  0  0
   -6.7773   26.4171  -29.7639 H   0  0  0  0  0  0  0  0  0  0  0  0
   -7.7337   24.8966  -29.7639 H   0  0  0  0  0  0  0  0  0  0  0  0
   -2.5480   23.3830  -28.8010 C   0  0  0  0  0  0  0  0  0  0  0  0
   -2.4220   22.2740  -27.9430 C   0  0  0  0  0  0  0  0  0  0  0  0
   -2.9378   21.3333  -28.1861 H   0  0  0  0  0  0  0  0  0  0  0  0
   -1.6460   22.3610  -26.7850 C   0  0  0  0  0  0  0  0  0  0  0  0
   -1.5633   21.4935  -26.1138 H   0  0  0  0  0  0  0  0  0  0  0  0
   -0.9750   23.5460  -26.4770 C   0  0  0  0  0  0  0  0  0  0  0  0
   -0.3702   23.6126  -25.5606 H   0  0  0  0  0  0  0  0  0  0  0  0
   -1.0710   24.6480  -27.3320 C   0  0  0  0  0  0  0  0  0  0  0  0
   -0.1270   26.2550  -26.8950 Br  0  0  0  0  0  0  0  0  0  0  0  0
   -1.8490   24.5670  -28.4970 C   0  0  0  0  0  0  0  0  0  0  0  0
   -1.9350   25.6690  -29.3430 O   0  0  0  0  0  0  0  0  0  0  0  0
  1  2  1  0
  2  3  2  0
  3  4  1  0
  4  5  1  0
  5  6  1  0
  5  7  1  0
  5  8  1  0
  8  9  1  0
  8 10  1  0
  8 11  1  0
  2 12  1  0
 12 13  2  0
 13 14  1  0
 13 15  1  0
 15 16  1  0
 15 17  2  0
 17 18  1  0
 17 19  1  0
 19 20  1  0
 19 21  2  0
 21 22  1  0
 21 12  1  0
M  CHG  1  22  -1
M  END
>  <UniqueID>  (29) 
28

>  <SMILES>  (29) 
CCO/N=C\c1cccc(Br)c1[O-]

>  <Energy>  (29) 
19.26664437307585

>  <Genealogy>  (29) 
CCON=Cc1cccc(Br)c1[O-] (protonated)
CCO/N=C\c1cccc(Br)c1[O-] (cis-trans isomerization)
CCO/N=C\c1cccc(Br)c1[O-] (3D coordinates assigned)
CCO/N=C\c1cccc(Br)c1[O-] (optimized conformer: 19.26664437307585 kcal/mol)

>  <smiles>  (29) 
CCON=Cc1cccc(Br)c1O

>  <score_type>  (29) 
oracle

>  <origin>  (29) 
adg

>  <m_score__min__energy>  (29) 
-8.9299999999999997

>  <m_primary>  (29) 
energy

$$$$
29:0
     RDKit          3D

 38 39  0  0  0  0  0  0  0  0999 V2000
   -4.2020   16.4800  -35.0160 C   0  0  0  0  0  0  0  0  0  0  0  0
   -4.9840   17.6610  -35.1650 O   0  0  0  0  0  0  0  0  0  0  0  0
   -5.1590   18.6320  -34.1660 C   0  0  0  0  0  0  0  0  0  0  0  0
   -6.4230   18.9380  -33.6390 C   0  0  0  0  0  0  0  0  0  0  0  0
   -6.5640   19.9080  -32.6460 C   0  0  0  0  0  0  0  0  0  0  0  0
   -5.4430   20.6060  -32.1400 C   0  0  0  0  0  0  0  0  0  0  0  0
   -5.5890   21.6220  -31.0980 N   0  0  0  0  0  0  0  0  0  0  0  0
   -4.3920   22.0460  -30.3450 C   0  0  0  0  0  0  0  0  0  0  0  0
   -4.6880   22.9810  -29.1720 C   0  0  0  0  0  0  0  0  0  0  0  0
   -5.6880   24.0010  -29.5090 N   0  0  0  0  0  0  0  0  0  0  0  0
   -5.2220   24.9120  -30.5320 C   0  0  0  0  0  0  0  0  0  0  0  0
   -3.8620   25.3450  -30.5270 N   0  0  0  0  0  0  0  0  0  0  0  0
   -5.9860   25.2990  -31.4590 O   0  0  0  0  0  0  0  0  0  0  0  0
   -6.9760   23.3640  -29.8250 C   0  0  0  0  0  0  0  0  0  0  0  0
   -6.9020   22.2880  -30.9290 C   0  0  0  0  0  0  0  0  0  0  0  0
   -4.1770   20.2890  -32.6870 C   0  0  0  0  0  0  0  0  0  0  0  0
   -4.0320   19.3100  -33.6900 C   0  0  0  0  0  0  0  0  0  0  0  0
   -2.7820   18.9830  -34.2410 O   0  0  0  0  0  0  0  0  0  0  0  0
   -1.6170   19.7970  -34.1470 C   0  0  0  0  0  0  0  0  0  0  0  0
   -4.0606   16.2664  -33.9462 H   0  0  0  0  0  0  0  0  0  0  0  0
   -4.7196   15.6349  -35.4933 H   0  0  0  0  0  0  0  0  0  0  0  0
   -3.2219   16.6266  -35.4933 H   0  0  0  0  0  0  0  0  0  0  0  0
   -7.3115   18.4079  -34.0124 H   0  0  0  0  0  0  0  0  0  0  0  0
   -7.5650   20.1338  -32.2497 H   0  0  0  0  0  0  0  0  0  0  0  0
   -3.8950   21.1467  -29.9524 H   0  0  0  0  0  0  0  0  0  0  0  0
   -3.7603   22.6099  -31.0471 H   0  0  0  0  0  0  0  0  0  0  0  0
   -5.0639   22.3825  -28.3291 H   0  0  0  0  0  0  0  0  0  0  0  0
   -3.7535   23.4999  -28.9123 H   0  0  0  0  0  0  0  0  0  0  0  0
   -5.8430   24.5710  -28.6440 H   0  0  0  0  0  0  0  0  0  0  0  0
   -3.5140   26.0310  -31.2330 H   0  0  0  0  0  0  0  0  0  0  0  0
   -7.3597   22.8910  -28.9090 H   0  0  0  0  0  0  0  0  0  0  0  0
   -7.6341   24.1590  -30.2055 H   0  0  0  0  0  0  0  0  0  0  0  0
   -7.6454   21.5122  -30.6936 H   0  0  0  0  0  0  0  0  0  0  0  0
   -7.0901   22.8184  -31.8741 H   0  0  0  0  0  0  0  0  0  0  0  0
   -3.2855   20.8191  -32.3207 H   0  0  0  0  0  0  0  0  0  0  0  0
   -1.3732   19.9673  -33.0880 H   0  0  0  0  0  0  0  0  0  0  0  0
   -0.7746   19.2899  -34.6402 H   0  0  0  0  0  0  0  0  0  0  0  0
   -1.8034   20.7624  -34.6402 H   0  0  0  0  0  0  0  0  0  0  0  0
  1  2  1  0
  2  3  1  0
  3  4  2  0
  4  5  1  0
  5  6  2  0
  6  7  1  0
  7  8  1  0
  8  9  1  0
  9 10  1  0
 10 11  1  0
 11 12  1  0
 11 13  2  0
 10 14  1  0
 14 15  1  0
  6 16  1  0
 16 17  2  0
 17 18  1  0
 18 19  1  0
 17  3  1  0
 15  7  1  0
  1 20  1  0
  1 21  1  0
  1 22  1  0
  4 23  1  0
  5 24  1  0
  8 25  1  0
  8 26  1  0
  9 27  1  0
  9 28  1  0
 10 29  1  0
 12 30  1  0
 14 31  1  0
 14 32  1  0
 15 33  1  0
 15 34  1  0
 16 35  1  0
 19 36  1  0
 19 37  1  0
 19 38  1  0
M  CHG  2  10   1  12  -1
M  END
>  <UniqueID>  (30) 
29

>  <SMILES>  (30) 
COc1ccc(N2CC[NH+](C([NH-])=O)CC2)cc1OC

>  <Energy>  (30) 
49.54811227066409

>  <Genealogy>  (30) 
COc1ccc(N2CC[NH+](C([NH-])=O)CC2)cc1OC (protonated)
COc1ccc(N2CC[NH+](C([NH-])=O)CC2)cc1OC (3D coordinates assigned)
COc1ccc(N2CC[NH+](C([NH-])=O)CC2)cc1OC (nonaromatic ring conformer: 49.54811227066409 kcal/mol)

>  <smiles>  (30) 
COc1ccc(N2CCN(C(N)=O)CC2)cc1OC

>  <score_type>  (30) 
oracle

>  <origin>  (30) 
adg

>  <m_score__min__energy>  (30) 
-7.7999999999999998

>  <m_primary>  (30) 
energy

$$$$
30:0
     RDKit          3D

 24 25  0  0  0  0  0  0  0  0999 V2000
   -6.0040   25.2390  -29.0200 O   0  0  0  0  0  0  0  0  0  0  0  0
   -6.1580   24.5070  -30.0410 C   0  0  0  0  0  0  0  0  0  0  0  0
   -7.2410   23.6840  -30.1880 C   0  0  0  0  0  0  0  0  0  0  0  0
   -7.3340   22.9110  -31.3440 C   0  0  0  0  0  0  0  0  0  0  0  0
   -8.4730   21.9990  -31.5700 C   0  0  0  0  0  0  0  0  0  0  0  0
   -8.1180   20.6400  -31.9720 C   0  0  0  0  0  0  0  0  0  0  0  0
   -8.7570   19.5640  -31.3790 C   0  0  0  0  0  0  0  0  0  0  0  0
   -8.4400   18.2520  -31.7430 C   0  0  0  0  0  0  0  0  0  0  0  0
   -7.4630   18.1100  -32.7160 C   0  0  0  0  0  0  0  0  0  0  0  0
   -6.8510   19.2080  -33.2820 C   0  0  0  0  0  0  0  0  0  0  0  0
   -7.1770   20.4610  -32.9120 N   0  0  0  0  0  0  0  0  0  0  0  0
   -6.3800   22.9720  -32.2990 N   0  0  0  0  0  0  0  0  0  0  0  0
   -5.3420   23.7650  -32.1530 N   0  0  0  0  0  0  0  0  0  0  0  0
   -5.2110   24.5370  -31.0400 C   0  0  0  0  0  0  0  0  0  0  0  0
   -4.2250   25.3010  -30.8860 O   0  0  0  0  0  0  0  0  0  0  0  0
   -8.0195   23.6336  -29.4125 H   0  0  0  0  0  0  0  0  0  0  0  0
   -9.0485   21.9367  -30.6347 H   0  0  0  0  0  0  0  0  0  0  0  0
   -9.0401   22.4252  -32.4107 H   0  0  0  0  0  0  0  0  0  0  0  0
   -9.5241   19.7440  -30.6114 H   0  0  0  0  0  0  0  0  0  0  0  0
   -8.9363   17.3840  -31.2846 H   0  0  0  0  0  0  0  0  0  0  0  0
   -7.1702   17.1013  -33.0430 H   0  0  0  0  0  0  0  0  0  0  0  0
   -6.0801   19.0574  -34.0521 H   0  0  0  0  0  0  0  0  0  0  0  0
   -6.4390   22.4000  -33.1670 H   0  0  0  0  0  0  0  0  0  0  0  0
   -4.6130   23.7960  -32.9080 H   0  0  0  0  0  0  0  0  0  0  0  0
  1  2  2  0
  2  3  1  0
  3  4  2  0
  4  5  1  0
  5  6  1  0
  6  7  2  0
  7  8  1  0
  8  9  2  0
  9 10  1  0
 10 11  2  0
  4 12  1  0
 12 13  1  0
 13 14  1  0
 14 15  2  0
 14  2  1  0
 11  6  1  0
  3 16  1  0
  5 17  1  0
  5 18  1  0
  7 19  1  0
  8 20  1  0
  9 21  1  0
 10 22  1  0
 12 23  1  0
 13 24  1  0
M  END
>  <smiles>  (31) 
O=c1cc(Cc2ccccn2)[nH][nH]c1=O

>  <score_type>  (31) 
oracle

>  <origin>  (31) 
adg

>  <m_score__min__energy>  (31) 
-6.7599999999999998

>  <m_primary>  (31) 
energy

$$$$
31:0
     RDKit          3D

 58 60  0  0  0  0  0  0  0  0999 V2000
   -6.0560   18.4110  -34.1950 C   0  0  0  0  0  0  0  0  0  0  0  0
   -4.7980   18.5240  -33.5400 O   0  0  0  0  0  0  0  0  0  0  0  0
   -4.3230   19.6970  -32.9330 C   0  0  0  0  0  0  0  0  0  0  0  0
   -4.7100   20.9250  -33.4770 C   0  0  0  0  0  0  0  0  0  0  0  0
   -4.2310   22.1190  -32.9390 C   0  0  0  0  0  0  0  0  0  0  0  0
   -3.3730   22.0980  -31.8390 C   0  0  0  0  0  0  0  0  0  0  0  0
   -2.9950   20.8760  -31.2520 C   0  0  0  0  0  0  0  0  0  0  0  0
   -2.0980   20.8470  -30.1190 N   0  0  0  0  0  0  0  0  0  0  0  0
   -2.5710   20.4890  -28.7790 C   0  0  0  0  0  0  0  0  0  0  0  0
   -2.4280   21.7120  -27.8780 C   0  0  0  0  0  0  0  0  0  0  0  0
   -1.0530   22.2590  -27.8930 N   0  0  0  0  0  0  0  0  0  0  0  0
   -0.9790   23.9970  -27.6560 S   0  0  0  0  0  0  0  0  0  0  0  0
    0.3020   24.5470  -28.2200 O   0  0  0  0  0  0  0  0  0  0  0  0
   -0.9850   24.2620  -26.1760 O   0  0  0  0  0  0  0  0  0  0  0  0
   -2.3470   24.9190  -28.3680 C   0  0  0  0  0  0  0  0  0  0  0  0
   -2.8120   24.3150  -29.6850 C   0  0  0  0  0  0  0  0  0  0  0  0
   -3.6120   25.2820  -30.4250 N   0  0  0  0  0  0  0  0  0  0  0  0
   -5.0420   25.2290  -30.4420 C   0  0  0  0  0  0  0  0  0  0  0  0
   -5.7170   26.2950  -30.4620 O   0  0  0  0  0  0  0  0  0  0  0  0
   -5.7390   23.9020  -30.4180 C   0  0  0  0  0  0  0  0  0  0  0  0
   -7.1460   23.9820  -31.0330 C   0  0  0  0  0  0  0  0  0  0  0  0
   -7.6970   22.6140  -31.3510 C   0  0  0  0  0  0  0  0  0  0  0  0
   -9.0390   22.4550  -31.7390 C   0  0  0  0  0  0  0  0  0  0  0  0
   -9.5540   21.1800  -31.9970 C   0  0  0  0  0  0  0  0  0  0  0  0
   -8.7350   20.0540  -31.8650 C   0  0  0  0  0  0  0  0  0  0  0  0
   -7.4010   20.2020  -31.4760 C   0  0  0  0  0  0  0  0  0  0  0  0
   -6.8820   21.4760  -31.2180 C   0  0  0  0  0  0  0  0  0  0  0  0
   -0.1000   21.7030  -28.8860 C   0  0  0  0  0  0  0  0  0  0  0  0
   -0.7330   21.3740  -30.2520 C   0  0  0  0  0  0  0  0  0  0  0  0
   -3.4660   19.6760  -31.8150 C   0  0  0  0  0  0  0  0  0  0  0  0
   -6.8557   18.3392  -33.4431 H   0  0  0  0  0  0  0  0  0  0  0  0
   -6.2228   19.2978  -34.8241 H   0  0  0  0  0  0  0  0  0  0  0  0
   -6.0621   17.5087  -34.8241 H   0  0  0  0  0  0  0  0  0  0  0  0
   -5.3972   20.9497  -34.3355 H   0  0  0  0  0  0  0  0  0  0  0  0
   -4.5304   23.0799  -33.3830 H   0  0  0  0  0  0  0  0  0  0  0  0
   -2.9893   23.0433  -31.4276 H   0  0  0  0  0  0  0  0  0  0  0  0
   -3.6266   20.1834  -28.8265 H   0  0  0  0  0  0  0  0  0  0  0  0
   -1.9793   19.6523  -28.3791 H   0  0  0  0  0  0  0  0  0  0  0  0
   -3.1230   22.4909  -28.2249 H   0  0  0  0  0  0  0  0  0  0  0  0
   -2.6569   21.4015  -26.8479 H   0  0  0  0  0  0  0  0  0  0  0  0
   -3.1872   24.9143  -27.6580 H   0  0  0  0  0  0  0  0  0  0  0  0
   -2.0016   25.9445  -28.5657 H   0  0  0  0  0  0  0  0  0  0  0  0
   -1.9347   24.0331  -30.2857 H   0  0  0  0  0  0  0  0  0  0  0  0
   -3.4247   23.4255  -29.4765 H   0  0  0  0  0  0  0  0  0  0  0  0
   -5.1418   23.1763  -30.9896 H   0  0  0  0  0  0  0  0  0  0  0  0
   -5.8431   23.5906  -29.3681 H   0  0  0  0  0  0  0  0  0  0  0  0
   -7.8188   24.4798  -30.3192 H   0  0  0  0  0  0  0  0  0  0  0  0
   -7.0767   24.5496  -31.9727 H   0  0  0  0  0  0  0  0  0  0  0  0
   -9.6875   23.3377  -31.8403 H   0  0  0  0  0  0  0  0  0  0  0  0
  -10.6038   21.0631  -32.3039 H   0  0  0  0  0  0  0  0  0  0  0  0
   -9.1409   19.0519  -32.0674 H   0  0  0  0  0  0  0  0  0  0  0  0
   -6.7577   19.3157  -31.3724 H   0  0  0  0  0  0  0  0  0  0  0  0
   -5.8319   21.5874  -30.9098 H   0  0  0  0  0  0  0  0  0  0  0  0
    0.7013   22.4395  -29.0453 H   0  0  0  0  0  0  0  0  0  0  0  0
    0.2706   20.7537  -28.4720 H   0  0  0  0  0  0  0  0  0  0  0  0
   -0.7651   22.2916  -30.8577 H   0  0  0  0  0  0  0  0  0  0  0  0
   -0.1171   20.5989  -30.7315 H   0  0  0  0  0  0  0  0  0  0  0  0
   -3.1626   18.7130  -31.3786 H   0  0  0  0  0  0  0  0  0  0  0  0
  1  2  1  0
  2  3  1  0
  3  4  2  0
  4  5  1  0
  5  6  2  0
  6  7  1  0
  7  8  1  0
  8  9  1  0
  9 10  1  0
 10 11  1  0
 11 12  1  0
 12 13  2  0
 12 14  2  0
 12 15  1  0
 15 16  1  0
 16 17  1  0
 17 18  1  0
 18 19  2  0
 18 20  1  0
 20 21  1  0
 21 22  1  0
 22 23  2  0
 23 24  1  0
 24 25  2  0
 25 26  1  0
 26 27  2  0
 11 28  1  0
 28 29  1  0
  7 30  2  0
 30  3  1  0
 29  8  1  0
 27 22  1  0
  1 31  1  0
  1 32  1  0
  1 33  1  0
  4 34  1  0
  5 35  1  0
  6 36  1  0
  9 37  1  0
  9 38  1  0
 10 39  1  0
 10 40  1  0
 15 41  1  0
 15 42  1  0
 16 43  1  0
 16 44  1  0
 20 45  1  0
 20 46  1  0
 21 47  1  0
 21 48  1  0
 23 49  1  0
 24 50  1  0
 25 51  1  0
 26 52  1  0
 27 53  1  0
 28 54  1  0
 28 55  1  0
 29 56  1  0
 29 57  1  0
 30 58  1  0
M  CHG  1  17  -1
M  END
>  <UniqueID>  (32) 
30

>  <SMILES>  (32) 
COc1cccc(N2CCN(S(=O)(=O)CC[N-]C(=O)CCc3ccccc3)CC2)c1

>  <Energy>  (32) 
59.621586126051724

>  <Genealogy>  (32) 
COc1cccc(N2CCN(S(=O)(=O)CC[N-]C(=O)CCc3ccccc3)CC2)c1 (protonated)
COc1cccc(N2CCN(S(=O)(=O)CC[N-]C(=O)CCc3ccccc3)CC2)c1 (3D coordinates assigned)
COc1cccc(N2CCN(S(=O)(=O)CC[N-]C(=O)CCc3ccccc3)CC2)c1 (nonaromatic ring conformer: 59.621586126051724 kcal/mol)

>  <smiles>  (32) 
COc1cccc(N2CCN(S(=O)(=O)CCNC(=O)CCc3ccccc3)CC2)c1

>  <score_type>  (32) 
oracle

>  <origin>  (32) 
adg

>  <m_score__min__energy>  (32) 
-10.5

>  <m_primary>  (32) 
energy

$$$$
32:0
     RDKit          3D

 46 48  0  0  0  0  0  0  0  0999 V2000
   -1.4540   21.6740  -30.8430 C   0  0  0  0  0  0  0  0  0  0  0  0
   -1.1210   20.8360  -32.0720 C   0  0  0  0  0  0  0  0  0  0  0  0
   -1.8310   21.3180  -33.2100 O   0  0  0  0  0  0  0  0  0  0  0  0
   -3.2250   21.2900  -33.3140 C   0  0  0  0  0  0  0  0  0  0  0  0
   -3.8520   22.2490  -33.8390 O   0  0  0  0  0  0  0  0  0  0  0  0
   -3.9800   20.1330  -32.7440 C   0  0  0  0  0  0  0  0  0  0  0  0
   -5.1880   20.6140  -32.0740 N   0  0  0  0  0  0  0  0  0  0  0  0
   -5.2890   21.7630  -31.3620 C   0  0  0  0  0  0  0  0  0  0  0  0
   -6.6010   21.9540  -30.9520 C   0  0  0  0  0  0  0  0  0  0  0  0
   -7.2270   23.3370  -29.9970 S   0  0  0  0  0  0  0  0  0  0  0  0
   -6.2140   24.5870  -30.8610 C   0  0  0  0  0  0  0  0  0  0  0  0
   -4.8940   24.7670  -30.1740 C   0  0  0  0  0  0  0  0  0  0  0  0
   -3.9360   25.2910  -30.8050 O   0  0  0  0  0  0  0  0  0  0  0  0
   -4.7510   24.4050  -28.7900 N   0  0  0  0  0  0  0  0  0  0  0  0
   -3.5070   24.4510  -28.0710 C   0  0  0  0  0  0  0  0  0  0  0  0
   -2.3180   24.0990  -28.7280 C   0  0  0  0  0  0  0  0  0  0  0  0
   -1.0920   24.1630  -28.0570 C   0  0  0  0  0  0  0  0  0  0  0  0
   -1.0430   24.5920  -26.7290 C   0  0  0  0  0  0  0  0  0  0  0  0
   -2.2190   24.9640  -26.0720 C   0  0  0  0  0  0  0  0  0  0  0  0
   -3.4480   24.9010  -26.7390 C   0  0  0  0  0  0  0  0  0  0  0  0
   -7.3200   20.8890  -31.4510 C   0  0  0  0  0  0  0  0  0  0  0  0
   -8.6770   20.5810  -31.3670 C   0  0  0  0  0  0  0  0  0  0  0  0
   -9.1250   19.4130  -32.0070 C   0  0  0  0  0  0  0  0  0  0  0  0
   -8.2190   18.5900  -32.7100 C   0  0  0  0  0  0  0  0  0  0  0  0
   -6.8560   18.9280  -32.7830 C   0  0  0  0  0  0  0  0  0  0  0  0
   -6.4320   20.0920  -32.1320 C   0  0  0  0  0  0  0  0  0  0  0  0
   -1.2253   21.0985  -29.9339 H   0  0  0  0  0  0  0  0  0  0  0  0
   -0.8538   22.5958  -30.8541 H   0  0  0  0  0  0  0  0  0  0  0  0
   -2.5232   21.9324  -30.8541 H   0  0  0  0  0  0  0  0  0  0  0  0
   -0.0402   20.8939  -32.2680 H   0  0  0  0  0  0  0  0  0  0  0  0
   -1.4159   19.7932  -31.8831 H   0  0  0  0  0  0  0  0  0  0  0  0
   -4.2611   19.4448  -33.5548 H   0  0  0  0  0  0  0  0  0  0  0  0
   -3.3449   19.6069  -32.0161 H   0  0  0  0  0  0  0  0  0  0  0  0
   -4.4537   22.4440  -31.1416 H   0  0  0  0  0  0  0  0  0  0  0  0
   -6.0403   24.2581  -31.8962 H   0  0  0  0  0  0  0  0  0  0  0  0
   -6.7517   25.5465  -30.8503 H   0  0  0  0  0  0  0  0  0  0  0  0
   -5.6230   24.2020  -28.2490 H   0  0  0  0  0  0  0  0  0  0  0  0
   -2.3501   23.7706  -29.7774 H   0  0  0  0  0  0  0  0  0  0  0  0
   -0.1658   23.8751  -28.5760 H   0  0  0  0  0  0  0  0  0  0  0  0
   -0.0794   24.6371  -26.2004 H   0  0  0  0  0  0  0  0  0  0  0  0
   -2.1787   25.3073  -25.0277 H   0  0  0  0  0  0  0  0  0  0  0  0
   -4.3698   25.2039  -26.2208 H   0  0  0  0  0  0  0  0  0  0  0  0
   -9.3741   21.2309  -30.8178 H   0  0  0  0  0  0  0  0  0  0  0  0
  -10.1891   19.1381  -31.9598 H   0  0  0  0  0  0  0  0  0  0  0  0
   -8.5820   17.6770  -33.2046 H   0  0  0  0  0  0  0  0  0  0  0  0
   -6.1445   18.2965  -33.3352 H   0  0  0  0  0  0  0  0  0  0  0  0
  1  2  1  0
  2  3  1  0
  3  4  1  0
  4  5  2  0
  4  6  1  0
  6  7  1  0
  7  8  1  0
  8  9  2  0
  9 10  1  0
 10 11  1  0
 11 12  1  0
 12 13  2  0
 12 14  1  0
 14 15  1  0
 15 16  2  0
 16 17  1  0
 17 18  2  0
 18 19  1  0
 19 20  2  0
  9 21  1  0
 21 22  2  0
 22 23  1  0
 23 24  2  0
 24 25  1  0
 25 26  2  0
 26  7  1  0
 20 15  1  0
 26 21  1  0
  1 27  1  0
  1 28  1  0
  1 29  1  0
  2 30  1  0
  2 31  1  0
  6 32  1  0
  6 33  1  0
  8 34  1  0
 11 35  1  0
 11 36  1  0
 14 37  1  0
 16 38  1  0
 17 39  1  0
 18 40  1  0
 19 41  1  0
 20 42  1  0
 22 43  1  0
 23 44  1  0
 24 45  1  0
 25 46  1  0
M  END
>  <UniqueID>  (33) 
31

>  <SMILES>  (33) 
CCOC(=O)Cn1cc(SCC(=O)Nc2ccccc2)c2ccccc21

>  <Energy>  (33) 
73.77558830776371

>  <Genealogy>  (33) 
CCOC(=O)Cn1cc(SCC(=O)Nc2ccccc2)c2ccccc21 (3D coordinates assigned)
CCOC(=O)Cn1cc(SCC(=O)Nc2ccccc2)c2ccccc21 (optimized conformer: 73.77558830776371 kcal/mol)

>  <smiles>  (33) 
CCOC(=O)Cn1cc(SCC(=O)Nc2ccccc2)c2ccccc21

>  <score_type>  (33) 
oracle

>  <origin>  (33) 
adg

>  <m_score__min__energy>  (33) 
-9.2300000000000004

>  <m_primary>  (33) 
energy

$$$$
33:0
     RDKit          3D

 52 56  0  0  0  0  0  0  0  0999 V2000
    0.4990   24.5610  -36.1160 C   0  0  0  0  0  0  0  0  0  0  0  0
    1.7290   23.7300  -35.7680 C   0  0  0  0  0  0  0  0  0  0  0  0
    1.3760   22.6360  -34.9240 O   0  0  0  0  0  0  0  0  0  0  0  0
    0.6330   21.5330  -35.3610 C   0  0  0  0  0  0  0  0  0  0  0  0
   -0.0000   21.5800  -36.4520 O   0  0  0  0  0  0  0  0  0  0  0  0
    0.5640   20.3100  -34.4760 C   0  0  1  0  0  0  0  0  0  0  0  0
    0.6860   20.6740  -32.9810 C   0  0  2  0  0  0  0  0  0  0  0  0
    0.9380   19.3800  -32.2260 C   0  0  0  0  0  0  0  0  0  0  0  0
    0.2890   18.2400  -32.5900 C   0  0  0  0  0  0  0  0  0  0  0  0
    0.5220   16.9760  -31.8140 C   0  0  0  0  0  0  0  0  0  0  0  0
   -0.6270   18.2070  -33.8250 C   0  0  0  0  0  0  0  0  0  0  0  0
   -0.8160   19.6070  -34.4740 C   0  0  1  0  0  0  0  0  0  0  0  0
   -1.5820   20.4740  -33.5230 C   0  0  0  0  0  0  0  0  0  0  0  0
   -2.9630   20.6230  -33.3920 C   0  0  0  0  0  0  0  0  0  0  0  0
   -3.4630   21.4560  -32.3670 C   0  0  0  0  0  0  0  0  0  0  0  0
   -4.9260   21.6480  -32.2020 C   0  0  0  0  0  0  0  0  0  0  0  0
   -5.4380   22.8880  -31.7810 C   0  0  0  0  0  0  0  0  0  0  0  0
   -6.8140   23.0750  -31.6260 C   0  0  0  0  0  0  0  0  0  0  0  0
   -7.7040   22.0250  -31.8860 C   0  0  0  0  0  0  0  0  0  0  0  0
   -9.0870   22.2020  -31.7310 C   0  0  0  0  0  0  0  0  0  0  0  0
   -9.9630   21.1460  -31.9930 C   0  0  0  0  0  0  0  0  0  0  0  0
   -9.4680   19.9070  -32.4080 C   0  0  0  0  0  0  0  0  0  0  0  0
   -8.0920   19.7170  -32.5670 C   0  0  0  0  0  0  0  0  0  0  0  0
   -7.2010   20.7700  -32.3080 C   0  0  0  0  0  0  0  0  0  0  0  0
   -5.8180   20.5910  -32.4630 C   0  0  0  0  0  0  0  0  0  0  0  0
   -2.5520   22.0980  -31.4890 C   0  0  0  0  0  0  0  0  0  0  0  0
   -1.1680   21.9100  -31.6300 C   0  0  0  0  0  0  0  0  0  0  0  0
   -0.7100   21.1020  -32.6680 C   0  0  0  0  0  0  0  0  0  0  0  0
    0.0071   24.8934  -35.1900 H   0  0  0  0  0  0  0  0  0  0  0  0
    0.8041   25.4388  -36.7046 H   0  0  0  0  0  0  0  0  0  0  0  0
   -0.2015   23.9504  -36.7046 H   0  0  0  0  0  0  0  0  0  0  0  0
    2.1762   23.3414  -36.6948 H   0  0  0  0  0  0  0  0  0  0  0  0
    2.4487   24.3693  -35.2358 H   0  0  0  0  0  0  0  0  0  0  0  0
    1.3735   19.6855  -34.8819 H   0  0  0  0  0  0  0  0  0  0  0  0
    1.4662   21.4110  -32.7399 H   0  0  0  0  0  0  0  0  0  0  0  0
    1.6458   19.3642  -31.3841 H   0  0  0  0  0  0  0  0  0  0  0  0
    0.4817   17.1945  -30.7367 H   0  0  0  0  0  0  0  0  0  0  0  0
   -0.2558   16.2409  -32.0684 H   0  0  0  0  0  0  0  0  0  0  0  0
    1.5108   16.5665  -32.0684 H   0  0  0  0  0  0  0  0  0  0  0  0
   -0.1857   17.5304  -34.5716 H   0  0  0  0  0  0  0  0  0  0  0  0
   -1.6167   17.8599  -33.4934 H   0  0  0  0  0  0  0  0  0  0  0  0
   -1.2863   19.4828  -35.4606 H   0  0  0  0  0  0  0  0  0  0  0  0
   -3.6498   20.1012  -34.0746 H   0  0  0  0  0  0  0  0  0  0  0  0
   -4.7485   23.7191  -31.5716 H   0  0  0  0  0  0  0  0  0  0  0  0
   -7.2002   24.0514  -31.2982 H   0  0  0  0  0  0  0  0  0  0  0  0
   -9.4824   23.1745  -31.4024 H   0  0  0  0  0  0  0  0  0  0  0  0
  -11.0468   21.2904  -31.8721 H   0  0  0  0  0  0  0  0  0  0  0  0
  -10.1629   19.0787  -32.6102 H   0  0  0  0  0  0  0  0  0  0  0  0
   -7.7070   18.7404  -32.8957 H   0  0  0  0  0  0  0  0  0  0  0  0
   -5.4276   19.6164  -32.7913 H   0  0  0  0  0  0  0  0  0  0  0  0
   -2.9341   22.7498  -30.6895 H   0  0  0  0  0  0  0  0  0  0  0  0
   -0.4615   22.3898  -30.9367 H   0  0  0  0  0  0  0  0  0  0  0  0
  1  2  1  0
  2  3  1  0
  3  4  1  0
  4  5  2  0
  4  6  1  0
  6  7  1  0
  7  8  1  0
  8  9  2  0
  9 10  1  0
  9 11  1  0
 11 12  1  0
 12 13  1  0
 13 14  2  0
 14 15  1  0
 15 16  1  0
 16 17  2  0
 17 18  1  0
 18 19  2  0
 19 20  1  0
 20 21  2  0
 21 22  1  0
 22 23  2  0
 23 24  1  0
 24 25  2  0
 15 26  2  0
 26 27  1  0
 27 28  2  0
 12  6  1  0
 28 13  1  0
 28  7  1  0
 25 16  1  0
 24 19  1  0
  1 29  1  0
  1 30  1  0
  1 31  1  0
  2 32  1  0
  2 33  1  0
  6 34  1  6
  7 35  1  6
  8 36  1  0
 10 37  1  0
 10 38  1  0
 10 39  1  0
 11 40  1  0
 11 41  1  0
 12 42  1  6
 14 43  1  0
 17 44  1  0
 18 45  1  0
 20 46  1  0
 21 47  1  0
 22 48  1  0
 23 49  1  0
 25 50  1  0
 26 51  1  0
 27 52  1  0
M  END
>  <UniqueID>  (34) 
32

>  <SMILES>  (34) 
CCOC(=O)[C@@H]1C2CC(C)=C[C@@H]1c1ccc(-c3ccc4ccccc4c3)cc12

>  <Energy>  (34) 
85.34018109599077

>  <Genealogy>  (34) 
CCOC(=O)[C@@H]1C2CC(C)=C[C@@H]1c1ccc(-c3ccc4ccccc4c3)cc12 (chirality)
CCOC(=O)[C@@H]1C2CC(C)=C[C@@H]1c1ccc(-c3ccc4ccccc4c3)cc12 (3D coordinates assigned)
CCOC(=O)[C@@H]1C2CC(C)=C[C@@H]1c1ccc(-c3ccc4ccccc4c3)cc12 (nonaromatic ring conformer: 85.34018109599077 kcal/mol)

>  <smiles>  (34) 
CCOC(=O)C1C2C=C(C)CC1c1cc(-c3ccc4ccccc4c3)ccc12

>  <score_type>  (34) 
oracle

>  <origin>  (34) 
adg

>  <m_score__min__energy>  (34) 
-9.1500000000000004

>  <m_primary>  (34) 
energy

$$$$
34:0
     RDKit          3D

 29 31  0  0  0  0  0  0  0  0999 V2000
   -5.2330   25.6660  -30.5500 C   0  0  0  0  0  0  0  0  0  0  0  0
   -3.8570   25.3060  -30.4810 O   0  0  0  0  0  0  0  0  0  0  0  0
   -3.3110   24.4200  -29.5390 C   0  0  0  0  0  0  0  0  0  0  0  0
   -2.5830   24.8780  -28.4220 C   0  0  0  0  0  0  0  0  0  0  0  0
   -2.0910   23.9710  -27.4790 C   0  0  0  0  0  0  0  0  0  0  0  0
   -2.3200   22.6040  -27.6350 C   0  0  0  0  0  0  0  0  0  0  0  0
   -3.0340   22.1380  -28.7410 C   0  0  0  0  0  0  0  0  0  0  0  0
   -3.5170   23.0350  -29.7060 C   0  0  0  0  0  0  0  0  0  0  0  0
   -4.2430   22.5320  -30.8380 N   0  0  0  0  0  0  0  0  0  0  0  0
   -3.7250   22.1770  -32.0400 C   0  0  0  0  0  0  0  0  0  0  0  0
   -4.6640   21.7540  -32.9270 N   0  0  0  0  0  0  0  0  0  0  0  0
   -5.8110   21.8660  -32.2300 C   0  0  0  0  0  0  0  0  0  0  0  0
   -7.1030   21.5910  -32.6740 C   0  0  0  0  0  0  0  0  0  0  0  0
   -8.1660   21.8260  -31.7820 C   0  0  0  0  0  0  0  0  0  0  0  0
   -7.9150   22.3360  -30.4890 C   0  0  0  0  0  0  0  0  0  0  0  0
   -6.5990   22.6080  -30.0710 C   0  0  0  0  0  0  0  0  0  0  0  0
   -5.5660   22.3390  -30.9740 C   0  0  0  0  0  0  0  0  0  0  0  0
   -5.6359   25.7714  -29.5319 H   0  0  0  0  0  0  0  0  0  0  0  0
   -5.3357   26.6212  -31.0857 H   0  0  0  0  0  0  0  0  0  0  0  0
   -5.7903   24.8834  -31.0857 H   0  0  0  0  0  0  0  0  0  0  0  0
   -2.4011   25.9550  -28.2918 H   0  0  0  0  0  0  0  0  0  0  0  0
   -1.5217   24.3363  -26.6116 H   0  0  0  0  0  0  0  0  0  0  0  0
   -1.9384   21.8933  -26.8872 H   0  0  0  0  0  0  0  0  0  0  0  0
   -3.2191   21.0599  -28.8566 H   0  0  0  0  0  0  0  0  0  0  0  0
   -2.6513   22.2265  -32.2739 H   0  0  0  0  0  0  0  0  0  0  0  0
   -7.2858   21.2035  -33.6871 H   0  0  0  0  0  0  0  0  0  0  0  0
   -9.1988   21.6111  -32.0938 H   0  0  0  0  0  0  0  0  0  0  0  0
   -8.7548   22.5221  -29.8033 H   0  0  0  0  0  0  0  0  0  0  0  0
   -6.3909   23.0169  -29.0713 H   0  0  0  0  0  0  0  0  0  0  0  0
  1  2  1  0
  2  3  1  0
  3  4  2  0
  4  5  1  0
  5  6  2  0
  6  7  1  0
  7  8  2  0
  8  9  1  0
  9 10  1  0
 10 11  2  0
 11 12  1  0
 12 13  2  0
 13 14  1  0
 14 15  2  0
 15 16  1  0
 16 17  2  0
  8  3  1  0
 17  9  1  0
 17 12  1  0
  1 18  1  0
  1 19  1  0
  1 20  1  0
  4 21  1  0
  5 22  1  0
  6 23  1  0
  7 24  1  0
 10 25  1  0
 13 26  1  0
 14 27  1  0
 15 28  1  0
 16 29  1  0
M  END
>  <UniqueID>  (35) 
33

>  <SMILES>  (35) 
COc1ccccc1-n1cnc2ccccc21

>  <Energy>  (35) 
74.61725153697523

>  <Genealogy>  (35) 
COc1ccccc1-n1cnc2ccccc21 (3D coordinates assigned)
COc1ccccc1-n1cnc2ccccc21 (optimized conformer: 74.61725153697523 kcal/mol)

>  <smiles>  (35) 
COc1ccccc1-n1cnc2ccccc21

>  <score_type>  (35) 
oracle

>  <origin>  (35) 
adg

>  <m_score__min__energy>  (35) 
-6.3399999999999999

>  <m_primary>  (35) 
energy

$$$$
35:0
     RDKit          3D

 63 68  0  0  0  0  0  0  0  0999 V2000
    0.6210   21.3070  -34.3430 C   0  0  0  0  0  0  0  0  0  0  0  0
   -0.7720   20.8420  -33.9330 C   0  0  0  0  0  0  0  0  0  0  0  0
   -0.8980   20.8410  -32.4770 N   0  0  0  0  0  0  0  0  0  0  0  0
   -1.6400   21.7100  -31.8020 N   0  0  0  0  0  0  0  0  0  0  0  0
   -1.5890   21.3920  -30.4860 C   0  0  0  0  0  0  0  0  0  0  0  0
   -2.3480   22.1660  -29.4330 C   0  0  0  0  0  0  0  0  0  0  0  0
   -2.0450   23.6870  -29.4730 C   0  0  0  0  0  0  0  0  0  0  0  0
   -3.2780   24.5390  -29.8060 C   0  0  0  0  0  0  0  0  0  0  0  0
   -4.4290   24.2370  -28.9220 N   0  0  0  0  0  0  0  0  0  0  0  0
   -5.6820   24.8940  -29.3580 C   0  0  0  0  0  0  0  0  0  0  0  0
   -6.6140   23.9720  -30.1730 C   0  0  0  0  0  0  0  0  0  0  0  0
   -6.4020   24.1570  -31.6790 C   0  0  0  0  0  0  0  0  0  0  0  0
   -6.3390   22.8550  -32.3390 N   0  0  0  0  0  0  0  0  0  0  0  0
   -5.1380   22.1080  -32.6010 C   0  0  0  0  0  0  0  0  0  0  0  0
   -3.9820   22.6090  -32.6430 O   0  0  0  0  0  0  0  0  0  0  0  0
   -5.4590   20.6890  -32.7380 C   0  0  0  0  0  0  0  0  0  0  0  0
   -4.7010   19.5330  -32.9360 C   0  0  0  0  0  0  0  0  0  0  0  0
   -5.3810   18.2910  -32.9260 C   0  0  0  0  0  0  0  0  0  0  0  0
   -6.7810   18.2290  -32.6970 C   0  0  0  0  0  0  0  0  0  0  0  0
   -7.5050   19.4180  -32.4810 C   0  0  0  0  0  0  0  0  0  0  0  0
   -8.8790   19.4930  -32.1810 C   0  0  0  0  0  0  0  0  0  0  0  0
   -9.4730   20.7570  -31.9250 C   0  0  0  0  0  0  0  0  0  0  0  0
   -8.7040   21.9440  -31.9650 C   0  0  0  0  0  0  0  0  0  0  0  0
   -7.3480   21.8350  -32.2860 C   0  0  0  0  0  0  0  0  0  0  0  0
   -6.8010   20.6080  -32.5300 C   0  0  0  0  0  0  0  0  0  0  0  0
   -4.6020   22.8140  -28.5330 C   0  0  0  0  0  0  0  0  0  0  0  0
   -3.8530   21.8500  -29.4590 C   0  0  0  0  0  0  0  0  0  0  0  0
   -0.7930   20.2590  -30.3400 C   0  0  0  0  0  0  0  0  0  0  0  0
   -0.4130   19.4840  -29.2420 C   0  0  0  0  0  0  0  0  0  0  0  0
    0.4040   18.3640  -29.4770 C   0  0  0  0  0  0  0  0  0  0  0  0
    0.8220   18.0420  -30.7850 C   0  0  0  0  0  0  0  0  0  0  0  0
    0.4260   18.8400  -31.8750 C   0  0  0  0  0  0  0  0  0  0  0  0
   -0.3830   19.9470  -31.6100 C   0  0  0  0  0  0  0  0  0  0  0  0
    1.2205   21.5071  -33.4427 H   0  0  0  0  0  0  0  0  0  0  0  0
    1.1081   20.5227  -34.9410 H   0  0  0  0  0  0  0  0  0  0  0  0
    0.5393   22.2266  -34.9410 H   0  0  0  0  0  0  0  0  0  0  0  0
   -1.5225   21.5223  -34.3618 H   0  0  0  0  0  0  0  0  0  0  0  0
   -0.9327   19.8200  -34.3069 H   0  0  0  0  0  0  0  0  0  0  0  0
   -1.9772   21.8192  -28.4572 H   0  0  0  0  0  0  0  0  0  0  0  0
   -1.6633   23.9938  -28.4880 H   0  0  0  0  0  0  0  0  0  0  0  0
   -1.3067   23.8531  -30.2713 H   0  0  0  0  0  0  0  0  0  0  0  0
   -3.0146   25.6010  -29.6927 H   0  0  0  0  0  0  0  0  0  0  0  0
   -3.5778   24.3060  -30.8384 H   0  0  0  0  0  0  0  0  0  0  0  0
   -6.2251   25.2344  -28.4640 H   0  0  0  0  0  0  0  0  0  0  0  0
   -5.3962   25.7268  -30.0174 H   0  0  0  0  0  0  0  0  0  0  0  0
   -6.4042   22.9253  -29.9075 H   0  0  0  0  0  0  0  0  0  0  0  0
   -7.6557   24.2327  -29.9344 H   0  0  0  0  0  0  0  0  0  0  0  0
   -7.2387   24.7366  -32.0961 H   0  0  0  0  0  0  0  0  0  0  0  0
   -5.4562   24.6929  -31.8471 H   0  0  0  0  0  0  0  0  0  0  0  0
   -3.6137   19.5854  -33.0942 H   0  0  0  0  0  0  0  0  0  0  0  0
   -4.8174   17.3621  -33.0979 H   0  0  0  0  0  0  0  0  0  0  0  0
   -7.2974   17.2578  -32.6883 H   0  0  0  0  0  0  0  0  0  0  0  0
   -9.4883   18.5779  -32.1452 H   0  0  0  0  0  0  0  0  0  0  0  0
  -10.5466   20.8142  -31.6922 H   0  0  0  0  0  0  0  0  0  0  0  0
   -9.1591   22.9221  -31.7502 H   0  0  0  0  0  0  0  0  0  0  0  0
   -4.2247   22.6814  -27.5083 H   0  0  0  0  0  0  0  0  0  0  0  0
   -5.6739   22.5785  -28.6069 H   0  0  0  0  0  0  0  0  0  0  0  0
   -4.0151   20.8166  -29.1185 H   0  0  0  0  0  0  0  0  0  0  0  0
   -4.2306   21.9656  -30.4857 H   0  0  0  0  0  0  0  0  0  0  0  0
   -0.7427   19.7418  -28.2247 H   0  0  0  0  0  0  0  0  0  0  0  0
    0.7200   17.7332  -28.6330 H   0  0  0  0  0  0  0  0  0  0  0  0
    1.4608   17.1627  -30.9543 H   0  0  0  0  0  0  0  0  0  0  0  0
    0.7430   18.5998  -32.9006 H   0  0  0  0  0  0  0  0  0  0  0  0
  1  2  1  0
  2  3  1  0
  3  4  1  0
  4  5  2  0
  5  6  1  0
  6  7  1  0
  7  8  1  0
  8  9  1  0
  9 10  1  0
 10 11  1  0
 11 12  1  0
 12 13  1  0
 13 14  1  0
 14 15  2  0
 14 16  1  0
 16 17  1  0
 17 18  2  0
 18 19  1  0
 19 20  2  0
 20 21  1  0
 21 22  2  0
 22 23  1  0
 23 24  2  0
 24 25  1  0
  9 26  1  0
 26 27  1  0
  5 28  1  0
 28 29  2  0
 29 30  1  0
 30 31  2  0
 31 32  1  0
 32 33  2  0
 33  3  1  0
 27  6  1  0
 33 28  1  0
 24 13  1  0
 25 16  2  0
 25 20  1  0
  1 34  1  0
  1 35  1  0
  1 36  1  0
  2 37  1  0
  2 38  1  0
  6 39  1  0
  7 40  1  0
  7 41  1  0
  8 42  1  0
  8 43  1  0
 10 44  1  0
 10 45  1  0
 11 46  1  0
 11 47  1  0
 12 48  1  0
 12 49  1  0
 17 50  1  0
 18 51  1  0
 19 52  1  0
 21 53  1  0
 22 54  1  0
 23 55  1  0
 26 56  1  0
 26 57  1  0
 27 58  1  0
 27 59  1  0
 29 60  1  0
 30 61  1  0
 31 62  1  0
 32 63  1  0
M  END
>  <UniqueID>  (36) 
34

>  <SMILES>  (36) 
CCn1nc(C2CCN(CCCN3C(=O)c4cccc5cccc3c45)CC2)c2ccccc21

>  <Energy>  (36) 
154.96996191400902

>  <Genealogy>  (36) 
CCn1nc(C2CCN(CCCN3C(=O)c4cccc5cccc3c45)CC2)c2ccccc21 (3D coordinates assigned)
CCn1nc(C2CCN(CCCN3C(=O)c4cccc5cccc3c45)CC2)c2ccccc21 (nonaromatic ring conformer: 154.96996191400902 kcal/mol)

>  <smiles>  (36) 
CCn1nc(C2CCN(CCCN3C(=O)c4cccc5cccc3c45)CC2)c2ccccc21

>  <score_type>  (36) 
oracle

>  <origin>  (36) 
adg

>  <m_score__min__energy>  (36) 
-11.15

>  <m_primary>  (36) 
energy

$$$$
36:0
     RDKit          3D

 66 69  0  0  0  0  0  0  0  0999 V2000
    0.9420   18.6720  -36.3110 C   0  0  0  0  0  0  0  0  0  0  0  0
   -0.0850   19.5260  -35.8160 O   0  0  0  0  0  0  0  0  0  0  0  0
   -0.3900   19.7060  -34.4570 C   0  0  0  0  0  0  0  0  0  0  0  0
    0.2040   20.7310  -33.6970 C   0  0  0  0  0  0  0  0  0  0  0  0
   -0.1260   20.9010  -32.3520 C   0  0  0  0  0  0  0  0  0  0  0  0
   -1.0640   20.0590  -31.7430 C   0  0  0  0  0  0  0  0  0  0  0  0
   -1.4020   20.2160  -30.2830 C   0  0  0  0  0  0  0  0  0  0  0  0
   -2.4600   21.2300  -30.1050 N   0  0  0  0  0  0  0  0  0  0  0  0
   -3.0390   21.2040  -28.7500 C   0  0  0  0  0  0  0  0  0  0  0  0
   -3.3050   22.6420  -28.3540 C   0  0  0  0  0  0  0  0  0  0  0  0
   -2.1970   23.4030  -29.0530 C   0  0  2  0  0  0  0  0  0  0  0  0
   -2.5130   24.8530  -29.3230 C   0  0  0  0  0  0  0  0  0  0  0  0
   -1.9090   25.7450  -28.6680 O   0  0  0  0  0  0  0  0  0  0  0  0
   -3.4890   25.2140  -30.3120 N   0  0  0  0  0  0  0  0  0  0  0  0
   -4.7220   24.5310  -30.5780 C   0  0  0  0  0  0  0  0  0  0  0  0
   -5.9220   25.0990  -30.1030 C   0  0  0  0  0  0  0  0  0  0  0  0
   -7.1500   24.4560  -30.3200 C   0  0  0  0  0  0  0  0  0  0  0  0
   -7.1600   23.2650  -31.0440 C   0  0  0  0  0  0  0  0  0  0  0  0
   -6.0100   22.7360  -31.5650 C   0  0  0  0  0  0  0  0  0  0  0  0
   -4.7670   23.3350  -31.3290 C   0  0  0  0  0  0  0  0  0  0  0  0
   -6.2730   21.5110  -32.2390 N   0  0  0  0  0  0  0  0  0  0  0  0
   -5.3840   20.7400  -33.0630 C   0  0  0  0  0  0  0  0  0  0  0  0
   -5.8450   19.5170  -33.7890 C   0  0  0  0  0  0  0  0  0  0  0  0
   -4.1720   21.0730  -33.1450 O   0  0  0  0  0  0  0  0  0  0  0  0
   -7.6900   21.1850  -32.0720 C   0  0  0  0  0  0  0  0  0  0  0  0
   -8.3250   22.3850  -31.3320 C   0  0  0  0  0  0  0  0  0  0  0  0
   -1.9580   22.5980  -30.3310 C   0  0  0  0  0  0  0  0  0  0  0  0
   -1.6570   19.0330  -32.4900 C   0  0  0  0  0  0  0  0  0  0  0  0
   -1.3180   18.8380  -33.8410 C   0  0  0  0  0  0  0  0  0  0  0  0
   -1.9620   17.6970  -34.6100 C   0  0  0  0  0  0  0  0  0  0  0  0
   -3.3480   17.3890  -34.1850 N   0  0  0  0  0  0  0  0  0  0  0  0
   -3.4160   16.2970  -33.2020 C   0  0  0  0  0  0  0  0  0  0  0  0
   -4.2470   17.1320  -35.3190 C   0  0  0  0  0  0  0  0  0  0  0  0
    1.4835   18.2218  -35.4660 H   0  0  0  0  0  0  0  0  0  0  0  0
    0.4936   17.8768  -36.9246 H   0  0  0  0  0  0  0  0  0  0  0  0
    1.6421   19.2580  -36.9246 H   0  0  0  0  0  0  0  0  0  0  0  0
    0.9353   21.4044  -34.1678 H   0  0  0  0  0  0  0  0  0  0  0  0
    0.3531   21.7003  -31.7675 H   0  0  0  0  0  0  0  0  0  0  0  0
   -1.7538   19.2520  -29.8869 H   0  0  0  0  0  0  0  0  0  0  0  0
   -0.5015   20.5416  -29.7417 H   0  0  0  0  0  0  0  0  0  0  0  0
   -3.9790   20.6327  -28.7518 H   0  0  0  0  0  0  0  0  0  0  0  0
   -2.3521   20.7218  -28.0389 H   0  0  0  0  0  0  0  0  0  0  0  0
   -4.2935   22.9719  -28.7063 H   0  0  0  0  0  0  0  0  0  0  0  0
   -3.3137   22.7954  -27.2648 H   0  0  0  0  0  0  0  0  0  0  0  0
   -1.3003   23.4801  -28.4205 H   0  0  0  0  0  0  0  0  0  0  0  0
   -5.8951   26.0540  -29.5579 H   0  0  0  0  0  0  0  0  0  0  0  0
   -8.0847   24.8826  -29.9272 H   0  0  0  0  0  0  0  0  0  0  0  0
   -3.8435   22.8835  -31.7205 H   0  0  0  0  0  0  0  0  0  0  0  0
   -6.1357   18.7458  -33.0604 H   0  0  0  0  0  0  0  0  0  0  0  0
   -6.7097   19.7695  -34.4204 H   0  0  0  0  0  0  0  0  0  0  0  0
   -5.0288   19.1359  -34.4204 H   0  0  0  0  0  0  0  0  0  0  0  0
   -8.1675   21.0462  -33.0532 H   0  0  0  0  0  0  0  0  0  0  0  0
   -7.8222   20.2505  -31.5071 H   0  0  0  0  0  0  0  0  0  0  0  0
   -9.0584   22.8987  -31.9710 H   0  0  0  0  0  0  0  0  0  0  0  0
   -8.8758   22.0899  -30.4267 H   0  0  0  0  0  0  0  0  0  0  0  0
   -2.4979   23.0604  -31.1705 H   0  0  0  0  0  0  0  0  0  0  0  0
   -0.8859   22.5773  -30.5762 H   0  0  0  0  0  0  0  0  0  0  0  0
   -2.3965   18.3720  -32.0143 H   0  0  0  0  0  0  0  0  0  0  0  0
   -1.9790   17.9652  -35.6767 H   0  0  0  0  0  0  0  0  0  0  0  0
   -1.3606   16.7984  -34.4082 H   0  0  0  0  0  0  0  0  0  0  0  0
   -3.3899   16.7166  -32.1855 H   0  0  0  0  0  0  0  0  0  0  0  0
   -4.3509   15.7347  -33.3427 H   0  0  0  0  0  0  0  0  0  0  0  0
   -2.5581   15.6231  -33.3427 H   0  0  0  0  0  0  0  0  0  0  0  0
   -5.2406   16.8479  -34.9421 H   0  0  0  0  0  0  0  0  0  0  0  0
   -4.3335   18.0414  -35.9318 H   0  0  0  0  0  0  0  0  0  0  0  0
   -3.8397   16.3143  -35.9318 H   0  0  0  0  0  0  0  0  0  0  0  0
  1  2  1  0
  2  3  1  0
  3  4  2  0
  4  5  1  0
  5  6  2  0
  6  7  1  0
  7  8  1  0
  8  9  1  0
  9 10  1  0
 10 11  1  0
 11 12  1  0
 12 13  2  0
 12 14  1  0
 14 15  1  0
 15 16  2  0
 16 17  1  0
 17 18  2  0
 18 19  1  0
 19 20  2  0
 19 21  1  0
 21 22  1  0
 22 23  1  0
 22 24  2  0
 21 25  1  0
 25 26  1  0
 11 27  1  0
  6 28  1  0
 28 29  2  0
 29 30  1  0
 30 31  1  0
 31 32  1  0
 31 33  1  0
 29  3  1  0
 27  8  1  0
 20 15  1  0
 26 18  1  0
  1 34  1  0
  1 35  1  0
  1 36  1  0
  4 37  1  0
  5 38  1  0
  7 39  1  0
  7 40  1  0
  9 41  1  0
  9 42  1  0
 10 43  1  0
 10 44  1  0
 11 45  1  1
 16 46  1  0
 17 47  1  0
 20 48  1  0
 23 49  1  0
 23 50  1  0
 23 51  1  0
 25 52  1  0
 25 53  1  0
 26 54  1  0
 26 55  1  0
 27 56  1  0
 27 57  1  0
 28 58  1  0
 30 59  1  0
 30 60  1  0
 32 61  1  0
 32 62  1  0
 32 63  1  0
 33 64  1  0
 33 65  1  0
 33 66  1  0
M  CHG  1  14  -1
M  END
>  <UniqueID>  (37) 
35

>  <SMILES>  (37) 
COc1ccc(CN2CC[C@H](C(=O)[N-]c3ccc4c(c3)N(C(C)=O)CC4)C2)cc1CN(C)C

>  <Energy>  (37) 
93.94985743325594

>  <Genealogy>  (37) 
COc1ccc(CN2CCC(C(=O)[N-]c3ccc4c(c3)N(C(C)=O)CC4)C2)cc1CN(C)C (protonated)
COc1ccc(CN2CC[C@H](C(=O)[N-]c3ccc4c(c3)N(C(C)=O)CC4)C2)cc1CN(C)C (chirality)
COc1ccc(CN2CC[C@H](C(=O)[N-]c3ccc4c(c3)N(C(C)=O)CC4)C2)cc1CN(C)C (3D coordinates assigned)
COc1ccc(CN2CC[C@H](C(=O)[N-]c3ccc4c(c3)N(C(C)=O)CC4)C2)cc1CN(C)C (nonaromatic ring conformer: 93.94985743325594 kcal/mol)

>  <smiles>  (37) 
COc1ccc(CN2CCC(C(=O)Nc3ccc4c(c3)N(C(C)=O)CC4)C2)cc1CN(C)C

>  <score_type>  (37) 
oracle

>  <origin>  (37) 
adg

>  <m_score__min__energy>  (37) 
-11.619999999999999

>  <m_primary>  (37) 
energy

$$$$
37:0
     RDKit          3D

 45 47  0  0  0  0  0  0  0  0999 V2000
   -5.3930   25.9290  -30.4520 C   0  0  0  0  0  0  0  0  0  0  0  0
   -5.0590   24.7020  -31.0930 O   0  0  0  0  0  0  0  0  0  0  0  0
   -5.9360   23.6160  -31.2270 C   0  0  0  0  0  0  0  0  0  0  0  0
   -5.9640   22.8050  -32.3780 C   0  0  0  0  0  0  0  0  0  0  0  0
   -6.8580   21.7330  -32.4630 C   0  0  0  0  0  0  0  0  0  0  0  0
   -7.7280   21.4490  -31.3990 C   0  0  0  0  0  0  0  0  0  0  0  0
   -8.7160   20.3180  -31.5100 C   0  0  0  0  0  0  0  0  0  0  0  0
   -8.4280   19.4730  -32.7560 C   0  0  0  0  0  0  0  0  0  0  0  0
   -7.8940   18.1410  -32.3790 N   0  0  0  0  0  0  0  0  0  0  0  0
   -7.2390   17.4630  -33.5150 C   0  0  0  0  0  0  0  0  0  0  0  0
   -5.9140   18.0840  -33.8600 C   0  0  0  0  0  0  0  0  0  0  0  0
   -5.1600   18.6970  -32.9360 C   0  0  0  0  0  0  0  0  0  0  0  0
   -3.8530   19.2720  -33.3190 C   0  0  0  0  0  0  0  0  0  0  0  0
   -3.6340   20.6470  -33.1430 C   0  0  0  0  0  0  0  0  0  0  0  0
   -2.4080   21.2180  -33.4950 C   0  0  0  0  0  0  0  0  0  0  0  0
   -1.3930   20.4240  -34.0320 C   0  0  0  0  0  0  0  0  0  0  0  0
    0.1440   21.1440  -34.4750 Cl  0  0  0  0  0  0  0  0  0  0  0  0
   -1.6050   19.0550  -34.2230 C   0  0  0  0  0  0  0  0  0  0  0  0
   -2.8290   18.4730  -33.8740 C   0  0  0  0  0  0  0  0  0  0  0  0
   -3.0630   16.7560  -34.1890 Cl  0  0  0  0  0  0  0  0  0  0  0  0
   -5.6540   18.9080  -31.5230 C   0  0  0  0  0  0  0  0  0  0  0  0
   -6.9760   18.1770  -31.2200 C   0  0  0  0  0  0  0  0  0  0  0  0
   -7.7080   22.2650  -30.2580 C   0  0  0  0  0  0  0  0  0  0  0  0
   -6.8140   23.3360  -30.1730 C   0  0  0  0  0  0  0  0  0  0  0  0
   -5.3564   25.7945  -29.3609 H   0  0  0  0  0  0  0  0  0  0  0  0
   -4.6737   26.7060  -30.7500 H   0  0  0  0  0  0  0  0  0  0  0  0
   -6.4069   26.2342  -30.7500 H   0  0  0  0  0  0  0  0  0  0  0  0
   -5.2800   23.0156  -33.2134 H   0  0  0  0  0  0  0  0  0  0  0  0
   -6.8794   21.1090  -33.3687 H   0  0  0  0  0  0  0  0  0  0  0  0
   -8.6398   19.6819  -30.6158 H   0  0  0  0  0  0  0  0  0  0  0  0
   -9.7294   20.7380  -31.5918 H   0  0  0  0  0  0  0  0  0  0  0  0
   -9.3602   19.3398  -33.3245 H   0  0  0  0  0  0  0  0  0  0  0  0
   -7.6765   19.9932  -33.3681 H   0  0  0  0  0  0  0  0  0  0  0  0
   -7.0776   16.4072  -33.2520 H   0  0  0  0  0  0  0  0  0  0  0  0
   -7.8964   17.5614  -34.3915 H   0  0  0  0  0  0  0  0  0  0  0  0
   -5.5535   18.0342  -34.8980 H   0  0  0  0  0  0  0  0  0  0  0  0
   -4.4319   21.2789  -32.7256 H   0  0  0  0  0  0  0  0  0  0  0  0
   -2.2424   22.2956  -33.3486 H   0  0  0  0  0  0  0  0  0  0  0  0
   -0.8052   18.4321  -34.6500 H   0  0  0  0  0  0  0  0  0  0  0  0
   -4.8855   18.5411  -30.8268 H   0  0  0  0  0  0  0  0  0  0  0  0
   -5.8443   19.9848  -31.4035 H   0  0  0  0  0  0  0  0  0  0  0  0
   -6.7451   17.1433  -30.9232 H   0  0  0  0  0  0  0  0  0  0  0  0
   -7.4822   18.7312  -30.4158 H   0  0  0  0  0  0  0  0  0  0  0  0
   -8.3989   22.0610  -29.4267 H   0  0  0  0  0  0  0  0  0  0  0  0
   -6.8001   23.9643  -29.2702 H   0  0  0  0  0  0  0  0  0  0  0  0
  1  2  1  0
  2  3  1  0
  3  4  2  0
  4  5  1  0
  5  6  2  0
  6  7  1  0
  7  8  1  0
  8  9  1  0
  9 10  1  0
 10 11  1  0
 11 12  2  0
 12 13  1  0
 13 14  2  0
 14 15  1  0
 15 16  2  0
 16 17  1  0
 16 18  1  0
 18 19  2  0
 19 20  1  0
 12 21  1  0
 21 22  1  0
  6 23  1  0
 23 24  2  0
 24  3  1  0
 22  9  1  0
 19 13  1  0
  1 25  1  0
  1 26  1  0
  1 27  1  0
  4 28  1  0
  5 29  1  0
  7 30  1  0
  7 31  1  0
  8 32  1  0
  8 33  1  0
 10 34  1  0
 10 35  1  0
 11 36  1  0
 14 37  1  0
 15 38  1  0
 18 39  1  0
 21 40  1  0
 21 41  1  0
 22 42  1  0
 22 43  1  0
 23 44  1  0
 24 45  1  0
M  END
>  <UniqueID>  (38) 
36

>  <SMILES>  (38) 
COc1ccc(CCN2CC=C(c3ccc(Cl)cc3Cl)CC2)cc1

>  <Energy>  (38) 
56.42000677642926

>  <Genealogy>  (38) 
COc1ccc(CCN2CC=C(c3ccc(Cl)cc3Cl)CC2)cc1 (3D coordinates assigned)
COc1ccc(CCN2CC=C(c3ccc(Cl)cc3Cl)CC2)cc1 (nonaromatic ring conformer: 56.42000677642926 kcal/mol)

>  <smiles>  (38) 
COc1ccc(CCN2CC=C(c3ccc(Cl)cc3Cl)CC2)cc1

>  <score_type>  (38) 
oracle

>  <origin>  (38) 
adg

>  <m_score__min__energy>  (38) 
-9.5500000000000007

>  <m_primary>  (38) 
energy

$$$$
38:0
     RDKit          3D

 71 71  0  0  0  0  0  0  0  0999 V2000
   -3.4418   20.8510  -33.8847 H   0  0  0  0  0  0  0  0  0  0  0  0
   -3.0340   21.2700  -32.9530 C   0  0  0  0  0  0  0  0  0  0  0  0
   -3.8080   22.0640  -32.1970 C   0  0  0  0  0  0  0  0  0  0  0  0
   -3.3338   22.7231  -31.4549 H   0  0  0  0  0  0  0  0  0  0  0  0
   -5.3070   22.0780  -32.3360 C   0  0  0  0  0  0  0  0  0  0  0  0
   -5.7266   21.3099  -31.6696 H   0  0  0  0  0  0  0  0  0  0  0  0
   -5.5379   21.8807  -33.3932 H   0  0  0  0  0  0  0  0  0  0  0  0
   -5.9390   23.4340  -31.9770 C   0  0  0  0  0  0  0  0  0  0  0  0
   -6.1878   23.9548  -32.9134 H   0  0  0  0  0  0  0  0  0  0  0  0
   -5.1974   23.9708  -31.3673 H   0  0  0  0  0  0  0  0  0  0  0  0
   -7.2180   23.3420  -31.1250 C   0  0  0  0  0  0  0  0  0  0  0  0
   -7.3813   24.3116  -30.6318 H   0  0  0  0  0  0  0  0  0  0  0  0
   -7.0709   22.5309  -30.3967 H   0  0  0  0  0  0  0  0  0  0  0  0
   -8.4690   22.9960  -31.9540 C   0  0  0  0  0  0  0  0  0  0  0  0
   -8.1512   22.7362  -32.9745 H   0  0  0  0  0  0  0  0  0  0  0  0
   -9.1260   23.8781  -31.9375 H   0  0  0  0  0  0  0  0  0  0  0  0
   -9.2750   21.8130  -31.3750 C   0  0  0  0  0  0  0  0  0  0  0  0
  -10.2778   22.1771  -31.1069 H   0  0  0  0  0  0  0  0  0  0  0  0
   -8.7108   21.4406  -30.5072 H   0  0  0  0  0  0  0  0  0  0  0  0
   -9.4350   20.6250  -32.3420 C   0  0  0  0  0  0  0  0  0  0  0  0
   -9.8888   21.0027  -33.2701 H   0  0  0  0  0  0  0  0  0  0  0  0
  -10.0553   19.8870  -31.8123 H   0  0  0  0  0  0  0  0  0  0  0  0
   -8.1340   19.8920  -32.7150 C   0  0  0  0  0  0  0  0  0  0  0  0
   -7.2843   20.5284  -32.4271 H   0  0  0  0  0  0  0  0  0  0  0  0
   -8.1758   19.7031  -33.7979 H   0  0  0  0  0  0  0  0  0  0  0  0
   -7.9650   18.5170  -32.0290 C   0  0  0  0  0  0  0  0  0  0  0  0
   -8.3906   17.7446  -32.6865 H   0  0  0  0  0  0  0  0  0  0  0  0
   -8.4843   18.5711  -31.0608 H   0  0  0  0  0  0  0  0  0  0  0  0
   -6.5080   18.1580  -31.7400 C   0  0  0  0  0  0  0  0  0  0  0  0
   -6.3488   18.1188  -30.6523 H   0  0  0  0  0  0  0  0  0  0  0  0
   -6.2781   17.1763  -32.1798 H   0  0  0  0  0  0  0  0  0  0  0  0
   -5.8483   18.9205  -32.1798 H   0  0  0  0  0  0  0  0  0  0  0  0
   -1.6210   20.9400  -32.5550 C   0  0  0  0  0  0  0  0  0  0  0  0
   -1.3621   19.9524  -32.9644 H   0  0  0  0  0  0  0  0  0  0  0  0
   -0.9705   21.7312  -32.9561 H   0  0  0  0  0  0  0  0  0  0  0  0
   -1.4240   20.9070  -31.0310 C   0  0  0  0  0  0  0  0  0  0  0  0
   -1.3950   21.9401  -30.6542 H   0  0  0  0  0  0  0  0  0  0  0  0
   -2.2627   20.3467  -30.5921 H   0  0  0  0  0  0  0  0  0  0  0  0
   -0.1190   20.1970  -30.6340 C   0  0  0  0  0  0  0  0  0  0  0  0
    0.6973   20.5846  -31.2612 H   0  0  0  0  0  0  0  0  0  0  0  0
    0.0571   20.3979  -29.5669 H   0  0  0  0  0  0  0  0  0  0  0  0
   -0.1950   18.6710  -30.8130 C   0  0  0  0  0  0  0  0  0  0  0  0
   -1.2437   18.4029  -31.0090 H   0  0  0  0  0  0  0  0  0  0  0  0
    0.4831   18.4264  -31.6439 H   0  0  0  0  0  0  0  0  0  0  0  0
    0.2910   17.8450  -29.6060 C   0  0  0  0  0  0  0  0  0  0  0  0
   -0.3800   16.9819  -29.4842 H   0  0  0  0  0  0  0  0  0  0  0  0
    1.3280   17.5469  -29.8199 H   0  0  0  0  0  0  0  0  0  0  0  0
    0.3160   18.6320  -28.2790 C   0  0  0  0  0  0  0  0  0  0  0  0
    1.1983   18.3210  -27.7004 H   0  0  0  0  0  0  0  0  0  0  0  0
    0.3527   19.7035  -28.5251 H   0  0  0  0  0  0  0  0  0  0  0  0
   -0.9360   18.3900  -27.4340 C   0  0  0  0  0  0  0  0  0  0  0  0
   -1.7670   18.0871  -28.0880 H   0  0  0  0  0  0  0  0  0  0  0  0
   -0.7366   17.5932  -26.7023 H   0  0  0  0  0  0  0  0  0  0  0  0
   -1.2840   19.5890  -26.7480 O   0  0  0  0  0  0  0  0  0  0  0  0
   -1.6050   20.7980  -27.3820 C   0  0  0  0  0  0  0  0  0  0  0  0
   -0.5760   21.7130  -27.6280 C   0  0  0  0  0  0  0  0  0  0  0  0
    0.4526   21.4718  -27.3217 H   0  0  0  0  0  0  0  0  0  0  0  0
   -0.8430   22.9320  -28.2600 C   0  0  0  0  0  0  0  0  0  0  0  0
   -0.0241   23.6428  -28.4450 H   0  0  0  0  0  0  0  0  0  0  0  0
   -2.1510   23.2540  -28.6600 C   0  0  0  0  0  0  0  0  0  0  0  0
   -2.4300   24.5410  -29.3360 C   0  0  0  0  0  0  0  0  0  0  0  0
   -3.3350   24.6130  -30.2130 O   0  0  0  0  0  0  0  0  0  0  0  0
   -1.6880   25.6790  -29.0010 O   0  0  0  0  0  0  0  0  0  0  0  0
   -1.2680   25.9580  -27.6710 C   0  0  0  0  0  0  0  0  0  0  0  0
   -1.9675   25.4933  -26.9605 H   0  0  0  0  0  0  0  0  0  0  0  0
   -0.2589   25.5501  -27.5120 H   0  0  0  0  0  0  0  0  0  0  0  0
   -1.2528   27.0463  -27.5120 H   0  0  0  0  0  0  0  0  0  0  0  0
   -3.1850   22.3340  -28.4130 C   0  0  0  0  0  0  0  0  0  0  0  0
   -4.2131   22.5725  -28.7229 H   0  0  0  0  0  0  0  0  0  0  0  0
   -2.9170   21.1190  -27.7770 C   0  0  0  0  0  0  0  0  0  0  0  0
   -3.7356   20.4100  -27.5841 H   0  0  0  0  0  0  0  0  0  0  0  0
  1  2  1  0
  2  3  2  0
  3  4  1  0
  3  5  1  0
  5  6  1  0
  5  7  1  0
  5  8  1  0
  8  9  1  0
  8 10  1  0
  8 11  1  0
 11 12  1  0
 11 13  1  0
 11 14  1  0
 14 15  1  0
 14 16  1  0
 14 17  1  0
 17 18  1  0
 17 19  1  0
 17 20  1  0
 20 21  1  0
 20 22  1  0
 20 23  1  0
 23 24  1  0
 23 25  1  0
 23 26  1  0
 26 27  1  0
 26 28  1  0
 26 29  1  0
 29 30  1  0
 29 31  1  0
 29 32  1  0
  2 33  1  0
 33 34  1  0
 33 35  1  0
 33 36  1  0
 36 37  1  0
 36 38  1  0
 36 39  1  0
 39 40  1  0
 39 41  1  0
 39 42  1  0
 42 43  1  0
 42 44  1  0
 42 45  1  0
 45 46  1  0
 45 47  1  0
 45 48  1  0
 48 49  1  0
 48 50  1  0
 48 51  1  0
 51 52  1  0
 51 53  1  0
 51 54  1  0
 54 55  1  0
 55 56  2  0
 56 57  1  0
 56 58  1  0
 58 59  1  0
 58 60  2  0
 60 61  1  0
 61 62  2  0
 61 63  1  0
 63 64  1  0
 64 65  1  0
 64 66  1  0
 64 67  1  0
 60 68  1  0
 68 69  1  0
 68 70  2  0
 70 71  1  0
 70 55  1  0
M  END
>  <UniqueID>  (39) 
37

>  <SMILES>  (39) 
CCCCCCCCC/C=C/CCCCCCCOc1ccc(C(=O)OC)cc1

>  <Energy>  (39) 
42.12506963601247

>  <Genealogy>  (39) 
CCCCCCCCC/C=C/CCCCCCCOc1ccc(C(=O)OC)cc1 (cis-trans isomerization)
CCCCCCCCC/C=C/CCCCCCCOc1ccc(C(=O)OC)cc1 (3D coordinates assigned)
CCCCCCCCC/C=C/CCCCCCCOc1ccc(C(=O)OC)cc1 (optimized conformer: 42.12506963601247 kcal/mol)

>  <smiles>  (39) 
CCCCCCCCCC=CCCCCCCCOc1ccc(C(=O)OC)cc1

>  <score_type>  (39) 
oracle

>  <origin>  (39) 
adg

>  <m_score__min__energy>  (39) 
-8.3499999999999996

>  <m_primary>  (39) 
energy

$$$$
39:0
     RDKit          3D

 41 43  0  0  0  0  0  0  0  0999 V2000
   -4.4030   25.2740  -30.5340 C   0  0  0  0  0  0  0  0  0  0  0  0
   -5.1950   24.0720  -29.9750 C   0  0  0  0  0  0  0  0  0  0  0  0
   -6.6570   24.5020  -29.7420 C   0  0  0  0  0  0  0  0  0  0  0  0
   -4.5840   23.6370  -28.6270 C   0  0  0  0  0  0  0  0  0  0  0  0
   -5.1730   22.9000  -30.9890 C   0  0  0  0  0  0  0  0  0  0  0  0
   -5.3780   23.3800  -32.3660 N   0  0  0  0  0  0  0  0  0  0  0  0
   -6.7980   23.6110  -32.6560 C   0  0  0  0  0  0  0  0  0  0  0  0
   -7.6150   22.4010  -32.2840 C   0  0  0  0  0  0  0  0  0  0  0  0
   -8.8440   22.5290  -31.6060 C   0  0  0  0  0  0  0  0  0  0  0  0
   -9.5910   21.3770  -31.2970 C   0  0  0  0  0  0  0  0  0  0  0  0
   -9.1210   20.1050  -31.6610 C   0  0  0  0  0  0  0  0  0  0  0  0
   -7.9000   20.0390  -32.3270 C   0  0  0  0  0  0  0  0  0  0  0  0
   -7.2870   18.9260  -32.7670 N   0  0  0  0  0  0  0  0  0  0  0  0
   -6.1690   19.4480  -33.3330 C   0  0  0  0  0  0  0  0  0  0  0  0
   -5.1450   18.6300  -33.9900 C   0  0  0  0  0  0  0  0  0  0  0  0
   -3.7890   18.6670  -33.7290 C   0  0  0  0  0  0  0  0  0  0  0  0
   -3.2240   17.7380  -34.5770 C   0  0  0  0  0  0  0  0  0  0  0  0
   -4.2680   17.1950  -35.3000 C   0  0  0  0  0  0  0  0  0  0  0  0
   -5.4000   17.7470  -34.9270 O   0  0  0  0  0  0  0  0  0  0  0  0
   -6.1000   20.7980  -33.2440 N   0  0  0  0  0  0  0  0  0  0  0  0
   -7.2020   21.1440  -32.6060 N   0  0  0  0  0  0  0  0  0  0  0  0
   -4.0084   25.8729  -29.7000 H   0  0  0  0  0  0  0  0  0  0  0  0
   -3.5682   24.9085  -31.1501 H   0  0  0  0  0  0  0  0  0  0  0  0
   -5.0682   25.8968  -31.1501 H   0  0  0  0  0  0  0  0  0  0  0  0
   -6.8543   24.5600  -28.6614 H   0  0  0  0  0  0  0  0  0  0  0  0
   -6.8265   25.4880  -30.1992 H   0  0  0  0  0  0  0  0  0  0  0  0
   -7.3333   23.7647  -30.1992 H   0  0  0  0  0  0  0  0  0  0  0  0
   -5.1770   24.0592  -27.8024 H   0  0  0  0  0  0  0  0  0  0  0  0
   -4.5905   22.5391  -28.5587 H   0  0  0  0  0  0  0  0  0  0  0  0
   -3.5487   24.0025  -28.5587 H   0  0  0  0  0  0  0  0  0  0  0  0
   -4.1995   22.3916  -30.9280 H   0  0  0  0  0  0  0  0  0  0  0  0
   -5.9900   22.2078  -30.7374 H   0  0  0  0  0  0  0  0  0  0  0  0
   -5.0410   22.6360  -33.0210 H   0  0  0  0  0  0  0  0  0  0  0  0
   -7.1497   24.4775  -32.0768 H   0  0  0  0  0  0  0  0  0  0  0  0
   -6.9151   23.8026  -33.7328 H   0  0  0  0  0  0  0  0  0  0  0  0
   -9.2171   23.5235  -31.3201 H   0  0  0  0  0  0  0  0  0  0  0  0
  -10.5498   21.4738  -30.7666 H   0  0  0  0  0  0  0  0  0  0  0  0
   -9.6951   19.1958  -31.4290 H   0  0  0  0  0  0  0  0  0  0  0  0
   -3.2691   19.3038  -32.9981 H   0  0  0  0  0  0  0  0  0  0  0  0
   -2.1576   17.4813  -34.6607 H   0  0  0  0  0  0  0  0  0  0  0  0
   -4.1668   16.4176  -36.0717 H   0  0  0  0  0  0  0  0  0  0  0  0
  1  2  1  0
  2  3  1  0
  2  4  1  0
  2  5  1  0
  5  6  1  0
  6  7  1  0
  7  8  1  0
  8  9  2  0
  9 10  1  0
 10 11  2  0
 11 12  1  0
 12 13  2  0
 13 14  1  0
 14 15  1  0
 15 16  2  0
 16 17  1  0
 17 18  2  0
 18 19  1  0
 14 20  2  0
 20 21  1  0
 21  8  1  0
 21 12  1  0
 19 15  1  0
  1 22  1  0
  1 23  1  0
  1 24  1  0
  3 25  1  0
  3 26  1  0
  3 27  1  0
  4 28  1  0
  4 29  1  0
  4 30  1  0
  5 31  1  0
  5 32  1  0
  6 33  1  0
  7 34  1  0
  7 35  1  0
  9 36  1  0
 10 37  1  0
 11 38  1  0
 16 39  1  0
 17 40  1  0
 18 41  1  0
M  END
>  <UniqueID>  (40) 
38

>  <SMILES>  (40) 
CC(C)(C)CNCc1cccc2nc(-c3ccco3)nn12

>  <Energy>  (40) 
98.15593997574076

>  <Genealogy>  (40) 
CC(C)(C)CNCc1cccc2nc(-c3ccco3)nn12 (3D coordinates assigned)
CC(C)(C)CNCc1cccc2nc(-c3ccco3)nn12 (optimized conformer: 98.15593997574076 kcal/mol)

>  <smiles>  (40) 
CC(C)(C)CNCc1cccc2nc(-c3ccco3)nn12

>  <score_type>  (40) 
oracle

>  <origin>  (40) 
adg

>  <m_score__min__energy>  (40) 
-7.8499999999999996

>  <m_primary>  (40) 
energy

$$$$
40:0
     RDKit          3D

 32 34  0  0  1  0  0  0  0  0999 V2000
   -6.1190   18.4090  -34.3620 N   0  0  0  0  0  0  0  0  0  0  0  0
   -6.2740   19.4570  -33.5970 C   0  0  0  0  0  0  0  0  0  0  0  0
   -7.5070   19.7920  -33.1840 N   0  0  0  0  0  0  0  0  0  0  0  0
   -7.6670   20.8650  -32.4010 C   0  0  0  0  0  0  0  0  0  0  0  0
   -6.6180   21.6310  -32.0070 N   0  0  0  0  0  0  0  0  0  0  0  0
   -5.3610   21.3340  -32.3950 C   0  0  0  0  0  0  0  0  0  0  0  0
   -5.1960   20.2160  -33.2120 C   0  0  0  0  0  0  0  0  0  0  0  0
   -3.8900   20.1090  -33.4730 N   0  0  0  0  0  0  0  0  0  0  0  0
   -3.2680   21.1270  -32.8400 C   0  0  0  0  0  0  0  0  0  0  0  0
   -4.1460   21.8860  -32.1770 N   0  0  0  0  0  0  0  0  0  0  0  0
   -3.9200   23.0490  -31.3850 C   0  0  2  0  0  0  0  0  0  0  0  0
   -3.1730   22.8590  -30.2490 O   0  0  0  0  0  0  0  0  0  0  0  0
   -3.6630   23.6520  -29.2480 C   0  0  1  0  0  0  0  0  0  0  0  0
   -2.6010   24.2810  -28.3920 C   0  0  0  0  0  0  0  0  0  0  0  0
   -1.7950   25.0360  -29.2430 O   0  0  0  0  0  0  0  0  0  0  0  0
   -4.5710   24.6700  -29.9080 C   0  0  1  0  0  0  0  0  0  0  0  0
   -3.8840   25.6410  -30.6180 O   0  0  0  0  0  0  0  0  0  0  0  0
   -5.2200   23.7280  -30.9310 C   0  0  1  0  0  0  0  0  0  0  0  0
   -5.8760   24.3850  -31.9320 O   0  0  0  0  0  0  0  0  0  0  0  0
   -5.1840   18.1580  -34.7380 H   0  0  0  0  0  0  0  0  0  0  0  0
   -8.3210   19.2100  -33.4810 H   0  0  0  0  0  0  0  0  0  0  0  0
   -8.6796   21.1347  -32.0663 H   0  0  0  0  0  0  0  0  0  0  0  0
   -2.1832   21.3075  -32.8665 H   0  0  0  0  0  0  0  0  0  0  0  0
   -3.3518   23.6801  -32.0842 H   0  0  0  0  0  0  0  0  0  0  0  0
   -4.2240   23.0372  -28.5288 H   0  0  0  0  0  0  0  0  0  0  0  0
   -3.0615   24.9293  -27.6320 H   0  0  0  0  0  0  0  0  0  0  0  0
   -2.0122   23.5152  -27.8658 H   0  0  0  0  0  0  0  0  0  0  0  0
   -1.9440   24.7150  -30.1640 H   0  0  0  0  0  0  0  0  0  0  0  0
   -5.2082   25.2242  -29.2031 H   0  0  0  0  0  0  0  0  0  0  0  0
   -4.1450   25.6770  -31.5910 H   0  0  0  0  0  0  0  0  0  0  0  0
   -6.0191   23.0670  -30.5642 H   0  0  0  0  0  0  0  0  0  0  0  0
   -5.6890   25.3710  -31.8990 H   0  0  0  0  0  0  0  0  0  0  0  0
  1  2  2  3
  2  3  1  0
  3  4  1  0
  4  5  2  0
  5  6  1  0
  6  7  2  0
  7  8  1  0
  8  9  2  0
  9 10  1  0
 10 11  1  0
 11 12  1  0
 12 13  1  0
 13 14  1  0
 14 15  1  0
 13 16  1  0
 16 17  1  0
 16 18  1  0
 18 19  1  0
  7  2  1  0
 18 11  1  0
 10  6  1  0
  1 20  1  0
  3 21  1  0
  4 22  1  0
  9 23  1  0
 11 24  1  6
 13 25  1  1
 14 26  1  0
 14 27  1  0
 15 28  1  0
 16 29  1  1
 17 30  1  0
 18 31  1  1
 19 32  1  0
M  END
>  <smiles>  (41) 
N=c1[nH]cnc2c1ncn2C1OC(CO)C(O)C1O

>  <score_type>  (41) 
oracle

>  <origin>  (41) 
adg

>  <m_score__min__energy>  (41) 
-7.4100000000000001

>  <m_primary>  (41) 
energy

$$$$
41:0
     RDKit          3D

 48 51  0  0  0  0  0  0  0  0999 V2000
   -1.3890   21.5760  -34.1930 O   0  0  0  0  0  0  0  0  0  0  0  0
   -1.6960   20.7660  -33.0850 C   0  0  1  0  0  0  0  0  0  0  0  0
   -1.1540   21.4570  -31.8150 C   0  0  0  0  0  0  0  0  0  0  0  0
   -1.4750   20.7340  -30.5000 C   0  0  0  0  0  0  0  0  0  0  0  0
   -2.8120   21.1680  -29.8930 C   0  0  0  0  0  0  0  0  0  0  0  0
   -3.6570   21.8800  -30.8640 N   0  0  0  0  0  0  0  0  0  0  0  0
   -3.9120   21.5960  -32.1820 C   0  0  0  0  0  0  0  0  0  0  0  0
   -4.7990   22.4670  -32.7380 N   0  0  0  0  0  0  0  0  0  0  0  0
   -5.1300   23.2810  -31.7240 C   0  0  0  0  0  0  0  0  0  0  0  0
   -6.0350   24.3390  -31.7490 C   0  0  0  0  0  0  0  0  0  0  0  0
   -6.2490   25.0470  -30.5530 C   0  0  0  0  0  0  0  0  0  0  0  0
   -5.5620   24.6800  -29.3750 C   0  0  0  0  0  0  0  0  0  0  0  0
   -4.6540   23.6050  -29.3830 C   0  0  0  0  0  0  0  0  0  0  0  0
   -4.4590   22.9280  -30.5930 C   0  0  0  0  0  0  0  0  0  0  0  0
   -3.2320   20.4920  -32.9940 C   0  0  2  0  0  0  0  0  0  0  0  0
   -3.5160   19.1410  -32.4230 N   0  0  0  0  0  0  0  0  0  0  0  0
   -3.9080   18.1550  -33.4550 C   0  0  0  0  0  0  0  0  0  0  0  0
   -5.0620   18.6690  -34.3320 C   0  0  0  0  0  0  0  0  0  0  0  0
   -6.2720   18.9760  -33.4900 C   0  0  0  0  0  0  0  0  0  0  0  0
   -6.8030   20.2770  -33.4670 C   0  0  0  0  0  0  0  0  0  0  0  0
   -7.9060   20.5750  -32.6620 C   0  0  0  0  0  0  0  0  0  0  0  0
   -8.4820   19.5820  -31.8670 C   0  0  0  0  0  0  0  0  0  0  0  0
   -7.9520   18.2880  -31.8710 C   0  0  0  0  0  0  0  0  0  0  0  0
   -6.8480   17.9830  -32.6740 C   0  0  0  0  0  0  0  0  0  0  0  0
   -6.3390   16.7250  -32.6530 F   0  0  0  0  0  0  0  0  0  0  0  0
   -1.9540   21.2650  -34.9490 H   0  0  0  0  0  0  0  0  0  0  0  0
   -1.2163   19.7820  -33.1928 H   0  0  0  0  0  0  0  0  0  0  0  0
   -0.0603   21.5309  -31.9063 H   0  0  0  0  0  0  0  0  0  0  0  0
   -1.6529   22.4357  -31.7591 H   0  0  0  0  0  0  0  0  0  0  0  0
   -1.5124   19.6520  -30.6944 H   0  0  0  0  0  0  0  0  0  0  0  0
   -0.6854   20.9931  -29.7793 H   0  0  0  0  0  0  0  0  0  0  0  0
   -3.3495   20.2741  -29.5438 H   0  0  0  0  0  0  0  0  0  0  0  0
   -2.5985   21.8563  -29.0619 H   0  0  0  0  0  0  0  0  0  0  0  0
   -6.5649   24.6119  -32.6735 H   0  0  0  0  0  0  0  0  0  0  0  0
   -6.9548   25.8906  -30.5349 H   0  0  0  0  0  0  0  0  0  0  0  0
   -5.7380   25.2388  -28.4440 H   0  0  0  0  0  0  0  0  0  0  0  0
   -4.1163   23.3070  -28.4708 H   0  0  0  0  0  0  0  0  0  0  0  0
   -3.6470   20.5008  -34.0127 H   0  0  0  0  0  0  0  0  0  0  0  0
   -4.2810   19.1660  -31.7110 H   0  0  0  0  0  0  0  0  0  0  0  0
   -2.6740   18.7880  -31.9120 H   0  0  0  0  0  0  0  0  0  0  0  0
   -3.0390   17.9477  -34.0968 H   0  0  0  0  0  0  0  0  0  0  0  0
   -4.2498   17.2436  -32.9426 H   0  0  0  0  0  0  0  0  0  0  0  0
   -4.7414   19.5842  -34.8513 H   0  0  0  0  0  0  0  0  0  0  0  0
   -5.3266   17.8898  -35.0620 H   0  0  0  0  0  0  0  0  0  0  0  0
   -6.3482   21.0647  -34.0856 H   0  0  0  0  0  0  0  0  0  0  0  0
   -8.3211   21.5936  -32.6547 H   0  0  0  0  0  0  0  0  0  0  0  0
   -9.3528   19.8177  -31.2375 H   0  0  0  0  0  0  0  0  0  0  0  0
   -8.4044   17.5079  -31.2411 H   0  0  0  0  0  0  0  0  0  0  0  0
  1  2  1  0
  2  3  1  0
  3  4  1  0
  4  5  1  0
  5  6  1  0
  6  7  1  0
  7  8  2  0
  8  9  1  0
  9 10  2  0
 10 11  1  0
 11 12  2  0
 12 13  1  0
 13 14  2  0
  7 15  1  0
 15 16  1  0
 16 17  1  0
 17 18  1  0
 18 19  1  0
 19 20  2  0
 20 21  1  0
 21 22  2  0
 22 23  1  0
 23 24  2  0
 24 25  1  0
 15  2  1  0
 24 19  1  0
 14  6  1  0
 14  9  1  0
  1 26  1  0
  2 27  1  6
  3 28  1  0
  3 29  1  0
  4 30  1  0
  4 31  1  0
  5 32  1  0
  5 33  1  0
 10 34  1  0
 11 35  1  0
 12 36  1  0
 13 37  1  0
 15 38  1  6
 16 39  1  0
 16 40  1  0
 17 41  1  0
 17 42  1  0
 18 43  1  0
 18 44  1  0
 20 45  1  0
 21 46  1  0
 22 47  1  0
 23 48  1  0
M  CHG  1  16   1
M  END
>  <UniqueID>  (42) 
39

>  <SMILES>  (42) 
O[C@H]1CCCn2c(nc3ccccc32)[C@@H]1[NH2+]CCc1ccccc1F

>  <Energy>  (42) 
99.2359628421003

>  <Genealogy>  (42) 
OC1CCCn2c(nc3ccccc32)C1[NH2+]CCc1ccccc1F (protonated)
O[C@H]1CCCn2c(nc3ccccc32)[C@@H]1[NH2+]CCc1ccccc1F (chirality)
O[C@H]1CCCn2c(nc3ccccc32)[C@@H]1[NH2+]CCc1ccccc1F (3D coordinates assigned)
O[C@H]1CCCn2c(nc3ccccc32)[C@@H]1[NH2+]CCc1ccccc1F (nonaromatic ring conformer: 99.2359628421003 kcal/mol)

>  <smiles>  (42) 
OC1CCCn2c(nc3ccccc32)C1NCCc1ccccc1F

>  <score_type>  (42) 
oracle

>  <origin>  (42) 
adg

>  <m_score__min__energy>  (42) 
-5.9900000000000002

>  <m_primary>  (42) 
energy

$$$$
42:0
     RDKit          3D

 48 52  0  0  0  0  0  0  0  0999 V2000
   -8.8770   23.7870  -32.3290 O   0  0  0  0  0  0  0  0  0  0  0  0
   -8.1450   23.1290  -31.5380 C   0  0  0  0  0  0  0  0  0  0  0  0
   -8.5550   21.8270  -31.0970 N   0  0  0  0  0  0  0  0  0  0  0  0
   -8.1140   20.5680  -31.6260 C   0  0  0  0  0  0  0  0  0  0  0  0
   -8.9460   19.4580  -31.4760 C   0  0  0  0  0  0  0  0  0  0  0  0
   -8.5580   18.2140  -31.9670 C   0  0  0  0  0  0  0  0  0  0  0  0
   -7.3390   18.0690  -32.6450 C   0  0  0  0  0  0  0  0  0  0  0  0
   -6.9470   16.8100  -33.1030 C   0  0  0  0  0  0  0  0  0  0  0  0
   -5.7320   16.6570  -33.7640 C   0  0  0  0  0  0  0  0  0  0  0  0
   -5.3210   15.3890  -34.2080 C   0  0  0  0  0  0  0  0  0  0  0  0
   -4.1060   15.2390  -34.8770 C   0  0  0  0  0  0  0  0  0  0  0  0
   -3.2930   16.3490  -35.1080 C   0  0  0  0  0  0  0  0  0  0  0  0
   -3.6910   17.6160  -34.6730 C   0  0  0  0  0  0  0  0  0  0  0  0
   -4.9160   17.7910  -33.9910 C   0  0  0  0  0  0  0  0  0  0  0  0
   -5.3190   19.0350  -33.5680 N   0  0  0  0  0  0  0  0  0  0  0  0
   -4.5060   20.1110  -33.8880 O   0  0  0  0  0  0  0  0  0  0  0  0
   -6.5010   19.1920  -32.8680 C   0  0  0  0  0  0  0  0  0  0  0  0
   -6.9050   20.4400  -32.3340 C   0  0  0  0  0  0  0  0  0  0  0  0
   -6.8370   23.6790  -31.1120 C   0  0  0  0  0  0  0  0  0  0  0  0
   -6.7630   24.9330  -30.4790 C   0  0  0  0  0  0  0  0  0  0  0  0
   -5.5300   25.4520  -30.0780 C   0  0  0  0  0  0  0  0  0  0  0  0
   -4.3540   24.7320  -30.3000 C   0  0  0  0  0  0  0  0  0  0  0  0
   -3.1380   25.2910  -29.9190 O   0  0  0  0  0  0  0  0  0  0  0  0
   -4.4050   23.4690  -30.9210 C   0  0  0  0  0  0  0  0  0  0  0  0
   -3.1730   22.6770  -31.1550 C   0  0  0  0  0  0  0  0  0  0  0  0
   -2.1550   22.6460  -30.1840 C   0  0  0  0  0  0  0  0  0  0  0  0
   -0.9880   21.9080  -30.4070 C   0  0  0  0  0  0  0  0  0  0  0  0
   -0.8230   21.2020  -31.6020 C   0  0  0  0  0  0  0  0  0  0  0  0
   -1.8250   21.2340  -32.5750 C   0  0  0  0  0  0  0  0  0  0  0  0
   -2.9940   21.9680  -32.3560 C   0  0  0  0  0  0  0  0  0  0  0  0
   -5.6500   22.9560  -31.3280 C   0  0  0  0  0  0  0  0  0  0  0  0
   -9.9149   19.5663  -30.9665 H   0  0  0  0  0  0  0  0  0  0  0  0
   -9.2110   17.3407  -31.8223 H   0  0  0  0  0  0  0  0  0  0  0  0
   -7.5986   15.9386  -32.9414 H   0  0  0  0  0  0  0  0  0  0  0  0
   -5.9594   14.5115  -34.0275 H   0  0  0  0  0  0  0  0  0  0  0  0
   -3.7886   14.2442  -35.2228 H   0  0  0  0  0  0  0  0  0  0  0  0
   -2.3350   16.2264  -35.6346 H   0  0  0  0  0  0  0  0  0  0  0  0
   -3.0444   18.4853  -34.8634 H   0  0  0  0  0  0  0  0  0  0  0  0
   -4.8480   21.0180  -34.1690 H   0  0  0  0  0  0  0  0  0  0  0  0
   -6.2638   21.3226  -32.4750 H   0  0  0  0  0  0  0  0  0  0  0  0
   -7.6827   25.5089  -30.2986 H   0  0  0  0  0  0  0  0  0  0  0  0
   -5.4848   26.4339  -29.5843 H   0  0  0  0  0  0  0  0  0  0  0  0
   -2.2777   23.2051  -29.2447 H   0  0  0  0  0  0  0  0  0  0  0  0
   -0.1990   21.8832  -29.6409 H   0  0  0  0  0  0  0  0  0  0  0  0
    0.0951   20.6217  -31.7762 H   0  0  0  0  0  0  0  0  0  0  0  0
   -1.6935   20.6799  -33.5161 H   0  0  0  0  0  0  0  0  0  0  0  0
   -3.7781   21.9912  -33.1272 H   0  0  0  0  0  0  0  0  0  0  0  0
   -5.6959   21.9746  -31.8227 H   0  0  0  0  0  0  0  0  0  0  0  0
  1  2  2  0
  2  3  1  0
  3  4  1  0
  4  5  2  0
  5  6  1  0
  6  7  2  0
  7  8  1  0
  8  9  2  0
  9 10  1  0
 10 11  2  0
 11 12  1  0
 12 13  2  0
 13 14  1  0
 14 15  2  0
 15 16  1  0
 15 17  1  0
 17 18  2  0
  2 19  1  0
 19 20  2  0
 20 21  1  0
 21 22  2  0
 22 23  1  0
 22 24  1  0
 24 25  1  0
 25 26  2  0
 26 27  1  0
 27 28  2  0
 28 29  1  0
 29 30  2  0
 24 31  2  0
 18  4  1  0
 31 19  1  0
 17  7  1  0
 30 25  1  0
 14  9  1  0
  5 32  1  0
  6 33  1  0
  8 34  1  0
 10 35  1  0
 11 36  1  0
 12 37  1  0
 13 38  1  0
 16 39  1  0
 18 40  1  0
 20 41  1  0
 21 42  1  0
 26 43  1  0
 27 44  1  0
 28 45  1  0
 29 46  1  0
 30 47  1  0
 31 48  1  0
M  CHG  3   3  -1  15   1  23  -1
M  END
>  <UniqueID>  (43) 
40

>  <SMILES>  (43) 
O=C([N-]c1ccc2cc3ccccc3[n+](O)c2c1)c1ccc([O-])c(-c2ccccc2)c1

>  <Energy>  (43) 
79.6713932395515

>  <Genealogy>  (43) 
O=C([N-]c1ccc2cc3ccccc3[n+](O)c2c1)c1ccc([O-])c(-c2ccccc2)c1 (protonated)
O=C([N-]c1ccc2cc3ccccc3[n+](O)c2c1)c1ccc([O-])c(-c2ccccc2)c1 (3D coordinates assigned)
O=C([N-]c1ccc2cc3ccccc3[n+](O)c2c1)c1ccc([O-])c(-c2ccccc2)c1 (optimized conformer: 79.6713932395515 kcal/mol)

>  <smiles>  (43) 
O=C(Nc1ccc2cc3ccccc3[n+]([O-])c2c1)c1ccc(O)c(-c2ccccc2)c1

>  <score_type>  (43) 
oracle

>  <origin>  (43) 
adg

>  <m_score__min__energy>  (43) 
-13.390000000000001

>  <m_primary>  (43) 
energy

$$$$
43:0
     RDKit          3D

 31 32  0  0  0  0  0  0  0  0999 V2000
   -3.7290   25.2120  -30.6140 N   0  0  0  0  0  0  0  0  0  0  0  0
   -3.9410   23.5270  -30.2850 S   0  0  0  0  0  0  0  0  0  0  0  0
   -2.8290   22.7640  -30.9500 O   0  0  0  0  0  0  0  0  0  0  0  0
   -3.8810   23.3130  -28.8000 O   0  0  0  0  0  0  0  0  0  0  0  0
   -5.4990   22.9550  -30.8960 C   0  0  0  0  0  0  0  0  0  0  0  0
   -5.5680   21.7370  -31.5930 C   0  0  0  0  0  0  0  0  0  0  0  0
   -6.7960   21.2580  -32.0820 C   0  0  0  0  0  0  0  0  0  0  0  0
   -6.8810   20.0210  -32.8110 N   0  0  0  0  0  0  0  0  0  0  0  0
   -7.7260   18.9240  -32.4400 C   0  0  0  0  0  0  0  0  0  0  0  0
   -8.6380   19.0820  -31.5820 O   0  0  0  0  0  0  0  0  0  0  0  0
   -7.5830   17.6720  -33.1210 N   0  0  0  0  0  0  0  0  0  0  0  0
   -6.3780   17.1500  -33.7030 C   0  0  0  0  0  0  0  0  0  0  0  0
   -5.7640   15.9800  -33.2220 C   0  0  0  0  0  0  0  0  0  0  0  0
   -4.5770   15.5190  -33.8030 C   0  0  0  0  0  0  0  0  0  0  0  0
   -3.9890   16.2280  -34.8550 C   0  0  0  0  0  0  0  0  0  0  0  0
   -2.5000   15.6490  -35.5800 Cl  0  0  0  0  0  0  0  0  0  0  0  0
   -4.5840   17.4050  -35.3210 C   0  0  0  0  0  0  0  0  0  0  0  0
   -5.7690   17.8670  -34.7410 C   0  0  0  0  0  0  0  0  0  0  0  0
   -7.9500   22.0310  -31.9070 C   0  0  0  0  0  0  0  0  0  0  0  0
   -7.8910   23.2460  -31.2220 C   0  0  0  0  0  0  0  0  0  0  0  0
   -6.6740   23.7130  -30.7120 C   0  0  0  0  0  0  0  0  0  0  0  0
   -6.6660   25.2580  -29.8680 Cl  0  0  0  0  0  0  0  0  0  0  0  0
   -3.4940   25.6740  -29.7070 H   0  0  0  0  0  0  0  0  0  0  0  0
   -4.6513   21.1518  -31.7579 H   0  0  0  0  0  0  0  0  0  0  0  0
   -6.3550   19.9390  -33.7110 H   0  0  0  0  0  0  0  0  0  0  0  0
   -6.2176   15.4257  -32.3871 H   0  0  0  0  0  0  0  0  0  0  0  0
   -4.1058   14.5972  -33.4313 H   0  0  0  0  0  0  0  0  0  0  0  0
   -4.1192   17.9673  -36.1443 H   0  0  0  0  0  0  0  0  0  0  0  0
   -6.2264   18.7999  -35.1021 H   0  0  0  0  0  0  0  0  0  0  0  0
   -8.9100   21.6785  -32.3121 H   0  0  0  0  0  0  0  0  0  0  0  0
   -8.8063   23.8399  -31.0822 H   0  0  0  0  0  0  0  0  0  0  0  0
  1  2  1  0
  2  3  2  0
  2  4  2  0
  2  5  1  0
  5  6  2  0
  6  7  1  0
  7  8  1  0
  8  9  1  0
  9 10  2  0
  9 11  1  0
 11 12  1  0
 12 13  2  0
 13 14  1  0
 14 15  2  0
 15 16  1  0
 15 17  1  0
 17 18  2  0
  7 19  2  0
 19 20  1  0
 20 21  2  0
 21 22  1  0
 21  5  1  0
 18 12  1  0
  1 23  1  0
  6 24  1  0
  8 25  1  0
 13 26  1  0
 14 27  1  0
 17 28  1  0
 18 29  1  0
 19 30  1  0
 20 31  1  0
M  CHG  2   1  -1  11  -1
M  END
>  <UniqueID>  (44) 
41

>  <SMILES>  (44) 
[NH-]S(=O)(=O)c1cc(NC(=O)[N-]c2ccc(Cl)cc2)ccc1Cl

>  <Energy>  (44) 
39.593060730860515

>  <Genealogy>  (44) 
[NH-]S(=O)(=O)c1cc(NC(=O)[N-]c2ccc(Cl)cc2)ccc1Cl (protonated)
[NH-]S(=O)(=O)c1cc(NC(=O)[N-]c2ccc(Cl)cc2)ccc1Cl (3D coordinates assigned)
[NH-]S(=O)(=O)c1cc(NC(=O)[N-]c2ccc(Cl)cc2)ccc1Cl (optimized conformer: 39.593060730860515 kcal/mol)

>  <smiles>  (44) 
NS(=O)(=O)c1cc(NC(=O)Nc2ccc(Cl)cc2)ccc1Cl

>  <score_type>  (44) 
oracle

>  <origin>  (44) 
adg

>  <m_score__min__energy>  (44) 
-11.210000000000001

>  <m_primary>  (44) 
energy

$$$$
44:0
     RDKit          3D

 27 29  0  0  0  0  0  0  0  0999 V2000
   -5.4180   17.3310  -32.9170 F   0  0  0  0  0  0  0  0  0  0  0  0
   -6.5830   17.4830  -32.1860 C   0  0  0  0  0  0  0  0  0  0  0  0
   -7.5800   16.7470  -32.8030 F   0  0  0  0  0  0  0  0  0  0  0  0
   -6.3820   16.9880  -30.9110 F   0  0  0  0  0  0  0  0  0  0  0  0
   -6.9750   18.9380  -32.0970 C   0  0  0  0  0  0  0  0  0  0  0  0
   -8.2970   19.3010  -31.7860 C   0  0  0  0  0  0  0  0  0  0  0  0
   -8.6740   20.6460  -31.7500 C   0  0  0  0  0  0  0  0  0  0  0  0
   -7.7430   21.6400  -32.0540 C   0  0  0  0  0  0  0  0  0  0  0  0
   -6.4100   21.3000  -32.3600 C   0  0  0  0  0  0  0  0  0  0  0  0
   -6.0400   19.9440  -32.4020 C   0  0  0  0  0  0  0  0  0  0  0  0
   -5.4320   22.3470  -32.5700 N   0  0  0  0  0  0  0  0  0  0  0  0
   -5.5010   23.2990  -31.4810 C   0  0  0  0  0  0  0  0  0  0  0  0
   -4.3510   23.6620  -30.7600 C   0  0  0  0  0  0  0  0  0  0  0  0
   -4.4530   24.5140  -29.6550 C   0  0  0  0  0  0  0  0  0  0  0  0
   -5.7010   25.0020  -29.2560 C   0  0  0  0  0  0  0  0  0  0  0  0
   -6.8520   24.6530  -29.9690 C   0  0  0  0  0  0  0  0  0  0  0  0
   -6.7520   23.8240  -31.0910 C   0  0  0  0  0  0  0  0  0  0  0  0
   -8.2150   23.3740  -32.0310 S   0  0  0  0  0  0  0  0  0  0  0  0
   -9.0406   18.5200  -31.5692 H   0  0  0  0  0  0  0  0  0  0  0  0
   -9.7047   20.9213  -31.4820 H   0  0  0  0  0  0  0  0  0  0  0  0
   -5.0110   19.6676  -32.6756 H   0  0  0  0  0  0  0  0  0  0  0  0
   -4.4690   21.9430  -32.6430 H   0  0  0  0  0  0  0  0  0  0  0  0
   -5.6480   22.8400  -33.4660 H   0  0  0  0  0  0  0  0  0  0  0  0
   -3.3675   23.2752  -31.0652 H   0  0  0  0  0  0  0  0  0  0  0  0
   -3.5486   24.8008  -29.0984 H   0  0  0  0  0  0  0  0  0  0  0  0
   -5.7775   25.6619  -28.3793 H   0  0  0  0  0  0  0  0  0  0  0  0
   -7.8344   25.0297  -29.6481 H   0  0  0  0  0  0  0  0  0  0  0  0
  1  2  1  0
  2  3  1  0
  2  4  1  0
  2  5  1  0
  5  6  2  0
  6  7  1  0
  7  8  2  0
  8  9  1  0
  9 10  2  0
  9 11  1  0
 11 12  1  0
 12 13  2  0
 13 14  1  0
 14 15  2  0
 15 16  1  0
 16 17  2  0
 17 18  1  0
 10  5  1  0
 17 12  1  0
 18  8  1  0
  6 19  1  0
  7 20  1  0
 10 21  1  0
 11 22  1  0
 11 23  1  0
 13 24  1  0
 14 25  1  0
 15 26  1  0
 16 27  1  0
M  CHG  1  11   1
M  END
>  <UniqueID>  (45) 
42

>  <SMILES>  (45) 
FC(F)(F)c1ccc2c(c1)[NH2+]c1ccccc1S2

>  <Energy>  (45) 
43.69863396935119

>  <Genealogy>  (45) 
FC(F)(F)c1ccc2c(c1)[NH2+]c1ccccc1S2 (protonated)
FC(F)(F)c1ccc2c(c1)[NH2+]c1ccccc1S2 (3D coordinates assigned)
FC(F)(F)c1ccc2c(c1)[NH2+]c1ccccc1S2 (nonaromatic ring conformer: 43.69863396935119 kcal/mol)

>  <smiles>  (45) 
FC(F)(F)c1ccc2c(c1)Nc1ccccc1S2

>  <score_type>  (45) 
oracle

>  <origin>  (45) 
adg

>  <m_score__min__energy>  (45) 
-6.6399999999999997

>  <m_primary>  (45) 
energy

$$$$
45:0
     RDKit          3D

 37 38  0  0  0  0  0  0  0  0999 V2000
   -8.4770   21.9300  -31.3590 C   0  0  0  0  0  0  0  0  0  0  0  0
   -7.6440   23.1770  -31.6600 C   0  0  0  0  0  0  0  0  0  0  0  0
   -6.2580   23.0990  -31.1220 N   0  0  0  0  0  0  0  0  0  0  0  0
   -5.3030   22.9950  -32.2560 C   0  0  0  0  0  0  0  0  0  0  0  0
   -5.0630   21.5350  -32.6410 C   0  0  0  0  0  0  0  0  0  0  0  0
   -6.0010   24.2030  -30.1320 C   0  0  2  0  0  0  0  0  0  0  0  0
   -5.2680   25.4650  -30.6250 C   0  0  0  0  0  0  0  0  0  0  0  0
   -3.8770   25.2970  -30.4840 O   0  0  0  0  0  0  0  0  0  0  0  0
   -3.6730   24.1880  -29.6380 C   0  0  1  0  0  0  0  0  0  0  0  0
   -2.7090   24.5350  -28.5280 C   0  0  0  0  0  0  0  0  0  0  0  0
   -1.3770   24.8870  -28.8160 C   0  0  0  0  0  0  0  0  0  0  0  0
   -0.5020   25.2390  -27.7850 C   0  0  0  0  0  0  0  0  0  0  0  0
   -0.9480   25.2530  -26.4610 C   0  0  0  0  0  0  0  0  0  0  0  0
   -2.2720   24.9220  -26.1660 C   0  0  0  0  0  0  0  0  0  0  0  0
   -3.1520   24.5690  -27.1940 C   0  0  0  0  0  0  0  0  0  0  0  0
   -5.0140   23.7230  -29.0910 C   0  0  0  0  0  0  0  0  0  0  0  0
   -8.5633   21.8008  -30.2700 H   0  0  0  0  0  0  0  0  0  0  0  0
   -9.4802   22.0451  -31.7952 H   0  0  0  0  0  0  0  0  0  0  0  0
   -7.9865   21.0473  -31.7952 H   0  0  0  0  0  0  0  0  0  0  0  0
   -7.5890   23.3060  -32.7510 H   0  0  0  0  0  0  0  0  0  0  0  0
   -8.1386   24.0277  -31.1684 H   0  0  0  0  0  0  0  0  0  0  0  0
   -5.7149   23.5322  -33.1230 H   0  0  0  0  0  0  0  0  0  0  0  0
   -4.3443   23.4371  -31.9472 H   0  0  0  0  0  0  0  0  0  0  0  0
   -4.9631   20.9272  -31.7297 H   0  0  0  0  0  0  0  0  0  0  0  0
   -5.9129   21.1680  -33.2352 H   0  0  0  0  0  0  0  0  0  0  0  0
   -4.1404   21.4594  -33.2352 H   0  0  0  0  0  0  0  0  0  0  0  0
   -7.0267   24.4511  -29.8217 H   0  0  0  0  0  0  0  0  0  0  0  0
   -5.5092   25.6364  -31.6845 H   0  0  0  0  0  0  0  0  0  0  0  0
   -5.5911   26.3289  -30.0257 H   0  0  0  0  0  0  0  0  0  0  0  0
   -3.2230   23.3640  -30.2111 H   0  0  0  0  0  0  0  0  0  0  0  0
   -1.0232   24.8850  -29.8575 H   0  0  0  0  0  0  0  0  0  0  0  0
    0.5399   25.5056  -28.0162 H   0  0  0  0  0  0  0  0  0  0  0  0
   -0.2557   25.5249  -25.6506 H   0  0  0  0  0  0  0  0  0  0  0  0
   -2.6233   24.9389  -25.1237 H   0  0  0  0  0  0  0  0  0  0  0  0
   -4.1963   24.3166  -26.9577 H   0  0  0  0  0  0  0  0  0  0  0  0
   -5.0425   22.6274  -28.9969 H   0  0  0  0  0  0  0  0  0  0  0  0
   -5.2266   24.1131  -28.0847 H   0  0  0  0  0  0  0  0  0  0  0  0
  1  2  1  0
  2  3  1  0
  3  4  1  0
  4  5  1  0
  3  6  1  0
  6  7  1  0
  7  8  1  0
  8  9  1  0
  9 10  1  0
 10 11  2  0
 11 12  1  0
 12 13  2  0
 13 14  1  0
 14 15  2  0
  9 16  1  0
 16  6  1  0
 15 10  1  0
  1 17  1  0
  1 18  1  0
  1 19  1  0
  2 20  1  0
  2 21  1  0
  4 22  1  0
  4 23  1  0
  5 24  1  0
  5 25  1  0
  5 26  1  0
  6 27  1  1
  7 28  1  0
  7 29  1  0
  9 30  1  6
 11 31  1  0
 12 32  1  0
 13 33  1  0
 14 34  1  0
 15 35  1  0
 16 36  1  0
 16 37  1  0
M  END
>  <UniqueID>  (46) 
43

>  <SMILES>  (46) 
CCN(CC)[C@@H]1CO[C@@H](c2ccccc2)C1

>  <Energy>  (46) 
49.37588973134037

>  <Genealogy>  (46) 
CCN(CC)[C@@H]1CO[C@@H](c2ccccc2)C1 (chirality)
CCN(CC)[C@@H]1CO[C@@H](c2ccccc2)C1 (3D coordinates assigned)
CCN(CC)[C@@H]1CO[C@@H](c2ccccc2)C1 (nonaromatic ring conformer: 49.37588973134037 kcal/mol)

>  <smiles>  (46) 
CCN(CC)C1COC(c2ccccc2)C1

>  <score_type>  (46) 
oracle

>  <origin>  (46) 
adg

>  <m_score__min__energy>  (46) 
-6.7699999999999996

>  <m_primary>  (46) 
energy

$$$$
46:0
     RDKit          3D

 49 52  0  0  0  0  0  0  0  0999 V2000
   -2.7440   20.0570  -27.3820 C   0  0  0  0  0  0  0  0  0  0  0  0
   -1.9720   20.9810  -28.1420 O   0  0  0  0  0  0  0  0  0  0  0  0
   -2.5050   22.0950  -28.8080 C   0  0  0  0  0  0  0  0  0  0  0  0
   -1.8170   23.3270  -28.7050 C   0  0  0  0  0  0  0  0  0  0  0  0
   -2.2930   24.4750  -29.3660 C   0  0  0  0  0  0  0  0  0  0  0  0
   -1.6090   25.6810  -29.2840 O   0  0  0  0  0  0  0  0  0  0  0  0
   -3.4660   24.3620  -30.1050 C   0  0  0  0  0  0  0  0  0  0  0  0
   -4.0690   25.3120  -30.8400 N   0  0  0  0  0  0  0  0  0  0  0  0
   -5.1410   24.7590  -31.4000 N   0  0  0  0  0  0  0  0  0  0  0  0
   -5.2260   23.4620  -31.0170 C   0  0  0  0  0  0  0  0  0  0  0  0
   -6.3030   22.5510  -31.4530 C   0  0  0  0  0  0  0  0  0  0  0  0
   -7.6200   22.7810  -31.0320 C   0  0  0  0  0  0  0  0  0  0  0  0
   -8.6480   21.9180  -31.4180 C   0  0  0  0  0  0  0  0  0  0  0  0
   -8.3760   20.8020  -32.2300 C   0  0  0  0  0  0  0  0  0  0  0  0
   -9.3790   19.8860  -32.5920 O   0  0  0  0  0  0  0  0  0  0  0  0
   -9.4760   18.5530  -32.1010 C   0  0  0  0  0  0  0  0  0  0  0  0
   -7.0550   20.5760  -32.6680 C   0  0  0  0  0  0  0  0  0  0  0  0
   -6.7320   19.4370  -33.4790 N   0  0  0  0  0  0  0  0  0  0  0  0
   -6.1660   18.2370  -32.9390 C   0  0  0  0  0  0  0  0  0  0  0  0
   -6.3250   17.9510  -31.7200 O   0  0  0  0  0  0  0  0  0  0  0  0
   -5.3160   17.3560  -33.7990 C   0  0  0  0  0  0  0  0  0  0  0  0
   -3.9340   17.9420  -33.8900 C   0  0  0  0  0  0  0  0  0  0  0  0
   -2.8850   17.1960  -34.4520 C   0  0  0  0  0  0  0  0  0  0  0  0
   -1.6180   17.7660  -34.6070 C   0  0  0  0  0  0  0  0  0  0  0  0
   -1.3920   19.0890  -34.2130 C   0  0  0  0  0  0  0  0  0  0  0  0
    0.1950   19.8070  -34.4180 Cl  0  0  0  0  0  0  0  0  0  0  0  0
   -2.4350   19.8420  -33.6640 C   0  0  0  0  0  0  0  0  0  0  0  0
   -3.7030   19.2740  -33.5080 C   0  0  0  0  0  0  0  0  0  0  0  0
   -6.0260   21.4300  -32.2500 C   0  0  0  0  0  0  0  0  0  0  0  0
   -4.1520   23.1840  -30.1910 C   0  0  0  0  0  0  0  0  0  0  0  0
   -3.6950   22.0170  -29.5750 C   0  0  0  0  0  0  0  0  0  0  0  0
   -2.5879   20.2439  -26.3093 H   0  0  0  0  0  0  0  0  0  0  0  0
   -3.8095   20.1825  -27.6248 H   0  0  0  0  0  0  0  0  0  0  0  0
   -2.4310   19.0308  -27.6248 H   0  0  0  0  0  0  0  0  0  0  0  0
   -0.8995   23.3884  -28.1014 H   0  0  0  0  0  0  0  0  0  0  0  0
   -7.8455   23.6475  -30.3930 H   0  0  0  0  0  0  0  0  0  0  0  0
   -9.6781   22.1124  -31.0846 H   0  0  0  0  0  0  0  0  0  0  0  0
   -9.4750   18.5664  -31.0011 H   0  0  0  0  0  0  0  0  0  0  0  0
  -10.4097   18.0966  -32.4613 H   0  0  0  0  0  0  0  0  0  0  0  0
   -8.6182   17.9662  -32.4613 H   0  0  0  0  0  0  0  0  0  0  0  0
   -6.9650   19.4660  -34.4980 H   0  0  0  0  0  0  0  0  0  0  0  0
   -5.2613   16.3507  -33.3558 H   0  0  0  0  0  0  0  0  0  0  0  0
   -5.7553   17.2851  -34.8050 H   0  0  0  0  0  0  0  0  0  0  0  0
   -3.0613   16.1583  -34.7717 H   0  0  0  0  0  0  0  0  0  0  0  0
   -0.7981   17.1736  -35.0392 H   0  0  0  0  0  0  0  0  0  0  0  0
   -2.2574   20.8825  -33.3545 H   0  0  0  0  0  0  0  0  0  0  0  0
   -4.5230   19.8725  -33.0845 H   0  0  0  0  0  0  0  0  0  0  0  0
   -4.9889   21.2192  -32.5501 H   0  0  0  0  0  0  0  0  0  0  0  0
   -4.2406   21.0678  -29.6814 H   0  0  0  0  0  0  0  0  0  0  0  0
  1  2  1  0
  2  3  1  0
  3  4  1  0
  4  5  2  0
  5  6  1  0
  5  7  1  0
  7  8  2  0
  8  9  1  0
  9 10  1  0
 10 11  1  0
 11 12  2  0
 12 13  1  0
 13 14  2  0
 14 15  1  0
 15 16  1  0
 14 17  1  0
 17 18  1  0
 18 19  1  0
 19 20  2  0
 19 21  1  0
 21 22  1  0
 22 23  2  0
 23 24  1  0
 24 25  2  0
 25 26  1  0
 25 27  1  0
 27 28  2  0
 17 29  2  0
 10 30  2  0
 30 31  1  0
 31  3  2  0
 30  7  1  0
 29 11  1  0
 28 22  1  0
  1 32  1  0
  1 33  1  0
  1 34  1  0
  4 35  1  0
 12 36  1  0
 13 37  1  0
 16 38  1  0
 16 39  1  0
 16 40  1  0
 18 41  1  0
 21 42  1  0
 21 43  1  0
 23 44  1  0
 24 45  1  0
 27 46  1  0
 28 47  1  0
 29 48  1  0
 31 49  1  0
M  CHG  2   6  -1   9  -1
M  END
>  <UniqueID>  (47) 
44

>  <SMILES>  (47) 
COc1cc([O-])c2n[n-]c(-c3ccc(OC)c(NC(=O)Cc4ccc(Cl)cc4)c3)c2c1

>  <Energy>  (47) 
96.0827860590879

>  <Genealogy>  (47) 
COc1cc([O-])c2n[n-]c(-c3ccc(OC)c(NC(=O)Cc4ccc(Cl)cc4)c3)c2c1 (protonated)
COc1cc([O-])c2n[n-]c(-c3ccc(OC)c(NC(=O)Cc4ccc(Cl)cc4)c3)c2c1 (3D coordinates assigned)
COc1cc([O-])c2n[n-]c(-c3ccc(OC)c(NC(=O)Cc4ccc(Cl)cc4)c3)c2c1 (optimized conformer: 96.0827860590879 kcal/mol)

>  <smiles>  (47) 
COc1cc(O)c2n[nH]c(-c3ccc(OC)c(NC(=O)Cc4ccc(Cl)cc4)c3)c2c1

>  <score_type>  (47) 
oracle

>  <origin>  (47) 
adg

>  <m_score__min__energy>  (47) 
-14.41

>  <m_primary>  (47) 
energy

$$$$
