0:0
     RDKit          3D

 47 49  0  0  0  0  0  0  0  0999 V2000
   -3.9640   24.3200  -29.6420 C   0  0  0  0  0  0  0  0  0  0  0  0
   -4.6120   24.8780  -30.8420 N   0  0  0  0  0  0  0  0  0  0  0  0
   -5.4160   26.0520  -30.4720 C   0  0  0  0  0  0  0  0  0  0  0  0
   -5.4420   23.8580  -31.5210 C   0  0  0  0  0  0  0  0  0  0  0  0
   -6.7710   23.6590  -30.7760 C   0  0  0  0  0  0  0  0  0  0  0  0
   -7.9010   23.2140  -31.7090 C   0  0  0  0  0  0  0  0  0  0  0  0
   -7.4390   22.1920  -32.5880 O   0  0  0  0  0  0  0  0  0  0  0  0
   -7.6460   20.8160  -32.3980 C   0  0  0  0  0  0  0  0  0  0  0  0
   -8.9380   20.2530  -32.4550 C   0  0  0  0  0  0  0  0  0  0  0  0
   -9.1150   18.8740  -32.3220 C   0  0  0  0  0  0  0  0  0  0  0  0
   -8.0120   18.0410  -32.1360 C   0  0  0  0  0  0  0  0  0  0  0  0
   -6.7300   18.5850  -32.0680 C   0  0  0  0  0  0  0  0  0  0  0  0
   -6.5340   19.9730  -32.1760 C   0  0  0  0  0  0  0  0  0  0  0  0
   -5.1550   20.5020  -32.0830 C   0  0  0  0  0  0  0  0  0  0  0  0
   -4.3490   20.9140  -33.1300 C   0  0  0  0  0  0  0  0  0  0  0  0
   -3.1730   21.3420  -32.5550 C   0  0  0  0  0  0  0  0  0  0  0  0
   -3.3290   21.1680  -31.1900 C   0  0  0  0  0  0  0  0  0  0  0  0
   -2.3400   21.4760  -30.1310 C   0  0  0  0  0  0  0  0  0  0  0  0
   -2.4000   20.7890  -28.9050 C   0  0  0  0  0  0  0  0  0  0  0  0
   -1.4750   21.0630  -27.8920 C   0  0  0  0  0  0  0  0  0  0  0  0
   -0.4810   22.0230  -28.0920 C   0  0  0  0  0  0  0  0  0  0  0  0
    0.4160   22.2870  -27.1110 F   0  0  0  0  0  0  0  0  0  0  0  0
   -0.4090   22.7100  -29.3070 C   0  0  0  0  0  0  0  0  0  0  0  0
   -1.3320   22.4400  -30.3230 C   0  0  0  0  0  0  0  0  0  0  0  0
   -4.5220   20.6730  -30.9450 O   0  0  0  0  0  0  0  0  0  0  0  0
   -4.4428   24.7323  -28.7415 H   0  0  0  0  0  0  0  0  0  0  0  0
   -4.0688   23.2250  -29.6443 H   0  0  0  0  0  0  0  0  0  0  0  0
   -2.8967   24.5862  -29.6443 H   0  0  0  0  0  0  0  0  0  0  0  0
   -5.4690   26.1294  -29.3760 H   0  0  0  0  0  0  0  0  0  0  0  0
   -4.9492   26.9599  -30.8816 H   0  0  0  0  0  0  0  0  0  0  0  0
   -6.4313   25.9450  -30.8816 H   0  0  0  0  0  0  0  0  0  0  0  0
   -5.6500   24.1875  -32.5497 H   0  0  0  0  0  0  0  0  0  0  0  0
   -4.8944   22.9040  -31.5304 H   0  0  0  0  0  0  0  0  0  0  0  0
   -6.6301   22.8917  -30.0005 H   0  0  0  0  0  0  0  0  0  0  0  0
   -7.0585   24.6261  -30.3377 H   0  0  0  0  0  0  0  0  0  0  0  0
   -8.7369   22.8262  -31.1082 H   0  0  0  0  0  0  0  0  0  0  0  0
   -8.2353   24.0761  -32.3048 H   0  0  0  0  0  0  0  0  0  0  0  0
   -9.8117   20.9042  -32.6052 H   0  0  0  0  0  0  0  0  0  0  0  0
  -10.1266   18.4440  -32.3640 H   0  0  0  0  0  0  0  0  0  0  0  0
   -8.1535   16.9541  -32.0429 H   0  0  0  0  0  0  0  0  0  0  0  0
   -5.8636   17.9218  -31.9285 H   0  0  0  0  0  0  0  0  0  0  0  0
   -4.5969   20.9021  -34.2016 H   0  0  0  0  0  0  0  0  0  0  0  0
   -2.2893   21.7410  -33.0745 H   0  0  0  0  0  0  0  0  0  0  0  0
   -3.1800   20.0308  -28.7416 H   0  0  0  0  0  0  0  0  0  0  0  0
   -1.5308   20.5213  -26.9363 H   0  0  0  0  0  0  0  0  0  0  0  0
    0.3754   23.4649  -29.4648 H   0  0  0  0  0  0  0  0  0  0  0  0
   -1.2699   22.9839  -31.2771 H   0  0  0  0  0  0  0  0  0  0  0  0
  1  2  1  0
  2  3  1  0
  2  4  1  0
  4  5  1  0
  5  6  1  0
  6  7  1  0
  7  8  1  0
  8  9  2  0
  9 10  1  0
 10 11  2  0
 11 12  1  0
 12 13  2  0
 13 14  1  0
 14 15  2  0
 15 16  1  0
 16 17  2  0
 17 18  1  0
 18 19  2  0
 19 20  1  0
 20 21  2  0
 21 22  1  0
 21 23  1  0
 23 24  2  0
 17 25  1  0
 13  8  1  0
 25 14  1  0
 24 18  1  0
  1 26  1  0
  1 27  1  0
  1 28  1  0
  3 29  1  0
  3 30  1  0
  3 31  1  0
  4 32  1  0
  4 33  1  0
  5 34  1  0
  5 35  1  0
  6 36  1  0
  6 37  1  0
  9 38  1  0
 10 39  1  0
 11 40  1  0
 12 41  1  0
 15 42  1  0
 16 43  1  0
 19 44  1  0
 20 45  1  0
 23 46  1  0
 24 47  1  0
M  END
>  <UniqueID>  (1) 
1

>  <SMILES>  (1) 
CN(C)CCCOc1ccccc1-c1ccc(-c2ccc(F)cc2)o1

>  <Energy>  (1) 
73.9178829740648

>  <Genealogy>  (1) 
CN(C)CCCOc1ccccc1-c1ccc(-c2ccc(F)cc2)o1 (3D coordinates assigned)
CN(C)CCCOc1ccccc1-c1ccc(-c2ccc(F)cc2)o1 (optimized conformer: 73.9178829740648 kcal/mol)

>  <smiles>  (1) 
CN(C)CCCOc1ccccc1-c1ccc(-c2ccc(F)cc2)o1

>  <score_type>  (1) 
oracle

>  <origin>  (1) 
adg

>  <m_score__min__energy>  (1) 
-7.5899999999999999

>  <m_primary>  (1) 
energy

$$$$
1:0
     RDKit          3D

 51 54  0  0  0  0  0  0  0  0999 V2000
   -2.1360   19.2110  -33.8020 C   0  0  0  0  0  0  0  0  0  0  0  0
   -3.0340   19.5160  -32.7400 O   0  0  0  0  0  0  0  0  0  0  0  0
   -3.1210   20.7620  -32.0970 C   0  0  0  0  0  0  0  0  0  0  0  0
   -4.2150   21.6260  -32.2900 C   0  0  0  0  0  0  0  0  0  0  0  0
   -4.2780   22.8710  -31.6320 C   0  0  0  0  0  0  0  0  0  0  0  0
   -5.3660   23.7620  -31.8030 C   0  0  0  0  0  0  0  0  0  0  0  0
   -6.5360   23.4330  -32.7070 C   0  0  0  0  0  0  0  0  0  0  0  0
   -7.2190   22.1480  -32.3310 C   0  0  0  0  0  0  0  0  0  0  0  0
   -8.2070   22.1230  -31.3390 C   0  0  0  0  0  0  0  0  0  0  0  0
   -8.7870   20.9060  -30.9850 C   0  0  0  0  0  0  0  0  0  0  0  0
   -8.3810   19.7270  -31.6110 C   0  0  0  0  0  0  0  0  0  0  0  0
   -8.9320   18.5510  -31.2220 F   0  0  0  0  0  0  0  0  0  0  0  0
   -7.3800   19.7800  -32.6020 C   0  0  0  0  0  0  0  0  0  0  0  0
   -6.9250   18.5900  -33.2830 N   0  0  0  0  0  0  0  0  0  0  0  0
   -6.1160   18.6920  -34.5100 C   0  0  0  0  0  0  0  0  0  0  0  0
   -5.2370   17.4470  -34.7140 C   0  0  0  0  0  0  0  0  0  0  0  0
   -4.6310   16.9990  -33.3800 C   0  0  0  0  0  0  0  0  0  0  0  0
   -5.7080   16.6690  -32.3230 C   0  0  0  0  0  0  0  0  0  0  0  0
   -7.0820   17.2740  -32.6490 C   0  0  0  0  0  0  0  0  0  0  0  0
   -6.8310   20.9850  -32.9210 N   0  0  0  0  0  0  0  0  0  0  0  0
   -5.3540   24.9460  -31.1300 N   0  0  0  0  0  0  0  0  0  0  0  0
   -4.3560   25.2950  -30.3200 N   0  0  0  0  0  0  0  0  0  0  0  0
   -3.2880   24.4870  -30.1150 C   0  0  0  0  0  0  0  0  0  0  0  0
   -2.3710   24.8650  -29.3380 O   0  0  0  0  0  0  0  0  0  0  0  0
   -3.2220   23.2460  -30.7700 C   0  0  0  0  0  0  0  0  0  0  0  0
   -2.1320   22.3790  -30.5820 C   0  0  0  0  0  0  0  0  0  0  0  0
   -2.0790   21.1380  -31.2410 C   0  0  0  0  0  0  0  0  0  0  0  0
   -1.0050   20.2490  -31.0730 O   0  0  0  0  0  0  0  0  0  0  0  0
   -0.4460   19.8840  -29.8140 C   0  0  0  0  0  0  0  0  0  0  0  0
   -1.1723   18.8837  -33.3847 H   0  0  0  0  0  0  0  0  0  0  0  0
   -2.5598   18.4064  -34.4209 H   0  0  0  0  0  0  0  0  0  0  0  0
   -1.9821   20.1073  -34.4209 H   0  0  0  0  0  0  0  0  0  0  0  0
   -5.0316   21.3258  -32.9631 H   0  0  0  0  0  0  0  0  0  0  0  0
   -7.2685   24.2514  -32.6458 H   0  0  0  0  0  0  0  0  0  0  0  0
   -6.1428   23.3129  -33.7273 H   0  0  0  0  0  0  0  0  0  0  0  0
   -8.5220   23.0537  -30.8445 H   0  0  0  0  0  0  0  0  0  0  0  0
   -9.5670   20.8750  -30.2100 H   0  0  0  0  0  0  0  0  0  0  0  0
   -6.7891   18.7991  -35.3734 H   0  0  0  0  0  0  0  0  0  0  0  0
   -5.4562   19.5670  -34.4151 H   0  0  0  0  0  0  0  0  0  0  0  0
   -5.8515   16.6325  -35.1251 H   0  0  0  0  0  0  0  0  0  0  0  0
   -4.4231   17.6942  -35.4115 H   0  0  0  0  0  0  0  0  0  0  0  0
   -4.0202   16.1008  -33.5538 H   0  0  0  0  0  0  0  0  0  0  0  0
   -4.0250   17.8308  -32.9917 H   0  0  0  0  0  0  0  0  0  0  0  0
   -5.8133   15.5758  -32.2608 H   0  0  0  0  0  0  0  0  0  0  0  0
   -5.3758   17.1072  -31.3703 H   0  0  0  0  0  0  0  0  0  0  0  0
   -7.6199   16.6031  -33.3350 H   0  0  0  0  0  0  0  0  0  0  0  0
   -7.6499   17.3937  -31.7145 H   0  0  0  0  0  0  0  0  0  0  0  0
   -1.3112   22.6745  -29.9119 H   0  0  0  0  0  0  0  0  0  0  0  0
   -1.0694   20.2910  -29.0042 H   0  0  0  0  0  0  0  0  0  0  0  0
   -0.4096   18.7876  -29.7330 H   0  0  0  0  0  0  0  0  0  0  0  0
    0.5725   20.2916  -29.7330 H   0  0  0  0  0  0  0  0  0  0  0  0
  1  2  1  0
  2  3  1  0
  3  4  2  0
  4  5  1  0
  5  6  1  0
  6  7  1  0
  7  8  1  0
  8  9  2  0
  9 10  1  0
 10 11  2  0
 11 12  1  0
 11 13  1  0
 13 14  1  0
 14 15  1  0
 15 16  1  0
 16 17  1  0
 17 18  1  0
 18 19  1  0
 13 20  2  0
  6 21  2  0
 21 22  1  0
 22 23  1  0
 23 24  2  0
 23 25  1  0
 25 26  1  0
 26 27  2  0
 27 28  1  0
 28 29  1  0
 27  3  1  0
 25  5  2  0
 20  8  1  0
 19 14  1  0
  1 30  1  0
  1 31  1  0
  1 32  1  0
  4 33  1  0
  7 34  1  0
  7 35  1  0
  9 36  1  0
 10 37  1  0
 15 38  1  0
 15 39  1  0
 16 40  1  0
 16 41  1  0
 17 42  1  0
 17 43  1  0
 18 44  1  0
 18 45  1  0
 19 46  1  0
 19 47  1  0
 26 48  1  0
 29 49  1  0
 29 50  1  0
 29 51  1  0
M  CHG  1  22  -1
M  END
>  <UniqueID>  (2) 
2

>  <SMILES>  (2) 
COc1cc2c(Cc3ccc(F)c(N4CCCCC4)n3)n[n-]c(=O)c2cc1OC

>  <Energy>  (2) 
66.66723924118492

>  <Genealogy>  (2) 
COc1cc2c(Cc3ccc(F)c(N4CCCCC4)n3)n[n-]c(=O)c2cc1OC (protonated)
COc1cc2c(Cc3ccc(F)c(N4CCCCC4)n3)n[n-]c(=O)c2cc1OC (3D coordinates assigned)
COc1cc2c(Cc3ccc(F)c(N4CCCCC4)n3)n[n-]c(=O)c2cc1OC (nonaromatic ring conformer: 66.66723924118492 kcal/mol)

>  <smiles>  (2) 
COc1cc2c(Cc3ccc(F)c(N4CCCCC4)n3)n[nH]c(=O)c2cc1OC

>  <score_type>  (2) 
oracle

>  <origin>  (2) 
adg

>  <m_score__min__energy>  (2) 
-10.289999999999999

>  <m_primary>  (2) 
energy

$$$$
2:0
     RDKit          3D

 28 29  0  0  0  0  0  0  0  0999 V2000
   -6.4920   25.8680  -29.3900 C   0  0  0  0  0  0  0  0  0  0  0  0
   -5.8630   24.5530  -29.3530 N   0  0  0  0  0  0  0  0  0  0  0  0
   -4.6800   24.2610  -30.1050 C   0  0  0  0  0  0  0  0  0  0  0  0
   -4.1630   25.1430  -30.8420 O   0  0  0  0  0  0  0  0  0  0  0  0
   -4.0460   22.9050  -30.0140 C   0  0  0  0  0  0  0  0  0  0  0  0
   -3.8760   22.3130  -31.3820 C   0  0  0  0  0  0  0  0  0  0  0  0
   -2.7050   22.0950  -31.9330 O   0  0  0  0  0  0  0  0  0  0  0  0
   -2.9450   21.5270  -33.0900 C   0  0  0  0  0  0  0  0  0  0  0  0
   -2.0450   21.1710  -33.8940 O   0  0  0  0  0  0  0  0  0  0  0  0
   -4.2280   21.3660  -33.3150 O   0  0  0  0  0  0  0  0  0  0  0  0
   -4.8490   21.8600  -32.2680 C   0  0  0  0  0  0  0  0  0  0  0  0
   -6.3180   21.8680  -32.1240 C   0  0  0  0  0  0  0  0  0  0  0  0
   -7.0450   23.0700  -32.0840 C   0  0  0  0  0  0  0  0  0  0  0  0
   -8.4380   23.0500  -31.9710 C   0  0  0  0  0  0  0  0  0  0  0  0
   -9.1180   21.8310  -31.9100 C   0  0  0  0  0  0  0  0  0  0  0  0
   -8.4070   20.6310  -31.9740 C   0  0  0  0  0  0  0  0  0  0  0  0
   -7.0130   20.6470  -32.0890 C   0  0  0  0  0  0  0  0  0  0  0  0
   -6.6615   26.2224  -28.3625 H   0  0  0  0  0  0  0  0  0  0  0  0
   -5.8343   26.5744  -29.9177 H   0  0  0  0  0  0  0  0  0  0  0  0
   -7.4547   25.7992  -29.9177 H   0  0  0  0  0  0  0  0  0  0  0  0
   -6.2910   23.8080  -28.7580 H   0  0  0  0  0  0  0  0  0  0  0  0
   -3.0604   22.9974  -29.5343 H   0  0  0  0  0  0  0  0  0  0  0  0
   -4.6964   22.2468  -29.4192 H   0  0  0  0  0  0  0  0  0  0  0  0
   -6.5148   24.0320  -32.1419 H   0  0  0  0  0  0  0  0  0  0  0  0
   -8.9995   23.9950  -31.9301 H   0  0  0  0  0  0  0  0  0  0  0  0
  -10.2135   21.8166  -31.8116 H   0  0  0  0  0  0  0  0  0  0  0  0
   -8.9438   19.6717  -31.9339 H   0  0  0  0  0  0  0  0  0  0  0  0
   -6.4581   19.6993  -32.1523 H   0  0  0  0  0  0  0  0  0  0  0  0
  1  2  1  0
  2  3  1  0
  3  4  2  0
  3  5  1  0
  5  6  1  0
  6  7  1  0
  7  8  1  0
  8  9  2  0
  8 10  1  0
 10 11  1  0
 11 12  1  0
 12 13  2  0
 13 14  1  0
 14 15  2  0
 15 16  1  0
 16 17  2  0
 11  6  2  0
 17 12  1  0
  1 18  1  0
  1 19  1  0
  1 20  1  0
  2 21  1  0
  5 22  1  0
  5 23  1  0
 13 24  1  0
 14 25  1  0
 15 26  1  0
 16 27  1  0
 17 28  1  0
M  END
>  <UniqueID>  (3) 
3

>  <SMILES>  (3) 
CNC(=O)Cc1oc(=O)oc1-c1ccccc1

>  <Energy>  (3) 
60.49603282467023

>  <Genealogy>  (3) 
CNC(=O)Cc1oc(=O)oc1-c1ccccc1 (3D coordinates assigned)
CNC(=O)Cc1oc(=O)oc1-c1ccccc1 (optimized conformer: 60.49603282467023 kcal/mol)

>  <smiles>  (3) 
CNC(=O)Cc1oc(=O)oc1-c1ccccc1

>  <score_type>  (3) 
oracle

>  <origin>  (3) 
adg

>  <m_score__min__energy>  (3) 
-7

>  <m_primary>  (3) 
energy

$$$$
3:0
     RDKit          3D

 36 38  0  0  0  0  0  0  0  0999 V2000
   -7.6370   18.4580  -32.2280 O   0  0  0  0  0  0  0  0  0  0  0  0
   -6.5290   18.9240  -32.6140 C   0  0  0  0  0  0  0  0  0  0  0  0
   -5.5810   18.0670  -33.2770 N   0  0  0  0  0  0  0  0  0  0  0  0
   -5.7620   16.6510  -33.4450 C   0  0  0  0  0  0  0  0  0  0  0  0
   -4.8260   15.7260  -32.9460 C   0  0  0  0  0  0  0  0  0  0  0  0
   -5.0130   14.3550  -33.1460 C   0  0  0  0  0  0  0  0  0  0  0  0
   -6.1250   13.8960  -33.8570 C   0  0  0  0  0  0  0  0  0  0  0  0
   -7.0460   14.8080  -34.3770 C   0  0  0  0  0  0  0  0  0  0  0  0
   -6.8620   16.1790  -34.1800 C   0  0  0  0  0  0  0  0  0  0  0  0
   -6.2380   20.3600  -32.3810 C   0  0  0  0  0  0  0  0  0  0  0  0
   -7.2820   21.2360  -32.0360 C   0  0  0  0  0  0  0  0  0  0  0  0
   -7.0300   22.5920  -31.8140 C   0  0  0  0  0  0  0  0  0  0  0  0
   -5.7240   23.0980  -31.9270 C   0  0  0  0  0  0  0  0  0  0  0  0
   -5.4250   24.4880  -31.7300 N   0  0  0  0  0  0  0  0  0  0  0  0
   -5.0760   25.1200  -30.4930 C   0  0  0  0  0  0  0  0  0  0  0  0
   -5.7010   26.1380  -30.0900 O   0  0  0  0  0  0  0  0  0  0  0  0
   -4.0150   24.5390  -29.6630 C   0  0  0  0  0  0  0  0  0  0  0  0
   -4.1680   23.5250  -28.7370 C   0  0  0  0  0  0  0  0  0  0  0  0
   -2.9130   23.3150  -28.2080 C   0  0  0  0  0  0  0  0  0  0  0  0
   -2.0740   24.2090  -28.8410 C   0  0  0  0  0  0  0  0  0  0  0  0
   -2.7600   24.9250  -29.7020 O   0  0  0  0  0  0  0  0  0  0  0  0
   -4.6890   22.2360  -32.3090 C   0  0  0  0  0  0  0  0  0  0  0  0
   -4.9390   20.8790  -32.5300 C   0  0  0  0  0  0  0  0  0  0  0  0
   -4.7300   18.4870  -33.7110 H   0  0  0  0  0  0  0  0  0  0  0  0
   -3.9430   16.0835  -32.3960 H   0  0  0  0  0  0  0  0  0  0  0  0
   -4.2838   13.6367  -32.7431 H   0  0  0  0  0  0  0  0  0  0  0  0
   -6.2749   12.8166  -34.0071 H   0  0  0  0  0  0  0  0  0  0  0  0
   -7.9175   14.4465  -34.9425 H   0  0  0  0  0  0  0  0  0  0  0  0
   -7.5834   16.8934  -34.6033 H   0  0  0  0  0  0  0  0  0  0  0  0
   -8.3075   20.8499  -31.9399 H   0  0  0  0  0  0  0  0  0  0  0  0
   -7.8576   23.2666  -31.5496 H   0  0  0  0  0  0  0  0  0  0  0  0
   -5.0968   22.9963  -28.4767 H   0  0  0  0  0  0  0  0  0  0  0  0
   -2.6358   22.5819  -27.4362 H   0  0  0  0  0  0  0  0  0  0  0  0
   -0.9946   24.3071  -28.6530 H   0  0  0  0  0  0  0  0  0  0  0  0
   -3.6701   22.6304  -32.4363 H   0  0  0  0  0  0  0  0  0  0  0  0
   -4.1145   20.2122  -32.8224 H   0  0  0  0  0  0  0  0  0  0  0  0
  1  2  2  0
  2  3  1  0
  3  4  1  0
  4  5  2  0
  5  6  1  0
  6  7  2  0
  7  8  1  0
  8  9  2  0
  2 10  1  0
 10 11  2  0
 11 12  1  0
 12 13  2  0
 13 14  1  0
 14 15  1  0
 15 16  2  0
 15 17  1  0
 17 18  2  0
 18 19  1  0
 19 20  2  0
 20 21  1  0
 13 22  1  0
 22 23  2  0
  9  4  1  0
 23 10  1  0
 21 17  1  0
  3 24  1  0
  5 25  1  0
  6 26  1  0
  7 27  1  0
  8 28  1  0
  9 29  1  0
 11 30  1  0
 12 31  1  0
 18 32  1  0
 19 33  1  0
 20 34  1  0
 22 35  1  0
 23 36  1  0
M  CHG  1  14  -1
M  END
>  <UniqueID>  (4) 
4

>  <SMILES>  (4) 
O=C(Nc1ccccc1)c1ccc([N-]C(=O)c2ccco2)cc1

>  <Energy>  (4) 
74.0613404057591

>  <Genealogy>  (4) 
O=C(Nc1ccccc1)c1ccc([N-]C(=O)c2ccco2)cc1 (protonated)
O=C(Nc1ccccc1)c1ccc([N-]C(=O)c2ccco2)cc1 (3D coordinates assigned)
O=C(Nc1ccccc1)c1ccc([N-]C(=O)c2ccco2)cc1 (optimized conformer: 74.0613404057591 kcal/mol)

>  <smiles>  (4) 
O=C(Nc1ccccc1)c1ccc(NC(=O)c2ccco2)cc1

>  <score_type>  (4) 
oracle

>  <origin>  (4) 
adg

>  <m_score__min__energy>  (4) 
-8.8499999999999996

>  <m_primary>  (4) 
energy

$$$$
4:0
     RDKit          3D

 48 51  0  0  0  0  0  0  0  0999 V2000
   -1.1840   25.7110  -26.9470 C   0  0  0  0  0  0  0  0  0  0  0  0
   -2.3730   25.6760  -26.2140 C   0  0  0  0  0  0  0  0  0  0  0  0
   -3.4560   24.9200  -26.6720 C   0  0  0  0  0  0  0  0  0  0  0  0
   -3.3610   24.2080  -27.8790 C   0  0  0  0  0  0  0  0  0  0  0  0
   -2.1640   24.2430  -28.6130 C   0  0  0  0  0  0  0  0  0  0  0  0
   -1.0740   24.9910  -28.1390 C   0  0  0  0  0  0  0  0  0  0  0  0
   -2.0590   23.4350  -29.8700 C   0  0  0  0  0  0  0  0  0  0  0  0
   -3.3710   23.5220  -30.6540 C   0  0  0  0  0  0  0  0  0  0  0  0
   -4.5390   23.1920  -29.8150 N   0  0  0  0  0  0  0  0  0  0  0  0
   -5.7610   22.7470  -30.4500 C   0  0  0  0  0  0  0  0  0  0  0  0
   -5.8160   22.5420  -31.8410 C   0  0  0  0  0  0  0  0  0  0  0  0
   -6.9970   22.1110  -32.4520 C   0  0  0  0  0  0  0  0  0  0  0  0
   -8.1480   21.8770  -31.6860 C   0  0  0  0  0  0  0  0  0  0  0  0
   -9.4170   21.3950  -32.3490 C   0  0  0  0  0  0  0  0  0  0  0  0
   -9.2980   20.0160  -32.8530 N   0  0  0  0  0  0  0  0  0  0  0  0
   -8.3830   19.1900  -32.0500 C   0  0  0  0  0  0  0  0  0  0  0  0
   -7.3420   18.5400  -32.9230 C   0  0  0  0  0  0  0  0  0  0  0  0
   -7.1890   17.1470  -32.9190 C   0  0  0  0  0  0  0  0  0  0  0  0
   -6.2110   16.5600  -33.7270 C   0  0  0  0  0  0  0  0  0  0  0  0
   -5.4150   17.3360  -34.5090 N   0  0  0  0  0  0  0  0  0  0  0  0
   -5.5430   18.6900  -34.5330 C   0  0  0  0  0  0  0  0  0  0  0  0
   -6.5080   19.3180  -33.7420 C   0  0  0  0  0  0  0  0  0  0  0  0
   -8.1020   22.0820  -30.3000 C   0  0  0  0  0  0  0  0  0  0  0  0
   -6.9220   22.5130  -29.6870 C   0  0  0  0  0  0  0  0  0  0  0  0
   -4.5040   23.3410  -28.3460 C   0  0  0  0  0  0  0  0  0  0  0  0
   -0.3331   26.3066  -26.5848 H   0  0  0  0  0  0  0  0  0  0  0  0
   -2.4570   26.2439  -25.2757 H   0  0  0  0  0  0  0  0  0  0  0  0
   -4.3857   24.8826  -26.0852 H   0  0  0  0  0  0  0  0  0  0  0  0
   -0.1323   25.0099  -28.7072 H   0  0  0  0  0  0  0  0  0  0  0  0
   -1.2376   23.8265  -30.4881 H   0  0  0  0  0  0  0  0  0  0  0  0
   -1.8600   22.3847  -29.6108 H   0  0  0  0  0  0  0  0  0  0  0  0
   -3.4878   24.5460  -31.0384 H   0  0  0  0  0  0  0  0  0  0  0  0
   -3.3252   22.7916  -31.4752 H   0  0  0  0  0  0  0  0  0  0  0  0
   -4.9206   22.7227  -32.4538 H   0  0  0  0  0  0  0  0  0  0  0  0
   -7.0237   21.9544  -33.5405 H   0  0  0  0  0  0  0  0  0  0  0  0
  -10.2356   21.4336  -31.6153 H   0  0  0  0  0  0  0  0  0  0  0  0
   -9.6159   22.0507  -33.2095 H   0  0  0  0  0  0  0  0  0  0  0  0
   -8.9470   20.0390  -33.8400 H   0  0  0  0  0  0  0  0  0  0  0  0
   -7.8826   19.8264  -31.3053 H   0  0  0  0  0  0  0  0  0  0  0  0
   -8.9661   18.4019  -31.5511 H   0  0  0  0  0  0  0  0  0  0  0  0
   -7.8335   16.5204  -32.2850 H   0  0  0  0  0  0  0  0  0  0  0  0
   -6.0853   15.4672  -33.7300 H   0  0  0  0  0  0  0  0  0  0  0  0
   -4.8849   19.2919  -35.1769 H   0  0  0  0  0  0  0  0  0  0  0  0
   -6.6137   20.4128  -33.7606 H   0  0  0  0  0  0  0  0  0  0  0  0
   -9.0002   21.9025  -29.6909 H   0  0  0  0  0  0  0  0  0  0  0  0
   -6.8997   22.6710  -28.5986 H   0  0  0  0  0  0  0  0  0  0  0  0
   -5.4494   23.7957  -28.0152 H   0  0  0  0  0  0  0  0  0  0  0  0
   -4.3623   22.3400  -27.9124 H   0  0  0  0  0  0  0  0  0  0  0  0
  1  2  2  0
  2  3  1  0
  3  4  2  0
  4  5  1  0
  5  6  2  0
  5  7  1  0
  7  8  1  0
  8  9  1  0
  9 10  1  0
 10 11  2  0
 11 12  1  0
 12 13  2  0
 13 14  1  0
 14 15  1  0
 15 16  1  0
 16 17  1  0
 17 18  2  0
 18 19  1  0
 19 20  2  0
 20 21  1  0
 21 22  2  0
 13 23  1  0
 23 24  2  0
  9 25  1  0
  6  1  1  0
 24 10  1  0
 25  4  1  0
 22 17  1  0
  1 26  1  0
  2 27  1  0
  3 28  1  0
  6 29  1  0
  7 30  1  0
  7 31  1  0
  8 32  1  0
  8 33  1  0
 11 34  1  0
 12 35  1  0
 14 36  1  0
 14 37  1  0
 15 38  1  0
 16 39  1  0
 16 40  1  0
 18 41  1  0
 19 42  1  0
 21 43  1  0
 22 44  1  0
 23 45  1  0
 24 46  1  0
 25 47  1  0
 25 48  1  0
M  END
>  <UniqueID>  (5) 
5

>  <SMILES>  (5) 
c1ccc2c(c1)CCN(c1ccc(CNCc3ccncc3)cc1)C2

>  <Energy>  (5) 
58.126617391625075

>  <Genealogy>  (5) 
c1ccc2c(c1)CCN(c1ccc(CNCc3ccncc3)cc1)C2 (3D coordinates assigned)
c1ccc2c(c1)CCN(c1ccc(CNCc3ccncc3)cc1)C2 (nonaromatic ring conformer: 58.126617391625075 kcal/mol)

>  <smiles>  (5) 
c1ccc2c(c1)CCN(c1ccc(CNCc3ccncc3)cc1)C2

>  <score_type>  (5) 
oracle

>  <origin>  (5) 
adg

>  <m_score__min__energy>  (5) 
-8.8000000000000007

>  <m_primary>  (5) 
energy

$$$$
5:0
     RDKit          3D

 38 39  0  0  0  0  0  0  0  0999 V2000
   -5.6510   16.1930  -33.8700 C   0  0  0  0  0  0  0  0  0  0  0  0
   -6.9370   16.6090  -33.4220 O   0  0  0  0  0  0  0  0  0  0  0  0
   -7.2430   17.9080  -32.9890 C   0  0  0  0  0  0  0  0  0  0  0  0
   -6.5370   19.0390  -33.4340 C   0  0  0  0  0  0  0  0  0  0  0  0
   -6.8800   20.3140  -32.9760 C   0  0  0  0  0  0  0  0  0  0  0  0
   -7.9390   20.4900  -32.0620 C   0  0  0  0  0  0  0  0  0  0  0  0
   -8.3270   21.8340  -31.5460 C   0  0  0  0  0  0  0  0  0  0  0  0
   -8.9140   21.9160  -30.4320 O   0  0  0  0  0  0  0  0  0  0  0  0
   -8.0650   23.1180  -32.2950 C   0  0  0  0  0  0  0  0  0  0  0  0
   -6.7050   23.7420  -31.9200 C   0  0  0  0  0  0  0  0  0  0  0  0
   -6.4300   23.7220  -30.4560 N   0  0  0  0  0  0  0  0  0  0  0  0
   -6.5350   25.0770  -29.8730 C   0  0  0  0  0  0  0  0  0  0  0  0
   -5.3750   25.9940  -30.3330 C   0  0  0  0  0  0  0  0  0  0  0  0
   -4.2660   25.2790  -30.8490 O   0  0  0  0  0  0  0  0  0  0  0  0
   -3.9840   24.1650  -30.0320 C   0  0  0  0  0  0  0  0  0  0  0  0
   -5.1100   23.1160  -30.1360 C   0  0  0  0  0  0  0  0  0  0  0  0
   -8.6360   19.3500  -31.6190 C   0  0  0  0  0  0  0  0  0  0  0  0
   -8.2920   18.0760  -32.0800 C   0  0  0  0  0  0  0  0  0  0  0  0
   -5.0094   15.9855  -33.0009 H   0  0  0  0  0  0  0  0  0  0  0  0
   -5.7515   15.2815  -34.4776 H   0  0  0  0  0  0  0  0  0  0  0  0
   -5.1986   16.9906  -34.4776 H   0  0  0  0  0  0  0  0  0  0  0  0
   -5.7086   18.9197  -34.1478 H   0  0  0  0  0  0  0  0  0  0  0  0
   -6.3177   21.1897  -33.3324 H   0  0  0  0  0  0  0  0  0  0  0  0
   -8.0726   22.9067  -33.3745 H   0  0  0  0  0  0  0  0  0  0  0  0
   -8.8532   23.8355  -32.0229 H   0  0  0  0  0  0  0  0  0  0  0  0
   -5.9101   23.1799  -32.4321 H   0  0  0  0  0  0  0  0  0  0  0  0
   -6.7341   24.7967  -32.2312 H   0  0  0  0  0  0  0  0  0  0  0  0
   -7.1710   23.1500  -29.9870 H   0  0  0  0  0  0  0  0  0  0  0  0
   -7.4891   25.5261  -30.1860 H   0  0  0  0  0  0  0  0  0  0  0  0
   -6.4819   24.9826  -28.7783 H   0  0  0  0  0  0  0  0  0  0  0  0
   -5.7520   26.6670  -31.1172 H   0  0  0  0  0  0  0  0  0  0  0  0
   -5.0242   26.5445  -29.4476 H   0  0  0  0  0  0  0  0  0  0  0  0
   -3.0358   23.7106  -30.3551 H   0  0  0  0  0  0  0  0  0  0  0  0
   -3.9085   24.5016  -28.9875 H   0  0  0  0  0  0  0  0  0  0  0  0
   -4.8506   22.3984  -30.9284 H   0  0  0  0  0  0  0  0  0  0  0  0
   -5.1984   22.6246  -29.1559 H   0  0  0  0  0  0  0  0  0  0  0  0
   -9.4617   19.4632  -30.9011 H   0  0  0  0  0  0  0  0  0  0  0  0
   -8.8514   17.1981  -31.7246 H   0  0  0  0  0  0  0  0  0  0  0  0
  1  2  1  0
  2  3  1  0
  3  4  2  0
  4  5  1  0
  5  6  2  0
  6  7  1  0
  7  8  2  0
  7  9  1  0
  9 10  1  0
 10 11  1  0
 11 12  1  0
 12 13  1  0
 13 14  1  0
 14 15  1  0
 15 16  1  0
  6 17  1  0
 17 18  2  0
 18  3  1  0
 16 11  1  0
  1 19  1  0
  1 20  1  0
  1 21  1  0
  4 22  1  0
  5 23  1  0
  9 24  1  0
  9 25  1  0
 10 26  1  0
 10 27  1  0
 11 28  1  0
 12 29  1  0
 12 30  1  0
 13 31  1  0
 13 32  1  0
 15 33  1  0
 15 34  1  0
 16 35  1  0
 16 36  1  0
 17 37  1  0
 18 38  1  0
M  CHG  1  11   1
M  END
>  <UniqueID>  (6) 
6

>  <SMILES>  (6) 
COc1ccc(C(=O)CC[NH+]2CCOCC2)cc1

>  <Energy>  (6) 
50.569017236200985

>  <Genealogy>  (6) 
COc1ccc(C(=O)CC[NH+]2CCOCC2)cc1 (protonated)
COc1ccc(C(=O)CC[NH+]2CCOCC2)cc1 (3D coordinates assigned)
COc1ccc(C(=O)CC[NH+]2CCOCC2)cc1 (nonaromatic ring conformer: 50.569017236200985 kcal/mol)

>  <smiles>  (6) 
COc1ccc(C(=O)CCN2CCOCC2)cc1

>  <score_type>  (6) 
oracle

>  <origin>  (6) 
adg

>  <m_score__min__energy>  (6) 
-6.96

>  <m_primary>  (6) 
energy

$$$$
6:0
     RDKit          3D

 66 69  0  0  0  0  0  0  0  0999 V2000
   -0.5840   21.1510  -32.0590 C   0  0  0  0  0  0  0  0  0  0  0  0
   -1.1700   19.7750  -31.7300 C   0  0  0  0  0  0  0  0  0  0  0  0
   -0.6240   19.2090  -30.4850 N   0  0  0  0  0  0  0  0  0  0  0  0
    0.7730   19.6100  -30.2600 C   0  0  0  0  0  0  0  0  0  0  0  0
    1.1830   19.3620  -28.8040 C   0  0  0  0  0  0  0  0  0  0  0  0
    0.7440   20.5100  -27.8800 C   0  0  0  0  0  0  0  0  0  0  0  0
   -0.6270   20.2880  -27.3120 C   0  0  0  0  0  0  0  0  0  0  0  0
   -1.2540   19.2180  -27.5450 O   0  0  0  0  0  0  0  0  0  0  0  0
   -1.2000   21.2970  -26.4740 N   0  0  0  0  0  0  0  0  0  0  0  0
   -1.4110   22.6640  -26.8470 C   0  0  0  0  0  0  0  0  0  0  0  0
   -1.1650   23.6770  -25.9010 C   0  0  0  0  0  0  0  0  0  0  0  0
   -1.3960   25.0300  -26.2140 C   0  0  0  0  0  0  0  0  0  0  0  0
   -1.8930   25.3960  -27.4730 C   0  0  0  0  0  0  0  0  0  0  0  0
   -2.1320   24.3870  -28.4020 C   0  0  0  0  0  0  0  0  0  0  0  0
   -1.9150   23.0470  -28.1040 C   0  0  0  0  0  0  0  0  0  0  0  0
   -2.4600   22.2540  -29.2190 C   0  0  0  0  0  0  0  0  0  0  0  0
   -2.6890   21.0160  -29.2250 O   0  0  0  0  0  0  0  0  0  0  0  0
   -2.9080   23.2180  -30.2220 C   0  0  0  0  0  0  0  0  0  0  0  0
   -2.7510   24.4690  -29.7180 C   0  0  0  0  0  0  0  0  0  0  0  0
   -3.7620   25.2650  -30.1020 N   0  0  0  0  0  0  0  0  0  0  0  0
   -4.5360   24.5530  -30.9150 N   0  0  0  0  0  0  0  0  0  0  0  0
   -4.0580   23.2870  -30.9810 C   0  0  0  0  0  0  0  0  0  0  0  0
   -4.7180   22.1850  -31.7140 C   0  0  0  0  0  0  0  0  0  0  0  0
   -6.0970   21.9610  -31.5750 C   0  0  0  0  0  0  0  0  0  0  0  0
   -6.7110   20.8850  -32.2240 C   0  0  0  0  0  0  0  0  0  0  0  0
   -5.9580   20.0210  -33.0400 C   0  0  0  0  0  0  0  0  0  0  0  0
   -6.5510   18.8800  -33.6910 N   0  0  0  0  0  0  0  0  0  0  0  0
   -6.7220   17.5880  -33.0890 C   0  0  0  0  0  0  0  0  0  0  0  0
   -6.7850   17.4690  -31.8370 O   0  0  0  0  0  0  0  0  0  0  0  0
   -6.9200   16.3800  -33.9540 C   0  0  0  0  0  0  0  0  0  0  0  0
   -5.5910   15.6610  -34.1970 C   0  0  0  0  0  0  0  0  0  0  0  0
   -4.7570   15.7010  -32.9850 N   0  0  0  0  0  0  0  0  0  0  0  0
   -3.6060   16.6150  -33.1110 C   0  0  0  0  0  0  0  0  0  0  0  0
   -3.5170   17.2580  -34.4970 C   0  0  0  0  0  0  0  0  0  0  0  0
   -4.5770   20.2380  -33.1650 C   0  0  0  0  0  0  0  0  0  0  0  0
   -3.9610   21.3070  -32.5050 C   0  0  0  0  0  0  0  0  0  0  0  0
   -0.3564   21.6855  -31.1249 H   0  0  0  0  0  0  0  0  0  0  0  0
    0.3390   21.0261  -32.6442 H   0  0  0  0  0  0  0  0  0  0  0  0
   -1.3137   21.7299  -32.6442 H   0  0  0  0  0  0  0  0  0  0  0  0
   -2.2605   19.8729  -31.6238 H   0  0  0  0  0  0  0  0  0  0  0  0
   -0.9014   19.0940  -32.5510 H   0  0  0  0  0  0  0  0  0  0  0  0
   -1.2060   19.5240  -29.6730 H   0  0  0  0  0  0  0  0  0  0  0  0
    1.4273   19.0254  -30.9234 H   0  0  0  0  0  0  0  0  0  0  0  0
    0.8704   20.6843  -30.4755 H   0  0  0  0  0  0  0  0  0  0  0  0
    0.7160   18.4283  -28.4574 H   0  0  0  0  0  0  0  0  0  0  0  0
    2.2803   19.2951  -28.7660 H   0  0  0  0  0  0  0  0  0  0  0  0
    1.4620   20.5915  -27.0507 H   0  0  0  0  0  0  0  0  0  0  0  0
    0.7163   21.4329  -28.4779 H   0  0  0  0  0  0  0  0  0  0  0  0
   -0.7871   23.4077  -24.9036 H   0  0  0  0  0  0  0  0  0  0  0  0
   -1.1848   25.8068  -25.4644 H   0  0  0  0  0  0  0  0  0  0  0  0
   -2.0884   26.4500  -27.7196 H   0  0  0  0  0  0  0  0  0  0  0  0
   -6.6994   22.6372  -30.9506 H   0  0  0  0  0  0  0  0  0  0  0  0
   -7.7899   20.7131  -32.0956 H   0  0  0  0  0  0  0  0  0  0  0  0
   -6.8650   18.9920  -34.6820 H   0  0  0  0  0  0  0  0  0  0  0  0
   -7.6172   15.6903  -33.4559 H   0  0  0  0  0  0  0  0  0  0  0  0
   -7.3278   16.7036  -34.9230 H   0  0  0  0  0  0  0  0  0  0  0  0
   -5.7897   14.6130  -34.4658 H   0  0  0  0  0  0  0  0  0  0  0  0
   -5.0563   16.1661  -35.0149 H   0  0  0  0  0  0  0  0  0  0  0  0
   -5.3470   15.9930  -32.1710 H   0  0  0  0  0  0  0  0  0  0  0  0
   -3.7038   17.4112  -32.3584 H   0  0  0  0  0  0  0  0  0  0  0  0
   -2.6913   16.0236  -32.9576 H   0  0  0  0  0  0  0  0  0  0  0  0
   -3.3669   18.3424  -34.3892 H   0  0  0  0  0  0  0  0  0  0  0  0
   -2.6704   16.8237  -35.0490 H   0  0  0  0  0  0  0  0  0  0  0  0
   -4.4497   17.0700  -35.0490 H   0  0  0  0  0  0  0  0  0  0  0  0
   -3.9733   19.5614  -33.7876 H   0  0  0  0  0  0  0  0  0  0  0  0
   -2.8765   21.4602  -32.6068 H   0  0  0  0  0  0  0  0  0  0  0  0
  1  2  1  0
  2  3  1  0
  3  4  1  0
  4  5  1  0
  5  6  1  0
  6  7  1  0
  7  8  2  0
  7  9  1  0
  9 10  1  0
 10 11  2  0
 11 12  1  0
 12 13  2  0
 13 14  1  0
 14 15  2  0
 15 16  1  0
 16 17  2  0
 16 18  1  0
 18 19  1  0
 19 20  2  0
 20 21  1  0
 21 22  1  0
 22 23  1  0
 23 24  2  0
 24 25  1  0
 25 26  2  0
 26 27  1  0
 27 28  1  0
 28 29  2  0
 28 30  1  0
 30 31  1  0
 31 32  1  0
 32 33  1  0
 33 34  1  0
 26 35  1  0
 35 36  2  0
 15 10  1  0
 22 18  2  0
 36 23  1  0
 19 14  1  0
  1 37  1  0
  1 38  1  0
  1 39  1  0
  2 40  1  0
  2 41  1  0
  3 42  1  0
  4 43  1  0
  4 44  1  0
  5 45  1  0
  5 46  1  0
  6 47  1  0
  6 48  1  0
 11 49  1  0
 12 50  1  0
 13 51  1  0
 24 52  1  0
 25 53  1  0
 27 54  1  0
 30 55  1  0
 30 56  1  0
 31 57  1  0
 31 58  1  0
 32 59  1  0
 33 60  1  0
 33 61  1  0
 34 62  1  0
 34 63  1  0
 34 64  1  0
 35 65  1  0
 36 66  1  0
M  CHG  2   9  -1  21  -1
M  END
>  <UniqueID>  (7) 
7

>  <SMILES>  (7) 
CCNCCCC(=O)[N-]c1cccc2c1C(=O)c1c-2n[n-]c1-c1ccc(NC(=O)CCNCC)cc1

>  <Energy>  (7) 
155.10271893384328

>  <Genealogy>  (7) 
CCNCCCC(=O)[N-]c1cccc2c1C(=O)c1c-2n[n-]c1-c1ccc(NC(=O)CCNCC)cc1 (protonated)
CCNCCCC(=O)[N-]c1cccc2c1C(=O)c1c-2n[n-]c1-c1ccc(NC(=O)CCNCC)cc1 (3D coordinates assigned)
CCNCCCC(=O)[N-]c1cccc2c1C(=O)c1c-2n[n-]c1-c1ccc(NC(=O)CCNCC)cc1 (nonaromatic ring conformer: 155.10271893384328 kcal/mol)

>  <smiles>  (7) 
CCNCCCC(=O)Nc1cccc2c1C(=O)c1c-2n[nH]c1-c1ccc(NC(=O)CCNCC)cc1

>  <score_type>  (7) 
oracle

>  <origin>  (7) 
adg

>  <m_score__min__energy>  (7) 
-10.24

>  <m_primary>  (7) 
energy

$$$$
7:0
     RDKit          3D

 43 45  0  0  0  0  0  0  0  0999 V2000
   -0.8290   26.5430  -27.8700 C   0  0  0  0  0  0  0  0  0  0  0  0
   -1.5720   25.9620  -28.9180 O   0  0  0  0  0  0  0  0  0  0  0  0
   -2.1330   24.7270  -28.5090 C   0  0  0  0  0  0  0  0  0  0  0  0
   -2.9370   24.1180  -29.6520 C   0  0  0  0  0  0  0  0  0  0  0  0
   -3.5190   25.1750  -30.4690 N   0  0  0  0  0  0  0  0  0  0  0  0
   -4.9240   25.2920  -30.7070 C   0  0  0  0  0  0  0  0  0  0  0  0
   -5.5180   26.3680  -30.4220 O   0  0  0  0  0  0  0  0  0  0  0  0
   -5.6790   24.1560  -31.2860 C   0  0  0  0  0  0  0  0  0  0  0  0
   -7.0860   24.1650  -31.2980 C   0  0  0  0  0  0  0  0  0  0  0  0
   -7.7960   23.0990  -31.8550 C   0  0  0  0  0  0  0  0  0  0  0  0
   -7.1140   22.0080  -32.3970 C   0  0  0  0  0  0  0  0  0  0  0  0
   -5.7140   21.9700  -32.3690 C   0  0  0  0  0  0  0  0  0  0  0  0
   -4.9880   20.8380  -32.9670 C   0  0  0  0  0  0  0  0  0  0  0  0
   -3.7760   20.9790  -33.5530 N   0  0  0  0  0  0  0  0  0  0  0  0
   -3.4120   19.8210  -34.0920 N   0  0  0  0  0  0  0  0  0  0  0  0
   -4.3990   18.9430  -33.8470 C   0  0  0  0  0  0  0  0  0  0  0  0
   -4.4730   17.6120  -34.2110 C   0  0  0  0  0  0  0  0  0  0  0  0
   -3.5300   17.0800  -34.8580 O   0  0  0  0  0  0  0  0  0  0  0  0
   -5.5920   16.8970  -33.8540 N   0  0  0  0  0  0  0  0  0  0  0  0
   -5.7040   15.4770  -34.2240 C   0  0  0  0  0  0  0  0  0  0  0  0
   -6.5770   17.4870  -33.0770 C   0  0  0  0  0  0  0  0  0  0  0  0
   -7.5780   16.8050  -32.7200 O   0  0  0  0  0  0  0  0  0  0  0  0
   -6.4750   18.8080  -32.6850 N   0  0  0  0  0  0  0  0  0  0  0  0
   -7.4860   19.4070  -31.8010 C   0  0  0  0  0  0  0  0  0  0  0  0
   -5.4000   19.5220  -33.1400 C   0  0  0  0  0  0  0  0  0  0  0  0
   -5.0000   23.0520  -31.8350 C   0  0  0  0  0  0  0  0  0  0  0  0
   -1.2430   26.2192  -26.9037 H   0  0  0  0  0  0  0  0  0  0  0  0
    0.2211   26.2240  -27.9443 H   0  0  0  0  0  0  0  0  0  0  0  0
   -0.8854   27.6390  -27.9443 H   0  0  0  0  0  0  0  0  0  0  0  0
   -1.3257   24.0368  -28.2228 H   0  0  0  0  0  0  0  0  0  0  0  0
   -2.7981   24.8984  -27.6498 H   0  0  0  0  0  0  0  0  0  0  0  0
   -2.2741   23.4992  -30.2747 H   0  0  0  0  0  0  0  0  0  0  0  0
   -3.7439   23.4970  -29.2358 H   0  0  0  0  0  0  0  0  0  0  0  0
   -7.6305   25.0175  -30.8657 H   0  0  0  0  0  0  0  0  0  0  0  0
   -8.8958   23.1191  -31.8667 H   0  0  0  0  0  0  0  0  0  0  0  0
   -7.6770   21.1769  -32.8468 H   0  0  0  0  0  0  0  0  0  0  0  0
   -5.7524   14.8633  -33.3124 H   0  0  0  0  0  0  0  0  0  0  0  0
   -6.6170   15.3238  -34.8181 H   0  0  0  0  0  0  0  0  0  0  0  0
   -4.8263   15.1826  -34.8181 H   0  0  0  0  0  0  0  0  0  0  0  0
   -7.2017   19.2386  -30.7518 H   0  0  0  0  0  0  0  0  0  0  0  0
   -7.5485   20.4880  -31.9950 H   0  0  0  0  0  0  0  0  0  0  0  0
   -8.4641   18.9426  -31.9950 H   0  0  0  0  0  0  0  0  0  0  0  0
   -3.9001   23.0380  -31.8452 H   0  0  0  0  0  0  0  0  0  0  0  0
  1  2  1  0
  2  3  1  0
  3  4  1  0
  4  5  1  0
  5  6  1  0
  6  7  2  0
  6  8  1  0
  8  9  2  0
  9 10  1  0
 10 11  2  0
 11 12  1  0
 12 13  1  0
 13 14  1  0
 14 15  1  0
 15 16  2  0
 16 17  1  0
 17 18  2  0
 17 19  1  0
 19 20  1  0
 19 21  1  0
 21 22  2  0
 21 23  1  0
 23 24  1  0
 23 25  1  0
 12 26  2  0
 26  8  1  0
 25 13  2  0
 25 16  1  0
  1 27  1  0
  1 28  1  0
  1 29  1  0
  3 30  1  0
  3 31  1  0
  4 32  1  0
  4 33  1  0
  9 34  1  0
 10 35  1  0
 11 36  1  0
 20 37  1  0
 20 38  1  0
 20 39  1  0
 24 40  1  0
 24 41  1  0
 24 42  1  0
 26 43  1  0
M  CHG  2   5  -1  14  -1
M  END
>  <UniqueID>  (8) 
8

>  <SMILES>  (8) 
COCC[N-]C(=O)c1cccc(-c2[n-]nc3c(=O)n(C)c(=O)n(C)c23)c1

>  <Energy>  (8) 
98.86087527915703

>  <Genealogy>  (8) 
COCC[N-]C(=O)c1cccc(-c2[n-]nc3c(=O)n(C)c(=O)n(C)c23)c1 (protonated)
COCC[N-]C(=O)c1cccc(-c2[n-]nc3c(=O)n(C)c(=O)n(C)c23)c1 (3D coordinates assigned)
COCC[N-]C(=O)c1cccc(-c2[n-]nc3c(=O)n(C)c(=O)n(C)c23)c1 (optimized conformer: 98.86087527915703 kcal/mol)

>  <smiles>  (8) 
COCCNC(=O)c1cccc(-c2[nH]nc3c(=O)n(C)c(=O)n(C)c23)c1

>  <score_type>  (8) 
oracle

>  <origin>  (8) 
adg

>  <m_score__min__energy>  (8) 
-10.41

>  <m_primary>  (8) 
energy

$$$$
8:0
     RDKit          3D

 40 41  0  0  0  0  0  0  0  0999 V2000
   -5.8793   22.5642  -29.1371 H   0  0  0  0  0  0  0  0  0  0  0  0
   -5.0700   23.2760  -29.3570 C   0  0  0  0  0  0  0  0  0  0  0  0
   -3.6330   23.4380  -28.4950 S   0  0  0  0  0  0  0  0  0  0  0  0
   -3.0600   24.6650  -29.4860 C   0  0  0  0  0  0  0  0  0  0  0  0
   -1.9280   25.2750  -29.2950 N   0  0  0  0  0  0  0  0  0  0  0  0
   -0.7230   24.6640  -28.8190 C   0  0  0  0  0  0  0  0  0  0  0  0
   -0.3690   23.5560  -29.3010 O   0  0  0  0  0  0  0  0  0  0  0  0
    0.0960   25.3180  -27.8410 N   0  0  0  0  0  0  0  0  0  0  0  0
   -0.3980   26.2940  -26.8740 C   0  0  0  0  0  0  0  0  0  0  0  0
   -1.0897   26.9824  -27.3816 H   0  0  0  0  0  0  0  0  0  0  0  0
    0.4634   26.8401  -26.4621 H   0  0  0  0  0  0  0  0  0  0  0  0
   -1.1380   25.6070  -25.7110 C   0  0  0  0  0  0  0  0  0  0  0  0
   -0.7010   24.6035  -25.6016 H   0  0  0  0  0  0  0  0  0  0  0  0
   -2.6330   25.4320  -26.0090 C   0  0  0  0  0  0  0  0  0  0  0  0
   -3.1903   25.3668  -25.0629 H   0  0  0  0  0  0  0  0  0  0  0  0
   -2.9946   26.2939  -26.5889 H   0  0  0  0  0  0  0  0  0  0  0  0
   -2.7858   24.5098  -26.5889 H   0  0  0  0  0  0  0  0  0  0  0  0
   -0.9320   26.3640  -24.3930 C   0  0  0  0  0  0  0  0  0  0  0  0
   -1.1168   25.6851  -23.5475 H   0  0  0  0  0  0  0  0  0  0  0  0
    0.1009   26.7391  -24.3432 H   0  0  0  0  0  0  0  0  0  0  0  0
   -1.6324   27.2107  -24.3432 H   0  0  0  0  0  0  0  0  0  0  0  0
   -3.9390   24.9790  -30.4650 N   0  0  0  0  0  0  0  0  0  0  0  0
   -5.0540   24.2030  -30.3990 C   0  0  0  0  0  0  0  0  0  0  0  0
   -6.2160   24.4160  -31.3240 C   0  0  0  0  0  0  0  0  0  0  0  0
   -7.1506   24.3001  -30.7556 H   0  0  0  0  0  0  0  0  0  0  0  0
   -6.1369   25.4278  -31.7482 H   0  0  0  0  0  0  0  0  0  0  0  0
   -6.2090   23.4080  -32.4820 C   0  0  0  0  0  0  0  0  0  0  0  0
   -6.4498   23.9377  -33.4155 H   0  0  0  0  0  0  0  0  0  0  0  0
   -5.2090   22.9523  -32.5301 H   0  0  0  0  0  0  0  0  0  0  0  0
   -7.2150   22.3040  -32.2750 C   0  0  0  0  0  0  0  0  0  0  0  0
   -6.9310   20.9960  -32.7030 C   0  0  0  0  0  0  0  0  0  0  0  0
   -5.9651   20.7729  -33.1797 H   0  0  0  0  0  0  0  0  0  0  0  0
   -7.8720   19.9770  -32.5250 C   0  0  0  0  0  0  0  0  0  0  0  0
   -7.6384   18.9516  -32.8475 H   0  0  0  0  0  0  0  0  0  0  0  0
   -9.1090   20.2590  -31.9380 C   0  0  0  0  0  0  0  0  0  0  0  0
   -9.8493   19.4567  -31.8028 H   0  0  0  0  0  0  0  0  0  0  0  0
   -9.4050   21.5600  -31.5230 C   0  0  0  0  0  0  0  0  0  0  0  0
  -10.3806   21.7824  -31.0661 H   0  0  0  0  0  0  0  0  0  0  0  0
   -8.4620   22.5800  -31.6880 C   0  0  0  0  0  0  0  0  0  0  0  0
   -8.6973   23.6023  -31.3570 H   0  0  0  0  0  0  0  0  0  0  0  0
  1  2  1  0
  2  3  1  0
  3  4  1  0
  4  5  2  0
  5  6  1  0
  6  7  2  0
  6  8  1  0
  8  9  1  0
  9 10  1  0
  9 11  1  0
  9 12  1  0
 12 13  1  0
 12 14  1  0
 14 15  1  0
 14 16  1  0
 14 17  1  0
 12 18  1  0
 18 19  1  0
 18 20  1  0
 18 21  1  0
  4 22  1  0
 22 23  1  0
 23 24  1  0
 24 25  1  0
 24 26  1  0
 24 27  1  0
 27 28  1  0
 27 29  1  0
 27 30  1  0
 30 31  2  0
 31 32  1  0
 31 33  1  0
 33 34  1  0
 33 35  2  0
 35 36  1  0
 35 37  1  0
 37 38  1  0
 37 39  2  0
 39 40  1  0
 23  2  2  0
 39 30  1  0
M  CHG  2   8  -1  22  -1
M  END
>  <UniqueID>  (9) 
9

>  <SMILES>  (9) 
CC(C)C[N-]C(=O)/N=c1\[n-]c(CCc2ccccc2)cs1

>  <Energy>  (9) 
57.504234819269925

>  <Genealogy>  (9) 
CC(C)C[N-]C(=O)N=c1[n-]c(CCc2ccccc2)cs1 (protonated)
CC(C)C[N-]C(=O)/N=c1\[n-]c(CCc2ccccc2)cs1 (cis-trans isomerization)
CC(C)C[N-]C(=O)/N=c1\[n-]c(CCc2ccccc2)cs1 (3D coordinates assigned)
CC(C)C[N-]C(=O)/N=c1\[n-]c(CCc2ccccc2)cs1 (optimized conformer: 57.504234819269925 kcal/mol)

>  <smiles>  (9) 
CC(C)CNC(=O)N=c1[nH]c(CCc2ccccc2)cs1

>  <score_type>  (9) 
oracle

>  <origin>  (9) 
adg

>  <m_score__min__energy>  (9) 
-10.039999999999999

>  <m_primary>  (9) 
energy

$$$$
9:0
     RDKit          3D

 35 35  0  0  0  0  0  0  0  0999 V2000
   -0.7750   24.4910  -28.9620 C   0  0  0  0  0  0  0  0  0  0  0  0
   -2.1250   24.4350  -28.3830 N   0  0  0  0  0  0  0  0  0  0  0  0
   -2.1500   25.0060  -27.0270 C   0  0  0  0  0  0  0  0  0  0  0  0
   -2.7540   23.0960  -28.4720 C   0  0  0  0  0  0  0  0  0  0  0  0
   -4.2960   23.0920  -28.4680 C   0  0  0  0  0  0  0  0  0  0  0  0
   -4.8250   24.4590  -28.4780 N   0  0  0  0  0  0  0  0  0  0  0  0
   -5.1860   24.9370  -30.1080 S   0  0  0  0  0  0  0  0  0  0  0  0
   -6.0880   26.1410  -30.0960 O   0  0  0  0  0  0  0  0  0  0  0  0
   -3.9100   25.3040  -30.8140 O   0  0  0  0  0  0  0  0  0  0  0  0
   -5.9550   23.5970  -30.9630 C   0  0  0  0  0  0  0  0  0  0  0  0
   -7.3460   23.4280  -30.8920 C   0  0  0  0  0  0  0  0  0  0  0  0
   -7.9600   22.3590  -31.5460 C   0  0  0  0  0  0  0  0  0  0  0  0
   -7.1940   21.4540  -32.2790 C   0  0  0  0  0  0  0  0  0  0  0  0
   -5.8080   21.6080  -32.3520 C   0  0  0  0  0  0  0  0  0  0  0  0
   -5.1720   22.6780  -31.6900 C   0  0  0  0  0  0  0  0  0  0  0  0
   -3.7800   22.8580  -31.7340 O   0  0  0  0  0  0  0  0  0  0  0  0
   -2.8180   21.8110  -31.6640 C   0  0  0  0  0  0  0  0  0  0  0  0
   -1.6260   22.3260  -31.1940 F   0  0  0  0  0  0  0  0  0  0  0  0
   -3.2550   20.8250  -30.7980 F   0  0  0  0  0  0  0  0  0  0  0  0
   -0.0301   24.5219  -28.1532 H   0  0  0  0  0  0  0  0  0  0  0  0
   -0.6051   23.5991  -29.5831 H   0  0  0  0  0  0  0  0  0  0  0  0
   -0.6796   25.3939  -29.5831 H   0  0  0  0  0  0  0  0  0  0  0  0
   -2.1144   24.1935  -26.2863 H   0  0  0  0  0  0  0  0  0  0  0  0
   -1.2798   25.6649  -26.8905 H   0  0  0  0  0  0  0  0  0  0  0  0
   -3.0744   25.5864  -26.8905 H   0  0  0  0  0  0  0  0  0  0  0  0
   -2.4151   22.6225  -29.4052 H   0  0  0  0  0  0  0  0  0  0  0  0
   -2.4456   22.5537  -27.5661 H   0  0  0  0  0  0  0  0  0  0  0  0
   -4.6566   22.5602  -29.3608 H   0  0  0  0  0  0  0  0  0  0  0  0
   -4.6427   22.5888  -27.5534 H   0  0  0  0  0  0  0  0  0  0  0  0
   -5.7270   24.4650  -27.9480 H   0  0  0  0  0  0  0  0  0  0  0  0
   -7.9555   24.1415  -30.3181 H   0  0  0  0  0  0  0  0  0  0  0  0
   -9.0506   22.2303  -31.4829 H   0  0  0  0  0  0  0  0  0  0  0  0
   -7.6819   20.6174  -32.8006 H   0  0  0  0  0  0  0  0  0  0  0  0
   -5.2083   20.8895  -32.9300 H   0  0  0  0  0  0  0  0  0  0  0  0
   -2.6776   21.3790  -32.6658 H   0  0  0  0  0  0  0  0  0  0  0  0
  1  2  1  0
  2  3  1  0
  2  4  1  0
  4  5  1  0
  5  6  1  0
  6  7  1  0
  7  8  2  0
  7  9  2  0
  7 10  1  0
 10 11  2  0
 11 12  1  0
 12 13  2  0
 13 14  1  0
 14 15  2  0
 15 16  1  0
 16 17  1  0
 17 18  1  0
 17 19  1  0
 15 10  1  0
  1 20  1  0
  1 21  1  0
  1 22  1  0
  3 23  1  0
  3 24  1  0
  3 25  1  0
  4 26  1  0
  4 27  1  0
  5 28  1  0
  5 29  1  0
  6 30  1  0
 11 31  1  0
 12 32  1  0
 13 33  1  0
 14 34  1  0
 17 35  1  0
M  END
>  <UniqueID>  (10) 
10

>  <SMILES>  (10) 
CN(C)CCNS(=O)(=O)c1ccccc1OC(F)F

>  <Energy>  (10) 
31.48632207399161

>  <Genealogy>  (10) 
CN(C)CCNS(=O)(=O)c1ccccc1OC(F)F (3D coordinates assigned)
CN(C)CCNS(=O)(=O)c1ccccc1OC(F)F (optimized conformer: 31.48632207399161 kcal/mol)

>  <smiles>  (10) 
CN(C)CCNS(=O)(=O)c1ccccc1OC(F)F

>  <score_type>  (10) 
oracle

>  <origin>  (10) 
adg

>  <m_score__min__energy>  (10) 
-6.3700000000000001

>  <m_primary>  (10) 
energy

$$$$
10:0
     RDKit          3D

 60 63  0  0  0  0  0  0  0  0999 V2000
   -8.6640   22.6850  -31.9720 C   0  0  0  0  0  0  0  0  0  0  0  0
   -9.3600   21.9110  -30.8540 C   0  0  0  0  0  0  0  0  0  0  0  0
   -9.1020   20.5240  -30.9920 O   0  0  0  0  0  0  0  0  0  0  0  0
   -9.4720   20.0780  -32.2810 C   0  0  0  0  0  0  0  0  0  0  0  0
   -8.5980   18.8860  -32.6990 C   0  0  0  0  0  0  0  0  0  0  0  0
   -7.4270   18.6880  -31.8270 N   0  0  0  0  0  0  0  0  0  0  0  0
   -6.3130   19.5180  -32.2170 C   0  0  0  0  0  0  0  0  0  0  0  0
   -5.5680   19.2130  -33.3690 C   0  0  0  0  0  0  0  0  0  0  0  0
   -4.4970   20.0220  -33.7520 C   0  0  0  0  0  0  0  0  0  0  0  0
   -4.1550   21.1420  -32.9910 C   0  0  0  0  0  0  0  0  0  0  0  0
   -3.1150   21.9210  -33.3830 F   0  0  0  0  0  0  0  0  0  0  0  0
   -4.8880   21.4610  -31.8330 C   0  0  0  0  0  0  0  0  0  0  0  0
   -4.5290   22.6380  -31.0150 C   0  0  0  0  0  0  0  0  0  0  0  0
   -5.1990   23.8440  -31.2450 C   0  0  0  0  0  0  0  0  0  0  0  0
   -4.8680   24.9750  -30.5050 C   0  0  0  0  0  0  0  0  0  0  0  0
   -3.8990   24.9120  -29.5590 N   0  0  0  0  0  0  0  0  0  0  0  0
   -3.2260   23.7630  -29.2920 C   0  0  0  0  0  0  0  0  0  0  0  0
   -2.2410   23.7410  -28.2890 C   0  0  0  0  0  0  0  0  0  0  0  0
   -1.8990   24.9320  -27.5680 N   0  0  0  0  0  0  0  0  0  0  0  0
   -0.9500   25.8880  -28.1540 C   0  0  0  0  0  0  0  0  0  0  0  0
   -0.0670   26.5630  -27.0780 C   0  0  0  0  0  0  0  0  0  0  0  0
   -0.5260   26.2850  -25.7020 N   0  0  0  0  0  0  0  0  0  0  0  0
    0.1450   27.1830  -24.7470 C   0  0  0  0  0  0  0  0  0  0  0  0
   -1.9870   26.4250  -25.6060 C   0  0  0  0  0  0  0  0  0  0  0  0
   -2.6400   25.2570  -26.3460 C   0  0  0  0  0  0  0  0  0  0  0  0
   -1.5830   22.5450  -27.9890 C   0  0  0  0  0  0  0  0  0  0  0  0
   -1.8890   21.3770  -28.6850 C   0  0  0  0  0  0  0  0  0  0  0  0
   -2.8560   21.3890  -29.6900 C   0  0  0  0  0  0  0  0  0  0  0  0
   -3.5330   22.5810  -30.0120 C   0  0  0  0  0  0  0  0  0  0  0  0
   -5.9690   20.6520  -31.4560 C   0  0  0  0  0  0  0  0  0  0  0  0
   -7.9894   23.4352  -31.5337 H   0  0  0  0  0  0  0  0  0  0  0  0
   -8.0829   21.9880  -32.5937 H   0  0  0  0  0  0  0  0  0  0  0  0
   -9.4185   23.1891  -32.5937 H   0  0  0  0  0  0  0  0  0  0  0  0
   -8.9814   22.2570  -29.8809 H   0  0  0  0  0  0  0  0  0  0  0  0
  -10.4445   22.0847  -30.9152 H   0  0  0  0  0  0  0  0  0  0  0  0
  -10.5276   19.7687  -32.2697 H   0  0  0  0  0  0  0  0  0  0  0  0
   -9.3295   20.8982  -33.0001 H   0  0  0  0  0  0  0  0  0  0  0  0
   -9.2133   17.9746  -32.6697 H   0  0  0  0  0  0  0  0  0  0  0  0
   -8.2194   19.0981  -33.7098 H   0  0  0  0  0  0  0  0  0  0  0  0
   -7.1340   17.6860  -31.8890 H   0  0  0  0  0  0  0  0  0  0  0  0
   -7.6910   18.8640  -30.8310 H   0  0  0  0  0  0  0  0  0  0  0  0
   -5.8305   18.3315  -33.9724 H   0  0  0  0  0  0  0  0  0  0  0  0
   -3.9205   19.7766  -34.6561 H   0  0  0  0  0  0  0  0  0  0  0  0
   -5.9871   23.8984  -32.0104 H   0  0  0  0  0  0  0  0  0  0  0  0
   -5.3944   25.9234  -30.6882 H   0  0  0  0  0  0  0  0  0  0  0  0
   -0.3000   25.3538  -28.8626 H   0  0  0  0  0  0  0  0  0  0  0  0
   -1.5293   26.6745  -28.6598 H   0  0  0  0  0  0  0  0  0  0  0  0
    0.9631   26.1926  -27.1861 H   0  0  0  0  0  0  0  0  0  0  0  0
   -0.1291   27.6501  -27.2338 H   0  0  0  0  0  0  0  0  0  0  0  0
   -0.0905   26.8678  -23.7198 H   0  0  0  0  0  0  0  0  0  0  0  0
    1.2328   27.1384  -24.9039 H   0  0  0  0  0  0  0  0  0  0  0  0
   -0.2061   28.2136  -24.9039 H   0  0  0  0  0  0  0  0  0  0  0  0
   -2.2918   26.4107  -24.5492 H   0  0  0  0  0  0  0  0  0  0  0  0
   -2.3030   27.3778  -26.0557 H   0  0  0  0  0  0  0  0  0  0  0  0
   -2.6531   24.3758  -25.6877 H   0  0  0  0  0  0  0  0  0  0  0  0
   -3.6649   25.5453  -26.6227 H   0  0  0  0  0  0  0  0  0  0  0  0
   -0.8185   22.5255  -27.1983 H   0  0  0  0  0  0  0  0  0  0  0  0
   -1.3653   20.4411  -28.4405 H   0  0  0  0  0  0  0  0  0  0  0  0
   -3.0911   20.4623  -30.2340 H   0  0  0  0  0  0  0  0  0  0  0  0
   -6.5531   20.9049  -30.5588 H   0  0  0  0  0  0  0  0  0  0  0  0
  1  2  1  0
  2  3  1  0
  3  4  1  0
  4  5  1  0
  5  6  1  0
  6  7  1  0
  7  8  2  0
  8  9  1  0
  9 10  2  0
 10 11  1  0
 10 12  1  0
 12 13  1  0
 13 14  2  0
 14 15  1  0
 15 16  2  0
 16 17  1  0
 17 18  2  0
 18 19  1  0
 19 20  1  0
 20 21  1  0
 21 22  1  0
 22 23  1  0
 22 24  1  0
 24 25  1  0
 18 26  1  0
 26 27  2  0
 27 28  1  0
 28 29  2  0
 12 30  2  0
 30  7  1  0
 29 13  1  0
 29 17  1  0
 25 19  1  0
  1 31  1  0
  1 32  1  0
  1 33  1  0
  2 34  1  0
  2 35  1  0
  4 36  1  0
  4 37  1  0
  5 38  1  0
  5 39  1  0
  6 40  1  0
  6 41  1  0
  8 42  1  0
  9 43  1  0
 14 44  1  0
 15 45  1  0
 20 46  1  0
 20 47  1  0
 21 48  1  0
 21 49  1  0
 23 50  1  0
 23 51  1  0
 23 52  1  0
 24 53  1  0
 24 54  1  0
 25 55  1  0
 25 56  1  0
 26 57  1  0
 27 58  1  0
 28 59  1  0
 30 60  1  0
M  CHG  1   6   1
M  END
>  <UniqueID>  (11) 
11

>  <SMILES>  (11) 
CCOCC[NH2+]c1ccc(F)c(-c2ccnc3c(N4CCN(C)CC4)cccc23)c1

>  <Energy>  (11) 
84.24213834802855

>  <Genealogy>  (11) 
CCOCC[NH2+]c1ccc(F)c(-c2ccnc3c(N4CCN(C)CC4)cccc23)c1 (protonated)
CCOCC[NH2+]c1ccc(F)c(-c2ccnc3c(N4CCN(C)CC4)cccc23)c1 (3D coordinates assigned)
CCOCC[NH2+]c1ccc(F)c(-c2ccnc3c(N4CCN(C)CC4)cccc23)c1 (nonaromatic ring conformer: 84.24213834802855 kcal/mol)

>  <smiles>  (11) 
CCOCCNc1ccc(F)c(-c2ccnc3c(N4CCN(C)CC4)cccc23)c1

>  <score_type>  (11) 
oracle

>  <origin>  (11) 
adg

>  <m_score__min__energy>  (11) 
-8.1600000000000001

>  <m_primary>  (11) 
energy

$$$$
11:0
     RDKit          3D

 49 51  0  0  0  0  0  0  0  0999 V2000
   -0.5180   19.2121  -34.3279 H   0  0  0  0  0  0  0  0  0  0  0  0
   -1.4560   19.6740  -33.9860 C   0  0  0  0  0  0  0  0  0  0  0  0
   -2.5560   18.8890  -33.6830 C   0  0  0  0  0  0  0  0  0  0  0  0
   -2.5161   17.7991  -33.8266 H   0  0  0  0  0  0  0  0  0  0  0  0
   -3.7130   19.4910  -33.1950 C   0  0  0  0  0  0  0  0  0  0  0  0
   -4.8130   18.7250  -33.0050 N   0  0  0  0  0  0  0  0  0  0  0  0
   -5.9660   19.2710  -32.5590 C   0  0  0  0  0  0  0  0  0  0  0  0
   -7.1480   18.4580  -32.3920 N   0  0  0  0  0  0  0  0  0  0  0  0
   -8.3500   19.0240  -31.7580 C   0  0  0  0  0  0  0  0  0  0  0  0
   -8.0577   19.5568  -30.8411 H   0  0  0  0  0  0  0  0  0  0  0  0
   -9.0429   18.2040  -31.5184 H   0  0  0  0  0  0  0  0  0  0  0  0
   -9.0500   19.9980  -32.7020 C   0  0  0  0  0  0  0  0  0  0  0  0
   -9.5925   20.7528  -32.1138 H   0  0  0  0  0  0  0  0  0  0  0  0
   -8.3017   20.4957  -33.3363 H   0  0  0  0  0  0  0  0  0  0  0  0
   -9.7603   19.4474  -33.3363 H   0  0  0  0  0  0  0  0  0  0  0  0
   -7.1300   17.0400  -32.7860 C   0  0  0  0  0  0  0  0  0  0  0  0
   -6.4715   16.4839  -32.1025 H   0  0  0  0  0  0  0  0  0  0  0  0
   -8.1557   16.6461  -32.7338 H   0  0  0  0  0  0  0  0  0  0  0  0
   -6.6170   16.8820  -34.2140 C   0  0  0  0  0  0  0  0  0  0  0  0
   -5.5659   16.5583  -34.1923 H   0  0  0  0  0  0  0  0  0  0  0  0
   -7.2220   16.1285  -34.7397 H   0  0  0  0  0  0  0  0  0  0  0  0
   -6.6932   17.8453  -34.7397 H   0  0  0  0  0  0  0  0  0  0  0  0
   -5.9850   20.5860  -32.2400 N   0  0  0  0  0  0  0  0  0  0  0  0
   -4.8910   21.3790  -32.3750 C   0  0  0  0  0  0  0  0  0  0  0  0
   -4.9820   22.5640  -31.8230 N   0  0  0  0  0  0  0  0  0  0  0  0
   -5.6540   23.1420  -30.6520 C   0  0  0  0  0  0  0  0  0  0  0  0
   -6.5055   22.5024  -30.3767 H   0  0  0  0  0  0  0  0  0  0  0  0
   -6.2090   24.5580  -30.9550 C   0  0  0  0  0  0  0  0  0  0  0  0
   -6.4668   24.6166  -32.0228 H   0  0  0  0  0  0  0  0  0  0  0  0
   -7.0935   24.7172  -30.3207 H   0  0  0  0  0  0  0  0  0  0  0  0
   -5.1890   25.6630  -30.6300 C   0  0  0  0  0  0  0  0  0  0  0  0
   -5.3643   26.5239  -31.2919 H   0  0  0  0  0  0  0  0  0  0  0  0
   -5.3111   25.9629  -29.5787 H   0  0  0  0  0  0  0  0  0  0  0  0
   -3.8720   25.1900  -30.8210 O   0  0  0  0  0  0  0  0  0  0  0  0
   -3.5280   24.2680  -29.7970 C   0  0  0  0  0  0  0  0  0  0  0  0
   -2.6168   23.7328  -30.1025 H   0  0  0  0  0  0  0  0  0  0  0  0
   -3.3819   24.8495  -28.8748 H   0  0  0  0  0  0  0  0  0  0  0  0
   -4.6340   23.2250  -29.5060 C   0  0  0  0  0  0  0  0  0  0  0  0
   -4.1668   22.2381  -29.3726 H   0  0  0  0  0  0  0  0  0  0  0  0
   -5.1668   23.5359  -28.5952 H   0  0  0  0  0  0  0  0  0  0  0  0
   -3.7450   20.8490  -32.9560 N   0  0  0  0  0  0  0  0  0  0  0  0
   -2.7080   21.6010  -33.3680 N   0  0  0  0  0  0  0  0  0  0  0  0
   -2.7640   22.6310  -33.4120 H   0  0  0  0  0  0  0  0  0  0  0  0
   -1.5550   21.0620  -33.8510 C   0  0  0  0  0  0  0  0  0  0  0  0
   -0.5070   21.9230  -34.2150 O   0  0  0  0  0  0  0  0  0  0  0  0
    0.3250   21.7440  -35.3560 C   0  0  0  0  0  0  0  0  0  0  0  0
    1.3520   21.5230  -35.0299 H   0  0  0  0  0  0  0  0  0  0  0  0
   -0.0559   20.9073  -35.9599 H   0  0  0  0  0  0  0  0  0  0  0  0
    0.3219   22.6634  -35.9599 H   0  0  0  0  0  0  0  0  0  0  0  0
  1  2  1  0
  2  3  2  0
  3  4  1  0
  3  5  1  0
  5  6  2  0
  6  7  1  0
  7  8  1  0
  8  9  1  0
  9 10  1  0
  9 11  1  0
  9 12  1  0
 12 13  1  0
 12 14  1  0
 12 15  1  0
  8 16  1  0
 16 17  1  0
 16 18  1  0
 16 19  1  0
 19 20  1  0
 19 21  1  0
 19 22  1  0
  7 23  2  0
 23 24  1  0
 24 25  2  0
 25 26  1  0
 26 27  1  0
 26 28  1  0
 28 29  1  0
 28 30  1  0
 28 31  1  0
 31 32  1  0
 31 33  1  0
 31 34  1  0
 34 35  1  0
 35 36  1  0
 35 37  1  0
 35 38  1  0
 38 39  1  0
 38 40  1  0
 24 41  1  0
 41 42  1  0
 42 43  1  0
 42 44  2  0
 44 45  1  0
 45 46  1  0
 46 47  1  0
 46 48  1  0
 46 49  1  0
 44  2  1  0
 41  5  1  0
 38 26  1  0
M  CHG  1  42   1
M  END
>  <UniqueID>  (12) 
12

>  <SMILES>  (12) 
CCN(CC)c1n/c(=N/C2CCOCC2)n2[nH+]c(OC)ccc2n1

>  <Energy>  (12) 
72.33450666185631

>  <Genealogy>  (12) 
CCN(CC)c1nc(=NC2CCOCC2)n2[nH+]c(OC)ccc2n1 (protonated)
CCN(CC)c1n/c(=N/C2CCOCC2)n2[nH+]c(OC)ccc2n1 (cis-trans isomerization)
CCN(CC)c1n/c(=N/C2CCOCC2)n2[nH+]c(OC)ccc2n1 (3D coordinates assigned)
CCN(CC)c1n/c(=N/C2CCOCC2)n2[nH+]c(OC)ccc2n1 (nonaromatic ring conformer: 72.33450666185631 kcal/mol)

>  <smiles>  (12) 
CCN(CC)c1nc(=NC2CCOCC2)n2nc(OC)ccc2n1

>  <score_type>  (12) 
oracle

>  <origin>  (12) 
adg

>  <m_score__min__energy>  (12) 
-7.3799999999999999

>  <m_primary>  (12) 
energy

$$$$
12:0
     RDKit          3D

 56 57  0  0  0  0  0  0  0  0999 V2000
   -8.7500   18.6140  -31.6230 C   0  0  0  0  0  0  0  0  0  0  0  0
   -7.5070   17.8700  -32.1210 C   0  0  0  0  0  0  0  0  0  0  0  0
   -6.6290   18.7240  -32.9580 N   0  0  1  0  0  0  0  0  0  0  0  0
   -6.1080   17.9940  -34.1310 C   0  0  0  0  0  0  0  0  0  0  0  0
   -7.3050   19.9850  -33.3560 C   0  0  0  0  0  0  0  0  0  0  0  0
   -6.7580   21.2190  -32.6650 C   0  0  0  0  0  0  0  0  0  0  0  0
   -5.3850   21.5100  -32.7130 C   0  0  0  0  0  0  0  0  0  0  0  0
   -4.8800   22.6500  -32.0800 C   0  0  0  0  0  0  0  0  0  0  0  0
   -5.7410   23.5160  -31.3880 C   0  0  0  0  0  0  0  0  0  0  0  0
   -5.1890   24.7320  -30.6820 C   0  0  0  0  0  0  0  0  0  0  0  0
   -3.7180   24.7270  -30.6420 N   0  0  0  0  0  0  0  0  0  0  0  0
   -3.2010   23.7900  -29.6360 C   0  0  0  0  0  0  0  0  0  0  0  0
   -2.7600   24.5520  -28.4180 C   0  0  0  0  0  0  0  0  0  0  0  0
   -1.5910   25.3280  -28.4510 C   0  0  0  0  0  0  0  0  0  0  0  0
   -1.2010   26.0640  -27.3290 C   0  0  0  0  0  0  0  0  0  0  0  0
   -1.9770   26.0410  -26.1580 C   0  0  0  0  0  0  0  0  0  0  0  0
   -1.5500   26.8350  -24.9410 C   0  0  0  0  0  0  0  0  0  0  0  0
   -0.8980   26.0210  -23.8910 N   0  0  0  0  0  0  0  0  0  0  0  0
   -0.1070   24.9090  -24.4430 C   0  0  0  0  0  0  0  0  0  0  0  0
   -0.0920   26.8310  -22.9650 C   0  0  0  0  0  0  0  0  0  0  0  0
   -3.1590   25.2840  -26.1350 C   0  0  0  0  0  0  0  0  0  0  0  0
   -3.5500   24.5470  -27.2570 C   0  0  0  0  0  0  0  0  0  0  0  0
   -7.1110   23.2180  -31.3270 C   0  0  0  0  0  0  0  0  0  0  0  0
   -7.6150   22.0790  -31.9590 C   0  0  0  0  0  0  0  0  0  0  0  0
   -8.7582   18.6189  -30.5230 H   0  0  0  0  0  0  0  0  0  0  0  0
   -8.7309   19.6493  -31.9942 H   0  0  0  0  0  0  0  0  0  0  0  0
   -9.6534   18.1080  -31.9942 H   0  0  0  0  0  0  0  0  0  0  0  0
   -6.9327   17.5209  -31.2502 H   0  0  0  0  0  0  0  0  0  0  0  0
   -7.8483   17.0305  -32.7445 H   0  0  0  0  0  0  0  0  0  0  0  0
   -5.8020   19.0080  -32.3780 H   0  0  0  0  0  0  0  0  0  0  0  0
   -5.5000   17.1421  -33.7924 H   0  0  0  0  0  0  0  0  0  0  0  0
   -6.9490   17.6263  -34.7372 H   0  0  0  0  0  0  0  0  0  0  0  0
   -5.4869   18.6698  -34.7372 H   0  0  0  0  0  0  0  0  0  0  0  0
   -7.1857   20.1143  -34.4418 H   0  0  0  0  0  0  0  0  0  0  0  0
   -8.3590   19.8912  -33.0556 H   0  0  0  0  0  0  0  0  0  0  0  0
   -4.7023   20.8367  -33.2521 H   0  0  0  0  0  0  0  0  0  0  0  0
   -3.8030   22.8691  -32.1246 H   0  0  0  0  0  0  0  0  0  0  0  0
   -5.5266   25.6344  -31.2128 H   0  0  0  0  0  0  0  0  0  0  0  0
   -5.5567   24.7186  -29.6454 H   0  0  0  0  0  0  0  0  0  0  0  0
   -3.3490   24.4560  -31.5830 H   0  0  0  0  0  0  0  0  0  0  0  0
   -3.9926   23.0792  -29.3566 H   0  0  0  0  0  0  0  0  0  0  0  0
   -2.3443   23.2409  -30.0538 H   0  0  0  0  0  0  0  0  0  0  0  0
   -0.9789   25.3570  -29.3645 H   0  0  0  0  0  0  0  0  0  0  0  0
   -0.2805   26.6653  -27.3628 H   0  0  0  0  0  0  0  0  0  0  0  0
   -0.8425   27.6123  -25.2656 H   0  0  0  0  0  0  0  0  0  0  0  0
   -2.4648   27.2545  -24.4970 H   0  0  0  0  0  0  0  0  0  0  0  0
    0.3154   24.3151  -23.6191 H   0  0  0  0  0  0  0  0  0  0  0  0
   -0.7546   24.2699  -25.0612 H   0  0  0  0  0  0  0  0  0  0  0  0
    0.7092   25.3111  -25.0612 H   0  0  0  0  0  0  0  0  0  0  0  0
   -0.3516   26.5701  -21.9284 H   0  0  0  0  0  0  0  0  0  0  0  0
    0.9759   26.6308  -23.1370 H   0  0  0  0  0  0  0  0  0  0  0  0
   -0.2974   27.8979  -23.1370 H   0  0  0  0  0  0  0  0  0  0  0  0
   -3.7817   25.2706  -25.2283 H   0  0  0  0  0  0  0  0  0  0  0  0
   -4.4804   23.9608  -27.2302 H   0  0  0  0  0  0  0  0  0  0  0  0
   -7.7919   23.8853  -30.7783 H   0  0  0  0  0  0  0  0  0  0  0  0
   -8.6903   21.8540  -31.9034 H   0  0  0  0  0  0  0  0  0  0  0  0
  1  2  1  0
  2  3  1  0
  3  4  1  0
  3  5  1  0
  5  6  1  0
  6  7  2  0
  7  8  1  0
  8  9  2  0
  9 10  1  0
 10 11  1  0
 11 12  1  0
 12 13  1  0
 13 14  2  0
 14 15  1  0
 15 16  2  0
 16 17  1  0
 17 18  1  0
 18 19  1  0
 18 20  1  0
 16 21  1  0
 21 22  2  0
  9 23  1  0
 23 24  2  0
 24  6  1  0
 22 13  1  0
  1 25  1  0
  1 26  1  0
  1 27  1  0
  2 28  1  0
  2 29  1  0
  3 30  1  1
  4 31  1  0
  4 32  1  0
  4 33  1  0
  5 34  1  0
  5 35  1  0
  7 36  1  0
  8 37  1  0
 10 38  1  0
 10 39  1  0
 11 40  1  0
 12 41  1  0
 12 42  1  0
 14 43  1  0
 15 44  1  0
 17 45  1  0
 17 46  1  0
 19 47  1  0
 19 48  1  0
 19 49  1  0
 20 50  1  0
 20 51  1  0
 20 52  1  0
 21 53  1  0
 22 54  1  0
 23 55  1  0
 24 56  1  0
M  CHG  1   3   1
M  END
>  <UniqueID>  (13) 
13

>  <SMILES>  (13) 
CC[N@@H+](C)Cc1ccc(CNCc2ccc(CN(C)C)cc2)cc1

>  <Energy>  (13) 
57.51479422837495

>  <Genealogy>  (13) 
CC[NH+](C)Cc1ccc(CNCc2ccc(CN(C)C)cc2)cc1 (protonated)
CC[N@@H+](C)Cc1ccc(CNCc2ccc(CN(C)C)cc2)cc1 (chirality)
CC[N@@H+](C)Cc1ccc(CNCc2ccc(CN(C)C)cc2)cc1 (3D coordinates assigned)
CC[N@@H+](C)Cc1ccc(CNCc2ccc(CN(C)C)cc2)cc1 (optimized conformer: 57.51479422837495 kcal/mol)

>  <smiles>  (13) 
CCN(C)Cc1ccc(CNCc2ccc(CN(C)C)cc2)cc1

>  <score_type>  (13) 
oracle

>  <origin>  (13) 
adg

>  <m_score__min__energy>  (13) 
-8.6400000000000006

>  <m_primary>  (13) 
energy

$$$$
13:0
     RDKit          3D

 39 41  0  0  0  0  0  0  0  0999 V2000
   -7.2686   17.1183  -32.5289 H   0  0  0  0  0  0  0  0  0  0  0  0
   -7.4970   18.1880  -32.4120 C   0  0  0  0  0  0  0  0  0  0  0  0
   -8.6810   18.5850  -31.7830 C   0  0  0  0  0  0  0  0  0  0  0  0
   -9.3855   17.8274  -31.4091 H   0  0  0  0  0  0  0  0  0  0  0  0
   -8.9700   19.9440  -31.6290 C   0  0  0  0  0  0  0  0  0  0  0  0
   -9.9049   20.2530  -31.1387 H   0  0  0  0  0  0  0  0  0  0  0  0
   -8.0710   20.9170  -32.0980 C   0  0  0  0  0  0  0  0  0  0  0  0
   -8.3990   22.3780  -31.9710 C   0  0  0  0  0  0  0  0  0  0  0  0
   -9.3099   22.4949  -31.3655 H   0  0  0  0  0  0  0  0  0  0  0  0
   -8.5594   22.7990  -32.9745 H   0  0  0  0  0  0  0  0  0  0  0  0
   -7.2700   23.1040  -31.3110 C   0  0  0  0  0  0  0  0  0  0  0  0
   -5.8600   23.6130  -32.0800 S   0  0  0  0  0  0  0  0  0  0  0  0
   -5.1710   24.1710  -30.6530 C   0  0  0  0  0  0  0  0  0  0  0  0
   -3.9790   24.6920  -30.6020 N   0  0  0  0  0  0  0  0  0  0  0  0
   -2.9190   24.3970  -29.6790 C   0  0  0  0  0  0  0  0  0  0  0  0
   -2.1080   25.2980  -29.3320 O   0  0  0  0  0  0  0  0  0  0  0  0
   -2.7140   23.0050  -29.1950 C   0  0  0  0  0  0  0  0  0  0  0  0
   -1.8270   22.1600  -29.8920 C   0  0  0  0  0  0  0  0  0  0  0  0
   -1.2943   22.5421  -30.7753 H   0  0  0  0  0  0  0  0  0  0  0  0
   -1.6160   20.8450  -29.4760 C   0  0  0  0  0  0  0  0  0  0  0  0
   -0.9240   20.1967  -30.0335 H   0  0  0  0  0  0  0  0  0  0  0  0
   -2.2810   20.3520  -28.3550 C   0  0  0  0  0  0  0  0  0  0  0  0
   -2.1165   19.3135  -28.0317 H   0  0  0  0  0  0  0  0  0  0  0  0
   -3.1550   21.1730  -27.6420 C   0  0  0  0  0  0  0  0  0  0  0  0
   -3.6718   20.7783  -26.7548 H   0  0  0  0  0  0  0  0  0  0  0  0
   -3.3820   22.5040  -28.0480 C   0  0  0  0  0  0  0  0  0  0  0  0
   -4.2470   23.3450  -27.3260 O   0  0  0  0  0  0  0  0  0  0  0  0
   -3.8690   24.5810  -26.7280 C   0  0  0  0  0  0  0  0  0  0  0  0
   -3.8990   24.4828  -25.6328 H   0  0  0  0  0  0  0  0  0  0  0  0
   -2.8491   24.8448  -27.0447 H   0  0  0  0  0  0  0  0  0  0  0  0
   -4.5669   25.3701  -27.0447 H   0  0  0  0  0  0  0  0  0  0  0  0
   -5.9830   23.9540  -29.5880 N   0  0  0  0  0  0  0  0  0  0  0  0
   -5.7570   24.1600  -28.5910 H   0  0  0  0  0  0  0  0  0  0  0  0
   -7.1500   23.3560  -29.9480 C   0  0  0  0  0  0  0  0  0  0  0  0
   -7.9337   23.0934  -29.2222 H   0  0  0  0  0  0  0  0  0  0  0  0
   -6.8900   20.5100  -32.7410 C   0  0  0  0  0  0  0  0  0  0  0  0
   -6.1880   21.2639  -33.1269 H   0  0  0  0  0  0  0  0  0  0  0  0
   -6.6040   19.1490  -32.8920 C   0  0  0  0  0  0  0  0  0  0  0  0
   -5.6745   18.8351  -33.3895 H   0  0  0  0  0  0  0  0  0  0  0  0
  1  2  1  0
  2  3  2  0
  3  4  1  0
  3  5  1  0
  5  6  1  0
  5  7  2  0
  7  8  1  0
  8  9  1  0
  8 10  1  0
  8 11  1  0
 11 12  1  0
 12 13  1  0
 13 14  2  0
 14 15  1  0
 15 16  2  0
 15 17  1  0
 17 18  2  0
 18 19  1  0
 18 20  1  0
 20 21  1  0
 20 22  2  0
 22 23  1  0
 22 24  1  0
 24 25  1  0
 24 26  2  0
 26 27  1  0
 27 28  1  0
 28 29  1  0
 28 30  1  0
 28 31  1  0
 13 32  1  0
 32 33  1  0
 32 34  1  0
 34 35  1  0
  7 36  1  0
 36 37  1  0
 36 38  2  0
 38 39  1  0
 38  2  1  0
 34 11  2  0
 26 17  1  0
M  END
>  <UniqueID>  (14) 
14

>  <SMILES>  (14) 
COc1ccccc1C(=O)/N=c1\[nH]cc(Cc2ccccc2)s1

>  <Energy>  (14) 
76.7739640774191

>  <Genealogy>  (14) 
COc1ccccc1C(=O)/N=c1\[nH]cc(Cc2ccccc2)s1 (cis-trans isomerization)
COc1ccccc1C(=O)/N=c1\[nH]cc(Cc2ccccc2)s1 (3D coordinates assigned)
COc1ccccc1C(=O)/N=c1\[nH]cc(Cc2ccccc2)s1 (optimized conformer: 76.7739640774191 kcal/mol)

>  <smiles>  (14) 
COc1ccccc1C(=O)N=c1[nH]cc(Cc2ccccc2)s1

>  <score_type>  (14) 
oracle

>  <origin>  (14) 
adg

>  <m_score__min__energy>  (14) 
-9.1099999999999994

>  <m_primary>  (14) 
energy

$$$$
14:0
     RDKit          3D

 49 50  0  0  0  0  0  0  0  0999 V2000
   -8.7150   22.7980  -31.9700 C   0  0  0  0  0  0  0  0  0  0  0  0
   -7.9380   22.5660  -30.7990 O   0  0  0  0  0  0  0  0  0  0  0  0
   -6.7280   23.2170  -30.5070 C   0  0  0  0  0  0  0  0  0  0  0  0
   -6.7200   24.6130  -30.4670 C   0  0  0  0  0  0  0  0  0  0  0  0
   -5.5400   25.3100  -30.1990 C   0  0  0  0  0  0  0  0  0  0  0  0
   -4.3470   24.6120  -29.9350 C   0  0  0  0  0  0  0  0  0  0  0  0
   -3.1400   25.2770  -29.6570 O   0  0  0  0  0  0  0  0  0  0  0  0
   -2.2540   24.9310  -28.5940 C   0  0  0  0  0  0  0  0  0  0  0  0
   -4.3490   23.2060  -29.9420 C   0  0  0  0  0  0  0  0  0  0  0  0
   -3.1420   22.5460  -29.6580 O   0  0  0  0  0  0  0  0  0  0  0  0
   -2.9880   21.1570  -29.3510 C   0  0  0  0  0  0  0  0  0  0  0  0
   -2.2450   20.4220  -30.4790 C   0  0  0  0  0  0  0  0  0  0  0  0
   -2.0880   21.2100  -31.7170 N   0  0  0  0  0  0  0  0  0  0  0  0
   -2.5490   20.5530  -32.9610 C   0  0  0  0  0  0  0  0  0  0  0  0
   -3.9620   20.9640  -33.4760 C   0  0  2  0  0  0  0  0  0  0  0  0
   -4.4000   22.1720  -32.9000 O   0  0  0  0  0  0  0  0  0  0  0  0
   -5.0010   19.8480  -33.4070 C   0  0  0  0  0  0  0  0  0  0  0  0
   -4.7360   18.5450  -33.8740 C   0  0  0  0  0  0  0  0  0  0  0  0
   -5.7130   17.5510  -33.7970 C   0  0  0  0  0  0  0  0  0  0  0  0
   -6.9600   17.8280  -33.2370 C   0  0  0  0  0  0  0  0  0  0  0  0
   -7.2410   19.1080  -32.7270 C   0  0  0  0  0  0  0  0  0  0  0  0
   -8.5200   19.3960  -32.1310 N   0  0  0  0  0  0  0  0  0  0  0  0
   -8.7670   19.0480  -30.9580 O   0  0  0  0  0  0  0  0  0  0  0  0
   -9.4870   20.0740  -32.8390 O   0  0  0  0  0  0  0  0  0  0  0  0
   -6.2510   20.1040  -32.8030 C   0  0  0  0  0  0  0  0  0  0  0  0
   -5.5350   22.5140  -30.2600 C   0  0  0  0  0  0  0  0  0  0  0  0
   -9.7320   23.1017  -31.6810 H   0  0  0  0  0  0  0  0  0  0  0  0
   -8.2496   23.5964  -32.5667 H   0  0  0  0  0  0  0  0  0  0  0  0
   -8.7635   21.8752  -32.5667 H   0  0  0  0  0  0  0  0  0  0  0  0
   -7.6519   25.1687  -30.6483 H   0  0  0  0  0  0  0  0  0  0  0  0
   -5.5431   26.4100  -30.1942 H   0  0  0  0  0  0  0  0  0  0  0  0
   -2.7462   25.1232  -27.6292 H   0  0  0  0  0  0  0  0  0  0  0  0
   -1.9930   23.8649  -28.6665 H   0  0  0  0  0  0  0  0  0  0  0  0
   -1.3396   25.5381  -28.6665 H   0  0  0  0  0  0  0  0  0  0  0  0
   -2.4148   21.0564  -28.4176 H   0  0  0  0  0  0  0  0  0  0  0  0
   -3.9869   20.7099  -29.2401 H   0  0  0  0  0  0  0  0  0  0  0  0
   -1.2434   20.1521  -30.1130 H   0  0  0  0  0  0  0  0  0  0  0  0
   -2.8557   19.5449  -30.7392 H   0  0  0  0  0  0  0  0  0  0  0  0
   -1.0780   21.4560  -31.8330 H   0  0  0  0  0  0  0  0  0  0  0  0
   -2.5860   22.1220  -31.6030 H   0  0  0  0  0  0  0  0  0  0  0  0
   -1.8224   20.7872  -33.7529 H   0  0  0  0  0  0  0  0  0  0  0  0
   -2.6253   19.4831  -32.7169 H   0  0  0  0  0  0  0  0  0  0  0  0
   -3.8447   21.1520  -34.5534 H   0  0  0  0  0  0  0  0  0  0  0  0
   -4.7790   22.7400  -33.6170 H   0  0  0  0  0  0  0  0  0  0  0  0
   -3.7509   18.3093  -34.3028 H   0  0  0  0  0  0  0  0  0  0  0  0
   -5.4980   16.5427  -34.1805 H   0  0  0  0  0  0  0  0  0  0  0  0
   -7.7275   17.0412  -33.1941 H   0  0  0  0  0  0  0  0  0  0  0  0
   -6.4544   21.1006  -32.3842 H   0  0  0  0  0  0  0  0  0  0  0  0
   -5.5276   21.4154  -30.3155 H   0  0  0  0  0  0  0  0  0  0  0  0
  1  2  1  0
  2  3  1  0
  3  4  2  0
  4  5  1  0
  5  6  2  0
  6  7  1  0
  7  8  1  0
  6  9  1  0
  9 10  1  0
 10 11  1  0
 11 12  1  0
 12 13  1  0
 13 14  1  0
 14 15  1  0
 15 16  1  0
 15 17  1  0
 17 18  2  0
 18 19  1  0
 19 20  2  0
 20 21  1  0
 21 22  1  0
 22 23  2  0
 22 24  1  0
 21 25  2  0
  9 26  2  0
 26  3  1  0
 25 17  1  0
  1 27  1  0
  1 28  1  0
  1 29  1  0
  4 30  1  0
  5 31  1  0
  8 32  1  0
  8 33  1  0
  8 34  1  0
 11 35  1  0
 11 36  1  0
 12 37  1  0
 12 38  1  0
 13 39  1  0
 13 40  1  0
 14 41  1  0
 14 42  1  0
 15 43  1  6
 16 44  1  0
 18 45  1  0
 19 46  1  0
 20 47  1  0
 25 48  1  0
 26 49  1  0
M  CHG  3  13   1  22   1  24  -1
M  END
>  <UniqueID>  (15) 
15

>  <SMILES>  (15) 
COc1ccc(OC)c(OCC[NH2+]C[C@H](O)c2cccc([N+](=O)[O-])c2)c1

>  <Energy>  (15) 
57.754841972353354

>  <Genealogy>  (15) 
COc1ccc(OC)c(OCC[NH2+]CC(O)c2cccc([N+](=O)[O-])c2)c1 (protonated)
COc1ccc(OC)c(OCC[NH2+]C[C@H](O)c2cccc([N+](=O)[O-])c2)c1 (chirality)
COc1ccc(OC)c(OCC[NH2+]C[C@H](O)c2cccc([N+](=O)[O-])c2)c1 (3D coordinates assigned)
COc1ccc(OC)c(OCC[NH2+]C[C@H](O)c2cccc([N+](=O)[O-])c2)c1 (optimized conformer: 57.754841972353354 kcal/mol)

>  <smiles>  (15) 
COc1ccc(OC)c(OCCNCC(O)c2cccc([N+](=O)[O-])c2)c1

>  <score_type>  (15) 
oracle

>  <origin>  (15) 
adg

>  <m_score__min__energy>  (15) 
-6.8200000000000003

>  <m_primary>  (15) 
energy

$$$$
15:0
     RDKit          3D

 37 39  0  0  0  0  0  0  0  0999 V2000
   -6.0480   25.8180  -29.6870 O   0  0  0  0  0  0  0  0  0  0  0  0
   -5.1740   24.6750  -30.1230 S   0  0  0  0  0  0  0  0  0  0  0  0
   -4.2590   25.1690  -31.2110 O   0  0  0  0  0  0  0  0  0  0  0  0
   -6.2100   23.3930  -30.7450 C   0  0  0  0  0  0  0  0  0  0  0  0
   -7.3170   22.9430  -30.0080 C   0  0  0  0  0  0  0  0  0  0  0  0
   -8.1420   21.9370  -30.5220 C   0  0  0  0  0  0  0  0  0  0  0  0
   -7.8670   21.3780  -31.7740 C   0  0  0  0  0  0  0  0  0  0  0  0
   -8.6680   20.4040  -32.2720 F   0  0  0  0  0  0  0  0  0  0  0  0
   -6.7680   21.8250  -32.5130 C   0  0  0  0  0  0  0  0  0  0  0  0
   -5.9410   22.8310  -32.0010 C   0  0  0  0  0  0  0  0  0  0  0  0
   -4.2360   24.1130  -28.7530 N   0  0  0  0  0  0  0  0  0  0  0  0
   -4.4130   22.6710  -28.5070 C   0  0  0  0  0  0  0  0  0  0  0  0
   -3.7800   21.8200  -29.6160 C   0  0  0  0  0  0  0  0  0  0  0  0
   -2.4710   22.3520  -30.0130 N   0  0  0  0  0  0  0  0  0  0  0  0
   -1.7620   21.7390  -31.1100 C   0  0  0  0  0  0  0  0  0  0  0  0
   -0.5570   21.1370  -30.9080 N   0  0  0  0  0  0  0  0  0  0  0  0
    0.1210   20.5570  -31.9310 C   0  0  0  0  0  0  0  0  0  0  0  0
   -0.4140   20.5710  -33.2180 C   0  0  0  0  0  0  0  0  0  0  0  0
   -1.6470   21.1890  -33.4140 C   0  0  0  0  0  0  0  0  0  0  0  0
   -2.2950   21.7580  -32.3650 N   0  0  0  0  0  0  0  0  0  0  0  0
   -1.8370   23.3770  -29.1730 C   0  0  0  0  0  0  0  0  0  0  0  0
   -2.8160   24.5280  -28.8630 C   0  0  0  0  0  0  0  0  0  0  0  0
   -7.5362   23.3827  -29.0238 H   0  0  0  0  0  0  0  0  0  0  0  0
   -9.0074   21.5855  -29.9411 H   0  0  0  0  0  0  0  0  0  0  0  0
   -6.5530   21.3855  -33.4982 H   0  0  0  0  0  0  0  0  0  0  0  0
   -5.0776   23.1818  -32.5854 H   0  0  0  0  0  0  0  0  0  0  0  0
   -3.9409   22.4132  -27.5475 H   0  0  0  0  0  0  0  0  0  0  0  0
   -5.4920   22.4582  -28.4875 H   0  0  0  0  0  0  0  0  0  0  0  0
   -3.6526   20.7907  -29.2496 H   0  0  0  0  0  0  0  0  0  0  0  0
   -4.4443   21.8409  -30.4925 H   0  0  0  0  0  0  0  0  0  0  0  0
    1.0925   20.0760  -31.7443 H   0  0  0  0  0  0  0  0  0  0  0  0
    0.1236   20.1060  -34.0574 H   0  0  0  0  0  0  0  0  0  0  0  0
   -2.0955   21.2161  -34.4180 H   0  0  0  0  0  0  0  0  0  0  0  0
   -1.5136   22.9166  -28.2278 H   0  0  0  0  0  0  0  0  0  0  0  0
   -0.9753   23.7899  -29.7180 H   0  0  0  0  0  0  0  0  0  0  0  0
   -2.5168   24.9863  -27.9088 H   0  0  0  0  0  0  0  0  0  0  0  0
   -2.7581   25.2259  -29.7113 H   0  0  0  0  0  0  0  0  0  0  0  0
  1  2  2  0
  2  3  2  0
  2  4  1  0
  4  5  2  0
  5  6  1  0
  6  7  2  0
  7  8  1  0
  7  9  1  0
  9 10  2  0
  2 11  1  0
 11 12  1  0
 12 13  1  0
 13 14  1  0
 14 15  1  0
 15 16  2  0
 16 17  1  0
 17 18  2  0
 18 19  1  0
 19 20  2  0
 14 21  1  0
 21 22  1  0
 10  4  1  0
 22 11  1  0
 20 15  1  0
  5 23  1  0
  6 24  1  0
  9 25  1  0
 10 26  1  0
 12 27  1  0
 12 28  1  0
 13 29  1  0
 13 30  1  0
 17 31  1  0
 18 32  1  0
 19 33  1  0
 21 34  1  0
 21 35  1  0
 22 36  1  0
 22 37  1  0
M  END
>  <UniqueID>  (16) 
16

>  <SMILES>  (16) 
O=S(=O)(c1ccc(F)cc1)N1CCN(c2ncccn2)CC1

>  <Energy>  (16) 
46.84511437047592

>  <Genealogy>  (16) 
O=S(=O)(c1ccc(F)cc1)N1CCN(c2ncccn2)CC1 (3D coordinates assigned)
O=S(=O)(c1ccc(F)cc1)N1CCN(c2ncccn2)CC1 (nonaromatic ring conformer: 46.84511437047592 kcal/mol)

>  <smiles>  (16) 
O=S(=O)(c1ccc(F)cc1)N1CCN(c2ncccn2)CC1

>  <score_type>  (16) 
oracle

>  <origin>  (16) 
adg

>  <m_score__min__energy>  (16) 
-7.1699999999999999

>  <m_primary>  (16) 
energy

$$$$
16:0
     RDKit          3D

 47 49  0  0  1  0  0  0  0  0999 V2000
   -6.7750   25.2980  -29.7300 C   0  0  0  0  0  0  0  0  0  0  0  0
   -5.8660   24.9800  -30.8760 C   0  0  0  0  0  0  0  0  0  0  0  0
   -4.6040   24.3180  -30.4930 C   0  0  0  0  0  0  0  0  0  0  0  0
   -4.2350   23.2040  -31.1600 N   0  0  0  0  0  0  0  0  0  0  0  0
   -4.4300   19.6820  -33.2410 C   0  0  0  0  0  0  0  0  0  0  0  0
   -3.1770   19.7760  -33.4180 N   0  0  0  0  0  0  0  0  0  0  0  0
   -2.5460   21.0030  -33.8210 C   0  0  0  0  0  0  0  0  0  0  0  0
   -1.8330   21.5470  -32.5760 C   0  0  0  0  0  0  0  0  0  0  0  0
   -2.7180   21.5200  -31.4530 N   0  0  0  0  0  0  0  0  0  0  0  0
   -3.0920   22.5760  -30.8390 C   0  0  0  0  0  0  0  0  0  0  0  0
   -5.1090   18.5190  -33.5270 C   0  0  0  0  0  0  0  0  0  0  0  0
   -6.4630   18.4150  -33.3360 C   0  0  0  0  0  0  0  0  0  0  0  0
   -7.2200   17.3070  -33.5900 O   0  0  0  0  0  0  0  0  0  0  0  0
   -6.6540   16.0620  -33.8720 C   0  0  0  0  0  0  0  0  0  0  0  0
   -7.1100   19.5390  -32.8430 C   0  0  0  0  0  0  0  0  0  0  0  0
   -8.4830   19.5060  -32.6260 C   0  0  0  0  0  0  0  0  0  0  0  0
   -9.1460   20.6340  -32.1290 C   0  0  0  0  0  0  0  0  0  0  0  0
   -8.4480   21.7850  -31.8500 C   0  0  0  0  0  0  0  0  0  0  0  0
   -7.0730   21.8330  -32.0630 C   0  0  0  0  0  0  0  0  0  0  0  0
   -6.4260   20.7120  -32.5550 C   0  0  0  0  0  0  0  0  0  0  0  0
   -5.0840   20.7610  -32.7630 N   0  0  0  0  0  0  0  0  0  0  0  0
   -2.3370   23.0770  -29.8520 N   0  0  0  0  0  0  0  0  0  0  0  0
   -2.6940   24.1870  -29.1790 C   0  0  0  0  0  0  0  0  0  0  0  0
   -1.8580   24.7560  -28.0730 C   0  0  0  0  0  0  0  0  0  0  0  0
   -3.8320   24.8100  -29.5010 N   0  0  0  0  0  0  0  0  0  0  0  0
   -6.2482   25.1137  -28.7821 H   0  0  0  0  0  0  0  0  0  0  0  0
   -7.0758   26.3548  -29.7829 H   0  0  0  0  0  0  0  0  0  0  0  0
   -7.6690   24.6592  -29.7829 H   0  0  0  0  0  0  0  0  0  0  0  0
   -6.4054   24.3165  -31.5680 H   0  0  0  0  0  0  0  0  0  0  0  0
   -5.5881   25.9425  -31.3302 H   0  0  0  0  0  0  0  0  0  0  0  0
   -3.3004   21.7220  -34.1730 H   0  0  0  0  0  0  0  0  0  0  0  0
   -1.8391   20.8375  -34.6474 H   0  0  0  0  0  0  0  0  0  0  0  0
   -1.5136   22.5829  -32.7629 H   0  0  0  0  0  0  0  0  0  0  0  0
   -0.9563   20.9189  -32.3593 H   0  0  0  0  0  0  0  0  0  0  0  0
   -4.5530   17.6539  -33.9174 H   0  0  0  0  0  0  0  0  0  0  0  0
   -6.4187   15.5444  -32.9303 H   0  0  0  0  0  0  0  0  0  0  0  0
   -7.3663   15.4587  -34.4539 H   0  0  0  0  0  0  0  0  0  0  0  0
   -5.7311   16.2021  -34.4539 H   0  0  0  0  0  0  0  0  0  0  0  0
   -9.0504   18.5897  -32.8458 H   0  0  0  0  0  0  0  0  0  0  0  0
  -10.2325   20.5993  -31.9606 H   0  0  0  0  0  0  0  0  0  0  0  0
   -8.9755   22.6674  -31.4587 H   0  0  0  0  0  0  0  0  0  0  0  0
   -6.5074   22.7505  -31.8431 H   0  0  0  0  0  0  0  0  0  0  0  0
   -4.5840   21.6590  -32.5380 H   0  0  0  0  0  0  0  0  0  0  0  0
   -2.2862   24.4646  -27.1026 H   0  0  0  0  0  0  0  0  0  0  0  0
   -0.8317   24.3681  -28.1523 H   0  0  0  0  0  0  0  0  0  0  0  0
   -1.8424   25.8530  -28.1523 H   0  0  0  0  0  0  0  0  0  0  0  0
   -4.0950   25.6740  -28.9670 H   0  0  0  0  0  0  0  0  0  0  0  0
  1  2  1  0
  2  3  1  0
  3  4  2  0
  4  5  1  0
  5  6  2  0
  6  7  1  0
  7  8  1  0
  8  9  1  0
  9 10  2  0
 10 11  1  0
 11 12  2  0
 12 13  1  0
 13 14  1  0
 12 15  1  0
 15 16  2  0
 16 17  1  0
 17 18  2  0
 18 19  1  0
 19 20  2  0
 20 21  1  0
  5 22  1  0
 22 23  2  0
 23 24  1  0
 23 25  1  0
 25  3  1  0
 21 10  1  0
 20 15  1  0
  1 26  1  0
  1 27  1  0
  1 28  1  0
  2 29  1  0
  2 30  1  0
  7 31  1  0
  7 32  1  0
  8 33  1  0
  8 34  1  0
 11 35  1  0
 14 36  1  0
 14 37  1  0
 14 38  1  0
 16 39  1  0
 17 40  1  0
 18 41  1  0
 19 42  1  0
 21 43  1  0
 24 44  1  0
 24 45  1  0
 24 46  1  0
 25 47  1  0
M  END
>  <smiles>  (17) 
CCc1nc(=NCCN=c2cc(OC)c3ccccc3[nH]2)nc(C)[nH]1

>  <score_type>  (17) 
oracle

>  <origin>  (17) 
adg

>  <m_score__min__energy>  (17) 
-7.9199999999999999

>  <m_primary>  (17) 
energy

$$$$
17:0
     RDKit          3D

 34 36  0  0  0  0  0  0  0  0999 V2000
   -2.3360   23.0420  -30.1560 C   0  0  0  0  0  0  0  0  0  0  0  0
   -3.1230   24.0590  -30.7670 O   0  0  0  0  0  0  0  0  0  0  0  0
   -4.5200   24.1410  -30.6790 C   0  0  0  0  0  0  0  0  0  0  0  0
   -5.1770   25.2630  -30.1430 C   0  0  0  0  0  0  0  0  0  0  0  0
   -6.5710   25.2980  -30.0820 C   0  0  0  0  0  0  0  0  0  0  0  0
   -7.3240   24.2170  -30.5470 C   0  0  0  0  0  0  0  0  0  0  0  0
   -6.6860   23.0790  -31.0760 C   0  0  0  0  0  0  0  0  0  0  0  0
   -7.4650   21.9200  -31.5850 C   0  0  0  0  0  0  0  0  0  0  0  0
   -8.8300   22.0170  -31.8960 C   0  0  0  0  0  0  0  0  0  0  0  0
   -9.4950   20.9200  -32.3430 N   0  0  0  0  0  0  0  0  0  0  0  0
   -8.8680   19.7270  -32.5050 C   0  0  0  0  0  0  0  0  0  0  0  0
   -7.5020   19.6140  -32.1990 C   0  0  0  0  0  0  0  0  0  0  0  0
   -6.7630   18.3330  -32.3380 C   0  0  0  0  0  0  0  0  0  0  0  0
   -6.3600   17.8420  -33.5940 C   0  0  0  0  0  0  0  0  0  0  0  0
   -5.6600   16.6400  -33.6860 C   0  0  0  0  0  0  0  0  0  0  0  0
   -5.3560   15.9310  -32.5240 C   0  0  0  0  0  0  0  0  0  0  0  0
   -5.7390   16.4150  -31.3120 N   0  0  0  0  0  0  0  0  0  0  0  0
   -6.4220   17.5860  -31.1960 C   0  0  0  0  0  0  0  0  0  0  0  0
   -6.8490   20.7160  -31.7390 N   0  0  0  0  0  0  0  0  0  0  0  0
   -5.2800   23.0600  -31.1440 C   0  0  0  0  0  0  0  0  0  0  0  0
   -2.4057   23.1321  -29.0619 H   0  0  0  0  0  0  0  0  0  0  0  0
   -2.7074   22.0544  -30.4670 H   0  0  0  0  0  0  0  0  0  0  0  0
   -1.2868   23.1537  -30.4670 H   0  0  0  0  0  0  0  0  0  0  0  0
   -4.5904   26.1158  -29.7706 H   0  0  0  0  0  0  0  0  0  0  0  0
   -7.0789   26.1806  -29.6660 H   0  0  0  0  0  0  0  0  0  0  0  0
   -8.4223   24.2553  -30.4995 H   0  0  0  0  0  0  0  0  0  0  0  0
   -9.3579   22.9749  -31.7786 H   0  0  0  0  0  0  0  0  0  0  0  0
   -9.4265   18.8540  -32.8737 H   0  0  0  0  0  0  0  0  0  0  0  0
   -6.5982   18.4087  -34.5062 H   0  0  0  0  0  0  0  0  0  0  0  0
   -5.3496   16.2535  -34.6680 H   0  0  0  0  0  0  0  0  0  0  0  0
   -4.8064   14.9803  -32.5878 H   0  0  0  0  0  0  0  0  0  0  0  0
   -5.5020   15.8740  -30.4500 H   0  0  0  0  0  0  0  0  0  0  0  0
   -6.7103   17.9521  -30.1996 H   0  0  0  0  0  0  0  0  0  0  0  0
   -4.7703   22.1827  -31.5689 H   0  0  0  0  0  0  0  0  0  0  0  0
  1  2  1  0
  2  3  1  0
  3  4  2  0
  4  5  1  0
  5  6  2  0
  6  7  1  0
  7  8  1  0
  8  9  2  0
  9 10  1  0
 10 11  2  0
 11 12  1  0
 12 13  1  0
 13 14  2  0
 14 15  1  0
 15 16  2  0
 16 17  1  0
 17 18  2  0
 12 19  2  0
  7 20  2  0
 20  3  1  0
 19  8  1  0
 18 13  1  0
  1 21  1  0
  1 22  1  0
  1 23  1  0
  4 24  1  0
  5 25  1  0
  6 26  1  0
  9 27  1  0
 11 28  1  0
 14 29  1  0
 15 30  1  0
 16 31  1  0
 17 32  1  0
 18 33  1  0
 20 34  1  0
M  CHG  1  17   1
M  END
>  <UniqueID>  (18) 
17

>  <SMILES>  (18) 
COc1cccc(-c2cncc(-c3ccc[nH+]c3)n2)c1

>  <Energy>  (18) 
45.4901003357542

>  <Genealogy>  (18) 
COc1cccc(-c2cncc(-c3ccc[nH+]c3)n2)c1 (protonated)
COc1cccc(-c2cncc(-c3ccc[nH+]c3)n2)c1 (3D coordinates assigned)
COc1cccc(-c2cncc(-c3ccc[nH+]c3)n2)c1 (optimized conformer: 45.4901003357542 kcal/mol)

>  <smiles>  (18) 
COc1cccc(-c2cncc(-c3cccnc3)n2)c1

>  <score_type>  (18) 
oracle

>  <origin>  (18) 
adg

>  <m_score__min__energy>  (18) 
-7.46

>  <m_primary>  (18) 
energy

$$$$
18:0
     RDKit          3D

 33 35  0  0  1  0  0  0  0  0999 V2000
   -6.5070   16.7170  -33.7820 C   0  0  0  0  0  0  0  0  0  0  0  0
   -6.5180   17.1570  -32.3400 C   0  0  0  0  0  0  0  0  0  0  0  0
   -5.7040   18.4250  -32.1580 C   0  0  0  0  0  0  0  0  0  0  0  0
   -5.3710   19.0420  -33.4950 C   0  0  0  0  0  0  0  0  0  0  0  0
   -6.4220   19.9260  -33.9120 N   0  0  0  0  0  0  0  0  0  0  0  0
   -7.2180   20.5120  -33.0970 C   0  0  0  0  0  0  0  0  0  0  0  0
   -8.4760   20.0590  -32.9230 N   0  0  0  0  0  0  0  0  0  0  0  0
   -9.2690   20.7110  -32.0530 C   0  0  0  0  0  0  0  0  0  0  0  0
   -8.8190   21.7990  -31.3660 N   0  0  0  0  0  0  0  0  0  0  0  0
   -7.5670   22.2600  -31.5300 C   0  0  0  0  0  0  0  0  0  0  0  0
   -6.7210   21.6120  -32.4180 C   0  0  0  0  0  0  0  0  0  0  0  0
   -5.5180   22.2300  -32.4340 N   0  0  0  0  0  0  0  0  0  0  0  0
   -5.5390   23.2730  -31.5800 C   0  0  0  0  0  0  0  0  0  0  0  0
   -4.6350   24.1970  -31.2190 N   0  0  0  0  0  0  0  0  0  0  0  0
   -4.8850   25.1780  -30.3170 C   0  0  0  0  0  0  0  0  0  0  0  0
   -6.1460   25.2030  -29.7550 C   0  0  0  0  0  0  0  0  0  0  0  0
   -7.1180   24.2730  -30.0910 C   0  0  0  0  0  0  0  0  0  0  0  0
   -6.8130   23.2950  -31.0150 C   0  0  0  0  0  0  0  0  0  0  0  0
   -6.4795   15.6184  -33.8299 H   0  0  0  0  0  0  0  0  0  0  0  0
   -7.4146   17.0833  -34.2841 H   0  0  0  0  0  0  0  0  0  0  0  0
   -5.6189   17.1282  -34.2841 H   0  0  0  0  0  0  0  0  0  0  0  0
   -7.5558   17.3467  -32.0286 H   0  0  0  0  0  0  0  0  0  0  0  0
   -6.0735   16.3609  -31.7247 H   0  0  0  0  0  0  0  0  0  0  0  0
   -6.2851   19.1448  -31.5629 H   0  0  0  0  0  0  0  0  0  0  0  0
   -4.7661   18.1721  -31.6419 H   0  0  0  0  0  0  0  0  0  0  0  0
   -4.4325   19.6094  -33.4090 H   0  0  0  0  0  0  0  0  0  0  0  0
   -5.2605   18.2410  -34.2408 H   0  0  0  0  0  0  0  0  0  0  0  0
   -8.7810   19.2390  -33.4560 H   0  0  0  0  0  0  0  0  0  0  0  0
  -10.2991   20.3596  -31.8933 H   0  0  0  0  0  0  0  0  0  0  0  0
   -4.6670   21.9760  -33.0050 H   0  0  0  0  0  0  0  0  0  0  0  0
   -4.1190   25.9193  -30.0456 H   0  0  0  0  0  0  0  0  0  0  0  0
   -6.3866   25.9840  -29.0187 H   0  0  0  0  0  0  0  0  0  0  0  0
   -8.1153   24.3143  -29.6287 H   0  0  0  0  0  0  0  0  0  0  0  0
  1  2  1  0
  2  3  1  0
  3  4  1  0
  4  5  1  0
  5  6  2  0
  6  7  1  0
  7  8  1  0
  8  9  2  0
  9 10  1  0
 10 11  2  0
 11 12  1  0
 12 13  1  0
 13 14  2  0
 14 15  1  0
 15 16  2  0
 16 17  1  0
 17 18  2  0
 11  6  1  0
 18 13  1  0
 18 10  1  0
  1 19  1  0
  1 20  1  0
  1 21  1  0
  2 22  1  0
  2 23  1  0
  3 24  1  0
  3 25  1  0
  4 26  1  0
  4 27  1  0
  7 28  1  0
  8 29  1  0
 12 30  1  0
 15 31  1  0
 16 32  1  0
 17 33  1  0
M  END
>  <smiles>  (19) 
CCCCN=c1[nH]cnc2c1[nH]c1ncccc12

>  <score_type>  (19) 
oracle

>  <origin>  (19) 
adg

>  <m_score__min__energy>  (19) 
-7.1900000000000004

>  <m_primary>  (19) 
energy

$$$$
19:0
     RDKit          3D

 35 37  0  0  0  0  0  0  0  0999 V2000
   -9.6213   21.5716  -31.7003 H   0  0  0  0  0  0  0  0  0  0  0  0
   -8.5440   21.7890  -31.7460 C   0  0  0  0  0  0  0  0  0  0  0  0
   -8.1040   23.0980  -31.9570 C   0  0  0  0  0  0  0  0  0  0  0  0
   -8.8354   23.9103  -32.0800 H   0  0  0  0  0  0  0  0  0  0  0  0
   -6.7340   23.3770  -32.0120 C   0  0  0  0  0  0  0  0  0  0  0  0
   -6.3911   24.4082  -32.1827 H   0  0  0  0  0  0  0  0  0  0  0  0
   -5.7950   22.3450  -31.8500 C   0  0  0  0  0  0  0  0  0  0  0  0
   -4.3230   22.6350  -31.9540 C   0  0  0  0  0  0  0  0  0  0  0  0
   -4.1598   23.4273  -32.6994 H   0  0  0  0  0  0  0  0  0  0  0  0
   -3.7959   21.7195  -32.2604 H   0  0  0  0  0  0  0  0  0  0  0  0
   -3.8050   23.0760  -30.6560 N   0  0  0  0  0  0  0  0  0  0  0  0
   -3.7350   24.3460  -30.1820 C   0  0  0  0  0  0  0  0  0  0  0  0
   -4.1990   25.3680  -30.8370 N   0  0  0  0  0  0  0  0  0  0  0  0
   -5.4460   26.0460  -30.5000 C   0  0  0  0  0  0  0  0  0  0  0  0
   -6.1004   26.0691  -31.3838 H   0  0  0  0  0  0  0  0  0  0  0  0
   -5.2266   27.0743  -30.1769 H   0  0  0  0  0  0  0  0  0  0  0  0
   -6.1440   25.3010  -29.3730 C   0  0  0  0  0  0  0  0  0  0  0  0
   -5.7868   25.6823  -28.4050 H   0  0  0  0  0  0  0  0  0  0  0  0
   -7.2305   25.4550  -29.4494 H   0  0  0  0  0  0  0  0  0  0  0  0
   -5.9196   24.2268  -29.4494 H   0  0  0  0  0  0  0  0  0  0  0  0
   -3.1230   24.4510  -28.9720 N   0  0  0  0  0  0  0  0  0  0  0  0
   -2.7950   23.1750  -28.6960 C   0  0  0  0  0  0  0  0  0  0  0  0
   -2.1270   22.6980  -27.5720 C   0  0  0  0  0  0  0  0  0  0  0  0
   -1.8084   23.3784  -26.7686 H   0  0  0  0  0  0  0  0  0  0  0  0
   -1.8730   21.3160  -27.4980 C   0  0  0  0  0  0  0  0  0  0  0  0
   -1.3491   20.9031  -26.6233 H   0  0  0  0  0  0  0  0  0  0  0  0
   -2.2860   20.4550  -28.5390 C   0  0  0  0  0  0  0  0  0  0  0  0
   -2.0810   19.3765  -28.4698 H   0  0  0  0  0  0  0  0  0  0  0  0
   -2.9580   20.9680  -29.6640 C   0  0  0  0  0  0  0  0  0  0  0  0
   -3.2837   20.3089  -30.4822 H   0  0  0  0  0  0  0  0  0  0  0  0
   -3.1970   22.3450  -29.7050 C   0  0  0  0  0  0  0  0  0  0  0  0
   -6.2460   21.0300  -31.6470 C   0  0  0  0  0  0  0  0  0  0  0  0
   -5.5187   20.2131  -31.5301 H   0  0  0  0  0  0  0  0  0  0  0  0
   -7.6160   20.7560  -31.5930 C   0  0  0  0  0  0  0  0  0  0  0  0
   -7.9637   19.7253  -31.4298 H   0  0  0  0  0  0  0  0  0  0  0  0
  1  2  1  0
  2  3  2  0
  3  4  1  0
  3  5  1  0
  5  6  1  0
  5  7  2  0
  7  8  1  0
  8  9  1  0
  8 10  1  0
  8 11  1  0
 11 12  1  0
 12 13  2  0
 13 14  1  0
 14 15  1  0
 14 16  1  0
 14 17  1  0
 17 18  1  0
 17 19  1  0
 17 20  1  0
 12 21  1  0
 21 22  1  0
 22 23  2  0
 23 24  1  0
 23 25  1  0
 25 26  1  0
 25 27  2  0
 27 28  1  0
 27 29  1  0
 29 30  1  0
 29 31  2  0
  7 32  1  0
 32 33  1  0
 32 34  2  0
 34 35  1  0
 34  2  1  0
 31 11  1  0
 31 22  1  0
M  CHG  1  21  -1
M  END
>  <UniqueID>  (20) 
18

>  <SMILES>  (20) 
CC/N=c1\[n-]c2ccccc2n1Cc1ccccc1

>  <Energy>  (20) 
69.3561306502226

>  <Genealogy>  (20) 
CCN=c1[n-]c2ccccc2n1Cc1ccccc1 (protonated)
CC/N=c1\[n-]c2ccccc2n1Cc1ccccc1 (cis-trans isomerization)
CC/N=c1\[n-]c2ccccc2n1Cc1ccccc1 (3D coordinates assigned)
CC/N=c1\[n-]c2ccccc2n1Cc1ccccc1 (optimized conformer: 69.3561306502226 kcal/mol)

>  <smiles>  (20) 
CCN=c1[nH]c2ccccc2n1Cc1ccccc1

>  <score_type>  (20) 
oracle

>  <origin>  (20) 
adg

>  <m_score__min__energy>  (20) 
-8.0199999999999996

>  <m_primary>  (20) 
energy

$$$$
20:0
     RDKit          3D

 40 42  0  0  0  0  0  0  0  0999 V2000
   -3.1410   21.3670  -32.3560 C   0  0  0  0  0  0  0  0  0  0  0  0
   -4.3580   21.7040  -33.0240 O   0  0  0  0  0  0  0  0  0  0  0  0
   -5.5100   21.0460  -32.6310 C   0  0  0  0  0  0  0  0  0  0  0  0
   -6.4170   21.6130  -31.7760 C   0  0  0  0  0  0  0  0  0  0  0  0
   -6.3390   22.9580  -31.1970 C   0  0  0  0  0  0  0  0  0  0  0  0
   -5.1890   23.2870  -30.3730 C   0  0  0  0  0  0  0  0  0  0  0  0
   -4.6680   22.3350  -29.5020 C   0  0  0  0  0  0  0  0  0  0  0  0
   -3.5900   22.5520  -28.7350 N   0  0  0  0  0  0  0  0  0  0  0  0
   -3.0010   23.7570  -28.8310 C   0  0  0  0  0  0  0  0  0  0  0  0
   -1.9510   24.0220  -28.1110 N   0  0  0  0  0  0  0  0  0  0  0  0
   -3.4400   24.7320  -29.6470 N   0  0  0  0  0  0  0  0  0  0  0  0
   -4.5380   24.5270  -30.4350 C   0  0  0  0  0  0  0  0  0  0  0  0
   -4.9860   25.4360  -31.2310 N   0  0  0  0  0  0  0  0  0  0  0  0
   -7.5320   20.8400  -31.4560 C   0  0  0  0  0  0  0  0  0  0  0  0
   -7.7420   19.5790  -31.9520 C   0  0  0  0  0  0  0  0  0  0  0  0
   -8.9580   18.7860  -31.5790 C   0  0  0  0  0  0  0  0  0  0  0  0
   -6.8080   19.0510  -32.8060 C   0  0  0  0  0  0  0  0  0  0  0  0
   -6.9910   17.7880  -33.3290 C   0  0  0  0  0  0  0  0  0  0  0  0
   -6.0920   17.1960  -34.2000 C   0  0  0  0  0  0  0  0  0  0  0  0
   -4.9560   17.9190  -34.5570 C   0  0  0  0  0  0  0  0  0  0  0  0
   -4.7810   19.1940  -34.0240 C   0  0  0  0  0  0  0  0  0  0  0  0
   -5.6860   19.7650  -33.1600 C   0  0  0  0  0  0  0  0  0  0  0  0
   -3.2960   21.4099  -31.2678 H   0  0  0  0  0  0  0  0  0  0  0  0
   -2.8347   20.3502  -32.6429 H   0  0  0  0  0  0  0  0  0  0  0  0
   -2.3553   22.0814  -32.6429 H   0  0  0  0  0  0  0  0  0  0  0  0
   -6.3568   23.6737  -32.0322 H   0  0  0  0  0  0  0  0  0  0  0  0
   -7.1920   23.0053  -30.5041 H   0  0  0  0  0  0  0  0  0  0  0  0
   -5.1653   21.3558  -29.4397 H   0  0  0  0  0  0  0  0  0  0  0  0
   -3.2070   21.8200  -28.0800 H   0  0  0  0  0  0  0  0  0  0  0  0
   -1.1180   23.3910  -28.0460 H   0  0  0  0  0  0  0  0  0  0  0  0
   -2.9900   25.6720  -29.7280 H   0  0  0  0  0  0  0  0  0  0  0  0
   -4.3020   25.8490  -31.8990 H   0  0  0  0  0  0  0  0  0  0  0  0
   -8.2814   21.2630  -30.7708 H   0  0  0  0  0  0  0  0  0  0  0  0
   -9.0393   18.7330  -30.4833 H   0  0  0  0  0  0  0  0  0  0  0  0
   -9.8542   19.2738  -31.9900 H   0  0  0  0  0  0  0  0  0  0  0  0
   -8.8729   17.7692  -31.9900 H   0  0  0  0  0  0  0  0  0  0  0  0
   -7.8916   17.2257  -33.0413 H   0  0  0  0  0  0  0  0  0  0  0  0
   -6.2694   16.1859  -34.5978 H   0  0  0  0  0  0  0  0  0  0  0  0
   -4.2123   17.4917  -35.2458 H   0  0  0  0  0  0  0  0  0  0  0  0
   -3.8845   19.7662  -34.3049 H   0  0  0  0  0  0  0  0  0  0  0  0
  1  2  1  0
  2  3  1  0
  3  4  2  0
  4  5  1  0
  5  6  1  0
  6  7  2  0
  7  8  1  0
  8  9  1  0
  9 10  2  3
  9 11  1  0
 11 12  1  0
 12 13  2  3
  4 14  1  0
 14 15  2  0
 15 16  1  0
 15 17  1  0
 17 18  2  0
 18 19  1  0
 19 20  2  0
 20 21  1  0
 21 22  2  0
 22  3  1  0
 12  6  1  0
 22 17  1  0
  1 23  1  0
  1 24  1  0
  1 25  1  0
  5 26  1  0
  5 27  1  0
  7 28  1  0
  8 29  1  0
 10 30  1  0
 11 31  1  0
 13 32  1  0
 14 33  1  0
 16 34  1  0
 16 35  1  0
 16 36  1  0
 18 37  1  0
 19 38  1  0
 20 39  1  0
 21 40  1  0
M  END
>  <smiles>  (21) 
COc1c(Cc2c[nH]c(=N)[nH]c2=N)cc(C)c2ccccc12

>  <score_type>  (21) 
oracle

>  <origin>  (21) 
adg

>  <m_score__min__energy>  (21) 
-8.3399999999999999

>  <m_primary>  (21) 
energy

$$$$
21:0
     RDKit          3D

 47 50  0  0  0  0  0  0  0  0999 V2000
   -3.9390   16.2790  -34.2130 C   0  0  0  0  0  0  0  0  0  0  0  0
   -5.3360   16.3790  -33.7570 N   0  0  0  0  0  0  0  0  0  0  0  0
   -5.4390   16.6750  -32.3040 C   0  0  0  0  0  0  0  0  0  0  0  0
   -5.9760   18.0840  -31.9850 C   0  0  0  0  0  0  0  0  0  0  0  0
   -5.3940   19.1150  -32.9610 C   0  0  0  0  0  0  0  0  0  0  0  0
   -5.8420   20.5160  -32.6210 C   0  0  0  0  0  0  0  0  0  0  0  0
   -5.0200   21.5910  -32.2910 C   0  0  0  0  0  0  0  0  0  0  0  0
   -5.7620   22.6470  -31.8770 N   0  0  0  0  0  0  0  0  0  0  0  0
   -5.2460   23.9090  -31.4230 C   0  0  0  0  0  0  0  0  0  0  0  0
   -5.9220   24.9590  -31.5860 O   0  0  0  0  0  0  0  0  0  0  0  0
   -3.9390   24.0100  -30.8420 N   0  0  0  0  0  0  0  0  0  0  0  0
   -3.3580   23.0730  -29.9250 C   0  0  0  0  0  0  0  0  0  0  0  0
   -2.1550   22.4040  -30.2160 C   0  0  0  0  0  0  0  0  0  0  0  0
   -1.6060   21.5090  -29.2930 C   0  0  0  0  0  0  0  0  0  0  0  0
   -2.2630   21.2570  -28.0840 C   0  0  0  0  0  0  0  0  0  0  0  0
   -1.5700   20.1390  -26.9250 Cl  0  0  0  0  0  0  0  0  0  0  0  0
   -3.4770   21.8950  -27.8040 C   0  0  0  0  0  0  0  0  0  0  0  0
   -4.0260   22.7930  -28.7260 C   0  0  0  0  0  0  0  0  0  0  0  0
   -7.0520   22.2520  -31.9430 C   0  0  0  0  0  0  0  0  0  0  0  0
   -8.1960   22.9620  -31.5610 C   0  0  0  0  0  0  0  0  0  0  0  0
   -9.4400   22.3140  -31.6580 C   0  0  0  0  0  0  0  0  0  0  0  0
   -9.5190   20.9810  -32.1100 C   0  0  0  0  0  0  0  0  0  0  0  0
   -8.3550   20.2800  -32.4710 C   0  0  0  0  0  0  0  0  0  0  0  0
   -7.1340   20.9500  -32.3800 C   0  0  0  0  0  0  0  0  0  0  0  0
   -5.7570   18.7680  -34.4230 C   0  0  0  0  0  0  0  0  0  0  0  0
   -6.1300   17.2840  -34.6130 C   0  0  0  0  0  0  0  0  0  0  0  0
   -3.2710   16.2312  -33.3404 H   0  0  0  0  0  0  0  0  0  0  0  0
   -3.8155   15.3697  -34.8196 H   0  0  0  0  0  0  0  0  0  0  0  0
   -3.6872   17.1614  -34.8196 H   0  0  0  0  0  0  0  0  0  0  0  0
   -6.1148   15.9364  -31.8481 H   0  0  0  0  0  0  0  0  0  0  0  0
   -4.4182   16.6251  -31.8972 H   0  0  0  0  0  0  0  0  0  0  0  0
   -7.0725   18.0817  -32.0723 H   0  0  0  0  0  0  0  0  0  0  0  0
   -5.6774   18.3551  -30.9616 H   0  0  0  0  0  0  0  0  0  0  0  0
   -4.2994   19.0770  -32.8595 H   0  0  0  0  0  0  0  0  0  0  0  0
   -3.9220   21.5839  -32.3571 H   0  0  0  0  0  0  0  0  0  0  0  0
   -1.6446   22.5858  -31.1733 H   0  0  0  0  0  0  0  0  0  0  0  0
   -0.6560   21.0022  -29.5178 H   0  0  0  0  0  0  0  0  0  0  0  0
   -4.0000   21.6902  -26.8582 H   0  0  0  0  0  0  0  0  0  0  0  0
   -4.9871   23.2816  -28.5081 H   0  0  0  0  0  0  0  0  0  0  0  0
   -8.1240   23.9970  -31.1955 H   0  0  0  0  0  0  0  0  0  0  0  0
  -10.3585   22.8512  -31.3791 H   0  0  0  0  0  0  0  0  0  0  0  0
  -10.4986   20.4857  -32.1808 H   0  0  0  0  0  0  0  0  0  0  0  0
   -8.4050   19.2362  -32.8144 H   0  0  0  0  0  0  0  0  0  0  0  0
   -6.6135   19.3870  -34.7283 H   0  0  0  0  0  0  0  0  0  0  0  0
   -4.8679   18.9663  -35.0397 H   0  0  0  0  0  0  0  0  0  0  0  0
   -7.1946   17.1552  -34.3678 H   0  0  0  0  0  0  0  0  0  0  0  0
   -5.9170   17.0208  -35.6596 H   0  0  0  0  0  0  0  0  0  0  0  0
  1  2  1  0
  2  3  1  0
  3  4  1  0
  4  5  1  0
  5  6  1  0
  6  7  2  0
  7  8  1  0
  8  9  1  0
  9 10  2  0
  9 11  1  0
 11 12  1  0
 12 13  2  0
 13 14  1  0
 14 15  2  0
 15 16  1  0
 15 17  1  0
 17 18  2  0
  8 19  1  0
 19 20  2  0
 20 21  1  0
 21 22  2  0
 22 23  1  0
 23 24  2  0
  5 25  1  0
 25 26  1  0
 26  2  1  0
 24  6  1  0
 18 12  1  0
 24 19  1  0
  1 27  1  0
  1 28  1  0
  1 29  1  0
  3 30  1  0
  3 31  1  0
  4 32  1  0
  4 33  1  0
  5 34  1  0
  7 35  1  0
 13 36  1  0
 14 37  1  0
 17 38  1  0
 18 39  1  0
 20 40  1  0
 21 41  1  0
 22 42  1  0
 23 43  1  0
 25 44  1  0
 25 45  1  0
 26 46  1  0
 26 47  1  0
M  CHG  1  11  -1
M  END
>  <UniqueID>  (22) 
19

>  <SMILES>  (22) 
CN1CCC(c2cn(C(=O)[N-]c3ccc(Cl)cc3)c3ccccc23)CC1

>  <Energy>  (22) 
97.82090099564083

>  <Genealogy>  (22) 
CN1CCC(c2cn(C(=O)[N-]c3ccc(Cl)cc3)c3ccccc23)CC1 (protonated)
CN1CCC(c2cn(C(=O)[N-]c3ccc(Cl)cc3)c3ccccc23)CC1 (3D coordinates assigned)
CN1CCC(c2cn(C(=O)[N-]c3ccc(Cl)cc3)c3ccccc23)CC1 (nonaromatic ring conformer: 97.82090099564083 kcal/mol)

>  <smiles>  (22) 
CN1CCC(c2cn(C(=O)Nc3ccc(Cl)cc3)c3ccccc23)CC1

>  <score_type>  (22) 
oracle

>  <origin>  (22) 
adg

>  <m_score__min__energy>  (22) 
-10.56

>  <m_primary>  (22) 
energy

$$$$
22:0
     RDKit          3D

 33 33  0  0  0  0  0  0  0  0999 V2000
   -0.8470   21.5240  -31.2770 C   0  0  0  0  0  0  0  0  0  0  0  0
   -0.7120   21.0210  -32.7100 C   0  0  0  0  0  0  0  0  0  0  0  0
   -2.0490   20.6120  -33.2510 C   0  0  0  0  0  0  0  0  0  0  0  0
   -2.1040   19.8110  -34.2250 O   0  0  0  0  0  0  0  0  0  0  0  0
   -3.2510   21.1330  -32.6630 N   0  0  0  0  0  0  0  0  0  0  0  0
   -4.5710   20.6530  -32.9680 C   0  0  0  0  0  0  0  0  0  0  0  0
   -4.7800   19.3890  -33.1960 N   0  0  0  0  0  0  0  0  0  0  0  0
   -5.6530   21.5990  -33.0020 N   0  0  0  0  0  0  0  0  0  0  0  0
   -6.9850   21.3200  -32.4590 C   0  0  0  0  0  0  0  0  0  0  0  0
   -7.3350   22.3060  -31.3350 C   0  0  0  0  0  0  0  0  0  0  0  0
   -6.9680   23.7600  -31.6700 C   0  0  0  0  0  0  0  0  0  0  0  0
   -5.5910   24.1160  -31.1990 C   0  0  0  0  0  0  0  0  0  0  0  0
   -5.1790   25.3460  -30.7470 C   0  0  0  0  0  0  0  0  0  0  0  0
   -3.8710   25.2840  -30.4490 N   0  0  0  0  0  0  0  0  0  0  0  0
   -3.5280   24.0100  -30.7340 C   0  0  0  0  0  0  0  0  0  0  0  0
   -4.5520   23.2630  -31.2000 N   0  0  0  0  0  0  0  0  0  0  0  0
   -0.6268   20.7036  -30.5781 H   0  0  0  0  0  0  0  0  0  0  0  0
   -0.1384   22.3485  -31.1095 H   0  0  0  0  0  0  0  0  0  0  0  0
   -1.8732   21.8829  -31.1095 H   0  0  0  0  0  0  0  0  0  0  0  0
   -0.2976   21.8235  -33.3378 H   0  0  0  0  0  0  0  0  0  0  0  0
   -0.0424   20.1483  -32.7191 H   0  0  0  0  0  0  0  0  0  0  0  0
   -3.1720   21.9760  -32.0520 H   0  0  0  0  0  0  0  0  0  0  0  0
   -4.0700   18.7890  -33.6670 H   0  0  0  0  0  0  0  0  0  0  0  0
   -5.6720   18.9270  -32.9140 H   0  0  0  0  0  0  0  0  0  0  0  0
   -5.3890   22.6050  -33.1020 H   0  0  0  0  0  0  0  0  0  0  0  0
   -7.7289   21.4125  -33.2640 H   0  0  0  0  0  0  0  0  0  0  0  0
   -6.9904   20.3002  -32.0468 H   0  0  0  0  0  0  0  0  0  0  0  0
   -8.4176   22.2528  -31.1477 H   0  0  0  0  0  0  0  0  0  0  0  0
   -6.7483   22.0159  -30.4509 H   0  0  0  0  0  0  0  0  0  0  0  0
   -7.0161   23.8958  -32.7605 H   0  0  0  0  0  0  0  0  0  0  0  0
   -7.6832   24.4176  -31.1542 H   0  0  0  0  0  0  0  0  0  0  0  0
   -5.8166   26.2366  -30.6457 H   0  0  0  0  0  0  0  0  0  0  0  0
   -2.5095   23.6169  -30.5993 H   0  0  0  0  0  0  0  0  0  0  0  0
  1  2  1  0
  2  3  1  0
  3  4  2  0
  3  5  1  0
  5  6  1  0
  6  7  2  0
  6  8  1  0
  8  9  1  0
  9 10  1  0
 10 11  1  0
 11 12  1  0
 12 13  2  0
 13 14  1  0
 14 15  1  0
 15 16  2  0
 16 12  1  0
  1 17  1  0
  1 18  1  0
  1 19  1  0
  2 20  1  0
  2 21  1  0
  5 22  1  0
  7 23  1  0
  7 24  1  0
  8 25  1  0
  9 26  1  0
  9 27  1  0
 10 28  1  0
 10 29  1  0
 11 30  1  0
 11 31  1  0
 13 32  1  0
 15 33  1  0
M  CHG  2   7   1  14  -1
M  END
>  <UniqueID>  (23) 
20

>  <SMILES>  (23) 
CCC(=O)NC(=[NH2+])NCCCc1c[n-]cn1

>  <Energy>  (23) 
52.70467775544073

>  <Genealogy>  (23) 
CCC(=O)NC(=[NH2+])NCCCc1c[n-]cn1 (protonated)
CCC(=O)NC(=[NH2+])NCCCc1c[n-]cn1 (3D coordinates assigned)
CCC(=O)NC(=[NH2+])NCCCc1c[n-]cn1 (optimized conformer: 52.70467775544073 kcal/mol)

>  <smiles>  (23) 
CCC(=O)NC(=N)NCCCc1c[nH]cn1

>  <score_type>  (23) 
oracle

>  <origin>  (23) 
adg

>  <m_score__min__energy>  (23) 
-5.5099999999999998

>  <m_primary>  (23) 
energy

$$$$
23:0
     RDKit          3D

 44 47  0  0  0  0  0  0  0  0999 V2000
   -1.4590   19.9990  -28.0610 C   0  0  0  0  0  0  0  0  0  0  0  0
   -1.9850   21.2960  -28.6030 C   0  0  0  0  0  0  0  0  0  0  0  0
   -1.8050   21.6190  -29.9530 C   0  0  0  0  0  0  0  0  0  0  0  0
   -2.3230   22.8090  -30.4680 C   0  0  0  0  0  0  0  0  0  0  0  0
   -3.0260   23.6980  -29.6370 C   0  0  0  0  0  0  0  0  0  0  0  0
   -3.5670   24.9220  -30.1600 N   0  0  0  0  0  0  0  0  0  0  0  0
   -4.9340   25.1510  -30.5250 C   0  0  0  0  0  0  0  0  0  0  0  0
   -5.3920   26.3210  -30.4590 O   0  0  0  0  0  0  0  0  0  0  0  0
   -5.8000   24.0700  -31.0300 C   0  0  0  0  0  0  0  0  0  0  0  0
   -5.3940   22.8760  -31.5810 C   0  0  0  0  0  0  0  0  0  0  0  0
   -6.4890   22.1670  -31.9320 N   0  0  0  0  0  0  0  0  0  0  0  0
   -7.5270   22.9640  -31.5890 C   0  0  0  0  0  0  0  0  0  0  0  0
   -7.1430   24.1340  -31.0340 N   0  0  0  0  0  0  0  0  0  0  0  0
   -8.9500   22.5560  -31.6540 C   0  0  0  0  0  0  0  0  0  0  0  0
   -9.1060   21.2460  -30.8930 C   0  0  0  0  0  0  0  0  0  0  0  0
   -8.8720   20.0450  -31.7980 C   0  0  0  0  0  0  0  0  0  0  0  0
   -7.5310   19.8980  -32.4900 C   0  0  0  0  0  0  0  0  0  0  0  0
   -7.3740   18.7020  -33.1260 N   0  0  0  0  0  0  0  0  0  0  0  0
   -6.2790   18.3810  -33.8570 C   0  0  0  0  0  0  0  0  0  0  0  0
   -5.2550   19.3010  -34.0030 C   0  0  0  0  0  0  0  0  0  0  0  0
   -5.3610   20.5390  -33.3810 C   0  0  0  0  0  0  0  0  0  0  0  0
   -6.4850   20.8740  -32.5940 C   0  0  0  0  0  0  0  0  0  0  0  0
   -3.2510   23.3560  -28.2880 C   0  0  0  0  0  0  0  0  0  0  0  0
   -4.0230   24.2800  -27.3880 C   0  0  0  0  0  0  0  0  0  0  0  0
   -2.7240   22.1580  -27.7790 C   0  0  0  0  0  0  0  0  0  0  0  0
   -1.4713   20.0292  -26.9615 H   0  0  0  0  0  0  0  0  0  0  0  0
   -2.0924   19.1711  -28.4121 H   0  0  0  0  0  0  0  0  0  0  0  0
   -0.4278   19.8462  -28.4121 H   0  0  0  0  0  0  0  0  0  0  0  0
   -1.2529   20.9321  -30.6113 H   0  0  0  0  0  0  0  0  0  0  0  0
   -2.1799   23.0523  -31.5312 H   0  0  0  0  0  0  0  0  0  0  0  0
   -4.3510   22.5527  -31.7136 H   0  0  0  0  0  0  0  0  0  0  0  0
   -9.5807   23.3310  -31.1940 H   0  0  0  0  0  0  0  0  0  0  0  0
   -9.2599   22.4256  -32.7014 H   0  0  0  0  0  0  0  0  0  0  0  0
   -8.3763   21.2213  -30.0702 H   0  0  0  0  0  0  0  0  0  0  0  0
  -10.1341   21.1917  -30.5057 H   0  0  0  0  0  0  0  0  0  0  0  0
   -9.0183   19.1445  -31.1834 H   0  0  0  0  0  0  0  0  0  0  0  0
   -9.5814   20.1950  -32.6252 H   0  0  0  0  0  0  0  0  0  0  0  0
   -6.2041   17.3922  -34.3330 H   0  0  0  0  0  0  0  0  0  0  0  0
   -4.3676   19.0548  -34.6045 H   0  0  0  0  0  0  0  0  0  0  0  0
   -4.5520   21.2741  -33.5042 H   0  0  0  0  0  0  0  0  0  0  0  0
   -3.8132   24.0289  -26.3378 H   0  0  0  0  0  0  0  0  0  0  0  0
   -3.7211   25.3195  -27.5838 H   0  0  0  0  0  0  0  0  0  0  0  0
   -5.0996   24.1678  -27.5838 H   0  0  0  0  0  0  0  0  0  0  0  0
   -2.8921   21.8931  -26.7247 H   0  0  0  0  0  0  0  0  0  0  0  0
  1  2  1  0
  2  3  2  0
  3  4  1  0
  4  5  2  0
  5  6  1  0
  6  7  1  0
  7  8  2  0
  7  9  1  0
  9 10  2  0
 10 11  1  0
 11 12  1  0
 12 13  2  0
 12 14  1  0
 14 15  1  0
 15 16  1  0
 16 17  1  0
 17 18  2  0
 18 19  1  0
 19 20  2  0
 20 21  1  0
 21 22  2  0
  5 23  1  0
 23 24  1  0
 23 25  2  0
 25  2  1  0
 13  9  1  0
 22 17  1  0
 22 11  1  0
  1 26  1  0
  1 27  1  0
  1 28  1  0
  3 29  1  0
  4 30  1  0
 10 31  1  0
 14 32  1  0
 14 33  1  0
 15 34  1  0
 15 35  1  0
 16 36  1  0
 16 37  1  0
 19 38  1  0
 20 39  1  0
 21 40  1  0
 24 41  1  0
 24 42  1  0
 24 43  1  0
 25 44  1  0
M  CHG  1   6  -1
M  END
>  <UniqueID>  (24) 
21

>  <SMILES>  (24) 
Cc1ccc([N-]C(=O)c2cn3c(n2)CCCc2ncccc2-3)c(C)c1

>  <Energy>  (24) 
95.78787347587345

>  <Genealogy>  (24) 
Cc1ccc([N-]C(=O)c2cn3c(n2)CCCc2ncccc2-3)c(C)c1 (protonated)
Cc1ccc([N-]C(=O)c2cn3c(n2)CCCc2ncccc2-3)c(C)c1 (3D coordinates assigned)
Cc1ccc([N-]C(=O)c2cn3c(n2)CCCc2ncccc2-3)c(C)c1 (nonaromatic ring conformer: 95.78787347587345 kcal/mol)

>  <smiles>  (24) 
Cc1ccc(NC(=O)c2cn3c(n2)CCCc2ncccc2-3)c(C)c1

>  <score_type>  (24) 
oracle

>  <origin>  (24) 
adg

>  <m_score__min__energy>  (24) 
-9.7799999999999994

>  <m_primary>  (24) 
energy

$$$$
24:0
     RDKit          3D

 44 46  0  0  0  0  0  0  0  0999 V2000
   -3.6730   18.5430  -25.9750 C   0  0  0  0  0  0  0  0  0  0  0  0
   -2.3540   19.2280  -26.3310 C   0  0  0  0  0  0  0  0  0  0  0  0
   -1.3820   18.2770  -27.0460 C   0  0  0  0  0  0  0  0  0  0  0  0
   -0.1920   18.9830  -27.5740 N   0  0  0  0  0  0  0  0  0  0  0  0
    0.8970   18.0340  -27.8550 C   0  0  0  0  0  0  0  0  0  0  0  0
   -0.4700   19.8710  -28.7300 C   0  0  0  0  0  0  0  0  0  0  0  0
   -0.6690   21.3270  -28.3620 C   0  0  0  0  0  0  0  0  0  0  0  0
   -1.1040   22.2520  -29.3280 C   0  0  0  0  0  0  0  0  0  0  0  0
   -1.2880   23.5970  -28.9920 C   0  0  0  0  0  0  0  0  0  0  0  0
   -1.0270   24.0370  -27.6870 C   0  0  0  0  0  0  0  0  0  0  0  0
   -1.2020   25.3750  -27.3240 C   0  0  0  0  0  0  0  0  0  0  0  0
   -0.9250   25.7930  -26.0150 C   0  0  0  0  0  0  0  0  0  0  0  0
   -0.5000   24.8340  -25.0630 C   0  0  0  0  0  0  0  0  0  0  0  0
   -0.3260   23.5390  -25.4500 N   0  0  0  0  0  0  0  0  0  0  0  0
   -0.5800   23.1180  -26.7170 C   0  0  0  0  0  0  0  0  0  0  0  0
   -0.3950   21.7740  -27.0580 C   0  0  0  0  0  0  0  0  0  0  0  0
   -0.1300   25.2160  -23.7210 N   0  0  0  0  0  0  0  0  0  0  0  0
   -0.8060   26.4400  -23.2700 C   0  0  0  0  0  0  0  0  0  0  0  0
   -0.5780   27.5780  -24.2680 C   0  0  0  0  0  0  0  0  0  0  0  0
   -1.1960   27.2220  -25.6210 C   0  0  0  0  0  0  0  0  0  0  0  0
   -3.7751   18.4900  -24.8810 H   0  0  0  0  0  0  0  0  0  0  0  0
   -4.5106   19.1201  -26.3939 H   0  0  0  0  0  0  0  0  0  0  0  0
   -3.6827   17.5259  -26.3939 H   0  0  0  0  0  0  0  0  0  0  0  0
   -2.5650   20.0817  -26.9917 H   0  0  0  0  0  0  0  0  0  0  0  0
   -1.8793   19.5553  -25.3942 H   0  0  0  0  0  0  0  0  0  0  0  0
   -1.0498   17.5085  -26.3325 H   0  0  0  0  0  0  0  0  0  0  0  0
   -1.9142   17.8301  -27.8986 H   0  0  0  0  0  0  0  0  0  0  0  0
    1.3176   17.6674  -26.9070 H   0  0  0  0  0  0  0  0  0  0  0  0
    0.5036   17.1855  -28.4340 H   0  0  0  0  0  0  0  0  0  0  0  0
    1.6838   18.5397  -28.4340 H   0  0  0  0  0  0  0  0  0  0  0  0
    0.3779   19.8045  -29.4276 H   0  0  0  0  0  0  0  0  0  0  0  0
   -1.4155   19.5254  -29.1734 H   0  0  0  0  0  0  0  0  0  0  0  0
   -1.3011   21.9148  -30.3563 H   0  0  0  0  0  0  0  0  0  0  0  0
   -1.6379   24.3104  -29.7527 H   0  0  0  0  0  0  0  0  0  0  0  0
   -1.5583   26.1027  -28.0680 H   0  0  0  0  0  0  0  0  0  0  0  0
   -0.0329   21.0627  -26.3010 H   0  0  0  0  0  0  0  0  0  0  0  0
    0.9060   25.3560  -23.6890 H   0  0  0  0  0  0  0  0  0  0  0  0
   -0.3790   24.4400  -23.0640 H   0  0  0  0  0  0  0  0  0  0  0  0
   -1.8852   26.2461  -23.1826 H   0  0  0  0  0  0  0  0  0  0  0  0
   -0.3931   26.7351  -22.2940 H   0  0  0  0  0  0  0  0  0  0  0  0
   -1.0456   28.4970  -23.8849 H   0  0  0  0  0  0  0  0  0  0  0  0
    0.5034   27.7336  -24.3958 H   0  0  0  0  0  0  0  0  0  0  0  0
   -2.2841   27.3729  -25.5636 H   0  0  0  0  0  0  0  0  0  0  0  0
   -0.7398   27.8731  -26.3812 H   0  0  0  0  0  0  0  0  0  0  0  0
  1  2  1  0
  2  3  1  0
  3  4  1  0
  4  5  1  0
  4  6  1  0
  6  7  1  0
  7  8  2  0
  8  9  1  0
  9 10  2  0
 10 11  1  0
 11 12  2  0
 12 13  1  0
 13 14  2  0
 14 15  1  0
 15 16  2  0
 13 17  1  0
 17 18  1  0
 18 19  1  0
 19 20  1  0
 16  7  1  0
 15 10  1  0
 20 12  1  0
  1 21  1  0
  1 22  1  0
  1 23  1  0
  2 24  1  0
  2 25  1  0
  3 26  1  0
  3 27  1  0
  5 28  1  0
  5 29  1  0
  5 30  1  0
  6 31  1  0
  6 32  1  0
  8 33  1  0
  9 34  1  0
 11 35  1  0
 16 36  1  0
 17 37  1  0
 17 38  1  0
 18 39  1  0
 18 40  1  0
 19 41  1  0
 19 42  1  0
 20 43  1  0
 20 44  1  0
M  CHG  1  17   1
M  END
>  <UniqueID>  (25) 
22

>  <SMILES>  (25) 
CCCN(C)Cc1ccc2cc3c(nc2c1)[NH2+]CCC3

>  <Energy>  (25) 
49.760165591748525

>  <Genealogy>  (25) 
CCCN(C)Cc1ccc2cc3c(nc2c1)[NH2+]CCC3 (protonated)
CCCN(C)Cc1ccc2cc3c(nc2c1)[NH2+]CCC3 (3D coordinates assigned)
CCCN(C)Cc1ccc2cc3c(nc2c1)[NH2+]CCC3 (nonaromatic ring conformer: 49.760165591748525 kcal/mol)

>  <smiles>  (25) 
CCCN(C)Cc1ccc2cc3c(nc2c1)NCCC3

>  <score_type>  (25) 
oracle

>  <origin>  (25) 
adg

>  <m_score__min__energy>  (25) 
-7.0199999999999996

>  <m_primary>  (25) 
energy

$$$$
25:0
     RDKit          3D

 28 29  0  0  0  0  0  0  0  0999 V2000
   -5.5990   21.2370  -30.3700 H   0  0  0  0  0  0  0  0  0  0  0  0
   -4.5670   21.3770  -30.4550 N   0  0  0  0  0  0  0  0  0  0  0  0
   -3.9900   22.5110  -30.2010 C   0  0  0  0  0  0  0  0  0  0  0  0
   -2.6030   22.5660  -29.9980 C   0  0  0  0  0  0  0  0  0  0  0  0
   -2.0012   21.6462  -30.0391 H   0  0  0  0  0  0  0  0  0  0  0  0
   -1.9920   23.7920  -29.7440 C   0  0  0  0  0  0  0  0  0  0  0  0
   -0.9054   23.8400  -29.5795 H   0  0  0  0  0  0  0  0  0  0  0  0
   -2.7350   24.9280  -29.6990 N   0  0  0  0  0  0  0  0  0  0  0  0
   -4.0800   24.9100  -29.8900 C   0  0  0  0  0  0  0  0  0  0  0  0
   -4.6507   25.8494  -29.8483 H   0  0  0  0  0  0  0  0  0  0  0  0
   -4.7450   23.7010  -30.1400 C   0  0  0  0  0  0  0  0  0  0  0  0
   -6.4930   23.7230  -30.4260 S   0  0  0  0  0  0  0  0  0  0  0  0
   -7.0380   25.0800  -30.0750 O   0  0  0  0  0  0  0  0  0  0  0  0
   -7.1770   22.7030  -29.5610 O   0  0  0  0  0  0  0  0  0  0  0  0
   -6.8380   23.3880  -32.1460 C   0  0  0  0  0  0  0  0  0  0  0  0
   -7.4981   24.1737  -32.5422 H   0  0  0  0  0  0  0  0  0  0  0  0
   -5.8890   23.3728  -32.7021 H   0  0  0  0  0  0  0  0  0  0  0  0
   -7.5110   22.0540  -32.2990 C   0  0  0  0  0  0  0  0  0  0  0  0
   -6.7820   20.9380  -32.7480 C   0  0  0  0  0  0  0  0  0  0  0  0
   -5.7255   21.0519  -33.0325 H   0  0  0  0  0  0  0  0  0  0  0  0
   -7.3950   19.6850  -32.8340 C   0  0  0  0  0  0  0  0  0  0  0  0
   -6.8203   18.8155  -33.1856 H   0  0  0  0  0  0  0  0  0  0  0  0
   -8.7370   19.5350  -32.4740 C   0  0  0  0  0  0  0  0  0  0  0  0
   -9.2189   18.5488  -32.5464 H   0  0  0  0  0  0  0  0  0  0  0  0
   -9.4670   20.6380  -32.0220 C   0  0  0  0  0  0  0  0  0  0  0  0
  -10.5228   20.5186  -31.7375 H   0  0  0  0  0  0  0  0  0  0  0  0
   -8.8570   21.8930  -31.9310 C   0  0  0  0  0  0  0  0  0  0  0  0
   -9.4334   22.7575  -31.5698 H   0  0  0  0  0  0  0  0  0  0  0  0
  1  2  1  0
  2  3  2  0
  3  4  1  0
  4  5  1  0
  4  6  2  0
  6  7  1  0
  6  8  1  0
  8  9  1  0
  9 10  1  0
  9 11  2  0
 11 12  1  0
 12 13  2  0
 12 14  2  0
 12 15  1  0
 15 16  1  0
 15 17  1  0
 15 18  1  0
 18 19  2  0
 19 20  1  0
 19 21  1  0
 21 22  1  0
 21 23  2  0
 23 24  1  0
 23 25  1  0
 25 26  1  0
 25 27  2  0
 27 28  1  0
 11  3  1  0
 27 18  1  0
M  CHG  1   8  -1
M  END
>  <UniqueID>  (26) 
23

>  <SMILES>  (26) 
[H]/N=c1\cc[n-]cc1S(=O)(=O)Cc1ccccc1

>  <Energy>  (26) 
26.682491383824466

>  <Genealogy>  (26) 
N=c1cc[n-]cc1S(=O)(=O)Cc1ccccc1 (protonated)
[H]/N=c1\cc[n-]cc1S(=O)(=O)Cc1ccccc1 (cis-trans isomerization)
[H]/N=c1\cc[n-]cc1S(=O)(=O)Cc1ccccc1 (3D coordinates assigned)
[H]/N=c1\cc[n-]cc1S(=O)(=O)Cc1ccccc1 (optimized conformer: 26.682491383824466 kcal/mol)

>  <smiles>  (26) 
N=c1cc[nH]cc1S(=O)(=O)Cc1ccccc1

>  <score_type>  (26) 
oracle

>  <origin>  (26) 
adg

>  <m_score__min__energy>  (26) 
-7.8600000000000003

>  <m_primary>  (26) 
energy

$$$$
26:0
     RDKit          3D

 33 34  0  0  0  0  0  0  0  0999 V2000
   -5.3220   24.8150  -30.5220 C   0  0  0  0  0  0  0  0  0  0  0  0
   -4.6210   23.6430  -31.2010 C   0  0  0  0  0  0  0  0  0  0  0  0
   -5.3990   23.1790  -32.3600 N   0  0  0  0  0  0  0  0  0  0  0  0
   -5.6140   21.7270  -32.3160 C   0  0  0  0  0  0  0  0  0  0  0  0
   -7.0880   21.4370  -32.1490 C   0  0  0  0  0  0  0  0  0  0  0  0
   -7.9320   22.4710  -31.7040 C   0  0  0  0  0  0  0  0  0  0  0  0
   -9.3100   22.2720  -31.6050 C   0  0  0  0  0  0  0  0  0  0  0  0
   -9.8680   21.0450  -31.9670 C   0  0  0  0  0  0  0  0  0  0  0  0
   -9.0490   20.0140  -32.4280 C   0  0  0  0  0  0  0  0  0  0  0  0
   -7.6590   20.1930  -32.5220 C   0  0  0  0  0  0  0  0  0  0  0  0
   -6.8390   19.0730  -33.0240 C   0  0  0  0  0  0  0  0  0  0  0  0
   -6.1230   19.2080  -34.2240 C   0  0  0  0  0  0  0  0  0  0  0  0
   -5.3560   18.1450  -34.7070 C   0  0  0  0  0  0  0  0  0  0  0  0
   -5.3090   16.9380  -34.0030 C   0  0  0  0  0  0  0  0  0  0  0  0
   -6.0310   16.7920  -32.8150 C   0  0  0  0  0  0  0  0  0  0  0  0
   -6.7990   17.8540  -32.3270 C   0  0  0  0  0  0  0  0  0  0  0  0
   -5.2535   24.7005  -29.4301 H   0  0  0  0  0  0  0  0  0  0  0  0
   -4.8382   25.7559  -30.8231 H   0  0  0  0  0  0  0  0  0  0  0  0
   -6.3798   24.8339  -30.8231 H   0  0  0  0  0  0  0  0  0  0  0  0
   -3.6245   23.9636  -31.5388 H   0  0  0  0  0  0  0  0  0  0  0  0
   -4.5294   22.8171  -30.4802 H   0  0  0  0  0  0  0  0  0  0  0  0
   -4.8400   23.3910  -33.2200 H   0  0  0  0  0  0  0  0  0  0  0  0
   -5.2560   21.2755  -33.2530 H   0  0  0  0  0  0  0  0  0  0  0  0
   -5.0596   21.3014  -31.4665 H   0  0  0  0  0  0  0  0  0  0  0  0
   -7.5016   23.4459  -31.4314 H   0  0  0  0  0  0  0  0  0  0  0  0
   -9.9572   23.0836  -31.2411 H   0  0  0  0  0  0  0  0  0  0  0  0
  -10.9543   20.8908  -31.8888 H   0  0  0  0  0  0  0  0  0  0  0  0
   -9.4958   19.0523  -32.7205 H   0  0  0  0  0  0  0  0  0  0  0  0
   -6.1660   20.1531  -34.7853 H   0  0  0  0  0  0  0  0  0  0  0  0
   -4.7883   18.2578  -35.6424 H   0  0  0  0  0  0  0  0  0  0  0  0
   -4.7034   16.1026  -34.3843 H   0  0  0  0  0  0  0  0  0  0  0  0
   -5.9951   15.8409  -32.2635 H   0  0  0  0  0  0  0  0  0  0  0  0
   -7.3726   17.7346  -31.3960 H   0  0  0  0  0  0  0  0  0  0  0  0
  1  2  1  0
  2  3  1  0
  3  4  1  0
  4  5  1  0
  5  6  2  0
  6  7  1  0
  7  8  2  0
  8  9  1  0
  9 10  2  0
 10 11  1  0
 11 12  2  0
 12 13  1  0
 13 14  2  0
 14 15  1  0
 15 16  2  0
 10  5  1  0
 16 11  1  0
  1 17  1  0
  1 18  1  0
  1 19  1  0
  2 20  1  0
  2 21  1  0
  3 22  1  0
  4 23  1  0
  4 24  1  0
  6 25  1  0
  7 26  1  0
  8 27  1  0
  9 28  1  0
 12 29  1  0
 13 30  1  0
 14 31  1  0
 15 32  1  0
 16 33  1  0
M  END
>  <UniqueID>  (27) 
24

>  <SMILES>  (27) 
CCNCc1ccccc1-c1ccccc1

>  <Energy>  (27) 
38.05373664345809

>  <Genealogy>  (27) 
CCNCc1ccccc1-c1ccccc1 (3D coordinates assigned)
CCNCc1ccccc1-c1ccccc1 (optimized conformer: 38.05373664345809 kcal/mol)

>  <smiles>  (27) 
CCNCc1ccccc1-c1ccccc1

>  <score_type>  (27) 
oracle

>  <origin>  (27) 
adg

>  <m_score__min__energy>  (27) 
-7.1600000000000001

>  <m_primary>  (27) 
energy

$$$$
27:0
     RDKit          3D

 32 33  0  0  0  0  0  0  0  0999 V2000
   -9.1915   19.3316  -30.7656 H   0  0  0  0  0  0  0  0  0  0  0  0
   -8.6750   19.9150  -31.5420 C   0  0  0  0  0  0  0  0  0  0  0  0
   -8.9290   21.2310  -31.6200 C   0  0  0  0  0  0  0  0  0  0  0  0
   -9.9334   21.5484  -31.9370 H   0  0  0  0  0  0  0  0  0  0  0  0
   -7.9290   22.2820  -31.3020 C   0  0  0  0  0  0  0  0  0  0  0  0
   -7.4150   23.0570  -32.3510 C   0  0  0  0  0  0  0  0  0  0  0  0
   -7.7635   22.8805  -33.3793 H   0  0  0  0  0  0  0  0  0  0  0  0
   -6.4640   24.0520  -32.1040 C   0  0  0  0  0  0  0  0  0  0  0  0
   -6.0777   24.6564  -32.9380 H   0  0  0  0  0  0  0  0  0  0  0  0
   -5.9980   24.2860  -30.8000 C   0  0  0  0  0  0  0  0  0  0  0  0
   -5.0190   25.3110  -30.5490 N   0  0  0  0  0  0  0  0  0  0  0  0
   -5.3690   26.4950  -30.3630 O   0  0  0  0  0  0  0  0  0  0  0  0
   -3.6780   25.0030  -30.5130 O   0  0  0  0  0  0  0  0  0  0  0  0
   -6.4980   23.4980  -29.7490 C   0  0  0  0  0  0  0  0  0  0  0  0
   -6.1373   23.6647  -28.7233 H   0  0  0  0  0  0  0  0  0  0  0  0
   -7.4500   22.5040  -29.9960 C   0  0  0  0  0  0  0  0  0  0  0  0
   -7.8276   21.8909  -29.1644 H   0  0  0  0  0  0  0  0  0  0  0  0
   -7.7360   19.2030  -32.4450 C   0  0  0  0  0  0  0  0  0  0  0  0
   -7.6630   17.8040  -32.3700 C   0  0  0  0  0  0  0  0  0  0  0  0
   -8.2912   17.2643  -31.6460 H   0  0  0  0  0  0  0  0  0  0  0  0
   -6.8010   17.0890  -33.2050 C   0  0  0  0  0  0  0  0  0  0  0  0
   -6.7502   15.9930  -33.1265 H   0  0  0  0  0  0  0  0  0  0  0  0
   -6.0020   17.7550  -34.1400 C   0  0  0  0  0  0  0  0  0  0  0  0
   -5.1520   16.9930  -34.9550 O   0  0  0  0  0  0  0  0  0  0  0  0
   -4.0070   16.2880  -34.4850 C   0  0  0  0  0  0  0  0  0  0  0  0
   -4.0037   16.2859  -33.3850 H   0  0  0  0  0  0  0  0  0  0  0  0
   -4.0375   15.2520  -34.8535 H   0  0  0  0  0  0  0  0  0  0  0  0
   -3.0957   16.7816  -34.8535 H   0  0  0  0  0  0  0  0  0  0  0  0
   -6.0810   19.1570  -34.2330 C   0  0  0  0  0  0  0  0  0  0  0  0
   -5.4603   19.6921  -34.9668 H   0  0  0  0  0  0  0  0  0  0  0  0
   -6.9440   19.8740  -33.3980 C   0  0  0  0  0  0  0  0  0  0  0  0
   -7.0049   20.9688  -33.4858 H   0  0  0  0  0  0  0  0  0  0  0  0
  1  2  1  0
  2  3  2  0
  3  4  1  0
  3  5  1  0
  5  6  2  0
  6  7  1  0
  6  8  1  0
  8  9  1  0
  8 10  2  0
 10 11  1  0
 11 12  2  0
 11 13  1  0
 10 14  1  0
 14 15  1  0
 14 16  2  0
 16 17  1  0
  2 18  1  0
 18 19  2  0
 19 20  1  0
 19 21  1  0
 21 22  1  0
 21 23  2  0
 23 24  1  0
 24 25  1  0
 25 26  1  0
 25 27  1  0
 25 28  1  0
 23 29  1  0
 29 30  1  0
 29 31  2  0
 31 32  1  0
 16  5  1  0
 31 18  1  0
M  CHG  2  11   1  13  -1
M  END
>  <UniqueID>  (28) 
25

>  <SMILES>  (28) 
COc1ccc(/C=C/c2ccc([N+](=O)[O-])cc2)cc1

>  <Energy>  (28) 
38.305089838662475

>  <Genealogy>  (28) 
COc1ccc(/C=C/c2ccc([N+](=O)[O-])cc2)cc1 (cis-trans isomerization)
COc1ccc(/C=C/c2ccc([N+](=O)[O-])cc2)cc1 (3D coordinates assigned)
COc1ccc(/C=C/c2ccc([N+](=O)[O-])cc2)cc1 (optimized conformer: 38.305089838662475 kcal/mol)

>  <smiles>  (28) 
COc1ccc(C=Cc2ccc([N+](=O)[O-])cc2)cc1

>  <score_type>  (28) 
oracle

>  <origin>  (28) 
adg

>  <m_score__min__energy>  (28) 
-8.5800000000000001

>  <m_primary>  (28) 
energy

$$$$
28:0
     RDKit          3D

 37 39  0  0  0  0  0  0  0  0999 V2000
   -6.4680   16.6050  -34.2180 C   0  0  0  0  0  0  0  0  0  0  0  0
   -6.6970   16.7990  -32.7240 C   0  0  0  0  0  0  0  0  0  0  0  0
   -7.3230   18.0960  -32.4710 N   0  0  0  0  0  0  0  0  0  0  0  0
   -8.5680   18.3170  -31.9820 C   0  0  0  0  0  0  0  0  0  0  0  0
   -8.8420   19.6360  -31.7940 N   0  0  0  0  0  0  0  0  0  0  0  0
   -7.7030   20.2410  -32.1770 C   0  0  0  0  0  0  0  0  0  0  0  0
   -7.4280   21.6060  -32.1820 C   0  0  0  0  0  0  0  0  0  0  0  0
   -6.1490   22.0260  -32.6160 C   0  0  0  0  0  0  0  0  0  0  0  0
   -5.8320   23.4330  -32.6830 N   0  0  0  0  0  0  0  0  0  0  0  0
   -6.1830   24.1220  -31.4290 C   0  0  0  0  0  0  0  0  0  0  0  0
   -5.1010   23.9770  -30.3870 C   0  0  0  0  0  0  0  0  0  0  0  0
   -5.1020   22.8770  -29.5150 C   0  0  0  0  0  0  0  0  0  0  0  0
   -4.0750   22.7190  -28.5800 C   0  0  0  0  0  0  0  0  0  0  0  0
   -3.0380   23.6520  -28.5130 C   0  0  0  0  0  0  0  0  0  0  0  0
   -3.0230   24.7460  -29.3830 C   0  0  0  0  0  0  0  0  0  0  0  0
   -1.9870   25.6690  -29.3220 O   0  0  0  0  0  0  0  0  0  0  0  0
   -4.0500   24.9090  -30.3180 C   0  0  0  0  0  0  0  0  0  0  0  0
   -5.1950   21.0570  -33.0310 C   0  0  0  0  0  0  0  0  0  0  0  0
   -5.5080   19.6860  -33.0130 C   0  0  0  0  0  0  0  0  0  0  0  0
   -6.7820   19.3200  -32.5800 C   0  0  0  0  0  0  0  0  0  0  0  0
   -5.6371   15.9011  -34.3732 H   0  0  0  0  0  0  0  0  0  0  0  0
   -7.3814   16.2016  -34.6796 H   0  0  0  0  0  0  0  0  0  0  0  0
   -6.2202   17.5722  -34.6796 H   0  0  0  0  0  0  0  0  0  0  0  0
   -7.3543   15.9998  -32.3508 H   0  0  0  0  0  0  0  0  0  0  0  0
   -5.7275   16.7623  -32.2056 H   0  0  0  0  0  0  0  0  0  0  0  0
   -9.2837   17.5117  -31.7599 H   0  0  0  0  0  0  0  0  0  0  0  0
   -8.1837   22.3366  -31.8578 H   0  0  0  0  0  0  0  0  0  0  0  0
   -6.3240   23.8850  -33.4880 H   0  0  0  0  0  0  0  0  0  0  0  0
   -4.8040   23.5430  -32.8470 H   0  0  0  0  0  0  0  0  0  0  0  0
   -6.3327   25.1911  -31.6402 H   0  0  0  0  0  0  0  0  0  0  0  0
   -7.1017   23.6642  -31.0334 H   0  0  0  0  0  0  0  0  0  0  0  0
   -5.9139   22.1367  -29.5676 H   0  0  0  0  0  0  0  0  0  0  0  0
   -4.0836   21.8579  -27.8955 H   0  0  0  0  0  0  0  0  0  0  0  0
   -2.2322   23.5259  -27.7749 H   0  0  0  0  0  0  0  0  0  0  0  0
   -4.0358   25.7699  -31.0025 H   0  0  0  0  0  0  0  0  0  0  0  0
   -4.2007   21.3833  -33.3700 H   0  0  0  0  0  0  0  0  0  0  0  0
   -4.7744   18.9298  -33.3291 H   0  0  0  0  0  0  0  0  0  0  0  0
  1  2  1  0
  2  3  1  0
  3  4  1  0
  4  5  2  0
  5  6  1  0
  6  7  2  0
  7  8  1  0
  8  9  1  0
  9 10  1  0
 10 11  1  0
 11 12  2  0
 12 13  1  0
 13 14  2  0
 14 15  1  0
 15 16  1  0
 15 17  2  0
  8 18  2  0
 18 19  1  0
 19 20  2  0
 20  3  1  0
 20  6  1  0
 17 11  1  0
  1 21  1  0
  1 22  1  0
  1 23  1  0
  2 24  1  0
  2 25  1  0
  4 26  1  0
  7 27  1  0
  9 28  1  0
  9 29  1  0
 10 30  1  0
 10 31  1  0
 12 32  1  0
 13 33  1  0
 14 34  1  0
 17 35  1  0
 18 36  1  0
 19 37  1  0
M  CHG  2   9   1  16  -1
M  END
>  <UniqueID>  (29) 
26

>  <SMILES>  (29) 
CCn1cnc2cc([NH2+]Cc3cccc([O-])c3)ccc21

>  <Energy>  (29) 
72.78041016195229

>  <Genealogy>  (29) 
CCn1cnc2cc([NH2+]Cc3cccc([O-])c3)ccc21 (protonated)
CCn1cnc2cc([NH2+]Cc3cccc([O-])c3)ccc21 (3D coordinates assigned)
CCn1cnc2cc([NH2+]Cc3cccc([O-])c3)ccc21 (optimized conformer: 72.78041016195229 kcal/mol)

>  <smiles>  (29) 
CCn1cnc2cc(NCc3cccc(O)c3)ccc21

>  <score_type>  (29) 
oracle

>  <origin>  (29) 
adg

>  <m_score__min__energy>  (29) 
-9.9800000000000004

>  <m_primary>  (29) 
energy

$$$$
29:0
     RDKit          3D

 37 40  0  0  0  0  0  0  0  0999 V2000
   -5.9250   19.8460  -33.0210 C   0  0  0  0  0  0  0  0  0  0  0  0
   -7.3140   20.2420  -32.6350 C   0  0  0  0  0  0  0  0  0  0  0  0
   -8.4140   19.6630  -33.1520 N   0  0  0  0  0  0  0  0  0  0  0  0
   -9.4440   20.2620  -32.6280 O   0  0  0  0  0  0  0  0  0  0  0  0
   -9.0780   21.2040  -31.7880 C   0  0  0  0  0  0  0  0  0  0  0  0
   -7.6980   21.2310  -31.7410 C   0  0  0  0  0  0  0  0  0  0  0  0
   -6.8620   22.1440  -30.9300 C   0  0  0  0  0  0  0  0  0  0  0  0
   -7.4320   23.2590  -30.2560 C   0  0  0  0  0  0  0  0  0  0  0  0
   -6.6490   24.1020  -29.5170 N   0  0  0  0  0  0  0  0  0  0  0  0
   -5.3160   23.8690  -29.4380 C   0  0  0  0  0  0  0  0  0  0  0  0
   -4.4190   24.6030  -28.7610 N   0  0  0  0  0  0  0  0  0  0  0  0
   -3.2250   23.9990  -28.9800 C   0  0  0  0  0  0  0  0  0  0  0  0
   -1.9240   24.5000  -28.4000 C   0  0  2  0  0  0  0  0  0  0  0  0
   -1.9540   24.5990  -26.8830 C   0  0  0  0  0  0  0  0  0  0  0  0
   -0.9650   25.7020  -26.5630 C   0  0  0  0  0  0  0  0  0  0  0  0
   -0.6910   26.4060  -27.8920 C   0  0  0  0  0  0  0  0  0  0  0  0
   -1.5660   25.8240  -28.9100 N   0  0  0  0  0  0  0  0  0  0  0  0
   -3.3760   22.8770  -29.8010 C   0  0  0  0  0  0  0  0  0  0  0  0
   -4.7240   22.8210  -30.0790 C   0  0  0  0  0  0  0  0  0  0  0  0
   -5.4680   21.9330  -30.8450 C   0  0  0  0  0  0  0  0  0  0  0  0
   -5.3268   19.6755  -32.1137 H   0  0  0  0  0  0  0  0  0  0  0  0
   -5.9593   18.9219  -33.6166 H   0  0  0  0  0  0  0  0  0  0  0  0
   -5.4668   20.6493  -33.6166 H   0  0  0  0  0  0  0  0  0  0  0  0
   -9.7549   21.8589  -31.2196 H   0  0  0  0  0  0  0  0  0  0  0  0
   -8.5136   23.4452  -30.3299 H   0  0  0  0  0  0  0  0  0  0  0  0
   -7.0740   24.9210  -29.0260 H   0  0  0  0  0  0  0  0  0  0  0  0
   -4.6040   25.4570  -28.1910 H   0  0  0  0  0  0  0  0  0  0  0  0
   -1.1786   23.7529  -28.7103 H   0  0  0  0  0  0  0  0  0  0  0  0
   -2.9614   24.8635  -26.5291 H   0  0  0  0  0  0  0  0  0  0  0  0
   -1.6975   23.6479  -26.3935 H   0  0  0  0  0  0  0  0  0  0  0  0
   -1.3970   26.4065  -25.8371 H   0  0  0  0  0  0  0  0  0  0  0  0
   -0.0424   25.3044  -26.1150 H   0  0  0  0  0  0  0  0  0  0  0  0
   -0.8998   27.4815  -27.7930 H   0  0  0  0  0  0  0  0  0  0  0  0
    0.3628   26.2759  -28.1792 H   0  0  0  0  0  0  0  0  0  0  0  0
   -2.4250   26.4230  -28.9570 H   0  0  0  0  0  0  0  0  0  0  0  0
   -2.5905   22.1898  -30.1486 H   0  0  0  0  0  0  0  0  0  0  0  0
   -4.9875   21.0931  -31.3682 H   0  0  0  0  0  0  0  0  0  0  0  0
  1  2  1  0
  2  3  2  0
  3  4  1  0
  4  5  1  0
  5  6  2  0
  6  7  1  0
  7  8  2  0
  8  9  1  0
  9 10  2  0
 10 11  1  0
 11 12  1  0
 12 13  1  0
 13 14  1  0
 14 15  1  0
 15 16  1  0
 16 17  1  0
 12 18  2  0
 18 19  1  0
 19 20  2  0
  6  2  1  0
 20  7  1  0
 19 10  1  0
 17 13  1  0
  1 21  1  0
  1 22  1  0
  1 23  1  0
  5 24  1  0
  8 25  1  0
  9 26  1  0
 11 27  1  0
 13 28  1  1
 14 29  1  0
 14 30  1  0
 15 31  1  0
 15 32  1  0
 16 33  1  0
 16 34  1  0
 17 35  1  0
 18 36  1  0
 20 37  1  0
M  CHG  1   9   1
M  END
>  <UniqueID>  (30) 
27

>  <SMILES>  (30) 
Cc1nocc1-c1c[nH+]c2[nH]c([C@@H]3CCCN3)cc2c1

>  <Energy>  (30) 
108.28228473581129

>  <Genealogy>  (30) 
Cc1nocc1-c1c[nH+]c2[nH]c(C3CCCN3)cc2c1 (protonated)
Cc1nocc1-c1c[nH+]c2[nH]c([C@@H]3CCCN3)cc2c1 (chirality)
Cc1nocc1-c1c[nH+]c2[nH]c([C@@H]3CCCN3)cc2c1 (3D coordinates assigned)
Cc1nocc1-c1c[nH+]c2[nH]c([C@@H]3CCCN3)cc2c1 (nonaromatic ring conformer: 108.28228473581129 kcal/mol)

>  <smiles>  (30) 
Cc1nocc1-c1cnc2[nH]c(C3CCCN3)cc2c1

>  <score_type>  (30) 
oracle

>  <origin>  (30) 
adg

>  <m_score__min__energy>  (30) 
-7.5199999999999996

>  <m_primary>  (30) 
energy

$$$$
30:0
     RDKit          3D

 38 39  0  0  0  0  0  0  0  0999 V2000
   -7.2707   21.5471  -33.4823 H   0  0  0  0  0  0  0  0  0  0  0  0
   -7.1660   21.9670  -32.4710 C   0  0  0  0  0  0  0  0  0  0  0  0
   -6.0280   22.7080  -32.1400 C   0  0  0  0  0  0  0  0  0  0  0  0
   -5.2402   22.8682  -32.8908 H   0  0  0  0  0  0  0  0  0  0  0  0
   -5.8880   23.2470  -30.8550 C   0  0  0  0  0  0  0  0  0  0  0  0
   -4.4570   24.1850  -30.4350 S   0  0  0  0  0  0  0  0  0  0  0  0
   -3.2700   23.6020  -31.1470 O   0  0  0  0  0  0  0  0  0  0  0  0
   -4.6210   25.6200  -30.8520 O   0  0  0  0  0  0  0  0  0  0  0  0
   -4.1770   24.1190  -28.7210 N   0  0  0  0  0  0  0  0  0  0  0  0
   -3.1170   24.5480  -28.0950 C   0  0  0  0  0  0  0  0  0  0  0  0
   -3.1980   24.7550  -26.7120 C   0  0  0  0  0  0  0  0  0  0  0  0
   -4.1368   24.5507  -26.1764 H   0  0  0  0  0  0  0  0  0  0  0  0
   -2.0810   25.2220  -26.0170 C   0  0  0  0  0  0  0  0  0  0  0  0
   -2.1367   25.3875  -24.9309 H   0  0  0  0  0  0  0  0  0  0  0  0
   -0.8950   25.4780  -26.7030 C   0  0  0  0  0  0  0  0  0  0  0  0
   -0.0097   25.8471  -26.1645 H   0  0  0  0  0  0  0  0  0  0  0  0
   -0.8430   25.2610  -28.0800 C   0  0  0  0  0  0  0  0  0  0  0  0
    0.0886   25.4601  -28.6299 H   0  0  0  0  0  0  0  0  0  0  0  0
   -1.9390   24.8040  -28.7480 N   0  0  0  0  0  0  0  0  0  0  0  0
   -1.8390   24.6560  -29.7750 H   0  0  0  0  0  0  0  0  0  0  0  0
   -6.8910   23.0340  -29.9010 C   0  0  0  0  0  0  0  0  0  0  0  0
   -6.7819   23.4508  -28.8889 H   0  0  0  0  0  0  0  0  0  0  0  0
   -8.0300   22.2940  -30.2300 C   0  0  0  0  0  0  0  0  0  0  0  0
   -8.8150   22.1324  -29.4766 H   0  0  0  0  0  0  0  0  0  0  0  0
   -8.1760   21.7560  -31.5190 C   0  0  0  0  0  0  0  0  0  0  0  0
   -9.3890   20.9340  -31.8700 C   0  0  0  0  0  0  0  0  0  0  0  0
  -10.0349   21.5251  -32.5359 H   0  0  0  0  0  0  0  0  0  0  0  0
   -9.9019   20.6779  -30.9312 H   0  0  0  0  0  0  0  0  0  0  0  0
   -9.0250   19.6180  -32.5770 C   0  0  0  0  0  0  0  0  0  0  0  0
   -8.2532   19.8303  -33.3314 H   0  0  0  0  0  0  0  0  0  0  0  0
   -9.9500   19.2253  -33.0244 H   0  0  0  0  0  0  0  0  0  0  0  0
   -8.4880   18.5330  -31.6220 C   0  0  0  0  0  0  0  0  0  0  0  0
   -9.1084   17.6310  -31.7296 H   0  0  0  0  0  0  0  0  0  0  0  0
   -8.5328   18.9377  -30.6001 H   0  0  0  0  0  0  0  0  0  0  0  0
   -7.0330   18.1630  -31.9090 C   0  0  0  0  0  0  0  0  0  0  0  0
   -6.4952   18.0263  -30.9592 H   0  0  0  0  0  0  0  0  0  0  0  0
   -6.9997   17.2278  -32.4872 H   0  0  0  0  0  0  0  0  0  0  0  0
   -6.5570   18.9687  -32.4872 H   0  0  0  0  0  0  0  0  0  0  0  0
  1  2  1  0
  2  3  2  0
  3  4  1  0
  3  5  1  0
  5  6  1  0
  6  7  2  0
  6  8  2  0
  6  9  1  0
  9 10  2  0
 10 11  1  0
 11 12  1  0
 11 13  2  0
 13 14  1  0
 13 15  1  0
 15 16  1  0
 15 17  2  0
 17 18  1  0
 17 19  1  0
 19 20  1  0
  5 21  2  0
 21 22  1  0
 21 23  1  0
 23 24  1  0
 23 25  2  0
 25 26  1  0
 26 27  1  0
 26 28  1  0
 26 29  1  0
 29 30  1  0
 29 31  1  0
 29 32  1  0
 32 33  1  0
 32 34  1  0
 32 35  1  0
 35 36  1  0
 35 37  1  0
 35 38  1  0
 25  2  1  0
 19 10  1  0
M  END
>  <UniqueID>  (31) 
28

>  <SMILES>  (31) 
CCCCc1ccc(S(=O)(=O)/N=c2/cccc[nH]2)cc1

>  <Energy>  (31) 
38.0486278348174

>  <Genealogy>  (31) 
CCCCc1ccc(S(=O)(=O)/N=c2/cccc[nH]2)cc1 (cis-trans isomerization)
CCCCc1ccc(S(=O)(=O)/N=c2/cccc[nH]2)cc1 (3D coordinates assigned)
CCCCc1ccc(S(=O)(=O)/N=c2/cccc[nH]2)cc1 (optimized conformer: 38.0486278348174 kcal/mol)

>  <smiles>  (31) 
CCCCc1ccc(S(=O)(=O)N=c2cccc[nH]2)cc1

>  <score_type>  (31) 
oracle

>  <origin>  (31) 
adg

>  <m_score__min__energy>  (31) 
-8.7599999999999998

>  <m_primary>  (31) 
energy

$$$$
31:0
     RDKit          3D

 38 40  0  0  0  0  0  0  0  0999 V2000
   -5.7050   25.7050  -30.3860 C   0  0  0  0  0  0  0  0  0  0  0  0
   -4.4030   25.3320  -30.8260 O   0  0  0  0  0  0  0  0  0  0  0  0
   -3.8640   24.0390  -30.7220 C   0  0  0  0  0  0  0  0  0  0  0  0
   -4.2240   23.0100  -31.6150 C   0  0  0  0  0  0  0  0  0  0  0  0
   -3.6710   21.7250  -31.4940 C   0  0  0  0  0  0  0  0  0  0  0  0
   -4.0530   20.6490  -32.4340 C   0  0  0  0  0  0  0  0  0  0  0  0
   -3.2470   20.1830  -33.4100 N   0  0  0  0  0  0  0  0  0  0  0  0
   -3.9380   19.2580  -34.0040 O   0  0  0  0  0  0  0  0  0  0  0  0
   -5.1120   19.1560  -33.4350 C   0  0  0  0  0  0  0  0  0  0  0  0
   -6.1580   18.1750  -33.8430 C   0  0  0  0  0  0  0  0  0  0  0  0
   -5.2490   20.0200  -32.4120 N   0  0  0  0  0  0  0  0  0  0  0  0
   -2.7540   21.4710  -30.4620 C   0  0  0  0  0  0  0  0  0  0  0  0
   -2.3940   22.4830  -29.5720 C   0  0  0  0  0  0  0  0  0  0  0  0
   -2.9310   23.7750  -29.7000 C   0  0  0  0  0  0  0  0  0  0  0  0
   -2.5800   24.8110  -28.7650 N   0  0  0  0  0  0  0  0  0  0  0  0
   -1.2380   25.0350  -28.2980 C   0  0  0  0  0  0  0  0  0  0  0  0
   -0.2630   24.6010  -28.9710 O   0  0  0  0  0  0  0  0  0  0  0  0
   -0.9820   25.8110  -27.0610 C   0  0  0  0  0  0  0  0  0  0  0  0
   -1.8600   25.7080  -25.9650 C   0  0  0  0  0  0  0  0  0  0  0  0
   -1.6280   26.4420  -24.7980 C   0  0  0  0  0  0  0  0  0  0  0  0
   -0.5240   27.2910  -24.7130 C   0  0  0  0  0  0  0  0  0  0  0  0
    0.3500   27.4120  -25.7960 C   0  0  0  0  0  0  0  0  0  0  0  0
    1.4160   28.2470  -25.7170 F   0  0  0  0  0  0  0  0  0  0  0  0
    0.1230   26.6790  -26.9650 C   0  0  0  0  0  0  0  0  0  0  0  0
   -5.7322   25.7128  -29.2864 H   0  0  0  0  0  0  0  0  0  0  0  0
   -5.9469   26.7086  -30.7659 H   0  0  0  0  0  0  0  0  0  0  0  0
   -6.4416   24.9818  -30.7659 H   0  0  0  0  0  0  0  0  0  0  0  0
   -4.9477   23.2161  -32.4174 H   0  0  0  0  0  0  0  0  0  0  0  0
   -6.6222   17.7396  -32.9458 H   0  0  0  0  0  0  0  0  0  0  0  0
   -6.9261   18.6859  -34.4421 H   0  0  0  0  0  0  0  0  0  0  0  0
   -5.6973   17.3757  -34.4421 H   0  0  0  0  0  0  0  0  0  0  0  0
   -2.3165   20.4675  -30.3544 H   0  0  0  0  0  0  0  0  0  0  0  0
   -1.6823   22.2672  -28.7615 H   0  0  0  0  0  0  0  0  0  0  0  0
   -3.3150   25.4980  -28.4890 H   0  0  0  0  0  0  0  0  0  0  0  0
   -2.7353   25.0448  -26.0275 H   0  0  0  0  0  0  0  0  0  0  0  0
   -2.3169   26.3501  -23.9454 H   0  0  0  0  0  0  0  0  0  0  0  0
   -0.3418   27.8653  -23.7927 H   0  0  0  0  0  0  0  0  0  0  0  0
    0.8126   26.7811  -27.8159 H   0  0  0  0  0  0  0  0  0  0  0  0
  1  2  1  0
  2  3  1  0
  3  4  2  0
  4  5  1  0
  5  6  1  0
  6  7  2  0
  7  8  1  0
  8  9  1  0
  9 10  1  0
  9 11  2  0
  5 12  2  0
 12 13  1  0
 13 14  2  0
 14 15  1  0
 15 16  1  0
 16 17  2  0
 16 18  1  0
 18 19  2  0
 19 20  1  0
 20 21  2  0
 21 22  1  0
 22 23  1  0
 22 24  2  0
 14  3  1  0
 24 18  1  0
 11  6  1  0
  1 25  1  0
  1 26  1  0
  1 27  1  0
  4 28  1  0
 10 29  1  0
 10 30  1  0
 10 31  1  0
 12 32  1  0
 13 33  1  0
 15 34  1  0
 19 35  1  0
 20 36  1  0
 21 37  1  0
 24 38  1  0
M  END
>  <UniqueID>  (32) 
29

>  <SMILES>  (32) 
COc1cc(-c2noc(C)n2)ccc1NC(=O)c1cccc(F)c1

>  <Energy>  (32) 
78.13374474672982

>  <Genealogy>  (32) 
COc1cc(-c2noc(C)n2)ccc1NC(=O)c1cccc(F)c1 (3D coordinates assigned)
COc1cc(-c2noc(C)n2)ccc1NC(=O)c1cccc(F)c1 (optimized conformer: 78.13374474672982 kcal/mol)

>  <smiles>  (32) 
COc1cc(-c2noc(C)n2)ccc1NC(=O)c1cccc(F)c1

>  <score_type>  (32) 
oracle

>  <origin>  (32) 
adg

>  <m_score__min__energy>  (32) 
-8

>  <m_primary>  (32) 
energy

$$$$
32:0
     RDKit          3D

 47 48  0  0  0  0  0  0  0  0999 V2000
   -7.6160   18.8040  -32.5300 C   0  0  0  0  0  0  0  0  0  0  0  0
   -7.4570   20.1570  -32.9430 O   0  0  0  0  0  0  0  0  0  0  0  0
   -6.3920   20.9940  -32.5740 C   0  0  0  0  0  0  0  0  0  0  0  0
   -5.0770   20.4940  -32.4900 C   0  0  0  0  0  0  0  0  0  0  0  0
   -4.0110   21.3310  -32.1300 C   0  0  0  0  0  0  0  0  0  0  0  0
   -2.6660   20.8450  -32.0220 N   0  0  0  0  0  0  0  0  0  0  0  0
   -1.4740   21.5440  -32.3970 C   0  0  0  0  0  0  0  0  0  0  0  0
   -1.2630   21.8580  -33.6010 O   0  0  0  0  0  0  0  0  0  0  0  0
   -0.5760   21.9260  -31.3960 O   0  0  0  0  0  0  0  0  0  0  0  0
   -0.6060   21.3980  -30.0720 C   0  0  0  0  0  0  0  0  0  0  0  0
   -0.6970   22.5160  -29.0290 C   0  0  0  0  0  0  0  0  0  0  0  0
   -2.0820   22.6920  -28.5680 N   0  0  0  0  0  0  0  0  0  0  0  0
   -2.9660   23.6680  -28.8900 C   0  0  0  0  0  0  0  0  0  0  0  0
   -2.6740   24.8570  -29.6420 N   0  0  0  0  0  0  0  0  0  0  0  0
   -3.5120   25.2900  -30.4600 O   0  0  0  0  0  0  0  0  0  0  0  0
   -1.5940   25.6440  -29.3230 O   0  0  0  0  0  0  0  0  0  0  0  0
   -4.2090   23.3410  -28.3910 C   0  0  0  0  0  0  0  0  0  0  0  0
   -4.1070   22.1640  -27.7500 N   0  0  0  0  0  0  0  0  0  0  0  0
   -2.8180   21.7870  -27.8750 C   0  0  0  0  0  0  0  0  0  0  0  0
   -2.2850   20.5020  -27.3170 C   0  0  0  0  0  0  0  0  0  0  0  0
   -4.2650   22.6640  -31.8080 C   0  0  0  0  0  0  0  0  0  0  0  0
   -5.5680   23.1880  -31.8860 C   0  0  0  0  0  0  0  0  0  0  0  0
   -5.8450   24.5310  -31.5840 O   0  0  0  0  0  0  0  0  0  0  0  0
   -6.4850   24.9770  -30.3930 C   0  0  0  0  0  0  0  0  0  0  0  0
   -6.6350   22.3600  -32.2730 C   0  0  0  0  0  0  0  0  0  0  0  0
   -7.9080   22.9600  -32.3350 O   0  0  0  0  0  0  0  0  0  0  0  0
   -9.1390   22.3880  -31.9060 C   0  0  0  0  0  0  0  0  0  0  0  0
   -7.6218   18.7543  -31.4311 H   0  0  0  0  0  0  0  0  0  0  0  0
   -8.5665   18.4109  -32.9199 H   0  0  0  0  0  0  0  0  0  0  0  0
   -6.7825   18.2013  -32.9199 H   0  0  0  0  0  0  0  0  0  0  0  0
   -4.8843   19.4335  -32.7097 H   0  0  0  0  0  0  0  0  0  0  0  0
   -1.4810   20.7394  -29.9686 H   0  0  0  0  0  0  0  0  0  0  0  0
    0.3251   20.8380  -29.9004 H   0  0  0  0  0  0  0  0  0  0  0  0
   -0.0611   22.2589  -28.1690 H   0  0  0  0  0  0  0  0  0  0  0  0
   -0.3581   23.4554  -29.4902 H   0  0  0  0  0  0  0  0  0  0  0  0
   -5.1255   23.9397  -28.4988 H   0  0  0  0  0  0  0  0  0  0  0  0
   -4.8750   21.6470  -27.2680 H   0  0  0  0  0  0  0  0  0  0  0  0
   -2.3025   20.5443  -26.2180 H   0  0  0  0  0  0  0  0  0  0  0  0
   -2.9103   19.6652  -27.6618 H   0  0  0  0  0  0  0  0  0  0  0  0
   -1.2510   20.3535  -27.6618 H   0  0  0  0  0  0  0  0  0  0  0  0
   -3.4364   23.3134  -31.4892 H   0  0  0  0  0  0  0  0  0  0  0  0
   -5.9380   24.5958  -29.5180 H   0  0  0  0  0  0  0  0  0  0  0  0
   -6.4922   26.0767  -30.3704 H   0  0  0  0  0  0  0  0  0  0  0  0
   -7.5192   24.6030  -30.3704 H   0  0  0  0  0  0  0  0  0  0  0  0
   -9.1726   22.3724  -30.8066 H   0  0  0  0  0  0  0  0  0  0  0  0
   -9.9763   22.9893  -32.2899 H   0  0  0  0  0  0  0  0  0  0  0  0
   -9.2193   21.3603  -32.2899 H   0  0  0  0  0  0  0  0  0  0  0  0
  1  2  1  0
  2  3  1  0
  3  4  2  0
  4  5  1  0
  5  6  1  0
  6  7  1  0
  7  8  2  0
  7  9  1  0
  9 10  1  0
 10 11  1  0
 11 12  1  0
 12 13  1  0
 13 14  1  0
 14 15  2  0
 14 16  1  0
 13 17  2  0
 17 18  1  0
 18 19  2  0
 19 20  1  0
  5 21  2  0
 21 22  1  0
 22 23  1  0
 23 24  1  0
 22 25  2  0
 25 26  1  0
 26 27  1  0
 25  3  1  0
 19 12  1  0
  1 28  1  0
  1 29  1  0
  1 30  1  0
  4 31  1  0
 10 32  1  0
 10 33  1  0
 11 34  1  0
 11 35  1  0
 17 36  1  0
 18 37  1  0
 20 38  1  0
 20 39  1  0
 20 40  1  0
 21 41  1  0
 24 42  1  0
 24 43  1  0
 24 44  1  0
 27 45  1  0
 27 46  1  0
 27 47  1  0
M  CHG  4   6  -1  14   1  16  -1  18   1
M  END
>  <UniqueID>  (33) 
30

>  <SMILES>  (33) 
COc1cc([N-]C(=O)OCCn2c([N+](=O)[O-])c[nH+]c2C)cc(OC)c1OC

>  <Energy>  (33) 
80.98660842638469

>  <Genealogy>  (33) 
COc1cc([N-]C(=O)OCCn2c([N+](=O)[O-])c[nH+]c2C)cc(OC)c1OC (protonated)
COc1cc([N-]C(=O)OCCn2c([N+](=O)[O-])c[nH+]c2C)cc(OC)c1OC (3D coordinates assigned)
COc1cc([N-]C(=O)OCCn2c([N+](=O)[O-])c[nH+]c2C)cc(OC)c1OC (optimized conformer: 80.98660842638469 kcal/mol)

>  <smiles>  (33) 
COc1cc(NC(=O)OCCn2c([N+](=O)[O-])cnc2C)cc(OC)c1OC

>  <score_type>  (33) 
oracle

>  <origin>  (33) 
adg

>  <m_score__min__energy>  (33) 
-8.1099999999999994

>  <m_primary>  (33) 
energy

$$$$
33:0
     RDKit          3D

 59 63  0  0  0  0  0  0  0  0999 V2000
   -2.1480   25.1870  -27.6030 C   0  0  0  0  0  0  0  0  0  0  0  0
   -2.1640   25.3000  -29.0650 N   0  0  0  0  0  0  0  0  0  0  0  0
   -2.5040   24.0200  -29.7080 C   0  0  0  0  0  0  0  0  0  0  0  0
   -3.8550   24.0570  -30.3710 C   0  0  0  0  0  0  0  0  0  0  0  0
   -4.4660   22.8770  -30.8170 C   0  0  0  0  0  0  0  0  0  0  0  0
   -5.7130   22.9370  -31.4570 C   0  0  0  0  0  0  0  0  0  0  0  0
   -6.4070   21.7120  -31.9090 C   0  0  0  0  0  0  0  0  0  0  0  0
   -5.7000   20.5950  -32.2340 N   0  0  0  0  0  0  0  0  0  0  0  0
   -6.4920   19.5750  -32.6280 C   0  0  0  0  0  0  0  0  0  0  0  0
   -5.9740   18.2700  -33.0540 C   0  0  0  0  0  0  0  0  0  0  0  0
   -4.8450   18.0680  -33.8380 C   0  0  0  0  0  0  0  0  0  0  0  0
   -4.5760   16.7120  -34.1050 C   0  0  0  0  0  0  0  0  0  0  0  0
   -3.3970   16.2600  -34.8850 C   0  0  0  0  0  0  0  0  0  0  0  0
   -3.4840   16.1510  -36.1360 O   0  0  0  0  0  0  0  0  0  0  0  0
   -2.1540   15.9540  -34.2320 N   0  0  0  0  0  0  0  0  0  0  0  0
   -0.9860   15.4470  -34.9490 C   0  0  0  0  0  0  0  0  0  0  0  0
   -0.2970   16.5770  -35.6590 C   0  0  0  0  0  0  0  0  0  0  0  0
    0.3990   16.3410  -36.8560 C   0  0  0  0  0  0  0  0  0  0  0  0
    1.0620   17.3870  -37.5040 C   0  0  0  0  0  0  0  0  0  0  0  0
    1.0410   18.6720  -36.9580 C   0  0  0  0  0  0  0  0  0  0  0  0
    1.6810   19.6880  -37.5890 F   0  0  0  0  0  0  0  0  0  0  0  0
    0.3680   18.9130  -35.7560 C   0  0  0  0  0  0  0  0  0  0  0  0
   -0.2970   17.8680  -35.1050 C   0  0  0  0  0  0  0  0  0  0  0  0
   -5.5200   15.8530  -33.5240 C   0  0  0  0  0  0  0  0  0  0  0  0
   -5.5150   14.3510  -33.5670 C   0  0  0  0  0  0  0  0  0  0  0  0
   -6.6680   13.7080  -34.3240 C   0  0  0  0  0  0  0  0  0  0  0  0
   -5.2880   13.7680  -34.9560 C   0  0  0  0  0  0  0  0  0  0  0  0
   -6.6430   16.7770  -32.6750 S   0  0  0  0  0  0  0  0  0  0  0  0
   -8.1160   20.0100  -32.5800 S   0  0  0  0  0  0  0  0  0  0  0  0
   -7.7970   21.5650  -32.0230 C   0  0  0  0  0  0  0  0  0  0  0  0
   -8.8560   22.5760  -31.7140 C   0  0  0  0  0  0  0  0  0  0  0  0
   -6.3330   24.1830  -31.6180 C   0  0  0  0  0  0  0  0  0  0  0  0
   -5.6920   25.3380  -31.1670 C   0  0  0  0  0  0  0  0  0  0  0  0
   -4.4800   25.2510  -30.5600 N   0  0  0  0  0  0  0  0  0  0  0  0
   -2.2890   26.1825  -27.1567 H   0  0  0  0  0  0  0  0  0  0  0  0
   -2.9608   24.5210  -27.2778 H   0  0  0  0  0  0  0  0  0  0  0  0
   -1.1822   24.7728  -27.2778 H   0  0  0  0  0  0  0  0  0  0  0  0
   -2.8680   26.0260  -29.3350 H   0  0  0  0  0  0  0  0  0  0  0  0
   -1.7425   23.7925  -30.4685 H   0  0  0  0  0  0  0  0  0  0  0  0
   -2.5330   23.2469  -28.9261 H   0  0  0  0  0  0  0  0  0  0  0  0
   -3.9694   21.9072  -30.6657 H   0  0  0  0  0  0  0  0  0  0  0  0
   -4.2196   18.8907  -34.2150 H   0  0  0  0  0  0  0  0  0  0  0  0
   -2.0210   16.2130  -33.2300 H   0  0  0  0  0  0  0  0  0  0  0  0
   -0.2894   14.9862  -34.2332 H   0  0  0  0  0  0  0  0  0  0  0  0
   -1.3087   14.6970  -35.6861 H   0  0  0  0  0  0  0  0  0  0  0  0
    0.4224   15.3285  -37.2853 H   0  0  0  0  0  0  0  0  0  0  0  0
    1.6005   17.1979  -38.4444 H   0  0  0  0  0  0  0  0  0  0  0  0
    0.3614   19.9239  -35.3224 H   0  0  0  0  0  0  0  0  0  0  0  0
   -0.8212   18.0579  -34.1568 H   0  0  0  0  0  0  0  0  0  0  0  0
   -5.0729   14.2106  -32.5696 H   0  0  0  0  0  0  0  0  0  0  0  0
   -7.0769   12.7439  -33.9873 H   0  0  0  0  0  0  0  0  0  0  0  0
   -7.6755   14.0305  -34.6256 H   0  0  0  0  0  0  0  0  0  0  0  0
   -4.6978   12.8476  -35.0764 H   0  0  0  0  0  0  0  0  0  0  0  0
   -4.8828   14.1519  -35.9038 H   0  0  0  0  0  0  0  0  0  0  0  0
   -8.9606   22.6759  -30.6235 H   0  0  0  0  0  0  0  0  0  0  0  0
   -8.5728   23.5473  -32.1457 H   0  0  0  0  0  0  0  0  0  0  0  0
   -9.8131   22.2480  -32.1457 H   0  0  0  0  0  0  0  0  0  0  0  0
   -7.3206   24.2508  -32.0977 H   0  0  0  0  0  0  0  0  0  0  0  0
   -6.1689   26.3198  -31.3033 H   0  0  0  0  0  0  0  0  0  0  0  0
  1  2  1  0
  2  3  1  0
  3  4  1  0
  4  5  2  0
  5  6  1  0
  6  7  1  0
  7  8  1  0
  8  9  2  0
  9 10  1  0
 10 11  2  0
 11 12  1  0
 12 13  1  0
 13 14  2  0
 13 15  1  0
 15 16  1  0
 16 17  1  0
 17 18  2  0
 18 19  1  0
 19 20  2  0
 20 21  1  0
 20 22  1  0
 22 23  2  0
 12 24  2  0
 24 25  1  0
 25 26  1  0
 26 27  1  0
 24 28  1  0
  9 29  1  0
 29 30  1  0
 30 31  1  0
  6 32  2  0
 32 33  1  0
 33 34  2  0
 34  4  1  0
 30  7  2  0
 28 10  1  0
 23 17  1  0
 27 25  1  0
  1 35  1  0
  1 36  1  0
  1 37  1  0
  2 38  1  0
  3 39  1  0
  3 40  1  0
  5 41  1  0
 11 42  1  0
 15 43  1  0
 16 44  1  0
 16 45  1  0
 18 46  1  0
 19 47  1  0
 22 48  1  0
 23 49  1  0
 25 50  1  0
 26 51  1  0
 26 52  1  0
 27 53  1  0
 27 54  1  0
 31 55  1  0
 31 56  1  0
 31 57  1  0
 32 58  1  0
 33 59  1  0
M  END
>  <UniqueID>  (34) 
31

>  <SMILES>  (34) 
CNCc1cc(-c2nc(-c3cc(C(=O)NCc4ccc(F)cc4)c(C4CC4)s3)sc2C)ccn1

>  <Energy>  (34) 
385.3466421817783

>  <Genealogy>  (34) 
CNCc1cc(-c2nc(-c3cc(C(=O)NCc4ccc(F)cc4)c(C4CC4)s3)sc2C)ccn1 (3D coordinates assigned)
CNCc1cc(-c2nc(-c3cc(C(=O)NCc4ccc(F)cc4)c(C4CC4)s3)sc2C)ccn1 (nonaromatic ring conformer: 385.3466421817783 kcal/mol)

>  <smiles>  (34) 
CNCc1cc(-c2nc(-c3cc(C(=O)NCc4ccc(F)cc4)c(C4CC4)s3)sc2C)ccn1

>  <score_type>  (34) 
oracle

>  <origin>  (34) 
adg

>  <m_score__min__energy>  (34) 
-9.4100000000000001

>  <m_primary>  (34) 
energy

$$$$
34:0
     RDKit          3D

 43 46  0  0  0  0  0  0  0  0999 V2000
   -0.9700   22.0460  -29.3280 C   0  0  0  0  0  0  0  0  0  0  0  0
   -1.3480   22.5240  -30.6140 O   0  0  0  0  0  0  0  0  0  0  0  0
   -1.6830   21.7030  -31.7060 C   0  0  0  0  0  0  0  0  0  0  0  0
   -0.6960   21.1260  -32.5230 C   0  0  0  0  0  0  0  0  0  0  0  0
   -1.0570   20.3240  -33.6030 C   0  0  0  0  0  0  0  0  0  0  0  0
   -2.4000   20.0570  -33.8670 C   0  0  0  0  0  0  0  0  0  0  0  0
   -3.4120   20.5820  -33.0380 C   0  0  0  0  0  0  0  0  0  0  0  0
   -3.0420   21.4560  -31.9880 C   0  0  0  0  0  0  0  0  0  0  0  0
   -4.1250   22.1000  -31.1630 C   0  0  0  0  0  0  0  0  0  0  0  0
   -5.3440   22.3690  -32.0440 C   0  0  0  0  0  0  0  0  0  0  0  0
   -5.8190   21.0770  -32.6950 C   0  0  0  0  0  0  0  0  0  0  0  0
   -4.8700   20.2680  -33.2520 C   0  0  0  0  0  0  0  0  0  0  0  0
   -5.2830   18.9550  -33.8890 C   0  0  0  0  0  0  0  0  0  0  0  0
   -5.7420   17.9540  -32.8230 C   0  0  0  0  0  0  0  0  0  0  0  0
   -6.8130   18.5230  -31.8800 C   0  0  0  0  0  0  0  0  0  0  0  0
   -7.7610   19.3700  -32.6350 N   0  0  0  0  0  0  0  0  0  0  0  0
   -9.0880   19.4140  -31.9890 C   0  0  0  0  0  0  0  0  0  0  0  0
   -9.5460   20.8600  -31.9720 C   0  0  0  0  0  0  0  0  0  0  0  0
   -8.2540   21.6340  -31.9780 C   0  0  0  0  0  0  0  0  0  0  0  0
   -7.3310   20.7800  -32.8430 C   0  0  1  0  0  0  0  0  0  0  0  0
   -1.4539   22.6580  -28.5525 H   0  0  0  0  0  0  0  0  0  0  0  0
   -1.2864   20.9982  -29.2187 H   0  0  0  0  0  0  0  0  0  0  0  0
    0.1225   22.1124  -29.2187 H   0  0  0  0  0  0  0  0  0  0  0  0
    0.3673   21.3087  -32.3085 H   0  0  0  0  0  0  0  0  0  0  0  0
   -0.2775   19.8984  -34.2520 H   0  0  0  0  0  0  0  0  0  0  0  0
   -2.6721   19.4312  -34.7298 H   0  0  0  0  0  0  0  0  0  0  0  0
   -4.4084   21.4271  -30.3403 H   0  0  0  0  0  0  0  0  0  0  0  0
   -3.7550   23.0495  -30.7489 H   0  0  0  0  0  0  0  0  0  0  0  0
   -6.1542   22.7836  -31.4262 H   0  0  0  0  0  0  0  0  0  0  0  0
   -5.0665   23.0859  -32.8308 H   0  0  0  0  0  0  0  0  0  0  0  0
   -6.1098   19.1389  -34.5909 H   0  0  0  0  0  0  0  0  0  0  0  0
   -4.4171   18.5327  -34.4199 H   0  0  0  0  0  0  0  0  0  0  0  0
   -6.1561   17.0695  -33.3292 H   0  0  0  0  0  0  0  0  0  0  0  0
   -4.8642   17.7052  -32.2086 H   0  0  0  0  0  0  0  0  0  0  0  0
   -7.3617   17.6931  -31.4107 H   0  0  0  0  0  0  0  0  0  0  0  0
   -6.3229   19.1339  -31.1076 H   0  0  0  0  0  0  0  0  0  0  0  0
   -9.8024   18.8016  -32.5588 H   0  0  0  0  0  0  0  0  0  0  0  0
   -9.0309   19.0163  -30.9650 H   0  0  0  0  0  0  0  0  0  0  0  0
  -10.1487   21.0927  -32.8623 H   0  0  0  0  0  0  0  0  0  0  0  0
  -10.1860   21.0982  -31.1096 H   0  0  0  0  0  0  0  0  0  0  0  0
   -8.3953   22.6314  -32.4198 H   0  0  0  0  0  0  0  0  0  0  0  0
   -7.8545   21.8086  -30.9681 H   0  0  0  0  0  0  0  0  0  0  0  0
   -7.4412   21.0395  -33.9063 H   0  0  0  0  0  0  0  0  0  0  0  0
  1  2  1  0
  2  3  1  0
  3  4  2  0
  4  5  1  0
  5  6  2  0
  6  7  1  0
  7  8  2  0
  8  9  1  0
  9 10  1  0
 10 11  1  0
 11 12  2  0
 12 13  1  0
 13 14  1  0
 14 15  1  0
 15 16  1  0
 16 17  1  0
 17 18  1  0
 18 19  1  0
 19 20  1  0
  8  3  1  0
 20 11  1  0
 12  7  1  0
 20 16  1  0
  1 21  1  0
  1 22  1  0
  1 23  1  0
  4 24  1  0
  5 25  1  0
  6 26  1  0
  9 27  1  0
  9 28  1  0
 10 29  1  0
 10 30  1  0
 13 31  1  0
 13 32  1  0
 14 33  1  0
 14 34  1  0
 15 35  1  0
 15 36  1  0
 17 37  1  0
 17 38  1  0
 18 39  1  0
 18 40  1  0
 19 41  1  0
 19 42  1  0
 20 43  1  6
M  END
>  <UniqueID>  (35) 
32

>  <SMILES>  (35) 
COc1cccc2c1CCC1=C2CCCN2CCC[C@@H]12

>  <Energy>  (35) 
68.00118832404104

>  <Genealogy>  (35) 
COc1cccc2c1CCC1=C2CCCN2CCC[C@@H]12 (chirality)
COc1cccc2c1CCC1=C2CCCN2CCC[C@@H]12 (3D coordinates assigned)
COc1cccc2c1CCC1=C2CCCN2CCC[C@@H]12 (nonaromatic ring conformer: 68.00118832404104 kcal/mol)

>  <smiles>  (35) 
COc1cccc2c1CCC1=C2CCCN2CCCC12

>  <score_type>  (35) 
oracle

>  <origin>  (35) 
adg

>  <m_score__min__energy>  (35) 
-6.5899999999999999

>  <m_primary>  (35) 
energy

$$$$
35:0
     RDKit          3D

 41 43  0  0  0  0  0  0  0  0999 V2000
   -8.7100   18.9600  -31.2240 C   0  0  0  0  0  0  0  0  0  0  0  0
   -7.3000   18.8980  -31.4100 O   0  0  0  0  0  0  0  0  0  0  0  0
   -6.6690   18.3380  -32.5310 C   0  0  0  0  0  0  0  0  0  0  0  0
   -7.1430   17.1600  -33.1450 C   0  0  0  0  0  0  0  0  0  0  0  0
   -6.4840   16.6280  -34.2550 C   0  0  0  0  0  0  0  0  0  0  0  0
   -5.3530   17.2620  -34.7700 C   0  0  0  0  0  0  0  0  0  0  0  0
   -4.8750   18.4300  -34.1730 C   0  0  0  0  0  0  0  0  0  0  0  0
   -5.5200   18.9680  -33.0480 C   0  0  0  0  0  0  0  0  0  0  0  0
   -5.0340   20.1800  -32.4550 N   0  0  0  0  0  0  0  0  0  0  0  0
   -3.7570   20.3870  -32.1560 N   0  0  0  0  0  0  0  0  0  0  0  0
   -3.6470   21.6360  -31.6530 C   0  0  0  0  0  0  0  0  0  0  0  0
   -2.3530   22.2630  -31.2520 C   0  0  0  0  0  0  0  0  0  0  0  0
   -4.8940   22.2340  -31.6580 C   0  0  0  0  0  0  0  0  0  0  0  0
   -5.7480   21.2860  -32.1490 C   0  0  0  0  0  0  0  0  0  0  0  0
   -7.1780   21.5910  -32.5070 C   0  0  0  0  0  0  0  0  0  0  0  0
   -7.7310   22.7710  -31.6470 C   0  0  0  0  0  0  0  0  0  0  0  0
   -9.0850   23.2210  -32.2310 C   0  0  0  0  0  0  0  0  0  0  0  0
   -7.9620   22.2960  -30.1930 C   0  0  0  0  0  0  0  0  0  0  0  0
   -6.7460   23.9870  -31.6570 C   0  0  0  0  0  0  0  0  0  0  0  0
   -5.3270   23.5940  -31.3280 C   0  0  0  0  0  0  0  0  0  0  0  0
   -4.5230   24.4340  -30.8450 O   0  0  0  0  0  0  0  0  0  0  0  0
   -8.9378   18.9700  -30.1479 H   0  0  0  0  0  0  0  0  0  0  0  0
   -9.1014   19.8762  -31.6902 H   0  0  0  0  0  0  0  0  0  0  0  0
   -9.1803   18.0817  -31.6902 H   0  0  0  0  0  0  0  0  0  0  0  0
   -8.0370   16.6575  -32.7471 H   0  0  0  0  0  0  0  0  0  0  0  0
   -6.8577   15.7063  -34.7248 H   0  0  0  0  0  0  0  0  0  0  0  0
   -4.8379   16.8417  -35.6464 H   0  0  0  0  0  0  0  0  0  0  0  0
   -3.9877   18.9317  -34.5865 H   0  0  0  0  0  0  0  0  0  0  0  0
   -2.2859   22.2955  -30.1545 H   0  0  0  0  0  0  0  0  0  0  0  0
   -1.5182   21.6695  -31.6530 H   0  0  0  0  0  0  0  0  0  0  0  0
   -2.3014   23.2860  -31.6530 H   0  0  0  0  0  0  0  0  0  0  0  0
   -7.2318   21.8653  -33.5709 H   0  0  0  0  0  0  0  0  0  0  0  0
   -7.7872   20.6970  -32.3081 H   0  0  0  0  0  0  0  0  0  0  0  0
   -9.7798   23.4519  -31.4101 H   0  0  0  0  0  0  0  0  0  0  0  0
   -8.9374   24.1184  -32.8498 H   0  0  0  0  0  0  0  0  0  0  0  0
   -9.5039   22.4138  -32.8498 H   0  0  0  0  0  0  0  0  0  0  0  0
   -7.5904   23.0600  -29.4943 H   0  0  0  0  0  0  0  0  0  0  0  0
   -9.0376   22.1379  -30.0254 H   0  0  0  0  0  0  0  0  0  0  0  0
   -7.4222   21.3523  -30.0254 H   0  0  0  0  0  0  0  0  0  0  0  0
   -6.7611   24.4430  -32.6579 H   0  0  0  0  0  0  0  0  0  0  0  0
   -7.0823   24.6914  -30.8819 H   0  0  0  0  0  0  0  0  0  0  0  0
  1  2  1  0
  2  3  1  0
  3  4  2  0
  4  5  1  0
  5  6  2  0
  6  7  1  0
  7  8  2  0
  8  9  1  0
  9 10  1  0
 10 11  2  0
 11 12  1  0
 11 13  1  0
 13 14  2  0
 14 15  1  0
 15 16  1  0
 16 17  1  0
 16 18  1  0
 16 19  1  0
 19 20  1  0
 20 21  2  0
  8  3  1  0
 14  9  1  0
 20 13  1  0
  1 22  1  0
  1 23  1  0
  1 24  1  0
  4 25  1  0
  5 26  1  0
  6 27  1  0
  7 28  1  0
 12 29  1  0
 12 30  1  0
 12 31  1  0
 15 32  1  0
 15 33  1  0
 17 34  1  0
 17 35  1  0
 17 36  1  0
 18 37  1  0
 18 38  1  0
 18 39  1  0
 19 40  1  0
 19 41  1  0
M  END
>  <UniqueID>  (36) 
33

>  <SMILES>  (36) 
COc1ccccc1-n1nc(C)c2c1CC(C)(C)CC2=O

>  <Energy>  (36) 
78.18389359805384

>  <Genealogy>  (36) 
COc1ccccc1-n1nc(C)c2c1CC(C)(C)CC2=O (3D coordinates assigned)
COc1ccccc1-n1nc(C)c2c1CC(C)(C)CC2=O (nonaromatic ring conformer: 78.18389359805384 kcal/mol)

>  <smiles>  (36) 
COc1ccccc1-n1nc(C)c2c1CC(C)(C)CC2=O

>  <score_type>  (36) 
oracle

>  <origin>  (36) 
adg

>  <m_score__min__energy>  (36) 
-8.1799999999999997

>  <m_primary>  (36) 
energy

$$$$
36:0
     RDKit          3D

 40 43  0  0  0  0  0  0  0  0999 V2000
   -2.4440   18.1690  -34.3220 C   0  0  0  0  0  0  0  0  0  0  0  0
   -2.8790   19.4380  -33.8920 C   0  0  0  0  0  0  0  0  0  0  0  0
   -4.1680   19.6080  -33.4800 N   0  0  0  0  0  0  0  0  0  0  0  0
   -4.9940   18.5640  -33.4910 N   0  0  0  0  0  0  0  0  0  0  0  0
   -6.2860   18.4950  -33.1350 C   0  0  0  0  0  0  0  0  0  0  0  0
   -7.1010   19.6250  -32.6310 C   0  0  0  0  0  0  0  0  0  0  0  0
   -8.4790   19.4980  -32.4110 C   0  0  0  0  0  0  0  0  0  0  0  0
   -9.1860   20.6060  -31.9430 C   0  0  0  0  0  0  0  0  0  0  0  0
   -8.5410   21.7770  -31.7030 N   0  0  0  0  0  0  0  0  0  0  0  0
   -7.1960   21.8860  -31.9040 C   0  0  0  0  0  0  0  0  0  0  0  0
   -6.5090   23.1270  -31.6540 N   0  0  0  0  0  0  0  0  0  0  0  0
   -7.2690   24.2110  -31.0030 C   0  0  0  0  0  0  0  0  0  0  0  0
   -6.4920   24.9150  -29.8820 C   0  0  0  0  0  0  0  0  0  0  0  0
   -5.4320   25.8960  -30.4170 C   0  0  0  0  0  0  0  0  0  0  0  0
   -4.1490   25.2640  -30.7590 N   0  0  0  0  0  0  0  0  0  0  0  0
   -4.2160   23.7970  -30.8200 C   0  0  0  0  0  0  0  0  0  0  0  0
   -5.0780   23.2550  -31.9870 C   0  0  0  0  0  0  0  0  0  0  0  0
   -6.5010   20.8160  -32.3730 N   0  0  0  0  0  0  0  0  0  0  0  0
   -6.6820   17.1750  -33.3370 C   0  0  0  0  0  0  0  0  0  0  0  0
   -5.6420   16.4420  -33.8120 N   0  0  0  0  0  0  0  0  0  0  0  0
   -4.6370   17.3370  -33.8880 C   0  0  0  0  0  0  0  0  0  0  0  0
   -3.3390   17.0890  -34.3220 C   0  0  0  0  0  0  0  0  0  0  0  0
   -1.4060   18.0256  -34.6566 H   0  0  0  0  0  0  0  0  0  0  0  0
   -2.1816   20.2887  -33.8885 H   0  0  0  0  0  0  0  0  0  0  0  0
   -8.9927   18.5445  -32.6033 H   0  0  0  0  0  0  0  0  0  0  0  0
  -10.2694   20.5310  -31.7678 H   0  0  0  0  0  0  0  0  0  0  0  0
   -9.1000   22.6010  -31.3860 H   0  0  0  0  0  0  0  0  0  0  0  0
   -7.5331   24.9581  -31.7660 H   0  0  0  0  0  0  0  0  0  0  0  0
   -8.1571   23.7529  -30.5431 H   0  0  0  0  0  0  0  0  0  0  0  0
   -7.2046   25.4736  -29.2574 H   0  0  0  0  0  0  0  0  0  0  0  0
   -5.9656   24.1397  -29.3059 H   0  0  0  0  0  0  0  0  0  0  0  0
   -5.8320   26.3777  -31.3214 H   0  0  0  0  0  0  0  0  0  0  0  0
   -5.2272   26.6140  -29.6092 H   0  0  0  0  0  0  0  0  0  0  0  0
   -3.7540   25.6630  -31.6420 H   0  0  0  0  0  0  0  0  0  0  0  0
   -3.1935   23.4083  -30.9354 H   0  0  0  0  0  0  0  0  0  0  0  0
   -4.6936   23.4607  -29.8879 H   0  0  0  0  0  0  0  0  0  0  0  0
   -4.9796   23.9421  -32.8403 H   0  0  0  0  0  0  0  0  0  0  0  0
   -4.7090   22.2449  -32.2186 H   0  0  0  0  0  0  0  0  0  0  0  0
   -7.6908   16.7830  -33.1403 H   0  0  0  0  0  0  0  0  0  0  0  0
   -3.0272   16.0870  -34.6517 H   0  0  0  0  0  0  0  0  0  0  0  0
  1  2  1  0
  2  3  2  0
  3  4  1  0
  4  5  1  0
  5  6  1  0
  6  7  2  0
  7  8  1  0
  8  9  2  0
  9 10  1  0
 10 11  1  0
 11 12  1  0
 12 13  1  0
 13 14  1  0
 14 15  1  0
 15 16  1  0
 16 17  1  0
 10 18  2  0
  5 19  2  0
 19 20  1  0
 20 21  2  0
 21 22  1  0
 22  1  2  0
 21  4  1  0
 18  6  1  0
 17 11  1  0
  1 23  1  0
  2 24  1  0
  7 25  1  0
  8 26  1  0
  9 27  1  0
 12 28  1  0
 12 29  1  0
 13 30  1  0
 13 31  1  0
 14 32  1  0
 14 33  1  0
 15 34  1  0
 16 35  1  0
 16 36  1  0
 17 37  1  0
 17 38  1  0
 19 39  1  0
 22 40  1  0
M  CHG  1   9   1
M  END
>  <UniqueID>  (37) 
34

>  <SMILES>  (37) 
c1cnn2c(-c3cc[nH+]c(N4CCCNCC4)n3)cnc2c1

>  <Energy>  (37) 
93.41570521375766

>  <Genealogy>  (37) 
c1cnn2c(-c3cc[nH+]c(N4CCCNCC4)n3)cnc2c1 (protonated)
c1cnn2c(-c3cc[nH+]c(N4CCCNCC4)n3)cnc2c1 (3D coordinates assigned)
c1cnn2c(-c3cc[nH+]c(N4CCCNCC4)n3)cnc2c1 (nonaromatic ring conformer: 93.41570521375766 kcal/mol)

>  <smiles>  (37) 
c1cnn2c(-c3ccnc(N4CCCNCC4)n3)cnc2c1

>  <score_type>  (37) 
oracle

>  <origin>  (37) 
adg

>  <m_score__min__energy>  (37) 
-5.8799999999999999

>  <m_primary>  (37) 
energy

$$$$
37:0
     RDKit          3D

 30 32  0  0  0  0  0  0  0  0999 V2000
   -6.8520   18.9530  -33.4090 C   0  0  0  0  0  0  0  0  0  0  0  0
   -7.3820   20.1120  -32.6180 C   0  0  0  0  0  0  0  0  0  0  0  0
   -8.4720   19.9330  -31.7570 C   0  0  0  0  0  0  0  0  0  0  0  0
   -8.9850   21.0270  -31.0610 C   0  0  0  0  0  0  0  0  0  0  0  0
   -8.4150   22.2880  -31.2340 C   0  0  0  0  0  0  0  0  0  0  0  0
   -7.3280   22.4410  -32.1050 C   0  0  0  0  0  0  0  0  0  0  0  0
   -6.7390   23.8030  -32.3460 C   0  0  0  0  0  0  0  0  0  0  0  0
   -5.4520   23.9160  -31.6640 N   0  0  0  0  0  0  0  0  0  0  0  0
   -5.0130   24.8960  -30.8320 C   0  0  0  0  0  0  0  0  0  0  0  0
   -5.6720   25.9390  -30.5760 O   0  0  0  0  0  0  0  0  0  0  0  0
   -3.8240   24.6410  -30.3080 O   0  0  0  0  0  0  0  0  0  0  0  0
   -3.4730   23.4710  -30.7870 C   0  0  0  0  0  0  0  0  0  0  0  0
   -2.3260   22.7240  -30.5540 C   0  0  0  0  0  0  0  0  0  0  0  0
   -2.2300   21.4780  -31.2010 C   0  0  0  0  0  0  0  0  0  0  0  0
   -3.2800   21.0390  -32.0440 C   0  0  0  0  0  0  0  0  0  0  0  0
   -4.3890   21.8160  -32.2390 N   0  0  0  0  0  0  0  0  0  0  0  0
   -4.4570   23.0160  -31.6100 C   0  0  0  0  0  0  0  0  0  0  0  0
   -6.8500   21.3580  -32.7860 N   0  0  0  0  0  0  0  0  0  0  0  0
   -6.4950   18.1723  -32.7212 H   0  0  0  0  0  0  0  0  0  0  0  0
   -7.6530   18.5449  -34.0429 H   0  0  0  0  0  0  0  0  0  0  0  0
   -6.0194   19.2919  -34.0429 H   0  0  0  0  0  0  0  0  0  0  0  0
   -8.9203   18.9365  -31.6307 H   0  0  0  0  0  0  0  0  0  0  0  0
   -9.8368   20.8958  -30.3775 H   0  0  0  0  0  0  0  0  0  0  0  0
   -8.8159   23.1563  -30.6906 H   0  0  0  0  0  0  0  0  0  0  0  0
   -6.5936   23.9516  -33.4262 H   0  0  0  0  0  0  0  0  0  0  0  0
   -7.4249   24.5686  -31.9543 H   0  0  0  0  0  0  0  0  0  0  0  0
   -1.5271   23.0902  -29.8925 H   0  0  0  0  0  0  0  0  0  0  0  0
   -1.3416   20.8466  -31.0524 H   0  0  0  0  0  0  0  0  0  0  0  0
   -3.2031   20.0637  -32.5469 H   0  0  0  0  0  0  0  0  0  0  0  0
   -6.0570   21.4870  -33.4560 H   0  0  0  0  0  0  0  0  0  0  0  0
  1  2  1  0
  2  3  2  0
  3  4  1  0
  4  5  2  0
  5  6  1  0
  6  7  1  0
  7  8  1  0
  8  9  1  0
  9 10  2  0
  9 11  1  0
 11 12  1  0
 12 13  2  0
 13 14  1  0
 14 15  2  0
 15 16  1  0
 16 17  2  0
  6 18  2  0
 18  2  1  0
 17  8  1  0
 17 12  1  0
  1 19  1  0
  1 20  1  0
  1 21  1  0
  3 22  1  0
  4 23  1  0
  5 24  1  0
  7 25  1  0
  7 26  1  0
 13 27  1  0
 14 28  1  0
 15 29  1  0
 18 30  1  0
M  CHG  1  18   1
M  END
>  <UniqueID>  (38) 
35

>  <SMILES>  (38) 
Cc1cccc(Cn2c(=O)oc3cccnc32)[nH+]1

>  <Energy>  (38) 
73.8822609788713

>  <Genealogy>  (38) 
Cc1cccc(Cn2c(=O)oc3cccnc32)[nH+]1 (protonated)
Cc1cccc(Cn2c(=O)oc3cccnc32)[nH+]1 (3D coordinates assigned)
Cc1cccc(Cn2c(=O)oc3cccnc32)[nH+]1 (optimized conformer: 73.8822609788713 kcal/mol)

>  <smiles>  (38) 
Cc1cccc(Cn2c(=O)oc3cccnc32)n1

>  <score_type>  (38) 
oracle

>  <origin>  (38) 
adg

>  <m_score__min__energy>  (38) 
-6.21

>  <m_primary>  (38) 
energy

$$$$
38:0
     RDKit          3D

 45 48  0  0  0  0  0  0  0  0999 V2000
   -4.2390   25.8230  -31.7390 H   0  0  0  0  0  0  0  0  0  0  0  0
   -4.4450   25.2990  -30.8630 N   0  0  0  0  0  0  0  0  0  0  0  0
   -3.6200   24.4650  -30.3100 C   0  0  0  0  0  0  0  0  0  0  0  0
   -2.7190   24.9270  -29.3840 N   0  0  0  0  0  0  0  0  0  0  0  0
   -1.8610   24.0350  -28.8150 C   0  0  0  0  0  0  0  0  0  0  0  0
   -1.8560   22.7150  -29.1230 C   0  0  0  0  0  0  0  0  0  0  0  0
   -0.9040   22.0610  -28.4320 N   0  0  0  0  0  0  0  0  0  0  0  0
   -0.3410   23.0600  -27.6930 C   0  0  0  0  0  0  0  0  0  0  0  0
    0.4916   22.8969  -26.9928 H   0  0  0  0  0  0  0  0  0  0  0  0
   -0.9090   24.2770  -27.9060 N   0  0  0  0  0  0  0  0  0  0  0  0
   -0.5270   25.5580  -27.3160 C   0  0  0  0  0  0  0  0  0  0  0  0
    0.5665   25.5876  -27.1998 H   0  0  0  0  0  0  0  0  0  0  0  0
   -0.8685   26.3638  -27.9824 H   0  0  0  0  0  0  0  0  0  0  0  0
   -1.1850   25.7550  -25.9350 C   0  0  0  0  0  0  0  0  0  0  0  0
   -0.7072   25.0573  -25.2315 H   0  0  0  0  0  0  0  0  0  0  0  0
   -2.6850   25.4310  -25.9780 C   0  0  0  0  0  0  0  0  0  0  0  0
   -3.0717   25.3475  -24.9516 H   0  0  0  0  0  0  0  0  0  0  0  0
   -3.2187   26.2346  -26.5066 H   0  0  0  0  0  0  0  0  0  0  0  0
   -2.8394   24.4788  -26.5066 H   0  0  0  0  0  0  0  0  0  0  0  0
   -0.9690   27.1900  -25.4440 C   0  0  0  0  0  0  0  0  0  0  0  0
   -0.9668   27.2048  -24.3441 H   0  0  0  0  0  0  0  0  0  0  0  0
   -0.0044   27.5641  -25.8177 H   0  0  0  0  0  0  0  0  0  0  0  0
   -1.7807   27.8315  -25.8177 H   0  0  0  0  0  0  0  0  0  0  0  0
   -2.7620   22.2510  -30.0560 C   0  0  0  0  0  0  0  0  0  0  0  0
   -2.9720   20.9860  -30.5560 C   0  0  0  0  0  0  0  0  0  0  0  0
   -2.4413   20.0568  -30.3010 H   0  0  0  0  0  0  0  0  0  0  0  0
   -4.0200   21.1620  -31.4650 C   0  0  0  0  0  0  0  0  0  0  0  0
   -4.6410   20.0990  -32.2930 C   0  0  0  0  0  0  0  0  0  0  0  0
   -3.9070   19.4600  -33.3080 C   0  0  0  0  0  0  0  0  0  0  0  0
   -2.8617   19.7502  -33.4900 H   0  0  0  0  0  0  0  0  0  0  0  0
   -4.4940   18.4590  -34.0880 C   0  0  0  0  0  0  0  0  0  0  0  0
   -3.9078   17.9666  -34.8778 H   0  0  0  0  0  0  0  0  0  0  0  0
   -5.8310   18.0780  -33.8680 C   0  0  0  0  0  0  0  0  0  0  0  0
   -6.4640   17.0800  -34.6230 O   0  0  0  0  0  0  0  0  0  0  0  0
   -6.6420   15.7360  -34.1890 C   0  0  0  0  0  0  0  0  0  0  0  0
   -6.6463   15.7033  -33.0895 H   0  0  0  0  0  0  0  0  0  0  0  0
   -7.5990   15.3510  -34.5711 H   0  0  0  0  0  0  0  0  0  0  0  0
   -5.8182   15.1152  -34.5711 H   0  0  0  0  0  0  0  0  0  0  0  0
   -6.5620   18.7140  -32.8610 C   0  0  0  0  0  0  0  0  0  0  0  0
   -7.6077   18.4238  -32.6813 H   0  0  0  0  0  0  0  0  0  0  0  0
   -5.9780   19.7150  -32.0800 C   0  0  0  0  0  0  0  0  0  0  0  0
   -6.5681   20.2066  -31.2925 H   0  0  0  0  0  0  0  0  0  0  0  0
   -4.3870   22.4680  -31.4830 N   0  0  0  0  0  0  0  0  0  0  0  0
   -5.1250   22.8960  -32.0830 H   0  0  0  0  0  0  0  0  0  0  0  0
   -3.6180   23.1220  -30.6250 N   0  0  0  0  0  0  0  0  0  0  0  0
  1  2  1  0
  2  3  2  0
  3  4  1  0
  4  5  1  0
  5  6  2  0
  6  7  1  0
  7  8  2  0
  8  9  1  0
  8 10  1  0
 10 11  1  0
 11 12  1  0
 11 13  1  0
 11 14  1  0
 14 15  1  0
 14 16  1  0
 16 17  1  0
 16 18  1  0
 16 19  1  0
 14 20  1  0
 20 21  1  0
 20 22  1  0
 20 23  1  0
  6 24  1  0
 24 25  2  0
 25 26  1  0
 25 27  1  0
 27 28  1  0
 28 29  2  0
 29 30  1  0
 29 31  1  0
 31 32  1  0
 31 33  2  0
 33 34  1  0
 34 35  1  0
 35 36  1  0
 35 37  1  0
 35 38  1  0
 33 39  1  0
 39 40  1  0
 39 41  2  0
 41 42  1  0
 27 43  2  0
 43 44  1  0
 43 45  1  0
 45  3  1  0
 10  5  1  0
 45 24  1  0
 41 28  1  0
M  CHG  2   4  -1  43   1
M  END
>  <UniqueID>  (39) 
36

>  <SMILES>  (39) 
[H]/N=c1/[n-]c2c(ncn2CC(C)C)c2cc(-c3ccc(OC)cc3)[nH+]n12

>  <Energy>  (39) 
123.50091208946242

>  <Genealogy>  (39) 
COc1ccc(-c2cc3c4ncn(CC(C)C)c4[n-]c(=N)n3[nH+]2)cc1 (protonated)
[H]/N=c1/[n-]c2c(ncn2CC(C)C)c2cc(-c3ccc(OC)cc3)[nH+]n12 (cis-trans isomerization)
[H]/N=c1/[n-]c2c(ncn2CC(C)C)c2cc(-c3ccc(OC)cc3)[nH+]n12 (3D coordinates assigned)
[H]/N=c1/[n-]c2c(ncn2CC(C)C)c2cc(-c3ccc(OC)cc3)[nH+]n12 (optimized conformer: 123.50091208946242 kcal/mol)

>  <smiles>  (39) 
COc1ccc(-c2cc3c4ncn(CC(C)C)c4[nH]c(=N)n3n2)cc1

>  <score_type>  (39) 
oracle

>  <origin>  (39) 
adg

>  <m_score__min__energy>  (39) 
-7.8399999999999999

>  <m_primary>  (39) 
energy

$$$$
39:0
     RDKit          2D

 35 38  0  0  0  0  0  0  0  0999 V2000
    3.0000    0.0000    0.0000 O   0  0  0  0  0  0  0  0  0  0  0  0
    1.5000    0.0000    0.0000 C   0  0  0  0  0  0  0  0  0  0  0  0
    0.7500   -1.2990    0.0000 C   0  0  0  0  0  0  0  0  0  0  0  0
   -0.7500   -1.2990    0.0000 C   0  0  0  0  0  0  0  0  0  0  0  0
   -1.5000    0.0000    0.0000 C   0  0  0  0  0  0  0  0  0  0  0  0
   -0.7500    1.2990    0.0000 C   0  0  0  0  0  0  0  0  0  0  0  0
    0.7500    1.2990    0.0000 C   0  0  0  0  0  0  0  0  0  0  0  0
    1.5000    2.5981    0.0000 O   0  0  0  0  0  0  0  0  0  0  0  0
   -2.9832    0.2236    0.0000 C   0  0  0  0  0  0  0  0  0  0  0  0
   -4.0828   -0.7967    0.0000 N   0  0  0  0  0  0  0  0  0  0  0  0
   -2.2990   -2.0929    0.0000 C   0  0  0  0  0  0  0  0  0  0  0  0
   -1.8379   -3.5203    0.0000 C   0  0  0  0  0  0  0  0  0  0  0  0
   -2.8435   -4.6333    0.0000 C   0  0  0  0  0  0  0  0  0  0  0  0
   -4.1949   -5.2841    0.0000 C   0  0  0  0  0  0  0  0  0  0  0  0
   -5.4343   -4.4391    0.0000 C   0  0  0  0  0  0  0  0  0  0  0  0
   -5.3222   -2.9433    0.0000 C   0  0  0  0  0  0  0  0  0  0  0  0
   -6.5615   -2.0983    0.0000 O   0  0  0  0  0  0  0  0  0  0  0  0
   -3.9707   -2.2925    0.0000 C   0  0  0  0  0  0  0  0  0  0  0  0
   -2.7314   -3.1375    0.0000 C   0  0  0  0  0  0  0  0  0  0  0  0
   -1.2980   -2.6953    0.0000 C   0  0  0  0  0  0  0  0  0  0  0  0
    3.7500   -1.2990    0.0000 H   0  0  0  0  0  0  0  0  0  0  0  0
    1.5000   -2.5981    0.0000 H   0  0  0  0  0  0  0  0  0  0  0  0
   -1.5000    2.5981    0.0000 H   0  0  0  0  0  0  0  0  0  0  0  0
    3.0000    2.5981    0.0000 H   0  0  0  0  0  0  0  0  0  0  0  0
   -2.4352    1.6199    0.0000 H   0  0  0  0  0  0  0  0  0  0  0  0
   -4.2226    1.0685    0.0000 H   0  0  0  0  0  0  0  0  0  0  0  0
   -1.5063   -2.1776    0.0000 H   0  0  0  0  0  0  0  0  0  0  0  0
   -2.2441   -0.5939    0.0000 H   0  0  0  0  0  0  0  0  0  0  0  0
   -1.0675   -4.8074    0.0000 H   0  0  0  0  0  0  0  0  0  0  0  0
   -0.3487   -3.3401    0.0000 H   0  0  0  0  0  0  0  0  0  0  0  0
   -4.3070   -6.7799    0.0000 H   0  0  0  0  0  0  0  0  0  0  0  0
   -6.7857   -5.0900    0.0000 H   0  0  0  0  0  0  0  0  0  0  0  0
   -6.4494   -0.6025    0.0000 H   0  0  0  0  0  0  0  0  0  0  0  0
   -1.0044   -4.1663    0.0000 H   0  0  0  0  0  0  0  0  0  0  0  0
    0.2014   -2.7364    0.0000 H   0  0  0  0  0  0  0  0  0  0  0  0
  1  2  1  0
  2  3  2  0
  3  4  1  0
  4  5  2  0
  5  6  1  0
  6  7  2  0
  7  8  1  0
  5  9  1  0
  9 10  1  0
 10 11  1  0
 11 12  1  0
 12 13  1  0
 13 14  2  0
 14 15  1  0
 15 16  2  0
 16 17  1  0
 16 18  1  0
 18 19  2  0
 19 20  1  0
  7  2  1  0
 18 10  1  0
 20  4  1  0
 19 13  1  0
  1 21  1  0
  3 22  1  0
  6 23  1  0
  8 24  1  0
  9 25  1  0
  9 26  1  0
 11 27  1  0
 11 28  1  0
 12 29  1  0
 12 30  1  0
 14 31  1  0
 15 32  1  0
 17 33  1  0
 20 34  1  0
 20 35  1  0
M  END
>  <smiles>  (40) 
Oc1cc2c(cc1O)CN1CCc3ccc(O)c1c3C2

>  <m_score__min__energy>  (40) 
nan

>  <m_primary>  (40) 
energy

$$$$
40:0
     RDKit          3D

 41 43  0  0  0  0  0  0  0  0999 V2000
   -5.8100   25.6770  -30.1380 C   0  0  0  0  0  0  0  0  0  0  0  0
   -4.6250   25.2730  -30.8150 O   0  0  0  0  0  0  0  0  0  0  0  0
   -4.1370   23.9570  -30.8420 C   0  0  0  0  0  0  0  0  0  0  0  0
   -3.1000   23.6160  -29.9710 C   0  0  0  0  0  0  0  0  0  0  0  0
   -2.5800   22.3200  -29.9580 C   0  0  0  0  0  0  0  0  0  0  0  0
   -3.0930   21.3360  -30.8230 C   0  0  0  0  0  0  0  0  0  0  0  0
   -2.6130   20.0180  -30.8150 O   0  0  0  0  0  0  0  0  0  0  0  0
   -1.2530   19.6540  -30.6010 C   0  0  0  0  0  0  0  0  0  0  0  0
   -4.1280   21.6780  -31.7150 C   0  0  0  0  0  0  0  0  0  0  0  0
   -4.6520   20.7060  -32.6380 N   0  0  0  0  0  0  0  0  0  0  0  0
   -3.9580   19.9340  -33.5060 C   0  0  0  0  0  0  0  0  0  0  0  0
   -2.4650   19.8780  -33.6040 C   0  0  0  0  0  0  0  0  0  0  0  0
   -4.7780   19.2200  -34.3030 N   0  0  0  0  0  0  0  0  0  0  0  0
   -6.0110   19.5460  -33.9500 N   0  0  0  0  0  0  0  0  0  0  0  0
   -5.9400   20.4330  -32.9420 C   0  0  0  0  0  0  0  0  0  0  0  0
   -7.1290   21.0360  -32.3080 C   0  0  0  0  0  0  0  0  0  0  0  0
   -7.3970   22.3910  -32.2970 C   0  0  0  0  0  0  0  0  0  0  0  0
   -8.5740   22.5520  -31.5940 C   0  0  0  0  0  0  0  0  0  0  0  0
   -8.9870   21.2900  -31.2180 C   0  0  0  0  0  0  0  0  0  0  0  0
   -8.1140   20.3670  -31.6650 N   0  0  0  0  0  0  0  0  0  0  0  0
   -8.2660   18.9250  -31.4970 C   0  0  0  0  0  0  0  0  0  0  0  0
   -4.6510   22.9800  -31.7140 C   0  0  0  0  0  0  0  0  0  0  0  0
   -5.6484   25.6219  -29.0513 H   0  0  0  0  0  0  0  0  0  0  0  0
   -6.0589   26.7108  -30.4197 H   0  0  0  0  0  0  0  0  0  0  0  0
   -6.6386   25.0106  -30.4197 H   0  0  0  0  0  0  0  0  0  0  0  0
   -2.6891   24.3750  -29.2891 H   0  0  0  0  0  0  0  0  0  0  0  0
   -1.7631   22.0665  -29.2663 H   0  0  0  0  0  0  0  0  0  0  0  0
   -1.0534   19.6006  -29.5206 H   0  0  0  0  0  0  0  0  0  0  0  0
   -1.0598   18.6725  -31.0586 H   0  0  0  0  0  0  0  0  0  0  0  0
   -0.5953   20.4077  -31.0586 H   0  0  0  0  0  0  0  0  0  0  0  0
   -2.0315   19.8617  -32.5931 H   0  0  0  0  0  0  0  0  0  0  0  0
   -2.1670   18.9680  -34.1454 H   0  0  0  0  0  0  0  0  0  0  0  0
   -2.0996   20.7631  -34.1454 H   0  0  0  0  0  0  0  0  0  0  0  0
   -6.8760   19.1600  -34.3900 H   0  0  0  0  0  0  0  0  0  0  0  0
   -6.7916   23.1855  -32.7578 H   0  0  0  0  0  0  0  0  0  0  0  0
   -9.0839   23.5020  -31.3758 H   0  0  0  0  0  0  0  0  0  0  0  0
   -9.8957   21.0703  -30.6384 H   0  0  0  0  0  0  0  0  0  0  0  0
   -8.2917   18.6815  -30.4246 H   0  0  0  0  0  0  0  0  0  0  0  0
   -9.2036   18.5976  -31.9699 H   0  0  0  0  0  0  0  0  0  0  0  0
   -7.4172   18.4093  -31.9699 H   0  0  0  0  0  0  0  0  0  0  0  0
   -5.4701   23.2391  -32.4010 H   0  0  0  0  0  0  0  0  0  0  0  0
  1  2  1  0
  2  3  1  0
  3  4  2  0
  4  5  1  0
  5  6  2  0
  6  7  1  0
  7  8  1  0
  6  9  1  0
  9 10  1  0
 10 11  1  0
 11 12  1  0
 11 13  2  0
 13 14  1  0
 14 15  2  0
 15 16  1  0
 16 17  2  0
 17 18  1  0
 18 19  2  0
 19 20  1  0
 20 21  1  0
  9 22  2  0
 22  3  1  0
 15 10  1  0
 20 16  1  0
  1 23  1  0
  1 24  1  0
  1 25  1  0
  4 26  1  0
  5 27  1  0
  8 28  1  0
  8 29  1  0
  8 30  1  0
 12 31  1  0
 12 32  1  0
 12 33  1  0
 14 34  1  0
 17 35  1  0
 18 36  1  0
 19 37  1  0
 21 38  1  0
 21 39  1  0
 21 40  1  0
 22 41  1  0
M  CHG  1  14   1
M  END
>  <UniqueID>  (41) 
37

>  <SMILES>  (41) 
COc1ccc(OC)c(-n2c(C)n[nH+]c2-c2cccn2C)c1

>  <Energy>  (41) 
110.06280996396802

>  <Genealogy>  (41) 
COc1ccc(OC)c(-n2c(C)n[nH+]c2-c2cccn2C)c1 (protonated)
COc1ccc(OC)c(-n2c(C)n[nH+]c2-c2cccn2C)c1 (3D coordinates assigned)
COc1ccc(OC)c(-n2c(C)n[nH+]c2-c2cccn2C)c1 (optimized conformer: 110.06280996396802 kcal/mol)

>  <smiles>  (41) 
COc1ccc(OC)c(-n2c(C)nnc2-c2cccn2C)c1

>  <score_type>  (41) 
oracle

>  <origin>  (41) 
adg

>  <m_score__min__energy>  (41) 
-6.5

>  <m_primary>  (41) 
energy

$$$$
41:0
     RDKit          3D

 62 66  0  0  1  0  0  0  0  0999 V2000
   -1.1880   26.3510  -28.1850 C   0  0  0  0  0  0  0  0  0  0  0  0
   -1.2850   24.9280  -28.4170 N   0  0  0  0  0  0  0  0  0  0  0  0
   -0.0190   24.1910  -28.4540 C   0  0  0  0  0  0  0  0  0  0  0  0
   -2.5220   24.2470  -28.6120 C   0  0  0  0  0  0  0  0  0  0  0  0
   -2.9580   23.3510  -27.6680 C   0  0  0  0  0  0  0  0  0  0  0  0
   -4.1710   22.7260  -27.8580 C   0  0  0  0  0  0  0  0  0  0  0  0
   -4.8960   23.0250  -28.9880 C   0  0  0  0  0  0  0  0  0  0  0  0
   -4.4340   23.9460  -29.9480 C   0  0  0  0  0  0  0  0  0  0  0  0
   -5.3210   24.1880  -31.1040 C   0  0  0  0  0  0  0  0  0  0  0  0
   -5.7890   22.9670  -31.7230 N   0  0  0  0  0  0  0  0  0  0  0  0
   -4.9330   22.2010  -32.4760 C   0  0  0  0  0  0  0  0  0  0  0  0
   -5.6330   21.1090  -32.9530 C   0  0  0  0  0  0  0  0  0  0  0  0
   -4.9730   20.0520  -33.7990 C   0  0  0  0  0  0  0  0  0  0  0  0
   -4.6680   18.8500  -33.0200 C   0  0  0  0  0  0  0  0  0  0  0  0
   -3.3400   18.4850  -32.7110 N   0  0  0  0  0  0  0  0  0  0  0  0
   -2.4480   19.3890  -32.7270 C   0  0  0  0  0  0  0  0  0  0  0  0
   -1.6260   19.3900  -33.8240 N   0  0  0  0  0  0  0  0  0  0  0  0
   -0.6340   20.2720  -33.9720 C   0  0  0  0  0  0  0  0  0  0  0  0
   -0.4110   21.1870  -33.0490 N   0  0  0  0  0  0  0  0  0  0  0  0
   -1.1890   21.2210  -31.9620 C   0  0  0  0  0  0  0  0  0  0  0  0
   -2.2430   20.3310  -31.7420 C   0  0  0  0  0  0  0  0  0  0  0  0
   -3.0070   20.4230  -30.5520 C   0  0  0  0  0  0  0  0  0  0  0  0
   -1.9440   20.3500  -29.4130 C   0  0  0  0  0  0  0  0  0  0  0  0
   -0.8850   21.4050  -29.5900 C   0  0  0  0  0  0  0  0  0  0  0  0
   -0.9780   22.2230  -30.8650 C   0  0  0  0  0  0  0  0  0  0  0  0
   -6.9160   21.1960  -32.4980 C   0  0  0  0  0  0  0  0  0  0  0  0
   -8.0310   20.3870  -32.6660 C   0  0  0  0  0  0  0  0  0  0  0  0
   -9.2090   20.7430  -32.0760 C   0  0  0  0  0  0  0  0  0  0  0  0
   -9.2910   21.9100  -31.3090 C   0  0  0  0  0  0  0  0  0  0  0  0
   -8.1700   22.6970  -31.1560 C   0  0  0  0  0  0  0  0  0  0  0  0
   -6.9730   22.3590  -31.7410 C   0  0  0  0  0  0  0  0  0  0  0  0
   -3.2560   24.5350  -29.7350 N   0  0  0  0  0  0  0  0  0  0  0  0
   -1.1747   26.5460  -27.1025 H   0  0  0  0  0  0  0  0  0  0  0  0
   -0.2617   26.7341  -28.6380 H   0  0  0  0  0  0  0  0  0  0  0  0
   -2.0538   26.8562  -28.6380 H   0  0  0  0  0  0  0  0  0  0  0  0
    0.3204   23.9934  -27.4265 H   0  0  0  0  0  0  0  0  0  0  0  0
   -0.1654   23.2370  -28.9816 H   0  0  0  0  0  0  0  0  0  0  0  0
    0.7383   24.7894  -28.9816 H   0  0  0  0  0  0  0  0  0  0  0  0
   -2.3504   23.1360  -26.7766 H   0  0  0  0  0  0  0  0  0  0  0  0
   -4.5517   22.0031  -27.1215 H   0  0  0  0  0  0  0  0  0  0  0  0
   -5.8655   22.5300  -29.1466 H   0  0  0  0  0  0  0  0  0  0  0  0
   -6.1933   24.7642  -30.7619 H   0  0  0  0  0  0  0  0  0  0  0  0
   -4.7368   24.7360  -31.8579 H   0  0  0  0  0  0  0  0  0  0  0  0
   -3.8719   22.4193  -32.6668 H   0  0  0  0  0  0  0  0  0  0  0  0
   -5.6491   19.7810  -34.6233 H   0  0  0  0  0  0  0  0  0  0  0  0
   -4.0274   20.4610  -34.1844 H   0  0  0  0  0  0  0  0  0  0  0  0
   -5.1896   18.9637  -32.0582 H   0  0  0  0  0  0  0  0  0  0  0  0
   -4.9810   18.0439  -33.6999 H   0  0  0  0  0  0  0  0  0  0  0  0
   -1.7640   18.6770  -34.5970 H   0  0  0  0  0  0  0  0  0  0  0  0
    0.0010   20.2349  -34.8695 H   0  0  0  0  0  0  0  0  0  0  0  0
   -3.5567   21.3750  -30.5131 H   0  0  0  0  0  0  0  0  0  0  0  0
   -3.7654   19.6301  -30.4740 H   0  0  0  0  0  0  0  0  0  0  0  0
   -2.4439   20.5020  -28.4450 H   0  0  0  0  0  0  0  0  0  0  0  0
   -1.4616   19.3621  -29.4488 H   0  0  0  0  0  0  0  0  0  0  0  0
   -0.9524   22.0978  -28.7382 H   0  0  0  0  0  0  0  0  0  0  0  0
    0.0707   20.8636  -29.6500 H   0  0  0  0  0  0  0  0  0  0  0  0
   -1.8254   22.9224  -30.8134 H   0  0  0  0  0  0  0  0  0  0  0  0
   -0.0753   22.8294  -31.0307 H   0  0  0  0  0  0  0  0  0  0  0  0
   -7.9660   19.4688  -33.2682 H   0  0  0  0  0  0  0  0  0  0  0  0
  -10.0987   20.1090  -32.2042 H   0  0  0  0  0  0  0  0  0  0  0  0
  -10.2403   22.1965  -30.8329 H   0  0  0  0  0  0  0  0  0  0  0  0
   -8.2346   23.6148  -30.5531 H   0  0  0  0  0  0  0  0  0  0  0  0
  1  2  1  0
  2  3  1  0
  2  4  1  0
  4  5  2  0
  5  6  1  0
  6  7  2  0
  7  8  1  0
  8  9  1  0
  9 10  1  0
 10 11  1  0
 11 12  2  0
 12 13  1  0
 13 14  1  0
 14 15  1  0
 15 16  2  0
 16 17  1  0
 17 18  1  0
 18 19  2  0
 19 20  1  0
 20 21  2  0
 21 22  1  0
 22 23  1  0
 23 24  1  0
 24 25  1  0
 12 26  1  0
 26 27  2  0
 27 28  1  0
 28 29  2  0
 29 30  1  0
 30 31  2  0
  8 32  2  0
 32  4  1  0
 31 10  1  0
 21 16  1  0
 31 26  1  0
 25 20  1  0
  1 33  1  0
  1 34  1  0
  1 35  1  0
  3 36  1  0
  3 37  1  0
  3 38  1  0
  5 39  1  0
  6 40  1  0
  7 41  1  0
  9 42  1  0
  9 43  1  0
 11 44  1  0
 13 45  1  0
 13 46  1  0
 14 47  1  0
 14 48  1  0
 17 49  1  0
 18 50  1  0
 22 51  1  0
 22 52  1  0
 23 53  1  0
 23 54  1  0
 24 55  1  0
 24 56  1  0
 25 57  1  0
 25 58  1  0
 27 59  1  0
 28 60  1  0
 29 61  1  0
 30 62  1  0
M  END
>  <smiles>  (42) 
CN(C)c1cccc(Cn2cc(CCN=c3[nH]cnc4c3CCCC4)c3ccccc32)n1

>  <score_type>  (42) 
oracle

>  <origin>  (42) 
adg

>  <m_score__min__energy>  (42) 
-10.140000000000001

>  <m_primary>  (42) 
energy

$$$$
42:0
     RDKit          3D

 38 40  0  0  0  0  0  0  0  0999 V2000
   -1.8720   21.1750  -33.3350 C   0  0  0  0  0  0  0  0  0  0  0  0
   -2.7180   19.6520  -33.8590 S   0  0  0  0  0  0  0  0  0  0  0  0
   -4.2650   20.0870  -33.0390 C   0  0  0  0  0  0  0  0  0  0  0  0
   -4.3480   21.3390  -32.4330 C   0  0  0  0  0  0  0  0  0  0  0  0
   -5.5220   21.7280  -31.7780 C   0  0  0  0  0  0  0  0  0  0  0  0
   -5.6030   23.0570  -31.1200 C   0  0  0  0  0  0  0  0  0  0  0  0
   -6.8500   23.6090  -30.7690 C   0  0  0  0  0  0  0  0  0  0  0  0
   -6.9190   24.8600  -30.1470 C   0  0  0  0  0  0  0  0  0  0  0  0
   -5.7490   25.5710  -29.8700 C   0  0  0  0  0  0  0  0  0  0  0  0
   -4.5070   25.0320  -30.2140 C   0  0  0  0  0  0  0  0  0  0  0  0
   -4.4320   23.7820  -30.8350 C   0  0  0  0  0  0  0  0  0  0  0  0
   -6.5870   20.8750  -31.7410 N   0  0  0  0  0  0  0  0  0  0  0  0
   -6.5520   19.6360  -32.3250 C   0  0  0  0  0  0  0  0  0  0  0  0
   -7.6770   18.7690  -32.2780 C   0  0  0  0  0  0  0  0  0  0  0  0
   -8.9570   19.1650  -31.5870 C   0  0  0  0  0  0  0  0  0  0  0  0
   -7.6050   17.5080  -32.8900 C   0  0  0  0  0  0  0  0  0  0  0  0
   -6.4380   17.0870  -33.5350 C   0  0  0  0  0  0  0  0  0  0  0  0
   -6.3950   15.7510  -34.2150 C   0  0  0  0  0  0  0  0  0  0  0  0
   -5.3360   17.9450  -33.6010 C   0  0  0  0  0  0  0  0  0  0  0  0
   -5.3740   19.2150  -32.9960 C   0  0  0  0  0  0  0  0  0  0  0  0
   -1.8465   21.2208  -32.2362 H   0  0  0  0  0  0  0  0  0  0  0  0
   -0.8438   21.1764  -33.7260 H   0  0  0  0  0  0  0  0  0  0  0  0
   -2.4141   22.0486  -33.7260 H   0  0  0  0  0  0  0  0  0  0  0  0
   -3.4880   22.0238  -32.4695 H   0  0  0  0  0  0  0  0  0  0  0  0
   -7.7746   23.0536  -30.9850 H   0  0  0  0  0  0  0  0  0  0  0  0
   -7.8967   25.2848  -29.8754 H   0  0  0  0  0  0  0  0  0  0  0  0
   -5.8056   26.5548  -29.3812 H   0  0  0  0  0  0  0  0  0  0  0  0
   -3.5860   25.5925  -29.9957 H   0  0  0  0  0  0  0  0  0  0  0  0
   -3.4509   23.3627  -31.1025 H   0  0  0  0  0  0  0  0  0  0  0  0
   -7.4560   21.2060  -31.2670 H   0  0  0  0  0  0  0  0  0  0  0  0
   -8.8142   19.1208  -30.4972 H   0  0  0  0  0  0  0  0  0  0  0  0
   -9.2299   20.1896  -31.8798 H   0  0  0  0  0  0  0  0  0  0  0  0
   -9.7608   18.4735  -31.8798 H   0  0  0  0  0  0  0  0  0  0  0  0
   -8.4794   16.8412  -32.8618 H   0  0  0  0  0  0  0  0  0  0  0  0
   -6.3694   14.9544  -33.4569 H   0  0  0  0  0  0  0  0  0  0  0  0
   -7.2897   15.6305  -34.8434 H   0  0  0  0  0  0  0  0  0  0  0  0
   -5.4944   15.6882  -34.8434 H   0  0  0  0  0  0  0  0  0  0  0  0
   -4.4282   17.6234  -34.1324 H   0  0  0  0  0  0  0  0  0  0  0  0
  1  2  1  0
  2  3  1  0
  3  4  2  0
  4  5  1  0
  5  6  1  0
  6  7  2  0
  7  8  1  0
  8  9  2  0
  9 10  1  0
 10 11  2  0
  5 12  2  0
 12 13  1  0
 13 14  2  0
 14 15  1  0
 14 16  1  0
 16 17  2  0
 17 18  1  0
 17 19  1  0
 19 20  2  0
 20  3  1  0
 11  6  1  0
 20 13  1  0
  1 21  1  0
  1 22  1  0
  1 23  1  0
  4 24  1  0
  7 25  1  0
  8 26  1  0
  9 27  1  0
 10 28  1  0
 11 29  1  0
 12 30  1  0
 15 31  1  0
 15 32  1  0
 15 33  1  0
 16 34  1  0
 18 35  1  0
 18 36  1  0
 18 37  1  0
 19 38  1  0
M  CHG  1  12   1
M  END
>  <UniqueID>  (43) 
38

>  <SMILES>  (43) 
CSc1cc(-c2ccccc2)[nH+]c2c(C)cc(C)cc12

>  <Energy>  (43) 
46.78505919045595

>  <Genealogy>  (43) 
CSc1cc(-c2ccccc2)[nH+]c2c(C)cc(C)cc12 (protonated)
CSc1cc(-c2ccccc2)[nH+]c2c(C)cc(C)cc12 (3D coordinates assigned)
CSc1cc(-c2ccccc2)[nH+]c2c(C)cc(C)cc12 (optimized conformer: 46.78505919045595 kcal/mol)

>  <smiles>  (43) 
CSc1cc(-c2ccccc2)nc2c(C)cc(C)cc12

>  <score_type>  (43) 
oracle

>  <origin>  (43) 
adg

>  <m_score__min__energy>  (43) 
-7.4299999999999997

>  <m_primary>  (43) 
energy

$$$$
43:0
     RDKit          3D

 36 37  0  0  0  0  0  0  0  0999 V2000
   -3.7620   23.7400  -28.4470 C   0  0  0  0  0  0  0  0  0  0  0  0
   -3.1000   23.4190  -29.7820 C   0  0  0  0  0  0  0  0  0  0  0  0
   -3.6600   24.2130  -30.8260 O   0  0  0  0  0  0  0  0  0  0  0  0
   -5.0160   24.5510  -30.8940 C   0  0  0  0  0  0  0  0  0  0  0  0
   -5.3790   25.7600  -30.8900 O   0  0  0  0  0  0  0  0  0  0  0  0
   -6.0420   23.4570  -31.0050 C   0  0  0  0  0  0  0  0  0  0  0  0
   -7.0000   23.4780  -29.8090 C   0  0  0  0  0  0  0  0  0  0  0  0
   -7.9750   22.2940  -29.8940 C   0  0  0  0  0  0  0  0  0  0  0  0
   -8.5640   22.0970  -31.2410 N   0  0  0  0  0  0  0  0  0  0  0  0
   -8.2860   20.4910  -31.8810 S   0  0  0  0  0  0  0  0  0  0  0  0
   -8.6760   19.4770  -30.8410 O   0  0  0  0  0  0  0  0  0  0  0  0
   -9.1520   20.2720  -33.0910 O   0  0  0  0  0  0  0  0  0  0  0  0
   -6.6080   20.2160  -32.3230 C   0  0  0  0  0  0  0  0  0  0  0  0
   -5.5050   20.4810  -31.5270 C   0  0  0  0  0  0  0  0  0  0  0  0
   -4.2900   20.1970  -32.1630 C   0  0  0  0  0  0  0  0  0  0  0  0
   -4.4380   19.7260  -33.4630 C   0  0  0  0  0  0  0  0  0  0  0  0
   -6.0810   19.6650  -33.8210 S   0  0  0  0  0  0  0  0  0  0  0  0
   -8.2990   23.1670  -32.2230 C   0  0  0  0  0  0  0  0  0  0  0  0
   -6.8080   23.5440  -32.3430 C   0  0  0  0  0  0  0  0  0  0  0  0
   -3.1040   23.4209  -27.6253 H   0  0  0  0  0  0  0  0  0  0  0  0
   -3.9380   24.8235  -28.3762 H   0  0  0  0  0  0  0  0  0  0  0  0
   -4.7217   23.2072  -28.3762 H   0  0  0  0  0  0  0  0  0  0  0  0
   -2.0221   23.6259  -29.7095 H   0  0  0  0  0  0  0  0  0  0  0  0
   -3.2700   22.3575  -30.0149 H   0  0  0  0  0  0  0  0  0  0  0  0
   -5.5116   22.4934  -30.9902 H   0  0  0  0  0  0  0  0  0  0  0  0
   -6.4203   23.4059  -28.8770 H   0  0  0  0  0  0  0  0  0  0  0  0
   -7.5719   24.4175  -29.8218 H   0  0  0  0  0  0  0  0  0  0  0  0
   -7.4331   21.3782  -29.6155 H   0  0  0  0  0  0  0  0  0  0  0  0
   -8.8077   22.5159  -29.2103 H   0  0  0  0  0  0  0  0  0  0  0  0
   -5.5764   20.8737  -30.5020 H   0  0  0  0  0  0  0  0  0  0  0  0
   -3.3112   20.3336  -31.6799 H   0  0  0  0  0  0  0  0  0  0  0  0
   -3.6203   19.4417  -34.1417 H   0  0  0  0  0  0  0  0  0  0  0  0
   -8.6520   22.8290  -33.2085 H   0  0  0  0  0  0  0  0  0  0  0  0
   -8.8299   24.0641  -31.8717 H   0  0  0  0  0  0  0  0  0  0  0  0
   -6.3326   22.8603  -33.0617 H   0  0  0  0  0  0  0  0  0  0  0  0
   -6.7645   24.5922  -32.6736 H   0  0  0  0  0  0  0  0  0  0  0  0
  1  2  1  0
  2  3  1  0
  3  4  1  0
  4  5  2  0
  4  6  1  0
  6  7  1  0
  7  8  1  0
  8  9  1  0
  9 10  1  0
 10 11  2  0
 10 12  2  0
 10 13  1  0
 13 14  2  0
 14 15  1  0
 15 16  2  0
 16 17  1  0
  9 18  1  0
 18 19  1  0
 19  6  1  0
 17 13  1  0
  1 20  1  0
  1 21  1  0
  1 22  1  0
  2 23  1  0
  2 24  1  0
  6 25  1  0
  7 26  1  0
  7 27  1  0
  8 28  1  0
  8 29  1  0
 14 30  1  0
 15 31  1  0
 16 32  1  0
 18 33  1  0
 18 34  1  0
 19 35  1  0
 19 36  1  0
M  END
>  <UniqueID>  (44) 
39

>  <SMILES>  (44) 
CCOC(=O)C1CCN(S(=O)(=O)c2cccs2)CC1

>  <Energy>  (44) 
64.24045581185109

>  <Genealogy>  (44) 
CCOC(=O)C1CCN(S(=O)(=O)c2cccs2)CC1 (3D coordinates assigned)
CCOC(=O)C1CCN(S(=O)(=O)c2cccs2)CC1 (nonaromatic ring conformer: 64.24045581185109 kcal/mol)

>  <smiles>  (44) 
CCOC(=O)C1CCN(S(=O)(=O)c2cccs2)CC1

>  <score_type>  (44) 
oracle

>  <origin>  (44) 
adg

>  <m_score__min__energy>  (44) 
-7.4199999999999999

>  <m_primary>  (44) 
energy

$$$$
44:0
     RDKit          3D

 37 38  0  0  0  0  0  0  0  0999 V2000
   -8.5540   22.3250  -31.2830 C   0  0  0  0  0  0  0  0  0  0  0  0
   -7.6820   23.3700  -31.9680 C   0  0  0  0  0  0  0  0  0  0  0  0
   -6.2850   22.9300  -31.9940 N   0  0  0  0  0  0  0  0  0  0  0  0
   -5.1940   23.5660  -31.4830 C   0  0  0  0  0  0  0  0  0  0  0  0
   -5.2190   24.9310  -30.8650 C   0  0  0  0  0  0  0  0  0  0  0  0
   -3.8750   25.2950  -30.4420 N   0  0  0  0  0  0  0  0  0  0  0  0
   -3.1380   24.5420  -29.4760 C   0  0  0  0  0  0  0  0  0  0  0  0
   -1.9750   24.1320  -29.7450 O   0  0  0  0  0  0  0  0  0  0  0  0
   -3.7660   24.2220  -28.1480 C   0  0  0  0  0  0  0  0  0  0  0  0
   -4.1680   22.7450  -28.0920 C   0  0  0  0  0  0  0  0  0  0  0  0
   -2.8170   24.5760  -26.9990 C   0  0  0  0  0  0  0  0  0  0  0  0
   -4.0540   22.8430  -31.6270 N   0  0  0  0  0  0  0  0  0  0  0  0
   -4.4530   21.7090  -32.2260 C   0  0  0  0  0  0  0  0  0  0  0  0
   -3.6800   20.6080  -32.5850 C   0  0  0  0  0  0  0  0  0  0  0  0
   -4.3380   19.5200  -33.1890 C   0  0  0  0  0  0  0  0  0  0  0  0
   -5.7330   19.5600  -33.4140 C   0  0  0  0  0  0  0  0  0  0  0  0
   -6.4840   20.6890  -33.0380 C   0  0  0  0  0  0  0  0  0  0  0  0
   -5.8020   21.7540  -32.4450 C   0  0  0  0  0  0  0  0  0  0  0  0
   -8.4651   22.4315  -30.1918 H   0  0  0  0  0  0  0  0  0  0  0  0
   -9.6028   22.4700  -31.5813 H   0  0  0  0  0  0  0  0  0  0  0  0
   -8.2236   21.3191  -31.5813 H   0  0  0  0  0  0  0  0  0  0  0  0
   -8.0351   23.5174  -32.9993 H   0  0  0  0  0  0  0  0  0  0  0  0
   -7.7489   24.3142  -31.4077 H   0  0  0  0  0  0  0  0  0  0  0  0
   -5.5818   25.6614  -31.6031 H   0  0  0  0  0  0  0  0  0  0  0  0
   -5.8901   24.9274  -29.9934 H   0  0  0  0  0  0  0  0  0  0  0  0
   -4.6744   24.8320  -28.0348 H   0  0  0  0  0  0  0  0  0  0  0  0
   -4.2543   22.4280  -27.0422 H   0  0  0  0  0  0  0  0  0  0  0  0
   -5.1358   22.6090  -28.5968 H   0  0  0  0  0  0  0  0  0  0  0  0
   -3.4026   22.1373  -28.5968 H   0  0  0  0  0  0  0  0  0  0  0  0
   -3.3187   24.3888  -26.0381 H   0  0  0  0  0  0  0  0  0  0  0  0
   -1.9115   23.9552  -27.0668 H   0  0  0  0  0  0  0  0  0  0  0  0
   -2.5393   25.6382  -27.0668 H   0  0  0  0  0  0  0  0  0  0  0  0
   -3.0880   23.1040  -31.3320 H   0  0  0  0  0  0  0  0  0  0  0  0
   -2.5953   20.5891  -32.4034 H   0  0  0  0  0  0  0  0  0  0  0  0
   -3.7622   18.6318  -33.4882 H   0  0  0  0  0  0  0  0  0  0  0  0
   -6.2349   18.7026  -33.8863 H   0  0  0  0  0  0  0  0  0  0  0  0
   -7.5704   20.7314  -33.2052 H   0  0  0  0  0  0  0  0  0  0  0  0
  1  2  1  0
  2  3  1  0
  3  4  1  0
  4  5  1  0
  5  6  1  0
  6  7  1  0
  7  8  2  0
  7  9  1  0
  9 10  1  0
  9 11  1  0
  4 12  2  0
 12 13  1  0
 13 14  2  0
 14 15  1  0
 15 16  2  0
 16 17  1  0
 17 18  2  0
 18  3  1  0
 18 13  1  0
  1 19  1  0
  1 20  1  0
  1 21  1  0
  2 22  1  0
  2 23  1  0
  5 24  1  0
  5 25  1  0
  9 26  1  0
 10 27  1  0
 10 28  1  0
 10 29  1  0
 11 30  1  0
 11 31  1  0
 11 32  1  0
 12 33  1  0
 14 34  1  0
 15 35  1  0
 16 36  1  0
 17 37  1  0
M  CHG  2   6  -1  12   1
M  END
>  <UniqueID>  (45) 
40

>  <SMILES>  (45) 
CCn1c(C[N-]C(=O)C(C)C)[nH+]c2ccccc21

>  <Energy>  (45) 
63.337844832912566

>  <Genealogy>  (45) 
CCn1c(C[N-]C(=O)C(C)C)[nH+]c2ccccc21 (protonated)
CCn1c(C[N-]C(=O)C(C)C)[nH+]c2ccccc21 (3D coordinates assigned)
CCn1c(C[N-]C(=O)C(C)C)[nH+]c2ccccc21 (optimized conformer: 63.337844832912566 kcal/mol)

>  <smiles>  (45) 
CCn1c(CNC(=O)C(C)C)nc2ccccc21

>  <score_type>  (45) 
oracle

>  <origin>  (45) 
adg

>  <m_score__min__energy>  (45) 
-7.5199999999999996

>  <m_primary>  (45) 
energy

$$$$
45:0
     RDKit          3D

 38 41  0  0  0  0  0  0  0  0999 V2000
   -8.4040   23.3380  -32.1580 O   0  0  0  0  0  0  0  0  0  0  0  0
   -7.2040   23.2530  -31.7820 C   0  0  0  0  0  0  0  0  0  0  0  0
   -6.5030   24.3850  -31.4950 N   0  0  0  0  0  0  0  0  0  0  0  0
   -5.1950   24.3420  -31.0980 C   0  0  0  0  0  0  0  0  0  0  0  0
   -4.5980   25.4240  -30.8450 O   0  0  0  0  0  0  0  0  0  0  0  0
   -4.5400   23.1380  -30.9770 N   0  0  0  0  0  0  0  0  0  0  0  0
   -3.1190   23.0720  -30.5880 C   0  0  0  0  0  0  0  0  0  0  0  0
   -2.9030   23.7210  -29.2430 C   0  0  0  0  0  0  0  0  0  0  0  0
   -3.9100   23.6710  -28.2640 C   0  0  0  0  0  0  0  0  0  0  0  0
   -3.7170   24.2820  -27.0210 C   0  0  0  0  0  0  0  0  0  0  0  0
   -2.5170   24.9440  -26.7460 C   0  0  0  0  0  0  0  0  0  0  0  0
   -1.5090   24.9950  -27.7110 C   0  0  0  0  0  0  0  0  0  0  0  0
   -1.6980   24.3850  -28.9550 C   0  0  0  0  0  0  0  0  0  0  0  0
   -5.2390   21.9980  -31.2630 C   0  0  0  0  0  0  0  0  0  0  0  0
   -4.6780   20.4070  -31.2180 S   0  0  0  0  0  0  0  0  0  0  0  0
   -6.1350   19.7270  -31.7240 C   0  0  0  0  0  0  0  0  0  0  0  0
   -7.0930   20.7270  -31.8940 C   0  0  0  0  0  0  0  0  0  0  0  0
   -6.5690   22.0150  -31.6570 C   0  0  0  0  0  0  0  0  0  0  0  0
   -8.4890   20.4120  -32.3770 C   0  0  0  0  0  0  0  0  0  0  0  0
   -8.8260   18.9170  -32.2250 C   0  0  0  0  0  0  0  0  0  0  0  0
   -7.6710   18.0250  -32.7060 C   0  0  0  0  0  0  0  0  0  0  0  0
   -6.4070   18.2610  -31.8670 C   0  0  0  0  0  0  0  0  0  0  0  0
   -6.9770   25.3130  -31.5830 H   0  0  0  0  0  0  0  0  0  0  0  0
   -2.8079   22.0183  -30.5345 H   0  0  0  0  0  0  0  0  0  0  0  0
   -2.5215   23.6089  -31.3395 H   0  0  0  0  0  0  0  0  0  0  0  0
   -4.8545   23.1488  -28.4765 H   0  0  0  0  0  0  0  0  0  0  0  0
   -4.5097   24.2416  -26.2595 H   0  0  0  0  0  0  0  0  0  0  0  0
   -2.3666   25.4253  -25.7684 H   0  0  0  0  0  0  0  0  0  0  0  0
   -0.5651   25.5157  -27.4923 H   0  0  0  0  0  0  0  0  0  0  0  0
   -0.9003   24.4249  -29.7114 H   0  0  0  0  0  0  0  0  0  0  0  0
   -9.2096   21.0004  -31.7900 H   0  0  0  0  0  0  0  0  0  0  0  0
   -8.5455   20.6671  -33.4455 H   0  0  0  0  0  0  0  0  0  0  0  0
   -9.0254   18.7020  -31.1648 H   0  0  0  0  0  0  0  0  0  0  0  0
   -9.7095   18.6989  -32.8430 H   0  0  0  0  0  0  0  0  0  0  0  0
   -7.9701   16.9702  -32.6170 H   0  0  0  0  0  0  0  0  0  0  0  0
   -7.4479   18.2753  -33.7536 H   0  0  0  0  0  0  0  0  0  0  0  0
   -6.5481   17.8205  -30.8690 H   0  0  0  0  0  0  0  0  0  0  0  0
   -5.5520   17.7896  -32.3737 H   0  0  0  0  0  0  0  0  0  0  0  0
  1  2  2  0
  2  3  1  0
  3  4  1  0
  4  5  2  0
  4  6  1  0
  6  7  1  0
  7  8  1  0
  8  9  2  0
  9 10  1  0
 10 11  2  0
 11 12  1  0
 12 13  2  0
  6 14  1  0
 14 15  1  0
 15 16  1  0
 16 17  2  0
 17 18  1  0
 17 19  1  0
 19 20  1  0
 20 21  1  0
 21 22  1  0
 18  2  1  0
 13  8  1  0
 18 14  2  0
 22 16  1  0
  3 23  1  0
  7 24  1  0
  7 25  1  0
  9 26  1  0
 10 27  1  0
 11 28  1  0
 12 29  1  0
 13 30  1  0
 19 31  1  0
 19 32  1  0
 20 33  1  0
 20 34  1  0
 21 35  1  0
 21 36  1  0
 22 37  1  0
 22 38  1  0
M  END
>  <UniqueID>  (46) 
41

>  <SMILES>  (46) 
O=c1[nH]c(=O)n(Cc2ccccc2)c2sc3c(c12)CCCC3

>  <Energy>  (46) 
76.46093928636081

>  <Genealogy>  (46) 
O=c1[nH]c(=O)n(Cc2ccccc2)c2sc3c(c12)CCCC3 (3D coordinates assigned)
O=c1[nH]c(=O)n(Cc2ccccc2)c2sc3c(c12)CCCC3 (nonaromatic ring conformer: 76.46093928636081 kcal/mol)

>  <smiles>  (46) 
O=c1[nH]c(=O)n(Cc2ccccc2)c2sc3c(c12)CCCC3

>  <score_type>  (46) 
oracle

>  <origin>  (46) 
adg

>  <m_score__min__energy>  (46) 
-8.8000000000000007

>  <m_primary>  (46) 
energy

$$$$
46:0
     RDKit          3D

 50 54  0  0  0  0  0  0  0  0999 V2000
   -4.2120   13.5930  -31.5270 C   0  0  0  0  0  0  0  0  0  0  0  0
   -4.1170   14.3970  -32.7410 N   0  0  0  0  0  0  0  0  0  0  0  0
   -3.4000   14.0960  -33.8360 C   0  0  0  0  0  0  0  0  0  0  0  0
   -3.5110   15.1440  -34.7220 C   0  0  0  0  0  0  0  0  0  0  0  0
   -4.2810   16.1120  -34.1840 N   0  0  0  0  0  0  0  0  0  0  0  0
   -4.6320   15.6270  -32.9740 C   0  0  0  0  0  0  0  0  0  0  0  0
   -5.4820   16.4050  -31.9920 C   0  0  0  0  0  0  0  0  0  0  0  0
   -6.1380   17.5980  -32.5820 N   0  0  1  0  0  0  0  0  0  0  0  0
   -7.6090   17.4200  -32.7590 C   0  0  0  0  0  0  0  0  0  0  0  0
   -8.4420   18.4130  -31.9420 C   0  0  0  0  0  0  0  0  0  0  0  0
   -7.9940   19.7900  -32.2090 N   0  0  0  0  0  0  0  0  0  0  0  0
   -8.9610   20.8650  -32.1260 C   0  0  0  0  0  0  0  0  0  0  0  0
  -10.1850   20.6370  -32.3410 O   0  0  0  0  0  0  0  0  0  0  0  0
   -8.5550   22.2590  -31.7550 C   0  0  0  0  0  0  0  0  0  0  0  0
   -7.1050   22.3240  -31.4050 C   0  0  0  0  0  0  0  0  0  0  0  0
   -6.1550   21.3700  -31.7430 C   0  0  0  0  0  0  0  0  0  0  0  0
   -4.9000   21.8790  -31.5510 N   0  0  0  0  0  0  0  0  0  0  0  0
   -3.6130   21.3040  -31.9570 C   0  0  0  0  0  0  0  0  0  0  0  0
   -5.0780   23.1060  -31.0040 C   0  0  0  0  0  0  0  0  0  0  0  0
   -4.1010   24.0220  -30.5860 C   0  0  0  0  0  0  0  0  0  0  0  0
   -4.5290   25.2700  -30.0990 C   0  0  0  0  0  0  0  0  0  0  0  0
   -5.9040   25.5860  -30.0500 C   0  0  0  0  0  0  0  0  0  0  0  0
   -6.8650   24.6520  -30.4750 C   0  0  0  0  0  0  0  0  0  0  0  0
   -6.4130   23.4130  -30.9250 C   0  0  0  0  0  0  0  0  0  0  0  0
   -6.5470   20.0570  -32.4070 C   0  0  1  0  0  0  0  0  0  0  0  0
   -5.7470   18.8460  -31.8780 C   0  0  0  0  0  0  0  0  0  0  0  0
   -4.1346   14.2478  -30.6465 H   0  0  0  0  0  0  0  0  0  0  0  0
   -5.1784   13.0679  -31.5096 H   0  0  0  0  0  0  0  0  0  0  0  0
   -3.3946   12.8571  -31.5096 H   0  0  0  0  0  0  0  0  0  0  0  0
   -2.8242   13.1727  -33.9970 H   0  0  0  0  0  0  0  0  0  0  0  0
   -3.0432   15.1855  -35.7167 H   0  0  0  0  0  0  0  0  0  0  0  0
   -6.2639   15.7357  -31.6038 H   0  0  0  0  0  0  0  0  0  0  0  0
   -4.8080   16.7677  -31.2020 H   0  0  0  0  0  0  0  0  0  0  0  0
   -5.7370   17.6810  -33.5480 H   0  0  0  0  0  0  0  0  0  0  0  0
   -7.8513   17.5538  -33.8236 H   0  0  0  0  0  0  0  0  0  0  0  0
   -7.8607   16.4110  -32.4004 H   0  0  0  0  0  0  0  0  0  0  0  0
   -9.5015   18.3147  -32.2208 H   0  0  0  0  0  0  0  0  0  0  0  0
   -8.3145   18.1943  -30.8715 H   0  0  0  0  0  0  0  0  0  0  0  0
   -8.7489   22.9278  -32.6065 H   0  0  0  0  0  0  0  0  0  0  0  0
   -9.1396   22.5699  -30.8766 H   0  0  0  0  0  0  0  0  0  0  0  0
   -3.0292   21.0432  -31.0619 H   0  0  0  0  0  0  0  0  0  0  0  0
   -3.7887   20.3988  -32.5568 H   0  0  0  0  0  0  0  0  0  0  0  0
   -3.0560   22.0388  -32.5568 H   0  0  0  0  0  0  0  0  0  0  0  0
   -3.0312   23.7713  -30.6377 H   0  0  0  0  0  0  0  0  0  0  0  0
   -3.7871   26.0051  -29.7538 H   0  0  0  0  0  0  0  0  0  0  0  0
   -6.2256   26.5695  -29.6768 H   0  0  0  0  0  0  0  0  0  0  0  0
   -7.9384   24.8914  -30.4530 H   0  0  0  0  0  0  0  0  0  0  0  0
   -6.3135   20.1759  -33.4753 H   0  0  0  0  0  0  0  0  0  0  0  0
   -4.6738   19.0271  -32.0373 H   0  0  0  0  0  0  0  0  0  0  0  0
   -5.9639   18.7252  -30.8064 H   0  0  0  0  0  0  0  0  0  0  0  0
  1  2  1  0
  2  3  1  0
  3  4  2  0
  4  5  1  0
  5  6  2  0
  6  7  1  0
  7  8  1  0
  8  9  1  0
  9 10  1  0
 10 11  1  0
 11 12  1  0
 12 13  2  0
 12 14  1  0
 14 15  1  0
 15 16  2  0
 16 17  1  0
 17 18  1  0
 17 19  1  0
 19 20  2  0
 20 21  1  0
 21 22  2  0
 22 23  1  0
 23 24  2  0
 16 25  1  0
 25 26  1  0
  6  2  1  0
 26  8  1  0
 25 11  1  0
 24 15  1  0
 24 19  1  0
  1 27  1  0
  1 28  1  0
  1 29  1  0
  3 30  1  0
  4 31  1  0
  7 32  1  0
  7 33  1  0
  8 34  1  6
  9 35  1  0
  9 36  1  0
 10 37  1  0
 10 38  1  0
 14 39  1  0
 14 40  1  0
 18 41  1  0
 18 42  1  0
 18 43  1  0
 20 44  1  0
 21 45  1  0
 22 46  1  0
 23 47  1  0
 25 48  1  6
 26 49  1  0
 26 50  1  0
M  CHG  1   8   1
M  END
>  <UniqueID>  (47) 
42

>  <SMILES>  (47) 
Cn1ccnc1C[N@H+]1CCN2C(=O)Cc3c(n(C)c4ccccc34)[C@H]2C1

>  <Energy>  (47) 
136.25925187549026

>  <Genealogy>  (47) 
Cn1ccnc1C[NH+]1CCN2C(=O)Cc3c(n(C)c4ccccc34)C2C1 (protonated)
Cn1ccnc1C[N@H+]1CCN2C(=O)Cc3c(n(C)c4ccccc34)[C@H]2C1 (chirality)
Cn1ccnc1C[N@H+]1CCN2C(=O)Cc3c(n(C)c4ccccc34)[C@H]2C1 (3D coordinates assigned)
Cn1ccnc1C[N@H+]1CCN2C(=O)Cc3c(n(C)c4ccccc34)[C@H]2C1 (nonaromatic ring conformer: 136.25925187549026 kcal/mol)

>  <smiles>  (47) 
Cn1ccnc1CN1CCN2C(=O)Cc3c(n(C)c4ccccc34)C2C1

>  <score_type>  (47) 
oracle

>  <origin>  (47) 
adg

>  <m_score__min__energy>  (47) 
-7.71

>  <m_primary>  (47) 
energy

$$$$
47:0
     RDKit          3D

 51 53  0  0  0  0  0  0  0  0999 V2000
   -3.4610   21.6160  -32.5110 N   0  0  0  0  0  0  0  0  0  0  0  0
   -3.5000   22.0080  -31.1320 C   0  0  0  0  0  0  0  0  0  0  0  0
   -3.7820   21.1450  -30.2530 O   0  0  0  0  0  0  0  0  0  0  0  0
   -3.1330   23.4210  -30.7320 C   0  0  2  0  0  0  0  0  0  0  0  0
   -1.9250   23.4260  -29.7570 C   0  0  0  0  0  0  0  0  0  0  0  0
   -2.0890   24.4140  -28.6710 N   0  0  0  0  0  0  0  0  0  0  0  0
   -0.7690   24.9360  -28.2520 C   0  0  0  0  0  0  0  0  0  0  0  0
   -0.7930   25.3060  -26.7910 C   0  0  0  0  0  0  0  0  0  0  0  0
   -1.3550   26.5250  -26.3840 C   0  0  0  0  0  0  0  0  0  0  0  0
   -1.3800   26.8530  -25.0260 C   0  0  0  0  0  0  0  0  0  0  0  0
   -0.8630   25.9950  -24.1080 N   0  0  0  0  0  0  0  0  0  0  0  0
   -0.3120   24.8070  -24.4740 C   0  0  0  0  0  0  0  0  0  0  0  0
   -0.2680   24.4380  -25.8220 C   0  0  0  0  0  0  0  0  0  0  0  0
   -2.8160   23.8420  -27.5160 C   0  0  0  0  0  0  0  0  0  0  0  0
   -4.3180   24.1040  -27.6540 C   0  0  0  0  0  0  0  0  0  0  0  0
   -4.9310   23.6040  -28.9780 C   0  0  0  0  0  0  0  0  0  0  0  0
   -4.3230   24.1500  -30.2170 N   0  0  0  0  0  0  0  0  0  0  0  0
   -5.3070   24.6530  -31.2100 C   0  0  0  0  0  0  0  0  0  0  0  0
   -6.7390   24.3310  -30.7630 C   0  0  0  0  0  0  0  0  0  0  0  0
   -7.1720   22.9520  -31.1850 C   0  0  0  0  0  0  0  0  0  0  0  0
   -6.5590   22.3150  -32.2770 C   0  0  0  0  0  0  0  0  0  0  0  0
   -6.9920   21.0520  -32.6900 C   0  0  0  0  0  0  0  0  0  0  0  0
   -8.0420   20.4170  -32.0200 C   0  0  0  0  0  0  0  0  0  0  0  0
   -8.5890   18.8340  -32.5420 Cl  0  0  0  0  0  0  0  0  0  0  0  0
   -8.6620   21.0480  -30.9350 C   0  0  0  0  0  0  0  0  0  0  0  0
   -8.2310   22.3110  -30.5200 C   0  0  0  0  0  0  0  0  0  0  0  0
   -3.1490   22.2830  -33.2590 H   0  0  0  0  0  0  0  0  0  0  0  0
   -3.7140   20.6410  -32.7860 H   0  0  0  0  0  0  0  0  0  0  0  0
   -2.8012   23.9736  -31.6234 H   0  0  0  0  0  0  0  0  0  0  0  0
   -1.8240   22.4247  -29.3128 H   0  0  0  0  0  0  0  0  0  0  0  0
   -1.0282   23.7012  -30.3315 H   0  0  0  0  0  0  0  0  0  0  0  0
   -0.0038   24.1635  -28.4182 H   0  0  0  0  0  0  0  0  0  0  0  0
   -0.5341   25.8325  -28.8445 H   0  0  0  0  0  0  0  0  0  0  0  0
   -1.7732   27.2180  -27.1288 H   0  0  0  0  0  0  0  0  0  0  0  0
   -1.8189   27.8074  -24.6996 H   0  0  0  0  0  0  0  0  0  0  0  0
    0.1003   24.1343  -23.7075 H   0  0  0  0  0  0  0  0  0  0  0  0
    0.1742   23.4759  -26.1199 H   0  0  0  0  0  0  0  0  0  0  0  0
   -2.6386   22.7571  -27.4761 H   0  0  0  0  0  0  0  0  0  0  0  0
   -2.4524   24.3163  -26.5925 H   0  0  0  0  0  0  0  0  0  0  0  0
   -4.8334   23.5992  -26.8236 H   0  0  0  0  0  0  0  0  0  0  0  0
   -4.4498   25.1960  -27.6387 H   0  0  0  0  0  0  0  0  0  0  0  0
   -4.8282   22.5092  -29.0055 H   0  0  0  0  0  0  0  0  0  0  0  0
   -5.9735   23.9550  -28.9764 H   0  0  0  0  0  0  0  0  0  0  0  0
   -5.1957   25.7429  -31.3089 H   0  0  0  0  0  0  0  0  0  0  0  0
   -5.1184   24.1617  -32.1760 H   0  0  0  0  0  0  0  0  0  0  0  0
   -6.7909   24.3981  -29.6663 H   0  0  0  0  0  0  0  0  0  0  0  0
   -7.4127   25.0569  -31.2418 H   0  0  0  0  0  0  0  0  0  0  0  0
   -5.7348   22.8125  -32.8091 H   0  0  0  0  0  0  0  0  0  0  0  0
   -6.5059   20.5568  -33.5435 H   0  0  0  0  0  0  0  0  0  0  0  0
   -9.4892   20.5493  -30.4086 H   0  0  0  0  0  0  0  0  0  0  0  0
   -8.7228   22.8054  -29.6693 H   0  0  0  0  0  0  0  0  0  0  0  0
  1  2  1  0
  2  3  2  0
  2  4  1  0
  4  5  1  0
  5  6  1  0
  6  7  1  0
  7  8  1  0
  8  9  2  0
  9 10  1  0
 10 11  2  0
 11 12  1  0
 12 13  2  0
  6 14  1  0
 14 15  1  0
 15 16  1  0
 16 17  1  0
 17 18  1  0
 18 19  1  0
 19 20  1  0
 20 21  2  0
 21 22  1  0
 22 23  2  0
 23 24  1  0
 23 25  1  0
 25 26  2  0
 17  4  1  0
 26 20  1  0
 13  8  1  0
  1 27  1  0
  1 28  1  0
  4 29  1  6
  5 30  1  0
  5 31  1  0
  7 32  1  0
  7 33  1  0
  9 34  1  0
 10 35  1  0
 12 36  1  0
 13 37  1  0
 14 38  1  0
 14 39  1  0
 15 40  1  0
 15 41  1  0
 16 42  1  0
 16 43  1  0
 18 44  1  0
 18 45  1  0
 19 46  1  0
 19 47  1  0
 21 48  1  0
 22 49  1  0
 25 50  1  0
 26 51  1  0
M  END
>  <UniqueID>  (48) 
43

>  <SMILES>  (48) 
NC(=O)[C@@H]1CN(Cc2ccncc2)CCCN1CCc1ccc(Cl)cc1

>  <Energy>  (48) 
68.75417715918425

>  <Genealogy>  (48) 
NC(=O)[C@@H]1CN(Cc2ccncc2)CCCN1CCc1ccc(Cl)cc1 (chirality)
NC(=O)[C@@H]1CN(Cc2ccncc2)CCCN1CCc1ccc(Cl)cc1 (3D coordinates assigned)
NC(=O)[C@@H]1CN(Cc2ccncc2)CCCN1CCc1ccc(Cl)cc1 (nonaromatic ring conformer: 68.75417715918425 kcal/mol)

>  <smiles>  (48) 
NC(=O)C1CN(Cc2ccncc2)CCCN1CCc1ccc(Cl)cc1

>  <score_type>  (48) 
oracle

>  <origin>  (48) 
adg

>  <m_score__min__energy>  (48) 
-6.9699999999999998

>  <m_primary>  (48) 
energy

$$$$
