0:0
     RDKit          3D

 35 37  0  0  0  0  0  0  0  0999 V2000
   -2.6770   24.5750  -27.9980 C   0  0  0  0  0  0  0  0  0  0  0  0
   -3.1350   24.9760  -29.2850 O   0  0  0  0  0  0  0  0  0  0  0  0
   -4.2470   24.4240  -29.9380 C   0  0  0  0  0  0  0  0  0  0  0  0
   -5.0170   25.1490  -30.8640 C   0  0  0  0  0  0  0  0  0  0  0  0
   -6.1160   24.5540  -31.4890 C   0  0  0  0  0  0  0  0  0  0  0  0
   -6.4700   23.2220  -31.2050 C   0  0  0  0  0  0  0  0  0  0  0  0
   -7.6120   22.6170  -31.8550 N   0  0  0  0  0  0  0  0  0  0  0  0
   -8.7770   23.4160  -32.2460 C   0  0  0  0  0  0  0  0  0  0  0  0
   -7.7240   21.1860  -31.9070 C   0  0  0  0  0  0  0  0  0  0  0  0
   -8.8930   20.5990  -31.5350 N   0  0  0  0  0  0  0  0  0  0  0  0
   -9.0520   19.2510  -31.5710 C   0  0  0  0  0  0  0  0  0  0  0  0
   -8.0340   18.4530  -31.9820 N   0  0  0  0  0  0  0  0  0  0  0  0
   -6.8400   18.9810  -32.3560 C   0  0  0  0  0  0  0  0  0  0  0  0
   -5.8000   18.1380  -32.7620 C   0  0  0  0  0  0  0  0  0  0  0  0
   -4.5640   18.6770  -33.1290 C   0  0  0  0  0  0  0  0  0  0  0  0
   -4.3580   20.0600  -33.0840 C   0  0  0  0  0  0  0  0  0  0  0  0
   -2.6610   20.7880  -33.5710 Br  0  0  0  0  0  0  0  0  0  0  0  0
   -5.3930   20.9120  -32.6800 C   0  0  0  0  0  0  0  0  0  0  0  0
   -6.6450   20.3790  -32.3230 C   0  0  0  0  0  0  0  0  0  0  0  0
   -5.6960   22.5020  -30.2750 C   0  0  0  0  0  0  0  0  0  0  0  0
   -4.5970   23.1000  -29.6520 C   0  0  0  0  0  0  0  0  0  0  0  0
   -3.2644   25.0893  -27.2231 H   0  0  0  0  0  0  0  0  0  0  0  0
   -2.7980   23.4872  -27.8883 H   0  0  0  0  0  0  0  0  0  0  0  0
   -1.6147   24.8387  -27.8883 H   0  0  0  0  0  0  0  0  0  0  0  0
   -4.7528   26.1909  -31.0980 H   0  0  0  0  0  0  0  0  0  0  0  0
   -6.7108   25.1330  -32.2108 H   0  0  0  0  0  0  0  0  0  0  0  0
   -9.2966   23.7723  -31.3443 H   0  0  0  0  0  0  0  0  0  0  0  0
   -8.4464   24.2783  -32.8436 H   0  0  0  0  0  0  0  0  0  0  0  0
   -9.4623   22.7970  -32.8436 H   0  0  0  0  0  0  0  0  0  0  0  0
  -10.0096   18.8040  -31.2659 H   0  0  0  0  0  0  0  0  0  0  0  0
   -5.9554   17.0495  -32.7924 H   0  0  0  0  0  0  0  0  0  0  0  0
   -3.7506   18.0118  -33.4543 H   0  0  0  0  0  0  0  0  0  0  0  0
   -5.2271   21.9987  -32.6417 H   0  0  0  0  0  0  0  0  0  0  0  0
   -5.9583   21.4606  -30.0368 H   0  0  0  0  0  0  0  0  0  0  0  0
   -4.0010   22.5235  -28.9292 H   0  0  0  0  0  0  0  0  0  0  0  0
  1  2  1  0
  2  3  1  0
  3  4  2  0
  4  5  1  0
  5  6  2  0
  6  7  1  0
  7  8  1  0
  7  9  1  0
  9 10  2  0
 10 11  1  0
 11 12  2  0
 12 13  1  0
 13 14  2  0
 14 15  1  0
 15 16  2  0
 16 17  1  0
 16 18  1  0
 18 19  2  0
  6 20  1  0
 20 21  2  0
 21  3  1  0
 19  9  1  0
 19 13  1  0
  1 22  1  0
  1 23  1  0
  1 24  1  0
  4 25  1  0
  5 26  1  0
  8 27  1  0
  8 28  1  0
  8 29  1  0
 11 30  1  0
 14 31  1  0
 15 32  1  0
 18 33  1  0
 20 34  1  0
 21 35  1  0
M  END
>  <UniqueID>  (1) 
1

>  <SMILES>  (1) 
COc1ccc(N(C)c2ncnc3ccc(Br)cc23)cc1

>  <Energy>  (1) 
50.25725351746309

>  <Genealogy>  (1) 
COc1ccc(N(C)c2ncnc3ccc(Br)cc23)cc1 (3D coordinates assigned)
COc1ccc(N(C)c2ncnc3ccc(Br)cc23)cc1 (optimized conformer: 50.25725351746309 kcal/mol)

>  <smiles>  (1) 
COc1ccc(N(C)c2ncnc3ccc(Br)cc23)cc1

>  <score_type>  (1) 
oracle

>  <origin>  (1) 
adg

>  <m_score__min__energy>  (1) 
-7.9699999999999998

>  <m_primary>  (1) 
energy

$$$$
1:0
     RDKit          3D

 40 42  0  0  0  0  0  0  0  0999 V2000
   -5.3450   26.4190  -30.4590 O   0  0  0  0  0  0  0  0  0  0  0  0
   -4.8900   25.2530  -30.6040 C   0  0  0  0  0  0  0  0  0  0  0  0
   -3.4860   25.0060  -30.4720 N   0  0  0  0  0  0  0  0  0  0  0  0
   -2.9030   24.2280  -29.3850 C   0  0  0  0  0  0  0  0  0  0  0  0
   -2.4160   22.9010  -29.8980 C   0  0  0  0  0  0  0  0  0  0  0  0
   -1.6670   22.0590  -29.0610 C   0  0  0  0  0  0  0  0  0  0  0  0
   -1.2440   20.8170  -29.5370 C   0  0  0  0  0  0  0  0  0  0  0  0
   -1.5710   20.4240  -30.8340 C   0  0  0  0  0  0  0  0  0  0  0  0
   -2.3220   21.2810  -31.6400 C   0  0  0  0  0  0  0  0  0  0  0  0
   -2.7290   22.4900  -31.1630 N   0  0  0  0  0  0  0  0  0  0  0  0
   -5.8090   24.1470  -30.9090 C   0  0  0  0  0  0  0  0  0  0  0  0
   -7.1050   24.0640  -30.3990 C   0  0  0  0  0  0  0  0  0  0  0  0
   -7.7970   22.6500  -30.9860 S   0  0  0  0  0  0  0  0  0  0  0  0
   -6.4300   22.2070  -31.8680 C   0  0  0  0  0  0  0  0  0  0  0  0
   -6.2790   20.9500  -32.6810 C   0  0  0  0  0  0  0  0  0  0  0  0
   -7.6580   20.3280  -33.0350 C   0  0  0  0  0  0  0  0  0  0  0  0
   -8.0080   19.1390  -32.1310 C   0  0  0  0  0  0  0  0  0  0  0  0
   -6.9550   18.0170  -32.2280 C   0  0  0  0  0  0  0  0  0  0  0  0
   -5.5250   18.5350  -32.4900 C   0  0  0  0  0  0  0  0  0  0  0  0
   -5.3310   19.9600  -31.9650 C   0  0  0  0  0  0  0  0  0  0  0  0
   -5.4410   23.1150  -31.7170 N   0  0  0  0  0  0  0  0  0  0  0  0
   -2.0570   24.7834  -28.9540 H   0  0  0  0  0  0  0  0  0  0  0  0
   -3.6704   24.0554  -28.6160 H   0  0  0  0  0  0  0  0  0  0  0  0
   -1.4154   22.3756  -28.0380 H   0  0  0  0  0  0  0  0  0  0  0  0
   -0.6544   20.1502  -28.8907 H   0  0  0  0  0  0  0  0  0  0  0  0
   -1.2403   19.4479  -31.2185 H   0  0  0  0  0  0  0  0  0  0  0  0
   -2.5861   20.9788  -32.6642 H   0  0  0  0  0  0  0  0  0  0  0  0
   -3.2950   23.1070  -31.7890 H   0  0  0  0  0  0  0  0  0  0  0  0
   -7.5874   24.7937  -29.7320 H   0  0  0  0  0  0  0  0  0  0  0  0
   -5.8132   21.2048  -33.6444 H   0  0  0  0  0  0  0  0  0  0  0  0
   -8.4339   21.0994  -32.9216 H   0  0  0  0  0  0  0  0  0  0  0  0
   -7.6063   19.9605  -34.0705 H   0  0  0  0  0  0  0  0  0  0  0  0
   -8.0620   19.4876  -31.0891 H   0  0  0  0  0  0  0  0  0  0  0  0
   -8.9744   18.7307  -32.4617 H   0  0  0  0  0  0  0  0  0  0  0  0
   -6.9544   17.4574  -31.2810 H   0  0  0  0  0  0  0  0  0  0  0  0
   -7.2326   17.3863  -33.0855 H   0  0  0  0  0  0  0  0  0  0  0  0
   -4.8077   17.8697  -31.9873 H   0  0  0  0  0  0  0  0  0  0  0  0
   -5.3593   18.5459  -33.5774 H   0  0  0  0  0  0  0  0  0  0  0  0
   -5.5420   19.9772  -30.8856 H   0  0  0  0  0  0  0  0  0  0  0  0
   -4.2928   20.2664  -32.1605 H   0  0  0  0  0  0  0  0  0  0  0  0
  1  2  2  0
  2  3  1  0
  3  4  1  0
  4  5  1  0
  5  6  2  0
  6  7  1  0
  7  8  2  0
  8  9  1  0
  9 10  2  0
  2 11  1  0
 11 12  2  0
 12 13  1  0
 13 14  1  0
 14 15  1  0
 15 16  1  0
 16 17  1  0
 17 18  1  0
 18 19  1  0
 19 20  1  0
 14 21  2  0
 10  5  1  0
 21 11  1  0
 20 15  1  0
  4 22  1  0
  4 23  1  0
  6 24  1  0
  7 25  1  0
  8 26  1  0
  9 27  1  0
 10 28  1  0
 12 29  1  0
 15 30  1  0
 16 31  1  0
 16 32  1  0
 17 33  1  0
 17 34  1  0
 18 35  1  0
 18 36  1  0
 19 37  1  0
 19 38  1  0
 20 39  1  0
 20 40  1  0
M  CHG  2   3  -1  10   1
M  END
>  <UniqueID>  (2) 
2

>  <SMILES>  (2) 
O=C([N-]Cc1cccc[nH+]1)c1csc(C2CCCCC2)n1

>  <Energy>  (2) 
68.43322419151181

>  <Genealogy>  (2) 
O=C([N-]Cc1cccc[nH+]1)c1csc(C2CCCCC2)n1 (protonated)
O=C([N-]Cc1cccc[nH+]1)c1csc(C2CCCCC2)n1 (3D coordinates assigned)
O=C([N-]Cc1cccc[nH+]1)c1csc(C2CCCCC2)n1 (nonaromatic ring conformer: 68.43322419151181 kcal/mol)

>  <smiles>  (2) 
O=C(NCc1ccccn1)c1csc(C2CCCCC2)n1

>  <score_type>  (2) 
oracle

>  <origin>  (2) 
adg

>  <m_score__min__energy>  (2) 
-9.1500000000000004

>  <m_primary>  (2) 
energy

$$$$
2:0
     RDKit          3D

 55 57  0  0  0  0  0  0  0  0999 V2000
   -4.4290   20.6170  -31.6290 C   0  0  0  0  0  0  0  0  0  0  0  0
   -5.2760   20.0770  -32.6380 O   0  0  0  0  0  0  0  0  0  0  0  0
   -6.5150   19.4650  -32.3950 C   0  0  0  0  0  0  0  0  0  0  0  0
   -6.7380   18.1010  -32.6760 C   0  0  0  0  0  0  0  0  0  0  0  0
   -7.9910   17.5280  -32.4450 C   0  0  0  0  0  0  0  0  0  0  0  0
   -9.0320   18.3030  -31.9360 C   0  0  0  0  0  0  0  0  0  0  0  0
   -8.8240   19.6530  -31.6500 C   0  0  0  0  0  0  0  0  0  0  0  0
   -7.5690   20.2420  -31.8720 C   0  0  0  0  0  0  0  0  0  0  0  0
   -7.3740   21.6330  -31.5610 N   0  0  0  0  0  0  0  0  0  0  0  0
   -7.1880   22.6110  -32.6400 C   0  0  0  0  0  0  0  0  0  0  0  0
   -6.1740   23.7110  -32.2510 C   0  0  0  0  0  0  0  0  0  0  0  0
   -5.9050   23.7720  -30.7950 N   0  0  0  0  0  0  0  0  0  0  0  0
   -5.2640   25.0540  -30.4330 C   0  0  0  0  0  0  0  0  0  0  0  0
   -3.7390   24.9200  -30.4780 C   0  0  0  0  0  0  0  0  0  0  0  0
   -3.2070   24.7660  -29.1250 N   0  0  0  0  0  0  0  0  0  0  0  0
   -2.0790   25.2970  -28.6260 C   0  0  0  0  0  0  0  0  0  0  0  0
   -1.2380   26.1620  -29.3170 O   0  0  0  0  0  0  0  0  0  0  0  0
   -1.9010   24.8400  -27.3390 C   0  0  0  0  0  0  0  0  0  0  0  0
   -0.7930   25.2210  -26.4030 C   0  0  0  0  0  0  0  0  0  0  0  0
   -1.2480   26.2720  -25.3690 C   0  0  0  0  0  0  0  0  0  0  0  0
   -0.6000   26.0320  -23.9970 C   0  0  0  0  0  0  0  0  0  0  0  0
   -0.9130   27.6830  -25.8680 C   0  0  0  0  0  0  0  0  0  0  0  0
   -2.9160   24.0100  -27.0120 N   0  0  0  0  0  0  0  0  0  0  0  0
   -3.6770   23.9860  -28.1290 C   0  0  0  0  0  0  0  0  0  0  0  0
   -4.7270   23.2950  -28.2250 O   0  0  0  0  0  0  0  0  0  0  0  0
   -7.1440   23.5500  -30.0270 C   0  0  0  0  0  0  0  0  0  0  0  0
   -7.5500   22.0850  -30.1760 C   0  0  0  0  0  0  0  0  0  0  0  0
   -4.8306   20.3610  -30.6375 H   0  0  0  0  0  0  0  0  0  0  0  0
   -3.4182   20.1963  -31.7350 H   0  0  0  0  0  0  0  0  0  0  0  0
   -4.3838   21.7109  -31.7350 H   0  0  0  0  0  0  0  0  0  0  0  0
   -5.9208   17.4849  -33.0793 H   0  0  0  0  0  0  0  0  0  0  0  0
   -8.1565   16.4631  -32.6652 H   0  0  0  0  0  0  0  0  0  0  0  0
  -10.0187   17.8498  -31.7596 H   0  0  0  0  0  0  0  0  0  0  0  0
   -9.6488   20.2597  -31.2480 H   0  0  0  0  0  0  0  0  0  0  0  0
   -6.8197   22.0879  -33.5348 H   0  0  0  0  0  0  0  0  0  0  0  0
   -8.1573   23.0935  -32.8342 H   0  0  0  0  0  0  0  0  0  0  0  0
   -5.2263   23.5127  -32.7731 H   0  0  0  0  0  0  0  0  0  0  0  0
   -6.6133   24.6766  -32.5418 H   0  0  0  0  0  0  0  0  0  0  0  0
   -5.5807   25.8311  -31.1442 H   0  0  0  0  0  0  0  0  0  0  0  0
   -5.5680   25.3292  -29.4123 H   0  0  0  0  0  0  0  0  0  0  0  0
   -3.4690   24.0381  -31.0775 H   0  0  0  0  0  0  0  0  0  0  0  0
   -3.3116   25.8265  -30.9314 H   0  0  0  0  0  0  0  0  0  0  0  0
   -0.4533   24.3211  -25.8693 H   0  0  0  0  0  0  0  0  0  0  0  0
    0.0206   25.6598  -26.9992 H   0  0  0  0  0  0  0  0  0  0  0  0
   -2.3373   26.1757  -25.2497 H   0  0  0  0  0  0  0  0  0  0  0  0
   -1.3139   26.2964  -23.2030 H   0  0  0  0  0  0  0  0  0  0  0  0
   -0.3230   24.9716  -23.9028 H   0  0  0  0  0  0  0  0  0  0  0  0
    0.3009   26.6561  -23.9028 H   0  0  0  0  0  0  0  0  0  0  0  0
   -0.7550   28.3486  -25.0066 H   0  0  0  0  0  0  0  0  0  0  0  0
    0.0020   27.6487  -26.4776 H   0  0  0  0  0  0  0  0  0  0  0  0
   -1.7457   28.0637  -26.4776 H   0  0  0  0  0  0  0  0  0  0  0  0
   -6.9692   23.7806  -28.9657 H   0  0  0  0  0  0  0  0  0  0  0  0
   -7.9441   24.2034  -30.4049 H   0  0  0  0  0  0  0  0  0  0  0  0
   -6.9248   21.4685  -29.5134 H   0  0  0  0  0  0  0  0  0  0  0  0
   -8.6113   21.9842  -29.9047 H   0  0  0  0  0  0  0  0  0  0  0  0
  1  2  1  0
  2  3  1  0
  3  4  2  0
  4  5  1  0
  5  6  2  0
  6  7  1  0
  7  8  2  0
  8  9  1  0
  9 10  1  0
 10 11  1  0
 11 12  1  0
 12 13  1  0
 13 14  1  0
 14 15  1  0
 15 16  1  0
 16 17  1  0
 16 18  2  0
 18 19  1  0
 19 20  1  0
 20 21  1  0
 20 22  1  0
 18 23  1  0
 23 24  1  0
 24 25  2  0
 12 26  1  0
 26 27  1  0
  8  3  1  0
 27  9  1  0
 24 15  1  0
  1 28  1  0
  1 29  1  0
  1 30  1  0
  4 31  1  0
  5 32  1  0
  6 33  1  0
  7 34  1  0
 10 35  1  0
 10 36  1  0
 11 37  1  0
 11 38  1  0
 13 39  1  0
 13 40  1  0
 14 41  1  0
 14 42  1  0
 19 43  1  0
 19 44  1  0
 20 45  1  0
 21 46  1  0
 21 47  1  0
 21 48  1  0
 22 49  1  0
 22 50  1  0
 22 51  1  0
 26 52  1  0
 26 53  1  0
 27 54  1  0
 27 55  1  0
M  CHG  2  17  -1  23  -1
M  END
>  <UniqueID>  (3) 
3

>  <SMILES>  (3) 
COc1ccccc1N1CCN(CCn2c([O-])c(CC(C)C)[n-]c2=O)CC1

>  <Energy>  (3) 
89.40295332034161

>  <Genealogy>  (3) 
COc1ccccc1N1CCN(CCn2c([O-])c(CC(C)C)[n-]c2=O)CC1 (protonated)
COc1ccccc1N1CCN(CCn2c([O-])c(CC(C)C)[n-]c2=O)CC1 (3D coordinates assigned)
COc1ccccc1N1CCN(CCn2c([O-])c(CC(C)C)[n-]c2=O)CC1 (nonaromatic ring conformer: 89.40295332034161 kcal/mol)

>  <smiles>  (3) 
COc1ccccc1N1CCN(CCn2c(O)c(CC(C)C)[nH]c2=O)CC1

>  <score_type>  (3) 
oracle

>  <origin>  (3) 
adg

>  <m_score__min__energy>  (3) 
-11.49

>  <m_primary>  (3) 
energy

$$$$
3:0
     RDKit          3D

 41 43  0  0  0  0  0  0  0  0999 V2000
   -0.2462   24.4129  -26.9800 H   0  0  0  0  0  0  0  0  0  0  0  0
   -1.1680   24.4530  -27.5790 C   0  0  0  0  0  0  0  0  0  0  0  0
   -2.7380   24.5420  -26.9730 S   0  0  0  0  0  0  0  0  0  0  0  0
   -3.4370   24.5410  -28.4970 C   0  0  0  0  0  0  0  0  0  0  0  0
   -4.7220   24.6130  -28.6960 N   0  0  0  0  0  0  0  0  0  0  0  0
   -5.3660   25.0170  -29.9120 C   0  0  0  0  0  0  0  0  0  0  0  0
   -6.3170   25.8390  -29.8560 O   0  0  0  0  0  0  0  0  0  0  0  0
   -4.9780   24.4900  -31.1890 N   0  0  0  0  0  0  0  0  0  0  0  0
   -5.2650   23.1700  -31.6790 C   0  0  0  0  0  0  0  0  0  0  0  0
   -6.5820   22.7700  -31.9630 C   0  0  0  0  0  0  0  0  0  0  0  0
   -7.4120   23.4765  -31.8144 H   0  0  0  0  0  0  0  0  0  0  0  0
   -6.8430   21.4830  -32.4320 C   0  0  0  0  0  0  0  0  0  0  0  0
   -7.8792   21.1775  -32.6391 H   0  0  0  0  0  0  0  0  0  0  0  0
   -5.7940   20.5740  -32.6420 C   0  0  0  0  0  0  0  0  0  0  0  0
   -6.0730   19.2000  -33.1350 C   0  0  0  0  0  0  0  0  0  0  0  0
   -5.4500   18.7180  -34.3000 C   0  0  0  0  0  0  0  0  0  0  0  0
   -4.7491   19.3628  -34.8504 H   0  0  0  0  0  0  0  0  0  0  0  0
   -5.7140   17.4270  -34.7640 C   0  0  0  0  0  0  0  0  0  0  0  0
   -5.2194   17.0616  -35.6760 H   0  0  0  0  0  0  0  0  0  0  0  0
   -6.6090   16.5920  -34.0710 C   0  0  0  0  0  0  0  0  0  0  0  0
   -6.9080   15.2890  -34.4960 O   0  0  0  0  0  0  0  0  0  0  0  0
   -6.1170   14.1440  -34.1940 C   0  0  0  0  0  0  0  0  0  0  0  0
   -6.0383   14.0301  -33.1027 H   0  0  0  0  0  0  0  0  0  0  0  0
   -6.5898   13.2482  -34.6230 H   0  0  0  0  0  0  0  0  0  0  0  0
   -5.1119   14.2692  -34.6230 H   0  0  0  0  0  0  0  0  0  0  0  0
   -7.2320   17.0720  -32.9130 C   0  0  0  0  0  0  0  0  0  0  0  0
   -7.9360   16.4281  -32.3655 H   0  0  0  0  0  0  0  0  0  0  0  0
   -6.9670   18.3620  -32.4470 C   0  0  0  0  0  0  0  0  0  0  0  0
   -7.4621   18.7248  -31.5342 H   0  0  0  0  0  0  0  0  0  0  0  0
   -4.4740   20.9840  -32.3840 C   0  0  0  0  0  0  0  0  0  0  0  0
   -3.6432   20.2839  -32.5564 H   0  0  0  0  0  0  0  0  0  0  0  0
   -4.2040   22.2820  -31.9070 C   0  0  0  0  0  0  0  0  0  0  0  0
   -2.8970   22.7200  -31.6400 O   0  0  0  0  0  0  0  0  0  0  0  0
   -1.8220   21.8690  -31.2570 C   0  0  0  0  0  0  0  0  0  0  0  0
   -1.7639   21.8230  -30.1595 H   0  0  0  0  0  0  0  0  0  0  0  0
   -1.9932   20.8590  -31.6578 H   0  0  0  0  0  0  0  0  0  0  0  0
   -0.8783   22.2674  -31.6578 H   0  0  0  0  0  0  0  0  0  0  0  0
   -2.5000   24.4930  -29.4740 N   0  0  0  0  0  0  0  0  0  0  0  0
   -2.6910   24.5330  -30.4980 H   0  0  0  0  0  0  0  0  0  0  0  0
   -1.2400   24.4390  -28.9670 C   0  0  0  0  0  0  0  0  0  0  0  0
   -0.3461   24.3881  -29.6060 H   0  0  0  0  0  0  0  0  0  0  0  0
  1  2  1  0
  2  3  1  0
  3  4  1  0
  4  5  2  0
  5  6  1  0
  6  7  2  0
  6  8  1  0
  8  9  1  0
  9 10  2  0
 10 11  1  0
 10 12  1  0
 12 13  1  0
 12 14  2  0
 14 15  1  0
 15 16  2  0
 16 17  1  0
 16 18  1  0
 18 19  1  0
 18 20  2  0
 20 21  1  0
 21 22  1  0
 22 23  1  0
 22 24  1  0
 22 25  1  0
 20 26  1  0
 26 27  1  0
 26 28  2  0
 28 29  1  0
 14 30  1  0
 30 31  1  0
 30 32  2  0
 32 33  1  0
 33 34  1  0
 34 35  1  0
 34 36  1  0
 34 37  1  0
  4 38  1  0
 38 39  1  0
 38 40  1  0
 40 41  1  0
 40  2  2  0
 32  9  1  0
 28 15  1  0
M  CHG  1   8  -1
M  END
>  <UniqueID>  (4) 
4

>  <SMILES>  (4) 
COc1ccc(-c2ccc([N-]C(=O)/N=c3\[nH]ccs3)c(OC)c2)cc1

>  <Energy>  (4) 
86.34148782790481

>  <Genealogy>  (4) 
COc1ccc(-c2ccc([N-]C(=O)N=c3[nH]ccs3)c(OC)c2)cc1 (protonated)
COc1ccc(-c2ccc([N-]C(=O)/N=c3\[nH]ccs3)c(OC)c2)cc1 (cis-trans isomerization)
COc1ccc(-c2ccc([N-]C(=O)/N=c3\[nH]ccs3)c(OC)c2)cc1 (3D coordinates assigned)
COc1ccc(-c2ccc([N-]C(=O)/N=c3\[nH]ccs3)c(OC)c2)cc1 (optimized conformer: 86.34148782790481 kcal/mol)

>  <smiles>  (4) 
COc1ccc(-c2ccc(NC(=O)N=c3[nH]ccs3)c(OC)c2)cc1

>  <score_type>  (4) 
oracle

>  <origin>  (4) 
adg

>  <m_score__min__energy>  (4) 
-9.2200000000000006

>  <m_primary>  (4) 
energy

$$$$
4:0
     RDKit          3D

 54 57  0  0  0  0  0  0  0  0999 V2000
   -8.6040   19.0450  -31.3290 C   0  0  0  0  0  0  0  0  0  0  0  0
   -7.2240   19.3940  -31.8030 C   0  0  0  0  0  0  0  0  0  0  0  0
   -6.3440   18.5490  -31.7170 O   0  0  0  0  0  0  0  0  0  0  0  0
   -6.9150   20.7690  -32.3780 C   0  0  1  0  0  0  0  0  0  0  0  0
   -8.1290   21.7290  -32.2450 C   0  0  0  0  0  0  0  0  0  0  0  0
   -7.7750   22.7860  -31.1800 C   0  0  0  0  0  0  0  0  0  0  0  0
   -6.5020   22.2540  -30.5410 C   0  0  2  0  0  0  0  0  0  0  0  0
   -5.6430   23.1770  -29.6290 C   0  0  2  0  0  0  0  0  0  0  0  0
   -5.2320   24.5500  -30.2440 C   0  0  0  0  0  0  0  0  0  0  0  0
   -3.7700   24.9170  -30.0940 C   0  0  0  0  0  0  0  0  0  0  0  0
   -2.9450   24.3660  -29.1740 C   0  0  0  0  0  0  0  0  0  0  0  0
   -1.5760   24.9800  -28.9680 C   0  0  0  0  0  0  0  0  0  0  0  0
   -0.5510   23.9630  -28.4620 C   0  0  1  0  0  0  0  0  0  0  0  0
    0.6420   24.6340  -28.1520 O   0  0  0  0  0  0  0  0  0  0  0  0
   -1.0840   23.2500  -27.2160 C   0  0  0  0  0  0  0  0  0  0  0  0
   -2.3350   22.4380  -27.5650 C   0  0  0  0  0  0  0  0  0  0  0  0
   -3.4740   23.2910  -28.2250 C   0  0  1  0  0  0  0  0  0  0  0  0
   -4.2370   24.0010  -27.0730 C   0  0  0  0  0  0  0  0  0  0  0  0
   -4.4440   22.3620  -29.0380 C   0  0  2  0  0  0  0  0  0  0  0  0
   -3.7830   21.5500  -30.1640 C   0  0  0  0  0  0  0  0  0  0  0  0
   -2.6170   21.7260  -30.4880 O   0  0  0  0  0  0  0  0  0  0  0  0
   -4.6490   20.6410  -31.0070 C   0  0  0  0  0  0  0  0  0  0  0  0
   -5.7500   21.5110  -31.6630 C   0  0  1  0  0  0  0  0  0  0  0  0
   -5.0800   22.4460  -32.7140 C   0  0  0  0  0  0  0  0  0  0  0  0
   -8.6236   19.0400  -30.2292 H   0  0  0  0  0  0  0  0  0  0  0  0
   -9.3203   19.7903  -31.7051 H   0  0  0  0  0  0  0  0  0  0  0  0
   -8.8799   18.0488  -31.7051 H   0  0  0  0  0  0  0  0  0  0  0  0
   -6.6485   20.5520  -33.4229 H   0  0  0  0  0  0  0  0  0  0  0  0
   -8.3260   22.2200  -33.2094 H   0  0  0  0  0  0  0  0  0  0  0  0
   -9.0307   21.1720  -31.9507 H   0  0  0  0  0  0  0  0  0  0  0  0
   -7.5980   23.7665  -31.6462 H   0  0  0  0  0  0  0  0  0  0  0  0
   -8.5834   22.9376  -30.4496 H   0  0  0  0  0  0  0  0  0  0  0  0
   -6.7973   21.5820  -29.7218 H   0  0  0  0  0  0  0  0  0  0  0  0
   -6.2964   23.4964  -28.8037 H   0  0  0  0  0  0  0  0  0  0  0  0
   -5.4672   24.5248  -31.3183 H   0  0  0  0  0  0  0  0  0  0  0  0
   -5.7950   25.3129  -29.6863 H   0  0  0  0  0  0  0  0  0  0  0  0
   -3.3546   25.6762  -30.7730 H   0  0  0  0  0  0  0  0  0  0  0  0
   -1.2243   25.3890  -29.9267 H   0  0  0  0  0  0  0  0  0  0  0  0
   -1.6725   25.7668  -28.2054 H   0  0  0  0  0  0  0  0  0  0  0  0
   -0.3646   23.2114  -29.2432 H   0  0  0  0  0  0  0  0  0  0  0  0
    1.2270   24.5620  -28.9520 H   0  0  0  0  0  0  0  0  0  0  0  0
   -0.3094   22.5738  -26.8251 H   0  0  0  0  0  0  0  0  0  0  0  0
   -1.3447   24.0018  -26.4565 H   0  0  0  0  0  0  0  0  0  0  0  0
   -2.0475   21.6404  -28.2658 H   0  0  0  0  0  0  0  0  0  0  0  0
   -2.7356   22.0411  -26.6205 H   0  0  0  0  0  0  0  0  0  0  0  0
   -3.8541   23.6447  -26.1053 H   0  0  0  0  0  0  0  0  0  0  0  0
   -4.0868   25.0880  -27.1490 H   0  0  0  0  0  0  0  0  0  0  0  0
   -5.3104   23.7730  -27.1490 H   0  0  0  0  0  0  0  0  0  0  0  0
   -4.7971   21.6302  -28.2965 H   0  0  0  0  0  0  0  0  0  0  0  0
   -4.0391   20.1594  -31.7856 H   0  0  0  0  0  0  0  0  0  0  0  0
   -5.1006   19.8545  -30.3845 H   0  0  0  0  0  0  0  0  0  0  0  0
   -4.5149   23.2347  -32.1957 H   0  0  0  0  0  0  0  0  0  0  0  0
   -4.3960   21.8586  -33.3441 H   0  0  0  0  0  0  0  0  0  0  0  0
   -5.8561   22.9049  -33.3441 H   0  0  0  0  0  0  0  0  0  0  0  0
  1  2  1  0
  2  3  2  0
  2  4  1  0
  4  5  1  0
  5  6  1  0
  6  7  1  0
  7  8  1  0
  8  9  1  0
  9 10  1  0
 10 11  2  0
 11 12  1  0
 12 13  1  0
 13 14  1  0
 13 15  1  0
 15 16  1  0
 16 17  1  0
 17 18  1  1
 17 19  1  0
 19 20  1  0
 20 21  2  0
 20 22  1  0
 22 23  1  0
 23 24  1  6
 23  4  1  0
 23  7  1  0
 19  8  1  0
 17 11  1  0
  1 25  1  0
  1 26  1  0
  1 27  1  0
  4 28  1  6
  5 29  1  0
  5 30  1  0
  6 31  1  0
  6 32  1  0
  7 33  1  1
  8 34  1  1
  9 35  1  0
  9 36  1  0
 10 37  1  0
 12 38  1  0
 12 39  1  0
 13 40  1  6
 14 41  1  0
 15 42  1  0
 15 43  1  0
 16 44  1  0
 16 45  1  0
 18 46  1  0
 18 47  1  0
 18 48  1  0
 19 49  1  1
 22 50  1  0
 22 51  1  0
 24 52  1  0
 24 53  1  0
 24 54  1  0
M  END
>  <UniqueID>  (5) 
5

>  <SMILES>  (5) 
CC(=O)[C@H]1CC[C@@H]2C3CC=C4CC(O)CCC4(C)C3C(=O)CC12C

>  <Energy>  (5) 
82.95794568999113

>  <Genealogy>  (5) 
CC(=O)[C@H]1CC[C@@H]2C3CC=C4CC(O)CCC4(C)C3C(=O)CC12C (chirality)
CC(=O)[C@H]1CC[C@@H]2C3CC=C4CC(O)CCC4(C)C3C(=O)CC12C (3D coordinates assigned)
CC(=O)[C@H]1CC[C@@H]2C3CC=C4CC(O)CCC4(C)C3C(=O)CC12C (nonaromatic ring conformer: 82.95794568999113 kcal/mol)

>  <smiles>  (5) 
CC(=O)C1CCC2C3CC=C4CC(O)CCC4(C)C3C(=O)CC12C

>  <score_type>  (5) 
oracle

>  <origin>  (5) 
adg

>  <m_score__min__energy>  (5) 
-9.1099999999999994

>  <m_primary>  (5) 
energy

$$$$
5:0
     RDKit          3D

 49 52  0  0  0  0  0  0  0  0999 V2000
    2.7110   26.7710  -23.7980 C   0  0  0  0  0  0  0  0  0  0  0  0
    2.1860   25.6320  -24.6770 C   0  0  0  0  0  0  0  0  0  0  0  0
    0.9980   24.9810  -24.0980 N   0  0  0  0  0  0  0  0  0  0  0  0
   -0.0340   24.7800  -25.0880 C   0  0  0  0  0  0  0  0  0  0  0  0
   -0.4790   23.4850  -25.4030 C   0  0  0  0  0  0  0  0  0  0  0  0
   -1.4880   23.2920  -26.3500 C   0  0  0  0  0  0  0  0  0  0  0  0
   -2.0730   24.3920  -27.0020 C   0  0  0  0  0  0  0  0  0  0  0  0
   -3.1400   24.1890  -28.0080 C   0  0  0  0  0  0  0  0  0  0  0  0
   -4.0940   23.2250  -27.8880 N   0  0  0  0  0  0  0  0  0  0  0  0
   -4.8260   23.3970  -28.9990 C   0  0  0  0  0  0  0  0  0  0  0  0
   -5.9410   22.6700  -29.4040 C   0  0  0  0  0  0  0  0  0  0  0  0
   -6.5510   23.0270  -30.6260 C   0  0  0  0  0  0  0  0  0  0  0  0
   -7.9400   22.1110  -31.2000 S   0  0  0  0  0  0  0  0  0  0  0  0
   -8.9230   21.9660  -30.0720 O   0  0  0  0  0  0  0  0  0  0  0  0
   -8.6090   22.8450  -32.3290 O   0  0  0  0  0  0  0  0  0  0  0  0
   -7.4180   20.5330  -31.7330 N   0  0  0  0  0  0  0  0  0  0  0  0
   -6.7470   20.6400  -33.0410 C   0  0  0  0  0  0  0  0  0  0  0  0
   -6.4880   19.2410  -33.6390 C   0  0  0  0  0  0  0  0  0  0  0  0
   -6.7560   18.2230  -32.6950 O   0  0  0  0  0  0  0  0  0  0  0  0
   -8.1300   18.2460  -32.3490 C   0  0  0  0  0  0  0  0  0  0  0  0
   -8.5750   19.6280  -31.8270 C   0  0  0  0  0  0  0  0  0  0  0  0
   -6.0210   24.0920  -31.3970 C   0  0  0  0  0  0  0  0  0  0  0  0
   -4.8910   24.8030  -30.9510 C   0  0  0  0  0  0  0  0  0  0  0  0
   -4.3220   24.4200  -29.7400 C   0  0  0  0  0  0  0  0  0  0  0  0
   -3.2470   24.9440  -29.1350 N   0  0  0  0  0  0  0  0  0  0  0  0
   -1.6290   25.6870  -26.6860 C   0  0  0  0  0  0  0  0  0  0  0  0
   -0.6190   25.8790  -25.7390 C   0  0  0  0  0  0  0  0  0  0  0  0
    2.5875   26.5031  -22.7383 H   0  0  0  0  0  0  0  0  0  0  0  0
    3.7769   26.9380  -24.0122 H   0  0  0  0  0  0  0  0  0  0  0  0
    2.1456   27.6899  -24.0122 H   0  0  0  0  0  0  0  0  0  0  0  0
    1.9204   26.0400  -25.6634 H   0  0  0  0  0  0  0  0  0  0  0  0
    2.9798   24.8746  -24.7561 H   0  0  0  0  0  0  0  0  0  0  0  0
    1.2830   24.0500  -23.7140 H   0  0  0  0  0  0  0  0  0  0  0  0
    0.6370   25.5470  -23.2940 H   0  0  0  0  0  0  0  0  0  0  0  0
   -0.0294   22.6162  -24.9000 H   0  0  0  0  0  0  0  0  0  0  0  0
   -1.8270   22.2728  -26.5871 H   0  0  0  0  0  0  0  0  0  0  0  0
   -6.3341   21.8445  -28.7924 H   0  0  0  0  0  0  0  0  0  0  0  0
   -7.3860   21.2136  -33.7285 H   0  0  0  0  0  0  0  0  0  0  0  0
   -5.7817   21.1487  -32.9020 H   0  0  0  0  0  0  0  0  0  0  0  0
   -7.1390   19.0989  -34.5142 H   0  0  0  0  0  0  0  0  0  0  0  0
   -5.4287   19.1770  -33.9285 H   0  0  0  0  0  0  0  0  0  0  0  0
   -8.7242   17.9955  -33.2401 H   0  0  0  0  0  0  0  0  0  0  0  0
   -8.2885   17.5132  -31.5441 H   0  0  0  0  0  0  0  0  0  0  0  0
   -9.3158   20.0561  -32.5183 H   0  0  0  0  0  0  0  0  0  0  0  0
   -9.0188   19.5081  -30.8277 H   0  0  0  0  0  0  0  0  0  0  0  0
   -6.4963   24.3648  -32.3508 H   0  0  0  0  0  0  0  0  0  0  0  0
   -4.4721   25.6327  -31.5393 H   0  0  0  0  0  0  0  0  0  0  0  0
   -2.0795   26.5562  -27.1875 H   0  0  0  0  0  0  0  0  0  0  0  0
   -0.2797   26.8981  -25.5017 H   0  0  0  0  0  0  0  0  0  0  0  0
  1  2  1  0
  2  3  1  0
  3  4  1  0
  4  5  2  0
  5  6  1  0
  6  7  2  0
  7  8  1  0
  8  9  2  0
  9 10  1  0
 10 11  2  0
 11 12  1  0
 12 13  1  0
 13 14  2  0
 13 15  2  0
 13 16  1  0
 16 17  1  0
 17 18  1  0
 18 19  1  0
 19 20  1  0
 20 21  1  0
 12 22  2  0
 22 23  1  0
 23 24  2  0
 24 25  1  0
  7 26  1  0
 26 27  2  0
 27  4  1  0
 25  8  1  0
 24 10  1  0
 21 16  1  0
  1 28  1  0
  1 29  1  0
  1 30  1  0
  2 31  1  0
  2 32  1  0
  3 33  1  0
  3 34  1  0
  5 35  1  0
  6 36  1  0
 11 37  1  0
 17 38  1  0
 17 39  1  0
 18 40  1  0
 18 41  1  0
 20 42  1  0
 20 43  1  0
 21 44  1  0
 21 45  1  0
 22 46  1  0
 23 47  1  0
 26 48  1  0
 27 49  1  0
M  CHG  2   3   1  25  -1
M  END
>  <UniqueID>  (6) 
6

>  <SMILES>  (6) 
CC[NH2+]c1ccc(-c2nc3cc(S(=O)(=O)N4CCOCC4)ccc3[n-]2)cc1

>  <Energy>  (6) 
93.51172080324604

>  <Genealogy>  (6) 
CC[NH2+]c1ccc(-c2nc3cc(S(=O)(=O)N4CCOCC4)ccc3[n-]2)cc1 (protonated)
CC[NH2+]c1ccc(-c2nc3cc(S(=O)(=O)N4CCOCC4)ccc3[n-]2)cc1 (3D coordinates assigned)
CC[NH2+]c1ccc(-c2nc3cc(S(=O)(=O)N4CCOCC4)ccc3[n-]2)cc1 (nonaromatic ring conformer: 93.51172080324604 kcal/mol)

>  <smiles>  (6) 
CCNc1ccc(-c2nc3cc(S(=O)(=O)N4CCOCC4)ccc3[nH]2)cc1

>  <score_type>  (6) 
oracle

>  <origin>  (6) 
adg

>  <m_score__min__energy>  (6) 
-9.9399999999999995

>  <m_primary>  (6) 
energy

$$$$
6:0
     RDKit          3D

 41 43  0  0  0  0  0  0  0  0999 V2000
  -10.5026   20.8509  -31.5802 H   0  0  0  0  0  0  0  0  0  0  0  0
   -9.4560   20.7550  -31.9050 C   0  0  0  0  0  0  0  0  0  0  0  0
   -8.6300   21.8810  -31.9320 C   0  0  0  0  0  0  0  0  0  0  0  0
   -9.0283   22.8602  -31.6280 H   0  0  0  0  0  0  0  0  0  0  0  0
   -7.2990   21.7680  -32.3440 C   0  0  0  0  0  0  0  0  0  0  0  0
   -6.6525   22.6577  -32.3628 H   0  0  0  0  0  0  0  0  0  0  0  0
   -6.7860   20.5200  -32.7340 C   0  0  0  0  0  0  0  0  0  0  0  0
   -5.4520   20.3950  -33.1510 C   0  0  0  0  0  0  0  0  0  0  0  0
   -4.8023   21.2821  -33.1819 H   0  0  0  0  0  0  0  0  0  0  0  0
   -4.9430   19.1420  -33.5290 C   0  0  0  0  0  0  0  0  0  0  0  0
   -3.5220   19.0200  -34.0120 C   0  0  0  0  0  0  0  0  0  0  0  0
   -3.5212   18.6243  -35.0383 H   0  0  0  0  0  0  0  0  0  0  0  0
   -2.9759   18.3390  -33.3426 H   0  0  0  0  0  0  0  0  0  0  0  0
   -2.8610   20.3290  -33.9990 N   0  0  0  0  0  0  0  0  0  0  0  0
   -2.7380   20.8450  -34.9000 H   0  0  0  0  0  0  0  0  0  0  0  0
   -2.4170   20.8890  -32.9100 C   0  0  0  0  0  0  0  0  0  0  0  0
   -3.2820   22.2740  -32.1430 S   0  0  0  0  0  0  0  0  0  0  0  0
   -2.0230   22.2510  -30.8580 C   0  0  0  0  0  0  0  0  0  0  0  0
   -2.0030   23.0480  -29.8330 N   0  0  0  0  0  0  0  0  0  0  0  0
   -3.1090   23.1900  -28.8920 C   0  0  0  0  0  0  0  0  0  0  0  0
   -2.7269   23.1026  -27.8642 H   0  0  0  0  0  0  0  0  0  0  0  0
   -3.8497   22.3993  -29.0818 H   0  0  0  0  0  0  0  0  0  0  0  0
   -3.7710   24.5510  -29.0710 C   0  0  0  0  0  0  0  0  0  0  0  0
   -3.1709   25.3194  -28.5616 H   0  0  0  0  0  0  0  0  0  0  0  0
   -4.7817   24.5245  -28.6376 H   0  0  0  0  0  0  0  0  0  0  0  0
   -3.8600   24.8610  -30.4520 O   0  0  0  0  0  0  0  0  0  0  0  0
   -5.2080   24.9470  -30.8550 C   0  0  0  0  0  0  0  0  0  0  0  0
   -5.8545   24.9882  -29.9660 H   0  0  0  0  0  0  0  0  0  0  0  0
   -5.3535   25.8563  -31.4567 H   0  0  0  0  0  0  0  0  0  0  0  0
   -5.4679   24.0636  -31.4567 H   0  0  0  0  0  0  0  0  0  0  0  0
   -1.0150   21.2270  -31.0720 C   0  0  0  0  0  0  0  0  0  0  0  0
   -0.0380   21.0320  -30.3020 O   0  0  0  0  0  0  0  0  0  0  0  0
   -1.2330   20.4530  -32.2350 N   0  0  0  0  0  0  0  0  0  0  0  0
   -0.6070   19.6740  -32.5360 H   0  0  0  0  0  0  0  0  0  0  0  0
   -5.7840   18.0180  -33.5140 C   0  0  0  0  0  0  0  0  0  0  0  0
   -5.3940   17.0395  -33.8311 H   0  0  0  0  0  0  0  0  0  0  0  0
   -7.1130   18.1340  -33.0990 C   0  0  0  0  0  0  0  0  0  0  0  0
   -7.7609   17.2453  -33.0803 H   0  0  0  0  0  0  0  0  0  0  0  0
   -7.6240   19.3800  -32.7060 C   0  0  0  0  0  0  0  0  0  0  0  0
   -8.9580   19.5070  -32.2890 C   0  0  0  0  0  0  0  0  0  0  0  0
   -9.6124   18.6232  -32.2644 H   0  0  0  0  0  0  0  0  0  0  0  0
  1  2  1  0
  2  3  2  0
  3  4  1  0
  3  5  1  0
  5  6  1  0
  5  7  2  0
  7  8  1  0
  8  9  1  0
  8 10  2  0
 10 11  1  0
 11 12  1  0
 11 13  1  0
 11 14  1  0
 14 15  1  0
 14 16  2  3
 16 17  1  0
 17 18  1  0
 18 19  2  0
 19 20  1  0
 20 21  1  0
 20 22  1  0
 20 23  1  0
 23 24  1  0
 23 25  1  0
 23 26  1  0
 26 27  1  0
 27 28  1  0
 27 29  1  0
 27 30  1  0
 18 31  1  0
 31 32  2  0
 31 33  1  0
 33 34  1  0
 10 35  1  0
 35 36  1  0
 35 37  2  0
 37 38  1  0
 37 39  1  0
 39 40  2  0
 40 41  1  0
 40  2  1  0
 39  7  1  0
 33 16  1  0
M  CHG  1  14   1
M  END
>  <UniqueID>  (7) 
7

>  <SMILES>  (7) 
COCC/N=C1\SC(=[NH+]Cc2ccc3ccccc3c2)NC1=O

>  <Energy>  (7) 
62.596098938886655

>  <Genealogy>  (7) 
COCCN=C1SC(=[NH+]Cc2ccc3ccccc3c2)NC1=O (protonated)
COCC/N=C1\SC(=[NH+]Cc2ccc3ccccc3c2)NC1=O (cis-trans isomerization)
COCC/N=C1\SC(=[NH+]Cc2ccc3ccccc3c2)NC1=O (3D coordinates assigned)
COCC/N=C1\SC(=[NH+]Cc2ccc3ccccc3c2)NC1=O (nonaromatic ring conformer: 62.596098938886655 kcal/mol)

>  <smiles>  (7) 
COCCN=C1SC(=NCc2ccc3ccccc3c2)NC1=O

>  <score_type>  (7) 
oracle

>  <origin>  (7) 
adg

>  <m_score__min__energy>  (7) 
-8.7300000000000004

>  <m_primary>  (7) 
energy

$$$$
7:0
     RDKit          3D

 50 52  0  0  0  0  0  0  0  0999 V2000
   -6.1450   21.1620  -33.4750 F   0  0  0  0  0  0  0  0  0  0  0  0
   -6.9370   20.2050  -32.9180 C   0  0  0  0  0  0  0  0  0  0  0  0
   -7.8790   20.5710  -31.9510 C   0  0  0  0  0  0  0  0  0  0  0  0
   -8.6950   19.5960  -31.3640 C   0  0  0  0  0  0  0  0  0  0  0  0
   -8.5690   18.2550  -31.7410 C   0  0  0  0  0  0  0  0  0  0  0  0
   -7.6350   17.8880  -32.7120 C   0  0  0  0  0  0  0  0  0  0  0  0
   -6.8210   18.8610  -33.3080 C   0  0  0  0  0  0  0  0  0  0  0  0
   -5.6240   18.3710  -34.5520 S   0  0  0  0  0  0  0  0  0  0  0  0
   -5.0880   16.8810  -33.6460 C   0  0  0  0  0  0  0  0  0  0  0  0
   -3.5700   16.8770  -33.4280 C   0  0  0  0  0  0  0  0  0  0  0  0
   -2.8110   18.1600  -33.8850 C   0  0  0  0  0  0  0  0  0  0  0  0
   -2.9940   19.3860  -33.0530 N   0  0  0  0  0  0  0  0  0  0  0  0
   -3.0340   20.6400  -33.8350 C   0  0  0  0  0  0  0  0  0  0  0  0
   -3.4520   21.8350  -32.9480 C   0  0  0  0  0  0  0  0  0  0  0  0
   -3.0680   21.6520  -31.5260 N   0  0  0  0  0  0  0  0  0  0  0  0
   -2.9580   22.9490  -30.8270 C   0  0  0  0  0  0  0  0  0  0  0  0
   -4.3250   23.5320  -30.5860 C   0  0  0  0  0  0  0  0  0  0  0  0
   -4.4800   24.9190  -30.4450 C   0  0  0  0  0  0  0  0  0  0  0  0
   -5.7440   25.4670  -30.2030 C   0  0  0  0  0  0  0  0  0  0  0  0
   -6.8580   24.6330  -30.0930 C   0  0  0  0  0  0  0  0  0  0  0  0
   -6.7100   23.2500  -30.2220 C   0  0  0  0  0  0  0  0  0  0  0  0
   -5.4490   22.6990  -30.4640 C   0  0  0  0  0  0  0  0  0  0  0  0
   -1.8170   20.8880  -31.4100 C   0  0  0  0  0  0  0  0  0  0  0  0
   -2.0370   19.4510  -31.9190 C   0  0  0  0  0  0  0  0  0  0  0  0
   -7.9789   21.6247  -31.6516 H   0  0  0  0  0  0  0  0  0  0  0  0
   -9.4366   19.8854  -30.6049 H   0  0  0  0  0  0  0  0  0  0  0  0
   -9.2055   17.4897  -31.2727 H   0  0  0  0  0  0  0  0  0  0  0  0
   -7.5379   16.8335  -33.0097 H   0  0  0  0  0  0  0  0  0  0  0  0
   -5.5905   16.8564  -32.6678 H   0  0  0  0  0  0  0  0  0  0  0  0
   -5.3552   15.9968  -34.2433 H   0  0  0  0  0  0  0  0  0  0  0  0
   -3.3848   16.7415  -32.3522 H   0  0  0  0  0  0  0  0  0  0  0  0
   -3.1819   16.0626  -34.0574 H   0  0  0  0  0  0  0  0  0  0  0  0
   -1.7367   17.9239  -33.8969 H   0  0  0  0  0  0  0  0  0  0  0  0
   -3.2401   18.4127  -34.8658 H   0  0  0  0  0  0  0  0  0  0  0  0
   -3.9450   19.2900  -32.6190 H   0  0  0  0  0  0  0  0  0  0  0  0
   -2.0354   20.8348  -34.2532 H   0  0  0  0  0  0  0  0  0  0  0  0
   -3.7746   20.5264  -34.6404 H   0  0  0  0  0  0  0  0  0  0  0  0
   -2.9655   22.7445  -33.3301 H   0  0  0  0  0  0  0  0  0  0  0  0
   -4.5484   21.9134  -32.9896 H   0  0  0  0  0  0  0  0  0  0  0  0
   -2.4525   22.7989  -29.8616 H   0  0  0  0  0  0  0  0  0  0  0  0
   -2.3786   23.6439  -31.4526 H   0  0  0  0  0  0  0  0  0  0  0  0
   -3.6035   25.5788  -30.5251 H   0  0  0  0  0  0  0  0  0  0  0  0
   -5.8603   26.5559  -30.0993 H   0  0  0  0  0  0  0  0  0  0  0  0
   -7.8521   25.0648  -29.9048 H   0  0  0  0  0  0  0  0  0  0  0  0
   -7.5880   22.5934  -30.1329 H   0  0  0  0  0  0  0  0  0  0  0  0
   -5.3363   21.6089  -30.5593 H   0  0  0  0  0  0  0  0  0  0  0  0
   -1.0349   21.3735  -32.0122 H   0  0  0  0  0  0  0  0  0  0  0  0
   -1.5055   20.8572  -30.3555 H   0  0  0  0  0  0  0  0  0  0  0  0
   -1.0706   19.0428  -32.2499 H   0  0  0  0  0  0  0  0  0  0  0  0
   -2.4627   18.8660  -31.0904 H   0  0  0  0  0  0  0  0  0  0  0  0
  1  2  1  0
  2  3  2  0
  3  4  1  0
  4  5  2  0
  5  6  1  0
  6  7  2  0
  7  8  1  0
  8  9  1  0
  9 10  1  0
 10 11  1  0
 11 12  1  0
 12 13  1  0
 13 14  1  0
 14 15  1  0
 15 16  1  0
 16 17  1  0
 17 18  2  0
 18 19  1  0
 19 20  2  0
 20 21  1  0
 21 22  2  0
 15 23  1  0
 23 24  1  0
  7  2  1  0
 24 12  1  0
 22 17  1  0
  3 25  1  0
  4 26  1  0
  5 27  1  0
  6 28  1  0
  9 29  1  0
  9 30  1  0
 10 31  1  0
 10 32  1  0
 11 33  1  0
 11 34  1  0
 12 35  1  0
 13 36  1  0
 13 37  1  0
 14 38  1  0
 14 39  1  0
 16 40  1  0
 16 41  1  0
 18 42  1  0
 19 43  1  0
 20 44  1  0
 21 45  1  0
 22 46  1  0
 23 47  1  0
 23 48  1  0
 24 49  1  0
 24 50  1  0
M  CHG  1  12   1
M  END
>  <UniqueID>  (8) 
8

>  <SMILES>  (8) 
Fc1ccccc1SCCC[NH+]1CCN(Cc2ccccc2)CC1

>  <Energy>  (8) 
61.48437515914118

>  <Genealogy>  (8) 
Fc1ccccc1SCCC[NH+]1CCN(Cc2ccccc2)CC1 (protonated)
Fc1ccccc1SCCC[NH+]1CCN(Cc2ccccc2)CC1 (3D coordinates assigned)
Fc1ccccc1SCCC[NH+]1CCN(Cc2ccccc2)CC1 (nonaromatic ring conformer: 61.48437515914118 kcal/mol)

>  <smiles>  (8) 
Fc1ccccc1SCCCN1CCN(Cc2ccccc2)CC1

>  <score_type>  (8) 
oracle

>  <origin>  (8) 
adg

>  <m_score__min__energy>  (8) 
-7.7699999999999996

>  <m_primary>  (8) 
energy

$$$$
8:0
     RDKit          3D

 40 43  0  0  0  0  0  0  0  0999 V2000
   -4.2740   25.3040  -31.1230 O   0  0  0  0  0  0  0  0  0  0  0  0
   -3.8780   24.3190  -30.4420 C   0  0  0  0  0  0  0  0  0  0  0  0
   -3.4090   24.5300  -29.0470 C   0  0  0  0  0  0  0  0  0  0  0  0
   -4.2800   24.3580  -27.9530 C   0  0  0  0  0  0  0  0  0  0  0  0
   -3.8250   24.5580  -26.6470 C   0  0  0  0  0  0  0  0  0  0  0  0
   -2.5010   24.9360  -26.4150 C   0  0  0  0  0  0  0  0  0  0  0  0
   -1.6300   25.1180  -27.4900 C   0  0  0  0  0  0  0  0  0  0  0  0
   -2.0780   24.9190  -28.8000 C   0  0  0  0  0  0  0  0  0  0  0  0
   -3.9330   22.9720  -31.0550 C   0  0  0  0  0  0  0  0  0  0  0  0
   -2.7250   22.2850  -31.2260 C   0  0  0  0  0  0  0  0  0  0  0  0
   -2.6980   21.0410  -31.8480 C   0  0  0  0  0  0  0  0  0  0  0  0
   -3.8780   20.4510  -32.2950 C   0  0  0  0  0  0  0  0  0  0  0  0
   -5.1210   21.0890  -32.1020 C   0  0  0  0  0  0  0  0  0  0  0  0
   -6.3350   20.4910  -32.5320 C   0  0  0  0  0  0  0  0  0  0  0  0
   -6.3860   19.1470  -33.1510 C   0  0  0  0  0  0  0  0  0  0  0  0
   -7.0560   18.0970  -32.5040 C   0  0  0  0  0  0  0  0  0  0  0  0
   -7.0860   16.8220  -33.0780 C   0  0  0  0  0  0  0  0  0  0  0  0
   -6.4410   16.5860  -34.2960 C   0  0  0  0  0  0  0  0  0  0  0  0
   -5.7610   17.6250  -34.9390 C   0  0  0  0  0  0  0  0  0  0  0  0
   -5.7280   18.9000  -34.3680 C   0  0  0  0  0  0  0  0  0  0  0  0
   -7.5450   21.1760  -32.3520 C   0  0  0  0  0  0  0  0  0  0  0  0
   -7.5710   22.4180  -31.7260 C   0  0  0  0  0  0  0  0  0  0  0  0
   -6.3910   23.0070  -31.2800 C   0  0  0  0  0  0  0  0  0  0  0  0
   -5.1490   22.3710  -31.4780 C   0  0  0  0  0  0  0  0  0  0  0  0
   -5.3255   24.0642  -28.1282 H   0  0  0  0  0  0  0  0  0  0  0  0
   -4.5118   24.4173  -25.7993 H   0  0  0  0  0  0  0  0  0  0  0  0
   -2.1448   25.0902  -25.3857 H   0  0  0  0  0  0  0  0  0  0  0  0
   -0.5880   25.4189  -27.3066 H   0  0  0  0  0  0  0  0  0  0  0  0
   -1.3866   25.0672  -29.6426 H   0  0  0  0  0  0  0  0  0  0  0  0
   -1.7878   22.7335  -30.8648 H   0  0  0  0  0  0  0  0  0  0  0  0
   -1.7392   20.5202  -31.9877 H   0  0  0  0  0  0  0  0  0  0  0  0
   -3.8400   19.4767  -32.8042 H   0  0  0  0  0  0  0  0  0  0  0  0
   -7.5590   18.2775  -31.5425 H   0  0  0  0  0  0  0  0  0  0  0  0
   -7.6178   16.0036  -32.5706 H   0  0  0  0  0  0  0  0  0  0  0  0
   -6.4685   15.5836  -34.7481 H   0  0  0  0  0  0  0  0  0  0  0  0
   -5.2513   17.4384  -35.8957 H   0  0  0  0  0  0  0  0  0  0  0  0
   -5.1853   19.7129  -34.8727 H   0  0  0  0  0  0  0  0  0  0  0  0
   -8.4833   20.7268  -32.7094 H   0  0  0  0  0  0  0  0  0  0  0  0
   -8.5297   22.9379  -31.5825 H   0  0  0  0  0  0  0  0  0  0  0  0
   -6.4285   23.9795  -30.7674 H   0  0  0  0  0  0  0  0  0  0  0  0
  1  2  2  0
  2  3  1  0
  3  4  2  0
  4  5  1  0
  5  6  2  0
  6  7  1  0
  7  8  2  0
  2  9  1  0
  9 10  2  0
 10 11  1  0
 11 12  2  0
 12 13  1  0
 13 14  2  0
 14 15  1  0
 15 16  2  0
 16 17  1  0
 17 18  2  0
 18 19  1  0
 19 20  2  0
 14 21  1  0
 21 22  2  0
 22 23  1  0
 23 24  2  0
  8  3  1  0
 24  9  1  0
 24 13  1  0
 20 15  1  0
  4 25  1  0
  5 26  1  0
  6 27  1  0
  7 28  1  0
  8 29  1  0
 10 30  1  0
 11 31  1  0
 12 32  1  0
 16 33  1  0
 17 34  1  0
 18 35  1  0
 19 36  1  0
 20 37  1  0
 21 38  1  0
 22 39  1  0
 23 40  1  0
M  END
>  <UniqueID>  (9) 
9

>  <SMILES>  (9) 
O=C(c1ccccc1)c1cccc2c(-c3ccccc3)cccc12

>  <Energy>  (9) 
66.90805195879437

>  <Genealogy>  (9) 
O=C(c1ccccc1)c1cccc2c(-c3ccccc3)cccc12 (3D coordinates assigned)
O=C(c1ccccc1)c1cccc2c(-c3ccccc3)cccc12 (optimized conformer: 66.90805195879437 kcal/mol)

>  <smiles>  (9) 
O=C(c1ccccc1)c1cccc2c(-c3ccccc3)cccc12

>  <score_type>  (9) 
oracle

>  <origin>  (9) 
adg

>  <m_score__min__energy>  (9) 
-9.6999999999999993

>  <m_primary>  (9) 
energy

$$$$
9:0
     RDKit          3D

 51 53  0  0  0  0  0  0  0  0999 V2000
   -2.4060   21.5520  -31.8870 C   0  0  0  0  0  0  0  0  0  0  0  0
   -3.4240   21.5910  -33.0220 C   0  0  0  0  0  0  0  0  0  0  0  0
   -3.7320   20.2310  -33.4830 N   0  0  0  0  0  0  0  0  0  0  0  0
   -2.7000   19.4700  -34.2010 C   0  0  0  0  0  0  0  0  0  0  0  0
   -2.7690   17.9900  -33.8340 C   0  0  0  0  0  0  0  0  0  0  0  0
   -5.0910   19.7410  -33.4910 C   0  0  0  0  0  0  0  0  0  0  0  0
   -5.5420   19.2090  -34.5410 O   0  0  0  0  0  0  0  0  0  0  0  0
   -5.9990   19.8150  -32.2790 C   0  0  2  0  0  0  0  0  0  0  0  0
   -7.4520   19.4670  -32.6480 C   0  0  0  0  0  0  0  0  0  0  0  0
   -8.4020   19.9190  -31.5490 C   0  0  0  0  0  0  0  0  0  0  0  0
   -8.3840   21.4440  -31.4440 C   0  0  0  0  0  0  0  0  0  0  0  0
   -7.0190   22.0020  -31.4730 N   0  0  0  0  0  0  0  0  0  0  0  0
   -6.8710   23.3980  -31.1320 C   0  0  0  0  0  0  0  0  0  0  0  0
   -7.8640   24.1700  -31.2240 O   0  0  0  0  0  0  0  0  0  0  0  0
   -5.5810   23.9650  -30.6920 C   0  0  0  0  0  0  0  0  0  0  0  0
   -4.8370   23.5280  -29.6150 C   0  0  0  0  0  0  0  0  0  0  0  0
   -3.7550   24.3920  -29.5810 C   0  0  0  0  0  0  0  0  0  0  0  0
   -2.6270   24.3760  -28.6180 C   0  0  0  0  0  0  0  0  0  0  0  0
   -1.3180   24.1300  -29.0740 C   0  0  0  0  0  0  0  0  0  0  0  0
   -0.2450   24.1120  -28.1780 C   0  0  0  0  0  0  0  0  0  0  0  0
   -0.4640   24.3380  -26.8180 C   0  0  0  0  0  0  0  0  0  0  0  0
   -1.7580   24.5830  -26.3520 C   0  0  0  0  0  0  0  0  0  0  0  0
   -2.8340   24.6020  -27.2430 C   0  0  0  0  0  0  0  0  0  0  0  0
   -3.8720   25.2880  -30.5810 N   0  0  0  0  0  0  0  0  0  0  0  0
   -4.9830   25.0300  -31.2520 N   0  0  0  0  0  0  0  0  0  0  0  0
   -5.8320   21.1230  -31.4500 C   0  0  0  0  0  0  0  0  0  0  0  0
   -2.9325   21.5722  -30.9214 H   0  0  0  0  0  0  0  0  0  0  0  0
   -1.8100   20.6304  -31.9605 H   0  0  0  0  0  0  0  0  0  0  0  0
   -1.7413   22.4253  -31.9605 H   0  0  0  0  0  0  0  0  0  0  0  0
   -4.3474   22.0698  -32.6639 H   0  0  0  0  0  0  0  0  0  0  0  0
   -3.0007   22.1637  -33.8603 H   0  0  0  0  0  0  0  0  0  0  0  0
   -2.8570   19.5813  -35.2840 H   0  0  0  0  0  0  0  0  0  0  0  0
   -1.7112   19.8594  -33.9171 H   0  0  0  0  0  0  0  0  0  0  0  0
   -2.7740   17.8836  -32.7392 H   0  0  0  0  0  0  0  0  0  0  0  0
   -3.6886   17.5518  -34.2492 H   0  0  0  0  0  0  0  0  0  0  0  0
   -1.8942   17.4681  -34.2492 H   0  0  0  0  0  0  0  0  0  0  0  0
   -5.6698   19.0338  -31.5780 H   0  0  0  0  0  0  0  0  0  0  0  0
   -7.7182   19.9729  -33.5878 H   0  0  0  0  0  0  0  0  0  0  0  0
   -7.5381   18.3769  -32.7675 H   0  0  0  0  0  0  0  0  0  0  0  0
   -9.4217   19.5813  -31.7860 H   0  0  0  0  0  0  0  0  0  0  0  0
   -8.0813   19.4851  -30.5904 H   0  0  0  0  0  0  0  0  0  0  0  0
   -8.9525   21.8613  -32.2882 H   0  0  0  0  0  0  0  0  0  0  0  0
   -8.8325   21.7151  -30.4769 H   0  0  0  0  0  0  0  0  0  0  0  0
   -5.0534   22.6874  -28.9394 H   0  0  0  0  0  0  0  0  0  0  0  0
   -1.1380   23.9505  -30.1442 H   0  0  0  0  0  0  0  0  0  0  0  0
    0.7738   23.9194  -28.5454 H   0  0  0  0  0  0  0  0  0  0  0  0
    0.3812   24.3232  -26.1142 H   0  0  0  0  0  0  0  0  0  0  0  0
   -1.9303   24.7615  -25.2803 H   0  0  0  0  0  0  0  0  0  0  0  0
   -3.8500   24.7948  -26.8682 H   0  0  0  0  0  0  0  0  0  0  0  0
   -4.9777   21.6840  -31.8566 H   0  0  0  0  0  0  0  0  0  0  0  0
   -5.6791   20.8204  -30.4036 H   0  0  0  0  0  0  0  0  0  0  0  0
  1  2  1  0
  2  3  1  0
  3  4  1  0
  4  5  1  0
  3  6  1  0
  6  7  2  0
  6  8  1  0
  8  9  1  0
  9 10  1  0
 10 11  1  0
 11 12  1  0
 12 13  1  0
 13 14  2  0
 13 15  1  0
 15 16  1  0
 16 17  2  0
 17 18  1  0
 18 19  2  0
 19 20  1  0
 20 21  2  0
 21 22  1  0
 22 23  2  0
 17 24  1  0
 24 25  1  0
 12 26  1  0
 26  8  1  0
 25 15  2  0
 23 18  1  0
  1 27  1  0
  1 28  1  0
  1 29  1  0
  2 30  1  0
  2 31  1  0
  4 32  1  0
  4 33  1  0
  5 34  1  0
  5 35  1  0
  5 36  1  0
  8 37  1  1
  9 38  1  0
  9 39  1  0
 10 40  1  0
 10 41  1  0
 11 42  1  0
 11 43  1  0
 16 44  1  0
 19 45  1  0
 20 46  1  0
 21 47  1  0
 22 48  1  0
 23 49  1  0
 26 50  1  0
 26 51  1  0
M  CHG  1  24  -1
M  END
>  <UniqueID>  (10) 
10

>  <SMILES>  (10) 
CCN(CC)C(=O)[C@@H]1CCCN(C(=O)c2cc(-c3ccccc3)[n-]n2)C1

>  <Energy>  (10) 
84.61211230415705

>  <Genealogy>  (10) 
CCN(CC)C(=O)C1CCCN(C(=O)c2cc(-c3ccccc3)[n-]n2)C1 (protonated)
CCN(CC)C(=O)[C@@H]1CCCN(C(=O)c2cc(-c3ccccc3)[n-]n2)C1 (chirality)
CCN(CC)C(=O)[C@@H]1CCCN(C(=O)c2cc(-c3ccccc3)[n-]n2)C1 (3D coordinates assigned)
CCN(CC)C(=O)[C@@H]1CCCN(C(=O)c2cc(-c3ccccc3)[n-]n2)C1 (nonaromatic ring conformer: 84.61211230415705 kcal/mol)

>  <smiles>  (10) 
CCN(CC)C(=O)C1CCCN(C(=O)c2cc(-c3ccccc3)[nH]n2)C1

>  <score_type>  (10) 
oracle

>  <origin>  (10) 
adg

>  <m_score__min__energy>  (10) 
-11.140000000000001

>  <m_primary>  (10) 
energy

$$$$
10:0
     RDKit          3D

 34 35  0  0  0  0  0  0  0  0999 V2000
   -4.1590   21.8630  -32.4800 C   0  0  0  0  0  0  0  0  0  0  0  0
   -5.4650   22.4320  -32.0120 C   0  0  0  0  0  0  0  0  0  0  0  0
   -6.6990   21.9880  -32.5180 C   0  0  0  0  0  0  0  0  0  0  0  0
   -7.7970   22.6340  -31.9700 C   0  0  0  0  0  0  0  0  0  0  0  0
   -7.2370   23.7580  -30.8550 S   0  0  0  0  0  0  0  0  0  0  0  0
   -5.5930   23.4420  -31.0490 C   0  0  0  0  0  0  0  0  0  0  0  0
   -4.5120   24.1470  -30.3250 C   0  0  0  0  0  0  0  0  0  0  0  0
   -4.0440   25.2210  -30.7890 O   0  0  0  0  0  0  0  0  0  0  0  0
   -3.9680   23.5950  -29.1150 N   0  0  0  0  0  0  0  0  0  0  0  0
   -3.1560   24.3370  -28.1880 C   0  0  0  0  0  0  0  0  0  0  0  0
   -1.9250   24.8910  -28.5730 C   0  0  0  0  0  0  0  0  0  0  0  0
   -1.1640   25.6280  -27.6620 C   0  0  0  0  0  0  0  0  0  0  0  0
   -1.6200   25.8430  -26.3450 C   0  0  0  0  0  0  0  0  0  0  0  0
   -0.8290   26.6070  -25.3970 N   0  0  0  0  0  0  0  0  0  0  0  0
   -0.4950   26.0450  -24.0810 C   0  0  0  0  0  0  0  0  0  0  0  0
   -0.3500   27.9530  -25.7350 C   0  0  0  0  0  0  0  0  0  0  0  0
   -2.8690   25.3010  -25.9760 C   0  0  0  0  0  0  0  0  0  0  0  0
   -3.6270   24.5650  -26.8900 C   0  0  0  0  0  0  0  0  0  0  0  0
   -3.5429   21.5946  -31.6092 H   0  0  0  0  0  0  0  0  0  0  0  0
   -4.3467   20.9651  -33.0871 H   0  0  0  0  0  0  0  0  0  0  0  0
   -3.6293   22.6119  -33.0871 H   0  0  0  0  0  0  0  0  0  0  0  0
   -6.7859   21.1993  -33.2799 H   0  0  0  0  0  0  0  0  0  0  0  0
   -8.8507   22.4434  -32.2217 H   0  0  0  0  0  0  0  0  0  0  0  0
   -4.0890   22.5720  -28.9400 H   0  0  0  0  0  0  0  0  0  0  0  0
   -1.5569   24.7439  -29.5991 H   0  0  0  0  0  0  0  0  0  0  0  0
   -0.1963   26.0461  -27.9763 H   0  0  0  0  0  0  0  0  0  0  0  0
   -0.8862   26.7032  -23.2912 H   0  0  0  0  0  0  0  0  0  0  0  0
   -0.9465   25.0467  -23.9833 H   0  0  0  0  0  0  0  0  0  0  0  0
    0.5977   25.9644  -23.9833 H   0  0  0  0  0  0  0  0  0  0  0  0
   -0.1503   28.5141  -24.8102 H   0  0  0  0  0  0  0  0  0  0  0  0
    0.5758   27.8756  -26.3240 H   0  0  0  0  0  0  0  0  0  0  0  0
   -1.1166   28.4778  -26.3240 H   0  0  0  0  0  0  0  0  0  0  0  0
   -3.2506   25.4597  -24.9566 H   0  0  0  0  0  0  0  0  0  0  0  0
   -4.6039   24.1606  -26.5864 H   0  0  0  0  0  0  0  0  0  0  0  0
  1  2  1  0
  2  3  1  0
  3  4  2  0
  4  5  1  0
  5  6  1  0
  6  7  1  0
  7  8  2  0
  7  9  1  0
  9 10  1  0
 10 11  2  0
 11 12  1  0
 12 13  2  0
 13 14  1  0
 14 15  1  0
 14 16  1  0
 13 17  1  0
 17 18  2  0
  6  2  2  0
 18 10  1  0
  1 19  1  0
  1 20  1  0
  1 21  1  0
  3 22  1  0
  4 23  1  0
  9 24  1  0
 11 25  1  0
 12 26  1  0
 15 27  1  0
 15 28  1  0
 15 29  1  0
 16 30  1  0
 16 31  1  0
 16 32  1  0
 17 33  1  0
 18 34  1  0
M  END
>  <UniqueID>  (11) 
11

>  <SMILES>  (11) 
Cc1ccsc1C(=O)Nc1ccc(N(C)C)cc1

>  <Energy>  (11) 
64.7774348504366

>  <Genealogy>  (11) 
Cc1ccsc1C(=O)Nc1ccc(N(C)C)cc1 (3D coordinates assigned)
Cc1ccsc1C(=O)Nc1ccc(N(C)C)cc1 (optimized conformer: 64.7774348504366 kcal/mol)

>  <smiles>  (11) 
Cc1ccsc1C(=O)Nc1ccc(N(C)C)cc1

>  <score_type>  (11) 
oracle

>  <origin>  (11) 
adg

>  <m_score__min__energy>  (11) 
-6.7800000000000002

>  <m_primary>  (11) 
energy

$$$$
11:0
     RDKit          3D

 27 28  0  0  0  0  0  0  0  0999 V2000
   -5.2690   25.6750  -30.4590 C   0  0  0  0  0  0  0  0  0  0  0  0
   -3.8960   25.2980  -30.4640 O   0  0  0  0  0  0  0  0  0  0  0  0
   -3.4110   24.0490  -30.0420 C   0  0  0  0  0  0  0  0  0  0  0  0
   -2.5330   23.9210  -28.9470 C   0  0  0  0  0  0  0  0  0  0  0  0
   -2.0370   22.6680  -28.5810 C   0  0  0  0  0  0  0  0  0  0  0  0
   -2.4020   21.5320  -29.3060 C   0  0  0  0  0  0  0  0  0  0  0  0
   -3.2750   21.6450  -30.3900 C   0  0  0  0  0  0  0  0  0  0  0  0
   -3.8040   22.8920  -30.7450 C   0  0  0  0  0  0  0  0  0  0  0  0
   -4.6770   22.9760  -31.8820 N   0  0  0  0  0  0  0  0  0  0  0  0
   -5.5450   22.0810  -32.2670 C   0  0  0  0  0  0  0  0  0  0  0  0
   -6.9080   22.1360  -31.9060 C   0  0  0  0  0  0  0  0  0  0  0  0
   -7.7780   21.1370  -32.3480 C   0  0  0  0  0  0  0  0  0  0  0  0
   -7.3160   20.1120  -33.1120 N   0  0  0  0  0  0  0  0  0  0  0  0
   -6.0040   20.0250  -33.4610 C   0  0  0  0  0  0  0  0  0  0  0  0
   -5.0980   21.0030  -33.0420 C   0  0  0  0  0  0  0  0  0  0  0  0
   -5.6191   25.7711  -29.4206 H   0  0  0  0  0  0  0  0  0  0  0  0
   -5.3865   26.6387  -30.9763 H   0  0  0  0  0  0  0  0  0  0  0  0
   -5.8621   24.9065  -30.9763 H   0  0  0  0  0  0  0  0  0  0  0  0
   -2.2365   24.8139  -28.3770 H   0  0  0  0  0  0  0  0  0  0  0  0
   -1.3580   22.5759  -27.7205 H   0  0  0  0  0  0  0  0  0  0  0  0
   -2.0016   20.5473  -29.0231 H   0  0  0  0  0  0  0  0  0  0  0  0
   -3.5485   20.7499  -30.9680 H   0  0  0  0  0  0  0  0  0  0  0  0
   -7.2826   22.9599  -31.2809 H   0  0  0  0  0  0  0  0  0  0  0  0
   -8.8431   21.1798  -32.0764 H   0  0  0  0  0  0  0  0  0  0  0  0
   -7.9800   19.3740  -33.4330 H   0  0  0  0  0  0  0  0  0  0  0  0
   -5.6550   19.1818  -34.0752 H   0  0  0  0  0  0  0  0  0  0  0  0
   -4.0365   20.9266  -33.3200 H   0  0  0  0  0  0  0  0  0  0  0  0
  1  2  1  0
  2  3  1  0
  3  4  2  0
  4  5  1  0
  5  6  2  0
  6  7  1  0
  7  8  2  0
  8  9  1  0
  9 10  2  3
 10 11  1  0
 11 12  2  0
 12 13  1  0
 13 14  1  0
 14 15  2  0
  8  3  1  0
 15 10  1  0
  1 16  1  0
  1 17  1  0
  1 18  1  0
  4 19  1  0
  5 20  1  0
  6 21  1  0
  7 22  1  0
 11 23  1  0
 12 24  1  0
 13 25  1  0
 14 26  1  0
 15 27  1  0
M  END
>  <UniqueID>  (12) 
12

>  <SMILES>  (12) 
COc1ccccc1N=c1cc[nH]cc1

>  <Energy>  (12) 
37.057778040170575

>  <Genealogy>  (12) 
COc1ccccc1N=c1cc[nH]cc1 (3D coordinates assigned)
COc1ccccc1N=c1cc[nH]cc1 (optimized conformer: 37.057778040170575 kcal/mol)

>  <smiles>  (12) 
COc1ccccc1N=c1cc[nH]cc1

>  <score_type>  (12) 
oracle

>  <origin>  (12) 
adg

>  <m_score__min__energy>  (12) 
-5.9699999999999998

>  <m_primary>  (12) 
energy

$$$$
12:0
     RDKit          3D

 52 55  0  0  0  0  0  0  0  0999 V2000
   -3.3740   20.8190  -33.1490 C   0  0  0  0  0  0  0  0  0  0  0  0
   -2.2660   21.0740  -32.3470 C   0  0  0  0  0  0  0  0  0  0  0  0
   -2.3510   22.0380  -31.3380 C   0  0  0  0  0  0  0  0  0  0  0  0
   -1.2350   22.3110  -30.5320 C   0  0  0  0  0  0  0  0  0  0  0  0
   -1.3120   23.2830  -29.5340 C   0  0  0  0  0  0  0  0  0  0  0  0
   -2.5110   23.9710  -29.3120 C   0  0  0  0  0  0  0  0  0  0  0  0
   -3.6290   23.7130  -30.1140 C   0  0  0  0  0  0  0  0  0  0  0  0
   -3.5640   22.7440  -31.1390 C   0  0  0  0  0  0  0  0  0  0  0  0
   -4.6700   22.4460  -31.9790 C   0  0  0  0  0  0  0  0  0  0  0  0
   -5.9940   23.1690  -31.8520 C   0  0  0  0  0  0  0  0  0  0  0  0
   -7.0160   22.5350  -32.6960 N   0  0  0  0  0  0  0  0  0  0  0  0
   -8.2690   22.3330  -31.9580 C   0  0  0  0  0  0  0  0  0  0  0  0
   -8.5460   20.8350  -31.8080 C   0  0  0  0  0  0  0  0  0  0  0  0
   -8.0610   20.0570  -33.0440 C   0  0  0  0  0  0  0  0  0  0  0  0
   -6.6420   19.6440  -32.9670 N   0  0  0  0  0  0  0  0  0  0  0  0
   -6.1010   19.0370  -34.2040 C   0  0  0  0  0  0  0  0  0  0  0  0
   -5.7300   17.5590  -34.0190 C   0  0  0  0  0  0  0  0  0  0  0  0
   -6.6170   16.9490  -33.1110 O   0  0  0  0  0  0  0  0  0  0  0  0
   -6.3570   17.4200  -31.8030 C   0  0  0  0  0  0  0  0  0  0  0  0
   -6.2570   18.9630  -31.7140 C   0  0  0  0  0  0  0  0  0  0  0  0
   -4.5340   21.5000  -32.9560 N   0  0  0  0  0  0  0  0  0  0  0  0
   -2.5720   24.9270  -28.2460 N   0  0  0  0  0  0  0  0  0  0  0  0
   -1.5030   24.9850  -27.2490 C   0  0  0  0  0  0  0  0  0  0  0  0
   -0.1460   24.7430  -27.9210 C   0  0  0  0  0  0  0  0  0  0  0  0
   -0.1940   23.5750  -28.7430 O   0  0  0  0  0  0  0  0  0  0  0  0
   -3.3106   20.0615  -33.9441 H   0  0  0  0  0  0  0  0  0  0  0  0
   -1.3288   20.5205  -32.5059 H   0  0  0  0  0  0  0  0  0  0  0  0
   -0.2973   21.7573  -30.6875 H   0  0  0  0  0  0  0  0  0  0  0  0
   -4.5634   24.2683  -29.9447 H   0  0  0  0  0  0  0  0  0  0  0  0
   -6.3227   23.1385  -30.8027 H   0  0  0  0  0  0  0  0  0  0  0  0
   -5.8608   24.2103  -32.1805 H   0  0  0  0  0  0  0  0  0  0  0  0
   -7.2160   23.1870  -33.4900 H   0  0  0  0  0  0  0  0  0  0  0  0
   -8.1836   22.7903  -30.9612 H   0  0  0  0  0  0  0  0  0  0  0  0
   -9.0962   22.8020  -32.5110 H   0  0  0  0  0  0  0  0  0  0  0  0
   -8.0203   20.4595  -30.9177 H   0  0  0  0  0  0  0  0  0  0  0  0
   -9.6314   20.6882  -31.7057 H   0  0  0  0  0  0  0  0  0  0  0  0
   -8.6803   19.1542  -33.1513 H   0  0  0  0  0  0  0  0  0  0  0  0
   -8.1529   20.7335  -33.9065 H   0  0  0  0  0  0  0  0  0  0  0  0
   -6.8604   19.1138  -34.9961 H   0  0  0  0  0  0  0  0  0  0  0  0
   -5.1831   19.5816  -34.4702 H   0  0  0  0  0  0  0  0  0  0  0  0
   -5.7909   17.0441  -34.9891 H   0  0  0  0  0  0  0  0  0  0  0  0
   -4.7057   17.4909  -33.6237 H   0  0  0  0  0  0  0  0  0  0  0  0
   -7.1708   17.0846  -31.1433 H   0  0  0  0  0  0  0  0  0  0  0  0
   -5.3813   17.0130  -31.4990 H   0  0  0  0  0  0  0  0  0  0  0  0
   -6.9210   19.3106  -30.9088 H   0  0  0  0  0  0  0  0  0  0  0  0
   -5.2037   19.2116  -31.5170 H   0  0  0  0  0  0  0  0  0  0  0  0
   -5.3380   21.2810  -33.5870 H   0  0  0  0  0  0  0  0  0  0  0  0
   -3.4210   25.5230  -28.1190 H   0  0  0  0  0  0  0  0  0  0  0  0
   -1.5022   25.9767  -26.7730 H   0  0  0  0  0  0  0  0  0  0  0  0
   -1.6742   24.2073  -26.4901 H   0  0  0  0  0  0  0  0  0  0  0  0
    0.1096   25.6131  -28.5435 H   0  0  0  0  0  0  0  0  0  0  0  0
    0.6156   24.5970  -27.1408 H   0  0  0  0  0  0  0  0  0  0  0  0
  1  2  2  0
  2  3  1  0
  3  4  2  0
  4  5  1  0
  5  6  2  0
  6  7  1  0
  7  8  2  0
  8  9  1  0
  9 10  1  0
 10 11  1  0
 11 12  1  0
 12 13  1  0
 13 14  1  0
 14 15  1  0
 15 16  1  0
 16 17  1  0
 17 18  1  0
 18 19  1  0
 19 20  1  0
  9 21  2  0
  6 22  1  0
 22 23  1  0
 23 24  1  0
 24 25  1  0
 21  1  1  0
  8  3  1  0
 20 15  1  0
 25  5  1  0
  1 26  1  0
  2 27  1  0
  4 28  1  0
  7 29  1  0
 10 30  1  0
 10 31  1  0
 11 32  1  0
 12 33  1  0
 12 34  1  0
 13 35  1  0
 13 36  1  0
 14 37  1  0
 14 38  1  0
 16 39  1  0
 16 40  1  0
 17 41  1  0
 17 42  1  0
 19 43  1  0
 19 44  1  0
 20 45  1  0
 20 46  1  0
 21 47  1  0
 22 48  1  0
 23 49  1  0
 23 50  1  0
 24 51  1  0
 24 52  1  0
M  CHG  1  21   1
M  END
>  <UniqueID>  (13) 
13

>  <SMILES>  (13) 
c1cc2cc3c(cc2c(CNCCCN2CCOCC2)[nH+]1)NCCO3

>  <Energy>  (13) 
69.74806428460839

>  <Genealogy>  (13) 
c1cc2cc3c(cc2c(CNCCCN2CCOCC2)[nH+]1)NCCO3 (protonated)
c1cc2cc3c(cc2c(CNCCCN2CCOCC2)[nH+]1)NCCO3 (3D coordinates assigned)
c1cc2cc3c(cc2c(CNCCCN2CCOCC2)[nH+]1)NCCO3 (nonaromatic ring conformer: 69.74806428460839 kcal/mol)

>  <smiles>  (13) 
c1cc2cc3c(cc2c(CNCCCN2CCOCC2)n1)NCCO3

>  <score_type>  (13) 
oracle

>  <origin>  (13) 
adg

>  <m_score__min__energy>  (13) 
-7.9000000000000004

>  <m_primary>  (13) 
energy

$$$$
13:0
     RDKit          3D

 47 48  0  0  0  0  0  0  0  0999 V2000
   -6.1660   24.5020  -30.8630 C   0  0  0  0  0  0  0  0  0  0  0  0
   -5.2740   25.6780  -30.4820 C   0  0  0  0  0  0  0  0  0  0  0  0
   -3.8670   25.2930  -30.5170 N   0  0  0  0  0  0  0  0  0  0  0  0
   -3.1320   24.8480  -29.3720 C   0  0  0  0  0  0  0  0  0  0  0  0
   -1.9600   25.2640  -29.1610 O   0  0  0  0  0  0  0  0  0  0  0  0
   -3.7570   23.8680  -28.4270 C   0  0  0  0  0  0  0  0  0  0  0  0
   -4.0140   22.5050  -29.0880 C   0  0  0  0  0  0  0  0  0  0  0  0
   -2.7620   21.9310  -29.7330 C   0  0  0  0  0  0  0  0  0  0  0  0
   -1.7530   21.3010  -28.9560 C   0  0  0  0  0  0  0  0  0  0  0  0
   -1.8260   21.2360  -27.4520 C   0  0  0  0  0  0  0  0  0  0  0  0
   -0.6180   20.7750  -29.5940 C   0  0  0  0  0  0  0  0  0  0  0  0
   -0.4790   20.8570  -30.9770 C   0  0  0  0  0  0  0  0  0  0  0  0
   -1.4600   21.4760  -31.7440 C   0  0  0  0  0  0  0  0  0  0  0  0
   -2.6030   22.0240  -31.1360 C   0  0  0  0  0  0  0  0  0  0  0  0
   -3.5990   22.6670  -31.8910 O   0  0  0  0  0  0  0  0  0  0  0  0
   -4.5670   22.0220  -32.7210 C   0  0  0  0  0  0  0  0  0  0  0  0
   -4.9180   20.6290  -32.1840 C   0  0  0  0  0  0  0  0  0  0  0  0
   -6.4070   20.4020  -32.1980 C   0  0  0  0  0  0  0  0  0  0  0  0
   -7.2910   21.4710  -31.9660 C   0  0  0  0  0  0  0  0  0  0  0  0
   -8.6710   21.2480  -31.9250 C   0  0  0  0  0  0  0  0  0  0  0  0
   -9.1780   19.9590  -32.1110 C   0  0  0  0  0  0  0  0  0  0  0  0
   -8.3050   18.8910  -32.3370 C   0  0  0  0  0  0  0  0  0  0  0  0
   -6.9240   19.1090  -32.3770 C   0  0  0  0  0  0  0  0  0  0  0  0
   -6.5372   24.0126  -29.9505 H   0  0  0  0  0  0  0  0  0  0  0  0
   -7.0178   24.8652  -31.4567 H   0  0  0  0  0  0  0  0  0  0  0  0
   -5.5866   23.7796  -31.4567 H   0  0  0  0  0  0  0  0  0  0  0  0
   -5.4404   26.5018  -31.1918 H   0  0  0  0  0  0  0  0  0  0  0  0
   -5.5274   25.9965  -29.4600 H   0  0  0  0  0  0  0  0  0  0  0  0
   -3.0832   23.7241  -27.5695 H   0  0  0  0  0  0  0  0  0  0  0  0
   -4.7276   24.2773  -28.1102 H   0  0  0  0  0  0  0  0  0  0  0  0
   -4.3711   21.8017  -28.3212 H   0  0  0  0  0  0  0  0  0  0  0  0
   -4.7637   22.6510  -29.8796 H   0  0  0  0  0  0  0  0  0  0  0  0
   -1.0708   21.9084  -27.0189 H   0  0  0  0  0  0  0  0  0  0  0  0
   -2.8275   21.5469  -27.1197 H   0  0  0  0  0  0  0  0  0  0  0  0
   -1.6329   20.2053  -27.1197 H   0  0  0  0  0  0  0  0  0  0  0  0
    0.1691   20.2934  -28.9952 H   0  0  0  0  0  0  0  0  0  0  0  0
    0.4100   20.4306  -31.4646 H   0  0  0  0  0  0  0  0  0  0  0  0
   -1.3406   21.5374  -32.8358 H   0  0  0  0  0  0  0  0  0  0  0  0
   -5.4796   22.6354  -32.7511 H   0  0  0  0  0  0  0  0  0  0  0  0
   -4.1418   21.9096  -33.7293 H   0  0  0  0  0  0  0  0  0  0  0  0
   -4.4327   19.8685  -32.8134 H   0  0  0  0  0  0  0  0  0  0  0  0
   -4.5630   20.5551  -31.1455 H   0  0  0  0  0  0  0  0  0  0  0  0
   -6.8954   22.4864  -31.8162 H   0  0  0  0  0  0  0  0  0  0  0  0
   -9.3582   22.0881  -31.7461 H   0  0  0  0  0  0  0  0  0  0  0  0
  -10.2637   19.7850  -32.0796 H   0  0  0  0  0  0  0  0  0  0  0  0
   -8.7050   17.8769  -32.4837 H   0  0  0  0  0  0  0  0  0  0  0  0
   -6.2406   18.2645  -32.5493 H   0  0  0  0  0  0  0  0  0  0  0  0
  1  2  1  0
  2  3  1  0
  3  4  1  0
  4  5  2  0
  4  6  1  0
  6  7  1  0
  7  8  1  0
  8  9  2  0
  9 10  1  0
  9 11  1  0
 11 12  2  0
 12 13  1  0
 13 14  2  0
 14 15  1  0
 15 16  1  0
 16 17  1  0
 17 18  1  0
 18 19  2  0
 19 20  1  0
 20 21  2  0
 21 22  1  0
 22 23  2  0
 14  8  1  0
 23 18  1  0
  1 24  1  0
  1 25  1  0
  1 26  1  0
  2 27  1  0
  2 28  1  0
  6 29  1  0
  6 30  1  0
  7 31  1  0
  7 32  1  0
 10 33  1  0
 10 34  1  0
 10 35  1  0
 11 36  1  0
 12 37  1  0
 13 38  1  0
 16 39  1  0
 16 40  1  0
 17 41  1  0
 17 42  1  0
 19 43  1  0
 20 44  1  0
 21 45  1  0
 22 46  1  0
 23 47  1  0
M  CHG  1   3  -1
M  END
>  <UniqueID>  (14) 
14

>  <SMILES>  (14) 
CC[N-]C(=O)CCc1c(C)cccc1OCCc1ccccc1

>  <Energy>  (14) 
35.47475540031216

>  <Genealogy>  (14) 
CC[N-]C(=O)CCc1c(C)cccc1OCCc1ccccc1 (protonated)
CC[N-]C(=O)CCc1c(C)cccc1OCCc1ccccc1 (3D coordinates assigned)
CC[N-]C(=O)CCc1c(C)cccc1OCCc1ccccc1 (optimized conformer: 35.47475540031216 kcal/mol)

>  <smiles>  (14) 
CCNC(=O)CCc1c(C)cccc1OCCc1ccccc1

>  <score_type>  (14) 
oracle

>  <origin>  (14) 
adg

>  <m_score__min__energy>  (14) 
-9.9499999999999993

>  <m_primary>  (14) 
energy

$$$$
14:0
     RDKit          3D

 46 47  0  0  0  0  0  0  0  0999 V2000
   -0.8920   26.6130  -24.0660 C   0  0  0  0  0  0  0  0  0  0  0  0
   -0.0730   25.8050  -25.0650 C   0  0  0  0  0  0  0  0  0  0  0  0
   -0.2980   26.2740  -26.3940 O   0  0  0  0  0  0  0  0  0  0  0  0
   -0.4840   25.4250  -27.4910 C   0  0  0  0  0  0  0  0  0  0  0  0
    0.5060   24.9070  -28.0770 O   0  0  0  0  0  0  0  0  0  0  0  0
   -1.8760   25.1140  -27.9640 C   0  0  0  0  0  0  0  0  0  0  0  0
   -2.7940   24.8170  -26.7720 C   0  0  0  0  0  0  0  0  0  0  0  0
   -4.2290   24.5460  -27.2590 C   0  0  0  0  0  0  0  0  0  0  0  0
   -4.3080   23.6450  -28.4370 N   0  0  0  0  0  0  0  0  0  0  0  0
   -5.0290   24.4350  -29.8220 S   0  0  0  0  0  0  0  0  0  0  0  0
   -3.9620   25.0360  -30.6940 O   0  0  0  0  0  0  0  0  0  0  0  0
   -5.9590   25.5300  -29.3770 O   0  0  0  0  0  0  0  0  0  0  0  0
   -5.9170   23.2410  -30.7670 C   0  0  0  0  0  0  0  0  0  0  0  0
   -7.3130   23.2700  -30.7770 C   0  0  0  0  0  0  0  0  0  0  0  0
   -8.0330   22.3440  -31.5350 C   0  0  0  0  0  0  0  0  0  0  0  0
   -7.3590   21.3720  -32.2990 C   0  0  0  0  0  0  0  0  0  0  0  0
   -8.0530   20.4270  -33.0750 O   0  0  0  0  0  0  0  0  0  0  0  0
   -8.8030   19.3390  -32.5440 C   0  0  0  0  0  0  0  0  0  0  0  0
   -5.9520   21.3420  -32.2900 C   0  0  0  0  0  0  0  0  0  0  0  0
   -5.2130   20.3190  -33.1080 C   0  0  0  0  0  0  0  0  0  0  0  0
   -5.2380   22.2800  -31.5270 C   0  0  0  0  0  0  0  0  0  0  0  0
   -3.0430   22.9680  -28.7870 C   0  0  0  0  0  0  0  0  0  0  0  0
   -1.8690   23.9470  -28.9800 C   0  0  0  0  0  0  0  0  0  0  0  0
   -0.6050   26.3299  -23.0425 H   0  0  0  0  0  0  0  0  0  0  0  0
   -0.7003   27.6856  -24.2171 H   0  0  0  0  0  0  0  0  0  0  0  0
   -1.9619   26.4069  -24.2171 H   0  0  0  0  0  0  0  0  0  0  0  0
    0.9951   25.9054  -24.8221 H   0  0  0  0  0  0  0  0  0  0  0  0
   -0.3792   24.7502  -25.0043 H   0  0  0  0  0  0  0  0  0  0  0  0
   -2.2727   25.9986  -28.4838 H   0  0  0  0  0  0  0  0  0  0  0  0
   -2.4191   23.9323  -26.2366 H   0  0  0  0  0  0  0  0  0  0  0  0
   -2.8020   25.6879  -26.1001 H   0  0  0  0  0  0  0  0  0  0  0  0
   -4.7931   24.0866  -26.4339 H   0  0  0  0  0  0  0  0  0  0  0  0
   -4.6470   25.5145  -27.5710 H   0  0  0  0  0  0  0  0  0  0  0  0
   -7.8486   24.0264  -30.1846 H   0  0  0  0  0  0  0  0  0  0  0  0
   -9.1326   22.3741  -31.5352 H   0  0  0  0  0  0  0  0  0  0  0  0
   -8.7766   19.3773  -31.4450 H   0  0  0  0  0  0  0  0  0  0  0  0
   -9.8453   19.4094  -32.8884 H   0  0  0  0  0  0  0  0  0  0  0  0
   -8.3664   18.3899  -32.8884 H   0  0  0  0  0  0  0  0  0  0  0  0
   -4.7025   19.6123  -32.4372 H   0  0  0  0  0  0  0  0  0  0  0  0
   -5.9260   19.7723  -33.7426 H   0  0  0  0  0  0  0  0  0  0  0  0
   -4.4699   20.8241  -33.7426 H   0  0  0  0  0  0  0  0  0  0  0  0
   -4.1382   22.2600  -31.5261 H   0  0  0  0  0  0  0  0  0  0  0  0
   -2.7856   22.2670  -27.9793 H   0  0  0  0  0  0  0  0  0  0  0  0
   -3.2009   22.4510  -29.7450 H   0  0  0  0  0  0  0  0  0  0  0  0
   -0.9271   23.3902  -28.8666 H   0  0  0  0  0  0  0  0  0  0  0  0
   -1.9708   24.3862  -29.9834 H   0  0  0  0  0  0  0  0  0  0  0  0
  1  2  1  0
  2  3  1  0
  3  4  1  0
  4  5  2  0
  4  6  1  0
  6  7  1  0
  7  8  1  0
  8  9  1  0
  9 10  1  0
 10 11  2  0
 10 12  2  0
 10 13  1  0
 13 14  2  0
 14 15  1  0
 15 16  2  0
 16 17  1  0
 17 18  1  0
 16 19  1  0
 19 20  1  0
 19 21  2  0
  9 22  1  0
 22 23  1  0
 23  6  1  0
 21 13  1  0
  1 24  1  0
  1 25  1  0
  1 26  1  0
  2 27  1  0
  2 28  1  0
  6 29  1  0
  7 30  1  0
  7 31  1  0
  8 32  1  0
  8 33  1  0
 14 34  1  0
 15 35  1  0
 18 36  1  0
 18 37  1  0
 18 38  1  0
 20 39  1  0
 20 40  1  0
 20 41  1  0
 21 42  1  0
 22 43  1  0
 22 44  1  0
 23 45  1  0
 23 46  1  0
M  END
>  <UniqueID>  (15) 
15

>  <SMILES>  (15) 
CCOC(=O)C1CCN(S(=O)(=O)c2ccc(OC)c(C)c2)CC1

>  <Energy>  (15) 
47.10969922460097

>  <Genealogy>  (15) 
CCOC(=O)C1CCN(S(=O)(=O)c2ccc(OC)c(C)c2)CC1 (3D coordinates assigned)
CCOC(=O)C1CCN(S(=O)(=O)c2ccc(OC)c(C)c2)CC1 (nonaromatic ring conformer: 47.10969922460097 kcal/mol)

>  <smiles>  (15) 
CCOC(=O)C1CCN(S(=O)(=O)c2ccc(OC)c(C)c2)CC1

>  <score_type>  (15) 
oracle

>  <origin>  (15) 
adg

>  <m_score__min__energy>  (15) 
-8.4399999999999995

>  <m_primary>  (15) 
energy

$$$$
15:0
     RDKit          3D

 47 48  0  0  0  0  0  0  0  0999 V2000
   -1.7430   20.8180  -30.2800 C   0  0  0  0  0  0  0  0  0  0  0  0
   -2.5460   21.9230  -29.6860 C   0  0  0  0  0  0  0  0  0  0  0  0
   -3.0670   21.8410  -28.3960 C   0  0  0  0  0  0  0  0  0  0  0  0
   -3.8080   22.8400  -27.8290 C   0  0  0  0  0  0  0  0  0  0  0  0
   -4.0690   23.9800  -28.5220 C   0  0  0  0  0  0  0  0  0  0  0  0
   -3.5670   24.1030  -29.8160 C   0  0  0  0  0  0  0  0  0  0  0  0
   -3.8650   25.2860  -30.4780 O   0  0  0  0  0  0  0  0  0  0  0  0
   -5.2040   25.7260  -30.3980 C   0  0  0  0  0  0  0  0  0  0  0  0
   -6.0440   24.7460  -31.2350 C   0  0  0  0  0  0  0  0  0  0  0  0
   -7.0630   24.1680  -30.2870 C   0  0  0  0  0  0  0  0  0  0  0  0
   -6.9840   22.6510  -30.2850 C   0  0  0  0  0  0  0  0  0  0  0  0
   -8.1960   22.0900  -30.9460 C   0  0  0  0  0  0  0  0  0  0  0  0
   -7.8790   21.4820  -32.2870 C   0  0  0  0  0  0  0  0  0  0  0  0
   -7.1010   20.2430  -32.1940 C   0  0  0  0  0  0  0  0  0  0  0  0
   -7.5200   18.9380  -31.9340 C   0  0  0  0  0  0  0  0  0  0  0  0
   -8.8840   18.4600  -31.6230 C   0  0  0  0  0  0  0  0  0  0  0  0
   -6.4440   18.1140  -31.9790 N   0  0  0  0  0  0  0  0  0  0  0  0
   -5.3600   18.8270  -32.2540 N   0  0  0  0  0  0  0  0  0  0  0  0
   -5.7210   20.1180  -32.3900 C   0  0  0  0  0  0  0  0  0  0  0  0
   -4.8140   21.2530  -32.7000 C   0  0  0  0  0  0  0  0  0  0  0  0
   -2.8190   23.0850  -30.3790 C   0  0  0  0  0  0  0  0  0  0  0  0
   -1.3022   20.2114  -29.4752 H   0  0  0  0  0  0  0  0  0  0  0  0
   -2.3935   20.1853  -30.9018 H   0  0  0  0  0  0  0  0  0  0  0  0
   -0.9403   21.2413  -30.9018 H   0  0  0  0  0  0  0  0  0  0  0  0
   -2.8733   20.9318  -27.8079 H   0  0  0  0  0  0  0  0  0  0  0  0
   -4.1952   22.7208  -26.8063 H   0  0  0  0  0  0  0  0  0  0  0  0
   -4.6637   24.7880  -28.0709 H   0  0  0  0  0  0  0  0  0  0  0  0
   -5.5435   25.7180  -29.3517 H   0  0  0  0  0  0  0  0  0  0  0  0
   -5.3050   26.7544  -30.7750 H   0  0  0  0  0  0  0  0  0  0  0  0
   -6.5442   25.2764  -32.0587 H   0  0  0  0  0  0  0  0  0  0  0  0
   -5.4201   23.9612  -31.6876 H   0  0  0  0  0  0  0  0  0  0  0  0
   -6.8667   24.5425  -29.2715 H   0  0  0  0  0  0  0  0  0  0  0  0
   -8.0680   24.4725  -30.6145 H   0  0  0  0  0  0  0  0  0  0  0  0
   -6.0857   22.3298  -30.8327 H   0  0  0  0  0  0  0  0  0  0  0  0
   -6.9304   22.2878  -29.2481 H   0  0  0  0  0  0  0  0  0  0  0  0
   -8.6266   21.3132  -30.2971 H   0  0  0  0  0  0  0  0  0  0  0  0
   -8.9066   22.9141  -31.1069 H   0  0  0  0  0  0  0  0  0  0  0  0
   -8.8253   21.2619  -32.8028 H   0  0  0  0  0  0  0  0  0  0  0  0
   -7.2658   22.2105  -32.8376 H   0  0  0  0  0  0  0  0  0  0  0  0
   -9.0164   18.4136  -30.5320 H   0  0  0  0  0  0  0  0  0  0  0  0
   -9.6223   19.1530  -32.0528 H   0  0  0  0  0  0  0  0  0  0  0  0
   -9.0282   17.4578  -32.0528 H   0  0  0  0  0  0  0  0  0  0  0  0
   -4.3890   18.4550  -32.3490 H   0  0  0  0  0  0  0  0  0  0  0  0
   -4.4550   21.7022  -31.7623 H   0  0  0  0  0  0  0  0  0  0  0  0
   -3.9561   20.8879  -33.2836 H   0  0  0  0  0  0  0  0  0  0  0  0
   -5.3593   22.0093  -33.2836 H   0  0  0  0  0  0  0  0  0  0  0  0
   -2.4330   23.2041  -31.4021 H   0  0  0  0  0  0  0  0  0  0  0  0
  1  2  1  0
  2  3  2  0
  3  4  1  0
  4  5  2  0
  5  6  1  0
  6  7  1  0
  7  8  1  0
  8  9  1  0
  9 10  1  0
 10 11  1  0
 11 12  1  0
 12 13  1  0
 13 14  1  0
 14 15  1  0
 15 16  1  0
 15 17  2  0
 17 18  1  0
 18 19  1  0
 19 20  1  0
  6 21  2  0
 21  2  1  0
 19 14  2  0
  1 22  1  0
  1 23  1  0
  1 24  1  0
  3 25  1  0
  4 26  1  0
  5 27  1  0
  8 28  1  0
  8 29  1  0
  9 30  1  0
  9 31  1  0
 10 32  1  0
 10 33  1  0
 11 34  1  0
 11 35  1  0
 12 36  1  0
 12 37  1  0
 13 38  1  0
 13 39  1  0
 16 40  1  0
 16 41  1  0
 16 42  1  0
 18 43  1  0
 20 44  1  0
 20 45  1  0
 20 46  1  0
 21 47  1  0
M  END
>  <smiles>  (16) 
Cc1cccc(OCCCCCCc2c(C)n[nH]c2C)c1

>  <score_type>  (16) 
oracle

>  <origin>  (16) 
adg

>  <m_score__min__energy>  (16) 
-8.4000000000000004

>  <m_primary>  (16) 
energy

$$$$
16:0
     RDKit          3D

 47 50  0  0  0  0  0  0  0  0999 V2000
   -4.0000   22.3260  -28.4950 C   0  0  0  0  0  0  0  0  0  0  0  0
   -3.0100   23.4380  -28.6700 C   0  0  0  0  0  0  0  0  0  0  0  0
   -1.8250   23.5800  -27.9790 C   0  0  0  0  0  0  0  0  0  0  0  0
   -1.2610   24.7550  -28.4380 C   0  0  0  0  0  0  0  0  0  0  0  0
   -2.0370   25.2960  -29.3520 O   0  0  0  0  0  0  0  0  0  0  0  0
   -3.0930   24.5340  -29.5200 C   0  0  0  0  0  0  0  0  0  0  0  0
   -4.1750   24.8550  -30.4650 C   0  0  0  0  0  0  0  0  0  0  0  0
   -4.6190   26.0320  -30.5160 O   0  0  0  0  0  0  0  0  0  0  0  0
   -4.6840   23.8500  -31.3470 N   0  0  0  0  0  0  0  0  0  0  0  0
   -5.9440   23.1740  -31.2350 C   0  0  0  0  0  0  0  0  0  0  0  0
   -6.8050   23.3810  -30.1430 C   0  0  0  0  0  0  0  0  0  0  0  0
   -7.9850   22.6400  -30.0270 C   0  0  0  0  0  0  0  0  0  0  0  0
   -8.3050   21.6760  -30.9870 C   0  0  0  0  0  0  0  0  0  0  0  0
   -7.4480   21.4520  -32.0760 C   0  0  0  0  0  0  0  0  0  0  0  0
   -7.7690   20.3770  -33.0780 C   0  0  0  0  0  0  0  0  0  0  0  0
   -8.4620   18.9090  -32.2370 S   0  0  0  0  0  0  0  0  0  0  0  0
   -6.8790   18.1780  -31.6660 C   0  0  0  0  0  0  0  0  0  0  0  0
   -5.8560   18.2140  -32.7790 C   0  0  0  0  0  0  0  0  0  0  0  0
   -6.0700   17.4130  -33.9150 C   0  0  0  0  0  0  0  0  0  0  0  0
   -5.1440   17.4100  -34.9560 C   0  0  0  0  0  0  0  0  0  0  0  0
   -4.0280   18.1780  -34.8820 N   0  0  0  0  0  0  0  0  0  0  0  0
   -3.7770   18.9750  -33.8110 C   0  0  0  0  0  0  0  0  0  0  0  0
   -2.6090   19.7470  -33.7870 C   0  0  0  0  0  0  0  0  0  0  0  0
   -2.3390   20.5780  -32.6990 C   0  0  0  0  0  0  0  0  0  0  0  0
   -3.2360   20.6450  -31.6290 C   0  0  0  0  0  0  0  0  0  0  0  0
   -4.4050   19.8760  -31.6360 C   0  0  0  0  0  0  0  0  0  0  0  0
   -4.6910   19.0250  -32.7250 C   0  0  0  0  0  0  0  0  0  0  0  0
   -6.2710   22.2080  -32.1950 C   0  0  0  0  0  0  0  0  0  0  0  0
   -4.1616   22.1444  -27.4222 H   0  0  0  0  0  0  0  0  0  0  0  0
   -4.9532   22.6060  -28.9672 H   0  0  0  0  0  0  0  0  0  0  0  0
   -3.6116   21.4116  -28.9672 H   0  0  0  0  0  0  0  0  0  0  0  0
   -1.4138   22.8988  -27.2195 H   0  0  0  0  0  0  0  0  0  0  0  0
   -0.3056   25.1753  -28.0908 H   0  0  0  0  0  0  0  0  0  0  0  0
   -6.5495   24.1284  -29.3774 H   0  0  0  0  0  0  0  0  0  0  0  0
   -8.6627   22.8161  -29.1786 H   0  0  0  0  0  0  0  0  0  0  0  0
   -9.2313   21.0910  -30.8889 H   0  0  0  0  0  0  0  0  0  0  0  0
   -8.5043   20.7621  -33.7998 H   0  0  0  0  0  0  0  0  0  0  0  0
   -6.8446   20.0869  -33.5988 H   0  0  0  0  0  0  0  0  0  0  0  0
   -6.5021   18.7529  -30.8072 H   0  0  0  0  0  0  0  0  0  0  0  0
   -7.0520   17.1325  -31.3710 H   0  0  0  0  0  0  0  0  0  0  0  0
   -6.9717   16.7866  -33.9819 H   0  0  0  0  0  0  0  0  0  0  0  0
   -5.3185   16.7820  -35.8421 H   0  0  0  0  0  0  0  0  0  0  0  0
   -1.9021   19.6982  -34.6284 H   0  0  0  0  0  0  0  0  0  0  0  0
   -1.4192   21.1811  -32.6833 H   0  0  0  0  0  0  0  0  0  0  0  0
   -3.0216   21.3062  -30.7764 H   0  0  0  0  0  0  0  0  0  0  0  0
   -5.1042   19.9350  -30.7889 H   0  0  0  0  0  0  0  0  0  0  0  0
   -5.5995   22.0401  -33.0500 H   0  0  0  0  0  0  0  0  0  0  0  0
  1  2  1  0
  2  3  1  0
  3  4  2  0
  4  5  1  0
  5  6  1  0
  6  7  1  0
  7  8  2  0
  7  9  1  0
  9 10  1  0
 10 11  2  0
 11 12  1  0
 12 13  2  0
 13 14  1  0
 14 15  1  0
 15 16  1  0
 16 17  1  0
 17 18  1  0
 18 19  2  0
 19 20  1  0
 20 21  2  0
 21 22  1  0
 22 23  2  0
 23 24  1  0
 24 25  2  0
 25 26  1  0
 26 27  2  0
 14 28  2  0
  6  2  2  0
 28 10  1  0
 27 18  1  0
 27 22  1  0
  1 29  1  0
  1 30  1  0
  1 31  1  0
  3 32  1  0
  4 33  1  0
 11 34  1  0
 12 35  1  0
 13 36  1  0
 15 37  1  0
 15 38  1  0
 17 39  1  0
 17 40  1  0
 19 41  1  0
 20 42  1  0
 23 43  1  0
 24 44  1  0
 25 45  1  0
 26 46  1  0
 28 47  1  0
M  CHG  1   9  -1
M  END
>  <UniqueID>  (17) 
16

>  <SMILES>  (17) 
Cc1ccoc1C(=O)[N-]c1cccc(CSCc2ccnc3ccccc23)c1

>  <Energy>  (17) 
81.68341625195059

>  <Genealogy>  (17) 
Cc1ccoc1C(=O)[N-]c1cccc(CSCc2ccnc3ccccc23)c1 (protonated)
Cc1ccoc1C(=O)[N-]c1cccc(CSCc2ccnc3ccccc23)c1 (3D coordinates assigned)
Cc1ccoc1C(=O)[N-]c1cccc(CSCc2ccnc3ccccc23)c1 (optimized conformer: 81.68341625195059 kcal/mol)

>  <smiles>  (17) 
Cc1ccoc1C(=O)Nc1cccc(CSCc2ccnc3ccccc23)c1

>  <score_type>  (17) 
oracle

>  <origin>  (17) 
adg

>  <m_score__min__energy>  (17) 
-11.710000000000001

>  <m_primary>  (17) 
energy

$$$$
17:0
     RDKit          3D

 32 34  0  0  0  0  0  0  0  0999 V2000
   -2.5130   24.5540  -29.2300 C   0  0  0  0  0  0  0  0  0  0  0  0
   -3.4840   25.0670  -30.1360 O   0  0  0  0  0  0  0  0  0  0  0  0
   -4.6680   24.4020  -30.4930 C   0  0  0  0  0  0  0  0  0  0  0  0
   -5.8870   25.0050  -30.1690 C   0  0  0  0  0  0  0  0  0  0  0  0
   -7.0920   24.3870  -30.5010 C   0  0  0  0  0  0  0  0  0  0  0  0
   -7.0910   23.1560  -31.1600 C   0  0  0  0  0  0  0  0  0  0  0  0
   -5.8790   22.5270  -31.4990 C   0  0  0  0  0  0  0  0  0  0  0  0
   -5.9020   21.2160  -32.2010 C   0  0  0  0  0  0  0  0  0  0  0  0
   -6.6860   20.1800  -31.7910 N   0  0  0  0  0  0  0  0  0  0  0  0
   -6.4080   19.2140  -32.6830 C   0  0  0  0  0  0  0  0  0  0  0  0
   -6.9310   17.9240  -32.7330 C   0  0  0  0  0  0  0  0  0  0  0  0
   -6.4930   17.0740  -33.7730 C   0  0  0  0  0  0  0  0  0  0  0  0
   -6.9950   15.6640  -33.8510 C   0  0  0  0  0  0  0  0  0  0  0  0
   -5.5270   17.5380  -34.7040 C   0  0  0  0  0  0  0  0  0  0  0  0
   -5.0220   18.8480  -34.6190 C   0  0  0  0  0  0  0  0  0  0  0  0
   -5.4940   19.6550  -33.5890 C   0  0  0  0  0  0  0  0  0  0  0  0
   -5.1600   20.9190  -33.3020 N   0  0  0  0  0  0  0  0  0  0  0  0
   -4.6670   23.1600  -31.1580 C   0  0  0  0  0  0  0  0  0  0  0  0
   -2.8465   24.7302  -28.1967 H   0  0  0  0  0  0  0  0  0  0  0  0
   -2.3907   23.4736  -29.3967 H   0  0  0  0  0  0  0  0  0  0  0  0
   -1.5516   25.0619  -29.3967 H   0  0  0  0  0  0  0  0  0  0  0  0
   -5.8956   25.9740  -29.6484 H   0  0  0  0  0  0  0  0  0  0  0  0
   -8.0458   24.8704  -30.2431 H   0  0  0  0  0  0  0  0  0  0  0  0
   -8.0459   22.6739  -31.4163 H   0  0  0  0  0  0  0  0  0  0  0  0
   -7.6615   17.5782  -31.9868 H   0  0  0  0  0  0  0  0  0  0  0  0
   -7.1359   15.2682  -32.8344 H   0  0  0  0  0  0  0  0  0  0  0  0
   -7.9549   15.6457  -34.3879 H   0  0  0  0  0  0  0  0  0  0  0  0
   -6.2626   15.0432  -34.3879 H   0  0  0  0  0  0  0  0  0  0  0  0
   -5.1701   16.8669  -35.4992 H   0  0  0  0  0  0  0  0  0  0  0  0
   -4.2806   19.2209  -35.3410 H   0  0  0  0  0  0  0  0  0  0  0  0
   -4.4810   21.5160  -33.8240 H   0  0  0  0  0  0  0  0  0  0  0  0
   -3.7109   22.6797  -31.4135 H   0  0  0  0  0  0  0  0  0  0  0  0
  1  2  1  0
  2  3  1  0
  3  4  2  0
  4  5  1  0
  5  6  2  0
  6  7  1  0
  7  8  1  0
  8  9  2  0
  9 10  1  0
 10 11  2  0
 11 12  1  0
 12 13  1  0
 12 14  2  0
 14 15  1  0
 15 16  2  0
 16 17  1  0
  7 18  2  0
 18  3  1  0
 17  8  1  0
 16 10  1  0
  1 19  1  0
  1 20  1  0
  1 21  1  0
  4 22  1  0
  5 23  1  0
  6 24  1  0
 11 25  1  0
 13 26  1  0
 13 27  1  0
 13 28  1  0
 14 29  1  0
 15 30  1  0
 17 31  1  0
 18 32  1  0
M  END
>  <UniqueID>  (18) 
17

>  <SMILES>  (18) 
COc1cccc(-c2nc3cc(C)ccc3[nH]2)c1

>  <Energy>  (18) 
70.97491138093207

>  <Genealogy>  (18) 
COc1cccc(-c2nc3cc(C)ccc3[nH]2)c1 (3D coordinates assigned)
COc1cccc(-c2nc3cc(C)ccc3[nH]2)c1 (optimized conformer: 70.97491138093207 kcal/mol)

>  <smiles>  (18) 
COc1cccc(-c2nc3cc(C)ccc3[nH]2)c1

>  <score_type>  (18) 
oracle

>  <origin>  (18) 
adg

>  <m_score__min__energy>  (18) 
-7.3799999999999999

>  <m_primary>  (18) 
energy

$$$$
18:0
     RDKit          3D

 36 38  0  0  0  0  0  0  0  0999 V2000
   -3.2050   19.6630  -33.7300 C   0  0  0  0  0  0  0  0  0  0  0  0
   -4.6640   19.7240  -33.3860 C   0  0  0  0  0  0  0  0  0  0  0  0
   -5.5200   18.6790  -33.7630 C   0  0  0  0  0  0  0  0  0  0  0  0
   -6.8700   18.7090  -33.4090 C   0  0  0  0  0  0  0  0  0  0  0  0
   -7.3830   19.7820  -32.6670 C   0  0  0  0  0  0  0  0  0  0  0  0
   -8.7380   19.8070  -32.3040 C   0  0  0  0  0  0  0  0  0  0  0  0
   -9.2460   20.8690  -31.5550 C   0  0  0  0  0  0  0  0  0  0  0  0
   -8.4100   21.9160  -31.1640 C   0  0  0  0  0  0  0  0  0  0  0  0
   -7.0550   21.9150  -31.5200 C   0  0  0  0  0  0  0  0  0  0  0  0
   -6.2310   23.0150  -31.1180 N   0  0  0  0  0  0  0  0  0  0  0  0
   -6.4620   24.3760  -31.5610 C   0  0  0  0  0  0  0  0  0  0  0  0
   -5.3440   25.1960  -30.9310 C   0  0  0  0  0  0  0  0  0  0  0  0
   -4.7950   24.3430  -29.7740 C   0  0  1  0  0  0  0  0  0  0  0  0
   -5.3650   24.7700  -28.4900 N   0  0  0  0  0  0  0  0  0  0  0  0
   -5.2000   22.9020  -30.1050 C   0  0  0  0  0  0  0  0  0  0  0  0
   -6.5270   20.8420  -32.2730 C   0  0  0  0  0  0  0  0  0  0  0  0
   -5.1650   20.7920  -32.6280 C   0  0  0  0  0  0  0  0  0  0  0  0
   -2.6108   19.6382  -32.8046 H   0  0  0  0  0  0  0  0  0  0  0  0
   -3.0047   18.7557  -34.3188 H   0  0  0  0  0  0  0  0  0  0  0  0
   -2.9297   20.5504  -34.3188 H   0  0  0  0  0  0  0  0  0  0  0  0
   -5.1252   17.8306  -34.3412 H   0  0  0  0  0  0  0  0  0  0  0  0
   -7.5343   17.8869  -33.7137 H   0  0  0  0  0  0  0  0  0  0  0  0
   -9.4026   18.9860  -32.6111 H   0  0  0  0  0  0  0  0  0  0  0  0
  -10.3088   20.8811  -31.2718 H   0  0  0  0  0  0  0  0  0  0  0  0
   -8.8181   22.7483  -30.5718 H   0  0  0  0  0  0  0  0  0  0  0  0
   -6.4145   24.4378  -32.6582 H   0  0  0  0  0  0  0  0  0  0  0  0
   -7.4566   24.7414  -31.2655 H   0  0  0  0  0  0  0  0  0  0  0  0
   -4.5527   25.3944  -31.6689 H   0  0  0  0  0  0  0  0  0  0  0  0
   -5.7094   26.1708  -30.5757 H   0  0  0  0  0  0  0  0  0  0  0  0
   -3.7044   24.4455  -29.6731 H   0  0  0  0  0  0  0  0  0  0  0  0
   -5.2120   24.0250  -27.7710 H   0  0  0  0  0  0  0  0  0  0  0  0
   -4.9200   25.6610  -28.1650 H   0  0  0  0  0  0  0  0  0  0  0  0
   -6.3950   24.9160  -28.5930 H   0  0  0  0  0  0  0  0  0  0  0  0
   -4.3383   22.3397  -30.4939 H   0  0  0  0  0  0  0  0  0  0  0  0
   -5.5578   22.3630  -29.2154 H   0  0  0  0  0  0  0  0  0  0  0  0
   -4.4883   21.5979  -32.3078 H   0  0  0  0  0  0  0  0  0  0  0  0
  1  2  1  0
  2  3  2  0
  3  4  1  0
  4  5  2  0
  5  6  1  0
  6  7  2  0
  7  8  1  0
  8  9  2  0
  9 10  1  0
 10 11  1  0
 11 12  1  0
 12 13  1  0
 13 14  1  0
 13 15  1  0
  9 16  1  0
 16 17  2  0
 17  2  1  0
 16  5  1  0
 15 10  1  0
  1 18  1  0
  1 19  1  0
  1 20  1  0
  3 21  1  0
  4 22  1  0
  6 23  1  0
  7 24  1  0
  8 25  1  0
 11 26  1  0
 11 27  1  0
 12 28  1  0
 12 29  1  0
 13 30  1  1
 14 31  1  0
 14 32  1  0
 14 33  1  0
 15 34  1  0
 15 35  1  0
 17 36  1  0
M  CHG  1  14   1
M  END
>  <UniqueID>  (19) 
18

>  <SMILES>  (19) 
Cc1ccc2cccc(N3CC[C@@H]([NH3+])C3)c2c1

>  <Energy>  (19) 
46.31032041215575

>  <Genealogy>  (19) 
Cc1ccc2cccc(N3CCC([NH3+])C3)c2c1 (protonated)
Cc1ccc2cccc(N3CC[C@@H]([NH3+])C3)c2c1 (chirality)
Cc1ccc2cccc(N3CC[C@@H]([NH3+])C3)c2c1 (3D coordinates assigned)
Cc1ccc2cccc(N3CC[C@@H]([NH3+])C3)c2c1 (nonaromatic ring conformer: 46.31032041215575 kcal/mol)

>  <smiles>  (19) 
Cc1ccc2cccc(N3CCC(N)C3)c2c1

>  <score_type>  (19) 
oracle

>  <origin>  (19) 
adg

>  <m_score__min__energy>  (19) 
-7.2000000000000002

>  <m_primary>  (19) 
energy

$$$$
19:0
     RDKit          3D

 52 55  0  0  0  0  0  0  0  0999 V2000
   -5.0730   19.1590  -33.7930 C   0  0  0  0  0  0  0  0  0  0  0  0
   -5.0700   20.4990  -33.3510 O   0  0  0  0  0  0  0  0  0  0  0  0
   -3.7690   21.0450  -33.4590 C   0  0  0  0  0  0  0  0  0  0  0  0
   -3.0360   20.9620  -32.1400 C   0  0  0  0  0  0  0  0  0  0  0  0
   -1.7870   20.3200  -32.0820 C   0  0  0  0  0  0  0  0  0  0  0  0
   -1.1100   20.1910  -30.8670 C   0  0  0  0  0  0  0  0  0  0  0  0
   -1.6740   20.6990  -29.6950 C   0  0  0  0  0  0  0  0  0  0  0  0
   -2.9130   21.3390  -29.7360 C   0  0  0  0  0  0  0  0  0  0  0  0
   -3.6000   21.4800  -30.9510 C   0  0  0  0  0  0  0  0  0  0  0  0
   -4.8730   22.1430  -30.9650 N   0  0  0  0  0  0  0  0  0  0  0  0
   -6.0160   21.5350  -31.2340 N   0  0  0  0  0  0  0  0  0  0  0  0
   -6.9980   22.4540  -31.2390 C   0  0  0  0  0  0  0  0  0  0  0  0
   -8.8330   22.0730  -31.5830 Br  0  0  0  0  0  0  0  0  0  0  0  0
   -6.4630   23.6980  -30.9690 C   0  0  0  0  0  0  0  0  0  0  0  0
   -5.1050   23.4670  -30.8090 C   0  0  0  0  0  0  0  0  0  0  0  0
   -4.0910   24.4840  -30.4560 C   0  0  0  0  0  0  0  0  0  0  0  0
   -4.2470   25.6730  -30.8380 O   0  0  0  0  0  0  0  0  0  0  0  0
   -2.8920   24.1370  -29.7530 N   0  0  0  0  0  0  0  0  0  0  0  0
   -2.3510   24.8280  -28.6190 C   0  0  0  0  0  0  0  0  0  0  0  0
   -1.2000   25.6070  -28.7850 C   0  0  0  0  0  0  0  0  0  0  0  0
   -0.6540   26.3020  -27.7020 C   0  0  0  0  0  0  0  0  0  0  0  0
   -1.2670   26.2420  -26.4400 C   0  0  0  0  0  0  0  0  0  0  0  0
   -0.6980   26.9440  -25.3190 N   0  0  0  0  0  0  0  0  0  0  0  0
   -0.4510   26.2080  -24.0720 C   0  0  0  0  0  0  0  0  0  0  0  0
   -0.0630   27.1620  -22.9380 C   0  0  0  0  0  0  0  0  0  0  0  0
    0.9670   28.0330  -23.3640 O   0  0  0  0  0  0  0  0  0  0  0  0
    0.4510   28.9680  -24.2930 C   0  0  0  0  0  0  0  0  0  0  0  0
   -0.1910   28.2830  -25.4660 C   0  0  0  0  0  0  0  0  0  0  0  0
   -0.3520   28.9180  -26.5450 O   0  0  0  0  0  0  0  0  0  0  0  0
   -2.4340   25.4810  -26.2780 C   0  0  0  0  0  0  0  0  0  0  0  0
   -2.9800   24.7870  -27.3620 C   0  0  0  0  0  0  0  0  0  0  0  0
   -5.0745   18.4859  -32.9230 H   0  0  0  0  0  0  0  0  0  0  0  0
   -5.9716   18.9752  -34.4003 H   0  0  0  0  0  0  0  0  0  0  0  0
   -4.1753   18.9712  -34.4003 H   0  0  0  0  0  0  0  0  0  0  0  0
   -3.2056   20.4846  -34.2196 H   0  0  0  0  0  0  0  0  0  0  0  0
   -3.8556   22.1034  -33.7460 H   0  0  0  0  0  0  0  0  0  0  0  0
   -1.3387   19.9156  -33.0015 H   0  0  0  0  0  0  0  0  0  0  0  0
   -0.1319   19.6889  -30.8335 H   0  0  0  0  0  0  0  0  0  0  0  0
   -1.1409   20.5945  -28.7385 H   0  0  0  0  0  0  0  0  0  0  0  0
   -3.3541   21.7356  -28.8096 H   0  0  0  0  0  0  0  0  0  0  0  0
   -6.1220   20.5160  -31.4350 H   0  0  0  0  0  0  0  0  0  0  0  0
   -6.9952   24.6580  -30.8969 H   0  0  0  0  0  0  0  0  0  0  0  0
   -0.7222   25.6727  -29.7736 H   0  0  0  0  0  0  0  0  0  0  0  0
    0.2600   26.8986  -27.8389 H   0  0  0  0  0  0  0  0  0  0  0  0
   -1.3644   25.6648  -23.7882 H   0  0  0  0  0  0  0  0  0  0  0  0
    0.3794   25.5060  -24.2384 H   0  0  0  0  0  0  0  0  0  0  0  0
   -0.9421   27.7547  -22.6448 H   0  0  0  0  0  0  0  0  0  0  0  0
    0.2958   26.5737  -22.0806 H   0  0  0  0  0  0  0  0  0  0  0  0
   -0.3004   29.5942  -23.7898 H   0  0  0  0  0  0  0  0  0  0  0  0
    1.2855   29.5802  -24.6656 H   0  0  0  0  0  0  0  0  0  0  0  0
   -2.9220   25.4299  -25.2935 H   0  0  0  0  0  0  0  0  0  0  0  0
   -3.9052   24.2067  -27.2310 H   0  0  0  0  0  0  0  0  0  0  0  0
  1  2  1  0
  2  3  1  0
  3  4  1  0
  4  5  2  0
  5  6  1  0
  6  7  2  0
  7  8  1  0
  8  9  2  0
  9 10  1  0
 10 11  1  0
 11 12  2  0
 12 13  1  0
 12 14  1  0
 14 15  2  0
 15 16  1  0
 16 17  2  0
 16 18  1  0
 18 19  1  0
 19 20  2  0
 20 21  1  0
 21 22  2  0
 22 23  1  0
 23 24  1  0
 24 25  1  0
 25 26  1  0
 26 27  1  0
 27 28  1  0
 28 29  2  0
 22 30  1  0
 30 31  2  0
  9  4  1  0
 15 10  1  0
 31 19  1  0
 28 23  1  0
  1 32  1  0
  1 33  1  0
  1 34  1  0
  3 35  1  0
  3 36  1  0
  5 37  1  0
  6 38  1  0
  7 39  1  0
  8 40  1  0
 11 41  1  0
 14 42  1  0
 20 43  1  0
 21 44  1  0
 24 45  1  0
 24 46  1  0
 25 47  1  0
 25 48  1  0
 27 49  1  0
 27 50  1  0
 30 51  1  0
 31 52  1  0
M  CHG  2  11   1  18  -1
M  END
>  <UniqueID>  (20) 
19

>  <SMILES>  (20) 
COCc1ccccc1-n1[nH+]c(Br)cc1C(=O)[N-]c1ccc(N2CCOCC2=O)cc1

>  <Energy>  (20) 
108.21317608779079

>  <Genealogy>  (20) 
COCc1ccccc1-n1[nH+]c(Br)cc1C(=O)[N-]c1ccc(N2CCOCC2=O)cc1 (protonated)
COCc1ccccc1-n1[nH+]c(Br)cc1C(=O)[N-]c1ccc(N2CCOCC2=O)cc1 (3D coordinates assigned)
COCc1ccccc1-n1[nH+]c(Br)cc1C(=O)[N-]c1ccc(N2CCOCC2=O)cc1 (nonaromatic ring conformer: 108.21317608779079 kcal/mol)

>  <smiles>  (20) 
COCc1ccccc1-n1nc(Br)cc1C(=O)Nc1ccc(N2CCOCC2=O)cc1

>  <score_type>  (20) 
oracle

>  <origin>  (20) 
adg

>  <m_score__min__energy>  (20) 
-10.630000000000001

>  <m_primary>  (20) 
energy

$$$$
20:0
     RDKit          3D

 29 30  0  0  0  0  0  0  0  0999 V2000
   -6.3370   20.8200  -31.9510 C   0  0  0  0  0  0  0  0  0  0  0  0
   -5.7610   22.1380  -31.5160 C   0  0  0  0  0  0  0  0  0  0  0  0
   -4.6330   22.1880  -30.6890 C   0  0  0  0  0  0  0  0  0  0  0  0
   -4.0950   23.3860  -30.3010 N   0  0  0  0  0  0  0  0  0  0  0  0
   -2.8900   23.4080  -29.4440 C   0  0  1  0  0  0  0  0  0  0  0  0
   -2.1880   24.6240  -29.6200 O   0  0  0  0  0  0  0  0  0  0  0  0
   -2.0010   25.2110  -28.3510 C   0  0  2  0  0  0  0  0  0  0  0  0
   -0.5460   25.0040  -27.8950 C   0  0  0  0  0  0  0  0  0  0  0  0
    0.2380   24.5420  -28.9630 O   0  0  0  0  0  0  0  0  0  0  0  0
   -3.0190   24.6010  -27.3920 C   0  0  2  0  0  0  0  0  0  0  0  0
   -2.5640   24.5300  -26.0830 F   0  0  0  0  0  0  0  0  0  0  0  0
   -3.2510   23.2360  -27.9660 C   0  0  1  0  0  0  0  0  0  0  0  0
   -4.5620   22.8300  -27.7740 F   0  0  0  0  0  0  0  0  0  0  0  0
   -4.6460   24.5530  -30.7710 C   0  0  0  0  0  0  0  0  0  0  0  0
   -4.1520   25.6720  -30.4620 O   0  0  0  0  0  0  0  0  0  0  0  0
   -5.7330   24.5200  -31.5850 N   0  0  0  0  0  0  0  0  0  0  0  0
   -6.2990   23.3500  -31.9660 C   0  0  0  0  0  0  0  0  0  0  0  0
   -7.3030   23.3660  -32.7270 O   0  0  0  0  0  0  0  0  0  0  0  0
   -6.5978   20.2233  -31.0645 H   0  0  0  0  0  0  0  0  0  0  0  0
   -7.2404   20.9956  -32.5535 H   0  0  0  0  0  0  0  0  0  0  0  0
   -5.5945   20.2763  -32.5535 H   0  0  0  0  0  0  0  0  0  0  0  0
   -4.1715   21.2505  -30.3454 H   0  0  0  0  0  0  0  0  0  0  0  0
   -2.2512   22.5646  -29.7451 H   0  0  0  0  0  0  0  0  0  0  0  0
   -2.1677   26.2979  -28.3799 H   0  0  0  0  0  0  0  0  0  0  0  0
   -0.1395   25.9601  -27.5335 H   0  0  0  0  0  0  0  0  0  0  0  0
   -0.5269   24.2570  -27.0877 H   0  0  0  0  0  0  0  0  0  0  0  0
   -0.3170   24.6270  -29.7820 H   0  0  0  0  0  0  0  0  0  0  0  0
   -3.9312   25.2112  -27.3180 H   0  0  0  0  0  0  0  0  0  0  0  0
   -2.6514   22.4479  -27.4870 H   0  0  0  0  0  0  0  0  0  0  0  0
  1  2  1  0
  2  3  2  0
  3  4  1  0
  4  5  1  0
  5  6  1  0
  6  7  1  0
  7  8  1  0
  8  9  1  0
  7 10  1  0
 10 11  1  0
 10 12  1  0
 12 13  1  0
  4 14  1  0
 14 15  2  0
 14 16  1  0
 16 17  1  0
 17 18  2  0
 17  2  1  0
 12  5  1  0
  1 19  1  0
  1 20  1  0
  1 21  1  0
  3 22  1  0
  5 23  1  6
  7 24  1  6
  8 25  1  0
  8 26  1  0
  9 27  1  0
 10 28  1  1
 12 29  1  1
M  CHG  1  16  -1
M  END
>  <UniqueID>  (21) 
20

>  <SMILES>  (21) 
Cc1cn([C@H]2O[C@H](CO)C(F)C2F)c(=O)[n-]c1=O

>  <Energy>  (21) 
33.398430856912725

>  <Genealogy>  (21) 
Cc1cn(C2OC(CO)C(F)C2F)c(=O)[n-]c1=O (protonated)
Cc1cn([C@H]2O[C@H](CO)C(F)C2F)c(=O)[n-]c1=O (chirality)
Cc1cn([C@H]2O[C@H](CO)C(F)C2F)c(=O)[n-]c1=O (3D coordinates assigned)
Cc1cn([C@H]2O[C@H](CO)C(F)C2F)c(=O)[n-]c1=O (nonaromatic ring conformer: 33.398430856912725 kcal/mol)

>  <smiles>  (21) 
Cc1cn(C2OC(CO)C(F)C2F)c(=O)[nH]c1=O

>  <score_type>  (21) 
oracle

>  <origin>  (21) 
adg

>  <m_score__min__energy>  (21) 
-6.7400000000000002

>  <m_primary>  (21) 
energy

$$$$
21:0
     RDKit          3D

 33 34  0  0  0  0  0  0  0  0999 V2000
   -8.7900   23.4580  -32.3460 C   0  0  0  0  0  0  0  0  0  0  0  0
   -8.4930   22.2620  -31.5570 N   0  0  0  0  0  0  0  0  0  0  0  0
   -7.5080   22.3390  -30.4670 C   0  0  0  0  0  0  0  0  0  0  0  0
   -6.9580   23.7630  -30.3280 C   0  0  0  0  0  0  0  0  0  0  0  0
   -5.7740   23.7830  -29.4700 N   0  0  0  0  0  0  0  0  0  0  0  0
   -4.4870   24.2050  -29.9470 C   0  0  0  0  0  0  0  0  0  0  0  0
   -4.2770   24.3040  -31.1860 O   0  0  0  0  0  0  0  0  0  0  0  0
   -3.4020   24.5400  -29.0120 C   0  0  0  0  0  0  0  0  0  0  0  0
   -3.3080   24.1660  -27.6840 C   0  0  0  0  0  0  0  0  0  0  0  0
   -2.1410   24.7330  -27.2200 C   0  0  0  0  0  0  0  0  0  0  0  0
   -1.5950   25.4160  -28.2870 C   0  0  0  0  0  0  0  0  0  0  0  0
   -2.3700   25.2830  -29.3390 O   0  0  0  0  0  0  0  0  0  0  0  0
   -8.9680   20.9870  -32.0300 C   0  0  0  0  0  0  0  0  0  0  0  0
  -10.2050   20.8090  -32.2000 O   0  0  0  0  0  0  0  0  0  0  0  0
   -8.0460   19.8740  -32.3140 C   0  0  0  0  0  0  0  0  0  0  0  0
   -8.1890   18.5530  -31.9030 C   0  0  0  0  0  0  0  0  0  0  0  0
   -7.1650   17.7160  -32.3660 C   0  0  0  0  0  0  0  0  0  0  0  0
   -6.2230   18.3680  -33.1500 C   0  0  0  0  0  0  0  0  0  0  0  0
   -6.6680   19.9850  -33.2730 S   0  0  0  0  0  0  0  0  0  0  0  0
   -8.9992   24.3004  -31.6703 H   0  0  0  0  0  0  0  0  0  0  0  0
   -7.9254   23.7028  -32.9804 H   0  0  0  0  0  0  0  0  0  0  0  0
   -9.6687   23.2699  -32.9804 H   0  0  0  0  0  0  0  0  0  0  0  0
   -7.9911   22.0456  -29.5233 H   0  0  0  0  0  0  0  0  0  0  0  0
   -6.6736   21.6604  -30.6980 H   0  0  0  0  0  0  0  0  0  0  0  0
   -6.6876   24.1436  -31.3240 H   0  0  0  0  0  0  0  0  0  0  0  0
   -7.7333   24.3966  -29.8724 H   0  0  0  0  0  0  0  0  0  0  0  0
   -5.8870   23.4810  -28.4770 H   0  0  0  0  0  0  0  0  0  0  0  0
   -4.0170   23.5453  -27.1164 H   0  0  0  0  0  0  0  0  0  0  0  0
   -1.7279   24.6564  -26.2034 H   0  0  0  0  0  0  0  0  0  0  0  0
   -0.6541   25.9852  -28.2607 H   0  0  0  0  0  0  0  0  0  0  0  0
   -9.0223   18.2007  -31.2773 H   0  0  0  0  0  0  0  0  0  0  0  0
   -7.1125   16.6428  -32.1303 H   0  0  0  0  0  0  0  0  0  0  0  0
   -5.3376   17.9063  -33.6115 H   0  0  0  0  0  0  0  0  0  0  0  0
  1  2  1  0
  2  3  1  0
  3  4  1  0
  4  5  1  0
  5  6  1  0
  6  7  2  0
  6  8  1  0
  8  9  2  0
  9 10  1  0
 10 11  2  0
 11 12  1  0
  2 13  1  0
 13 14  2  0
 13 15  1  0
 15 16  2  0
 16 17  1  0
 17 18  2  0
 18 19  1  0
 12  8  1  0
 19 15  1  0
  1 20  1  0
  1 21  1  0
  1 22  1  0
  3 23  1  0
  3 24  1  0
  4 25  1  0
  4 26  1  0
  5 27  1  0
  9 28  1  0
 10 29  1  0
 11 30  1  0
 16 31  1  0
 17 32  1  0
 18 33  1  0
M  END
>  <UniqueID>  (22) 
21

>  <SMILES>  (22) 
CN(CCNC(=O)c1ccco1)C(=O)c1cccs1

>  <Energy>  (22) 
79.37611028386961

>  <Genealogy>  (22) 
CN(CCNC(=O)c1ccco1)C(=O)c1cccs1 (3D coordinates assigned)
CN(CCNC(=O)c1ccco1)C(=O)c1cccs1 (optimized conformer: 79.37611028386961 kcal/mol)

>  <smiles>  (22) 
CN(CCNC(=O)c1ccco1)C(=O)c1cccs1

>  <score_type>  (22) 
oracle

>  <origin>  (22) 
adg

>  <m_score__min__energy>  (22) 
-7.7000000000000002

>  <m_primary>  (22) 
energy

$$$$
22:0
     RDKit          3D

 48 50  0  0  0  0  0  0  0  0999 V2000
   -3.0540   20.9140  -29.4720 C   0  0  0  0  0  0  0  0  0  0  0  0
   -2.6130   20.8060  -30.9350 C   0  0  0  0  0  0  0  0  0  0  0  0
   -3.6210   20.1080  -31.7730 N   0  0  0  0  0  0  0  0  0  0  0  0
   -3.0140   19.0330  -32.6000 C   0  0  0  0  0  0  0  0  0  0  0  0
   -1.7280   19.4380  -33.3380 C   0  0  0  0  0  0  0  0  0  0  0  0
   -4.3910   21.0320  -32.5890 C   0  0  0  0  0  0  0  0  0  0  0  0
   -4.2410   21.0260  -33.8430 O   0  0  0  0  0  0  0  0  0  0  0  0
   -5.3850   21.9760  -31.9860 C   0  0  0  0  0  0  0  0  0  0  0  0
   -4.9650   23.2130  -31.4560 C   0  0  0  0  0  0  0  0  0  0  0  0
   -5.8770   24.0800  -30.8490 C   0  0  0  0  0  0  0  0  0  0  0  0
   -7.2210   23.7310  -30.7580 C   0  0  0  0  0  0  0  0  0  0  0  0
   -7.6610   22.5150  -31.2770 C   0  0  0  0  0  0  0  0  0  0  0  0
   -6.7590   21.6340  -31.8950 C   0  0  0  0  0  0  0  0  0  0  0  0
   -7.2660   20.4200  -32.4680 N   0  0  0  0  0  0  0  0  0  0  0  0
   -7.8570   19.4010  -31.6010 C   0  0  0  0  0  0  0  0  0  0  0  0
   -6.8360   18.2860  -31.3730 C   0  0  0  0  0  0  0  0  0  0  0  0
   -6.1610   17.8600  -32.6570 C   0  0  0  0  0  0  0  0  0  0  0  0
   -5.4770   16.6340  -32.6900 C   0  0  0  0  0  0  0  0  0  0  0  0
   -4.7920   16.2360  -33.8410 C   0  0  0  0  0  0  0  0  0  0  0  0
   -4.7740   17.0620  -34.9660 C   0  0  0  0  0  0  0  0  0  0  0  0
   -5.4380   18.2910  -34.9440 C   0  0  0  0  0  0  0  0  0  0  0  0
   -6.1210   18.7090  -33.7920 C   0  0  0  0  0  0  0  0  0  0  0  0
   -6.8710   20.0180  -33.8190 C   0  0  0  0  0  0  0  0  0  0  0  0
   -2.1975   20.7042  -28.8144 H   0  0  0  0  0  0  0  0  0  0  0  0
   -3.4269   21.9300  -29.2755 H   0  0  0  0  0  0  0  0  0  0  0  0
   -3.8542   20.1853  -29.2755 H   0  0  0  0  0  0  0  0  0  0  0  0
   -2.4598   21.8192  -31.3349 H   0  0  0  0  0  0  0  0  0  0  0  0
   -1.6828   20.2196  -30.9657 H   0  0  0  0  0  0  0  0  0  0  0  0
   -4.2710   19.6310  -31.1050 H   0  0  0  0  0  0  0  0  0  0  0  0
   -2.7776   18.1853  -31.9400 H   0  0  0  0  0  0  0  0  0  0  0  0
   -3.7523   18.7846  -33.3766 H   0  0  0  0  0  0  0  0  0  0  0  0
   -0.9463   19.6842  -32.6043 H   0  0  0  0  0  0  0  0  0  0  0  0
   -1.3889   18.6032  -33.9689 H   0  0  0  0  0  0  0  0  0  0  0  0
   -1.9285   20.3165  -33.9689 H   0  0  0  0  0  0  0  0  0  0  0  0
   -3.9049   23.4994  -31.5213 H   0  0  0  0  0  0  0  0  0  0  0  0
   -5.5315   25.0416  -30.4417 H   0  0  0  0  0  0  0  0  0  0  0  0
   -7.9357   24.4147  -30.2766 H   0  0  0  0  0  0  0  0  0  0  0  0
   -8.7242   22.2429  -31.2019 H   0  0  0  0  0  0  0  0  0  0  0  0
   -8.1315   19.8522  -30.6361 H   0  0  0  0  0  0  0  0  0  0  0  0
   -8.7585   18.9870  -32.0763 H   0  0  0  0  0  0  0  0  0  0  0  0
   -6.0688   18.6459  -30.6717 H   0  0  0  0  0  0  0  0  0  0  0  0
   -7.3714   17.4150  -30.9673 H   0  0  0  0  0  0  0  0  0  0  0  0
   -5.4805   15.9825  -31.8037 H   0  0  0  0  0  0  0  0  0  0  0  0
   -4.2660   15.2701  -33.8605 H   0  0  0  0  0  0  0  0  0  0  0  0
   -4.2361   16.7447  -35.8715 H   0  0  0  0  0  0  0  0  0  0  0  0
   -5.4252   18.9351  -35.8356 H   0  0  0  0  0  0  0  0  0  0  0  0
   -6.2239   20.7953  -34.2516 H   0  0  0  0  0  0  0  0  0  0  0  0
   -7.7782   19.8915  -34.4281 H   0  0  0  0  0  0  0  0  0  0  0  0
  1  2  1  0
  2  3  1  0
  3  4  1  0
  4  5  1  0
  3  6  1  0
  6  7  2  0
  6  8  1  0
  8  9  2  0
  9 10  1  0
 10 11  2  0
 11 12  1  0
 12 13  2  0
 13 14  1  0
 14 15  1  0
 15 16  1  0
 16 17  1  0
 17 18  2  0
 18 19  1  0
 19 20  2  0
 20 21  1  0
 21 22  2  0
 22 23  1  0
 13  8  1  0
 23 14  1  0
 22 17  1  0
  1 24  1  0
  1 25  1  0
  1 26  1  0
  2 27  1  0
  2 28  1  0
  3 29  1  0
  4 30  1  0
  4 31  1  0
  5 32  1  0
  5 33  1  0
  5 34  1  0
  9 35  1  0
 10 36  1  0
 11 37  1  0
 12 38  1  0
 15 39  1  0
 15 40  1  0
 16 41  1  0
 16 42  1  0
 18 43  1  0
 19 44  1  0
 20 45  1  0
 21 46  1  0
 23 47  1  0
 23 48  1  0
M  CHG  1   3   1
M  END
>  <UniqueID>  (23) 
22

>  <SMILES>  (23) 
CC[NH+](CC)C(=O)c1ccccc1N1CCc2ccccc2C1

>  <Energy>  (23) 
62.6922219980522

>  <Genealogy>  (23) 
CC[NH+](CC)C(=O)c1ccccc1N1CCc2ccccc2C1 (protonated)
CC[NH+](CC)C(=O)c1ccccc1N1CCc2ccccc2C1 (3D coordinates assigned)
CC[NH+](CC)C(=O)c1ccccc1N1CCc2ccccc2C1 (nonaromatic ring conformer: 62.6922219980522 kcal/mol)

>  <smiles>  (23) 
CCN(CC)C(=O)c1ccccc1N1CCc2ccccc2C1

>  <score_type>  (23) 
oracle

>  <origin>  (23) 
adg

>  <m_score__min__energy>  (23) 
-7.0899999999999999

>  <m_primary>  (23) 
energy

$$$$
23:0
     RDKit          3D

 59 63  0  0  0  0  0  0  0  0999 V2000
   -3.4730   18.9460  -26.4920 C   0  0  0  0  0  0  0  0  0  0  0  0
   -2.0560   18.8770  -26.6190 O   0  0  0  0  0  0  0  0  0  0  0  0
   -1.3230   19.4200  -27.6860 C   0  0  0  0  0  0  0  0  0  0  0  0
   -1.8190   20.4840  -28.4600 C   0  0  0  0  0  0  0  0  0  0  0  0
   -1.0750   21.0120  -29.5250 C   0  0  0  0  0  0  0  0  0  0  0  0
   -1.6770   22.1360  -30.3710 C   0  0  1  0  0  0  0  0  0  0  0  0
   -2.9540   21.7060  -31.0470 C   0  0  0  0  0  0  0  0  0  0  0  0
   -2.8600   20.9430  -32.2350 C   0  0  0  0  0  0  0  0  0  0  0  0
   -4.0250   20.4270  -32.7810 C   0  0  0  0  0  0  0  0  0  0  0  0
   -5.2300   20.6150  -32.1990 C   0  0  0  0  0  0  0  0  0  0  0  0
   -5.3770   21.3480  -31.0280 C   0  0  0  0  0  0  0  0  0  0  0  0
   -4.2300   21.9540  -30.4510 C   0  0  0  0  0  0  0  0  0  0  0  0
   -4.3620   22.6920  -29.1140 C   0  0  2  0  0  0  0  0  0  0  0  0
   -5.5400   23.5920  -29.0950 N   0  0  0  0  0  0  0  0  0  0  0  0
   -5.5240   24.7390  -30.4040 S   0  0  0  0  0  0  0  0  0  0  0  0
   -6.4660   24.1410  -31.7920 C   0  0  0  0  0  0  0  0  0  0  0  0
   -4.1030   24.9550  -30.8430 O   0  0  0  0  0  0  0  0  0  0  0  0
   -6.0950   26.0510  -29.9440 O   0  0  0  0  0  0  0  0  0  0  0  0
   -3.1170   23.5500  -28.7210 C   0  0  1  0  0  0  0  0  0  0  0  0
   -2.5900   23.3020  -27.2890 C   0  0  0  0  0  0  0  0  0  0  0  0
   -1.2140   23.6430  -27.3440 O   0  0  0  0  0  0  0  0  0  0  0  0
   -0.7890   23.7520  -28.6500 C   0  0  0  0  0  0  0  0  0  0  0  0
    0.3920   24.0570  -28.9620 O   0  0  0  0  0  0  0  0  0  0  0  0
   -1.8720   23.4790  -29.6300 C   0  0  1  0  0  0  0  0  0  0  0  0
   -6.2040   19.9670  -32.9340 O   0  0  0  0  0  0  0  0  0  0  0  0
   -5.5650   19.3360  -34.0540 C   0  0  0  0  0  0  0  0  0  0  0  0
   -4.1740   19.6530  -33.9150 O   0  0  0  0  0  0  0  0  0  0  0  0
    0.1880   20.4640  -29.7980 C   0  0  0  0  0  0  0  0  0  0  0  0
    0.7030   19.3940  -29.0420 C   0  0  0  0  0  0  0  0  0  0  0  0
    1.9640   18.8500  -29.3360 O   0  0  0  0  0  0  0  0  0  0  0  0
    3.1510   19.0820  -28.5870 C   0  0  0  0  0  0  0  0  0  0  0  0
   -0.0670   18.8680  -27.9750 C   0  0  0  0  0  0  0  0  0  0  0  0
    0.3540   17.7960  -27.1640 O   0  0  0  0  0  0  0  0  0  0  0  0
    0.8200   16.5280  -27.6100 C   0  0  0  0  0  0  0  0  0  0  0  0
   -3.7454   18.9593  -25.4263 H   0  0  0  0  0  0  0  0  0  0  0  0
   -3.8403   19.8631  -26.9758 H   0  0  0  0  0  0  0  0  0  0  0  0
   -3.9276   18.0689  -26.9758 H   0  0  0  0  0  0  0  0  0  0  0  0
   -2.8063   20.9090  -28.2264 H   0  0  0  0  0  0  0  0  0  0  0  0
   -0.9146   22.3348  -31.1386 H   0  0  0  0  0  0  0  0  0  0  0  0
   -1.8860   20.7637  -32.7137 H   0  0  0  0  0  0  0  0  0  0  0  0
   -6.3647   21.4569  -30.5562 H   0  0  0  0  0  0  0  0  0  0  0  0
   -4.4687   21.8785  -28.3813 H   0  0  0  0  0  0  0  0  0  0  0  0
   -5.6760   24.1030  -28.1960 H   0  0  0  0  0  0  0  0  0  0  0  0
   -7.3424   23.5847  -31.4280 H   0  0  0  0  0  0  0  0  0  0  0  0
   -6.8001   24.9927  -32.4027 H   0  0  0  0  0  0  0  0  0  0  0  0
   -5.8374   23.4762  -32.4027 H   0  0  0  0  0  0  0  0  0  0  0  0
   -3.5777   24.5425  -28.8336 H   0  0  0  0  0  0  0  0  0  0  0  0
   -3.1186   23.9404  -26.5658 H   0  0  0  0  0  0  0  0  0  0  0  0
   -2.7472   22.2632  -26.9633 H   0  0  0  0  0  0  0  0  0  0  0  0
   -1.9250   24.1809  -30.4753 H   0  0  0  0  0  0  0  0  0  0  0  0
   -5.7182   18.2472  -34.0235 H   0  0  0  0  0  0  0  0  0  0  0  0
   -5.9743   19.6850  -35.0135 H   0  0  0  0  0  0  0  0  0  0  0  0
    0.7885   20.8797  -30.6206 H   0  0  0  0  0  0  0  0  0  0  0  0
    2.9210   19.0371  -27.5122 H   0  0  0  0  0  0  0  0  0  0  0  0
    3.8972   18.3127  -28.8348 H   0  0  0  0  0  0  0  0  0  0  0  0
    3.5526   20.0756  -28.8348 H   0  0  0  0  0  0  0  0  0  0  0  0
    1.0523   15.8960  -26.7401 H   0  0  0  0  0  0  0  0  0  0  0  0
    0.0410   16.0440  -28.2174 H   0  0  0  0  0  0  0  0  0  0  0  0
    1.7270   16.6636  -28.2174 H   0  0  0  0  0  0  0  0  0  0  0  0
  1  2  1  0
  2  3  1  0
  3  4  2  0
  4  5  1  0
  5  6  1  0
  6  7  1  0
  7  8  2  0
  8  9  1  0
  9 10  2  0
 10 11  1  0
 11 12  2  0
 12 13  1  0
 13 14  1  0
 14 15  1  0
 15 16  1  0
 15 17  2  0
 15 18  2  0
 13 19  1  0
 19 20  1  0
 20 21  1  0
 21 22  1  0
 22 23  2  0
 22 24  1  0
 10 25  1  0
 25 26  1  0
 26 27  1  0
  5 28  2  0
 28 29  1  0
 29 30  1  0
 30 31  1  0
 29 32  2  0
 32 33  1  0
 33 34  1  0
 32  3  1  0
 24  6  1  0
 12  7  1  0
 24 19  1  0
 27  9  1  0
  1 35  1  0
  1 36  1  0
  1 37  1  0
  4 38  1  0
  6 39  1  6
  8 40  1  0
 11 41  1  0
 13 42  1  1
 14 43  1  0
 16 44  1  0
 16 45  1  0
 16 46  1  0
 19 47  1  1
 20 48  1  0
 20 49  1  0
 24 50  1  6
 26 51  1  0
 26 52  1  0
 28 53  1  0
 31 54  1  0
 31 55  1  0
 31 56  1  0
 34 57  1  0
 34 58  1  0
 34 59  1  0
M  END
>  <UniqueID>  (24) 
23

>  <SMILES>  (24) 
COc1cc([C@H]2c3cc4c(cc3[C@H](NS(C)(=O)=O)C3COC(=O)C32)OCO4)cc(OC)c1OC

>  <Energy>  (24) 
113.19288122836193

>  <Genealogy>  (24) 
COc1cc([C@H]2c3cc4c(cc3[C@H](NS(C)(=O)=O)C3COC(=O)C32)OCO4)cc(OC)c1OC (chirality)
COc1cc([C@H]2c3cc4c(cc3[C@H](NS(C)(=O)=O)C3COC(=O)C32)OCO4)cc(OC)c1OC (3D coordinates assigned)
COc1cc([C@H]2c3cc4c(cc3[C@H](NS(C)(=O)=O)C3COC(=O)C32)OCO4)cc(OC)c1OC (nonaromatic ring conformer: 113.19288122836193 kcal/mol)

>  <smiles>  (24) 
COc1cc(C2c3cc4c(cc3C(NS(C)(=O)=O)C3COC(=O)C23)OCO4)cc(OC)c1OC

>  <score_type>  (24) 
oracle

>  <origin>  (24) 
adg

>  <m_score__min__energy>  (24) 
-8.9600000000000009

>  <m_primary>  (24) 
energy

$$$$
24:0
     RDKit          3D

 37 39  0  0  0  0  0  0  0  0999 V2000
   -8.2295   24.4914  -31.6466 H   0  0  0  0  0  0  0  0  0  0  0  0
   -7.9180   23.4390  -31.7200 C   0  0  0  0  0  0  0  0  0  0  0  0
   -8.8740   22.4450  -31.9550 C   0  0  0  0  0  0  0  0  0  0  0  0
   -9.9365   22.7137  -32.0490 H   0  0  0  0  0  0  0  0  0  0  0  0
   -8.4770   21.1110  -32.0700 C   0  0  0  0  0  0  0  0  0  0  0  0
   -7.1190   20.7740  -31.9900 C   0  0  0  0  0  0  0  0  0  0  0  0
   -6.1640   21.7640  -31.7400 C   0  0  0  0  0  0  0  0  0  0  0  0
   -5.0997   21.4946  -31.6710 H   0  0  0  0  0  0  0  0  0  0  0  0
   -6.5590   23.0990  -31.5770 C   0  0  0  0  0  0  0  0  0  0  0  0
   -5.5530   24.1020  -31.3790 N   0  0  0  0  0  0  0  0  0  0  0  0
   -4.7830   24.2230  -30.3370 C   0  0  0  0  0  0  0  0  0  0  0  0
   -3.5110   24.5370  -30.4310 O   0  0  0  0  0  0  0  0  0  0  0  0
   -3.0350   24.5500  -29.2070 C   0  0  0  0  0  0  0  0  0  0  0  0
   -1.6400   24.8540  -28.8530 C   0  0  0  0  0  0  0  0  0  0  0  0
   -1.1930   26.0210  -29.0190 O   0  0  0  0  0  0  0  0  0  0  0  0
   -0.7490   23.7960  -28.2670 C   0  0  0  0  0  0  0  0  0  0  0  0
   -0.8451   23.8168  -27.1714 H   0  0  0  0  0  0  0  0  0  0  0  0
    0.2842   24.0094  -28.5784 H   0  0  0  0  0  0  0  0  0  0  0  0
   -1.1180   22.3940  -28.7710 C   0  0  0  0  0  0  0  0  0  0  0  0
   -0.2006   21.8838  -29.0997 H   0  0  0  0  0  0  0  0  0  0  0  0
   -1.8320   22.5122  -29.5994 H   0  0  0  0  0  0  0  0  0  0  0  0
   -1.7910   21.5470  -27.6930 C   0  0  0  0  0  0  0  0  0  0  0  0
   -1.4972   21.9168  -26.6996 H   0  0  0  0  0  0  0  0  0  0  0  0
   -2.8835   21.6158  -27.8015 H   0  0  0  0  0  0  0  0  0  0  0  0
   -1.4771   20.4983  -27.8015 H   0  0  0  0  0  0  0  0  0  0  0  0
   -4.0550   24.2250  -28.3340 C   0  0  0  0  0  0  0  0  0  0  0  0
   -3.9712   24.1523  -27.2396 H   0  0  0  0  0  0  0  0  0  0  0  0
   -5.1690   24.0130  -29.0580 N   0  0  0  0  0  0  0  0  0  0  0  0
   -6.0960   23.7080  -28.6920 H   0  0  0  0  0  0  0  0  0  0  0  0
   -6.7390   19.4390  -32.1630 O   0  0  0  0  0  0  0  0  0  0  0  0
   -7.6550   18.4720  -32.6850 C   0  0  0  0  0  0  0  0  0  0  0  0
   -7.6799   18.5503  -33.7819 H   0  0  0  0  0  0  0  0  0  0  0  0
   -7.3232   17.4663  -32.3876 H   0  0  0  0  0  0  0  0  0  0  0  0
   -9.0630   18.7200  -32.1270 C   0  0  0  0  0  0  0  0  0  0  0  0
   -9.7858   18.0985  -32.6760 H   0  0  0  0  0  0  0  0  0  0  0  0
   -9.0763   18.4579  -31.0588 H   0  0  0  0  0  0  0  0  0  0  0  0
   -9.4180   20.0970  -32.2730 O   0  0  0  0  0  0  0  0  0  0  0  0
  1  2  1  0
  2  3  2  0
  3  4  1  0
  3  5  1  0
  5  6  2  0
  6  7  1  0
  7  8  1  0
  7  9  2  0
  9 10  1  0
 10 11  2  0
 11 12  1  0
 12 13  1  0
 13 14  1  0
 14 15  2  0
 14 16  1  0
 16 17  1  0
 16 18  1  0
 16 19  1  0
 19 20  1  0
 19 21  1  0
 19 22  1  0
 22 23  1  0
 22 24  1  0
 22 25  1  0
 13 26  2  0
 26 27  1  0
 26 28  1  0
 28 29  1  0
  6 30  1  0
 30 31  1  0
 31 32  1  0
 31 33  1  0
 31 34  1  0
 34 35  1  0
 34 36  1  0
 34 37  1  0
  9  2  1  0
 28 11  1  0
 37  5  1  0
M  END
>  <UniqueID>  (25) 
24

>  <SMILES>  (25) 
CCCC(=O)c1c[nH]/c(=N\c2ccc3c(c2)OCCO3)o1

>  <Energy>  (25) 
71.68244352725125

>  <Genealogy>  (25) 
CCCC(=O)c1c[nH]/c(=N\c2ccc3c(c2)OCCO3)o1 (cis-trans isomerization)
CCCC(=O)c1c[nH]/c(=N\c2ccc3c(c2)OCCO3)o1 (3D coordinates assigned)
CCCC(=O)c1c[nH]/c(=N\c2ccc3c(c2)OCCO3)o1 (nonaromatic ring conformer: 71.68244352725125 kcal/mol)

>  <smiles>  (25) 
CCCC(=O)c1c[nH]c(=Nc2ccc3c(c2)OCCO3)o1

>  <score_type>  (25) 
oracle

>  <origin>  (25) 
adg

>  <m_score__min__energy>  (25) 
-7.8700000000000001

>  <m_primary>  (25) 
energy

$$$$
25:0
     RDKit          3D

 40 42  0  0  0  0  0  0  0  0999 V2000
   -4.3660   25.6510  -30.8440 O   0  0  0  0  0  0  0  0  0  0  0  0
   -4.9980   24.6610  -29.9060 S   0  0  0  0  0  0  0  0  0  0  0  0
   -6.0750   25.3740  -29.1350 O   0  0  0  0  0  0  0  0  0  0  0  0
   -5.7220   23.3540  -30.8450 C   0  0  0  0  0  0  0  0  0  0  0  0
   -7.1110   23.2480  -30.9690 C   0  0  0  0  0  0  0  0  0  0  0  0
   -7.6700   22.2030  -31.7070 C   0  0  0  0  0  0  0  0  0  0  0  0
   -6.8260   21.2580  -32.3130 C   0  0  0  0  0  0  0  0  0  0  0  0
   -7.3320   20.1980  -33.0780 O   0  0  0  0  0  0  0  0  0  0  0  0
   -6.6200   19.0460  -33.4470 C   0  0  0  0  0  0  0  0  0  0  0  0
   -7.1990   17.7660  -33.3750 C   0  0  0  0  0  0  0  0  0  0  0  0
   -6.4440   16.6500  -33.7360 C   0  0  0  0  0  0  0  0  0  0  0  0
   -5.1230   16.8110  -34.1540 C   0  0  0  0  0  0  0  0  0  0  0  0
   -4.5720   18.0920  -34.1960 C   0  0  0  0  0  0  0  0  0  0  0  0
   -5.3210   19.1720  -33.8400 N   0  0  0  0  0  0  0  0  0  0  0  0
   -5.4780   21.3950  -32.1950 N   0  0  0  0  0  0  0  0  0  0  0  0
   -4.9130   22.4050  -31.4820 C   0  0  0  0  0  0  0  0  0  0  0  0
   -3.7880   24.0630  -28.7970 N   0  0  0  0  0  0  0  0  0  0  0  0
   -4.2100   22.7630  -28.2340 C   0  0  0  0  0  0  0  0  0  0  0  0
   -3.0660   22.0490  -27.4790 C   0  0  0  0  0  0  0  0  0  0  0  0
   -1.9100   23.0030  -27.1670 C   0  0  0  0  0  0  0  0  0  0  0  0
   -1.3730   23.6610  -28.4500 C   0  0  0  0  0  0  0  0  0  0  0  0
   -2.4870   23.9460  -29.4750 C   0  0  0  0  0  0  0  0  0  0  0  0
   -7.7639   23.9889  -30.4844 H   0  0  0  0  0  0  0  0  0  0  0  0
   -8.7618   22.1205  -31.8129 H   0  0  0  0  0  0  0  0  0  0  0  0
   -8.2388   17.6461  -33.0367 H   0  0  0  0  0  0  0  0  0  0  0  0
   -6.8894   15.6452  -33.6911 H   0  0  0  0  0  0  0  0  0  0  0  0
   -4.5223   15.9375  -34.4473 H   0  0  0  0  0  0  0  0  0  0  0  0
   -3.5292   18.2300  -34.5177 H   0  0  0  0  0  0  0  0  0  0  0  0
   -4.8870   20.1210  -33.8760 H   0  0  0  0  0  0  0  0  0  0  0  0
   -3.8180   22.4770  -31.4052 H   0  0  0  0  0  0  0  0  0  0  0  0
   -5.0419   22.9341  -27.5349 H   0  0  0  0  0  0  0  0  0  0  0  0
   -4.5136   22.1174  -29.0713 H   0  0  0  0  0  0  0  0  0  0  0  0
   -3.4598   21.6456  -26.5345 H   0  0  0  0  0  0  0  0  0  0  0  0
   -2.6814   21.2438  -28.1223 H   0  0  0  0  0  0  0  0  0  0  0  0
   -2.2662   23.7874  -26.4830 H   0  0  0  0  0  0  0  0  0  0  0  0
   -1.0963   22.4260  -26.7034 H   0  0  0  0  0  0  0  0  0  0  0  0
   -0.8873   24.6112  -28.1829 H   0  0  0  0  0  0  0  0  0  0  0  0
   -0.6622   22.9610  -28.9135 H   0  0  0  0  0  0  0  0  0  0  0  0
   -2.2653   24.8872  -29.9994 H   0  0  0  0  0  0  0  0  0  0  0  0
   -2.5321   23.1150  -30.1943 H   0  0  0  0  0  0  0  0  0  0  0  0
  1  2  2  0
  2  3  2  0
  2  4  1  0
  4  5  2  0
  5  6  1  0
  6  7  2  0
  7  8  1  0
  8  9  1  0
  9 10  2  0
 10 11  1  0
 11 12  2  0
 12 13  1  0
 13 14  2  0
  7 15  1  0
 15 16  2  0
  2 17  1  0
 17 18  1  0
 18 19  1  0
 19 20  1  0
 20 21  1  0
 21 22  1  0
 16  4  1  0
 22 17  1  0
 14  9  1  0
  5 23  1  0
  6 24  1  0
 10 25  1  0
 11 26  1  0
 12 27  1  0
 13 28  1  0
 14 29  1  0
 16 30  1  0
 18 31  1  0
 18 32  1  0
 19 33  1  0
 19 34  1  0
 20 35  1  0
 20 36  1  0
 21 37  1  0
 21 38  1  0
 22 39  1  0
 22 40  1  0
M  CHG  1  14   1
M  END
>  <UniqueID>  (26) 
25

>  <SMILES>  (26) 
O=S(=O)(c1ccc(Oc2cccc[nH+]2)nc1)N1CCCCC1

>  <Energy>  (26) 
51.26005282768624

>  <Genealogy>  (26) 
O=S(=O)(c1ccc(Oc2cccc[nH+]2)nc1)N1CCCCC1 (protonated)
O=S(=O)(c1ccc(Oc2cccc[nH+]2)nc1)N1CCCCC1 (3D coordinates assigned)
O=S(=O)(c1ccc(Oc2cccc[nH+]2)nc1)N1CCCCC1 (nonaromatic ring conformer: 51.26005282768624 kcal/mol)

>  <smiles>  (26) 
O=S(=O)(c1ccc(Oc2ccccn2)nc1)N1CCCCC1

>  <score_type>  (26) 
oracle

>  <origin>  (26) 
adg

>  <m_score__min__energy>  (26) 
-8.2799999999999994

>  <m_primary>  (26) 
energy

$$$$
26:0
     RDKit          3D

 55 58  0  0  0  0  0  0  0  0999 V2000
   -9.3970   18.9540  -32.7040 C   0  0  0  0  0  0  0  0  0  0  0  0
   -8.1050   19.4680  -32.1610 C   0  0  0  0  0  0  0  0  0  0  0  0
   -7.8340   20.7330  -31.9660 O   0  0  0  0  0  0  0  0  0  0  0  0
   -6.5980   20.7970  -31.5200 C   0  0  0  0  0  0  0  0  0  0  0  0
   -5.9000   22.0630  -31.2290 C   0  0  0  0  0  0  0  0  0  0  0  0
   -4.5980   22.0570  -30.6950 C   0  0  0  0  0  0  0  0  0  0  0  0
   -3.9240   23.2620  -30.4680 C   0  0  0  0  0  0  0  0  0  0  0  0
   -4.5390   24.4790  -30.7770 C   0  0  0  0  0  0  0  0  0  0  0  0
   -3.8640   25.6740  -30.5580 O   0  0  0  0  0  0  0  0  0  0  0  0
   -5.8320   24.4930  -31.3060 C   0  0  0  0  0  0  0  0  0  0  0  0
   -6.5120   23.2910  -31.5300 C   0  0  0  0  0  0  0  0  0  0  0  0
   -6.0200   19.5790  -31.4070 N   0  0  0  0  0  0  0  0  0  0  0  0
   -6.9870   18.7360  -31.8150 C   0  0  0  0  0  0  0  0  0  0  0  0
   -6.7710   17.2680  -32.0210 C   0  0  0  0  0  0  0  0  0  0  0  0
   -5.9920   16.9790  -33.6030 S   0  0  0  0  0  0  0  0  0  0  0  0
   -7.0250   16.4770  -34.5710 O   0  0  0  0  0  0  0  0  0  0  0  0
   -4.9300   15.9310  -33.4320 O   0  0  0  0  0  0  0  0  0  0  0  0
   -5.2950   18.5110  -34.2250 C   0  0  0  0  0  0  0  0  0  0  0  0
   -3.7750   18.4450  -34.4310 C   0  0  0  0  0  0  0  0  0  0  0  0
   -2.9930   19.6530  -33.8840 C   0  0  0  0  0  0  0  0  0  0  0  0
   -2.4990   19.3950  -32.5080 N   0  0  0  0  0  0  0  0  0  0  0  0
   -1.5570   18.2360  -32.4240 C   0  0  0  0  0  0  0  0  0  0  0  0
   -0.1540   18.5990  -31.9160 C   0  0  0  0  0  0  0  0  0  0  0  0
   -0.2890   19.3700  -30.6420 C   0  0  0  0  0  0  0  0  0  0  0  0
    0.5250   19.1200  -29.5280 C   0  0  0  0  0  0  0  0  0  0  0  0
    0.3570   19.8730  -28.3620 C   0  0  0  0  0  0  0  0  0  0  0  0
   -0.6130   20.8790  -28.3100 C   0  0  0  0  0  0  0  0  0  0  0  0
   -1.4200   21.1360  -29.4240 C   0  0  0  0  0  0  0  0  0  0  0  0
   -1.2650   20.3710  -30.5890 C   0  0  0  0  0  0  0  0  0  0  0  0
   -2.0580   20.6460  -31.8390 C   0  0  0  0  0  0  0  0  0  0  0  0
  -10.0649   18.6883  -31.8713 H   0  0  0  0  0  0  0  0  0  0  0  0
   -9.8711   19.7320  -33.3204 H   0  0  0  0  0  0  0  0  0  0  0  0
   -9.2071   18.0629  -33.3204 H   0  0  0  0  0  0  0  0  0  0  0  0
   -4.1084   21.1016  -30.4552 H   0  0  0  0  0  0  0  0  0  0  0  0
   -2.9084   23.2518  -30.0456 H   0  0  0  0  0  0  0  0  0  0  0  0
   -6.3163   25.4508  -31.5468 H   0  0  0  0  0  0  0  0  0  0  0  0
   -7.5310   23.3077  -31.9439 H   0  0  0  0  0  0  0  0  0  0  0  0
   -6.1244   16.8794  -31.2205 H   0  0  0  0  0  0  0  0  0  0  0  0
   -7.7433   16.7541  -31.9988 H   0  0  0  0  0  0  0  0  0  0  0  0
   -5.7687   18.7440  -35.1901 H   0  0  0  0  0  0  0  0  0  0  0  0
   -5.4889   19.2879  -33.4708 H   0  0  0  0  0  0  0  0  0  0  0  0
   -3.4012   17.5404  -33.9290 H   0  0  0  0  0  0  0  0  0  0  0  0
   -3.6114   18.4389  -35.5187 H   0  0  0  0  0  0  0  0  0  0  0  0
   -2.1343   19.8522  -34.5420 H   0  0  0  0  0  0  0  0  0  0  0  0
   -3.6686   20.5205  -33.8543 H   0  0  0  0  0  0  0  0  0  0  0  0
   -1.9886   17.4898  -31.7407 H   0  0  0  0  0  0  0  0  0  0  0  0
   -1.4329   17.8554  -33.4486 H   0  0  0  0  0  0  0  0  0  0  0  0
    0.4225   17.6802  -31.7331 H   0  0  0  0  0  0  0  0  0  0  0  0
    0.3707   19.2070  -32.6677 H   0  0  0  0  0  0  0  0  0  0  0  0
    1.2933   18.3340  -29.5713 H   0  0  0  0  0  0  0  0  0  0  0  0
    0.9889   19.6738  -27.4840 H   0  0  0  0  0  0  0  0  0  0  0  0
   -0.7420   21.4698  -27.3911 H   0  0  0  0  0  0  0  0  0  0  0  0
   -2.1740   21.9360  -29.3859 H   0  0  0  0  0  0  0  0  0  0  0  0
   -2.9462   21.2377  -31.5725 H   0  0  0  0  0  0  0  0  0  0  0  0
   -1.4087   21.1932  -32.5383 H   0  0  0  0  0  0  0  0  0  0  0  0
  1  2  1  0
  2  3  1  0
  3  4  1  0
  4  5  1  0
  5  6  2  0
  6  7  1  0
  7  8  2  0
  8  9  1  0
  8 10  1  0
 10 11  2  0
  4 12  2  0
 12 13  1  0
 13 14  1  0
 14 15  1  0
 15 16  2  0
 15 17  2  0
 15 18  1  0
 18 19  1  0
 19 20  1  0
 20 21  1  0
 21 22  1  0
 22 23  1  0
 23 24  1  0
 24 25  2  0
 25 26  1  0
 26 27  2  0
 27 28  1  0
 28 29  2  0
 29 30  1  0
 13  2  2  0
 30 21  1  0
 11  5  1  0
 29 24  1  0
  1 31  1  0
  1 32  1  0
  1 33  1  0
  6 34  1  0
  7 35  1  0
 10 36  1  0
 11 37  1  0
 14 38  1  0
 14 39  1  0
 18 40  1  0
 18 41  1  0
 19 42  1  0
 19 43  1  0
 20 44  1  0
 20 45  1  0
 22 46  1  0
 22 47  1  0
 23 48  1  0
 23 49  1  0
 25 50  1  0
 26 51  1  0
 27 52  1  0
 28 53  1  0
 30 54  1  0
 30 55  1  0
M  CHG  1   9  -1
M  END
>  <UniqueID>  (27) 
26

>  <SMILES>  (27) 
Cc1oc(-c2ccc([O-])cc2)nc1CS(=O)(=O)CCCN1CCc2ccccc2C1

>  <Energy>  (27) 
85.88861988353982

>  <Genealogy>  (27) 
Cc1oc(-c2ccc([O-])cc2)nc1CS(=O)(=O)CCCN1CCc2ccccc2C1 (protonated)
Cc1oc(-c2ccc([O-])cc2)nc1CS(=O)(=O)CCCN1CCc2ccccc2C1 (3D coordinates assigned)
Cc1oc(-c2ccc([O-])cc2)nc1CS(=O)(=O)CCCN1CCc2ccccc2C1 (nonaromatic ring conformer: 85.88861988353982 kcal/mol)

>  <smiles>  (27) 
Cc1oc(-c2ccc(O)cc2)nc1CS(=O)(=O)CCCN1CCc2ccccc2C1

>  <score_type>  (27) 
oracle

>  <origin>  (27) 
adg

>  <m_score__min__energy>  (27) 
-11.69

>  <m_primary>  (27) 
energy

$$$$
27:0
     RDKit          3D

 35 36  0  0  0  0  0  0  0  0999 V2000
   -2.1820   24.2170  -28.6210 C   0  0  0  0  0  0  0  0  0  0  0  0
   -3.4160   24.4710  -29.4210 C   0  0  0  0  0  0  0  0  0  0  0  0
   -4.6440   23.8770  -29.2310 C   0  0  0  0  0  0  0  0  0  0  0  0
   -5.4190   24.4280  -30.2310 C   0  0  0  0  0  0  0  0  0  0  0  0
   -6.8560   24.1110  -30.5130 C   0  0  0  0  0  0  0  0  0  0  0  0
   -7.0110   22.6840  -30.8660 N   0  0  0  0  0  0  0  0  0  0  0  0
   -8.1620   22.0990  -30.1510 C   0  0  0  0  0  0  0  0  0  0  0  0
   -7.1830   22.5340  -32.3270 C   0  0  0  0  0  0  0  0  0  0  0  0
   -6.7570   21.1630  -32.7710 C   0  0  0  0  0  0  0  0  0  0  0  0
   -7.5360   20.0310  -32.9250 C   0  0  0  0  0  0  0  0  0  0  0  0
   -9.0110   19.9170  -32.7040 C   0  0  0  0  0  0  0  0  0  0  0  0
   -6.7420   19.0120  -33.3040 N   0  0  0  0  0  0  0  0  0  0  0  0
   -5.5210   19.4570  -33.3850 O   0  0  0  0  0  0  0  0  0  0  0  0
   -5.4760   20.7350  -33.0770 C   0  0  0  0  0  0  0  0  0  0  0  0
   -4.2270   21.5520  -33.0470 C   0  0  0  0  0  0  0  0  0  0  0  0
   -4.6800   25.2850  -30.9640 N   0  0  0  0  0  0  0  0  0  0  0  0
   -3.4850   25.2840  -30.4480 O   0  0  0  0  0  0  0  0  0  0  0  0
   -2.4233   24.2667  -27.5490 H   0  0  0  0  0  0  0  0  0  0  0  0
   -1.7876   23.2189  -28.8622 H   0  0  0  0  0  0  0  0  0  0  0  0
   -1.4255   24.9783  -28.8622 H   0  0  0  0  0  0  0  0  0  0  0  0
   -4.9362   23.1415  -28.4671 H   0  0  0  0  0  0  0  0  0  0  0  0
   -7.4575   24.3302  -29.6185 H   0  0  0  0  0  0  0  0  0  0  0  0
   -7.1970   24.7261  -31.3588 H   0  0  0  0  0  0  0  0  0  0  0  0
   -8.0001   22.1813  -29.0661 H   0  0  0  0  0  0  0  0  0  0  0  0
   -9.0788   22.6405  -30.4270 H   0  0  0  0  0  0  0  0  0  0  0  0
   -8.2650   21.0392  -30.4270 H   0  0  0  0  0  0  0  0  0  0  0  0
   -8.2420   22.6845  -32.5838 H   0  0  0  0  0  0  0  0  0  0  0  0
   -6.5582   23.2822  -32.8366 H   0  0  0  0  0  0  0  0  0  0  0  0
   -9.2198   19.9009  -31.6241 H   0  0  0  0  0  0  0  0  0  0  0  0
   -9.5182   20.7786  -33.1627 H   0  0  0  0  0  0  0  0  0  0  0  0
   -9.3797   18.9877  -33.1627 H   0  0  0  0  0  0  0  0  0  0  0  0
   -7.0310   18.0280  -33.4980 H   0  0  0  0  0  0  0  0  0  0  0  0
   -3.9377   21.7413  -32.0028 H   0  0  0  0  0  0  0  0  0  0  0  0
   -3.4198   21.0068  -33.5581 H   0  0  0  0  0  0  0  0  0  0  0  0
   -4.4031   22.5100  -33.5581 H   0  0  0  0  0  0  0  0  0  0  0  0
  1  2  1  0
  2  3  2  0
  3  4  1  0
  4  5  1  0
  5  6  1  0
  6  7  1  0
  6  8  1  0
  8  9  1  0
  9 10  1  0
 10 11  1  0
 10 12  2  0
 12 13  1  0
 13 14  1  0
 14 15  1  0
  4 16  2  0
 16 17  1  0
 17  2  1  0
 14  9  2  0
  1 18  1  0
  1 19  1  0
  1 20  1  0
  3 21  1  0
  5 22  1  0
  5 23  1  0
  7 24  1  0
  7 25  1  0
  7 26  1  0
  8 27  1  0
  8 28  1  0
 11 29  1  0
 11 30  1  0
 11 31  1  0
 12 32  1  0
 15 33  1  0
 15 34  1  0
 15 35  1  0
M  CHG  1  12   1
M  END
>  <UniqueID>  (28) 
27

>  <SMILES>  (28) 
Cc1cc(CN(C)Cc2c(C)[nH+]oc2C)no1

>  <Energy>  (28) 
91.41204226175145

>  <Genealogy>  (28) 
Cc1cc(CN(C)Cc2c(C)[nH+]oc2C)no1 (protonated)
Cc1cc(CN(C)Cc2c(C)[nH+]oc2C)no1 (3D coordinates assigned)
Cc1cc(CN(C)Cc2c(C)[nH+]oc2C)no1 (optimized conformer: 91.41204226175145 kcal/mol)

>  <smiles>  (28) 
Cc1cc(CN(C)Cc2c(C)noc2C)no1

>  <score_type>  (28) 
oracle

>  <origin>  (28) 
adg

>  <m_score__min__energy>  (28) 
-7.6299999999999999

>  <m_primary>  (28) 
energy

$$$$
28:0
     RDKit          3D

 36 37  0  0  0  0  0  0  0  0999 V2000
   -5.7580   24.3530  -30.2660 C   0  0  0  0  0  0  0  0  0  0  0  0
   -4.6770   24.3000  -31.1910 O   0  0  0  0  0  0  0  0  0  0  0  0
   -3.5970   23.4070  -31.1050 C   0  0  0  0  0  0  0  0  0  0  0  0
   -3.4620   22.3200  -31.9920 C   0  0  0  0  0  0  0  0  0  0  0  0
   -2.4160   21.4010  -31.8400 C   0  0  0  0  0  0  0  0  0  0  0  0
   -2.2770   20.0310  -32.9380 S   0  0  0  0  0  0  0  0  0  0  0  0
   -1.1150   20.2660  -33.8620 O   0  0  0  0  0  0  0  0  0  0  0  0
   -2.0460   18.7590  -32.1690 O   0  0  0  0  0  0  0  0  0  0  0  0
   -3.7240   19.8670  -33.8800 N   0  0  0  0  0  0  0  0  0  0  0  0
   -5.0150   19.5210  -33.3600 C   0  0  0  0  0  0  0  0  0  0  0  0
   -5.4330   18.1850  -33.2220 C   0  0  0  0  0  0  0  0  0  0  0  0
   -6.6920   17.8930  -32.6920 C   0  0  0  0  0  0  0  0  0  0  0  0
   -7.5520   18.9260  -32.3020 C   0  0  0  0  0  0  0  0  0  0  0  0
   -9.1280   18.5190  -31.6360 Cl  0  0  0  0  0  0  0  0  0  0  0  0
   -7.1440   20.2620  -32.4450 C   0  0  0  0  0  0  0  0  0  0  0  0
   -8.1910   21.5920  -31.9680 Cl  0  0  0  0  0  0  0  0  0  0  0  0
   -5.8800   20.5510  -32.9730 C   0  0  0  0  0  0  0  0  0  0  0  0
   -1.4930   21.5690  -30.8020 C   0  0  0  0  0  0  0  0  0  0  0  0
   -1.6090   22.6500  -29.9270 C   0  0  0  0  0  0  0  0  0  0  0  0
   -2.6370   23.5860  -30.0880 C   0  0  0  0  0  0  0  0  0  0  0  0
   -2.7220   24.6800  -29.1650 N   0  0  0  0  0  0  0  0  0  0  0  0
   -1.6090   25.3250  -28.5300 C   0  0  0  0  0  0  0  0  0  0  0  0
   -0.9140   24.7240  -27.3460 C   0  0  0  0  0  0  0  0  0  0  0  0
   -1.2280   26.4450  -28.9600 O   0  0  0  0  0  0  0  0  0  0  0  0
   -5.3634   24.3337  -29.2394 H   0  0  0  0  0  0  0  0  0  0  0  0
   -6.3289   25.2802  -30.4220 H   0  0  0  0  0  0  0  0  0  0  0  0
   -6.4169   23.4861  -30.4220 H   0  0  0  0  0  0  0  0  0  0  0  0
   -4.1848   22.1922  -32.8112 H   0  0  0  0  0  0  0  0  0  0  0  0
   -4.7660   17.3672  -33.5326 H   0  0  0  0  0  0  0  0  0  0  0  0
   -7.0092   16.8456  -32.5806 H   0  0  0  0  0  0  0  0  0  0  0  0
   -5.5634   21.5985  -33.0849 H   0  0  0  0  0  0  0  0  0  0  0  0
   -0.6732   20.8466  -30.6752 H   0  0  0  0  0  0  0  0  0  0  0  0
   -0.8874   22.7672  -29.1050 H   0  0  0  0  0  0  0  0  0  0  0  0
   -1.3637   25.1129  -26.4205 H   0  0  0  0  0  0  0  0  0  0  0  0
   -1.0216   23.6296  -27.3742 H   0  0  0  0  0  0  0  0  0  0  0  0
    0.1534   24.9884  -27.3742 H   0  0  0  0  0  0  0  0  0  0  0  0
  1  2  1  0
  2  3  1  0
  3  4  2  0
  4  5  1  0
  5  6  1  0
  6  7  2  0
  6  8  2  0
  6  9  1  0
  9 10  1  0
 10 11  2  0
 11 12  1  0
 12 13  2  0
 13 14  1  0
 13 15  1  0
 15 16  1  0
 15 17  2  0
  5 18  2  0
 18 19  1  0
 19 20  2  0
 20 21  1  0
 21 22  1  0
 22 23  1  0
 22 24  2  0
 20  3  1  0
 17 10  1  0
  1 25  1  0
  1 26  1  0
  1 27  1  0
  4 28  1  0
 11 29  1  0
 12 30  1  0
 17 31  1  0
 18 32  1  0
 19 33  1  0
 23 34  1  0
 23 35  1  0
 23 36  1  0
M  CHG  2   9  -1  21  -1
M  END
>  <UniqueID>  (29) 
28

>  <SMILES>  (29) 
COc1cc(S(=O)(=O)[N-]c2ccc(Cl)c(Cl)c2)ccc1[N-]C(C)=O

>  <Energy>  (29) 
44.06910752870571

>  <Genealogy>  (29) 
COc1cc(S(=O)(=O)[N-]c2ccc(Cl)c(Cl)c2)ccc1[N-]C(C)=O (protonated)
COc1cc(S(=O)(=O)[N-]c2ccc(Cl)c(Cl)c2)ccc1[N-]C(C)=O (3D coordinates assigned)
COc1cc(S(=O)(=O)[N-]c2ccc(Cl)c(Cl)c2)ccc1[N-]C(C)=O (optimized conformer: 44.06910752870571 kcal/mol)

>  <smiles>  (29) 
COc1cc(S(=O)(=O)Nc2ccc(Cl)c(Cl)c2)ccc1NC(C)=O

>  <score_type>  (29) 
oracle

>  <origin>  (29) 
adg

>  <m_score__min__energy>  (29) 
-10.83

>  <m_primary>  (29) 
energy

$$$$
29:0
     RDKit          3D

 24 24  0  0  0  0  0  0  0  0999 V2000
   -9.4700   21.2480  -31.9100 C   0  0  0  0  0  0  0  0  0  0  0  0
   -8.7820   22.4900  -32.0180 O   0  0  0  0  0  0  0  0  0  0  0  0
   -7.3990   22.6480  -31.8440 C   0  0  0  0  0  0  0  0  0  0  0  0
   -6.4660   21.7230  -32.3420 C   0  0  0  0  0  0  0  0  0  0  0  0
   -5.0990   21.9180  -32.1380 C   0  0  0  0  0  0  0  0  0  0  0  0
   -4.6350   23.0460  -31.4350 C   0  0  0  0  0  0  0  0  0  0  0  0
   -3.2670   23.2630  -31.2000 O   0  0  0  0  0  0  0  0  0  0  0  0
   -2.3150   22.2310  -30.9570 C   0  0  0  0  0  0  0  0  0  0  0  0
   -5.5670   23.9860  -30.9480 C   0  0  0  0  0  0  0  0  0  0  0  0
   -5.1060   25.1880  -30.1690 C   0  0  0  0  0  0  0  0  0  0  0  0
   -3.9180   25.6740  -30.7270 O   0  0  0  0  0  0  0  0  0  0  0  0
   -6.9410   23.7700  -31.1460 C   0  0  0  0  0  0  0  0  0  0  0  0
   -9.6090   20.9970  -30.8481 H   0  0  0  0  0  0  0  0  0  0  0  0
  -10.4519   21.3290  -32.3992 H   0  0  0  0  0  0  0  0  0  0  0  0
   -8.8806   20.4586  -32.3992 H   0  0  0  0  0  0  0  0  0  0  0  0
   -6.8151   20.8393  -32.8963 H   0  0  0  0  0  0  0  0  0  0  0  0
   -4.3787   21.1846  -32.5296 H   0  0  0  0  0  0  0  0  0  0  0  0
   -2.1899   22.0954  -29.8726 H   0  0  0  0  0  0  0  0  0  0  0  0
   -2.6702   21.2915  -31.4054 H   0  0  0  0  0  0  0  0  0  0  0  0
   -1.3499   22.5094  -31.4054 H   0  0  0  0  0  0  0  0  0  0  0  0
   -5.8781   25.9705  -30.2100 H   0  0  0  0  0  0  0  0  0  0  0  0
   -4.9308   24.9026  -29.1212 H   0  0  0  0  0  0  0  0  0  0  0  0
   -3.5120   24.9130  -31.2180 H   0  0  0  0  0  0  0  0  0  0  0  0
   -7.6668   24.4936  -30.7464 H   0  0  0  0  0  0  0  0  0  0  0  0
  1  2  1  0
  2  3  1  0
  3  4  2  0
  4  5  1  0
  5  6  2  0
  6  7  1  0
  7  8  1  0
  6  9  1  0
  9 10  1  0
 10 11  1  0
  9 12  2  0
 12  3  1  0
  1 13  1  0
  1 14  1  0
  1 15  1  0
  4 16  1  0
  5 17  1  0
  8 18  1  0
  8 19  1  0
  8 20  1  0
 10 21  1  0
 10 22  1  0
 11 23  1  0
 12 24  1  0
M  END
>  <UniqueID>  (30) 
29

>  <SMILES>  (30) 
COc1ccc(OC)c(CO)c1

>  <Energy>  (30) 
20.526478880574686

>  <Genealogy>  (30) 
COc1ccc(OC)c(CO)c1 (3D coordinates assigned)
COc1ccc(OC)c(CO)c1 (optimized conformer: 20.526478880574686 kcal/mol)

>  <smiles>  (30) 
COc1ccc(OC)c(CO)c1

>  <score_type>  (30) 
oracle

>  <origin>  (30) 
adg

>  <m_score__min__energy>  (30) 
-5.2599999999999998

>  <m_primary>  (30) 
energy

$$$$
30:0
     RDKit          3D

 31 32  0  0  0  0  0  0  0  0999 V2000
   -0.3010   22.3590  -25.1090 N   0  0  0  0  0  0  0  0  0  0  0  0
   -0.8530   22.8280  -26.0120 C   0  0  0  0  0  0  0  0  0  0  0  0
   -1.5400   23.4130  -27.1340 C   0  0  0  0  0  0  0  0  0  0  0  0
   -2.8150   22.9580  -27.4910 C   0  0  0  0  0  0  0  0  0  0  0  0
   -3.4840   23.5270  -28.5800 C   0  0  0  0  0  0  0  0  0  0  0  0
   -2.8750   24.5490  -29.3310 C   0  0  0  0  0  0  0  0  0  0  0  0
   -3.5340   25.1780  -30.4390 N   0  0  0  0  0  0  0  0  0  0  0  0
   -4.9420   25.1720  -30.7110 C   0  0  0  0  0  0  0  0  0  0  0  0
   -5.7570   25.6290  -29.8670 O   0  0  0  0  0  0  0  0  0  0  0  0
   -5.4500   24.5460  -31.8940 N   0  0  0  0  0  0  0  0  0  0  0  0
   -6.1090   23.2740  -31.9600 C   0  0  0  0  0  0  0  0  0  0  0  0
   -7.4820   23.2120  -31.6900 C   0  0  0  0  0  0  0  0  0  0  0  0
   -8.1640   21.9940  -31.7630 C   0  0  0  0  0  0  0  0  0  0  0  0
   -7.4830   20.8250  -32.1270 C   0  0  0  0  0  0  0  0  0  0  0  0
   -8.3350   19.2860  -32.2120 S   0  0  0  0  0  0  0  0  0  0  0  0
   -9.8120   19.4790  -33.0880 N   0  0  0  0  0  0  0  0  0  0  0  0
   -7.4700   18.2740  -32.9060 O   0  0  0  0  0  0  0  0  0  0  0  0
   -8.6570   18.8010  -30.8260 O   0  0  0  0  0  0  0  0  0  0  0  0
   -6.1140   20.8850  -32.4170 C   0  0  0  0  0  0  0  0  0  0  0  0
   -5.4320   22.1030  -32.3430 C   0  0  0  0  0  0  0  0  0  0  0  0
   -1.6090   25.0150  -28.9520 C   0  0  0  0  0  0  0  0  0  0  0  0
   -0.9400   24.4450  -27.8640 C   0  0  0  0  0  0  0  0  0  0  0  0
   -3.2916   22.1517  -26.9142 H   0  0  0  0  0  0  0  0  0  0  0  0
   -4.4902   23.1739  -28.8501 H   0  0  0  0  0  0  0  0  0  0  0  0
   -8.0273   24.1280  -31.4187 H   0  0  0  0  0  0  0  0  0  0  0  0
   -9.2391   21.9532  -31.5339 H   0  0  0  0  0  0  0  0  0  0  0  0
   -9.5600   19.5620  -34.0980 H   0  0  0  0  0  0  0  0  0  0  0  0
   -5.5738   19.9707  -32.7039 H   0  0  0  0  0  0  0  0  0  0  0  0
   -4.3600   22.1454  -32.5857 H   0  0  0  0  0  0  0  0  0  0  0  0
   -1.1380   25.8349  -29.5141 H   0  0  0  0  0  0  0  0  0  0  0  0
    0.0591   24.8085  -27.5818 H   0  0  0  0  0  0  0  0  0  0  0  0
  1  2  3  0
  2  3  1  0
  3  4  2  0
  4  5  1  0
  5  6  2  0
  6  7  1  0
  7  8  1  0
  8  9  2  0
  8 10  1  0
 10 11  1  0
 11 12  2  0
 12 13  1  0
 13 14  2  0
 14 15  1  0
 15 16  1  0
 15 17  2  0
 15 18  2  0
 14 19  1  0
 19 20  2  0
  6 21  1  0
 21 22  2  0
 22  3  1  0
 20 11  1  0
  4 23  1  0
  5 24  1  0
 12 25  1  0
 13 26  1  0
 16 27  1  0
 19 28  1  0
 20 29  1  0
 21 30  1  0
 22 31  1  0
M  CHG  3   7  -1  10  -1  16  -1
M  END
>  <UniqueID>  (31) 
30

>  <SMILES>  (31) 
N#Cc1ccc([N-]C(=O)[N-]c2ccc(S([NH-])(=O)=O)cc2)cc1

>  <Energy>  (31) 
37.358956522406864

>  <Genealogy>  (31) 
N#Cc1ccc([N-]C(=O)[N-]c2ccc(S([NH-])(=O)=O)cc2)cc1 (protonated)
N#Cc1ccc([N-]C(=O)[N-]c2ccc(S([NH-])(=O)=O)cc2)cc1 (3D coordinates assigned)
N#Cc1ccc([N-]C(=O)[N-]c2ccc(S([NH-])(=O)=O)cc2)cc1 (optimized conformer: 37.358956522406864 kcal/mol)

>  <smiles>  (31) 
N#Cc1ccc(NC(=O)Nc2ccc(S(N)(=O)=O)cc2)cc1

>  <score_type>  (31) 
oracle

>  <origin>  (31) 
adg

>  <m_score__min__energy>  (31) 
-10.02

>  <m_primary>  (31) 
energy

$$$$
31:0
     RDKit          3D

 58 61  0  0  0  0  0  0  0  0999 V2000
   -0.5120   19.0970  -28.8120 C   0  0  0  0  0  0  0  0  0  0  0  0
   -1.1850   20.4290  -28.9730 C   0  0  0  0  0  0  0  0  0  0  0  0
   -0.6040   21.4310  -29.7650 C   0  0  0  0  0  0  0  0  0  0  0  0
   -1.2450   22.6620  -29.9310 C   0  0  0  0  0  0  0  0  0  0  0  0
   -2.4870   22.9000  -29.3200 C   0  0  0  0  0  0  0  0  0  0  0  0
   -3.1710   24.1530  -29.4650 N   0  0  0  0  0  0  0  0  0  0  0  0
   -4.1390   24.4720  -30.4760 C   0  0  0  0  0  0  0  0  0  0  0  0
   -4.2410   25.6680  -30.8570 O   0  0  0  0  0  0  0  0  0  0  0  0
   -5.0510   23.4490  -31.0410 C   0  0  0  0  0  0  0  0  0  0  0  0
   -6.3070   23.2030  -30.4590 C   0  0  0  0  0  0  0  0  0  0  0  0
   -7.1570   22.2310  -30.9930 C   0  0  0  0  0  0  0  0  0  0  0  0
   -6.7720   21.4980  -32.1240 C   0  0  0  0  0  0  0  0  0  0  0  0
   -7.6820   20.4320  -32.6730 C   0  0  0  0  0  0  0  0  0  0  0  0
   -7.4360   19.1490  -31.9780 N   0  0  0  0  0  0  0  0  0  0  0  0
   -6.1400   19.1250  -31.2550 C   0  0  0  0  0  0  0  0  0  0  0  0
   -4.9860   18.5380  -32.0940 C   0  0  0  0  0  0  0  0  0  0  0  0
   -5.2660   18.7140  -33.5310 N   0  0  0  0  0  0  0  0  0  0  0  0
   -4.0940   18.3620  -34.3570 C   0  0  0  0  0  0  0  0  0  0  0  0
   -2.8660   19.0690  -33.8460 C   0  0  0  0  0  0  0  0  0  0  0  0
   -2.8200   20.4730  -33.8010 C   0  0  0  0  0  0  0  0  0  0  0  0
   -1.6740   21.1260  -33.3380 C   0  0  0  0  0  0  0  0  0  0  0  0
   -0.5660   20.3850  -32.9190 C   0  0  0  0  0  0  0  0  0  0  0  0
   -0.6010   18.9890  -32.9640 C   0  0  0  0  0  0  0  0  0  0  0  0
   -1.7440   18.3290  -33.4270 C   0  0  0  0  0  0  0  0  0  0  0  0
   -1.7580   16.9720  -33.4690 F   0  0  0  0  0  0  0  0  0  0  0  0
   -6.4460   17.9180  -33.9290 C   0  0  0  0  0  0  0  0  0  0  0  0
   -7.5760   17.9870  -32.8770 C   0  0  0  0  0  0  0  0  0  0  0  0
   -5.5270   21.7530  -32.7190 C   0  0  0  0  0  0  0  0  0  0  0  0
   -4.6760   22.7250  -32.1850 C   0  0  0  0  0  0  0  0  0  0  0  0
   -3.0580   21.9070  -28.5150 C   0  0  0  0  0  0  0  0  0  0  0  0
   -2.4200   20.6740  -28.3500 C   0  0  0  0  0  0  0  0  0  0  0  0
   -3.0100   19.7170  -27.5870 F   0  0  0  0  0  0  0  0  0  0  0  0
   -0.3978   18.8709  -27.7416 H   0  0  0  0  0  0  0  0  0  0  0  0
   -1.1242   18.3169  -29.2882 H   0  0  0  0  0  0  0  0  0  0  0  0
    0.4791   19.1270  -29.2882 H   0  0  0  0  0  0  0  0  0  0  0  0
    0.3618   21.2467  -30.2582 H   0  0  0  0  0  0  0  0  0  0  0  0
   -0.7752   23.4468  -30.5421 H   0  0  0  0  0  0  0  0  0  0  0  0
   -6.6227   23.7797  -29.5771 H   0  0  0  0  0  0  0  0  0  0  0  0
   -8.1332   22.0401  -30.5234 H   0  0  0  0  0  0  0  0  0  0  0  0
   -8.7290   20.7334  -32.5214 H   0  0  0  0  0  0  0  0  0  0  0  0
   -7.4820   20.3048  -33.7472 H   0  0  0  0  0  0  0  0  0  0  0  0
   -5.8780   20.1554  -30.9730 H   0  0  0  0  0  0  0  0  0  0  0  0
   -6.2681   18.4756  -30.3764 H   0  0  0  0  0  0  0  0  0  0  0  0
   -4.0501   19.0567  -31.8392 H   0  0  0  0  0  0  0  0  0  0  0  0
   -4.8898   17.4645  -31.8740 H   0  0  0  0  0  0  0  0  0  0  0  0
   -3.9320   17.2749  -34.3132 H   0  0  0  0  0  0  0  0  0  0  0  0
   -4.2807   18.6724  -35.3956 H   0  0  0  0  0  0  0  0  0  0  0  0
   -3.6893   21.0604  -34.1315 H   0  0  0  0  0  0  0  0  0  0  0  0
   -1.6444   22.2251  -33.3035 H   0  0  0  0  0  0  0  0  0  0  0  0
    0.3342   20.9009  -32.5536 H   0  0  0  0  0  0  0  0  0  0  0  0
    0.2726   18.4074  -32.6345 H   0  0  0  0  0  0  0  0  0  0  0  0
   -6.8280   18.3041  -34.8856 H   0  0  0  0  0  0  0  0  0  0  0  0
   -6.1312   16.8679  -34.0194 H   0  0  0  0  0  0  0  0  0  0  0  0
   -8.5414   18.0585  -33.3994 H   0  0  0  0  0  0  0  0  0  0  0  0
   -7.5179   17.0772  -32.2615 H   0  0  0  0  0  0  0  0  0  0  0  0
   -5.2193   21.1855  -33.6096 H   0  0  0  0  0  0  0  0  0  0  0  0
   -3.7060   22.9243  -32.6639 H   0  0  0  0  0  0  0  0  0  0  0  0
   -4.0156   22.0983  -28.0086 H   0  0  0  0  0  0  0  0  0  0  0  0
  1  2  1  0
  2  3  2  0
  3  4  1  0
  4  5  2  0
  5  6  1  0
  6  7  1  0
  7  8  2  0
  7  9  1  0
  9 10  2  0
 10 11  1  0
 11 12  2  0
 12 13  1  0
 13 14  1  0
 14 15  1  0
 15 16  1  0
 16 17  1  0
 17 18  1  0
 18 19  1  0
 19 20  2  0
 20 21  1  0
 21 22  2  0
 22 23  1  0
 23 24  2  0
 24 25  1  0
 17 26  1  0
 26 27  1  0
 12 28  1  0
 28 29  2  0
  5 30  1  0
 30 31  2  0
 31 32  1  0
 31  2  1  0
 29  9  1  0
 27 14  1  0
 24 19  1  0
  1 33  1  0
  1 34  1  0
  1 35  1  0
  3 36  1  0
  4 37  1  0
 10 38  1  0
 11 39  1  0
 13 40  1  0
 13 41  1  0
 15 42  1  0
 15 43  1  0
 16 44  1  0
 16 45  1  0
 18 46  1  0
 18 47  1  0
 20 48  1  0
 21 49  1  0
 22 50  1  0
 23 51  1  0
 26 52  1  0
 26 53  1  0
 27 54  1  0
 27 55  1  0
 28 56  1  0
 29 57  1  0
 30 58  1  0
M  CHG  1   6  -1
M  END
>  <UniqueID>  (32) 
31

>  <SMILES>  (32) 
Cc1ccc([N-]C(=O)c2ccc(CN3CCN(Cc4ccccc4F)CC3)cc2)cc1F

>  <Energy>  (32) 
78.4533834628647

>  <Genealogy>  (32) 
Cc1ccc([N-]C(=O)c2ccc(CN3CCN(Cc4ccccc4F)CC3)cc2)cc1F (protonated)
Cc1ccc([N-]C(=O)c2ccc(CN3CCN(Cc4ccccc4F)CC3)cc2)cc1F (3D coordinates assigned)
Cc1ccc([N-]C(=O)c2ccc(CN3CCN(Cc4ccccc4F)CC3)cc2)cc1F (nonaromatic ring conformer: 78.4533834628647 kcal/mol)

>  <smiles>  (32) 
Cc1ccc(NC(=O)c2ccc(CN3CCN(Cc4ccccc4F)CC3)cc2)cc1F

>  <score_type>  (32) 
oracle

>  <origin>  (32) 
adg

>  <m_score__min__energy>  (32) 
-10.800000000000001

>  <m_primary>  (32) 
energy

$$$$
32:0
     RDKit          3D

 17 18  0  0  0  0  0  0  0  0999 V2000
   -4.9140   25.2960  -31.2190 F   0  0  0  0  0  0  0  0  0  0  0  0
   -5.6080   24.5850  -30.2580 C   0  0  0  0  0  0  0  0  0  0  0  0
   -4.7090   24.0600  -29.3480 F   0  0  0  0  0  0  0  0  0  0  0  0
   -6.4770   25.4370  -29.6010 F   0  0  0  0  0  0  0  0  0  0  0  0
   -6.3850   23.4840  -30.9010 C   0  0  0  0  0  0  0  0  0  0  0  0
   -7.6100   23.0820  -30.4670 N   0  0  0  0  0  0  0  0  0  0  0  0
   -7.8570   22.0530  -31.2970 C   0  0  0  0  0  0  0  0  0  0  0  0
   -8.9890   21.2480  -31.3190 C   0  0  0  0  0  0  0  0  0  0  0  0
   -9.0140   20.2230  -32.2800 C   0  0  0  0  0  0  0  0  0  0  0  0
   -7.9590   20.0470  -33.1380 N   0  0  0  0  0  0  0  0  0  0  0  0
   -6.8670   20.8620  -33.0770 C   0  0  0  0  0  0  0  0  0  0  0  0
   -6.8530   21.8480  -32.1500 N   0  0  0  0  0  0  0  0  0  0  0  0
   -5.9030   22.7320  -31.9210 N   0  0  0  0  0  0  0  0  0  0  0  0
   -9.8234   21.4050  -30.6197 H   0  0  0  0  0  0  0  0  0  0  0  0
   -9.8868   19.5566  -32.3444 H   0  0  0  0  0  0  0  0  0  0  0  0
   -7.9910   19.2800  -33.8450 H   0  0  0  0  0  0  0  0  0  0  0  0
   -6.0193   20.7215  -33.7638 H   0  0  0  0  0  0  0  0  0  0  0  0
  1  2  1  0
  2  3  1  0
  2  4  1  0
  2  5  1  0
  5  6  1  0
  6  7  2  0
  7  8  1  0
  8  9  2  0
  9 10  1  0
 10 11  2  0
 11 12  1  0
 12 13  1  0
 13  5  2  0
 12  7  1  0
  8 14  1  0
  9 15  1  0
 10 16  1  0
 11 17  1  0
M  CHG  1  10   1
M  END
>  <UniqueID>  (33) 
32

>  <SMILES>  (33) 
FC(F)(F)c1nc2cc[nH+]cn2n1

>  <Energy>  (33) 
54.813961359492104

>  <Genealogy>  (33) 
FC(F)(F)c1nc2cc[nH+]cn2n1 (protonated)
FC(F)(F)c1nc2cc[nH+]cn2n1 (3D coordinates assigned)
FC(F)(F)c1nc2cc[nH+]cn2n1 (optimized conformer: 54.813961359492104 kcal/mol)

>  <smiles>  (33) 
FC(F)(F)c1nc2ccncn2n1

>  <score_type>  (33) 
oracle

>  <origin>  (33) 
adg

>  <m_score__min__energy>  (33) 
-4.0300000000000002

>  <m_primary>  (33) 
energy

$$$$
33:0
     RDKit          3D

 47 49  0  0  0  0  0  0  0  0999 V2000
   -6.5330   17.3500  -33.6340 C   0  0  0  0  0  0  0  0  0  0  0  0
   -6.8930   18.2980  -32.5670 N   0  0  0  0  0  0  0  0  0  0  0  0
   -6.5170   17.7800  -31.2430 C   0  0  0  0  0  0  0  0  0  0  0  0
   -8.2990   18.7590  -32.6430 C   0  0  0  0  0  0  0  0  0  0  0  0
   -8.4900   20.2920  -32.5880 C   0  0  0  0  0  0  0  0  0  0  0  0
   -7.2210   20.9980  -32.4060 N   0  0  0  0  0  0  0  0  0  0  0  0
   -7.1800   22.4130  -32.1790 C   0  0  0  0  0  0  0  0  0  0  0  0
   -8.2510   23.0780  -32.1380 O   0  0  0  0  0  0  0  0  0  0  0  0
   -5.8610   23.1030  -31.9240 C   0  0  0  0  0  0  0  0  0  0  0  0
   -6.0570   24.4540  -31.1820 C   0  0  0  0  0  0  0  0  0  0  0  0
   -5.5760   24.4110  -29.7280 C   0  0  0  0  0  0  0  0  0  0  0  0
   -4.1770   23.9610  -29.6790 N   0  0  0  0  0  0  0  0  0  0  0  0
   -3.2530   24.5400  -28.7370 C   0  0  0  0  0  0  0  0  0  0  0  0
   -2.1610   25.2550  -29.1200 N   0  0  0  0  0  0  0  0  0  0  0  0
   -1.6090   25.5900  -27.9450 C   0  0  0  0  0  0  0  0  0  0  0  0
   -0.4510   26.3340  -27.7290 C   0  0  0  0  0  0  0  0  0  0  0  0
   -0.0600   26.5600  -26.3960 C   0  0  0  0  0  0  0  0  0  0  0  0
    1.0610   27.2770  -26.1350 F   0  0  0  0  0  0  0  0  0  0  0  0
   -0.8290   26.0430  -25.3280 C   0  0  0  0  0  0  0  0  0  0  0  0
   -1.9950   25.2960  -25.5860 C   0  0  0  0  0  0  0  0  0  0  0  0
   -2.3490   25.0920  -26.9170 C   0  0  0  0  0  0  0  0  0  0  0  0
   -3.4060   24.4170  -27.3910 N   0  0  0  0  0  0  0  0  0  0  0  0
   -3.7240   22.8710  -30.5560 C   0  0  0  0  0  0  0  0  0  0  0  0
   -4.9090   22.1340  -31.1900 C   0  0  0  0  0  0  0  0  0  0  0  0
   -6.1764   16.4111  -33.1853 H   0  0  0  0  0  0  0  0  0  0  0  0
   -7.4164   17.1464  -34.2570 H   0  0  0  0  0  0  0  0  0  0  0  0
   -5.7371   17.7841  -34.2570 H   0  0  0  0  0  0  0  0  0  0  0  0
   -6.9717   18.4065  -30.4615 H   0  0  0  0  0  0  0  0  0  0  0  0
   -6.8759   16.7454  -31.1386 H   0  0  0  0  0  0  0  0  0  0  0  0
   -5.4222   17.8006  -31.1386 H   0  0  0  0  0  0  0  0  0  0  0  0
   -8.7260   18.3961  -33.5896 H   0  0  0  0  0  0  0  0  0  0  0  0
   -8.8025   18.3553  -31.7522 H   0  0  0  0  0  0  0  0  0  0  0  0
   -8.9501   20.6263  -33.5296 H   0  0  0  0  0  0  0  0  0  0  0  0
   -9.1331   20.5228  -31.7259 H   0  0  0  0  0  0  0  0  0  0  0  0
   -6.3190   20.4710  -32.4470 H   0  0  0  0  0  0  0  0  0  0  0  0
   -5.3923   23.3661  -32.8837 H   0  0  0  0  0  0  0  0  0  0  0  0
   -5.4922   25.2327  -31.7156 H   0  0  0  0  0  0  0  0  0  0  0  0
   -7.1357   24.6686  -31.1666 H   0  0  0  0  0  0  0  0  0  0  0  0
   -5.6517   25.4165  -29.2885 H   0  0  0  0  0  0  0  0  0  0  0  0
   -6.2033   23.7093  -29.1587 H   0  0  0  0  0  0  0  0  0  0  0  0
    0.1366   26.7305  -28.5701 H   0  0  0  0  0  0  0  0  0  0  0  0
   -0.5149   26.2252  -24.2897 H   0  0  0  0  0  0  0  0  0  0  0  0
   -2.6039   24.8885  -24.7655 H   0  0  0  0  0  0  0  0  0  0  0  0
   -3.0956   23.2920  -31.3547 H   0  0  0  0  0  0  0  0  0  0  0  0
   -3.1541   22.1523  -29.9488 H   0  0  0  0  0  0  0  0  0  0  0  0
   -4.5254   21.3973  -31.9112 H   0  0  0  0  0  0  0  0  0  0  0  0
   -5.4755   21.6421  -30.3856 H   0  0  0  0  0  0  0  0  0  0  0  0
  1  2  1  0
  2  3  1  0
  2  4  1  0
  4  5  1  0
  5  6  1  0
  6  7  1  0
  7  8  2  0
  7  9  1  0
  9 10  1  0
 10 11  1  0
 11 12  1  0
 12 13  1  0
 13 14  2  0
 14 15  1  0
 15 16  2  0
 16 17  1  0
 17 18  1  0
 17 19  2  0
 19 20  1  0
 20 21  2  0
 21 22  1  0
 12 23  1  0
 23 24  1  0
 24  9  1  0
 22 13  1  0
 21 15  1  0
  1 25  1  0
  1 26  1  0
  1 27  1  0
  3 28  1  0
  3 29  1  0
  3 30  1  0
  4 31  1  0
  4 32  1  0
  5 33  1  0
  5 34  1  0
  6 35  1  0
  9 36  1  0
 10 37  1  0
 10 38  1  0
 11 39  1  0
 11 40  1  0
 16 41  1  0
 19 42  1  0
 20 43  1  0
 23 44  1  0
 23 45  1  0
 24 46  1  0
 24 47  1  0
M  CHG  1  22  -1
M  END
>  <UniqueID>  (34) 
33

>  <SMILES>  (34) 
CN(C)CCNC(=O)C1CCN(c2nc3cc(F)ccc3[n-]2)CC1

>  <Energy>  (34) 
84.78822942162277

>  <Genealogy>  (34) 
CN(C)CCNC(=O)C1CCN(c2nc3cc(F)ccc3[n-]2)CC1 (protonated)
CN(C)CCNC(=O)C1CCN(c2nc3cc(F)ccc3[n-]2)CC1 (3D coordinates assigned)
CN(C)CCNC(=O)C1CCN(c2nc3cc(F)ccc3[n-]2)CC1 (nonaromatic ring conformer: 84.78822942162277 kcal/mol)

>  <smiles>  (34) 
CN(C)CCNC(=O)C1CCN(c2nc3cc(F)ccc3[nH]2)CC1

>  <score_type>  (34) 
oracle

>  <origin>  (34) 
adg

>  <m_score__min__energy>  (34) 
-8.1899999999999995

>  <m_primary>  (34) 
energy

$$$$
34:0
     RDKit          3D

 52 55  0  0  0  0  0  0  0  0999 V2000
   -5.7940   24.9670  -29.3660 C   0  0  0  0  0  0  0  0  0  0  0  0
   -4.9490   25.4540  -30.5370 C   0  0  0  0  0  0  0  0  0  0  0  0
   -3.5710   25.1460  -30.3270 O   0  0  0  0  0  0  0  0  0  0  0  0
   -3.0590   24.2680  -29.3530 C   0  0  0  0  0  0  0  0  0  0  0  0
   -2.5340   24.7340  -28.1350 C   0  0  0  0  0  0  0  0  0  0  0  0
   -2.0230   23.8440  -27.1930 C   0  0  0  0  0  0  0  0  0  0  0  0
   -2.0250   22.4680  -27.4460 C   0  0  0  0  0  0  0  0  0  0  0  0
   -1.5160   21.5780  -26.4850 C   0  0  0  0  0  0  0  0  0  0  0  0
   -1.5270   20.2040  -26.7260 C   0  0  0  0  0  0  0  0  0  0  0  0
   -2.0420   19.7060  -27.9220 C   0  0  0  0  0  0  0  0  0  0  0  0
   -2.5480   20.5790  -28.8860 C   0  0  0  0  0  0  0  0  0  0  0  0
   -2.5460   21.9720  -28.6690 C   0  0  0  0  0  0  0  0  0  0  0  0
   -3.0650   22.8830  -29.6260 C   0  0  0  0  0  0  0  0  0  0  0  0
   -3.6300   22.4170  -30.9140 C   0  0  0  0  0  0  0  0  0  0  0  0
   -4.9410   22.2200  -31.0470 C   0  0  0  0  0  0  0  0  0  0  0  0
   -5.4960   21.8920  -32.4010 C   0  0  0  0  0  0  0  0  0  0  0  0
   -4.6650   20.8910  -33.1240 N   0  0  2  0  0  0  0  0  0  0  0  0
   -5.1170   19.4910  -32.8950 C   0  0  0  0  0  0  0  0  0  0  0  0
   -6.5960   19.3470  -32.5810 C   0  0  0  0  0  0  0  0  0  0  0  0
   -7.5620   20.0460  -33.3280 C   0  0  0  0  0  0  0  0  0  0  0  0
   -8.9220   19.9060  -33.0360 C   0  0  0  0  0  0  0  0  0  0  0  0
   -9.3350   19.0440  -32.0180 C   0  0  0  0  0  0  0  0  0  0  0  0
   -8.3890   18.3080  -31.3000 C   0  0  0  0  0  0  0  0  0  0  0  0
   -7.0270   18.4520  -31.5830 C   0  0  0  0  0  0  0  0  0  0  0  0
   -3.1830   21.0610  -32.9680 C   0  0  0  0  0  0  0  0  0  0  0  0
   -2.7670   22.2940  -32.1380 C   0  0  0  0  0  0  0  0  0  0  0  0
   -5.3069   25.2477  -28.4205 H   0  0  0  0  0  0  0  0  0  0  0  0
   -6.7910   25.4290  -29.4161 H   0  0  0  0  0  0  0  0  0  0  0  0
   -5.8940   23.8727  -29.4161 H   0  0  0  0  0  0  0  0  0  0  0  0
   -5.2924   24.9625  -31.4592 H   0  0  0  0  0  0  0  0  0  0  0  0
   -5.0586   26.5452  -30.6227 H   0  0  0  0  0  0  0  0  0  0  0  0
   -2.5266   25.8134  -27.9234 H   0  0  0  0  0  0  0  0  0  0  0  0
   -1.6157   24.2252  -26.2450 H   0  0  0  0  0  0  0  0  0  0  0  0
   -1.1077   21.9658  -25.5401 H   0  0  0  0  0  0  0  0  0  0  0  0
   -1.1282   19.5115  -25.9701 H   0  0  0  0  0  0  0  0  0  0  0  0
   -2.0495   18.6216  -28.1064 H   0  0  0  0  0  0  0  0  0  0  0  0
   -2.9530   20.1757  -29.8258 H   0  0  0  0  0  0  0  0  0  0  0  0
   -5.6074   22.2969  -30.1752 H   0  0  0  0  0  0  0  0  0  0  0  0
   -6.5113   21.4869  -32.2786 H   0  0  0  0  0  0  0  0  0  0  0  0
   -5.5021   22.8173  -32.9957 H   0  0  0  0  0  0  0  0  0  0  0  0
   -4.8660   21.0640  -34.1380 H   0  0  0  0  0  0  0  0  0  0  0  0
   -4.9006   18.9079  -33.8023 H   0  0  0  0  0  0  0  0  0  0  0  0
   -4.5738   19.1291  -32.0095 H   0  0  0  0  0  0  0  0  0  0  0  0
   -7.2448   20.7074  -34.1477 H   0  0  0  0  0  0  0  0  0  0  0  0
   -9.6681   20.4759  -33.6092 H   0  0  0  0  0  0  0  0  0  0  0  0
  -10.4046   18.9445  -31.7815 H   0  0  0  0  0  0  0  0  0  0  0  0
   -8.7159   17.6145  -30.5112 H   0  0  0  0  0  0  0  0  0  0  0  0
   -6.2873   17.8620  -31.0221 H   0  0  0  0  0  0  0  0  0  0  0  0
   -2.7837   20.1630  -32.4739 H   0  0  0  0  0  0  0  0  0  0  0  0
   -2.7759   21.2109  -33.9788 H   0  0  0  0  0  0  0  0  0  0  0  0
   -1.7161   22.1866  -31.8312 H   0  0  0  0  0  0  0  0  0  0  0  0
   -2.8906   23.1970  -32.7539 H   0  0  0  0  0  0  0  0  0  0  0  0
  1  2  1  0
  2  3  1  0
  3  4  1  0
  4  5  2  0
  5  6  1  0
  6  7  2  0
  7  8  1  0
  8  9  2  0
  9 10  1  0
 10 11  2  0
 11 12  1  0
 12 13  2  0
 13 14  1  0
 14 15  2  0
 15 16  1  0
 16 17  1  0
 17 18  1  0
 18 19  1  0
 19 20  2  0
 20 21  1  0
 21 22  2  0
 22 23  1  0
 23 24  2  0
 17 25  1  0
 25 26  1  0
 13  4  1  0
 26 14  1  0
 12  7  1  0
 24 19  1  0
  1 27  1  0
  1 28  1  0
  1 29  1  0
  2 30  1  0
  2 31  1  0
  5 32  1  0
  6 33  1  0
  8 34  1  0
  9 35  1  0
 10 36  1  0
 11 37  1  0
 15 38  1  0
 16 39  1  0
 16 40  1  0
 17 41  1  6
 18 42  1  0
 18 43  1  0
 20 44  1  0
 21 45  1  0
 22 46  1  0
 23 47  1  0
 24 48  1  0
 25 49  1  0
 25 50  1  0
 26 51  1  0
 26 52  1  0
M  CHG  1  17   1
M  END
>  <UniqueID>  (35) 
34

>  <SMILES>  (35) 
CCOc1ccc2ccccc2c1C1=CC[N@H+](Cc2ccccc2)CC1

>  <Energy>  (35) 
75.10936252180959

>  <Genealogy>  (35) 
CCOc1ccc2ccccc2c1C1=CC[NH+](Cc2ccccc2)CC1 (protonated)
CCOc1ccc2ccccc2c1C1=CC[N@H+](Cc2ccccc2)CC1 (chirality)
CCOc1ccc2ccccc2c1C1=CC[N@H+](Cc2ccccc2)CC1 (3D coordinates assigned)
CCOc1ccc2ccccc2c1C1=CC[N@H+](Cc2ccccc2)CC1 (nonaromatic ring conformer: 75.10936252180959 kcal/mol)

>  <smiles>  (35) 
CCOc1ccc2ccccc2c1C1=CCN(Cc2ccccc2)CC1

>  <score_type>  (35) 
oracle

>  <origin>  (35) 
adg

>  <m_score__min__energy>  (35) 
-8.9000000000000004

>  <m_primary>  (35) 
energy

$$$$
35:0
     RDKit          3D

 41 43  0  0  0  0  0  0  0  0999 V2000
   -6.6300   15.6710  -34.2190 C   0  0  0  0  0  0  0  0  0  0  0  0
   -6.6590   17.0080  -33.6020 N   0  0  0  0  0  0  0  0  0  0  0  0
   -6.1150   18.0220  -34.5420 C   0  0  0  0  0  0  0  0  0  0  0  0
   -5.6620   19.3190  -33.8390 C   0  0  0  0  0  0  0  0  0  0  0  0
   -6.2790   19.4340  -32.5150 N   0  0  0  0  0  0  0  0  0  0  0  0
   -7.1900   20.5100  -32.2440 C   0  0  0  0  0  0  0  0  0  0  0  0
   -8.5420   20.2150  -32.0040 C   0  0  0  0  0  0  0  0  0  0  0  0
   -9.4750   21.2430  -31.8540 C   0  0  0  0  0  0  0  0  0  0  0  0
   -9.0720   22.5740  -31.9670 C   0  0  0  0  0  0  0  0  0  0  0  0
   -7.7310   22.8800  -32.2110 C   0  0  0  0  0  0  0  0  0  0  0  0
   -6.7760   21.8570  -32.3200 C   0  0  0  0  0  0  0  0  0  0  0  0
   -5.0560   22.2880  -32.6380 S   0  0  0  0  0  0  0  0  0  0  0  0
   -4.7660   22.9430  -30.9870 C   0  0  0  0  0  0  0  0  0  0  0  0
   -4.0410   22.1820  -30.0590 C   0  0  0  0  0  0  0  0  0  0  0  0
   -3.8100   22.6760  -28.7720 C   0  0  0  0  0  0  0  0  0  0  0  0
   -4.3100   23.9300  -28.4020 C   0  0  0  0  0  0  0  0  0  0  0  0
   -4.0200   24.5500  -26.7870 Cl  0  0  0  0  0  0  0  0  0  0  0  0
   -5.0490   24.6840  -29.3210 C   0  0  0  0  0  0  0  0  0  0  0  0
   -5.2800   24.1900  -30.6080 C   0  0  0  0  0  0  0  0  0  0  0  0
   -6.1410   18.3230  -31.5710 C   0  0  0  0  0  0  0  0  0  0  0  0
   -5.9190   17.0000  -32.3220 C   0  0  0  0  0  0  0  0  0  0  0  0
   -6.6134   14.9038  -33.4309 H   0  0  0  0  0  0  0  0  0  0  0  0
   -7.5254   15.5358  -34.8435 H   0  0  0  0  0  0  0  0  0  0  0  0
   -5.7296   15.5748  -34.8435 H   0  0  0  0  0  0  0  0  0  0  0  0
   -7.6640   17.2380  -33.4060 H   0  0  0  0  0  0  0  0  0  0  0  0
   -5.2503   17.5867  -35.0643 H   0  0  0  0  0  0  0  0  0  0  0  0
   -6.9237   18.2915  -35.2372 H   0  0  0  0  0  0  0  0  0  0  0  0
   -4.5678   19.3058  -33.7274 H   0  0  0  0  0  0  0  0  0  0  0  0
   -5.9734   20.1792  -34.4498 H   0  0  0  0  0  0  0  0  0  0  0  0
   -8.8682   19.1668  -31.9337 H   0  0  0  0  0  0  0  0  0  0  0  0
  -10.5284   21.0033  -31.6466 H   0  0  0  0  0  0  0  0  0  0  0  0
   -9.8105   23.3827  -31.8639 H   0  0  0  0  0  0  0  0  0  0  0  0
   -7.4212   23.9300  -32.3185 H   0  0  0  0  0  0  0  0  0  0  0  0
   -3.6528   21.1932  -30.3447 H   0  0  0  0  0  0  0  0  0  0  0  0
   -3.2347   22.0788  -28.0492 H   0  0  0  0  0  0  0  0  0  0  0  0
   -5.4485   25.6667  -29.0300 H   0  0  0  0  0  0  0  0  0  0  0  0
   -5.8671   24.7821  -31.3254 H   0  0  0  0  0  0  0  0  0  0  0  0
   -5.2812   18.5133  -30.9118 H   0  0  0  0  0  0  0  0  0  0  0  0
   -7.0644   18.2441  -30.9784 H   0  0  0  0  0  0  0  0  0  0  0  0
   -4.8452   16.8728  -32.5241 H   0  0  0  0  0  0  0  0  0  0  0  0
   -6.2857   16.1694  -31.7011 H   0  0  0  0  0  0  0  0  0  0  0  0
  1  2  1  0
  2  3  1  0
  3  4  1  0
  4  5  1  0
  5  6  1  0
  6  7  2  0
  7  8  1  0
  8  9  2  0
  9 10  1  0
 10 11  2  0
 11 12  1  0
 12 13  1  0
 13 14  2  0
 14 15  1  0
 15 16  2  0
 16 17  1  0
 16 18  1  0
 18 19  2  0
  5 20  1  0
 20 21  1  0
 21  2  1  0
 11  6  1  0
 19 13  1  0
  1 22  1  0
  1 23  1  0
  1 24  1  0
  2 25  1  0
  3 26  1  0
  3 27  1  0
  4 28  1  0
  4 29  1  0
  7 30  1  0
  8 31  1  0
  9 32  1  0
 10 33  1  0
 14 34  1  0
 15 35  1  0
 18 36  1  0
 19 37  1  0
 20 38  1  0
 20 39  1  0
 21 40  1  0
 21 41  1  0
M  CHG  1   2   1
M  END
>  <UniqueID>  (36) 
35

>  <SMILES>  (36) 
C[NH+]1CCN(c2ccccc2Sc2ccc(Cl)cc2)CC1

>  <Energy>  (36) 
51.4261998456219

>  <Genealogy>  (36) 
C[NH+]1CCN(c2ccccc2Sc2ccc(Cl)cc2)CC1 (protonated)
C[NH+]1CCN(c2ccccc2Sc2ccc(Cl)cc2)CC1 (3D coordinates assigned)
C[NH+]1CCN(c2ccccc2Sc2ccc(Cl)cc2)CC1 (nonaromatic ring conformer: 51.4261998456219 kcal/mol)

>  <smiles>  (36) 
CN1CCN(c2ccccc2Sc2ccc(Cl)cc2)CC1

>  <score_type>  (36) 
oracle

>  <origin>  (36) 
adg

>  <m_score__min__energy>  (36) 
-7.4199999999999999

>  <m_primary>  (36) 
energy

$$$$
36:0
     RDKit          3D

 35 37  0  0  0  0  0  0  0  0999 V2000
   -4.5920   25.1180  -31.2030 O   0  0  0  0  0  0  0  0  0  0  0  0
   -4.6230   23.9730  -30.6780 C   0  0  0  0  0  0  0  0  0  0  0  0
   -5.6210   22.9970  -31.1560 C   0  0  0  0  0  0  0  0  0  0  0  0
   -6.9810   23.0870  -30.8240 C   0  0  0  0  0  0  0  0  0  0  0  0
   -7.7490   22.0820  -31.3940 C   0  0  0  0  0  0  0  0  0  0  0  0
   -9.4760   21.8810  -31.1980 Cl  0  0  0  0  0  0  0  0  0  0  0  0
   -6.7620   21.0960  -32.3280 S   0  0  0  0  0  0  0  0  0  0  0  0
   -5.3360   21.9260  -32.0040 C   0  0  0  0  0  0  0  0  0  0  0  0
   -3.7990   21.5670  -32.7720 Cl  0  0  0  0  0  0  0  0  0  0  0  0
   -3.7010   23.6510  -29.6200 N   0  0  0  0  0  0  0  0  0  0  0  0
   -4.1130   22.7910  -28.4970 C   0  0  0  0  0  0  0  0  0  0  0  0
   -3.6830   23.4150  -27.1630 C   0  0  0  0  0  0  0  0  0  0  0  0
   -2.3100   23.9400  -27.2230 N   0  0  0  0  0  0  0  0  0  0  0  0
   -1.7850   24.6940  -26.1150 C   0  0  0  0  0  0  0  0  0  0  0  0
   -0.8520   24.1140  -25.2410 C   0  0  0  0  0  0  0  0  0  0  0  0
   -0.3570   24.8590  -24.1700 C   0  0  0  0  0  0  0  0  0  0  0  0
   -0.7960   26.1670  -23.9730 C   0  0  0  0  0  0  0  0  0  0  0  0
   -1.7300   26.7140  -24.8550 C   0  0  0  0  0  0  0  0  0  0  0  0
   -2.2030   25.9760  -25.8960 N   0  0  0  0  0  0  0  0  0  0  0  0
   -1.5210   23.7750  -28.4490 C   0  0  0  0  0  0  0  0  0  0  0  0
   -2.3490   24.2290  -29.6530 C   0  0  0  0  0  0  0  0  0  0  0  0
   -7.3962   23.8742  -30.1776 H   0  0  0  0  0  0  0  0  0  0  0  0
   -5.2071   22.6780  -28.5088 H   0  0  0  0  0  0  0  0  0  0  0  0
   -3.6315   21.8078  -28.6038 H   0  0  0  0  0  0  0  0  0  0  0  0
   -4.3690   24.2392  -26.9179 H   0  0  0  0  0  0  0  0  0  0  0  0
   -3.7159   22.6308  -26.3923 H   0  0  0  0  0  0  0  0  0  0  0  0
   -0.5135   23.0794  -25.3993 H   0  0  0  0  0  0  0  0  0  0  0  0
    0.3781   24.4149  -23.4827 H   0  0  0  0  0  0  0  0  0  0  0  0
   -0.4108   26.7620  -23.1318 H   0  0  0  0  0  0  0  0  0  0  0  0
   -2.0847   27.7448  -24.7080 H   0  0  0  0  0  0  0  0  0  0  0  0
   -2.9200   26.4060  -26.5220 H   0  0  0  0  0  0  0  0  0  0  0  0
   -0.6073   24.3837  -28.3818 H   0  0  0  0  0  0  0  0  0  0  0  0
   -1.2480   22.7163  -28.5698 H   0  0  0  0  0  0  0  0  0  0  0  0
   -2.4279   25.3261  -29.6405 H   0  0  0  0  0  0  0  0  0  0  0  0
   -1.8467   23.8855  -30.5693 H   0  0  0  0  0  0  0  0  0  0  0  0
  1  2  2  0
  2  3  1  0
  3  4  1  0
  4  5  2  0
  5  6  1  0
  5  7  1  0
  7  8  1  0
  8  9  1  0
  2 10  1  0
 10 11  1  0
 11 12  1  0
 12 13  1  0
 13 14  1  0
 14 15  2  0
 15 16  1  0
 16 17  2  0
 17 18  1  0
 18 19  2  0
 13 20  1  0
 20 21  1  0
  8  3  2  0
 21 10  1  0
 19 14  1  0
  4 22  1  0
 11 23  1  0
 11 24  1  0
 12 25  1  0
 12 26  1  0
 15 27  1  0
 16 28  1  0
 17 29  1  0
 18 30  1  0
 19 31  1  0
 20 32  1  0
 20 33  1  0
 21 34  1  0
 21 35  1  0
M  CHG  1  19   1
M  END
>  <UniqueID>  (37) 
36

>  <SMILES>  (37) 
O=C(c1cc(Cl)sc1Cl)N1CCN(c2cccc[nH+]2)CC1

>  <Energy>  (37) 
72.70049029421463

>  <Genealogy>  (37) 
O=C(c1cc(Cl)sc1Cl)N1CCN(c2cccc[nH+]2)CC1 (protonated)
O=C(c1cc(Cl)sc1Cl)N1CCN(c2cccc[nH+]2)CC1 (3D coordinates assigned)
O=C(c1cc(Cl)sc1Cl)N1CCN(c2cccc[nH+]2)CC1 (nonaromatic ring conformer: 72.70049029421463 kcal/mol)

>  <smiles>  (37) 
O=C(c1cc(Cl)sc1Cl)N1CCN(c2ccccn2)CC1

>  <score_type>  (37) 
oracle

>  <origin>  (37) 
adg

>  <m_score__min__energy>  (37) 
-7.1500000000000004

>  <m_primary>  (37) 
energy

$$$$
37:0
     RDKit          3D

 57 60  0  0  0  0  0  0  0  0999 V2000
   -0.7590   21.1640  -34.9710 O   0  0  0  0  0  0  0  0  0  0  0  0
   -0.6620   21.0190  -33.7220 C   0  0  0  0  0  0  0  0  0  0  0  0
    0.6950   20.7440  -33.1290 C   0  0  0  0  0  0  0  0  0  0  0  0
    0.8390   19.3590  -32.8130 O   0  0  0  0  0  0  0  0  0  0  0  0
   -0.0360   18.3410  -33.2280 C   0  0  0  0  0  0  0  0  0  0  0  0
   -0.8890   17.6580  -32.3420 C   0  0  0  0  0  0  0  0  0  0  0  0
   -1.6950   16.7000  -32.7850 O   0  0  0  0  0  0  0  0  0  0  0  0
   -1.7450   16.3270  -34.0620 C   0  0  0  0  0  0  0  0  0  0  0  0
   -2.6840   15.2160  -34.4760 C   0  0  0  0  0  0  0  0  0  0  0  0
   -4.0900   15.6570  -34.6780 N   0  0  0  0  0  0  0  0  0  0  0  0
   -4.9590   15.3910  -33.4960 C   0  0  0  0  0  0  0  0  0  0  0  0
   -5.2640   16.6540  -32.6770 C   0  0  0  0  0  0  0  0  0  0  0  0
   -5.8580   17.6860  -33.5390 N   0  0  0  0  0  0  0  0  0  0  0  0
   -6.7330   18.6930  -32.9820 C   0  0  0  0  0  0  0  0  0  0  0  0
   -7.8400   18.3240  -32.1950 C   0  0  0  0  0  0  0  0  0  0  0  0
   -8.6840   19.3000  -31.6560 C   0  0  0  0  0  0  0  0  0  0  0  0
   -8.4350   20.6550  -31.8970 C   0  0  0  0  0  0  0  0  0  0  0  0
   -9.4960   21.8770  -31.2230 Cl  0  0  0  0  0  0  0  0  0  0  0  0
   -7.3380   21.0320  -32.6770 C   0  0  0  0  0  0  0  0  0  0  0  0
   -6.4910   20.0590  -33.2160 C   0  0  0  0  0  0  0  0  0  0  0  0
   -5.5420   17.6800  -34.9730 C   0  0  0  0  0  0  0  0  0  0  0  0
   -4.1650   17.0480  -35.2010 C   0  0  0  0  0  0  0  0  0  0  0  0
   -0.9330   16.9720  -35.0060 C   0  0  0  0  0  0  0  0  0  0  0  0
   -0.0710   17.9820  -34.5790 C   0  0  0  0  0  0  0  0  0  0  0  0
    0.6700   18.5680  -35.4130 O   0  0  0  0  0  0  0  0  0  0  0  0
   -1.8290   21.1810  -32.8970 N   0  0  0  0  0  0  0  0  0  0  0  0
   -3.1280   21.5390  -33.4390 C   0  0  0  0  0  0  0  0  0  0  0  0
   -4.0130   21.8270  -32.2330 C   0  0  0  0  0  0  0  0  0  0  0  0
   -3.2970   21.2220  -31.0300 C   0  0  0  0  0  0  0  0  0  0  0  0
   -1.8420   21.0470  -31.4500 C   0  0  0  0  0  0  0  0  0  0  0  0
    1.4705   21.0309  -33.8545 H   0  0  0  0  0  0  0  0  0  0  0  0
    0.8008   21.3296  -32.2039 H   0  0  0  0  0  0  0  0  0  0  0  0
   -0.8884   17.9196  -31.2736 H   0  0  0  0  0  0  0  0  0  0  0  0
   -2.3171   14.7865  -35.4199 H   0  0  0  0  0  0  0  0  0  0  0  0
   -2.6944   14.4849  -33.6542 H   0  0  0  0  0  0  0  0  0  0  0  0
   -4.4590   15.0460  -35.4470 H   0  0  0  0  0  0  0  0  0  0  0  0
   -5.9095   14.9645  -33.8490 H   0  0  0  0  0  0  0  0  0  0  0  0
   -4.4154   14.6966  -32.8385 H   0  0  0  0  0  0  0  0  0  0  0  0
   -5.9696   16.4031  -31.8713 H   0  0  0  0  0  0  0  0  0  0  0  0
   -4.3270   17.0394  -32.2487 H   0  0  0  0  0  0  0  0  0  0  0  0
   -8.0427   17.2601  -32.0025 H   0  0  0  0  0  0  0  0  0  0  0  0
   -9.5458   19.0014  -31.0410 H   0  0  0  0  0  0  0  0  0  0  0  0
   -7.1406   22.0973  -32.8673 H   0  0  0  0  0  0  0  0  0  0  0  0
   -5.6290   20.3638  -33.8276 H   0  0  0  0  0  0  0  0  0  0  0  0
   -6.3041   17.0981  -35.5120 H   0  0  0  0  0  0  0  0  0  0  0  0
   -5.5317   18.7148  -35.3459 H   0  0  0  0  0  0  0  0  0  0  0  0
   -3.9574   17.0318  -36.2811 H   0  0  0  0  0  0  0  0  0  0  0  0
   -3.4227   17.6524  -34.6590 H   0  0  0  0  0  0  0  0  0  0  0  0
   -0.9752   16.6857  -36.0673 H   0  0  0  0  0  0  0  0  0  0  0  0
   -3.0449   22.4321  -34.0757 H   0  0  0  0  0  0  0  0  0  0  0  0
   -3.5428   20.7344  -34.0639 H   0  0  0  0  0  0  0  0  0  0  0  0
   -4.1348   22.9120  -32.0990 H   0  0  0  0  0  0  0  0  0  0  0  0
   -5.0181   21.3985  -32.3602 H   0  0  0  0  0  0  0  0  0  0  0  0
   -3.3662   21.8976  -30.1647 H   0  0  0  0  0  0  0  0  0  0  0  0
   -3.7483   20.2638  -30.7331 H   0  0  0  0  0  0  0  0  0  0  0  0
   -1.2139   21.8228  -30.9878 H   0  0  0  0  0  0  0  0  0  0  0  0
   -1.4424   20.0734  -31.1299 H   0  0  0  0  0  0  0  0  0  0  0  0
  1  2  2  0
  2  3  1  0
  3  4  1  0
  4  5  1  0
  5  6  2  0
  6  7  1  0
  7  8  1  0
  8  9  1  0
  9 10  1  0
 10 11  1  0
 11 12  1  0
 12 13  1  0
 13 14  1  0
 14 15  2  0
 15 16  1  0
 16 17  2  0
 17 18  1  0
 17 19  1  0
 19 20  2  0
 13 21  1  0
 21 22  1  0
  8 23  2  0
 23 24  1  0
 24 25  2  0
  2 26  1  0
 26 27  1  0
 27 28  1  0
 28 29  1  0
 29 30  1  0
 24  5  1  0
 30 26  1  0
 22 10  1  0
 20 14  1  0
  3 31  1  0
  3 32  1  0
  6 33  1  0
  9 34  1  0
  9 35  1  0
 10 36  1  0
 11 37  1  0
 11 38  1  0
 12 39  1  0
 12 40  1  0
 15 41  1  0
 16 42  1  0
 19 43  1  0
 20 44  1  0
 21 45  1  0
 21 46  1  0
 22 47  1  0
 22 48  1  0
 23 49  1  0
 27 50  1  0
 27 51  1  0
 28 52  1  0
 28 53  1  0
 29 54  1  0
 29 55  1  0
 30 56  1  0
 30 57  1  0
M  CHG  1  10   1
M  END
>  <UniqueID>  (38) 
37

>  <SMILES>  (38) 
O=C(COc1coc(C[NH+]2CCN(c3ccc(Cl)cc3)CC2)cc1=O)N1CCCC1

>  <Energy>  (38) 
71.83529377647815

>  <Genealogy>  (38) 
O=C(COc1coc(C[NH+]2CCN(c3ccc(Cl)cc3)CC2)cc1=O)N1CCCC1 (protonated)
O=C(COc1coc(C[NH+]2CCN(c3ccc(Cl)cc3)CC2)cc1=O)N1CCCC1 (3D coordinates assigned)
O=C(COc1coc(C[NH+]2CCN(c3ccc(Cl)cc3)CC2)cc1=O)N1CCCC1 (nonaromatic ring conformer: 71.83529377647815 kcal/mol)

>  <smiles>  (38) 
O=C(COc1coc(CN2CCN(c3ccc(Cl)cc3)CC2)cc1=O)N1CCCC1

>  <score_type>  (38) 
oracle

>  <origin>  (38) 
adg

>  <m_score__min__energy>  (38) 
-8.8399999999999999

>  <m_primary>  (38) 
energy

$$$$
38:0
     RDKit          3D

 51 52  0  0  0  0  0  0  0  0999 V2000
   -6.0360   19.1200  -34.2350 C   0  0  0  0  0  0  0  0  0  0  0  0
   -7.1300   19.8540  -33.4570 C   0  0  0  0  0  0  0  0  0  0  0  0
   -7.4510   19.2360  -32.1510 N   0  0  0  0  0  0  0  0  0  0  0  0
   -7.3210   17.7560  -32.1190 C   0  0  0  0  0  0  0  0  0  0  0  0
   -6.0410   17.2280  -31.4510 C   0  0  0  0  0  0  0  0  0  0  0  0
   -8.6340   19.8200  -31.4830 C   0  0  0  0  0  0  0  0  0  0  0  0
   -9.0170   21.1610  -32.1250 C   0  0  0  0  0  0  0  0  0  0  0  0
   -8.6840   22.3300  -31.1950 C   0  0  0  0  0  0  0  0  0  0  0  0
   -7.3650   22.9350  -31.5560 C   0  0  0  0  0  0  0  0  0  0  0  0
   -7.2350   23.5380  -32.6570 O   0  0  0  0  0  0  0  0  0  0  0  0
   -6.2930   22.8420  -30.6590 O   0  0  0  0  0  0  0  0  0  0  0  0
   -5.0430   22.3220  -31.0130 C   0  0  0  0  0  0  0  0  0  0  0  0
   -4.9910   21.0330  -31.5550 C   0  0  0  0  0  0  0  0  0  0  0  0
   -3.7620   20.4400  -31.8570 C   0  0  0  0  0  0  0  0  0  0  0  0
   -2.5740   21.1370  -31.6240 C   0  0  0  0  0  0  0  0  0  0  0  0
   -1.0320   20.3880  -31.9960 Cl  0  0  0  0  0  0  0  0  0  0  0  0
   -2.6150   22.4370  -31.1130 C   0  0  0  0  0  0  0  0  0  0  0  0
   -3.8460   23.0540  -30.8310 C   0  0  0  0  0  0  0  0  0  0  0  0
   -3.8530   24.4700  -30.4040 C   0  0  0  0  0  0  0  0  0  0  0  0
   -4.5940   25.2870  -31.0110 O   0  0  0  0  0  0  0  0  0  0  0  0
   -3.0280   24.9540  -29.3340 N   0  0  0  0  0  0  0  0  0  0  0  0
   -2.0580   24.2140  -28.5740 C   0  0  0  0  0  0  0  0  0  0  0  0
   -0.6980   24.4690  -28.7940 C   0  0  0  0  0  0  0  0  0  0  0  0
    0.2800   23.7770  -28.0740 C   0  0  0  0  0  0  0  0  0  0  0  0
   -0.0950   22.8410  -27.1080 C   0  0  0  0  0  0  0  0  0  0  0  0
   -1.4480   22.6090  -26.8490 C   0  0  0  0  0  0  0  0  0  0  0  0
   -2.4280   23.3000  -27.5680 C   0  0  0  0  0  0  0  0  0  0  0  0
   -5.3359   18.6503  -33.5284 H   0  0  0  0  0  0  0  0  0  0  0  0
   -6.4932   18.3452  -34.8680 H   0  0  0  0  0  0  0  0  0  0  0  0
   -5.4924   19.8368  -34.8680 H   0  0  0  0  0  0  0  0  0  0  0  0
   -6.7957   20.8868  -33.2792 H   0  0  0  0  0  0  0  0  0  0  0  0
   -8.0440   19.8066  -34.0673 H   0  0  0  0  0  0  0  0  0  0  0  0
   -8.1839   17.3499  -31.5708 H   0  0  0  0  0  0  0  0  0  0  0  0
   -7.2757   17.4297  -33.1685 H   0  0  0  0  0  0  0  0  0  0  0  0
   -6.1523   17.2739  -30.3576 H   0  0  0  0  0  0  0  0  0  0  0  0
   -5.8699   16.1859  -31.7587 H   0  0  0  0  0  0  0  0  0  0  0  0
   -5.1849   17.8464  -31.7587 H   0  0  0  0  0  0  0  0  0  0  0  0
   -9.4798   19.1225  -31.5732 H   0  0  0  0  0  0  0  0  0  0  0  0
   -8.3910   19.9930  -30.4242 H   0  0  0  0  0  0  0  0  0  0  0  0
   -8.4609   21.2808  -33.0665 H   0  0  0  0  0  0  0  0  0  0  0  0
  -10.1006   21.1618  -32.3143 H   0  0  0  0  0  0  0  0  0  0  0  0
   -9.4686   23.0960  -31.2830 H   0  0  0  0  0  0  0  0  0  0  0  0
   -8.6298   21.9553  -30.1622 H   0  0  0  0  0  0  0  0  0  0  0  0
   -5.9242   20.4824  -31.7448 H   0  0  0  0  0  0  0  0  0  0  0  0
   -3.7302   19.4243  -32.2782 H   0  0  0  0  0  0  0  0  0  0  0  0
   -1.6769   22.9815  -30.9301 H   0  0  0  0  0  0  0  0  0  0  0  0
   -0.3974   25.2200  -29.5395 H   0  0  0  0  0  0  0  0  0  0  0  0
    1.3454   23.9698  -28.2684 H   0  0  0  0  0  0  0  0  0  0  0  0
    0.6747   22.2865  -26.5512 H   0  0  0  0  0  0  0  0  0  0  0  0
   -1.7428   21.8816  -26.0783 H   0  0  0  0  0  0  0  0  0  0  0  0
   -3.4920   23.1293  -27.3473 H   0  0  0  0  0  0  0  0  0  0  0  0
  1  2  1  0
  2  3  1  0
  3  4  1  0
  4  5  1  0
  3  6  1  0
  6  7  1  0
  7  8  1  0
  8  9  1  0
  9 10  2  0
  9 11  1  0
 11 12  1  0
 12 13  2  0
 13 14  1  0
 14 15  2  0
 15 16  1  0
 15 17  1  0
 17 18  2  0
 18 19  1  0
 19 20  2  0
 19 21  1  0
 21 22  1  0
 22 23  2  0
 23 24  1  0
 24 25  2  0
 25 26  1  0
 26 27  2  0
 18 12  1  0
 27 22  1  0
  1 28  1  0
  1 29  1  0
  1 30  1  0
  2 31  1  0
  2 32  1  0
  4 33  1  0
  4 34  1  0
  5 35  1  0
  5 36  1  0
  5 37  1  0
  6 38  1  0
  6 39  1  0
  7 40  1  0
  7 41  1  0
  8 42  1  0
  8 43  1  0
 13 44  1  0
 14 45  1  0
 17 46  1  0
 23 47  1  0
 24 48  1  0
 25 49  1  0
 26 50  1  0
 27 51  1  0
M  CHG  1  21  -1
M  END
>  <UniqueID>  (39) 
38

>  <SMILES>  (39) 
CCN(CC)CCCC(=O)Oc1ccc(Cl)cc1C(=O)[N-]c1ccccc1

>  <Energy>  (39) 
64.29581644778324

>  <Genealogy>  (39) 
CCN(CC)CCCC(=O)Oc1ccc(Cl)cc1C(=O)[N-]c1ccccc1 (protonated)
CCN(CC)CCCC(=O)Oc1ccc(Cl)cc1C(=O)[N-]c1ccccc1 (3D coordinates assigned)
CCN(CC)CCCC(=O)Oc1ccc(Cl)cc1C(=O)[N-]c1ccccc1 (optimized conformer: 64.29581644778324 kcal/mol)

>  <smiles>  (39) 
CCN(CC)CCCC(=O)Oc1ccc(Cl)cc1C(=O)Nc1ccccc1

>  <score_type>  (39) 
oracle

>  <origin>  (39) 
adg

>  <m_score__min__energy>  (39) 
-9.5700000000000003

>  <m_primary>  (39) 
energy

$$$$
39:0
     RDKit          3D

 44 45  0  0  0  0  0  0  0  0999 V2000
    1.1620   24.6960  -27.0410 C   0  0  0  0  0  0  0  0  0  0  0  0
    0.4420   24.5040  -28.2540 O   0  0  0  0  0  0  0  0  0  0  0  0
   -0.9370   24.2550  -28.3250 C   0  0  0  0  0  0  0  0  0  0  0  0
   -1.7030   24.4090  -27.1630 C   0  0  0  0  0  0  0  0  0  0  0  0
   -3.0790   24.1620  -27.1830 C   0  0  0  0  0  0  0  0  0  0  0  0
   -3.7040   23.7670  -28.3690 C   0  0  0  0  0  0  0  0  0  0  0  0
   -2.9540   23.6240  -29.5410 C   0  0  0  0  0  0  0  0  0  0  0  0
   -3.5920   23.2090  -30.7540 N   0  0  0  0  0  0  0  0  0  0  0  0
   -2.9210   22.2720  -31.6540 C   0  0  0  0  0  0  0  0  0  0  0  0
   -3.8350   21.1310  -31.9820 C   0  0  0  0  0  0  0  0  0  0  0  0
   -3.8870   20.1390  -31.2060 O   0  0  0  0  0  0  0  0  0  0  0  0
   -4.5850   21.1360  -33.2030 N   0  0  0  0  0  0  0  0  0  0  0  0
   -5.3220   19.9690  -33.6810 C   0  0  0  0  0  0  0  0  0  0  0  0
   -6.6480   19.8490  -32.9690 C   0  0  0  0  0  0  0  0  0  0  0  0
   -7.3090   21.0270  -32.5720 C   0  0  0  0  0  0  0  0  0  0  0  0
   -8.5340   20.9650  -31.9040 C   0  0  0  0  0  0  0  0  0  0  0  0
   -9.1140   19.7280  -31.6200 C   0  0  0  0  0  0  0  0  0  0  0  0
   -8.4730   18.5510  -32.0050 C   0  0  0  0  0  0  0  0  0  0  0  0
   -7.2470   18.5990  -32.6800 C   0  0  0  0  0  0  0  0  0  0  0  0
   -6.5030   17.0700  -33.1420 Cl  0  0  0  0  0  0  0  0  0  0  0  0
   -5.1080   23.9280  -31.2070 S   0  0  0  0  0  0  0  0  0  0  0  0
   -6.4190   23.3200  -30.1640 C   0  0  0  0  0  0  0  0  0  0  0  0
   -5.4310   23.5670  -32.6300 O   0  0  0  0  0  0  0  0  0  0  0  0
   -5.0140   25.4220  -31.0740 O   0  0  0  0  0  0  0  0  0  0  0  0
   -1.5710   23.8540  -29.5180 C   0  0  0  0  0  0  0  0  0  0  0  0
    0.4936   24.5178  -26.1857 H   0  0  0  0  0  0  0  0  0  0  0  0
    2.0058   23.9915  -27.0000 H   0  0  0  0  0  0  0  0  0  0  0  0
    1.5429   25.7271  -27.0000 H   0  0  0  0  0  0  0  0  0  0  0  0
   -1.2187   24.7266  -26.2278 H   0  0  0  0  0  0  0  0  0  0  0  0
   -3.6710   24.2788  -26.2633 H   0  0  0  0  0  0  0  0  0  0  0  0
   -4.7859   23.5685  -28.3808 H   0  0  0  0  0  0  0  0  0  0  0  0
   -2.6429   22.7939  -32.5815 H   0  0  0  0  0  0  0  0  0  0  0  0
   -2.0190   21.8811  -31.1604 H   0  0  0  0  0  0  0  0  0  0  0  0
   -4.5550   21.9870  -33.8130 H   0  0  0  0  0  0  0  0  0  0  0  0
   -5.5000   20.0717  -34.7616 H   0  0  0  0  0  0  0  0  0  0  0  0
   -4.7273   19.0663  -33.4771 H   0  0  0  0  0  0  0  0  0  0  0  0
   -6.8563   22.0055  -32.7900 H   0  0  0  0  0  0  0  0  0  0  0  0
   -9.0422   21.8924  -31.6014 H   0  0  0  0  0  0  0  0  0  0  0  0
  -10.0778   19.6813  -31.0919 H   0  0  0  0  0  0  0  0  0  0  0  0
   -8.9334   17.5784  -31.7770 H   0  0  0  0  0  0  0  0  0  0  0  0
   -6.1381   23.4503  -29.1085 H   0  0  0  0  0  0  0  0  0  0  0  0
   -7.3419   23.8820  -30.3699 H   0  0  0  0  0  0  0  0  0  0  0  0
   -6.5862   22.2524  -30.3699 H   0  0  0  0  0  0  0  0  0  0  0  0
   -0.9784   23.7209  -30.4351 H   0  0  0  0  0  0  0  0  0  0  0  0
  1  2  1  0
  2  3  1  0
  3  4  2  0
  4  5  1  0
  5  6  2  0
  6  7  1  0
  7  8  1  0
  8  9  1  0
  9 10  1  0
 10 11  2  0
 10 12  1  0
 12 13  1  0
 13 14  1  0
 14 15  2  0
 15 16  1  0
 16 17  2  0
 17 18  1  0
 18 19  2  0
 19 20  1  0
  8 21  1  0
 21 22  1  0
 21 23  2  0
 21 24  2  0
  7 25  2  0
 25  3  1  0
 19 14  1  0
  1 26  1  0
  1 27  1  0
  1 28  1  0
  4 29  1  0
  5 30  1  0
  6 31  1  0
  9 32  1  0
  9 33  1  0
 12 34  1  0
 13 35  1  0
 13 36  1  0
 15 37  1  0
 16 38  1  0
 17 39  1  0
 18 40  1  0
 22 41  1  0
 22 42  1  0
 22 43  1  0
 25 44  1  0
M  END
>  <UniqueID>  (40) 
39

>  <SMILES>  (40) 
COc1cccc(N(CC(=O)NCc2ccccc2Cl)S(C)(=O)=O)c1

>  <Energy>  (40) 
41.86759144279972

>  <Genealogy>  (40) 
COc1cccc(N(CC(=O)NCc2ccccc2Cl)S(C)(=O)=O)c1 (3D coordinates assigned)
COc1cccc(N(CC(=O)NCc2ccccc2Cl)S(C)(=O)=O)c1 (optimized conformer: 41.86759144279972 kcal/mol)

>  <smiles>  (40) 
COc1cccc(N(CC(=O)NCc2ccccc2Cl)S(C)(=O)=O)c1

>  <score_type>  (40) 
oracle

>  <origin>  (40) 
adg

>  <m_score__min__energy>  (40) 
-9.5099999999999998

>  <m_primary>  (40) 
energy

$$$$
40:0
     RDKit          3D

 46 49  0  0  0  0  0  0  0  0999 V2000
    0.6410   23.1340  -27.4050 C   0  0  0  0  0  0  0  0  0  0  0  0
    0.2550   23.8610  -28.5660 O   0  0  0  0  0  0  0  0  0  0  0  0
   -0.8910   23.5890  -29.3340 C   0  0  0  0  0  0  0  0  0  0  0  0
   -1.0210   22.4030  -30.0770 C   0  0  0  0  0  0  0  0  0  0  0  0
   -2.1760   22.1520  -30.8210 C   0  0  0  0  0  0  0  0  0  0  0  0
   -2.2880   20.9020  -31.6030 C   0  0  0  0  0  0  0  0  0  0  0  0
   -1.2200   20.1440  -31.9510 N   0  0  0  0  0  0  0  0  0  0  0  0
   -1.6900   19.1230  -32.6570 N   0  0  0  0  0  0  0  0  0  0  0  0
   -3.0250   19.2620  -32.7240 C   0  0  0  0  0  0  0  0  0  0  0  0
   -3.9290   18.4050  -33.3410 C   0  0  0  0  0  0  0  0  0  0  0  0
   -5.2920   18.7280  -33.2470 C   0  0  0  0  0  0  0  0  0  0  0  0
   -5.7190   19.8760  -32.5320 C   0  0  0  0  0  0  0  0  0  0  0  0
   -7.1620   20.2100  -32.4180 C   0  0  0  0  0  0  0  0  0  0  0  0
   -8.1450   19.2450  -32.7020 C   0  0  0  0  0  0  0  0  0  0  0  0
   -9.4950   19.5800  -32.5890 C   0  0  0  0  0  0  0  0  0  0  0  0
   -9.8600   20.8330  -32.2090 N   0  0  0  0  0  0  0  0  0  0  0  0
   -8.9350   21.7890  -31.9280 C   0  0  0  0  0  0  0  0  0  0  0  0
   -7.5730   21.4970  -32.0270 C   0  0  0  0  0  0  0  0  0  0  0  0
   -4.7420   20.6930  -31.9240 C   0  0  0  0  0  0  0  0  0  0  0  0
   -3.4330   20.3590  -32.0740 N   0  0  0  0  0  0  0  0  0  0  0  0
   -3.1920   23.1140  -30.8580 C   0  0  0  0  0  0  0  0  0  0  0  0
   -3.0900   24.3060  -30.1150 C   0  0  0  0  0  0  0  0  0  0  0  0
   -4.1240   25.2560  -30.1370 O   0  0  0  0  0  0  0  0  0  0  0  0
   -5.4940   24.9810  -29.8600 C   0  0  0  0  0  0  0  0  0  0  0  0
   -1.9240   24.5420  -29.3430 C   0  0  0  0  0  0  0  0  0  0  0  0
   -1.7220   25.6990  -28.5660 O   0  0  0  0  0  0  0  0  0  0  0  0
   -1.6470   25.7650  -27.1460 C   0  0  0  0  0  0  0  0  0  0  0  0
    0.3437   23.6939  -26.5061 H   0  0  0  0  0  0  0  0  0  0  0  0
    0.1456   22.1519  -27.4058 H   0  0  0  0  0  0  0  0  0  0  0  0
    1.7321   22.9943  -27.4058 H   0  0  0  0  0  0  0  0  0  0  0  0
   -0.2051   21.6653  -30.0725 H   0  0  0  0  0  0  0  0  0  0  0  0
   -1.1090   18.3570  -33.0640 H   0  0  0  0  0  0  0  0  0  0  0  0
   -3.5898   17.5091  -33.8816 H   0  0  0  0  0  0  0  0  0  0  0  0
   -6.0380   18.0827  -33.7339 H   0  0  0  0  0  0  0  0  0  0  0  0
   -7.8511   18.2312  -33.0117 H   0  0  0  0  0  0  0  0  0  0  0  0
  -10.2666   18.8273  -32.8083 H   0  0  0  0  0  0  0  0  0  0  0  0
   -9.2601   22.7944  -31.6221 H   0  0  0  0  0  0  0  0  0  0  0  0
   -6.8245   22.2705  -31.8001 H   0  0  0  0  0  0  0  0  0  0  0  0
   -5.0332   21.5798  -31.3420 H   0  0  0  0  0  0  0  0  0  0  0  0
   -4.0838   22.9363  -31.4769 H   0  0  0  0  0  0  0  0  0  0  0  0
   -5.6489   24.9499  -28.7714 H   0  0  0  0  0  0  0  0  0  0  0  0
   -6.1223   25.7710  -30.2973 H   0  0  0  0  0  0  0  0  0  0  0  0
   -5.7687   24.0098  -30.2973 H   0  0  0  0  0  0  0  0  0  0  0  0
   -2.4043   25.0986  -26.7075 H   0  0  0  0  0  0  0  0  0  0  0  0
   -0.6460   25.4495  -26.8166 H   0  0  0  0  0  0  0  0  0  0  0  0
   -1.8327   26.7980  -26.8166 H   0  0  0  0  0  0  0  0  0  0  0  0
  1  2  1  0
  2  3  1  0
  3  4  2  0
  4  5  1  0
  5  6  1  0
  6  7  2  0
  7  8  1  0
  8  9  2  0
  9 10  1  0
 10 11  2  0
 11 12  1  0
 12 13  1  0
 13 14  2  0
 14 15  1  0
 15 16  2  0
 16 17  1  0
 17 18  2  0
 12 19  2  0
 19 20  1  0
  5 21  2  0
 21 22  1  0
 22 23  1  0
 23 24  1  0
 22 25  2  0
 25 26  1  0
 26 27  1  0
 25  3  1  0
 20  6  1  0
 20  9  1  0
 18 13  1  0
  1 28  1  0
  1 29  1  0
  1 30  1  0
  4 31  1  0
  8 32  1  0
 10 33  1  0
 11 34  1  0
 14 35  1  0
 15 36  1  0
 17 37  1  0
 18 38  1  0
 19 39  1  0
 21 40  1  0
 24 41  1  0
 24 42  1  0
 24 43  1  0
 27 44  1  0
 27 45  1  0
 27 46  1  0
M  CHG  1   8   1
M  END
>  <UniqueID>  (41) 
40

>  <SMILES>  (41) 
COc1cc(-c2n[nH+]c3ccc(-c4ccncc4)cn23)cc(OC)c1OC

>  <Energy>  (41) 
103.8619812408454

>  <Genealogy>  (41) 
COc1cc(-c2n[nH+]c3ccc(-c4ccncc4)cn23)cc(OC)c1OC (protonated)
COc1cc(-c2n[nH+]c3ccc(-c4ccncc4)cn23)cc(OC)c1OC (3D coordinates assigned)
COc1cc(-c2n[nH+]c3ccc(-c4ccncc4)cn23)cc(OC)c1OC (optimized conformer: 103.8619812408454 kcal/mol)

>  <smiles>  (41) 
COc1cc(-c2nnc3ccc(-c4ccncc4)cn23)cc(OC)c1OC

>  <score_type>  (41) 
oracle

>  <origin>  (41) 
adg

>  <m_score__min__energy>  (41) 
-7.9699999999999998

>  <m_primary>  (41) 
energy

$$$$
41:0
     RDKit          3D

 50 53  0  0  0  0  0  0  0  0999 V2000
   -4.2140   22.2970  -32.0960 C   0  0  0  0  0  0  0  0  0  0  0  0
   -5.5660   22.8170  -31.6940 C   0  0  0  0  0  0  0  0  0  0  0  0
   -5.8490   24.0470  -31.1180 C   0  0  0  0  0  0  0  0  0  0  0  0
   -4.9360   25.1560  -30.7800 C   0  0  0  0  0  0  0  0  0  0  0  0
   -5.3630   26.3390  -30.8460 O   0  0  0  0  0  0  0  0  0  0  0  0
   -3.5740   24.9350  -30.3890 N   0  0  0  0  0  0  0  0  0  0  0  0
   -3.0940   23.8540  -29.5760 C   0  0  0  0  0  0  0  0  0  0  0  0
   -1.7670   23.3990  -29.6570 C   0  0  0  0  0  0  0  0  0  0  0  0
   -1.3320   22.3490  -28.8440 C   0  0  0  0  0  0  0  0  0  0  0  0
   -2.2210   21.7260  -27.9580 C   0  0  0  0  0  0  0  0  0  0  0  0
   -1.6660   20.4080  -26.9190 S   0  0  0  0  0  0  0  0  0  0  0  0
   -1.2180   20.9780  -25.6030 O   0  0  0  0  0  0  0  0  0  0  0  0
   -2.8170   19.4780  -26.6540 O   0  0  0  0  0  0  0  0  0  0  0  0
   -0.3500   19.4960  -27.6210 N   0  0  0  0  0  0  0  0  0  0  0  0
   -0.4280   19.4540  -29.0800 C   0  0  0  0  0  0  0  0  0  0  0  0
    0.3150   18.1990  -29.5110 C   0  0  0  0  0  0  0  0  0  0  0  0
    0.3620   17.3130  -28.2750 C   0  0  0  0  0  0  0  0  0  0  0  0
   -0.3540   18.1020  -27.1880 C   0  0  0  0  0  0  0  0  0  0  0  0
   -3.5490   22.1680  -27.8910 C   0  0  0  0  0  0  0  0  0  0  0  0
   -3.9850   23.2190  -28.7030 C   0  0  0  0  0  0  0  0  0  0  0  0
   -7.2100   24.0260  -30.8810 C   0  0  0  0  0  0  0  0  0  0  0  0
   -7.7110   22.8330  -31.2540 N   0  0  0  0  0  0  0  0  0  0  0  0
   -6.7190   22.1100  -31.7480 N   0  0  0  0  0  0  0  0  0  0  0  0
   -6.8930   20.7620  -32.2020 C   0  0  0  0  0  0  0  0  0  0  0  0
   -6.1370   20.2870  -33.2840 C   0  0  0  0  0  0  0  0  0  0  0  0
   -6.2850   18.9670  -33.7210 C   0  0  0  0  0  0  0  0  0  0  0  0
   -7.1780   18.1110  -33.0710 C   0  0  0  0  0  0  0  0  0  0  0  0
   -7.9190   18.5720  -31.9790 C   0  0  0  0  0  0  0  0  0  0  0  0
   -7.7730   19.8910  -31.5400 C   0  0  0  0  0  0  0  0  0  0  0  0
   -3.6254   22.0706  -31.1947 H   0  0  0  0  0  0  0  0  0  0  0  0
   -4.3361   21.3817  -32.6937 H   0  0  0  0  0  0  0  0  0  0  0  0
   -3.6912   23.0582  -32.6937 H   0  0  0  0  0  0  0  0  0  0  0  0
   -1.0680   23.8711  -30.3630 H   0  0  0  0  0  0  0  0  0  0  0  0
   -0.2870   22.0100  -28.8998 H   0  0  0  0  0  0  0  0  0  0  0  0
   -1.4780   19.4052  -29.4041 H   0  0  0  0  0  0  0  0  0  0  0  0
    0.0142   20.3550  -29.5302 H   0  0  0  0  0  0  0  0  0  0  0  0
   -0.2234   17.6939  -30.3264 H   0  0  0  0  0  0  0  0  0  0  0  0
    1.3224   18.4291  -29.8880 H   0  0  0  0  0  0  0  0  0  0  0  0
   -0.1550   16.3606  -28.4637 H   0  0  0  0  0  0  0  0  0  0  0  0
    1.3942   17.0634  -27.9883 H   0  0  0  0  0  0  0  0  0  0  0  0
   -1.3871   17.7418  -27.0742 H   0  0  0  0  0  0  0  0  0  0  0  0
    0.1457   17.9849  -26.2151 H   0  0  0  0  0  0  0  0  0  0  0  0
   -4.2519   21.6855  -27.1960 H   0  0  0  0  0  0  0  0  0  0  0  0
   -5.0334   23.5486  -28.6557 H   0  0  0  0  0  0  0  0  0  0  0  0
   -7.7936   24.8549  -30.4540 H   0  0  0  0  0  0  0  0  0  0  0  0
   -5.4252   20.9554  -33.7905 H   0  0  0  0  0  0  0  0  0  0  0  0
   -5.6982   18.6022  -34.5769 H   0  0  0  0  0  0  0  0  0  0  0  0
   -7.2979   17.0743  -33.4187 H   0  0  0  0  0  0  0  0  0  0  0  0
   -8.6178   17.8960  -31.4646 H   0  0  0  0  0  0  0  0  0  0  0  0
   -8.3492   20.2476  -30.6735 H   0  0  0  0  0  0  0  0  0  0  0  0
  1  2  1  0
  2  3  2  0
  3  4  1  0
  4  5  2  0
  4  6  1  0
  6  7  1  0
  7  8  2  0
  8  9  1  0
  9 10  2  0
 10 11  1  0
 11 12  2  0
 11 13  2  0
 11 14  1  0
 14 15  1  0
 15 16  1  0
 16 17  1  0
 17 18  1  0
 10 19  1  0
 19 20  2  0
  3 21  1  0
 21 22  2  0
 22 23  1  0
 23 24  1  0
 24 25  2  0
 25 26  1  0
 26 27  2  0
 27 28  1  0
 28 29  2  0
 23  2  1  0
 29 24  1  0
 20  7  1  0
 18 14  1  0
  1 30  1  0
  1 31  1  0
  1 32  1  0
  8 33  1  0
  9 34  1  0
 15 35  1  0
 15 36  1  0
 16 37  1  0
 16 38  1  0
 17 39  1  0
 17 40  1  0
 18 41  1  0
 18 42  1  0
 19 43  1  0
 20 44  1  0
 21 45  1  0
 25 46  1  0
 26 47  1  0
 27 48  1  0
 28 49  1  0
 29 50  1  0
M  CHG  1   6  -1
M  END
>  <UniqueID>  (42) 
41

>  <SMILES>  (42) 
Cc1c(C(=O)[N-]c2ccc(S(=O)(=O)N3CCCC3)cc2)cnn1-c1ccccc1

>  <Energy>  (42) 
97.0683512300841

>  <Genealogy>  (42) 
Cc1c(C(=O)[N-]c2ccc(S(=O)(=O)N3CCCC3)cc2)cnn1-c1ccccc1 (protonated)
Cc1c(C(=O)[N-]c2ccc(S(=O)(=O)N3CCCC3)cc2)cnn1-c1ccccc1 (3D coordinates assigned)
Cc1c(C(=O)[N-]c2ccc(S(=O)(=O)N3CCCC3)cc2)cnn1-c1ccccc1 (nonaromatic ring conformer: 97.0683512300841 kcal/mol)

>  <smiles>  (42) 
Cc1c(C(=O)Nc2ccc(S(=O)(=O)N3CCCC3)cc2)cnn1-c1ccccc1

>  <score_type>  (42) 
oracle

>  <origin>  (42) 
adg

>  <m_score__min__energy>  (42) 
-11.619999999999999

>  <m_primary>  (42) 
energy

$$$$
42:0
     RDKit          3D

 36 37  0  0  0  0  0  0  0  0999 V2000
   -4.8123   21.2081  -33.0101 H   0  0  0  0  0  0  0  0  0  0  0  0
   -5.6610   21.6140  -32.4400 C   0  0  0  0  0  0  0  0  0  0  0  0
   -5.4490   22.6500  -31.5270 C   0  0  0  0  0  0  0  0  0  0  0  0
   -4.4385   23.0640  -31.3949 H   0  0  0  0  0  0  0  0  0  0  0  0
   -6.5180   23.1660  -30.7770 C   0  0  0  0  0  0  0  0  0  0  0  0
   -6.2900   24.2970  -29.8030 C   0  0  0  0  0  0  0  0  0  0  0  0
   -7.2371   24.8372  -29.6575 H   0  0  0  0  0  0  0  0  0  0  0  0
   -5.9301   23.8649  -28.8576 H   0  0  0  0  0  0  0  0  0  0  0  0
   -5.2470   25.2670  -30.3000 C   0  0  0  0  0  0  0  0  0  0  0  0
   -5.5950   26.4560  -30.5190 O   0  0  0  0  0  0  0  0  0  0  0  0
   -3.8610   24.9210  -30.4750 N   0  0  0  0  0  0  0  0  0  0  0  0
   -3.0060   24.5310  -29.5770 C   0  0  0  0  0  0  0  0  0  0  0  0
   -2.0140   25.2950  -29.0740 N   0  0  0  0  0  0  0  0  0  0  0  0
   -1.2800   24.6300  -28.1410 C   0  0  0  0  0  0  0  0  0  0  0  0
   -0.1220   25.2920  -27.4650 C   0  0  0  0  0  0  0  0  0  0  0  0
   -0.2451   25.2216  -26.3742 H   0  0  0  0  0  0  0  0  0  0  0  0
    0.8112   24.7909  -27.7618 H   0  0  0  0  0  0  0  0  0  0  0  0
   -0.0803   26.3504  -27.7618 H   0  0  0  0  0  0  0  0  0  0  0  0
   -1.7010   23.3130  -27.8920 C   0  0  0  0  0  0  0  0  0  0  0  0
   -1.1140   22.3380  -26.9470 C   0  0  0  0  0  0  0  0  0  0  0  0
   -0.1850   22.6830  -26.1700 O   0  0  0  0  0  0  0  0  0  0  0  0
   -1.6130   20.9280  -26.9000 C   0  0  0  0  0  0  0  0  0  0  0  0
   -1.7244   20.6132  -25.8519 H   0  0  0  0  0  0  0  0  0  0  0  0
   -2.5874   20.8668  -27.4068 H   0  0  0  0  0  0  0  0  0  0  0  0
   -0.8940   20.2675  -27.4068 H   0  0  0  0  0  0  0  0  0  0  0  0
   -3.0330   23.0050  -28.8840 S   0  0  0  0  0  0  0  0  0  0  0  0
   -7.8100   22.6570  -30.9910 C   0  0  0  0  0  0  0  0  0  0  0  0
   -8.6613   23.0761  -30.4345 H   0  0  0  0  0  0  0  0  0  0  0  0
   -8.0210   21.6220  -31.9060 C   0  0  0  0  0  0  0  0  0  0  0  0
   -9.0348   21.2227  -32.0566 H   0  0  0  0  0  0  0  0  0  0  0  0
   -6.9420   21.0880  -32.6360 C   0  0  0  0  0  0  0  0  0  0  0  0
   -7.1010   20.0470  -33.5630 O   0  0  0  0  0  0  0  0  0  0  0  0
   -6.1180   19.0520  -33.8300 C   0  0  0  0  0  0  0  0  0  0  0  0
   -5.7282   18.6574  -32.8801 H   0  0  0  0  0  0  0  0  0  0  0  0
   -6.5721   18.2337  -34.4081 H   0  0  0  0  0  0  0  0  0  0  0  0
   -5.2943   19.4962  -34.4081 H   0  0  0  0  0  0  0  0  0  0  0  0
  1  2  1  0
  2  3  2  0
  3  4  1  0
  3  5  1  0
  5  6  1  0
  6  7  1  0
  6  8  1  0
  6  9  1  0
  9 10  2  0
  9 11  1  0
 11 12  2  0
 12 13  1  0
 13 14  1  0
 14 15  1  0
 15 16  1  0
 15 17  1  0
 15 18  1  0
 14 19  2  0
 19 20  1  0
 20 21  2  0
 20 22  1  0
 22 23  1  0
 22 24  1  0
 22 25  1  0
 19 26  1  0
  5 27  2  0
 27 28  1  0
 27 29  1  0
 29 30  1  0
 29 31  2  0
 31 32  1  0
 32 33  1  0
 33 34  1  0
 33 35  1  0
 33 36  1  0
 31  2  1  0
 26 12  1  0
M  CHG  1  13  -1
M  END
>  <UniqueID>  (43) 
42

>  <SMILES>  (43) 
COc1ccc(CC(=O)/N=c2\[n-]c(C)c(C(C)=O)s2)cc1

>  <Energy>  (43) 
66.14276253846423

>  <Genealogy>  (43) 
COc1ccc(CC(=O)N=c2[n-]c(C)c(C(C)=O)s2)cc1 (protonated)
COc1ccc(CC(=O)/N=c2\[n-]c(C)c(C(C)=O)s2)cc1 (cis-trans isomerization)
COc1ccc(CC(=O)/N=c2\[n-]c(C)c(C(C)=O)s2)cc1 (3D coordinates assigned)
COc1ccc(CC(=O)/N=c2\[n-]c(C)c(C(C)=O)s2)cc1 (optimized conformer: 66.14276253846423 kcal/mol)

>  <smiles>  (43) 
COc1ccc(CC(=O)N=c2[nH]c(C)c(C(C)=O)s2)cc1

>  <score_type>  (43) 
oracle

>  <origin>  (43) 
adg

>  <m_score__min__energy>  (43) 
-8.7300000000000004

>  <m_primary>  (43) 
energy

$$$$
43:0
     RDKit          3D

 36 39  0  0  0  0  0  0  0  0999 V2000
   -5.2890   25.6930  -30.4860 C   0  0  0  0  0  0  0  0  0  0  0  0
   -5.8760   24.4420  -31.0450 C   0  0  0  0  0  0  0  0  0  0  0  0
   -7.2360   24.2880  -31.1050 N   0  0  0  0  0  0  0  0  0  0  0  0
   -7.7930   23.1350  -31.5730 C   0  0  0  0  0  0  0  0  0  0  0  0
   -9.0440   23.0000  -31.6200 O   0  0  0  0  0  0  0  0  0  0  0  0
   -6.9390   22.1200  -31.9840 C   0  0  0  0  0  0  0  0  0  0  0  0
   -7.2820   20.8960  -32.4330 N   0  0  0  0  0  0  0  0  0  0  0  0
   -6.0800   20.3000  -32.6570 C   0  0  0  0  0  0  0  0  0  0  0  0
   -5.9590   18.9220  -33.1710 C   0  0  0  0  0  0  0  0  0  0  0  0
   -4.8080   18.5710  -33.8950 C   0  0  0  0  0  0  0  0  0  0  0  0
   -4.6670   17.2830  -34.4190 C   0  0  0  0  0  0  0  0  0  0  0  0
   -3.2330   16.8620  -35.3390 Cl  0  0  0  0  0  0  0  0  0  0  0  0
   -5.6690   16.3310  -34.2130 C   0  0  0  0  0  0  0  0  0  0  0  0
   -6.8050   16.6620  -33.4730 C   0  0  0  0  0  0  0  0  0  0  0  0
   -6.9570   17.9490  -32.9430 C   0  0  0  0  0  0  0  0  0  0  0  0
   -8.3680   18.2780  -31.9430 Cl  0  0  0  0  0  0  0  0  0  0  0  0
   -5.0380   21.1710  -32.3220 C   0  0  0  0  0  0  0  0  0  0  0  0
   -3.5820   20.9030  -32.3110 C   0  0  0  0  0  0  0  0  0  0  0  0
   -2.9570   20.4360  -31.1430 C   0  0  0  0  0  0  0  0  0  0  0  0
   -1.5810   20.1920  -31.1270 C   0  0  0  0  0  0  0  0  0  0  0  0
   -0.8170   20.4090  -32.2760 C   0  0  0  0  0  0  0  0  0  0  0  0
   -1.4290   20.8680  -33.4440 C   0  0  0  0  0  0  0  0  0  0  0  0
   -2.8050   21.1140  -33.4650 C   0  0  0  0  0  0  0  0  0  0  0  0
   -5.6190   22.3080  -31.9130 N   0  0  0  0  0  0  0  0  0  0  0  0
   -5.0620   23.4200  -31.4400 N   0  0  0  0  0  0  0  0  0  0  0  0
   -5.3098   25.6486  -29.3871 H   0  0  0  0  0  0  0  0  0  0  0  0
   -4.2489   25.7952  -30.8292 H   0  0  0  0  0  0  0  0  0  0  0  0
   -5.8751   26.5583  -30.8292 H   0  0  0  0  0  0  0  0  0  0  0  0
   -4.0124   19.3145  -34.0507 H   0  0  0  0  0  0  0  0  0  0  0  0
   -5.5623   15.3205  -34.6342 H   0  0  0  0  0  0  0  0  0  0  0  0
   -7.5865   15.9064  -33.3049 H   0  0  0  0  0  0  0  0  0  0  0  0
   -3.5540   20.2613  -30.2357 H   0  0  0  0  0  0  0  0  0  0  0  0
   -1.0987   19.8283  -30.2077 H   0  0  0  0  0  0  0  0  0  0  0  0
    0.2662   20.2184  -32.2607 H   0  0  0  0  0  0  0  0  0  0  0  0
   -0.8273   21.0364  -34.3493 H   0  0  0  0  0  0  0  0  0  0  0  0
   -3.2826   21.4743  -34.3881 H   0  0  0  0  0  0  0  0  0  0  0  0
  1  2  1  0
  2  3  2  0
  3  4  1  0
  4  5  2  0
  4  6  1  0
  6  7  2  0
  7  8  1  0
  8  9  1  0
  9 10  2  0
 10 11  1  0
 11 12  1  0
 11 13  2  0
 13 14  1  0
 14 15  2  0
 15 16  1  0
  8 17  2  0
 17 18  1  0
 18 19  2  0
 19 20  1  0
 20 21  2  0
 21 22  1  0
 22 23  2  0
 17 24  1  0
 24 25  1  0
 25  2  1  0
 24  6  1  0
 15  9  1  0
 23 18  1  0
  1 26  1  0
  1 27  1  0
  1 28  1  0
 10 29  1  0
 13 30  1  0
 14 31  1  0
 19 32  1  0
 20 33  1  0
 21 34  1  0
 22 35  1  0
 23 36  1  0
M  CHG  1  25  -1
M  END
>  <UniqueID>  (44) 
43

>  <SMILES>  (44) 
Cc1nc(=O)c2nc(-c3cc(Cl)ccc3Cl)c(-c3ccccc3)n2[n-]1

>  <Energy>  (44) 
88.37068138681704

>  <Genealogy>  (44) 
Cc1nc(=O)c2nc(-c3cc(Cl)ccc3Cl)c(-c3ccccc3)n2[n-]1 (protonated)
Cc1nc(=O)c2nc(-c3cc(Cl)ccc3Cl)c(-c3ccccc3)n2[n-]1 (3D coordinates assigned)
Cc1nc(=O)c2nc(-c3cc(Cl)ccc3Cl)c(-c3ccccc3)n2[n-]1 (optimized conformer: 88.37068138681704 kcal/mol)

>  <smiles>  (44) 
Cc1nc(=O)c2nc(-c3cc(Cl)ccc3Cl)c(-c3ccccc3)n2[nH]1

>  <score_type>  (44) 
oracle

>  <origin>  (44) 
adg

>  <m_score__min__energy>  (44) 
-8.8599999999999994

>  <m_primary>  (44) 
energy

$$$$
44:0
     RDKit          3D

 57 61  0  0  0  0  0  0  0  0999 V2000
    0.8290   23.7490  -24.8500 C   0  0  0  0  0  0  0  0  0  0  0  0
    1.1010   23.1690  -26.1200 O   0  0  0  0  0  0  0  0  0  0  0  0
    0.6560   23.7360  -27.3180 C   0  0  0  0  0  0  0  0  0  0  0  0
    1.4000   24.5290  -27.9600 O   0  0  0  0  0  0  0  0  0  0  0  0
   -0.6960   23.3330  -27.8680 C   0  0  2  0  0  0  0  0  0  0  0  0
   -1.8590   23.3030  -26.7950 C   0  0  0  0  0  0  0  0  0  0  0  0
   -2.7360   24.5270  -27.1130 C   0  0  0  0  0  0  0  0  0  0  0  0
   -4.0540   24.3870  -27.4080 C   0  0  0  0  0  0  0  0  0  0  0  0
   -4.5550   24.0740  -28.8330 C   0  0  1  0  0  0  0  0  0  0  0  0
   -5.7560   24.8040  -29.3720 C   0  0  0  0  0  0  0  0  0  0  0  0
   -5.6930   24.5100  -30.8950 C   0  0  0  0  0  0  0  0  0  0  0  0
   -4.3760   23.8990  -31.2280 N   0  0  0  0  0  0  0  0  0  0  0  0
   -4.5640   22.2160  -31.7050 S   0  0  0  0  0  0  0  0  0  0  0  0
   -4.0020   22.0440  -33.0890 O   0  0  0  0  0  0  0  0  0  0  0  0
   -3.7400   21.3510  -30.7980 O   0  0  0  0  0  0  0  0  0  0  0  0
   -6.2340   21.6310  -31.7390 C   0  0  0  0  0  0  0  0  0  0  0  0
   -7.2630   22.3630  -31.1300 C   0  0  0  0  0  0  0  0  0  0  0  0
   -8.5820   21.9090  -31.1930 C   0  0  0  0  0  0  0  0  0  0  0  0
   -8.8840   20.7120  -31.8480 C   0  0  0  0  0  0  0  0  0  0  0  0
   -7.8570   19.9520  -32.4380 C   0  0  0  0  0  0  0  0  0  0  0  0
   -8.1050   18.7400  -33.0990 O   0  0  0  0  0  0  0  0  0  0  0  0
   -7.2130   17.6300  -33.1070 C   0  0  0  0  0  0  0  0  0  0  0  0
   -6.5370   20.4140  -32.3700 C   0  0  0  0  0  0  0  0  0  0  0  0
   -3.5680   24.1740  -30.0320 C   0  0  2  0  0  0  0  0  0  0  0  0
   -2.1670   23.5040  -29.7810 C   0  0  1  0  0  0  0  0  0  0  0  0
   -1.3080   22.3060  -29.9100 C   0  0  0  0  0  0  0  0  0  0  0  0
   -1.0820   21.6540  -30.9630 O   0  0  0  0  0  0  0  0  0  0  0  0
   -0.5880   22.1070  -28.6860 N   0  0  0  0  0  0  0  0  0  0  0  0
   -0.0800   20.8180  -28.2320 C   0  0  0  0  0  0  0  0  0  0  0  0
   -1.2310   24.3730  -28.8640 C   0  0  1  0  0  0  0  0  0  0  0  0
   -1.9220   25.3990  -27.9830 C   0  0  0  0  0  0  0  0  0  0  0  0
    1.1520   23.0602  -24.0556 H   0  0  0  0  0  0  0  0  0  0  0  0
    1.3755   24.6990  -24.7562 H   0  0  0  0  0  0  0  0  0  0  0  0
   -0.2509   23.9363  -24.7562 H   0  0  0  0  0  0  0  0  0  0  0  0
   -2.4437   22.3758  -26.8863 H   0  0  0  0  0  0  0  0  0  0  0  0
   -1.4694   23.3334  -25.7667 H   0  0  0  0  0  0  0  0  0  0  0  0
   -4.7922   24.5011  -26.6005 H   0  0  0  0  0  0  0  0  0  0  0  0
   -4.7777   23.0346  -28.5500 H   0  0  0  0  0  0  0  0  0  0  0  0
   -6.6856   24.4132  -28.9326 H   0  0  0  0  0  0  0  0  0  0  0  0
   -5.7491   25.8789  -29.1387 H   0  0  0  0  0  0  0  0  0  0  0  0
   -6.4998   23.8138  -31.1679 H   0  0  0  0  0  0  0  0  0  0  0  0
   -5.8141   25.4488  -31.4553 H   0  0  0  0  0  0  0  0  0  0  0  0
   -7.0304   23.2987  -30.6005 H   0  0  0  0  0  0  0  0  0  0  0  0
   -9.3864   22.4957  -30.7253 H   0  0  0  0  0  0  0  0  0  0  0  0
   -9.9259   20.3634  -31.9025 H   0  0  0  0  0  0  0  0  0  0  0  0
   -6.9797   17.3396  -32.0720 H   0  0  0  0  0  0  0  0  0  0  0  0
   -7.6852   16.7839  -33.6276 H   0  0  0  0  0  0  0  0  0  0  0  0
   -6.2850   17.9091  -33.6276 H   0  0  0  0  0  0  0  0  0  0  0  0
   -5.7282   19.8166  -32.8160 H   0  0  0  0  0  0  0  0  0  0  0  0
   -3.1359   25.1710  -30.2028 H   0  0  0  0  0  0  0  0  0  0  0  0
   -2.5120   23.1508  -28.7981 H   0  0  0  0  0  0  0  0  0  0  0  0
   -0.0707   20.7943  -27.1323 H   0  0  0  0  0  0  0  0  0  0  0  0
   -0.7286   20.0143  -28.6106 H   0  0  0  0  0  0  0  0  0  0  0  0
    0.9426   20.6729  -28.6106 H   0  0  0  0  0  0  0  0  0  0  0  0
   -0.5308   24.9257  -29.5076 H   0  0  0  0  0  0  0  0  0  0  0  0
   -1.1957   25.9849  -27.4006 H   0  0  0  0  0  0  0  0  0  0  0  0
   -2.5014   26.1527  -28.5364 H   0  0  0  0  0  0  0  0  0  0  0  0
  1  2  1  0
  2  3  1  0
  3  4  2  0
  5  3  1  1
  5  6  1  0
  6  7  1  0
  7  8  2  0
  8  9  1  0
  9 10  1  0
 10 11  1  0
 11 12  1  0
 12 13  1  0
 13 14  2  0
 13 15  2  0
 13 16  1  0
 16 17  2  0
 17 18  1  0
 18 19  2  0
 19 20  1  0
 20 21  1  0
 21 22  1  0
 20 23  2  0
 12 24  1  0
 24 25  1  0
 25 26  1  0
 26 27  2  0
 26 28  1  0
 28 29  1  0
 25 30  1  0
 30 31  1  0
 28  5  1  0
 30  5  1  0
 31  7  1  0
 24  9  1  0
 23 16  1  0
  1 32  1  0
  1 33  1  0
  1 34  1  0
  6 35  1  0
  6 36  1  0
  8 37  1  0
  9 38  1  1
 10 39  1  0
 10 40  1  0
 11 41  1  0
 11 42  1  0
 17 43  1  0
 18 44  1  0
 19 45  1  0
 22 46  1  0
 22 47  1  0
 22 48  1  0
 23 49  1  0
 24 50  1  6
 25 51  1  6
 29 52  1  0
 29 53  1  0
 29 54  1  0
 30 55  1  6
 31 56  1  0
 31 57  1  0
M  END
>  <UniqueID>  (45) 
44

>  <SMILES>  (45) 
COC(=O)[C@]12CC3=C[C@H]4CCN(S(=O)(=O)c5cccc(OC)c5)C4C(C(=O)N1C)C2C3

>  <Energy>  (45) 
224.75471224267127

>  <Genealogy>  (45) 
COC(=O)[C@]12CC3=C[C@H]4CCN(S(=O)(=O)c5cccc(OC)c5)C4C(C(=O)N1C)C2C3 (chirality)
COC(=O)[C@]12CC3=C[C@H]4CCN(S(=O)(=O)c5cccc(OC)c5)C4C(C(=O)N1C)C2C3 (3D coordinates assigned)
COC(=O)[C@]12CC3=C[C@H]4CCN(S(=O)(=O)c5cccc(OC)c5)C4C(C(=O)N1C)C2C3 (nonaromatic ring conformer: 224.75471224267127 kcal/mol)

>  <smiles>  (45) 
COC(=O)C12CC3=CC4CCN(S(=O)(=O)c5cccc(OC)c5)C4C(C(=O)N1C)C2C3

>  <score_type>  (45) 
oracle

>  <origin>  (45) 
adg

>  <m_score__min__energy>  (45) 
-9.5600000000000005

>  <m_primary>  (45) 
energy

$$$$
45:0
     RDKit          3D

 38 41  0  0  0  0  0  0  0  0999 V2000
    1.0949   25.3351  -24.7419 H   0  0  0  0  0  0  0  0  0  0  0  0
    0.4390   25.3760  -25.6240 C   0  0  0  0  0  0  0  0  0  0  0  0
    0.3830   26.5110  -26.3750 N   0  0  0  0  0  0  0  0  0  0  0  0
   -0.4130   26.6100  -27.4740 C   0  0  0  0  0  0  0  0  0  0  0  0
   -0.4334   27.5418  -28.0583 H   0  0  0  0  0  0  0  0  0  0  0  0
   -1.2040   25.5250  -27.8580 C   0  0  0  0  0  0  0  0  0  0  0  0
   -2.0110   25.5920  -28.9620 N   0  0  0  0  0  0  0  0  0  0  0  0
   -2.7980   24.5440  -29.3540 C   0  0  0  0  0  0  0  0  0  0  0  0
   -3.5350   24.6770  -30.4220 N   0  0  0  0  0  0  0  0  0  0  0  0
   -4.7970   24.0530  -30.6950 C   0  0  0  0  0  0  0  0  0  0  0  0
   -4.9830   23.3760  -31.9050 C   0  0  0  0  0  0  0  0  0  0  0  0
   -4.1523   23.2962  -32.6216 H   0  0  0  0  0  0  0  0  0  0  0  0
   -6.2220   22.8000  -32.2070 C   0  0  0  0  0  0  0  0  0  0  0  0
   -6.3577   22.2537  -33.1520 H   0  0  0  0  0  0  0  0  0  0  0  0
   -7.2910   22.9180  -31.3070 C   0  0  0  0  0  0  0  0  0  0  0  0
   -8.8520   22.1850  -31.6670 S   0  0  0  0  0  0  0  0  0  0  0  0
   -9.7480   23.1770  -32.3550 O   0  0  0  0  0  0  0  0  0  0  0  0
   -9.4970   21.7560  -30.3800 O   0  0  0  0  0  0  0  0  0  0  0  0
   -8.6370   20.7970  -32.6900 N   0  0  0  0  0  0  0  0  0  0  0  0
   -8.6780   19.5770  -31.8850 C   0  0  0  0  0  0  0  0  0  0  0  0
   -8.7551   19.8439  -30.8207 H   0  0  0  0  0  0  0  0  0  0  0  0
   -9.5507   18.9758  -32.1798 H   0  0  0  0  0  0  0  0  0  0  0  0
   -7.4080   18.7670  -32.1130 C   0  0  0  0  0  0  0  0  0  0  0  0
   -6.3770   19.6040  -32.5010 F   0  0  0  0  0  0  0  0  0  0  0  0
   -7.6280   17.8310  -33.1090 F   0  0  0  0  0  0  0  0  0  0  0  0
   -7.0510   18.1090  -30.9500 F   0  0  0  0  0  0  0  0  0  0  0  0
   -7.1170   23.6330  -30.1150 C   0  0  0  0  0  0  0  0  0  0  0  0
   -7.9575   23.7436  -29.4141 H   0  0  0  0  0  0  0  0  0  0  0  0
   -5.8790   24.2060  -29.8140 C   0  0  0  0  0  0  0  0  0  0  0  0
   -5.7517   24.7789  -28.8836 H   0  0  0  0  0  0  0  0  0  0  0  0
   -2.7280   23.3680  -28.5800 C   0  0  0  0  0  0  0  0  0  0  0  0
   -3.3250   22.1790  -28.7770 N   0  0  0  0  0  0  0  0  0  0  0  0
   -2.8820   21.4120  -27.7820 N   0  0  0  0  0  0  0  0  0  0  0  0
   -2.0400   22.0910  -27.0110 N   0  0  0  0  0  0  0  0  0  0  0  0
   -1.9390   23.3100  -27.5070 N   0  0  0  0  0  0  0  0  0  0  0  0
   -1.1620   24.3400  -27.0930 C   0  0  0  0  0  0  0  0  0  0  0  0
   -0.3330   24.2630  -25.9690 C   0  0  0  0  0  0  0  0  0  0  0  0
   -0.2894   23.3431  -25.3674 H   0  0  0  0  0  0  0  0  0  0  0  0
  1  2  1  0
  2  3  2  0
  3  4  1  0
  4  5  1  0
  4  6  2  0
  6  7  1  0
  7  8  1  0
  8  9  2  0
  9 10  1  0
 10 11  2  0
 11 12  1  0
 11 13  1  0
 13 14  1  0
 13 15  2  0
 15 16  1  0
 16 17  2  0
 16 18  2  0
 16 19  1  0
 19 20  1  0
 20 21  1  0
 20 22  1  0
 20 23  1  0
 23 24  1  0
 23 25  1  0
 23 26  1  0
 15 27  1  0
 27 28  1  0
 27 29  2  0
 29 30  1  0
  8 31  1  0
 31 32  2  0
 32 33  1  0
 33 34  2  0
 34 35  1  0
 35 36  1  0
 36 37  2  0
 37 38  1  0
 37  2  1  0
 36  6  1  0
 29 10  1  0
 35 31  1  0
M  CHG  2   7  -1  19  -1
M  END
>  <UniqueID>  (46) 
45

>  <SMILES>  (46) 
O=S(=O)([N-]CC(F)(F)F)c1ccc(/N=c2/[n-]c3cnccc3n3nnnc23)cc1

>  <Energy>  (46) 
101.57181619225958

>  <Genealogy>  (46) 
O=S(=O)([N-]CC(F)(F)F)c1ccc(N=c2[n-]c3cnccc3n3nnnc23)cc1 (protonated)
O=S(=O)([N-]CC(F)(F)F)c1ccc(/N=c2/[n-]c3cnccc3n3nnnc23)cc1 (cis-trans isomerization)
O=S(=O)([N-]CC(F)(F)F)c1ccc(/N=c2/[n-]c3cnccc3n3nnnc23)cc1 (3D coordinates assigned)
O=S(=O)([N-]CC(F)(F)F)c1ccc(/N=c2/[n-]c3cnccc3n3nnnc23)cc1 (optimized conformer: 101.57181619225958 kcal/mol)

>  <smiles>  (46) 
O=S(=O)(NCC(F)(F)F)c1ccc(N=c2[nH]c3cnccc3n3nnnc23)cc1

>  <score_type>  (46) 
oracle

>  <origin>  (46) 
adg

>  <m_score__min__energy>  (46) 
-10.08

>  <m_primary>  (46) 
energy

$$$$
46:0
     RDKit          3D

 39 40  0  0  0  0  0  0  0  0999 V2000
   -6.7170   24.9040  -29.9840 C   0  0  0  0  0  0  0  0  0  0  0  0
   -6.5950   23.9500  -31.1670 C   0  0  0  0  0  0  0  0  0  0  0  0
   -5.2380   23.8520  -31.5960 O   0  0  0  0  0  0  0  0  0  0  0  0
   -4.1430   24.1180  -30.7620 C   0  0  0  0  0  0  0  0  0  0  0  0
   -3.8380   25.3090  -30.4820 O   0  0  0  0  0  0  0  0  0  0  0  0
   -3.3410   23.0030  -30.2050 C   0  0  0  0  0  0  0  0  0  0  0  0
   -2.8890   23.0710  -28.9360 C   0  0  0  0  0  0  0  0  0  0  0  0
   -2.0140   22.0180  -28.3120 C   0  0  0  0  0  0  0  0  0  0  0  0
   -2.1300   20.6630  -29.0110 C   0  0  0  0  0  0  0  0  0  0  0  0
   -2.0200   20.8460  -30.5250 C   0  0  0  0  0  0  0  0  0  0  0  0
   -3.1490   21.7520  -31.0480 C   0  0  1  0  0  0  0  0  0  0  0  0
   -4.4090   21.0040  -31.1020 N   0  0  0  0  0  0  0  0  0  0  0  0
   -5.1490   20.8320  -32.3220 C   0  0  0  0  0  0  0  0  0  0  0  0
   -4.6390   21.1940  -33.4170 O   0  0  0  0  0  0  0  0  0  0  0  0
   -6.4980   20.2190  -32.3150 C   0  0  0  0  0  0  0  0  0  0  0  0
   -6.6370   18.8190  -32.3330 C   0  0  0  0  0  0  0  0  0  0  0  0
   -7.9060   18.2320  -32.3330 C   0  0  0  0  0  0  0  0  0  0  0  0
   -9.0490   19.0340  -32.3220 C   0  0  0  0  0  0  0  0  0  0  0  0
   -8.9260   20.4250  -32.3170 C   0  0  0  0  0  0  0  0  0  0  0  0
  -10.0360   21.2030  -32.3210 F   0  0  0  0  0  0  0  0  0  0  0  0
   -7.6590   21.0170  -32.3160 C   0  0  0  0  0  0  0  0  0  0  0  0
   -6.6443   24.3352  -29.0453 H   0  0  0  0  0  0  0  0  0  0  0  0
   -5.9065   25.6465  -30.0266 H   0  0  0  0  0  0  0  0  0  0  0  0
   -7.6883   25.4186  -30.0266 H   0  0  0  0  0  0  0  0  0  0  0  0
   -6.9518   22.9539  -30.8662 H   0  0  0  0  0  0  0  0  0  0  0  0
   -7.2024   24.3371  -31.9984 H   0  0  0  0  0  0  0  0  0  0  0  0
   -3.1747   23.9407  -28.3261 H   0  0  0  0  0  0  0  0  0  0  0  0
   -0.9676   22.3531  -28.3657 H   0  0  0  0  0  0  0  0  0  0  0  0
   -2.3459   21.8843  -27.2718 H   0  0  0  0  0  0  0  0  0  0  0  0
   -1.3211   20.0033  -28.6638 H   0  0  0  0  0  0  0  0  0  0  0  0
   -3.1053   20.2145  -28.7708 H   0  0  0  0  0  0  0  0  0  0  0  0
   -1.0492   21.3050  -30.7635 H   0  0  0  0  0  0  0  0  0  0  0  0
   -2.1057   19.8609  -31.0070 H   0  0  0  0  0  0  0  0  0  0  0  0
   -2.8526   22.0767  -32.0563 H   0  0  0  0  0  0  0  0  0  0  0  0
   -4.7060   20.4750  -30.2510 H   0  0  0  0  0  0  0  0  0  0  0  0
   -5.7406   18.1815  -32.3472 H   0  0  0  0  0  0  0  0  0  0  0  0
   -8.0041   17.1364  -32.3417 H   0  0  0  0  0  0  0  0  0  0  0  0
  -10.0464   18.5701  -32.3173 H   0  0  0  0  0  0  0  0  0  0  0  0
   -7.5683   22.1133  -32.3160 H   0  0  0  0  0  0  0  0  0  0  0  0
  1  2  1  0
  2  3  1  0
  3  4  1  0
  4  5  2  0
  4  6  1  0
  6  7  2  0
  7  8  1  0
  8  9  1  0
  9 10  1  0
 10 11  1  0
 11 12  1  0
 12 13  1  0
 13 14  2  0
 13 15  1  0
 15 16  2  0
 16 17  1  0
 17 18  2  0
 18 19  1  0
 19 20  1  0
 19 21  2  0
 11  6  1  0
 21 15  1  0
  1 22  1  0
  1 23  1  0
  1 24  1  0
  2 25  1  0
  2 26  1  0
  7 27  1  0
  8 28  1  0
  8 29  1  0
  9 30  1  0
  9 31  1  0
 10 32  1  0
 10 33  1  0
 11 34  1  6
 12 35  1  0
 16 36  1  0
 17 37  1  0
 18 38  1  0
 21 39  1  0
M  END
>  <UniqueID>  (47) 
46

>  <SMILES>  (47) 
CCOC(=O)C1=CCCC[C@H]1NC(=O)c1cccc(F)c1

>  <Energy>  (47) 
34.266062367128455

>  <Genealogy>  (47) 
CCOC(=O)C1=CCCC[C@H]1NC(=O)c1cccc(F)c1 (chirality)
CCOC(=O)C1=CCCC[C@H]1NC(=O)c1cccc(F)c1 (3D coordinates assigned)
CCOC(=O)C1=CCCC[C@H]1NC(=O)c1cccc(F)c1 (nonaromatic ring conformer: 34.266062367128455 kcal/mol)

>  <smiles>  (47) 
CCOC(=O)C1=CCCCC1NC(=O)c1cccc(F)c1

>  <score_type>  (47) 
oracle

>  <origin>  (47) 
adg

>  <m_score__min__energy>  (47) 
-7.4699999999999998

>  <m_primary>  (47) 
energy

$$$$
47:0
     RDKit          3D

 38 40  0  0  0  0  0  0  0  0999 V2000
   -0.8730   26.0280  -24.7070 C   0  0  0  0  0  0  0  0  0  0  0  0
   -0.4970   25.4410  -25.6910 C   0  0  0  0  0  0  0  0  0  0  0  0
   -0.0410   24.7230  -26.8860 C   0  0  0  0  0  0  0  0  0  0  0  0
   -1.1980   24.1880  -27.6270 N   0  0  0  0  0  0  0  0  0  0  0  0
   -1.7590   24.9250  -28.6470 C   0  0  0  0  0  0  0  0  0  0  0  0
   -1.2990   26.0520  -28.9780 O   0  0  0  0  0  0  0  0  0  0  0  0
   -2.8600   24.4050  -29.3030 C   0  0  0  0  0  0  0  0  0  0  0  0
   -3.5790   24.9480  -30.2960 N   0  0  0  0  0  0  0  0  0  0  0  0
   -4.5340   24.0020  -30.5080 C   0  0  0  0  0  0  0  0  0  0  0  0
   -5.6390   24.1790  -31.4970 C   0  0  0  0  0  0  0  0  0  0  0  0
   -6.2750   22.8500  -31.7960 C   0  0  0  0  0  0  0  0  0  0  0  0
   -5.5110   21.8060  -32.3440 C   0  0  0  0  0  0  0  0  0  0  0  0
   -6.0930   20.5580  -32.5850 C   0  0  0  0  0  0  0  0  0  0  0  0
   -7.4380   20.3410  -32.2740 C   0  0  0  0  0  0  0  0  0  0  0  0
   -8.2020   21.3710  -31.7170 C   0  0  0  0  0  0  0  0  0  0  0  0
   -7.6230   22.6200  -31.4730 C   0  0  0  0  0  0  0  0  0  0  0  0
   -4.4530   22.9220  -29.6870 N   0  0  0  0  0  0  0  0  0  0  0  0
   -3.3730   23.2120  -28.9450 C   0  0  0  0  0  0  0  0  0  0  0  0
   -2.8490   22.4660  -27.9330 N   0  0  0  0  0  0  0  0  0  0  0  0
   -3.4780   21.1950  -27.5400 C   0  0  0  0  0  0  0  0  0  0  0  0
   -2.4870   20.0450  -27.6820 C   0  0  0  0  0  0  0  0  0  0  0  0
   -1.7590   22.9740  -27.2580 C   0  0  0  0  0  0  0  0  0  0  0  0
   -1.2720   22.3290  -26.2860 O   0  0  0  0  0  0  0  0  0  0  0  0
   -1.2160   26.5634  -23.8094 H   0  0  0  0  0  0  0  0  0  0  0  0
    0.5186   25.4135  -27.5341 H   0  0  0  0  0  0  0  0  0  0  0  0
    0.6077   23.8891  -26.5798 H   0  0  0  0  0  0  0  0  0  0  0  0
   -6.3957   24.8602  -31.0806 H   0  0  0  0  0  0  0  0  0  0  0  0
   -5.2295   24.6020  -32.4262 H   0  0  0  0  0  0  0  0  0  0  0  0
   -4.4504   21.9713  -32.5844 H   0  0  0  0  0  0  0  0  0  0  0  0
   -5.4917   19.7460  -33.0199 H   0  0  0  0  0  0  0  0  0  0  0  0
   -7.8957   19.3596  -32.4674 H   0  0  0  0  0  0  0  0  0  0  0  0
   -9.2600   21.1985  -31.4704 H   0  0  0  0  0  0  0  0  0  0  0  0
   -8.2248   23.4254  -31.0266 H   0  0  0  0  0  0  0  0  0  0  0  0
   -3.8074   21.2623  -26.4926 H   0  0  0  0  0  0  0  0  0  0  0  0
   -4.3403   21.0059  -28.1962 H   0  0  0  0  0  0  0  0  0  0  0  0
   -2.1856   19.6953  -26.6836 H   0  0  0  0  0  0  0  0  0  0  0  0
   -2.9606   19.2187  -28.2324 H   0  0  0  0  0  0  0  0  0  0  0  0
   -1.5998   20.3913  -28.2324 H   0  0  0  0  0  0  0  0  0  0  0  0
  1  2  3  0
  2  3  1  0
  3  4  1  0
  4  5  1  0
  5  6  2  0
  5  7  1  0
  7  8  1  0
  8  9  1  0
  9 10  1  0
 10 11  1  0
 11 12  2  0
 12 13  1  0
 13 14  2  0
 14 15  1  0
 15 16  2  0
  9 17  2  0
 17 18  1  0
 18 19  1  0
 19 20  1  0
 20 21  1  0
 19 22  1  0
 22 23  2  0
 22  4  1  0
 18  7  2  0
 16 11  1  0
  1 24  1  0
  3 25  1  0
  3 26  1  0
 10 27  1  0
 10 28  1  0
 12 29  1  0
 13 30  1  0
 14 31  1  0
 15 32  1  0
 16 33  1  0
 20 34  1  0
 20 35  1  0
 21 36  1  0
 21 37  1  0
 21 38  1  0
M  CHG  1   8  -1
M  END
>  <UniqueID>  (48) 
47

>  <SMILES>  (48) 
C#CCn1c(=O)c2[n-]c(Cc3ccccc3)nc2n(CC)c1=O

>  <Energy>  (48) 
75.06859889305441

>  <Genealogy>  (48) 
C#CCn1c(=O)c2[n-]c(Cc3ccccc3)nc2n(CC)c1=O (protonated)
C#CCn1c(=O)c2[n-]c(Cc3ccccc3)nc2n(CC)c1=O (3D coordinates assigned)
C#CCn1c(=O)c2[n-]c(Cc3ccccc3)nc2n(CC)c1=O (optimized conformer: 75.06859889305441 kcal/mol)

>  <smiles>  (48) 
C#CCn1c(=O)c2[nH]c(Cc3ccccc3)nc2n(CC)c1=O

>  <score_type>  (48) 
oracle

>  <origin>  (48) 
adg

>  <m_score__min__energy>  (48) 
-8.1099999999999994

>  <m_primary>  (48) 
energy

$$$$
