0:0
     RDKit          3D

 71 74  0  0  0  0  0  0  0  0999 V2000
   -0.7270   21.2110  -33.9690 C   0  0  0  0  0  0  0  0  0  0  0  0
   -1.2250   21.0480  -32.5910 N   0  0  0  0  0  0  0  0  0  0  0  0
   -0.1350   21.3260  -31.6420 C   0  0  0  0  0  0  0  0  0  0  0  0
   -1.7640   19.6880  -32.3620 C   0  0  0  0  0  0  0  0  0  0  0  0
   -3.2820   19.6930  -32.1250 C   0  0  0  0  0  0  0  0  0  0  0  0
   -3.9030   20.9490  -32.5550 N   0  0  0  0  0  0  0  0  0  0  0  0
   -5.1890   21.3550  -32.0560 C   0  0  0  0  0  0  0  0  0  0  0  0
   -6.3100   20.5470  -32.3040 C   0  0  0  0  0  0  0  0  0  0  0  0
   -6.1560   19.2100  -32.7320 C   0  0  0  0  0  0  0  0  0  0  0  0
   -7.2680   18.3980  -32.9360 C   0  0  0  0  0  0  0  0  0  0  0  0
   -8.5450   18.8950  -32.7050 C   0  0  0  0  0  0  0  0  0  0  0  0
   -8.7200   20.2180  -32.2970 C   0  0  0  0  0  0  0  0  0  0  0  0
   -7.6090   21.0820  -32.1240 C   0  0  0  0  0  0  0  0  0  0  0  0
   -7.7630   22.4160  -31.8020 N   0  0  0  0  0  0  0  0  0  0  0  0
   -9.0830   23.0680  -31.9700 C   0  0  0  0  0  0  0  0  0  0  0  0
   -6.6800   23.1480  -31.3470 C   0  0  0  0  0  0  0  0  0  0  0  0
   -6.8470   24.4420  -30.7970 C   0  0  0  0  0  0  0  0  0  0  0  0
   -5.7550   25.2010  -30.3980 C   0  0  0  0  0  0  0  0  0  0  0  0
   -4.4740   24.6730  -30.4630 C   0  0  0  0  0  0  0  0  0  0  0  0
   -4.2600   23.3690  -30.9290 C   0  0  0  0  0  0  0  0  0  0  0  0
   -2.9630   22.7760  -30.7420 N   0  0  0  0  0  0  0  0  0  0  0  0
   -2.1680   22.9380  -29.5250 C   0  0  0  0  0  0  0  0  0  0  0  0
   -2.9010   22.3840  -28.2930 C   0  0  0  0  0  0  0  0  0  0  0  0
   -3.0480   20.8400  -28.3380 C   0  0  0  0  0  0  0  0  0  0  0  0
   -2.0270   20.0780  -27.5460 N   0  0  0  0  0  0  0  0  0  0  0  0
   -2.7100   19.1200  -26.6350 C   0  0  0  0  0  0  0  0  0  0  0  0
   -1.1030   19.3320  -28.4610 C   0  0  0  0  0  0  0  0  0  0  0  0
    0.3210   19.2190  -27.8820 C   0  0  0  0  0  0  0  0  0  0  0  0
    0.9470   20.4780  -27.6700 O   0  0  0  0  0  0  0  0  0  0  0  0
    0.0300   21.5300  -27.4000 C   0  0  0  0  0  0  0  0  0  0  0  0
   -1.2590   21.0530  -26.7020 C   0  0  0  0  0  0  0  0  0  0  0  0
   -5.3610   22.6090  -31.4270 C   0  0  0  0  0  0  0  0  0  0  0  0
    0.3181   21.5531  -33.9431 H   0  0  0  0  0  0  0  0  0  0  0  0
   -0.7844   20.2472  -34.4960 H   0  0  0  0  0  0  0  0  0  0  0  0
   -1.3432   21.9544  -34.4960 H   0  0  0  0  0  0  0  0  0  0  0  0
   -0.5114   21.2300  -30.6129 H   0  0  0  0  0  0  0  0  0  0  0  0
    0.6825   20.6076  -31.8019 H   0  0  0  0  0  0  0  0  0  0  0  0
    0.2386   22.3482  -31.8019 H   0  0  0  0  0  0  0  0  0  0  0  0
   -1.5460   19.0682  -33.2443 H   0  0  0  0  0  0  0  0  0  0  0  0
   -1.2843   19.2844  -31.4581 H   0  0  0  0  0  0  0  0  0  0  0  0
   -3.7319   18.8633  -32.6899 H   0  0  0  0  0  0  0  0  0  0  0  0
   -3.4565   19.5813  -31.0447 H   0  0  0  0  0  0  0  0  0  0  0  0
   -3.2850   21.6770  -32.9770 H   0  0  0  0  0  0  0  0  0  0  0  0
   -5.1476   18.8064  -32.9058 H   0  0  0  0  0  0  0  0  0  0  0  0
   -7.1358   17.3617  -33.2805 H   0  0  0  0  0  0  0  0  0  0  0  0
   -9.4204   18.2437  -32.8442 H   0  0  0  0  0  0  0  0  0  0  0  0
   -9.7352   20.5964  -32.1067 H   0  0  0  0  0  0  0  0  0  0  0  0
   -9.5150   23.2814  -30.9812 H   0  0  0  0  0  0  0  0  0  0  0  0
   -8.9592   24.0086  -32.5268 H   0  0  0  0  0  0  0  0  0  0  0  0
   -9.7547   22.3980  -32.5268 H   0  0  0  0  0  0  0  0  0  0  0  0
   -7.8608   24.8536  -30.6837 H   0  0  0  0  0  0  0  0  0  0  0  0
   -5.9065   26.2260  -30.0286 H   0  0  0  0  0  0  0  0  0  0  0  0
   -3.6167   25.2847  -30.1452 H   0  0  0  0  0  0  0  0  0  0  0  0
   -2.5910   22.1600  -31.4970 H   0  0  0  0  0  0  0  0  0  0  0  0
   -1.2162   22.4000  -29.6460 H   0  0  0  0  0  0  0  0  0  0  0  0
   -1.9943   24.0128  -29.3678 H   0  0  0  0  0  0  0  0  0  0  0  0
   -2.3342   22.6589  -27.3913 H   0  0  0  0  0  0  0  0  0  0  0  0
   -3.9120   22.8173  -28.2808 H   0  0  0  0  0  0  0  0  0  0  0  0
   -4.0435   20.5814  -27.9480 H   0  0  0  0  0  0  0  0  0  0  0  0
   -2.8986   20.5496  -29.3884 H   0  0  0  0  0  0  0  0  0  0  0  0
   -2.5097   19.4009  -25.5905 H   0  0  0  0  0  0  0  0  0  0  0  0
   -3.7939   19.1468  -26.8205 H   0  0  0  0  0  0  0  0  0  0  0  0
   -2.3313   18.1041  -26.8205 H   0  0  0  0  0  0  0  0  0  0  0  0
   -1.5025   18.3195  -28.6199 H   0  0  0  0  0  0  0  0  0  0  0  0
   -1.0404   19.8898  -29.4070 H   0  0  0  0  0  0  0  0  0  0  0  0
    0.2646   18.6912  -26.9185 H   0  0  0  0  0  0  0  0  0  0  0  0
    0.9288   18.6748  -28.6198 H   0  0  0  0  0  0  0  0  0  0  0  0
    0.5258   22.2671  -26.7512 H   0  0  0  0  0  0  0  0  0  0  0  0
   -0.2648   21.9609  -28.3682 H   0  0  0  0  0  0  0  0  0  0  0  0
   -0.9898   20.5663  -25.7530 H   0  0  0  0  0  0  0  0  0  0  0  0
   -1.8982   21.9318  -26.5309 H   0  0  0  0  0  0  0  0  0  0  0  0
  1  2  1  0
  2  3  1  0
  2  4  1  0
  4  5  1  0
  5  6  1  0
  6  7  1  0
  7  8  2  0
  8  9  1  0
  9 10  2  0
 10 11  1  0
 11 12  2  0
 12 13  1  0
 13 14  2  0
 14 15  1  0
 14 16  1  0
 16 17  2  0
 17 18  1  0
 18 19  2  0
 19 20  1  0
 20 21  1  0
 21 22  1  0
 22 23  1  0
 23 24  1  0
 24 25  1  0
 25 26  1  0
 25 27  1  0
 27 28  1  0
 28 29  1  0
 29 30  1  0
 30 31  1  0
 20 32  2  0
 32  7  1  0
 13  8  1  0
 32 16  1  0
 31 25  1  0
  1 33  1  0
  1 34  1  0
  1 35  1  0
  3 36  1  0
  3 37  1  0
  3 38  1  0
  4 39  1  0
  4 40  1  0
  5 41  1  0
  5 42  1  0
  6 43  1  0
  9 44  1  0
 10 45  1  0
 11 46  1  0
 12 47  1  0
 15 48  1  0
 15 49  1  0
 15 50  1  0
 17 51  1  0
 18 52  1  0
 19 53  1  0
 21 54  1  0
 22 55  1  0
 22 56  1  0
 23 57  1  0
 23 58  1  0
 24 59  1  0
 24 60  1  0
 26 61  1  0
 26 62  1  0
 26 63  1  0
 27 64  1  0
 27 65  1  0
 28 66  1  0
 28 67  1  0
 30 68  1  0
 30 69  1  0
 31 70  1  0
 31 71  1  0
M  CHG  2  14   1  25   1
M  END
>  <UniqueID>  (1) 
1

>  <SMILES>  (1) 
CN(C)CCNc1c2ccccc2[n+](C)c2cccc(NCCC[N+]3(C)CCOCC3)c12

>  <Energy>  (1) 
124.66035828574708

>  <Genealogy>  (1) 
CN(C)CCNc1c2ccccc2[n+](C)c2cccc(NCCC[N+]3(C)CCOCC3)c12 (3D coordinates assigned)
CN(C)CCNc1c2ccccc2[n+](C)c2cccc(NCCC[N+]3(C)CCOCC3)c12 (nonaromatic ring conformer: 124.66035828574708 kcal/mol)

>  <smiles>  (1) 
CN(C)CCNc1c2ccccc2[n+](C)c2cccc(NCCC[N+]3(C)CCOCC3)c12

>  <score_type>  (1) 
oracle

>  <origin>  (1) 
adg

>  <m_score__min__energy>  (1) 
-8.0500000000000007

>  <m_primary>  (1) 
energy

$$$$
1:0
     RDKit          3D

 25 26  0  0  0  0  0  0  0  0999 V2000
   -5.6340   17.6500  -35.3030 C   0  0  0  0  0  0  0  0  0  0  0  0
   -5.3450   18.6890  -34.3220 N   0  0  0  0  0  0  0  0  0  0  0  0
   -4.1470   18.9330  -33.7580 C   0  0  0  0  0  0  0  0  0  0  0  0
   -4.2650   20.0420  -32.9420 C   0  0  0  0  0  0  0  0  0  0  0  0
   -5.5880   20.4440  -33.0730 C   0  0  0  0  0  0  0  0  0  0  0  0
   -6.2260   21.6070  -32.4040 C   0  0  0  0  0  0  0  0  0  0  0  0
   -7.6180   21.6400  -32.2080 C   0  0  0  0  0  0  0  0  0  0  0  0
   -8.2190   22.7320  -31.5820 C   0  0  0  0  0  0  0  0  0  0  0  0
   -7.4430   23.8050  -31.1400 C   0  0  0  0  0  0  0  0  0  0  0  0
   -6.0480   23.7960  -31.3190 C   0  0  0  0  0  0  0  0  0  0  0  0
   -5.2440   24.8980  -30.8610 N   0  0  0  0  0  0  0  0  0  0  0  0
   -5.7770   25.9620  -30.4840 O   0  0  0  0  0  0  0  0  0  0  0  0
   -3.8710   24.7980  -30.8300 O   0  0  0  0  0  0  0  0  0  0  0  0
   -5.4500   22.6910  -31.9530 C   0  0  0  0  0  0  0  0  0  0  0  0
   -6.2140   19.6030  -33.9230 N   0  0  0  0  0  0  0  0  0  0  0  0
   -5.8937   16.7164  -34.7826 H   0  0  0  0  0  0  0  0  0  0  0  0
   -6.4785   17.9655  -35.9333 H   0  0  0  0  0  0  0  0  0  0  0  0
   -4.7479   17.4842  -35.9333 H   0  0  0  0  0  0  0  0  0  0  0  0
   -3.2293   18.3483  -33.9195 H   0  0  0  0  0  0  0  0  0  0  0  0
   -3.4820   20.5053  -32.3237 H   0  0  0  0  0  0  0  0  0  0  0  0
   -8.2376   20.7983  -32.5509 H   0  0  0  0  0  0  0  0  0  0  0  0
   -9.3091   22.7478  -31.4360 H   0  0  0  0  0  0  0  0  0  0  0  0
   -7.9255   24.6628  -30.6487 H   0  0  0  0  0  0  0  0  0  0  0  0
   -4.3598   22.6743  -32.0982 H   0  0  0  0  0  0  0  0  0  0  0  0
   -7.2130   19.6350  -34.2240 H   0  0  0  0  0  0  0  0  0  0  0  0
  1  2  1  0
  2  3  1  0
  3  4  2  0
  4  5  1  0
  5  6  1  0
  6  7  2  0
  7  8  1  0
  8  9  2  0
  9 10  1  0
 10 11  1  0
 11 12  2  0
 11 13  1  0
 10 14  2  0
  5 15  2  0
 15  2  1  0
 14  6  1  0
  1 16  1  0
  1 17  1  0
  1 18  1  0
  3 19  1  0
  4 20  1  0
  7 21  1  0
  8 22  1  0
  9 23  1  0
 14 24  1  0
 15 25  1  0
M  CHG  3  11   1  13  -1  15   1
M  END
>  <UniqueID>  (2) 
2

>  <SMILES>  (2) 
Cn1ccc(-c2cccc([N+](=O)[O-])c2)[nH+]1

>  <Energy>  (2) 
58.26161766689597

>  <Genealogy>  (2) 
Cn1ccc(-c2cccc([N+](=O)[O-])c2)[nH+]1 (protonated)
Cn1ccc(-c2cccc([N+](=O)[O-])c2)[nH+]1 (3D coordinates assigned)
Cn1ccc(-c2cccc([N+](=O)[O-])c2)[nH+]1 (optimized conformer: 58.26161766689597 kcal/mol)

>  <smiles>  (2) 
Cn1ccc(-c2cccc([N+](=O)[O-])c2)n1

>  <score_type>  (2) 
oracle

>  <origin>  (2) 
adg

>  <m_score__min__energy>  (2) 
-6.5499999999999998

>  <m_primary>  (2) 
energy

$$$$
2:0
     RDKit          3D

 42 45  0  0  0  0  0  0  0  0999 V2000
   -4.8720   18.0310  -34.1990 C   0  0  0  0  0  0  0  0  0  0  0  0
   -5.4750   19.0630  -33.2960 C   0  0  0  0  0  0  0  0  0  0  0  0
   -6.7080   19.0170  -32.6710 C   0  0  0  0  0  0  0  0  0  0  0  0
   -7.6700   18.0050  -32.6620 C   0  0  0  0  0  0  0  0  0  0  0  0
   -8.8620   18.2340  -31.9580 C   0  0  0  0  0  0  0  0  0  0  0  0
   -9.0740   19.4590  -31.2960 C   0  0  0  0  0  0  0  0  0  0  0  0
   -8.0960   20.4690  -31.3260 C   0  0  0  0  0  0  0  0  0  0  0  0
   -6.9000   20.2210  -32.0170 C   0  0  0  0  0  0  0  0  0  0  0  0
   -5.8230   21.0290  -32.2160 N   0  0  0  0  0  0  0  0  0  0  0  0
   -5.5030   22.2950  -31.8020 C   0  0  0  0  0  0  0  0  0  0  0  0
   -6.5230   23.2610  -30.6770 S   0  0  0  0  0  0  0  0  0  0  0  0
   -6.0830   24.8790  -31.4030 C   0  0  0  0  0  0  0  0  0  0  0  0
   -5.1990   25.6930  -30.4560 C   0  0  0  0  0  0  0  0  0  0  0  0
   -3.8600   25.1960  -30.4670 O   0  0  0  0  0  0  0  0  0  0  0  0
   -3.3560   24.1890  -29.6270 C   0  0  0  0  0  0  0  0  0  0  0  0
   -2.2570   23.3780  -29.9790 C   0  0  0  0  0  0  0  0  0  0  0  0
   -1.8000   22.3920  -29.0990 C   0  0  0  0  0  0  0  0  0  0  0  0
   -2.4290   22.2060  -27.8660 C   0  0  0  0  0  0  0  0  0  0  0  0
   -3.5170   23.0060  -27.5100 C   0  0  0  0  0  0  0  0  0  0  0  0
   -3.9770   23.9930  -28.3860 C   0  0  0  0  0  0  0  0  0  0  0  0
   -4.3350   22.8450  -32.2460 N   0  0  0  0  0  0  0  0  0  0  0  0
   -3.5070   22.1640  -33.0440 N   0  0  0  0  0  0  0  0  0  0  0  0
   -3.7880   20.8990  -33.4470 C   0  0  0  0  0  0  0  0  0  0  0  0
   -4.9770   20.3280  -33.0080 C   0  0  0  0  0  0  0  0  0  0  0  0
   -4.4090   17.2386  -33.5925 H   0  0  0  0  0  0  0  0  0  0  0  0
   -5.6576   17.5952  -34.8338 H   0  0  0  0  0  0  0  0  0  0  0  0
   -4.1066   18.5014  -34.8338 H   0  0  0  0  0  0  0  0  0  0  0  0
   -7.4984   17.0561  -33.1913 H   0  0  0  0  0  0  0  0  0  0  0  0
   -9.6352   17.4524  -31.9229 H   0  0  0  0  0  0  0  0  0  0  0  0
  -10.0140   19.6273  -30.7501 H   0  0  0  0  0  0  0  0  0  0  0  0
   -8.2645   21.4309  -30.8197 H   0  0  0  0  0  0  0  0  0  0  0  0
   -5.5403   24.7129  -32.3453 H   0  0  0  0  0  0  0  0  0  0  0  0
   -7.0107   25.4426  -31.5814 H   0  0  0  0  0  0  0  0  0  0  0  0
   -5.1969   26.7448  -30.7779 H   0  0  0  0  0  0  0  0  0  0  0  0
   -5.6004   25.6084  -29.4354 H   0  0  0  0  0  0  0  0  0  0  0  0
   -1.7579   23.5216  -30.9487 H   0  0  0  0  0  0  0  0  0  0  0  0
   -0.9431   21.7614  -29.3785 H   0  0  0  0  0  0  0  0  0  0  0  0
   -2.0676   21.4297  -27.1755 H   0  0  0  0  0  0  0  0  0  0  0  0
   -4.0125   22.8591  -26.5390 H   0  0  0  0  0  0  0  0  0  0  0  0
   -4.8333   24.6210  -28.0992 H   0  0  0  0  0  0  0  0  0  0  0  0
   -4.0720   23.8110  -31.9520 H   0  0  0  0  0  0  0  0  0  0  0  0
   -3.0979   20.3439  -34.0994 H   0  0  0  0  0  0  0  0  0  0  0  0
  1  2  1  0
  2  3  1  0
  3  4  2  0
  4  5  1  0
  5  6  2  0
  6  7  1  0
  7  8  2  0
  8  9  1  0
  9 10  1  0
 10 11  1  0
 11 12  1  0
 12 13  1  0
 13 14  1  0
 14 15  1  0
 15 16  2  0
 16 17  1  0
 17 18  2  0
 18 19  1  0
 19 20  2  0
 10 21  2  0
 21 22  1  0
 22 23  2  0
 23 24  1  0
 24  2  2  0
  8  3  1  0
 24  9  1  0
 20 15  1  0
  1 25  1  0
  1 26  1  0
  1 27  1  0
  4 28  1  0
  5 29  1  0
  6 30  1  0
  7 31  1  0
 12 32  1  0
 12 33  1  0
 13 34  1  0
 13 35  1  0
 16 36  1  0
 17 37  1  0
 18 38  1  0
 19 39  1  0
 20 40  1  0
 21 41  1  0
 23 42  1  0
M  CHG  1  21   1
M  END
>  <UniqueID>  (3) 
3

>  <SMILES>  (3) 
Cc1c2ccccc2n2c(SCCOc3ccccc3)[nH+]ncc12

>  <Energy>  (3) 
86.06645393197304

>  <Genealogy>  (3) 
Cc1c2ccccc2n2c(SCCOc3ccccc3)[nH+]ncc12 (protonated)
Cc1c2ccccc2n2c(SCCOc3ccccc3)[nH+]ncc12 (3D coordinates assigned)
Cc1c2ccccc2n2c(SCCOc3ccccc3)[nH+]ncc12 (optimized conformer: 86.06645393197304 kcal/mol)

>  <smiles>  (3) 
Cc1c2ccccc2n2c(SCCOc3ccccc3)nncc12

>  <score_type>  (3) 
oracle

>  <origin>  (3) 
adg

>  <m_score__min__energy>  (3) 
-8.9000000000000004

>  <m_primary>  (3) 
energy

$$$$
3:0
     RDKit          3D

 51 53  0  0  0  0  0  0  0  0999 V2000
   -2.6870   25.3060  -26.1730 C   0  0  0  0  0  0  0  0  0  0  0  0
   -4.1630   24.9150  -26.2710 C   0  0  0  0  0  0  0  0  0  0  0  0
   -4.6020   24.7270  -27.6630 N   0  0  0  0  0  0  0  0  0  0  0  0
   -3.5340   24.1840  -28.5360 C   0  0  0  0  0  0  0  0  0  0  0  0
   -4.0190   23.9770  -29.9740 C   0  0  0  0  0  0  0  0  0  0  0  0
   -5.4080   24.2240  -30.0340 O   0  0  0  0  0  0  0  0  0  0  0  0
   -5.7640   24.6990  -31.3200 C   0  0  0  0  0  0  0  0  0  0  0  0
   -5.7760   23.5280  -32.2960 C   0  0  0  0  0  0  0  0  0  0  0  0
   -5.7850   22.2520  -31.5740 N   0  0  0  0  0  0  0  0  0  0  0  0
   -5.7220   21.0160  -32.2910 C   0  0  0  0  0  0  0  0  0  0  0  0
   -4.4980   20.6380  -32.8710 C   0  0  0  0  0  0  0  0  0  0  0  0
   -3.3860   21.5100  -32.8420 C   0  0  0  0  0  0  0  0  0  0  0  0
   -2.1600   21.1220  -33.3760 C   0  0  0  0  0  0  0  0  0  0  0  0
   -2.0130   19.8570  -33.9330 C   0  0  0  0  0  0  0  0  0  0  0  0
   -3.0970   18.9800  -33.9780 C   0  0  0  0  0  0  0  0  0  0  0  0
   -4.3700   19.3610  -33.4760 C   0  0  0  0  0  0  0  0  0  0  0  0
   -5.4580   18.5130  -33.5400 N   0  0  0  0  0  0  0  0  0  0  0  0
   -5.3930   17.3020  -34.3870 C   0  0  0  0  0  0  0  0  0  0  0  0
   -6.6160   18.8170  -32.8480 C   0  0  0  0  0  0  0  0  0  0  0  0
   -7.6250   17.8410  -32.6530 C   0  0  0  0  0  0  0  0  0  0  0  0
   -8.8370   18.1690  -32.0580 C   0  0  0  0  0  0  0  0  0  0  0  0
   -9.0870   19.4710  -31.6570 C   0  0  0  0  0  0  0  0  0  0  0  0
   -8.1030   20.4550  -31.7770 C   0  0  0  0  0  0  0  0  0  0  0  0
   -8.6980   22.2320  -31.3270 Br  0  0  0  0  0  0  0  0  0  0  0  0
   -6.8160   20.1200  -32.2990 C   0  0  0  0  0  0  0  0  0  0  0  0
   -2.3975   25.3827  -25.1146 H   0  0  0  0  0  0  0  0  0  0  0  0
   -2.0712   24.5400  -26.6670 H   0  0  0  0  0  0  0  0  0  0  0  0
   -2.5312   26.2764  -26.6670 H   0  0  0  0  0  0  0  0  0  0  0  0
   -4.3165   23.9742  -25.7220 H   0  0  0  0  0  0  0  0  0  0  0  0
   -4.7566   25.7346  -25.8398 H   0  0  0  0  0  0  0  0  0  0  0  0
   -4.9900   25.6280  -28.0320 H   0  0  0  0  0  0  0  0  0  0  0  0
   -5.3940   24.0460  -27.6530 H   0  0  0  0  0  0  0  0  0  0  0  0
   -2.6892   24.8885  -28.5440 H   0  0  0  0  0  0  0  0  0  0  0  0
   -3.2318   23.2053  -28.1349 H   0  0  0  0  0  0  0  0  0  0  0  0
   -3.4921   24.6723  -30.6440 H   0  0  0  0  0  0  0  0  0  0  0  0
   -3.8128   22.9435  -30.2891 H   0  0  0  0  0  0  0  0  0  0  0  0
   -6.7636   25.1564  -31.2805 H   0  0  0  0  0  0  0  0  0  0  0  0
   -5.0350   25.4526  -31.6527 H   0  0  0  0  0  0  0  0  0  0  0  0
   -6.6751   23.5926  -32.9265 H   0  0  0  0  0  0  0  0  0  0  0  0
   -4.8698   23.5763  -32.9177 H   0  0  0  0  0  0  0  0  0  0  0  0
   -6.0340   22.2180  -30.5590 H   0  0  0  0  0  0  0  0  0  0  0  0
   -3.4905   22.5082  -32.3917 H   0  0  0  0  0  0  0  0  0  0  0  0
   -1.3074   21.8168  -33.3571 H   0  0  0  0  0  0  0  0  0  0  0  0
   -1.0391   19.5465  -34.3395 H   0  0  0  0  0  0  0  0  0  0  0  0
   -2.9637   17.9769  -34.4093 H   0  0  0  0  0  0  0  0  0  0  0  0
   -5.3451   16.4089  -33.7467 H   0  0  0  0  0  0  0  0  0  0  0  0
   -6.2897   17.2502  -35.0221 H   0  0  0  0  0  0  0  0  0  0  0  0
   -4.4959   17.3464  -35.0221 H   0  0  0  0  0  0  0  0  0  0  0  0
   -7.4455   16.8057  -32.9784 H   0  0  0  0  0  0  0  0  0  0  0  0
   -9.6005   17.3921  -31.9049 H   0  0  0  0  0  0  0  0  0  0  0  0
  -10.0706   19.7327  -31.2398 H   0  0  0  0  0  0  0  0  0  0  0  0
  1  2  1  0
  2  3  1  0
  3  4  1  0
  4  5  1  0
  5  6  1  0
  6  7  1  0
  7  8  1  0
  8  9  1  0
  9 10  1  0
 10 11  2  0
 11 12  1  0
 12 13  2  0
 13 14  1  0
 14 15  2  0
 15 16  1  0
 16 17  2  0
 17 18  1  0
 17 19  1  0
 19 20  2  0
 20 21  1  0
 21 22  2  0
 22 23  1  0
 23 24  1  0
 23 25  2  0
 25 10  1  0
 16 11  1  0
 25 19  1  0
  1 26  1  0
  1 27  1  0
  1 28  1  0
  2 29  1  0
  2 30  1  0
  3 31  1  0
  3 32  1  0
  4 33  1  0
  4 34  1  0
  5 35  1  0
  5 36  1  0
  7 37  1  0
  7 38  1  0
  8 39  1  0
  8 40  1  0
  9 41  1  0
 12 42  1  0
 13 43  1  0
 14 44  1  0
 15 45  1  0
 18 46  1  0
 18 47  1  0
 18 48  1  0
 20 49  1  0
 21 50  1  0
 22 51  1  0
M  CHG  2   3   1  17   1
M  END
>  <UniqueID>  (4) 
4

>  <SMILES>  (4) 
CC[NH2+]CCOCCNc1c2ccccc2[n+](C)c2cccc(Br)c12

>  <Energy>  (4) 
84.77026159241316

>  <Genealogy>  (4) 
CC[NH2+]CCOCCNc1c2ccccc2[n+](C)c2cccc(Br)c12 (protonated)
CC[NH2+]CCOCCNc1c2ccccc2[n+](C)c2cccc(Br)c12 (3D coordinates assigned)
CC[NH2+]CCOCCNc1c2ccccc2[n+](C)c2cccc(Br)c12 (optimized conformer: 84.77026159241316 kcal/mol)

>  <smiles>  (4) 
CCNCCOCCNc1c2ccccc2[n+](C)c2cccc(Br)c12

>  <score_type>  (4) 
oracle

>  <origin>  (4) 
adg

>  <m_score__min__energy>  (4) 
-8.8200000000000003

>  <m_primary>  (4) 
energy

$$$$
4:0
     RDKit          3D

 66 69  0  0  0  0  0  0  0  0999 V2000
   -0.7760   20.9160  -32.5710 C   0  0  0  0  0  0  0  0  0  0  0  0
   -1.9900   21.1520  -33.4660 C   0  0  0  0  0  0  0  0  0  0  0  0
   -3.2070   21.6570  -32.6770 C   0  0  0  0  0  0  0  0  0  0  0  0
   -4.4440   21.5340  -33.4490 N   0  0  0  0  0  0  0  0  0  0  0  0
   -5.5450   20.7770  -32.9260 C   0  0  0  0  0  0  0  0  0  0  0  0
   -5.5460   19.3790  -33.1020 C   0  0  0  0  0  0  0  0  0  0  0  0
   -4.4000   18.7110  -33.5870 C   0  0  0  0  0  0  0  0  0  0  0  0
   -4.4130   17.3380  -33.8130 C   0  0  0  0  0  0  0  0  0  0  0  0
   -5.5710   16.6060  -33.5790 C   0  0  0  0  0  0  0  0  0  0  0  0
   -6.7150   17.2410  -33.0980 C   0  0  0  0  0  0  0  0  0  0  0  0
   -6.7200   18.6330  -32.8200 C   0  0  0  0  0  0  0  0  0  0  0  0
   -7.8430   19.2700  -32.3330 N   0  0  0  0  0  0  0  0  0  0  0  0
   -8.9800   18.4710  -31.8200 C   0  0  0  0  0  0  0  0  0  0  0  0
   -7.8940   20.6510  -32.2860 C   0  0  0  0  0  0  0  0  0  0  0  0
   -9.1240   21.3270  -32.1100 C   0  0  0  0  0  0  0  0  0  0  0  0
   -9.1680   22.7060  -31.9690 C   0  0  0  0  0  0  0  0  0  0  0  0
   -7.9960   23.4440  -31.9430 C   0  0  0  0  0  0  0  0  0  0  0  0
   -6.7460   22.8250  -32.1370 C   0  0  0  0  0  0  0  0  0  0  0  0
   -5.5380   23.5830  -31.8870 N   0  0  0  0  0  0  0  0  0  0  0  0
   -5.0720   23.9230  -30.5360 C   0  0  0  0  0  0  0  0  0  0  0  0
   -4.8750   22.6720  -29.6640 C   0  0  0  0  0  0  0  0  0  0  0  0
   -4.2350   22.9960  -28.2840 C   0  0  0  0  0  0  0  0  0  0  0  0
   -2.8110   22.5540  -28.0980 N   0  0  0  0  0  0  0  0  0  0  0  0
   -2.7780   21.2090  -27.4620 C   0  0  0  0  0  0  0  0  0  0  0  0
   -2.1310   23.4950  -27.1580 C   0  0  0  0  0  0  0  0  0  0  0  0
   -1.9340   24.9070  -27.7650 C   0  0  0  0  0  0  0  0  0  0  0  0
   -1.9830   24.9290  -29.1790 O   0  0  0  0  0  0  0  0  0  0  0  0
   -1.2950   23.8170  -29.7020 C   0  0  0  0  0  0  0  0  0  0  0  0
   -2.0660   22.5160  -29.4020 C   0  0  0  0  0  0  0  0  0  0  0  0
   -6.7090   21.4260  -32.4430 C   0  0  0  0  0  0  0  0  0  0  0  0
   -1.0813   20.9753  -31.5159 H   0  0  0  0  0  0  0  0  0  0  0  0
   -0.3574   19.9197  -32.7761 H   0  0  0  0  0  0  0  0  0  0  0  0
   -0.0146   21.6829  -32.7761 H   0  0  0  0  0  0  0  0  0  0  0  0
   -1.7273   21.9004  -34.2282 H   0  0  0  0  0  0  0  0  0  0  0  0
   -2.2620   20.1898  -33.9244 H   0  0  0  0  0  0  0  0  0  0  0  0
   -3.3031   21.0664  -31.7540 H   0  0  0  0  0  0  0  0  0  0  0  0
   -3.0498   22.7218  -32.4503 H   0  0  0  0  0  0  0  0  0  0  0  0
   -4.6150   22.1560  -34.2730 H   0  0  0  0  0  0  0  0  0  0  0  0
   -3.4835   19.2847  -33.7891 H   0  0  0  0  0  0  0  0  0  0  0  0
   -3.5066   16.8320  -34.1769 H   0  0  0  0  0  0  0  0  0  0  0  0
   -5.5849   15.5235  -33.7737 H   0  0  0  0  0  0  0  0  0  0  0  0
   -7.6297   16.6532  -32.9310 H   0  0  0  0  0  0  0  0  0  0  0  0
   -8.9676   18.4797  -30.7201 H   0  0  0  0  0  0  0  0  0  0  0  0
   -9.9248   18.9048  -32.1795 H   0  0  0  0  0  0  0  0  0  0  0  0
   -8.8920   17.4351  -32.1795 H   0  0  0  0  0  0  0  0  0  0  0  0
  -10.0602   20.7500  -32.0846 H   0  0  0  0  0  0  0  0  0  0  0  0
  -10.1382   23.2162  -31.8774 H   0  0  0  0  0  0  0  0  0  0  0  0
   -8.0424   24.5291  -31.7683 H   0  0  0  0  0  0  0  0  0  0  0  0
   -4.8530   23.6970  -32.6660 H   0  0  0  0  0  0  0  0  0  0  0  0
   -4.1130   24.4560  -30.6146 H   0  0  0  0  0  0  0  0  0  0  0  0
   -5.8385   24.5523  -30.0600 H   0  0  0  0  0  0  0  0  0  0  0  0
   -5.8555   22.2027  -29.4955 H   0  0  0  0  0  0  0  0  0  0  0  0
   -4.1881   21.9995  -30.1987 H   0  0  0  0  0  0  0  0  0  0  0  0
   -4.2697   24.0866  -28.1447 H   0  0  0  0  0  0  0  0  0  0  0  0
   -4.8203   22.4288  -27.5453 H   0  0  0  0  0  0  0  0  0  0  0  0
   -2.7807   21.3207  -26.3677 H   0  0  0  0  0  0  0  0  0  0  0  0
   -3.6623   20.6340  -27.7741 H   0  0  0  0  0  0  0  0  0  0  0  0
   -1.8666   20.6781  -27.7741 H   0  0  0  0  0  0  0  0  0  0  0  0
   -2.7414   23.5853  -26.2474 H   0  0  0  0  0  0  0  0  0  0  0  0
   -1.1340   23.0847  -26.9399 H   0  0  0  0  0  0  0  0  0  0  0  0
   -2.7270   25.5647  -27.3795 H   0  0  0  0  0  0  0  0  0  0  0  0
   -0.9293   25.2460  -27.4723 H   0  0  0  0  0  0  0  0  0  0  0  0
   -1.1922   23.9341  -30.7909 H   0  0  0  0  0  0  0  0  0  0  0  0
   -0.3023   23.7591  -29.2318 H   0  0  0  0  0  0  0  0  0  0  0  0
   -2.7895   22.3441  -30.2126 H   0  0  0  0  0  0  0  0  0  0  0  0
   -1.3242   21.7069  -29.3300 H   0  0  0  0  0  0  0  0  0  0  0  0
  1  2  1  0
  2  3  1  0
  3  4  1  0
  4  5  1  0
  5  6  2  0
  6  7  1  0
  7  8  2  0
  8  9  1  0
  9 10  2  0
 10 11  1  0
 11 12  2  0
 12 13  1  0
 12 14  1  0
 14 15  2  0
 15 16  1  0
 16 17  2  0
 17 18  1  0
 18 19  1  0
 19 20  1  0
 20 21  1  0
 21 22  1  0
 22 23  1  0
 23 24  1  0
 23 25  1  0
 25 26  1  0
 26 27  1  0
 27 28  1  0
 28 29  1  0
 18 30  2  0
 30  5  1  0
 11  6  1  0
 30 14  1  0
 29 23  1  0
  1 31  1  0
  1 32  1  0
  1 33  1  0
  2 34  1  0
  2 35  1  0
  3 36  1  0
  3 37  1  0
  4 38  1  0
  7 39  1  0
  8 40  1  0
  9 41  1  0
 10 42  1  0
 13 43  1  0
 13 44  1  0
 13 45  1  0
 15 46  1  0
 16 47  1  0
 17 48  1  0
 19 49  1  0
 20 50  1  0
 20 51  1  0
 21 52  1  0
 21 53  1  0
 22 54  1  0
 22 55  1  0
 24 56  1  0
 24 57  1  0
 24 58  1  0
 25 59  1  0
 25 60  1  0
 26 61  1  0
 26 62  1  0
 28 63  1  0
 28 64  1  0
 29 65  1  0
 29 66  1  0
M  CHG  2  12   1  23   1
M  END
>  <UniqueID>  (5) 
5

>  <SMILES>  (5) 
CCCNc1c2ccccc2[n+](C)c2cccc(NCCC[N+]3(C)CCOCC3)c12

>  <Energy>  (5) 
118.35308325498472

>  <Genealogy>  (5) 
CCCNc1c2ccccc2[n+](C)c2cccc(NCCC[N+]3(C)CCOCC3)c12 (3D coordinates assigned)
CCCNc1c2ccccc2[n+](C)c2cccc(NCCC[N+]3(C)CCOCC3)c12 (nonaromatic ring conformer: 118.35308325498472 kcal/mol)

>  <smiles>  (5) 
CCCNc1c2ccccc2[n+](C)c2cccc(NCCC[N+]3(C)CCOCC3)c12

>  <score_type>  (5) 
oracle

>  <origin>  (5) 
adg

>  <m_score__min__energy>  (5) 
-8.4600000000000009

>  <m_primary>  (5) 
energy

$$$$
5:0
     RDKit          3D

 34 35  0  0  0  0  0  0  0  0999 V2000
   -2.8510   21.8570  -32.7930 C   0  0  0  0  0  0  0  0  0  0  0  0
   -4.1010   21.5280  -32.0830 N   0  0  0  0  0  0  0  0  0  0  0  0
   -4.3490   20.0740  -32.0460 C   0  0  0  0  0  0  0  0  0  0  0  0
   -5.7740   19.7690  -32.3940 C   0  0  0  0  0  0  0  0  0  0  0  0
   -6.4350   20.0830  -33.5670 C   0  0  0  0  0  0  0  0  0  0  0  0
   -7.7070   19.6570  -33.4620 N   0  0  0  0  0  0  0  0  0  0  0  0
   -7.8740   19.1060  -32.2690 N   0  0  0  0  0  0  0  0  0  0  0  0
   -9.1050   18.4690  -31.8200 C   0  0  0  0  0  0  0  0  0  0  0  0
   -6.7110   19.1470  -31.5910 C   0  0  0  0  0  0  0  0  0  0  0  0
   -4.1530   22.1370  -30.7340 C   0  0  0  0  0  0  0  0  0  0  0  0
   -4.9360   23.4310  -30.6820 C   0  0  0  0  0  0  0  0  0  0  0  0
   -4.3480   24.6360  -30.8430 N   0  0  0  0  0  0  0  0  0  0  0  0
   -5.3550   25.5220  -30.7110 C   0  0  0  0  0  0  0  0  0  0  0  0
   -6.5330   24.8500  -30.4770 C   0  0  0  0  0  0  0  0  0  0  0  0
   -6.2700   23.5330  -30.4730 N   0  0  0  0  0  0  0  0  0  0  0  0
   -7.2440   22.4720  -30.2250 C   0  0  0  0  0  0  0  0  0  0  0  0
   -2.0574   22.0659  -32.0605 H   0  0  0  0  0  0  0  0  0  0  0  0
   -2.5530   21.0067  -33.4240 H   0  0  0  0  0  0  0  0  0  0  0  0
   -3.0102   22.7438  -33.4240 H   0  0  0  0  0  0  0  0  0  0  0  0
   -3.6865   19.5765  -32.7696 H   0  0  0  0  0  0  0  0  0  0  0  0
   -4.1480   19.7075  -31.0285 H   0  0  0  0  0  0  0  0  0  0  0  0
   -5.9963   20.5936  -34.4370 H   0  0  0  0  0  0  0  0  0  0  0  0
   -8.4470   19.7370  -34.1940 H   0  0  0  0  0  0  0  0  0  0  0  0
   -9.1309   18.4556  -30.7204 H   0  0  0  0  0  0  0  0  0  0  0  0
   -9.9695   19.0329  -32.2003 H   0  0  0  0  0  0  0  0  0  0  0  0
   -9.1440   17.4376  -32.2003 H   0  0  0  0  0  0  0  0  0  0  0  0
   -6.5378   18.7550  -30.5779 H   0  0  0  0  0  0  0  0  0  0  0  0
   -4.6229   21.4186  -30.0462 H   0  0  0  0  0  0  0  0  0  0  0  0
   -3.1179   22.3752  -30.4480 H   0  0  0  0  0  0  0  0  0  0  0  0
   -5.2512   26.6149  -30.7798 H   0  0  0  0  0  0  0  0  0  0  0  0
   -7.5191   25.3116  -30.3204 H   0  0  0  0  0  0  0  0  0  0  0  0
   -7.3694   22.3355  -29.1407 H   0  0  0  0  0  0  0  0  0  0  0  0
   -8.2095   22.7484  -30.6738 H   0  0  0  0  0  0  0  0  0  0  0  0
   -6.8862   21.5336  -30.6738 H   0  0  0  0  0  0  0  0  0  0  0  0
  1  2  1  0
  2  3  1  0
  3  4  1  0
  4  5  1  0
  5  6  2  0
  6  7  1  0
  7  8  1  0
  7  9  1  0
  2 10  1  0
 10 11  1  0
 11 12  2  0
 12 13  1  0
 13 14  2  0
 14 15  1  0
 15 16  1  0
  9  4  2  0
 15 11  1  0
  1 17  1  0
  1 18  1  0
  1 19  1  0
  3 20  1  0
  3 21  1  0
  5 22  1  0
  6 23  1  0
  8 24  1  0
  8 25  1  0
  8 26  1  0
  9 27  1  0
 10 28  1  0
 10 29  1  0
 13 30  1  0
 14 31  1  0
 16 32  1  0
 16 33  1  0
 16 34  1  0
M  CHG  1   6   1
M  END
>  <UniqueID>  (6) 
6

>  <SMILES>  (6) 
CN(Cc1c[nH+]n(C)c1)Cc1nccn1C

>  <Energy>  (6) 
93.59592023907197

>  <Genealogy>  (6) 
CN(Cc1c[nH+]n(C)c1)Cc1nccn1C (protonated)
CN(Cc1c[nH+]n(C)c1)Cc1nccn1C (3D coordinates assigned)
CN(Cc1c[nH+]n(C)c1)Cc1nccn1C (optimized conformer: 93.59592023907197 kcal/mol)

>  <smiles>  (6) 
CN(Cc1cnn(C)c1)Cc1nccn1C

>  <score_type>  (6) 
oracle

>  <origin>  (6) 
adg

>  <m_score__min__energy>  (6) 
-5.5300000000000002

>  <m_primary>  (6) 
energy

$$$$
6:0
     RDKit          3D

 25 25  0  0  0  0  0  0  0  0999 V2000
   -9.0860   21.8920  -31.5910 C   0  0  0  0  0  0  0  0  0  0  0  0
   -9.4870   20.6250  -32.3430 C   0  0  0  0  0  0  0  0  0  0  0  0
   -8.3560   19.7270  -32.4770 N   0  0  0  0  0  0  0  0  0  0  0  0
   -7.2800   20.0380  -33.0980 C   0  0  0  0  0  0  0  0  0  0  0  0
   -6.2720   18.9400  -33.1240 C   0  0  0  0  0  0  0  0  0  0  0  0
   -4.9760   19.4000  -32.4370 C   0  0  0  0  0  0  0  0  0  0  0  0
   -5.9950   18.5150  -34.5750 C   0  0  0  0  0  0  0  0  0  0  0  0
   -6.9770   17.8160  -32.3230 C   0  0  0  0  0  0  0  0  0  0  0  0
   -8.3550   18.3830  -31.9640 C   0  0  0  0  0  0  0  0  0  0  0  0
   -9.1438   21.7093  -30.5078 H   0  0  0  0  0  0  0  0  0  0  0  0
   -8.0564   22.1687  -31.8617 H   0  0  0  0  0  0  0  0  0  0  0  0
   -9.7689   22.7107  -31.8617 H   0  0  0  0  0  0  0  0  0  0  0  0
  -10.2889   20.1151  -31.7889 H   0  0  0  0  0  0  0  0  0  0  0  0
   -9.8354   20.9062  -33.3477 H   0  0  0  0  0  0  0  0  0  0  0  0
   -7.1156   21.0196  -33.5665 H   0  0  0  0  0  0  0  0  0  0  0  0
   -5.1037   19.3547  -31.3454 H   0  0  0  0  0  0  0  0  0  0  0  0
   -4.1481   18.7408  -32.7370 H   0  0  0  0  0  0  0  0  0  0  0  0
   -4.7489   20.4336  -32.7370 H   0  0  0  0  0  0  0  0  0  0  0  0
   -5.3944   17.5935  -34.5788 H   0  0  0  0  0  0  0  0  0  0  0  0
   -6.9486   18.3333  -35.0923 H   0  0  0  0  0  0  0  0  0  0  0  0
   -5.4438   19.3141  -35.0923 H   0  0  0  0  0  0  0  0  0  0  0  0
   -7.0809   16.9104  -32.9387 H   0  0  0  0  0  0  0  0  0  0  0  0
   -6.4052   17.5274  -31.4287 H   0  0  0  0  0  0  0  0  0  0  0  0
   -9.1513   17.7893  -32.4366 H   0  0  0  0  0  0  0  0  0  0  0  0
   -8.5403   18.3569  -30.8800 H   0  0  0  0  0  0  0  0  0  0  0  0
  1  2  1  0
  2  3  1  0
  3  4  2  0
  4  5  1  0
  5  6  1  0
  5  7  1  0
  5  8  1  0
  8  9  1  0
  9  3  1  0
  1 10  1  0
  1 11  1  0
  1 12  1  0
  2 13  1  0
  2 14  1  0
  4 15  1  0
  6 16  1  0
  6 17  1  0
  6 18  1  0
  7 19  1  0
  7 20  1  0
  7 21  1  0
  8 22  1  0
  8 23  1  0
  9 24  1  0
  9 25  1  0
M  CHG  1   3   1
M  END
>  <UniqueID>  (7) 
7

>  <SMILES>  (7) 
CC[N+]1=CC(C)(C)CC1

>  <Energy>  (7) 
20.12921221863105

>  <Genealogy>  (7) 
CC[N+]1=CC(C)(C)CC1 (3D coordinates assigned)
CC[N+]1=CC(C)(C)CC1 (nonaromatic ring conformer: 20.12921221863105 kcal/mol)

>  <smiles>  (7) 
CC[N+]1=CC(C)(C)CC1

>  <score_type>  (7) 
oracle

>  <origin>  (7) 
adg

>  <m_score__min__energy>  (7) 
-3.9399999999999999

>  <m_primary>  (7) 
energy

$$$$
7:0
     RDKit          3D

 27 28  0  0  0  0  0  0  0  0999 V2000
   -1.7450   25.6670  -26.5560 C   0  0  0  0  0  0  0  0  0  0  0  0
   -0.9250   26.0370  -27.7860 C   0  0  0  0  0  0  0  0  0  0  0  0
   -1.6160   25.6720  -28.9670 O   0  0  0  0  0  0  0  0  0  0  0  0
   -2.2340   24.4070  -28.8290 C   0  0  0  0  0  0  0  0  0  0  0  0
   -3.4340   24.3180  -29.7170 C   0  0  0  0  0  0  0  0  0  0  0  0
   -4.1950   23.2140  -29.8470 N   0  0  0  0  0  0  0  0  0  0  0  0
   -5.1090   23.6270  -30.7510 C   0  0  0  0  0  0  0  0  0  0  0  0
   -6.2070   22.7760  -31.2590 C   0  0  0  0  0  0  0  0  0  0  0  0
   -7.5460   23.1870  -31.1290 C   0  0  0  0  0  0  0  0  0  0  0  0
   -8.5820   22.3810  -31.6110 C   0  0  0  0  0  0  0  0  0  0  0  0
   -8.2930   21.1590  -32.2230 C   0  0  0  0  0  0  0  0  0  0  0  0
   -6.9670   20.7410  -32.3560 C   0  0  0  0  0  0  0  0  0  0  0  0
   -5.9270   21.5440  -31.8770 C   0  0  0  0  0  0  0  0  0  0  0  0
   -4.9070   24.9030  -31.1400 N   0  0  0  0  0  0  0  0  0  0  0  0
   -3.8610   25.2920  -30.4780 O   0  0  0  0  0  0  0  0  0  0  0  0
   -1.1793   25.9223  -25.6478 H   0  0  0  0  0  0  0  0  0  0  0  0
   -2.6932   26.2245  -26.5662 H   0  0  0  0  0  0  0  0  0  0  0  0
   -1.9544   24.5872  -26.5662 H   0  0  0  0  0  0  0  0  0  0  0  0
   -0.7477   27.1226  -27.7905 H   0  0  0  0  0  0  0  0  0  0  0  0
    0.0333   25.4981  -27.7518 H   0  0  0  0  0  0  0  0  0  0  0  0
   -1.5172   23.6203  -29.1071 H   0  0  0  0  0  0  0  0  0  0  0  0
   -2.5507   24.2747  -27.7839 H   0  0  0  0  0  0  0  0  0  0  0  0
   -7.7793   24.1472  -30.6458 H   0  0  0  0  0  0  0  0  0  0  0  0
   -9.6266   22.7099  -31.5080 H   0  0  0  0  0  0  0  0  0  0  0  0
   -9.1097   20.5260  -32.6002 H   0  0  0  0  0  0  0  0  0  0  0  0
   -6.7403   19.7787  -32.8383 H   0  0  0  0  0  0  0  0  0  0  0  0
   -4.8843   21.2102  -31.9842 H   0  0  0  0  0  0  0  0  0  0  0  0
  1  2  1  0
  2  3  1  0
  3  4  1  0
  4  5  1  0
  5  6  2  0
  6  7  1  0
  7  8  1  0
  8  9  2  0
  9 10  1  0
 10 11  2  0
 11 12  1  0
 12 13  2  0
  7 14  2  0
 14 15  1  0
 15  5  1  0
 13  8  1  0
  1 16  1  0
  1 17  1  0
  1 18  1  0
  2 19  1  0
  2 20  1  0
  4 21  1  0
  4 22  1  0
  9 23  1  0
 10 24  1  0
 11 25  1  0
 12 26  1  0
 13 27  1  0
M  END
>  <UniqueID>  (8) 
8

>  <SMILES>  (8) 
CCOCc1nc(-c2ccccc2)no1

>  <Energy>  (8) 
60.11918244465586

>  <Genealogy>  (8) 
CCOCc1nc(-c2ccccc2)no1 (3D coordinates assigned)
CCOCc1nc(-c2ccccc2)no1 (optimized conformer: 60.11918244465586 kcal/mol)

>  <smiles>  (8) 
CCOCc1nc(-c2ccccc2)no1

>  <score_type>  (8) 
oracle

>  <origin>  (8) 
adg

>  <m_score__min__energy>  (8) 
-7.3300000000000001

>  <m_primary>  (8) 
energy

$$$$
8:0
     RDKit          3D

 76 78  0  0  0  0  0  0  0  0999 V2000
   -8.9770   20.4150  -31.3120 C   0  0  0  0  0  0  0  0  0  0  0  0
   -8.2840   20.5430  -32.6730 C   0  0  0  0  0  0  0  0  0  0  0  0
   -7.5840   19.2880  -33.0650 N   0  0  0  0  0  0  0  0  0  0  0  0
   -7.6340   18.2520  -32.0010 C   0  0  0  0  0  0  0  0  0  0  0  0
   -6.3650   17.4050  -31.8650 C   0  0  0  0  0  0  0  0  0  0  0  0
   -6.2240   19.4660  -33.6520 C   0  0  0  0  0  0  0  0  0  0  0  0
   -5.4030   20.6570  -33.1050 C   0  0  0  0  0  0  0  0  0  0  0  0
   -5.1180   20.4770  -31.6820 N   0  0  0  0  0  0  0  0  0  0  0  0
   -4.5630   21.5530  -30.9090 C   0  0  0  0  0  0  0  0  0  0  0  0
   -5.3340   22.6930  -30.6410 C   0  0  0  0  0  0  0  0  0  0  0  0
   -6.6220   22.8480  -31.1940 C   0  0  0  0  0  0  0  0  0  0  0  0
   -7.3820   23.9810  -30.9130 C   0  0  0  0  0  0  0  0  0  0  0  0
   -6.8760   24.9680  -30.0730 C   0  0  0  0  0  0  0  0  0  0  0  0
   -5.6130   24.8260  -29.5030 C   0  0  0  0  0  0  0  0  0  0  0  0
   -4.8150   23.6900  -29.7790 C   0  0  0  0  0  0  0  0  0  0  0  0
   -3.5590   23.5370  -29.2230 N   0  0  0  0  0  0  0  0  0  0  0  0
   -3.2730   24.2300  -27.9500 C   0  0  0  0  0  0  0  0  0  0  0  0
   -2.6870   22.5890  -29.7290 C   0  0  0  0  0  0  0  0  0  0  0  0
   -1.2630   22.6410  -29.5440 C   0  0  0  0  0  0  0  0  0  0  0  0
   -0.5000   23.9180  -29.2260 C   0  0  0  0  0  0  0  0  0  0  0  0
    0.2220   23.8640  -27.8630 C   0  0  0  0  0  0  0  0  0  0  0  0
    0.5500   25.2240  -27.4060 N   0  0  0  0  0  0  0  0  0  0  0  0
   -0.6190   25.9220  -26.8390 C   0  0  0  0  0  0  0  0  0  0  0  0
   -0.2440   26.8190  -25.6220 C   0  0  0  0  0  0  0  0  0  0  0  0
    0.1070   26.0810  -24.3680 N   0  0  0  0  0  0  0  0  0  0  0  0
   -0.4520   26.7700  -23.1740 C   0  0  0  0  0  0  0  0  0  0  0  0
    1.5760   25.9170  -24.2230 C   0  0  0  0  0  0  0  0  0  0  0  0
   -0.5020   24.7300  -24.4410 C   0  0  0  0  0  0  0  0  0  0  0  0
   -0.4800   21.5310  -29.9060 C   0  0  0  0  0  0  0  0  0  0  0  0
   -1.0480   20.4220  -30.5190 C   0  0  0  0  0  0  0  0  0  0  0  0
   -2.3970   20.4230  -30.8460 C   0  0  0  0  0  0  0  0  0  0  0  0
   -3.2210   21.5080  -30.4910 C   0  0  0  0  0  0  0  0  0  0  0  0
   -8.2372   20.5517  -30.5095 H   0  0  0  0  0  0  0  0  0  0  0  0
   -9.7587   21.1839  -31.2248 H   0  0  0  0  0  0  0  0  0  0  0  0
   -9.4325   19.4175  -31.2248 H   0  0  0  0  0  0  0  0  0  0  0  0
   -9.0406   20.7803  -33.4354 H   0  0  0  0  0  0  0  0  0  0  0  0
   -7.5311   21.3413  -32.5963 H   0  0  0  0  0  0  0  0  0  0  0  0
   -8.1600   18.8690  -33.8370 H   0  0  0  0  0  0  0  0  0  0  0  0
   -7.8121   18.7573  -31.0403 H   0  0  0  0  0  0  0  0  0  0  0  0
   -8.4391   17.5580  -32.2840 H   0  0  0  0  0  0  0  0  0  0  0  0
   -6.1378   17.2534  -30.7994 H   0  0  0  0  0  0  0  0  0  0  0  0
   -6.5215   16.4297  -32.3489 H   0  0  0  0  0  0  0  0  0  0  0  0
   -5.5243   17.9237  -32.3489 H   0  0  0  0  0  0  0  0  0  0  0  0
   -5.6516   18.5462  -33.4614 H   0  0  0  0  0  0  0  0  0  0  0  0
   -6.3859   19.6808  -34.7186 H   0  0  0  0  0  0  0  0  0  0  0  0
   -4.4543   20.7259  -33.6575 H   0  0  0  0  0  0  0  0  0  0  0  0
   -5.9878   21.5796  -33.2350 H   0  0  0  0  0  0  0  0  0  0  0  0
   -5.3120   19.5680  -31.2030 H   0  0  0  0  0  0  0  0  0  0  0  0
   -7.0300   22.0674  -31.8530 H   0  0  0  0  0  0  0  0  0  0  0  0
   -8.3826   24.0954  -31.3554 H   0  0  0  0  0  0  0  0  0  0  0  0
   -7.4761   25.8645  -29.8581 H   0  0  0  0  0  0  0  0  0  0  0  0
   -5.2307   25.6071  -28.8294 H   0  0  0  0  0  0  0  0  0  0  0  0
   -3.5429   23.5759  -27.1078 H   0  0  0  0  0  0  0  0  0  0  0  0
   -2.2013   24.4724  -27.8972 H   0  0  0  0  0  0  0  0  0  0  0  0
   -3.8618   25.1577  -27.8972 H   0  0  0  0  0  0  0  0  0  0  0  0
    0.2496   24.0841  -30.0137 H   0  0  0  0  0  0  0  0  0  0  0  0
   -1.2330   24.7368  -29.1785 H   0  0  0  0  0  0  0  0  0  0  0  0
   -0.4336   23.3807  -27.1237 H   0  0  0  0  0  0  0  0  0  0  0  0
    1.1530   23.2886  -27.9731 H   0  0  0  0  0  0  0  0  0  0  0  0
    0.9260   25.7870  -28.2120 H   0  0  0  0  0  0  0  0  0  0  0  0
   -1.0651   26.5552  -27.6200 H   0  0  0  0  0  0  0  0  0  0  0  0
   -1.3267   25.1574  -26.4860 H   0  0  0  0  0  0  0  0  0  0  0  0
    0.6216   27.4348  -25.9076 H   0  0  0  0  0  0  0  0  0  0  0  0
   -1.1443   27.4061  -25.3878 H   0  0  0  0  0  0  0  0  0  0  0  0
   -0.0653   26.2934  -22.2611 H   0  0  0  0  0  0  0  0  0  0  0  0
   -0.1546   27.8289  -23.1890 H   0  0  0  0  0  0  0  0  0  0  0  0
   -1.5495   26.6972  -23.1890 H   0  0  0  0  0  0  0  0  0  0  0  0
    1.8380   25.8877  -23.1551 H   0  0  0  0  0  0  0  0  0  0  0  0
    1.8893   24.9783  -24.7033 H   0  0  0  0  0  0  0  0  0  0  0  0
    2.0886   26.7635  -24.7033 H   0  0  0  0  0  0  0  0  0  0  0  0
   -0.6735   24.3496  -23.4232 H   0  0  0  0  0  0  0  0  0  0  0  0
   -1.4608   24.7885  -24.9770 H   0  0  0  0  0  0  0  0  0  0  0  0
    0.1768   24.0503  -24.9770 H   0  0  0  0  0  0  0  0  0  0  0  0
    0.6005   21.5411  -29.7003 H   0  0  0  0  0  0  0  0  0  0  0  0
   -0.4283   19.5419  -30.7457 H   0  0  0  0  0  0  0  0  0  0  0  0
   -2.8265   19.5675  -31.3879 H   0  0  0  0  0  0  0  0  0  0  0  0
  1  2  1  0
  2  3  1  0
  3  4  1  0
  4  5  1  0
  3  6  1  0
  6  7  1  0
  7  8  1  0
  8  9  1  0
  9 10  2  0
 10 11  1  0
 11 12  2  0
 12 13  1  0
 13 14  2  0
 14 15  1  0
 15 16  2  0
 16 17  1  0
 16 18  1  0
 18 19  2  0
 19 20  1  0
 20 21  1  0
 21 22  1  0
 22 23  1  0
 23 24  1  0
 24 25  1  0
 25 26  1  0
 25 27  1  0
 25 28  1  0
 19 29  1  0
 29 30  2  0
 30 31  1  0
 31 32  2  0
 32  9  1  0
 15 10  1  0
 32 18  1  0
  1 33  1  0
  1 34  1  0
  1 35  1  0
  2 36  1  0
  2 37  1  0
  3 38  1  0
  4 39  1  0
  4 40  1  0
  5 41  1  0
  5 42  1  0
  5 43  1  0
  6 44  1  0
  6 45  1  0
  7 46  1  0
  7 47  1  0
  8 48  1  0
 11 49  1  0
 12 50  1  0
 13 51  1  0
 14 52  1  0
 17 53  1  0
 17 54  1  0
 17 55  1  0
 20 56  1  0
 20 57  1  0
 21 58  1  0
 21 59  1  0
 22 60  1  0
 23 61  1  0
 23 62  1  0
 24 63  1  0
 24 64  1  0
 26 65  1  0
 26 66  1  0
 26 67  1  0
 27 68  1  0
 27 69  1  0
 27 70  1  0
 28 71  1  0
 28 72  1  0
 28 73  1  0
 29 74  1  0
 30 75  1  0
 31 76  1  0
M  CHG  3   3   1  16   1  25   1
M  END
>  <UniqueID>  (9) 
9

>  <SMILES>  (9) 
CC[NH+](CC)CCNc1c2ccccc2[n+](C)c2c(CCNCC[N+](C)(C)C)cccc12

>  <Energy>  (9) 
129.28043651708435

>  <Genealogy>  (9) 
CC[NH+](CC)CCNc1c2ccccc2[n+](C)c2c(CCNCC[N+](C)(C)C)cccc12 (protonated)
CC[NH+](CC)CCNc1c2ccccc2[n+](C)c2c(CCNCC[N+](C)(C)C)cccc12 (3D coordinates assigned)
CC[NH+](CC)CCNc1c2ccccc2[n+](C)c2c(CCNCC[N+](C)(C)C)cccc12 (optimized conformer: 129.28043651708435 kcal/mol)

>  <smiles>  (9) 
CCN(CC)CCNc1c2ccccc2[n+](C)c2c(CCNCC[N+](C)(C)C)cccc12

>  <score_type>  (9) 
oracle

>  <origin>  (9) 
adg

>  <m_score__min__energy>  (9) 
-7.4400000000000004

>  <m_primary>  (9) 
energy

$$$$
9:0
     RDKit          3D

 56 58  0  0  0  0  0  0  0  0999 V2000
   -2.5840   21.5350  -32.0910 C   0  0  0  0  0  0  0  0  0  0  0  0
   -2.0760   21.1630  -33.4850 C   0  0  0  0  0  0  0  0  0  0  0  0
   -0.5990   21.0910  -33.4980 N   0  0  0  0  0  0  0  0  0  0  0  0
   -0.0990   21.1800  -34.8840 C   0  0  0  0  0  0  0  0  0  0  0  0
   -0.1030   19.8560  -32.8390 C   0  0  0  0  0  0  0  0  0  0  0  0
   -0.0740   18.7000  -33.8380 C   0  0  0  0  0  0  0  0  0  0  0  0
   -1.1120   17.7880  -33.5470 O   0  0  0  0  0  0  0  0  0  0  0  0
   -2.0030   17.6780  -34.6400 C   0  0  0  0  0  0  0  0  0  0  0  0
   -3.4430   17.5520  -34.1390 C   0  0  0  0  0  0  0  0  0  0  0  0
   -3.9210   18.8080  -33.6570 O   0  0  0  0  0  0  0  0  0  0  0  0
   -5.2070   19.0510  -33.1400 C   0  0  0  0  0  0  0  0  0  0  0  0
   -6.0800   18.0170  -32.7620 C   0  0  0  0  0  0  0  0  0  0  0  0
   -7.3520   18.3110  -32.2730 C   0  0  0  0  0  0  0  0  0  0  0  0
   -7.7760   19.6420  -32.1470 C   0  0  0  0  0  0  0  0  0  0  0  0
   -9.0640   19.9190  -31.6690 C   0  0  0  0  0  0  0  0  0  0  0  0
   -9.5000   21.2350  -31.5490 C   0  0  0  0  0  0  0  0  0  0  0  0
   -8.6570   22.2900  -31.8950 C   0  0  0  0  0  0  0  0  0  0  0  0
   -7.3500   22.0510  -32.3640 C   0  0  0  0  0  0  0  0  0  0  0  0
   -6.5170   23.1840  -32.7120 N   0  0  0  0  0  0  0  0  0  0  0  0
   -6.5150   24.1710  -31.6200 C   0  0  0  0  0  0  0  0  0  0  0  0
   -5.4140   23.8750  -30.6470 C   0  0  0  0  0  0  0  0  0  0  0  0
   -5.2930   22.7260  -29.8790 C   0  0  0  0  0  0  0  0  0  0  0  0
   -4.1230   22.7000  -29.1110 C   0  0  0  0  0  0  0  0  0  0  0  0
   -3.3150   23.8190  -29.2830 C   0  0  0  0  0  0  0  0  0  0  0  0
   -4.0580   24.8380  -30.3970 S   0  0  0  0  0  0  0  0  0  0  0  0
   -6.9040   20.7040  -32.5110 C   0  0  0  0  0  0  0  0  0  0  0  0
   -5.6240   20.3810  -33.0170 C   0  0  0  0  0  0  0  0  0  0  0  0
   -1.9432   21.0658  -31.3299 H   0  0  0  0  0  0  0  0  0  0  0  0
   -2.5564   22.6280  -31.9703 H   0  0  0  0  0  0  0  0  0  0  0  0
   -3.6177   21.1787  -31.9703 H   0  0  0  0  0  0  0  0  0  0  0  0
   -2.4883   20.1841  -33.7708 H   0  0  0  0  0  0  0  0  0  0  0  0
   -2.4000   21.9350  -34.1985 H   0  0  0  0  0  0  0  0  0  0  0  0
    0.9839   21.3728  -34.8715 H   0  0  0  0  0  0  0  0  0  0  0  0
   -0.2968   20.2325  -35.4067 H   0  0  0  0  0  0  0  0  0  0  0  0
   -0.6116   22.0010  -35.4067 H   0  0  0  0  0  0  0  0  0  0  0  0
    0.9134   20.0313  -32.4566 H   0  0  0  0  0  0  0  0  0  0  0  0
   -0.7769   19.5965  -32.0092 H   0  0  0  0  0  0  0  0  0  0  0  0
   -0.2093   19.0941  -34.8560 H   0  0  0  0  0  0  0  0  0  0  0  0
    0.8940   18.1826  -33.7655 H   0  0  0  0  0  0  0  0  0  0  0  0
   -1.9154   18.5744  -35.2715 H   0  0  0  0  0  0  0  0  0  0  0  0
   -1.7465   16.7808  -35.2225 H   0  0  0  0  0  0  0  0  0  0  0  0
   -4.0849   17.2146  -34.9661 H   0  0  0  0  0  0  0  0  0  0  0  0
   -3.4684   16.8239  -33.3149 H   0  0  0  0  0  0  0  0  0  0  0  0
   -5.7578   16.9691  -32.8525 H   0  0  0  0  0  0  0  0  0  0  0  0
   -8.0282   17.4930  -31.9838 H   0  0  0  0  0  0  0  0  0  0  0  0
   -9.7331   19.0926  -31.3875 H   0  0  0  0  0  0  0  0  0  0  0  0
  -10.5148   21.4438  -31.1793 H   0  0  0  0  0  0  0  0  0  0  0  0
   -9.0177   23.3249  -31.8004 H   0  0  0  0  0  0  0  0  0  0  0  0
   -5.5320   22.8640  -32.8730 H   0  0  0  0  0  0  0  0  0  0  0  0
   -6.8340   23.6160  -33.6100 H   0  0  0  0  0  0  0  0  0  0  0  0
   -6.3656   25.1762  -32.0409 H   0  0  0  0  0  0  0  0  0  0  0  0
   -7.4790   24.1202  -31.0927 H   0  0  0  0  0  0  0  0  0  0  0  0
   -6.0398   21.9184  -29.8741 H   0  0  0  0  0  0  0  0  0  0  0  0
   -3.8664   21.8716  -28.4343 H   0  0  0  0  0  0  0  0  0  0  0  0
   -2.3558   24.0056  -28.7779 H   0  0  0  0  0  0  0  0  0  0  0  0
   -4.9432   21.1903  -33.3196 H   0  0  0  0  0  0  0  0  0  0  0  0
  1  2  1  0
  2  3  1  0
  3  4  1  0
  3  5  1  0
  5  6  1  0
  6  7  1  0
  7  8  1  0
  8  9  1  0
  9 10  1  0
 10 11  1  0
 11 12  2  0
 12 13  1  0
 13 14  2  0
 14 15  1  0
 15 16  2  0
 16 17  1  0
 17 18  2  0
 18 19  1  0
 19 20  1  0
 20 21  1  0
 21 22  2  0
 22 23  1  0
 23 24  2  0
 24 25  1  0
 18 26  1  0
 26 27  2  0
 27 11  1  0
 26 14  1  0
 25 21  1  0
  1 28  1  0
  1 29  1  0
  1 30  1  0
  2 31  1  0
  2 32  1  0
  4 33  1  0
  4 34  1  0
  4 35  1  0
  5 36  1  0
  5 37  1  0
  6 38  1  0
  6 39  1  0
  8 40  1  0
  8 41  1  0
  9 42  1  0
  9 43  1  0
 12 44  1  0
 13 45  1  0
 15 46  1  0
 16 47  1  0
 17 48  1  0
 19 49  1  0
 19 50  1  0
 20 51  1  0
 20 52  1  0
 22 53  1  0
 23 54  1  0
 24 55  1  0
 27 56  1  0
M  CHG  1  19   1
M  END
>  <UniqueID>  (10) 
10

>  <SMILES>  (10) 
CCN(C)CCOCCOc1ccc2cccc([NH2+]Cc3cccs3)c2c1

>  <Energy>  (10) 
88.4455256369413

>  <Genealogy>  (10) 
CCN(C)CCOCCOc1ccc2cccc([NH2+]Cc3cccs3)c2c1 (protonated)
CCN(C)CCOCCOc1ccc2cccc([NH2+]Cc3cccs3)c2c1 (3D coordinates assigned)
CCN(C)CCOCCOc1ccc2cccc([NH2+]Cc3cccs3)c2c1 (optimized conformer: 88.4455256369413 kcal/mol)

>  <smiles>  (10) 
CCN(C)CCOCCOc1ccc2cccc(NCc3cccs3)c2c1

>  <score_type>  (10) 
oracle

>  <origin>  (10) 
adg

>  <m_score__min__energy>  (10) 
-8.1099999999999994

>  <m_primary>  (10) 
energy

$$$$
10:0
     RDKit          3D

 47 49  0  0  0  0  0  0  0  0999 V2000
   -6.1550   25.7590  -29.3740 C   0  0  0  0  0  0  0  0  0  0  0  0
   -5.4010   25.0000  -30.4220 C   0  0  0  0  0  0  0  0  0  0  0  0
   -4.2600   25.4090  -30.7710 O   0  0  0  0  0  0  0  0  0  0  0  0
   -5.9620   23.8310  -31.0410 N   0  0  0  0  0  0  0  0  0  0  0  0
   -6.3980   23.8020  -32.4240 C   0  0  0  0  0  0  0  0  0  0  0  0
   -6.7290   22.3440  -32.7140 C   0  0  0  0  0  0  0  0  0  0  0  0
   -6.9620   21.6770  -31.3360 C   0  0  1  0  0  0  0  0  0  0  0  0
   -8.4580   21.7420  -30.9280 C   0  0  0  0  0  0  0  0  0  0  0  0
   -9.3200   20.7420  -31.7000 C   0  0  0  0  0  0  0  0  0  0  0  0
   -8.7470   19.3250  -31.5850 C   0  0  0  0  0  0  0  0  0  0  0  0
   -7.3330   19.2440  -32.0050 N   0  0  0  0  0  0  0  0  0  0  0  0
   -7.1430   19.2410  -33.4710 C   0  0  0  0  0  0  0  0  0  0  0  0
   -6.1480   18.1780  -33.8560 C   0  0  0  0  0  0  0  0  0  0  0  0
   -4.8480   18.5370  -34.2330 C   0  0  0  0  0  0  0  0  0  0  0  0
   -3.9320   17.5430  -34.5780 C   0  0  0  0  0  0  0  0  0  0  0  0
   -4.2940   16.2330  -34.5410 N   0  0  0  0  0  0  0  0  0  0  0  0
   -5.5450   15.8480  -34.1550 C   0  0  0  0  0  0  0  0  0  0  0  0
   -5.9220   14.3970  -34.1520 C   0  0  0  0  0  0  0  0  0  0  0  0
   -6.4980   16.8210  -33.8190 C   0  0  0  0  0  0  0  0  0  0  0  0
   -6.4670   20.2020  -31.2830 C   0  0  0  0  0  0  0  0  0  0  0  0
   -6.1260   22.5510  -30.3730 C   0  0  0  0  0  0  0  0  0  0  0  0
   -5.8281   25.4300  -28.3766 H   0  0  0  0  0  0  0  0  0  0  0  0
   -5.9582   26.8352  -29.4878 H   0  0  0  0  0  0  0  0  0  0  0  0
   -7.2325   25.5693  -29.4878 H   0  0  0  0  0  0  0  0  0  0  0  0
   -7.2886   24.4331  -32.5599 H   0  0  0  0  0  0  0  0  0  0  0  0
   -5.6251   24.1889  -33.1045 H   0  0  0  0  0  0  0  0  0  0  0  0
   -7.6369   22.2736  -33.3311 H   0  0  0  0  0  0  0  0  0  0  0  0
   -5.9182   21.8495  -33.2691 H   0  0  0  0  0  0  0  0  0  0  0  0
   -8.5403   21.5226  -29.8532 H   0  0  0  0  0  0  0  0  0  0  0  0
   -8.8251   22.7517  -31.1642 H   0  0  0  0  0  0  0  0  0  0  0  0
  -10.3402   20.7527  -31.2888 H   0  0  0  0  0  0  0  0  0  0  0  0
   -9.3311   21.0322  -32.7610 H   0  0  0  0  0  0  0  0  0  0  0  0
   -8.8216   18.9996  -30.5369 H   0  0  0  0  0  0  0  0  0  0  0  0
   -9.3296   18.6765  -32.2558 H   0  0  0  0  0  0  0  0  0  0  0  0
   -8.1051   19.0357  -33.9632 H   0  0  0  0  0  0  0  0  0  0  0  0
   -6.7650   20.2237  -33.7895 H   0  0  0  0  0  0  0  0  0  0  0  0
   -4.5510   19.5959  -34.2570 H   0  0  0  0  0  0  0  0  0  0  0  0
   -2.9118   17.8205  -34.8815 H   0  0  0  0  0  0  0  0  0  0  0  0
   -3.5880   15.5110  -34.8130 H   0  0  0  0  0  0  0  0  0  0  0  0
   -6.0137   14.0441  -33.1142 H   0  0  0  0  0  0  0  0  0  0  0  0
   -6.8838   14.2670  -34.6698 H   0  0  0  0  0  0  0  0  0  0  0  0
   -5.1452   13.8153  -34.6698 H   0  0  0  0  0  0  0  0  0  0  0  0
   -7.5153   16.5206  -33.5278 H   0  0  0  0  0  0  0  0  0  0  0  0
   -6.4157   19.8933  -30.2285 H   0  0  0  0  0  0  0  0  0  0  0  0
   -5.4872   20.1799  -31.7824 H   0  0  0  0  0  0  0  0  0  0  0  0
   -6.6555   22.6825  -29.4178 H   0  0  0  0  0  0  0  0  0  0  0  0
   -5.1554   22.0866  -30.1443 H   0  0  0  0  0  0  0  0  0  0  0  0
  1  2  1  0
  2  3  2  0
  2  4  1  0
  4  5  1  0
  5  6  1  0
  7  6  1  6
  7  8  1  0
  8  9  1  0
  9 10  1  0
 10 11  1  0
 11 12  1  0
 12 13  1  0
 13 14  2  0
 14 15  1  0
 15 16  2  0
 16 17  1  0
 17 18  1  0
 17 19  2  0
 11 20  1  0
  7 21  1  0
 21  4  1  0
 20  7  1  0
 19 13  1  0
  1 22  1  0
  1 23  1  0
  1 24  1  0
  5 25  1  0
  5 26  1  0
  6 27  1  0
  6 28  1  0
  8 29  1  0
  8 30  1  0
  9 31  1  0
  9 32  1  0
 10 33  1  0
 10 34  1  0
 12 35  1  0
 12 36  1  0
 14 37  1  0
 15 38  1  0
 16 39  1  0
 18 40  1  0
 18 41  1  0
 18 42  1  0
 19 43  1  0
 20 44  1  0
 20 45  1  0
 21 46  1  0
 21 47  1  0
M  CHG  1  16   1
M  END
>  <UniqueID>  (11) 
11

>  <SMILES>  (11) 
CC(=O)N1CC[C@]2(CCCN(Cc3cc[nH+]c(C)c3)C2)C1

>  <Energy>  (11) 
49.96247384220877

>  <Genealogy>  (11) 
CC(=O)N1CCC2(CCCN(Cc3cc[nH+]c(C)c3)C2)C1 (protonated)
CC(=O)N1CC[C@]2(CCCN(Cc3cc[nH+]c(C)c3)C2)C1 (chirality)
CC(=O)N1CC[C@]2(CCCN(Cc3cc[nH+]c(C)c3)C2)C1 (3D coordinates assigned)
CC(=O)N1CC[C@]2(CCCN(Cc3cc[nH+]c(C)c3)C2)C1 (nonaromatic ring conformer: 49.96247384220877 kcal/mol)

>  <smiles>  (11) 
CC(=O)N1CCC2(CCCN(Cc3ccnc(C)c3)C2)C1

>  <score_type>  (11) 
oracle

>  <origin>  (11) 
adg

>  <m_score__min__energy>  (11) 
-8.0999999999999996

>  <m_primary>  (11) 
energy

$$$$
11:0
     RDKit          3D

 63 65  0  0  0  0  0  0  0  0999 V2000
   -3.8500   24.5690  -27.1490 C   0  0  0  0  0  0  0  0  0  0  0  0
   -2.3530   24.6230  -26.8500 C   0  0  0  0  0  0  0  0  0  0  0  0
   -1.5770   25.3670  -27.9410 C   0  0  0  0  0  0  0  0  0  0  0  0
   -1.1140   24.4320  -28.9750 N   0  0  0  0  0  0  0  0  0  0  0  0
    0.1710   23.8150  -28.6100 C   0  0  0  0  0  0  0  0  0  0  0  0
   -0.0120   22.5990  -27.6790 C   0  0  0  0  0  0  0  0  0  0  0  0
   -0.2280   21.2650  -28.4150 C   0  0  0  0  0  0  0  0  0  0  0  0
   -1.4180   20.4660  -27.8560 C   0  0  0  0  0  0  0  0  0  0  0  0
   -2.6680   20.5550  -28.7540 C   0  0  0  0  0  0  0  0  0  0  0  0
   -3.2210   21.9890  -28.9170 C   0  0  0  0  0  0  0  0  0  0  0  0
   -2.6530   22.6820  -30.0950 N   0  0  0  0  0  0  0  0  0  0  0  0
   -3.1960   22.1350  -31.3340 C   0  0  0  0  0  0  0  0  0  0  0  0
   -2.4050   21.2860  -32.1430 C   0  0  0  0  0  0  0  0  0  0  0  0
   -0.9930   21.3440  -32.1100 C   0  0  0  0  0  0  0  0  0  0  0  0
   -0.2250   20.5110  -32.9210 C   0  0  0  0  0  0  0  0  0  0  0  0
   -0.8430   19.6190  -33.7870 C   0  0  0  0  0  0  0  0  0  0  0  0
   -2.2340   19.5420  -33.8370 C   0  0  0  0  0  0  0  0  0  0  0  0
   -3.0420   20.3550  -33.0030 C   0  0  0  0  0  0  0  0  0  0  0  0
   -4.4170   20.2520  -33.0050 N   0  0  0  0  0  0  0  0  0  0  0  0
   -5.0670   19.0630  -33.6000 C   0  0  0  0  0  0  0  0  0  0  0  0
   -5.1810   21.2730  -32.4750 C   0  0  0  0  0  0  0  0  0  0  0  0
   -6.5700   21.3580  -32.7280 C   0  0  0  0  0  0  0  0  0  0  0  0
   -7.3340   22.3970  -32.2120 C   0  0  0  0  0  0  0  0  0  0  0  0
   -6.7260   23.4280  -31.5130 C   0  0  0  0  0  0  0  0  0  0  0  0
   -5.3380   23.4260  -31.2960 C   0  0  0  0  0  0  0  0  0  0  0  0
   -4.7010   24.5760  -30.8000 O   0  0  0  0  0  0  0  0  0  0  0  0
   -5.3610   25.6830  -30.1950 C   0  0  0  0  0  0  0  0  0  0  0  0
   -4.5700   22.2850  -31.6750 C   0  0  0  0  0  0  0  0  0  0  0  0
   -4.4122   24.5487  -26.2037 H   0  0  0  0  0  0  0  0  0  0  0  0
   -4.1403   25.4573  -27.7293 H   0  0  0  0  0  0  0  0  0  0  0  0
   -4.0755   23.6621  -27.7293 H   0  0  0  0  0  0  0  0  0  0  0  0
   -2.2007   25.1395  -25.8908 H   0  0  0  0  0  0  0  0  0  0  0  0
   -1.9769   23.5901  -26.8095 H   0  0  0  0  0  0  0  0  0  0  0  0
   -2.2333   26.1198  -28.4020 H   0  0  0  0  0  0  0  0  0  0  0  0
   -0.7020   25.8532  -27.4850 H   0  0  0  0  0  0  0  0  0  0  0  0
   -0.9640   24.9790  -29.8550 H   0  0  0  0  0  0  0  0  0  0  0  0
    0.6794   23.4853  -29.5280 H   0  0  0  0  0  0  0  0  0  0  0  0
    0.7665   24.5669  -28.0715 H   0  0  0  0  0  0  0  0  0  0  0  0
    0.8879   22.5055  -27.0534 H   0  0  0  0  0  0  0  0  0  0  0  0
   -0.9232   22.7860  -27.0919 H   0  0  0  0  0  0  0  0  0  0  0  0
   -0.4137   21.4756  -29.4786 H   0  0  0  0  0  0  0  0  0  0  0  0
    0.6774   20.6564  -28.2736 H   0  0  0  0  0  0  0  0  0  0  0  0
   -1.1226   19.4101  -27.7675 H   0  0  0  0  0  0  0  0  0  0  0  0
   -1.6791   20.8983  -26.8788 H   0  0  0  0  0  0  0  0  0  0  0  0
   -2.4068   20.1691  -29.7504 H   0  0  0  0  0  0  0  0  0  0  0  0
   -3.4554   19.9627  -28.2649 H   0  0  0  0  0  0  0  0  0  0  0  0
   -4.3137   21.9354  -29.0315 H   0  0  0  0  0  0  0  0  0  0  0  0
   -2.9373   22.5618  -28.0218 H   0  0  0  0  0  0  0  0  0  0  0  0
   -2.8840   23.6840  -29.9910 H   0  0  0  0  0  0  0  0  0  0  0  0
   -1.6100   22.6170  -30.0920 H   0  0  0  0  0  0  0  0  0  0  0  0
   -0.4943   22.0557  -31.4356 H   0  0  0  0  0  0  0  0  0  0  0  0
    0.8729   20.5602  -32.8750 H   0  0  0  0  0  0  0  0  0  0  0  0
   -0.2338   18.9717  -34.4350 H   0  0  0  0  0  0  0  0  0  0  0  0
   -2.7123   18.8390  -34.5349 H   0  0  0  0  0  0  0  0  0  0  0  0
   -5.4280   18.4026  -32.7978 H   0  0  0  0  0  0  0  0  0  0  0  0
   -5.9161   19.3822  -34.2222 H   0  0  0  0  0  0  0  0  0  0  0  0
   -4.3400   18.5205  -34.2222 H   0  0  0  0  0  0  0  0  0  0  0  0
   -7.0543   20.5868  -33.3450 H   0  0  0  0  0  0  0  0  0  0  0  0
   -8.4242   22.4016  -32.3585 H   0  0  0  0  0  0  0  0  0  0  0  0
   -7.3366   24.2563  -31.1242 H   0  0  0  0  0  0  0  0  0  0  0  0
   -5.3053   25.5896  -29.1004 H   0  0  0  0  0  0  0  0  0  0  0  0
   -4.8724   26.6173  -30.5086 H   0  0  0  0  0  0  0  0  0  0  0  0
   -6.4153   25.6974  -30.5086 H   0  0  0  0  0  0  0  0  0  0  0  0
  1  2  1  0
  2  3  1  0
  3  4  1  0
  4  5  1  0
  5  6  1  0
  6  7  1  0
  7  8  1  0
  8  9  1  0
  9 10  1  0
 10 11  1  0
 11 12  1  0
 12 13  2  0
 13 14  1  0
 14 15  2  0
 15 16  1  0
 16 17  2  0
 17 18  1  0
 18 19  2  0
 19 20  1  0
 19 21  1  0
 21 22  2  0
 22 23  1  0
 23 24  2  0
 24 25  1  0
 25 26  1  0
 26 27  1  0
 25 28  2  0
 28 12  1  0
 18 13  1  0
 28 21  1  0
  1 29  1  0
  1 30  1  0
  1 31  1  0
  2 32  1  0
  2 33  1  0
  3 34  1  0
  3 35  1  0
  4 36  1  0
  5 37  1  0
  5 38  1  0
  6 39  1  0
  6 40  1  0
  7 41  1  0
  7 42  1  0
  8 43  1  0
  8 44  1  0
  9 45  1  0
  9 46  1  0
 10 47  1  0
 10 48  1  0
 11 49  1  0
 11 50  1  0
 14 51  1  0
 15 52  1  0
 16 53  1  0
 17 54  1  0
 20 55  1  0
 20 56  1  0
 20 57  1  0
 22 58  1  0
 23 59  1  0
 24 60  1  0
 27 61  1  0
 27 62  1  0
 27 63  1  0
M  CHG  2  11   1  19   1
M  END
>  <UniqueID>  (12) 
12

>  <SMILES>  (12) 
CCCNCCCCCC[NH2+]c1c2ccccc2[n+](C)c2cccc(OC)c12

>  <Energy>  (12) 
85.46541749110784

>  <Genealogy>  (12) 
CCCNCCCCCC[NH2+]c1c2ccccc2[n+](C)c2cccc(OC)c12 (protonated)
CCCNCCCCCC[NH2+]c1c2ccccc2[n+](C)c2cccc(OC)c12 (3D coordinates assigned)
CCCNCCCCCC[NH2+]c1c2ccccc2[n+](C)c2cccc(OC)c12 (optimized conformer: 85.46541749110784 kcal/mol)

>  <smiles>  (12) 
CCCNCCCCCCNc1c2ccccc2[n+](C)c2cccc(OC)c12

>  <score_type>  (12) 
oracle

>  <origin>  (12) 
adg

>  <m_score__min__energy>  (12) 
-8.0500000000000007

>  <m_primary>  (12) 
energy

$$$$
12:0
     RDKit          3D

 53 53  0  0  0  0  0  0  0  0999 V2000
   -7.9878   25.0082  -31.0455 H   0  0  0  0  0  0  0  0  0  0  0  0
   -7.1240   24.3960  -30.7470 C   0  0  0  0  0  0  0  0  0  0  0  0
   -6.2210   24.9410  -29.9220 C   0  0  0  0  0  0  0  0  0  0  0  0
   -6.3448   24.8295  -28.8347 H   0  0  0  0  0  0  0  0  0  0  0  0
   -5.0420   25.7020  -30.4570 C   0  0  0  0  0  0  0  0  0  0  0  0
   -4.7674   26.4916  -29.7421 H   0  0  0  0  0  0  0  0  0  0  0  0
   -5.3164   26.1434  -31.4265 H   0  0  0  0  0  0  0  0  0  0  0  0
   -3.9360   24.8420  -30.6460 O   0  0  0  0  0  0  0  0  0  0  0  0
   -3.8900   23.8620  -29.6290 C   0  0  0  0  0  0  0  0  0  0  0  0
   -3.9348   22.8614  -30.0837 H   0  0  0  0  0  0  0  0  0  0  0  0
   -4.7462   24.0000  -28.9523 H   0  0  0  0  0  0  0  0  0  0  0  0
   -2.5830   24.0020  -28.8300 C   0  0  0  0  0  0  0  0  0  0  0  0
   -1.8929   23.2073  -29.1496 H   0  0  0  0  0  0  0  0  0  0  0  0
   -2.8455   23.9236  -27.7647 H   0  0  0  0  0  0  0  0  0  0  0  0
   -1.9150   25.3030  -29.0170 N   0  0  0  0  0  0  0  0  0  0  0  0
   -1.2230   25.2170  -29.7990 H   0  0  0  0  0  0  0  0  0  0  0  0
   -1.2120   25.8070  -27.8270 C   0  0  0  0  0  0  0  0  0  0  0  0
   -1.0544   26.8899  -27.9389 H   0  0  0  0  0  0  0  0  0  0  0  0
   -0.2535   25.2735  -27.7455 H   0  0  0  0  0  0  0  0  0  0  0  0
   -2.0060   25.5530  -26.5470 C   0  0  0  0  0  0  0  0  0  0  0  0
   -1.3689   25.7568  -25.6738 H   0  0  0  0  0  0  0  0  0  0  0  0
   -2.8841   26.2151  -26.5227 H   0  0  0  0  0  0  0  0  0  0  0  0
   -2.3368   24.5042  -26.5227 H   0  0  0  0  0  0  0  0  0  0  0  0
   -7.0290   23.0170  -31.2820 C   0  0  0  0  0  0  0  0  0  0  0  0
   -8.0750   22.1180  -31.0110 C   0  0  0  0  0  0  0  0  0  0  0  0
   -8.9390   22.4508  -30.4170 H   0  0  0  0  0  0  0  0  0  0  0  0
   -8.0280   20.8050  -31.4890 C   0  0  0  0  0  0  0  0  0  0  0  0
   -8.8564   20.1133  -31.2760 H   0  0  0  0  0  0  0  0  0  0  0  0
   -6.9290   20.3690  -32.2380 C   0  0  0  0  0  0  0  0  0  0  0  0
   -6.8800   19.0170  -32.7260 C   0  0  0  0  0  0  0  0  0  0  0  0
   -6.8380   17.8830  -33.1320 C   0  0  0  0  0  0  0  0  0  0  0  0
   -6.7790   16.5070  -33.6290 C   0  0  0  0  0  0  0  0  0  0  0  0
   -6.9573   15.8089  -32.7978 H   0  0  0  0  0  0  0  0  0  0  0  0
   -7.5494   16.3625  -34.4008 H   0  0  0  0  0  0  0  0  0  0  0  0
   -5.4390   16.2490  -34.2130 N   0  0  0  0  0  0  0  0  0  0  0  0
   -4.4460   15.8860  -33.1750 C   0  0  0  0  0  0  0  0  0  0  0  0
   -3.4494   15.8344  -33.6378 H   0  0  0  0  0  0  0  0  0  0  0  0
   -4.4764   16.6542  -32.3883 H   0  0  0  0  0  0  0  0  0  0  0  0
   -4.7650   14.5350  -32.5340 C   0  0  0  0  0  0  0  0  0  0  0  0
   -4.7416   14.6342  -31.4387 H   0  0  0  0  0  0  0  0  0  0  0  0
   -5.7656   14.2058  -32.8511 H   0  0  0  0  0  0  0  0  0  0  0  0
   -4.0173   13.7931  -32.8511 H   0  0  0  0  0  0  0  0  0  0  0  0
   -4.9630   17.4120  -34.9970 C   0  0  0  0  0  0  0  0  0  0  0  0
   -4.6875   17.0783  -36.0083 H   0  0  0  0  0  0  0  0  0  0  0  0
   -5.7690   18.1587  -35.0501 H   0  0  0  0  0  0  0  0  0  0  0  0
   -3.7450   18.0470  -34.3280 C   0  0  0  0  0  0  0  0  0  0  0  0
   -3.8554   17.9895  -33.2351 H   0  0  0  0  0  0  0  0  0  0  0  0
   -2.8361   17.5080  -34.6336 H   0  0  0  0  0  0  0  0  0  0  0  0
   -3.6666   19.1008  -34.6336 H   0  0  0  0  0  0  0  0  0  0  0  0
   -5.8750   21.2500  -32.5010 C   0  0  0  0  0  0  0  0  0  0  0  0
   -5.0075   20.9079  -33.0844 H   0  0  0  0  0  0  0  0  0  0  0  0
   -5.9200   22.5640  -32.0250 C   0  0  0  0  0  0  0  0  0  0  0  0
   -5.0844   23.2488  -32.2317 H   0  0  0  0  0  0  0  0  0  0  0  0
  1  2  1  0
  2  3  2  0
  3  4  1  0
  3  5  1  0
  5  6  1  0
  5  7  1  0
  5  8  1  0
  8  9  1  0
  9 10  1  0
  9 11  1  0
  9 12  1  0
 12 13  1  0
 12 14  1  0
 12 15  1  0
 15 16  1  0
 15 17  1  0
 17 18  1  0
 17 19  1  0
 17 20  1  0
 20 21  1  0
 20 22  1  0
 20 23  1  0
  2 24  1  0
 24 25  2  0
 25 26  1  0
 25 27  1  0
 27 28  1  0
 27 29  2  0
 29 30  1  0
 30 31  3  0
 31 32  1  0
 32 33  1  0
 32 34  1  0
 32 35  1  0
 35 36  1  0
 36 37  1  0
 36 38  1  0
 36 39  1  0
 39 40  1  0
 39 41  1  0
 39 42  1  0
 35 43  1  0
 43 44  1  0
 43 45  1  0
 43 46  1  0
 46 47  1  0
 46 48  1  0
 46 49  1  0
 29 50  1  0
 50 51  1  0
 50 52  2  0
 52 53  1  0
 52 24  1  0
M  END
>  <UniqueID>  (13) 
13

>  <SMILES>  (13) 
CCNCCOC/C=C/c1ccc(C#CCN(CC)CC)cc1

>  <Energy>  (13) 
45.96226006254156

>  <Genealogy>  (13) 
CCNCCOC/C=C/c1ccc(C#CCN(CC)CC)cc1 (cis-trans isomerization)
CCNCCOC/C=C/c1ccc(C#CCN(CC)CC)cc1 (3D coordinates assigned)
CCNCCOC/C=C/c1ccc(C#CCN(CC)CC)cc1 (optimized conformer: 45.96226006254156 kcal/mol)

>  <smiles>  (13) 
CCNCCOCC=Cc1ccc(C#CCN(CC)CC)cc1

>  <score_type>  (13) 
oracle

>  <origin>  (13) 
adg

>  <m_score__min__energy>  (13) 
-7.54

>  <m_primary>  (13) 
energy

$$$$
13:0
     RDKit          3D

 45 47  0  0  0  0  0  0  0  0999 V2000
   -6.0460   18.5600  -34.5660 C   0  0  0  0  0  0  0  0  0  0  0  0
   -5.6230   19.5190  -33.5210 N   0  0  0  0  0  0  0  0  0  0  0  0
   -6.5720   20.1570  -32.7430 C   0  0  0  0  0  0  0  0  0  0  0  0
   -7.9190   19.7160  -32.6970 C   0  0  0  0  0  0  0  0  0  0  0  0
   -8.8710   20.3850  -31.9300 C   0  0  0  0  0  0  0  0  0  0  0  0
   -8.5070   21.4930  -31.1730 C   0  0  0  0  0  0  0  0  0  0  0  0
   -7.1840   21.9290  -31.1690 C   0  0  0  0  0  0  0  0  0  0  0  0
   -6.2040   21.2720  -31.9430 C   0  0  0  0  0  0  0  0  0  0  0  0
   -4.8610   21.6860  -31.9060 C   0  0  0  0  0  0  0  0  0  0  0  0
   -4.4870   22.8670  -31.1730 N   0  0  0  0  0  0  0  0  0  0  0  0
   -3.7870   22.7700  -29.8920 C   0  0  0  0  0  0  0  0  0  0  0  0
   -4.7540   22.9720  -28.7180 C   0  0  0  0  0  0  0  0  0  0  0  0
   -5.0600   24.3990  -28.5090 N   0  0  0  0  0  0  0  0  0  0  0  0
   -6.1190   24.8820  -29.4190 C   0  0  0  0  0  0  0  0  0  0  0  0
   -5.5710   25.7520  -30.5660 C   0  0  0  0  0  0  0  0  0  0  0  0
   -4.1780   25.6460  -30.6700 O   0  0  0  0  0  0  0  0  0  0  0  0
   -3.8800   20.9050  -32.5470 C   0  0  0  0  0  0  0  0  0  0  0  0
   -2.5090   21.2150  -32.4240 C   0  0  0  0  0  0  0  0  0  0  0  0
   -1.5400   20.4160  -33.0270 C   0  0  0  0  0  0  0  0  0  0  0  0
    0.1610   20.8080  -32.8470 Cl  0  0  0  0  0  0  0  0  0  0  0  0
   -1.9190   19.2910  -33.7520 C   0  0  0  0  0  0  0  0  0  0  0  0
   -3.2690   18.9750  -33.9010 C   0  0  0  0  0  0  0  0  0  0  0  0
   -4.2810   19.7910  -33.3340 C   0  0  0  0  0  0  0  0  0  0  0  0
   -6.4463   17.6525  -34.0904 H   0  0  0  0  0  0  0  0  0  0  0  0
   -6.8248   19.0199  -35.1921 H   0  0  0  0  0  0  0  0  0  0  0  0
   -5.1813   18.2949  -35.1921 H   0  0  0  0  0  0  0  0  0  0  0  0
   -8.2177   18.8303  -33.2769 H   0  0  0  0  0  0  0  0  0  0  0  0
   -9.9139   20.0353  -31.9235 H   0  0  0  0  0  0  0  0  0  0  0  0
   -9.2635   22.0251  -30.5775 H   0  0  0  0  0  0  0  0  0  0  0  0
   -6.8997   22.7962  -30.5549 H   0  0  0  0  0  0  0  0  0  0  0  0
   -4.8970   23.7870  -31.4520 H   0  0  0  0  0  0  0  0  0  0  0  0
   -3.3246   21.7753  -29.8096 H   0  0  0  0  0  0  0  0  0  0  0  0
   -3.0198   23.5573  -29.8524 H   0  0  0  0  0  0  0  0  0  0  0  0
   -5.6895   22.4330  -28.9287 H   0  0  0  0  0  0  0  0  0  0  0  0
   -4.2755   22.5847  -27.8064 H   0  0  0  0  0  0  0  0  0  0  0  0
   -4.1980   24.9800  -28.6160 H   0  0  0  0  0  0  0  0  0  0  0  0
   -5.4030   24.5190  -27.5270 H   0  0  0  0  0  0  0  0  0  0  0  0
   -6.6330   24.0117  -29.8530 H   0  0  0  0  0  0  0  0  0  0  0  0
   -6.8034   25.5077  -28.8273 H   0  0  0  0  0  0  0  0  0  0  0  0
   -6.0261   25.4241  -31.5122 H   0  0  0  0  0  0  0  0  0  0  0  0
   -5.8225   26.8016  -30.3537 H   0  0  0  0  0  0  0  0  0  0  0  0
   -3.9630   25.6740  -31.6390 H   0  0  0  0  0  0  0  0  0  0  0  0
   -2.2015   22.0983  -31.8450 H   0  0  0  0  0  0  0  0  0  0  0  0
   -1.1517   18.6489  -34.2090 H   0  0  0  0  0  0  0  0  0  0  0  0
   -3.5541   18.0768  -34.4684 H   0  0  0  0  0  0  0  0  0  0  0  0
  1  2  1  0
  2  3  2  0
  3  4  1  0
  4  5  2  0
  5  6  1  0
  6  7  2  0
  7  8  1  0
  8  9  2  0
  9 10  1  0
 10 11  1  0
 11 12  1  0
 12 13  1  0
 13 14  1  0
 14 15  1  0
 15 16  1  0
  9 17  1  0
 17 18  2  0
 18 19  1  0
 19 20  1  0
 19 21  2  0
 21 22  1  0
 22 23  2  0
 23  2  1  0
  8  3  1  0
 23 17  1  0
  1 24  1  0
  1 25  1  0
  1 26  1  0
  4 27  1  0
  5 28  1  0
  6 29  1  0
  7 30  1  0
 10 31  1  0
 11 32  1  0
 11 33  1  0
 12 34  1  0
 12 35  1  0
 13 36  1  0
 13 37  1  0
 14 38  1  0
 14 39  1  0
 15 40  1  0
 15 41  1  0
 16 42  1  0
 18 43  1  0
 21 44  1  0
 22 45  1  0
M  CHG  2   2   1  13   1
M  END
>  <UniqueID>  (14) 
14

>  <SMILES>  (14) 
C[n+]1c2ccccc2c(NCC[NH2+]CCO)c2cc(Cl)ccc21

>  <Energy>  (14) 
69.03367653584044

>  <Genealogy>  (14) 
C[n+]1c2ccccc2c(NCC[NH2+]CCO)c2cc(Cl)ccc21 (protonated)
C[n+]1c2ccccc2c(NCC[NH2+]CCO)c2cc(Cl)ccc21 (3D coordinates assigned)
C[n+]1c2ccccc2c(NCC[NH2+]CCO)c2cc(Cl)ccc21 (optimized conformer: 69.03367653584044 kcal/mol)

>  <smiles>  (14) 
C[n+]1c2ccccc2c(NCCNCCO)c2cc(Cl)ccc21

>  <score_type>  (14) 
oracle

>  <origin>  (14) 
adg

>  <m_score__min__energy>  (14) 
-7.9900000000000002

>  <m_primary>  (14) 
energy

$$$$
14:0
     RDKit          3D

 69 71  0  0  0  0  0  0  0  0999 V2000
   -0.9080   27.9350  -34.9290 C   0  0  0  0  0  0  0  0  0  0  0  0
   -1.2960   27.9120  -36.4050 C   0  0  0  0  0  0  0  0  0  0  0  0
   -0.7330   26.7250  -37.0830 N   0  0  0  0  0  0  0  0  0  0  0  0
   -0.7320   26.8310  -38.5630 C   0  0  0  0  0  0  0  0  0  0  0  0
   -1.9930   27.5540  -39.0230 C   0  0  0  0  0  0  0  0  0  0  0  0
    0.5820   26.3230  -36.5340 C   0  0  0  0  0  0  0  0  0  0  0  0
    0.6800   24.8180  -36.2010 C   0  0  0  0  0  0  0  0  0  0  0  0
    1.7920   24.2300  -36.8490 O   0  0  0  0  0  0  0  0  0  0  0  0
    2.3690   23.2250  -36.0380 C   0  0  0  0  0  0  0  0  0  0  0  0
    1.3640   22.0980  -35.8320 C   0  0  0  0  0  0  0  0  0  0  0  0
    0.7250   22.2630  -34.5770 O   0  0  0  0  0  0  0  0  0  0  0  0
   -0.5860   21.8550  -34.6510 N   0  0  0  0  0  0  0  0  0  0  0  0
   -1.0390   21.3040  -33.3680 C   0  0  0  0  0  0  0  0  0  0  0  0
   -2.5340   20.9630  -33.4030 C   0  0  0  0  0  0  0  0  0  0  0  0
   -3.0580   20.7860  -32.0470 N   0  0  0  0  0  0  0  0  0  0  0  0
   -4.4280   21.0740  -31.7140 C   0  0  0  0  0  0  0  0  0  0  0  0
   -5.4570   20.2080  -32.1240 C   0  0  0  0  0  0  0  0  0  0  0  0
   -5.1590   18.9900  -32.7730 C   0  0  0  0  0  0  0  0  0  0  0  0
   -6.1790   18.1690  -33.2470 C   0  0  0  0  0  0  0  0  0  0  0  0
   -7.5070   18.5460  -33.0830 C   0  0  0  0  0  0  0  0  0  0  0  0
   -7.8250   19.7260  -32.4110 C   0  0  0  0  0  0  0  0  0  0  0  0
   -6.8110   20.5610  -31.8750 C   0  0  0  0  0  0  0  0  0  0  0  0
   -7.1100   21.6970  -31.1420 N   0  0  0  0  0  0  0  0  0  0  0  0
   -8.4910   21.9230  -30.6580 C   0  0  0  0  0  0  0  0  0  0  0  0
   -6.1120   22.6040  -30.8300 C   0  0  0  0  0  0  0  0  0  0  0  0
   -6.4060   23.8880  -30.3000 C   0  0  0  0  0  0  0  0  0  0  0  0
   -5.3900   24.7720  -29.9400 C   0  0  0  0  0  0  0  0  0  0  0  0
   -4.0470   24.4070  -30.0910 C   0  0  0  0  0  0  0  0  0  0  0  0
   -2.9900   25.2520  -29.7200 O   0  0  0  0  0  0  0  0  0  0  0  0
   -2.0390   24.9520  -28.7020 C   0  0  0  0  0  0  0  0  0  0  0  0
   -3.7370   23.1630  -30.6410 C   0  0  0  0  0  0  0  0  0  0  0  0
   -4.7510   22.2730  -31.0540 C   0  0  0  0  0  0  0  0  0  0  0  0
   -1.8159   27.8812  -34.3103 H   0  0  0  0  0  0  0  0  0  0  0  0
   -0.2611   27.0736  -34.7065 H   0  0  0  0  0  0  0  0  0  0  0  0
   -0.3674   28.8668  -34.7065 H   0  0  0  0  0  0  0  0  0  0  0  0
   -2.3926   27.8873  -36.4882 H   0  0  0  0  0  0  0  0  0  0  0  0
   -0.8928   28.8148  -36.8872 H   0  0  0  0  0  0  0  0  0  0  0  0
    0.1538   27.3957  -38.8893 H   0  0  0  0  0  0  0  0  0  0  0  0
   -0.7073   25.8228  -39.0022 H   0  0  0  0  0  0  0  0  0  0  0  0
   -2.5677   27.8835  -38.1449 H   0  0  0  0  0  0  0  0  0  0  0  0
   -1.7138   28.4292  -39.6280 H   0  0  0  0  0  0  0  0  0  0  0  0
   -2.6073   26.8709  -39.6280 H   0  0  0  0  0  0  0  0  0  0  0  0
    1.3573   26.5661  -37.2755 H   0  0  0  0  0  0  0  0  0  0  0  0
    0.7184   26.8714  -35.5903 H   0  0  0  0  0  0  0  0  0  0  0  0
    0.7907   24.6960  -35.1134 H   0  0  0  0  0  0  0  0  0  0  0  0
   -0.2358   24.3196  -36.5517 H   0  0  0  0  0  0  0  0  0  0  0  0
    3.2688   22.8281  -36.5308 H   0  0  0  0  0  0  0  0  0  0  0  0
    2.6434   23.6539  -35.0629 H   0  0  0  0  0  0  0  0  0  0  0  0
    0.6115   22.1257  -36.6339 H   0  0  0  0  0  0  0  0  0  0  0  0
    1.8862   21.1301  -35.8550 H   0  0  0  0  0  0  0  0  0  0  0  0
   -1.2420   22.6070  -34.9770 H   0  0  0  0  0  0  0  0  0  0  0  0
   -0.4682   20.3894  -33.1495 H   0  0  0  0  0  0  0  0  0  0  0  0
   -0.8746   22.0619  -32.5879 H   0  0  0  0  0  0  0  0  0  0  0  0
   -3.0792   21.7810  -33.8966 H   0  0  0  0  0  0  0  0  0  0  0  0
   -2.6688   20.0234  -33.9589 H   0  0  0  0  0  0  0  0  0  0  0  0
   -2.4210   20.4380  -31.2970 H   0  0  0  0  0  0  0  0  0  0  0  0
   -4.1101   18.6864  -32.9056 H   0  0  0  0  0  0  0  0  0  0  0  0
   -5.9340   17.2225  -33.7510 H   0  0  0  0  0  0  0  0  0  0  0  0
   -8.3103   17.9110  -33.4849 H   0  0  0  0  0  0  0  0  0  0  0  0
   -8.8802   20.0142  -32.2946 H   0  0  0  0  0  0  0  0  0  0  0  0
   -8.4984   21.9242  -29.5580 H   0  0  0  0  0  0  0  0  0  0  0  0
   -8.8552   22.8927  -31.0282 H   0  0  0  0  0  0  0  0  0  0  0  0
   -9.1453   21.1200  -31.0282 H   0  0  0  0  0  0  0  0  0  0  0  0
   -7.4555   24.1910  -30.1710 H   0  0  0  0  0  0  0  0  0  0  0  0
   -5.6451   25.7623  -29.5348 H   0  0  0  0  0  0  0  0  0  0  0  0
   -2.5009   25.0977  -27.7143 H   0  0  0  0  0  0  0  0  0  0  0  0
   -1.7112   23.9068  -28.8029 H   0  0  0  0  0  0  0  0  0  0  0  0
   -1.1708   25.6199  -28.8029 H   0  0  0  0  0  0  0  0  0  0  0  0
   -2.6827   22.8706  -30.7548 H   0  0  0  0  0  0  0  0  0  0  0  0
  1  2  1  0
  2  3  1  0
  3  4  1  0
  4  5  1  0
  3  6  1  0
  6  7  1  0
  7  8  1  0
  8  9  1  0
  9 10  1  0
 10 11  1  0
 11 12  1  0
 12 13  1  0
 13 14  1  0
 14 15  1  0
 15 16  1  0
 16 17  2  0
 17 18  1  0
 18 19  2  0
 19 20  1  0
 20 21  2  0
 21 22  1  0
 22 23  2  0
 23 24  1  0
 23 25  1  0
 25 26  2  0
 26 27  1  0
 27 28  2  0
 28 29  1  0
 29 30  1  0
 28 31  1  0
 31 32  2  0
 32 16  1  0
 22 17  1  0
 32 25  1  0
  1 33  1  0
  1 34  1  0
  1 35  1  0
  2 36  1  0
  2 37  1  0
  4 38  1  0
  4 39  1  0
  5 40  1  0
  5 41  1  0
  5 42  1  0
  6 43  1  0
  6 44  1  0
  7 45  1  0
  7 46  1  0
  9 47  1  0
  9 48  1  0
 10 49  1  0
 10 50  1  0
 12 51  1  0
 13 52  1  0
 13 53  1  0
 14 54  1  0
 14 55  1  0
 15 56  1  0
 18 57  1  0
 19 58  1  0
 20 59  1  0
 21 60  1  0
 24 61  1  0
 24 62  1  0
 24 63  1  0
 26 64  1  0
 27 65  1  0
 30 66  1  0
 30 67  1  0
 30 68  1  0
 31 69  1  0
M  CHG  1  23   1
M  END
>  <UniqueID>  (15) 
15

>  <SMILES>  (15) 
CCN(CC)CCOCCONCCNc1c2ccccc2[n+](C)c2ccc(OC)cc12

>  <Energy>  (15) 
99.5461284901623

>  <Genealogy>  (15) 
CCN(CC)CCOCCONCCNc1c2ccccc2[n+](C)c2ccc(OC)cc12 (3D coordinates assigned)
CCN(CC)CCOCCONCCNc1c2ccccc2[n+](C)c2ccc(OC)cc12 (optimized conformer: 99.5461284901623 kcal/mol)

>  <smiles>  (15) 
CCN(CC)CCOCCONCCNc1c2ccccc2[n+](C)c2ccc(OC)cc12

>  <score_type>  (15) 
oracle

>  <origin>  (15) 
adg

>  <m_score__min__energy>  (15) 
-9.9600000000000009

>  <m_primary>  (15) 
energy

$$$$
15:0
     RDKit          3D

 41 42  0  0  0  0  0  0  0  0999 V2000
   -6.2080   25.3700  -29.6690 C   0  0  0  0  0  0  0  0  0  0  0  0
   -5.3350   25.5930  -30.8950 C   0  0  0  0  0  0  0  0  0  0  0  0
   -3.9800   25.3260  -30.5700 O   0  0  0  0  0  0  0  0  0  0  0  0
   -3.8630   24.2740  -29.6320 C   0  0  0  0  0  0  0  0  0  0  0  0
   -3.7690   22.9520  -30.3270 C   0  0  0  0  0  0  0  0  0  0  0  0
   -4.3620   22.6930  -31.5120 N   0  0  0  0  0  0  0  0  0  0  0  0
   -4.1890   21.3970  -31.8900 C   0  0  0  0  0  0  0  0  0  0  0  0
   -4.8040   20.8510  -33.1440 C   0  0  0  0  0  0  0  0  0  0  0  0
   -5.8810   19.8910  -32.8220 N   0  0  0  0  0  0  0  0  0  0  0  0
   -6.1730   19.0090  -33.9740 C   0  0  0  0  0  0  0  0  0  0  0  0
   -6.7790   17.6580  -33.5210 C   0  0  0  0  0  0  0  0  0  0  0  0
   -6.8150   17.4650  -31.9960 C   0  0  0  0  0  0  0  0  0  0  0  0
   -7.8260   18.3580  -31.2400 C   0  0  0  0  0  0  0  0  0  0  0  0
   -8.2660   19.6740  -31.9300 C   0  0  2  0  0  0  0  0  0  0  0  0
   -9.1490   19.4050  -33.0690 N   0  0  0  0  0  0  0  0  0  0  0  0
   -7.0910   20.6020  -32.3380 C   0  0  0  0  0  0  0  0  0  0  0  0
   -3.4750   20.6070  -30.9910 C   0  0  0  0  0  0  0  0  0  0  0  0
   -3.0390   21.5770  -29.6900 S   0  0  0  0  0  0  0  0  0  0  0  0
   -5.6087   25.5231  -28.7594 H   0  0  0  0  0  0  0  0  0  0  0  0
   -7.0455   26.0831  -29.6806 H   0  0  0  0  0  0  0  0  0  0  0  0
   -6.6009   24.3426  -29.6806 H   0  0  0  0  0  0  0  0  0  0  0  0
   -5.6577   24.9183  -31.7017 H   0  0  0  0  0  0  0  0  0  0  0  0
   -5.4318   26.6372  -31.2271 H   0  0  0  0  0  0  0  0  0  0  0  0
   -2.9574   24.4289  -29.0271 H   0  0  0  0  0  0  0  0  0  0  0  0
   -4.7560   24.2726  -28.9898 H   0  0  0  0  0  0  0  0  0  0  0  0
   -5.2236   21.6809  -33.7315 H   0  0  0  0  0  0  0  0  0  0  0  0
   -4.0264   20.3298  -33.7216 H   0  0  0  0  0  0  0  0  0  0  0  0
   -6.8882   19.5156  -34.6387 H   0  0  0  0  0  0  0  0  0  0  0  0
   -5.2273   18.8029  -34.4967 H   0  0  0  0  0  0  0  0  0  0  0  0
   -7.8094   17.5970  -33.9012 H   0  0  0  0  0  0  0  0  0  0  0  0
   -6.1291   16.8679  -33.9251 H   0  0  0  0  0  0  0  0  0  0  0  0
   -7.0709   16.4147  -31.7924 H   0  0  0  0  0  0  0  0  0  0  0  0
   -5.8194   17.7555  -31.6293 H   0  0  0  0  0  0  0  0  0  0  0  0
   -8.7311   17.7578  -31.0654 H   0  0  0  0  0  0  0  0  0  0  0  0
   -7.2953   18.6790  -30.3315 H   0  0  0  0  0  0  0  0  0  0  0  0
   -8.8290   20.2317  -31.1671 H   0  0  0  0  0  0  0  0  0  0  0  0
  -10.0670   19.8800  -32.9010 H   0  0  0  0  0  0  0  0  0  0  0  0
   -8.7460   19.8630  -33.9200 H   0  0  0  0  0  0  0  0  0  0  0  0
   -7.4420   21.2673  -33.1406 H   0  0  0  0  0  0  0  0  0  0  0  0
   -6.7914   21.1436  -31.4286 H   0  0  0  0  0  0  0  0  0  0  0  0
   -3.2390   19.5394  -31.1115 H   0  0  0  0  0  0  0  0  0  0  0  0
  1  2  1  0
  2  3  1  0
  3  4  1  0
  4  5  1  0
  5  6  2  0
  6  7  1  0
  7  8  1  0
  8  9  1  0
  9 10  1  0
 10 11  1  0
 11 12  1  0
 12 13  1  0
 13 14  1  0
 14 15  1  0
 14 16  1  0
  7 17  2  0
 17 18  1  0
 18  5  1  0
 16  9  1  0
  1 19  1  0
  1 20  1  0
  1 21  1  0
  2 22  1  0
  2 23  1  0
  4 24  1  0
  4 25  1  0
  8 26  1  0
  8 27  1  0
 10 28  1  0
 10 29  1  0
 11 30  1  0
 11 31  1  0
 12 32  1  0
 12 33  1  0
 13 34  1  0
 13 35  1  0
 14 36  1  1
 15 37  1  0
 15 38  1  0
 16 39  1  0
 16 40  1  0
 17 41  1  0
M  END
>  <UniqueID>  (16) 
16

>  <SMILES>  (16) 
CCOCc1nc(CN2CCCC[C@H](N)C2)cs1

>  <Energy>  (16) 
79.61771757914713

>  <Genealogy>  (16) 
CCOCc1nc(CN2CCCC[C@H](N)C2)cs1 (chirality)
CCOCc1nc(CN2CCCC[C@H](N)C2)cs1 (3D coordinates assigned)
CCOCc1nc(CN2CCCC[C@H](N)C2)cs1 (nonaromatic ring conformer: 79.61771757914713 kcal/mol)

>  <smiles>  (16) 
CCOCc1nc(CN2CCCCC(N)C2)cs1

>  <score_type>  (16) 
oracle

>  <origin>  (16) 
adg

>  <m_score__min__energy>  (16) 
-5.4500000000000002

>  <m_primary>  (16) 
energy

$$$$
