0:0
     RDKit          3D

 62 64  0  0  0  0  0  0  0  0999 V2000
   -3.2020   15.9330  -33.0830 C   0  0  0  0  0  0  0  0  0  0  0  0
   -3.2650   17.0170  -34.1720 C   0  0  0  0  0  0  0  0  0  0  0  0
   -4.0030   18.2500  -33.7770 N   0  0  1  0  0  0  0  0  0  0  0  0
   -3.1760   19.4670  -34.0190 C   0  0  0  0  0  0  0  0  0  0  0  0
   -2.1070   19.7090  -32.9390 C   0  0  0  0  0  0  0  0  0  0  0  0
   -2.4600   20.8310  -32.1630 O   0  0  0  0  0  0  0  0  0  0  0  0
   -3.7010   21.3490  -32.5890 C   0  0  0  0  0  0  0  0  0  0  0  0
   -4.7300   20.9920  -31.5720 C   0  0  0  0  0  0  0  0  0  0  0  0
   -4.6390   21.4760  -30.3700 N   0  0  0  0  0  0  0  0  0  0  0  0
   -3.4700   21.4970  -29.5360 C   0  0  0  0  0  0  0  0  0  0  0  0
   -2.7540   20.4620  -29.5170 O   0  0  0  0  0  0  0  0  0  0  0  0
   -2.9830   22.7700  -28.8440 C   0  0  1  0  0  0  0  0  0  0  0  0
   -1.4570   23.0760  -28.8780 C   0  0  1  0  0  0  0  0  0  0  0  0
   -0.6960   22.6270  -30.1320 C   0  0  0  0  0  0  0  0  0  0  0  0
   -1.4700   24.5600  -28.8100 C   0  0  0  0  0  0  0  0  0  0  0  0
   -0.4520   25.2670  -28.5860 O   0  0  0  0  0  0  0  0  0  0  0  0
   -2.7220   25.1010  -29.0240 O   0  0  0  0  0  0  0  0  0  0  0  0
   -3.6840   24.0900  -29.2990 C   0  0  0  0  0  0  0  0  0  0  0  0
   -4.0760   24.1790  -30.7770 C   0  0  0  0  0  0  0  0  0  0  0  0
   -5.0980   25.3020  -30.8300 C   0  0  0  0  0  0  0  0  0  0  0  0
   -5.7970   25.3030  -29.4710 C   0  0  0  0  0  0  0  0  0  0  0  0
   -4.9830   24.3930  -28.5500 C   0  0  0  0  0  0  0  0  0  0  0  0
   -5.3390   18.3530  -34.4260 C   0  0  0  0  0  0  0  0  0  0  0  0
   -6.4290   18.7540  -33.4570 C   0  0  0  0  0  0  0  0  0  0  0  0
   -6.8910   17.8460  -32.4890 C   0  0  0  0  0  0  0  0  0  0  0  0
   -7.8970   18.2250  -31.5930 C   0  0  0  0  0  0  0  0  0  0  0  0
   -8.4470   19.5090  -31.6580 C   0  0  0  0  0  0  0  0  0  0  0  0
   -7.9980   20.4160  -32.6230 C   0  0  0  0  0  0  0  0  0  0  0  0
   -6.9950   20.0400  -33.5210 C   0  0  0  0  0  0  0  0  0  0  0  0
   -3.2296   16.4077  -32.0911 H   0  0  0  0  0  0  0  0  0  0  0  0
   -4.0623   15.2558  -33.1895 H   0  0  0  0  0  0  0  0  0  0  0  0
   -2.2690   15.3601  -33.1895 H   0  0  0  0  0  0  0  0  0  0  0  0
   -2.2350   17.3021  -34.4325 H   0  0  0  0  0  0  0  0  0  0  0  0
   -3.8178   16.5794  -35.0163 H   0  0  0  0  0  0  0  0  0  0  0  0
   -4.1570   18.1670  -32.7430 H   0  0  0  0  0  0  0  0  0  0  0  0
   -2.6709   19.3570  -34.9900 H   0  0  0  0  0  0  0  0  0  0  0  0
   -3.8576   20.3301  -33.9979 H   0  0  0  0  0  0  0  0  0  0  0  0
   -2.0360   18.8236  -32.2902 H   0  0  0  0  0  0  0  0  0  0  0  0
   -1.1361   19.8920  -33.4226 H   0  0  0  0  0  0  0  0  0  0  0  0
   -3.6349   22.4430  -32.6834 H   0  0  0  0  0  0  0  0  0  0  0  0
   -3.9725   20.9267  -33.5678 H   0  0  0  0  0  0  0  0  0  0  0  0
   -5.5616   20.3227  -31.8375 H   0  0  0  0  0  0  0  0  0  0  0  0
   -3.2681   22.4907  -27.8190 H   0  0  0  0  0  0  0  0  0  0  0  0
   -0.9316   22.5328  -28.0787 H   0  0  0  0  0  0  0  0  0  0  0  0
    0.2161   22.0889  -29.8344 H   0  0  0  0  0  0  0  0  0  0  0  0
   -1.3356   21.9615  -30.7304 H   0  0  0  0  0  0  0  0  0  0  0  0
   -0.4228   23.5086  -30.7304 H   0  0  0  0  0  0  0  0  0  0  0  0
   -3.2006   24.4198  -31.3981 H   0  0  0  0  0  0  0  0  0  0  0  0
   -4.4759   23.2296  -31.1626 H   0  0  0  0  0  0  0  0  0  0  0  0
   -4.5973   26.2661  -31.0025 H   0  0  0  0  0  0  0  0  0  0  0  0
   -5.8152   25.1544  -31.6508 H   0  0  0  0  0  0  0  0  0  0  0  0
   -5.8278   26.3239  -29.0626 H   0  0  0  0  0  0  0  0  0  0  0  0
   -6.8331   24.9448  -29.5617 H   0  0  0  0  0  0  0  0  0  0  0  0
   -4.7666   24.9048  -27.6007 H   0  0  0  0  0  0  0  0  0  0  0  0
   -5.5319   23.4716  -28.3055 H   0  0  0  0  0  0  0  0  0  0  0  0
   -5.2846   19.1061  -35.2259 H   0  0  0  0  0  0  0  0  0  0  0  0
   -5.5944   17.3585  -34.8206 H   0  0  0  0  0  0  0  0  0  0  0  0
   -6.4609   16.8350  -32.4355 H   0  0  0  0  0  0  0  0  0  0  0  0
   -8.2557   17.5117  -30.8363 H   0  0  0  0  0  0  0  0  0  0  0  0
   -9.2339   19.8060  -30.9491 H   0  0  0  0  0  0  0  0  0  0  0  0
   -8.4338   21.4246  -32.6754 H   0  0  0  0  0  0  0  0  0  0  0  0
   -6.6464   20.7538  -34.2819 H   0  0  0  0  0  0  0  0  0  0  0  0
  1  2  1  0
  2  3  1  0
  3  4  1  0
  4  5  1  0
  5  6  1  0
  6  7  1  0
  7  8  1  0
  8  9  2  3
  9 10  1  0
 10 11  2  0
 10 12  1  0
 12 13  1  0
 13 14  1  0
 13 15  1  0
 15 16  2  0
 15 17  1  0
 17 18  1  0
 18 19  1  0
 19 20  1  0
 20 21  1  0
 21 22  1  0
  3 23  1  0
 23 24  1  0
 24 25  2  0
 25 26  1  0
 26 27  2  0
 27 28  1  0
 28 29  2  0
 18 12  1  0
 29 24  1  0
 22 18  1  0
  1 30  1  0
  1 31  1  0
  1 32  1  0
  2 33  1  0
  2 34  1  0
  3 35  1  1
  4 36  1  0
  4 37  1  0
  5 38  1  0
  5 39  1  0
  7 40  1  0
  7 41  1  0
  8 42  1  0
 12 43  1  1
 13 44  1  1
 14 45  1  0
 14 46  1  0
 14 47  1  0
 19 48  1  0
 19 49  1  0
 20 50  1  0
 20 51  1  0
 21 52  1  0
 21 53  1  0
 22 54  1  0
 22 55  1  0
 23 56  1  0
 23 57  1  0
 25 58  1  0
 26 59  1  0
 27 60  1  0
 28 61  1  0
 29 62  1  0
M  CHG  1   3   1
M  END
>  <UniqueID>  (1) 
1

>  <SMILES>  (1) 
CC[N@@H+](CCOCC=NC(=O)[C@H]1C(C)C(=O)OC12CCCC2)Cc1ccccc1

>  <Energy>  (1) 
81.0610672035633

>  <Genealogy>  (1) 
CC[NH+](CCOCC=NC(=O)C1C(C)C(=O)OC12CCCC2)Cc1ccccc1 (protonated)
CC[N@@H+](CCOCC=NC(=O)[C@H]1C(C)C(=O)OC12CCCC2)Cc1ccccc1 (chirality)
CC[N@@H+](CCOCC=NC(=O)[C@H]1C(C)C(=O)OC12CCCC2)Cc1ccccc1 (3D coordinates assigned)
CC[N@@H+](CCOCC=NC(=O)[C@H]1C(C)C(=O)OC12CCCC2)Cc1ccccc1 (nonaromatic ring conformer: 81.0610672035633 kcal/mol)

>  <smiles>  (1) 
CCN(CCOCC=NC(=O)C1C(C)C(=O)OC12CCCC2)Cc1ccccc1

>  <score_type>  (1) 
oracle

>  <origin>  (1) 
adg

>  <m_score__min__energy>  (1) 
-7.9400000000000004

>  <m_primary>  (1) 
energy

$$$$
1:0
     RDKit          3D

 34 36  0  0  0  0  0  0  0  0999 V2000
   -9.4730   21.5000  -30.4450 C   0  0  0  0  0  0  0  0  0  0  0  0
   -8.4540   20.9370  -31.3910 C   0  0  0  0  0  0  0  0  0  0  0  0
   -8.4650   19.5990  -31.6380 N   0  0  0  0  0  0  0  0  0  0  0  0
   -7.5740   19.0210  -32.4810 C   0  0  0  0  0  0  0  0  0  0  0  0
   -7.6010   17.6410  -32.7050 C   0  0  0  0  0  0  0  0  0  0  0  0
   -6.6700   17.0560  -33.5690 C   0  0  0  0  0  0  0  0  0  0  0  0
   -5.7120   17.8490  -34.2100 C   0  0  0  0  0  0  0  0  0  0  0  0
   -5.6810   19.2300  -33.9920 C   0  0  0  0  0  0  0  0  0  0  0  0
   -6.6140   19.8240  -33.1280 C   0  0  0  0  0  0  0  0  0  0  0  0
   -6.6010   21.1660  -32.8950 N   0  0  0  0  0  0  0  0  0  0  0  0
   -7.4930   21.7490  -32.0400 C   0  0  0  0  0  0  0  0  0  0  0  0
   -7.3820   23.2300  -31.7630 C   0  0  0  0  0  0  0  0  0  0  0  0
   -5.7750   23.8950  -32.3300 S   0  0  0  0  0  0  0  0  0  0  0  0
   -4.9040   23.5920  -30.7820 C   0  0  0  0  0  0  0  0  0  0  0  0
   -5.2210   24.3760  -29.6640 C   0  0  0  0  0  0  0  0  0  0  0  0
   -4.5870   24.1480  -28.4410 C   0  0  0  0  0  0  0  0  0  0  0  0
   -3.6190   23.1470  -28.3310 C   0  0  0  0  0  0  0  0  0  0  0  0
   -3.2830   22.3740  -29.4460 C   0  0  0  0  0  0  0  0  0  0  0  0
   -3.9180   22.5920  -30.6750 C   0  0  0  0  0  0  0  0  0  0  0  0
   -3.4130   21.5050  -32.1710 Br  0  0  0  0  0  0  0  0  0  0  0  0
   -9.1496   21.3213  -29.4089 H   0  0  0  0  0  0  0  0  0  0  0  0
   -9.5740   22.5819  -30.6162 H   0  0  0  0  0  0  0  0  0  0  0  0
  -10.4426   21.0096  -30.6162 H   0  0  0  0  0  0  0  0  0  0  0  0
   -8.3538   17.0162  -32.2021 H   0  0  0  0  0  0  0  0  0  0  0  0
   -6.6909   15.9704  -33.7450 H   0  0  0  0  0  0  0  0  0  0  0  0
   -4.9806   17.3846  -34.8878 H   0  0  0  0  0  0  0  0  0  0  0  0
   -4.9260   19.8502  -34.4973 H   0  0  0  0  0  0  0  0  0  0  0  0
   -5.8820   21.7580  -33.3690 H   0  0  0  0  0  0  0  0  0  0  0  0
   -8.1926   23.7546  -32.2899 H   0  0  0  0  0  0  0  0  0  0  0  0
   -7.4581   23.3862  -30.6768 H   0  0  0  0  0  0  0  0  0  0  0  0
   -5.9726   25.1745  -29.7506 H   0  0  0  0  0  0  0  0  0  0  0  0
   -4.8500   24.7571  -27.5636 H   0  0  0  0  0  0  0  0  0  0  0  0
   -3.1211   22.9670  -27.3668 H   0  0  0  0  0  0  0  0  0  0  0  0
   -2.5160   21.5905  -29.3577 H   0  0  0  0  0  0  0  0  0  0  0  0
  1  2  1  0
  2  3  2  0
  3  4  1  0
  4  5  2  0
  5  6  1  0
  6  7  2  0
  7  8  1  0
  8  9  2  0
  9 10  1  0
 10 11  2  0
 11 12  1  0
 12 13  1  0
 13 14  1  0
 14 15  2  0
 15 16  1  0
 16 17  2  0
 17 18  1  0
 18 19  2  0
 19 20  1  0
 11  2  1  0
 19 14  1  0
  9  4  1  0
  1 21  1  0
  1 22  1  0
  1 23  1  0
  5 24  1  0
  6 25  1  0
  7 26  1  0
  8 27  1  0
 10 28  1  0
 12 29  1  0
 12 30  1  0
 15 31  1  0
 16 32  1  0
 17 33  1  0
 18 34  1  0
M  CHG  1  10   1
M  END
>  <UniqueID>  (2) 
2

>  <SMILES>  (2) 
Cc1nc2ccccc2[nH+]c1CSc1ccccc1Br

>  <Energy>  (2) 
35.43154192076048

>  <Genealogy>  (2) 
Cc1nc2ccccc2[nH+]c1CSc1ccccc1Br (protonated)
Cc1nc2ccccc2[nH+]c1CSc1ccccc1Br (3D coordinates assigned)
Cc1nc2ccccc2[nH+]c1CSc1ccccc1Br (optimized conformer: 35.43154192076048 kcal/mol)

>  <smiles>  (2) 
Cc1nc2ccccc2nc1CSc1ccccc1Br

>  <score_type>  (2) 
oracle

>  <origin>  (2) 
adg

>  <m_score__min__energy>  (2) 
-7.6399999999999997

>  <m_primary>  (2) 
energy

$$$$
2:0
     RDKit          3D

 60 63  0  0  0  0  0  0  0  0999 V2000
   -0.2200   22.6800  -24.0520 C   0  0  0  0  0  0  0  0  0  0  0  0
   -0.0960   23.8010  -25.0770 C   0  0  0  0  0  0  0  0  0  0  0  0
   -0.6650   23.3880  -26.3660 N   0  0  0  0  0  0  0  0  0  0  0  0
   -0.5860   22.0200  -26.8000 C   0  0  0  0  0  0  0  0  0  0  0  0
    0.5250   21.5660  -27.5280 C   0  0  0  0  0  0  0  0  0  0  0  0
    0.6060   20.2320  -27.9380 C   0  0  0  0  0  0  0  0  0  0  0  0
   -0.4260   19.3280  -27.6210 C   0  0  0  0  0  0  0  0  0  0  0  0
   -0.3900   17.9790  -28.0080 O   0  0  0  0  0  0  0  0  0  0  0  0
    0.4040   17.4700  -29.0730 C   0  0  0  0  0  0  0  0  0  0  0  0
   -1.5310   19.7830  -26.8930 C   0  0  0  0  0  0  0  0  0  0  0  0
   -1.6120   21.1160  -26.4850 C   0  0  0  0  0  0  0  0  0  0  0  0
   -1.3510   24.5990  -27.4110 S   0  0  0  0  0  0  0  0  0  0  0  0
   -1.9380   25.6920  -26.5620 O   0  0  0  0  0  0  0  0  0  0  0  0
   -0.2940   25.1950  -28.2980 O   0  0  0  0  0  0  0  0  0  0  0  0
   -2.5960   23.8680  -28.4190 C   0  0  0  0  0  0  0  0  0  0  0  0
   -3.9580   24.1580  -28.1700 C   0  0  0  0  0  0  0  0  0  0  0  0
   -4.9690   23.5980  -28.9700 C   0  0  0  0  0  0  0  0  0  0  0  0
   -4.5850   22.7530  -30.0070 C   0  0  0  0  0  0  0  0  0  0  0  0
   -5.3620   22.1350  -30.8630 O   0  0  0  0  0  0  0  0  0  0  0  0
   -4.5900   21.4300  -31.6720 C   0  0  0  0  0  0  0  0  0  0  0  0
   -5.1280   20.5990  -32.7610 C   0  0  0  0  0  0  0  0  0  0  0  0
   -4.4410   20.4440  -33.8060 O   0  0  0  0  0  0  0  0  0  0  0  0
   -6.4270   19.9950  -32.6690 N   0  0  0  0  0  0  0  0  0  0  0  0
   -7.5850   20.8460  -32.3480 C   0  0  0  0  0  0  0  0  0  0  0  0
   -8.8950   20.0510  -32.3760 C   0  0  0  0  0  0  0  0  0  0  0  0
   -8.7130   18.7110  -31.6590 C   0  0  0  0  0  0  0  0  0  0  0  0
   -7.6050   17.8450  -32.2960 C   0  0  0  0  0  0  0  0  0  0  0  0
   -6.6320   18.6380  -33.1880 C   0  0  0  0  0  0  0  0  0  0  0  0
   -3.2440   21.6190  -31.3400 C   0  0  0  0  0  0  0  0  0  0  0  0
   -2.0260   21.0720  -32.0200 C   0  0  0  0  0  0  0  0  0  0  0  0
   -3.2680   22.4650  -30.2520 C   0  0  0  0  0  0  0  0  0  0  0  0
   -2.2410   23.0070  -29.4800 C   0  0  0  0  0  0  0  0  0  0  0  0
   -0.1731   23.1036  -23.0379 H   0  0  0  0  0  0  0  0  0  0  0  0
   -1.1809   22.1624  -24.1891 H   0  0  0  0  0  0  0  0  0  0  0  0
    0.6045   21.9649  -24.1891 H   0  0  0  0  0  0  0  0  0  0  0  0
   -0.6356   24.6869  -24.7109 H   0  0  0  0  0  0  0  0  0  0  0  0
    0.9693   24.0358  -25.2186 H   0  0  0  0  0  0  0  0  0  0  0  0
    1.3373   22.2646  -27.7775 H   0  0  0  0  0  0  0  0  0  0  0  0
    1.4796   19.8871  -28.5106 H   0  0  0  0  0  0  0  0  0  0  0  0
    1.2623   16.9198  -28.6599 H   0  0  0  0  0  0  0  0  0  0  0  0
   -0.2029   16.7922  -29.6913 H   0  0  0  0  0  0  0  0  0  0  0  0
    0.7666   18.3044  -29.6913 H   0  0  0  0  0  0  0  0  0  0  0  0
   -2.3425   19.0849  -26.6400 H   0  0  0  0  0  0  0  0  0  0  0  0
   -2.4862   21.4598  -25.9127 H   0  0  0  0  0  0  0  0  0  0  0  0
   -4.2288   24.8289  -27.3414 H   0  0  0  0  0  0  0  0  0  0  0  0
   -6.0298   23.8205  -28.7824 H   0  0  0  0  0  0  0  0  0  0  0  0
   -7.4473   21.2718  -31.3431 H   0  0  0  0  0  0  0  0  0  0  0  0
   -7.6486   21.6404  -33.1062 H   0  0  0  0  0  0  0  0  0  0  0  0
   -9.6825   20.6297  -31.8711 H   0  0  0  0  0  0  0  0  0  0  0  0
   -9.1800   19.8637  -33.4218 H   0  0  0  0  0  0  0  0  0  0  0  0
   -8.4486   18.9058  -30.6092 H   0  0  0  0  0  0  0  0  0  0  0  0
   -9.6594   18.1566  -31.7417 H   0  0  0  0  0  0  0  0  0  0  0  0
   -7.0275   17.3715  -31.4883 H   0  0  0  0  0  0  0  0  0  0  0  0
   -8.1055   17.1094  -32.9429 H   0  0  0  0  0  0  0  0  0  0  0  0
   -5.6648   18.1149  -33.2183 H   0  0  0  0  0  0  0  0  0  0  0  0
   -7.0635   18.7112  -34.1972 H   0  0  0  0  0  0  0  0  0  0  0  0
   -1.2986   20.7453  -31.2623 H   0  0  0  0  0  0  0  0  0  0  0  0
   -2.3106   20.2152  -32.6485 H   0  0  0  0  0  0  0  0  0  0  0  0
   -1.5747   21.8539  -32.6485 H   0  0  0  0  0  0  0  0  0  0  0  0
   -1.1875   22.7711  -29.6910 H   0  0  0  0  0  0  0  0  0  0  0  0
  1  2  1  0
  2  3  1  0
  3  4  1  0
  4  5  2  0
  5  6  1  0
  6  7  2  0
  7  8  1  0
  8  9  1  0
  7 10  1  0
 10 11  2  0
  3 12  1  0
 12 13  2  0
 12 14  2  0
 12 15  1  0
 15 16  2  0
 16 17  1  0
 17 18  2  0
 18 19  1  0
 19 20  1  0
 20 21  1  0
 21 22  2  0
 21 23  1  0
 23 24  1  0
 24 25  1  0
 25 26  1  0
 26 27  1  0
 27 28  1  0
 20 29  2  0
 29 30  1  0
 29 31  1  0
 31 32  2  0
 11  4  1  0
 32 15  1  0
 31 18  1  0
 28 23  1  0
  1 33  1  0
  1 34  1  0
  1 35  1  0
  2 36  1  0
  2 37  1  0
  5 38  1  0
  6 39  1  0
  9 40  1  0
  9 41  1  0
  9 42  1  0
 10 43  1  0
 11 44  1  0
 16 45  1  0
 17 46  1  0
 24 47  1  0
 24 48  1  0
 25 49  1  0
 25 50  1  0
 26 51  1  0
 26 52  1  0
 27 53  1  0
 27 54  1  0
 28 55  1  0
 28 56  1  0
 30 57  1  0
 30 58  1  0
 30 59  1  0
 32 60  1  0
M  END
>  <UniqueID>  (3) 
3

>  <SMILES>  (3) 
CCN(c1ccc(OC)cc1)S(=O)(=O)c1ccc2oc(C(=O)N3CCCCC3)c(C)c2c1

>  <Energy>  (3) 
102.23896060019644

>  <Genealogy>  (3) 
CCN(c1ccc(OC)cc1)S(=O)(=O)c1ccc2oc(C(=O)N3CCCCC3)c(C)c2c1 (3D coordinates assigned)
CCN(c1ccc(OC)cc1)S(=O)(=O)c1ccc2oc(C(=O)N3CCCCC3)c(C)c2c1 (nonaromatic ring conformer: 102.23896060019644 kcal/mol)

>  <smiles>  (3) 
CCN(c1ccc(OC)cc1)S(=O)(=O)c1ccc2oc(C(=O)N3CCCCC3)c(C)c2c1

>  <score_type>  (3) 
oracle

>  <origin>  (3) 
adg

>  <m_score__min__energy>  (3) 
-10.59

>  <m_primary>  (3) 
energy

$$$$
3:0
     RDKit          3D

 45 47  0  0  0  0  0  0  0  0999 V2000
   -0.8690   17.5720  -34.9850 C   0  0  0  0  0  0  0  0  0  0  0  0
   -0.7290   19.0700  -34.6890 C   0  0  0  0  0  0  0  0  0  0  0  0
   -1.7250   19.6240  -33.7300 N   0  0  0  0  0  0  0  0  0  0  0  0
   -1.6470   18.9900  -32.3810 C   0  0  0  0  0  0  0  0  0  0  0  0
   -0.5430   19.5330  -31.4560 C   0  0  0  0  0  0  0  0  0  0  0  0
   -1.7820   21.1110  -33.6810 C   0  0  0  0  0  0  0  0  0  0  0  0
   -2.8820   21.6460  -32.7480 C   0  0  0  0  0  0  0  0  0  0  0  0
   -4.1880   21.5270  -33.3960 N   0  0  0  0  0  0  0  0  0  0  0  0
   -5.1600   20.5240  -33.0530 C   0  0  0  0  0  0  0  0  0  0  0  0
   -6.2600   20.8200  -32.1980 C   0  0  0  0  0  0  0  0  0  0  0  0
   -6.3760   22.1200  -31.5000 C   0  0  0  0  0  0  0  0  0  0  0  0
   -7.4530   23.0000  -31.5660 C   0  0  0  0  0  0  0  0  0  0  0  0
   -7.2520   24.1790  -30.8360 C   0  0  0  0  0  0  0  0  0  0  0  0
   -6.0180   24.2410  -30.2040 C   0  0  0  0  0  0  0  0  0  0  0  0
   -5.1760   22.8310  -30.5570 S   0  0  0  0  0  0  0  0  0  0  0  0
   -7.2610   19.8380  -31.9740 C   0  0  0  0  0  0  0  0  0  0  0  0
   -7.1760   18.5680  -32.5650 C   0  0  0  0  0  0  0  0  0  0  0  0
   -6.0840   18.3070  -33.3830 C   0  0  0  0  0  0  0  0  0  0  0  0
   -5.7450   17.1880  -34.1060 C   0  0  0  0  0  0  0  0  0  0  0  0
   -6.6870   15.5310  -34.2140 Br  0  0  0  0  0  0  0  0  0  0  0  0
   -4.5710   17.5240  -34.7630 C   0  0  0  0  0  0  0  0  0  0  0  0
   -4.2220   18.7600  -34.4590 O   0  0  0  0  0  0  0  0  0  0  0  0
   -5.1160   19.2440  -33.6280 C   0  0  0  0  0  0  0  0  0  0  0  0
   -0.9211   17.0145  -34.0382 H   0  0  0  0  0  0  0  0  0  0  0  0
   -1.7874   17.3970  -35.5646 H   0  0  0  0  0  0  0  0  0  0  0  0
    0.0011   17.2299  -35.5646 H   0  0  0  0  0  0  0  0  0  0  0  0
    0.2750   19.2422  -34.2739 H   0  0  0  0  0  0  0  0  0  0  0  0
   -0.9051   19.5870  -35.6438 H   0  0  0  0  0  0  0  0  0  0  0  0
   -2.6520   19.3180  -34.1130 H   0  0  0  0  0  0  0  0  0  0  0  0
   -2.6141   19.1411  -31.8792 H   0  0  0  0  0  0  0  0  0  0  0  0
   -1.3995   17.9330  -32.5582 H   0  0  0  0  0  0  0  0  0  0  0  0
   -0.8393   19.3873  -30.4067 H   0  0  0  0  0  0  0  0  0  0  0  0
    0.3960   18.9939  -31.6501 H   0  0  0  0  0  0  0  0  0  0  0  0
   -0.3968   20.6058  -31.6501 H   0  0  0  0  0  0  0  0  0  0  0  0
   -0.8105   21.4864  -33.3270 H   0  0  0  0  0  0  0  0  0  0  0  0
   -2.0162   21.4623  -34.6967 H   0  0  0  0  0  0  0  0  0  0  0  0
   -2.8837   21.0634  -31.8150 H   0  0  0  0  0  0  0  0  0  0  0  0
   -2.6839   22.7049  -32.5257 H   0  0  0  0  0  0  0  0  0  0  0  0
   -4.4290   22.2360  -34.1260 H   0  0  0  0  0  0  0  0  0  0  0  0
   -8.3708   22.7904  -32.1349 H   0  0  0  0  0  0  0  0  0  0  0  0
   -8.0023   24.9807  -30.7700 H   0  0  0  0  0  0  0  0  0  0  0  0
   -5.6541   25.0703  -29.5797 H   0  0  0  0  0  0  0  0  0  0  0  0
   -8.1174   20.0768  -31.3263 H   0  0  0  0  0  0  0  0  0  0  0  0
   -7.9480   17.8050  -32.3865 H   0  0  0  0  0  0  0  0  0  0  0  0
   -4.0129   16.8585  -35.4380 H   0  0  0  0  0  0  0  0  0  0  0  0
  1  2  1  0
  2  3  1  0
  3  4  1  0
  4  5  1  0
  3  6  1  0
  6  7  1  0
  7  8  1  0
  8  9  1  0
  9 10  2  0
 10 11  1  0
 11 12  2  0
 12 13  1  0
 13 14  2  0
 14 15  1  0
 10 16  1  0
 16 17  2  0
 17 18  1  0
 18 19  1  0
 19 20  1  0
 19 21  2  0
 21 22  1  0
 22 23  1  0
 23  9  1  0
 15 11  1  0
 23 18  2  0
  1 24  1  0
  1 25  1  0
  1 26  1  0
  2 27  1  0
  2 28  1  0
  3 29  1  0
  4 30  1  0
  4 31  1  0
  5 32  1  0
  5 33  1  0
  5 34  1  0
  6 35  1  0
  6 36  1  0
  7 37  1  0
  7 38  1  0
  8 39  1  0
 12 40  1  0
 13 41  1  0
 14 42  1  0
 16 43  1  0
 17 44  1  0
 21 45  1  0
M  CHG  1   3   1
M  END
>  <UniqueID>  (4) 
4

>  <SMILES>  (4) 
CC[NH+](CC)CCNc1c(-c2cccs2)ccc2c(Br)coc12

>  <Energy>  (4) 
119.97989025991042

>  <Genealogy>  (4) 
CC[NH+](CC)CCNc1c(-c2cccs2)ccc2c(Br)coc12 (protonated)
CC[NH+](CC)CCNc1c(-c2cccs2)ccc2c(Br)coc12 (3D coordinates assigned)
CC[NH+](CC)CCNc1c(-c2cccs2)ccc2c(Br)coc12 (optimized conformer: 119.97989025991042 kcal/mol)

>  <smiles>  (4) 
CCN(CC)CCNc1c(-c2cccs2)ccc2c(Br)coc12

>  <score_type>  (4) 
oracle

>  <origin>  (4) 
adg

>  <m_score__min__energy>  (4) 
-7.0800000000000001

>  <m_primary>  (4) 
energy

$$$$
4:0
     RDKit          3D

 47 49  0  0  0  0  0  0  0  0999 V2000
   -6.9510   23.6020  -32.4260 C   0  0  0  0  0  0  0  0  0  0  0  0
   -6.7960   22.5640  -31.2940 C   0  0  2  0  0  0  0  0  0  0  0  0
   -7.6650   21.3440  -31.6260 C   0  0  0  0  0  0  0  0  0  0  0  0
   -9.0220   21.4970  -31.9780 C   0  0  0  0  0  0  0  0  0  0  0  0
   -9.7940   20.3890  -32.3360 C   0  0  0  0  0  0  0  0  0  0  0  0
   -9.2250   19.1160  -32.3650 C   0  0  0  0  0  0  0  0  0  0  0  0
   -7.8780   18.9380  -32.0460 C   0  0  0  0  0  0  0  0  0  0  0  0
   -7.3330   17.6470  -32.1080 O   0  0  0  0  0  0  0  0  0  0  0  0
   -6.2460   17.2670  -32.9090 C   0  0  0  0  0  0  0  0  0  0  0  0
   -5.3460   16.3140  -32.4160 C   0  0  0  0  0  0  0  0  0  0  0  0
   -4.2520   15.9090  -33.1870 C   0  0  0  0  0  0  0  0  0  0  0  0
   -4.0340   16.4760  -34.4470 C   0  0  0  0  0  0  0  0  0  0  0  0
   -2.6620   15.9670  -35.4140 Cl  0  0  0  0  0  0  0  0  0  0  0  0
   -4.9140   17.4450  -34.9370 C   0  0  0  0  0  0  0  0  0  0  0  0
   -6.0130   17.8450  -34.1720 C   0  0  0  0  0  0  0  0  0  0  0  0
   -7.0930   20.0580  -31.7190 C   0  0  0  0  0  0  0  0  0  0  0  0
   -7.1490   23.1960  -29.9410 C   0  0  0  0  0  0  0  0  0  0  0  0
   -5.8610   23.8400  -29.4470 C   0  0  0  0  0  0  0  0  0  0  0  0
   -4.7390   23.1990  -30.1620 N   0  0  1  0  0  0  0  0  0  0  0  0
   -3.7000   22.6350  -29.2670 C   0  0  0  0  0  0  0  0  0  0  0  0
   -2.8540   23.6940  -28.5090 C   0  0  0  0  0  0  0  0  0  0  0  0
   -2.5890   24.9010  -29.3550 C   0  0  0  0  0  0  0  0  0  0  0  0
   -1.5560   25.5940  -29.1640 O   0  0  0  0  0  0  0  0  0  0  0  0
   -3.5010   25.2850  -30.3290 O   0  0  0  0  0  0  0  0  0  0  0  0
   -5.3100   22.2100  -31.0960 C   0  0  0  0  0  0  0  0  0  0  0  0
   -7.1001   24.6007  -31.9898 H   0  0  0  0  0  0  0  0  0  0  0  0
   -6.0434   23.6051  -33.0474 H   0  0  0  0  0  0  0  0  0  0  0  0
   -7.8200   23.3398  -33.0474 H   0  0  0  0  0  0  0  0  0  0  0  0
   -9.4770   22.4984  -31.9706 H   0  0  0  0  0  0  0  0  0  0  0  0
  -10.8546   20.5211  -32.5960 H   0  0  0  0  0  0  0  0  0  0  0  0
   -9.8412   18.2475  -32.6408 H   0  0  0  0  0  0  0  0  0  0  0  0
   -5.5006   15.8815  -31.4165 H   0  0  0  0  0  0  0  0  0  0  0  0
   -3.5620   15.1436  -32.8022 H   0  0  0  0  0  0  0  0  0  0  0  0
   -4.7413   17.8935  -35.9264 H   0  0  0  0  0  0  0  0  0  0  0  0
   -6.6985   18.6140  -34.5577 H   0  0  0  0  0  0  0  0  0  0  0  0
   -6.0165   19.9293  -31.5329 H   0  0  0  0  0  0  0  0  0  0  0  0
   -7.9359   23.9547  -30.0643 H   0  0  0  0  0  0  0  0  0  0  0  0
   -7.5327   22.4504  -29.2290 H   0  0  0  0  0  0  0  0  0  0  0  0
   -5.8749   24.9189  -29.6611 H   0  0  0  0  0  0  0  0  0  0  0  0
   -5.7539   23.7060  -28.3605 H   0  0  0  0  0  0  0  0  0  0  0  0
   -4.2680   23.9360  -30.7410 H   0  0  0  0  0  0  0  0  0  0  0  0
   -4.1984   21.9972  -28.5222 H   0  0  0  0  0  0  0  0  0  0  0  0
   -3.0012   22.0814  -29.9114 H   0  0  0  0  0  0  0  0  0  0  0  0
   -3.3987   24.0048  -27.6053 H   0  0  0  0  0  0  0  0  0  0  0  0
   -1.8870   23.2383  -28.2497 H   0  0  0  0  0  0  0  0  0  0  0  0
   -4.7816   22.2549  -32.0597 H   0  0  0  0  0  0  0  0  0  0  0  0
   -5.2047   21.1916  -30.6938 H   0  0  0  0  0  0  0  0  0  0  0  0
  2  1  1  6
  2  3  1  0
  3  4  2  0
  4  5  1  0
  5  6  2  0
  6  7  1  0
  7  8  1  0
  8  9  1  0
  9 10  2  0
 10 11  1  0
 11 12  2  0
 12 13  1  0
 12 14  1  0
 14 15  2  0
  7 16  2  0
  2 17  1  0
 17 18  1  0
 18 19  1  0
 19 20  1  0
 20 21  1  0
 21 22  1  0
 22 23  2  0
 22 24  1  0
 19 25  1  0
 25  2  1  0
 16  3  1  0
 15  9  1  0
  1 26  1  0
  1 27  1  0
  1 28  1  0
  4 29  1  0
  5 30  1  0
  6 31  1  0
 10 32  1  0
 11 33  1  0
 14 34  1  0
 15 35  1  0
 16 36  1  0
 17 37  1  0
 17 38  1  0
 18 39  1  0
 18 40  1  0
 19 41  1  6
 20 42  1  0
 20 43  1  0
 21 44  1  0
 21 45  1  0
 25 46  1  0
 25 47  1  0
M  CHG  2  19   1  24  -1
M  END
>  <UniqueID>  (5) 
5

>  <SMILES>  (5) 
C[C@]1(c2cccc(Oc3ccc(Cl)cc3)c2)CC[N@@H+](CCC(=O)[O-])C1

>  <Energy>  (5) 
64.25658625969628

>  <Genealogy>  (5) 
CC1(c2cccc(Oc3ccc(Cl)cc3)c2)CC[NH+](CCC(=O)[O-])C1 (protonated)
C[C@]1(c2cccc(Oc3ccc(Cl)cc3)c2)CC[N@@H+](CCC(=O)[O-])C1 (chirality)
C[C@]1(c2cccc(Oc3ccc(Cl)cc3)c2)CC[N@@H+](CCC(=O)[O-])C1 (3D coordinates assigned)
C[C@]1(c2cccc(Oc3ccc(Cl)cc3)c2)CC[N@@H+](CCC(=O)[O-])C1 (nonaromatic ring conformer: 64.25658625969628 kcal/mol)

>  <smiles>  (5) 
CC1(c2cccc(Oc3ccc(Cl)cc3)c2)CCN(CCC(=O)O)C1

>  <score_type>  (5) 
oracle

>  <origin>  (5) 
adg

>  <m_score__min__energy>  (5) 
-10.710000000000001

>  <m_primary>  (5) 
energy

$$$$
5:0
     RDKit          3D

 52 55  0  0  0  0  0  0  0  0999 V2000
    0.9020   22.2180  -35.4670 C   0  0  0  0  0  0  0  0  0  0  0  0
    0.4280   21.1400  -34.4950 C   0  0  0  0  0  0  0  0  0  0  0  0
   -1.0830   21.2670  -34.1900 C   0  0  0  0  0  0  0  0  0  0  0  0
   -1.4950   21.2540  -32.6830 C   0  0  2  0  0  0  0  0  0  0  0  0
   -0.9700   20.0870  -31.9010 C   0  0  0  0  0  0  0  0  0  0  0  0
   -0.4770   19.0910  -32.4950 O   0  0  0  0  0  0  0  0  0  0  0  0
   -0.9860   20.0830  -30.4310 C   0  0  0  0  0  0  0  0  0  0  0  0
   -0.3610   19.0910  -29.6950 C   0  0  0  0  0  0  0  0  0  0  0  0
   -0.6940   19.2970  -28.3850 C   0  0  0  0  0  0  0  0  0  0  0  0
   -1.5180   20.4020  -28.3620 C   0  0  0  0  0  0  0  0  0  0  0  0
   -2.2610   20.8160  -27.1210 C   0  0  0  0  0  0  0  0  0  0  0  0
   -1.6730   20.9270  -29.6140 N   0  0  0  0  0  0  0  0  0  0  0  0
   -2.4770   22.0980  -29.9430 C   0  0  0  0  0  0  0  0  0  0  0  0
   -2.5260   23.1600  -29.0160 C   0  0  0  0  0  0  0  0  0  0  0  0
   -3.5060   24.1470  -29.0900 C   0  0  0  0  0  0  0  0  0  0  0  0
   -4.4460   24.1150  -30.1130 C   0  0  0  0  0  0  0  0  0  0  0  0
   -5.7060   25.3340  -30.1880 Cl  0  0  0  0  0  0  0  0  0  0  0  0
   -4.3370   23.1580  -31.1200 C   0  0  0  0  0  0  0  0  0  0  0  0
   -3.3040   22.1960  -31.1070 C   0  0  0  0  0  0  0  0  0  0  0  0
   -3.0090   21.5180  -32.4380 C   0  0  2  0  0  0  0  0  0  0  0  0
   -3.9790   20.3890  -32.7960 C   0  0  0  0  0  0  0  0  0  0  0  0
   -3.4380   19.1120  -33.0600 C   0  0  0  0  0  0  0  0  0  0  0  0
   -4.2600   18.0280  -33.3620 C   0  0  0  0  0  0  0  0  0  0  0  0
   -5.6380   18.1950  -33.4240 C   0  0  0  0  0  0  0  0  0  0  0  0
   -6.1990   19.4530  -33.2040 C   0  0  0  0  0  0  0  0  0  0  0  0
   -5.3830   20.5660  -32.9080 C   0  0  0  0  0  0  0  0  0  0  0  0
   -5.9420   21.8420  -32.7490 O   0  0  0  0  0  0  0  0  0  0  0  0
   -7.2110   22.0970  -32.1520 C   0  0  0  0  0  0  0  0  0  0  0  0
    1.2815   23.0812  -34.9006 H   0  0  0  0  0  0  0  0  0  0  0  0
    1.7051   21.8132  -36.1003 H   0  0  0  0  0  0  0  0  0  0  0  0
    0.0608   22.5362  -36.1003 H   0  0  0  0  0  0  0  0  0  0  0  0
    0.6202   20.1516  -34.9379 H   0  0  0  0  0  0  0  0  0  0  0  0
    0.9793   21.2638  -33.5512 H   0  0  0  0  0  0  0  0  0  0  0  0
   -1.4326   22.2156  -34.6236 H   0  0  0  0  0  0  0  0  0  0  0  0
   -1.5437   20.3677  -34.6248 H   0  0  0  0  0  0  0  0  0  0  0  0
   -0.9722   22.1279  -32.2670 H   0  0  0  0  0  0  0  0  0  0  0  0
    0.2812   18.2896  -30.0891 H   0  0  0  0  0  0  0  0  0  0  0  0
   -0.3688   18.6994  -27.5206 H   0  0  0  0  0  0  0  0  0  0  0  0
   -1.6948   20.5005  -26.2322 H   0  0  0  0  0  0  0  0  0  0  0  0
   -2.3786   21.9097  -27.1117 H   0  0  0  0  0  0  0  0  0  0  0  0
   -3.2529   20.3405  -27.1117 H   0  0  0  0  0  0  0  0  0  0  0  0
   -1.7727   23.2099  -28.2160 H   0  0  0  0  0  0  0  0  0  0  0  0
   -3.5358   24.9508  -28.3396 H   0  0  0  0  0  0  0  0  0  0  0  0
   -5.0697   23.1521  -31.9405 H   0  0  0  0  0  0  0  0  0  0  0  0
   -3.2430   22.2609  -33.2148 H   0  0  0  0  0  0  0  0  0  0  0  0
   -2.3477   18.9701  -33.0267 H   0  0  0  0  0  0  0  0  0  0  0  0
   -3.8174   17.0390  -33.5515 H   0  0  0  0  0  0  0  0  0  0  0  0
   -6.2867   17.3350  -33.6466 H   0  0  0  0  0  0  0  0  0  0  0  0
   -7.2902   19.5791  -33.2619 H   0  0  0  0  0  0  0  0  0  0  0  0
   -7.1116   22.0770  -31.0567 H   0  0  0  0  0  0  0  0  0  0  0  0
   -7.5734   23.0859  -32.4693 H   0  0  0  0  0  0  0  0  0  0  0  0
   -7.9273   21.3248  -32.4693 H   0  0  0  0  0  0  0  0  0  0  0  0
  1  2  1  0
  2  3  1  0
  3  4  1  0
  4  5  1  0
  5  6  2  0
  5  7  1  0
  7  8  2  0
  8  9  1  0
  9 10  2  0
 10 11  1  0
 10 12  1  0
 12 13  1  0
 13 14  2  0
 14 15  1  0
 15 16  2  0
 16 17  1  0
 16 18  1  0
 18 19  2  0
 19 20  1  0
 20 21  1  0
 21 22  2  0
 22 23  1  0
 23 24  2  0
 24 25  1  0
 25 26  2  0
 26 27  1  0
 27 28  1  0
 20  4  1  0
 26 21  1  0
 12  7  1  0
 19 13  1  0
  1 29  1  0
  1 30  1  0
  1 31  1  0
  2 32  1  0
  2 33  1  0
  3 34  1  0
  3 35  1  0
  4 36  1  1
  8 37  1  0
  9 38  1  0
 11 39  1  0
 11 40  1  0
 11 41  1  0
 14 42  1  0
 15 43  1  0
 18 44  1  0
 20 45  1  6
 22 46  1  0
 23 47  1  0
 24 48  1  0
 25 49  1  0
 28 50  1  0
 28 51  1  0
 28 52  1  0
M  END
>  <UniqueID>  (6) 
6

>  <SMILES>  (6) 
CCC[C@@H]1C(=O)c2ccc(C)n2-c2ccc(Cl)cc2[C@@H]1c1ccccc1OC

>  <Energy>  (6) 
112.12454320313923

>  <Genealogy>  (6) 
CCC[C@@H]1C(=O)c2ccc(C)n2-c2ccc(Cl)cc2[C@@H]1c1ccccc1OC (chirality)
CCC[C@@H]1C(=O)c2ccc(C)n2-c2ccc(Cl)cc2[C@@H]1c1ccccc1OC (3D coordinates assigned)
CCC[C@@H]1C(=O)c2ccc(C)n2-c2ccc(Cl)cc2[C@@H]1c1ccccc1OC (nonaromatic ring conformer: 112.12454320313923 kcal/mol)

>  <smiles>  (6) 
CCCC1C(=O)c2ccc(C)n2-c2ccc(Cl)cc2C1c1ccccc1OC

>  <score_type>  (6) 
oracle

>  <origin>  (6) 
adg

>  <m_score__min__energy>  (6) 
-6.6100000000000003

>  <m_primary>  (6) 
energy

$$$$
6:0
     RDKit          3D

 38 40  0  0  0  0  0  0  0  0999 V2000
    2.3160   19.2910  -31.4710 C   0  0  0  0  0  0  0  0  0  0  0  0
    2.5810   18.8780  -32.9160 C   0  0  0  0  0  0  0  0  0  0  0  0
    2.3250   19.9880  -33.8330 N   0  0  0  0  0  0  0  0  0  0  0  0
    1.0220   20.5760  -33.9750 C   0  0  0  0  0  0  0  0  0  0  0  0
    0.8320   21.8400  -35.0040 S   0  0  0  0  0  0  0  0  0  0  0  0
   -0.1260   19.9600  -33.3650 N   0  0  0  0  0  0  0  0  0  0  0  0
   -1.2890   20.6810  -32.9210 C   0  0  0  0  0  0  0  0  0  0  0  0
   -1.3610   21.2250  -31.6270 C   0  0  0  0  0  0  0  0  0  0  0  0
   -2.5120   21.8990  -31.2070 C   0  0  0  0  0  0  0  0  0  0  0  0
   -3.6180   22.0120  -32.0620 C   0  0  0  0  0  0  0  0  0  0  0  0
   -4.8160   22.7580  -31.6190 C   0  0  0  0  0  0  0  0  0  0  0  0
   -4.6520   24.0470  -31.2200 N   0  0  0  0  0  0  0  0  0  0  0  0
   -5.7020   24.8140  -30.8320 C   0  0  0  0  0  0  0  0  0  0  0  0
   -6.9570   24.3030  -30.8360 N   0  0  0  0  0  0  0  0  0  0  0  0
   -7.1890   23.0180  -31.2100 C   0  0  0  0  0  0  0  0  0  0  0  0
   -8.4940   22.5130  -31.1860 C   0  0  0  0  0  0  0  0  0  0  0  0
   -8.7380   21.1840  -31.5370 C   0  0  0  0  0  0  0  0  0  0  0  0
   -7.6790   20.3490  -31.9020 C   0  0  0  0  0  0  0  0  0  0  0  0
   -8.0180   18.5240  -32.3540 Br  0  0  0  0  0  0  0  0  0  0  0  0
   -6.3700   20.8430  -31.9320 C   0  0  0  0  0  0  0  0  0  0  0  0
   -6.1120   22.1910  -31.6070 C   0  0  0  0  0  0  0  0  0  0  0  0
   -3.5460   21.4700  -33.3550 C   0  0  0  0  0  0  0  0  0  0  0  0
   -2.3960   20.7960  -33.7740 C   0  0  0  0  0  0  0  0  0  0  0  0
    2.7827   18.5637  -30.7903 H   0  0  0  0  0  0  0  0  0  0  0  0
    2.7431   20.2885  -31.2905 H   0  0  0  0  0  0  0  0  0  0  0  0
    1.2312   19.3185  -31.2905 H   0  0  0  0  0  0  0  0  0  0  0  0
    3.6310   18.5651  -33.0140 H   0  0  0  0  0  0  0  0  0  0  0  0
    1.9063   18.0481  -33.1729 H   0  0  0  0  0  0  0  0  0  0  0  0
    3.1200   20.4130  -34.3630 H   0  0  0  0  0  0  0  0  0  0  0  0
   -0.1370   18.9200  -33.2760 H   0  0  0  0  0  0  0  0  0  0  0  0
   -0.5075   21.1200  -30.9411 H   0  0  0  0  0  0  0  0  0  0  0  0
   -2.5501   22.3427  -30.2012 H   0  0  0  0  0  0  0  0  0  0  0  0
   -5.5339   25.8533  -30.5134 H   0  0  0  0  0  0  0  0  0  0  0  0
   -9.3293   23.1647  -30.8899 H   0  0  0  0  0  0  0  0  0  0  0  0
   -9.7663   20.7934  -31.5262 H   0  0  0  0  0  0  0  0  0  0  0  0
   -5.5394   20.1776  -32.2100 H   0  0  0  0  0  0  0  0  0  0  0  0
   -4.3989   21.5764  -34.0415 H   0  0  0  0  0  0  0  0  0  0  0  0
   -2.3588   20.3525  -34.7800 H   0  0  0  0  0  0  0  0  0  0  0  0
  1  2  1  0
  2  3  1  0
  3  4  1  0
  4  5  2  0
  4  6  1  0
  6  7  1  0
  7  8  2  0
  8  9  1  0
  9 10  2  0
 10 11  1  0
 11 12  2  0
 12 13  1  0
 13 14  2  0
 14 15  1  0
 15 16  2  0
 16 17  1  0
 17 18  2  0
 18 19  1  0
 18 20  1  0
 20 21  2  0
 10 22  1  0
 22 23  2  0
 23  7  1  0
 21 11  1  0
 21 15  1  0
  1 24  1  0
  1 25  1  0
  1 26  1  0
  2 27  1  0
  2 28  1  0
  3 29  1  0
  6 30  1  0
  8 31  1  0
  9 32  1  0
 13 33  1  0
 16 34  1  0
 17 35  1  0
 20 36  1  0
 22 37  1  0
 23 38  1  0
M  END
>  <UniqueID>  (7) 
7

>  <SMILES>  (7) 
CCNC(=S)Nc1ccc(-c2ncnc3ccc(Br)cc23)cc1

>  <Energy>  (7) 
52.38500224623439

>  <Genealogy>  (7) 
CCNC(=S)Nc1ccc(-c2ncnc3ccc(Br)cc23)cc1 (3D coordinates assigned)
CCNC(=S)Nc1ccc(-c2ncnc3ccc(Br)cc23)cc1 (optimized conformer: 52.38500224623439 kcal/mol)

>  <smiles>  (7) 
CCNC(=S)Nc1ccc(-c2ncnc3ccc(Br)cc23)cc1

>  <score_type>  (7) 
oracle

>  <origin>  (7) 
adg

>  <m_score__min__energy>  (7) 
-8.0199999999999996

>  <m_primary>  (7) 
energy

$$$$
7:0
     RDKit          3D

 44 45  0  0  0  0  0  0  0  0999 V2000
   -6.3180   17.3170  -33.9880 C   0  0  0  0  0  0  0  0  0  0  0  0
   -5.1000   18.0680  -34.5130 C   0  0  0  0  0  0  0  0  0  0  0  0
   -4.8460   19.2280  -33.7210 O   0  0  0  0  0  0  0  0  0  0  0  0
   -3.5760   19.7970  -33.5710 C   0  0  0  0  0  0  0  0  0  0  0  0
   -2.7630   19.7960  -34.5370 O   0  0  0  0  0  0  0  0  0  0  0  0
   -3.2030   20.3850  -32.3110 N   0  0  0  0  0  0  0  0  0  0  0  0
   -1.9090   21.0620  -32.1470 C   0  0  0  0  0  0  0  0  0  0  0  0
   -2.0700   22.3120  -31.2720 C   0  0  0  0  0  0  0  0  0  0  0  0
   -2.8700   22.0440  -30.0650 N   0  0  0  0  0  0  0  0  0  0  0  0
   -3.0000   23.0540  -29.0400 C   0  0  0  0  0  0  0  0  0  0  0  0
   -3.3980   22.7340  -27.8870 O   0  0  0  0  0  0  0  0  0  0  0  0
   -2.7060   24.4990  -29.3200 C   0  0  0  0  0  0  0  0  0  0  0  0
   -3.4880   24.9320  -30.4750 N   0  0  0  0  0  0  0  0  0  0  0  0
   -5.1720   25.0010  -30.0580 S   0  0  0  0  0  0  0  0  0  0  0  0
   -5.3260   24.9920  -28.5610 O   0  0  0  0  0  0  0  0  0  0  0  0
   -5.7590   26.2790  -30.5870 O   0  0  0  0  0  0  0  0  0  0  0  0
   -6.0330   23.6350  -30.7630 C   0  0  0  0  0  0  0  0  0  0  0  0
   -5.6480   23.1150  -32.0060 C   0  0  0  0  0  0  0  0  0  0  0  0
   -6.3500   22.0460  -32.5690 C   0  0  0  0  0  0  0  0  0  0  0  0
   -7.4430   21.4910  -31.8950 C   0  0  0  0  0  0  0  0  0  0  0  0
   -8.4030   20.0300  -32.6640 Br  0  0  0  0  0  0  0  0  0  0  0  0
   -7.8340   22.0110  -30.6560 C   0  0  0  0  0  0  0  0  0  0  0  0
   -7.1340   23.0820  -30.0920 C   0  0  0  0  0  0  0  0  0  0  0  0
   -3.4460   20.7070  -29.8580 C   0  0  0  0  0  0  0  0  0  0  0  0
   -4.0900   20.2010  -31.1530 C   0  0  0  0  0  0  0  0  0  0  0  0
   -6.3069   17.3238  -32.8881 H   0  0  0  0  0  0  0  0  0  0  0  0
   -7.2344   17.8071  -34.3485 H   0  0  0  0  0  0  0  0  0  0  0  0
   -6.2917   16.2781  -34.3485 H   0  0  0  0  0  0  0  0  0  0  0  0
   -4.2228   17.4054  -34.4756 H   0  0  0  0  0  0  0  0  0  0  0  0
   -5.2957   18.3815  -35.5491 H   0  0  0  0  0  0  0  0  0  0  0  0
   -1.1970   20.3733  -31.6687 H   0  0  0  0  0  0  0  0  0  0  0  0
   -1.5345   21.3633  -33.1364 H   0  0  0  0  0  0  0  0  0  0  0  0
   -1.0729   22.6617  -30.9662 H   0  0  0  0  0  0  0  0  0  0  0  0
   -2.5961   23.0749  -31.8646 H   0  0  0  0  0  0  0  0  0  0  0  0
   -2.9766   25.1062  -28.4436 H   0  0  0  0  0  0  0  0  0  0  0  0
   -1.6337   24.6243  -29.5311 H   0  0  0  0  0  0  0  0  0  0  0  0
   -4.7904   23.5498  -32.5403 H   0  0  0  0  0  0  0  0  0  0  0  0
   -6.0426   21.6401  -33.5441 H   0  0  0  0  0  0  0  0  0  0  0  0
   -8.6936   21.5764  -30.1248 H   0  0  0  0  0  0  0  0  0  0  0  0
   -7.4472   23.4917  -29.1204 H   0  0  0  0  0  0  0  0  0  0  0  0
   -2.6500   20.0119  -29.5525 H   0  0  0  0  0  0  0  0  0  0  0  0
   -4.2154   20.7655  -29.0740 H   0  0  0  0  0  0  0  0  0  0  0  0
   -4.3157   19.1300  -31.0438 H   0  0  0  0  0  0  0  0  0  0  0  0
   -5.0074   20.7819  -31.3288 H   0  0  0  0  0  0  0  0  0  0  0  0
  1  2  1  0
  2  3  1  0
  3  4  1  0
  4  5  2  0
  4  6  1  0
  6  7  1  0
  7  8  1  0
  8  9  1  0
  9 10  1  0
 10 11  2  0
 10 12  1  0
 12 13  1  0
 13 14  1  0
 14 15  2  0
 14 16  2  0
 14 17  1  0
 17 18  2  0
 18 19  1  0
 19 20  2  0
 20 21  1  0
 20 22  1  0
 22 23  2  0
  9 24  1  0
 24 25  1  0
 25  6  1  0
 23 17  1  0
  1 26  1  0
  1 27  1  0
  1 28  1  0
  2 29  1  0
  2 30  1  0
  7 31  1  0
  7 32  1  0
  8 33  1  0
  8 34  1  0
 12 35  1  0
 12 36  1  0
 18 37  1  0
 19 38  1  0
 22 39  1  0
 23 40  1  0
 24 41  1  0
 24 42  1  0
 25 43  1  0
 25 44  1  0
M  CHG  1  13  -1
M  END
>  <UniqueID>  (8) 
8

>  <SMILES>  (8) 
CCOC(=O)N1CCN(C(=O)C[N-]S(=O)(=O)c2ccc(Br)cc2)CC1

>  <Energy>  (8) 
35.684536489172466

>  <Genealogy>  (8) 
CCOC(=O)N1CCN(C(=O)C[N-]S(=O)(=O)c2ccc(Br)cc2)CC1 (protonated)
CCOC(=O)N1CCN(C(=O)C[N-]S(=O)(=O)c2ccc(Br)cc2)CC1 (3D coordinates assigned)
CCOC(=O)N1CCN(C(=O)C[N-]S(=O)(=O)c2ccc(Br)cc2)CC1 (nonaromatic ring conformer: 35.684536489172466 kcal/mol)

>  <smiles>  (8) 
CCOC(=O)N1CCN(C(=O)CNS(=O)(=O)c2ccc(Br)cc2)CC1

>  <score_type>  (8) 
oracle

>  <origin>  (8) 
adg

>  <m_score__min__energy>  (8) 
-9.6099999999999994

>  <m_primary>  (8) 
energy

$$$$
8:0
     RDKit          3D

 38 40  0  0  0  0  0  0  0  0999 V2000
   -6.1510   25.6590  -29.6890 C   0  0  0  0  0  0  0  0  0  0  0  0
   -4.9420   24.9170  -30.8280 S   0  0  0  0  0  0  0  0  0  0  0  0
   -6.0650   23.6260  -31.3670 C   0  0  0  0  0  0  0  0  0  0  0  0
   -7.4410   23.7680  -31.1660 C   0  0  0  0  0  0  0  0  0  0  0  0
   -8.3150   22.7590  -31.5740 C   0  0  0  0  0  0  0  0  0  0  0  0
   -7.8170   21.6080  -32.1930 C   0  0  0  0  0  0  0  0  0  0  0  0
   -6.4360   21.4590  -32.4200 C   0  0  0  0  0  0  0  0  0  0  0  0
   -5.9270   20.2220  -33.0680 C   0  0  0  0  0  0  0  0  0  0  0  0
   -4.6790   20.0360  -33.1010 O   0  0  0  0  0  0  0  0  0  0  0  0
   -6.8250   19.2650  -33.6910 N   0  0  2  0  0  0  0  0  0  0  0  0
   -7.6310   18.5010  -32.7110 C   0  0  0  0  0  0  0  0  0  0  0  0
   -6.8120   17.5000  -31.8750 C   0  0  0  0  0  0  0  0  0  0  0  0
   -5.7100   16.8300  -32.6530 C   0  0  0  0  0  0  0  0  0  0  0  0
   -4.9990   15.7760  -32.0550 C   0  0  0  0  0  0  0  0  0  0  0  0
   -3.9380   15.1680  -32.7290 C   0  0  0  0  0  0  0  0  0  0  0  0
   -3.5740   15.6090  -34.0020 C   0  0  0  0  0  0  0  0  0  0  0  0
   -4.2680   16.6600  -34.6030 C   0  0  0  0  0  0  0  0  0  0  0  0
   -5.3270   17.2910  -33.9280 C   0  0  0  0  0  0  0  0  0  0  0  0
   -6.1090   18.3750  -34.6280 C   0  0  0  0  0  0  0  0  0  0  0  0
   -5.5630   22.4780  -31.9920 C   0  0  0  0  0  0  0  0  0  0  0  0
   -5.8413   25.4689  -28.6508 H   0  0  0  0  0  0  0  0  0  0  0  0
   -6.2016   26.7438  -29.8638 H   0  0  0  0  0  0  0  0  0  0  0  0
   -7.1412   25.2129  -29.8638 H   0  0  0  0  0  0  0  0  0  0  0  0
   -7.8354   24.6757  -30.6859 H   0  0  0  0  0  0  0  0  0  0  0  0
   -9.3969   22.8693  -31.4084 H   0  0  0  0  0  0  0  0  0  0  0  0
   -8.5101   20.8129  -32.5049 H   0  0  0  0  0  0  0  0  0  0  0  0
   -7.5280   19.7970  -34.2550 H   0  0  0  0  0  0  0  0  0  0  0  0
   -8.1100   19.2150  -32.0249 H   0  0  0  0  0  0  0  0  0  0  0  0
   -8.3615   17.9138  -33.2869 H   0  0  0  0  0  0  0  0  0  0  0  0
   -6.3626   18.0390  -31.0280 H   0  0  0  0  0  0  0  0  0  0  0  0
   -7.5033   16.7101  -31.5462 H   0  0  0  0  0  0  0  0  0  0  0  0
   -5.2798   15.4278  -31.0501 H   0  0  0  0  0  0  0  0  0  0  0  0
   -3.3886   14.3407  -32.2561 H   0  0  0  0  0  0  0  0  0  0  0  0
   -2.7391   15.1276  -34.5323 H   0  0  0  0  0  0  0  0  0  0  0  0
   -3.9845   16.9966  -35.6111 H   0  0  0  0  0  0  0  0  0  0  0  0
   -5.4114   18.9815  -35.2242 H   0  0  0  0  0  0  0  0  0  0  0  0
   -6.8647   17.8823  -35.2574 H   0  0  0  0  0  0  0  0  0  0  0  0
   -4.4796   22.3713  -32.1498 H   0  0  0  0  0  0  0  0  0  0  0  0
  1  2  1  0
  2  3  1  0
  3  4  2  0
  4  5  1  0
  5  6  2  0
  6  7  1  0
  7  8  1  0
  8  9  2  0
  8 10  1  0
 10 11  1  0
 11 12  1  0
 12 13  1  0
 13 14  2  0
 14 15  1  0
 15 16  2  0
 16 17  1  0
 17 18  2  0
 18 19  1  0
  7 20  2  0
 20  3  1  0
 19 10  1  0
 18 13  1  0
  1 21  1  0
  1 22  1  0
  1 23  1  0
  4 24  1  0
  5 25  1  0
  6 26  1  0
 10 27  1  6
 11 28  1  0
 11 29  1  0
 12 30  1  0
 12 31  1  0
 14 32  1  0
 15 33  1  0
 16 34  1  0
 17 35  1  0
 19 36  1  0
 19 37  1  0
 20 38  1  0
M  CHG  1  10   1
M  END
>  <UniqueID>  (9) 
9

>  <SMILES>  (9) 
CSc1cccc(C(=O)[N@@H+]2CCc3ccccc3C2)c1

>  <Energy>  (9) 
47.25927385808632

>  <Genealogy>  (9) 
CSc1cccc(C(=O)[NH+]2CCc3ccccc3C2)c1 (protonated)
CSc1cccc(C(=O)[N@@H+]2CCc3ccccc3C2)c1 (chirality)
CSc1cccc(C(=O)[N@@H+]2CCc3ccccc3C2)c1 (3D coordinates assigned)
CSc1cccc(C(=O)[N@@H+]2CCc3ccccc3C2)c1 (nonaromatic ring conformer: 47.25927385808632 kcal/mol)

>  <smiles>  (9) 
CSc1cccc(C(=O)N2CCc3ccccc3C2)c1

>  <score_type>  (9) 
oracle

>  <origin>  (9) 
adg

>  <m_score__min__energy>  (9) 
-7.7000000000000002

>  <m_primary>  (9) 
energy

$$$$
9:0
     RDKit          3D

 47 49  0  0  0  0  0  0  0  0999 V2000
   -8.0800   19.0160  -31.7340 C   0  0  0  0  0  0  0  0  0  0  0  0
   -6.7230   18.9420  -32.1550 O   0  0  0  0  0  0  0  0  0  0  0  0
   -6.1710   17.8860  -32.8980 C   0  0  0  0  0  0  0  0  0  0  0  0
   -6.8660   16.6780  -33.1140 C   0  0  0  0  0  0  0  0  0  0  0  0
   -6.2910   15.6610  -33.8810 C   0  0  0  0  0  0  0  0  0  0  0  0
   -5.0210   15.8330  -34.4350 C   0  0  0  0  0  0  0  0  0  0  0  0
   -4.3210   17.0210  -34.2210 C   0  0  0  0  0  0  0  0  0  0  0  0
   -4.8870   18.0480  -33.4530 C   0  0  0  0  0  0  0  0  0  0  0  0
   -4.1670   19.2740  -33.2680 N   0  0  0  0  0  0  0  0  0  0  0  0
   -4.9020   20.5280  -33.4920 C   0  0  0  0  0  0  0  0  0  0  0  0
   -4.1430   21.7960  -33.0460 C   0  0  0  0  0  0  0  0  0  0  0  0
   -3.1010   21.5370  -32.0330 N   0  0  0  0  0  0  0  0  0  0  0  0
   -3.6210   21.1370  -30.7310 C   0  0  0  0  0  0  0  0  0  0  0  0
   -4.1190   20.0320  -30.5590 O   0  0  0  0  0  0  0  0  0  0  0  0
   -3.5210   22.0610  -29.5500 C   0  0  0  0  0  0  0  0  0  0  0  0
   -3.1840   23.4030  -30.0250 N   0  0  0  0  0  0  0  0  0  0  0  0
   -4.5790   24.4360  -30.0040 S   0  0  0  0  0  0  0  0  0  0  0  0
   -4.8580   24.8460  -28.5860 O   0  0  0  0  0  0  0  0  0  0  0  0
   -4.3520   25.6730  -30.8300 O   0  0  0  0  0  0  0  0  0  0  0  0
   -5.9580   23.5480  -30.6270 C   0  0  0  0  0  0  0  0  0  0  0  0
   -6.7660   22.6890  -29.8990 C   0  0  0  0  0  0  0  0  0  0  0  0
   -7.8270   22.1690  -30.6540 C   0  0  0  0  0  0  0  0  0  0  0  0
   -7.8470   22.6160  -31.9680 C   0  0  0  0  0  0  0  0  0  0  0  0
   -6.5530   23.6670  -32.1940 S   0  0  0  0  0  0  0  0  0  0  0  0
   -2.1340   20.5610  -32.5630 C   0  0  0  0  0  0  0  0  0  0  0  0
   -2.7710   19.1900  -32.8090 C   0  0  0  0  0  0  0  0  0  0  0  0
   -8.1233   19.0184  -30.6349 H   0  0  0  0  0  0  0  0  0  0  0  0
   -8.5340   19.9402  -32.1208 H   0  0  0  0  0  0  0  0  0  0  0  0
   -8.6318   18.1466  -32.1208 H   0  0  0  0  0  0  0  0  0  0  0  0
   -7.8653   16.5356  -32.6768 H   0  0  0  0  0  0  0  0  0  0  0  0
   -6.8403   14.7228  -34.0486 H   0  0  0  0  0  0  0  0  0  0  0  0
   -4.5721   15.0317  -35.0404 H   0  0  0  0  0  0  0  0  0  0  0  0
   -3.3198   17.1523  -34.6573 H   0  0  0  0  0  0  0  0  0  0  0  0
   -5.1161   20.6147  -34.5675 H   0  0  0  0  0  0  0  0  0  0  0  0
   -5.8134   20.4735  -32.8784 H   0  0  0  0  0  0  0  0  0  0  0  0
   -3.6649   22.2437  -33.9297 H   0  0  0  0  0  0  0  0  0  0  0  0
   -4.8816   22.4675  -32.5838 H   0  0  0  0  0  0  0  0  0  0  0  0
   -2.5910   22.4430  -31.8920 H   0  0  0  0  0  0  0  0  0  0  0  0
   -4.4844   22.0881  -29.0199 H   0  0  0  0  0  0  0  0  0  0  0  0
   -2.7413   21.7028  -28.8617 H   0  0  0  0  0  0  0  0  0  0  0  0
   -6.5933   22.4414  -28.8412 H   0  0  0  0  0  0  0  0  0  0  0  0
   -8.5731   21.4726  -30.2437 H   0  0  0  0  0  0  0  0  0  0  0  0
   -8.5846   22.3310  -32.7326 H   0  0  0  0  0  0  0  0  0  0  0  0
   -1.7326   20.9408  -33.5141 H   0  0  0  0  0  0  0  0  0  0  0  0
   -1.3380   20.4339  -31.8145 H   0  0  0  0  0  0  0  0  0  0  0  0
   -2.1823   18.6631  -33.5744 H   0  0  0  0  0  0  0  0  0  0  0  0
   -2.7740   18.6535  -31.8487 H   0  0  0  0  0  0  0  0  0  0  0  0
  1  2  1  0
  2  3  1  0
  3  4  2  0
  4  5  1  0
  5  6  2  0
  6  7  1  0
  7  8  2  0
  8  9  1  0
  9 10  1  0
 10 11  1  0
 11 12  1  0
 12 13  1  0
 13 14  2  0
 13 15  1  0
 15 16  1  0
 16 17  1  0
 17 18  2  0
 17 19  2  0
 17 20  1  0
 20 21  2  0
 21 22  1  0
 22 23  2  0
 23 24  1  0
 12 25  1  0
 25 26  1  0
  8  3  1  0
 26  9  1  0
 24 20  1  0
  1 27  1  0
  1 28  1  0
  1 29  1  0
  4 30  1  0
  5 31  1  0
  6 32  1  0
  7 33  1  0
 10 34  1  0
 10 35  1  0
 11 36  1  0
 11 37  1  0
 12 38  1  0
 15 39  1  0
 15 40  1  0
 21 41  1  0
 22 42  1  0
 23 43  1  0
 25 44  1  0
 25 45  1  0
 26 46  1  0
 26 47  1  0
M  CHG  2  12   1  16  -1
M  END
>  <UniqueID>  (10) 
10

>  <SMILES>  (10) 
COc1ccccc1N1CC[NH+](C(=O)C[N-]S(=O)(=O)c2cccs2)CC1

>  <Energy>  (10) 
84.23581391038046

>  <Genealogy>  (10) 
COc1ccccc1N1CC[NH+](C(=O)C[N-]S(=O)(=O)c2cccs2)CC1 (protonated)
COc1ccccc1N1CC[NH+](C(=O)C[N-]S(=O)(=O)c2cccs2)CC1 (3D coordinates assigned)
COc1ccccc1N1CC[NH+](C(=O)C[N-]S(=O)(=O)c2cccs2)CC1 (nonaromatic ring conformer: 84.23581391038046 kcal/mol)

>  <smiles>  (10) 
COc1ccccc1N1CCN(C(=O)CNS(=O)(=O)c2cccs2)CC1

>  <score_type>  (10) 
oracle

>  <origin>  (10) 
adg

>  <m_score__min__energy>  (10) 
-7.79

>  <m_primary>  (10) 
energy

$$$$
10:0
     RDKit          3D

 21 22  0  0  0  0  0  0  0  0999 V2000
   -4.2340   25.6410  -30.8340 O   0  0  0  0  0  0  0  0  0  0  0  0
   -5.3660   25.2110  -30.4880 C   0  0  0  0  0  0  0  0  0  0  0  0
   -5.9330   23.9700  -31.0590 C   0  0  0  0  0  0  0  0  0  0  0  0
   -7.3310   23.7990  -31.0570 C   0  0  0  0  0  0  0  0  0  0  0  0
   -7.9050   22.6410  -31.5870 C   0  0  0  0  0  0  0  0  0  0  0  0
   -7.0630   21.6640  -32.1160 C   0  0  0  0  0  0  0  0  0  0  0  0
   -5.7300   21.8300  -32.1190 N   0  0  0  0  0  0  0  0  0  0  0  0
   -5.1290   22.9440  -31.6110 C   0  0  0  0  0  0  0  0  0  0  0  0
   -3.8720   23.0490  -31.6380 O   0  0  0  0  0  0  0  0  0  0  0  0
   -5.0540   20.6930  -32.7170 C   0  0  0  0  0  0  0  0  0  0  0  0
   -6.1760   19.7200  -33.1230 C   0  0  0  0  0  0  0  0  0  0  0  0
   -7.5000   20.3840  -32.7160 C   0  0  0  0  0  0  0  0  0  0  0  0
   -5.9478   25.7726  -29.7422 H   0  0  0  0  0  0  0  0  0  0  0  0
   -7.9760   24.5836  -30.6347 H   0  0  0  0  0  0  0  0  0  0  0  0
   -8.9963   22.5032  -31.5869 H   0  0  0  0  0  0  0  0  0  0  0  0
   -4.4788   21.0077  -33.6002 H   0  0  0  0  0  0  0  0  0  0  0  0
   -4.3402   20.2281  -32.0211 H   0  0  0  0  0  0  0  0  0  0  0  0
   -6.1554   19.5487  -34.2094 H   0  0  0  0  0  0  0  0  0  0  0  0
   -6.0531   18.7443  -32.6301 H   0  0  0  0  0  0  0  0  0  0  0  0
   -8.1408   20.5574  -33.5931 H   0  0  0  0  0  0  0  0  0  0  0  0
   -8.1000   19.7676  -32.0303 H   0  0  0  0  0  0  0  0  0  0  0  0
  1  2  2  0
  2  3  1  0
  3  4  2  0
  4  5  1  0
  5  6  2  0
  6  7  1  0
  7  8  1  0
  8  9  2  0
  7 10  1  0
 10 11  1  0
 11 12  1  0
  8  3  1  0
 12  6  1  0
  2 13  1  0
  4 14  1  0
  5 15  1  0
 10 16  1  0
 10 17  1  0
 11 18  1  0
 11 19  1  0
 12 20  1  0
 12 21  1  0
M  END
>  <UniqueID>  (11) 
11

>  <SMILES>  (11) 
O=Cc1ccc2n(c1=O)CCC2

>  <Energy>  (11) 
30.04437575425414

>  <Genealogy>  (11) 
O=Cc1ccc2n(c1=O)CCC2 (3D coordinates assigned)
O=Cc1ccc2n(c1=O)CCC2 (nonaromatic ring conformer: 30.04437575425414 kcal/mol)

>  <smiles>  (11) 
O=Cc1ccc2n(c1=O)CCC2

>  <score_type>  (11) 
oracle

>  <origin>  (11) 
adg

>  <m_score__min__energy>  (11) 
-6.1100000000000003

>  <m_primary>  (11) 
energy

$$$$
11:0
     RDKit          3D

 34 35  0  0  0  0  0  0  0  0999 V2000
   -9.2051   20.7330  -32.3912 H   0  0  0  0  0  0  0  0  0  0  0  0
   -8.2580   21.2530  -32.1850 C   0  0  0  0  0  0  0  0  0  0  0  0
   -7.0590   20.7530  -32.7080 C   0  0  0  0  0  0  0  0  0  0  0  0
   -7.0665   19.8414  -33.3235 H   0  0  0  0  0  0  0  0  0  0  0  0
   -5.8510   21.4110  -32.4490 C   0  0  0  0  0  0  0  0  0  0  0  0
   -4.9096   21.0172  -32.8597 H   0  0  0  0  0  0  0  0  0  0  0  0
   -5.8440   22.5700  -31.6670 C   0  0  0  0  0  0  0  0  0  0  0  0
   -4.6820   23.2240  -31.4060 N   0  0  0  0  0  0  0  0  0  0  0  0
   -4.6490   24.3580  -30.6560 C   0  0  0  0  0  0  0  0  0  0  0  0
   -3.4930   24.9230  -30.4380 N   0  0  0  0  0  0  0  0  0  0  0  0
   -2.5770   24.6970  -29.3550 C   0  0  0  0  0  0  0  0  0  0  0  0
   -1.8670   25.6360  -28.9040 O   0  0  0  0  0  0  0  0  0  0  0  0
   -2.3610   23.2970  -28.8550 C   0  0  0  0  0  0  0  0  0  0  0  0
   -3.0506   23.1102  -28.0186 H   0  0  0  0  0  0  0  0  0  0  0  0
   -1.3111   23.2120  -28.5380 H   0  0  0  0  0  0  0  0  0  0  0  0
   -2.6010   22.2750  -29.9100 N   0  0  2  0  0  0  0  0  0  0  0  0
   -3.3350   22.6080  -30.5790 H   0  0  0  0  0  0  0  0  0  0  0  0
   -3.1280   21.0450  -29.2880 C   0  0  0  0  0  0  0  0  0  0  0  0
   -3.0868   21.1412  -28.1930 H   0  0  0  0  0  0  0  0  0  0  0  0
   -4.1706   20.8922  -29.6037 H   0  0  0  0  0  0  0  0  0  0  0  0
   -2.5195   20.1847  -29.6037 H   0  0  0  0  0  0  0  0  0  0  0  0
   -1.3670   21.9410  -30.6680 C   0  0  0  0  0  0  0  0  0  0  0  0
   -0.8735   21.0899  -30.1760 H   0  0  0  0  0  0  0  0  0  0  0  0
   -0.7318   22.8391  -30.6726 H   0  0  0  0  0  0  0  0  0  0  0  0
   -1.6410   21.5680  -32.1280 C   0  0  0  0  0  0  0  0  0  0  0  0
   -2.2919   20.6820  -32.1641 H   0  0  0  0  0  0  0  0  0  0  0  0
   -2.1378   22.4088  -32.6342 H   0  0  0  0  0  0  0  0  0  0  0  0
   -0.6901   21.3454  -32.6342 H   0  0  0  0  0  0  0  0  0  0  0  0
   -5.8600   24.8470  -30.1170 C   0  0  0  0  0  0  0  0  0  0  0  0
   -5.8611   25.7515  -29.4910 H   0  0  0  0  0  0  0  0  0  0  0  0
   -7.0240   24.1940  -30.3760 N   0  0  0  0  0  0  0  0  0  0  0  0
   -7.0490   23.0720  -31.1410 C   0  0  0  0  0  0  0  0  0  0  0  0
   -8.2550   22.4120  -31.4010 C   0  0  0  0  0  0  0  0  0  0  0  0
   -9.1977   22.8029  -30.9904 H   0  0  0  0  0  0  0  0  0  0  0  0
  1  2  1  0
  2  3  2  0
  3  4  1  0
  3  5  1  0
  5  6  1  0
  5  7  2  0
  7  8  1  0
  8  9  1  0
  9 10  2  0
 10 11  1  0
 11 12  2  0
 11 13  1  0
 13 14  1  0
 13 15  1  0
 13 16  1  0
 16 17  1  6
 16 18  1  0
 18 19  1  0
 18 20  1  0
 18 21  1  0
 16 22  1  0
 22 23  1  0
 22 24  1  0
 22 25  1  0
 25 26  1  0
 25 27  1  0
 25 28  1  0
  9 29  1  0
 29 30  1  0
 29 31  2  0
 31 32  1  0
 32 33  2  0
 33 34  1  0
 33  2  1  0
 32  7  1  0
M  CHG  2   8  -1  16   1
M  END
>  <UniqueID>  (12) 
12

>  <SMILES>  (12) 
CC[N@@H+](C)CC(=O)/N=c1\cnc2ccccc2[n-]1

>  <Energy>  (12) 
46.105125850371024

>  <Genealogy>  (12) 
CC[NH+](C)CC(=O)N=c1cnc2ccccc2[n-]1 (protonated)
CC[N@@H+](C)CC(=O)N=c1cnc2ccccc2[n-]1 (chirality)
CC[N@@H+](C)CC(=O)/N=c1\cnc2ccccc2[n-]1 (cis-trans isomerization)
CC[N@@H+](C)CC(=O)/N=c1\cnc2ccccc2[n-]1 (3D coordinates assigned)
CC[N@@H+](C)CC(=O)/N=c1\cnc2ccccc2[n-]1 (optimized conformer: 46.105125850371024 kcal/mol)

>  <smiles>  (12) 
CCN(C)CC(=O)N=c1cnc2ccccc2[nH]1

>  <score_type>  (12) 
oracle

>  <origin>  (12) 
adg

>  <m_score__min__energy>  (12) 
-6.9800000000000004

>  <m_primary>  (12) 
energy

$$$$
12:0
     RDKit          3D

 38 40  0  0  0  0  0  0  0  0999 V2000
   -1.2230   25.6990  -27.8110 C   0  0  0  0  0  0  0  0  0  0  0  0
   -2.1330   24.6980  -28.3960 N   0  0  0  0  0  0  0  0  0  0  0  0
   -3.3050   24.5340  -27.5190 C   0  0  0  0  0  0  0  0  0  0  0  0
   -1.4480   23.4010  -28.5850 C   0  0  0  0  0  0  0  0  0  0  0  0
   -1.3530   23.0510  -30.0730 C   0  0  0  0  0  0  0  0  0  0  0  0
   -2.4910   21.6870  -30.4970 S   0  0  0  0  0  0  0  0  0  0  0  0
   -3.8330   22.7590  -31.0040 C   0  0  0  0  0  0  0  0  0  0  0  0
   -3.8500   24.0910  -30.8140 N   0  0  0  0  0  0  0  0  0  0  0  0
   -4.9980   24.5200  -31.3120 N   0  0  0  0  0  0  0  0  0  0  0  0
   -5.6330   23.4310  -31.7870 C   0  0  0  0  0  0  0  0  0  0  0  0
   -6.9850   23.4540  -32.4190 C   0  0  0  0  0  0  0  0  0  0  0  0
   -7.7490   22.2800  -32.0030 N   0  0  0  0  0  0  0  0  0  0  0  0
   -8.8970   22.2680  -31.2800 C   0  0  0  0  0  0  0  0  0  0  0  0
   -9.4160   21.0220  -31.1200 N   0  0  0  0  0  0  0  0  0  0  0  0
   -8.5440   20.2420  -31.7860 C   0  0  0  0  0  0  0  0  0  0  0  0
   -8.6030   18.8600  -31.9640 C   0  0  0  0  0  0  0  0  0  0  0  0
   -7.5870   18.2540  -32.7270 C   0  0  0  0  0  0  0  0  0  0  0  0
   -6.5520   19.0360  -33.2900 C   0  0  0  0  0  0  0  0  0  0  0  0
   -6.5220   20.4290  -33.0930 C   0  0  0  0  0  0  0  0  0  0  0  0
   -7.5430   20.9940  -32.3260 C   0  0  0  0  0  0  0  0  0  0  0  0
   -4.9250   22.3440  -31.5970 O   0  0  0  0  0  0  0  0  0  0  0  0
   -1.2735   25.6434  -26.7136 H   0  0  0  0  0  0  0  0  0  0  0  0
   -0.1936   25.4962  -28.1414 H   0  0  0  0  0  0  0  0  0  0  0  0
   -1.5227   26.7045  -28.1414 H   0  0  0  0  0  0  0  0  0  0  0  0
   -2.9852   24.5787  -26.4675 H   0  0  0  0  0  0  0  0  0  0  0  0
   -4.0270   25.3399  -27.7173 H   0  0  0  0  0  0  0  0  0  0  0  0
   -3.7780   23.5609  -27.7173 H   0  0  0  0  0  0  0  0  0  0  0  0
   -0.4340   23.4633  -28.1632 H   0  0  0  0  0  0  0  0  0  0  0  0
   -2.0265   22.6176  -28.0736 H   0  0  0  0  0  0  0  0  0  0  0  0
   -1.6160   23.9375  -30.6688 H   0  0  0  0  0  0  0  0  0  0  0  0
   -0.3239   22.7308  -30.2932 H   0  0  0  0  0  0  0  0  0  0  0  0
   -7.5176   24.3647  -32.1077 H   0  0  0  0  0  0  0  0  0  0  0  0
   -6.8732   23.4440  -33.5133 H   0  0  0  0  0  0  0  0  0  0  0  0
   -9.3609   23.1751  -30.8652 H   0  0  0  0  0  0  0  0  0  0  0  0
   -9.4157   18.2639  -31.5233 H   0  0  0  0  0  0  0  0  0  0  0  0
   -7.5983   17.1656  -32.8862 H   0  0  0  0  0  0  0  0  0  0  0  0
   -5.7646   18.5518  -33.8863 H   0  0  0  0  0  0  0  0  0  0  0  0
   -5.7242   21.0496  -33.5269 H   0  0  0  0  0  0  0  0  0  0  0  0
  1  2  1  0
  2  3  1  0
  2  4  1  0
  4  5  1  0
  5  6  1  0
  6  7  1  0
  7  8  2  0
  8  9  1  0
  9 10  2  0
 10 11  1  0
 11 12  1  0
 12 13  1  0
 13 14  2  0
 14 15  1  0
 15 16  2  0
 16 17  1  0
 17 18  2  0
 18 19  1  0
 19 20  2  0
 10 21  1  0
 21  7  1  0
 20 12  1  0
 20 15  1  0
  1 22  1  0
  1 23  1  0
  1 24  1  0
  3 25  1  0
  3 26  1  0
  3 27  1  0
  4 28  1  0
  4 29  1  0
  5 30  1  0
  5 31  1  0
 11 32  1  0
 11 33  1  0
 13 34  1  0
 16 35  1  0
 17 36  1  0
 18 37  1  0
 19 38  1  0
M  END
>  <UniqueID>  (13) 
13

>  <SMILES>  (13) 
CN(C)CCSc1nnc(Cn2cnc3ccccc32)o1

>  <Energy>  (13) 
105.46176022886007

>  <Genealogy>  (13) 
CN(C)CCSc1nnc(Cn2cnc3ccccc32)o1 (3D coordinates assigned)
CN(C)CCSc1nnc(Cn2cnc3ccccc32)o1 (optimized conformer: 105.46176022886007 kcal/mol)

>  <smiles>  (13) 
CN(C)CCSc1nnc(Cn2cnc3ccccc32)o1

>  <score_type>  (13) 
oracle

>  <origin>  (13) 
adg

>  <m_score__min__energy>  (13) 
-7.54

>  <m_primary>  (13) 
energy

$$$$
13:0
     RDKit          3D

 32 34  0  0  1  0  0  0  0  0999 V2000
   -5.3240   25.6810  -30.4700 C   0  0  0  0  0  0  0  0  0  0  0  0
   -3.9750   25.3040  -30.4880 O   0  0  0  0  0  0  0  0  0  0  0  0
   -3.4940   24.0890  -29.9660 C   0  0  0  0  0  0  0  0  0  0  0  0
   -2.8340   24.1010  -28.7530 C   0  0  0  0  0  0  0  0  0  0  0  0
   -2.3570   22.9280  -28.2290 C   0  0  0  0  0  0  0  0  0  0  0  0
   -2.5470   21.7400  -28.9330 C   0  0  0  0  0  0  0  0  0  0  0  0
   -3.2030   21.7140  -30.1440 C   0  0  0  0  0  0  0  0  0  0  0  0
   -3.6850   22.8960  -30.6730 C   0  0  0  0  0  0  0  0  0  0  0  0
   -4.3740   22.9630  -31.9180 N   0  0  0  0  0  0  0  0  0  0  0  0
   -5.1850   22.0670  -32.3490 C   0  0  0  0  0  0  0  0  0  0  0  0
   -4.6920   20.9530  -33.0280 C   0  0  0  0  0  0  0  0  0  0  0  0
   -5.6020   20.0200  -33.4700 C   0  0  0  0  0  0  0  0  0  0  0  0
   -5.1540   18.7880  -34.2120 C   0  0  0  0  0  0  0  0  0  0  0  0
   -6.9260   20.2120  -33.2360 N   0  0  0  0  0  0  0  0  0  0  0  0
   -7.3340   21.3080  -32.5750 C   0  0  0  0  0  0  0  0  0  0  0  0
   -8.6180   21.6410  -32.2630 N   0  0  0  0  0  0  0  0  0  0  0  0
   -8.4970   22.8240  -31.6050 C   0  0  0  0  0  0  0  0  0  0  0  0
   -7.2000   23.1760  -31.5290 N   0  0  0  0  0  0  0  0  0  0  0  0
   -6.4920   22.2520  -32.1190 N   0  0  0  0  0  0  0  0  0  0  0  0
   -5.6643   25.7761  -29.4283 H   0  0  0  0  0  0  0  0  0  0  0  0
   -5.4418   26.6465  -30.9838 H   0  0  0  0  0  0  0  0  0  0  0  0
   -5.9253   24.9165  -30.9838 H   0  0  0  0  0  0  0  0  0  0  0  0
   -2.6919   25.0472  -28.2102 H   0  0  0  0  0  0  0  0  0  0  0  0
   -1.8300   22.9240  -27.2635 H   0  0  0  0  0  0  0  0  0  0  0  0
   -2.1634   20.7995  -28.5108 H   0  0  0  0  0  0  0  0  0  0  0  0
   -3.3413   20.7650  -30.6827 H   0  0  0  0  0  0  0  0  0  0  0  0
   -3.6138   20.8246  -33.2040 H   0  0  0  0  0  0  0  0  0  0  0  0
   -4.8704   18.0080  -33.4901 H   0  0  0  0  0  0  0  0  0  0  0  0
   -5.9763   18.4212  -34.8439 H   0  0  0  0  0  0  0  0  0  0  0  0
   -4.2882   19.0351  -34.8439 H   0  0  0  0  0  0  0  0  0  0  0  0
   -7.6170   19.4860  -33.5810 H   0  0  0  0  0  0  0  0  0  0  0  0
   -9.3348   23.4073  -31.1953 H   0  0  0  0  0  0  0  0  0  0  0  0
  1  2  1  0
  2  3  1  0
  3  4  2  0
  4  5  1  0
  5  6  2  0
  6  7  1  0
  7  8  2  0
  8  9  1  0
  9 10  2  0
 10 11  1  0
 11 12  2  0
 12 13  1  0
 12 14  1  0
 14 15  1  0
 15 16  2  0
 16 17  1  0
 17 18  2  0
 18 19  1  0
  8  3  1  0
 19 10  1  0
 19 15  1  0
  1 20  1  0
  1 21  1  0
  1 22  1  0
  4 23  1  0
  5 24  1  0
  6 25  1  0
  7 26  1  0
 11 27  1  0
 13 28  1  0
 13 29  1  0
 13 30  1  0
 14 31  1  0
 17 32  1  0
M  END
>  <smiles>  (14) 
COc1ccccc1N=c1cc(C)[nH]c2ncnn12

>  <score_type>  (14) 
oracle

>  <origin>  (14) 
adg

>  <m_score__min__energy>  (14) 
-7.1600000000000001

>  <m_primary>  (14) 
energy

$$$$
14:0
     RDKit          3D

 23 23  0  0  0  0  0  0  0  0999 V2000
   -3.8370   24.1710  -27.4530 C   0  0  0  0  0  0  0  0  0  0  0  0
   -3.6410   23.4090  -28.5310 C   0  0  0  0  0  0  0  0  0  0  0  0
   -2.8610   23.9230  -29.7080 C   0  0  0  0  0  0  0  0  0  0  0  0
   -3.7260   24.5580  -30.6490 O   0  0  0  0  0  0  0  0  0  0  0  0
   -5.0080   24.0760  -30.9410 C   0  0  0  0  0  0  0  0  0  0  0  0
   -5.2000   23.0960  -31.9390 C   0  0  0  0  0  0  0  0  0  0  0  0
   -4.1220   22.6570  -32.7720 N   0  0  0  0  0  0  0  0  0  0  0  0
   -6.4860   22.5900  -32.1510 C   0  0  0  0  0  0  0  0  0  0  0  0
   -7.5590   23.0760  -31.4090 C   0  0  0  0  0  0  0  0  0  0  0  0
   -7.3400   24.0780  -30.4660 C   0  0  0  0  0  0  0  0  0  0  0  0
   -6.0870   24.5680  -30.2530 N   0  0  0  0  0  0  0  0  0  0  0  0
   -5.9320   25.5710  -29.3180 O   0  0  0  0  0  0  0  0  0  0  0  0
   -4.4103   23.7797  -26.5997 H   0  0  0  0  0  0  0  0  0  0  0  0
   -3.4252   25.1904  -27.4178 H   0  0  0  0  0  0  0  0  0  0  0  0
   -4.0561   22.3907  -28.5583 H   0  0  0  0  0  0  0  0  0  0  0  0
   -2.1142   24.6501  -29.3564 H   0  0  0  0  0  0  0  0  0  0  0  0
   -2.3650   23.0740  -30.2011 H   0  0  0  0  0  0  0  0  0  0  0  0
   -3.1670   22.4890  -32.3840 H   0  0  0  0  0  0  0  0  0  0  0  0
   -4.2440   22.5860  -33.8060 H   0  0  0  0  0  0  0  0  0  0  0  0
   -6.6502   21.8065  -32.9054 H   0  0  0  0  0  0  0  0  0  0  0  0
   -8.5703   22.6727  -31.5658 H   0  0  0  0  0  0  0  0  0  0  0  0
   -8.1867   24.4770  -29.8882 H   0  0  0  0  0  0  0  0  0  0  0  0
   -5.0200   25.8750  -28.9980 H   0  0  0  0  0  0  0  0  0  0  0  0
  1  2  2  0
  2  3  1  0
  3  4  1  0
  4  5  1  0
  5  6  2  0
  6  7  1  0
  6  8  1  0
  8  9  2  0
  9 10  1  0
 10 11  2  0
 11 12  1  0
 11  5  1  0
  1 13  1  0
  1 14  1  0
  2 15  1  0
  3 16  1  0
  3 17  1  0
  7 18  1  0
  7 19  1  0
  8 20  1  0
  9 21  1  0
 10 22  1  0
 12 23  1  0
M  CHG  1  11   1
M  END
>  <UniqueID>  (15) 
14

>  <SMILES>  (15) 
C=CCOc1c(N)ccc[n+]1O

>  <Energy>  (15) 
25.38631827084034

>  <Genealogy>  (15) 
C=CCOc1c(N)ccc[n+]1O (protonated)
C=CCOc1c(N)ccc[n+]1O (3D coordinates assigned)
C=CCOc1c(N)ccc[n+]1O (optimized conformer: 25.38631827084034 kcal/mol)

>  <smiles>  (15) 
C=CCOc1c(N)ccc[n+]1[O-]

>  <score_type>  (15) 
oracle

>  <origin>  (15) 
adg

>  <m_score__min__energy>  (15) 
-4.1600000000000001

>  <m_primary>  (15) 
energy

$$$$
15:0
     RDKit          3D

 44 46  0  0  0  0  0  0  0  0999 V2000
   -4.4148   20.5527  -30.1385 H   0  0  0  0  0  0  0  0  0  0  0  0
   -3.5430   21.1800  -29.9010 C   0  0  0  0  0  0  0  0  0  0  0  0
   -3.1400   24.8980  -29.6690 N   0  0  0  0  0  0  0  0  0  0  0  0
   -4.2850   23.2420  -30.8420 N   0  0  0  0  0  0  0  0  0  0  0  0
   -5.4660   23.0510  -31.5120 C   0  0  0  0  0  0  0  0  0  0  0  0
   -5.9270   21.7350  -32.0150 C   0  0  0  0  0  0  0  0  0  0  0  0
   -5.1470   21.0130  -32.9530 C   0  0  0  0  0  0  0  0  0  0  0  0
   -3.8310   21.5420  -33.4640 C   0  0  0  0  0  0  0  0  0  0  0  0
   -3.1848   21.8018  -32.6126 H   0  0  0  0  0  0  0  0  0  0  0  0
   -3.3390   20.7718  -34.0761 H   0  0  0  0  0  0  0  0  0  0  0  0
   -4.0090   22.4384  -34.0761 H   0  0  0  0  0  0  0  0  0  0  0  0
   -5.6210   19.7900  -33.4500 C   0  0  0  0  0  0  0  0  0  0  0  0
   -5.0345   19.2437  -34.2034 H   0  0  0  0  0  0  0  0  0  0  0  0
   -6.8280   19.2610  -32.9980 C   0  0  0  0  0  0  0  0  0  0  0  0
   -7.1839   18.2963  -33.3888 H   0  0  0  0  0  0  0  0  0  0  0  0
   -7.5860   19.9490  -32.0530 C   0  0  0  0  0  0  0  0  0  0  0  0
   -8.5297   19.5155  -31.6903 H   0  0  0  0  0  0  0  0  0  0  0  0
   -7.1560   21.1900  -31.5600 C   0  0  0  0  0  0  0  0  0  0  0  0
   -8.0100   21.9140  -30.5520 C   0  0  0  0  0  0  0  0  0  0  0  0
   -7.6885   21.6415  -29.5359 H   0  0  0  0  0  0  0  0  0  0  0  0
   -7.9017   22.9997  -30.6920 H   0  0  0  0  0  0  0  0  0  0  0  0
   -9.0633   21.6295  -30.6920 H   0  0  0  0  0  0  0  0  0  0  0  0
   -6.2750   24.1850  -31.5910 C   0  0  0  0  0  0  0  0  0  0  0  0
   -7.2501   24.2474  -32.0963 H   0  0  0  0  0  0  0  0  0  0  0  0
   -5.5020   25.4410  -30.7800 S   0  0  0  0  0  0  0  0  0  0  0  0
   -4.1660   24.5000  -30.3630 C   0  0  0  0  0  0  0  0  0  0  0  0
   -3.3120   22.2540  -30.5930 N   0  0  0  0  0  0  0  0  0  0  0  0
   -2.8000   24.4350  -28.3240 C   0  0  0  0  0  0  0  0  0  0  0  0
   -2.2068   25.2090  -27.8149 H   0  0  0  0  0  0  0  0  0  0  0  0
   -2.2213   23.5032  -28.4066 H   0  0  0  0  0  0  0  0  0  0  0  0
   -4.0620   24.1580  -27.5140 C   0  0  0  0  0  0  0  0  0  0  0  0
   -3.8274   24.2095  -26.4405 H   0  0  0  0  0  0  0  0  0  0  0  0
   -4.8270   24.9096  -27.7586 H   0  0  0  0  0  0  0  0  0  0  0  0
   -4.4419   23.1551  -27.7586 H   0  0  0  0  0  0  0  0  0  0  0  0
   -2.6460   20.7990  -28.8030 C   0  0  0  0  0  0  0  0  0  0  0  0
   -3.1040   20.0190  -27.7830 N   0  0  0  0  0  0  0  0  0  0  0  0
   -2.3020   19.6410  -26.7520 C   0  0  0  0  0  0  0  0  0  0  0  0
   -2.7045   19.0112  -25.9449 H   0  0  0  0  0  0  0  0  0  0  0  0
   -0.9670   20.0520  -26.7170 C   0  0  0  0  0  0  0  0  0  0  0  0
   -0.3136   19.7499  -25.8852 H   0  0  0  0  0  0  0  0  0  0  0  0
   -0.4720   20.8500  -27.7490 C   0  0  0  0  0  0  0  0  0  0  0  0
    0.5770   21.1809  -27.7350 H   0  0  0  0  0  0  0  0  0  0  0  0
   -1.3110   21.2280  -28.8000 C   0  0  0  0  0  0  0  0  0  0  0  0
   -0.9280   21.8563  -29.6176 H   0  0  0  0  0  0  0  0  0  0  0  0
  1  2  1  0
  2  3  2  0
  3  4  1  0
  4  5  1  0
  5  6  1  0
  6  7  2  0
  7  8  1  0
  8  9  1  0
  8 10  1  0
  8 11  1  0
  7 12  1  0
 12 13  1  0
 12 14  2  0
 14 15  1  0
 14 16  1  0
 16 17  1  0
 16 18  2  0
 18 19  1  0
 19 20  1  0
 19 21  1  0
 19 22  1  0
  5 23  2  0
 23 24  1  0
 23 25  1  0
 25 26  1  0
 26 27  2  0
 27 28  1  0
 28 29  1  0
 28 30  1  0
 28 31  1  0
 31 32  1  0
 31 33  1  0
 31 34  1  0
  2 35  1  0
 35 36  2  0
 36 37  1  0
 37 38  1  0
 37 39  2  0
 39 40  1  0
 39 41  1  0
 41 42  1  0
 41 43  2  0
 43 44  1  0
 26  4  1  0
 43 35  1  0
 18  6  1  0
M  END
>  <UniqueID>  (16) 
15

>  <SMILES>  (16) 
CC/N=c1\scc(-c2c(C)cccc2C)n1/N=C/c1ccccn1

>  <Energy>  (16) 
85.453849311428

>  <Genealogy>  (16) 
CC/N=c1\scc(-c2c(C)cccc2C)n1/N=C/c1ccccn1 (cis-trans isomerization)
CC/N=c1\scc(-c2c(C)cccc2C)n1/N=C/c1ccccn1 (3D coordinates assigned)
CC/N=c1\scc(-c2c(C)cccc2C)n1/N=C/c1ccccn1 (optimized conformer: 85.453849311428 kcal/mol)

>  <smiles>  (16) 
CCN=c1scc(-c2c(C)cccc2C)n1N=Cc1ccccn1

>  <score_type>  (16) 
oracle

>  <origin>  (16) 
adg

>  <m_score__min__energy>  (16) 
-7.6699999999999999

>  <m_primary>  (16) 
energy

$$$$
16:0
     RDKit          3D

 40 41  0  0  0  0  0  0  0  0999 V2000
   -4.1810   20.6410  -33.4460 C   0  0  0  0  0  0  0  0  0  0  0  0
   -5.0990   19.4540  -33.4600 C   0  0  0  0  0  0  0  0  0  0  0  0
   -4.7140   18.2610  -34.0900 C   0  0  0  0  0  0  0  0  0  0  0  0
   -5.5890   17.1750  -34.1150 C   0  0  0  0  0  0  0  0  0  0  0  0
   -6.8490   17.2910  -33.5110 C   0  0  0  0  0  0  0  0  0  0  0  0
   -7.2290   18.4630  -32.9090 N   0  0  0  0  0  0  0  0  0  0  0  0
   -8.5390   18.5550  -32.2450 C   0  0  0  0  0  0  0  0  0  0  0  0
   -8.5820   19.7650  -31.3080 C   0  0  0  0  0  0  0  0  0  0  0  0
   -9.2820   20.9590  -31.9690 C   0  0  0  0  0  0  0  0  0  0  0  0
   -8.7860   22.3130  -31.4210 C   0  0  0  0  0  0  0  0  0  0  0  0
   -7.6900   22.9830  -32.2840 C   0  0  0  0  0  0  0  0  0  0  0  0
   -6.5820   23.5750  -31.4480 C   0  0  0  0  0  0  0  0  0  0  0  0
   -6.8670   24.5510  -30.4740 C   0  0  0  0  0  0  0  0  0  0  0  0
   -5.8510   25.0430  -29.6480 C   0  0  0  0  0  0  0  0  0  0  0  0
   -4.5470   24.5470  -29.7730 C   0  0  0  0  0  0  0  0  0  0  0  0
   -4.2550   23.5680  -30.7380 C   0  0  0  0  0  0  0  0  0  0  0  0
   -5.2650   23.0900  -31.5780 C   0  0  0  0  0  0  0  0  0  0  0  0
   -6.3800   19.5380  -32.8880 C   0  0  0  0  0  0  0  0  0  0  0  0
   -3.9626   20.9234  -32.4055 H   0  0  0  0  0  0  0  0  0  0  0  0
   -3.2433   20.3854  -33.9611 H   0  0  0  0  0  0  0  0  0  0  0  0
   -4.6642   21.4843  -33.9611 H   0  0  0  0  0  0  0  0  0  0  0  0
   -3.7241   18.1822  -34.5633 H   0  0  0  0  0  0  0  0  0  0  0  0
   -5.2930   16.2354  -34.6045 H   0  0  0  0  0  0  0  0  0  0  0  0
   -7.5388   16.4342  -33.5201 H   0  0  0  0  0  0  0  0  0  0  0  0
   -9.3247   18.6598  -33.0077 H   0  0  0  0  0  0  0  0  0  0  0  0
   -8.7030   17.6418  -31.6541 H   0  0  0  0  0  0  0  0  0  0  0  0
   -9.1287   19.4906  -30.3938 H   0  0  0  0  0  0  0  0  0  0  0  0
   -7.5482   20.0569  -31.0713 H   0  0  0  0  0  0  0  0  0  0  0  0
   -9.0901   20.9251  -33.0516 H   0  0  0  0  0  0  0  0  0  0  0  0
  -10.3563   20.8817  -31.7457 H   0  0  0  0  0  0  0  0  0  0  0  0
   -9.6453   22.9972  -31.3624 H   0  0  0  0  0  0  0  0  0  0  0  0
   -8.3350   22.1104  -30.4384 H   0  0  0  0  0  0  0  0  0  0  0  0
   -7.2594   22.2273  -32.9574 H   0  0  0  0  0  0  0  0  0  0  0  0
   -8.1604   23.8028  -32.8468 H   0  0  0  0  0  0  0  0  0  0  0  0
   -7.8941   24.9286  -30.3620 H   0  0  0  0  0  0  0  0  0  0  0  0
   -6.0758   25.8186  -28.9011 H   0  0  0  0  0  0  0  0  0  0  0  0
   -3.7504   24.9243  -29.1149 H   0  0  0  0  0  0  0  0  0  0  0  0
   -3.2310   23.1776  -30.8324 H   0  0  0  0  0  0  0  0  0  0  0  0
   -5.0314   22.3338  -32.3420 H   0  0  0  0  0  0  0  0  0  0  0  0
   -6.7048   20.4780  -32.4179 H   0  0  0  0  0  0  0  0  0  0  0  0
  1  2  1  0
  2  3  2  0
  3  4  1  0
  4  5  2  0
  5  6  1  0
  6  7  1  0
  7  8  1  0
  8  9  1  0
  9 10  1  0
 10 11  1  0
 11 12  1  0
 12 13  2  0
 13 14  1  0
 14 15  2  0
 15 16  1  0
 16 17  2  0
  6 18  2  0
 18  2  1  0
 17 12  1  0
  1 19  1  0
  1 20  1  0
  1 21  1  0
  3 22  1  0
  4 23  1  0
  5 24  1  0
  7 25  1  0
  7 26  1  0
  8 27  1  0
  8 28  1  0
  9 29  1  0
  9 30  1  0
 10 31  1  0
 10 32  1  0
 11 33  1  0
 11 34  1  0
 13 35  1  0
 14 36  1  0
 15 37  1  0
 16 38  1  0
 17 39  1  0
 18 40  1  0
M  CHG  1   6   1
M  END
>  <UniqueID>  (17) 
16

>  <SMILES>  (17) 
Cc1ccc[n+](CCCCCc2ccccc2)c1

>  <Energy>  (17) 
33.421868576469215

>  <Genealogy>  (17) 
Cc1ccc[n+](CCCCCc2ccccc2)c1 (3D coordinates assigned)
Cc1ccc[n+](CCCCCc2ccccc2)c1 (optimized conformer: 33.421868576469215 kcal/mol)

>  <smiles>  (17) 
Cc1ccc[n+](CCCCCc2ccccc2)c1

>  <score_type>  (17) 
oracle

>  <origin>  (17) 
adg

>  <m_score__min__energy>  (17) 
-6.6900000000000004

>  <m_primary>  (17) 
energy

$$$$
17:0
     RDKit          3D

 51 53  0  0  0  0  0  0  0  0999 V2000
   -5.7270   18.1760  -35.1900 C   0  0  0  0  0  0  0  0  0  0  0  0
   -5.6040   17.4260  -33.9010 C   0  0  0  0  0  0  0  0  0  0  0  0
   -4.5560   16.6240  -33.6160 N   0  0  0  0  0  0  0  0  0  0  0  0
   -4.8270   16.1490  -32.3830 C   0  0  0  0  0  0  0  0  0  0  0  0
   -6.0230   16.6690  -31.9400 C   0  0  0  0  0  0  0  0  0  0  0  0
   -6.5040   17.4820  -32.8940 N   0  0  0  0  0  0  0  0  0  0  0  0
   -7.7830   18.1910  -32.8610 C   0  0  0  0  0  0  0  0  0  0  0  0
   -7.7430   19.3080  -31.8130 C   0  0  0  0  0  0  0  0  0  0  0  0
   -7.0650   20.5030  -32.3650 N   0  0  0  0  0  0  0  0  0  0  0  0
   -5.5900   20.3020  -32.4450 C   0  0  0  0  0  0  0  0  0  0  0  0
   -4.7790   21.5760  -32.7800 C   0  0  0  0  0  0  0  0  0  0  0  0
   -4.8420   22.6670  -31.6860 C   0  0  0  0  0  0  0  0  0  0  0  0
   -5.8950   23.6650  -31.9770 N   0  0  0  0  0  0  0  0  0  0  0  0
   -6.1170   24.5700  -30.8310 C   0  0  0  0  0  0  0  0  0  0  0  0
   -4.8260   24.8000  -30.1020 C   0  0  0  0  0  0  0  0  0  0  0  0
   -3.8550   25.3150  -30.7200 O   0  0  0  0  0  0  0  0  0  0  0  0
   -4.7060   24.4480  -28.7150 N   0  0  0  0  0  0  0  0  0  0  0  0
   -3.4510   24.3100  -28.0280 C   0  0  0  0  0  0  0  0  0  0  0  0
   -2.3870   23.6450  -28.6520 C   0  0  0  0  0  0  0  0  0  0  0  0
   -1.1570   23.5270  -28.0040 C   0  0  0  0  0  0  0  0  0  0  0  0
   -0.9940   24.0910  -26.7370 C   0  0  0  0  0  0  0  0  0  0  0  0
   -2.0250   24.7570  -26.1520 N   0  0  0  0  0  0  0  0  0  0  0  0
   -3.2350   24.8820  -26.7610 C   0  0  0  0  0  0  0  0  0  0  0  0
   -7.1700   23.0350  -32.3870 C   0  0  0  0  0  0  0  0  0  0  0  0
   -7.5000   21.7230  -31.6440 C   0  0  0  0  0  0  0  0  0  0  0  0
   -5.9017   19.2414  -34.9791 H   0  0  0  0  0  0  0  0  0  0  0  0
   -4.7985   18.0643  -35.7692 H   0  0  0  0  0  0  0  0  0  0  0  0
   -6.5712   17.7736  -35.7692 H   0  0  0  0  0  0  0  0  0  0  0  0
   -4.1901   15.4527  -31.8176 H   0  0  0  0  0  0  0  0  0  0  0  0
   -6.5010   16.4553  -30.9726 H   0  0  0  0  0  0  0  0  0  0  0  0
   -7.9814   18.6284  -33.8506 H   0  0  0  0  0  0  0  0  0  0  0  0
   -8.5802   17.4804  -32.5973 H   0  0  0  0  0  0  0  0  0  0  0  0
   -8.7710   19.5737  -31.5258 H   0  0  0  0  0  0  0  0  0  0  0  0
   -7.1866   18.9543  -30.9325 H   0  0  0  0  0  0  0  0  0  0  0  0
   -5.2433   19.9214  -31.4729 H   0  0  0  0  0  0  0  0  0  0  0  0
   -5.4178   19.5986  -33.2730 H   0  0  0  0  0  0  0  0  0  0  0  0
   -3.7267   21.2889  -32.9220 H   0  0  0  0  0  0  0  0  0  0  0  0
   -5.2260   22.0086  -33.6872 H   0  0  0  0  0  0  0  0  0  0  0  0
   -5.0581   22.1909  -30.7182 H   0  0  0  0  0  0  0  0  0  0  0  0
   -3.8723   23.1856  -31.6588 H   0  0  0  0  0  0  0  0  0  0  0  0
   -6.5056   25.5320  -31.1964 H   0  0  0  0  0  0  0  0  0  0  0  0
   -6.8433   24.1114  -30.1438 H   0  0  0  0  0  0  0  0  0  0  0  0
   -5.5840   24.3380  -28.1590 H   0  0  0  0  0  0  0  0  0  0  0  0
   -2.5219   23.2149  -29.6554 H   0  0  0  0  0  0  0  0  0  0  0  0
   -0.3239   22.9949  -28.4865 H   0  0  0  0  0  0  0  0  0  0  0  0
   -0.0318   23.9965  -26.2124 H   0  0  0  0  0  0  0  0  0  0  0  0
   -4.0465   25.4316  -26.2616 H   0  0  0  0  0  0  0  0  0  0  0  0
   -7.9837   23.7510  -32.1991 H   0  0  0  0  0  0  0  0  0  0  0  0
   -7.0646   22.7757  -33.4508 H   0  0  0  0  0  0  0  0  0  0  0  0
   -7.0003   21.7439  -30.6643 H   0  0  0  0  0  0  0  0  0  0  0  0
   -8.5952   21.6706  -31.5562 H   0  0  0  0  0  0  0  0  0  0  0  0
  1  2  1  0
  2  3  2  0
  3  4  1  0
  4  5  2  0
  5  6  1  0
  6  7  1  0
  7  8  1  0
  8  9  1  0
  9 10  1  0
 10 11  1  0
 11 12  1  0
 12 13  1  0
 13 14  1  0
 14 15  1  0
 15 16  2  0
 15 17  1  0
 17 18  1  0
 18 19  2  0
 19 20  1  0
 20 21  2  0
 21 22  1  0
 22 23  2  0
 13 24  1  0
 24 25  1  0
  6  2  1  0
 25  9  1  0
 23 18  1  0
  1 26  1  0
  1 27  1  0
  1 28  1  0
  4 29  1  0
  5 30  1  0
  7 31  1  0
  7 32  1  0
  8 33  1  0
  8 34  1  0
 10 35  1  0
 10 36  1  0
 11 37  1  0
 11 38  1  0
 12 39  1  0
 12 40  1  0
 14 41  1  0
 14 42  1  0
 17 43  1  0
 19 44  1  0
 20 45  1  0
 21 46  1  0
 23 47  1  0
 24 48  1  0
 24 49  1  0
 25 50  1  0
 25 51  1  0
M  END
>  <UniqueID>  (18) 
17

>  <SMILES>  (18) 
Cc1nccn1CCN1CCCN(CC(=O)Nc2cccnc2)CC1

>  <Energy>  (18) 
98.40922064678465

>  <Genealogy>  (18) 
Cc1nccn1CCN1CCCN(CC(=O)Nc2cccnc2)CC1 (3D coordinates assigned)
Cc1nccn1CCN1CCCN(CC(=O)Nc2cccnc2)CC1 (nonaromatic ring conformer: 98.40922064678465 kcal/mol)

>  <smiles>  (18) 
Cc1nccn1CCN1CCCN(CC(=O)Nc2cccnc2)CC1

>  <score_type>  (18) 
oracle

>  <origin>  (18) 
adg

>  <m_score__min__energy>  (18) 
-6.4900000000000002

>  <m_primary>  (18) 
energy

$$$$
18:0
     RDKit          3D

 43 45  0  0  0  0  0  0  0  0999 V2000
   -7.9080   18.2340  -32.4170 C   0  0  0  0  0  0  0  0  0  0  0  0
   -7.9470   19.7260  -32.2750 C   0  0  0  0  0  0  0  0  0  0  0  0
   -9.1570   20.3690  -31.9710 C   0  0  0  0  0  0  0  0  0  0  0  0
   -9.1960   21.7540  -31.8020 C   0  0  0  0  0  0  0  0  0  0  0  0
   -8.0270   22.5090  -31.9270 C   0  0  0  0  0  0  0  0  0  0  0  0
   -6.8060   21.8790  -32.2130 C   0  0  0  0  0  0  0  0  0  0  0  0
   -5.5330   22.6800  -32.2840 C   0  0  0  0  0  0  0  0  0  0  0  0
   -5.6200   24.1470  -31.1970 S   0  0  0  0  0  0  0  0  0  0  0  0
   -3.9940   23.9020  -30.4900 C   0  0  0  0  0  0  0  0  0  0  0  0
   -3.3590   24.9280  -29.8720 N   0  0  0  0  0  0  0  0  0  0  0  0
   -2.1370   24.7590  -29.3060 C   0  0  0  0  0  0  0  0  0  0  0  0
   -1.5790   25.7430  -28.7540 O   0  0  0  0  0  0  0  0  0  0  0  0
   -1.5120   23.4950  -29.3380 C   0  0  0  0  0  0  0  0  0  0  0  0
   -0.1400   23.2980  -28.7370 C   0  0  0  0  0  0  0  0  0  0  0  0
   -2.1940   22.4410  -29.9930 C   0  0  0  0  0  0  0  0  0  0  0  0
   -1.6260   21.0510  -30.1240 C   0  0  0  0  0  0  0  0  0  0  0  0
   -1.8010   20.2680  -28.8490 C   0  0  0  0  0  0  0  0  0  0  0  0
   -2.9590   20.4360  -28.0710 C   0  0  0  0  0  0  0  0  0  0  0  0
   -3.1220   19.7140  -26.8840 C   0  0  0  0  0  0  0  0  0  0  0  0
   -2.1310   18.8220  -26.4660 C   0  0  0  0  0  0  0  0  0  0  0  0
   -0.9740   18.6530  -27.2300 C   0  0  0  0  0  0  0  0  0  0  0  0
   -0.8070   19.3730  -28.4170 C   0  0  0  0  0  0  0  0  0  0  0  0
   -3.4080   22.6830  -30.5550 N   0  0  0  0  0  0  0  0  0  0  0  0
   -6.7700   20.4850  -32.3790 C   0  0  0  0  0  0  0  0  0  0  0  0
   -7.8959   17.7709  -31.4193 H   0  0  0  0  0  0  0  0  0  0  0  0
   -8.7976   17.8947  -32.9679 H   0  0  0  0  0  0  0  0  0  0  0  0
   -7.0019   17.9417  -32.9679 H   0  0  0  0  0  0  0  0  0  0  0  0
  -10.0791   19.7786  -31.8654 H   0  0  0  0  0  0  0  0  0  0  0  0
  -10.1489   22.2521  -31.5699 H   0  0  0  0  0  0  0  0  0  0  0  0
   -8.0638   23.6011  -31.8008 H   0  0  0  0  0  0  0  0  0  0  0  0
   -4.6914   22.0467  -31.9667 H   0  0  0  0  0  0  0  0  0  0  0  0
   -5.3904   23.0200  -33.3204 H   0  0  0  0  0  0  0  0  0  0  0  0
   -0.2154   23.3088  -27.6396 H   0  0  0  0  0  0  0  0  0  0  0  0
    0.2695   22.3318  -29.0669 H   0  0  0  0  0  0  0  0  0  0  0  0
    0.5248   24.1099  -29.0669 H   0  0  0  0  0  0  0  0  0  0  0  0
   -2.1444   20.5272  -30.9406 H   0  0  0  0  0  0  0  0  0  0  0  0
   -0.5500   21.1333  -30.3370 H   0  0  0  0  0  0  0  0  0  0  0  0
   -3.7406   21.1382  -28.3967 H   0  0  0  0  0  0  0  0  0  0  0  0
   -4.0309   19.8486  -26.2792 H   0  0  0  0  0  0  0  0  0  0  0  0
   -2.2622   18.2523  -25.5342 H   0  0  0  0  0  0  0  0  0  0  0  0
   -0.1934   17.9528  -26.8976 H   0  0  0  0  0  0  0  0  0  0  0  0
    0.1062   19.2384  -29.0153 H   0  0  0  0  0  0  0  0  0  0  0  0
   -5.8139   19.9844  -32.5918 H   0  0  0  0  0  0  0  0  0  0  0  0
  1  2  1  0
  2  3  2  0
  3  4  1  0
  4  5  2  0
  5  6  1  0
  6  7  1  0
  7  8  1  0
  8  9  1  0
  9 10  2  0
 10 11  1  0
 11 12  2  0
 11 13  1  0
 13 14  1  0
 13 15  2  0
 15 16  1  0
 16 17  1  0
 17 18  2  0
 18 19  1  0
 19 20  2  0
 20 21  1  0
 21 22  2  0
 15 23  1  0
  6 24  2  0
 24  2  1  0
 23  9  1  0
 22 17  1  0
  1 25  1  0
  1 26  1  0
  1 27  1  0
  3 28  1  0
  4 29  1  0
  5 30  1  0
  7 31  1  0
  7 32  1  0
 14 33  1  0
 14 34  1  0
 14 35  1  0
 16 36  1  0
 16 37  1  0
 18 38  1  0
 19 39  1  0
 20 40  1  0
 21 41  1  0
 22 42  1  0
 24 43  1  0
M  CHG  1  23  -1
M  END
>  <UniqueID>  (19) 
18

>  <SMILES>  (19) 
Cc1cccc(CSc2nc(=O)c(C)c(Cc3ccccc3)[n-]2)c1

>  <Energy>  (19) 
40.601267445515624

>  <Genealogy>  (19) 
Cc1cccc(CSc2nc(=O)c(C)c(Cc3ccccc3)[n-]2)c1 (protonated)
Cc1cccc(CSc2nc(=O)c(C)c(Cc3ccccc3)[n-]2)c1 (3D coordinates assigned)
Cc1cccc(CSc2nc(=O)c(C)c(Cc3ccccc3)[n-]2)c1 (optimized conformer: 40.601267445515624 kcal/mol)

>  <smiles>  (19) 
Cc1cccc(CSc2nc(=O)c(C)c(Cc3ccccc3)[nH]2)c1

>  <score_type>  (19) 
oracle

>  <origin>  (19) 
adg

>  <m_score__min__energy>  (19) 
-9.9600000000000009

>  <m_primary>  (19) 
energy

$$$$
19:0
     RDKit          3D

 34 37  0  0  0  0  0  0  0  0999 V2000
   -3.1140   24.0960  -31.5880 H   0  0  0  0  0  0  0  0  0  0  0  0
   -3.5970   23.1690  -31.5840 N   0  0  0  0  0  0  0  0  0  0  0  0
   -4.8880   23.0770  -31.5950 C   0  0  0  0  0  0  0  0  0  0  0  0
   -5.6480   24.1680  -31.3140 N   0  0  0  0  0  0  0  0  0  0  0  0
   -7.0010   24.1060  -31.3290 C   0  0  0  0  0  0  0  0  0  0  0  0
   -7.5960   25.0030  -31.1022 H   0  0  0  0  0  0  0  0  0  0  0  0
   -7.6400   22.9010  -31.6330 C   0  0  0  0  0  0  0  0  0  0  0  0
   -9.0380   22.8190  -31.6790 C   0  0  0  0  0  0  0  0  0  0  0  0
   -9.6485   23.7081  -31.4626 H   0  0  0  0  0  0  0  0  0  0  0  0
   -9.6550   21.6110  -31.9990 C   0  0  0  0  0  0  0  0  0  0  0  0
  -10.7525   21.5516  -32.0436 H   0  0  0  0  0  0  0  0  0  0  0  0
   -8.8870   20.4770  -32.2630 C   0  0  0  0  0  0  0  0  0  0  0  0
   -9.3850   19.5301  -32.5186 H   0  0  0  0  0  0  0  0  0  0  0  0
   -7.4840   20.5310  -32.2060 C   0  0  0  0  0  0  0  0  0  0  0  0
   -6.7230   19.2840  -32.4430 C   0  0  0  0  0  0  0  0  0  0  0  0
   -6.7830   18.2320  -31.5150 C   0  0  0  0  0  0  0  0  0  0  0  0
   -7.3845   18.3435  -30.6008 H   0  0  0  0  0  0  0  0  0  0  0  0
   -6.0840   17.0450  -31.7450 C   0  0  0  0  0  0  0  0  0  0  0  0
   -6.1307   16.2294  -31.0083 H   0  0  0  0  0  0  0  0  0  0  0  0
   -5.3230   16.8900  -32.9120 C   0  0  0  0  0  0  0  0  0  0  0  0
   -4.6170   15.7010  -33.1530 C   0  0  0  0  0  0  0  0  0  0  0  0
   -4.6563   14.8814  -32.4204 H   0  0  0  0  0  0  0  0  0  0  0  0
   -3.8640   15.5560  -34.3220 C   0  0  0  0  0  0  0  0  0  0  0  0
   -3.3118   14.6227  -34.5066 H   0  0  0  0  0  0  0  0  0  0  0  0
   -3.8110   16.5940  -35.2570 C   0  0  0  0  0  0  0  0  0  0  0  0
   -3.2177   16.4744  -36.1755 H   0  0  0  0  0  0  0  0  0  0  0  0
   -4.5090   17.7830  -35.0290 C   0  0  0  0  0  0  0  0  0  0  0  0
   -4.4633   18.5967  -35.7678 H   0  0  0  0  0  0  0  0  0  0  0  0
   -5.2690   17.9410  -33.8580 C   0  0  0  0  0  0  0  0  0  0  0  0
   -5.9740   19.1300  -33.6200 C   0  0  0  0  0  0  0  0  0  0  0  0
   -5.9398   19.9446  -34.3584 H   0  0  0  0  0  0  0  0  0  0  0  0
   -6.8460   21.7630  -31.9050 C   0  0  0  0  0  0  0  0  0  0  0  0
   -5.4830   21.8870  -31.8930 N   0  0  0  0  0  0  0  0  0  0  0  0
   -4.8690   21.0760  -32.1310 H   0  0  0  0  0  0  0  0  0  0  0  0
  1  2  1  0
  2  3  2  0
  3  4  1  0
  4  5  2  0
  5  6  1  0
  5  7  1  0
  7  8  2  0
  8  9  1  0
  8 10  1  0
 10 11  1  0
 10 12  2  0
 12 13  1  0
 12 14  1  0
 14 15  1  0
 15 16  2  0
 16 17  1  0
 16 18  1  0
 18 19  1  0
 18 20  2  0
 20 21  1  0
 21 22  1  0
 21 23  2  0
 23 24  1  0
 23 25  1  0
 25 26  1  0
 25 27  2  0
 27 28  1  0
 27 29  1  0
 29 30  2  0
 30 31  1  0
 14 32  2  0
 32 33  1  0
 33 34  1  0
 33  3  1  0
 32  7  1  0
 30 15  1  0
 29 20  1  0
M  END
>  <UniqueID>  (20) 
19

>  <SMILES>  (20) 
[H]/N=c1\ncc2cccc(-c3ccc4ccccc4c3)c2[nH]1

>  <Energy>  (20) 
53.891371203322684

>  <Genealogy>  (20) 
[H]/N=c1\ncc2cccc(-c3ccc4ccccc4c3)c2[nH]1 (cis-trans isomerization)
[H]/N=c1\ncc2cccc(-c3ccc4ccccc4c3)c2[nH]1 (3D coordinates assigned)
[H]/N=c1\ncc2cccc(-c3ccc4ccccc4c3)c2[nH]1 (optimized conformer: 53.891371203322684 kcal/mol)

>  <smiles>  (20) 
N=c1ncc2cccc(-c3ccc4ccccc4c3)c2[nH]1

>  <score_type>  (20) 
oracle

>  <origin>  (20) 
adg

>  <m_score__min__energy>  (20) 
-8.0999999999999996

>  <m_primary>  (20) 
energy

$$$$
20:0
     RDKit          3D

 35 37  0  0  0  0  0  0  0  0999 V2000
   -9.1570   23.4040  -32.0450 C   0  0  0  0  0  0  0  0  0  0  0  0
   -8.7420   21.9590  -31.9780 C   0  0  0  0  0  0  0  0  0  0  0  0
   -9.6640   20.9620  -32.3240 C   0  0  0  0  0  0  0  0  0  0  0  0
   -9.3000   19.6530  -32.3110 N   0  0  0  0  0  0  0  0  0  0  0  0
   -8.0410   19.2860  -31.9580 C   0  0  0  0  0  0  0  0  0  0  0  0
   -7.5590   17.5630  -31.9850 S   0  0  0  0  0  0  0  0  0  0  0  0
   -6.1150   17.9010  -32.9900 C   0  0  0  0  0  0  0  0  0  0  0  0
   -6.1100   17.5600  -34.3490 C   0  0  0  0  0  0  0  0  0  0  0  0
   -4.9780   17.8150  -35.1310 C   0  0  0  0  0  0  0  0  0  0  0  0
   -3.8520   18.4150  -34.5580 C   0  0  0  0  0  0  0  0  0  0  0  0
   -3.8570   18.7600  -33.2030 C   0  0  0  0  0  0  0  0  0  0  0  0
   -4.9880   18.5050  -32.4190 C   0  0  0  0  0  0  0  0  0  0  0  0
   -7.1360   20.2280  -31.5930 N   0  0  0  0  0  0  0  0  0  0  0  0
   -7.4500   21.5510  -31.5750 C   0  0  0  0  0  0  0  0  0  0  0  0
   -6.4030   22.5080  -31.1580 C   0  0  0  0  0  0  0  0  0  0  0  0
   -6.7470   23.6080  -30.3520 C   0  0  0  0  0  0  0  0  0  0  0  0
   -5.7720   24.5340  -29.9690 C   0  0  0  0  0  0  0  0  0  0  0  0
   -4.4510   24.3780  -30.3990 C   0  0  0  0  0  0  0  0  0  0  0  0
   -3.5070   25.2790  -30.0290 F   0  0  0  0  0  0  0  0  0  0  0  0
   -4.1060   23.3000  -31.2190 C   0  0  0  0  0  0  0  0  0  0  0  0
   -5.0780   22.3720  -31.6040 C   0  0  0  0  0  0  0  0  0  0  0  0
   -9.2709   23.8004  -31.0253 H   0  0  0  0  0  0  0  0  0  0  0  0
   -8.3885   23.9818  -32.5794 H   0  0  0  0  0  0  0  0  0  0  0  0
  -10.1150   23.4860  -32.5794 H   0  0  0  0  0  0  0  0  0  0  0  0
  -10.6894   21.2410  -32.6081 H   0  0  0  0  0  0  0  0  0  0  0  0
   -9.9960   18.9250  -32.5890 H   0  0  0  0  0  0  0  0  0  0  0  0
   -6.9965   17.0916  -34.8014 H   0  0  0  0  0  0  0  0  0  0  0  0
   -4.9737   17.5434  -36.1969 H   0  0  0  0  0  0  0  0  0  0  0  0
   -2.9625   18.6155  -35.1733 H   0  0  0  0  0  0  0  0  0  0  0  0
   -2.9713   19.2322  -32.7528 H   0  0  0  0  0  0  0  0  0  0  0  0
   -4.9916   18.7792  -31.3537 H   0  0  0  0  0  0  0  0  0  0  0  0
   -7.7878   23.7404  -30.0215 H   0  0  0  0  0  0  0  0  0  0  0  0
   -6.0446   25.3860  -29.3288 H   0  0  0  0  0  0  0  0  0  0  0  0
   -3.0676   23.1816  -31.5621 H   0  0  0  0  0  0  0  0  0  0  0  0
   -4.8041   21.5318  -32.2590 H   0  0  0  0  0  0  0  0  0  0  0  0
  1  2  1  0
  2  3  2  0
  3  4  1  0
  4  5  2  0
  5  6  1  0
  6  7  1  0
  7  8  2  0
  8  9  1  0
  9 10  2  0
 10 11  1  0
 11 12  2  0
  5 13  1  0
 13 14  2  0
 14 15  1  0
 15 16  2  0
 16 17  1  0
 17 18  2  0
 18 19  1  0
 18 20  1  0
 20 21  2  0
 14  2  1  0
 21 15  1  0
 12  7  1  0
  1 22  1  0
  1 23  1  0
  1 24  1  0
  3 25  1  0
  4 26  1  0
  8 27  1  0
  9 28  1  0
 10 29  1  0
 11 30  1  0
 12 31  1  0
 16 32  1  0
 17 33  1  0
 20 34  1  0
 21 35  1  0
M  CHG  1   4   1
M  END
>  <UniqueID>  (21) 
20

>  <SMILES>  (21) 
Cc1c[nH+]c(Sc2ccccc2)nc1-c1ccc(F)cc1

>  <Energy>  (21) 
39.749520407081306

>  <Genealogy>  (21) 
Cc1c[nH+]c(Sc2ccccc2)nc1-c1ccc(F)cc1 (protonated)
Cc1c[nH+]c(Sc2ccccc2)nc1-c1ccc(F)cc1 (3D coordinates assigned)
Cc1c[nH+]c(Sc2ccccc2)nc1-c1ccc(F)cc1 (optimized conformer: 39.749520407081306 kcal/mol)

>  <smiles>  (21) 
Cc1cnc(Sc2ccccc2)nc1-c1ccc(F)cc1

>  <score_type>  (21) 
oracle

>  <origin>  (21) 
adg

>  <m_score__min__energy>  (21) 
-7.6799999999999997

>  <m_primary>  (21) 
energy

$$$$
21:0
     RDKit          3D

 36 37  0  0  0  0  0  0  0  0999 V2000
   -6.1990   16.2510  -33.1330 C   0  0  0  0  0  0  0  0  0  0  0  0
   -6.2320   17.5820  -33.8230 C   0  0  0  0  0  0  0  0  0  0  0  0
   -5.7550   17.6670  -34.9880 O   0  0  0  0  0  0  0  0  0  0  0  0
   -6.7980   18.7460  -33.1830 N   0  0  0  0  0  0  0  0  0  0  0  0
   -6.6920   20.0670  -33.8220 C   0  0  0  0  0  0  0  0  0  0  0  0
   -6.4540   21.1790  -32.7790 C   0  0  0  0  0  0  0  0  0  0  0  0
   -7.0830   20.9030  -31.4650 N   0  0  0  0  0  0  0  0  0  0  0  0
   -7.3960   22.1290  -30.7000 C   0  0  0  0  0  0  0  0  0  0  0  0
   -6.9460   23.4300  -31.3930 C   0  0  0  0  0  0  0  0  0  0  0  0
   -5.5480   23.7110  -31.0740 N   0  0  0  0  0  0  0  0  0  0  0  0
   -4.5160   22.7130  -30.8360 C   0  0  0  0  0  0  0  0  0  0  0  0
   -3.2450   23.5170  -30.4710 C   0  0  0  0  0  0  0  0  0  0  0  0
   -3.6330   24.9240  -30.4400 N   0  0  0  0  0  0  0  0  0  0  0  0
   -4.9940   24.9810  -30.8030 C   0  0  0  0  0  0  0  0  0  0  0  0
   -5.6500   26.0550  -30.8500 O   0  0  0  0  0  0  0  0  0  0  0  0
   -8.1920   19.9380  -31.5220 C   0  0  0  0  0  0  0  0  0  0  0  0
   -7.6480   18.5900  -31.9930 C   0  0  0  0  0  0  0  0  0  0  0  0
   -6.2028   16.4026  -32.0435 H   0  0  0  0  0  0  0  0  0  0  0  0
   -7.0829   15.6648  -33.4247 H   0  0  0  0  0  0  0  0  0  0  0  0
   -5.2871   15.7093  -33.4247 H   0  0  0  0  0  0  0  0  0  0  0  0
   -5.8510   20.0553  -34.5310 H   0  0  0  0  0  0  0  0  0  0  0  0
   -7.6381   20.2770  -34.3424 H   0  0  0  0  0  0  0  0  0  0  0  0
   -5.3698   21.2896  -32.6295 H   0  0  0  0  0  0  0  0  0  0  0  0
   -6.9170   22.0958  -33.1727 H   0  0  0  0  0  0  0  0  0  0  0  0
   -8.4848   22.1752  -30.5502 H   0  0  0  0  0  0  0  0  0  0  0  0
   -6.8415   22.0640  -29.7522 H   0  0  0  0  0  0  0  0  0  0  0  0
   -7.0555   23.3189  -32.4819 H   0  0  0  0  0  0  0  0  0  0  0  0
   -7.5709   24.2623  -31.0371 H   0  0  0  0  0  0  0  0  0  0  0  0
   -4.8045   22.0511  -30.0062 H   0  0  0  0  0  0  0  0  0  0  0  0
   -4.3563   22.0712  -31.7150 H   0  0  0  0  0  0  0  0  0  0  0  0
   -2.8695   23.2055  -29.4851 H   0  0  0  0  0  0  0  0  0  0  0  0
   -2.4432   23.3438  -31.2039 H   0  0  0  0  0  0  0  0  0  0  0  0
   -8.6380   19.8279  -30.5225 H   0  0  0  0  0  0  0  0  0  0  0  0
   -8.9625   20.2950  -32.2211 H   0  0  0  0  0  0  0  0  0  0  0  0
   -7.0536   18.1404  -31.1839 H   0  0  0  0  0  0  0  0  0  0  0  0
   -8.4985   17.9434  -32.2548 H   0  0  0  0  0  0  0  0  0  0  0  0
  1  2  1  0
  2  3  2  0
  2  4  1  0
  4  5  1  0
  5  6  1  0
  6  7  1  0
  7  8  1  0
  8  9  1  0
  9 10  1  0
 10 11  1  0
 11 12  1  0
 12 13  1  0
 13 14  1  0
 14 15  2  0
  7 16  1  0
 16 17  1  0
 17  4  1  0
 14 10  1  0
  1 18  1  0
  1 19  1  0
  1 20  1  0
  5 21  1  0
  5 22  1  0
  6 23  1  0
  6 24  1  0
  8 25  1  0
  8 26  1  0
  9 27  1  0
  9 28  1  0
 11 29  1  0
 11 30  1  0
 12 31  1  0
 12 32  1  0
 16 33  1  0
 16 34  1  0
 17 35  1  0
 17 36  1  0
M  CHG  1  13  -1
M  END
>  <UniqueID>  (22) 
21

>  <SMILES>  (22) 
CC(=O)N1CCN(CCN2CC[N-]C2=O)CC1

>  <Energy>  (22) 
51.597773237288834

>  <Genealogy>  (22) 
CC(=O)N1CCN(CCN2CC[N-]C2=O)CC1 (protonated)
CC(=O)N1CCN(CCN2CC[N-]C2=O)CC1 (3D coordinates assigned)
CC(=O)N1CCN(CCN2CC[N-]C2=O)CC1 (nonaromatic ring conformer: 51.597773237288834 kcal/mol)

>  <smiles>  (22) 
CC(=O)N1CCN(CCN2CCNC2=O)CC1

>  <score_type>  (22) 
oracle

>  <origin>  (22) 
adg

>  <m_score__min__energy>  (22) 
-7.7300000000000004

>  <m_primary>  (22) 
energy

$$$$
22:0
     RDKit          3D

 54 54  0  0  0  0  0  0  0  0999 V2000
   -9.1030   19.4730  -32.3440 C   0  0  0  0  0  0  0  0  0  0  0  0
   -8.4220   20.8460  -32.3550 C   0  0  0  0  0  0  0  0  0  0  0  0
   -7.5070   21.1040  -31.1330 C   0  0  2  0  0  0  0  0  0  0  0  0
   -7.9850   22.3030  -30.2860 C   0  0  0  0  0  0  0  0  0  0  0  0
   -6.8630   23.2770  -30.3960 C   0  0  0  0  0  0  0  0  0  0  0  0
   -5.8450   22.7620  -31.0630 C   0  0  0  0  0  0  0  0  0  0  0  0
   -4.5480   23.4540  -31.1860 C   0  0  0  0  0  0  0  0  0  0  0  0
   -4.4590   24.6660  -30.8450 O   0  0  0  0  0  0  0  0  0  0  0  0
   -3.4090   22.7570  -31.5980 O   0  0  0  0  0  0  0  0  0  0  0  0
   -2.3820   22.3730  -30.6880 C   0  0  0  0  0  0  0  0  0  0  0  0
   -1.5400   21.2190  -31.2550 C   0  0  0  0  0  0  0  0  0  0  0  0
   -2.1460   20.5510  -32.4400 N   0  0  0  0  0  0  0  0  0  0  0  0
   -1.7930   21.2010  -33.7360 C   0  0  0  0  0  0  0  0  0  0  0  0
   -0.2960   21.2040  -34.0940 C   0  0  0  0  0  0  0  0  0  0  0  0
   -1.9800   19.0720  -32.4700 C   0  0  0  0  0  0  0  0  0  0  0  0
   -2.3430   18.4070  -33.8010 C   0  0  0  0  0  0  0  0  0  0  0  0
   -6.1400   21.4450  -31.5300 N   0  0  0  0  0  0  0  0  0  0  0  0
   -5.3240   20.6160  -32.3760 C   0  0  0  0  0  0  0  0  0  0  0  0
   -4.9620   21.0480  -33.5050 O   0  0  0  0  0  0  0  0  0  0  0  0
   -4.8770   19.3690  -31.9260 O   0  0  0  0  0  0  0  0  0  0  0  0
   -5.4360   18.1240  -32.3500 C   0  0  0  0  0  0  0  0  0  0  0  0
   -6.4450   17.6610  -31.3000 C   0  0  0  0  0  0  0  0  0  0  0  0
   -6.1140   18.2650  -33.7170 C   0  0  0  0  0  0  0  0  0  0  0  0
   -9.2626   19.1512  -31.3043 H   0  0  0  0  0  0  0  0  0  0  0  0
  -10.0722   19.5403  -32.8599 H   0  0  0  0  0  0  0  0  0  0  0  0
   -8.4630   18.7421  -32.8599 H   0  0  0  0  0  0  0  0  0  0  0  0
   -7.8113   20.9221  -33.2668 H   0  0  0  0  0  0  0  0  0  0  0  0
   -9.2229   21.5992  -32.3180 H   0  0  0  0  0  0  0  0  0  0  0  0
   -7.5441   20.1643  -30.5624 H   0  0  0  0  0  0  0  0  0  0  0  0
   -8.9146   22.7266  -30.6939 H   0  0  0  0  0  0  0  0  0  0  0  0
   -8.2130   22.0283  -29.2455 H   0  0  0  0  0  0  0  0  0  0  0  0
   -6.8798   24.2936  -29.9762 H   0  0  0  0  0  0  0  0  0  0  0  0
   -1.7271   23.2367  -30.5008 H   0  0  0  0  0  0  0  0  0  0  0  0
   -2.8533   22.0340  -29.7537 H   0  0  0  0  0  0  0  0  0  0  0  0
   -0.5582   21.6190  -31.5482 H   0  0  0  0  0  0  0  0  0  0  0  0
   -1.4690   20.4586  -30.4633 H   0  0  0  0  0  0  0  0  0  0  0  0
   -3.1800   20.6960  -32.3510 H   0  0  0  0  0  0  0  0  0  0  0  0
   -2.3312   20.6728  -34.5369 H   0  0  0  0  0  0  0  0  0  0  0  0
   -2.0784   22.2580  -33.6294 H   0  0  0  0  0  0  0  0  0  0  0  0
    0.3018   21.2052  -33.1706 H   0  0  0  0  0  0  0  0  0  0  0  0
   -0.0582   20.3063  -34.6836 H   0  0  0  0  0  0  0  0  0  0  0  0
   -0.0618   22.1026  -34.6836 H   0  0  0  0  0  0  0  0  0  0  0  0
   -0.9271   18.8422  -32.2497 H   0  0  0  0  0  0  0  0  0  0  0  0
   -2.6803   18.6688  -31.7237 H   0  0  0  0  0  0  0  0  0  0  0  0
   -2.8617   17.4567  -33.6066 H   0  0  0  0  0  0  0  0  0  0  0  0
   -3.0023   19.0737  -34.3762 H   0  0  0  0  0  0  0  0  0  0  0  0
   -1.4256   18.2130  -34.3762 H   0  0  0  0  0  0  0  0  0  0  0  0
   -4.6332   17.3792  -32.4535 H   0  0  0  0  0  0  0  0  0  0  0  0
   -6.0394   17.8471  -30.2946 H   0  0  0  0  0  0  0  0  0  0  0  0
   -7.3855   18.2176  -31.4248 H   0  0  0  0  0  0  0  0  0  0  0  0
   -6.6364   16.5850  -31.4248 H   0  0  0  0  0  0  0  0  0  0  0  0
   -7.1820   18.4871  -33.5754 H   0  0  0  0  0  0  0  0  0  0  0  0
   -5.6405   19.0839  -34.2784 H   0  0  0  0  0  0  0  0  0  0  0  0
   -6.0062   17.3252  -34.2784 H   0  0  0  0  0  0  0  0  0  0  0  0
  1  2  1  0
  2  3  1  0
  3  4  1  0
  4  5  1  0
  5  6  2  0
  6  7  1  0
  7  8  2  0
  7  9  1  0
  9 10  1  0
 10 11  1  0
 11 12  1  0
 12 13  1  0
 13 14  1  0
 12 15  1  0
 15 16  1  0
  6 17  1  0
 17 18  1  0
 18 19  2  0
 18 20  1  0
 20 21  1  0
 21 22  1  0
 21 23  1  0
 17  3  1  0
  1 24  1  0
  1 25  1  0
  1 26  1  0
  2 27  1  0
  2 28  1  0
  3 29  1  1
  4 30  1  0
  4 31  1  0
  5 32  1  0
 10 33  1  0
 10 34  1  0
 11 35  1  0
 11 36  1  0
 12 37  1  0
 13 38  1  0
 13 39  1  0
 14 40  1  0
 14 41  1  0
 14 42  1  0
 15 43  1  0
 15 44  1  0
 16 45  1  0
 16 46  1  0
 16 47  1  0
 21 48  1  0
 22 49  1  0
 22 50  1  0
 22 51  1  0
 23 52  1  0
 23 53  1  0
 23 54  1  0
M  CHG  1  12   1
M  END
>  <UniqueID>  (23) 
22

>  <SMILES>  (23) 
CC[C@@H]1CC=C(C(=O)OCC[NH+](CC)CC)N1C(=O)OC(C)C

>  <Energy>  (23) 
58.37455669207501

>  <Genealogy>  (23) 
CCC1CC=C(C(=O)OCC[NH+](CC)CC)N1C(=O)OC(C)C (protonated)
CC[C@@H]1CC=C(C(=O)OCC[NH+](CC)CC)N1C(=O)OC(C)C (chirality)
CC[C@@H]1CC=C(C(=O)OCC[NH+](CC)CC)N1C(=O)OC(C)C (3D coordinates assigned)
CC[C@@H]1CC=C(C(=O)OCC[NH+](CC)CC)N1C(=O)OC(C)C (nonaromatic ring conformer: 58.37455669207501 kcal/mol)

>  <smiles>  (23) 
CCC1CC=C(C(=O)OCCN(CC)CC)N1C(=O)OC(C)C

>  <score_type>  (23) 
oracle

>  <origin>  (23) 
adg

>  <m_score__min__energy>  (23) 
-5.7599999999999998

>  <m_primary>  (23) 
energy

$$$$
23:0
     RDKit          3D

 58 61  0  0  0  0  0  0  0  0999 V2000
   -1.2670   26.1440  -25.3730 C   0  0  0  0  0  0  0  0  0  0  0  0
   -1.9790   25.4780  -26.5130 C   0  0  0  0  0  0  0  0  0  0  0  0
   -3.2530   24.9180  -26.3330 C   0  0  0  0  0  0  0  0  0  0  0  0
   -3.9180   24.3210  -27.4080 C   0  0  0  0  0  0  0  0  0  0  0  0
   -3.3220   24.2870  -28.6780 C   0  0  0  0  0  0  0  0  0  0  0  0
   -4.0060   23.6710  -29.7820 N   0  0  0  0  0  0  0  0  0  0  0  0
   -3.5160   22.6970  -30.5840 C   0  0  0  0  0  0  0  0  0  0  0  0
   -2.1460   22.1010  -30.4760 C   0  0  0  0  0  0  0  0  0  0  0  0
   -4.4630   22.3240  -31.5180 C   0  0  0  0  0  0  0  0  0  0  0  0
   -5.5890   23.0910  -31.2660 C   0  0  0  0  0  0  0  0  0  0  0  0
   -6.8780   23.0010  -31.9880 C   0  0  0  0  0  0  0  0  0  0  0  0
   -7.0990   23.7600  -32.9680 O   0  0  0  0  0  0  0  0  0  0  0  0
   -7.9640   22.0680  -31.5230 C   0  0  0  0  0  0  0  0  0  0  0  0
   -8.0120   20.8580  -32.3700 N   0  0  0  0  0  0  0  0  0  0  0  0
   -8.4660   19.6890  -31.5810 C   0  0  0  0  0  0  0  0  0  0  0  0
   -8.0480   18.3740  -32.2490 C   0  0  0  0  0  0  0  0  0  0  0  0
   -6.5720   18.2440  -32.2950 N   0  0  0  0  0  0  0  0  0  0  0  0
   -6.1970   17.3380  -33.3610 C   0  0  0  0  0  0  0  0  0  0  0  0
   -6.4700   17.6230  -34.5600 O   0  0  0  0  0  0  0  0  0  0  0  0
   -5.5470   16.0460  -33.0640 C   0  0  0  0  0  0  0  0  0  0  0  0
   -5.2860   15.0430  -33.9780 C   0  0  0  0  0  0  0  0  0  0  0  0
   -4.6780   14.0370  -33.2600 C   0  0  0  0  0  0  0  0  0  0  0  0
   -4.6060   14.4850  -31.9560 C   0  0  0  0  0  0  0  0  0  0  0  0
   -5.1320   15.6850  -31.8710 O   0  0  0  0  0  0  0  0  0  0  0  0
   -5.8630   19.5480  -32.4170 C   0  0  0  0  0  0  0  0  0  0  0  0
   -6.7320   20.6270  -33.0890 C   0  0  0  0  0  0  0  0  0  0  0  0
   -5.2720   23.9230  -30.1960 C   0  0  0  0  0  0  0  0  0  0  0  0
   -6.1780   24.9570  -29.5900 C   0  0  0  0  0  0  0  0  0  0  0  0
   -2.0530   24.8570  -28.8590 C   0  0  0  0  0  0  0  0  0  0  0  0
   -1.3880   25.4530  -27.7840 C   0  0  0  0  0  0  0  0  0  0  0  0
   -1.6686   25.7684  -24.4203 H   0  0  0  0  0  0  0  0  0  0  0  0
   -0.1916   25.9201  -25.4314 H   0  0  0  0  0  0  0  0  0  0  0  0
   -1.4187   27.2319  -25.4314 H   0  0  0  0  0  0  0  0  0  0  0  0
   -3.7302   24.9489  -25.3424 H   0  0  0  0  0  0  0  0  0  0  0  0
   -4.9127   23.8760  -27.2577 H   0  0  0  0  0  0  0  0  0  0  0  0
   -1.8792   21.9849  -29.4152 H   0  0  0  0  0  0  0  0  0  0  0  0
   -2.1347   21.1166  -30.9668 H   0  0  0  0  0  0  0  0  0  0  0  0
   -1.4181   22.7638  -30.9668 H   0  0  0  0  0  0  0  0  0  0  0  0
   -4.3461   21.5666  -32.3071 H   0  0  0  0  0  0  0  0  0  0  0  0
   -7.7649   21.7725  -30.4823 H   0  0  0  0  0  0  0  0  0  0  0  0
   -8.9308   22.5878  -31.5942 H   0  0  0  0  0  0  0  0  0  0  0  0
   -8.0203   19.7389  -30.5766 H   0  0  0  0  0  0  0  0  0  0  0  0
   -9.5640   19.7151  -31.5195 H   0  0  0  0  0  0  0  0  0  0  0  0
   -8.4651   17.5321  -31.6770 H   0  0  0  0  0  0  0  0  0  0  0  0
   -8.4314   18.3688  -33.2800 H   0  0  0  0  0  0  0  0  0  0  0  0
   -6.2670   17.8260  -31.3830 H   0  0  0  0  0  0  0  0  0  0  0  0
   -5.5157   15.0471  -35.0537 H   0  0  0  0  0  0  0  0  0  0  0  0
   -4.3216   13.0712  -33.6475 H   0  0  0  0  0  0  0  0  0  0  0  0
   -4.1736   13.9220  -31.1158 H   0  0  0  0  0  0  0  0  0  0  0  0
   -5.5847   19.8945  -31.4108 H   0  0  0  0  0  0  0  0  0  0  0  0
   -4.9760   19.3902  -33.0481 H   0  0  0  0  0  0  0  0  0  0  0  0
   -6.1664   21.5701  -33.1138 H   0  0  0  0  0  0  0  0  0  0  0  0
   -6.9771   20.2749  -34.1019 H   0  0  0  0  0  0  0  0  0  0  0  0
   -6.1234   24.8947  -28.4931 H   0  0  0  0  0  0  0  0  0  0  0  0
   -5.8614   25.9586  -29.9166 H   0  0  0  0  0  0  0  0  0  0  0  0
   -7.2125   24.7748  -29.9166 H   0  0  0  0  0  0  0  0  0  0  0  0
   -1.5793   24.8347  -29.8515 H   0  0  0  0  0  0  0  0  0  0  0  0
   -0.3965   25.9045  -27.9358 H   0  0  0  0  0  0  0  0  0  0  0  0
  1  2  1  0
  2  3  2  0
  3  4  1  0
  4  5  2  0
  5  6  1  0
  6  7  1  0
  7  8  1  0
  7  9  2  0
  9 10  1  0
 10 11  1  0
 11 12  2  0
 11 13  1  0
 13 14  1  0
 14 15  1  0
 15 16  1  0
 16 17  1  0
 17 18  1  0
 18 19  2  0
 18 20  1  0
 20 21  2  0
 21 22  1  0
 22 23  2  0
 23 24  1  0
 17 25  1  0
 25 26  1  0
 10 27  2  0
 27 28  1  0
  5 29  1  0
 29 30  2  0
 30  2  1  0
 27  6  1  0
 26 14  1  0
 24 20  1  0
  1 31  1  0
  1 32  1  0
  1 33  1  0
  3 34  1  0
  4 35  1  0
  8 36  1  0
  8 37  1  0
  8 38  1  0
  9 39  1  0
 13 40  1  0
 13 41  1  0
 15 42  1  0
 15 43  1  0
 16 44  1  0
 16 45  1  0
 17 46  1  0
 21 47  1  0
 22 48  1  0
 23 49  1  0
 25 50  1  0
 25 51  1  0
 26 52  1  0
 26 53  1  0
 28 54  1  0
 28 55  1  0
 28 56  1  0
 29 57  1  0
 30 58  1  0
M  CHG  1  17   1
M  END
>  <UniqueID>  (24) 
23

>  <SMILES>  (24) 
Cc1ccc(-n2c(C)cc(C(=O)CN3CC[NH+](C(=O)c4ccco4)CC3)c2C)cc1

>  <Energy>  (24) 
132.02887911184033

>  <Genealogy>  (24) 
Cc1ccc(-n2c(C)cc(C(=O)CN3CC[NH+](C(=O)c4ccco4)CC3)c2C)cc1 (protonated)
Cc1ccc(-n2c(C)cc(C(=O)CN3CC[NH+](C(=O)c4ccco4)CC3)c2C)cc1 (3D coordinates assigned)
Cc1ccc(-n2c(C)cc(C(=O)CN3CC[NH+](C(=O)c4ccco4)CC3)c2C)cc1 (nonaromatic ring conformer: 132.02887911184033 kcal/mol)

>  <smiles>  (24) 
Cc1ccc(-n2c(C)cc(C(=O)CN3CCN(C(=O)c4ccco4)CC3)c2C)cc1

>  <score_type>  (24) 
oracle

>  <origin>  (24) 
adg

>  <m_score__min__energy>  (24) 
-9.5999999999999996

>  <m_primary>  (24) 
energy

$$$$
24:0
     RDKit          3D

 46 47  0  0  0  0  0  0  0  0999 V2000
   -4.2840   21.2300  -33.4560 C   0  0  0  0  0  0  0  0  0  0  0  0
   -2.8620   21.0540  -32.9870 C   0  0  0  0  0  0  0  0  0  0  0  0
   -2.0600   20.0770  -33.6030 C   0  0  0  0  0  0  0  0  0  0  0  0
   -0.7350   19.8920  -33.2080 C   0  0  0  0  0  0  0  0  0  0  0  0
   -0.1900   20.6800  -32.1950 C   0  0  0  0  0  0  0  0  0  0  0  0
   -0.9670   21.6620  -31.5780 C   0  0  0  0  0  0  0  0  0  0  0  0
   -2.3030   21.8760  -31.9710 C   0  0  0  0  0  0  0  0  0  0  0  0
   -3.0820   22.8880  -31.2930 N   0  0  0  0  0  0  0  0  0  0  0  0
   -2.4190   23.2800  -30.0370 C   0  0  0  0  0  0  0  0  0  0  0  0
   -3.0340   24.5620  -29.4340 C   0  0  2  0  0  0  0  0  0  0  0  0
   -3.9060   24.2550  -28.2140 C   0  0  0  0  0  0  0  0  0  0  0  0
   -3.8570   25.2320  -30.4390 N   0  0  0  0  0  0  0  0  0  0  0  0
   -5.1110   24.7240  -30.9050 C   0  0  0  0  0  0  0  0  0  0  0  0
   -5.1900   24.1320  -32.0150 O   0  0  0  0  0  0  0  0  0  0  0  0
   -6.3460   24.9440  -30.0910 C   0  0  0  0  0  0  0  0  0  0  0  0
   -7.2090   23.6790  -30.0720 C   0  0  0  0  0  0  0  0  0  0  0  0
   -7.8290   23.4180  -31.4480 C   0  0  0  0  0  0  0  0  0  0  0  0
   -8.0180   21.9500  -31.6700 C   0  0  0  0  0  0  0  0  0  0  0  0
   -7.0060   21.0060  -31.7740 C   0  0  0  0  0  0  0  0  0  0  0  0
   -7.4820   19.7190  -32.0510 C   0  0  0  0  0  0  0  0  0  0  0  0
   -8.8630   19.6500  -32.1790 C   0  0  0  0  0  0  0  0  0  0  0  0
   -9.4930   21.1920  -31.9500 S   0  0  0  0  0  0  0  0  0  0  0  0
   -4.9500   21.3124  -32.5844 H   0  0  0  0  0  0  0  0  0  0  0  0
   -4.3594   22.1443  -34.0629 H   0  0  0  0  0  0  0  0  0  0  0  0
   -4.5801   20.3616  -34.0629 H   0  0  0  0  0  0  0  0  0  0  0  0
   -2.4816   19.4524  -34.4043 H   0  0  0  0  0  0  0  0  0  0  0  0
   -0.1189   19.1229  -33.6967 H   0  0  0  0  0  0  0  0  0  0  0  0
    0.8534   20.5277  -31.8817 H   0  0  0  0  0  0  0  0  0  0  0  0
   -0.5312   22.2757  -30.7758 H   0  0  0  0  0  0  0  0  0  0  0  0
   -3.1670   23.7230  -31.9180 H   0  0  0  0  0  0  0  0  0  0  0  0
   -4.0510   22.5460  -31.1070 H   0  0  0  0  0  0  0  0  0  0  0  0
   -2.5222   22.4608  -29.3102 H   0  0  0  0  0  0  0  0  0  0  0  0
   -1.3612   23.4830  -30.2601 H   0  0  0  0  0  0  0  0  0  0  0  0
   -2.2032   25.2092  -29.1162 H   0  0  0  0  0  0  0  0  0  0  0  0
   -3.3352   24.4560  -27.2954 H   0  0  0  0  0  0  0  0  0  0  0  0
   -4.8030   24.8914  -28.2349 H   0  0  0  0  0  0  0  0  0  0  0  0
   -4.2065   23.1970  -28.2349 H   0  0  0  0  0  0  0  0  0  0  0  0
   -6.0592   25.2020  -29.0608 H   0  0  0  0  0  0  0  0  0  0  0  0
   -6.9263   25.7636  -30.5399 H   0  0  0  0  0  0  0  0  0  0  0  0
   -6.5822   22.8199  -29.7909 H   0  0  0  0  0  0  0  0  0  0  0  0
   -8.0203   23.8186  -29.3424 H   0  0  0  0  0  0  0  0  0  0  0  0
   -8.8054   23.9212  -31.5060 H   0  0  0  0  0  0  0  0  0  0  0  0
   -7.1528   23.8099  -32.2221 H   0  0  0  0  0  0  0  0  0  0  0  0
   -5.9392   21.2446  -31.6513 H   0  0  0  0  0  0  0  0  0  0  0  0
   -6.8237   18.8442  -32.1573 H   0  0  0  0  0  0  0  0  0  0  0  0
   -9.4453   18.7418  -32.3935 H   0  0  0  0  0  0  0  0  0  0  0  0
  1  2  1  0
  2  3  2  0
  3  4  1  0
  4  5  2  0
  5  6  1  0
  6  7  2  0
  7  8  1  0
  8  9  1  0
  9 10  1  0
 10 11  1  0
 10 12  1  0
 12 13  1  0
 13 14  2  0
 13 15  1  0
 15 16  1  0
 16 17  1  0
 17 18  1  0
 18 19  2  0
 19 20  1  0
 20 21  2  0
 21 22  1  0
  7  2  1  0
 22 18  1  0
  1 23  1  0
  1 24  1  0
  1 25  1  0
  3 26  1  0
  4 27  1  0
  5 28  1  0
  6 29  1  0
  8 30  1  0
  8 31  1  0
  9 32  1  0
  9 33  1  0
 10 34  1  1
 11 35  1  0
 11 36  1  0
 11 37  1  0
 15 38  1  0
 15 39  1  0
 16 40  1  0
 16 41  1  0
 17 42  1  0
 17 43  1  0
 19 44  1  0
 20 45  1  0
 21 46  1  0
M  CHG  2   8   1  12  -1
M  END
>  <UniqueID>  (25) 
24

>  <SMILES>  (25) 
Cc1ccccc1[NH2+]C[C@H](C)[N-]C(=O)CCCc1cccs1

>  <Energy>  (25) 
61.24272654144725

>  <Genealogy>  (25) 
Cc1ccccc1[NH2+]CC(C)[N-]C(=O)CCCc1cccs1 (protonated)
Cc1ccccc1[NH2+]C[C@H](C)[N-]C(=O)CCCc1cccs1 (chirality)
Cc1ccccc1[NH2+]C[C@H](C)[N-]C(=O)CCCc1cccs1 (3D coordinates assigned)
Cc1ccccc1[NH2+]C[C@H](C)[N-]C(=O)CCCc1cccs1 (optimized conformer: 61.24272654144725 kcal/mol)

>  <smiles>  (25) 
Cc1ccccc1NCC(C)NC(=O)CCCc1cccs1

>  <score_type>  (25) 
oracle

>  <origin>  (25) 
adg

>  <m_score__min__energy>  (25) 
-8.75

>  <m_primary>  (25) 
energy

$$$$
25:0
     RDKit          3D

 53 57  0  0  0  0  0  0  0  0999 V2000
   -5.5430   19.7350  -31.5130 C   0  0  0  0  0  0  0  0  0  0  0  0
   -4.6300   20.5500  -32.3140 N   0  0  0  0  0  0  0  0  0  0  0  0
   -4.5860   21.8990  -32.4240 C   0  0  0  0  0  0  0  0  0  0  0  0
   -5.4090   22.8450  -31.6450 C   0  0  0  0  0  0  0  0  0  0  0  0
   -6.7740   22.9630  -31.9540 C   0  0  0  0  0  0  0  0  0  0  0  0
   -7.6000   23.8020  -31.2060 C   0  0  0  0  0  0  0  0  0  0  0  0
   -7.0770   24.5200  -30.1320 C   0  0  0  0  0  0  0  0  0  0  0  0
   -5.7250   24.4080  -29.8060 C   0  0  0  0  0  0  0  0  0  0  0  0
   -4.8690   23.5890  -30.5660 C   0  0  0  0  0  0  0  0  0  0  0  0
   -3.4120   23.4830  -30.1790 C   0  0  0  0  0  0  0  0  0  0  0  0
   -2.6490   23.0420  -31.2450 F   0  0  0  0  0  0  0  0  0  0  0  0
   -2.9540   24.7230  -29.7740 F   0  0  0  0  0  0  0  0  0  0  0  0
   -3.6880   22.2930  -33.3490 N   0  0  0  0  0  0  0  0  0  0  0  0
   -3.1560   21.1880  -33.8420 N   0  0  0  0  0  0  0  0  0  0  0  0
   -3.7310   20.1360  -33.2320 C   0  0  0  0  0  0  0  0  0  0  0  0
   -3.4240   18.7290  -33.5610 C   0  0  0  0  0  0  0  0  0  0  0  0
   -4.4680   17.7960  -33.6390 C   0  0  0  0  0  0  0  0  0  0  0  0
   -4.2090   16.4800  -34.0340 C   0  0  0  0  0  0  0  0  0  0  0  0
   -5.2360   15.5290  -34.1210 C   0  0  0  0  0  0  0  0  0  0  0  0
   -4.9460   14.2230  -34.5280 C   0  0  0  0  0  0  0  0  0  0  0  0
   -3.6340   13.8620  -34.8510 C   0  0  0  0  0  0  0  0  0  0  0  0
   -2.6040   14.8050  -34.7680 C   0  0  0  0  0  0  0  0  0  0  0  0
   -2.8860   16.1140  -34.3610 C   0  0  0  0  0  0  0  0  0  0  0  0
   -1.8900   17.0320  -34.2770 N   0  0  0  0  0  0  0  0  0  0  0  0
   -2.1120   18.3160  -33.8850 C   0  0  0  0  0  0  0  0  0  0  0  0
   -0.9920   19.2120  -33.7760 N   0  0  0  0  0  0  0  0  0  0  0  0
   -0.2660   19.6750  -34.9610 C   0  0  0  0  0  0  0  0  0  0  0  0
   -0.0780   21.1930  -34.8750 C   0  0  0  0  0  0  0  0  0  0  0  0
    0.5110   21.5580  -33.6390 O   0  0  0  0  0  0  0  0  0  0  0  0
   -0.3670   21.2430  -32.5730 C   0  0  0  0  0  0  0  0  0  0  0  0
   -0.5780   19.7300  -32.4710 C   0  0  0  0  0  0  0  0  0  0  0  0
   -5.3482   19.9089  -30.4444 H   0  0  0  0  0  0  0  0  0  0  0  0
   -6.5818   20.0116  -31.7461 H   0  0  0  0  0  0  0  0  0  0  0  0
   -5.3856   18.6716  -31.7461 H   0  0  0  0  0  0  0  0  0  0  0  0
   -7.1951   22.3891  -32.7927 H   0  0  0  0  0  0  0  0  0  0  0  0
   -8.6651   23.8970  -31.4640 H   0  0  0  0  0  0  0  0  0  0  0  0
   -7.7316   25.1765  -29.5400 H   0  0  0  0  0  0  0  0  0  0  0  0
   -5.3241   24.9653  -28.9465 H   0  0  0  0  0  0  0  0  0  0  0  0
   -3.3211   22.7573  -29.3574 H   0  0  0  0  0  0  0  0  0  0  0  0
   -2.4330   21.1610  -34.5950 H   0  0  0  0  0  0  0  0  0  0  0  0
   -5.4948   18.1007  -33.3884 H   0  0  0  0  0  0  0  0  0  0  0  0
   -6.2692   15.8103  -33.8692 H   0  0  0  0  0  0  0  0  0  0  0  0
   -5.7521   13.4775  -34.5943 H   0  0  0  0  0  0  0  0  0  0  0  0
   -3.4113   12.8335  -35.1713 H   0  0  0  0  0  0  0  0  0  0  0  0
   -1.5731   14.5178  -35.0225 H   0  0  0  0  0  0  0  0  0  0  0  0
    0.7175   19.1843  -35.0050 H   0  0  0  0  0  0  0  0  0  0  0  0
   -0.8380   19.4240  -35.8665 H   0  0  0  0  0  0  0  0  0  0  0  0
    0.5747   21.5227  -35.6968 H   0  0  0  0  0  0  0  0  0  0  0  0
   -1.0637   21.6752  -34.9518 H   0  0  0  0  0  0  0  0  0  0  0  0
    0.0637   21.6114  -31.6303 H   0  0  0  0  0  0  0  0  0  0  0  0
   -1.3386   21.7223  -32.7633 H   0  0  0  0  0  0  0  0  0  0  0  0
    0.3619   19.2474  -32.1651 H   0  0  0  0  0  0  0  0  0  0  0  0
   -1.3569   19.5153  -31.7245 H   0  0  0  0  0  0  0  0  0  0  0  0
  1  2  1  0
  2  3  1  0
  3  4  1  0
  4  5  2  0
  5  6  1  0
  6  7  2  0
  7  8  1  0
  8  9  2  0
  9 10  1  0
 10 11  1  0
 10 12  1  0
  3 13  2  0
 13 14  1  0
 14 15  2  0
 15 16  1  0
 16 17  2  0
 17 18  1  0
 18 19  2  0
 19 20  1  0
 20 21  2  0
 21 22  1  0
 22 23  2  0
 23 24  1  0
 24 25  2  0
 25 26  1  0
 26 27  1  0
 27 28  1  0
 28 29  1  0
 29 30  1  0
 30 31  1  0
 15  2  1  0
 25 16  1  0
 31 26  1  0
  9  4  1  0
 23 18  1  0
  1 32  1  0
  1 33  1  0
  1 34  1  0
  5 35  1  0
  6 36  1  0
  7 37  1  0
  8 38  1  0
 10 39  1  0
 14 40  1  0
 17 41  1  0
 19 42  1  0
 20 43  1  0
 21 44  1  0
 22 45  1  0
 27 46  1  0
 27 47  1  0
 28 48  1  0
 28 49  1  0
 30 50  1  0
 30 51  1  0
 31 52  1  0
 31 53  1  0
M  CHG  1  14   1
M  END
>  <UniqueID>  (26) 
25

>  <SMILES>  (26) 
Cn1c(-c2ccccc2C(F)F)n[nH+]c1-c1cc2ccccc2nc1N1CCOCC1

>  <Energy>  (26) 
115.27785304550541

>  <Genealogy>  (26) 
Cn1c(-c2ccccc2C(F)F)n[nH+]c1-c1cc2ccccc2nc1N1CCOCC1 (protonated)
Cn1c(-c2ccccc2C(F)F)n[nH+]c1-c1cc2ccccc2nc1N1CCOCC1 (3D coordinates assigned)
Cn1c(-c2ccccc2C(F)F)n[nH+]c1-c1cc2ccccc2nc1N1CCOCC1 (nonaromatic ring conformer: 115.27785304550541 kcal/mol)

>  <smiles>  (26) 
Cn1c(-c2ccccc2C(F)F)nnc1-c1cc2ccccc2nc1N1CCOCC1

>  <score_type>  (26) 
oracle

>  <origin>  (26) 
adg

>  <m_score__min__energy>  (26) 
-7.6399999999999997

>  <m_primary>  (26) 
energy

$$$$
26:0
     RDKit          3D

 40 42  0  0  0  0  0  0  0  0999 V2000
   -2.0730   23.4700  -28.7430 O   0  0  0  0  0  0  0  0  0  0  0  0
   -2.2270   24.5660  -29.3430 C   0  0  0  0  0  0  0  0  0  0  0  0
   -1.5190   25.7370  -28.9160 N   0  0  0  0  0  0  0  0  0  0  0  0
   -1.2200   26.1150  -27.5650 C   0  0  0  0  0  0  0  0  0  0  0  0
   -0.3220   27.1570  -27.2600 C   0  0  0  0  0  0  0  0  0  0  0  0
   -0.0780   27.5060  -25.9280 C   0  0  0  0  0  0  0  0  0  0  0  0
   -0.7330   26.8330  -24.8940 C   0  0  0  0  0  0  0  0  0  0  0  0
   -1.6420   25.8150  -25.1900 C   0  0  0  0  0  0  0  0  0  0  0  0
   -1.8900   25.4630  -26.5220 C   0  0  0  0  0  0  0  0  0  0  0  0
   -3.1170   24.6210  -30.4610 N   0  0  0  0  0  0  0  0  0  0  0  0
   -4.5270   24.3450  -30.4530 C   0  0  0  0  0  0  0  0  0  0  0  0
   -5.4630   25.3150  -30.0460 C   0  0  0  0  0  0  0  0  0  0  0  0
   -6.8270   25.0130  -30.0200 C   0  0  0  0  0  0  0  0  0  0  0  0
   -7.2700   23.7390  -30.3840 C   0  0  0  0  0  0  0  0  0  0  0  0
   -6.3480   22.7600  -30.7590 C   0  0  0  0  0  0  0  0  0  0  0  0
   -4.9780   23.0510  -30.7760 C   0  0  0  0  0  0  0  0  0  0  0  0
   -3.8150   21.7580  -31.2430 S   0  0  0  0  0  0  0  0  0  0  0  0
   -4.6870   21.2950  -32.7830 C   0  0  0  0  0  0  0  0  0  0  0  0
   -5.7540   20.2710  -32.5110 C   0  0  0  0  0  0  0  0  0  0  0  0
   -5.4210   19.0320  -31.9370 C   0  0  0  0  0  0  0  0  0  0  0  0
   -6.4080   18.0610  -31.7390 C   0  0  0  0  0  0  0  0  0  0  0  0
   -7.7300   18.3190  -32.1090 C   0  0  0  0  0  0  0  0  0  0  0  0
   -8.0690   19.5500  -32.6790 C   0  0  0  0  0  0  0  0  0  0  0  0
   -7.0850   20.5230  -32.8800 C   0  0  0  0  0  0  0  0  0  0  0  0
    0.1882   27.6970  -28.0712 H   0  0  0  0  0  0  0  0  0  0  0  0
    0.6319   28.3130  -25.6938 H   0  0  0  0  0  0  0  0  0  0  0  0
   -0.5329   27.1047  -23.8470 H   0  0  0  0  0  0  0  0  0  0  0  0
   -2.1633   25.2896  -24.3762 H   0  0  0  0  0  0  0  0  0  0  0  0
   -2.6160   24.6690  -26.7511 H   0  0  0  0  0  0  0  0  0  0  0  0
   -5.1185   26.3159  -29.7469 H   0  0  0  0  0  0  0  0  0  0  0  0
   -7.5533   25.7797  -29.7124 H   0  0  0  0  0  0  0  0  0  0  0  0
   -8.3453   23.5073  -30.3751 H   0  0  0  0  0  0  0  0  0  0  0  0
   -6.6987   21.7566  -31.0421 H   0  0  0  0  0  0  0  0  0  0  0  0
   -5.1520   22.1925  -33.2168 H   0  0  0  0  0  0  0  0  0  0  0  0
   -3.9567   20.8628  -33.4829 H   0  0  0  0  0  0  0  0  0  0  0  0
   -4.3814   18.8254  -31.6427 H   0  0  0  0  0  0  0  0  0  0  0  0
   -6.1426   17.0921  -31.2909 H   0  0  0  0  0  0  0  0  0  0  0  0
   -8.5044   17.5537  -31.9520 H   0  0  0  0  0  0  0  0  0  0  0  0
   -9.1103   19.7531  -32.9695 H   0  0  0  0  0  0  0  0  0  0  0  0
   -7.3549   21.4901  -33.3292 H   0  0  0  0  0  0  0  0  0  0  0  0
  1  2  2  0
  2  3  1  0
  3  4  1  0
  4  5  2  0
  5  6  1  0
  6  7  2  0
  7  8  1  0
  8  9  2  0
  2 10  1  0
 10 11  1  0
 11 12  2  0
 12 13  1  0
 13 14  2  0
 14 15  1  0
 15 16  2  0
 16 17  1  0
 17 18  1  0
 18 19  1  0
 19 20  2  0
 20 21  1  0
 21 22  2  0
 22 23  1  0
 23 24  2  0
  9  4  1  0
 16 11  1  0
 24 19  1  0
  5 25  1  0
  6 26  1  0
  7 27  1  0
  8 28  1  0
  9 29  1  0
 12 30  1  0
 13 31  1  0
 14 32  1  0
 15 33  1  0
 18 34  1  0
 18 35  1  0
 20 36  1  0
 21 37  1  0
 22 38  1  0
 23 39  1  0
 24 40  1  0
M  CHG  2   3  -1  10  -1
M  END
>  <UniqueID>  (27) 
26

>  <SMILES>  (27) 
O=C([N-]c1ccccc1)[N-]c1ccccc1SCc1ccccc1

>  <Energy>  (27) 
43.98713428308879

>  <Genealogy>  (27) 
O=C([N-]c1ccccc1)[N-]c1ccccc1SCc1ccccc1 (protonated)
O=C([N-]c1ccccc1)[N-]c1ccccc1SCc1ccccc1 (3D coordinates assigned)
O=C([N-]c1ccccc1)[N-]c1ccccc1SCc1ccccc1 (optimized conformer: 43.98713428308879 kcal/mol)

>  <smiles>  (27) 
O=C(Nc1ccccc1)Nc1ccccc1SCc1ccccc1

>  <score_type>  (27) 
oracle

>  <origin>  (27) 
adg

>  <m_score__min__energy>  (27) 
-11.69

>  <m_primary>  (27) 
energy

$$$$
27:0
     RDKit          3D

 42 43  0  0  0  0  0  0  0  0999 V2000
   -7.2600   23.0680  -31.2540 C   0  0  0  0  0  0  0  0  0  0  0  0
   -6.3480   24.1320  -31.8510 C   0  0  0  0  0  0  0  0  0  0  0  0
   -4.9930   24.0180  -31.2510 N   0  0  0  0  0  0  0  0  0  0  0  0
   -4.7990   24.9770  -30.1420 C   0  0  0  0  0  0  0  0  0  0  0  0
   -6.1200   25.6480  -29.7680 C   0  0  0  0  0  0  0  0  0  0  0  0
   -4.7120   22.6390  -30.7950 C   0  0  0  0  0  0  0  0  0  0  0  0
   -4.1900   21.8070  -31.9240 C   0  0  0  0  0  0  0  0  0  0  0  0
   -3.4420   22.2910  -32.9380 N   0  0  0  0  0  0  0  0  0  0  0  0
   -3.2090   21.2540  -33.7250 N   0  0  0  0  0  0  0  0  0  0  0  0
   -3.8140   20.1890  -33.1750 C   0  0  0  0  0  0  0  0  0  0  0  0
   -3.7770   18.5340  -33.8580 S   0  0  0  0  0  0  0  0  0  0  0  0
   -5.4590   18.6230  -34.5700 C   0  0  0  0  0  0  0  0  0  0  0  0
   -6.4940   18.8840  -33.4990 C   0  0  0  0  0  0  0  0  0  0  0  0
   -7.2300   20.0830  -33.5480 C   0  0  0  0  0  0  0  0  0  0  0  0
   -8.2200   20.3490  -32.6020 C   0  0  0  0  0  0  0  0  0  0  0  0
   -8.4850   19.4290  -31.5900 C   0  0  0  0  0  0  0  0  0  0  0  0
   -7.7630   18.2350  -31.5210 C   0  0  0  0  0  0  0  0  0  0  0  0
   -6.7680   17.9450  -32.4710 C   0  0  0  0  0  0  0  0  0  0  0  0
   -5.9980   16.6550  -32.3520 C   0  0  0  0  0  0  0  0  0  0  0  0
   -4.4260   20.5210  -32.0660 O   0  0  0  0  0  0  0  0  0  0  0  0
   -7.2150   23.1205  -30.1562 H   0  0  0  0  0  0  0  0  0  0  0  0
   -8.2937   23.2421  -31.5874 H   0  0  0  0  0  0  0  0  0  0  0  0
   -6.9299   22.0731  -31.5874 H   0  0  0  0  0  0  0  0  0  0  0  0
   -6.2802   23.9878  -32.9394 H   0  0  0  0  0  0  0  0  0  0  0  0
   -6.7602   25.1293  -31.6377 H   0  0  0  0  0  0  0  0  0  0  0  0
   -4.4062   24.4405  -29.2657 H   0  0  0  0  0  0  0  0  0  0  0  0
   -4.0890   25.7521  -30.4661 H   0  0  0  0  0  0  0  0  0  0  0  0
   -6.2107   25.6941  -28.6727 H   0  0  0  0  0  0  0  0  0  0  0  0
   -6.1434   26.6672  -30.1810 H   0  0  0  0  0  0  0  0  0  0  0  0
   -6.9569   25.0657  -30.1810 H   0  0  0  0  0  0  0  0  0  0  0  0
   -3.9614   22.6698  -29.9915 H   0  0  0  0  0  0  0  0  0  0  0  0
   -5.6461   22.1902  -30.4261 H   0  0  0  0  0  0  0  0  0  0  0  0
   -2.6500   21.2830  -34.6060 H   0  0  0  0  0  0  0  0  0  0  0  0
   -5.4933   19.4379  -35.3081 H   0  0  0  0  0  0  0  0  0  0  0  0
   -5.6868   17.6579  -35.0462 H   0  0  0  0  0  0  0  0  0  0  0  0
   -7.0224   20.8174  -34.3401 H   0  0  0  0  0  0  0  0  0  0  0  0
   -8.7924   21.2868  -32.6552 H   0  0  0  0  0  0  0  0  0  0  0  0
   -9.2643   19.6431  -30.8438 H   0  0  0  0  0  0  0  0  0  0  0  0
   -7.9748   17.5155  -30.7164 H   0  0  0  0  0  0  0  0  0  0  0  0
   -5.8526   16.4115  -31.2892 H   0  0  0  0  0  0  0  0  0  0  0  0
   -6.5609   15.8456  -32.8400 H   0  0  0  0  0  0  0  0  0  0  0  0
   -5.0185   16.7663  -32.8400 H   0  0  0  0  0  0  0  0  0  0  0  0
  1  2  1  0
  2  3  1  0
  3  4  1  0
  4  5  1  0
  3  6  1  0
  6  7  1  0
  7  8  2  0
  8  9  1  0
  9 10  2  0
 10 11  1  0
 11 12  1  0
 12 13  1  0
 13 14  2  0
 14 15  1  0
 15 16  2  0
 16 17  1  0
 17 18  2  0
 18 19  1  0
 10 20  1  0
 20  7  1  0
 18 13  1  0
  1 21  1  0
  1 22  1  0
  1 23  1  0
  2 24  1  0
  2 25  1  0
  4 26  1  0
  4 27  1  0
  5 28  1  0
  5 29  1  0
  5 30  1  0
  6 31  1  0
  6 32  1  0
  9 33  1  0
 12 34  1  0
 12 35  1  0
 14 36  1  0
 15 37  1  0
 16 38  1  0
 17 39  1  0
 19 40  1  0
 19 41  1  0
 19 42  1  0
M  CHG  1   9   1
M  END
>  <UniqueID>  (28) 
27

>  <SMILES>  (28) 
CCN(CC)Cc1n[nH+]c(SCc2ccccc2C)o1

>  <Energy>  (28) 
71.21070781194636

>  <Genealogy>  (28) 
CCN(CC)Cc1n[nH+]c(SCc2ccccc2C)o1 (protonated)
CCN(CC)Cc1n[nH+]c(SCc2ccccc2C)o1 (3D coordinates assigned)
CCN(CC)Cc1n[nH+]c(SCc2ccccc2C)o1 (optimized conformer: 71.21070781194636 kcal/mol)

>  <smiles>  (28) 
CCN(CC)Cc1nnc(SCc2ccccc2C)o1

>  <score_type>  (28) 
oracle

>  <origin>  (28) 
adg

>  <m_score__min__energy>  (28) 
-7.0700000000000003

>  <m_primary>  (28) 
energy

$$$$
28:0
     RDKit          3D

 42 45  0  0  0  0  0  0  0  0999 V2000
   -0.7720   26.1160  -27.4610 C   0  0  0  0  0  0  0  0  0  0  0  0
   -1.2330   25.0240  -28.3720 C   0  0  0  0  0  0  0  0  0  0  0  0
   -0.4180   23.9140  -28.6140 C   0  0  0  0  0  0  0  0  0  0  0  0
   -0.8680   22.9050  -29.4660 C   0  0  0  0  0  0  0  0  0  0  0  0
   -2.1300   23.0030  -30.0760 C   0  0  0  0  0  0  0  0  0  0  0  0
   -2.6230   21.9370  -30.9860 C   0  0  0  0  0  0  0  0  0  0  0  0
   -1.8550   21.5280  -32.0890 C   0  0  0  0  0  0  0  0  0  0  0  0
   -2.3190   20.5240  -32.9440 C   0  0  0  0  0  0  0  0  0  0  0  0
   -3.5660   19.9190  -32.7230 C   0  0  0  0  0  0  0  0  0  0  0  0
   -4.0330   18.8510  -33.6350 C   0  0  0  0  0  0  0  0  0  0  0  0
   -3.2400   17.8700  -34.1060 N   0  0  0  0  0  0  0  0  0  0  0  0
   -4.0020   17.1290  -34.8950 N   0  0  0  0  0  0  0  0  0  0  0  0
   -3.5370   15.9250  -35.5670 C   0  0  0  0  0  0  0  0  0  0  0  0
   -5.2480   17.5710  -34.9600 N   0  0  0  0  0  0  0  0  0  0  0  0
   -5.3020   18.6540  -34.1620 C   0  0  0  0  0  0  0  0  0  0  0  0
   -6.4490   19.5780  -34.0900 C   0  0  0  0  0  0  0  0  0  0  0  0
   -7.2610   19.7220  -33.0320 C   0  0  0  0  0  0  0  0  0  0  0  0
   -7.6090   21.3540  -32.3560 S   0  0  0  0  0  0  0  0  0  0  0  0
   -8.7480   20.5680  -31.2130 C   0  0  0  0  0  0  0  0  0  0  0  0
   -9.4660   21.2280  -30.4200 O   0  0  0  0  0  0  0  0  0  0  0  0
   -8.7970   19.1500  -31.2620 N   0  0  0  0  0  0  0  0  0  0  0  0
   -7.9370   18.6600  -32.2730 C   0  0  0  0  0  0  0  0  0  0  0  0
   -7.7400   17.4280  -32.4320 O   0  0  0  0  0  0  0  0  0  0  0  0
   -4.3270   20.3130  -31.6110 C   0  0  0  0  0  0  0  0  0  0  0  0
   -3.8620   21.3160  -30.7540 C   0  0  0  0  0  0  0  0  0  0  0  0
   -2.9150   24.1370  -29.8020 C   0  0  0  0  0  0  0  0  0  0  0  0
   -2.4550   25.1060  -28.9670 N   0  0  0  0  0  0  0  0  0  0  0  0
   -0.9047   25.8016  -26.4153 H   0  0  0  0  0  0  0  0  0  0  0  0
    0.2914   26.3256  -27.6487 H   0  0  0  0  0  0  0  0  0  0  0  0
   -1.3635   27.0243  -27.6487 H   0  0  0  0  0  0  0  0  0  0  0  0
    0.5700   23.8369  -28.1365 H   0  0  0  0  0  0  0  0  0  0  0  0
   -0.2321   22.0289  -29.6611 H   0  0  0  0  0  0  0  0  0  0  0  0
   -0.8809   22.0015  -32.2814 H   0  0  0  0  0  0  0  0  0  0  0  0
   -1.7017   20.2056  -33.7970 H   0  0  0  0  0  0  0  0  0  0  0  0
   -3.2473   15.1748  -34.8165 H   0  0  0  0  0  0  0  0  0  0  0  0
   -4.3439   15.5214  -36.1963 H   0  0  0  0  0  0  0  0  0  0  0  0
   -2.6683   16.1686  -36.1963 H   0  0  0  0  0  0  0  0  0  0  0  0
   -6.6552   20.1987  -34.9744 H   0  0  0  0  0  0  0  0  0  0  0  0
   -9.3760   18.5520  -30.6320 H   0  0  0  0  0  0  0  0  0  0  0  0
   -5.2951   19.8299  -31.4124 H   0  0  0  0  0  0  0  0  0  0  0  0
   -4.4716   21.6213  -29.8908 H   0  0  0  0  0  0  0  0  0  0  0  0
   -3.9070   24.2406  -30.2660 H   0  0  0  0  0  0  0  0  0  0  0  0
  1  2  1  0
  2  3  2  0
  3  4  1  0
  4  5  2  0
  5  6  1  0
  6  7  2  0
  7  8  1  0
  8  9  2  0
  9 10  1  0
 10 11  2  0
 11 12  1  0
 12 13  1  0
 12 14  1  0
 14 15  2  0
 15 16  1  0
 16 17  2  3
 17 18  1  0
 18 19  1  0
 19 20  2  0
 19 21  1  0
 21 22  1  0
 22 23  2  0
  9 24  1  0
 24 25  2  0
  5 26  1  0
 26 27  2  0
 27  2  1  0
 25  6  1  0
 15 10  1  0
 22 17  1  0
  1 28  1  0
  1 29  1  0
  1 30  1  0
  3 31  1  0
  4 32  1  0
  7 33  1  0
  8 34  1  0
 13 35  1  0
 13 36  1  0
 13 37  1  0
 16 38  1  0
 21 39  1  0
 24 40  1  0
 25 41  1  0
 26 42  1  0
M  END
>  <UniqueID>  (29) 
28

>  <SMILES>  (29) 
Cc1ccc(-c2ccc(-c3nn(C)nc3C=C3SC(=O)NC3=O)cc2)cn1

>  <Energy>  (29) 
111.62276257792661

>  <Genealogy>  (29) 
Cc1ccc(-c2ccc(-c3nn(C)nc3C=C3SC(=O)NC3=O)cc2)cn1 (3D coordinates assigned)
Cc1ccc(-c2ccc(-c3nn(C)nc3C=C3SC(=O)NC3=O)cc2)cn1 (nonaromatic ring conformer: 111.62276257792661 kcal/mol)

>  <smiles>  (29) 
Cc1ccc(-c2ccc(-c3nn(C)nc3C=C3SC(=O)NC3=O)cc2)cn1

>  <score_type>  (29) 
oracle

>  <origin>  (29) 
adg

>  <m_score__min__energy>  (29) 
-8.7300000000000004

>  <m_primary>  (29) 
energy

$$$$
29:0
     RDKit          3D

 59 61  0  0  0  0  0  0  0  0999 V2000
    1.9200   27.1630  -23.5350 C   0  0  0  0  0  0  0  0  0  0  0  0
    1.4090   26.1310  -24.5500 C   0  0  0  0  0  0  0  0  0  0  0  0
    0.1330   25.4580  -24.1690 N   0  0  0  0  0  0  0  0  0  0  0  0
   -1.0330   26.3790  -24.1390 C   0  0  0  0  0  0  0  0  0  0  0  0
   -0.9520   27.4990  -25.1830 C   0  0  0  0  0  0  0  0  0  0  0  0
   -0.1940   24.2800  -25.0170 C   0  0  0  0  0  0  0  0  0  0  0  0
    0.4490   24.3380  -26.4160 C   0  0  0  0  0  0  0  0  0  0  0  0
   -0.4430   25.0950  -27.4060 C   0  0  0  0  0  0  0  0  0  0  0  0
   -0.1750   24.6370  -28.7790 N   0  0  0  0  0  0  0  0  0  0  0  0
   -0.5980   23.2450  -29.0160 C   0  0  0  0  0  0  0  0  0  0  0  0
   -1.1850   23.0140  -30.4240 C   0  0  0  0  0  0  0  0  0  0  0  0
   -2.6970   23.1040  -30.4420 C   0  0  0  0  0  0  0  0  0  0  0  0
   -3.3520   24.2410  -29.9270 C   0  0  0  0  0  0  0  0  0  0  0  0
   -2.6260   25.2960  -29.3840 O   0  0  0  0  0  0  0  0  0  0  0  0
   -4.7450   24.3240  -29.9550 C   0  0  0  0  0  0  0  0  0  0  0  0
   -5.5060   23.2920  -30.5050 C   0  0  0  0  0  0  0  0  0  0  0  0
   -4.8780   22.1560  -31.0470 C   0  0  0  0  0  0  0  0  0  0  0  0
   -5.6040   21.0860  -31.6220 C   0  0  0  0  0  0  0  0  0  0  0  0
   -7.0770   21.1100  -31.7790 C   0  0  0  0  0  0  0  0  0  0  0  0
   -7.7660   22.3340  -31.8400 C   0  0  0  0  0  0  0  0  0  0  0  0
   -9.1530   22.3510  -32.0140 C   0  0  0  0  0  0  0  0  0  0  0  0
   -9.8590   21.1520  -32.1380 C   0  0  0  0  0  0  0  0  0  0  0  0
   -9.1790   19.9320  -32.0920 C   0  0  0  0  0  0  0  0  0  0  0  0
   -7.7920   19.9090  -31.9180 C   0  0  0  0  0  0  0  0  0  0  0  0
   -4.9020   19.9660  -32.0840 C   0  0  0  0  0  0  0  0  0  0  0  0
   -3.5110   19.9430  -31.9900 C   0  0  0  0  0  0  0  0  0  0  0  0
   -2.8700   18.9450  -32.4120 O   0  0  0  0  0  0  0  0  0  0  0  0
   -2.8550   20.9690  -31.4630 O   0  0  0  0  0  0  0  0  0  0  0  0
   -3.4650   22.0570  -30.9940 C   0  0  0  0  0  0  0  0  0  0  0  0
    1.7378   26.7950  -22.5145 H   0  0  0  0  0  0  0  0  0  0  0  0
    2.9991   27.3182  -23.6816 H   0  0  0  0  0  0  0  0  0  0  0  0
    1.3893   28.1153  -23.6816 H   0  0  0  0  0  0  0  0  0  0  0  0
    1.2519   26.6441  -25.5102 H   0  0  0  0  0  0  0  0  0  0  0  0
    2.1729   25.3411  -24.6001 H   0  0  0  0  0  0  0  0  0  0  0  0
    0.2600   25.1000  -23.1920 H   0  0  0  0  0  0  0  0  0  0  0  0
   -1.9449   25.7931  -24.3264 H   0  0  0  0  0  0  0  0  0  0  0  0
   -1.0425   26.8583  -23.1490 H   0  0  0  0  0  0  0  0  0  0  0  0
   -0.8817   28.4712  -24.6731 H   0  0  0  0  0  0  0  0  0  0  0  0
   -0.0623   27.3499  -25.8124 H   0  0  0  0  0  0  0  0  0  0  0  0
   -1.8539   27.4795  -25.8124 H   0  0  0  0  0  0  0  0  0  0  0  0
    0.1620   23.3729  -24.5066 H   0  0  0  0  0  0  0  0  0  0  0  0
   -1.2847   24.2746  -25.1600 H   0  0  0  0  0  0  0  0  0  0  0  0
    1.4197   24.8504  -26.3436 H   0  0  0  0  0  0  0  0  0  0  0  0
    0.5795   23.3089  -26.7819 H   0  0  0  0  0  0  0  0  0  0  0  0
   -1.4990   24.9095  -27.1600 H   0  0  0  0  0  0  0  0  0  0  0  0
   -0.2265   26.1712  -27.3362 H   0  0  0  0  0  0  0  0  0  0  0  0
   -0.6420   25.2790  -29.4590 H   0  0  0  0  0  0  0  0  0  0  0  0
    0.2760   22.5889  -28.8907 H   0  0  0  0  0  0  0  0  0  0  0  0
   -1.3944   23.0199  -28.2913 H   0  0  0  0  0  0  0  0  0  0  0  0
   -0.7778   23.7753  -31.1056 H   0  0  0  0  0  0  0  0  0  0  0  0
   -0.9060   21.9982  -30.7408 H   0  0  0  0  0  0  0  0  0  0  0  0
   -5.2470   25.2104  -29.5400 H   0  0  0  0  0  0  0  0  0  0  0  0
   -6.6034   23.3672  -30.5148 H   0  0  0  0  0  0  0  0  0  0  0  0
   -7.2125   23.2804  -31.7506 H   0  0  0  0  0  0  0  0  0  0  0  0
   -9.6895   23.3105  -32.0533 H   0  0  0  0  0  0  0  0  0  0  0  0
  -10.9507   21.1682  -32.2719 H   0  0  0  0  0  0  0  0  0  0  0  0
   -9.7357   18.9887  -32.1928 H   0  0  0  0  0  0  0  0  0  0  0  0
   -7.2589   18.9472  -31.8899 H   0  0  0  0  0  0  0  0  0  0  0  0
   -5.4431   19.1119  -32.5173 H   0  0  0  0  0  0  0  0  0  0  0  0
  1  2  1  0
  2  3  1  0
  3  4  1  0
  4  5  1  0
  3  6  1  0
  6  7  1  0
  7  8  1  0
  8  9  1  0
  9 10  1  0
 10 11  1  0
 11 12  1  0
 12 13  2  0
 13 14  1  0
 13 15  1  0
 15 16  2  0
 16 17  1  0
 17 18  1  0
 18 19  1  0
 19 20  2  0
 20 21  1  0
 21 22  2  0
 22 23  1  0
 23 24  2  0
 18 25  2  0
 25 26  1  0
 26 27  2  0
 26 28  1  0
 28 29  1  0
 29 12  1  0
 29 17  2  0
 24 19  1  0
  1 30  1  0
  1 31  1  0
  1 32  1  0
  2 33  1  0
  2 34  1  0
  3 35  1  0
  4 36  1  0
  4 37  1  0
  5 38  1  0
  5 39  1  0
  5 40  1  0
  6 41  1  0
  6 42  1  0
  7 43  1  0
  7 44  1  0
  8 45  1  0
  8 46  1  0
  9 47  1  0
 10 48  1  0
 10 49  1  0
 11 50  1  0
 11 51  1  0
 15 52  1  0
 16 53  1  0
 20 54  1  0
 21 55  1  0
 22 56  1  0
 23 57  1  0
 24 58  1  0
 25 59  1  0
M  CHG  2   3   1  14  -1
M  END
>  <UniqueID>  (30) 
29

>  <SMILES>  (30) 
CC[NH+](CC)CCCNCCc1c([O-])ccc2c(-c3ccccc3)cc(=O)oc12

>  <Energy>  (30) 
75.06040717119463

>  <Genealogy>  (30) 
CC[NH+](CC)CCCNCCc1c([O-])ccc2c(-c3ccccc3)cc(=O)oc12 (protonated)
CC[NH+](CC)CCCNCCc1c([O-])ccc2c(-c3ccccc3)cc(=O)oc12 (3D coordinates assigned)
CC[NH+](CC)CCCNCCc1c([O-])ccc2c(-c3ccccc3)cc(=O)oc12 (optimized conformer: 75.06040717119463 kcal/mol)

>  <smiles>  (30) 
CCN(CC)CCCNCCc1c(O)ccc2c(-c3ccccc3)cc(=O)oc12

>  <score_type>  (30) 
oracle

>  <origin>  (30) 
adg

>  <m_score__min__energy>  (30) 
-11.029999999999999

>  <m_primary>  (30) 
energy

$$$$
30:0
     RDKit          3D

 33 35  0  0  0  0  0  0  0  0999 V2000
   -4.2630   25.5760  -31.6190 H   0  0  0  0  0  0  0  0  0  0  0  0
   -3.8630   25.3010  -30.6960 N   0  0  0  0  0  0  0  0  0  0  0  0
   -4.3130   24.3030  -30.0010 C   0  0  0  0  0  0  0  0  0  0  0  0
   -5.3440   23.4430  -30.3620 C   0  0  0  0  0  0  0  0  0  0  0  0
   -6.0760   23.3540  -31.6450 C   0  0  0  0  0  0  0  0  0  0  0  0
   -5.7980   24.1660  -32.5670 O   0  0  0  0  0  0  0  0  0  0  0  0
   -7.1010   22.3110  -31.8900 C   0  0  0  0  0  0  0  0  0  0  0  0
   -8.4510   22.5660  -31.5850 C   0  0  0  0  0  0  0  0  0  0  0  0
   -8.7434   23.5442  -31.1756 H   0  0  0  0  0  0  0  0  0  0  0  0
   -9.4230   21.5840  -31.7990 C   0  0  0  0  0  0  0  0  0  0  0  0
  -10.4767   21.7948  -31.5640 H   0  0  0  0  0  0  0  0  0  0  0  0
   -9.0600   20.3370  -32.3100 C   0  0  0  0  0  0  0  0  0  0  0  0
   -9.8276   19.5684  -32.4834 H   0  0  0  0  0  0  0  0  0  0  0  0
   -7.7210   20.0660  -32.6010 C   0  0  0  0  0  0  0  0  0  0  0  0
   -7.4346   19.0807  -32.9974 H   0  0  0  0  0  0  0  0  0  0  0  0
   -6.7440   21.0430  -32.3900 C   0  0  0  0  0  0  0  0  0  0  0  0
   -5.6906   20.8207  -32.6155 H   0  0  0  0  0  0  0  0  0  0  0  0
   -5.4960   22.6150  -29.2590 C   0  0  0  0  0  0  0  0  0  0  0  0
   -6.2224   21.7935  -29.1726 H   0  0  0  0  0  0  0  0  0  0  0  0
   -4.6110   22.9790  -28.3110 N   0  0  0  0  0  0  0  0  0  0  0  0
   -4.4910   22.5160  -27.3820 H   0  0  0  0  0  0  0  0  0  0  0  0
   -3.8870   23.9960  -28.7560 N   0  0  0  0  0  0  0  0  0  0  0  0
   -2.8490   24.6410  -27.9930 C   0  0  0  0  0  0  0  0  0  0  0  0
   -3.0630   24.9610  -26.6410 C   0  0  0  0  0  0  0  0  0  0  0  0
   -4.0281   24.7246  -26.1691 H   0  0  0  0  0  0  0  0  0  0  0  0
   -2.0560   25.5780  -25.8930 C   0  0  0  0  0  0  0  0  0  0  0  0
   -2.2325   25.8286  -24.8366 H   0  0  0  0  0  0  0  0  0  0  0  0
   -0.8260   25.8770  -26.4840 C   0  0  0  0  0  0  0  0  0  0  0  0
   -0.0365   26.3657  -25.8942 H   0  0  0  0  0  0  0  0  0  0  0  0
   -0.5990   25.5550  -27.8250 C   0  0  0  0  0  0  0  0  0  0  0  0
    0.3707   25.7879  -28.2891 H   0  0  0  0  0  0  0  0  0  0  0  0
   -1.6030   24.9370  -28.5780 C   0  0  0  0  0  0  0  0  0  0  0  0
   -1.4182   24.6812  -29.6318 H   0  0  0  0  0  0  0  0  0  0  0  0
  1  2  1  0
  2  3  2  0
  3  4  1  0
  4  5  1  0
  5  6  2  0
  5  7  1  0
  7  8  2  0
  8  9  1  0
  8 10  1  0
 10 11  1  0
 10 12  2  0
 12 13  1  0
 12 14  1  0
 14 15  1  0
 14 16  2  0
 16 17  1  0
  4 18  2  0
 18 19  1  0
 18 20  1  0
 20 21  1  0
 20 22  1  0
 22 23  1  0
 23 24  2  0
 24 25  1  0
 24 26  1  0
 26 27  1  0
 26 28  2  0
 28 29  1  0
 28 30  1  0
 30 31  1  0
 30 32  2  0
 32 33  1  0
 22  3  1  0
 32 23  1  0
 16  7  1  0
M  END
>  <UniqueID>  (31) 
30

>  <SMILES>  (31) 
[H]/N=c1\c(C(=O)c2ccccc2)c[nH]n1-c1ccccc1

>  <Energy>  (31) 
79.51401901479156

>  <Genealogy>  (31) 
[H]/N=c1\c(C(=O)c2ccccc2)c[nH]n1-c1ccccc1 (cis-trans isomerization)
[H]/N=c1\c(C(=O)c2ccccc2)c[nH]n1-c1ccccc1 (3D coordinates assigned)
[H]/N=c1\c(C(=O)c2ccccc2)c[nH]n1-c1ccccc1 (optimized conformer: 79.51401901479156 kcal/mol)

>  <smiles>  (31) 
N=c1c(C(=O)c2ccccc2)c[nH]n1-c1ccccc1

>  <score_type>  (31) 
oracle

>  <origin>  (31) 
adg

>  <m_score__min__energy>  (31) 
-7.8200000000000003

>  <m_primary>  (31) 
energy

$$$$
31:0
     RDKit          3D

 35 37  0  0  0  0  0  0  0  0999 V2000
   -6.4940   26.0260  -28.9490 C   0  0  0  0  0  0  0  0  0  0  0  0
   -5.7770   25.7010  -30.1360 O   0  0  0  0  0  0  0  0  0  0  0  0
   -5.8220   24.4530  -30.7780 C   0  0  0  0  0  0  0  0  0  0  0  0
   -7.0320   23.8650  -31.1830 C   0  0  0  0  0  0  0  0  0  0  0  0
   -7.0580   22.6110  -31.8060 C   0  0  0  0  0  0  0  0  0  0  0  0
   -5.8370   21.9390  -32.0710 C   0  0  0  0  0  0  0  0  0  0  0  0
   -4.6300   22.5400  -31.6710 C   0  0  0  0  0  0  0  0  0  0  0  0
   -4.6160   23.7870  -31.0200 C   0  0  0  0  0  0  0  0  0  0  0  0
   -3.4230   24.3980  -30.6040 O   0  0  0  0  0  0  0  0  0  0  0  0
   -2.5520   23.8780  -29.6050 C   0  0  0  0  0  0  0  0  0  0  0  0
   -5.7630   20.6500  -32.8010 C   0  0  0  0  0  0  0  0  0  0  0  0
   -4.7900   20.4410  -33.5790 O   0  0  0  0  0  0  0  0  0  0  0  0
   -6.7350   19.6130  -32.6030 N   0  0  0  0  0  0  0  0  0  0  0  0
   -6.5530   18.2580  -33.0940 C   0  0  0  0  0  0  0  0  0  0  0  0
   -7.5960   17.4180  -32.3710 C   0  0  0  0  0  0  0  0  0  0  0  0
   -8.6290   18.4070  -31.8390 C   0  0  0  0  0  0  0  0  0  0  0  0
   -7.9050   19.7570  -31.7630 C   0  0  2  0  0  0  0  0  0  0  0  0
   -8.7510   20.8930  -32.2630 C   0  0  0  0  0  0  0  0  0  0  0  0
   -8.3420   22.1250  -32.2360 N   0  0  0  0  0  0  0  0  0  0  0  0
   -5.8914   25.7528  -28.0702 H   0  0  0  0  0  0  0  0  0  0  0  0
   -6.7014   27.1061  -28.9300 H   0  0  0  0  0  0  0  0  0  0  0  0
   -7.4430   25.4700  -28.9300 H   0  0  0  0  0  0  0  0  0  0  0  0
   -7.9771   24.3998  -31.0074 H   0  0  0  0  0  0  0  0  0  0  0  0
   -3.6787   22.0251  -31.8710 H   0  0  0  0  0  0  0  0  0  0  0  0
   -2.9525   24.1171  -28.6088 H   0  0  0  0  0  0  0  0  0  0  0  0
   -2.4757   22.7864  -29.7172 H   0  0  0  0  0  0  0  0  0  0  0  0
   -1.5549   24.3287  -29.7172 H   0  0  0  0  0  0  0  0  0  0  0  0
   -6.7145   18.2185  -34.1814 H   0  0  0  0  0  0  0  0  0  0  0  0
   -5.5332   17.8906  -32.9071 H   0  0  0  0  0  0  0  0  0  0  0  0
   -8.0674   16.7093  -33.0678 H   0  0  0  0  0  0  0  0  0  0  0  0
   -7.1477   16.8250  -31.5602 H   0  0  0  0  0  0  0  0  0  0  0  0
   -9.4884   18.4699  -32.5228 H   0  0  0  0  0  0  0  0  0  0  0  0
   -9.0207   18.0990  -30.8584 H   0  0  0  0  0  0  0  0  0  0  0  0
   -7.6588   19.9993  -30.7187 H   0  0  0  0  0  0  0  0  0  0  0  0
   -9.7509   20.6737  -32.6657 H   0  0  0  0  0  0  0  0  0  0  0  0
  1  2  1  0
  2  3  1  0
  3  4  2  0
  4  5  1  0
  5  6  2  0
  6  7  1  0
  7  8  2  0
  8  9  1  0
  9 10  1  0
  6 11  1  0
 11 12  2  0
 11 13  1  0
 13 14  1  0
 14 15  1  0
 15 16  1  0
 16 17  1  0
 17 18  1  0
 18 19  2  0
  8  3  1  0
 17 13  1  0
 19  5  1  0
  1 20  1  0
  1 21  1  0
  1 22  1  0
  4 23  1  0
  7 24  1  0
 10 25  1  0
 10 26  1  0
 10 27  1  0
 14 28  1  0
 14 29  1  0
 15 30  1  0
 15 31  1  0
 16 32  1  0
 16 33  1  0
 17 34  1  1
 18 35  1  0
M  END
>  <UniqueID>  (32) 
31

>  <SMILES>  (32) 
COc1cc2c(cc1OC)C(=O)N1CCC[C@@H]1C=N2

>  <Energy>  (32) 
47.41935023468516

>  <Genealogy>  (32) 
COc1cc2c(cc1OC)C(=O)N1CCC[C@@H]1C=N2 (chirality)
COc1cc2c(cc1OC)C(=O)N1CCC[C@@H]1C=N2 (3D coordinates assigned)
COc1cc2c(cc1OC)C(=O)N1CCC[C@@H]1C=N2 (nonaromatic ring conformer: 47.41935023468516 kcal/mol)

>  <smiles>  (32) 
COc1cc2c(cc1OC)C(=O)N1CCCC1C=N2

>  <score_type>  (32) 
oracle

>  <origin>  (32) 
adg

>  <m_score__min__energy>  (32) 
-6.1100000000000003

>  <m_primary>  (32) 
energy

$$$$
32:0
     RDKit          3D

 54 57  0  0  0  0  0  0  0  0999 V2000
   -7.6990   21.7150  -31.0710 C   0  0  0  0  0  0  0  0  0  0  0  0
   -7.0490   22.1760  -32.3110 N   0  0  0  0  0  0  0  0  0  0  0  0
   -6.7710   23.6280  -32.2790 C   0  0  0  0  0  0  0  0  0  0  0  0
   -5.6950   23.9810  -31.2370 C   0  0  0  0  0  0  0  0  0  0  0  0
   -4.6530   22.9490  -31.1970 N   0  0  0  0  0  0  0  0  0  0  0  0
   -3.8120   22.8150  -30.0360 C   0  0  0  0  0  0  0  0  0  0  0  0
   -3.0620   23.9070  -29.5750 C   0  0  0  0  0  0  0  0  0  0  0  0
   -2.2230   23.7860  -28.4540 C   0  0  0  0  0  0  0  0  0  0  0  0
   -2.1270   22.5470  -27.7860 C   0  0  0  0  0  0  0  0  0  0  0  0
   -1.2910   22.3920  -26.6570 C   0  0  0  0  0  0  0  0  0  0  0  0
   -1.2200   21.1440  -26.0130 C   0  0  0  0  0  0  0  0  0  0  0  0
   -1.9640   20.0610  -26.4830 C   0  0  0  0  0  0  0  0  0  0  0  0
   -2.7890   20.2050  -27.5980 C   0  0  0  0  0  0  0  0  0  0  0  0
   -2.8780   21.4400  -28.2560 C   0  0  0  0  0  0  0  0  0  0  0  0
   -3.7080   21.5830  -29.3760 C   0  0  0  0  0  0  0  0  0  0  0  0
   -0.4950   23.5390  -26.1630 C   0  0  0  0  0  0  0  0  0  0  0  0
    0.2320   23.4060  -25.1400 O   0  0  0  0  0  0  0  0  0  0  0  0
   -0.5480   24.8020  -26.8510 N   0  0  0  0  0  0  0  0  0  0  0  0
    0.3220   25.9110  -26.4260 C   0  0  0  0  0  0  0  0  0  0  0  0
   -0.2650   26.6750  -25.2220 C   0  0  0  0  0  0  0  0  0  0  0  0
    0.2720   26.2000  -23.9170 N   0  0  0  0  0  0  0  0  0  0  0  0
    1.6940   26.5630  -23.7770 C   0  0  0  0  0  0  0  0  0  0  0  0
   -0.4870   26.7680  -22.7860 C   0  0  0  0  0  0  0  0  0  0  0  0
   -1.4340   24.9470  -27.9790 C   0  0  0  0  0  0  0  0  0  0  0  0
   -1.5380   26.0590  -28.5660 O   0  0  0  0  0  0  0  0  0  0  0  0
   -4.5140   22.0510  -32.3460 C   0  0  0  0  0  0  0  0  0  0  0  0
   -5.8560   21.3540  -32.6460 C   0  0  0  0  0  0  0  0  0  0  0  0
   -7.1490   22.1050  -30.2019 H   0  0  0  0  0  0  0  0  0  0  0  0
   -8.7361   22.0806  -31.0429 H   0  0  0  0  0  0  0  0  0  0  0  0
   -7.6969   20.6154  -31.0429 H   0  0  0  0  0  0  0  0  0  0  0  0
   -6.4222   23.9457  -33.2727 H   0  0  0  0  0  0  0  0  0  0  0  0
   -7.6997   24.1479  -32.0011 H   0  0  0  0  0  0  0  0  0  0  0  0
   -5.2378   24.9456  -31.5027 H   0  0  0  0  0  0  0  0  0  0  0  0
   -6.1692   24.0432  -30.2464 H   0  0  0  0  0  0  0  0  0  0  0  0
   -3.1315   24.8720  -30.0984 H   0  0  0  0  0  0  0  0  0  0  0  0
   -0.5730   21.0205  -25.1320 H   0  0  0  0  0  0  0  0  0  0  0  0
   -1.8994   19.0893  -25.9716 H   0  0  0  0  0  0  0  0  0  0  0  0
   -3.3721   19.3465  -27.9627 H   0  0  0  0  0  0  0  0  0  0  0  0
   -4.2837   20.7196  -29.7408 H   0  0  0  0  0  0  0  0  0  0  0  0
    1.3043   25.5041  -26.1441 H   0  0  0  0  0  0  0  0  0  0  0  0
    0.4102   26.6156  -27.2661 H   0  0  0  0  0  0  0  0  0  0  0  0
   -0.0247   27.7427  -25.3328 H   0  0  0  0  0  0  0  0  0  0  0  0
   -1.3507   26.4983  -25.2163 H   0  0  0  0  0  0  0  0  0  0  0  0
    0.2150   25.1560  -23.8580 H   0  0  0  0  0  0  0  0  0  0  0  0
    1.9522   26.6289  -22.7098 H   0  0  0  0  0  0  0  0  0  0  0  0
    2.3175   25.7952  -24.2584 H   0  0  0  0  0  0  0  0  0  0  0  0
    1.8732   27.5357  -24.2584 H   0  0  0  0  0  0  0  0  0  0  0  0
   -0.0392   26.4329  -21.8388 H   0  0  0  0  0  0  0  0  0  0  0  0
   -0.4556   27.8663  -22.8381 H   0  0  0  0  0  0  0  0  0  0  0  0
   -1.5319   26.4281  -22.8381 H   0  0  0  0  0  0  0  0  0  0  0  0
   -4.2028   22.6331  -33.2259 H   0  0  0  0  0  0  0  0  0  0  0  0
   -3.7581   21.2866  -32.1132 H   0  0  0  0  0  0  0  0  0  0  0  0
   -5.8901   21.1151  -33.7192 H   0  0  0  0  0  0  0  0  0  0  0  0
   -5.8984   20.4559  -32.0123 H   0  0  0  0  0  0  0  0  0  0  0  0
  1  2  1  0
  2  3  1  0
  3  4  1  0
  4  5  1  0
  5  6  1  0
  6  7  2  0
  7  8  1  0
  8  9  2  0
  9 10  1  0
 10 11  2  0
 11 12  1  0
 12 13  2  0
 13 14  1  0
 14 15  2  0
 10 16  1  0
 16 17  2  0
 16 18  1  0
 18 19  1  0
 19 20  1  0
 20 21  1  0
 21 22  1  0
 21 23  1  0
 18 24  1  0
 24 25  2  0
  5 26  1  0
 26 27  1  0
 27  2  1  0
 15  6  1  0
 24  8  1  0
 14  9  1  0
  1 28  1  0
  1 29  1  0
  1 30  1  0
  3 31  1  0
  3 32  1  0
  4 33  1  0
  4 34  1  0
  7 35  1  0
 11 36  1  0
 12 37  1  0
 13 38  1  0
 15 39  1  0
 19 40  1  0
 19 41  1  0
 20 42  1  0
 20 43  1  0
 21 44  1  0
 22 45  1  0
 22 46  1  0
 22 47  1  0
 23 48  1  0
 23 49  1  0
 23 50  1  0
 26 51  1  0
 26 52  1  0
 27 53  1  0
 27 54  1  0
M  CHG  1  21   1
M  END
>  <UniqueID>  (33) 
32

>  <SMILES>  (33) 
CN1CCN(c2cc3c4c(cccc4c2)C(=O)N(CC[NH+](C)C)C3=O)CC1

>  <Energy>  (33) 
74.54550232521083

>  <Genealogy>  (33) 
CN1CCN(c2cc3c4c(cccc4c2)C(=O)N(CC[NH+](C)C)C3=O)CC1 (protonated)
CN1CCN(c2cc3c4c(cccc4c2)C(=O)N(CC[NH+](C)C)C3=O)CC1 (3D coordinates assigned)
CN1CCN(c2cc3c4c(cccc4c2)C(=O)N(CC[NH+](C)C)C3=O)CC1 (nonaromatic ring conformer: 74.54550232521083 kcal/mol)

>  <smiles>  (33) 
CN(C)CCN1C(=O)c2cccc3cc(N4CCN(C)CC4)cc(c23)C1=O

>  <score_type>  (33) 
oracle

>  <origin>  (33) 
adg

>  <m_score__min__energy>  (33) 
-7.7800000000000002

>  <m_primary>  (33) 
energy

$$$$
33:0
     RDKit          3D

 32 33  0  0  0  0  0  0  0  0999 V2000
   -6.4870   25.6770  -29.3440 C   0  0  0  0  0  0  0  0  0  0  0  0
   -5.9650   24.4120  -29.8890 N   0  0  1  0  0  0  0  0  0  0  0  0
   -6.4560   24.1660  -31.2660 C   0  0  0  0  0  0  0  0  0  0  0  0
   -6.9760   22.7510  -31.4380 C   0  0  0  0  0  0  0  0  0  0  0  0
   -8.3200   22.4820  -31.1180 C   0  0  0  0  0  0  0  0  0  0  0  0
   -8.8460   21.1980  -31.2800 C   0  0  0  0  0  0  0  0  0  0  0  0
   -8.0390   20.1670  -31.7660 C   0  0  0  0  0  0  0  0  0  0  0  0
   -8.7040   18.5560  -31.9690 Cl  0  0  0  0  0  0  0  0  0  0  0  0
   -6.7040   20.4200  -32.0900 C   0  0  0  0  0  0  0  0  0  0  0  0
   -6.1660   21.7030  -31.9320 C   0  0  0  0  0  0  0  0  0  0  0  0
   -4.4770   21.9460  -32.3690 Cl  0  0  0  0  0  0  0  0  0  0  0  0
   -4.5150   24.4510  -29.8740 C   0  0  0  0  0  0  0  0  0  0  0  0
   -3.9030   25.2190  -30.6690 O   0  0  0  0  0  0  0  0  0  0  0  0
   -3.7190   23.6290  -28.9220 C   0  0  0  0  0  0  0  0  0  0  0  0
   -2.8420   24.2590  -28.0220 C   0  0  0  0  0  0  0  0  0  0  0  0
   -2.0990   23.4890  -27.1240 C   0  0  0  0  0  0  0  0  0  0  0  0
   -2.2300   22.1360  -27.1140 N   0  0  0  0  0  0  0  0  0  0  0  0
   -3.0760   21.4980  -27.9630 C   0  0  0  0  0  0  0  0  0  0  0  0
   -3.8380   22.2280  -28.8780 C   0  0  0  0  0  0  0  0  0  0  0  0
   -6.4706   25.6372  -28.2448 H   0  0  0  0  0  0  0  0  0  0  0  0
   -5.8599   26.5118  -29.6901 H   0  0  0  0  0  0  0  0  0  0  0  0
   -7.5204   25.8266  -29.6901 H   0  0  0  0  0  0  0  0  0  0  0  0
   -6.2970   23.6250  -29.2850 H   0  0  0  0  0  0  0  0  0  0  0  0
   -7.2700   24.8728  -31.4847 H   0  0  0  0  0  0  0  0  0  0  0  0
   -5.6125   24.3052  -31.9582 H   0  0  0  0  0  0  0  0  0  0  0  0
   -8.9619   23.2900  -30.7370 H   0  0  0  0  0  0  0  0  0  0  0  0
   -9.8972   20.9988  -31.0244 H   0  0  0  0  0  0  0  0  0  0  0  0
   -6.0709   19.6056  -32.4720 H   0  0  0  0  0  0  0  0  0  0  0  0
   -2.7412   25.3544  -28.0249 H   0  0  0  0  0  0  0  0  0  0  0  0
   -1.4065   23.9785  -26.4235 H   0  0  0  0  0  0  0  0  0  0  0  0
   -3.1616   20.4018  -27.9301 H   0  0  0  0  0  0  0  0  0  0  0  0
   -4.5277   21.7101  -29.5607 H   0  0  0  0  0  0  0  0  0  0  0  0
  1  2  1  0
  2  3  1  0
  3  4  1  0
  4  5  2  0
  5  6  1  0
  6  7  2  0
  7  8  1  0
  7  9  1  0
  9 10  2  0
 10 11  1  0
  2 12  1  0
 12 13  2  0
 12 14  1  0
 14 15  2  0
 15 16  1  0
 16 17  2  0
 17 18  1  0
 18 19  2  0
 10  4  1  0
 19 14  1  0
  1 20  1  0
  1 21  1  0
  1 22  1  0
  2 23  1  1
  3 24  1  0
  3 25  1  0
  5 26  1  0
  6 27  1  0
  9 28  1  0
 15 29  1  0
 16 30  1  0
 18 31  1  0
 19 32  1  0
M  CHG  1   2   1
M  END
>  <UniqueID>  (34) 
33

>  <SMILES>  (34) 
C[N@@H+](Cc1ccc(Cl)cc1Cl)C(=O)c1ccncc1

>  <Energy>  (34) 
40.01595715137123

>  <Genealogy>  (34) 
C[NH+](Cc1ccc(Cl)cc1Cl)C(=O)c1ccncc1 (protonated)
C[N@@H+](Cc1ccc(Cl)cc1Cl)C(=O)c1ccncc1 (chirality)
C[N@@H+](Cc1ccc(Cl)cc1Cl)C(=O)c1ccncc1 (3D coordinates assigned)
C[N@@H+](Cc1ccc(Cl)cc1Cl)C(=O)c1ccncc1 (optimized conformer: 40.01595715137123 kcal/mol)

>  <smiles>  (34) 
CN(Cc1ccc(Cl)cc1Cl)C(=O)c1ccncc1

>  <score_type>  (34) 
oracle

>  <origin>  (34) 
adg

>  <m_score__min__energy>  (34) 
-7.0599999999999996

>  <m_primary>  (34) 
energy

$$$$
34:0
     RDKit          3D

 51 53  0  0  0  0  0  0  0  0999 V2000
   -2.8250   22.3580  -29.4640 C   0  0  0  0  0  0  0  0  0  0  0  0
   -2.4800   21.7780  -30.7980 C   0  0  0  0  0  0  0  0  0  0  0  0
   -1.2330   21.7380  -31.3060 N   0  0  0  0  0  0  0  0  0  0  0  0
   -1.2620   21.0710  -32.4480 N   0  0  0  0  0  0  0  0  0  0  0  0
   -0.0790   20.7880  -33.2570 C   0  0  0  0  0  0  0  0  0  0  0  0
   -2.5290   20.6750  -32.7020 C   0  0  0  0  0  0  0  0  0  0  0  0
   -2.9390   19.7890  -33.8420 C   0  0  0  0  0  0  0  0  0  0  0  0
   -3.3370   21.0990  -31.6520 C   0  0  0  0  0  0  0  0  0  0  0  0
   -4.7910   20.7920  -31.4120 C   0  0  0  0  0  0  0  0  0  0  0  0
   -5.6460   21.4430  -32.4280 N   0  0  0  0  0  0  0  0  0  0  0  0
   -5.6220   22.9270  -32.4460 C   0  0  0  0  0  0  0  0  0  0  0  0
   -5.5860   23.5920  -31.0530 C   0  0  2  0  0  0  0  0  0  0  0  0
   -6.9750   24.0220  -30.6110 C   0  0  0  0  0  0  0  0  0  0  0  0
   -6.6850   25.1710  -29.6980 C   0  0  0  0  0  0  0  0  0  0  0  0
   -5.3460   25.6850  -30.1960 C   0  0  0  0  0  0  0  0  0  0  0  0
   -4.7590   24.7320  -31.0540 O   0  0  0  0  0  0  0  0  0  0  0  0
   -6.9700   20.8190  -32.6790 C   0  0  2  0  0  0  0  0  0  0  0  0
   -7.9650   20.9650  -31.5080 C   0  0  0  0  0  0  0  0  0  0  0  0
   -6.7690   19.3760  -33.0660 C   0  0  0  0  0  0  0  0  0  0  0  0
   -6.1200   18.9470  -34.2170 C   0  0  0  0  0  0  0  0  0  0  0  0
   -5.9710   17.5570  -34.2890 C   0  0  0  0  0  0  0  0  0  0  0  0
   -6.4870   16.8830  -33.1920 C   0  0  0  0  0  0  0  0  0  0  0  0
   -7.1240   18.0190  -32.1290 S   0  0  0  0  0  0  0  0  0  0  0  0
   -2.4365   21.7049  -28.6687 H   0  0  0  0  0  0  0  0  0  0  0  0
   -2.3743   23.3571  -29.3709 H   0  0  0  0  0  0  0  0  0  0  0  0
   -3.9181   22.4388  -29.3709 H   0  0  0  0  0  0  0  0  0  0  0  0
   -0.3730   22.1330  -30.8640 H   0  0  0  0  0  0  0  0  0  0  0  0
    0.7765   20.5833  -32.5965 H   0  0  0  0  0  0  0  0  0  0  0  0
   -0.2703   19.9103  -33.8918 H   0  0  0  0  0  0  0  0  0  0  0  0
    0.1476   21.6573  -33.8918 H   0  0  0  0  0  0  0  0  0  0  0  0
   -3.3700   18.8577  -33.4459 H   0  0  0  0  0  0  0  0  0  0  0  0
   -3.6889   20.3072  -34.4578 H   0  0  0  0  0  0  0  0  0  0  0  0
   -2.0587   19.5528  -34.4578 H   0  0  0  0  0  0  0  0  0  0  0  0
   -4.9412   19.7034  -31.4598 H   0  0  0  0  0  0  0  0  0  0  0  0
   -5.0709   21.1770  -30.4203 H   0  0  0  0  0  0  0  0  0  0  0  0
   -4.7283   23.2479  -33.0013 H   0  0  0  0  0  0  0  0  0  0  0  0
   -6.5638   23.2458  -32.9165 H   0  0  0  0  0  0  0  0  0  0  0  0
   -5.1877   22.8393  -30.3567 H   0  0  0  0  0  0  0  0  0  0  0  0
   -7.5841   24.3409  -31.4697 H   0  0  0  0  0  0  0  0  0  0  0  0
   -7.5508   23.2166  -30.1318 H   0  0  0  0  0  0  0  0  0  0  0  0
   -7.4606   25.9465  -29.7822 H   0  0  0  0  0  0  0  0  0  0  0  0
   -6.6672   24.8829  -28.6365 H   0  0  0  0  0  0  0  0  0  0  0  0
   -5.4970   26.6265  -30.7444 H   0  0  0  0  0  0  0  0  0  0  0  0
   -4.6812   25.8596  -29.3372 H   0  0  0  0  0  0  0  0  0  0  0  0
   -7.4405   21.3664  -33.5091 H   0  0  0  0  0  0  0  0  0  0  0  0
   -7.4229   20.8855  -30.5542 H   0  0  0  0  0  0  0  0  0  0  0  0
   -8.4602   21.9454  -31.5677 H   0  0  0  0  0  0  0  0  0  0  0  0
   -8.7210   20.1682  -31.5677 H   0  0  0  0  0  0  0  0  0  0  0  0
   -5.7581   19.6334  -34.9966 H   0  0  0  0  0  0  0  0  0  0  0  0
   -5.4897   17.0469  -35.1364 H   0  0  0  0  0  0  0  0  0  0  0  0
   -6.4805   15.7931  -33.0432 H   0  0  0  0  0  0  0  0  0  0  0  0
  1  2  1  0
  2  3  2  0
  3  4  1  0
  4  5  1  0
  4  6  1  0
  6  7  1  0
  6  8  2  0
  8  9  1  0
  9 10  1  0
 10 11  1  0
 11 12  1  0
 12 13  1  0
 13 14  1  0
 14 15  1  0
 15 16  1  0
 10 17  1  0
 17 18  1  0
 17 19  1  0
 19 20  2  0
 20 21  1  0
 21 22  2  0
 22 23  1  0
  8  2  1  0
 16 12  1  0
 23 19  1  0
  1 24  1  0
  1 25  1  0
  1 26  1  0
  3 27  1  0
  5 28  1  0
  5 29  1  0
  5 30  1  0
  7 31  1  0
  7 32  1  0
  7 33  1  0
  9 34  1  0
  9 35  1  0
 11 36  1  0
 11 37  1  0
 12 38  1  1
 13 39  1  0
 13 40  1  0
 14 41  1  0
 14 42  1  0
 15 43  1  0
 15 44  1  0
 17 45  1  6
 18 46  1  0
 18 47  1  0
 18 48  1  0
 20 49  1  0
 21 50  1  0
 22 51  1  0
M  CHG  1   3   1
M  END
>  <UniqueID>  (35) 
34

>  <SMILES>  (35) 
Cc1[nH+]n(C)c(C)c1CN(C[C@@H]1CCCO1)[C@H](C)c1cccs1

>  <Energy>  (35) 
110.01708486171658

>  <Genealogy>  (35) 
Cc1[nH+]n(C)c(C)c1CN(CC1CCCO1)C(C)c1cccs1 (protonated)
Cc1[nH+]n(C)c(C)c1CN(C[C@@H]1CCCO1)[C@H](C)c1cccs1 (chirality)
Cc1[nH+]n(C)c(C)c1CN(C[C@@H]1CCCO1)[C@H](C)c1cccs1 (3D coordinates assigned)
Cc1[nH+]n(C)c(C)c1CN(C[C@@H]1CCCO1)[C@H](C)c1cccs1 (nonaromatic ring conformer: 110.01708486171658 kcal/mol)

>  <smiles>  (35) 
Cc1nn(C)c(C)c1CN(CC1CCCO1)C(C)c1cccs1

>  <score_type>  (35) 
oracle

>  <origin>  (35) 
adg

>  <m_score__min__energy>  (35) 
-7.7699999999999996

>  <m_primary>  (35) 
energy

$$$$
35:0
     RDKit          3D

 45 47  0  0  0  0  0  0  0  0999 V2000
   -1.9770   24.6950  -28.2370 C   0  0  0  0  0  0  0  0  0  0  0  0
   -2.7230   25.2370  -29.3210 O   0  0  0  0  0  0  0  0  0  0  0  0
   -3.9510   24.7110  -29.7330 C   0  0  0  0  0  0  0  0  0  0  0  0
   -4.5140   23.6450  -29.0260 C   0  0  0  0  0  0  0  0  0  0  0  0
   -5.7390   23.1190  -29.4360 C   0  0  0  0  0  0  0  0  0  0  0  0
   -6.3980   23.6590  -30.5510 C   0  0  0  0  0  0  0  0  0  0  0  0
   -7.7210   23.0950  -31.0170 C   0  0  0  0  0  0  0  0  0  0  0  0
   -7.6920   21.6160  -31.1510 N   0  0  1  0  0  0  0  0  0  0  0  0
   -9.0160   21.0570  -31.5460 C   0  0  0  0  0  0  0  0  0  0  0  0
   -9.0730   19.5160  -31.6490 C   0  0  0  0  0  0  0  0  0  0  0  0
   -8.1060   18.8900  -32.6750 C   0  0  0  0  0  0  0  0  0  0  0  0
   -6.7530   18.6970  -32.1250 N   0  0  0  0  0  0  0  0  0  0  0  0
   -6.2330   17.3600  -31.9570 C   0  0  0  0  0  0  0  0  0  0  0  0
   -6.1340   16.8590  -30.8030 O   0  0  0  0  0  0  0  0  0  0  0  0
   -5.7470   16.5600  -33.1340 C   0  0  0  0  0  0  0  0  0  0  0  0
   -6.0210   17.1850  -34.4960 C   0  0  0  0  0  0  0  0  0  0  0  0
   -4.6180   17.2120  -33.9170 C   0  0  0  0  0  0  0  0  0  0  0  0
   -5.9450   19.8500  -31.6790 C   0  0  0  0  0  0  0  0  0  0  0  0
   -6.5670   21.2220  -32.0400 C   0  0  0  0  0  0  0  0  0  0  0  0
   -5.7990   24.7290  -31.2320 C   0  0  0  0  0  0  0  0  0  0  0  0
   -4.6040   25.2250  -30.8130 N   0  0  0  0  0  0  0  0  0  0  0  0
   -2.4239   25.0197  -27.2857 H   0  0  0  0  0  0  0  0  0  0  0  0
   -1.9932   23.5966  -28.2937 H   0  0  0  0  0  0  0  0  0  0  0  0
   -0.9373   25.0498  -28.2937 H   0  0  0  0  0  0  0  0  0  0  0  0
   -3.9948   23.2238  -28.1525 H   0  0  0  0  0  0  0  0  0  0  0  0
   -6.1889   22.2801  -28.8848 H   0  0  0  0  0  0  0  0  0  0  0  0
   -8.4977   23.3682  -30.2876 H   0  0  0  0  0  0  0  0  0  0  0  0
   -7.9335   23.5170  -32.0104 H   0  0  0  0  0  0  0  0  0  0  0  0
   -7.4700   21.2180  -30.2070 H   0  0  0  0  0  0  0  0  0  0  0  0
   -9.7573   21.3762  -30.7986 H   0  0  0  0  0  0  0  0  0  0  0  0
   -9.2205   21.4392  -32.5570 H   0  0  0  0  0  0  0  0  0  0  0  0
   -8.8349   19.0998  -30.6590 H   0  0  0  0  0  0  0  0  0  0  0  0
  -10.0874   19.2707  -31.9965 H   0  0  0  0  0  0  0  0  0  0  0  0
   -8.5041   17.9126  -32.9853 H   0  0  0  0  0  0  0  0  0  0  0  0
   -8.0267   19.5813  -33.5270 H   0  0  0  0  0  0  0  0  0  0  0  0
   -5.9195   15.5718  -32.6826 H   0  0  0  0  0  0  0  0  0  0  0  0
   -6.2471   16.5431  -35.3602 H   0  0  0  0  0  0  0  0  0  0  0  0
   -6.7199   17.9442  -34.8770 H   0  0  0  0  0  0  0  0  0  0  0  0
   -3.8276   16.5901  -34.3625 H   0  0  0  0  0  0  0  0  0  0  0  0
   -3.8799   17.9998  -33.7056 H   0  0  0  0  0  0  0  0  0  0  0  0
   -5.8351   19.7952  -30.5859 H   0  0  0  0  0  0  0  0  0  0  0  0
   -4.9789   19.7872  -32.2012 H   0  0  0  0  0  0  0  0  0  0  0  0
   -5.7822   21.9895  -31.9692 H   0  0  0  0  0  0  0  0  0  0  0  0
   -6.9746   21.1345  -33.0579 H   0  0  0  0  0  0  0  0  0  0  0  0
   -6.2977   25.1686  -32.1083 H   0  0  0  0  0  0  0  0  0  0  0  0
  1  2  1  0
  2  3  1  0
  3  4  2  0
  4  5  1  0
  5  6  2  0
  6  7  1  0
  7  8  1  0
  8  9  1  0
  9 10  1  0
 10 11  1  0
 11 12  1  0
 12 13  1  0
 13 14  2  0
 13 15  1  0
 15 16  1  0
 16 17  1  0
 12 18  1  0
 18 19  1  0
  6 20  1  0
 20 21  2  0
 21  3  1  0
 19  8  1  0
 17 15  1  0
  1 22  1  0
  1 23  1  0
  1 24  1  0
  4 25  1  0
  5 26  1  0
  7 27  1  0
  7 28  1  0
  8 29  1  1
  9 30  1  0
  9 31  1  0
 10 32  1  0
 10 33  1  0
 11 34  1  0
 11 35  1  0
 15 36  1  0
 16 37  1  0
 16 38  1  0
 17 39  1  0
 17 40  1  0
 18 41  1  0
 18 42  1  0
 19 43  1  0
 19 44  1  0
 20 45  1  0
M  CHG  1   8   1
M  END
>  <UniqueID>  (36) 
35

>  <SMILES>  (36) 
COc1ccc(C[N@H+]2CCCN(C(=O)C3CC3)CC2)cn1

>  <Energy>  (36) 
320.3728648697562

>  <Genealogy>  (36) 
COc1ccc(C[NH+]2CCCN(C(=O)C3CC3)CC2)cn1 (protonated)
COc1ccc(C[N@H+]2CCCN(C(=O)C3CC3)CC2)cn1 (chirality)
COc1ccc(C[N@H+]2CCCN(C(=O)C3CC3)CC2)cn1 (3D coordinates assigned)
COc1ccc(C[N@H+]2CCCN(C(=O)C3CC3)CC2)cn1 (nonaromatic ring conformer: 320.3728648697562 kcal/mol)

>  <smiles>  (36) 
COc1ccc(CN2CCCN(C(=O)C3CC3)CC2)cn1

>  <score_type>  (36) 
oracle

>  <origin>  (36) 
adg

>  <m_score__min__energy>  (36) 
-5.5

>  <m_primary>  (36) 
energy

$$$$
36:0
     RDKit          3D

 43 45  0  0  0  0  0  0  0  0999 V2000
   -5.0480   20.2540  -32.7920 C   0  0  0  0  0  0  0  0  0  0  0  0
   -6.4780   20.3470  -32.3030 C   0  0  0  0  0  0  0  0  0  0  0  0
   -7.1910   19.1550  -32.0330 C   0  0  0  0  0  0  0  0  0  0  0  0
   -6.6210   17.8940  -32.2520 O   0  0  0  0  0  0  0  0  0  0  0  0
   -6.8540   17.1500  -33.4460 C   0  0  0  0  0  0  0  0  0  0  0  0
   -5.9750   17.6230  -34.5200 C   0  0  0  0  0  0  0  0  0  0  0  0
   -5.2800   17.9970  -35.3660 N   0  0  0  0  0  0  0  0  0  0  0  0
   -8.4910   19.2300  -31.5280 C   0  0  0  0  0  0  0  0  0  0  0  0
   -9.1270   18.1790  -31.2460 O   0  0  0  0  0  0  0  0  0  0  0  0
   -9.0910   20.4690  -31.3430 C   0  0  0  0  0  0  0  0  0  0  0  0
   -8.3910   21.6270  -31.6700 C   0  0  0  0  0  0  0  0  0  0  0  0
   -7.1070   21.5680  -32.1450 N   0  0  0  0  0  0  0  0  0  0  0  0
   -6.4490   22.8420  -32.5020 C   0  0  0  0  0  0  0  0  0  0  0  0
   -5.5060   23.2890  -31.4130 C   0  0  0  0  0  0  0  0  0  0  0  0
   -4.1640   22.8800  -31.4300 C   0  0  0  0  0  0  0  0  0  0  0  0
   -3.2860   23.2930  -30.4230 C   0  0  0  0  0  0  0  0  0  0  0  0
   -3.7330   24.1290  -29.3850 C   0  0  0  0  0  0  0  0  0  0  0  0
   -2.8010   24.5630  -28.3120 C   0  0  0  0  0  0  0  0  0  0  0  0
   -1.4770   24.9290  -28.6200 C   0  0  0  0  0  0  0  0  0  0  0  0
   -0.6030   25.3370  -27.6080 C   0  0  0  0  0  0  0  0  0  0  0  0
   -1.0370   25.3840  -26.2820 C   0  0  0  0  0  0  0  0  0  0  0  0
   -2.3480   25.0240  -25.9650 C   0  0  0  0  0  0  0  0  0  0  0  0
   -3.2280   24.6150  -26.9720 C   0  0  0  0  0  0  0  0  0  0  0  0
   -5.0750   24.5480  -29.3790 C   0  0  0  0  0  0  0  0  0  0  0  0
   -5.9510   24.1360  -30.3880 C   0  0  0  0  0  0  0  0  0  0  0  0
   -4.3675   20.2097  -31.9289 H   0  0  0  0  0  0  0  0  0  0  0  0
   -4.9271   19.3461  -33.4012 H   0  0  0  0  0  0  0  0  0  0  0  0
   -4.8105   21.1386  -33.4012 H   0  0  0  0  0  0  0  0  0  0  0  0
   -6.6533   16.0854  -33.2552 H   0  0  0  0  0  0  0  0  0  0  0  0
   -7.9010   17.2867  -33.7542 H   0  0  0  0  0  0  0  0  0  0  0  0
  -10.1127   20.5347  -30.9407 H   0  0  0  0  0  0  0  0  0  0  0  0
   -8.8768   22.6060  -31.5450 H   0  0  0  0  0  0  0  0  0  0  0  0
   -5.8819   22.7047  -33.4345 H   0  0  0  0  0  0  0  0  0  0  0  0
   -7.2241   23.6118  -32.6312 H   0  0  0  0  0  0  0  0  0  0  0  0
   -3.8004   22.2307  -32.2401 H   0  0  0  0  0  0  0  0  0  0  0  0
   -2.2375   22.9611  -30.4433 H   0  0  0  0  0  0  0  0  0  0  0  0
   -1.1282   24.8938  -29.6626 H   0  0  0  0  0  0  0  0  0  0  0  0
    0.4298   25.6219  -27.8573 H   0  0  0  0  0  0  0  0  0  0  0  0
   -0.3467   25.7044  -25.4878 H   0  0  0  0  0  0  0  0  0  0  0  0
   -2.6898   25.0621  -24.9202 H   0  0  0  0  0  0  0  0  0  0  0  0
   -4.2596   24.3324  -26.7153 H   0  0  0  0  0  0  0  0  0  0  0  0
   -5.4385   25.2046  -28.5748 H   0  0  0  0  0  0  0  0  0  0  0  0
   -6.9962   24.4787  -30.3776 H   0  0  0  0  0  0  0  0  0  0  0  0
  1  2  1  0
  2  3  2  0
  3  4  1  0
  4  5  1  0
  5  6  1  0
  6  7  3  0
  3  8  1  0
  8  9  2  0
  8 10  1  0
 10 11  2  0
 11 12  1  0
 12 13  1  0
 13 14  1  0
 14 15  2  0
 15 16  1  0
 16 17  2  0
 17 18  1  0
 18 19  2  0
 19 20  1  0
 20 21  2  0
 21 22  1  0
 22 23  2  0
 17 24  1  0
 24 25  2  0
 12  2  1  0
 25 14  1  0
 23 18  1  0
  1 26  1  0
  1 27  1  0
  1 28  1  0
  5 29  1  0
  5 30  1  0
 10 31  1  0
 11 32  1  0
 13 33  1  0
 13 34  1  0
 15 35  1  0
 16 36  1  0
 19 37  1  0
 20 38  1  0
 21 39  1  0
 22 40  1  0
 23 41  1  0
 24 42  1  0
 25 43  1  0
M  END
>  <UniqueID>  (37) 
36

>  <SMILES>  (37) 
Cc1c(OCC#N)c(=O)ccn1Cc1ccc(-c2ccccc2)cc1

>  <Energy>  (37) 
60.23477379880048

>  <Genealogy>  (37) 
Cc1c(OCC#N)c(=O)ccn1Cc1ccc(-c2ccccc2)cc1 (3D coordinates assigned)
Cc1c(OCC#N)c(=O)ccn1Cc1ccc(-c2ccccc2)cc1 (optimized conformer: 60.23477379880048 kcal/mol)

>  <smiles>  (37) 
Cc1c(OCC#N)c(=O)ccn1Cc1ccc(-c2ccccc2)cc1

>  <score_type>  (37) 
oracle

>  <origin>  (37) 
adg

>  <m_score__min__energy>  (37) 
-7.9000000000000004

>  <m_primary>  (37) 
energy

$$$$
37:0
     RDKit          3D

 75 80  0  0  0  0  0  0  0  0999 V2000
   -5.7970   18.2330  -32.1380 C   0  0  0  0  0  0  0  0  0  0  0  0
   -5.6640   19.3310  -33.2030 C   0  0  1  0  0  0  0  0  0  0  0  0
   -7.0220   20.0040  -33.4740 C   0  0  0  0  0  0  0  0  0  0  0  0
   -7.4180   20.8140  -32.3880 O   0  0  0  0  0  0  0  0  0  0  0  0
   -6.5210   21.8960  -32.2580 C   0  0  0  0  0  0  0  0  0  0  0  0
   -5.1260   21.4030  -31.8620 C   0  0  0  0  0  0  0  0  0  0  0  0
   -4.6710   20.3390  -32.7730 N   0  0  0  0  0  0  0  0  0  0  0  0
   -3.2460   20.1580  -32.9930 C   0  0  0  0  0  0  0  0  0  0  0  0
   -2.5510   21.1010  -33.6930 N   0  0  0  0  0  0  0  0  0  0  0  0
   -1.2220   20.9760  -33.9260 C   0  0  0  0  0  0  0  0  0  0  0  0
   -0.5430   21.9430  -34.5960 N   0  0  0  0  0  0  0  0  0  0  0  0
    0.7990   21.8490  -34.8230 C   0  0  0  0  0  0  0  0  0  0  0  0
    1.4980   22.9430  -35.5520 C   0  0  0  0  0  0  0  0  0  0  0  0
    2.9000   22.9530  -35.6970 C   0  0  0  0  0  0  0  0  0  0  0  0
    3.5370   23.9910  -36.3840 C   0  0  0  0  0  0  0  0  0  0  0  0
    2.7910   25.0430  -36.9310 C   0  0  0  0  0  0  0  0  0  0  0  0
    3.4730   26.1540  -37.6860 C   0  0  0  0  0  0  0  0  0  0  0  0
    3.1460   27.4530  -37.0850 N   0  0  0  0  0  0  0  0  0  0  0  0
    2.0380   28.1050  -37.7950 C   0  0  0  0  0  0  0  0  0  0  0  0
    0.8460   28.2030  -36.8850 C   0  0  0  0  0  0  0  0  0  0  0  0
   -0.4510   28.0690  -37.4090 C   0  0  0  0  0  0  0  0  0  0  0  0
   -1.5610   28.1210  -36.5590 C   0  0  0  0  0  0  0  0  0  0  0  0
   -1.3820   28.2960  -35.1820 C   0  0  0  0  0  0  0  0  0  0  0  0
   -0.0940   28.4180  -34.6550 C   0  0  0  0  0  0  0  0  0  0  0  0
    1.0170   28.3680  -35.5020 C   0  0  0  0  0  0  0  0  0  0  0  0
    1.3960   25.0470  -36.7780 C   0  0  0  0  0  0  0  0  0  0  0  0
    0.7580   24.0120  -36.0880 C   0  0  0  0  0  0  0  0  0  0  0  0
    1.4800   20.7060  -34.3610 C   0  0  0  0  0  0  0  0  0  0  0  0
    0.8000   19.7440  -33.6840 N   0  0  0  0  0  0  0  0  0  0  0  0
   -0.5340   19.8550  -33.4540 C   0  0  0  0  0  0  0  0  0  0  0  0
   -1.2400   18.8940  -32.7280 C   0  0  0  0  0  0  0  0  0  0  0  0
   -0.5610   17.7480  -32.1850 N   0  0  0  0  0  0  0  0  0  0  0  0
    0.2490   17.9650  -30.9780 C   0  0  0  0  0  0  0  0  0  0  0  0
    1.1060   16.7480  -30.6770 C   0  0  0  0  0  0  0  0  0  0  0  0
    0.3050   15.5970  -30.7800 O   0  0  0  0  0  0  0  0  0  0  0  0
    0.0610   15.2970  -32.1410 C   0  0  0  0  0  0  0  0  0  0  0  0
   -0.4410   16.5110  -32.9870 C   0  0  1  0  0  0  0  0  0  0  0  0
   -1.7710   16.1670  -33.6840 C   0  0  0  0  0  0  0  0  0  0  0  0
   -2.5740   19.0660  -32.5030 N   0  0  0  0  0  0  0  0  0  0  0  0
   -5.7423   18.6849  -31.1366 H   0  0  0  0  0  0  0  0  0  0  0  0
   -6.7636   17.7217  -32.2572 H   0  0  0  0  0  0  0  0  0  0  0  0
   -4.9804   17.5057  -32.2572 H   0  0  0  0  0  0  0  0  0  0  0  0
   -5.3203   18.8642  -34.1379 H   0  0  0  0  0  0  0  0  0  0  0  0
   -7.7819   19.2254  -33.6362 H   0  0  0  0  0  0  0  0  0  0  0  0
   -6.9222   20.6416  -34.3648 H   0  0  0  0  0  0  0  0  0  0  0  0
   -6.8940   22.5823  -31.4835 H   0  0  0  0  0  0  0  0  0  0  0  0
   -6.4500   22.4128  -33.2265 H   0  0  0  0  0  0  0  0  0  0  0  0
   -5.1603   21.0091  -30.8355 H   0  0  0  0  0  0  0  0  0  0  0  0
   -4.4224   22.2462  -31.9243 H   0  0  0  0  0  0  0  0  0  0  0  0
    3.4984   22.1369  -35.2658 H   0  0  0  0  0  0  0  0  0  0  0  0
    4.6313   23.9815  -36.4957 H   0  0  0  0  0  0  0  0  0  0  0  0
    4.5618   26.0016  -37.6510 H   0  0  0  0  0  0  0  0  0  0  0  0
    3.1249   26.1443  -38.7294 H   0  0  0  0  0  0  0  0  0  0  0  0
    3.9900   28.0670  -37.1770 H   0  0  0  0  0  0  0  0  0  0  0  0
    2.3456   29.1144  -38.1058 H   0  0  0  0  0  0  0  0  0  0  0  0
    1.7728   27.5119  -38.6826 H   0  0  0  0  0  0  0  0  0  0  0  0
   -0.5938   27.9229  -38.4899 H   0  0  0  0  0  0  0  0  0  0  0  0
   -2.5754   28.0243  -36.9733 H   0  0  0  0  0  0  0  0  0  0  0  0
   -2.2555   28.3375  -34.5147 H   0  0  0  0  0  0  0  0  0  0  0  0
    0.0461   28.5535  -33.5724 H   0  0  0  0  0  0  0  0  0  0  0  0
    2.0298   28.4584  -35.0825 H   0  0  0  0  0  0  0  0  0  0  0  0
    0.8014   25.8689  -37.2033 H   0  0  0  0  0  0  0  0  0  0  0  0
   -0.3347   24.0340  -35.9630 H   0  0  0  0  0  0  0  0  0  0  0  0
    2.5581   20.5926  -34.5475 H   0  0  0  0  0  0  0  0  0  0  0  0
   -0.4189   18.1555  -30.1250 H   0  0  0  0  0  0  0  0  0  0  0  0
    0.9097   18.8280  -31.1475 H   0  0  0  0  0  0  0  0  0  0  0  0
    1.5141   16.8252  -29.6584 H   0  0  0  0  0  0  0  0  0  0  0  0
    1.9398   16.6901  -31.3922 H   0  0  0  0  0  0  0  0  0  0  0  0
   -0.7015   14.5055  -32.1880 H   0  0  0  0  0  0  0  0  0  0  0  0
    1.0244   14.9887  -32.5732 H   0  0  0  0  0  0  0  0  0  0  0  0
    0.3190   16.7109  -33.7567 H   0  0  0  0  0  0  0  0  0  0  0  0
   -2.5419   15.9676  -32.9250 H   0  0  0  0  0  0  0  0  0  0  0  0
   -2.0853   17.0134  -34.3123 H   0  0  0  0  0  0  0  0  0  0  0  0
   -1.6355   15.2743  -34.3123 H   0  0  0  0  0  0  0  0  0  0  0  0
   -3.0590   18.3390  -31.9380 H   0  0  0  0  0  0  0  0  0  0  0  0
  1  2  1  0
  2  3  1  0
  3  4  1  0
  4  5  1  0
  5  6  1  0
  6  7  1  0
  7  8  1  0
  8  9  2  0
  9 10  1  0
 10 11  2  0
 11 12  1  0
 12 13  1  0
 13 14  2  0
 14 15  1  0
 15 16  2  0
 16 17  1  0
 17 18  1  0
 18 19  1  0
 19 20  1  0
 20 21  2  0
 21 22  1  0
 22 23  2  0
 23 24  1  0
 24 25  2  0
 16 26  1  0
 26 27  2  0
 12 28  2  0
 28 29  1  0
 29 30  2  0
 30 31  1  0
 31 32  1  0
 32 33  1  0
 33 34  1  0
 34 35  1  0
 35 36  1  0
 36 37  1  0
 37 38  1  0
 31 39  2  0
  7  2  1  0
 39  8  1  0
 30 10  1  0
 37 32  1  0
 27 13  1  0
 25 20  1  0
  1 40  1  0
  1 41  1  0
  1 42  1  0
  2 43  1  6
  3 44  1  0
  3 45  1  0
  5 46  1  0
  5 47  1  0
  6 48  1  0
  6 49  1  0
 14 50  1  0
 15 51  1  0
 17 52  1  0
 17 53  1  0
 18 54  1  0
 19 55  1  0
 19 56  1  0
 21 57  1  0
 22 58  1  0
 23 59  1  0
 24 60  1  0
 25 61  1  0
 26 62  1  0
 27 63  1  0
 28 64  1  0
 33 65  1  0
 33 66  1  0
 34 67  1  0
 34 68  1  0
 36 69  1  0
 36 70  1  0
 37 71  1  6
 38 72  1  0
 38 73  1  0
 38 74  1  0
 39 75  1  0
M  CHG  1  39   1
M  END
>  <UniqueID>  (38) 
37

>  <SMILES>  (38) 
C[C@@H]1COCCN1c1[nH+]c(N2CCOC[C@@H]2C)nc2nc(-c3ccc(CNCc4ccccc4)cc3)cnc12

>  <Energy>  (38) 
101.17314315870507

>  <Genealogy>  (38) 
CC1COCCN1c1nc2nc(-c3ccc(CNCc4ccccc4)cc3)cnc2c(N2CCOCC2C)[nH+]1 (protonated)
C[C@@H]1COCCN1c1[nH+]c(N2CCOC[C@@H]2C)nc2nc(-c3ccc(CNCc4ccccc4)cc3)cnc12 (chirality)
C[C@@H]1COCCN1c1[nH+]c(N2CCOC[C@@H]2C)nc2nc(-c3ccc(CNCc4ccccc4)cc3)cnc12 (3D coordinates assigned)
C[C@@H]1COCCN1c1[nH+]c(N2CCOC[C@@H]2C)nc2nc(-c3ccc(CNCc4ccccc4)cc3)cnc12 (nonaromatic ring conformer: 101.17314315870507 kcal/mol)

>  <smiles>  (38) 
CC1COCCN1c1nc(N2CCOCC2C)c2ncc(-c3ccc(CNCc4ccccc4)cc3)nc2n1

>  <score_type>  (38) 
oracle

>  <origin>  (38) 
adg

>  <m_score__min__energy>  (38) 
-8.5999999999999996

>  <m_primary>  (38) 
energy

$$$$
38:0
     RDKit          3D

 53 55  0  0  0  0  0  0  0  0999 V2000
   -1.7090   25.5960  -25.6260 C   0  0  0  0  0  0  0  0  0  0  0  0
   -2.6130   24.9890  -26.6980 C   0  0  0  0  0  0  0  0  0  0  0  0
   -1.9590   23.7960  -27.3580 C   0  0  0  0  0  0  0  0  0  0  0  0
   -1.3230   22.8420  -26.5470 C   0  0  0  0  0  0  0  0  0  0  0  0
   -0.7170   21.7210  -27.1110 C   0  0  0  0  0  0  0  0  0  0  0  0
   -0.7090   21.5510  -28.4930 C   0  0  0  0  0  0  0  0  0  0  0  0
   -1.3060   22.5030  -29.3320 C   0  0  0  0  0  0  0  0  0  0  0  0
   -1.2390   22.2960  -30.8210 C   0  0  0  0  0  0  0  0  0  0  0  0
   -1.9740   23.6140  -28.7630 C   0  0  0  0  0  0  0  0  0  0  0  0
   -2.6090   24.5870  -29.6010 N   0  0  0  0  0  0  0  0  0  0  0  0
   -4.3030   24.5460  -29.9690 S   0  0  0  0  0  0  0  0  0  0  0  0
   -5.0720   24.6830  -28.6850 O   0  0  0  0  0  0  0  0  0  0  0  0
   -4.6710   25.6910  -30.8700 O   0  0  0  0  0  0  0  0  0  0  0  0
   -4.7260   23.0200  -30.7430 C   0  0  0  0  0  0  0  0  0  0  0  0
   -4.2780   21.8030  -30.2140 C   0  0  0  0  0  0  0  0  0  0  0  0
   -4.5930   20.5990  -30.8520 C   0  0  0  0  0  0  0  0  0  0  0  0
   -5.3590   20.5960  -32.0310 C   0  0  0  0  0  0  0  0  0  0  0  0
   -5.6780   19.3200  -32.7210 C   0  0  0  0  0  0  0  0  0  0  0  0
   -6.8960   18.6630  -32.4770 C   0  0  0  0  0  0  0  0  0  0  0  0
   -7.1990   17.4660  -33.1300 C   0  0  0  0  0  0  0  0  0  0  0  0
   -6.2910   16.9110  -34.0340 C   0  0  0  0  0  0  0  0  0  0  0  0
   -5.0670   17.5480  -34.2880 C   0  0  0  0  0  0  0  0  0  0  0  0
   -4.0910   16.9600  -35.2800 C   0  0  0  0  0  0  0  0  0  0  0  0
   -2.7020   17.3450  -34.9860 N   0  0  0  0  0  0  0  0  0  0  0  0
   -2.1710   16.6260  -33.8260 C   0  0  0  0  0  0  0  0  0  0  0  0
   -4.7680   18.7540  -33.6330 C   0  0  0  0  0  0  0  0  0  0  0  0
   -5.8140   21.8210  -32.5500 C   0  0  0  0  0  0  0  0  0  0  0  0
   -5.5020   23.0220  -31.9080 C   0  0  0  0  0  0  0  0  0  0  0  0
   -2.0961   25.3361  -24.6297 H   0  0  0  0  0  0  0  0  0  0  0  0
   -0.6894   25.1988  -25.7383 H   0  0  0  0  0  0  0  0  0  0  0  0
   -1.6907   26.6901  -25.7383 H   0  0  0  0  0  0  0  0  0  0  0  0
   -3.5561   24.6680  -26.2315 H   0  0  0  0  0  0  0  0  0  0  0  0
   -2.7993   25.7524  -27.4677 H   0  0  0  0  0  0  0  0  0  0  0  0
   -1.3030   22.9810  -25.4560 H   0  0  0  0  0  0  0  0  0  0  0  0
   -0.2438   20.9686  -26.4629 H   0  0  0  0  0  0  0  0  0  0  0  0
   -0.2303   20.6624  -28.9304 H   0  0  0  0  0  0  0  0  0  0  0  0
   -0.9067   21.2692  -31.0339 H   0  0  0  0  0  0  0  0  0  0  0  0
   -2.2352   22.4571  -31.2588 H   0  0  0  0  0  0  0  0  0  0  0  0
   -0.5262   23.0103  -31.2588 H   0  0  0  0  0  0  0  0  0  0  0  0
   -3.6761   21.7941  -29.2933 H   0  0  0  0  0  0  0  0  0  0  0  0
   -4.2389   19.6476  -30.4284 H   0  0  0  0  0  0  0  0  0  0  0  0
   -7.6162   19.0946  -31.7664 H   0  0  0  0  0  0  0  0  0  0  0  0
   -8.1551   16.9594  -32.9317 H   0  0  0  0  0  0  0  0  0  0  0  0
   -6.5363   15.9705  -34.5491 H   0  0  0  0  0  0  0  0  0  0  0  0
   -4.1694   15.8633  -35.2470 H   0  0  0  0  0  0  0  0  0  0  0  0
   -4.3461   17.3491  -36.2768 H   0  0  0  0  0  0  0  0  0  0  0  0
   -2.0970   17.1360  -35.8150 H   0  0  0  0  0  0  0  0  0  0  0  0
   -2.5261   17.1068  -32.9026 H   0  0  0  0  0  0  0  0  0  0  0  0
   -2.5165   15.5820  -33.8521 H   0  0  0  0  0  0  0  0  0  0  0  0
   -1.0716   16.6491  -33.8521 H   0  0  0  0  0  0  0  0  0  0  0  0
   -3.8130   19.2611  -33.8350 H   0  0  0  0  0  0  0  0  0  0  0  0
   -6.4199   21.8338  -33.4680 H   0  0  0  0  0  0  0  0  0  0  0  0
   -5.8680   23.9740  -32.3201 H   0  0  0  0  0  0  0  0  0  0  0  0
  1  2  1  0
  2  3  1  0
  3  4  2  0
  4  5  1  0
  5  6  2  0
  6  7  1  0
  7  8  1  0
  7  9  2  0
  9 10  1  0
 10 11  1  0
 11 12  2  0
 11 13  2  0
 11 14  1  0
 14 15  2  0
 15 16  1  0
 16 17  2  0
 17 18  1  0
 18 19  2  0
 19 20  1  0
 20 21  2  0
 21 22  1  0
 22 23  1  0
 23 24  1  0
 24 25  1  0
 22 26  2  0
 17 27  1  0
 27 28  2  0
  9  3  1  0
 28 14  1  0
 26 18  1  0
  1 29  1  0
  1 30  1  0
  1 31  1  0
  2 32  1  0
  2 33  1  0
  4 34  1  0
  5 35  1  0
  6 36  1  0
  8 37  1  0
  8 38  1  0
  8 39  1  0
 15 40  1  0
 16 41  1  0
 19 42  1  0
 20 43  1  0
 21 44  1  0
 23 45  1  0
 23 46  1  0
 24 47  1  0
 25 48  1  0
 25 49  1  0
 25 50  1  0
 26 51  1  0
 27 52  1  0
 28 53  1  0
M  CHG  1  10  -1
M  END
>  <UniqueID>  (39) 
38

>  <SMILES>  (39) 
CCc1cccc(C)c1[N-]S(=O)(=O)c1ccc(-c2cccc(CNC)c2)cc1

>  <Energy>  (39) 
65.34171564396453

>  <Genealogy>  (39) 
CCc1cccc(C)c1[N-]S(=O)(=O)c1ccc(-c2cccc(CNC)c2)cc1 (protonated)
CCc1cccc(C)c1[N-]S(=O)(=O)c1ccc(-c2cccc(CNC)c2)cc1 (3D coordinates assigned)
CCc1cccc(C)c1[N-]S(=O)(=O)c1ccc(-c2cccc(CNC)c2)cc1 (optimized conformer: 65.34171564396453 kcal/mol)

>  <smiles>  (39) 
CCc1cccc(C)c1NS(=O)(=O)c1ccc(-c2cccc(CNC)c2)cc1

>  <score_type>  (39) 
oracle

>  <origin>  (39) 
adg

>  <m_score__min__energy>  (39) 
-9.9000000000000004

>  <m_primary>  (39) 
energy

$$$$
39:0
     RDKit          3D

 48 51  0  0  0  0  0  0  0  0999 V2000
   -6.5279   23.7788  -33.2495 H   0  0  0  0  0  0  0  0  0  0  0  0
   -6.5270   23.1330  -32.3590 C   0  0  0  0  0  0  0  0  0  0  0  0
   -7.5730   22.3220  -32.1510 C   0  0  0  0  0  0  0  0  0  0  0  0
   -8.9990   22.6600  -32.0310 C   0  0  0  0  0  0  0  0  0  0  0  0
   -9.4930   23.8160  -32.1030 O   0  0  0  0  0  0  0  0  0  0  0  0
   -9.7780   21.4910  -31.7910 N   0  0  0  0  0  0  0  0  0  0  0  0
  -10.8120   21.4320  -31.6550 H   0  0  0  0  0  0  0  0  0  0  0  0
   -8.8330   20.4290  -31.7530 C   0  0  0  0  0  0  0  0  0  0  0  0
   -9.1140   19.0810  -31.5350 C   0  0  0  0  0  0  0  0  0  0  0  0
  -10.1467   18.7390  -31.3719 H   0  0  0  0  0  0  0  0  0  0  0  0
   -8.0430   18.1700  -31.5290 C   0  0  0  0  0  0  0  0  0  0  0  0
   -8.2365   17.1004  -31.3603 H   0  0  0  0  0  0  0  0  0  0  0  0
   -6.7210   18.6190  -31.7380 C   0  0  0  0  0  0  0  0  0  0  0  0
   -5.6980   17.7300  -31.7290 F   0  0  0  0  0  0  0  0  0  0  0  0
   -6.4600   19.9840  -31.9530 C   0  0  0  0  0  0  0  0  0  0  0  0
   -5.4329   20.3432  -32.1147 H   0  0  0  0  0  0  0  0  0  0  0  0
   -7.5380   20.8720  -31.9560 C   0  0  0  0  0  0  0  0  0  0  0  0
   -5.3720   23.1940  -31.4390 C   0  0  0  0  0  0  0  0  0  0  0  0
   -5.4210   24.0250  -30.3010 C   0  0  0  0  0  0  0  0  0  0  0  0
   -6.8330   25.0100  -29.9380 Cl  0  0  0  0  0  0  0  0  0  0  0  0
   -4.3570   24.0960  -29.4620 N   0  0  0  0  0  0  0  0  0  0  0  0
   -3.2180   23.3900  -29.6750 C   0  0  0  0  0  0  0  0  0  0  0  0
   -2.3808   23.4721  -28.9662 H   0  0  0  0  0  0  0  0  0  0  0  0
   -3.1060   22.5580  -30.7940 C   0  0  0  0  0  0  0  0  0  0  0  0
   -1.9310   21.8290  -31.0240 C   0  0  0  0  0  0  0  0  0  0  0  0
   -1.0890   21.9120  -30.3210 H   0  0  0  0  0  0  0  0  0  0  0  0
   -1.8240   20.9980  -32.1410 C   0  0  0  0  0  0  0  0  0  0  0  0
   -0.8967   20.4325  -32.3153 H   0  0  0  0  0  0  0  0  0  0  0  0
   -2.8960   20.8800  -33.0450 C   0  0  0  0  0  0  0  0  0  0  0  0
   -2.8410   20.0560  -34.1820 O   0  0  0  0  0  0  0  0  0  0  0  0
   -2.5040   18.6690  -34.1870 C   0  0  0  0  0  0  0  0  0  0  0  0
   -1.5936   18.5144  -33.5893 H   0  0  0  0  0  0  0  0  0  0  0  0
   -2.3325   18.3457  -35.2243 H   0  0  0  0  0  0  0  0  0  0  0  0
   -3.6560   17.8370  -33.5850 C   0  0  0  0  0  0  0  0  0  0  0  0
   -4.1311   18.4313  -32.7906 H   0  0  0  0  0  0  0  0  0  0  0  0
   -3.2083   16.9038  -33.2124 H   0  0  0  0  0  0  0  0  0  0  0  0
   -4.7000   17.4460  -34.5580 N   0  0  0  0  0  0  0  0  0  0  0  0
   -5.6470   18.5350  -34.8480 C   0  0  0  0  0  0  0  0  0  0  0  0
   -6.0170   18.9604  -33.9035 H   0  0  0  0  0  0  0  0  0  0  0  0
   -5.1381   19.3185  -35.4286 H   0  0  0  0  0  0  0  0  0  0  0  0
   -6.4936   18.1398  -35.4286 H   0  0  0  0  0  0  0  0  0  0  0  0
   -5.4060   16.2130  -34.1800 C   0  0  0  0  0  0  0  0  0  0  0  0
   -5.4496   16.1369  -33.0835 H   0  0  0  0  0  0  0  0  0  0  0  0
   -6.4277   16.2361  -34.5868 H   0  0  0  0  0  0  0  0  0  0  0  0
   -4.8689   15.3435  -34.5868 H   0  0  0  0  0  0  0  0  0  0  0  0
   -4.0680   21.6100  -32.8180 C   0  0  0  0  0  0  0  0  0  0  0  0
   -4.9056   21.5223  -33.5256 H   0  0  0  0  0  0  0  0  0  0  0  0
   -4.1930   22.4570  -31.6960 C   0  0  0  0  0  0  0  0  0  0  0  0
  1  2  1  0
  2  3  2  0
  3  4  1  0
  4  5  2  0
  4  6  1  0
  6  7  1  0
  6  8  1  0
  8  9  2  0
  9 10  1  0
  9 11  1  0
 11 12  1  0
 11 13  2  0
 13 14  1  0
 13 15  1  0
 15 16  1  0
 15 17  2  0
  2 18  1  0
 18 19  2  0
 19 20  1  0
 19 21  1  0
 21 22  2  0
 22 23  1  0
 22 24  1  0
 24 25  2  0
 25 26  1  0
 25 27  1  0
 27 28  1  0
 27 29  2  0
 29 30  1  0
 30 31  1  0
 31 32  1  0
 31 33  1  0
 31 34  1  0
 34 35  1  0
 34 36  1  0
 34 37  1  0
 37 38  1  0
 38 39  1  0
 38 40  1  0
 38 41  1  0
 37 42  1  0
 42 43  1  0
 42 44  1  0
 42 45  1  0
 29 46  1  0
 46 47  1  0
 46 48  2  0
 17  3  1  0
 48 18  1  0
 17  8  1  0
 48 24  1  0
M  END
>  <UniqueID>  (40) 
39

>  <SMILES>  (40) 
CN(C)CCOc1ccc2cnc(Cl)c(/C=C3\C(=O)Nc4ccc(F)cc43)c2c1

>  <Energy>  (40) 
97.7282449570212

>  <Genealogy>  (40) 
CN(C)CCOc1ccc2cnc(Cl)c(/C=C3\C(=O)Nc4ccc(F)cc43)c2c1 (cis-trans isomerization)
CN(C)CCOc1ccc2cnc(Cl)c(/C=C3\C(=O)Nc4ccc(F)cc43)c2c1 (3D coordinates assigned)
CN(C)CCOc1ccc2cnc(Cl)c(/C=C3\C(=O)Nc4ccc(F)cc43)c2c1 (nonaromatic ring conformer: 97.7282449570212 kcal/mol)

>  <smiles>  (40) 
CN(C)CCOc1ccc2cnc(Cl)c(C=C3C(=O)Nc4ccc(F)cc43)c2c1

>  <score_type>  (40) 
oracle

>  <origin>  (40) 
adg

>  <m_score__min__energy>  (40) 
-9.1899999999999995

>  <m_primary>  (40) 
energy

$$$$
40:0
     RDKit          3D

 48 51  0  0  0  0  0  0  0  0999 V2000
   -4.2510   24.5670  -27.0800 C   0  0  0  0  0  0  0  0  0  0  0  0
   -3.0800   24.1120  -27.8910 C   0  0  0  0  0  0  0  0  0  0  0  0
   -1.9370   23.6450  -27.3500 N   0  0  0  0  0  0  0  0  0  0  0  0
   -1.1300   23.3280  -28.3490 N   0  0  0  0  0  0  0  0  0  0  0  0
    0.1790   22.7160  -28.1690 C   0  0  0  0  0  0  0  0  0  0  0  0
   -1.7360   23.5550  -29.5290 C   0  0  0  0  0  0  0  0  0  0  0  0
   -2.9910   24.0730  -29.2760 C   0  0  0  0  0  0  0  0  0  0  0  0
   -4.0290   24.4250  -30.2670 C   0  0  0  0  0  0  0  0  0  0  0  0
   -4.0610   25.5970  -30.7300 O   0  0  0  0  0  0  0  0  0  0  0  0
   -5.0050   23.4610  -30.7100 N   0  0  0  0  0  0  0  0  0  0  0  0
   -5.7810   22.6970  -29.7240 C   0  0  0  0  0  0  0  0  0  0  0  0
   -7.2860   23.0000  -29.8410 C   0  0  0  0  0  0  0  0  0  0  0  0
   -7.6990   23.5370  -31.2270 C   0  0  0  0  0  0  0  0  0  0  0  0
   -6.8270   22.9790  -32.3650 C   0  0  2  0  0  0  0  0  0  0  0  0
   -7.0440   21.4980  -32.5400 C   0  0  0  0  0  0  0  0  0  0  0  0
   -6.1420   20.6660  -33.0900 N   0  0  0  0  0  0  0  0  0  0  0  0
   -6.7710   19.4720  -33.0550 C   0  0  0  0  0  0  0  0  0  0  0  0
   -6.2060   18.1940  -33.5530 C   0  0  0  0  0  0  0  0  0  0  0  0
   -6.8620   16.9680  -33.3270 C   0  0  0  0  0  0  0  0  0  0  0  0
   -6.3160   15.7740  -33.8100 C   0  0  0  0  0  0  0  0  0  0  0  0
   -5.1130   15.7890  -34.5200 C   0  0  0  0  0  0  0  0  0  0  0  0
   -4.4550   16.9980  -34.7520 C   0  0  0  0  0  0  0  0  0  0  0  0
   -4.9960   18.1950  -34.2730 C   0  0  0  0  0  0  0  0  0  0  0  0
   -8.0010   19.5850  -32.5100 N   0  0  0  0  0  0  0  0  0  0  0  0
   -8.1320   20.8430  -32.2070 O   0  0  0  0  0  0  0  0  0  0  0  0
   -5.3400   23.3480  -32.1410 C   0  0  0  0  0  0  0  0  0  0  0  0
   -4.0138   24.4749  -26.0098 H   0  0  0  0  0  0  0  0  0  0  0  0
   -4.4750   25.6176  -27.3168 H   0  0  0  0  0  0  0  0  0  0  0  0
   -5.1256   23.9433  -27.3168 H   0  0  0  0  0  0  0  0  0  0  0  0
    0.3925   22.6162  -27.0945 H   0  0  0  0  0  0  0  0  0  0  0  0
    0.1863   21.7211  -28.6382 H   0  0  0  0  0  0  0  0  0  0  0  0
    0.9471   23.3484  -28.6382 H   0  0  0  0  0  0  0  0  0  0  0  0
   -1.3062   23.3615  -30.5229 H   0  0  0  0  0  0  0  0  0  0  0  0
   -5.6174   21.6226  -29.8938 H   0  0  0  0  0  0  0  0  0  0  0  0
   -5.4454   22.9872  -28.7174 H   0  0  0  0  0  0  0  0  0  0  0  0
   -7.8442   22.0723  -29.6464 H   0  0  0  0  0  0  0  0  0  0  0  0
   -7.5160   23.7866  -29.1073 H   0  0  0  0  0  0  0  0  0  0  0  0
   -8.7456   23.2558  -31.4156 H   0  0  0  0  0  0  0  0  0  0  0  0
   -7.5669   24.6289  -31.2126 H   0  0  0  0  0  0  0  0  0  0  0  0
   -7.1343   23.4490  -33.3109 H   0  0  0  0  0  0  0  0  0  0  0  0
   -5.1960   20.9090  -33.4590 H   0  0  0  0  0  0  0  0  0  0  0  0
   -7.8089   16.9494  -32.7676 H   0  0  0  0  0  0  0  0  0  0  0  0
   -6.8352   14.8210  -33.6303 H   0  0  0  0  0  0  0  0  0  0  0  0
   -4.6844   14.8484  -34.8961 H   0  0  0  0  0  0  0  0  0  0  0  0
   -3.5088   17.0090  -35.3129 H   0  0  0  0  0  0  0  0  0  0  0  0
   -4.4726   19.1443  -34.4600 H   0  0  0  0  0  0  0  0  0  0  0  0
   -4.7093   22.5678  -32.5922 H   0  0  0  0  0  0  0  0  0  0  0  0
   -5.1604   24.3273  -32.6087 H   0  0  0  0  0  0  0  0  0  0  0  0
  1  2  1  0
  2  3  2  0
  3  4  1  0
  4  5  1  0
  4  6  1  0
  6  7  2  0
  7  8  1  0
  8  9  2  0
  8 10  1  0
 10 11  1  0
 11 12  1  0
 12 13  1  0
 13 14  1  0
 14 15  1  0
 15 16  2  0
 16 17  1  0
 17 18  1  0
 18 19  2  0
 19 20  1  0
 20 21  2  0
 21 22  1  0
 22 23  2  0
 17 24  2  0
 24 25  1  0
 14 26  1  0
  7  2  1  0
 26 10  1  0
 25 15  1  0
 23 18  1  0
  1 27  1  0
  1 28  1  0
  1 29  1  0
  5 30  1  0
  5 31  1  0
  5 32  1  0
  6 33  1  0
 11 34  1  0
 11 35  1  0
 12 36  1  0
 12 37  1  0
 13 38  1  0
 13 39  1  0
 14 40  1  6
 16 41  1  0
 19 42  1  0
 20 43  1  0
 21 44  1  0
 22 45  1  0
 23 46  1  0
 26 47  1  0
 26 48  1  0
M  CHG  1  16   1
M  END
>  <UniqueID>  (41) 
40

>  <SMILES>  (41) 
Cc1nn(C)cc1C(=O)N1CCC[C@H](c2[nH+]c(-c3ccccc3)no2)C1

>  <Energy>  (41) 
122.53548607319794

>  <Genealogy>  (41) 
Cc1nn(C)cc1C(=O)N1CCCC(c2[nH+]c(-c3ccccc3)no2)C1 (protonated)
Cc1nn(C)cc1C(=O)N1CCC[C@H](c2[nH+]c(-c3ccccc3)no2)C1 (chirality)
Cc1nn(C)cc1C(=O)N1CCC[C@H](c2[nH+]c(-c3ccccc3)no2)C1 (3D coordinates assigned)
Cc1nn(C)cc1C(=O)N1CCC[C@H](c2[nH+]c(-c3ccccc3)no2)C1 (nonaromatic ring conformer: 122.53548607319794 kcal/mol)

>  <smiles>  (41) 
Cc1nn(C)cc1C(=O)N1CCCC(c2nc(-c3ccccc3)no2)C1

>  <score_type>  (41) 
oracle

>  <origin>  (41) 
adg

>  <m_score__min__energy>  (41) 
-8.3800000000000008

>  <m_primary>  (41) 
energy

$$$$
41:0
     RDKit          3D

 51 54  0  0  0  0  0  0  0  0999 V2000
   -5.6140   17.4950  -34.9620 C   0  0  0  0  0  0  0  0  0  0  0  0
   -6.7160   16.6710  -33.7710 S   0  0  0  0  0  0  0  0  0  0  0  0
   -5.7280   17.1350  -32.3060 C   0  0  0  0  0  0  0  0  0  0  0  0
   -6.6020   17.7890  -31.2350 C   0  0  0  0  0  0  0  0  0  0  0  0
   -7.7010   18.5530  -31.8320 N   0  0  0  0  0  0  0  0  0  0  0  0
   -8.9870   18.3150  -31.6450 N   0  0  0  0  0  0  0  0  0  0  0  0
   -9.7070   19.1480  -32.3790 N   0  0  0  0  0  0  0  0  0  0  0  0
   -8.8970   19.9430  -33.0670 N   0  0  0  0  0  0  0  0  0  0  0  0
   -7.6490   19.5640  -32.7240 C   0  0  0  0  0  0  0  0  0  0  0  0
   -6.3980   20.1720  -33.2940 C   0  0  0  0  0  0  0  0  0  0  0  0
   -5.6790   20.9660  -32.2740 N   0  0  0  0  0  0  0  0  0  0  0  0
   -6.6210   21.5920  -31.3190 C   0  0  0  0  0  0  0  0  0  0  0  0
   -6.1950   22.9950  -30.9640 C   0  0  0  0  0  0  0  0  0  0  0  0
   -7.0340   23.8250  -30.2080 C   0  0  0  0  0  0  0  0  0  0  0  0
   -6.6220   25.1130  -29.8670 C   0  0  0  0  0  0  0  0  0  0  0  0
   -5.3600   25.5550  -30.2670 C   0  0  0  0  0  0  0  0  0  0  0  0
   -4.5430   24.7290  -30.9710 N   0  0  0  0  0  0  0  0  0  0  0  0
   -4.9240   23.4710  -31.3190 C   0  0  0  0  0  0  0  0  0  0  0  0
   -4.5650   20.2280  -31.6180 C   0  0  0  0  0  0  0  0  0  0  0  0
   -3.1830   20.5910  -32.1250 C   0  0  0  0  0  0  0  0  0  0  0  0
   -2.2700   21.2720  -31.2780 C   0  0  0  0  0  0  0  0  0  0  0  0
   -0.9880   21.6200  -31.7370 C   0  0  0  0  0  0  0  0  0  0  0  0
   -0.6560   21.2900  -33.0460 C   0  0  0  0  0  0  0  0  0  0  0  0
   -1.5290   20.6600  -33.8700 C   0  0  0  0  0  0  0  0  0  0  0  0
   -2.8070   20.3000  -33.4560 C   0  0  0  0  0  0  0  0  0  0  0  0
   -0.9400   20.4670  -35.1040 O   0  0  0  0  0  0  0  0  0  0  0  0
    0.3890   21.0070  -35.0500 C   0  0  0  0  0  0  0  0  0  0  0  0
    0.5270   21.5260  -33.7200 O   0  0  0  0  0  0  0  0  0  0  0  0
   -4.8484   18.0675  -34.4178 H   0  0  0  0  0  0  0  0  0  0  0  0
   -5.1259   16.7385  -35.5940 H   0  0  0  0  0  0  0  0  0  0  0  0
   -6.2016   18.1771  -35.5940 H   0  0  0  0  0  0  0  0  0  0  0  0
   -5.2620   16.2312  -31.8864 H   0  0  0  0  0  0  0  0  0  0  0  0
   -4.9598   17.8577  -32.6182 H   0  0  0  0  0  0  0  0  0  0  0  0
   -7.0219   17.0046  -30.5882 H   0  0  0  0  0  0  0  0  0  0  0  0
   -5.9756   18.4818  -30.6538 H   0  0  0  0  0  0  0  0  0  0  0  0
   -9.3840   17.5740  -31.0270 H   0  0  0  0  0  0  0  0  0  0  0  0
   -5.7392   19.3677  -33.6532 H   0  0  0  0  0  0  0  0  0  0  0  0
   -6.6799   20.8397  -34.1215 H   0  0  0  0  0  0  0  0  0  0  0  0
   -7.6218   21.6264  -31.7742 H   0  0  0  0  0  0  0  0  0  0  0  0
   -6.6310   20.9902  -30.3983 H   0  0  0  0  0  0  0  0  0  0  0  0
   -8.0194   23.4598  -29.8830 H   0  0  0  0  0  0  0  0  0  0  0  0
   -7.2847   25.7737  -29.2888 H   0  0  0  0  0  0  0  0  0  0  0  0
   -5.0270   26.5720  -30.0122 H   0  0  0  0  0  0  0  0  0  0  0  0
   -4.2335   22.8246  -31.8806 H   0  0  0  0  0  0  0  0  0  0  0  0
   -4.6014   20.4399  -30.5392 H   0  0  0  0  0  0  0  0  0  0  0  0
   -4.7142   19.1640  -31.8538 H   0  0  0  0  0  0  0  0  0  0  0  0
   -2.5690   21.5301  -30.2514 H   0  0  0  0  0  0  0  0  0  0  0  0
   -0.2709   22.1365  -31.0820 H   0  0  0  0  0  0  0  0  0  0  0  0
   -3.5055   19.8028  -34.1451 H   0  0  0  0  0  0  0  0  0  0  0  0
    1.1339   20.2194  -35.2365 H   0  0  0  0  0  0  0  0  0  0  0  0
    0.5507   21.7818  -35.8139 H   0  0  0  0  0  0  0  0  0  0  0  0
  1  2  1  0
  2  3  1  0
  3  4  1  0
  4  5  1  0
  5  6  1  0
  6  7  2  0
  7  8  1  0
  8  9  2  0
  9 10  1  0
 10 11  1  0
 11 12  1  0
 12 13  1  0
 13 14  2  0
 14 15  1  0
 15 16  2  0
 16 17  1  0
 17 18  2  0
 11 19  1  0
 19 20  1  0
 20 21  2  0
 21 22  1  0
 22 23  2  0
 23 24  1  0
 24 25  2  0
 24 26  1  0
 26 27  1  0
 27 28  1  0
  9  5  1  0
 18 13  1  0
 25 20  1  0
 28 23  1  0
  1 29  1  0
  1 30  1  0
  1 31  1  0
  3 32  1  0
  3 33  1  0
  4 34  1  0
  4 35  1  0
  6 36  1  0
 10 37  1  0
 10 38  1  0
 12 39  1  0
 12 40  1  0
 14 41  1  0
 15 42  1  0
 16 43  1  0
 18 44  1  0
 19 45  1  0
 19 46  1  0
 21 47  1  0
 22 48  1  0
 25 49  1  0
 27 50  1  0
 27 51  1  0
M  CHG  1   6   1
M  END
>  <UniqueID>  (42) 
41

>  <SMILES>  (42) 
CSCCn1[nH+]nnc1CN(Cc1cccnc1)Cc1ccc2c(c1)OCO2

>  <Energy>  (42) 
118.96877893790258

>  <Genealogy>  (42) 
CSCCn1[nH+]nnc1CN(Cc1cccnc1)Cc1ccc2c(c1)OCO2 (protonated)
CSCCn1[nH+]nnc1CN(Cc1cccnc1)Cc1ccc2c(c1)OCO2 (3D coordinates assigned)
CSCCn1[nH+]nnc1CN(Cc1cccnc1)Cc1ccc2c(c1)OCO2 (nonaromatic ring conformer: 118.96877893790258 kcal/mol)

>  <smiles>  (42) 
CSCCn1nnnc1CN(Cc1cccnc1)Cc1ccc2c(c1)OCO2

>  <score_type>  (42) 
oracle

>  <origin>  (42) 
adg

>  <m_score__min__energy>  (42) 
-8.5800000000000001

>  <m_primary>  (42) 
energy

$$$$
42:0
     RDKit          3D

 41 44  0  0  0  0  0  0  0  0999 V2000
   -3.0910   14.9940  -35.8550 C   0  0  0  0  0  0  0  0  0  0  0  0
   -4.2370   14.8650  -35.0200 O   0  0  0  0  0  0  0  0  0  0  0  0
   -4.9620   15.9470  -34.4990 C   0  0  0  0  0  0  0  0  0  0  0  0
   -4.4810   17.2410  -34.7250 C   0  0  0  0  0  0  0  0  0  0  0  0
   -5.1660   18.3520  -34.2270 C   0  0  0  0  0  0  0  0  0  0  0  0
   -6.3500   18.1890  -33.4840 C   0  0  0  0  0  0  0  0  0  0  0  0
   -7.0720   19.3740  -32.9570 C   0  0  0  0  0  0  0  0  0  0  0  0
   -8.4050   19.5910  -33.0890 N   0  0  0  0  0  0  0  0  0  0  0  0
   -8.8320   20.7190  -32.5260 N   0  0  0  0  0  0  0  0  0  0  0  0
   -7.8440   21.4270  -31.9390 C   0  0  0  0  0  0  0  0  0  0  0  0
   -8.0610   22.7170  -31.2180 C   0  0  0  0  0  0  0  0  0  0  0  0
   -7.1400   22.7230  -29.6410 S   0  0  0  0  0  0  0  0  0  0  0  0
   -6.0370   24.0630  -30.1110 C   0  0  0  0  0  0  0  0  0  0  0  0
   -6.4400   25.3360  -30.2640 N   0  0  0  0  0  0  0  0  0  0  0  0
   -5.3740   25.9840  -30.7100 N   0  0  0  0  0  0  0  0  0  0  0  0
   -4.3570   25.1480  -30.8440 N   0  0  0  0  0  0  0  0  0  0  0  0
   -4.7440   23.9390  -30.4720 N   0  0  0  0  0  0  0  0  0  0  0  0
   -3.9270   22.7590  -30.5730 C   0  0  0  0  0  0  0  0  0  0  0  0
   -3.3210   22.2010  -29.4340 C   0  0  0  0  0  0  0  0  0  0  0  0
   -2.5170   21.0620  -29.5450 C   0  0  0  0  0  0  0  0  0  0  0  0
   -2.3050   20.4730  -30.7930 C   0  0  0  0  0  0  0  0  0  0  0  0
   -2.8910   21.0260  -31.9330 C   0  0  0  0  0  0  0  0  0  0  0  0
   -3.6950   22.1660  -31.8290 C   0  0  0  0  0  0  0  0  0  0  0  0
   -4.2670   22.6750  -32.9500 F   0  0  0  0  0  0  0  0  0  0  0  0
   -6.3620   20.6430  -32.0960 S   0  0  0  0  0  0  0  0  0  0  0  0
   -6.8350   16.8870  -33.2620 C   0  0  0  0  0  0  0  0  0  0  0  0
   -6.1480   15.7770  -33.7620 C   0  0  0  0  0  0  0  0  0  0  0  0
   -2.1915   15.0953  -35.2300 H   0  0  0  0  0  0  0  0  0  0  0  0
   -2.9976   14.1007  -36.4900 H   0  0  0  0  0  0  0  0  0  0  0  0
   -3.1985   15.8857  -36.4900 H   0  0  0  0  0  0  0  0  0  0  0  0
   -3.5546   17.3851  -35.3003 H   0  0  0  0  0  0  0  0  0  0  0  0
   -4.7765   19.3630  -34.4173 H   0  0  0  0  0  0  0  0  0  0  0  0
   -9.0670   18.9360  -33.5590 H   0  0  0  0  0  0  0  0  0  0  0  0
   -7.7093   23.5481  -31.8470 H   0  0  0  0  0  0  0  0  0  0  0  0
   -9.1342   22.8331  -31.0065 H   0  0  0  0  0  0  0  0  0  0  0  0
   -3.4802   22.6633  -28.4487 H   0  0  0  0  0  0  0  0  0  0  0  0
   -2.0508   20.6294  -28.6475 H   0  0  0  0  0  0  0  0  0  0  0  0
   -1.6768   19.5740  -30.8779 H   0  0  0  0  0  0  0  0  0  0  0  0
   -2.7199   20.5637  -32.9164 H   0  0  0  0  0  0  0  0  0  0  0  0
   -7.7631   16.7413  -32.6898 H   0  0  0  0  0  0  0  0  0  0  0  0
   -6.5371   14.7647  -33.5780 H   0  0  0  0  0  0  0  0  0  0  0  0
  1  2  1  0
  2  3  1  0
  3  4  2  0
  4  5  1  0
  5  6  2  0
  6  7  1  0
  7  8  2  0
  8  9  1  0
  9 10  2  0
 10 11  1  0
 11 12  1  0
 12 13  1  0
 13 14  2  0
 14 15  1  0
 15 16  2  0
 16 17  1  0
 17 18  1  0
 18 19  2  0
 19 20  1  0
 20 21  2  0
 21 22  1  0
 22 23  2  0
 23 24  1  0
 10 25  1  0
  6 26  1  0
 26 27  2  0
 27  3  1  0
 25  7  1  0
 17 13  1  0
 23 18  1  0
  1 28  1  0
  1 29  1  0
  1 30  1  0
  4 31  1  0
  5 32  1  0
  8 33  1  0
 11 34  1  0
 11 35  1  0
 19 36  1  0
 20 37  1  0
 21 38  1  0
 22 39  1  0
 26 40  1  0
 27 41  1  0
M  CHG  1   8   1
M  END
>  <UniqueID>  (43) 
42

>  <SMILES>  (43) 
COc1ccc(-c2[nH+]nc(CSc3nnnn3-c3ccccc3F)s2)cc1

>  <Energy>  (43) 
121.95195897780067

>  <Genealogy>  (43) 
COc1ccc(-c2[nH+]nc(CSc3nnnn3-c3ccccc3F)s2)cc1 (protonated)
COc1ccc(-c2[nH+]nc(CSc3nnnn3-c3ccccc3F)s2)cc1 (3D coordinates assigned)
COc1ccc(-c2[nH+]nc(CSc3nnnn3-c3ccccc3F)s2)cc1 (optimized conformer: 121.95195897780067 kcal/mol)

>  <smiles>  (43) 
COc1ccc(-c2nnc(CSc3nnnn3-c3ccccc3F)s2)cc1

>  <score_type>  (43) 
oracle

>  <origin>  (43) 
adg

>  <m_score__min__energy>  (43) 
-9.2799999999999994

>  <m_primary>  (43) 
energy

$$$$
43:0
     RDKit          3D

 45 48  0  0  0  0  0  0  0  0999 V2000
   -9.1630   20.0350  -32.3240 C   0  0  0  0  0  0  0  0  0  0  0  0
   -9.2630   21.4480  -32.1970 O   0  0  0  0  0  0  0  0  0  0  0  0
   -8.2500   22.2750  -31.6960 C   0  0  0  0  0  0  0  0  0  0  0  0
   -7.4590   23.0860  -32.5290 C   0  0  0  0  0  0  0  0  0  0  0  0
   -6.4610   23.8940  -31.9810 C   0  0  0  0  0  0  0  0  0  0  0  0
   -6.2340   23.9010  -30.5940 C   0  0  0  0  0  0  0  0  0  0  0  0
   -5.1380   24.7530  -30.0100 C   0  0  0  0  0  0  0  0  0  0  0  0
   -4.3820   23.9920  -28.9570 C   0  0  0  0  0  0  0  0  0  0  0  0
   -4.1490   24.4490  -27.7120 N   0  0  0  0  0  0  0  0  0  0  0  0
   -3.3300   23.5980  -27.1080 N   0  0  0  0  0  0  0  0  0  0  0  0
   -3.0610   22.6160  -27.9980 C   0  0  0  0  0  0  0  0  0  0  0  0
   -2.1770   21.4790  -27.6720 C   0  0  0  0  0  0  0  0  0  0  0  0
   -0.7990   21.3590  -27.8590 C   0  0  0  0  0  0  0  0  0  0  0  0
   -0.2670   20.1690  -27.4780 N   0  0  0  0  0  0  0  0  0  0  0  0
   -1.1990   19.3230  -26.9860 C   0  0  0  0  0  0  0  0  0  0  0  0
   -2.7250   20.0250  -27.0260 S   0  0  0  0  0  0  0  0  0  0  0  0
   -3.7230   22.8330  -29.1590 N   0  0  0  0  0  0  0  0  0  0  0  0
   -3.5680   22.1740  -30.3910 N   0  0  0  0  0  0  0  0  0  0  0  0
   -4.6140   21.2460  -30.8380 C   0  0  0  0  0  0  0  0  0  0  0  0
   -4.0660   20.2210  -31.8310 C   0  0  0  0  0  0  0  0  0  0  0  0
   -3.2110   20.8310  -32.7770 O   0  0  0  0  0  0  0  0  0  0  0  0
   -2.0440   21.2790  -32.1230 C   0  0  0  0  0  0  0  0  0  0  0  0
   -2.3700   22.4470  -31.1930 C   0  0  0  0  0  0  0  0  0  0  0  0
   -7.0150   23.0840  -29.7660 C   0  0  0  0  0  0  0  0  0  0  0  0
   -8.0230   22.2860  -30.3130 C   0  0  0  0  0  0  0  0  0  0  0  0
   -9.1307   19.5783  -31.3238 H   0  0  0  0  0  0  0  0  0  0  0  0
  -10.0364   19.6535  -32.8732 H   0  0  0  0  0  0  0  0  0  0  0  0
   -8.2446   19.7803  -32.8732 H   0  0  0  0  0  0  0  0  0  0  0  0
   -7.6271   23.0838  -33.6161 H   0  0  0  0  0  0  0  0  0  0  0  0
   -5.8488   24.5288  -32.6385 H   0  0  0  0  0  0  0  0  0  0  0  0
   -4.4442   25.0487  -30.8107 H   0  0  0  0  0  0  0  0  0  0  0  0
   -5.5886   25.6444  -29.5492 H   0  0  0  0  0  0  0  0  0  0  0  0
   -4.5060   25.3320  -27.2870 H   0  0  0  0  0  0  0  0  0  0  0  0
   -0.1884   22.1693  -28.2840 H   0  0  0  0  0  0  0  0  0  0  0  0
   -0.9871   18.3112  -26.6100 H   0  0  0  0  0  0  0  0  0  0  0  0
   -5.0189   20.7156  -29.9635 H   0  0  0  0  0  0  0  0  0  0  0  0
   -5.4001   21.8282  -31.3411 H   0  0  0  0  0  0  0  0  0  0  0  0
   -3.5021   19.4539  -31.2801 H   0  0  0  0  0  0  0  0  0  0  0  0
   -4.9132   19.7694  -32.3680 H   0  0  0  0  0  0  0  0  0  0  0  0
   -1.6195   20.4534  -31.5330 H   0  0  0  0  0  0  0  0  0  0  0  0
   -1.3185   21.6157  -32.8782 H   0  0  0  0  0  0  0  0  0  0  0  0
   -1.5181   22.6156  -30.5179 H   0  0  0  0  0  0  0  0  0  0  0  0
   -2.5615   23.3376  -31.8095 H   0  0  0  0  0  0  0  0  0  0  0  0
   -6.8339   23.0708  -28.6811 H   0  0  0  0  0  0  0  0  0  0  0  0
   -8.6432   21.6616  -29.6531 H   0  0  0  0  0  0  0  0  0  0  0  0
  1  2  1  0
  2  3  1  0
  3  4  2  0
  4  5  1  0
  5  6  2  0
  6  7  1  0
  7  8  1  0
  8  9  2  0
  9 10  1  0
 10 11  2  0
 11 12  1  0
 12 13  2  0
 13 14  1  0
 14 15  2  0
 15 16  1  0
 11 17  1  0
 17 18  1  0
 18 19  1  0
 19 20  1  0
 20 21  1  0
 21 22  1  0
 22 23  1  0
  6 24  1  0
 24 25  2  0
 25  3  1  0
 17  8  1  0
 23 18  1  0
 16 12  1  0
  1 26  1  0
  1 27  1  0
  1 28  1  0
  4 29  1  0
  5 30  1  0
  7 31  1  0
  7 32  1  0
  9 33  1  0
 13 34  1  0
 15 35  1  0
 19 36  1  0
 19 37  1  0
 20 38  1  0
 20 39  1  0
 22 40  1  0
 22 41  1  0
 23 42  1  0
 23 43  1  0
 24 44  1  0
 25 45  1  0
M  CHG  1   9   1
M  END
>  <UniqueID>  (44) 
43

>  <SMILES>  (44) 
COc1ccc(Cc2[nH+]nc(-c3cncs3)n2N2CCOCC2)cc1

>  <Energy>  (44) 
121.04153573915434

>  <Genealogy>  (44) 
COc1ccc(Cc2[nH+]nc(-c3cncs3)n2N2CCOCC2)cc1 (protonated)
COc1ccc(Cc2[nH+]nc(-c3cncs3)n2N2CCOCC2)cc1 (3D coordinates assigned)
COc1ccc(Cc2[nH+]nc(-c3cncs3)n2N2CCOCC2)cc1 (nonaromatic ring conformer: 121.04153573915434 kcal/mol)

>  <smiles>  (44) 
COc1ccc(Cc2nnc(-c3cncs3)n2N2CCOCC2)cc1

>  <score_type>  (44) 
oracle

>  <origin>  (44) 
adg

>  <m_score__min__energy>  (44) 
-7.2300000000000004

>  <m_primary>  (44) 
energy

$$$$
44:0
     RDKit          3D

 31 33  0  0  0  0  0  0  0  0999 V2000
   -8.2274   23.3663  -31.3125 H   0  0  0  0  0  0  0  0  0  0  0  0
   -7.1490   23.5630  -31.2210 C   0  0  0  0  0  0  0  0  0  0  0  0
   -6.4480   24.9240  -30.5220 S   0  0  0  0  0  0  0  0  0  0  0  0
   -4.8840   24.3940  -30.8150 C   0  0  0  0  0  0  0  0  0  0  0  0
   -3.8240   25.0630  -30.4640 N   0  0  0  0  0  0  0  0  0  0  0  0
   -2.9990   24.8750  -29.3010 C   0  0  0  0  0  0  0  0  0  0  0  0
   -1.8120   25.3000  -29.3430 O   0  0  0  0  0  0  0  0  0  0  0  0
   -3.5050   24.1980  -28.0470 C   0  0  0  0  0  0  0  0  0  0  0  0
   -3.3626   24.8800  -27.1957 H   0  0  0  0  0  0  0  0  0  0  0  0
   -4.5680   23.9603  -28.2007 H   0  0  0  0  0  0  0  0  0  0  0  0
   -2.7830   22.9060  -27.7580 C   0  0  0  0  0  0  0  0  0  0  0  0
   -1.5720   22.9150  -27.0450 C   0  0  0  0  0  0  0  0  0  0  0  0
   -1.1373   23.8704  -26.7159 H   0  0  0  0  0  0  0  0  0  0  0  0
   -0.9170   21.7140  -26.7520 C   0  0  0  0  0  0  0  0  0  0  0  0
    0.0351   21.7272  -26.2012 H   0  0  0  0  0  0  0  0  0  0  0  0
   -1.4720   20.4970  -27.1590 C   0  0  0  0  0  0  0  0  0  0  0  0
   -0.9557   19.5532  -26.9295 H   0  0  0  0  0  0  0  0  0  0  0  0
   -2.6820   20.4790  -27.8570 C   0  0  0  0  0  0  0  0  0  0  0  0
   -3.1183   19.5205  -28.1745 H   0  0  0  0  0  0  0  0  0  0  0  0
   -3.3400   21.6780  -28.1530 C   0  0  0  0  0  0  0  0  0  0  0  0
   -4.2961   21.6591  -28.6965 H   0  0  0  0  0  0  0  0  0  0  0  0
   -4.8660   23.1940  -31.4340 N   0  0  0  0  0  0  0  0  0  0  0  0
   -6.1230   22.7280  -31.6640 C   0  0  0  0  0  0  0  0  0  0  0  0
   -6.3550   21.4370  -32.3310 C   0  0  0  0  0  0  0  0  0  0  0  0
   -5.1950   20.5210  -33.1430 S   0  0  0  0  0  0  0  0  0  0  0  0
   -6.2360   19.2750  -33.5780 C   0  0  0  0  0  0  0  0  0  0  0  0
   -5.7370   17.7290  -34.5750 Br  0  0  0  0  0  0  0  0  0  0  0  0
   -7.5040   19.5570  -33.0940 C   0  0  0  0  0  0  0  0  0  0  0  0
   -8.3694   18.8946  -33.2437 H   0  0  0  0  0  0  0  0  0  0  0  0
   -7.5740   20.7680  -32.3960 C   0  0  0  0  0  0  0  0  0  0  0  0
   -8.5000   21.1528  -31.9438 H   0  0  0  0  0  0  0  0  0  0  0  0
  1  2  1  0
  2  3  1  0
  3  4  1  0
  4  5  2  0
  5  6  1  0
  6  7  2  0
  6  8  1  0
  8  9  1  0
  8 10  1  0
  8 11  1  0
 11 12  2  0
 12 13  1  0
 12 14  1  0
 14 15  1  0
 14 16  2  0
 16 17  1  0
 16 18  1  0
 18 19  1  0
 18 20  2  0
 20 21  1  0
  4 22  1  0
 22 23  1  0
 23 24  1  0
 24 25  1  0
 25 26  1  0
 26 27  1  0
 26 28  2  0
 28 29  1  0
 28 30  1  0
 30 31  1  0
 23  2  2  0
 30 24  2  0
 20 11  1  0
M  CHG  1  22  -1
M  END
>  <UniqueID>  (45) 
44

>  <SMILES>  (45) 
O=C(Cc1ccccc1)/N=c1\[n-]c(-c2ccc(Br)s2)cs1

>  <Energy>  (45) 
92.63194708610516

>  <Genealogy>  (45) 
O=C(Cc1ccccc1)N=c1[n-]c(-c2ccc(Br)s2)cs1 (protonated)
O=C(Cc1ccccc1)/N=c1\[n-]c(-c2ccc(Br)s2)cs1 (cis-trans isomerization)
O=C(Cc1ccccc1)/N=c1\[n-]c(-c2ccc(Br)s2)cs1 (3D coordinates assigned)
O=C(Cc1ccccc1)/N=c1\[n-]c(-c2ccc(Br)s2)cs1 (optimized conformer: 92.63194708610516 kcal/mol)

>  <smiles>  (45) 
O=C(Cc1ccccc1)N=c1[nH]c(-c2ccc(Br)s2)cs1

>  <score_type>  (45) 
oracle

>  <origin>  (45) 
adg

>  <m_score__min__energy>  (45) 
-9.6099999999999994

>  <m_primary>  (45) 
energy

$$$$
45:0
     RDKit          3D

 59 62  0  0  0  0  0  0  0  0999 V2000
   -4.4980   13.4510  -31.3800 C   0  0  0  0  0  0  0  0  0  0  0  0
   -3.7870   14.4730  -32.0710 O   0  0  0  0  0  0  0  0  0  0  0  0
   -4.3800   15.6170  -32.6280 C   0  0  0  0  0  0  0  0  0  0  0  0
   -5.4200   16.3100  -31.9800 C   0  0  0  0  0  0  0  0  0  0  0  0
   -5.9930   17.4490  -32.5630 C   0  0  0  0  0  0  0  0  0  0  0  0
   -5.5000   17.9240  -33.7930 C   0  0  0  0  0  0  0  0  0  0  0  0
   -4.4790   17.2230  -34.4480 C   0  0  0  0  0  0  0  0  0  0  0  0
   -3.9110   16.0720  -33.8690 C   0  0  0  0  0  0  0  0  0  0  0  0
   -2.8800   15.3540  -34.4950 O   0  0  0  0  0  0  0  0  0  0  0  0
   -2.7610   15.1720  -35.9020 C   0  0  0  0  0  0  0  0  0  0  0  0
   -6.1270   19.1270  -34.4630 C   0  0  0  0  0  0  0  0  0  0  0  0
   -6.7900   20.0350  -33.5000 N   0  0  2  0  0  0  0  0  0  0  0  0
   -5.7850   20.8080  -32.7200 C   0  0  0  0  0  0  0  0  0  0  0  0
   -6.4120   21.8230  -31.7340 C   0  0  0  0  0  0  0  0  0  0  0  0
   -5.3910   22.7380  -31.0990 C   0  0  0  0  0  0  0  0  0  0  0  0
   -5.7990   23.7400  -30.2020 C   0  0  0  0  0  0  0  0  0  0  0  0
   -4.8600   24.5930  -29.6170 C   0  0  0  0  0  0  0  0  0  0  0  0
   -3.4930   24.4540  -29.9160 C   0  0  0  0  0  0  0  0  0  0  0  0
   -2.4960   25.2990  -29.3240 N   0  0  0  0  0  0  0  0  0  0  0  0
   -1.2940   24.8670  -28.6710 C   0  0  0  0  0  0  0  0  0  0  0  0
   -0.3870   24.3020  -29.3410 O   0  0  0  0  0  0  0  0  0  0  0  0
   -1.1390   25.0190  -27.2030 C   0  0  0  0  0  0  0  0  0  0  0  0
   -1.6000   26.1890  -26.5680 C   0  0  0  0  0  0  0  0  0  0  0  0
   -1.4610   26.3510  -25.1870 C   0  0  0  0  0  0  0  0  0  0  0  0
   -0.8640   25.3520  -24.4200 C   0  0  0  0  0  0  0  0  0  0  0  0
   -0.4050   24.1840  -25.0320 C   0  0  0  0  0  0  0  0  0  0  0  0
   -0.5380   24.0120  -26.4150 C   0  0  0  0  0  0  0  0  0  0  0  0
   -0.0940   22.8540  -26.9660 F   0  0  0  0  0  0  0  0  0  0  0  0
   -3.0820   23.4190  -30.7640 C   0  0  0  0  0  0  0  0  0  0  0  0
   -4.0200   22.5680  -31.3520 C   0  0  0  0  0  0  0  0  0  0  0  0
   -7.7480   19.2690  -32.6720 C   0  0  0  0  0  0  0  0  0  0  0  0
   -7.0640   18.1960  -31.8100 C   0  0  0  0  0  0  0  0  0  0  0  0
   -4.3937   13.6010  -30.2953 H   0  0  0  0  0  0  0  0  0  0  0  0
   -5.5621   13.4942  -31.6555 H   0  0  0  0  0  0  0  0  0  0  0  0
   -4.0875   12.4683  -31.6555 H   0  0  0  0  0  0  0  0  0  0  0  0
   -5.7869   15.9541  -31.0060 H   0  0  0  0  0  0  0  0  0  0  0  0
   -4.1172   17.5756  -35.4251 H   0  0  0  0  0  0  0  0  0  0  0  0
   -2.1695   14.2673  -36.1060 H   0  0  0  0  0  0  0  0  0  0  0  0
   -3.7625   15.0625  -36.3436 H   0  0  0  0  0  0  0  0  0  0  0  0
   -2.2591   16.0456  -36.3436 H   0  0  0  0  0  0  0  0  0  0  0  0
   -5.3401   19.6865  -34.9900 H   0  0  0  0  0  0  0  0  0  0  0  0
   -6.8969   18.7579  -35.1565 H   0  0  0  0  0  0  0  0  0  0  0  0
   -7.3440   20.7200  -34.0680 H   0  0  0  0  0  0  0  0  0  0  0  0
   -5.1709   20.0991  -32.1453 H   0  0  0  0  0  0  0  0  0  0  0  0
   -5.1910   21.3861  -33.4432 H   0  0  0  0  0  0  0  0  0  0  0  0
   -7.1416   22.4381  -32.2811 H   0  0  0  0  0  0  0  0  0  0  0  0
   -6.8849   21.2466  -30.9253 H   0  0  0  0  0  0  0  0  0  0  0  0
   -6.8657   23.8535  -29.9587 H   0  0  0  0  0  0  0  0  0  0  0  0
   -5.1913   25.3766  -28.9197 H   0  0  0  0  0  0  0  0  0  0  0  0
   -2.0737   26.9824  -27.1648 H   0  0  0  0  0  0  0  0  0  0  0  0
   -1.8240   27.2700  -24.7036 H   0  0  0  0  0  0  0  0  0  0  0  0
   -0.7546   25.4837  -23.3334 H   0  0  0  0  0  0  0  0  0  0  0  0
    0.0633   23.3954  -24.4247 H   0  0  0  0  0  0  0  0  0  0  0  0
   -2.0109   23.2748  -30.9690 H   0  0  0  0  0  0  0  0  0  0  0  0
   -3.6831   21.7595  -32.0174 H   0  0  0  0  0  0  0  0  0  0  0  0
   -8.2769   19.9687  -32.0082 H   0  0  0  0  0  0  0  0  0  0  0  0
   -8.4392   18.7541  -33.3555 H   0  0  0  0  0  0  0  0  0  0  0  0
   -6.6066   18.6836  -30.9365 H   0  0  0  0  0  0  0  0  0  0  0  0
   -7.8320   17.4680  -31.5098 H   0  0  0  0  0  0  0  0  0  0  0  0
  1  2  1  0
  2  3  1  0
  3  4  2  0
  4  5  1  0
  5  6  2  0
  6  7  1  0
  7  8  2  0
  8  9  1  0
  9 10  1  0
  6 11  1  0
 11 12  1  0
 12 13  1  0
 13 14  1  0
 14 15  1  0
 15 16  2  0
 16 17  1  0
 17 18  2  0
 18 19  1  0
 19 20  1  0
 20 21  2  0
 20 22  1  0
 22 23  2  0
 23 24  1  0
 24 25  2  0
 25 26  1  0
 26 27  2  0
 27 28  1  0
 18 29  1  0
 29 30  2  0
 12 31  1  0
 31 32  1  0
  8  3  1  0
 30 15  1  0
 32  5  1  0
 27 22  1  0
  1 33  1  0
  1 34  1  0
  1 35  1  0
  4 36  1  0
  7 37  1  0
 10 38  1  0
 10 39  1  0
 10 40  1  0
 11 41  1  0
 11 42  1  0
 12 43  1  6
 13 44  1  0
 13 45  1  0
 14 46  1  0
 14 47  1  0
 16 48  1  0
 17 49  1  0
 23 50  1  0
 24 51  1  0
 25 52  1  0
 26 53  1  0
 29 54  1  0
 30 55  1  0
 31 56  1  0
 31 57  1  0
 32 58  1  0
 32 59  1  0
M  CHG  2  12   1  19  -1
M  END
>  <UniqueID>  (46) 
45

>  <SMILES>  (46) 
COc1cc2c(cc1OC)C[N@H+](CCc1ccc([N-]C(=O)c3ccccc3F)cc1)CC2

>  <Energy>  (46) 
74.09127139786037

>  <Genealogy>  (46) 
COc1cc2c(cc1OC)C[NH+](CCc1ccc([N-]C(=O)c3ccccc3F)cc1)CC2 (protonated)
COc1cc2c(cc1OC)C[N@H+](CCc1ccc([N-]C(=O)c3ccccc3F)cc1)CC2 (chirality)
COc1cc2c(cc1OC)C[N@H+](CCc1ccc([N-]C(=O)c3ccccc3F)cc1)CC2 (3D coordinates assigned)
COc1cc2c(cc1OC)C[N@H+](CCc1ccc([N-]C(=O)c3ccccc3F)cc1)CC2 (nonaromatic ring conformer: 74.09127139786037 kcal/mol)

>  <smiles>  (46) 
COc1cc2c(cc1OC)CN(CCc1ccc(NC(=O)c3ccccc3F)cc1)CC2

>  <score_type>  (46) 
oracle

>  <origin>  (46) 
adg

>  <m_score__min__energy>  (46) 
-10.380000000000001

>  <m_primary>  (46) 
energy

$$$$
46:0
     RDKit          3D

 55 58  0  0  0  0  0  0  0  0999 V2000
   -3.9460   25.3670  -30.6650 O   0  0  0  0  0  0  0  0  0  0  0  0
   -5.1730   25.0160  -30.0860 C   0  0  0  0  0  0  0  0  0  0  0  0
   -6.1350   24.4930  -31.1730 C   0  0  1  0  0  0  0  0  0  0  0  0
   -5.3740   23.7870  -32.3050 C   0  0  0  0  0  0  0  0  0  0  0  0
   -4.7700   22.4420  -31.8490 C   0  0  2  0  0  0  0  0  0  0  0  0
   -4.4000   21.5550  -33.0600 C   0  0  0  0  0  0  0  0  0  0  0  0
   -3.5070   20.4450  -32.6540 N   0  0  0  0  0  0  0  0  0  0  0  0
   -2.6130   20.8470  -31.5600 C   0  0  0  0  0  0  0  0  0  0  0  0
   -1.3480   21.4080  -32.1820 C   0  0  0  0  0  0  0  0  0  0  0  0
   -1.2710   20.7660  -33.5530 C   0  0  0  0  0  0  0  0  0  0  0  0
   -2.6020   20.0460  -33.7470 C   0  0  0  0  0  0  0  0  0  0  0  0
   -5.6820   21.6880  -30.8420 C   0  0  0  0  0  0  0  0  0  0  0  0
   -7.0900   22.1400  -30.8420 N   0  0  0  0  0  0  0  0  0  0  0  0
   -7.9010   21.6330  -31.9710 C   0  0  0  0  0  0  0  0  0  0  0  0
   -7.5270   20.2100  -32.2970 C   0  0  0  0  0  0  0  0  0  0  0  0
   -8.0890   19.1450  -31.5790 C   0  0  0  0  0  0  0  0  0  0  0  0
   -7.7440   17.8340  -31.9040 C   0  0  0  0  0  0  0  0  0  0  0  0
   -6.8390   17.5870  -32.9410 C   0  0  0  0  0  0  0  0  0  0  0  0
   -6.4770   16.2780  -33.2900 C   0  0  0  0  0  0  0  0  0  0  0  0
   -5.5690   16.0570  -34.3300 C   0  0  0  0  0  0  0  0  0  0  0  0
   -5.0200   17.1390  -35.0250 C   0  0  0  0  0  0  0  0  0  0  0  0
   -5.3740   18.4470  -34.6850 C   0  0  0  0  0  0  0  0  0  0  0  0
   -6.2850   18.6830  -33.6430 C   0  0  0  0  0  0  0  0  0  0  0  0
   -6.6390   19.9570  -33.3040 N   0  0  0  0  0  0  0  0  0  0  0  0
   -7.2550   23.5910  -30.5790 C   0  0  0  0  0  0  0  0  0  0  0  0
   -4.1520   25.6650  -31.5880 H   0  0  0  0  0  0  0  0  0  0  0  0
   -5.0101   24.2299  -29.3340 H   0  0  0  0  0  0  0  0  0  0  0  0
   -5.6146   25.9023  -29.6070 H   0  0  0  0  0  0  0  0  0  0  0  0
   -6.6347   25.3700  -31.6103 H   0  0  0  0  0  0  0  0  0  0  0  0
   -6.0693   23.5996  -33.1366 H   0  0  0  0  0  0  0  0  0  0  0  0
   -4.5464   24.4415  -32.6159 H   0  0  0  0  0  0  0  0  0  0  0  0
   -3.8417   22.6775  -31.3080 H   0  0  0  0  0  0  0  0  0  0  0  0
   -5.3202   21.1359  -33.4930 H   0  0  0  0  0  0  0  0  0  0  0  0
   -3.8727   22.1753  -33.7997 H   0  0  0  0  0  0  0  0  0  0  0  0
   -3.0995   21.6158  -30.9417 H   0  0  0  0  0  0  0  0  0  0  0  0
   -2.3778   19.9855  -30.9178 H   0  0  0  0  0  0  0  0  0  0  0  0
   -1.4123   22.5026  -32.2701 H   0  0  0  0  0  0  0  0  0  0  0  0
   -0.4569   21.1943  -31.5735 H   0  0  0  0  0  0  0  0  0  0  0  0
   -1.1335   21.5336  -34.3288 H   0  0  0  0  0  0  0  0  0  0  0  0
   -0.4198   20.0735  -33.6298 H   0  0  0  0  0  0  0  0  0  0  0  0
   -3.0405   20.3292  -34.7152 H   0  0  0  0  0  0  0  0  0  0  0  0
   -2.4493   18.9567  -33.7344 H   0  0  0  0  0  0  0  0  0  0  0  0
   -5.6635   20.6176  -31.0947 H   0  0  0  0  0  0  0  0  0  0  0  0
   -5.2836   21.8963  -29.8381 H   0  0  0  0  0  0  0  0  0  0  0  0
   -8.9658   21.6732  -31.6978 H   0  0  0  0  0  0  0  0  0  0  0  0
   -7.7103   22.2606  -32.8541 H   0  0  0  0  0  0  0  0  0  0  0  0
   -8.7992   19.3430  -30.7627 H   0  0  0  0  0  0  0  0  0  0  0  0
   -8.1833   16.9945  -31.3452 H   0  0  0  0  0  0  0  0  0  0  0  0
   -6.9075   15.4247  -32.7454 H   0  0  0  0  0  0  0  0  0  0  0  0
   -5.2859   15.0295  -34.6021 H   0  0  0  0  0  0  0  0  0  0  0  0
   -4.3065   16.9596  -35.8428 H   0  0  0  0  0  0  0  0  0  0  0  0
   -4.9380   19.2940  -35.2350 H   0  0  0  0  0  0  0  0  0  0  0  0
   -6.2260   20.7620  -33.8280 H   0  0  0  0  0  0  0  0  0  0  0  0
   -8.2156   23.9098  -31.0097 H   0  0  0  0  0  0  0  0  0  0  0  0
   -7.2064   23.7154  -29.4871 H   0  0  0  0  0  0  0  0  0  0  0  0
  1  2  1  0
  2  3  1  0
  3  4  1  0
  4  5  1  0
  5  6  1  0
  6  7  1  0
  7  8  1  0
  8  9  1  0
  9 10  1  0
 10 11  1  0
  5 12  1  0
 12 13  1  0
 13 14  1  0
 14 15  1  0
 15 16  2  0
 16 17  1  0
 17 18  2  0
 18 19  1  0
 19 20  2  0
 20 21  1  0
 21 22  2  0
 22 23  1  0
 23 24  2  0
 13 25  1  0
 25  3  1  0
 11  7  1  0
 24 15  1  0
 23 18  1  0
  1 26  1  0
  2 27  1  0
  2 28  1  0
  3 29  1  6
  4 30  1  0
  4 31  1  0
  5 32  1  1
  6 33  1  0
  6 34  1  0
  8 35  1  0
  8 36  1  0
  9 37  1  0
  9 38  1  0
 10 39  1  0
 10 40  1  0
 11 41  1  0
 11 42  1  0
 12 43  1  0
 12 44  1  0
 14 45  1  0
 14 46  1  0
 16 47  1  0
 17 48  1  0
 19 49  1  0
 20 50  1  0
 21 51  1  0
 22 52  1  0
 24 53  1  0
 25 54  1  0
 25 55  1  0
M  CHG  1  24   1
M  END
>  <UniqueID>  (47) 
46

>  <SMILES>  (47) 
OC[C@H]1C[C@H](CN2CCCC2)CN(Cc2ccc3ccccc3[nH+]2)C1

>  <Energy>  (47) 
73.42974108081636

>  <Genealogy>  (47) 
OCC1CC(CN2CCCC2)CN(Cc2ccc3ccccc3[nH+]2)C1 (protonated)
OC[C@H]1C[C@H](CN2CCCC2)CN(Cc2ccc3ccccc3[nH+]2)C1 (chirality)
OC[C@H]1C[C@H](CN2CCCC2)CN(Cc2ccc3ccccc3[nH+]2)C1 (3D coordinates assigned)
OC[C@H]1C[C@H](CN2CCCC2)CN(Cc2ccc3ccccc3[nH+]2)C1 (nonaromatic ring conformer: 73.42974108081636 kcal/mol)

>  <smiles>  (47) 
OCC1CC(CN2CCCC2)CN(Cc2ccc3ccccc3n2)C1

>  <score_type>  (47) 
oracle

>  <origin>  (47) 
adg

>  <m_score__min__energy>  (47) 
-9.2899999999999991

>  <m_primary>  (47) 
energy

$$$$
47:0
     RDKit          3D

 47 49  0  0  0  0  0  0  0  0999 V2000
   -8.9540   19.7900  -32.7340 C   0  0  0  0  0  0  0  0  0  0  0  0
   -7.4980   20.0240  -33.0270 C   0  0  0  0  0  0  0  0  0  0  0  0
   -6.8810   19.1550  -33.6260 O   0  0  0  0  0  0  0  0  0  0  0  0
   -6.8440   21.2550  -32.6110 N   0  0  1  0  0  0  0  0  0  0  0  0
   -7.3070   21.7670  -31.2990 C   0  0  0  0  0  0  0  0  0  0  0  0
   -7.2260   23.2930  -31.1160 C   0  0  0  0  0  0  0  0  0  0  0  0
   -5.9830   23.9010  -31.7730 C   0  0  0  0  0  0  0  0  0  0  0  0
   -4.7650   23.2020  -31.3370 N   0  0  0  0  0  0  0  0  0  0  0  0
   -3.7300   23.9220  -30.6370 C   0  0  0  0  0  0  0  0  0  0  0  0
   -3.7760   25.1780  -30.5270 O   0  0  0  0  0  0  0  0  0  0  0  0
   -2.6000   23.1740  -29.9860 C   0  0  0  0  0  0  0  0  0  0  0  0
   -2.1980   21.9530  -30.7240 N   0  0  0  0  0  0  0  0  0  0  0  0
   -1.7410   20.8370  -29.8630 C   0  0  0  0  0  0  0  0  0  0  0  0
   -1.3050   21.2700  -28.4780 C   0  0  0  0  0  0  0  0  0  0  0  0
   -0.3470   22.2380  -28.2240 C   0  0  0  0  0  0  0  0  0  0  0  0
   -0.2380   22.3420  -26.8540 C   0  0  0  0  0  0  0  0  0  0  0  0
   -1.1160   21.4260  -26.3180 C   0  0  0  0  0  0  0  0  0  0  0  0
   -1.7520   20.7610  -27.3020 N   0  0  0  0  0  0  0  0  0  0  0  0
   -2.7520   19.7190  -27.0740 C   0  0  0  0  0  0  0  0  0  0  0  0
   -3.0360   21.5560  -31.8760 C   0  0  0  0  0  0  0  0  0  0  0  0
   -4.5390   21.7690  -31.5970 C   0  0  2  0  0  0  0  0  0  0  0  0
   -5.3730   21.2220  -32.7940 C   0  0  0  0  0  0  0  0  0  0  0  0
   -9.1095   19.7650  -31.6453 H   0  0  0  0  0  0  0  0  0  0  0  0
   -9.5514   20.6037  -33.1711 H   0  0  0  0  0  0  0  0  0  0  0  0
   -9.2663   18.8301  -33.1711 H   0  0  0  0  0  0  0  0  0  0  0  0
   -7.1740   21.9870  -33.2850 H   0  0  0  0  0  0  0  0  0  0  0  0
   -8.3569   21.4656  -31.1692 H   0  0  0  0  0  0  0  0  0  0  0  0
   -6.6257   21.3369  -30.5501 H   0  0  0  0  0  0  0  0  0  0  0  0
   -8.1205   23.7494  -31.5650 H   0  0  0  0  0  0  0  0  0  0  0  0
   -7.1647   23.4958  -30.0366 H   0  0  0  0  0  0  0  0  0  0  0  0
   -6.0753   23.8165  -32.8659 H   0  0  0  0  0  0  0  0  0  0  0  0
   -5.9084   24.9571  -31.4747 H   0  0  0  0  0  0  0  0  0  0  0  0
   -1.7301   23.8442  -29.9212 H   0  0  0  0  0  0  0  0  0  0  0  0
   -2.9527   22.8523  -28.9950 H   0  0  0  0  0  0  0  0  0  0  0  0
   -2.5682   20.1197  -29.7574 H   0  0  0  0  0  0  0  0  0  0  0  0
   -0.8600   20.3960  -30.3522 H   0  0  0  0  0  0  0  0  0  0  0  0
    0.2182   22.8132  -28.9721 H   0  0  0  0  0  0  0  0  0  0  0  0
    0.4217   23.0237  -26.2971 H   0  0  0  0  0  0  0  0  0  0  0  0
   -1.2749   21.2613  -25.2421 H   0  0  0  0  0  0  0  0  0  0  0  0
   -2.8908   19.5744  -25.9924 H   0  0  0  0  0  0  0  0  0  0  0  0
   -3.7068   20.0212  -27.5290 H   0  0  0  0  0  0  0  0  0  0  0  0
   -2.4108   18.7775  -27.5290 H   0  0  0  0  0  0  0  0  0  0  0  0
   -2.7478   22.1591  -32.7496 H   0  0  0  0  0  0  0  0  0  0  0  0
   -2.8730   20.4841  -32.0619 H   0  0  0  0  0  0  0  0  0  0  0  0
   -4.8675   21.2123  -30.7069 H   0  0  0  0  0  0  0  0  0  0  0  0
   -5.1277   21.8235  -33.6817 H   0  0  0  0  0  0  0  0  0  0  0  0
   -5.1031   20.1601  -32.8917 H   0  0  0  0  0  0  0  0  0  0  0  0
  1  2  1  0
  2  3  2  0
  2  4  1  0
  4  5  1  0
  5  6  1  0
  6  7  1  0
  7  8  1  0
  8  9  1  0
  9 10  2  0
  9 11  1  0
 11 12  1  0
 12 13  1  0
 13 14  1  0
 14 15  2  0
 15 16  1  0
 16 17  2  0
 17 18  1  0
 18 19  1  0
 12 20  1  0
 20 21  1  0
 21 22  1  0
 22  4  1  0
 21  8  1  0
 18 14  1  0
  1 23  1  0
  1 24  1  0
  1 25  1  0
  4 26  1  6
  5 27  1  0
  5 28  1  0
  6 29  1  0
  6 30  1  0
  7 31  1  0
  7 32  1  0
 11 33  1  0
 11 34  1  0
 13 35  1  0
 13 36  1  0
 15 37  1  0
 16 38  1  0
 17 39  1  0
 19 40  1  0
 19 41  1  0
 19 42  1  0
 20 43  1  0
 20 44  1  0
 21 45  1  1
 22 46  1  0
 22 47  1  0
M  CHG  1   4   1
M  END
>  <UniqueID>  (48) 
47

>  <SMILES>  (48) 
CC(=O)[N@H+]1CCCN2C(=O)CN(Cc3cccn3C)C[C@@H]2C1

>  <Energy>  (48) 
95.05511471271977

>  <Genealogy>  (48) 
CC(=O)[NH+]1CCCN2C(=O)CN(Cc3cccn3C)CC2C1 (protonated)
CC(=O)[N@H+]1CCCN2C(=O)CN(Cc3cccn3C)C[C@@H]2C1 (chirality)
CC(=O)[N@H+]1CCCN2C(=O)CN(Cc3cccn3C)C[C@@H]2C1 (3D coordinates assigned)
CC(=O)[N@H+]1CCCN2C(=O)CN(Cc3cccn3C)C[C@@H]2C1 (nonaromatic ring conformer: 95.05511471271977 kcal/mol)

>  <smiles>  (48) 
CC(=O)N1CCCN2C(=O)CN(Cc3cccn3C)CC2C1

>  <score_type>  (48) 
oracle

>  <origin>  (48) 
adg

>  <m_score__min__energy>  (48) 
-5.4000000000000004

>  <m_primary>  (48) 
energy

$$$$
