0:0
     RDKit          3D

 39 41  0  0  0  0  0  0  0  0999 V2000
   -9.8230   21.5460  -31.9990 C   0  0  0  0  0  0  0  0  0  0  0  0
   -8.7710   22.5710  -31.8210 C   0  0  0  0  0  0  0  0  0  0  0  0
   -7.7980   22.3480  -30.6390 C   0  0  0  0  0  0  0  0  0  0  0  0
   -6.4510   22.6520  -31.1200 C   0  0  0  0  0  0  0  0  0  0  0  0
   -5.9200   23.8710  -30.6440 C   0  0  0  0  0  0  0  0  0  0  0  0
   -4.6060   24.2160  -30.8430 C   0  0  0  0  0  0  0  0  0  0  0  0
   -4.1390   25.3040  -30.4140 O   0  0  0  0  0  0  0  0  0  0  0  0
   -3.8420   23.3390  -31.5160 N   0  0  0  0  0  0  0  0  0  0  0  0
   -4.3710   22.1870  -31.9640 C   0  0  0  0  0  0  0  0  0  0  0  0
   -3.7360   21.2140  -32.7140 C   0  0  0  0  0  0  0  0  0  0  0  0
   -2.4430   21.0690  -33.1810 C   0  0  0  0  0  0  0  0  0  0  0  0
   -2.0890   19.9680  -33.9200 C   0  0  0  0  0  0  0  0  0  0  0  0
   -3.0560   19.0190  -34.1830 C   0  0  0  0  0  0  0  0  0  0  0  0
   -4.3420   19.1770  -33.7100 C   0  0  0  0  0  0  0  0  0  0  0  0
   -4.7100   20.2770  -32.9670 C   0  0  0  0  0  0  0  0  0  0  0  0
   -5.8960   20.6580  -32.3940 N   0  0  0  0  0  0  0  0  0  0  0  0
   -7.1060   19.9270  -32.5890 C   0  0  0  0  0  0  0  0  0  0  0  0
   -7.3170   18.6540  -31.8790 C   0  0  0  0  0  0  0  0  0  0  0  0
   -8.7870   18.3480  -31.6260 C   0  0  0  0  0  0  0  0  0  0  0  0
   -5.6460   21.8180  -31.7900 N   0  0  0  0  0  0  0  0  0  0  0  0
  -10.1731   21.2049  -31.0136 H   0  0  0  0  0  0  0  0  0  0  0  0
  -10.6658   21.9788  -32.5579 H   0  0  0  0  0  0  0  0  0  0  0  0
   -9.4123   20.6922  -32.5579 H   0  0  0  0  0  0  0  0  0  0  0  0
   -8.1753   22.6054  -32.7451 H   0  0  0  0  0  0  0  0  0  0  0  0
   -9.3041   23.5058  -31.5931 H   0  0  0  0  0  0  0  0  0  0  0  0
   -8.0595   23.0162  -29.8052 H   0  0  0  0  0  0  0  0  0  0  0  0
   -7.8570   21.3110  -30.2770 H   0  0  0  0  0  0  0  0  0  0  0  0
   -6.5777   24.5636  -30.0984 H   0  0  0  0  0  0  0  0  0  0  0  0
   -1.6923   21.8417  -32.9587 H   0  0  0  0  0  0  0  0  0  0  0  0
   -1.0615   19.8451  -34.2929 H   0  0  0  0  0  0  0  0  0  0  0  0
   -2.7988   18.1285  -34.7753 H   0  0  0  0  0  0  0  0  0  0  0  0
   -5.0931   18.4046  -33.9318 H   0  0  0  0  0  0  0  0  0  0  0  0
   -7.9309   20.5940  -32.2981 H   0  0  0  0  0  0  0  0  0  0  0  0
   -7.0518   19.6231  -33.6448 H   0  0  0  0  0  0  0  0  0  0  0  0
   -6.8891   17.8408  -32.4836 H   0  0  0  0  0  0  0  0  0  0  0  0
   -6.8263   18.7400  -30.8983 H   0  0  0  0  0  0  0  0  0  0  0  0
   -8.9723   18.3094  -30.5424 H   0  0  0  0  0  0  0  0  0  0  0  0
   -9.4084   19.1361  -32.0764 H   0  0  0  0  0  0  0  0  0  0  0  0
   -9.0423   17.3775  -32.0764 H   0  0  0  0  0  0  0  0  0  0  0  0
  1  2  1  0
  2  3  1  0
  3  4  1  0
  4  5  2  0
  5  6  1  0
  6  7  2  0
  6  8  1  0
  8  9  2  0
  9 10  1  0
 10 11  2  0
 11 12  1  0
 12 13  2  0
 13 14  1  0
 14 15  2  0
 15 16  1  0
 16 17  1  0
 17 18  1  0
 18 19  1  0
 16 20  1  0
 20  4  1  0
 20  9  1  0
 15 10  1  0
  1 21  1  0
  1 22  1  0
  1 23  1  0
  2 24  1  0
  2 25  1  0
  3 26  1  0
  3 27  1  0
  5 28  1  0
 11 29  1  0
 12 30  1  0
 13 31  1  0
 14 32  1  0
 17 33  1  0
 17 34  1  0
 18 35  1  0
 18 36  1  0
 19 37  1  0
 19 38  1  0
 19 39  1  0
M  END
>  <smiles>  (1) 
CCCc1cc(=O)nc2c3ccccc3n(CCC)n12

>  <score_type>  (1) 
oracle

>  <origin>  (1) 
adg

>  <m_score__min__energy>  (1) 
-8.0399999999999991

>  <m_primary>  (1) 
energy

$$$$
1:0
     RDKit          3D

 82 85  0  0  0  0  0  0  0  0999 V2000
   -8.7560   19.5720  -31.5950 C   0  0  0  0  0  0  0  0  0  0  0  0
   -8.7480   21.0410  -32.0150 C   0  0  0  0  0  0  0  0  0  0  0  0
   -8.5520   21.9350  -30.8070 C   0  0  0  0  0  0  0  0  0  0  0  0
   -7.3680   22.6790  -30.8090 N   0  0  0  0  0  0  0  0  0  0  0  0
   -6.9240   23.4140  -29.7170 C   0  0  0  0  0  0  0  0  0  0  0  0
   -6.7670   24.8760  -29.8720 C   0  0  0  0  0  0  0  0  0  0  0  0
   -5.3560   25.2650  -30.1360 C   0  0  0  0  0  0  0  0  0  0  0  0
   -6.9340   23.0160  -32.1110 C   0  0  0  0  0  0  0  0  0  0  0  0
   -5.5810   22.5750  -32.5310 C   0  0  0  0  0  0  0  0  0  0  0  0
   -5.1440   21.4740  -31.6270 N   0  0  0  0  0  0  0  0  0  0  0  0
   -4.1100   20.6630  -32.1550 C   0  0  0  0  0  0  0  0  0  0  0  0
   -4.5490   19.6230  -32.9840 C   0  0  0  0  0  0  0  0  0  0  0  0
   -5.9090   19.4240  -33.1790 C   0  0  0  0  0  0  0  0  0  0  0  0
   -6.4270   18.4280  -33.9700 C   0  0  0  0  0  0  0  0  0  0  0  0
   -5.5520   17.5870  -34.5980 C   0  0  0  0  0  0  0  0  0  0  0  0
   -4.1870   17.7710  -34.4140 C   0  0  0  0  0  0  0  0  0  0  0  0
   -3.6760   18.7720  -33.6180 C   0  0  0  0  0  0  0  0  0  0  0  0
   -2.3760   18.9490  -33.4350 N   0  0  0  0  0  0  0  0  0  0  0  0
   -1.3840   18.1180  -34.0530 C   0  0  0  0  0  0  0  0  0  0  0  0
   -1.9120   19.9520  -32.6330 C   0  0  0  0  0  0  0  0  0  0  0  0
   -0.5350   20.0850  -32.4810 C   0  0  0  0  0  0  0  0  0  0  0  0
   -0.0500   21.0880  -31.6770 C   0  0  0  0  0  0  0  0  0  0  0  0
   -0.9270   21.9290  -31.0460 C   0  0  0  0  0  0  0  0  0  0  0  0
   -2.3160   21.8360  -31.1650 C   0  0  0  0  0  0  0  0  0  0  0  0
   -3.1170   22.7100  -30.4100 N   0  0  0  0  0  0  0  0  0  0  0  0
   -2.7150   22.8720  -28.9840 C   0  0  0  0  0  0  0  0  0  0  0  0
   -3.3300   21.8210  -28.1090 C   0  0  0  0  0  0  0  0  0  0  0  0
   -2.7690   20.4570  -28.3890 C   0  0  0  0  0  0  0  0  0  0  0  0
   -2.0460   19.8840  -27.2680 N   0  0  0  0  0  0  0  0  0  0  0  0
   -2.9080   19.1810  -26.3650 C   0  0  0  0  0  0  0  0  0  0  0  0
   -1.0580   18.9590  -27.7930 C   0  0  0  0  0  0  0  0  0  0  0  0
    0.1660   19.7990  -28.1010 C   0  0  0  0  0  0  0  0  0  0  0  0
   -0.1060   21.1250  -27.4580 C   0  0  0  0  0  0  0  0  0  0  0  0
   -1.2730   20.8590  -26.5530 C   0  0  0  0  0  0  0  0  0  0  0  0
   -2.7730   20.8260  -31.9770 C   0  0  0  0  0  0  0  0  0  0  0  0
   -8.7564   19.5046  -30.4971 H   0  0  0  0  0  0  0  0  0  0  0  0
   -9.6568   19.0818  -31.9928 H   0  0  0  0  0  0  0  0  0  0  0  0
   -7.8606   19.0720  -31.9928 H   0  0  0  0  0  0  0  0  0  0  0  0
   -7.9273   21.2097  -32.7277 H   0  0  0  0  0  0  0  0  0  0  0  0
   -9.7126   21.2829  -32.4851 H   0  0  0  0  0  0  0  0  0  0  0  0
   -9.3968   22.6380  -30.7619 H   0  0  0  0  0  0  0  0  0  0  0  0
   -8.4937   21.2663  -29.9355 H   0  0  0  0  0  0  0  0  0  0  0  0
   -7.6415   23.2485  -28.8998 H   0  0  0  0  0  0  0  0  0  0  0  0
   -5.9013   23.0486  -29.5421 H   0  0  0  0  0  0  0  0  0  0  0  0
   -7.3904   25.2119  -30.7137 H   0  0  0  0  0  0  0  0  0  0  0  0
   -7.0773   25.3506  -28.9294 H   0  0  0  0  0  0  0  0  0  0  0  0
   -4.8307   25.4098  -29.1805 H   0  0  0  0  0  0  0  0  0  0  0  0
   -4.8582   24.4706  -30.7114 H   0  0  0  0  0  0  0  0  0  0  0  0
   -5.3356   26.2023  -30.7114 H   0  0  0  0  0  0  0  0  0  0  0  0
   -7.6544   22.5800  -32.8188 H   0  0  0  0  0  0  0  0  0  0  0  0
   -6.8750   24.1144  -32.1048 H   0  0  0  0  0  0  0  0  0  0  0  0
   -5.6139   22.2126  -33.5690 H   0  0  0  0  0  0  0  0  0  0  0  0
   -4.8740   23.4157  -32.4722 H   0  0  0  0  0  0  0  0  0  0  0  0
   -5.6080   21.3210  -30.7060 H   0  0  0  0  0  0  0  0  0  0  0  0
   -6.6110   20.1020  -32.6716 H   0  0  0  0  0  0  0  0  0  0  0  0
   -7.5136   18.3107  -34.0943 H   0  0  0  0  0  0  0  0  0  0  0  0
   -5.9233   16.7751  -35.2407 H   0  0  0  0  0  0  0  0  0  0  0  0
   -3.4881   17.0913  -34.9235 H   0  0  0  0  0  0  0  0  0  0  0  0
   -0.7878   17.6185  -33.2752 H   0  0  0  0  0  0  0  0  0  0  0  0
   -1.8784   17.3605  -34.6789 H   0  0  0  0  0  0  0  0  0  0  0  0
   -0.7249   18.7375  -34.6789 H   0  0  0  0  0  0  0  0  0  0  0  0
    0.1534   19.3987  -32.9959 H   0  0  0  0  0  0  0  0  0  0  0  0
    1.0343   21.2143  -31.5413 H   0  0  0  0  0  0  0  0  0  0  0  0
   -0.5139   22.7243  -30.4081 H   0  0  0  0  0  0  0  0  0  0  0  0
   -3.9350   23.2440  -30.6280 H   0  0  0  0  0  0  0  0  0  0  0  0
   -1.6198   22.7987  -28.9123 H   0  0  0  0  0  0  0  0  0  0  0  0
   -3.0691   23.8545  -28.6385 H   0  0  0  0  0  0  0  0  0  0  0  0
   -3.1349   22.0761  -27.0569 H   0  0  0  0  0  0  0  0  0  0  0  0
   -4.4096   21.7938  -28.3183 H   0  0  0  0  0  0  0  0  0  0  0  0
   -3.6010   19.7850  -28.6461 H   0  0  0  0  0  0  0  0  0  0  0  0
   -2.0497   20.5674  -29.2139 H   0  0  0  0  0  0  0  0  0  0  0  0
   -2.6221   19.4142  -25.3287 H   0  0  0  0  0  0  0  0  0  0  0  0
   -3.9495   19.4905  -26.5365 H   0  0  0  0  0  0  0  0  0  0  0  0
   -2.8142   18.0985  -26.5365 H   0  0  0  0  0  0  0  0  0  0  0  0
   -0.8170   18.1896  -27.0448 H   0  0  0  0  0  0  0  0  0  0  0  0
   -1.4267   18.4348  -28.6870 H   0  0  0  0  0  0  0  0  0  0  0  0
    1.0689   19.3391  -27.6730 H   0  0  0  0  0  0  0  0  0  0  0  0
    0.3439   19.8915  -29.1826 H   0  0  0  0  0  0  0  0  0  0  0  0
    0.7663   21.4656  -26.8809 H   0  0  0  0  0  0  0  0  0  0  0  0
   -0.3130   21.9167  -28.1931 H   0  0  0  0  0  0  0  0  0  0  0  0
   -0.9354   20.4586  -25.5857 H   0  0  0  0  0  0  0  0  0  0  0  0
   -1.8463   21.7684  -26.3199 H   0  0  0  0  0  0  0  0  0  0  0  0
  1  2  1  0
  2  3  1  0
  3  4  1  0
  4  5  1  0
  5  6  1  0
  6  7  1  0
  4  8  1  0
  8  9  1  0
  9 10  1  0
 10 11  1  0
 11 12  2  0
 12 13  1  0
 13 14  2  0
 14 15  1  0
 15 16  2  0
 16 17  1  0
 17 18  2  0
 18 19  1  0
 18 20  1  0
 20 21  2  0
 21 22  1  0
 22 23  2  0
 23 24  1  0
 24 25  1  0
 25 26  1  0
 26 27  1  0
 27 28  1  0
 28 29  1  0
 29 30  1  0
 29 31  1  0
 31 32  1  0
 32 33  1  0
 33 34  1  0
 24 35  2  0
 35 11  1  0
 17 12  1  0
 35 20  1  0
 34 29  1  0
  1 36  1  0
  1 37  1  0
  1 38  1  0
  2 39  1  0
  2 40  1  0
  3 41  1  0
  3 42  1  0
  5 43  1  0
  5 44  1  0
  6 45  1  0
  6 46  1  0
  7 47  1  0
  7 48  1  0
  7 49  1  0
  8 50  1  0
  8 51  1  0
  9 52  1  0
  9 53  1  0
 10 54  1  0
 13 55  1  0
 14 56  1  0
 15 57  1  0
 16 58  1  0
 19 59  1  0
 19 60  1  0
 19 61  1  0
 21 62  1  0
 22 63  1  0
 23 64  1  0
 25 65  1  0
 26 66  1  0
 26 67  1  0
 27 68  1  0
 27 69  1  0
 28 70  1  0
 28 71  1  0
 30 72  1  0
 30 73  1  0
 30 74  1  0
 31 75  1  0
 31 76  1  0
 32 77  1  0
 32 78  1  0
 33 79  1  0
 33 80  1  0
 34 81  1  0
 34 82  1  0
M  CHG  2  18   1  29   1
M  END
>  <smiles>  (2) 
CCCN(CCC)CCNc1c2ccccc2[n+](C)c2cccc(NCCC[N+]3(C)CCCC3)c12

>  <score_type>  (2) 
oracle

>  <origin>  (2) 
adg

>  <m_score__min__energy>  (2) 
-9.1799999999999997

>  <m_primary>  (2) 
energy

$$$$
2:0
     RDKit          3D

 73 75  0  0  0  0  0  0  0  0999 V2000
   -7.9940   20.0600  -32.7240 C   0  0  0  0  0  0  0  0  0  0  0  0
   -6.7100   19.8300  -33.5410 C   0  0  0  0  0  0  0  0  0  0  0  0
   -5.8020   19.0770  -32.7360 N   0  0  0  0  0  0  0  0  0  0  0  0
   -6.4680   18.5330  -31.5820 C   0  0  0  0  0  0  0  0  0  0  0  0
   -6.1110   17.0930  -31.3550 C   0  0  0  0  0  0  0  0  0  0  0  0
   -5.0000   16.6450  -32.0180 O   0  0  0  0  0  0  0  0  0  0  0  0
   -5.0720   15.3180  -32.4270 C   0  0  0  0  0  0  0  0  0  0  0  0
   -5.0680   15.3170  -33.9610 C   0  0  0  0  0  0  0  0  0  0  0  0
   -5.1620   16.6350  -34.4770 N   0  0  0  0  0  0  0  0  0  0  0  0
   -4.0570   17.2040  -35.1260 C   0  0  0  0  0  0  0  0  0  0  0  0
   -3.0700   17.9680  -34.2960 C   0  0  0  0  0  0  0  0  0  0  0  0
   -3.3730   19.2720  -34.0570 O   0  0  0  0  0  0  0  0  0  0  0  0
   -2.2560   20.0900  -34.0540 C   0  0  0  0  0  0  0  0  0  0  0  0
   -2.2610   21.0230  -32.9100 C   0  0  0  0  0  0  0  0  0  0  0  0
   -3.3520   20.8360  -31.9630 N   0  0  0  0  0  0  0  0  0  0  0  0
   -3.5880   21.6710  -30.8510 C   0  0  0  0  0  0  0  0  0  0  0  0
   -4.6800   22.5430  -30.7680 C   0  0  0  0  0  0  0  0  0  0  0  0
   -4.8860   23.3400  -29.6530 C   0  0  0  0  0  0  0  0  0  0  0  0
   -4.0120   23.2830  -28.6020 N   0  0  0  0  0  0  0  0  0  0  0  0
   -4.2320   24.1210  -27.4250 C   0  0  0  0  0  0  0  0  0  0  0  0
   -2.9350   22.4480  -28.6440 C   0  0  0  0  0  0  0  0  0  0  0  0
   -2.7200   21.6500  -29.7510 C   0  0  0  0  0  0  0  0  0  0  0  0
   -1.5080   20.7940  -29.7170 C   0  0  0  0  0  0  0  0  0  0  0  0
   -1.5130   20.1620  -28.3160 C   0  0  0  0  0  0  0  0  0  0  0  0
   -1.1990   21.2400  -27.3120 C   0  0  0  0  0  0  0  0  0  0  0  0
   -2.0560   22.4640  -27.4530 C   0  0  0  0  0  0  0  0  0  0  0  0
   -6.0120   24.2790  -29.5050 C   0  0  0  0  0  0  0  0  0  0  0  0
   -6.9610   24.2450  -30.6760 C   0  0  0  0  0  0  0  0  0  0  0  0
   -6.1150   24.1080  -31.9360 C   0  0  0  0  0  0  0  0  0  0  0  0
   -5.6420   22.6450  -31.9050 C   0  0  0  0  0  0  0  0  0  0  0  0
   -7.7580   20.0177  -31.6504 H   0  0  0  0  0  0  0  0  0  0  0  0
   -8.4125   21.0474  -32.9688 H   0  0  0  0  0  0  0  0  0  0  0  0
   -8.7292   19.2792  -32.9688 H   0  0  0  0  0  0  0  0  0  0  0  0
   -6.9467   19.2712  -34.4585 H   0  0  0  0  0  0  0  0  0  0  0  0
   -6.2603   20.7931  -33.8242 H   0  0  0  0  0  0  0  0  0  0  0  0
   -5.1820   18.4280  -33.2410 H   0  0  0  0  0  0  0  0  0  0  0  0
   -6.1760   19.1155  -30.6957 H   0  0  0  0  0  0  0  0  0  0  0  0
   -7.5526   18.5913  -31.7561 H   0  0  0  0  0  0  0  0  0  0  0  0
   -5.9409   16.9528  -30.2773 H   0  0  0  0  0  0  0  0  0  0  0  0
   -6.9537   16.5089  -31.7533 H   0  0  0  0  0  0  0  0  0  0  0  0
   -4.2043   14.7587  -32.0472 H   0  0  0  0  0  0  0  0  0  0  0  0
   -5.9818   14.8376  -32.0379 H   0  0  0  0  0  0  0  0  0  0  0  0
   -4.1334   14.8586  -34.3167 H   0  0  0  0  0  0  0  0  0  0  0  0
   -5.9397   14.7441  -34.3103 H   0  0  0  0  0  0  0  0  0  0  0  0
   -5.7540   17.2650  -33.9090 H   0  0  0  0  0  0  0  0  0  0  0  0
   -3.5085   16.3860  -35.6160 H   0  0  0  0  0  0  0  0  0  0  0  0
   -4.4918   17.9577  -35.7989 H   0  0  0  0  0  0  0  0  0  0  0  0
   -2.9828   17.4595  -33.3245 H   0  0  0  0  0  0  0  0  0  0  0  0
   -2.1394   17.9831  -34.8823 H   0  0  0  0  0  0  0  0  0  0  0  0
   -1.3550   19.4616  -33.9967 H   0  0  0  0  0  0  0  0  0  0  0  0
   -2.2660   20.6846  -34.9794 H   0  0  0  0  0  0  0  0  0  0  0  0
   -1.3130   20.8997  -32.3659 H   0  0  0  0  0  0  0  0  0  0  0  0
   -2.3950   22.0283  -33.3360 H   0  0  0  0  0  0  0  0  0  0  0  0
   -4.0270   20.0290  -32.0910 H   0  0  0  0  0  0  0  0  0  0  0  0
   -4.0751   23.5234  -26.5149 H   0  0  0  0  0  0  0  0  0  0  0  0
   -3.5245   24.9632  -27.4371 H   0  0  0  0  0  0  0  0  0  0  0  0
   -5.2619   24.5071  -27.4371 H   0  0  0  0  0  0  0  0  0  0  0  0
   -1.5610   20.0163  -30.4931 H   0  0  0  0  0  0  0  0  0  0  0  0
   -0.5893   21.3671  -29.9108 H   0  0  0  0  0  0  0  0  0  0  0  0
   -2.5037   19.7333  -28.1045 H   0  0  0  0  0  0  0  0  0  0  0  0
   -0.7630   19.3594  -28.2587 H   0  0  0  0  0  0  0  0  0  0  0  0
   -1.3455   20.8279  -26.3027 H   0  0  0  0  0  0  0  0  0  0  0  0
   -0.1597   21.5529  -27.4908 H   0  0  0  0  0  0  0  0  0  0  0  0
   -2.6885   22.5488  -26.5571 H   0  0  0  0  0  0  0  0  0  0  0  0
   -1.3740   23.3189  -27.5715 H   0  0  0  0  0  0  0  0  0  0  0  0
   -6.5696   24.0178  -28.5935 H   0  0  0  0  0  0  0  0  0  0  0  0
   -5.5910   25.2938  -29.4502 H   0  0  0  0  0  0  0  0  0  0  0  0
   -7.6426   23.3865  -30.5842 H   0  0  0  0  0  0  0  0  0  0  0  0
   -7.5707   25.1599  -30.7119 H   0  0  0  0  0  0  0  0  0  0  0  0
   -6.7168   24.3060  -32.8352 H   0  0  0  0  0  0  0  0  0  0  0  0
   -5.2803   24.8237  -31.9670 H   0  0  0  0  0  0  0  0  0  0  0  0
   -6.4964   21.9712  -31.7434 H   0  0  0  0  0  0  0  0  0  0  0  0
   -5.1711   22.3554  -32.8560 H   0  0  0  0  0  0  0  0  0  0  0  0
  1  2  1  0
  2  3  1  0
  3  4  1  0
  4  5  1  0
  5  6  1  0
  6  7  1  0
  7  8  1  0
  8  9  1  0
  9 10  1  0
 10 11  1  0
 11 12  1  0
 12 13  1  0
 13 14  1  0
 14 15  1  0
 15 16  1  0
 16 17  2  0
 17 18  1  0
 18 19  2  0
 19 20  1  0
 19 21  1  0
 21 22  2  0
 22 23  1  0
 23 24  1  0
 24 25  1  0
 25 26  1  0
 18 27  1  0
 27 28  1  0
 28 29  1  0
 29 30  1  0
 22 16  1  0
 30 17  1  0
 26 21  1  0
  1 31  1  0
  1 32  1  0
  1 33  1  0
  2 34  1  0
  2 35  1  0
  3 36  1  0
  4 37  1  0
  4 38  1  0
  5 39  1  0
  5 40  1  0
  7 41  1  0
  7 42  1  0
  8 43  1  0
  8 44  1  0
  9 45  1  0
 10 46  1  0
 10 47  1  0
 11 48  1  0
 11 49  1  0
 13 50  1  0
 13 51  1  0
 14 52  1  0
 14 53  1  0
 15 54  1  0
 20 55  1  0
 20 56  1  0
 20 57  1  0
 23 58  1  0
 23 59  1  0
 24 60  1  0
 24 61  1  0
 25 62  1  0
 25 63  1  0
 26 64  1  0
 26 65  1  0
 27 66  1  0
 27 67  1  0
 28 68  1  0
 28 69  1  0
 29 70  1  0
 29 71  1  0
 30 72  1  0
 30 73  1  0
M  CHG  1  19   1
M  END
>  <smiles>  (3) 
CCNCCOCCNCCOCCNc1c2c([n+](C)c3c1CCCC3)CCCC2

>  <score_type>  (3) 
oracle

>  <origin>  (3) 
adg

>  <m_score__min__energy>  (3) 
-9.3800000000000008

>  <m_primary>  (3) 
energy

$$$$
3:0
     RDKit          3D

 56 58  0  0  0  0  0  0  0  0999 V2000
   -8.7790   23.0480  -31.9700 C   0  0  0  0  0  0  0  0  0  0  0  0
   -7.3330   23.4210  -32.2560 C   0  0  0  0  0  0  0  0  0  0  0  0
   -6.6120   23.4780  -31.0260 N   0  0  0  0  0  0  0  0  0  0  0  0
   -7.2920   22.7020  -29.9870 C   0  0  0  0  0  0  0  0  0  0  0  0
   -6.4010   24.8480  -30.5710 C   0  0  0  0  0  0  0  0  0  0  0  0
   -5.1030   25.0140  -29.8750 C   0  0  0  0  0  0  0  0  0  0  0  0
   -4.0380   24.7090  -30.6900 O   0  0  0  0  0  0  0  0  0  0  0  0
   -3.1670   23.8580  -30.0700 C   0  0  0  0  0  0  0  0  0  0  0  0
   -2.8910   22.6780  -30.9680 C   0  0  0  0  0  0  0  0  0  0  0  0
   -4.1760   22.0650  -31.4240 C   0  0  0  0  0  0  0  0  0  0  0  0
   -4.3020   21.8340  -32.8340 N   0  0  0  0  0  0  0  0  0  0  0  0
   -3.9380   20.5040  -33.2850 C   0  0  0  0  0  0  0  0  0  0  0  0
   -2.6750   20.1880  -33.7000 C   0  0  0  0  0  0  0  0  0  0  0  0
   -1.7000   21.1590  -33.7130 C   0  0  0  0  0  0  0  0  0  0  0  0
   -0.4320   20.8670  -34.1320 C   0  0  0  0  0  0  0  0  0  0  0  0
   -0.1510   19.6010  -34.5380 C   0  0  0  0  0  0  0  0  0  0  0  0
   -1.1320   18.6250  -34.5240 C   0  0  0  0  0  0  0  0  0  0  0  0
   -2.4290   18.8740  -34.1070 C   0  0  0  0  0  0  0  0  0  0  0  0
   -3.3780   17.9230  -34.1050 N   0  0  0  0  0  0  0  0  0  0  0  0
   -3.0890   16.5640  -34.5090 C   0  0  0  0  0  0  0  0  0  0  0  0
   -4.6280   18.2710  -33.6870 C   0  0  0  0  0  0  0  0  0  0  0  0
   -5.6670   17.3590  -33.6590 C   0  0  0  0  0  0  0  0  0  0  0  0
   -6.9450   17.6870  -33.2440 C   0  0  0  0  0  0  0  0  0  0  0  0
   -7.2270   18.9700  -32.8340 C   0  0  0  0  0  0  0  0  0  0  0  0
   -8.9530   19.5200  -32.2440 Br  0  0  0  0  0  0  0  0  0  0  0  0
   -6.2030   19.8890  -32.8570 C   0  0  0  0  0  0  0  0  0  0  0  0
   -4.9310   19.5550  -33.2720 C   0  0  0  0  0  0  0  0  0  0  0  0
   -8.9388   23.0068  -30.8825 H   0  0  0  0  0  0  0  0  0  0  0  0
   -9.4465   23.8034  -32.4103 H   0  0  0  0  0  0  0  0  0  0  0  0
   -8.9978   22.0640  -32.4103 H   0  0  0  0  0  0  0  0  0  0  0  0
   -6.8806   22.6637  -32.9131 H   0  0  0  0  0  0  0  0  0  0  0  0
   -7.2952   24.4017  -32.7528 H   0  0  0  0  0  0  0  0  0  0  0  0
   -6.9773   23.0611  -28.9961 H   0  0  0  0  0  0  0  0  0  0  0  0
   -8.3803   22.8229  -30.0922 H   0  0  0  0  0  0  0  0  0  0  0  0
   -7.0293   21.6390  -30.0922 H   0  0  0  0  0  0  0  0  0  0  0  0
   -6.4234   25.5181  -31.4430 H   0  0  0  0  0  0  0  0  0  0  0  0
   -7.2006   25.0931  -29.8565 H   0  0  0  0  0  0  0  0  0  0  0  0
   -5.0088   26.0587  -29.5438 H   0  0  0  0  0  0  0  0  0  0  0  0
   -5.0853   24.3221  -29.0201 H   0  0  0  0  0  0  0  0  0  0  0  0
   -2.2255   24.3865  -29.8594 H   0  0  0  0  0  0  0  0  0  0  0  0
   -3.6087   23.5050  -29.1264 H   0  0  0  0  0  0  0  0  0  0  0  0
   -2.3177   23.0145  -31.8444 H   0  0  0  0  0  0  0  0  0  0  0  0
   -2.3141   21.9275  -30.4077 H   0  0  0  0  0  0  0  0  0  0  0  0
   -4.2854   21.0965  -30.9141 H   0  0  0  0  0  0  0  0  0  0  0  0
   -4.9569   22.7986  -31.1749 H   0  0  0  0  0  0  0  0  0  0  0  0
   -4.6010   22.4740  -33.5640 H   0  0  0  0  0  0  0  0  0  0  0  0
   -1.9433   22.1798  -33.3831 H   0  0  0  0  0  0  0  0  0  0  0  0
    0.3473   21.6433  -34.1404 H   0  0  0  0  0  0  0  0  0  0  0  0
    0.8638   19.3501  -34.8803 H   0  0  0  0  0  0  0  0  0  0  0  0
   -0.8709   17.6099  -34.8577 H   0  0  0  0  0  0  0  0  0  0  0  0
   -2.9555   15.9364  -33.6155 H   0  0  0  0  0  0  0  0  0  0  0  0
   -3.9244   16.1744  -35.1093 H   0  0  0  0  0  0  0  0  0  0  0  0
   -2.1674   16.5480  -35.1093 H   0  0  0  0  0  0  0  0  0  0  0  0
   -5.4682   16.3262  -33.9813 H   0  0  0  0  0  0  0  0  0  0  0  0
   -7.7358   16.9224  -33.2417 H   0  0  0  0  0  0  0  0  0  0  0  0
   -6.4052   20.9211  -32.5347 H   0  0  0  0  0  0  0  0  0  0  0  0
  1  2  1  0
  2  3  1  0
  3  4  1  0
  3  5  1  0
  5  6  1  0
  6  7  1  0
  7  8  1  0
  8  9  1  0
  9 10  1  0
 10 11  1  0
 11 12  1  0
 12 13  2  0
 13 14  1  0
 14 15  2  0
 15 16  1  0
 16 17  2  0
 17 18  1  0
 18 19  2  0
 19 20  1  0
 19 21  1  0
 21 22  2  0
 22 23  1  0
 23 24  2  0
 24 25  1  0
 24 26  1  0
 26 27  2  0
 27 12  1  0
 18 13  1  0
 27 21  1  0
  1 28  1  0
  1 29  1  0
  1 30  1  0
  2 31  1  0
  2 32  1  0
  4 33  1  0
  4 34  1  0
  4 35  1  0
  5 36  1  0
  5 37  1  0
  6 38  1  0
  6 39  1  0
  8 40  1  0
  8 41  1  0
  9 42  1  0
  9 43  1  0
 10 44  1  0
 10 45  1  0
 11 46  1  0
 14 47  1  0
 15 48  1  0
 16 49  1  0
 17 50  1  0
 20 51  1  0
 20 52  1  0
 20 53  1  0
 22 54  1  0
 23 55  1  0
 26 56  1  0
M  CHG  1  19   1
M  END
>  <smiles>  (4) 
CCN(C)CCOCCCNc1c2ccccc2[n+](C)c2ccc(Br)cc12

>  <score_type>  (4) 
oracle

>  <origin>  (4) 
adg

>  <m_score__min__energy>  (4) 
-8.8000000000000007

>  <m_primary>  (4) 
energy

$$$$
5:0
     RDKit          3D

 68 70  0  0  0  0  0  0  0  0999 V2000
    2.4560   22.7620  -35.5510 C   0  0  0  0  0  0  0  0  0  0  0  0
    1.0510   23.0010  -35.3110 N   0  0  0  0  0  0  0  0  0  0  0  0
    0.6250   24.1500  -36.0890 C   0  0  0  0  0  0  0  0  0  0  0  0
    0.2500   21.8190  -35.6840 C   0  0  0  0  0  0  0  0  0  0  0  0
    0.3110   20.7760  -34.6170 C   0  0  0  0  0  0  0  0  0  0  0  0
   -0.5790   21.0690  -33.4290 C   0  0  0  0  0  0  0  0  0  0  0  0
   -1.5650   19.9740  -33.2440 C   0  0  0  0  0  0  0  0  0  0  0  0
   -2.8350   20.2620  -33.9520 N   0  0  0  0  0  0  0  0  0  0  0  0
   -3.9240   19.4060  -33.7330 C   0  0  0  0  0  0  0  0  0  0  0  0
   -3.7690   18.0470  -34.0270 C   0  0  0  0  0  0  0  0  0  0  0  0
   -4.7730   17.1230  -33.8270 C   0  0  0  0  0  0  0  0  0  0  0  0
   -5.9860   17.5140  -33.3210 C   0  0  0  0  0  0  0  0  0  0  0  0
   -6.1800   18.8440  -33.0200 C   0  0  0  0  0  0  0  0  0  0  0  0
   -5.1510   19.7660  -33.2300 C   0  0  0  0  0  0  0  0  0  0  0  0
   -5.3910   21.0530  -32.9270 C   0  0  0  0  0  0  0  0  0  0  0  0
   -4.5250   22.1660  -33.1180 N   0  0  0  0  0  0  0  0  0  0  0  0
   -3.5350   22.3740  -32.0540 C   0  0  0  0  0  0  0  0  0  0  0  0
   -3.9580   21.7990  -30.7350 C   0  0  0  0  0  0  0  0  0  0  0  0
   -4.6290   22.8290  -29.8550 C   0  0  0  0  0  0  0  0  0  0  0  0
   -4.1150   24.1300  -30.0800 N   0  0  0  0  0  0  0  0  0  0  0  0
   -5.0460   25.1460  -30.4350 C   0  0  0  0  0  0  0  0  0  0  0  0
   -2.9970   24.5310  -29.2940 C   0  0  0  0  0  0  0  0  0  0  0  0
   -6.6530   21.4020  -32.4120 C   0  0  0  0  0  0  0  0  0  0  0  0
   -6.9300   22.7350  -32.0840 C   0  0  0  0  0  0  0  0  0  0  0  0
   -8.1290   23.1530  -31.5800 C   0  0  0  0  0  0  0  0  0  0  0  0
   -9.1120   22.2110  -31.3870 C   0  0  0  0  0  0  0  0  0  0  0  0
   -8.8550   20.8830  -31.7070 C   0  0  0  0  0  0  0  0  0  0  0  0
   -7.6420   20.4800  -32.2140 C   0  0  0  0  0  0  0  0  0  0  0  0
   -7.3850   19.2040  -32.5250 N   0  0  0  0  0  0  0  0  0  0  0  0
   -8.3570   18.1540  -32.3480 C   0  0  0  0  0  0  0  0  0  0  0  0
    2.9822   22.6725  -34.5892 H   0  0  0  0  0  0  0  0  0  0  0  0
    2.5770   21.8304  -36.1232 H   0  0  0  0  0  0  0  0  0  0  0  0
    2.8782   23.6012  -36.1232 H   0  0  0  0  0  0  0  0  0  0  0  0
    0.3242   24.9614  -35.4100 H   0  0  0  0  0  0  0  0  0  0  0  0
    1.4561   24.4919  -36.7233 H   0  0  0  0  0  0  0  0  0  0  0  0
   -0.2281   23.8674  -36.7233 H   0  0  0  0  0  0  0  0  0  0  0  0
   -0.7966   22.1245  -35.8296 H   0  0  0  0  0  0  0  0  0  0  0  0
    0.6594   21.3958  -36.6131 H   0  0  0  0  0  0  0  0  0  0  0  0
    0.0027   19.8144  -35.0532 H   0  0  0  0  0  0  0  0  0  0  0  0
    1.3463   20.7556  -34.2460 H   0  0  0  0  0  0  0  0  0  0  0  0
    0.0402   21.1570  -32.5241 H   0  0  0  0  0  0  0  0  0  0  0  0
   -1.1182   22.0108  -33.6083 H   0  0  0  0  0  0  0  0  0  0  0  0
   -1.1397   19.0394  -33.6386 H   0  0  0  0  0  0  0  0  0  0  0  0
   -1.7817   19.8823  -32.1695 H   0  0  0  0  0  0  0  0  0  0  0  0
   -2.7440   21.1030  -34.5230 H   0  0  0  0  0  0  0  0  0  0  0  0
   -2.8073   17.7015  -34.4342 H   0  0  0  0  0  0  0  0  0  0  0  0
   -4.5996   16.0654  -34.0750 H   0  0  0  0  0  0  0  0  0  0  0  0
   -6.7887   16.7796  -33.1586 H   0  0  0  0  0  0  0  0  0  0  0  0
   -4.5650   22.7700  -33.9730 H   0  0  0  0  0  0  0  0  0  0  0  0
   -2.5908   21.8978  -32.3567 H   0  0  0  0  0  0  0  0  0  0  0  0
   -3.4240   23.4598  -31.9175 H   0  0  0  0  0  0  0  0  0  0  0  0
   -4.6631   20.9746  -30.9171 H   0  0  0  0  0  0  0  0  0  0  0  0
   -3.0559   21.4448  -30.2147 H   0  0  0  0  0  0  0  0  0  0  0  0
   -5.7081   22.8309  -30.0686 H   0  0  0  0  0  0  0  0  0  0  0  0
   -4.4335   22.5614  -28.8061 H   0  0  0  0  0  0  0  0  0  0  0  0
   -5.4607   25.5985  -29.5222 H   0  0  0  0  0  0  0  0  0  0  0  0
   -4.5363   25.9192  -31.0286 H   0  0  0  0  0  0  0  0  0  0  0  0
   -5.8607   24.7056  -31.0286 H   0  0  0  0  0  0  0  0  0  0  0  0
   -3.2479   24.4410  -28.2268 H   0  0  0  0  0  0  0  0  0  0  0  0
   -2.1366   23.8854  -29.5241 H   0  0  0  0  0  0  0  0  0  0  0  0
   -2.7430   25.5763  -29.5241 H   0  0  0  0  0  0  0  0  0  0  0  0
   -6.1406   23.4849  -32.2404 H   0  0  0  0  0  0  0  0  0  0  0  0
   -8.3029   24.2114  -31.3359 H   0  0  0  0  0  0  0  0  0  0  0  0
  -10.0920   22.5055  -30.9834 H   0  0  0  0  0  0  0  0  0  0  0  0
   -9.6444   20.1331  -31.5502 H   0  0  0  0  0  0  0  0  0  0  0  0
   -8.5177   17.9804  -31.2737 H   0  0  0  0  0  0  0  0  0  0  0  0
   -9.3065   18.4504  -32.8176 H   0  0  0  0  0  0  0  0  0  0  0  0
   -7.9884   17.2301  -32.8176 H   0  0  0  0  0  0  0  0  0  0  0  0
  1  2  1  0
  2  3  1  0
  2  4  1  0
  4  5  1  0
  5  6  1  0
  6  7  1  0
  7  8  1  0
  8  9  1  0
  9 10  2  0
 10 11  1  0
 11 12  2  0
 12 13  1  0
 13 14  2  0
 14 15  1  0
 15 16  1  0
 16 17  1  0
 17 18  1  0
 18 19  1  0
 19 20  1  0
 20 21  1  0
 20 22  1  0
 15 23  2  0
 23 24  1  0
 24 25  2  0
 25 26  1  0
 26 27  2  0
 27 28  1  0
 28 29  2  0
 29 30  1  0
 14  9  1  0
 28 23  1  0
 29 13  1  0
  1 31  1  0
  1 32  1  0
  1 33  1  0
  3 34  1  0
  3 35  1  0
  3 36  1  0
  4 37  1  0
  4 38  1  0
  5 39  1  0
  5 40  1  0
  6 41  1  0
  6 42  1  0
  7 43  1  0
  7 44  1  0
  8 45  1  0
 10 46  1  0
 11 47  1  0
 12 48  1  0
 16 49  1  0
 17 50  1  0
 17 51  1  0
 18 52  1  0
 18 53  1  0
 19 54  1  0
 19 55  1  0
 21 56  1  0
 21 57  1  0
 21 58  1  0
 22 59  1  0
 22 60  1  0
 22 61  1  0
 24 62  1  0
 25 63  1  0
 26 64  1  0
 27 65  1  0
 30 66  1  0
 30 67  1  0
 30 68  1  0
M  CHG  1  29   1
M  END
>  <smiles>  (5) 
CN(C)CCCCNc1cccc2c1c(NCCCN(C)C)c1ccccc1[n+]2C

>  <score_type>  (5) 
oracle

>  <origin>  (5) 
adg

>  <m_score__min__energy>  (5) 
-9.1400000000000006

>  <m_primary>  (5) 
energy

$$$$
7:0
     RDKit          3D

 46 48  0  0  0  0  0  0  0  0999 V2000
   -2.0960   18.7470  -33.1760 C   0  0  0  0  0  0  0  0  0  0  0  0
   -2.0740   19.8340  -34.2130 C   0  0  0  0  0  0  0  0  0  0  0  0
   -1.6990   21.1200  -33.6640 N   0  0  0  0  0  0  0  0  0  0  0  0
   -0.4860   21.5310  -34.3010 C   0  0  0  0  0  0  0  0  0  0  0  0
   -1.5590   21.0770  -32.2250 C   0  0  0  0  0  0  0  0  0  0  0  0
   -2.6460   21.9460  -31.6290 C   0  0  0  0  0  0  0  0  0  0  0  0
   -3.6850   22.1970  -32.5970 N   0  0  0  0  0  0  0  0  0  0  0  0
   -5.0350   22.1560  -32.1170 C   0  0  0  0  0  0  0  0  0  0  0  0
   -5.5590   23.1810  -31.3500 C   0  0  0  0  0  0  0  0  0  0  0  0
   -6.8720   23.0990  -30.9050 C   0  0  0  0  0  0  0  0  0  0  0  0
   -7.6000   21.9980  -31.2460 N   0  0  0  0  0  0  0  0  0  0  0  0
   -8.9740   21.8500  -30.8170 C   0  0  0  0  0  0  0  0  0  0  0  0
   -7.0830   21.0050  -31.9920 C   0  0  0  0  0  0  0  0  0  0  0  0
   -7.8520   19.8990  -32.3220 C   0  0  0  0  0  0  0  0  0  0  0  0
   -7.3210   18.8690  -33.0940 C   0  0  0  0  0  0  0  0  0  0  0  0
   -6.0100   18.9160  -33.5570 C   0  0  0  0  0  0  0  0  0  0  0  0
   -5.2530   20.0200  -33.2240 C   0  0  0  0  0  0  0  0  0  0  0  0
   -5.7780   21.0420  -32.4590 C   0  0  0  0  0  0  0  0  0  0  0  0
   -7.1940   24.3040  -30.1140 C   0  0  0  0  0  0  0  0  0  0  0  0
   -6.1330   25.2980  -30.4870 C   0  0  0  0  0  0  0  0  0  0  0  0
   -4.9850   24.4340  -30.8660 C   0  0  0  0  0  0  0  0  0  0  0  0
   -3.7540   24.6920  -30.7990 O   0  0  0  0  0  0  0  0  0  0  0  0
   -2.0869   19.1974  -32.1725 H   0  0  0  0  0  0  0  0  0  0  0  0
   -3.0066   18.1421  -33.2982 H   0  0  0  0  0  0  0  0  0  0  0  0
   -1.2106   18.1057  -33.2982 H   0  0  0  0  0  0  0  0  0  0  0  0
   -1.3504   19.5603  -34.9949 H   0  0  0  0  0  0  0  0  0  0  0  0
   -3.0924   19.9288  -34.6177 H   0  0  0  0  0  0  0  0  0  0  0  0
    0.2624   21.7846  -33.5357 H   0  0  0  0  0  0  0  0  0  0  0  0
   -0.1055   20.7116  -34.9286 H   0  0  0  0  0  0  0  0  0  0  0  0
   -0.6820   22.4129  -34.9286 H   0  0  0  0  0  0  0  0  0  0  0  0
   -1.6697   20.0421  -31.8689 H   0  0  0  0  0  0  0  0  0  0  0  0
   -0.5661   21.4426  -31.9241 H   0  0  0  0  0  0  0  0  0  0  0  0
   -3.0803   21.4343  -30.7574 H   0  0  0  0  0  0  0  0  0  0  0  0
   -2.2047   22.9070  -31.3262 H   0  0  0  0  0  0  0  0  0  0  0  0
   -3.4860   22.4050  -33.6170 H   0  0  0  0  0  0  0  0  0  0  0  0
   -9.0165   21.8454  -29.7178 H   0  0  0  0  0  0  0  0  0  0  0  0
   -9.5712   22.6890  -31.2035 H   0  0  0  0  0  0  0  0  0  0  0  0
   -9.3788   20.9031  -31.2035 H   0  0  0  0  0  0  0  0  0  0  0  0
   -8.8922   19.8348  -31.9702 H   0  0  0  0  0  0  0  0  0  0  0  0
   -7.9502   18.0016  -33.3425 H   0  0  0  0  0  0  0  0  0  0  0  0
   -5.5919   18.1017  -34.1670 H   0  0  0  0  0  0  0  0  0  0  0  0
   -4.2124   20.0871  -33.5743 H   0  0  0  0  0  0  0  0  0  0  0  0
   -8.1921   24.6850  -30.3760 H   0  0  0  0  0  0  0  0  0  0  0  0
   -7.2125   24.1002  -29.0332 H   0  0  0  0  0  0  0  0  0  0  0  0
   -6.4553   25.9214  -31.3340 H   0  0  0  0  0  0  0  0  0  0  0  0
   -5.8959   26.0038  -29.6773 H   0  0  0  0  0  0  0  0  0  0  0  0
  1  2  1  0
  2  3  1  0
  3  4  1  0
  3  5  1  0
  5  6  1  0
  6  7  1  0
  7  8  1  0
  8  9  2  0
  9 10  1  0
 10 11  2  0
 11 12  1  0
 11 13  1  0
 13 14  2  0
 14 15  1  0
 15 16  2  0
 16 17  1  0
 17 18  2  0
 10 19  1  0
 19 20  1  0
 20 21  1  0
 21 22  2  0
 18  8  1  0
 21  9  1  0
 18 13  1  0
  1 23  1  0
  1 24  1  0
  1 25  1  0
  2 26  1  0
  2 27  1  0
  4 28  1  0
  4 29  1  0
  4 30  1  0
  5 31  1  0
  5 32  1  0
  6 33  1  0
  6 34  1  0
  7 35  1  0
 12 36  1  0
 12 37  1  0
 12 38  1  0
 14 39  1  0
 15 40  1  0
 16 41  1  0
 17 42  1  0
 19 43  1  0
 19 44  1  0
 20 45  1  0
 20 46  1  0
M  CHG  1  11   1
M  END
>  <smiles>  (6) 
CCN(C)CCNc1c2c([n+](C)c3ccccc13)CCC2=O

>  <score_type>  (6) 
oracle

>  <origin>  (6) 
adg

>  <m_score__min__energy>  (6) 
-8.1500000000000004

>  <m_primary>  (6) 
energy

$$$$
8:0
     RDKit          3D

 63 66  0  0  0  0  0  0  0  0999 V2000
   -6.1880   25.4840  -29.3460 C   0  0  0  0  0  0  0  0  0  0  0  0
   -5.9750   24.2410  -30.1010 N   0  0  0  0  0  0  0  0  0  0  0  0
   -7.0990   23.3790  -29.7330 C   0  0  0  0  0  0  0  0  0  0  0  0
   -6.0520   24.5480  -31.5320 C   0  0  0  0  0  0  0  0  0  0  0  0
   -5.8690   23.3250  -32.3690 C   0  0  0  0  0  0  0  0  0  0  0  0
   -5.2400   22.1930  -31.6750 N   0  0  0  0  0  0  0  0  0  0  0  0
   -5.2990   20.8910  -32.2290 C   0  0  0  0  0  0  0  0  0  0  0  0
   -6.5680   20.2960  -32.1890 C   0  0  0  0  0  0  0  0  0  0  0  0
   -7.6060   20.8850  -31.5010 C   0  0  0  0  0  0  0  0  0  0  0  0
   -8.8640   20.3590  -31.3830 C   0  0  0  0  0  0  0  0  0  0  0  0
   -9.1070   19.1540  -31.9980 C   0  0  0  0  0  0  0  0  0  0  0  0
   -8.0780   18.5340  -32.6980 C   0  0  0  0  0  0  0  0  0  0  0  0
   -6.8140   19.0890  -32.8000 C   0  0  0  0  0  0  0  0  0  0  0  0
   -5.8070   18.4390  -33.4680 N   0  0  0  0  0  0  0  0  0  0  0  0
   -6.1790   17.2060  -34.0930 C   0  0  0  0  0  0  0  0  0  0  0  0
   -4.5860   18.9990  -33.5060 C   0  0  0  0  0  0  0  0  0  0  0  0
   -3.6050   18.2960  -34.1750 C   0  0  0  0  0  0  0  0  0  0  0  0
   -2.3430   18.8510  -34.2100 C   0  0  0  0  0  0  0  0  0  0  0  0
   -2.0770   20.0540  -33.6000 C   0  0  0  0  0  0  0  0  0  0  0  0
   -3.0520   20.7880  -32.9140 C   0  0  0  0  0  0  0  0  0  0  0  0
   -2.6190   21.9300  -32.2210 N   0  0  0  0  0  0  0  0  0  0  0  0
   -1.3770   21.8440  -31.4320 C   0  0  0  0  0  0  0  0  0  0  0  0
   -1.5160   22.3670  -30.0430 C   0  0  0  0  0  0  0  0  0  0  0  0
   -2.8340   22.8410  -29.7360 N   0  0  0  0  0  0  0  0  0  0  0  0
   -2.9270   24.2020  -29.3310 C   0  0  0  0  0  0  0  0  0  0  0  0
   -3.3570   24.1690  -27.8870 C   0  0  0  0  0  0  0  0  0  0  0  0
   -4.2410   22.9180  -27.8470 C   0  0  0  0  0  0  0  0  0  0  0  0
   -3.4280   21.9990  -28.7440 C   0  0  0  0  0  0  0  0  0  0  0  0
   -4.3070   20.2330  -32.8870 C   0  0  0  0  0  0  0  0  0  0  0  0
   -6.1512   25.2690  -28.2678 H   0  0  0  0  0  0  0  0  0  0  0  0
   -5.4009   26.2083  -29.6026 H   0  0  0  0  0  0  0  0  0  0  0  0
   -7.1714   25.9049  -29.6026 H   0  0  0  0  0  0  0  0  0  0  0  0
   -7.1737   23.3217  -28.6370 H   0  0  0  0  0  0  0  0  0  0  0  0
   -8.0306   23.7964  -30.1427 H   0  0  0  0  0  0  0  0  0  0  0  0
   -6.9375   22.3710  -30.1427 H   0  0  0  0  0  0  0  0  0  0  0  0
   -7.0374   24.9855  -31.7504 H   0  0  0  0  0  0  0  0  0  0  0  0
   -5.2448   25.2545  -31.7754 H   0  0  0  0  0  0  0  0  0  0  0  0
   -6.8587   23.0018  -32.7240 H   0  0  0  0  0  0  0  0  0  0  0  0
   -5.1867   23.6066  -33.1845 H   0  0  0  0  0  0  0  0  0  0  0  0
   -4.7670   22.3300  -30.7290 H   0  0  0  0  0  0  0  0  0  0  0  0
   -7.4092   21.8495  -31.0101 H   0  0  0  0  0  0  0  0  0  0  0  0
   -9.6504   20.8805  -30.8177 H   0  0  0  0  0  0  0  0  0  0  0  0
  -10.1011   18.6870  -31.9373 H   0  0  0  0  0  0  0  0  0  0  0  0
   -8.2752   17.5690  -33.1877 H   0  0  0  0  0  0  0  0  0  0  0  0
   -6.4051   16.4567  -33.3201 H   0  0  0  0  0  0  0  0  0  0  0  0
   -7.0688   17.3664  -34.7196 H   0  0  0  0  0  0  0  0  0  0  0  0
   -5.3490   16.8475  -34.7196 H   0  0  0  0  0  0  0  0  0  0  0  0
   -3.8207   17.3327  -34.6603 H   0  0  0  0  0  0  0  0  0  0  0  0
   -1.5346   18.3216  -34.7355 H   0  0  0  0  0  0  0  0  0  0  0  0
   -1.0548   20.4569  -33.6532 H   0  0  0  0  0  0  0  0  0  0  0  0
   -3.0640   22.8510  -32.1400 H   0  0  0  0  0  0  0  0  0  0  0  0
   -1.0718   20.7886  -31.3775 H   0  0  0  0  0  0  0  0  0  0  0  0
   -0.6281   22.4699  -31.9393 H   0  0  0  0  0  0  0  0  0  0  0  0
   -1.2651   21.5586  -29.3405 H   0  0  0  0  0  0  0  0  0  0  0  0
   -0.8356   23.2266  -29.9530 H   0  0  0  0  0  0  0  0  0  0  0  0
   -1.9506   24.6990  -29.4292 H   0  0  0  0  0  0  0  0  0  0  0  0
   -3.6389   24.7634  -29.9540 H   0  0  0  0  0  0  0  0  0  0  0  0
   -2.4922   24.0691  -27.2145 H   0  0  0  0  0  0  0  0  0  0  0  0
   -3.8685   25.0846  -27.5553 H   0  0  0  0  0  0  0  0  0  0  0  0
   -4.3354   22.5161  -26.8274 H   0  0  0  0  0  0  0  0  0  0  0  0
   -5.2832   23.0740  -28.1625 H   0  0  0  0  0  0  0  0  0  0  0  0
   -2.6485   21.4870  -28.1607 H   0  0  0  0  0  0  0  0  0  0  0  0
   -4.0576   21.2210  -29.2003 H   0  0  0  0  0  0  0  0  0  0  0  0
  1  2  1  0
  2  3  1  0
  2  4  1  0
  4  5  1  0
  5  6  1  0
  6  7  1  0
  7  8  2  0
  8  9  1  0
  9 10  2  0
 10 11  1  0
 11 12  2  0
 12 13  1  0
 13 14  2  0
 14 15  1  0
 14 16  1  0
 16 17  2  0
 17 18  1  0
 18 19  2  0
 19 20  1  0
 20 21  1  0
 21 22  1  0
 22 23  1  0
 23 24  1  0
 24 25  1  0
 25 26  1  0
 26 27  1  0
 27 28  1  0
 20 29  2  0
 29  7  1  0
 13  8  1  0
 29 16  1  0
 28 24  1  0
  1 30  1  0
  1 31  1  0
  1 32  1  0
  3 33  1  0
  3 34  1  0
  3 35  1  0
  4 36  1  0
  4 37  1  0
  5 38  1  0
  5 39  1  0
  6 40  1  0
  9 41  1  0
 10 42  1  0
 11 43  1  0
 12 44  1  0
 15 45  1  0
 15 46  1  0
 15 47  1  0
 17 48  1  0
 18 49  1  0
 19 50  1  0
 21 51  1  0
 22 52  1  0
 22 53  1  0
 23 54  1  0
 23 55  1  0
 25 56  1  0
 25 57  1  0
 26 58  1  0
 26 59  1  0
 27 60  1  0
 27 61  1  0
 28 62  1  0
 28 63  1  0
M  CHG  1  14   1
M  END
>  <smiles>  (7) 
CN(C)CCNc1c2ccccc2[n+](C)c2cccc(NCCN3CCCC3)c12

>  <score_type>  (7) 
oracle

>  <origin>  (7) 
adg

>  <m_score__min__energy>  (7) 
-8.8200000000000003

>  <m_primary>  (7) 
energy

$$$$
9:0
     RDKit          3D

 73 76  0  0  0  0  0  0  0  0999 V2000
   -1.1360   19.2850  -31.3550 C   0  0  0  0  0  0  0  0  0  0  0  0
   -1.3600   20.6790  -31.6350 N   0  0  0  0  0  0  0  0  0  0  0  0
   -0.2770   21.5440  -31.2890 C   0  0  0  0  0  0  0  0  0  0  0  0
   -1.8160   20.8860  -33.0040 C   0  0  0  0  0  0  0  0  0  0  0  0
   -3.3140   20.8330  -33.1090 C   0  0  0  0  0  0  0  0  0  0  0  0
   -3.9260   20.6690  -31.7630 N   0  0  0  0  0  0  0  0  0  0  0  0
   -5.2130   21.2290  -31.6220 C   0  0  0  0  0  0  0  0  0  0  0  0
   -6.2580   20.3540  -31.9850 C   0  0  0  0  0  0  0  0  0  0  0  0
   -5.9720   19.0560  -32.3670 C   0  0  0  0  0  0  0  0  0  0  0  0
   -6.9300   18.1330  -32.7250 C   0  0  0  0  0  0  0  0  0  0  0  0
   -8.2420   18.5350  -32.6960 C   0  0  0  0  0  0  0  0  0  0  0  0
   -8.5490   19.8390  -32.3120 C   0  0  0  0  0  0  0  0  0  0  0  0
   -7.5700   20.7490  -31.9580 C   0  0  0  0  0  0  0  0  0  0  0  0
   -7.8800   22.0210  -31.5720 N   0  0  0  0  0  0  0  0  0  0  0  0
   -9.2870   22.3470  -31.6060 C   0  0  0  0  0  0  0  0  0  0  0  0
   -6.8990   22.8570  -31.2220 C   0  0  0  0  0  0  0  0  0  0  0  0
   -7.2600   24.1250  -30.8230 C   0  0  0  0  0  0  0  0  0  0  0  0
   -6.2780   25.0100  -30.4430 C   0  0  0  0  0  0  0  0  0  0  0  0
   -4.9590   24.6180  -30.4640 C   0  0  0  0  0  0  0  0  0  0  0  0
   -4.5480   23.3500  -30.8570 C   0  0  0  0  0  0  0  0  0  0  0  0
   -3.1720   23.0690  -30.7880 N   0  0  0  0  0  0  0  0  0  0  0  0
   -2.3450   23.6460  -29.7270 C   0  0  0  0  0  0  0  0  0  0  0  0
   -2.4530   22.9550  -28.4180 C   0  0  0  0  0  0  0  0  0  0  0  0
   -1.1630   22.2710  -28.0070 C   0  0  0  0  0  0  0  0  0  0  0  0
   -1.3540   21.0560  -27.2580 N   0  0  0  0  0  0  0  0  0  0  0  0
   -1.2750   21.3170  -25.8310 C   0  0  0  0  0  0  0  0  0  0  0  0
   -0.2460   20.1700  -27.5620 C   0  0  0  0  0  0  0  0  0  0  0  0
   -0.6270   18.7490  -27.7970 C   0  0  0  0  0  0  0  0  0  0  0  0
   -1.6250   18.2250  -26.7920 C   0  0  0  0  0  0  0  0  0  0  0  0
   -2.7170   19.2180  -26.5700 C   0  0  0  0  0  0  0  0  0  0  0  0
   -2.5630   20.3350  -27.5970 C   0  0  0  0  0  0  0  0  0  0  0  0
   -5.5420   22.4840  -31.2360 C   0  0  0  0  0  0  0  0  0  0  0  0
   -1.1109   19.1291  -30.2664 H   0  0  0  0  0  0  0  0  0  0  0  0
   -1.9497   18.6878  -31.7923 H   0  0  0  0  0  0  0  0  0  0  0  0
   -0.1762   18.9728  -31.7923 H   0  0  0  0  0  0  0  0  0  0  0  0
   -0.1953   21.6093  -30.1940 H   0  0  0  0  0  0  0  0  0  0  0  0
    0.6596   21.1426  -31.7033 H   0  0  0  0  0  0  0  0  0  0  0  0
   -0.4614   22.5462  -31.7033 H   0  0  0  0  0  0  0  0  0  0  0  0
   -1.4698   21.8714  -33.3491 H   0  0  0  0  0  0  0  0  0  0  0  0
   -1.4016   20.0799  -33.6272 H   0  0  0  0  0  0  0  0  0  0  0  0
   -3.6783   21.7674  -33.5607 H   0  0  0  0  0  0  0  0  0  0  0  0
   -3.5962   19.9735  -33.7348 H   0  0  0  0  0  0  0  0  0  0  0  0
   -3.4220   20.1350  -31.0080 H   0  0  0  0  0  0  0  0  0  0  0  0
   -4.9179   18.7422  -32.3861 H   0  0  0  0  0  0  0  0  0  0  0  0
   -6.6535   17.1110  -33.0233 H   0  0  0  0  0  0  0  0  0  0  0  0
   -9.0436   17.8346  -32.9732 H   0  0  0  0  0  0  0  0  0  0  0  0
   -9.6027   20.1541  -32.2898 H   0  0  0  0  0  0  0  0  0  0  0  0
   -9.6679   22.4352  -30.5778 H   0  0  0  0  0  0  0  0  0  0  0  0
   -9.4295   23.3020  -32.1330 H   0  0  0  0  0  0  0  0  0  0  0  0
   -9.8349   21.5520  -32.1330 H   0  0  0  0  0  0  0  0  0  0  0  0
   -8.3181   24.4254  -30.8085 H   0  0  0  0  0  0  0  0  0  0  0  0
   -6.5461   26.0278  -30.1234 H   0  0  0  0  0  0  0  0  0  0  0  0
   -4.1926   25.3438  -30.1546 H   0  0  0  0  0  0  0  0  0  0  0  0
   -2.6110   22.4500  -31.3970 H   0  0  0  0  0  0  0  0  0  0  0  0
   -1.2944   23.6068  -30.0506 H   0  0  0  0  0  0  0  0  0  0  0  0
   -2.7087   24.6722  -29.5700 H   0  0  0  0  0  0  0  0  0  0  0  0
   -2.7180   23.6964  -27.6499 H   0  0  0  0  0  0  0  0  0  0  0  0
   -3.2241   22.1767  -28.5166 H   0  0  0  0  0  0  0  0  0  0  0  0
   -0.5948   22.0297  -28.9174 H   0  0  0  0  0  0  0  0  0  0  0  0
   -0.6300   22.9704  -27.3461 H   0  0  0  0  0  0  0  0  0  0  0  0
   -1.5502   20.4079  -25.2762 H   0  0  0  0  0  0  0  0  0  0  0  0
   -0.2479   21.6102  -25.5682 H   0  0  0  0  0  0  0  0  0  0  0  0
   -1.9671   22.1306  -25.5682 H   0  0  0  0  0  0  0  0  0  0  0  0
    0.2527   20.5446  -28.4680 H   0  0  0  0  0  0  0  0  0  0  0  0
    0.4045   20.1729  -26.6749 H   0  0  0  0  0  0  0  0  0  0  0  0
   -1.0672   18.6670  -28.8018 H   0  0  0  0  0  0  0  0  0  0  0  0
    0.2867   18.1451  -27.6947 H   0  0  0  0  0  0  0  0  0  0  0  0
   -2.0598   17.2876  -27.1692 H   0  0  0  0  0  0  0  0  0  0  0  0
   -1.1076   18.0473  -25.8377 H   0  0  0  0  0  0  0  0  0  0  0  0
   -3.6949   18.7299  -26.6948 H   0  0  0  0  0  0  0  0  0  0  0  0
   -2.6556   19.6281  -25.5512 H   0  0  0  0  0  0  0  0  0  0  0  0
   -2.4788   19.9100  -28.6081 H   0  0  0  0  0  0  0  0  0  0  0  0
   -3.4362   21.0038  -27.5845 H   0  0  0  0  0  0  0  0  0  0  0  0
  1  2  1  0
  2  3  1  0
  2  4  1  0
  4  5  1  0
  5  6  1  0
  6  7  1  0
  7  8  2  0
  8  9  1  0
  9 10  2  0
 10 11  1  0
 11 12  2  0
 12 13  1  0
 13 14  2  0
 14 15  1  0
 14 16  1  0
 16 17  2  0
 17 18  1  0
 18 19  2  0
 19 20  1  0
 20 21  1  0
 21 22  1  0
 22 23  1  0
 23 24  1  0
 24 25  1  0
 25 26  1  0
 25 27  1  0
 27 28  1  0
 28 29  1  0
 29 30  1  0
 30 31  1  0
 20 32  2  0
 32  7  1  0
 13  8  1  0
 32 16  1  0
 31 25  1  0
  1 33  1  0
  1 34  1  0
  1 35  1  0
  3 36  1  0
  3 37  1  0
  3 38  1  0
  4 39  1  0
  4 40  1  0
  5 41  1  0
  5 42  1  0
  6 43  1  0
  9 44  1  0
 10 45  1  0
 11 46  1  0
 12 47  1  0
 15 48  1  0
 15 49  1  0
 15 50  1  0
 17 51  1  0
 18 52  1  0
 19 53  1  0
 21 54  1  0
 22 55  1  0
 22 56  1  0
 23 57  1  0
 23 58  1  0
 24 59  1  0
 24 60  1  0
 26 61  1  0
 26 62  1  0
 26 63  1  0
 27 64  1  0
 27 65  1  0
 28 66  1  0
 28 67  1  0
 29 68  1  0
 29 69  1  0
 30 70  1  0
 30 71  1  0
 31 72  1  0
 31 73  1  0
M  CHG  2  14   1  25   1
M  END
>  <smiles>  (8) 
CN(C)CCNc1c2ccccc2[n+](C)c2cccc(NCCC[N+]3(C)CCCCC3)c12

>  <score_type>  (8) 
oracle

>  <origin>  (8) 
adg

>  <m_score__min__energy>  (8) 
-9.3399999999999999

>  <m_primary>  (8) 
energy

$$$$
10:0
     RDKit          3D

 53 55  0  0  1  0  0  0  0  0999 V2000
   -6.1600   24.5800  -31.0220 C   0  0  0  0  0  0  0  0  0  0  0  0
   -5.2460   25.6670  -30.5190 C   0  0  0  0  0  0  0  0  0  0  0  0
   -3.8880   25.2890  -30.4770 O   0  0  0  0  0  0  0  0  0  0  0  0
   -3.4000   24.3930  -29.5540 C   0  0  0  0  0  0  0  0  0  0  0  0
   -2.0320   24.1570  -29.5400 C   0  0  0  0  0  0  0  0  0  0  0  0
   -1.4930   23.2560  -28.6200 C   0  0  0  0  0  0  0  0  0  0  0  0
   -2.2560   22.5770  -27.7100 C   0  0  0  0  0  0  0  0  0  0  0  0
   -1.6860   21.6180  -26.7310 C   0  0  0  0  0  0  0  0  0  0  0  0
   -1.9890   20.2790  -27.1700 N   0  0  0  0  0  0  0  0  0  0  0  0
   -1.0650   19.3000  -26.7160 C   0  0  0  0  0  0  0  0  0  0  0  0
   -0.7300   18.2390  -27.7270 C   0  0  0  0  0  0  0  0  0  0  0  0
    0.3630   18.6260  -28.6700 C   0  0  0  0  0  0  0  0  0  0  0  0
    0.2450   20.0680  -29.1310 C   0  0  0  0  0  0  0  0  0  0  0  0
   -1.0100   20.1630  -29.8580 N   0  0  0  0  0  0  0  0  0  0  0  0
   -1.1620   20.6020  -31.0340 C   0  0  0  0  0  0  0  0  0  0  0  0
   -0.0670   20.6700  -31.8680 C   0  0  0  0  0  0  0  0  0  0  0  0
   -0.2820   21.1550  -33.1410 C   0  0  0  0  0  0  0  0  0  0  0  0
   -1.5100   21.5390  -33.5310 N   0  0  0  0  0  0  0  0  0  0  0  0
   -2.5920   21.4780  -32.7250 C   0  0  0  0  0  0  0  0  0  0  0  0
   -3.8520   21.8840  -33.1580 C   0  0  0  0  0  0  0  0  0  0  0  0
   -4.9610   21.8160  -32.3180 C   0  0  0  0  0  0  0  0  0  0  0  0
   -4.7550   21.3320  -31.0420 C   0  0  0  0  0  0  0  0  0  0  0  0
   -3.5140   20.9250  -30.5940 C   0  0  0  0  0  0  0  0  0  0  0  0
   -2.4230   20.9960  -31.4360 C   0  0  0  0  0  0  0  0  0  0  0  0
   -3.6310   22.8340  -27.7440 C   0  0  0  0  0  0  0  0  0  0  0  0
   -4.1750   23.7140  -28.6390 C   0  0  0  0  0  0  0  0  0  0  0  0
   -6.6053   24.0505  -30.1668 H   0  0  0  0  0  0  0  0  0  0  0  0
   -6.9585   25.0260  -31.6332 H   0  0  0  0  0  0  0  0  0  0  0  0
   -5.5836   23.8699  -31.6332 H   0  0  0  0  0  0  0  0  0  0  0  0
   -5.3439   26.5385  -31.1831 H   0  0  0  0  0  0  0  0  0  0  0  0
   -5.5502   25.8915  -29.4860 H   0  0  0  0  0  0  0  0  0  0  0  0
   -1.3749   24.6783  -30.2516 H   0  0  0  0  0  0  0  0  0  0  0  0
   -0.4065   23.0844  -28.6271 H   0  0  0  0  0  0  0  0  0  0  0  0
   -0.5956   21.7513  -26.6732 H   0  0  0  0  0  0  0  0  0  0  0  0
   -2.1195   21.7945  -25.7355 H   0  0  0  0  0  0  0  0  0  0  0  0
   -2.3080   20.1820  -28.1360 H   0  0  0  0  0  0  0  0  0  0  0  0
   -0.1331   19.8122  -26.4346 H   0  0  0  0  0  0  0  0  0  0  0  0
   -1.5463   18.7850  -25.8715 H   0  0  0  0  0  0  0  0  0  0  0  0
   -0.4176   17.3327  -27.1876 H   0  0  0  0  0  0  0  0  0  0  0  0
   -1.6336   18.0785  -28.3334 H   0  0  0  0  0  0  0  0  0  0  0  0
    1.3302   18.4951  -28.1627 H   0  0  0  0  0  0  0  0  0  0  0  0
    0.2838   17.9820  -29.5582 H   0  0  0  0  0  0  0  0  0  0  0  0
    0.2352   20.7453  -28.2643 H   0  0  0  0  0  0  0  0  0  0  0  0
    1.0967   20.3559  -29.7648 H   0  0  0  0  0  0  0  0  0  0  0  0
    0.9317   20.3523  -31.5340 H   0  0  0  0  0  0  0  0  0  0  0  0
    0.5602   21.2284  -33.8448 H   0  0  0  0  0  0  0  0  0  0  0  0
   -1.6690   21.9060  -34.4930 H   0  0  0  0  0  0  0  0  0  0  0  0
   -3.9736   22.2655  -34.1825 H   0  0  0  0  0  0  0  0  0  0  0  0
   -5.9579   22.1343  -32.6569 H   0  0  0  0  0  0  0  0  0  0  0  0
   -5.6123   21.2681  -30.3557 H   0  0  0  0  0  0  0  0  0  0  0  0
   -3.3953   20.5451  -29.5685 H   0  0  0  0  0  0  0  0  0  0  0  0
   -4.2911   22.3154  -27.0332 H   0  0  0  0  0  0  0  0  0  0  0  0
   -5.2617   23.8844  -28.6280 H   0  0  0  0  0  0  0  0  0  0  0  0
  1  2  1  0
  2  3  1  0
  3  4  1  0
  4  5  2  0
  5  6  1  0
  6  7  2  0
  7  8  1  0
  8  9  1  0
  9 10  1  0
 10 11  1  0
 11 12  1  0
 12 13  1  0
 13 14  1  0
 14 15  2  0
 15 16  1  0
 16 17  2  0
 17 18  1  0
 18 19  1  0
 19 20  2  0
 20 21  1  0
 21 22  2  0
 22 23  1  0
 23 24  2  0
  7 25  1  0
 25 26  2  0
 26  4  1  0
 24 15  1  0
 24 19  1  0
  1 27  1  0
  1 28  1  0
  1 29  1  0
  2 30  1  0
  2 31  1  0
  5 32  1  0
  6 33  1  0
  8 34  1  0
  8 35  1  0
  9 36  1  0
 10 37  1  0
 10 38  1  0
 11 39  1  0
 11 40  1  0
 12 41  1  0
 12 42  1  0
 13 43  1  0
 13 44  1  0
 16 45  1  0
 17 46  1  0
 18 47  1  0
 20 48  1  0
 21 49  1  0
 22 50  1  0
 23 51  1  0
 25 52  1  0
 26 53  1  0
M  END
>  <smiles>  (9) 
CCOc1ccc(CNCCCCN=c2cc[nH]c3ccccc23)cc1

>  <score_type>  (9) 
oracle

>  <origin>  (9) 
adg

>  <m_score__min__energy>  (9) 
-8.9700000000000006

>  <m_primary>  (9) 
energy

$$$$
11:0
     RDKit          3D

 35 36  0  0  1  0  0  0  0  0999 V2000
   -6.6980   17.8580  -31.2640 C   0  0  0  0  0  0  0  0  0  0  0  0
   -7.1620   19.1180  -31.8000 N   0  0  0  0  0  0  0  0  0  0  0  0
   -7.9680   19.9770  -31.2140 N   0  0  0  0  0  0  0  0  0  0  0  0
   -8.1530   20.9950  -32.0140 N   0  0  0  0  0  0  0  0  0  0  0  0
   -7.4630   20.7850  -33.1110 N   0  0  0  0  0  0  0  0  0  0  0  0
   -6.8240   19.6060  -33.0100 C   0  0  0  0  0  0  0  0  0  0  0  0
   -5.7560   18.8180  -34.1890 S   0  0  0  0  0  0  0  0  0  0  0  0
   -4.0040   19.1430  -33.8490 C   0  0  0  0  0  0  0  0  0  0  0  0
   -3.7630   19.6640  -32.4640 C   0  0  0  0  0  0  0  0  0  0  0  0
   -3.9140   21.1330  -32.3610 C   0  0  0  0  0  0  0  0  0  0  0  0
   -2.9230   21.8350  -32.6910 O   0  0  0  0  0  0  0  0  0  0  0  0
   -5.1450   21.6700  -31.9040 N   0  0  0  0  0  0  0  0  0  0  0  0
   -5.3330   23.1110  -31.7900 C   0  0  0  0  0  0  0  0  0  0  0  0
   -4.5090   23.6620  -30.6460 C   0  0  2  0  0  0  0  0  0  0  0  0
   -5.3830   23.7070  -29.4050 C   0  0  0  0  0  0  0  0  0  0  0  0
   -6.2900   24.8810  -29.7180 C   0  0  0  0  0  0  0  0  0  0  0  0
   -5.4610   25.6740  -30.6930 C   0  0  0  0  0  0  0  0  0  0  0  0
   -4.2500   25.0080  -30.8520 O   0  0  0  0  0  0  0  0  0  0  0  0
   -6.7132   17.8993  -30.1649 H   0  0  0  0  0  0  0  0  0  0  0  0
   -7.3567   17.0477  -31.6097 H   0  0  0  0  0  0  0  0  0  0  0  0
   -5.6711   17.6684  -31.6097 H   0  0  0  0  0  0  0  0  0  0  0  0
   -3.4429   18.2050  -33.9733 H   0  0  0  0  0  0  0  0  0  0  0  0
   -3.6700   19.9178  -34.5548 H   0  0  0  0  0  0  0  0  0  0  0  0
   -4.4833   19.1894  -31.7813 H   0  0  0  0  0  0  0  0  0  0  0  0
   -2.7231   19.4221  -32.1992 H   0  0  0  0  0  0  0  0  0  0  0  0
   -5.9120   20.9930  -31.6530 H   0  0  0  0  0  0  0  0  0  0  0  0
   -5.0190   23.5927  -32.7277 H   0  0  0  0  0  0  0  0  0  0  0  0
   -6.3958   23.3178  -31.5961 H   0  0  0  0  0  0  0  0  0  0  0  0
   -3.6031   23.0438  -30.5614 H   0  0  0  0  0  0  0  0  0  0  0  0
   -5.9571   22.7766  -29.2837 H   0  0  0  0  0  0  0  0  0  0  0  0
   -4.8222   23.8112  -28.4644 H   0  0  0  0  0  0  0  0  0  0  0  0
   -7.2321   24.5458  -30.1762 H   0  0  0  0  0  0  0  0  0  0  0  0
   -6.5930   25.4535  -28.8290 H   0  0  0  0  0  0  0  0  0  0  0  0
   -5.9815   25.7424  -31.6596 H   0  0  0  0  0  0  0  0  0  0  0  0
   -5.2950   26.6951  -30.3191 H   0  0  0  0  0  0  0  0  0  0  0  0
  1  2  1  0
  2  3  1  0
  3  4  2  0
  4  5  1  0
  5  6  2  0
  6  7  1  0
  7  8  1  0
  8  9  1  0
  9 10  1  0
 10 11  2  0
 10 12  1  0
 12 13  1  0
 13 14  1  0
 14 15  1  0
 15 16  1  0
 16 17  1  0
 17 18  1  0
  6  2  1  0
 18 14  1  0
  1 19  1  0
  1 20  1  0
  1 21  1  0
  8 22  1  0
  8 23  1  0
  9 24  1  0
  9 25  1  0
 12 26  1  0
 13 27  1  0
 13 28  1  0
 14 29  1  1
 15 30  1  0
 15 31  1  0
 16 32  1  0
 16 33  1  0
 17 34  1  0
 17 35  1  0
M  END
>  <smiles>  (10) 
Cn1nnnc1SCCC(=O)NCC1CCCO1

>  <score_type>  (10) 
oracle

>  <origin>  (10) 
adg

>  <m_score__min__energy>  (10) 
-7.4000000000000004

>  <m_primary>  (10) 
energy

$$$$
12:0
     RDKit          3D

 46 48  0  0  0  0  0  0  0  0999 V2000
   -4.2210   24.1610  -28.2120 C   0  0  0  0  0  0  0  0  0  0  0  0
   -3.3330   24.5540  -29.3550 C   0  0  0  0  0  0  0  0  0  0  0  0
   -4.0190   24.3670  -30.6430 N   0  0  0  0  0  0  0  0  0  0  0  0
   -5.2030   25.2210  -30.6080 C   0  0  0  0  0  0  0  0  0  0  0  0
   -4.2780   22.9790  -30.7760 C   0  0  0  0  0  0  0  0  0  0  0  0
   -3.6780   22.3450  -31.9870 C   0  0  0  0  0  0  0  0  0  0  0  0
   -4.5660   22.1350  -33.0840 N   0  0  0  0  0  0  0  0  0  0  0  0
   -5.5750   21.1270  -32.8980 C   0  0  0  0  0  0  0  0  0  0  0  0
   -6.8150   21.5490  -32.5040 C   0  0  0  0  0  0  0  0  0  0  0  0
   -7.0430   22.8980  -32.3060 C   0  0  0  0  0  0  0  0  0  0  0  0
   -8.2530   23.3990  -31.9070 C   0  0  0  0  0  0  0  0  0  0  0  0
   -9.2740   22.5140  -31.6980 C   0  0  0  0  0  0  0  0  0  0  0  0
   -9.0470   21.1620  -31.8970 C   0  0  0  0  0  0  0  0  0  0  0  0
   -7.8320   20.6450  -32.3010 C   0  0  0  0  0  0  0  0  0  0  0  0
   -7.6430   19.3080  -32.4840 N   0  0  0  0  0  0  0  0  0  0  0  0
   -8.6890   18.3500  -32.3040 C   0  0  0  0  0  0  0  0  0  0  0  0
   -6.4020   18.8850  -32.8770 C   0  0  0  0  0  0  0  0  0  0  0  0
   -6.1160   17.5490  -33.0590 C   0  0  0  0  0  0  0  0  0  0  0  0
   -7.0380   16.5890  -32.8510 F   0  0  0  0  0  0  0  0  0  0  0  0
   -4.8590   17.1610  -33.4290 C   0  0  0  0  0  0  0  0  0  0  0  0
   -3.8100   18.0370  -33.6420 C   0  0  0  0  0  0  0  0  0  0  0  0
   -4.1020   19.3840  -33.4570 C   0  0  0  0  0  0  0  0  0  0  0  0
   -5.3570   19.7890  -33.0870 C   0  0  0  0  0  0  0  0  0  0  0  0
   -3.7153   24.3848  -27.2611 H   0  0  0  0  0  0  0  0  0  0  0  0
   -5.1630   24.7263  -28.2683 H   0  0  0  0  0  0  0  0  0  0  0  0
   -4.4360   23.0837  -28.2683 H   0  0  0  0  0  0  0  0  0  0  0  0
   -3.0537   25.6124  -29.2463 H   0  0  0  0  0  0  0  0  0  0  0  0
   -2.4372   23.9159  -29.3388 H   0  0  0  0  0  0  0  0  0  0  0  0
   -5.4801   25.4209  -29.5624 H   0  0  0  0  0  0  0  0  0  0  0  0
   -4.9850   26.1711  -31.1176 H   0  0  0  0  0  0  0  0  0  0  0  0
   -6.0358   24.7143  -31.1176 H   0  0  0  0  0  0  0  0  0  0  0  0
   -3.8765   22.4690  -29.8879 H   0  0  0  0  0  0  0  0  0  0  0  0
   -5.3682   22.8752  -30.8792 H   0  0  0  0  0  0  0  0  0  0  0  0
   -2.8588   22.9913  -32.3352 H   0  0  0  0  0  0  0  0  0  0  0  0
   -3.3542   21.3429  -31.6695 H   0  0  0  0  0  0  0  0  0  0  0  0
   -4.5980   22.6160  -33.9970 H   0  0  0  0  0  0  0  0  0  0  0  0
   -6.2144   23.6010  -32.4768 H   0  0  0  0  0  0  0  0  0  0  0  0
   -8.3991   24.4792  -31.7593 H   0  0  0  0  0  0  0  0  0  0  0  0
  -10.2633   22.8711  -31.3759 H   0  0  0  0  0  0  0  0  0  0  0  0
   -9.8787   20.4632  -31.7240 H   0  0  0  0  0  0  0  0  0  0  0  0
   -8.8610   18.1925  -31.2290 H   0  0  0  0  0  0  0  0  0  0  0  0
   -9.6120   18.7226  -32.7723 H   0  0  0  0  0  0  0  0  0  0  0  0
   -8.3988   17.3979  -32.7723 H   0  0  0  0  0  0  0  0  0  0  0  0
   -4.6698   16.0861  -33.5658 H   0  0  0  0  0  0  0  0  0  0  0  0
   -2.8091   17.6904  -33.9387 H   0  0  0  0  0  0  0  0  0  0  0  0
   -3.3133   20.1354  -33.6101 H   0  0  0  0  0  0  0  0  0  0  0  0
  1  2  1  0
  2  3  1  0
  3  4  1  0
  3  5  1  0
  5  6  1  0
  6  7  1  0
  7  8  1  0
  8  9  2  0
  9 10  1  0
 10 11  2  0
 11 12  1  0
 12 13  2  0
 13 14  1  0
 14 15  2  0
 15 16  1  0
 15 17  1  0
 17 18  2  0
 18 19  1  0
 18 20  1  0
 20 21  2  0
 21 22  1  0
 22 23  2  0
 23  8  1  0
 14  9  1  0
 23 17  1  0
  1 24  1  0
  1 25  1  0
  1 26  1  0
  2 27  1  0
  2 28  1  0
  4 29  1  0
  4 30  1  0
  4 31  1  0
  5 32  1  0
  5 33  1  0
  6 34  1  0
  6 35  1  0
  7 36  1  0
 10 37  1  0
 11 38  1  0
 12 39  1  0
 13 40  1  0
 16 41  1  0
 16 42  1  0
 16 43  1  0
 20 44  1  0
 21 45  1  0
 22 46  1  0
M  CHG  1  15   1
M  END
>  <smiles>  (11) 
CCN(C)CCNc1c2ccccc2[n+](C)c2c(F)cccc12

>  <score_type>  (11) 
oracle

>  <origin>  (11) 
adg

>  <m_score__min__energy>  (11) 
-8.1500000000000004

>  <m_primary>  (11) 
energy

$$$$
13:0
     RDKit          3D

 42 44  0  0  0  0  0  0  0  0999 V2000
   -5.3120   21.6430  -32.7260 O   0  0  0  0  0  0  0  0  0  0  0  0
   -5.7570   22.6820  -32.1660 C   0  0  0  0  0  0  0  0  0  0  0  0
   -7.1890   23.1040  -32.3310 C   0  0  0  0  0  0  0  0  0  0  0  0
   -7.9850   22.4770  -31.2370 C   0  0  0  0  0  0  0  0  0  0  0  0
   -9.0190   21.1260  -31.8310 S   0  0  0  0  0  0  0  0  0  0  0  0
   -8.0370   19.7300  -32.3060 C   0  0  0  0  0  0  0  0  0  0  0  0
   -7.9920   18.5350  -31.6310 C   0  0  0  0  0  0  0  0  0  0  0  0
   -7.2000   17.4770  -32.0330 C   0  0  0  0  0  0  0  0  0  0  0  0
   -6.4020   17.5770  -33.1560 C   0  0  0  0  0  0  0  0  0  0  0  0
   -6.4350   18.7790  -33.8510 C   0  0  0  0  0  0  0  0  0  0  0  0
   -7.2380   19.8390  -33.4360 C   0  0  0  0  0  0  0  0  0  0  0  0
   -4.8530   23.4280  -31.3820 N   0  0  0  0  0  0  0  0  0  0  0  0
   -3.4900   23.0070  -31.2390 C   0  0  0  0  0  0  0  0  0  0  0  0
   -3.0040   23.0000  -29.8020 C   0  0  0  0  0  0  0  0  0  0  0  0
   -3.4450   24.2060  -29.0190 C   0  0  0  0  0  0  0  0  0  0  0  0
   -4.8750   24.5900  -29.2300 C   0  0  0  0  0  0  0  0  0  0  0  0
   -5.2640   24.6400  -30.6960 C   0  0  0  0  0  0  0  0  0  0  0  0
   -3.2990   23.9060  -27.6570 O   0  0  0  0  0  0  0  0  0  0  0  0
   -1.9230   23.8150  -27.5260 C   0  0  0  0  0  0  0  0  0  0  0  0
   -1.4620   24.9430  -28.4190 C   0  0  0  0  0  0  0  0  0  0  0  0
   -2.5790   25.2840  -29.1680 O   0  0  0  0  0  0  0  0  0  0  0  0
   -7.2648   24.1995  -32.2667 H   0  0  0  0  0  0  0  0  0  0  0  0
   -7.5704   22.7838  -33.3118 H   0  0  0  0  0  0  0  0  0  0  0  0
   -7.2936   22.0852  -30.4764 H   0  0  0  0  0  0  0  0  0  0  0  0
   -8.6476   23.2488  -30.8183 H   0  0  0  0  0  0  0  0  0  0  0  0
   -8.6135   18.4151  -30.7313 H   0  0  0  0  0  0  0  0  0  0  0  0
   -7.2049   16.5432  -31.4516 H   0  0  0  0  0  0  0  0  0  0  0  0
   -5.7678   16.7408  -33.4856 H   0  0  0  0  0  0  0  0  0  0  0  0
   -5.8125   18.8968  -34.7502 H   0  0  0  0  0  0  0  0  0  0  0  0
   -7.2390   20.7761  -34.0121 H   0  0  0  0  0  0  0  0  0  0  0  0
   -3.3966   21.9880  -31.6426 H   0  0  0  0  0  0  0  0  0  0  0  0
   -2.8694   23.7321  -31.7858 H   0  0  0  0  0  0  0  0  0  0  0  0
   -3.3947   22.0995  -29.3057 H   0  0  0  0  0  0  0  0  0  0  0  0
   -1.9044   23.0138  -29.8299 H   0  0  0  0  0  0  0  0  0  0  0  0
   -5.5147   23.8531  -28.7223 H   0  0  0  0  0  0  0  0  0  0  0  0
   -5.0088   25.6014  -28.8188 H   0  0  0  0  0  0  0  0  0  0  0  0
   -6.3559   24.7464  -30.7756 H   0  0  0  0  0  0  0  0  0  0  0  0
   -4.7596   25.4978  -31.1647 H   0  0  0  0  0  0  0  0  0  0  0  0
   -1.6070   23.9721  -26.4841 H   0  0  0  0  0  0  0  0  0  0  0  0
   -1.5102   22.8316  -27.7952 H   0  0  0  0  0  0  0  0  0  0  0  0
   -1.1232   25.7993  -27.8174 H   0  0  0  0  0  0  0  0  0  0  0  0
   -0.6123   24.6490  -29.0526 H   0  0  0  0  0  0  0  0  0  0  0  0
  1  2  2  0
  2  3  1  0
  3  4  1  0
  4  5  1  0
  5  6  1  0
  6  7  2  0
  7  8  1  0
  8  9  2  0
  9 10  1  0
 10 11  2  0
  2 12  1  0
 12 13  1  0
 13 14  1  0
 14 15  1  0
 15 16  1  0
 16 17  1  0
 15 18  1  0
 18 19  1  0
 19 20  1  0
 20 21  1  0
 11  6  1  0
 17 12  1  0
 21 15  1  0
  3 22  1  0
  3 23  1  0
  4 24  1  0
  4 25  1  0
  7 26  1  0
  8 27  1  0
  9 28  1  0
 10 29  1  0
 11 30  1  0
 13 31  1  0
 13 32  1  0
 14 33  1  0
 14 34  1  0
 16 35  1  0
 16 36  1  0
 17 37  1  0
 17 38  1  0
 19 39  1  0
 19 40  1  0
 20 41  1  0
 20 42  1  0
M  END
>  <smiles>  (12) 
O=C(CCSc1ccccc1)N1CCC2(CC1)OCCO2

>  <score_type>  (12) 
oracle

>  <origin>  (12) 
adg

>  <m_score__min__energy>  (12) 
-8.0899999999999999

>  <m_primary>  (12) 
energy

$$$$
14:0
     RDKit          3D

 31 32  0  0  1  0  0  0  0  0999 V2000
   -9.1220   20.0800  -32.3680 C   0  0  0  0  0  0  0  0  0  0  0  0
   -8.1050   19.3130  -31.5880 C   0  0  0  0  0  0  0  0  0  0  0  0
   -7.0240   18.7770  -32.3230 N   0  0  2  0  0  0  0  0  0  0  0  0
   -6.8550   19.6180  -33.5090 C   0  0  0  0  0  0  0  0  0  0  0  0
   -6.0590   18.9100  -34.5720 C   0  0  0  0  0  0  0  0  0  0  0  0
   -5.2030   17.9530  -33.8770 N   0  0  2  0  0  0  0  0  0  0  0  0
   -4.1230   17.5150  -34.7150 C   0  0  0  0  0  0  0  0  0  0  0  0
   -6.0650   16.8560  -33.4720 C   0  0  0  0  0  0  0  0  0  0  0  0
   -7.3160   17.4360  -32.8360 C   0  0  0  0  0  0  0  0  0  0  0  0
   -4.6810   18.6210  -32.7170 C   0  0  0  0  0  0  0  0  0  0  0  0
   -5.7700   18.6770  -31.6400 C   0  0  0  0  0  0  0  0  0  0  0  0
   -9.8041   20.5944  -31.6750 H   0  0  0  0  0  0  0  0  0  0  0  0
   -8.6147   20.8223  -33.0017 H   0  0  0  0  0  0  0  0  0  0  0  0
   -9.6963   19.3882  -33.0017 H   0  0  0  0  0  0  0  0  0  0  0  0
   -7.6894   19.9878  -30.8252 H   0  0  0  0  0  0  0  0  0  0  0  0
   -8.6425   18.4434  -31.1820 H   0  0  0  0  0  0  0  0  0  0  0  0
   -7.8463   19.8715  -33.9128 H   0  0  0  0  0  0  0  0  0  0  0  0
   -6.3104   20.5275  -33.2152 H   0  0  0  0  0  0  0  0  0  0  0  0
   -6.7325   18.3846  -35.2651 H   0  0  0  0  0  0  0  0  0  0  0  0
   -5.4639   19.6206  -35.1643 H   0  0  0  0  0  0  0  0  0  0  0  0
   -3.2861   17.1756  -34.0870 H   0  0  0  0  0  0  0  0  0  0  0  0
   -4.4652   16.6846  -35.3501 H   0  0  0  0  0  0  0  0  0  0  0  0
   -3.7901   18.3492  -35.3501 H   0  0  0  0  0  0  0  0  0  0  0  0
   -6.3401   16.2559  -34.3519 H   0  0  0  0  0  0  0  0  0  0  0  0
   -5.5406   16.2105  -32.7520 H   0  0  0  0  0  0  0  0  0  0  0  0
   -8.1158   17.4971  -33.5887 H   0  0  0  0  0  0  0  0  0  0  0  0
   -7.6414   16.7887  -32.0083 H   0  0  0  0  0  0  0  0  0  0  0  0
   -3.8111   18.0678  -32.3333 H   0  0  0  0  0  0  0  0  0  0  0  0
   -4.3707   19.6418  -32.9847 H   0  0  0  0  0  0  0  0  0  0  0  0
   -5.7442   17.7634  -31.0279 H   0  0  0  0  0  0  0  0  0  0  0  0
   -5.6171   19.5351  -30.9690 H   0  0  0  0  0  0  0  0  0  0  0  0
  1  2  1  0
  3  2  1  1
  3  4  1  0
  4  5  1  0
  5  6  1  0
  6  7  1  6
  6  8  1  0
  8  9  1  0
  6 10  1  0
 10 11  1  0
  9  3  1  0
 11  3  1  0
  1 12  1  0
  1 13  1  0
  1 14  1  0
  2 15  1  0
  2 16  1  0
  4 17  1  0
  4 18  1  0
  5 19  1  0
  5 20  1  0
  7 21  1  0
  7 22  1  0
  7 23  1  0
  8 24  1  0
  8 25  1  0
  9 26  1  0
  9 27  1  0
 10 28  1  0
 10 29  1  0
 11 30  1  0
 11 31  1  0
M  CHG  2   3   1   6   1
M  END
>  <smiles>  (13) 
CC[N+]12CC[N+](C)(CC1)CC2

>  <score_type>  (13) 
oracle

>  <origin>  (13) 
adg

>  <m_score__min__energy>  (13) 
-3.2200000000000002

>  <m_primary>  (13) 
energy

$$$$
15:0
     RDKit          3D

 53 57  0  0  0  0  0  0  0  0999 V2000
   -2.1310   21.1430  -33.4620 C   0  0  0  0  0  0  0  0  0  0  0  0
   -3.3420   21.0610  -32.9610 C   0  0  0  0  0  0  0  0  0  0  0  0
   -3.5300   20.4580  -31.5010 C   0  0  0  0  0  0  0  0  0  0  0  0
   -3.8290   21.6760  -30.7420 C   0  0  0  0  0  0  0  0  0  0  0  0
   -4.9850   22.4090  -30.8050 C   0  0  0  0  0  0  0  0  0  0  0  0
   -5.0480   23.7080  -30.4080 N   0  0  0  0  0  0  0  0  0  0  0  0
   -3.9420   24.3400  -29.9110 C   0  0  0  0  0  0  0  0  0  0  0  0
   -2.7600   23.6520  -29.8110 C   0  0  0  0  0  0  0  0  0  0  0  0
   -1.6830   24.3280  -29.2780 C   0  0  0  0  0  0  0  0  0  0  0  0
   -1.7680   25.6630  -28.8720 O   0  0  0  0  0  0  0  0  0  0  0  0
   -1.5780   25.9370  -27.5010 C   0  0  0  0  0  0  0  0  0  0  0  0
   -2.5380   25.0860  -26.7040 C   0  0  0  0  0  0  0  0  0  0  0  0
   -0.4700   23.6940  -29.1270 C   0  0  0  0  0  0  0  0  0  0  0  0
    0.6010   24.3900  -28.5910 O   0  0  0  0  0  0  0  0  0  0  0  0
    1.2840   23.9120  -27.4460 C   0  0  0  0  0  0  0  0  0  0  0  0
   -0.3890   22.3800  -29.5260 C   0  0  0  0  0  0  0  0  0  0  0  0
   -1.4840   21.7030  -30.0640 C   0  0  0  0  0  0  0  0  0  0  0  0
   -2.6930   22.3300  -30.2180 C   0  0  0  0  0  0  0  0  0  0  0  0
   -6.2470   24.5050  -30.4250 C   0  0  0  0  0  0  0  0  0  0  0  0
   -7.2670   24.0450  -31.4150 C   0  0  0  0  0  0  0  0  0  0  0  0
   -7.3610   22.5690  -31.4820 C   0  0  0  0  0  0  0  0  0  0  0  0
   -8.5980   22.0260  -31.7380 C   0  0  0  0  0  0  0  0  0  0  0  0
   -8.6520   20.6540  -31.8460 C   0  0  0  0  0  0  0  0  0  0  0  0
   -7.5580   19.8500  -31.7080 C   0  0  0  0  0  0  0  0  0  0  0  0
   -6.3250   20.4780  -31.4420 C   0  0  0  0  0  0  0  0  0  0  0  0
   -6.2050   21.8450  -31.3290 C   0  0  0  0  0  0  0  0  0  0  0  0
   -7.9330   18.5200  -31.8720 O   0  0  0  0  0  0  0  0  0  0  0  0
   -9.2790   18.5540  -32.3450 C   0  0  0  0  0  0  0  0  0  0  0  0
   -9.7430   19.8480  -32.1000 O   0  0  0  0  0  0  0  0  0  0  0  0
   -1.9796   21.5569  -34.4699 H   0  0  0  0  0  0  0  0  0  0  0  0
   -1.2679   20.7978  -32.8738 H   0  0  0  0  0  0  0  0  0  0  0  0
   -4.2117   21.4035  -33.5410 H   0  0  0  0  0  0  0  0  0  0  0  0
   -4.3635   19.7412  -31.4625 H   0  0  0  0  0  0  0  0  0  0  0  0
   -2.6672   19.8869  -31.1276 H   0  0  0  0  0  0  0  0  0  0  0  0
   -3.9999   25.3917  -29.5940 H   0  0  0  0  0  0  0  0  0  0  0  0
   -0.5435   25.6966  -27.2146 H   0  0  0  0  0  0  0  0  0  0  0  0
   -1.7637   27.0025  -27.3006 H   0  0  0  0  0  0  0  0  0  0  0  0
   -2.3615   25.2424  -25.6296 H   0  0  0  0  0  0  0  0  0  0  0  0
   -3.5716   25.3700  -26.9510 H   0  0  0  0  0  0  0  0  0  0  0  0
   -2.3801   24.0258  -26.9510 H   0  0  0  0  0  0  0  0  0  0  0  0
    0.7739   24.2690  -26.5392 H   0  0  0  0  0  0  0  0  0  0  0  0
    1.2893   22.8120  -27.4548 H   0  0  0  0  0  0  0  0  0  0  0  0
    2.3192   24.2837  -27.4548 H   0  0  0  0  0  0  0  0  0  0  0  0
    0.5673   21.8473  -29.4177 H   0  0  0  0  0  0  0  0  0  0  0  0
   -1.3755   20.6516  -30.3687 H   0  0  0  0  0  0  0  0  0  0  0  0
   -6.6985   24.4725  -29.4224 H   0  0  0  0  0  0  0  0  0  0  0  0
   -5.9499   25.5215  -30.7223 H   0  0  0  0  0  0  0  0  0  0  0  0
   -8.2483   24.4489  -31.1252 H   0  0  0  0  0  0  0  0  0  0  0  0
   -6.9597   24.4075  -32.4071 H   0  0  0  0  0  0  0  0  0  0  0  0
   -9.4950   22.6528  -31.8503 H   0  0  0  0  0  0  0  0  0  0  0  0
   -5.4270   19.8544  -31.3204 H   0  0  0  0  0  0  0  0  0  0  0  0
   -9.3107   18.3347  -33.4225 H   0  0  0  0  0  0  0  0  0  0  0  0
   -9.9018   17.8013  -31.8394 H   0  0  0  0  0  0  0  0  0  0  0  0
  1  2  2  0
  2  3  1  0
  3  4  1  0
  4  5  2  0
  5  6  1  0
  6  7  2  0
  7  8  1  0
  8  9  2  0
  9 10  1  0
 10 11  1  0
 11 12  1  0
  9 13  1  0
 13 14  1  0
 14 15  1  0
 13 16  2  0
 16 17  1  0
 17 18  2  0
  6 19  1  0
 19 20  1  0
 20 21  1  0
 21 22  2  0
 22 23  1  0
 23 24  2  0
 24 25  1  0
 25 26  2  0
 24 27  1  0
 27 28  1  0
 28 29  1  0
 18  4  1  0
 26 21  1  0
 26  5  1  0
 18  8  1  0
 29 23  1  0
  1 30  1  0
  1 31  1  0
  2 32  1  0
  3 33  1  0
  3 34  1  0
  7 35  1  0
 11 36  1  0
 11 37  1  0
 12 38  1  0
 12 39  1  0
 12 40  1  0
 15 41  1  0
 15 42  1  0
 15 43  1  0
 16 44  1  0
 17 45  1  0
 19 46  1  0
 19 47  1  0
 20 48  1  0
 20 49  1  0
 22 50  1  0
 25 51  1  0
 28 52  1  0
 28 53  1  0
M  CHG  1   6   1
M  END
>  <smiles>  (14) 
C=CCc1c2[n+](cc3c(OCC)c(OC)ccc13)CCc1cc3c(cc1-2)OCO3

>  <score_type>  (14) 
oracle

>  <origin>  (14) 
adg

>  <m_score__min__energy>  (14) 
-8.0399999999999991

>  <m_primary>  (14) 
energy

$$$$
16:0
     RDKit          3D

 81 84  0  0  0  0  0  0  0  0999 V2000
   -1.9780   19.3130  -27.0030 C   0  0  0  0  0  0  0  0  0  0  0  0
   -2.7700   20.2990  -27.8750 C   0  0  0  0  0  0  0  0  0  0  0  0
   -2.1100   20.5830  -29.0350 O   0  0  0  0  0  0  0  0  0  0  0  0
   -0.8330   20.0750  -29.1700 C   0  0  0  0  0  0  0  0  0  0  0  0
   -0.4540   19.9980  -30.6080 C   0  0  0  0  0  0  0  0  0  0  0  0
   -0.4930   21.2260  -31.2570 O   0  0  0  0  0  0  0  0  0  0  0  0
   -0.9380   21.2070  -32.5450 C   0  0  0  0  0  0  0  0  0  0  0  0
   -2.3890   21.4990  -32.7550 C   0  0  0  0  0  0  0  0  0  0  0  0
   -3.1300   21.7230  -31.5120 N   0  0  0  0  0  0  0  0  0  0  0  0
   -4.5490   21.8500  -31.5410 C   0  0  0  0  0  0  0  0  0  0  0  0
   -5.3740   20.8860  -32.1020 C   0  0  0  0  0  0  0  0  0  0  0  0
   -4.7960   19.7570  -32.6380 C   0  0  0  0  0  0  0  0  0  0  0  0
   -5.5060   18.7330  -33.2190 C   0  0  0  0  0  0  0  0  0  0  0  0
   -6.8780   18.8670  -33.2560 C   0  0  0  0  0  0  0  0  0  0  0  0
   -7.4830   20.0000  -32.7200 C   0  0  0  0  0  0  0  0  0  0  0  0
   -6.7460   21.0060  -32.1470 C   0  0  0  0  0  0  0  0  0  0  0  0
   -7.3550   22.0840  -31.6360 N   0  0  0  0  0  0  0  0  0  0  0  0
   -8.7750   22.2900  -31.6330 C   0  0  0  0  0  0  0  0  0  0  0  0
   -6.5980   23.0650  -31.0710 C   0  0  0  0  0  0  0  0  0  0  0  0
   -7.2300   24.1870  -30.5330 C   0  0  0  0  0  0  0  0  0  0  0  0
   -6.5140   25.2140  -29.9380 C   0  0  0  0  0  0  0  0  0  0  0  0
   -5.1510   25.0780  -29.9020 C   0  0  0  0  0  0  0  0  0  0  0  0
   -4.4750   23.9860  -30.4220 C   0  0  0  0  0  0  0  0  0  0  0  0
   -3.0770   23.9310  -30.3380 O   0  0  0  0  0  0  0  0  0  0  0  0
   -2.5260   23.5050  -29.1020 C   0  0  0  0  0  0  0  0  0  0  0  0
   -1.2720   24.2440  -28.7190 C   0  0  0  0  0  0  0  0  0  0  0  0
   -1.1850   24.3760  -27.2540 N   0  0  0  0  0  0  0  0  0  0  0  0
   -1.3800   23.0630  -26.6370 C   0  0  0  0  0  0  0  0  0  0  0  0
   -2.2240   25.2430  -26.7600 C   0  0  0  0  0  0  0  0  0  0  0  0
   -1.9840   25.6720  -25.3410 C   0  0  0  0  0  0  0  0  0  0  0  0
   -0.7110   26.3270  -25.1470 N   0  0  0  0  0  0  0  0  0  0  0  0
   -0.9150   27.7090  -24.7100 C   0  0  0  0  0  0  0  0  0  0  0  0
    0.0460   25.6560  -24.0870 C   0  0  0  0  0  0  0  0  0  0  0  0
    0.0140   26.3210  -26.3840 C   0  0  0  0  0  0  0  0  0  0  0  0
    0.1050   24.9400  -26.9790 C   0  0  0  0  0  0  0  0  0  0  0  0
   -5.2080   22.9620  -31.0170 C   0  0  0  0  0  0  0  0  0  0  0  0
   -2.1576   19.5366  -25.9411 H   0  0  0  0  0  0  0  0  0  0  0  0
   -2.3049   18.2857  -27.2218 H   0  0  0  0  0  0  0  0  0  0  0  0
   -0.9044   19.4106  -27.2218 H   0  0  0  0  0  0  0  0  0  0  0  0
   -3.7467   19.8555  -28.1189 H   0  0  0  0  0  0  0  0  0  0  0  0
   -2.8946   21.2351  -27.3110 H   0  0  0  0  0  0  0  0  0  0  0  0
   -0.1244   20.7310  -28.6431 H   0  0  0  0  0  0  0  0  0  0  0  0
   -0.8041   19.0634  -28.7388 H   0  0  0  0  0  0  0  0  0  0  0  0
    0.5689   19.5994  -30.6778 H   0  0  0  0  0  0  0  0  0  0  0  0
   -1.1896   19.3466  -31.1025 H   0  0  0  0  0  0  0  0  0  0  0  0
   -0.3617   21.9556  -33.1085 H   0  0  0  0  0  0  0  0  0  0  0  0
   -0.7980   20.1705  -32.8855 H   0  0  0  0  0  0  0  0  0  0  0  0
   -2.4751   22.4014  -33.3781 H   0  0  0  0  0  0  0  0  0  0  0  0
   -2.8289   20.6132  -33.2365 H   0  0  0  0  0  0  0  0  0  0  0  0
   -2.5770   21.7830  -30.6160 H   0  0  0  0  0  0  0  0  0  0  0  0
   -3.7002   19.6691  -32.5990 H   0  0  0  0  0  0  0  0  0  0  0  0
   -5.0029   17.8477  -33.6351 H   0  0  0  0  0  0  0  0  0  0  0  0
   -7.4950   18.0774  -33.7097 H   0  0  0  0  0  0  0  0  0  0  0  0
   -8.5786   20.0914  -32.7565 H   0  0  0  0  0  0  0  0  0  0  0  0
   -9.1357   22.3423  -30.5951 H   0  0  0  0  0  0  0  0  0  0  0  0
   -9.0100   23.2316  -32.1508 H   0  0  0  0  0  0  0  0  0  0  0  0
   -9.2679   21.4540  -32.1508 H   0  0  0  0  0  0  0  0  0  0  0  0
   -8.3266   24.2583  -30.5825 H   0  0  0  0  0  0  0  0  0  0  0  0
   -7.0162   26.0964  -29.5148 H   0  0  0  0  0  0  0  0  0  0  0  0
   -4.5609   25.8800  -29.4345 H   0  0  0  0  0  0  0  0  0  0  0  0
   -3.2770   23.6609  -28.3135 H   0  0  0  0  0  0  0  0  0  0  0  0
   -2.2557   22.4448  -29.2157 H   0  0  0  0  0  0  0  0  0  0  0  0
   -0.3966   23.6883  -29.0861 H   0  0  0  0  0  0  0  0  0  0  0  0
   -1.2961   25.2477  -29.1685 H   0  0  0  0  0  0  0  0  0  0  0  0
   -1.3646   23.1665  -25.5420 H   0  0  0  0  0  0  0  0  0  0  0  0
   -2.3494   22.6498  -26.9527 H   0  0  0  0  0  0  0  0  0  0  0  0
   -0.5726   22.3860  -26.9527 H   0  0  0  0  0  0  0  0  0  0  0  0
   -2.2696   26.1386  -27.3971 H   0  0  0  0  0  0  0  0  0  0  0  0
   -3.1698   24.6820  -26.7857 H   0  0  0  0  0  0  0  0  0  0  0  0
   -2.7829   26.3688  -25.0476 H   0  0  0  0  0  0  0  0  0  0  0  0
   -1.9783   24.7619  -24.7232 H   0  0  0  0  0  0  0  0  0  0  0  0
   -0.9209   27.7489  -23.6107 H   0  0  0  0  0  0  0  0  0  0  0  0
   -0.1002   28.3395  -25.0954 H   0  0  0  0  0  0  0  0  0  0  0  0
   -1.8772   28.0772  -25.0954 H   0  0  0  0  0  0  0  0  0  0  0  0
   -0.3260   25.9858  -23.1057 H   0  0  0  0  0  0  0  0  0  0  0  0
   -0.0796   24.5671  -24.1797 H   0  0  0  0  0  0  0  0  0  0  0  0
    1.1119   25.9114  -24.1797 H   0  0  0  0  0  0  0  0  0  0  0  0
   -0.4977   26.9824  -27.0986 H   0  0  0  0  0  0  0  0  0  0  0  0
    1.0367   26.6706  -26.1797 H   0  0  0  0  0  0  0  0  0  0  0  0
    0.6730   24.9974  -27.9193 H   0  0  0  0  0  0  0  0  0  0  0  0
    0.6047   24.2911  -26.2446 H   0  0  0  0  0  0  0  0  0  0  0  0
  1  2  1  0
  2  3  1  0
  3  4  1  0
  4  5  1  0
  5  6  1  0
  6  7  1  0
  7  8  1  0
  8  9  1  0
  9 10  1  0
 10 11  2  0
 11 12  1  0
 12 13  2  0
 13 14  1  0
 14 15  2  0
 15 16  1  0
 16 17  2  0
 17 18  1  0
 17 19  1  0
 19 20  2  0
 20 21  1  0
 21 22  2  0
 22 23  1  0
 23 24  1  0
 24 25  1  0
 25 26  1  0
 26 27  1  0
 27 28  1  0
 27 29  1  0
 29 30  1  0
 30 31  1  0
 31 32  1  0
 31 33  1  0
 31 34  1  0
 34 35  1  0
 23 36  2  0
 36 10  1  0
 16 11  1  0
 36 19  1  0
 35 27  1  0
  1 37  1  0
  1 38  1  0
  1 39  1  0
  2 40  1  0
  2 41  1  0
  4 42  1  0
  4 43  1  0
  5 44  1  0
  5 45  1  0
  7 46  1  0
  7 47  1  0
  8 48  1  0
  8 49  1  0
  9 50  1  0
 12 51  1  0
 13 52  1  0
 14 53  1  0
 15 54  1  0
 18 55  1  0
 18 56  1  0
 18 57  1  0
 20 58  1  0
 21 59  1  0
 22 60  1  0
 25 61  1  0
 25 62  1  0
 26 63  1  0
 26 64  1  0
 28 65  1  0
 28 66  1  0
 28 67  1  0
 29 68  1  0
 29 69  1  0
 30 70  1  0
 30 71  1  0
 32 72  1  0
 32 73  1  0
 32 74  1  0
 33 75  1  0
 33 76  1  0
 33 77  1  0
 34 78  1  0
 34 79  1  0
 35 80  1  0
 35 81  1  0
M  CHG  3  17   1  27   1  31   1
M  END
>  <smiles>  (15) 
CCOCCOCCNc1c2ccccc2[n+](C)c2cccc(OCC[N+]3(C)CC[N+](C)(C)CC3)c12

>  <score_type>  (15) 
oracle

>  <origin>  (15) 
adg

>  <m_score__min__energy>  (15) 
-8.1999999999999993

>  <m_primary>  (15) 
energy

$$$$
17:0
     RDKit          3D

 46 48  0  0  0  0  0  0  0  0999 V2000
   -4.4650   23.4790  -28.7710 C   0  0  0  0  0  0  0  0  0  0  0  0
   -3.5620   24.4520  -29.5160 C   0  0  0  0  0  0  0  0  0  0  0  0
   -3.1230   23.8320  -30.7680 N   0  0  0  0  0  0  0  0  0  0  0  0
   -3.6610   22.4900  -30.8850 C   0  0  0  0  0  0  0  0  0  0  0  0
   -4.3760   22.3070  -32.2230 C   0  0  0  0  0  0  0  0  0  0  0  0
   -5.7790   22.6040  -32.0050 N   0  0  0  0  0  0  0  0  0  0  0  0
   -6.2410   23.8420  -31.7210 C   0  0  0  0  0  0  0  0  0  0  0  0
   -5.5390   24.8880  -31.6080 O   0  0  0  0  0  0  0  0  0  0  0  0
   -7.5480   23.7430  -31.5870 O   0  0  0  0  0  0  0  0  0  0  0  0
   -7.9580   22.5280  -31.7650 C   0  0  0  0  0  0  0  0  0  0  0  0
   -9.1630   21.8780  -31.7470 C   0  0  0  0  0  0  0  0  0  0  0  0
   -9.2350   20.5030  -31.9940 C   0  0  0  0  0  0  0  0  0  0  0  0
   -8.1430   19.7370  -32.2640 C   0  0  0  0  0  0  0  0  0  0  0  0
   -8.0870   18.4070  -32.5230 O   0  0  0  0  0  0  0  0  0  0  0  0
   -6.9330   17.6430  -32.5300 C   0  0  0  0  0  0  0  0  0  0  0  0
   -6.5080   17.0850  -33.8470 C   0  0  0  0  0  0  0  0  0  0  0  0
   -5.8200   18.1830  -34.6350 C   0  0  0  0  0  0  0  0  0  0  0  0
   -4.4470   18.3670  -34.2250 N   0  0  0  0  0  0  0  0  0  0  0  0
   -3.4280   17.5180  -34.4350 C   0  0  0  0  0  0  0  0  0  0  0  0
   -2.3120   18.0850  -33.8820 C   0  0  0  0  0  0  0  0  0  0  0  0
   -2.6520   19.2550  -33.3480 N   0  0  0  0  0  0  0  0  0  0  0  0
   -3.9640   19.4330  -33.5560 C   0  0  0  0  0  0  0  0  0  0  0  0
   -6.9090   20.4220  -32.2790 C   0  0  0  0  0  0  0  0  0  0  0  0
   -6.8340   21.7750  -32.0360 C   0  0  0  0  0  0  0  0  0  0  0  0
   -4.3372   23.6167  -27.6872 H   0  0  0  0  0  0  0  0  0  0  0  0
   -5.5135   23.6696  -29.0437 H   0  0  0  0  0  0  0  0  0  0  0  0
   -4.1968   22.4476  -29.0437 H   0  0  0  0  0  0  0  0  0  0  0  0
   -4.1175   25.3754  -29.7367 H   0  0  0  0  0  0  0  0  0  0  0  0
   -2.6871   24.6964  -28.8956 H   0  0  0  0  0  0  0  0  0  0  0  0
   -3.4440   24.3760  -31.5810 H   0  0  0  0  0  0  0  0  0  0  0  0
   -2.8378   21.7639  -30.8137 H   0  0  0  0  0  0  0  0  0  0  0  0
   -4.3853   22.3284  -30.0731 H   0  0  0  0  0  0  0  0  0  0  0  0
   -3.9570   22.9958  -32.9713 H   0  0  0  0  0  0  0  0  0  0  0  0
   -4.2481   21.2802  -32.5963 H   0  0  0  0  0  0  0  0  0  0  0  0
  -10.0833   22.4425  -31.5363 H   0  0  0  0  0  0  0  0  0  0  0  0
  -10.2218   20.0175  -31.9688 H   0  0  0  0  0  0  0  0  0  0  0  0
   -6.1134   18.2734  -32.1547 H   0  0  0  0  0  0  0  0  0  0  0  0
   -7.1616   16.7674  -31.9047 H   0  0  0  0  0  0  0  0  0  0  0  0
   -5.8106   16.2493  -33.6883 H   0  0  0  0  0  0  0  0  0  0  0  0
   -7.3840   16.7159  -34.4005 H   0  0  0  0  0  0  0  0  0  0  0  0
   -5.8391   17.9188  -35.7026 H   0  0  0  0  0  0  0  0  0  0  0  0
   -6.3587   19.1235  -34.4471 H   0  0  0  0  0  0  0  0  0  0  0  0
   -3.4804   16.5494  -34.9537 H   0  0  0  0  0  0  0  0  0  0  0  0
   -1.3031   17.6468  -33.8795 H   0  0  0  0  0  0  0  0  0  0  0  0
   -4.5506   20.3059  -33.2336 H   0  0  0  0  0  0  0  0  0  0  0  0
   -5.9860   19.8619  -32.4897 H   0  0  0  0  0  0  0  0  0  0  0  0
  1  2  1  0
  2  3  1  0
  3  4  1  0
  4  5  1  0
  5  6  1  0
  6  7  1  0
  7  8  2  0
  7  9  1  0
  9 10  1  0
 10 11  2  0
 11 12  1  0
 12 13  2  0
 13 14  1  0
 14 15  1  0
 15 16  1  0
 16 17  1  0
 17 18  1  0
 18 19  1  0
 19 20  2  0
 20 21  1  0
 21 22  2  0
 13 23  1  0
 23 24  2  0
 24  6  1  0
 24 10  1  0
 22 18  1  0
  1 25  1  0
  1 26  1  0
  1 27  1  0
  2 28  1  0
  2 29  1  0
  3 30  1  0
  4 31  1  0
  4 32  1  0
  5 33  1  0
  5 34  1  0
 11 35  1  0
 12 36  1  0
 15 37  1  0
 15 38  1  0
 16 39  1  0
 16 40  1  0
 17 41  1  0
 17 42  1  0
 19 43  1  0
 20 44  1  0
 22 45  1  0
 23 46  1  0
M  END
>  <smiles>  (16) 
CCNCCn1c(=O)oc2ccc(OCCCn3ccnc3)cc21

>  <score_type>  (16) 
oracle

>  <origin>  (16) 
adg

>  <m_score__min__energy>  (16) 
-6.9900000000000002

>  <m_primary>  (16) 
energy

$$$$
18:0
     RDKit          3D

 55 57  0  0  0  0  0  0  0  0999 V2000
   -3.8920   21.8480  -33.0190 C   0  0  0  0  0  0  0  0  0  0  0  0
   -3.4380   20.9020  -31.9310 C   0  0  0  0  0  0  0  0  0  0  0  0
   -2.6810   19.9110  -32.4060 O   0  0  0  0  0  0  0  0  0  0  0  0
   -1.7800   20.0290  -33.3920 C   0  0  0  0  0  0  0  0  0  0  0  0
   -1.4530   18.7030  -34.0250 C   0  0  0  0  0  0  0  0  0  0  0  0
   -2.3110   17.6820  -33.5630 N   0  0  0  0  0  0  0  0  0  0  0  0
   -3.3600   17.2920  -34.4830 C   0  0  0  0  0  0  0  0  0  0  0  0
   -4.6600   17.6960  -33.8240 C   0  0  0  0  0  0  0  0  0  0  0  0
   -5.2380   16.7300  -33.0000 C   0  0  0  0  0  0  0  0  0  0  0  0
   -6.4290   16.9940  -32.3530 C   0  0  0  0  0  0  0  0  0  0  0  0
   -7.0120   18.2320  -32.5520 C   0  0  0  0  0  0  0  0  0  0  0  0
   -6.4320   19.1750  -33.3660 C   0  0  0  0  0  0  0  0  0  0  0  0
   -5.2290   18.9300  -34.0320 C   0  0  0  0  0  0  0  0  0  0  0  0
   -7.2410   20.4200  -33.4160 C   0  0  0  0  0  0  0  0  0  0  0  0
   -8.3760   20.1530  -32.5700 N   0  0  0  0  0  0  0  0  0  0  0  0
   -9.4980   20.9870  -32.2130 C   0  0  0  0  0  0  0  0  0  0  0  0
   -9.3230   21.8140  -30.9890 C   0  0  0  0  0  0  0  0  0  0  0  0
   -8.0220   22.5050  -30.9760 C   0  0  0  0  0  0  0  0  0  0  0  0
   -7.2340   22.4130  -29.8290 C   0  0  0  0  0  0  0  0  0  0  0  0
   -6.0070   23.0860  -29.7990 C   0  0  0  0  0  0  0  0  0  0  0  0
   -5.5750   23.8330  -30.8860 C   0  0  0  0  0  0  0  0  0  0  0  0
   -4.3620   24.5060  -30.8690 O   0  0  0  0  0  0  0  0  0  0  0  0
   -3.3700   24.0930  -29.9450 C   0  0  0  0  0  0  0  0  0  0  0  0
   -6.3770   23.9160  -32.0300 C   0  0  0  0  0  0  0  0  0  0  0  0
   -7.5890   23.2500  -32.0570 C   0  0  0  0  0  0  0  0  0  0  0  0
   -8.2390   18.8180  -32.0330 C   0  0  0  0  0  0  0  0  0  0  0  0
   -9.0350   18.2300  -31.2440 O   0  0  0  0  0  0  0  0  0  0  0  0
   -4.3251   22.7505  -32.5630 H   0  0  0  0  0  0  0  0  0  0  0  0
   -3.0309   22.1296  -33.6429 H   0  0  0  0  0  0  0  0  0  0  0  0
   -4.6504   21.3524  -33.6429 H   0  0  0  0  0  0  0  0  0  0  0  0
   -2.8551   21.4686  -31.1899 H   0  0  0  0  0  0  0  0  0  0  0  0
   -4.3348   20.4537  -31.4785 H   0  0  0  0  0  0  0  0  0  0  0  0
   -2.1854   20.6997  -34.1639 H   0  0  0  0  0  0  0  0  0  0  0  0
   -0.8540   20.4330  -32.9568 H   0  0  0  0  0  0  0  0  0  0  0  0
   -1.5593   18.7923  -35.1162 H   0  0  0  0  0  0  0  0  0  0  0  0
   -0.4215   18.4359  -33.7518 H   0  0  0  0  0  0  0  0  0  0  0  0
   -2.6280   17.7260  -32.5890 H   0  0  0  0  0  0  0  0  0  0  0  0
   -3.2397   17.8137  -35.4439 H   0  0  0  0  0  0  0  0  0  0  0  0
   -3.3321   16.2127  -34.6936 H   0  0  0  0  0  0  0  0  0  0  0  0
   -4.7441   15.7563  -32.8655 H   0  0  0  0  0  0  0  0  0  0  0  0
   -6.8989   16.2436  -31.7003 H   0  0  0  0  0  0  0  0  0  0  0  0
   -4.7632   19.6819  -34.6860 H   0  0  0  0  0  0  0  0  0  0  0  0
   -6.6633   21.2737  -33.0320 H   0  0  0  0  0  0  0  0  0  0  0  0
   -7.5391   20.6816  -34.4420 H   0  0  0  0  0  0  0  0  0  0  0  0
   -9.6952   21.6669  -33.0550 H   0  0  0  0  0  0  0  0  0  0  0  0
  -10.3264   20.2974  -31.9932 H   0  0  0  0  0  0  0  0  0  0  0  0
  -10.1254   22.5653  -30.9494 H   0  0  0  0  0  0  0  0  0  0  0  0
   -9.3634   21.1454  -30.1164 H   0  0  0  0  0  0  0  0  0  0  0  0
   -7.5704   21.8226  -28.9640 H   0  0  0  0  0  0  0  0  0  0  0  0
   -5.3757   23.0219  -28.9005 H   0  0  0  0  0  0  0  0  0  0  0  0
   -3.7376   24.2460  -28.9196 H   0  0  0  0  0  0  0  0  0  0  0  0
   -3.1464   23.0270  -30.0991 H   0  0  0  0  0  0  0  0  0  0  0  0
   -2.4560   24.6854  -30.0991 H   0  0  0  0  0  0  0  0  0  0  0  0
   -6.0469   24.5047  -32.8986 H   0  0  0  0  0  0  0  0  0  0  0  0
   -8.2202   23.3144  -32.9556 H   0  0  0  0  0  0  0  0  0  0  0  0
  1  2  1  0
  2  3  1  0
  3  4  1  0
  4  5  1  0
  5  6  1  0
  6  7  1  0
  7  8  1  0
  8  9  2  0
  9 10  1  0
 10 11  2  0
 11 12  1  0
 12 13  2  0
 12 14  1  0
 14 15  1  0
 15 16  1  0
 16 17  1  0
 17 18  1  0
 18 19  2  0
 19 20  1  0
 20 21  2  0
 21 22  1  0
 22 23  1  0
 21 24  1  0
 24 25  2  0
 15 26  1  0
 26 27  2  0
 13  8  1  0
 25 18  1  0
 26 11  1  0
  1 28  1  0
  1 29  1  0
  1 30  1  0
  2 31  1  0
  2 32  1  0
  4 33  1  0
  4 34  1  0
  5 35  1  0
  5 36  1  0
  6 37  1  0
  7 38  1  0
  7 39  1  0
  9 40  1  0
 10 41  1  0
 13 42  1  0
 14 43  1  0
 14 44  1  0
 16 45  1  0
 16 46  1  0
 17 47  1  0
 17 48  1  0
 19 49  1  0
 20 50  1  0
 23 51  1  0
 23 52  1  0
 23 53  1  0
 24 54  1  0
 25 55  1  0
M  END
>  <smiles>  (17) 
CCOCCNCc1ccc2c(c1)CN(CCc1ccc(OC)cc1)C2=O

>  <score_type>  (17) 
oracle

>  <origin>  (17) 
adg

>  <m_score__min__energy>  (17) 
-8.1500000000000004

>  <m_primary>  (17) 
energy

$$$$
