0:0
     RDKit          3D

 43 44  0  0  0  0  0  0  0  0999 V2000
    0.1160   23.7660  -28.9620 C   0  0  0  0  0  0  0  0  0  0  0  0
   -0.8440   24.8170  -28.9550 O   0  0  0  0  0  0  0  0  0  0  0  0
   -1.9610   24.8720  -28.1040 C   0  0  0  0  0  0  0  0  0  0  0  0
   -1.8750   25.3900  -26.7960 C   0  0  0  0  0  0  0  0  0  0  0  0
   -2.9980   25.4110  -25.9670 C   0  0  0  0  0  0  0  0  0  0  0  0
   -4.2180   24.9200  -26.4300 C   0  0  0  0  0  0  0  0  0  0  0  0
   -4.3210   24.4090  -27.7260 C   0  0  0  0  0  0  0  0  0  0  0  0
   -3.2030   24.3940  -28.5750 C   0  0  0  0  0  0  0  0  0  0  0  0
   -3.3260   23.8120  -29.9560 C   0  0  0  0  0  0  0  0  0  0  0  0
   -3.9670   24.7840  -30.8330 N   0  0  0  0  0  0  0  0  0  0  0  0
   -5.2690   25.3440  -30.6260 C   0  0  0  0  0  0  0  0  0  0  0  0
   -5.3630   26.5630  -30.3270 O   0  0  0  0  0  0  0  0  0  0  0  0
   -6.5280   24.5280  -30.7490 C   0  0  0  0  0  0  0  0  0  0  0  0
   -6.2340   23.2330  -31.3600 N   0  0  0  0  0  0  0  0  0  0  0  0
   -7.2620   22.3780  -31.8840 C   0  0  0  0  0  0  0  0  0  0  0  0
   -8.4490   22.7990  -31.9620 O   0  0  0  0  0  0  0  0  0  0  0  0
   -6.9390   21.0230  -32.3810 C   0  0  0  0  0  0  0  0  0  0  0  0
   -7.8910   19.9990  -32.2430 C   0  0  0  0  0  0  0  0  0  0  0  0
   -7.6270   18.7140  -32.7230 C   0  0  0  0  0  0  0  0  0  0  0  0
   -6.4060   18.4350  -33.3320 C   0  0  0  0  0  0  0  0  0  0  0  0
   -5.4400   19.4350  -33.4580 C   0  0  0  0  0  0  0  0  0  0  0  0
   -5.6890   20.7350  -32.9740 C   0  0  0  0  0  0  0  0  0  0  0  0
   -4.7130   21.7440  -33.0420 O   0  0  0  0  0  0  0  0  0  0  0  0
   -3.3360   21.5600  -32.7360 C   0  0  0  0  0  0  0  0  0  0  0  0
    0.3667   23.4915  -27.9267 H   0  0  0  0  0  0  0  0  0  0  0  0
   -0.3016   22.8914  -29.4823 H   0  0  0  0  0  0  0  0  0  0  0  0
    1.0247   24.1029  -29.4823 H   0  0  0  0  0  0  0  0  0  0  0  0
   -0.9157   25.7807  -26.4256 H   0  0  0  0  0  0  0  0  0  0  0  0
   -2.9202   25.8155  -24.9470 H   0  0  0  0  0  0  0  0  0  0  0  0
   -5.1007   24.9350  -25.7738 H   0  0  0  0  0  0  0  0  0  0  0  0
   -5.2841   24.0159  -28.0836 H   0  0  0  0  0  0  0  0  0  0  0  0
   -2.3252   23.5711  -30.3437 H   0  0  0  0  0  0  0  0  0  0  0  0
   -3.9322   22.8950  -29.9168 H   0  0  0  0  0  0  0  0  0  0  0  0
   -6.9566   24.3686  -29.7485 H   0  0  0  0  0  0  0  0  0  0  0  0
   -7.2452   25.0691  -31.3836 H   0  0  0  0  0  0  0  0  0  0  0  0
   -5.2320   22.9510  -31.4580 H   0  0  0  0  0  0  0  0  0  0  0  0
   -8.8526   20.2110  -31.7527 H   0  0  0  0  0  0  0  0  0  0  0  0
   -8.3837   17.9223  -32.6199 H   0  0  0  0  0  0  0  0  0  0  0  0
   -6.2022   17.4241  -33.7147 H   0  0  0  0  0  0  0  0  0  0  0  0
   -4.4773   19.2066  -33.9386 H   0  0  0  0  0  0  0  0  0  0  0  0
   -3.2022   21.5421  -31.6443 H   0  0  0  0  0  0  0  0  0  0  0  0
   -2.9895   20.6076  -33.1635 H   0  0  0  0  0  0  0  0  0  0  0  0
   -2.7516   22.3880  -33.1635 H   0  0  0  0  0  0  0  0  0  0  0  0
  1  2  1  0
  2  3  1  0
  3  4  2  0
  4  5  1  0
  5  6  2  0
  6  7  1  0
  7  8  2  0
  8  9  1  0
  9 10  1  0
 10 11  1  0
 11 12  2  0
 11 13  1  0
 13 14  1  0
 14 15  1  0
 15 16  2  0
 15 17  1  0
 17 18  2  0
 18 19  1  0
 19 20  2  0
 20 21  1  0
 21 22  2  0
 22 23  1  0
 23 24  1  0
  8  3  1  0
 22 17  1  0
  1 25  1  0
  1 26  1  0
  1 27  1  0
  4 28  1  0
  5 29  1  0
  6 30  1  0
  7 31  1  0
  9 32  1  0
  9 33  1  0
 13 34  1  0
 13 35  1  0
 14 36  1  0
 18 37  1  0
 19 38  1  0
 20 39  1  0
 21 40  1  0
 24 41  1  0
 24 42  1  0
 24 43  1  0
M  CHG  1  10  -1
M  END
>  <UniqueID>  (1) 
1

>  <SMILES>  (1) 
COc1ccccc1C[N-]C(=O)CNC(=O)c1ccccc1OC

>  <Energy>  (1) 
42.17039419321136

>  <Genealogy>  (1) 
COc1ccccc1C[N-]C(=O)CNC(=O)c1ccccc1OC (protonated)
COc1ccccc1C[N-]C(=O)CNC(=O)c1ccccc1OC (3D coordinates assigned)
COc1ccccc1C[N-]C(=O)CNC(=O)c1ccccc1OC (optimized conformer: 42.17039419321136 kcal/mol)

>  <smiles>  (1) 
COc1ccccc1CNC(=O)CNC(=O)c1ccccc1OC

>  <score_type>  (1) 
oracle

>  <origin>  (1) 
adg

>  <m_score__min__energy>  (1) 
-9.5099999999999998

>  <m_primary>  (1) 
energy

$$$$
1:0
     RDKit          3D

 26 27  0  0  0  0  0  0  0  0999 V2000
   -4.3930   18.4080  -34.1980 C   0  0  0  0  0  0  0  0  0  0  0  0
   -5.6350   18.9720  -33.5360 C   0  0  0  0  0  0  0  0  0  0  0  0
   -5.6840   20.3550  -33.2190 C   0  0  0  0  0  0  0  0  0  0  0  0
   -4.5410   21.1920  -33.4660 N   0  0  0  0  0  0  0  0  0  0  0  0
   -6.8660   20.8950  -32.6600 C   0  0  0  0  0  0  0  0  0  0  0  0
   -6.9780   22.2560  -32.2940 C   0  0  0  0  0  0  0  0  0  0  0  0
   -8.1680   22.7520  -31.7560 C   0  0  0  0  0  0  0  0  0  0  0  0
   -9.2580   21.9060  -31.5610 C   0  0  0  0  0  0  0  0  0  0  0  0
   -9.1600   20.5540  -31.8910 C   0  0  0  0  0  0  0  0  0  0  0  0
   -7.9690   20.0430  -32.4320 C   0  0  0  0  0  0  0  0  0  0  0  0
   -7.8590   18.6820  -32.7200 C   0  0  0  0  0  0  0  0  0  0  0  0
   -6.7040   18.1570  -33.2260 N   0  0  0  0  0  0  0  0  0  0  0  0
   -6.6560   16.7050  -33.4610 C   0  0  0  0  0  0  0  0  0  0  0  0
   -3.6804   18.0844  -33.4251 H   0  0  0  0  0  0  0  0  0  0  0  0
   -4.6701   17.5474  -34.8246 H   0  0  0  0  0  0  0  0  0  0  0  0
   -3.9274   19.1830  -34.8246 H   0  0  0  0  0  0  0  0  0  0  0  0
   -3.6190   21.0100  -33.0130 H   0  0  0  0  0  0  0  0  0  0  0  0
   -4.6100   22.0410  -34.0670 H   0  0  0  0  0  0  0  0  0  0  0  0
   -6.1204   22.9304  -32.4341 H   0  0  0  0  0  0  0  0  0  0  0  0
   -8.2450   23.8153  -31.4850 H   0  0  0  0  0  0  0  0  0  0  0  0
  -10.1960   22.3043  -31.1468 H   0  0  0  0  0  0  0  0  0  0  0  0
  -10.0184   19.8861  -31.7269 H   0  0  0  0  0  0  0  0  0  0  0  0
   -8.7180   18.0200  -32.5362 H   0  0  0  0  0  0  0  0  0  0  0  0
   -6.6386   16.1777  -32.4958 H   0  0  0  0  0  0  0  0  0  0  0  0
   -7.5444   16.3963  -34.0314 H   0  0  0  0  0  0  0  0  0  0  0  0
   -5.7491   16.4557  -34.0314 H   0  0  0  0  0  0  0  0  0  0  0  0
  1  2  1  0
  2  3  2  0
  3  4  1  0
  3  5  1  0
  5  6  2  0
  6  7  1  0
  7  8  2  0
  8  9  1  0
  9 10  2  0
 10 11  1  0
 11 12  2  0
 12 13  1  0
 12  2  1  0
 10  5  1  0
  1 14  1  0
  1 15  1  0
  1 16  1  0
  4 17  1  0
  4 18  1  0
  6 19  1  0
  7 20  1  0
  8 21  1  0
  9 22  1  0
 11 23  1  0
 13 24  1  0
 13 25  1  0
 13 26  1  0
M  CHG  1  12   1
M  END
>  <UniqueID>  (2) 
2

>  <SMILES>  (2) 
Cc1c(N)c2ccccc2c[n+]1C

>  <Energy>  (2) 
38.891005878756744

>  <Genealogy>  (2) 
Cc1c(N)c2ccccc2c[n+]1C (3D coordinates assigned)
Cc1c(N)c2ccccc2c[n+]1C (optimized conformer: 38.891005878756744 kcal/mol)

>  <smiles>  (2) 
Cc1c(N)c2ccccc2c[n+]1C

>  <score_type>  (2) 
oracle

>  <origin>  (2) 
adg

>  <m_score__min__energy>  (2) 
-5.4299999999999997

>  <m_primary>  (2) 
energy

$$$$
2:0
     RDKit          3D

 23 24  0  0  0  0  0  0  0  0999 V2000
   -3.9080   19.2140  -33.7360 C   0  0  0  0  0  0  0  0  0  0  0  0
   -3.6960   20.5910  -33.4420 O   0  0  0  0  0  0  0  0  0  0  0  0
   -4.6000   21.4050  -32.7440 C   0  0  0  0  0  0  0  0  0  0  0  0
   -5.9270   20.9810  -32.6490 C   0  0  0  0  0  0  0  0  0  0  0  0
   -6.8720   21.7470  -31.9700 C   0  0  0  0  0  0  0  0  0  0  0  0
   -6.5020   22.9580  -31.3670 C   0  0  0  0  0  0  0  0  0  0  0  0
   -7.4630   23.7170  -30.6860 C   0  0  0  0  0  0  0  0  0  0  0  0
   -7.1080   24.9210  -30.0840 C   0  0  0  0  0  0  0  0  0  0  0  0
   -5.7950   25.3800  -30.1540 C   0  0  0  0  0  0  0  0  0  0  0  0
   -4.8120   24.6450  -30.8270 C   0  0  0  0  0  0  0  0  0  0  0  0
   -3.5200   25.1820  -30.8480 O   0  0  0  0  0  0  0  0  0  0  0  0
   -5.1570   23.4130  -31.4470 C   0  0  0  0  0  0  0  0  0  0  0  0
   -4.2160   22.6210  -32.1430 C   0  0  0  0  0  0  0  0  0  0  0  0
   -3.9952   18.6478  -32.7970 H   0  0  0  0  0  0  0  0  0  0  0  0
   -4.8340   19.1019  -34.3191 H   0  0  0  0  0  0  0  0  0  0  0  0
   -3.0586   18.8286  -34.3191 H   0  0  0  0  0  0  0  0  0  0  0  0
   -6.2295   20.0318  -33.1154 H   0  0  0  0  0  0  0  0  0  0  0  0
   -7.9140   21.4002  -31.9065 H   0  0  0  0  0  0  0  0  0  0  0  0
   -8.5018   23.3602  -30.6268 H   0  0  0  0  0  0  0  0  0  0  0  0
   -7.8674   25.5120  -29.5511 H   0  0  0  0  0  0  0  0  0  0  0  0
   -5.5268   26.3328  -29.6741 H   0  0  0  0  0  0  0  0  0  0  0  0
   -3.1120   25.6720  -31.6300 H   0  0  0  0  0  0  0  0  0  0  0  0
   -3.1713   22.9574  -32.2167 H   0  0  0  0  0  0  0  0  0  0  0  0
  1  2  1  0
  2  3  1  0
  3  4  2  0
  4  5  1  0
  5  6  2  0
  6  7  1  0
  7  8  2  0
  8  9  1  0
  9 10  2  0
 10 11  1  0
 10 12  1  0
 12 13  2  0
 13  3  1  0
 12  6  1  0
  1 14  1  0
  1 15  1  0
  1 16  1  0
  4 17  1  0
  5 18  1  0
  7 19  1  0
  8 20  1  0
  9 21  1  0
 11 22  1  0
 13 23  1  0
M  END
>  <UniqueID>  (3) 
3

>  <SMILES>  (3) 
COc1ccc2cccc(O)c2c1

>  <Energy>  (3) 
29.288082730746762

>  <Genealogy>  (3) 
COc1ccc2cccc(O)c2c1 (3D coordinates assigned)
COc1ccc2cccc(O)c2c1 (optimized conformer: 29.288082730746762 kcal/mol)

>  <smiles>  (3) 
COc1ccc2cccc(O)c2c1

>  <score_type>  (3) 
oracle

>  <origin>  (3) 
adg

>  <m_score__min__energy>  (3) 
-6.4100000000000001

>  <m_primary>  (3) 
energy

$$$$
3:0
     RDKit          3D

 45 46  0  0  0  0  0  0  0  0999 V2000
   -3.0760   21.7440  -32.2910 C   0  0  0  0  0  0  0  0  0  0  0  0
   -3.8470   22.8640  -31.8690 O   0  0  0  0  0  0  0  0  0  0  0  0
   -5.2370   22.8500  -31.6740 C   0  0  0  0  0  0  0  0  0  0  0  0
   -6.0590   21.9110  -32.3300 C   0  0  0  0  0  0  0  0  0  0  0  0
   -7.4360   21.8930  -32.1040 C   0  0  0  0  0  0  0  0  0  0  0  0
   -8.0120   22.8050  -31.2220 C   0  0  0  0  0  0  0  0  0  0  0  0
   -7.2150   23.7430  -30.5670 C   0  0  0  0  0  0  0  0  0  0  0  0
   -5.8260   23.7900  -30.7900 C   0  0  0  0  0  0  0  0  0  0  0  0
   -4.9970   24.7900  -30.0020 C   0  0  2  0  0  0  0  0  0  0  0  0
   -4.1400   25.5280  -30.8460 O   0  0  0  0  0  0  0  0  0  0  0  0
   -4.2690   24.1210  -28.8150 C   0  0  0  0  0  0  0  0  0  0  0  0
   -2.9840   23.5340  -29.2430 N   0  0  0  0  0  0  0  0  0  0  0  0
   -1.8210   23.8890  -28.4020 C   0  0  0  0  0  0  0  0  0  0  0  0
   -1.5410   22.7950  -27.3510 C   0  0  0  0  0  0  0  0  0  0  0  0
   -0.4370   23.2370  -26.3860 C   0  0  0  0  0  0  0  0  0  0  0  0
   -0.7370   24.5430  -25.7750 N   0  0  0  0  0  0  0  0  0  0  0  0
    0.0390   24.9640  -24.6310 C   0  0  0  0  0  0  0  0  0  0  0  0
   -0.4120   26.0770  -23.7350 C   0  0  0  0  0  0  0  0  0  0  0  0
    1.1350   24.3930  -24.3740 O   0  0  0  0  0  0  0  0  0  0  0  0
   -1.8690   25.3430  -26.2710 C   0  0  0  0  0  0  0  0  0  0  0  0
   -1.9130   25.3230  -27.8040 C   0  0  0  0  0  0  0  0  0  0  0  0
   -2.7031   21.2023  -31.4092 H   0  0  0  0  0  0  0  0  0  0  0  0
   -3.7044   21.0729  -32.8949 H   0  0  0  0  0  0  0  0  0  0  0  0
   -2.2248   22.0914  -32.8949 H   0  0  0  0  0  0  0  0  0  0  0  0
   -5.6111   21.1864  -33.0259 H   0  0  0  0  0  0  0  0  0  0  0  0
   -8.0679   21.1574  -32.6232 H   0  0  0  0  0  0  0  0  0  0  0  0
   -9.0970   22.7849  -31.0422 H   0  0  0  0  0  0  0  0  0  0  0  0
   -7.6773   24.4550  -29.8675 H   0  0  0  0  0  0  0  0  0  0  0  0
   -5.6839   25.5225  -29.5530 H   0  0  0  0  0  0  0  0  0  0  0  0
   -3.4800   24.9180  -31.2620 H   0  0  0  0  0  0  0  0  0  0  0  0
   -4.0781   24.8765  -28.0386 H   0  0  0  0  0  0  0  0  0  0  0  0
   -4.9075   23.3160  -28.4221 H   0  0  0  0  0  0  0  0  0  0  0  0
   -2.7840   23.8370  -30.2260 H   0  0  0  0  0  0  0  0  0  0  0  0
   -0.9405   23.9260  -29.0604 H   0  0  0  0  0  0  0  0  0  0  0  0
   -2.4610   22.5989  -26.7808 H   0  0  0  0  0  0  0  0  0  0  0  0
   -1.2106   21.8835  -27.8706 H   0  0  0  0  0  0  0  0  0  0  0  0
   -0.3382   22.4851  -25.5892 H   0  0  0  0  0  0  0  0  0  0  0  0
    0.4986   23.3327  -26.9566 H   0  0  0  0  0  0  0  0  0  0  0  0
   -0.2895   25.7746  -22.6845 H   0  0  0  0  0  0  0  0  0  0  0  0
    0.1936   26.9741  -23.9313 H   0  0  0  0  0  0  0  0  0  0  0  0
   -1.4712   26.2995  -23.9313 H   0  0  0  0  0  0  0  0  0  0  0  0
   -2.8072   24.9253  -25.8769 H   0  0  0  0  0  0  0  0  0  0  0  0
   -1.7439   26.3823  -25.9332 H   0  0  0  0  0  0  0  0  0  0  0  0
   -2.8588   25.7786  -28.1325 H   0  0  0  0  0  0  0  0  0  0  0  0
   -1.0373   25.8835  -28.1632 H   0  0  0  0  0  0  0  0  0  0  0  0
  1  2  1  0
  2  3  1  0
  3  4  2  0
  4  5  1  0
  5  6  2  0
  6  7  1  0
  7  8  2  0
  8  9  1  0
  9 10  1  0
  9 11  1  0
 11 12  1  0
 12 13  1  0
 13 14  1  0
 14 15  1  0
 15 16  1  0
 16 17  1  0
 17 18  1  0
 17 19  2  0
 16 20  1  0
 20 21  1  0
  8  3  1  0
 21 13  1  0
  1 22  1  0
  1 23  1  0
  1 24  1  0
  4 25  1  0
  5 26  1  0
  6 27  1  0
  7 28  1  0
  9 29  1  1
 10 30  1  0
 11 31  1  0
 11 32  1  0
 12 33  1  0
 13 34  1  0
 14 35  1  0
 14 36  1  0
 15 37  1  0
 15 38  1  0
 18 39  1  0
 18 40  1  0
 18 41  1  0
 20 42  1  0
 20 43  1  0
 21 44  1  0
 21 45  1  0
M  END
>  <UniqueID>  (4) 
4

>  <SMILES>  (4) 
COc1ccccc1[C@H](O)CNC1CCN(C(C)=O)CC1

>  <Energy>  (4) 
49.694798682484546

>  <Genealogy>  (4) 
COc1ccccc1[C@H](O)CNC1CCN(C(C)=O)CC1 (chirality)
COc1ccccc1[C@H](O)CNC1CCN(C(C)=O)CC1 (3D coordinates assigned)
COc1ccccc1[C@H](O)CNC1CCN(C(C)=O)CC1 (nonaromatic ring conformer: 49.694798682484546 kcal/mol)

>  <smiles>  (4) 
COc1ccccc1C(O)CNC1CCN(C(C)=O)CC1

>  <score_type>  (4) 
oracle

>  <origin>  (4) 
adg

>  <m_score__min__energy>  (4) 
-8.3900000000000006

>  <m_primary>  (4) 
energy

$$$$
4:0
     RDKit          3D

 58 62  0  0  0  0  0  0  0  0999 V2000
   -3.5980   19.8830  -32.4370 C   0  0  0  0  0  0  0  0  0  0  0  0
   -4.7830   20.1860  -33.1650 O   0  0  0  0  0  0  0  0  0  0  0  0
   -6.0590   19.6900  -32.8550 C   0  0  0  0  0  0  0  0  0  0  0  0
   -6.3140   18.3070  -32.7580 C   0  0  0  0  0  0  0  0  0  0  0  0
   -7.5950   17.8450  -32.4440 C   0  0  0  0  0  0  0  0  0  0  0  0
   -8.6320   18.7510  -32.2210 C   0  0  0  0  0  0  0  0  0  0  0  0
   -8.3930   20.1230  -32.3150 C   0  0  0  0  0  0  0  0  0  0  0  0
   -7.1110   20.6030  -32.6340 C   0  0  0  0  0  0  0  0  0  0  0  0
   -6.8650   22.0890  -32.7130 C   0  0  0  0  0  0  0  0  0  0  0  0
   -5.7550   22.4680  -31.8400 N   0  0  0  0  0  0  0  0  0  0  0  0
   -5.9380   23.3000  -30.6820 C   0  0  0  0  0  0  0  0  0  0  0  0
   -7.1000   23.6650  -30.3550 O   0  0  0  0  0  0  0  0  0  0  0  0
   -4.7850   23.7220  -29.8510 C   0  0  0  0  0  0  0  0  0  0  0  0
   -4.9890   24.1150  -28.5170 C   0  0  0  0  0  0  0  0  0  0  0  0
   -3.9130   24.5170  -27.7210 C   0  0  0  0  0  0  0  0  0  0  0  0
   -2.6110   24.5400  -28.2440 C   0  0  0  0  0  0  0  0  0  0  0  0
   -1.5040   24.9660  -27.4260 N   0  0  0  0  0  0  0  0  0  0  0  0
   -1.7340   25.7920  -26.2310 C   0  0  0  0  0  0  0  0  0  0  0  0
   -0.6880   25.4500  -25.1580 C   0  0  2  0  0  0  0  0  0  0  0  0
   -0.8750   26.2780  -23.8590 C   0  0  0  0  0  0  0  0  0  0  0  0
    0.0200   27.5230  -23.8010 C   0  0  0  0  0  0  0  0  0  0  0  0
    1.4640   27.1340  -23.9920 C   0  0  0  0  0  0  0  0  0  0  0  0
    2.4810   27.7730  -23.2670 C   0  0  0  0  0  0  0  0  0  0  0  0
    3.8210   27.4530  -23.5070 C   0  0  0  0  0  0  0  0  0  0  0  0
    4.1520   26.5080  -24.4820 C   0  0  0  0  0  0  0  0  0  0  0  0
    3.1450   25.8790  -25.2210 C   0  0  0  0  0  0  0  0  0  0  0  0
    1.7960   26.1840  -24.9750 C   0  0  0  0  0  0  0  0  0  0  0  0
    0.7080   25.5600  -25.7540 C   0  0  0  0  0  0  0  0  0  0  0  0
    0.9280   25.1580  -26.9720 N   0  0  0  0  0  0  0  0  0  0  0  0
   -0.1380   24.7260  -27.8230 C   0  0  0  0  0  0  0  0  0  0  0  0
    0.1310   24.1950  -28.9330 O   0  0  0  0  0  0  0  0  0  0  0  0
   -2.4060   24.1690  -29.5820 C   0  0  0  0  0  0  0  0  0  0  0  0
   -3.4820   23.7640  -30.3790 C   0  0  0  0  0  0  0  0  0  0  0  0
   -3.8066   19.9363  -31.3583 H   0  0  0  0  0  0  0  0  0  0  0  0
   -3.2583   18.8691  -32.6951 H   0  0  0  0  0  0  0  0  0  0  0  0
   -2.8133   20.6094  -32.6951 H   0  0  0  0  0  0  0  0  0  0  0  0
   -5.5001   17.5874  -32.9304 H   0  0  0  0  0  0  0  0  0  0  0  0
   -7.7861   16.7641  -32.3725 H   0  0  0  0  0  0  0  0  0  0  0  0
   -9.6384   18.3841  -31.9710 H   0  0  0  0  0  0  0  0  0  0  0  0
   -9.2138   20.8337  -32.1382 H   0  0  0  0  0  0  0  0  0  0  0  0
   -6.6199   22.3614  -33.7502 H   0  0  0  0  0  0  0  0  0  0  0  0
   -7.7723   22.6191  -32.3878 H   0  0  0  0  0  0  0  0  0  0  0  0
   -4.8160   22.0620  -32.0490 H   0  0  0  0  0  0  0  0  0  0  0  0
   -6.0051   24.1061  -28.0956 H   0  0  0  0  0  0  0  0  0  0  0  0
   -4.0878   24.8174  -26.6774 H   0  0  0  0  0  0  0  0  0  0  0  0
   -1.6489   26.8554  -26.4992 H   0  0  0  0  0  0  0  0  0  0  0  0
   -2.7409   25.5909  -25.8365 H   0  0  0  0  0  0  0  0  0  0  0  0
   -0.8343   24.4072  -24.8400 H   0  0  0  0  0  0  0  0  0  0  0  0
   -1.9252   26.5994  -23.7975 H   0  0  0  0  0  0  0  0  0  0  0  0
   -0.5904   25.6315  -23.0158 H   0  0  0  0  0  0  0  0  0  0  0  0
   -0.2767   28.2215  -24.5973 H   0  0  0  0  0  0  0  0  0  0  0  0
   -0.0959   28.0035  -22.8183 H   0  0  0  0  0  0  0  0  0  0  0  0
    2.2239   28.5270  -22.5085 H   0  0  0  0  0  0  0  0  0  0  0  0
    4.6156   27.9458  -22.9276 H   0  0  0  0  0  0  0  0  0  0  0  0
    5.2069   26.2584  -24.6686 H   0  0  0  0  0  0  0  0  0  0  0  0
    3.4096   25.1445  -25.9959 H   0  0  0  0  0  0  0  0  0  0  0  0
   -1.3918   24.1969  -30.0071 H   0  0  0  0  0  0  0  0  0  0  0  0
   -3.3078   23.4763  -31.4263 H   0  0  0  0  0  0  0  0  0  0  0  0
  1  2  1  0
  2  3  1  0
  3  4  2  0
  4  5  1  0
  5  6  2  0
  6  7  1  0
  7  8  2  0
  8  9  1  0
  9 10  1  0
 10 11  1  0
 11 12  2  0
 11 13  1  0
 13 14  2  0
 14 15  1  0
 15 16  2  0
 16 17  1  0
 17 18  1  0
 18 19  1  0
 19 20  1  0
 20 21  1  0
 21 22  1  0
 22 23  2  0
 23 24  1  0
 24 25  2  0
 25 26  1  0
 26 27  2  0
 27 28  1  0
 28 29  2  0
 29 30  1  0
 30 31  2  0
 16 32  1  0
 32 33  2  0
  8  3  1  0
 33 13  1  0
 30 17  1  0
 28 19  1  0
 27 22  1  0
  1 34  1  0
  1 35  1  0
  1 36  1  0
  4 37  1  0
  5 38  1  0
  6 39  1  0
  7 40  1  0
  9 41  1  0
  9 42  1  0
 10 43  1  0
 14 44  1  0
 15 45  1  0
 18 46  1  0
 18 47  1  0
 19 48  1  1
 20 49  1  0
 20 50  1  0
 21 51  1  0
 21 52  1  0
 23 53  1  0
 24 54  1  0
 25 55  1  0
 26 56  1  0
 32 57  1  0
 33 58  1  0
M  END
>  <UniqueID>  (5) 
5

>  <SMILES>  (5) 
COc1ccccc1CNC(=O)c1ccc(N2C[C@@H]3CCc4ccccc4C3=NC2=O)cc1

>  <Energy>  (5) 
75.37689274675333

>  <Genealogy>  (5) 
COc1ccccc1CNC(=O)c1ccc(N2C[C@@H]3CCc4ccccc4C3=NC2=O)cc1 (chirality)
COc1ccccc1CNC(=O)c1ccc(N2C[C@@H]3CCc4ccccc4C3=NC2=O)cc1 (3D coordinates assigned)
COc1ccccc1CNC(=O)c1ccc(N2C[C@@H]3CCc4ccccc4C3=NC2=O)cc1 (nonaromatic ring conformer: 75.37689274675333 kcal/mol)

>  <smiles>  (5) 
COc1ccccc1CNC(=O)c1ccc(N2CC3CCc4ccccc4C3=NC2=O)cc1

>  <score_type>  (5) 
oracle

>  <origin>  (5) 
adg

>  <m_score__min__energy>  (5) 
-9.3000000000000007

>  <m_primary>  (5) 
energy

$$$$
5:0
     RDKit          3D

 40 41  0  0  0  0  0  0  0  0999 V2000
   -2.0880   23.8040  -29.7070 C   0  0  0  0  0  0  0  0  0  0  0  0
   -3.4830   23.5610  -30.1890 C   0  0  0  0  0  0  0  0  0  0  0  0
   -3.7690   22.4510  -30.9880 C   0  0  0  0  0  0  0  0  0  0  0  0
   -5.0820   22.2390  -31.4300 C   0  0  0  0  0  0  0  0  0  0  0  0
   -5.3840   21.1300  -32.2330 C   0  0  0  0  0  0  0  0  0  0  0  0
   -6.6980   20.9050  -32.6760 C   0  0  0  0  0  0  0  0  0  0  0  0
   -6.9970   19.7790  -33.5270 N   0  0  0  0  0  0  0  0  0  0  0  0
   -5.7780   19.3380  -34.2220 C   0  0  0  0  0  0  0  0  0  0  0  0
   -5.7990   17.8230  -34.4890 C   0  0  0  0  0  0  0  0  0  0  0  0
   -6.6660   17.1100  -33.5240 N   0  0  0  0  0  0  0  0  0  0  0  0
   -6.0770   17.1200  -32.1730 C   0  0  0  0  0  0  0  0  0  0  0  0
   -6.8680   15.7190  -33.9580 C   0  0  0  0  0  0  0  0  0  0  0  0
   -7.7050   21.8170  -32.3250 C   0  0  0  0  0  0  0  0  0  0  0  0
   -7.4150   22.9250  -31.5250 C   0  0  0  0  0  0  0  0  0  0  0  0
   -6.1020   23.1510  -31.0660 C   0  0  0  0  0  0  0  0  0  0  0  0
   -5.7630   24.2610  -30.2550 C   0  0  0  0  0  0  0  0  0  0  0  0
   -6.7790   25.2780  -29.8210 C   0  0  0  0  0  0  0  0  0  0  0  0
   -4.4750   24.4250  -29.8490 N   0  0  0  0  0  0  0  0  0  0  0  0
   -2.0753   23.8062  -28.6071 H   0  0  0  0  0  0  0  0  0  0  0  0
   -1.4273   23.0074  -30.0797 H   0  0  0  0  0  0  0  0  0  0  0  0
   -1.7356   24.7771  -30.0797 H   0  0  0  0  0  0  0  0  0  0  0  0
   -2.9698   21.7489  -31.2680 H   0  0  0  0  0  0  0  0  0  0  0  0
   -4.5850   20.4300  -32.5186 H   0  0  0  0  0  0  0  0  0  0  0  0
   -7.3820   18.9970  -32.9460 H   0  0  0  0  0  0  0  0  0  0  0  0
   -7.7270   20.0500  -34.2270 H   0  0  0  0  0  0  0  0  0  0  0  0
   -5.7017   19.8693  -35.1822 H   0  0  0  0  0  0  0  0  0  0  0  0
   -4.9136   19.5638  -33.5803 H   0  0  0  0  0  0  0  0  0  0  0  0
   -6.1767   17.6454  -35.5067 H   0  0  0  0  0  0  0  0  0  0  0  0
   -4.7737   17.4404  -34.3773 H   0  0  0  0  0  0  0  0  0  0  0  0
   -6.8810   17.1064  -31.4224 H   0  0  0  0  0  0  0  0  0  0  0  0
   -5.4400   16.2325  -32.0442 H   0  0  0  0  0  0  0  0  0  0  0  0
   -5.4705   18.0286  -32.0442 H   0  0  0  0  0  0  0  0  0  0  0  0
   -6.9623   15.0695  -33.0752 H   0  0  0  0  0  0  0  0  0  0  0  0
   -7.7852   15.6528  -34.5616 H   0  0  0  0  0  0  0  0  0  0  0  0
   -6.0075   15.3946  -34.5616 H   0  0  0  0  0  0  0  0  0  0  0  0
   -8.7328   21.6580  -32.6832 H   0  0  0  0  0  0  0  0  0  0  0  0
   -8.2173   23.6260  -31.2514 H   0  0  0  0  0  0  0  0  0  0  0  0
   -6.8152   25.3143  -28.7222 H   0  0  0  0  0  0  0  0  0  0  0  0
   -6.4976   26.2671  -30.2114 H   0  0  0  0  0  0  0  0  0  0  0  0
   -7.7684   24.9976  -30.2114 H   0  0  0  0  0  0  0  0  0  0  0  0
  1  2  1  0
  2  3  2  0
  3  4  1  0
  4  5  2  0
  5  6  1  0
  6  7  1  0
  7  8  1  0
  8  9  1  0
  9 10  1  0
 10 11  1  0
 10 12  1  0
  6 13  2  0
 13 14  1  0
 14 15  2  0
 15 16  1  0
 16 17  1  0
 16 18  2  0
 18  2  1  0
 15  4  1  0
  1 19  1  0
  1 20  1  0
  1 21  1  0
  3 22  1  0
  5 23  1  0
  7 24  1  0
  7 25  1  0
  8 26  1  0
  8 27  1  0
  9 28  1  0
  9 29  1  0
 11 30  1  0
 11 31  1  0
 11 32  1  0
 12 33  1  0
 12 34  1  0
 12 35  1  0
 13 36  1  0
 14 37  1  0
 17 38  1  0
 17 39  1  0
 17 40  1  0
M  CHG  1   7   1
M  END
>  <UniqueID>  (6) 
6

>  <SMILES>  (6) 
Cc1cc2cc([NH2+]CCN(C)C)ccc2c(C)n1

>  <Energy>  (6) 
42.05703057973764

>  <Genealogy>  (6) 
Cc1cc2cc([NH2+]CCN(C)C)ccc2c(C)n1 (protonated)
Cc1cc2cc([NH2+]CCN(C)C)ccc2c(C)n1 (3D coordinates assigned)
Cc1cc2cc([NH2+]CCN(C)C)ccc2c(C)n1 (optimized conformer: 42.05703057973764 kcal/mol)

>  <smiles>  (6) 
Cc1cc2cc(NCCN(C)C)ccc2c(C)n1

>  <score_type>  (6) 
oracle

>  <origin>  (6) 
adg

>  <m_score__min__energy>  (6) 
-6.7400000000000002

>  <m_primary>  (6) 
energy

$$$$
6:0
     RDKit          3D

 40 42  0  0  0  0  0  0  0  0999 V2000
   -6.1000   16.7610  -34.2080 C   0  0  0  0  0  0  0  0  0  0  0  0
   -6.5710   17.9690  -33.4530 C   0  0  0  0  0  0  0  0  0  0  0  0
   -7.6320   17.8520  -32.5190 C   0  0  0  0  0  0  0  0  0  0  0  0
   -8.1090   18.9820  -31.8280 C   0  0  0  0  0  0  0  0  0  0  0  0
   -7.5150   20.2150  -32.1080 C   0  0  0  0  0  0  0  0  0  0  0  0
   -6.5010   20.3280  -33.0170 C   0  0  0  0  0  0  0  0  0  0  0  0
   -6.0020   19.2330  -33.7160 C   0  0  0  0  0  0  0  0  0  0  0  0
   -6.0990   21.6080  -33.0910 N   0  0  0  0  0  0  0  0  0  0  0  0
   -6.8890   22.2610  -32.2030 C   0  0  0  0  0  0  0  0  0  0  0  0
   -6.7560   23.7350  -31.9330 C   0  0  0  0  0  0  0  0  0  0  0  0
   -5.3350   24.0900  -31.7370 N   0  0  0  0  0  0  0  0  0  0  0  0
   -5.1730   25.2520  -30.8380 C   0  0  0  0  0  0  0  0  0  0  0  0
   -5.5430   24.9210  -29.3790 C   0  0  0  0  0  0  0  0  0  0  0  0
   -5.1240   23.5000  -28.9630 C   0  0  0  0  0  0  0  0  0  0  0  0
   -4.0320   22.9430  -29.8750 C   0  0  0  0  0  0  0  0  0  0  0  0
   -4.4950   22.9240  -31.3460 C   0  0  0  0  0  0  0  0  0  0  0  0
   -7.7820   21.4330  -31.5910 N   0  0  0  0  0  0  0  0  0  0  0  0
   -8.7600   21.7860  -30.5610 C   0  0  0  0  0  0  0  0  0  0  0  0
   -5.7953   15.9796  -33.4963 H   0  0  0  0  0  0  0  0  0  0  0  0
   -6.9165   16.3826  -34.8406 H   0  0  0  0  0  0  0  0  0  0  0  0
   -5.2429   17.0352  -34.8406 H   0  0  0  0  0  0  0  0  0  0  0  0
   -8.0869   16.8680  -32.3326 H   0  0  0  0  0  0  0  0  0  0  0  0
   -8.9222   18.8969  -31.0922 H   0  0  0  0  0  0  0  0  0  0  0  0
   -5.1905   19.3491  -34.4495 H   0  0  0  0  0  0  0  0  0  0  0  0
   -5.3390   22.0060  -33.6850 H   0  0  0  0  0  0  0  0  0  0  0  0
   -7.1572   24.2990  -32.7880 H   0  0  0  0  0  0  0  0  0  0  0  0
   -7.3184   23.9859  -31.0216 H   0  0  0  0  0  0  0  0  0  0  0  0
   -4.1237   25.5806  -30.8707 H   0  0  0  0  0  0  0  0  0  0  0  0
   -5.8536   26.0431  -31.1858 H   0  0  0  0  0  0  0  0  0  0  0  0
   -5.0417   25.6427  -28.7173 H   0  0  0  0  0  0  0  0  0  0  0  0
   -6.6381   24.9805  -29.2944 H   0  0  0  0  0  0  0  0  0  0  0  0
   -4.7462   23.5277  -27.9303 H   0  0  0  0  0  0  0  0  0  0  0  0
   -6.0045   22.8456  -29.0432 H   0  0  0  0  0  0  0  0  0  0  0  0
   -3.1351   23.5739  -29.7886 H   0  0  0  0  0  0  0  0  0  0  0  0
   -3.8097   21.9113  -29.5648 H   0  0  0  0  0  0  0  0  0  0  0  0
   -3.6022   22.9112  -31.9885 H   0  0  0  0  0  0  0  0  0  0  0  0
   -5.1213   22.0281  -31.4686 H   0  0  0  0  0  0  0  0  0  0  0  0
   -8.3185   21.6266  -29.5662 H   0  0  0  0  0  0  0  0  0  0  0  0
   -9.0434   22.8431  -30.6713 H   0  0  0  0  0  0  0  0  0  0  0  0
   -9.6532   21.1535  -30.6713 H   0  0  0  0  0  0  0  0  0  0  0  0
  1  2  1  0
  2  3  2  0
  3  4  1  0
  4  5  2  0
  5  6  1  0
  6  7  2  0
  6  8  1  0
  8  9  2  0
  9 10  1  0
 10 11  1  0
 11 12  1  0
 12 13  1  0
 13 14  1  0
 14 15  1  0
 15 16  1  0
  9 17  1  0
 17 18  1  0
  7  2  1  0
 16 11  1  0
 17  5  1  0
  1 19  1  0
  1 20  1  0
  1 21  1  0
  3 22  1  0
  4 23  1  0
  7 24  1  0
  8 25  1  0
 10 26  1  0
 10 27  1  0
 12 28  1  0
 12 29  1  0
 13 30  1  0
 13 31  1  0
 14 32  1  0
 14 33  1  0
 15 34  1  0
 15 35  1  0
 16 36  1  0
 16 37  1  0
 18 38  1  0
 18 39  1  0
 18 40  1  0
M  CHG  1   8   1
M  END
>  <UniqueID>  (7) 
7

>  <SMILES>  (7) 
Cc1ccc2c(c1)[nH+]c(CN1CCCCC1)n2C

>  <Energy>  (7) 
86.00433936518773

>  <Genealogy>  (7) 
Cc1ccc2c(c1)[nH+]c(CN1CCCCC1)n2C (protonated)
Cc1ccc2c(c1)[nH+]c(CN1CCCCC1)n2C (3D coordinates assigned)
Cc1ccc2c(c1)[nH+]c(CN1CCCCC1)n2C (nonaromatic ring conformer: 86.00433936518773 kcal/mol)

>  <smiles>  (7) 
Cc1ccc2c(c1)nc(CN1CCCCC1)n2C

>  <score_type>  (7) 
oracle

>  <origin>  (7) 
adg

>  <m_score__min__energy>  (7) 
-7.25

>  <m_primary>  (7) 
energy

$$$$
7:0
     RDKit          3D

 47 50  0  0  0  0  0  0  0  0999 V2000
   -9.1280   23.0460  -31.9790 C   0  0  0  0  0  0  0  0  0  0  0  0
   -7.6490   23.4200  -31.9720 C   0  0  0  0  0  0  0  0  0  0  0  0
   -6.8140   22.2240  -32.1090 N   0  0  0  0  0  0  0  0  0  0  0  0
   -7.2030   21.0890  -32.7230 C   0  0  0  0  0  0  0  0  0  0  0  0
   -6.1770   20.1720  -32.6350 C   0  0  0  0  0  0  0  0  0  0  0  0
   -6.1870   18.8030  -33.1760 C   0  0  0  0  0  0  0  0  0  0  0  0
   -5.5380   18.3690  -34.3270 C   0  0  0  0  0  0  0  0  0  0  0  0
   -5.7300   17.0070  -34.5900 C   0  0  0  0  0  0  0  0  0  0  0  0
   -6.5260   16.3640  -33.6520 C   0  0  0  0  0  0  0  0  0  0  0  0
   -6.9920   17.4910  -32.4950 S   0  0  0  0  0  0  0  0  0  0  0  0
   -5.1510   20.7310  -31.9670 N   0  0  0  0  0  0  0  0  0  0  0  0
   -5.5560   21.9790  -31.6520 C   0  0  0  0  0  0  0  0  0  0  0  0
   -4.6570   22.9490  -30.9110 C   0  0  0  0  0  0  0  0  0  0  0  0
   -3.2830   22.3400  -30.5910 C   0  0  0  0  0  0  0  0  0  0  0  0
   -2.3930   23.3920  -29.9220 C   0  0  0  0  0  0  0  0  0  0  0  0
   -3.0720   24.0400  -28.7870 N   0  0  0  0  0  0  0  0  0  0  0  0
   -2.3110   24.9500  -27.9660 C   0  0  0  0  0  0  0  0  0  0  0  0
   -2.5000   25.0140  -26.5740 C   0  0  0  0  0  0  0  0  0  0  0  0
   -1.7320   25.9000  -25.8150 C   0  0  0  0  0  0  0  0  0  0  0  0
   -0.7800   26.7060  -26.4390 C   0  0  0  0  0  0  0  0  0  0  0  0
   -0.6050   26.6100  -27.8200 C   0  0  0  0  0  0  0  0  0  0  0  0
   -1.3630   25.7420  -28.5430 N   0  0  0  0  0  0  0  0  0  0  0  0
   -4.4510   23.6640  -28.4320 C   0  0  0  0  0  0  0  0  0  0  0  0
   -5.3520   23.5790  -29.6760 C   0  0  0  0  0  0  0  0  0  0  0  0
   -9.4881   22.9549  -30.9436 H   0  0  0  0  0  0  0  0  0  0  0  0
   -9.7014   23.8274  -32.4992 H   0  0  0  0  0  0  0  0  0  0  0  0
   -9.2610   22.0860  -32.4992 H   0  0  0  0  0  0  0  0  0  0  0  0
   -7.4445   24.1017  -32.8108 H   0  0  0  0  0  0  0  0  0  0  0  0
   -7.4118   23.9105  -31.0164 H   0  0  0  0  0  0  0  0  0  0  0  0
   -8.1744   20.9224  -33.2115 H   0  0  0  0  0  0  0  0  0  0  0  0
   -4.9343   19.0295  -34.9667 H   0  0  0  0  0  0  0  0  0  0  0  0
   -5.2910   16.4946  -35.4587 H   0  0  0  0  0  0  0  0  0  0  0  0
   -6.8041   15.2998  -33.6638 H   0  0  0  0  0  0  0  0  0  0  0  0
   -4.2300   20.2940  -31.7410 H   0  0  0  0  0  0  0  0  0  0  0  0
   -4.4616   23.7866  -31.5968 H   0  0  0  0  0  0  0  0  0  0  0  0
   -3.4118   21.4848  -29.9112 H   0  0  0  0  0  0  0  0  0  0  0  0
   -2.8085   22.0029  -31.5244 H   0  0  0  0  0  0  0  0  0  0  0  0
   -1.4770   22.9040  -29.5576 H   0  0  0  0  0  0  0  0  0  0  0  0
   -2.1584   24.1660  -30.6676 H   0  0  0  0  0  0  0  0  0  0  0  0
   -3.2474   24.3709  -26.0863 H   0  0  0  0  0  0  0  0  0  0  0  0
   -1.8778   25.9620  -24.7265 H   0  0  0  0  0  0  0  0  0  0  0  0
   -0.1740   27.4094  -25.8491 H   0  0  0  0  0  0  0  0  0  0  0  0
    0.1459   27.2362  -28.3241 H   0  0  0  0  0  0  0  0  0  0  0  0
   -4.4368   22.6835  -27.9337 H   0  0  0  0  0  0  0  0  0  0  0  0
   -4.8579   24.4377  -27.7643 H   0  0  0  0  0  0  0  0  0  0  0  0
   -6.2327   22.9694  -29.4253 H   0  0  0  0  0  0  0  0  0  0  0  0
   -5.6178   24.6107  -29.9499 H   0  0  0  0  0  0  0  0  0  0  0  0
  1  2  1  0
  2  3  1  0
  3  4  1  0
  4  5  2  0
  5  6  1  0
  6  7  2  0
  7  8  1  0
  8  9  2  0
  9 10  1  0
  5 11  1  0
 11 12  2  0
 12 13  1  0
 13 14  1  0
 14 15  1  0
 15 16  1  0
 16 17  1  0
 17 18  2  0
 18 19  1  0
 19 20  2  0
 20 21  1  0
 21 22  2  0
 16 23  1  0
 23 24  1  0
 12  3  1  0
 24 13  1  0
 10  6  1  0
 22 17  1  0
  1 25  1  0
  1 26  1  0
  1 27  1  0
  2 28  1  0
  2 29  1  0
  4 30  1  0
  7 31  1  0
  8 32  1  0
  9 33  1  0
 11 34  1  0
 13 35  1  0
 14 36  1  0
 14 37  1  0
 15 38  1  0
 15 39  1  0
 18 40  1  0
 19 41  1  0
 20 42  1  0
 21 43  1  0
 23 44  1  0
 23 45  1  0
 24 46  1  0
 24 47  1  0
M  CHG  1  11   1
M  END
>  <UniqueID>  (8) 
8

>  <SMILES>  (8) 
CCn1cc(-c2cccs2)[nH+]c1C1CCN(c2ccccn2)CC1

>  <Energy>  (8) 
109.67772992358027

>  <Genealogy>  (8) 
CCn1cc(-c2cccs2)[nH+]c1C1CCN(c2ccccn2)CC1 (protonated)
CCn1cc(-c2cccs2)[nH+]c1C1CCN(c2ccccn2)CC1 (3D coordinates assigned)
CCn1cc(-c2cccs2)[nH+]c1C1CCN(c2ccccn2)CC1 (nonaromatic ring conformer: 109.67772992358027 kcal/mol)

>  <smiles>  (8) 
CCn1cc(-c2cccs2)nc1C1CCN(c2ccccn2)CC1

>  <score_type>  (8) 
oracle

>  <origin>  (8) 
adg

>  <m_score__min__energy>  (8) 
-7.4800000000000004

>  <m_primary>  (8) 
energy

$$$$
8:0
     RDKit          3D

 44 46  0  0  0  0  0  0  0  0999 V2000
   -9.6220   21.0280  -31.9920 C   0  0  0  0  0  0  0  0  0  0  0  0
   -8.6640   19.9160  -32.0500 N   0  0  0  0  0  0  0  0  0  0  0  0
   -9.1640   18.5420  -31.9160 C   0  0  0  0  0  0  0  0  0  0  0  0
   -7.2470   20.1710  -32.2360 C   0  0  0  0  0  0  0  0  0  0  0  0
   -6.3310   19.1080  -32.3660 C   0  0  0  0  0  0  0  0  0  0  0  0
   -4.9670   19.3560  -32.5410 C   0  0  0  0  0  0  0  0  0  0  0  0
   -4.4810   20.6700  -32.5800 C   0  0  0  0  0  0  0  0  0  0  0  0
   -3.0400   20.9410  -32.7740 C   0  0  0  0  0  0  0  0  0  0  0  0
   -2.1450   20.3640  -34.0790 S   0  0  0  0  0  0  0  0  0  0  0  0
   -0.6860   20.9560  -33.4830 C   0  0  0  0  0  0  0  0  0  0  0  0
    0.5940   20.8140  -34.1260 N   0  0  0  0  0  0  0  0  0  0  0  0
    0.8620   21.5550  -35.3600 C   0  0  0  0  0  0  0  0  0  0  0  0
    1.6130   19.9370  -33.5430 C   0  0  0  0  0  0  0  0  0  0  0  0
   -0.8570   21.5970  -32.3060 N   0  0  0  0  0  0  0  0  0  0  0  0
   -2.1580   21.6040  -31.9030 C   0  0  0  0  0  0  0  0  0  0  0  0
   -2.5560   22.3210  -30.6710 C   0  0  0  0  0  0  0  0  0  0  0  0
   -2.1420   21.8720  -29.4040 C   0  0  0  0  0  0  0  0  0  0  0  0
   -2.5380   22.5530  -28.2500 C   0  0  0  0  0  0  0  0  0  0  0  0
   -3.3620   23.6780  -28.3470 C   0  0  0  0  0  0  0  0  0  0  0  0
   -3.8590   24.5310  -26.8970 Cl  0  0  0  0  0  0  0  0  0  0  0  0
   -3.7980   24.1170  -29.6010 C   0  0  0  0  0  0  0  0  0  0  0  0
   -3.4020   23.4390  -30.7580 C   0  0  0  0  0  0  0  0  0  0  0  0
   -5.3850   21.7340  -32.4720 C   0  0  0  0  0  0  0  0  0  0  0  0
   -6.7500   21.4910  -32.2970 C   0  0  0  0  0  0  0  0  0  0  0  0
   -9.8344   21.2746  -30.9412 H   0  0  0  0  0  0  0  0  0  0  0  0
   -9.1940   21.9073  -32.4957 H   0  0  0  0  0  0  0  0  0  0  0  0
  -10.5550   20.7349  -32.4957 H   0  0  0  0  0  0  0  0  0  0  0  0
   -9.2565   18.2878  -30.8498 H   0  0  0  0  0  0  0  0  0  0  0  0
  -10.1490   18.4615  -32.3989 H   0  0  0  0  0  0  0  0  0  0  0  0
   -8.4610   17.8473  -32.3989 H   0  0  0  0  0  0  0  0  0  0  0  0
   -6.6942   18.0703  -32.3293 H   0  0  0  0  0  0  0  0  0  0  0  0
   -4.2688   18.5129  -32.6491 H   0  0  0  0  0  0  0  0  0  0  0  0
    1.2264   22.5625  -35.1109 H   0  0  0  0  0  0  0  0  0  0  0  0
    1.6251   21.0241  -35.9481 H   0  0  0  0  0  0  0  0  0  0  0  0
   -0.0641   21.6351  -35.9481 H   0  0  0  0  0  0  0  0  0  0  0  0
    1.5552   19.9867  -32.4456 H   0  0  0  0  0  0  0  0  0  0  0  0
    1.4385   18.9022  -33.8729 H   0  0  0  0  0  0  0  0  0  0  0  0
    2.6102   20.2637  -33.8729 H   0  0  0  0  0  0  0  0  0  0  0  0
   -1.5033   20.9803  -29.3212 H   0  0  0  0  0  0  0  0  0  0  0  0
   -2.2007   22.2031  -27.2632 H   0  0  0  0  0  0  0  0  0  0  0  0
   -4.4535   24.9970  -29.6774 H   0  0  0  0  0  0  0  0  0  0  0  0
   -3.7548   23.7829  -31.7415 H   0  0  0  0  0  0  0  0  0  0  0  0
   -5.0177   22.7695  -32.5253 H   0  0  0  0  0  0  0  0  0  0  0  0
   -7.4455   22.3383  -32.2057 H   0  0  0  0  0  0  0  0  0  0  0  0
  1  2  1  0
  2  3  1  0
  2  4  1  0
  4  5  2  0
  5  6  1  0
  6  7  2  0
  7  8  1  0
  8  9  1  0
  9 10  1  0
 10 11  1  0
 11 12  1  0
 11 13  1  0
 10 14  2  0
 14 15  1  0
 15 16  1  0
 16 17  2  0
 17 18  1  0
 18 19  2  0
 19 20  1  0
 19 21  1  0
 21 22  2  0
  7 23  1  0
 23 24  2  0
 24  4  1  0
 15  8  2  0
 22 16  1  0
  1 25  1  0
  1 26  1  0
  1 27  1  0
  3 28  1  0
  3 29  1  0
  3 30  1  0
  5 31  1  0
  6 32  1  0
 12 33  1  0
 12 34  1  0
 12 35  1  0
 13 36  1  0
 13 37  1  0
 13 38  1  0
 17 39  1  0
 18 40  1  0
 21 41  1  0
 22 42  1  0
 23 43  1  0
 24 44  1  0
M  END
>  <UniqueID>  (9) 
9

>  <SMILES>  (9) 
CN(C)c1ccc(-c2sc(N(C)C)nc2-c2ccc(Cl)cc2)cc1

>  <Energy>  (9) 
82.6364983112654

>  <Genealogy>  (9) 
CN(C)c1ccc(-c2sc(N(C)C)nc2-c2ccc(Cl)cc2)cc1 (3D coordinates assigned)
CN(C)c1ccc(-c2sc(N(C)C)nc2-c2ccc(Cl)cc2)cc1 (optimized conformer: 82.6364983112654 kcal/mol)

>  <smiles>  (9) 
CN(C)c1ccc(-c2sc(N(C)C)nc2-c2ccc(Cl)cc2)cc1

>  <score_type>  (9) 
oracle

>  <origin>  (9) 
adg

>  <m_score__min__energy>  (9) 
-7.2400000000000002

>  <m_primary>  (9) 
energy

$$$$
9:0
     RDKit          3D

 37 37  0  0  0  0  0  0  0  0999 V2000
   -6.1170   25.6100  -29.4880 C   0  0  0  0  0  0  0  0  0  0  0  0
   -5.2970   25.6510  -30.7680 C   0  0  0  0  0  0  0  0  0  0  0  0
   -3.9610   25.3150  -30.4690 O   0  0  0  0  0  0  0  0  0  0  0  0
   -3.9350   24.2960  -29.4930 C   0  0  0  0  0  0  0  0  0  0  0  0
   -4.0880   22.9330  -30.1660 C   0  0  0  0  0  0  0  0  0  0  0  0
   -3.7510   23.0350  -31.5950 N   0  0  0  0  0  0  0  0  0  0  0  0
   -2.9970   21.8630  -32.0640 C   0  0  0  0  0  0  0  0  0  0  0  0
   -3.9100   20.9490  -32.8800 C   0  0  0  0  0  0  0  0  0  0  0  0
   -5.2460   21.5340  -33.0280 N   0  0  0  0  0  0  0  0  0  0  0  0
   -6.4110   20.7960  -32.6450 C   0  0  0  0  0  0  0  0  0  0  0  0
   -6.4750   19.4310  -32.9580 C   0  0  0  0  0  0  0  0  0  0  0  0
   -7.6260   18.6930  -32.6750 C   0  0  0  0  0  0  0  0  0  0  0  0
   -8.7220   19.3100  -32.0730 C   0  0  0  0  0  0  0  0  0  0  0  0
   -8.6630   20.6640  -31.7330 C   0  0  0  0  0  0  0  0  0  0  0  0
   -7.5050   21.4190  -31.9950 C   0  0  0  0  0  0  0  0  0  0  0  0
   -7.4290   22.7830  -31.5460 N   0  0  0  0  0  0  0  0  0  0  0  0
   -7.6160   23.0620  -30.3430 O   0  0  0  0  0  0  0  0  0  0  0  0
   -6.9900   23.7720  -32.3950 O   0  0  0  0  0  0  0  0  0  0  0  0
   -5.4429   25.6437  -28.6194 H   0  0  0  0  0  0  0  0  0  0  0  0
   -6.7955   26.4753  -29.4593 H   0  0  0  0  0  0  0  0  0  0  0  0
   -6.7058   24.6813  -29.4593 H   0  0  0  0  0  0  0  0  0  0  0  0
   -5.7056   24.9296  -31.4909 H   0  0  0  0  0  0  0  0  0  0  0  0
   -5.3376   26.6606  -31.2028 H   0  0  0  0  0  0  0  0  0  0  0  0
   -2.9773   24.3315  -28.9530 H   0  0  0  0  0  0  0  0  0  0  0  0
   -4.7640   24.4479  -28.7862 H   0  0  0  0  0  0  0  0  0  0  0  0
   -3.4129   22.2109  -29.6834 H   0  0  0  0  0  0  0  0  0  0  0  0
   -5.1301   22.5959  -30.0646 H   0  0  0  0  0  0  0  0  0  0  0  0
   -3.1460   23.8790  -31.7340 H   0  0  0  0  0  0  0  0  0  0  0  0
   -2.1586   22.1967  -32.6930 H   0  0  0  0  0  0  0  0  0  0  0  0
   -2.6127   21.3085  -31.1952 H   0  0  0  0  0  0  0  0  0  0  0  0
   -3.4706   20.7997  -33.8773 H   0  0  0  0  0  0  0  0  0  0  0  0
   -4.0054   19.9887  -32.3521 H   0  0  0  0  0  0  0  0  0  0  0  0
   -5.3400   22.5700  -33.1280 H   0  0  0  0  0  0  0  0  0  0  0  0
   -5.6124   18.9379  -33.4299 H   0  0  0  0  0  0  0  0  0  0  0  0
   -7.6682   17.6232  -32.9273 H   0  0  0  0  0  0  0  0  0  0  0  0
   -9.6336   18.7304  -31.8656 H   0  0  0  0  0  0  0  0  0  0  0  0
   -9.5301   21.1442  -31.2560 H   0  0  0  0  0  0  0  0  0  0  0  0
  1  2  1  0
  2  3  1  0
  3  4  1  0
  4  5  1  0
  5  6  1  0
  6  7  1  0
  7  8  1  0
  8  9  1  0
  9 10  1  0
 10 11  2  0
 11 12  1  0
 12 13  2  0
 13 14  1  0
 14 15  2  0
 15 16  1  0
 16 17  2  0
 16 18  1  0
 15 10  1  0
  1 19  1  0
  1 20  1  0
  1 21  1  0
  2 22  1  0
  2 23  1  0
  4 24  1  0
  4 25  1  0
  5 26  1  0
  5 27  1  0
  6 28  1  0
  7 29  1  0
  7 30  1  0
  8 31  1  0
  8 32  1  0
  9 33  1  0
 11 34  1  0
 12 35  1  0
 13 36  1  0
 14 37  1  0
M  CHG  2  16   1  18  -1
M  END
>  <UniqueID>  (10) 
10

>  <SMILES>  (10) 
CCOCCNCCNc1ccccc1[N+](=O)[O-]

>  <Energy>  (10) 
36.046528057237154

>  <Genealogy>  (10) 
CCOCCNCCNc1ccccc1[N+](=O)[O-] (3D coordinates assigned)
CCOCCNCCNc1ccccc1[N+](=O)[O-] (optimized conformer: 36.046528057237154 kcal/mol)

>  <smiles>  (10) 
CCOCCNCCNc1ccccc1[N+](=O)[O-]

>  <score_type>  (10) 
oracle

>  <origin>  (10) 
adg

>  <m_score__min__energy>  (10) 
-6.4199999999999999

>  <m_primary>  (10) 
energy

$$$$
10:0
     RDKit          3D

 37 39  0  0  0  0  0  0  0  0999 V2000
   -5.3894   25.7311  -28.8817 H   0  0  0  0  0  0  0  0  0  0  0  0
   -5.4010   25.1670  -29.8260 C   0  0  0  0  0  0  0  0  0  0  0  0
   -4.2940   24.9330  -30.4620 N   0  0  0  0  0  0  0  0  0  0  0  0
   -3.3050   23.9700  -30.0640 C   0  0  0  0  0  0  0  0  0  0  0  0
   -3.5440   22.6200  -30.3570 C   0  0  0  0  0  0  0  0  0  0  0  0
   -4.4693   22.3316  -30.8771 H   0  0  0  0  0  0  0  0  0  0  0  0
   -2.6210   21.6390  -29.9960 C   0  0  0  0  0  0  0  0  0  0  0  0
   -2.8132   20.5848  -30.2443 H   0  0  0  0  0  0  0  0  0  0  0  0
   -1.4540   21.9950  -29.3200 C   0  0  0  0  0  0  0  0  0  0  0  0
   -0.7204   21.2221  -29.0471 H   0  0  0  0  0  0  0  0  0  0  0  0
   -1.2150   23.3300  -28.9890 C   0  0  0  0  0  0  0  0  0  0  0  0
   -0.2954   23.6029  -28.4506 H   0  0  0  0  0  0  0  0  0  0  0  0
   -2.1440   24.3310  -29.3400 C   0  0  0  0  0  0  0  0  0  0  0  0
   -1.9570   25.6710  -28.9590 O   0  0  0  0  0  0  0  0  0  0  0  0
   -1.2340   26.0940  -27.8080 C   0  0  0  0  0  0  0  0  0  0  0  0
   -1.7715   25.7795  -26.9013 H   0  0  0  0  0  0  0  0  0  0  0  0
   -0.2323   25.6395  -27.8167 H   0  0  0  0  0  0  0  0  0  0  0  0
   -1.1394   27.1899  -27.8167 H   0  0  0  0  0  0  0  0  0  0  0  0
   -6.6960   24.6620  -30.3890 C   0  0  0  0  0  0  0  0  0  0  0  0
   -7.2249   24.0971  -29.6072 H   0  0  0  0  0  0  0  0  0  0  0  0
   -7.2801   25.5329  -30.7212 H   0  0  0  0  0  0  0  0  0  0  0  0
   -6.4910   23.7620  -31.5830 C   0  0  0  0  0  0  0  0  0  0  0  0
   -5.7310   24.1420  -32.5170 O   0  0  0  0  0  0  0  0  0  0  0  0
   -7.2150   22.4740  -31.7230 C   0  0  0  0  0  0  0  0  0  0  0  0
   -8.6330   22.4470  -31.6220 C   0  0  0  0  0  0  0  0  0  0  0  0
   -9.1830   23.3830  -31.4447 H   0  0  0  0  0  0  0  0  0  0  0  0
   -9.3410   21.2380  -31.7460 C   0  0  0  0  0  0  0  0  0  0  0  0
  -10.4385   21.2129  -31.6759 H   0  0  0  0  0  0  0  0  0  0  0  0
   -8.6090   20.0760  -31.9600 C   0  0  0  0  0  0  0  0  0  0  0  0
   -7.2570   20.0860  -32.0490 C   0  0  0  0  0  0  0  0  0  0  0  0
   -6.5160   21.2600  -31.9350 C   0  0  0  0  0  0  0  0  0  0  0  0
   -5.4185   21.2450  -32.0076 H   0  0  0  0  0  0  0  0  0  0  0  0
   -6.7990   18.7990  -32.2550 O   0  0  0  0  0  0  0  0  0  0  0  0
   -7.9370   17.9260  -32.3000 C   0  0  0  0  0  0  0  0  0  0  0  0
   -7.9966   17.4186  -33.2741 H   0  0  0  0  0  0  0  0  0  0  0  0
   -7.8821   17.1364  -31.5361 H   0  0  0  0  0  0  0  0  0  0  0  0
   -9.0710   18.7830  -32.1080 O   0  0  0  0  0  0  0  0  0  0  0  0
  1  2  1  0
  2  3  2  0
  3  4  1  0
  4  5  2  0
  5  6  1  0
  5  7  1  0
  7  8  1  0
  7  9  2  0
  9 10  1  0
  9 11  1  0
 11 12  1  0
 11 13  2  0
 13 14  1  0
 14 15  1  0
 15 16  1  0
 15 17  1  0
 15 18  1  0
  2 19  1  0
 19 20  1  0
 19 21  1  0
 19 22  1  0
 22 23  2  0
 22 24  1  0
 24 25  2  0
 25 26  1  0
 25 27  1  0
 27 28  1  0
 27 29  2  0
 29 30  1  0
 30 31  2  0
 31 32  1  0
 30 33  1  0
 33 34  1  0
 34 35  1  0
 34 36  1  0
 34 37  1  0
 13  4  1  0
 31 24  1  0
 37 29  1  0
M  END
>  <UniqueID>  (11) 
11

>  <SMILES>  (11) 
COc1ccccc1/N=C/CC(=O)c1ccc2c(c1)OCO2

>  <Energy>  (11) 
72.44329605273197

>  <Genealogy>  (11) 
COc1ccccc1/N=C/CC(=O)c1ccc2c(c1)OCO2 (cis-trans isomerization)
COc1ccccc1/N=C/CC(=O)c1ccc2c(c1)OCO2 (3D coordinates assigned)
COc1ccccc1/N=C/CC(=O)c1ccc2c(c1)OCO2 (nonaromatic ring conformer: 72.44329605273197 kcal/mol)

>  <smiles>  (11) 
COc1ccccc1N=CCC(=O)c1ccc2c(c1)OCO2

>  <score_type>  (11) 
oracle

>  <origin>  (11) 
adg

>  <m_score__min__energy>  (11) 
-8.1500000000000004

>  <m_primary>  (11) 
energy

$$$$
11:0
     RDKit          3D

 57 60  0  0  0  0  0  0  0  0999 V2000
   -4.6040   24.3810  -28.3710 C   0  0  0  0  0  0  0  0  0  0  0  0
   -5.6940   24.8200  -29.3430 C   0  0  0  0  0  0  0  0  0  0  0  0
   -5.7300   23.9240  -30.4960 N   0  0  0  0  0  0  0  0  0  0  0  0
   -4.8190   22.9780  -30.7860 C   0  0  0  0  0  0  0  0  0  0  0  0
   -5.1670   22.4070  -31.9940 C   0  0  0  0  0  0  0  0  0  0  0  0
   -4.4750   21.2820  -32.6600 C   0  0  0  0  0  0  0  0  0  0  0  0
   -3.2060   21.4950  -33.1080 N   0  0  0  0  0  0  0  0  0  0  0  0
   -2.4680   20.5030  -33.6690 C   0  0  0  0  0  0  0  0  0  0  0  0
   -1.1690   20.7450  -34.1190 C   0  0  0  0  0  0  0  0  0  0  0  0
   -0.4260   19.6930  -34.6910 C   0  0  0  0  0  0  0  0  0  0  0  0
    0.9220   19.8860  -35.1800 N   0  0  0  0  0  0  0  0  0  0  0  0
    1.3080   19.2440  -36.4420 C   0  0  0  0  0  0  0  0  0  0  0  0
    1.8930   20.7670  -34.5060 C   0  0  0  0  0  0  0  0  0  0  0  0
    2.3530   21.9040  -35.4330 C   0  0  0  0  0  0  0  0  0  0  0  0
    1.4720   23.0850  -35.2900 N   0  0  0  0  0  0  0  0  0  0  0  0
    0.2420   22.9230  -36.0830 C   0  0  0  0  0  0  0  0  0  0  0  0
    2.1700   24.3120  -35.7060 C   0  0  0  0  0  0  0  0  0  0  0  0
   -0.9950   18.4540  -34.7740 N   0  0  0  0  0  0  0  0  0  0  0  0
   -2.2570   18.1960  -34.3400 C   0  0  0  0  0  0  0  0  0  0  0  0
   -3.0200   19.2200  -33.7800 C   0  0  0  0  0  0  0  0  0  0  0  0
   -4.2900   19.0000  -33.3600 N   0  0  0  0  0  0  0  0  0  0  0  0
   -5.0480   19.9930  -32.8170 C   0  0  0  0  0  0  0  0  0  0  0  0
   -6.4530   19.6820  -32.4800 C   0  0  0  0  0  0  0  0  0  0  0  0
   -6.7450   18.6100  -31.6200 C   0  0  0  0  0  0  0  0  0  0  0  0
   -8.0730   18.2870  -31.3220 C   0  0  0  0  0  0  0  0  0  0  0  0
   -9.1170   19.0200  -31.8930 C   0  0  0  0  0  0  0  0  0  0  0  0
   -8.8360   20.0750  -32.7680 C   0  0  0  0  0  0  0  0  0  0  0  0
   -7.5100   20.4020  -33.0680 C   0  0  0  0  0  0  0  0  0  0  0  0
   -6.3320   23.0530  -32.3740 C   0  0  0  0  0  0  0  0  0  0  0  0
   -6.6460   23.9830  -31.4500 N   0  0  0  0  0  0  0  0  0  0  0  0
   -4.9551   24.5224  -27.3382 H   0  0  0  0  0  0  0  0  0  0  0  0
   -4.3709   23.3189  -28.5369 H   0  0  0  0  0  0  0  0  0  0  0  0
   -3.6998   24.9851  -28.5369 H   0  0  0  0  0  0  0  0  0  0  0  0
   -6.6681   24.7951  -28.8325 H   0  0  0  0  0  0  0  0  0  0  0  0
   -5.4779   25.8418  -29.6882 H   0  0  0  0  0  0  0  0  0  0  0  0
   -3.9495   22.7069  -30.1692 H   0  0  0  0  0  0  0  0  0  0  0  0
   -0.7288   21.7489  -34.0279 H   0  0  0  0  0  0  0  0  0  0  0  0
    1.8640   18.3193  -36.2279 H   0  0  0  0  0  0  0  0  0  0  0  0
    0.4049   19.0030  -37.0220 H   0  0  0  0  0  0  0  0  0  0  0  0
    1.9444   19.9285  -37.0220 H   0  0  0  0  0  0  0  0  0  0  0  0
    1.4220   21.2019  -33.6121 H   0  0  0  0  0  0  0  0  0  0  0  0
    2.7726   20.1670  -34.2296 H   0  0  0  0  0  0  0  0  0  0  0  0
    3.3831   22.1883  -35.1719 H   0  0  0  0  0  0  0  0  0  0  0  0
    2.3062   21.5521  -36.4741 H   0  0  0  0  0  0  0  0  0  0  0  0
   -0.6181   22.8097  -35.4066 H   0  0  0  0  0  0  0  0  0  0  0  0
    0.0953   23.8096  -36.7174 H   0  0  0  0  0  0  0  0  0  0  0  0
    0.3299   22.0287  -36.7174 H   0  0  0  0  0  0  0  0  0  0  0  0
    2.4889   24.8725  -34.8149 H   0  0  0  0  0  0  0  0  0  0  0  0
    3.0521   24.0462  -36.3070 H   0  0  0  0  0  0  0  0  0  0  0  0
    1.4908   24.9344  -36.3070 H   0  0  0  0  0  0  0  0  0  0  0  0
   -2.6751   17.1826  -34.4303 H   0  0  0  0  0  0  0  0  0  0  0  0
   -5.9261   18.0224  -31.1793 H   0  0  0  0  0  0  0  0  0  0  0  0
   -8.2958   17.4552  -30.6375 H   0  0  0  0  0  0  0  0  0  0  0  0
  -10.1606   18.7672  -31.6543 H   0  0  0  0  0  0  0  0  0  0  0  0
   -9.6590   20.6477  -33.2204 H   0  0  0  0  0  0  0  0  0  0  0  0
   -7.2922   21.2242  -33.7655 H   0  0  0  0  0  0  0  0  0  0  0  0
   -6.9096   22.8406  -33.2857 H   0  0  0  0  0  0  0  0  0  0  0  0
  1  2  1  0
  2  3  1  0
  3  4  1  0
  4  5  2  0
  5  6  1  0
  6  7  2  0
  7  8  1  0
  8  9  2  0
  9 10  1  0
 10 11  1  0
 11 12  1  0
 11 13  1  0
 13 14  1  0
 14 15  1  0
 15 16  1  0
 15 17  1  0
 10 18  2  0
 18 19  1  0
 19 20  2  0
 20 21  1  0
 21 22  2  0
 22 23  1  0
 23 24  2  0
 24 25  1  0
 25 26  2  0
 26 27  1  0
 27 28  2  0
  5 29  1  0
 29 30  2  0
 30  3  1  0
 22  6  1  0
 28 23  1  0
 20  8  1  0
  1 31  1  0
  1 32  1  0
  1 33  1  0
  2 34  1  0
  2 35  1  0
  4 36  1  0
  9 37  1  0
 12 38  1  0
 12 39  1  0
 12 40  1  0
 13 41  1  0
 13 42  1  0
 14 43  1  0
 14 44  1  0
 16 45  1  0
 16 46  1  0
 16 47  1  0
 17 48  1  0
 17 49  1  0
 17 50  1  0
 19 51  1  0
 24 52  1  0
 25 53  1  0
 26 54  1  0
 27 55  1  0
 28 56  1  0
 29 57  1  0
M  END
>  <UniqueID>  (12) 
12

>  <SMILES>  (12) 
CCn1cc(-c2nc3cc(N(C)CCN(C)C)ncc3nc2-c2ccccc2)cn1

>  <Energy>  (12) 
101.06233823548547

>  <Genealogy>  (12) 
CCn1cc(-c2nc3cc(N(C)CCN(C)C)ncc3nc2-c2ccccc2)cn1 (3D coordinates assigned)
CCn1cc(-c2nc3cc(N(C)CCN(C)C)ncc3nc2-c2ccccc2)cn1 (optimized conformer: 101.06233823548547 kcal/mol)

>  <smiles>  (12) 
CCn1cc(-c2nc3cc(N(C)CCN(C)C)ncc3nc2-c2ccccc2)cn1

>  <score_type>  (12) 
oracle

>  <origin>  (12) 
adg

>  <m_score__min__energy>  (12) 
-8.2799999999999994

>  <m_primary>  (12) 
energy

$$$$
12:0
     RDKit          3D

 50 52  0  0  0  0  0  0  0  0999 V2000
   -3.8770   24.1560  -27.4070 C   0  0  0  0  0  0  0  0  0  0  0  0
   -4.2630   23.0920  -28.4220 C   0  0  0  0  0  0  0  0  0  0  0  0
   -4.0420   23.5860  -29.7390 O   0  0  0  0  0  0  0  0  0  0  0  0
   -4.8160   24.6040  -30.3020 C   0  0  0  0  0  0  0  0  0  0  0  0
   -4.2710   25.6050  -30.8430 O   0  0  0  0  0  0  0  0  0  0  0  0
   -6.3050   24.5270  -30.2130 C   0  0  0  0  0  0  0  0  0  0  0  0
   -6.7960   23.2880  -30.9100 C   0  0  0  0  0  0  0  0  0  0  0  0
   -7.9470   22.6280  -30.4560 C   0  0  0  0  0  0  0  0  0  0  0  0
   -8.4240   21.4980  -31.1260 C   0  0  0  0  0  0  0  0  0  0  0  0
   -7.7690   21.0180  -32.2720 C   0  0  0  0  0  0  0  0  0  0  0  0
   -8.2930   19.8570  -32.9450 N   0  0  0  0  0  0  0  0  0  0  0  0
   -8.0750   18.4780  -32.5020 C   0  0  0  0  0  0  0  0  0  0  0  0
   -6.8520   17.9000  -33.1640 C   0  0  0  0  0  0  0  0  0  0  0  0
   -6.8470   16.5560  -33.5700 C   0  0  0  0  0  0  0  0  0  0  0  0
   -5.7280   16.0190  -34.2110 C   0  0  0  0  0  0  0  0  0  0  0  0
   -4.6030   16.8150  -34.4420 C   0  0  0  0  0  0  0  0  0  0  0  0
   -4.5800   18.1490  -34.0210 C   0  0  0  0  0  0  0  0  0  0  0  0
   -3.4390   18.9190  -34.2880 O   0  0  0  0  0  0  0  0  0  0  0  0
   -2.8190   19.7960  -33.3850 C   0  0  0  0  0  0  0  0  0  0  0  0
   -3.4500   21.0110  -33.0870 C   0  0  0  0  0  0  0  0  0  0  0  0
   -2.8580   21.9150  -32.1980 C   0  0  0  0  0  0  0  0  0  0  0  0
   -1.6250   21.6150  -31.6130 C   0  0  0  0  0  0  0  0  0  0  0  0
   -0.9770   20.4150  -31.9210 C   0  0  0  0  0  0  0  0  0  0  0  0
   -1.5660   19.5100  -32.8100 C   0  0  0  0  0  0  0  0  0  0  0  0
   -5.7160   18.6930  -33.3920 C   0  0  0  0  0  0  0  0  0  0  0  0
   -6.6150   21.6840  -32.7270 C   0  0  0  0  0  0  0  0  0  0  0  0
   -6.1380   22.8130  -32.0550 C   0  0  0  0  0  0  0  0  0  0  0  0
   -4.0200   23.7617  -26.3901 H   0  0  0  0  0  0  0  0  0  0  0  0
   -2.8215   24.4318  -27.5483 H   0  0  0  0  0  0  0  0  0  0  0  0
   -4.5101   25.0444  -27.5483 H   0  0  0  0  0  0  0  0  0  0  0  0
   -3.6504   22.1927  -28.2607 H   0  0  0  0  0  0  0  0  0  0  0  0
   -5.3267   22.8395  -28.3001 H   0  0  0  0  0  0  0  0  0  0  0  0
   -6.6060   24.4941  -29.1555 H   0  0  0  0  0  0  0  0  0  0  0  0
   -6.7430   25.4124  -30.6969 H   0  0  0  0  0  0  0  0  0  0  0  0
   -8.4773   23.0017  -29.5677 H   0  0  0  0  0  0  0  0  0  0  0  0
   -9.3199   20.9802  -30.7527 H   0  0  0  0  0  0  0  0  0  0  0  0
   -8.7890   19.9910  -33.8560 H   0  0  0  0  0  0  0  0  0  0  0  0
   -7.9363   18.4657  -31.4108 H   0  0  0  0  0  0  0  0  0  0  0  0
   -8.9502   17.8721  -32.7791 H   0  0  0  0  0  0  0  0  0  0  0  0
   -7.7273   15.9236  -33.3827 H   0  0  0  0  0  0  0  0  0  0  0  0
   -5.7325   14.9676  -34.5345 H   0  0  0  0  0  0  0  0  0  0  0  0
   -3.7297   16.3899  -34.9583 H   0  0  0  0  0  0  0  0  0  0  0  0
   -4.4154   21.2554  -33.5542 H   0  0  0  0  0  0  0  0  0  0  0  0
   -3.3636   22.8624  -31.9595 H   0  0  0  0  0  0  0  0  0  0  0  0
   -1.1637   22.3237  -30.9094 H   0  0  0  0  0  0  0  0  0  0  0  0
   -0.0038   20.1826  -31.4641 H   0  0  0  0  0  0  0  0  0  0  0  0
   -1.0488   18.5721  -33.0607 H   0  0  0  0  0  0  0  0  0  0  0  0
   -5.7136   19.7469  -33.0769 H   0  0  0  0  0  0  0  0  0  0  0  0
   -6.0854   21.3135  -33.6171 H   0  0  0  0  0  0  0  0  0  0  0  0
   -5.2418   23.3321  -32.4257 H   0  0  0  0  0  0  0  0  0  0  0  0
  1  2  1  0
  2  3  1  0
  3  4  1  0
  4  5  2  0
  4  6  1  0
  6  7  1  0
  7  8  2  0
  8  9  1  0
  9 10  2  0
 10 11  1  0
 11 12  1  0
 12 13  1  0
 13 14  2  0
 14 15  1  0
 15 16  2  0
 16 17  1  0
 17 18  1  0
 18 19  1  0
 19 20  2  0
 20 21  1  0
 21 22  2  0
 22 23  1  0
 23 24  2  0
 17 25  2  0
 10 26  1  0
 26 27  2  0
 27  7  1  0
 25 13  1  0
 24 19  1  0
  1 28  1  0
  1 29  1  0
  1 30  1  0
  2 31  1  0
  2 32  1  0
  6 33  1  0
  6 34  1  0
  8 35  1  0
  9 36  1  0
 11 37  1  0
 12 38  1  0
 12 39  1  0
 14 40  1  0
 15 41  1  0
 16 42  1  0
 20 43  1  0
 21 44  1  0
 22 45  1  0
 23 46  1  0
 24 47  1  0
 25 48  1  0
 26 49  1  0
 27 50  1  0
M  END
>  <UniqueID>  (13) 
13

>  <SMILES>  (13) 
CCOC(=O)Cc1ccc(NCc2cccc(Oc3ccccc3)c2)cc1

>  <Energy>  (13) 
50.39788660247901

>  <Genealogy>  (13) 
CCOC(=O)Cc1ccc(NCc2cccc(Oc3ccccc3)c2)cc1 (3D coordinates assigned)
CCOC(=O)Cc1ccc(NCc2cccc(Oc3ccccc3)c2)cc1 (optimized conformer: 50.39788660247901 kcal/mol)

>  <smiles>  (13) 
CCOC(=O)Cc1ccc(NCc2cccc(Oc3ccccc3)c2)cc1

>  <score_type>  (13) 
oracle

>  <origin>  (13) 
adg

>  <m_score__min__energy>  (13) 
-9.3000000000000007

>  <m_primary>  (13) 
energy

$$$$
13:0
     RDKit          3D

 35 36  0  0  0  0  0  0  0  0999 V2000
   -4.2520   24.0880  -28.2350 C   0  0  0  0  0  0  0  0  0  0  0  0
   -3.3030   24.5370  -29.3430 C   0  0  0  0  0  0  0  0  0  0  0  0
   -4.0350   25.1420  -30.4670 N   0  0  0  0  0  0  0  0  0  0  0  0
   -5.3910   24.5880  -30.6270 C   0  0  0  0  0  0  0  0  0  0  0  0
   -5.3340   23.3100  -31.4170 C   0  0  0  0  0  0  0  0  0  0  0  0
   -4.3170   23.0620  -32.1180 O   0  0  0  0  0  0  0  0  0  0  0  0
   -6.3970   22.3430  -31.3410 N   0  0  0  0  0  0  0  0  0  0  0  0
   -7.5860   22.6450  -30.5350 C   0  0  0  0  0  0  0  0  0  0  0  0
   -8.8460   22.3720  -31.3630 C   0  0  0  0  0  0  0  0  0  0  0  0
   -8.8030   21.0590  -31.9260 O   0  0  0  0  0  0  0  0  0  0  0  0
   -7.6100   20.4860  -32.3790 C   0  0  0  0  0  0  0  0  0  0  0  0
   -7.6380   19.2840  -33.0890 C   0  0  0  0  0  0  0  0  0  0  0  0
   -6.4450   18.6880  -33.5080 C   0  0  0  0  0  0  0  0  0  0  0  0
   -5.2120   19.2750  -33.1880 C   0  0  0  0  0  0  0  0  0  0  0  0
   -3.9320   18.6390  -33.6440 C   0  0  0  0  0  0  0  0  0  0  0  0
   -5.1840   20.4890  -32.4830 C   0  0  0  0  0  0  0  0  0  0  0  0
   -6.3840   21.1120  -32.0940 C   0  0  0  0  0  0  0  0  0  0  0  0
   -3.7995   24.3021  -27.2555 H   0  0  0  0  0  0  0  0  0  0  0  0
   -5.2043   24.6310  -28.3255 H   0  0  0  0  0  0  0  0  0  0  0  0
   -4.4361   23.0073  -28.3255 H   0  0  0  0  0  0  0  0  0  0  0  0
   -2.6005   25.2779  -28.9336 H   0  0  0  0  0  0  0  0  0  0  0  0
   -2.7656   23.6530  -29.7167 H   0  0  0  0  0  0  0  0  0  0  0  0
   -3.4950   24.9250  -31.3370 H   0  0  0  0  0  0  0  0  0  0  0  0
   -5.8208   24.3843  -29.6351 H   0  0  0  0  0  0  0  0  0  0  0  0
   -6.0178   25.3161  -31.1626 H   0  0  0  0  0  0  0  0  0  0  0  0
   -7.5919   22.0091  -29.6375 H   0  0  0  0  0  0  0  0  0  0  0  0
   -7.5665   23.7029  -30.2342 H   0  0  0  0  0  0  0  0  0  0  0  0
   -9.7304   22.4586  -30.7147 H   0  0  0  0  0  0  0  0  0  0  0  0
   -8.8997   23.1067  -32.1799 H   0  0  0  0  0  0  0  0  0  0  0  0
   -8.6011   18.8050  -33.3192 H   0  0  0  0  0  0  0  0  0  0  0  0
   -6.4733   17.7554  -34.0907 H   0  0  0  0  0  0  0  0  0  0  0  0
   -3.3369   18.3433  -32.7674 H   0  0  0  0  0  0  0  0  0  0  0  0
   -4.1600   17.7494  -34.2495 H   0  0  0  0  0  0  0  0  0  0  0  0
   -3.3607   19.3580  -34.2495 H   0  0  0  0  0  0  0  0  0  0  0  0
   -4.2193   20.9551  -32.2337 H   0  0  0  0  0  0  0  0  0  0  0  0
  1  2  1  0
  2  3  1  0
  3  4  1  0
  4  5  1  0
  5  6  2  0
  5  7  1  0
  7  8  1  0
  8  9  1  0
  9 10  1  0
 10 11  1  0
 11 12  2  0
 12 13  1  0
 13 14  2  0
 14 15  1  0
 14 16  1  0
 16 17  2  0
 17  7  1  0
 17 11  1  0
  1 18  1  0
  1 19  1  0
  1 20  1  0
  2 21  1  0
  2 22  1  0
  3 23  1  0
  4 24  1  0
  4 25  1  0
  8 26  1  0
  8 27  1  0
  9 28  1  0
  9 29  1  0
 12 30  1  0
 13 31  1  0
 15 32  1  0
 15 33  1  0
 15 34  1  0
 16 35  1  0
M  END
>  <UniqueID>  (14) 
14

>  <SMILES>  (14) 
CCNCC(=O)N1CCOc2ccc(C)cc21

>  <Energy>  (14) 
37.52728221887292

>  <Genealogy>  (14) 
CCNCC(=O)N1CCOc2ccc(C)cc21 (3D coordinates assigned)
CCNCC(=O)N1CCOc2ccc(C)cc21 (nonaromatic ring conformer: 37.52728221887292 kcal/mol)

>  <smiles>  (14) 
CCNCC(=O)N1CCOc2ccc(C)cc21

>  <score_type>  (14) 
oracle

>  <origin>  (14) 
adg

>  <m_score__min__energy>  (14) 
-6.5800000000000001

>  <m_primary>  (14) 
energy

$$$$
14:0
     RDKit          3D

 43 45  0  0  0  0  0  0  0  0999 V2000
   -2.2340   21.2580  -27.5510 C   0  0  0  0  0  0  0  0  0  0  0  0
   -0.9760   21.3030  -28.4120 C   0  0  0  0  0  0  0  0  0  0  0  0
   -1.1340   22.2210  -29.4940 O   0  0  0  0  0  0  0  0  0  0  0  0
   -2.3480   22.5980  -30.0980 C   0  0  0  0  0  0  0  0  0  0  0  0
   -3.1350   21.6620  -30.7970 C   0  0  0  0  0  0  0  0  0  0  0  0
   -4.3450   22.0360  -31.3950 C   0  0  0  0  0  0  0  0  0  0  0  0
   -5.1410   21.0220  -32.1260 C   0  0  0  0  0  0  0  0  0  0  0  0
   -6.3830   21.1700  -32.7130 C   0  0  0  0  0  0  0  0  0  0  0  0
   -6.7430   20.0000  -33.2730 N   0  0  0  0  0  0  0  0  0  0  0  0
   -5.7020   19.1810  -33.0060 C   0  0  0  0  0  0  0  0  0  0  0  0
   -5.6280   17.7650  -33.4260 C   0  0  0  0  0  0  0  0  0  0  0  0
   -6.8060   16.9940  -33.4680 C   0  0  0  0  0  0  0  0  0  0  0  0
   -6.7630   15.6540  -33.8620 C   0  0  0  0  0  0  0  0  0  0  0  0
   -5.5470   15.0670  -34.2180 C   0  0  0  0  0  0  0  0  0  0  0  0
   -4.3710   15.8200  -34.1810 C   0  0  0  0  0  0  0  0  0  0  0  0
   -4.4050   17.1620  -33.7880 C   0  0  0  0  0  0  0  0  0  0  0  0
   -3.2430   17.8640  -33.7630 F   0  0  0  0  0  0  0  0  0  0  0  0
   -4.7520   19.7860  -32.3260 O   0  0  0  0  0  0  0  0  0  0  0  0
   -4.7780   23.3640  -31.2860 C   0  0  0  0  0  0  0  0  0  0  0  0
   -4.0120   24.3140  -30.5890 C   0  0  0  0  0  0  0  0  0  0  0  0
   -4.4250   25.6510  -30.4640 O   0  0  0  0  0  0  0  0  0  0  0  0
   -5.7450   26.0650  -30.1260 C   0  0  0  0  0  0  0  0  0  0  0  0
   -2.7970   23.9390  -29.9930 C   0  0  0  0  0  0  0  0  0  0  0  0
   -2.0880   24.9520  -29.3170 O   0  0  0  0  0  0  0  0  0  0  0  0
   -1.6990   24.9490  -27.9480 C   0  0  0  0  0  0  0  0  0  0  0  0
   -1.9513   21.2681  -26.4880 H   0  0  0  0  0  0  0  0  0  0  0  0
   -2.8611   22.1343  -27.7720 H   0  0  0  0  0  0  0  0  0  0  0  0
   -2.7969   20.3391  -27.7720 H   0  0  0  0  0  0  0  0  0  0  0  0
   -0.1253   21.6206  -27.7911 H   0  0  0  0  0  0  0  0  0  0  0  0
   -0.7956   20.2995  -28.8249 H   0  0  0  0  0  0  0  0  0  0  0  0
   -2.7934   20.6193  -30.8745 H   0  0  0  0  0  0  0  0  0  0  0  0
   -6.9804   22.0936  -32.7214 H   0  0  0  0  0  0  0  0  0  0  0  0
   -7.7671   17.4502  -33.1885 H   0  0  0  0  0  0  0  0  0  0  0  0
   -7.6887   15.0605  -33.8918 H   0  0  0  0  0  0  0  0  0  0  0  0
   -5.5152   14.0119  -34.5275 H   0  0  0  0  0  0  0  0  0  0  0  0
   -3.4142   15.3557  -34.4621 H   0  0  0  0  0  0  0  0  0  0  0  0
   -5.7279   23.6664  -31.7511 H   0  0  0  0  0  0  0  0  0  0  0  0
   -5.8500   26.0979  -29.0315 H   0  0  0  0  0  0  0  0  0  0  0  0
   -5.9335   27.0654  -30.5427 H   0  0  0  0  0  0  0  0  0  0  0  0
   -6.4711   25.3514  -30.5427 H   0  0  0  0  0  0  0  0  0  0  0  0
   -2.5963   24.9559  -27.3118 H   0  0  0  0  0  0  0  0  0  0  0  0
   -1.1069   24.0463  -27.7370 H   0  0  0  0  0  0  0  0  0  0  0  0
   -1.0931   25.8425  -27.7370 H   0  0  0  0  0  0  0  0  0  0  0  0
  1  2  1  0
  2  3  1  0
  3  4  1  0
  4  5  2  0
  5  6  1  0
  6  7  1  0
  7  8  2  0
  8  9  1  0
  9 10  2  0
 10 11  1  0
 11 12  2  0
 12 13  1  0
 13 14  2  0
 14 15  1  0
 15 16  2  0
 16 17  1  0
 10 18  1  0
  6 19  2  0
 19 20  1  0
 20 21  1  0
 21 22  1  0
 20 23  2  0
 23 24  1  0
 24 25  1  0
 23  4  1  0
 18  7  1  0
 16 11  1  0
  1 26  1  0
  1 27  1  0
  1 28  1  0
  2 29  1  0
  2 30  1  0
  5 31  1  0
  8 32  1  0
 12 33  1  0
 13 34  1  0
 14 35  1  0
 15 36  1  0
 19 37  1  0
 22 38  1  0
 22 39  1  0
 22 40  1  0
 25 41  1  0
 25 42  1  0
 25 43  1  0
M  END
>  <UniqueID>  (15) 
15

>  <SMILES>  (15) 
CCOc1cc(-c2cnc(-c3ccccc3F)o2)cc(OC)c1OC

>  <Energy>  (15) 
77.034344171982

>  <Genealogy>  (15) 
CCOc1cc(-c2cnc(-c3ccccc3F)o2)cc(OC)c1OC (3D coordinates assigned)
CCOc1cc(-c2cnc(-c3ccccc3F)o2)cc(OC)c1OC (optimized conformer: 77.034344171982 kcal/mol)

>  <smiles>  (15) 
CCOc1cc(-c2cnc(-c3ccccc3F)o2)cc(OC)c1OC

>  <score_type>  (15) 
oracle

>  <origin>  (15) 
adg

>  <m_score__min__energy>  (15) 
-7.1699999999999999

>  <m_primary>  (15) 
energy

$$$$
15:0
     RDKit          3D

 49 51  0  0  0  0  0  0  0  0999 V2000
   -3.1360   16.7340  -34.3490 C   0  0  0  0  0  0  0  0  0  0  0  0
   -2.5250   17.5810  -33.2280 C   0  0  0  0  0  0  0  0  0  0  0  0
   -3.3590   18.7580  -32.8860 N   0  0  0  0  0  0  0  0  0  0  0  0
   -4.3400   19.0040  -33.9620 C   0  0  0  0  0  0  0  0  0  0  0  0
   -5.3670   20.0390  -33.5010 C   0  0  0  0  0  0  0  0  0  0  0  0
   -4.7190   21.1710  -32.8210 N   0  0  0  0  0  0  0  0  0  0  0  0
   -5.5340   22.2590  -32.3310 C   0  0  0  0  0  0  0  0  0  0  0  0
   -4.9970   23.4320  -32.1480 N   0  0  0  0  0  0  0  0  0  0  0  0
   -4.9490   24.3010  -30.6450 S   0  0  0  0  0  0  0  0  0  0  0  0
   -4.3090   25.6460  -30.8520 O   0  0  0  0  0  0  0  0  0  0  0  0
   -6.3400   24.4930  -30.1070 O   0  0  0  0  0  0  0  0  0  0  0  0
   -4.0140   23.3660  -29.4850 C   0  0  0  0  0  0  0  0  0  0  0  0
   -3.4810   23.9960  -28.3510 C   0  0  0  0  0  0  0  0  0  0  0  0
   -2.7430   23.2580  -27.4190 C   0  0  0  0  0  0  0  0  0  0  0  0
   -2.5390   21.8890  -27.6130 C   0  0  0  0  0  0  0  0  0  0  0  0
   -3.0750   21.2550  -28.7370 C   0  0  0  0  0  0  0  0  0  0  0  0
   -3.8130   21.9900  -29.6710 C   0  0  0  0  0  0  0  0  0  0  0  0
   -6.9620   22.0240  -32.0280 C   0  0  0  0  0  0  0  0  0  0  0  0
   -7.3760   20.8110  -31.4580 C   0  0  0  0  0  0  0  0  0  0  0  0
   -8.7250   20.6040  -31.1530 C   0  0  0  0  0  0  0  0  0  0  0  0
   -9.6640   21.6070  -31.4110 C   0  0  0  0  0  0  0  0  0  0  0  0
   -9.2530   22.8230  -31.9670 C   0  0  0  0  0  0  0  0  0  0  0  0
   -7.9050   23.0340  -32.2730 C   0  0  0  0  0  0  0  0  0  0  0  0
   -3.2550   21.3070  -32.8780 C   0  0  0  0  0  0  0  0  0  0  0  0
   -2.5260   19.9640  -32.6340 C   0  0  0  0  0  0  0  0  0  0  0  0
   -3.7262   15.9159  -33.9103 H   0  0  0  0  0  0  0  0  0  0  0  0
   -3.7887   17.3644  -34.9708 H   0  0  0  0  0  0  0  0  0  0  0  0
   -2.3319   16.3135  -34.9708 H   0  0  0  0  0  0  0  0  0  0  0  0
   -2.4161   16.9534  -32.3312 H   0  0  0  0  0  0  0  0  0  0  0  0
   -1.5523   17.9526  -33.5825 H   0  0  0  0  0  0  0  0  0  0  0  0
   -3.8910   18.5290  -32.0100 H   0  0  0  0  0  0  0  0  0  0  0  0
   -3.8172   19.3805  -34.8536 H   0  0  0  0  0  0  0  0  0  0  0  0
   -4.8563   18.0634  -34.2043 H   0  0  0  0  0  0  0  0  0  0  0  0
   -5.9154   20.4143  -34.3776 H   0  0  0  0  0  0  0  0  0  0  0  0
   -6.0525   19.5542  -32.7903 H   0  0  0  0  0  0  0  0  0  0  0  0
   -3.6435   25.0725  -28.1939 H   0  0  0  0  0  0  0  0  0  0  0  0
   -2.3229   23.7559  -26.5326 H   0  0  0  0  0  0  0  0  0  0  0  0
   -1.9565   21.3106  -26.8808 H   0  0  0  0  0  0  0  0  0  0  0  0
   -2.9165   20.1769  -28.8876 H   0  0  0  0  0  0  0  0  0  0  0  0
   -4.2367   21.4879  -30.5533 H   0  0  0  0  0  0  0  0  0  0  0  0
   -6.6386   20.0216  -31.2506 H   0  0  0  0  0  0  0  0  0  0  0  0
   -9.0477   19.6505  -30.7094 H   0  0  0  0  0  0  0  0  0  0  0  0
  -10.7257   21.4400  -31.1769 H   0  0  0  0  0  0  0  0  0  0  0  0
   -9.9913   23.6144  -32.1638 H   0  0  0  0  0  0  0  0  0  0  0  0
   -7.5834   23.9926  -32.7062 H   0  0  0  0  0  0  0  0  0  0  0  0
   -2.9742   21.6855  -33.8719 H   0  0  0  0  0  0  0  0  0  0  0  0
   -2.9522   22.0017  -32.0807 H   0  0  0  0  0  0  0  0  0  0  0  0
   -1.6503   19.9222  -33.2984 H   0  0  0  0  0  0  0  0  0  0  0  0
   -2.2567   19.9422  -31.5677 H   0  0  0  0  0  0  0  0  0  0  0  0
  1  2  1  0
  2  3  1  0
  3  4  1  0
  4  5  1  0
  5  6  1  0
  6  7  1  0
  7  8  2  3
  8  9  1  0
  9 10  2  0
  9 11  2  0
  9 12  1  0
 12 13  2  0
 13 14  1  0
 14 15  2  0
 15 16  1  0
 16 17  2  0
  7 18  1  0
 18 19  2  0
 19 20  1  0
 20 21  2  0
 21 22  1  0
 22 23  2  0
  6 24  1  0
 24 25  1  0
 25  3  1  0
 17 12  1  0
 23 18  1  0
  1 26  1  0
  1 27  1  0
  1 28  1  0
  2 29  1  0
  2 30  1  0
  3 31  1  0
  4 32  1  0
  4 33  1  0
  5 34  1  0
  5 35  1  0
 13 36  1  0
 14 37  1  0
 15 38  1  0
 16 39  1  0
 17 40  1  0
 19 41  1  0
 20 42  1  0
 21 43  1  0
 22 44  1  0
 23 45  1  0
 24 46  1  0
 24 47  1  0
 25 48  1  0
 25 49  1  0
M  CHG  1   3   1
M  END
>  <UniqueID>  (16) 
16

>  <SMILES>  (16) 
CC[NH+]1CCN(C(=NS(=O)(=O)c2ccccc2)c2ccccc2)CC1

>  <Energy>  (16) 
66.71402383700413

>  <Genealogy>  (16) 
CC[NH+]1CCN(C(=NS(=O)(=O)c2ccccc2)c2ccccc2)CC1 (protonated)
CC[NH+]1CCN(C(=NS(=O)(=O)c2ccccc2)c2ccccc2)CC1 (3D coordinates assigned)
CC[NH+]1CCN(C(=NS(=O)(=O)c2ccccc2)c2ccccc2)CC1 (nonaromatic ring conformer: 66.71402383700413 kcal/mol)

>  <smiles>  (16) 
CCN1CCN(C(=NS(=O)(=O)c2ccccc2)c2ccccc2)CC1

>  <score_type>  (16) 
oracle

>  <origin>  (16) 
adg

>  <m_score__min__energy>  (16) 
-8

>  <m_primary>  (16) 
energy

$$$$
16:0
     RDKit          3D

 43 44  0  0  0  0  0  0  0  0999 V2000
   -3.9220   24.5380  -27.0830 C   0  0  0  0  0  0  0  0  0  0  0  0
   -4.4640   23.6220  -28.1120 N   0  0  0  0  0  0  0  0  0  0  0  0
   -3.6750   22.3710  -28.0540 C   0  0  0  0  0  0  0  0  0  0  0  0
   -4.4470   24.2670  -29.4680 C   0  0  0  0  0  0  0  0  0  0  0  0
   -4.3620   23.2640  -30.6530 C   0  0  0  0  0  0  0  0  0  0  0  0
   -5.6280   22.3900  -30.7870 C   0  0  0  0  0  0  0  0  0  0  0  0
   -6.8010   23.0220  -30.1480 N   0  0  0  0  0  0  0  0  0  0  0  0
   -8.0730   22.2950  -30.3690 C   0  0  0  0  0  0  0  0  0  0  0  0
   -8.7080   22.4800  -31.7650 C   0  0  0  0  0  0  0  0  0  0  0  0
   -9.0580   21.2370  -32.3700 O   0  0  0  0  0  0  0  0  0  0  0  0
   -8.2020   20.1350  -32.5300 C   0  0  0  0  0  0  0  0  0  0  0  0
   -8.4820   18.8640  -31.9890 C   0  0  0  0  0  0  0  0  0  0  0  0
   -7.5880   17.8060  -32.1780 C   0  0  0  0  0  0  0  0  0  0  0  0
   -6.4120   18.0020  -32.9070 C   0  0  0  0  0  0  0  0  0  0  0  0
   -6.1300   19.2580  -33.4500 C   0  0  0  0  0  0  0  0  0  0  0  0
   -7.0210   20.3180  -33.2630 C   0  0  0  0  0  0  0  0  0  0  0  0
   -6.8640   24.4700  -30.4030 C   0  0  0  0  0  0  0  0  0  0  0  0
   -5.6940   25.1830  -29.6960 C   0  0  0  0  0  0  0  0  0  0  0  0
   -4.1548   24.1445  -26.0825 H   0  0  0  0  0  0  0  0  0  0  0  0
   -2.8312   24.6177  -27.2009 H   0  0  0  0  0  0  0  0  0  0  0  0
   -4.3772   25.5324  -27.2009 H   0  0  0  0  0  0  0  0  0  0  0  0
   -5.4500   23.3880  -27.8450 H   0  0  0  0  0  0  0  0  0  0  0  0
   -3.5012   22.0955  -27.0033 H   0  0  0  0  0  0  0  0  0  0  0  0
   -4.2284   21.5648  -28.5578 H   0  0  0  0  0  0  0  0  0  0  0  0
   -2.7090   22.5230  -28.5578 H   0  0  0  0  0  0  0  0  0  0  0  0
   -3.5241   24.8655  -29.4620 H   0  0  0  0  0  0  0  0  0  0  0  0
   -4.2262   23.8317  -31.5853 H   0  0  0  0  0  0  0  0  0  0  0  0
   -3.5135   22.5915  -30.4585 H   0  0  0  0  0  0  0  0  0  0  0  0
   -5.8436   22.2368  -31.8547 H   0  0  0  0  0  0  0  0  0  0  0  0
   -5.4375   21.4321  -30.2809 H   0  0  0  0  0  0  0  0  0  0  0  0
   -7.8803   21.2219  -30.2234 H   0  0  0  0  0  0  0  0  0  0  0  0
   -8.7917   22.7165  -29.6508 H   0  0  0  0  0  0  0  0  0  0  0  0
   -9.6166   23.0914  -31.6620 H   0  0  0  0  0  0  0  0  0  0  0  0
   -7.9644   22.9705  -32.4103 H   0  0  0  0  0  0  0  0  0  0  0  0
   -9.4073   18.7040  -31.4160 H   0  0  0  0  0  0  0  0  0  0  0  0
   -7.8108   16.8167  -31.7518 H   0  0  0  0  0  0  0  0  0  0  0  0
   -5.7092   17.1685  -33.0531 H   0  0  0  0  0  0  0  0  0  0  0  0
   -5.2054   19.4126  -34.0255 H   0  0  0  0  0  0  0  0  0  0  0  0
   -6.7940   21.3041  -33.6944 H   0  0  0  0  0  0  0  0  0  0  0  0
   -6.8001   24.6520  -31.4860 H   0  0  0  0  0  0  0  0  0  0  0  0
   -7.8143   24.8636  -30.0132 H   0  0  0  0  0  0  0  0  0  0  0  0
   -5.3869   26.0412  -30.3118 H   0  0  0  0  0  0  0  0  0  0  0  0
   -6.0555   25.4880  -28.7029 H   0  0  0  0  0  0  0  0  0  0  0  0
  1  2  1  0
  2  3  1  0
  2  4  1  0
  4  5  1  0
  5  6  1  0
  6  7  1  0
  7  8  1  0
  8  9  1  0
  9 10  1  0
 10 11  1  0
 11 12  2  0
 12 13  1  0
 13 14  2  0
 14 15  1  0
 15 16  2  0
  7 17  1  0
 17 18  1  0
 18  4  1  0
 16 11  1  0
  1 19  1  0
  1 20  1  0
  1 21  1  0
  2 22  1  0
  3 23  1  0
  3 24  1  0
  3 25  1  0
  4 26  1  0
  5 27  1  0
  5 28  1  0
  6 29  1  0
  6 30  1  0
  8 31  1  0
  8 32  1  0
  9 33  1  0
  9 34  1  0
 12 35  1  0
 13 36  1  0
 14 37  1  0
 15 38  1  0
 16 39  1  0
 17 40  1  0
 17 41  1  0
 18 42  1  0
 18 43  1  0
M  CHG  1   2   1
M  END
>  <UniqueID>  (17) 
17

>  <SMILES>  (17) 
C[NH+](C)C1CCN(CCOc2ccccc2)CC1

>  <Energy>  (17) 
60.08361994937338

>  <Genealogy>  (17) 
C[NH+](C)C1CCN(CCOc2ccccc2)CC1 (protonated)
C[NH+](C)C1CCN(CCOc2ccccc2)CC1 (3D coordinates assigned)
C[NH+](C)C1CCN(CCOc2ccccc2)CC1 (nonaromatic ring conformer: 60.08361994937338 kcal/mol)

>  <smiles>  (17) 
CN(C)C1CCN(CCOc2ccccc2)CC1

>  <score_type>  (17) 
oracle

>  <origin>  (17) 
adg

>  <m_score__min__energy>  (17) 
-6.5199999999999996

>  <m_primary>  (17) 
energy

$$$$
17:0
     RDKit          3D

 50 51  0  0  0  0  0  0  0  0999 V2000
   -6.2350   25.3190  -29.6300 C   0  0  0  0  0  0  0  0  0  0  0  0
   -5.2550   25.6500  -30.7490 C   0  0  0  0  0  0  0  0  0  0  0  0
   -3.9350   25.2320  -30.4040 O   0  0  0  0  0  0  0  0  0  0  0  0
   -3.6050   23.9130  -30.0650 C   0  0  0  0  0  0  0  0  0  0  0  0
   -3.6050   23.5500  -28.8560 O   0  0  0  0  0  0  0  0  0  0  0  0
   -3.2640   22.9430  -31.1300 C   0  0  0  0  0  0  0  0  0  0  0  0
   -4.1830   22.6450  -32.1500 C   0  0  0  0  0  0  0  0  0  0  0  0
   -3.8510   21.7320  -33.1560 C   0  0  0  0  0  0  0  0  0  0  0  0
   -2.5990   21.0990  -33.1650 C   0  0  0  0  0  0  0  0  0  0  0  0
   -2.2880   20.1670  -34.2170 N   0  0  0  0  0  0  0  0  0  0  0  0
   -2.3550   18.7160  -34.0490 C   0  0  0  0  0  0  0  0  0  0  0  0
   -3.7310   18.2440  -34.2290 C   0  0  0  0  0  0  0  0  0  0  0  0
   -4.8580   17.8330  -34.3490 C   0  0  0  0  0  0  0  0  0  0  0  0
   -6.2270   17.3140  -34.4430 C   0  0  0  0  0  0  0  0  0  0  0  0
   -6.7600   16.8330  -33.0860 C   0  0  0  0  0  0  0  0  0  0  0  0
   -6.9030   17.9280  -32.0090 C   0  0  0  0  0  0  0  0  0  0  0  0
   -8.2810   18.6200  -31.9800 C   0  0  0  0  0  0  0  0  0  0  0  0
   -8.1820   20.1280  -31.9770 C   0  0  0  0  0  0  0  0  0  0  0  0
   -9.0980   20.9090  -31.2560 C   0  0  0  0  0  0  0  0  0  0  0  0
   -8.9850   22.3010  -31.2600 C   0  0  0  0  0  0  0  0  0  0  0  0
   -7.9470   22.9040  -31.9720 C   0  0  0  0  0  0  0  0  0  0  0  0
   -7.0530   22.1360  -32.6540 N   0  0  0  0  0  0  0  0  0  0  0  0
   -7.1420   20.7780  -32.6650 C   0  0  0  0  0  0  0  0  0  0  0  0
   -1.6800   21.3960  -32.1420 C   0  0  0  0  0  0  0  0  0  0  0  0
   -2.0110   22.3080  -31.1350 C   0  0  0  0  0  0  0  0  0  0  0  0
   -5.7493   25.4831  -28.6568 H   0  0  0  0  0  0  0  0  0  0  0  0
   -7.1190   25.9684  -29.7127 H   0  0  0  0  0  0  0  0  0  0  0  0
   -6.5442   24.2666  -29.7127 H   0  0  0  0  0  0  0  0  0  0  0  0
   -5.5686   25.1334  -31.6681 H   0  0  0  0  0  0  0  0  0  0  0  0
   -5.2515   26.7388  -30.9052 H   0  0  0  0  0  0  0  0  0  0  0  0
   -5.1691   23.1325  -32.1574 H   0  0  0  0  0  0  0  0  0  0  0  0
   -4.5796   21.5077  -33.9490 H   0  0  0  0  0  0  0  0  0  0  0  0
   -2.0300   20.5560  -35.1540 H   0  0  0  0  0  0  0  0  0  0  0  0
   -1.7060   18.2343  -34.7952 H   0  0  0  0  0  0  0  0  0  0  0  0
   -2.0192   18.4584  -33.0337 H   0  0  0  0  0  0  0  0  0  0  0  0
   -6.8835   18.1128  -34.8184 H   0  0  0  0  0  0  0  0  0  0  0  0
   -6.2147   16.4515  -35.1256 H   0  0  0  0  0  0  0  0  0  0  0  0
   -7.7514   16.3854  -33.2495 H   0  0  0  0  0  0  0  0  0  0  0  0
   -6.0141   16.1223  -32.7005 H   0  0  0  0  0  0  0  0  0  0  0  0
   -6.7290   17.4673  -31.0254 H   0  0  0  0  0  0  0  0  0  0  0  0
   -6.1666   18.7072  -32.2551 H   0  0  0  0  0  0  0  0  0  0  0  0
   -8.8495   18.3074  -32.8683 H   0  0  0  0  0  0  0  0  0  0  0  0
   -8.7813   18.3202  -31.0473 H   0  0  0  0  0  0  0  0  0  0  0  0
   -9.9055   20.4246  -30.6874 H   0  0  0  0  0  0  0  0  0  0  0  0
   -9.7085   22.9174  -30.7063 H   0  0  0  0  0  0  0  0  0  0  0  0
   -7.8511   23.9998  -31.9822 H   0  0  0  0  0  0  0  0  0  0  0  0
   -6.2800   22.6010  -33.1810 H   0  0  0  0  0  0  0  0  0  0  0  0
   -6.3962   20.1855  -33.2152 H   0  0  0  0  0  0  0  0  0  0  0  0
   -0.6944   20.9075  -32.1342 H   0  0  0  0  0  0  0  0  0  0  0  0
   -1.2840   22.5301  -30.3400 H   0  0  0  0  0  0  0  0  0  0  0  0
  1  2  1  0
  2  3  1  0
  3  4  1  0
  4  5  2  0
  4  6  1  0
  6  7  2  0
  7  8  1  0
  8  9  2  0
  9 10  1  0
 10 11  1  0
 11 12  1  0
 12 13  3  0
 13 14  1  0
 14 15  1  0
 15 16  1  0
 16 17  1  0
 17 18  1  0
 18 19  2  0
 19 20  1  0
 20 21  2  0
 21 22  1  0
 22 23  2  0
  9 24  1  0
 24 25  2  0
 25  6  1  0
 23 18  1  0
  1 26  1  0
  1 27  1  0
  1 28  1  0
  2 29  1  0
  2 30  1  0
  7 31  1  0
  8 32  1  0
 10 33  1  0
 11 34  1  0
 11 35  1  0
 14 36  1  0
 14 37  1  0
 15 38  1  0
 15 39  1  0
 16 40  1  0
 16 41  1  0
 17 42  1  0
 17 43  1  0
 19 44  1  0
 20 45  1  0
 21 46  1  0
 22 47  1  0
 23 48  1  0
 24 49  1  0
 25 50  1  0
M  CHG  1  22   1
M  END
>  <UniqueID>  (18) 
18

>  <SMILES>  (18) 
CCOC(=O)c1ccc(NCC#CCCCCc2ccc[nH+]c2)cc1

>  <Energy>  (18) 
34.86285182390445

>  <Genealogy>  (18) 
CCOC(=O)c1ccc(NCC#CCCCCc2ccc[nH+]c2)cc1 (protonated)
CCOC(=O)c1ccc(NCC#CCCCCc2ccc[nH+]c2)cc1 (3D coordinates assigned)
CCOC(=O)c1ccc(NCC#CCCCCc2ccc[nH+]c2)cc1 (optimized conformer: 34.86285182390445 kcal/mol)

>  <smiles>  (18) 
CCOC(=O)c1ccc(NCC#CCCCCc2cccnc2)cc1

>  <score_type>  (18) 
oracle

>  <origin>  (18) 
adg

>  <m_score__min__energy>  (18) 
-7.8200000000000003

>  <m_primary>  (18) 
energy

$$$$
18:0
     RDKit          3D

 50 53  0  0  0  0  0  0  0  0999 V2000
   -4.2040   24.1310  -27.7090 C   0  0  0  0  0  0  0  0  0  0  0  0
   -2.7530   24.3030  -28.1430 C   0  0  0  0  0  0  0  0  0  0  0  0
   -2.6180   24.0920  -29.5470 O   0  0  0  0  0  0  0  0  0  0  0  0
   -3.6880   24.1760  -30.4470 C   0  0  0  0  0  0  0  0  0  0  0  0
   -4.1100   25.3010  -30.8280 O   0  0  0  0  0  0  0  0  0  0  0  0
   -4.2640   22.9320  -31.0050 C   0  0  0  0  0  0  0  0  0  0  0  0
   -3.3870   21.8780  -31.2890 C   0  0  0  0  0  0  0  0  0  0  0  0
   -3.8380   20.7350  -31.8600 N   0  0  0  0  0  0  0  0  0  0  0  0
   -5.1440   20.5450  -32.1760 C   0  0  0  0  0  0  0  0  0  0  0  0
   -5.5410   19.2960  -32.7630 N   0  0  0  0  0  0  0  0  0  0  0  0
   -6.3080   18.3560  -31.9480 C   0  0  0  0  0  0  0  0  0  0  0  0
   -7.1700   17.4450  -32.8300 C   0  0  0  0  0  0  0  0  0  0  0  0
   -6.4810   16.9080  -34.0310 N   0  0  0  0  0  0  0  0  0  0  0  0
   -5.8640   15.6040  -33.8350 C   0  0  0  0  0  0  0  0  0  0  0  0
   -4.7350   15.5490  -33.2710 O   0  0  0  0  0  0  0  0  0  0  0  0
   -6.4750   14.3200  -34.2500 C   0  0  0  0  0  0  0  0  0  0  0  0
   -5.9500   13.0690  -33.9730 C   0  0  0  0  0  0  0  0  0  0  0  0
   -6.8200   12.1600  -34.5340 C   0  0  0  0  0  0  0  0  0  0  0  0
   -7.8210   12.9050  -35.1180 C   0  0  0  0  0  0  0  0  0  0  0  0
   -7.5850   14.1830  -34.9310 O   0  0  0  0  0  0  0  0  0  0  0  0
   -5.6330   17.8760  -34.7700 C   0  0  0  0  0  0  0  0  0  0  0  0
   -4.7640   18.7710  -33.8810 C   0  0  0  0  0  0  0  0  0  0  0  0
   -6.0830   21.5610  -31.9090 C   0  0  0  0  0  0  0  0  0  0  0  0
   -7.4420   21.4060  -32.2470 C   0  0  0  0  0  0  0  0  0  0  0  0
   -8.3660   22.4020  -31.9370 C   0  0  0  0  0  0  0  0  0  0  0  0
   -7.9530   23.5600  -31.2830 C   0  0  0  0  0  0  0  0  0  0  0  0
   -6.6080   23.7440  -30.9580 C   0  0  0  0  0  0  0  0  0  0  0  0
   -5.6450   22.7660  -31.2930 C   0  0  0  0  0  0  0  0  0  0  0  0
   -4.2598   24.1244  -26.6104 H   0  0  0  0  0  0  0  0  0  0  0  0
   -4.8054   24.9641  -28.1017 H   0  0  0  0  0  0  0  0  0  0  0  0
   -4.5939   23.1803  -28.1017 H   0  0  0  0  0  0  0  0  0  0  0  0
   -2.4212   25.3227  -27.8976 H   0  0  0  0  0  0  0  0  0  0  0  0
   -2.1355   23.5627  -27.6133 H   0  0  0  0  0  0  0  0  0  0  0  0
   -2.3190   21.9792  -31.0456 H   0  0  0  0  0  0  0  0  0  0  0  0
   -5.6129   17.7370  -31.3617 H   0  0  0  0  0  0  0  0  0  0  0  0
   -6.9695   18.9277  -31.2805 H   0  0  0  0  0  0  0  0  0  0  0  0
   -7.5051   16.5942  -32.2186 H   0  0  0  0  0  0  0  0  0  0  0  0
   -7.9988   18.0663  -33.2003 H   0  0  0  0  0  0  0  0  0  0  0  0
   -7.2700   16.7190  -34.6980 H   0  0  0  0  0  0  0  0  0  0  0  0
   -5.0266   12.8464  -33.4182 H   0  0  0  0  0  0  0  0  0  0  0  0
   -6.7332   11.0635  -34.5188 H   0  0  0  0  0  0  0  0  0  0  0  0
   -8.6857   12.4923  -35.6583 H   0  0  0  0  0  0  0  0  0  0  0  0
   -4.9692   17.3093  -35.4396 H   0  0  0  0  0  0  0  0  0  0  0  0
   -6.3204   18.5449  -35.3087 H   0  0  0  0  0  0  0  0  0  0  0  0
   -3.9208   18.1825  -33.4902 H   0  0  0  0  0  0  0  0  0  0  0  0
   -4.3938   19.6146  -34.4820 H   0  0  0  0  0  0  0  0  0  0  0  0
   -7.7762   20.4918  -32.7595 H   0  0  0  0  0  0  0  0  0  0  0  0
   -9.4239   22.2732  -32.2095 H   0  0  0  0  0  0  0  0  0  0  0  0
   -8.6902   24.3334  -31.0213 H   0  0  0  0  0  0  0  0  0  0  0  0
   -6.2946   24.6599  -30.4357 H   0  0  0  0  0  0  0  0  0  0  0  0
  1  2  1  0
  2  3  1  0
  3  4  1  0
  4  5  2  0
  4  6  1  0
  6  7  2  0
  7  8  1  0
  8  9  2  0
  9 10  1  0
 10 11  1  0
 11 12  1  0
 12 13  1  0
 13 14  1  0
 14 15  2  0
 14 16  1  0
 16 17  2  0
 17 18  1  0
 18 19  2  0
 19 20  1  0
 13 21  1  0
 21 22  1  0
  9 23  1  0
 23 24  2  0
 24 25  1  0
 25 26  2  0
 26 27  1  0
 27 28  2  0
 28  6  1  0
 22 10  1  0
 28 23  1  0
 20 16  1  0
  1 29  1  0
  1 30  1  0
  1 31  1  0
  2 32  1  0
  2 33  1  0
  7 34  1  0
 11 35  1  0
 11 36  1  0
 12 37  1  0
 12 38  1  0
 13 39  1  0
 17 40  1  0
 18 41  1  0
 19 42  1  0
 21 43  1  0
 21 44  1  0
 22 45  1  0
 22 46  1  0
 24 47  1  0
 25 48  1  0
 26 49  1  0
 27 50  1  0
M  CHG  1  13   1
M  END
>  <UniqueID>  (19) 
19

>  <SMILES>  (19) 
CCOC(=O)c1cnc(N2CC[NH+](C(=O)c3ccco3)CC2)c2ccccc12

>  <Energy>  (19) 
104.27403814356856

>  <Genealogy>  (19) 
CCOC(=O)c1cnc(N2CC[NH+](C(=O)c3ccco3)CC2)c2ccccc12 (protonated)
CCOC(=O)c1cnc(N2CC[NH+](C(=O)c3ccco3)CC2)c2ccccc12 (3D coordinates assigned)
CCOC(=O)c1cnc(N2CC[NH+](C(=O)c3ccco3)CC2)c2ccccc12 (nonaromatic ring conformer: 104.27403814356856 kcal/mol)

>  <smiles>  (19) 
CCOC(=O)c1cnc(N2CCN(C(=O)c3ccco3)CC2)c2ccccc12

>  <score_type>  (19) 
oracle

>  <origin>  (19) 
adg

>  <m_score__min__energy>  (19) 
-8.0800000000000001

>  <m_primary>  (19) 
energy

$$$$
19:0
     RDKit          3D

 53 57  0  0  0  0  0  0  0  0999 V2000
   -2.1600   21.1570  -33.4380 C   0  0  0  0  0  0  0  0  0  0  0  0
   -3.5280   21.5000  -33.2480 O   0  0  0  0  0  0  0  0  0  0  0  0
   -4.5290   20.5960  -32.8590 C   0  0  0  0  0  0  0  0  0  0  0  0
   -4.5800   19.2770  -33.3500 C   0  0  0  0  0  0  0  0  0  0  0  0
   -5.5930   18.3930  -32.9350 C   0  0  0  0  0  0  0  0  0  0  0  0
   -5.6250   17.0070  -33.4580 C   0  0  0  0  0  0  0  0  0  0  0  0
   -6.8530   16.3750  -33.7210 C   0  0  0  0  0  0  0  0  0  0  0  0
   -6.8850   15.0700  -34.2220 C   0  0  0  0  0  0  0  0  0  0  0  0
   -5.6920   14.3850  -34.4700 C   0  0  0  0  0  0  0  0  0  0  0  0
   -5.7270   13.1210  -34.9590 F   0  0  0  0  0  0  0  0  0  0  0  0
   -4.4640   15.0060  -34.2170 C   0  0  0  0  0  0  0  0  0  0  0  0
   -3.3070   14.3460  -34.4660 F   0  0  0  0  0  0  0  0  0  0  0  0
   -4.4300   16.3110  -33.7140 C   0  0  0  0  0  0  0  0  0  0  0  0
   -6.5670   18.8460  -32.0260 C   0  0  0  0  0  0  0  0  0  0  0  0
   -7.5830   18.0340  -31.6330 F   0  0  0  0  0  0  0  0  0  0  0  0
   -6.5200   20.1530  -31.5390 C   0  0  0  0  0  0  0  0  0  0  0  0
   -5.5060   21.0270  -31.9480 C   0  0  0  0  0  0  0  0  0  0  0  0
   -5.4690   22.3710  -31.4290 N   0  0  0  0  0  0  0  0  0  0  0  0
   -6.4720   23.2390  -31.7870 C   0  0  0  0  0  0  0  0  0  0  0  0
   -7.4060   22.8630  -32.5480 O   0  0  0  0  0  0  0  0  0  0  0  0
   -6.4720   24.5550  -31.3210 C   0  0  0  0  0  0  0  0  0  0  0  0
   -5.4510   24.9940  -30.4870 C   0  0  0  0  0  0  0  0  0  0  0  0
   -4.4290   24.1180  -30.1160 C   0  0  0  0  0  0  0  0  0  0  0  0
   -3.3950   24.5530  -29.2730 C   0  0  0  0  0  0  0  0  0  0  0  0
   -2.3760   23.6730  -28.8930 C   0  0  0  0  0  0  0  0  0  0  0  0
   -1.0810   24.2120  -27.8270 S   0  0  0  0  0  0  0  0  0  0  0  0
    0.1940   24.4170  -28.5960 O   0  0  0  0  0  0  0  0  0  0  0  0
   -0.8530   23.1660  -26.7730 O   0  0  0  0  0  0  0  0  0  0  0  0
   -1.5280   25.7020  -27.0590 N   0  0  0  0  0  0  0  0  0  0  0  0
   -1.2010   26.0350  -25.8460 C   0  0  0  0  0  0  0  0  0  0  0  0
   -0.7940   25.1700  -24.8870 N   0  0  0  0  0  0  0  0  0  0  0  0
   -0.5150   25.8020  -23.7170 C   0  0  0  0  0  0  0  0  0  0  0  0
   -0.7040   27.1810  -23.7400 C   0  0  0  0  0  0  0  0  0  0  0  0
   -1.2350   27.6130  -25.2790 S   0  0  0  0  0  0  0  0  0  0  0  0
   -2.3870   22.3570  -29.3600 C   0  0  0  0  0  0  0  0  0  0  0  0
   -3.4080   21.9120  -30.2000 C   0  0  0  0  0  0  0  0  0  0  0  0
   -4.4480   22.7840  -30.5980 C   0  0  0  0  0  0  0  0  0  0  0  0
   -1.6732   21.0349  -32.4591 H   0  0  0  0  0  0  0  0  0  0  0  0
   -2.0931   20.2143  -34.0009 H   0  0  0  0  0  0  0  0  0  0  0  0
   -1.6562   21.9566  -34.0009 H   0  0  0  0  0  0  0  0  0  0  0  0
   -3.8190   18.9338  -34.0663 H   0  0  0  0  0  0  0  0  0  0  0  0
   -7.7948   16.9107  -33.5314 H   0  0  0  0  0  0  0  0  0  0  0  0
   -7.8503   14.5817  -34.4213 H   0  0  0  0  0  0  0  0  0  0  0  0
   -3.4624   16.7959  -33.5175 H   0  0  0  0  0  0  0  0  0  0  0  0
   -7.2853   20.4989  -30.8286 H   0  0  0  0  0  0  0  0  0  0  0  0
   -7.2788   25.2431  -31.6135 H   0  0  0  0  0  0  0  0  0  0  0  0
   -5.4479   26.0307  -30.1194 H   0  0  0  0  0  0  0  0  0  0  0  0
   -3.3856   25.5910  -28.9092 H   0  0  0  0  0  0  0  0  0  0  0  0
   -0.6990   24.1370  -25.0040 H   0  0  0  0  0  0  0  0  0  0  0  0
   -0.1670   25.2659  -22.8217 H   0  0  0  0  0  0  0  0  0  0  0  0
   -0.5357   27.8694  -22.8987 H   0  0  0  0  0  0  0  0  0  0  0  0
   -1.5843   21.6659  -29.0632 H   0  0  0  0  0  0  0  0  0  0  0  0
   -3.4042   20.8715  -30.5567 H   0  0  0  0  0  0  0  0  0  0  0  0
  1  2  1  0
  2  3  1  0
  3  4  2  0
  4  5  1  0
  5  6  1  0
  6  7  2  0
  7  8  1  0
  8  9  2  0
  9 10  1  0
  9 11  1  0
 11 12  1  0
 11 13  2  0
  5 14  2  0
 14 15  1  0
 14 16  1  0
 16 17  2  0
 17 18  1  0
 18 19  1  0
 19 20  2  0
 19 21  1  0
 21 22  2  0
 22 23  1  0
 23 24  2  0
 24 25  1  0
 25 26  1  0
 26 27  2  0
 26 28  2  0
 26 29  1  0
 29 30  2  3
 30 31  1  0
 31 32  1  0
 32 33  2  0
 33 34  1  0
 25 35  2  0
 35 36  1  0
 36 37  2  0
 17  3  1  0
 37 18  1  0
 13  6  1  0
 37 23  1  0
 34 30  1  0
  1 38  1  0
  1 39  1  0
  1 40  1  0
  4 41  1  0
  7 42  1  0
  8 43  1  0
 13 44  1  0
 16 45  1  0
 21 46  1  0
 22 47  1  0
 24 48  1  0
 31 49  1  0
 32 50  1  0
 33 51  1  0
 35 52  1  0
 36 53  1  0
M  END
>  <UniqueID>  (20) 
20

>  <SMILES>  (20) 
COc1cc(-c2ccc(F)c(F)c2)c(F)cc1-n1c(=O)ccc2cc(S(=O)(=O)N=c3[nH]ccs3)ccc21

>  <Energy>  (20) 
113.70676786316632

>  <Genealogy>  (20) 
COc1cc(-c2ccc(F)c(F)c2)c(F)cc1-n1c(=O)ccc2cc(S(=O)(=O)N=c3[nH]ccs3)ccc21 (3D coordinates assigned)
COc1cc(-c2ccc(F)c(F)c2)c(F)cc1-n1c(=O)ccc2cc(S(=O)(=O)N=c3[nH]ccs3)ccc21 (optimized conformer: 113.70676786316632 kcal/mol)

>  <smiles>  (20) 
COc1cc(-c2ccc(F)c(F)c2)c(F)cc1-n1c(=O)ccc2cc(S(=O)(=O)N=c3[nH]ccs3)ccc21

>  <score_type>  (20) 
oracle

>  <origin>  (20) 
adg

>  <m_score__min__energy>  (20) 
-10.050000000000001

>  <m_primary>  (20) 
energy

$$$$
20:0
     RDKit          3D

 52 54  0  0  0  0  0  0  0  0999 V2000
   -2.6280   18.5370  -33.6960 C   0  0  0  0  0  0  0  0  0  0  0  0
   -2.6930   19.9240  -34.0110 O   0  0  0  0  0  0  0  0  0  0  0  0
   -2.9940   20.9390  -33.0880 C   0  0  0  0  0  0  0  0  0  0  0  0
   -4.2250   21.6190  -33.0960 C   0  0  0  0  0  0  0  0  0  0  0  0
   -4.4760   22.6790  -32.2040 C   0  0  0  0  0  0  0  0  0  0  0  0
   -5.7750   23.4650  -32.2940 C   0  0  0  0  0  0  0  0  0  0  0  0
   -6.9800   22.6120  -32.1940 N   0  0  0  0  0  0  0  0  0  0  0  0
   -6.8830   21.7340  -31.0040 C   0  0  0  0  0  0  0  0  0  0  0  0
   -8.2580   21.2370  -30.4920 C   0  0  0  0  0  0  0  0  0  0  0  0
   -9.3030   21.2390  -31.5370 N   0  0  0  0  0  0  0  0  0  0  0  0
   -9.4540   19.9740  -32.2930 C   0  0  0  0  0  0  0  0  0  0  0  0
   -8.1530   19.2320  -32.4990 C   0  0  0  0  0  0  0  0  0  0  0  0
   -7.2340   19.6510  -33.4760 C   0  0  0  0  0  0  0  0  0  0  0  0
   -6.0220   18.9720  -33.6390 C   0  0  0  0  0  0  0  0  0  0  0  0
   -5.7210   17.8690  -32.8370 C   0  0  0  0  0  0  0  0  0  0  0  0
   -6.6360   17.4340  -31.8760 C   0  0  0  0  0  0  0  0  0  0  0  0
   -7.8490   18.1090  -31.7090 C   0  0  0  0  0  0  0  0  0  0  0  0
   -9.4090   22.4820  -32.3380 C   0  0  0  0  0  0  0  0  0  0  0  0
   -8.2110   23.4150  -32.1420 C   0  0  0  0  0  0  0  0  0  0  0  0
   -3.5080   22.9860  -31.2160 C   0  0  0  0  0  0  0  0  0  0  0  0
   -3.7540   23.9780  -30.2050 N   0  0  0  0  0  0  0  0  0  0  0  0
   -3.8590   25.1820  -30.5210 O   0  0  0  0  0  0  0  0  0  0  0  0
   -3.6660   23.6480  -28.8730 O   0  0  0  0  0  0  0  0  0  0  0  0
   -2.2840   22.2970  -31.2100 C   0  0  0  0  0  0  0  0  0  0  0  0
   -2.0200   21.2800  -32.1430 C   0  0  0  0  0  0  0  0  0  0  0  0
   -0.8020   20.5820  -32.1620 O   0  0  0  0  0  0  0  0  0  0  0  0
    0.2130   20.7550  -33.1450 C   0  0  0  0  0  0  0  0  0  0  0  0
   -2.6220   18.4090  -32.6035 H   0  0  0  0  0  0  0  0  0  0  0  0
   -3.5031   18.0232  -34.1206 H   0  0  0  0  0  0  0  0  0  0  0  0
   -1.7087   18.1073  -34.1206 H   0  0  0  0  0  0  0  0  0  0  0  0
   -5.0047   21.3177  -33.8110 H   0  0  0  0  0  0  0  0  0  0  0  0
   -5.7971   24.1989  -31.4749 H   0  0  0  0  0  0  0  0  0  0  0  0
   -5.7973   23.9481  -33.2820 H   0  0  0  0  0  0  0  0  0  0  0  0
   -6.2712   20.8582  -31.2659 H   0  0  0  0  0  0  0  0  0  0  0  0
   -6.4322   22.3300  -30.1968 H   0  0  0  0  0  0  0  0  0  0  0  0
   -8.1409   20.2097  -30.1165 H   0  0  0  0  0  0  0  0  0  0  0  0
   -8.5834   21.9305  -29.7026 H   0  0  0  0  0  0  0  0  0  0  0  0
  -10.1439   19.3192  -31.7406 H   0  0  0  0  0  0  0  0  0  0  0  0
   -9.8356   20.2383  -33.2903 H   0  0  0  0  0  0  0  0  0  0  0  0
   -7.4684   20.5155  -34.1145 H   0  0  0  0  0  0  0  0  0  0  0  0
   -5.3036   19.3079  -34.4013 H   0  0  0  0  0  0  0  0  0  0  0  0
   -4.7631   17.3429  -32.9623 H   0  0  0  0  0  0  0  0  0  0  0  0
   -6.4024   16.5600  -31.2502 H   0  0  0  0  0  0  0  0  0  0  0  0
   -8.5698   17.7595  -30.9552 H   0  0  0  0  0  0  0  0  0  0  0  0
   -9.4733   22.2106  -33.4021 H   0  0  0  0  0  0  0  0  0  0  0  0
  -10.3074   23.0194  -32.0003 H   0  0  0  0  0  0  0  0  0  0  0  0
   -8.1949   24.1709  -32.9410 H   0  0  0  0  0  0  0  0  0  0  0  0
   -8.2866   23.9261  -31.1709 H   0  0  0  0  0  0  0  0  0  0  0  0
   -1.5199   22.5577  -30.4629 H   0  0  0  0  0  0  0  0  0  0  0  0
    1.1804   20.9199  -32.6481 H   0  0  0  0  0  0  0  0  0  0  0  0
    0.2724   19.8540  -33.7733 H   0  0  0  0  0  0  0  0  0  0  0  0
   -0.0294   21.6248  -33.7733 H   0  0  0  0  0  0  0  0  0  0  0  0
  1  2  1  0
  2  3  1  0
  3  4  2  0
  4  5  1  0
  5  6  1  0
  6  7  1  0
  7  8  1  0
  8  9  1  0
  9 10  1  0
 10 11  1  0
 11 12  1  0
 12 13  2  0
 13 14  1  0
 14 15  2  0
 15 16  1  0
 16 17  2  0
 10 18  1  0
 18 19  1  0
  5 20  2  0
 20 21  1  0
 21 22  2  0
 21 23  1  0
 20 24  1  0
 24 25  2  0
 25 26  1  0
 26 27  1  0
 25  3  1  0
 19  7  1  0
 17 12  1  0
  1 28  1  0
  1 29  1  0
  1 30  1  0
  4 31  1  0
  6 32  1  0
  6 33  1  0
  8 34  1  0
  8 35  1  0
  9 36  1  0
  9 37  1  0
 11 38  1  0
 11 39  1  0
 13 40  1  0
 14 41  1  0
 15 42  1  0
 16 43  1  0
 17 44  1  0
 18 45  1  0
 18 46  1  0
 19 47  1  0
 19 48  1  0
 24 49  1  0
 27 50  1  0
 27 51  1  0
 27 52  1  0
M  CHG  2  21   1  23  -1
M  END
>  <UniqueID>  (21) 
21

>  <SMILES>  (21) 
COc1cc(CN2CCN(Cc3ccccc3)CC2)c([N+](=O)[O-])cc1OC

>  <Energy>  (21) 
72.92368842434054

>  <Genealogy>  (21) 
COc1cc(CN2CCN(Cc3ccccc3)CC2)c([N+](=O)[O-])cc1OC (3D coordinates assigned)
COc1cc(CN2CCN(Cc3ccccc3)CC2)c([N+](=O)[O-])cc1OC (nonaromatic ring conformer: 72.92368842434054 kcal/mol)

>  <smiles>  (21) 
COc1cc(CN2CCN(Cc3ccccc3)CC2)c([N+](=O)[O-])cc1OC

>  <score_type>  (21) 
oracle

>  <origin>  (21) 
adg

>  <m_score__min__energy>  (21) 
-8.8800000000000008

>  <m_primary>  (21) 
energy

$$$$
21:0
     RDKit          3D

 37 38  0  0  0  0  0  0  0  0999 V2000
   -3.5730   25.6710  -31.5900 H   0  0  0  0  0  0  0  0  0  0  0  0
   -3.8680   25.0520  -30.8060 N   0  0  0  0  0  0  0  0  0  0  0  0
   -5.0390   24.5030  -30.7140 C   0  0  0  0  0  0  0  0  0  0  0  0
   -5.9500   24.9060  -29.8090 N   0  0  0  0  0  0  0  0  0  0  0  0
   -5.8530   25.6730  -29.1070 H   0  0  0  0  0  0  0  0  0  0  0  0
   -7.0050   24.0900  -29.9760 C   0  0  0  0  0  0  0  0  0  0  0  0
   -7.9385   24.1197  -29.3948 H   0  0  0  0  0  0  0  0  0  0  0  0
   -6.7200   23.2080  -31.0000 C   0  0  0  0  0  0  0  0  0  0  0  0
   -7.6070   22.1130  -31.4390 C   0  0  0  0  0  0  0  0  0  0  0  0
   -8.9860   22.3240  -31.5830 C   0  0  0  0  0  0  0  0  0  0  0  0
   -9.4156   23.3133  -31.3669 H   0  0  0  0  0  0  0  0  0  0  0  0
   -9.8140   21.2810  -32.0000 C   0  0  0  0  0  0  0  0  0  0  0  0
  -10.8939   21.4531  -32.1190 H   0  0  0  0  0  0  0  0  0  0  0  0
   -9.2770   20.0190  -32.2670 C   0  0  0  0  0  0  0  0  0  0  0  0
   -9.9345   19.2027  -32.6009 H   0  0  0  0  0  0  0  0  0  0  0  0
   -7.8970   19.7890  -32.1100 C   0  0  0  0  0  0  0  0  0  0  0  0
   -7.3090   18.5410  -32.3590 O   0  0  0  0  0  0  0  0  0  0  0  0
   -6.3440   17.9230  -31.5130 C   0  0  0  0  0  0  0  0  0  0  0  0
   -6.6143   18.0961  -30.4609 H   0  0  0  0  0  0  0  0  0  0  0  0
   -6.3206   16.8415  -31.7124 H   0  0  0  0  0  0  0  0  0  0  0  0
   -5.3519   18.3542  -31.7124 H   0  0  0  0  0  0  0  0  0  0  0  0
   -7.0720   20.8400  -31.6890 C   0  0  0  0  0  0  0  0  0  0  0  0
   -5.9944   20.6657  -31.5531 H   0  0  0  0  0  0  0  0  0  0  0  0
   -5.4730   23.4600  -31.4700 N   0  0  0  0  0  0  0  0  0  0  0  0
   -4.7310   22.6850  -32.4760 C   0  0  0  0  0  0  0  0  0  0  0  0
   -5.3230   21.7988  -32.7483 H   0  0  0  0  0  0  0  0  0  0  0  0
   -4.5617   23.3354  -33.3468 H   0  0  0  0  0  0  0  0  0  0  0  0
   -3.3590   22.2240  -31.9560 C   0  0  0  0  0  0  0  0  0  0  0  0
   -2.5901   22.9003  -32.3578 H   0  0  0  0  0  0  0  0  0  0  0  0
   -3.4067   22.2485  -30.8573 H   0  0  0  0  0  0  0  0  0  0  0  0
   -2.9970   20.7820  -32.3590 C   0  0  0  0  0  0  0  0  0  0  0  0
   -2.0412   20.7977  -32.9033 H   0  0  0  0  0  0  0  0  0  0  0  0
   -2.9291   20.1855  -31.4373 H   0  0  0  0  0  0  0  0  0  0  0  0
   -4.0580   20.1370  -33.2510 C   0  0  0  0  0  0  0  0  0  0  0  0
   -4.8295   19.6680  -32.6226 H   0  0  0  0  0  0  0  0  0  0  0  0
   -4.5205   20.9069  -33.8861 H   0  0  0  0  0  0  0  0  0  0  0  0
   -3.5874   19.3720  -33.8861 H   0  0  0  0  0  0  0  0  0  0  0  0
  1  2  1  0
  2  3  2  0
  3  4  1  0
  4  5  1  0
  4  6  1  0
  6  7  1  0
  6  8  2  0
  8  9  1  0
  9 10  2  0
 10 11  1  0
 10 12  1  0
 12 13  1  0
 12 14  2  0
 14 15  1  0
 14 16  1  0
 16 17  1  0
 17 18  1  0
 18 19  1  0
 18 20  1  0
 18 21  1  0
 16 22  2  0
 22 23  1  0
  8 24  1  0
 24 25  1  0
 25 26  1  0
 25 27  1  0
 25 28  1  0
 28 29  1  0
 28 30  1  0
 28 31  1  0
 31 32  1  0
 31 33  1  0
 31 34  1  0
 34 35  1  0
 34 36  1  0
 34 37  1  0
 24  3  1  0
 22  9  1  0
M  END
>  <UniqueID>  (22) 
22

>  <SMILES>  (22) 
[H]/N=c1/[nH]cc(-c2cccc(OC)c2)n1CCCC

>  <Energy>  (22) 
69.62043047703033

>  <Genealogy>  (22) 
[H]/N=c1/[nH]cc(-c2cccc(OC)c2)n1CCCC (cis-trans isomerization)
[H]/N=c1/[nH]cc(-c2cccc(OC)c2)n1CCCC (3D coordinates assigned)
[H]/N=c1/[nH]cc(-c2cccc(OC)c2)n1CCCC (optimized conformer: 69.62043047703033 kcal/mol)

>  <smiles>  (22) 
CCCCn1c(-c2cccc(OC)c2)c[nH]c1=N

>  <score_type>  (22) 
oracle

>  <origin>  (22) 
adg

>  <m_score__min__energy>  (22) 
-6.9900000000000002

>  <m_primary>  (22) 
energy

$$$$
22:0
     RDKit          3D

 57 59  0  0  0  0  0  0  0  0999 V2000
   -0.6050   20.7330  -32.6750 C   0  0  0  0  0  0  0  0  0  0  0  0
    0.0910   20.8160  -31.4360 O   0  0  0  0  0  0  0  0  0  0  0  0
   -0.5070   20.6420  -30.1790 C   0  0  0  0  0  0  0  0  0  0  0  0
   -0.2770   19.4460  -29.4960 C   0  0  0  0  0  0  0  0  0  0  0  0
   -0.8410   19.2240  -28.2380 C   0  0  0  0  0  0  0  0  0  0  0  0
   -1.6550   20.2030  -27.6380 C   0  0  0  0  0  0  0  0  0  0  0  0
   -2.2310   20.0120  -26.3710 O   0  0  0  0  0  0  0  0  0  0  0  0
   -3.0800   18.9230  -26.0250 C   0  0  0  0  0  0  0  0  0  0  0  0
   -1.8980   21.4110  -28.3230 C   0  0  0  0  0  0  0  0  0  0  0  0
   -2.7400   22.4990  -27.6960 C   0  0  0  0  0  0  0  0  0  0  0  0
   -2.8170   23.7570  -28.5750 C   0  0  0  0  0  0  0  0  0  0  0  0
   -4.2670   24.2040  -28.8340 C   0  0  0  0  0  0  0  0  0  0  0  0
   -4.5310   24.3770  -30.2820 N   0  0  0  0  0  0  0  0  0  0  0  0
   -3.9640   23.2510  -31.0700 C   0  0  0  0  0  0  0  0  0  0  0  0
   -5.0180   22.1740  -31.3630 C   0  0  0  0  0  0  0  0  0  0  0  0
   -6.1180   22.7160  -32.2010 N   0  0  0  0  0  0  0  0  0  0  0  0
   -7.3410   21.8710  -32.1540 C   0  0  0  0  0  0  0  0  0  0  0  0
   -7.1300   20.4270  -32.5710 C   0  0  0  0  0  0  0  0  0  0  0  0
   -7.8660   19.3940  -31.9620 C   0  0  0  0  0  0  0  0  0  0  0  0
   -7.6800   18.0640  -32.3520 C   0  0  0  0  0  0  0  0  0  0  0  0
   -6.7400   17.7480  -33.3370 C   0  0  0  0  0  0  0  0  0  0  0  0
   -6.4880   15.9320  -33.8710 Br  0  0  0  0  0  0  0  0  0  0  0  0
   -5.9740   18.7620  -33.9190 C   0  0  0  0  0  0  0  0  0  0  0  0
   -6.1590   20.0930  -33.5320 C   0  0  0  0  0  0  0  0  0  0  0  0
   -6.3820   24.1620  -31.9650 C   0  0  0  0  0  0  0  0  0  0  0  0
   -5.9760   24.6060  -30.5500 C   0  0  0  0  0  0  0  0  0  0  0  0
   -1.3200   21.6240  -29.5870 C   0  0  0  0  0  0  0  0  0  0  0  0
   -1.6806   20.6047  -32.4835 H   0  0  0  0  0  0  0  0  0  0  0  0
   -0.4425   21.6569  -33.2495 H   0  0  0  0  0  0  0  0  0  0  0  0
   -0.2298   19.8732  -33.2495 H   0  0  0  0  0  0  0  0  0  0  0  0
    0.3550   18.6707  -29.9537 H   0  0  0  0  0  0  0  0  0  0  0  0
   -0.6478   18.2773  -27.7122 H   0  0  0  0  0  0  0  0  0  0  0  0
   -3.1437   18.8413  -24.9299 H   0  0  0  0  0  0  0  0  0  0  0  0
   -4.0845   19.0953  -26.4389 H   0  0  0  0  0  0  0  0  0  0  0  0
   -2.6679   17.9909  -26.4389 H   0  0  0  0  0  0  0  0  0  0  0  0
   -3.7583   22.1130  -27.5410 H   0  0  0  0  0  0  0  0  0  0  0  0
   -2.2683   22.7826  -26.7436 H   0  0  0  0  0  0  0  0  0  0  0  0
   -2.2803   24.5739  -28.0704 H   0  0  0  0  0  0  0  0  0  0  0  0
   -2.3618   23.5155  -29.5468 H   0  0  0  0  0  0  0  0  0  0  0  0
   -4.9527   23.4426  -28.4340 H   0  0  0  0  0  0  0  0  0  0  0  0
   -4.4241   25.1723  -28.3362 H   0  0  0  0  0  0  0  0  0  0  0  0
   -3.5793   23.6417  -32.0236 H   0  0  0  0  0  0  0  0  0  0  0  0
   -3.1590   22.7903  -30.4785 H   0  0  0  0  0  0  0  0  0  0  0  0
   -4.5395   21.3384  -31.8948 H   0  0  0  0  0  0  0  0  0  0  0  0
   -5.4427   21.8319  -30.4077 H   0  0  0  0  0  0  0  0  0  0  0  0
   -5.7810   22.6470  -33.1910 H   0  0  0  0  0  0  0  0  0  0  0  0
   -7.7227   21.8775  -31.1224 H   0  0  0  0  0  0  0  0  0  0  0  0
   -8.0461   22.3040  -32.8788 H   0  0  0  0  0  0  0  0  0  0  0  0
   -8.5935   19.6345  -31.1728 H   0  0  0  0  0  0  0  0  0  0  0  0
   -8.2741   17.2657  -31.8831 H   0  0  0  0  0  0  0  0  0  0  0  0
   -5.2236   18.5123  -34.6835 H   0  0  0  0  0  0  0  0  0  0  0  0
   -5.5410   20.8839  -33.9822 H   0  0  0  0  0  0  0  0  0  0  0  0
   -5.8103   24.7502  -32.6980 H   0  0  0  0  0  0  0  0  0  0  0  0
   -7.4640   24.3284  -32.0724 H   0  0  0  0  0  0  0  0  0  0  0  0
   -6.1909   25.6792  -30.4402 H   0  0  0  0  0  0  0  0  0  0  0  0
   -6.5521   24.0065  -29.8298 H   0  0  0  0  0  0  0  0  0  0  0  0
   -1.5060   22.5691  -30.1182 H   0  0  0  0  0  0  0  0  0  0  0  0
  1  2  1  0
  2  3  1  0
  3  4  2  0
  4  5  1  0
  5  6  2  0
  6  7  1  0
  7  8  1  0
  6  9  1  0
  9 10  1  0
 10 11  1  0
 11 12  1  0
 12 13  1  0
 13 14  1  0
 14 15  1  0
 15 16  1  0
 16 17  1  0
 17 18  1  0
 18 19  2  0
 19 20  1  0
 20 21  2  0
 21 22  1  0
 21 23  1  0
 23 24  2  0
 16 25  1  0
 25 26  1  0
  9 27  2  0
 27  3  1  0
 26 13  1  0
 24 18  1  0
  1 28  1  0
  1 29  1  0
  1 30  1  0
  4 31  1  0
  5 32  1  0
  8 33  1  0
  8 34  1  0
  8 35  1  0
 10 36  1  0
 10 37  1  0
 11 38  1  0
 11 39  1  0
 12 40  1  0
 12 41  1  0
 14 42  1  0
 14 43  1  0
 15 44  1  0
 15 45  1  0
 16 46  1  0
 17 47  1  0
 17 48  1  0
 19 49  1  0
 20 50  1  0
 23 51  1  0
 24 52  1  0
 25 53  1  0
 25 54  1  0
 26 55  1  0
 26 56  1  0
 27 57  1  0
M  CHG  1  16   1
M  END
>  <UniqueID>  (23) 
23

>  <SMILES>  (23) 
COc1ccc(OC)c(CCCN2CC[NH+](Cc3ccc(Br)cc3)CC2)c1

>  <Energy>  (23) 
69.79554151008294

>  <Genealogy>  (23) 
COc1ccc(OC)c(CCCN2CC[NH+](Cc3ccc(Br)cc3)CC2)c1 (protonated)
COc1ccc(OC)c(CCCN2CC[NH+](Cc3ccc(Br)cc3)CC2)c1 (3D coordinates assigned)
COc1ccc(OC)c(CCCN2CC[NH+](Cc3ccc(Br)cc3)CC2)c1 (nonaromatic ring conformer: 69.79554151008294 kcal/mol)

>  <smiles>  (23) 
COc1ccc(OC)c(CCCN2CCN(Cc3ccc(Br)cc3)CC2)c1

>  <score_type>  (23) 
oracle

>  <origin>  (23) 
adg

>  <m_score__min__energy>  (23) 
-8.4199999999999999

>  <m_primary>  (23) 
energy

$$$$
23:0
     RDKit          3D

 46 47  0  0  0  0  0  0  0  0999 V2000
   -6.0100   17.6160  -34.5890 C   0  0  0  0  0  0  0  0  0  0  0  0
   -5.5980   18.9680  -34.4280 O   0  0  0  0  0  0  0  0  0  0  0  0
   -4.3600   19.3190  -33.8780 C   0  0  0  0  0  0  0  0  0  0  0  0
   -3.2920   18.8690  -34.3750 O   0  0  0  0  0  0  0  0  0  0  0  0
   -4.2780   20.2430  -32.6910 C   0  0  0  0  0  0  0  0  0  0  0  0
   -5.3740   21.3400  -32.6800 C   0  0  1  0  0  0  0  0  0  0  0  0
   -6.8030   20.9720  -32.2500 C   0  0  0  0  0  0  0  0  0  0  0  0
   -7.2800   19.7120  -31.7780 C   0  0  0  0  0  0  0  0  0  0  0  0
   -6.4380   18.5740  -31.5050 C   0  0  0  0  0  0  0  0  0  0  0  0
   -5.7800   17.6470  -31.2880 N   0  0  0  0  0  0  0  0  0  0  0  0
   -8.6430   19.5500  -31.4890 C   0  0  0  0  0  0  0  0  0  0  0  0
   -9.5330   20.6120  -31.6230 C   0  0  0  0  0  0  0  0  0  0  0  0
   -9.0740   21.8630  -32.0170 C   0  0  0  0  0  0  0  0  0  0  0  0
   -7.7170   22.0560  -32.3040 C   0  0  0  0  0  0  0  0  0  0  0  0
   -7.2130   23.4330  -32.6650 C   0  0  0  0  0  0  0  0  0  0  0  0
   -5.8840   23.7240  -31.9400 C   0  0  0  0  0  0  0  0  0  0  0  0
   -4.9860   22.5540  -31.9260 N   0  0  0  0  0  0  0  0  0  0  0  0
   -3.7210   22.6910  -31.2560 C   0  0  0  0  0  0  0  0  0  0  0  0
   -2.6630   22.5600  -31.9310 O   0  0  0  0  0  0  0  0  0  0  0  0
   -3.6250   23.0510  -29.7770 C   0  0  0  0  0  0  0  0  0  0  0  0
   -2.5170   22.1980  -29.1240 C   0  0  0  0  0  0  0  0  0  0  0  0
   -4.9520   22.7770  -29.0320 C   0  0  0  0  0  0  0  0  0  0  0  0
   -3.2460   24.5440  -29.6310 C   0  0  0  0  0  0  0  0  0  0  0  0
   -3.5250   25.2490  -30.8100 O   0  0  0  0  0  0  0  0  0  0  0  0
   -6.1504   17.1552  -33.6001 H   0  0  0  0  0  0  0  0  0  0  0  0
   -6.9582   17.5855  -35.1457 H   0  0  0  0  0  0  0  0  0  0  0  0
   -5.2400   17.0618  -35.1457 H   0  0  0  0  0  0  0  0  0  0  0  0
   -4.3785   19.6421  -31.7752 H   0  0  0  0  0  0  0  0  0  0  0  0
   -3.3076   20.7577  -32.7499 H   0  0  0  0  0  0  0  0  0  0  0  0
   -5.4282   21.5162  -33.7644 H   0  0  0  0  0  0  0  0  0  0  0  0
   -9.0136   18.5707  -31.1520 H   0  0  0  0  0  0  0  0  0  0  0  0
  -10.6027   20.4604  -31.4164 H   0  0  0  0  0  0  0  0  0  0  0  0
   -9.7782   22.7036  -32.1036 H   0  0  0  0  0  0  0  0  0  0  0  0
   -7.0527   23.4872  -33.7519 H   0  0  0  0  0  0  0  0  0  0  0  0
   -7.9597   24.1794  -32.3562 H   0  0  0  0  0  0  0  0  0  0  0  0
   -5.3757   24.5539  -32.4527 H   0  0  0  0  0  0  0  0  0  0  0  0
   -6.1191   23.9802  -30.8964 H   0  0  0  0  0  0  0  0  0  0  0  0
   -2.6015   22.2630  -28.0292 H   0  0  0  0  0  0  0  0  0  0  0  0
   -2.6278   21.1498  -29.4387 H   0  0  0  0  0  0  0  0  0  0  0  0
   -1.5320   22.5732  -29.4387 H   0  0  0  0  0  0  0  0  0  0  0  0
   -4.7773   22.8131  -27.9466 H   0  0  0  0  0  0  0  0  0  0  0  0
   -5.6930   23.5411  -29.3097 H   0  0  0  0  0  0  0  0  0  0  0  0
   -5.3297   21.7819  -29.3097 H   0  0  0  0  0  0  0  0  0  0  0  0
   -3.8234   24.9828  -28.8039 H   0  0  0  0  0  0  0  0  0  0  0  0
   -2.1674   24.6142  -29.4267 H   0  0  0  0  0  0  0  0  0  0  0  0
   -3.1140   24.7270  -31.5480 H   0  0  0  0  0  0  0  0  0  0  0  0
  1  2  1  0
  2  3  1  0
  3  4  2  0
  3  5  1  0
  5  6  1  0
  6  7  1  0
  7  8  2  0
  8  9  1  0
  9 10  3  0
  8 11  1  0
 11 12  2  0
 12 13  1  0
 13 14  2  0
 14 15  1  0
 15 16  1  0
 16 17  1  0
 17 18  1  0
 18 19  2  0
 18 20  1  0
 20 21  1  0
 20 22  1  0
 20 23  1  0
 23 24  1  0
 17  6  1  0
 14  7  1  0
  1 25  1  0
  1 26  1  0
  1 27  1  0
  5 28  1  0
  5 29  1  0
  6 30  1  6
 11 31  1  0
 12 32  1  0
 13 33  1  0
 15 34  1  0
 15 35  1  0
 16 36  1  0
 16 37  1  0
 21 38  1  0
 21 39  1  0
 21 40  1  0
 22 41  1  0
 22 42  1  0
 22 43  1  0
 23 44  1  0
 23 45  1  0
 24 46  1  0
M  END
>  <UniqueID>  (24) 
24

>  <SMILES>  (24) 
COC(=O)C[C@H]1c2c(C#N)cccc2CCN1C(=O)C(C)(C)CO

>  <Energy>  (24) 
62.329267454164935

>  <Genealogy>  (24) 
COC(=O)C[C@H]1c2c(C#N)cccc2CCN1C(=O)C(C)(C)CO (chirality)
COC(=O)C[C@H]1c2c(C#N)cccc2CCN1C(=O)C(C)(C)CO (3D coordinates assigned)
COC(=O)C[C@H]1c2c(C#N)cccc2CCN1C(=O)C(C)(C)CO (nonaromatic ring conformer: 62.329267454164935 kcal/mol)

>  <smiles>  (24) 
COC(=O)CC1c2c(C#N)cccc2CCN1C(=O)C(C)(C)CO

>  <score_type>  (24) 
oracle

>  <origin>  (24) 
adg

>  <m_score__min__energy>  (24) 
-7.9400000000000004

>  <m_primary>  (24) 
energy

$$$$
24:0
     RDKit          3D

 41 43  0  0  0  0  0  0  0  0999 V2000
   -3.8520   16.6680  -35.3430 C   0  0  0  0  0  0  0  0  0  0  0  0
   -3.9880   17.2030  -33.9790 N   0  0  0  0  0  0  0  0  0  0  0  0
   -2.7350   17.0570  -33.2220 C   0  0  0  0  0  0  0  0  0  0  0  0
   -5.1640   16.6640  -33.2590 C   0  0  0  0  0  0  0  0  0  0  0  0
   -6.2810   17.6970  -32.9980 C   0  0  0  0  0  0  0  0  0  0  0  0
   -6.1140   18.8710  -33.8710 N   0  0  0  0  0  0  0  0  0  0  0  0
   -6.0950   20.0980  -33.0860 C   0  0  0  0  0  0  0  0  0  0  0  0
   -7.3020   20.6340  -32.5560 C   0  0  0  0  0  0  0  0  0  0  0  0
   -8.5670   20.0710  -32.8670 C   0  0  0  0  0  0  0  0  0  0  0  0
   -9.7420   20.6020  -32.3390 C   0  0  0  0  0  0  0  0  0  0  0  0
   -9.6940   21.7030  -31.4980 C   0  0  0  0  0  0  0  0  0  0  0  0
   -8.4720   22.2950  -31.1950 C   0  0  0  0  0  0  0  0  0  0  0  0
   -7.2610   21.7880  -31.7250 C   0  0  0  0  0  0  0  0  0  0  0  0
   -6.0290   22.4190  -31.4400 C   0  0  0  0  0  0  0  0  0  0  0  0
   -6.0800   24.2450  -30.7800 Br  0  0  0  0  0  0  0  0  0  0  0  0
   -4.8120   21.8390  -31.8790 C   0  0  0  0  0  0  0  0  0  0  0  0
   -3.5310   22.3000  -31.4450 C   0  0  0  0  0  0  0  0  0  0  0  0
   -3.2010   23.2760  -29.8190 Br  0  0  0  0  0  0  0  0  0  0  0  0
   -2.3720   21.8610  -32.0890 C   0  0  0  0  0  0  0  0  0  0  0  0
   -2.4430   20.9320  -33.1120 C   0  0  0  0  0  0  0  0  0  0  0  0
   -3.6620   20.3630  -33.4540 C   0  0  0  0  0  0  0  0  0  0  0  0
   -4.8610   20.7580  -32.8100 C   0  0  0  0  0  0  0  0  0  0  0  0
   -3.5813   15.6030  -35.2938 H   0  0  0  0  0  0  0  0  0  0  0  0
   -4.8070   16.7793  -35.8774 H   0  0  0  0  0  0  0  0  0  0  0  0
   -3.0661   17.2218  -35.8774 H   0  0  0  0  0  0  0  0  0  0  0  0
   -2.9528   17.0824  -32.1441 H   0  0  0  0  0  0  0  0  0  0  0  0
   -2.2616   16.0976  -33.4780 H   0  0  0  0  0  0  0  0  0  0  0  0
   -2.0537   17.8818  -33.4780 H   0  0  0  0  0  0  0  0  0  0  0  0
   -5.5872   15.8435  -33.8571 H   0  0  0  0  0  0  0  0  0  0  0  0
   -4.8044   16.3349  -32.2729 H   0  0  0  0  0  0  0  0  0  0  0  0
   -7.2575   17.2325  -33.1994 H   0  0  0  0  0  0  0  0  0  0  0  0
   -6.2247   18.0236  -31.9491 H   0  0  0  0  0  0  0  0  0  0  0  0
   -6.8670   18.8990  -34.5940 H   0  0  0  0  0  0  0  0  0  0  0  0
   -5.2460   18.7810  -34.4440 H   0  0  0  0  0  0  0  0  0  0  0  0
   -8.6209   19.2000  -33.5367 H   0  0  0  0  0  0  0  0  0  0  0  0
  -10.7110   20.1460  -32.5903 H   0  0  0  0  0  0  0  0  0  0  0  0
  -10.6226   22.1088  -31.0700 H   0  0  0  0  0  0  0  0  0  0  0  0
   -8.4462   23.1724  -30.5320 H   0  0  0  0  0  0  0  0  0  0  0  0
   -1.3936   22.2575  -31.7800 H   0  0  0  0  0  0  0  0  0  0  0  0
   -1.5312   20.6437  -33.6556 H   0  0  0  0  0  0  0  0  0  0  0  0
   -3.6980   19.5924  -34.2382 H   0  0  0  0  0  0  0  0  0  0  0  0
  1  2  1  0
  2  3  1  0
  2  4  1  0
  4  5  1  0
  5  6  1  0
  6  7  1  0
  7  8  2  0
  8  9  1  0
  9 10  2  0
 10 11  1  0
 11 12  2  0
 12 13  1  0
 13 14  2  0
 14 15  1  0
 14 16  1  0
 16 17  2  0
 17 18  1  0
 17 19  1  0
 19 20  2  0
 20 21  1  0
 21 22  2  0
 22  7  1  0
 13  8  1  0
 22 16  1  0
  1 23  1  0
  1 24  1  0
  1 25  1  0
  3 26  1  0
  3 27  1  0
  3 28  1  0
  4 29  1  0
  4 30  1  0
  5 31  1  0
  5 32  1  0
  6 33  1  0
  6 34  1  0
  9 35  1  0
 10 36  1  0
 11 37  1  0
 12 38  1  0
 19 39  1  0
 20 40  1  0
 21 41  1  0
M  CHG  1   6   1
M  END
>  <UniqueID>  (25) 
25

>  <SMILES>  (25) 
CN(C)CC[NH2+]c1c2ccccc2c(Br)c2c(Br)cccc12

>  <Energy>  (25) 
78.98658017470963

>  <Genealogy>  (25) 
CN(C)CC[NH2+]c1c2ccccc2c(Br)c2c(Br)cccc12 (protonated)
CN(C)CC[NH2+]c1c2ccccc2c(Br)c2c(Br)cccc12 (3D coordinates assigned)
CN(C)CC[NH2+]c1c2ccccc2c(Br)c2c(Br)cccc12 (optimized conformer: 78.98658017470963 kcal/mol)

>  <smiles>  (25) 
CN(C)CCNc1c2ccccc2c(Br)c2c(Br)cccc12

>  <score_type>  (25) 
oracle

>  <origin>  (25) 
adg

>  <m_score__min__energy>  (25) 
-8.8000000000000007

>  <m_primary>  (25) 
energy

$$$$
25:0
     RDKit          3D

 33 35  0  0  0  0  0  0  0  0999 V2000
   -2.8100   19.7870  -27.2300 C   0  0  0  0  0  0  0  0  0  0  0  0
   -2.8170   20.1300  -28.6540 N   0  0  0  0  0  0  0  0  0  0  0  0
   -2.6220   21.5500  -28.8260 C   0  0  0  0  0  0  0  0  0  0  0  0
   -1.4780   22.1700  -28.2960 C   0  0  0  0  0  0  0  0  0  0  0  0
   -1.2630   23.5360  -28.4720 C   0  0  0  0  0  0  0  0  0  0  0  0
   -2.1760   24.3120  -29.1900 C   0  0  0  0  0  0  0  0  0  0  0  0
   -1.9200   25.6710  -29.3420 O   0  0  0  0  0  0  0  0  0  0  0  0
   -3.3270   23.7120  -29.7490 C   0  0  0  0  0  0  0  0  0  0  0  0
   -4.2790   24.4300  -30.5010 C   0  0  0  0  0  0  0  0  0  0  0  0
   -4.1510   25.6660  -30.7170 O   0  0  0  0  0  0  0  0  0  0  0  0
   -5.3860   23.7640  -31.0270 C   0  0  0  0  0  0  0  0  0  0  0  0
   -5.5360   22.3930  -30.7900 C   0  0  0  0  0  0  0  0  0  0  0  0
   -6.6800   21.6380  -31.3430 C   0  0  0  0  0  0  0  0  0  0  0  0
   -7.9710   21.9530  -30.8860 C   0  0  0  0  0  0  0  0  0  0  0  0
   -9.0840   21.2630  -31.3740 C   0  0  0  0  0  0  0  0  0  0  0  0
   -8.9220   20.2600  -32.3310 C   0  0  0  0  0  0  0  0  0  0  0  0
   -7.6470   19.9540  -32.8130 C   0  0  0  0  0  0  0  0  0  0  0  0
   -6.5240   20.6380  -32.3330 C   0  0  0  0  0  0  0  0  0  0  0  0
   -4.9620   20.2740  -33.0610 Cl  0  0  0  0  0  0  0  0  0  0  0  0
   -4.6180   21.7370  -30.0860 O   0  0  0  0  0  0  0  0  0  0  0  0
   -3.5430   22.3230  -29.5620 C   0  0  0  0  0  0  0  0  0  0  0  0
   -2.8288   20.7092  -26.6306 H   0  0  0  0  0  0  0  0  0  0  0  0
   -3.6959   19.1788  -26.9950 H   0  0  0  0  0  0  0  0  0  0  0  0
   -1.9000   19.2154  -26.9950 H   0  0  0  0  0  0  0  0  0  0  0  0
   -3.7310   19.8360  -29.0700 H   0  0  0  0  0  0  0  0  0  0  0  0
   -2.0610   19.5970  -29.1420 H   0  0  0  0  0  0  0  0  0  0  0  0
   -0.7443   21.5712  -27.7363 H   0  0  0  0  0  0  0  0  0  0  0  0
   -0.3668   24.0069  -28.0418 H   0  0  0  0  0  0  0  0  0  0  0  0
   -6.1329   24.3105  -31.6216 H   0  0  0  0  0  0  0  0  0  0  0  0
   -8.1065   22.7486  -30.1386 H   0  0  0  0  0  0  0  0  0  0  0  0
  -10.0895   21.5108  -31.0032 H   0  0  0  0  0  0  0  0  0  0  0  0
   -9.7982   19.7105  -32.7057 H   0  0  0  0  0  0  0  0  0  0  0  0
   -7.5247   19.1701  -33.5750 H   0  0  0  0  0  0  0  0  0  0  0  0
  1  2  1  0
  2  3  1  0
  3  4  2  0
  4  5  1  0
  5  6  2  0
  6  7  1  0
  6  8  1  0
  8  9  1  0
  9 10  2  0
  9 11  1  0
 11 12  2  0
 12 13  1  0
 13 14  2  0
 14 15  1  0
 15 16  2  0
 16 17  1  0
 17 18  2  0
 18 19  1  0
 12 20  1  0
 20 21  1  0
 21  3  1  0
 21  8  2  0
 18 13  1  0
  1 22  1  0
  1 23  1  0
  1 24  1  0
  2 25  1  0
  2 26  1  0
  4 27  1  0
  5 28  1  0
 11 29  1  0
 14 30  1  0
 15 31  1  0
 16 32  1  0
 17 33  1  0
M  CHG  2   2   1   7  -1
M  END
>  <UniqueID>  (26) 
26

>  <SMILES>  (26) 
C[NH2+]c1ccc([O-])c2c(=O)cc(-c3ccccc3Cl)oc12

>  <Energy>  (26) 
49.30470939516998

>  <Genealogy>  (26) 
C[NH2+]c1ccc([O-])c2c(=O)cc(-c3ccccc3Cl)oc12 (protonated)
C[NH2+]c1ccc([O-])c2c(=O)cc(-c3ccccc3Cl)oc12 (3D coordinates assigned)
C[NH2+]c1ccc([O-])c2c(=O)cc(-c3ccccc3Cl)oc12 (optimized conformer: 49.30470939516998 kcal/mol)

>  <smiles>  (26) 
CNc1ccc(O)c2c(=O)cc(-c3ccccc3Cl)oc12

>  <score_type>  (26) 
oracle

>  <origin>  (26) 
adg

>  <m_score__min__energy>  (26) 
-10.75

>  <m_primary>  (26) 
energy

$$$$
26:0
     RDKit          3D

 34 36  0  0  0  0  0  0  0  0999 V2000
   -1.6790   25.0170  -28.6220 C   0  0  0  0  0  0  0  0  0  0  0  0
   -2.8310   24.2890  -27.9400 C   0  0  0  0  0  0  0  0  0  0  0  0
   -3.9820   24.2180  -28.8370 N   0  0  0  0  0  0  0  0  0  0  0  0
   -5.1020   24.9210  -28.6950 N   0  0  0  0  0  0  0  0  0  0  0  0
   -5.9280   24.6670  -29.7390 C   0  0  0  0  0  0  0  0  0  0  0  0
   -5.2820   23.7730  -30.5710 C   0  0  0  0  0  0  0  0  0  0  0  0
   -5.6060   23.1580  -31.7720 C   0  0  0  0  0  0  0  0  0  0  0  0
   -7.1800   23.4370  -32.5870 S   0  0  0  0  0  0  0  0  0  0  0  0
   -8.1250   22.3220  -31.4890 C   0  0  0  0  0  0  0  0  0  0  0  0
   -7.9420   20.8850  -31.8920 C   0  0  0  0  0  0  0  0  0  0  0  0
   -8.7350   19.8830  -31.3070 C   0  0  0  0  0  0  0  0  0  0  0  0
   -8.5870   18.5490  -31.7030 C   0  0  0  0  0  0  0  0  0  0  0  0
   -7.6530   18.2080  -32.6850 C   0  0  0  0  0  0  0  0  0  0  0  0
   -6.8650   19.2000  -33.2740 C   0  0  0  0  0  0  0  0  0  0  0  0
   -7.0070   20.5350  -32.8810 C   0  0  0  0  0  0  0  0  0  0  0  0
   -4.6810   22.3180  -32.3230 N   0  0  0  0  0  0  0  0  0  0  0  0
   -3.4740   22.0830  -31.7140 C   0  0  0  0  0  0  0  0  0  0  0  0
   -3.1640   22.6910  -30.5280 N   0  0  0  0  0  0  0  0  0  0  0  0
   -4.0830   23.5230  -29.9820 C   0  0  0  0  0  0  0  0  0  0  0  0
   -1.0095   25.4401  -27.8587 H   0  0  0  0  0  0  0  0  0  0  0  0
   -1.1182   24.3089  -29.2498 H   0  0  0  0  0  0  0  0  0  0  0  0
   -2.0778   25.8274  -29.2498 H   0  0  0  0  0  0  0  0  0  0  0  0
   -2.5120   23.2698  -27.6763 H   0  0  0  0  0  0  0  0  0  0  0  0
   -3.1165   24.8390  -27.0312 H   0  0  0  0  0  0  0  0  0  0  0  0
   -5.2980   25.5740  -27.9040 H   0  0  0  0  0  0  0  0  0  0  0  0
   -6.9294   25.0944  -29.8953 H   0  0  0  0  0  0  0  0  0  0  0  0
   -7.7735   22.4530  -30.4549 H   0  0  0  0  0  0  0  0  0  0  0  0
   -9.1926   22.5746  -31.5686 H   0  0  0  0  0  0  0  0  0  0  0  0
   -9.4736   20.1479  -30.5361 H   0  0  0  0  0  0  0  0  0  0  0  0
   -9.2072   17.7671  -31.2403 H   0  0  0  0  0  0  0  0  0  0  0  0
   -7.5383   17.1586  -32.9942 H   0  0  0  0  0  0  0  0  0  0  0  0
   -6.1315   18.9307  -34.0483 H   0  0  0  0  0  0  0  0  0  0  0  0
   -6.3850   21.3131  -33.3475 H   0  0  0  0  0  0  0  0  0  0  0  0
   -2.7499   21.4005  -32.1829 H   0  0  0  0  0  0  0  0  0  0  0  0
  1  2  1  0
  2  3  1  0
  3  4  1  0
  4  5  2  0
  5  6  1  0
  6  7  2  0
  7  8  1  0
  8  9  1  0
  9 10  1  0
 10 11  2  0
 11 12  1  0
 12 13  2  0
 13 14  1  0
 14 15  2  0
  7 16  1  0
 16 17  2  0
 17 18  1  0
 18 19  2  0
 19  3  1  0
 19  6  1  0
 15 10  1  0
  1 20  1  0
  1 21  1  0
  1 22  1  0
  2 23  1  0
  2 24  1  0
  4 25  1  0
  5 26  1  0
  9 27  1  0
  9 28  1  0
 11 29  1  0
 12 30  1  0
 13 31  1  0
 14 32  1  0
 15 33  1  0
 17 34  1  0
M  CHG  1   4   1
M  END
>  <UniqueID>  (27) 
27

>  <SMILES>  (27) 
CCn1[nH+]cc2c(SCc3ccccc3)ncnc21

>  <Energy>  (27) 
70.36317111533786

>  <Genealogy>  (27) 
CCn1[nH+]cc2c(SCc3ccccc3)ncnc21 (protonated)
CCn1[nH+]cc2c(SCc3ccccc3)ncnc21 (3D coordinates assigned)
CCn1[nH+]cc2c(SCc3ccccc3)ncnc21 (optimized conformer: 70.36317111533786 kcal/mol)

>  <smiles>  (27) 
CCn1ncc2c(SCc3ccccc3)ncnc21

>  <score_type>  (27) 
oracle

>  <origin>  (27) 
adg

>  <m_score__min__energy>  (27) 
-6.79

>  <m_primary>  (27) 
energy

$$$$
27:0
     RDKit          3D

 62 64  0  0  0  0  0  0  0  0999 V2000
   -6.0990   16.9900  -34.6040 C   0  0  0  0  0  0  0  0  0  0  0  0
   -5.5280   18.3880  -34.3560 C   0  0  0  0  0  0  0  0  0  0  0  0
   -5.1060   18.5670  -32.9450 N   0  0  0  0  0  0  0  0  0  0  0  0
   -5.6240   17.4360  -32.1370 C   0  0  0  0  0  0  0  0  0  0  0  0
   -6.7930   17.8480  -31.2430 C   0  0  0  0  0  0  0  0  0  0  0  0
   -3.6260   18.6850  -32.8410 C   0  0  0  0  0  0  0  0  0  0  0  0
   -3.0070   19.2140  -34.1460 C   0  0  0  0  0  0  0  0  0  0  0  0
   -2.3210   20.4550  -33.9650 O   0  0  0  0  0  0  0  0  0  0  0  0
   -2.2100   21.1690  -32.7590 C   0  0  0  0  0  0  0  0  0  0  0  0
   -1.0000   21.2280  -32.0420 C   0  0  0  0  0  0  0  0  0  0  0  0
   -0.9050   21.9650  -30.8630 C   0  0  0  0  0  0  0  0  0  0  0  0
   -2.0230   22.6370  -30.3500 C   0  0  0  0  0  0  0  0  0  0  0  0
   -1.9190   23.4160  -29.0900 C   0  0  0  0  0  0  0  0  0  0  0  0
   -0.6620   23.7930  -28.5830 C   0  0  0  0  0  0  0  0  0  0  0  0
   -0.5680   24.5160  -27.3920 C   0  0  0  0  0  0  0  0  0  0  0  0
   -1.7220   24.8760  -26.6940 C   0  0  0  0  0  0  0  0  0  0  0  0
   -2.9850   24.5260  -27.1930 C   0  0  0  0  0  0  0  0  0  0  0  0
   -4.2250   24.8750  -26.4240 C   0  0  0  0  0  0  0  0  0  0  0  0
   -3.0790   23.7840  -28.3820 C   0  0  0  0  0  0  0  0  0  0  0  0
   -3.2420   22.5520  -31.0400 C   0  0  0  0  0  0  0  0  0  0  0  0
   -3.3490   21.8370  -32.2480 C   0  0  0  0  0  0  0  0  0  0  0  0
   -4.6400   21.7150  -32.8930 N   0  0  0  0  0  0  0  0  0  0  0  0
   -5.6710   22.5510  -32.2550 C   0  0  0  0  0  0  0  0  0  0  0  0
   -7.0090   21.8570  -32.1850 C   0  0  0  0  0  0  0  0  0  0  0  0
   -8.0130   22.3320  -31.3250 C   0  0  0  0  0  0  0  0  0  0  0  0
   -9.2330   21.6560  -31.2270 C   0  0  0  0  0  0  0  0  0  0  0  0
   -9.4620   20.5090  -31.9900 C   0  0  0  0  0  0  0  0  0  0  0  0
   -8.4710   20.0360  -32.8550 C   0  0  0  0  0  0  0  0  0  0  0  0
   -7.2500   20.7080  -32.9570 C   0  0  0  0  0  0  0  0  0  0  0  0
   -6.2994   16.4995  -33.6400 H   0  0  0  0  0  0  0  0  0  0  0  0
   -7.0355   17.0724  -35.1751 H   0  0  0  0  0  0  0  0  0  0  0  0
   -5.3726   16.3932  -35.1751 H   0  0  0  0  0  0  0  0  0  0  0  0
   -4.6566   18.5382  -35.0103 H   0  0  0  0  0  0  0  0  0  0  0  0
   -6.3164   19.1235  -34.5736 H   0  0  0  0  0  0  0  0  0  0  0  0
   -5.9626   16.6411  -32.8178 H   0  0  0  0  0  0  0  0  0  0  0  0
   -4.8091   17.0876  -31.4854 H   0  0  0  0  0  0  0  0  0  0  0  0
   -6.5013   17.7452  -30.1874 H   0  0  0  0  0  0  0  0  0  0  0  0
   -7.0610   18.8948  -31.4491 H   0  0  0  0  0  0  0  0  0  0  0  0
   -7.6581   17.2006  -31.4491 H   0  0  0  0  0  0  0  0  0  0  0  0
   -3.3798   19.3776  -32.0227 H   0  0  0  0  0  0  0  0  0  0  0  0
   -3.2139   17.6839  -32.6458 H   0  0  0  0  0  0  0  0  0  0  0  0
   -2.2925   18.4683  -34.5247 H   0  0  0  0  0  0  0  0  0  0  0  0
   -3.8275   19.3874  -34.8578 H   0  0  0  0  0  0  0  0  0  0  0  0
   -0.1192   20.6860  -32.4167 H   0  0  0  0  0  0  0  0  0  0  0  0
    0.0558   22.0198  -30.3303 H   0  0  0  0  0  0  0  0  0  0  0  0
    0.2525   23.5165  -29.1282 H   0  0  0  0  0  0  0  0  0  0  0  0
    0.4197   24.8031  -27.0022 H   0  0  0  0  0  0  0  0  0  0  0  0
   -1.6405   25.4355  -25.7504 H   0  0  0  0  0  0  0  0  0  0  0  0
   -4.0163   24.8163  -25.3456 H   0  0  0  0  0  0  0  0  0  0  0  0
   -4.5406   25.8969  -26.6813 H   0  0  0  0  0  0  0  0  0  0  0  0
   -5.0272   24.1678  -26.6813 H   0  0  0  0  0  0  0  0  0  0  0  0
   -4.0674   23.4879  -28.7632 H   0  0  0  0  0  0  0  0  0  0  0  0
   -4.1307   23.0535  -30.6292 H   0  0  0  0  0  0  0  0  0  0  0  0
   -4.9430   20.7150  -32.8260 H   0  0  0  0  0  0  0  0  0  0  0  0
   -4.5920   21.9410  -33.9130 H   0  0  0  0  0  0  0  0  0  0  0  0
   -5.3455   22.7955  -31.2331 H   0  0  0  0  0  0  0  0  0  0  0  0
   -5.7940   23.4577  -32.8655 H   0  0  0  0  0  0  0  0  0  0  0  0
   -7.8389   23.2386  -30.7268 H   0  0  0  0  0  0  0  0  0  0  0  0
  -10.0139   22.0283  -30.5476 H   0  0  0  0  0  0  0  0  0  0  0  0
  -10.4220   19.9779  -31.9103 H   0  0  0  0  0  0  0  0  0  0  0  0
   -8.6526   19.1331  -33.4565 H   0  0  0  0  0  0  0  0  0  0  0  0
   -6.4752   20.3363  -33.6437 H   0  0  0  0  0  0  0  0  0  0  0  0
  1  2  1  0
  2  3  1  0
  3  4  1  0
  4  5  1  0
  3  6  1  0
  6  7  1  0
  7  8  1  0
  8  9  1  0
  9 10  2  0
 10 11  1  0
 11 12  2  0
 12 13  1  0
 13 14  2  0
 14 15  1  0
 15 16  2  0
 16 17  1  0
 17 18  1  0
 17 19  2  0
 12 20  1  0
 20 21  2  0
 21 22  1  0
 22 23  1  0
 23 24  1  0
 24 25  2  0
 25 26  1  0
 26 27  2  0
 27 28  1  0
 28 29  2  0
 21  9  1  0
 29 24  1  0
 19 13  1  0
  1 30  1  0
  1 31  1  0
  1 32  1  0
  2 33  1  0
  2 34  1  0
  4 35  1  0
  4 36  1  0
  5 37  1  0
  5 38  1  0
  5 39  1  0
  6 40  1  0
  6 41  1  0
  7 42  1  0
  7 43  1  0
 10 44  1  0
 11 45  1  0
 14 46  1  0
 15 47  1  0
 16 48  1  0
 18 49  1  0
 18 50  1  0
 18 51  1  0
 19 52  1  0
 20 53  1  0
 22 54  1  0
 22 55  1  0
 23 56  1  0
 23 57  1  0
 25 58  1  0
 26 59  1  0
 27 60  1  0
 28 61  1  0
 29 62  1  0
M  CHG  1  22   1
M  END
>  <UniqueID>  (28) 
28

>  <SMILES>  (28) 
CCN(CC)CCOc1ccc(-c2cccc(C)c2)cc1[NH2+]Cc1ccccc1

>  <Energy>  (28) 
65.88600583660734

>  <Genealogy>  (28) 
CCN(CC)CCOc1ccc(-c2cccc(C)c2)cc1[NH2+]Cc1ccccc1 (protonated)
CCN(CC)CCOc1ccc(-c2cccc(C)c2)cc1[NH2+]Cc1ccccc1 (3D coordinates assigned)
CCN(CC)CCOc1ccc(-c2cccc(C)c2)cc1[NH2+]Cc1ccccc1 (optimized conformer: 65.88600583660734 kcal/mol)

>  <smiles>  (28) 
CCN(CC)CCOc1ccc(-c2cccc(C)c2)cc1NCc1ccccc1

>  <score_type>  (28) 
oracle

>  <origin>  (28) 
adg

>  <m_score__min__energy>  (28) 
-7.8300000000000001

>  <m_primary>  (28) 
energy

$$$$
28:0
     RDKit          3D

 35 36  0  0  0  0  0  0  0  0999 V2000
    1.3930   25.2370  -26.7250 C   0  0  0  0  0  0  0  0  0  0  0  0
    0.9490   24.5420  -27.8860 O   0  0  0  0  0  0  0  0  0  0  0  0
   -0.3230   23.9680  -28.0290 C   0  0  0  0  0  0  0  0  0  0  0  0
   -0.7510   23.0580  -27.0570 C   0  0  0  0  0  0  0  0  0  0  0  0
   -2.0080   22.4580  -27.1540 C   0  0  0  0  0  0  0  0  0  0  0  0
   -2.8510   22.7630  -28.2240 C   0  0  0  0  0  0  0  0  0  0  0  0
   -2.4450   23.6750  -29.2150 C   0  0  0  0  0  0  0  0  0  0  0  0
   -3.3410   23.9970  -30.3490 C   0  0  0  0  0  0  0  0  0  0  0  0
   -3.6410   23.1060  -31.1910 O   0  0  0  0  0  0  0  0  0  0  0  0
   -3.8670   25.3220  -30.5000 N   0  0  0  0  0  0  0  0  0  0  0  0
   -5.2920   25.6340  -30.4920 C   0  0  0  0  0  0  0  0  0  0  0  0
   -6.0450   24.6680  -29.5740 C   0  0  0  0  0  0  0  0  0  0  0  0
   -6.7170   23.5890  -30.3780 C   0  0  0  0  0  0  0  0  0  0  0  0
   -6.5410   23.5300  -31.7710 C   0  0  0  0  0  0  0  0  0  0  0  0
   -7.1920   22.5460  -32.5220 C   0  0  0  0  0  0  0  0  0  0  0  0
   -8.0290   21.6220  -31.8910 C   0  0  0  0  0  0  0  0  0  0  0  0
   -8.2210   21.6830  -30.5070 C   0  0  0  0  0  0  0  0  0  0  0  0
   -7.5720   22.6640  -29.7520 C   0  0  0  0  0  0  0  0  0  0  0  0
   -1.1750   24.2740  -29.1090 C   0  0  0  0  0  0  0  0  0  0  0  0
    1.0521   24.7034  -25.8255 H   0  0  0  0  0  0  0  0  0  0  0  0
    2.4918   25.2887  -26.7264 H   0  0  0  0  0  0  0  0  0  0  0  0
    0.9780   26.2557  -26.7264 H   0  0  0  0  0  0  0  0  0  0  0  0
   -0.0928   22.8133  -26.2103 H   0  0  0  0  0  0  0  0  0  0  0  0
   -2.3350   21.7428  -26.3849 H   0  0  0  0  0  0  0  0  0  0  0  0
   -3.8401   22.2866  -28.2927 H   0  0  0  0  0  0  0  0  0  0  0  0
   -5.4356   26.6631  -30.1311 H   0  0  0  0  0  0  0  0  0  0  0  0
   -5.6848   25.5336  -31.5145 H   0  0  0  0  0  0  0  0  0  0  0  0
   -5.3336   24.2067  -28.8732 H   0  0  0  0  0  0  0  0  0  0  0  0
   -6.8132   25.2294  -29.0220 H   0  0  0  0  0  0  0  0  0  0  0  0
   -5.8889   24.2603  -32.2725 H   0  0  0  0  0  0  0  0  0  0  0  0
   -7.0449   22.4994  -33.6111 H   0  0  0  0  0  0  0  0  0  0  0  0
   -8.5370   20.8464  -32.4829 H   0  0  0  0  0  0  0  0  0  0  0  0
   -8.8837   20.9579  -30.0120 H   0  0  0  0  0  0  0  0  0  0  0  0
   -7.7304   22.7128  -28.6646 H   0  0  0  0  0  0  0  0  0  0  0  0
   -0.8445   24.9884  -29.8774 H   0  0  0  0  0  0  0  0  0  0  0  0
  1  2  1  0
  2  3  1  0
  3  4  2  0
  4  5  1  0
  5  6  2  0
  6  7  1  0
  7  8  1  0
  8  9  2  0
  8 10  1  0
 10 11  1  0
 11 12  1  0
 12 13  1  0
 13 14  2  0
 14 15  1  0
 15 16  2  0
 16 17  1  0
 17 18  2  0
  7 19  2  0
 19  3  1  0
 18 13  1  0
  1 20  1  0
  1 21  1  0
  1 22  1  0
  4 23  1  0
  5 24  1  0
  6 25  1  0
 11 26  1  0
 11 27  1  0
 12 28  1  0
 12 29  1  0
 14 30  1  0
 15 31  1  0
 16 32  1  0
 17 33  1  0
 18 34  1  0
 19 35  1  0
M  CHG  1  10  -1
M  END
>  <UniqueID>  (29) 
29

>  <SMILES>  (29) 
COc1cccc(C(=O)[N-]CCc2ccccc2)c1

>  <Energy>  (29) 
31.138860916576974

>  <Genealogy>  (29) 
COc1cccc(C(=O)[N-]CCc2ccccc2)c1 (protonated)
COc1cccc(C(=O)[N-]CCc2ccccc2)c1 (3D coordinates assigned)
COc1cccc(C(=O)[N-]CCc2ccccc2)c1 (optimized conformer: 31.138860916576974 kcal/mol)

>  <smiles>  (29) 
COc1cccc(C(=O)NCCc2ccccc2)c1

>  <score_type>  (29) 
oracle

>  <origin>  (29) 
adg

>  <m_score__min__energy>  (29) 
-8.2799999999999994

>  <m_primary>  (29) 
energy

$$$$
29:0
     RDKit          3D

 33 34  0  0  0  0  0  0  0  0999 V2000
   -6.3640   25.3050  -29.5660 C   0  0  0  0  0  0  0  0  0  0  0  0
   -5.2190   25.7280  -30.4760 C   0  0  0  0  0  0  0  0  0  0  0  0
   -4.1640   24.7060  -30.4640 N   0  0  0  0  0  0  0  0  0  0  0  0
   -4.7080   23.3600  -30.7070 C   0  0  0  0  0  0  0  0  0  0  0  0
   -5.4970   23.3300  -32.0190 C   0  0  0  0  0  0  0  0  0  0  0  0
   -5.9200   21.9330  -32.3850 C   0  0  0  0  0  0  0  0  0  0  0  0
   -5.1450   20.9430  -32.9980 C   0  0  0  0  0  0  0  0  0  0  0  0
   -3.7040   21.0700  -33.3790 C   0  0  0  0  0  0  0  0  0  0  0  0
   -5.8990   19.8550  -33.2880 N   0  0  0  0  0  0  0  0  0  0  0  0
   -7.1380   20.1540  -32.8630 C   0  0  0  0  0  0  0  0  0  0  0  0
   -8.2370   19.3670  -32.9840 N   0  0  0  0  0  0  0  0  0  0  0  0
   -9.4430   19.8350  -32.5380 C   0  0  0  0  0  0  0  0  0  0  0  0
   -9.5440   21.1240  -31.9670 C   0  0  0  0  0  0  0  0  0  0  0  0
   -8.3990   21.9310  -31.8520 C   0  0  0  0  0  0  0  0  0  0  0  0
   -7.1950   21.4040  -32.3130 C   0  0  0  0  0  0  0  0  0  0  0  0
   -6.0583   25.4179  -28.5154 H   0  0  0  0  0  0  0  0  0  0  0  0
   -7.2417   25.9382  -29.7626 H   0  0  0  0  0  0  0  0  0  0  0  0
   -6.6192   24.2532  -29.7626 H   0  0  0  0  0  0  0  0  0  0  0  0
   -5.5956   25.8508  -31.5022 H   0  0  0  0  0  0  0  0  0  0  0  0
   -4.8034   26.6802  -30.1147 H   0  0  0  0  0  0  0  0  0  0  0  0
   -3.4890   24.9350  -31.2320 H   0  0  0  0  0  0  0  0  0  0  0  0
   -3.8788   22.6396  -30.7665 H   0  0  0  0  0  0  0  0  0  0  0  0
   -5.3824   23.0939  -29.8798 H   0  0  0  0  0  0  0  0  0  0  0  0
   -6.3945   23.9565  -31.9092 H   0  0  0  0  0  0  0  0  0  0  0  0
   -4.8448   23.7103  -32.8189 H   0  0  0  0  0  0  0  0  0  0  0  0
   -3.0877   21.1243  -32.4695 H   0  0  0  0  0  0  0  0  0  0  0  0
   -3.4035   20.1949  -33.9738 H   0  0  0  0  0  0  0  0  0  0  0  0
   -3.5612   21.9842  -33.9738 H   0  0  0  0  0  0  0  0  0  0  0  0
   -5.5920   18.9800  -33.7680 H   0  0  0  0  0  0  0  0  0  0  0  0
   -8.1680   18.4190  -33.4170 H   0  0  0  0  0  0  0  0  0  0  0  0
  -10.3398   19.2039  -32.6244 H   0  0  0  0  0  0  0  0  0  0  0  0
  -10.5172   21.4950  -31.6132 H   0  0  0  0  0  0  0  0  0  0  0  0
   -8.4517   22.9391  -31.4151 H   0  0  0  0  0  0  0  0  0  0  0  0
  1  2  1  0
  2  3  1  0
  3  4  1  0
  4  5  1  0
  5  6  1  0
  6  7  2  0
  7  8  1  0
  7  9  1  0
  9 10  1  0
 10 11  2  0
 11 12  1  0
 12 13  2  0
 13 14  1  0
 14 15  2  0
 15  6  1  0
 15 10  1  0
  1 16  1  0
  1 17  1  0
  1 18  1  0
  2 19  1  0
  2 20  1  0
  3 21  1  0
  4 22  1  0
  4 23  1  0
  5 24  1  0
  5 25  1  0
  8 26  1  0
  8 27  1  0
  8 28  1  0
  9 29  1  0
 11 30  1  0
 12 31  1  0
 13 32  1  0
 14 33  1  0
M  CHG  1  11   1
M  END
>  <UniqueID>  (30) 
30

>  <SMILES>  (30) 
CCNCCc1c(C)[nH]c2[nH+]cccc12

>  <Energy>  (30) 
58.54104349736914

>  <Genealogy>  (30) 
CCNCCc1c(C)[nH]c2[nH+]cccc12 (protonated)
CCNCCc1c(C)[nH]c2[nH+]cccc12 (3D coordinates assigned)
CCNCCc1c(C)[nH]c2[nH+]cccc12 (optimized conformer: 58.54104349736914 kcal/mol)

>  <smiles>  (30) 
CCNCCc1c(C)[nH]c2ncccc12

>  <score_type>  (30) 
oracle

>  <origin>  (30) 
adg

>  <m_score__min__energy>  (30) 
-6.5

>  <m_primary>  (30) 
energy

$$$$
30:0
     RDKit          3D

 42 42  0  0  0  0  0  0  0  0999 V2000
   -6.8216   25.2716  -30.8058 H   0  0  0  0  0  0  0  0  0  0  0  0
   -6.2310   24.4360  -30.4020 C   0  0  0  0  0  0  0  0  0  0  0  0
   -4.7770   24.6470  -30.2590 C   0  0  0  0  0  0  0  0  0  0  0  0
   -4.2490   25.6380  -30.8340 O   0  0  0  0  0  0  0  0  0  0  0  0
   -3.9960   23.7960  -29.4710 O   0  0  0  0  0  0  0  0  0  0  0  0
   -4.0320   23.8120  -28.0480 C   0  0  0  0  0  0  0  0  0  0  0  0
   -5.0679   23.6633  -27.7092 H   0  0  0  0  0  0  0  0  0  0  0  0
   -3.6550   24.7817  -27.6908 H   0  0  0  0  0  0  0  0  0  0  0  0
   -3.1470   22.6910  -27.4810 C   0  0  0  0  0  0  0  0  0  0  0  0
   -3.7346   22.1421  -26.7304 H   0  0  0  0  0  0  0  0  0  0  0  0
   -2.2562   23.1881  -27.0696 H   0  0  0  0  0  0  0  0  0  0  0  0
   -2.6430   21.7080  -28.4770 N   0  0  0  0  0  0  0  0  0  0  0  0
   -3.3340   21.7890  -29.2630 H   0  0  0  0  0  0  0  0  0  0  0  0
   -1.3310   22.1010  -29.0550 C   0  0  0  0  0  0  0  0  0  0  0  0
   -0.5446   21.4785  -28.6032 H   0  0  0  0  0  0  0  0  0  0  0  0
   -1.1731   23.1677  -28.8375 H   0  0  0  0  0  0  0  0  0  0  0  0
   -1.2890   21.9210  -30.5770 C   0  0  0  0  0  0  0  0  0  0  0  0
   -1.0450   20.8754  -30.8160 H   0  0  0  0  0  0  0  0  0  0  0  0
   -2.2706   22.1752  -31.0035 H   0  0  0  0  0  0  0  0  0  0  0  0
   -0.5213   22.5833  -31.0035 H   0  0  0  0  0  0  0  0  0  0  0  0
   -2.7470   20.2910  -28.0200 C   0  0  0  0  0  0  0  0  0  0  0  0
   -3.8131   20.0600  -27.8783 H   0  0  0  0  0  0  0  0  0  0  0  0
   -2.2573   19.6900  -28.8004 H   0  0  0  0  0  0  0  0  0  0  0  0
   -2.0130   19.9510  -26.7110 C   0  0  0  0  0  0  0  0  0  0  0  0
   -2.6386   20.2408  -25.8539 H   0  0  0  0  0  0  0  0  0  0  0  0
   -1.8153   18.8696  -26.6717 H   0  0  0  0  0  0  0  0  0  0  0  0
   -1.0603   20.4995  -26.6717 H   0  0  0  0  0  0  0  0  0  0  0  0
   -6.8960   23.3150  -30.0830 C   0  0  0  0  0  0  0  0  0  0  0  0
   -7.1671   23.1712  -29.0267 H   0  0  0  0  0  0  0  0  0  0  0  0
   -7.2940   22.2570  -31.0370 C   0  0  0  0  0  0  0  0  0  0  0  0
   -8.6600   21.9570  -31.1900 C   0  0  0  0  0  0  0  0  0  0  0  0
   -9.4121   22.5546  -30.6540 H   0  0  0  0  0  0  0  0  0  0  0  0
   -9.0700   20.9100  -32.0140 C   0  0  0  0  0  0  0  0  0  0  0  0
  -10.1420   20.7010  -32.1448 H   0  0  0  0  0  0  0  0  0  0  0  0
   -8.1230   20.1280  -32.6720 C   0  0  0  0  0  0  0  0  0  0  0  0
   -8.4485   19.3036  -33.3234 H   0  0  0  0  0  0  0  0  0  0  0  0
   -6.7620   20.3890  -32.5060 C   0  0  0  0  0  0  0  0  0  0  0  0
   -6.0212   19.7565  -33.0171 H   0  0  0  0  0  0  0  0  0  0  0  0
   -6.3260   21.4510  -31.6930 C   0  0  0  0  0  0  0  0  0  0  0  0
   -4.9110   21.7020  -31.5700 N   0  0  0  0  0  0  0  0  0  0  0  0
   -4.2460   21.1970  -30.6430 O   0  0  0  0  0  0  0  0  0  0  0  0
   -4.2990   22.6170  -32.3960 O   0  0  0  0  0  0  0  0  0  0  0  0
  1  2  1  0
  2  3  1  0
  3  4  2  0
  3  5  1  0
  5  6  1  0
  6  7  1  0
  6  8  1  0
  6  9  1  0
  9 10  1  0
  9 11  1  0
  9 12  1  0
 12 13  1  0
 12 14  1  0
 14 15  1  0
 14 16  1  0
 14 17  1  0
 17 18  1  0
 17 19  1  0
 17 20  1  0
 12 21  1  0
 21 22  1  0
 21 23  1  0
 21 24  1  0
 24 25  1  0
 24 26  1  0
 24 27  1  0
  2 28  2  0
 28 29  1  0
 28 30  1  0
 30 31  2  0
 31 32  1  0
 31 33  1  0
 33 34  1  0
 33 35  2  0
 35 36  1  0
 35 37  1  0
 37 38  1  0
 37 39  2  0
 39 40  1  0
 40 41  2  0
 40 42  1  0
 39 30  1  0
M  CHG  3  12   1  40   1  42  -1
M  END
>  <UniqueID>  (31) 
31

>  <SMILES>  (31) 
CC[NH+](CC)CCOC(=O)/C=C\c1ccccc1[N+](=O)[O-]

>  <Energy>  (31) 
52.80801609869181

>  <Genealogy>  (31) 
CC[NH+](CC)CCOC(=O)C=Cc1ccccc1[N+](=O)[O-] (protonated)
CC[NH+](CC)CCOC(=O)/C=C\c1ccccc1[N+](=O)[O-] (cis-trans isomerization)
CC[NH+](CC)CCOC(=O)/C=C\c1ccccc1[N+](=O)[O-] (3D coordinates assigned)
CC[NH+](CC)CCOC(=O)/C=C\c1ccccc1[N+](=O)[O-] (optimized conformer: 52.80801609869181 kcal/mol)

>  <smiles>  (31) 
CCN(CC)CCOC(=O)C=Cc1ccccc1[N+](=O)[O-]

>  <score_type>  (31) 
oracle

>  <origin>  (31) 
adg

>  <m_score__min__energy>  (31) 
-5.6799999999999997

>  <m_primary>  (31) 
energy

$$$$
31:0
     RDKit          3D

 45 47  0  0  0  0  0  0  0  0999 V2000
   -6.2480   25.3030  -29.8670 C   0  0  0  0  0  0  0  0  0  0  0  0
   -5.1910   24.8050  -30.8470 C   0  0  0  0  0  0  0  0  0  0  0  0
   -3.8720   25.3070  -30.4740 N   0  0  0  0  0  0  0  0  0  0  0  0
   -2.8730   24.5920  -29.7330 C   0  0  0  0  0  0  0  0  0  0  0  0
   -2.1400   25.2420  -28.9390 O   0  0  0  0  0  0  0  0  0  0  0  0
   -2.6090   23.1170  -29.9490 C   0  0  0  0  0  0  0  0  0  0  0  0
   -3.1100   22.2750  -28.7680 C   0  0  0  0  0  0  0  0  0  0  0  0
   -2.9180   20.7710  -29.0500 C   0  0  0  0  0  0  0  0  0  0  0  0
   -1.6710   20.4430  -29.7950 N   0  0  0  0  0  0  0  0  0  0  0  0
   -1.9280   20.0300  -31.1920 C   0  0  0  0  0  0  0  0  0  0  0  0
   -3.1840   20.6600  -31.7100 C   0  0  0  0  0  0  0  0  0  0  0  0
   -4.4250   20.2460  -31.4020 N   0  0  0  0  0  0  0  0  0  0  0  0
   -5.2040   21.0950  -32.1060 C   0  0  0  0  0  0  0  0  0  0  0  0
   -6.6880   21.0760  -32.1280 C   0  0  0  0  0  0  0  0  0  0  0  0
   -7.4000   19.9310  -32.5330 C   0  0  0  0  0  0  0  0  0  0  0  0
   -8.7990   19.9350  -32.5470 C   0  0  0  0  0  0  0  0  0  0  0  0
   -9.5020   21.0770  -32.1580 C   0  0  0  0  0  0  0  0  0  0  0  0
   -8.8070   22.2180  -31.7540 C   0  0  0  0  0  0  0  0  0  0  0  0
   -7.4090   22.2210  -31.7380 C   0  0  0  0  0  0  0  0  0  0  0  0
   -4.4570   21.9790  -32.8030 N   0  0  0  0  0  0  0  0  0  0  0  0
   -3.2210   21.6780  -32.5330 O   0  0  0  0  0  0  0  0  0  0  0  0
   -0.6320   21.4920  -29.6830 C   0  0  0  0  0  0  0  0  0  0  0  0
   -1.1060   22.8660  -30.2020 C   0  0  0  0  0  0  0  0  0  0  0  0
   -5.8992   25.1387  -28.8368 H   0  0  0  0  0  0  0  0  0  0  0  0
   -6.4208   26.3772  -30.0287 H   0  0  0  0  0  0  0  0  0  0  0  0
   -7.1864   24.7523  -30.0287 H   0  0  0  0  0  0  0  0  0  0  0  0
   -5.1763   23.7052  -30.8358 H   0  0  0  0  0  0  0  0  0  0  0  0
   -5.4392   25.1704  -31.8544 H   0  0  0  0  0  0  0  0  0  0  0  0
   -3.1715   22.8036  -30.8408 H   0  0  0  0  0  0  0  0  0  0  0  0
   -2.5449   22.5479  -27.8646 H   0  0  0  0  0  0  0  0  0  0  0  0
   -4.1821   22.4732  -28.6222 H   0  0  0  0  0  0  0  0  0  0  0  0
   -2.8941   20.2399  -28.0870 H   0  0  0  0  0  0  0  0  0  0  0  0
   -3.7581   20.4597  -29.6882 H   0  0  0  0  0  0  0  0  0  0  0  0
   -1.0818   20.3419  -31.8218 H   0  0  0  0  0  0  0  0  0  0  0  0
   -2.0440   18.9365  -31.2209 H   0  0  0  0  0  0  0  0  0  0  0  0
   -4.6930   19.4560  -30.7760 H   0  0  0  0  0  0  0  0  0  0  0  0
   -6.8529   19.0275  -32.8404 H   0  0  0  0  0  0  0  0  0  0  0  0
   -9.3468   19.0358  -32.8654 H   0  0  0  0  0  0  0  0  0  0  0  0
  -10.6019   21.0774  -32.1699 H   0  0  0  0  0  0  0  0  0  0  0  0
   -9.3608   23.1175  -31.4473 H   0  0  0  0  0  0  0  0  0  0  0  0
   -6.8685   23.1242  -31.4185 H   0  0  0  0  0  0  0  0  0  0  0  0
   -0.3501   21.5950  -28.6247 H   0  0  0  0  0  0  0  0  0  0  0  0
    0.2196   21.1803  -30.3056 H   0  0  0  0  0  0  0  0  0  0  0  0
   -0.5282   23.6519  -29.6935 H   0  0  0  0  0  0  0  0  0  0  0  0
   -0.9469   22.8811  -31.2903 H   0  0  0  0  0  0  0  0  0  0  0  0
  1  2  1  0
  2  3  1  0
  3  4  1  0
  4  5  2  0
  4  6  1  0
  6  7  1  0
  7  8  1  0
  8  9  1  0
  9 10  1  0
 10 11  1  0
 11 12  2  0
 12 13  1  0
 13 14  1  0
 14 15  2  0
 15 16  1  0
 16 17  2  0
 17 18  1  0
 18 19  2  0
 13 20  2  0
 20 21  1  0
  9 22  1  0
 22 23  1  0
 23  6  1  0
 21 11  1  0
 19 14  1  0
  1 24  1  0
  1 25  1  0
  1 26  1  0
  2 27  1  0
  2 28  1  0
  6 29  1  0
  7 30  1  0
  7 31  1  0
  8 32  1  0
  8 33  1  0
 10 34  1  0
 10 35  1  0
 12 36  1  0
 15 37  1  0
 16 38  1  0
 17 39  1  0
 18 40  1  0
 19 41  1  0
 22 42  1  0
 22 43  1  0
 23 44  1  0
 23 45  1  0
M  CHG  2   3  -1  12   1
M  END
>  <UniqueID>  (32) 
32

>  <SMILES>  (32) 
CC[N-]C(=O)C1CCN(Cc2[nH+]c(-c3ccccc3)no2)CC1

>  <Energy>  (32) 
87.47403366113622

>  <Genealogy>  (32) 
CC[N-]C(=O)C1CCN(Cc2[nH+]c(-c3ccccc3)no2)CC1 (protonated)
CC[N-]C(=O)C1CCN(Cc2[nH+]c(-c3ccccc3)no2)CC1 (3D coordinates assigned)
CC[N-]C(=O)C1CCN(Cc2[nH+]c(-c3ccccc3)no2)CC1 (nonaromatic ring conformer: 87.47403366113622 kcal/mol)

>  <smiles>  (32) 
CCNC(=O)C1CCN(Cc2nc(-c3ccccc3)no2)CC1

>  <score_type>  (32) 
oracle

>  <origin>  (32) 
adg

>  <m_score__min__energy>  (32) 
-9.3000000000000007

>  <m_primary>  (32) 
energy

$$$$
32:0
     RDKit          3D

 50 52  0  0  0  0  0  0  0  0999 V2000
   -3.1000   23.1060  -30.9440 C   0  0  0  0  0  0  0  0  0  0  0  0
   -3.4970   24.3670  -30.4560 O   0  0  0  0  0  0  0  0  0  0  0  0
   -4.1040   24.2110  -29.1900 C   0  0  0  0  0  0  0  0  0  0  0  0
   -5.5240   23.6590  -29.3580 C   0  0  0  0  0  0  0  0  0  0  0  0
   -6.3790   24.5700  -30.1510 N   0  0  0  0  0  0  0  0  0  0  0  0
   -6.0550   25.9900  -29.9150 C   0  0  0  0  0  0  0  0  0  0  0  0
   -6.3600   24.2320  -31.5930 C   0  0  0  0  0  0  0  0  0  0  0  0
   -6.7400   22.7950  -31.8800 C   0  0  0  0  0  0  0  0  0  0  0  0
   -5.8010   21.8140  -31.9600 N   0  0  0  0  0  0  0  0  0  0  0  0
   -6.5320   20.7050  -32.1650 C   0  0  0  0  0  0  0  0  0  0  0  0
   -6.0680   19.3990  -32.2930 C   0  0  0  0  0  0  0  0  0  0  0  0
   -7.0160   18.3690  -32.4810 C   0  0  0  0  0  0  0  0  0  0  0  0
   -6.5620   17.0100  -32.5930 N   0  0  0  0  0  0  0  0  0  0  0  0
   -6.1740   16.3960  -33.8330 C   0  0  0  0  0  0  0  0  0  0  0  0
   -5.8130   17.1180  -34.8030 O   0  0  0  0  0  0  0  0  0  0  0  0
   -6.1240   14.9210  -33.9660 C   0  0  0  0  0  0  0  0  0  0  0  0
   -7.1980   14.2380  -34.5670 C   0  0  0  0  0  0  0  0  0  0  0  0
   -7.1680   12.8470  -34.7030 C   0  0  0  0  0  0  0  0  0  0  0  0
   -6.0720   12.1210  -34.2340 C   0  0  0  0  0  0  0  0  0  0  0  0
   -5.0050   12.7840  -33.6230 C   0  0  0  0  0  0  0  0  0  0  0  0
   -5.0270   14.1770  -33.4820 C   0  0  0  0  0  0  0  0  0  0  0  0
   -3.9980   14.7810  -32.8370 F   0  0  0  0  0  0  0  0  0  0  0  0
   -8.4010   18.6890  -32.4970 C   0  0  0  0  0  0  0  0  0  0  0  0
   -8.8340   20.0200  -32.3610 C   0  0  0  0  0  0  0  0  0  0  0  0
   -7.8590   21.0070  -32.2050 C   0  0  0  0  0  0  0  0  0  0  0  0
   -8.0130   22.3340  -32.0430 N   0  0  0  0  0  0  0  0  0  0  0  0
   -9.2790   23.0630  -31.9570 C   0  0  0  0  0  0  0  0  0  0  0  0
   -2.8889   22.4353  -30.0981 H   0  0  0  0  0  0  0  0  0  0  0  0
   -3.9073   22.6795  -31.5574 H   0  0  0  0  0  0  0  0  0  0  0  0
   -2.1939   23.2189  -31.5574 H   0  0  0  0  0  0  0  0  0  0  0  0
   -3.5097   23.5112  -28.5841 H   0  0  0  0  0  0  0  0  0  0  0  0
   -4.1520   25.1886  -28.6879 H   0  0  0  0  0  0  0  0  0  0  0  0
   -5.4696   22.6868  -29.8697 H   0  0  0  0  0  0  0  0  0  0  0  0
   -5.9706   23.5559  -28.3580 H   0  0  0  0  0  0  0  0  0  0  0  0
   -6.0114   26.1812  -28.8326 H   0  0  0  0  0  0  0  0  0  0  0  0
   -5.0804   26.2239  -30.3682 H   0  0  0  0  0  0  0  0  0  0  0  0
   -6.8317   26.6235  -30.3682 H   0  0  0  0  0  0  0  0  0  0  0  0
   -7.0697   24.8909  -32.1147 H   0  0  0  0  0  0  0  0  0  0  0  0
   -5.3271   24.3706  -31.9449 H   0  0  0  0  0  0  0  0  0  0  0  0
   -4.9919   19.1751  -32.2489 H   0  0  0  0  0  0  0  0  0  0  0  0
   -6.3990   16.4730  -31.7110 H   0  0  0  0  0  0  0  0  0  0  0  0
   -8.0679   14.8033  -34.9326 H   0  0  0  0  0  0  0  0  0  0  0  0
   -8.0096   12.3237  -35.1804 H   0  0  0  0  0  0  0  0  0  0  0  0
   -6.0485   11.0269  -34.3455 H   0  0  0  0  0  0  0  0  0  0  0  0
   -4.1439   12.2094  -33.2511 H   0  0  0  0  0  0  0  0  0  0  0  0
   -9.1429   17.8858  -32.6172 H   0  0  0  0  0  0  0  0  0  0  0  0
   -9.9040   20.2747  -32.3770 H   0  0  0  0  0  0  0  0  0  0  0  0
   -9.5434   23.2152  -30.9002 H   0  0  0  0  0  0  0  0  0  0  0  0
   -9.1744   24.0392  -32.4531 H   0  0  0  0  0  0  0  0  0  0  0  0
  -10.0708   22.4825  -32.4531 H   0  0  0  0  0  0  0  0  0  0  0  0
  1  2  1  0
  2  3  1  0
  3  4  1  0
  4  5  1  0
  5  6  1  0
  5  7  1  0
  7  8  1  0
  8  9  2  0
  9 10  1  0
 10 11  2  0
 11 12  1  0
 12 13  1  0
 13 14  1  0
 14 15  2  0
 14 16  1  0
 16 17  2  0
 17 18  1  0
 18 19  2  0
 19 20  1  0
 20 21  2  0
 21 22  1  0
 12 23  2  0
 23 24  1  0
 24 25  2  0
 25 26  1  0
 26 27  1  0
 26  8  1  0
 25 10  1  0
 21 16  1  0
  1 28  1  0
  1 29  1  0
  1 30  1  0
  3 31  1  0
  3 32  1  0
  4 33  1  0
  4 34  1  0
  6 35  1  0
  6 36  1  0
  6 37  1  0
  7 38  1  0
  7 39  1  0
 11 40  1  0
 13 41  1  0
 17 42  1  0
 18 43  1  0
 19 44  1  0
 20 45  1  0
 23 46  1  0
 24 47  1  0
 27 48  1  0
 27 49  1  0
 27 50  1  0
M  END
>  <UniqueID>  (33) 
33

>  <SMILES>  (33) 
COCCN(C)Cc1nc2cc(NC(=O)c3ccccc3F)ccc2n1C

>  <Energy>  (33) 
99.00617578889072

>  <Genealogy>  (33) 
COCCN(C)Cc1nc2cc(NC(=O)c3ccccc3F)ccc2n1C (3D coordinates assigned)
COCCN(C)Cc1nc2cc(NC(=O)c3ccccc3F)ccc2n1C (optimized conformer: 99.00617578889072 kcal/mol)

>  <smiles>  (33) 
COCCN(C)Cc1nc2cc(NC(=O)c3ccccc3F)ccc2n1C

>  <score_type>  (33) 
oracle

>  <origin>  (33) 
adg

>  <m_score__min__energy>  (33) 
-8.25

>  <m_primary>  (33) 
energy

$$$$
33:0
     RDKit          3D

 68 72  0  0  0  0  0  0  0  0999 V2000
   -6.3470   24.7270  -30.0700 C   0  0  0  0  0  0  0  0  0  0  0  0
   -5.0190   25.3550  -30.5160 C   0  0  0  0  0  0  0  0  0  0  0  0
   -3.8530   24.4390  -30.4380 N   0  0  0  0  0  0  0  0  0  0  0  0
   -3.1180   24.5680  -29.1600 C   0  0  0  0  0  0  0  0  0  0  0  0
   -3.6500   23.5660  -28.1380 C   0  0  0  0  0  0  0  0  0  0  0  0
   -4.1790   23.0270  -30.7480 C   0  0  0  0  0  0  0  0  0  0  0  0
   -3.5070   22.5720  -32.0480 C   0  0  0  0  0  0  0  0  0  0  0  0
   -4.5150   22.1430  -33.0160 N   0  0  0  0  0  0  0  0  0  0  0  0
   -5.2960   20.9560  -32.8030 C   0  0  0  0  0  0  0  0  0  0  0  0
   -4.7060   19.6990  -32.9110 C   0  0  0  0  0  0  0  0  0  0  0  0
   -5.4470   18.5510  -32.7370 C   0  0  0  0  0  0  0  0  0  0  0  0
   -6.8090   18.5800  -32.5720 N   0  0  0  0  0  0  0  0  0  0  0  0
   -7.6050   17.3520  -32.7470 C   0  0  0  0  0  0  0  0  0  0  0  0
   -7.4140   19.8020  -32.3270 C   0  0  0  0  0  0  0  0  0  0  0  0
   -8.7660   19.8920  -31.9170 C   0  0  0  0  0  0  0  0  0  0  0  0
   -9.3760   21.1310  -31.7200 C   0  0  0  0  0  0  0  0  0  0  0  0
   -8.6580   22.3070  -31.9180 C   0  0  0  0  0  0  0  0  0  0  0  0
   -7.3160   22.2550  -32.2890 C   0  0  0  0  0  0  0  0  0  0  0  0
   -6.6700   21.0170  -32.4790 C   0  0  0  0  0  0  0  0  0  0  0  0
   -4.5280   17.4260  -32.9480 C   0  0  0  0  0  0  0  0  0  0  0  0
   -4.6990   16.0710  -32.6510 C   0  0  0  0  0  0  0  0  0  0  0  0
   -3.6520   15.1580  -32.9220 C   0  0  0  0  0  0  0  0  0  0  0  0
   -2.4020   15.6870  -33.3510 C   0  0  0  0  0  0  0  0  0  0  0  0
   -2.2490   17.0810  -33.5170 C   0  0  0  0  0  0  0  0  0  0  0  0
   -1.1310   17.5750  -33.8280 O   0  0  0  0  0  0  0  0  0  0  0  0
   -3.3180   17.8940  -33.3180 N   0  0  0  0  0  0  0  0  0  0  0  0
   -3.3070   19.3570  -33.3340 C   0  0  0  0  0  0  0  0  0  0  0  0
   -1.2160   14.7760  -33.4770 C   0  0  0  0  0  0  0  0  0  0  0  0
   -1.6240   13.4970  -33.9300 O   0  0  0  0  0  0  0  0  0  0  0  0
   -2.7670   12.8680  -33.4390 C   0  0  0  0  0  0  0  0  0  0  0  0
   -2.8890   11.6300  -33.6340 O   0  0  0  0  0  0  0  0  0  0  0  0
   -3.7960   13.6460  -32.6200 C   0  0  1  0  0  0  0  0  0  0  0  0
   -3.5050   13.4300  -31.2600 O   0  0  0  0  0  0  0  0  0  0  0  0
   -5.2470   13.1330  -32.9450 C   0  0  0  0  0  0  0  0  0  0  0  0
   -5.6940   11.8840  -32.1710 C   0  0  0  0  0  0  0  0  0  0  0  0
   -6.3918   24.7058  -28.9711 H   0  0  0  0  0  0  0  0  0  0  0  0
   -7.1843   25.3245  -30.4597 H   0  0  0  0  0  0  0  0  0  0  0  0
   -6.4164   23.7007  -30.4597 H   0  0  0  0  0  0  0  0  0  0  0  0
   -5.1278   25.6861  -31.5593 H   0  0  0  0  0  0  0  0  0  0  0  0
   -4.8146   26.1846  -29.8232 H   0  0  0  0  0  0  0  0  0  0  0  0
   -2.0494   24.3747  -29.3351 H   0  0  0  0  0  0  0  0  0  0  0  0
   -3.2581   25.5864  -28.7684 H   0  0  0  0  0  0  0  0  0  0  0  0
   -3.4522   23.9385  -27.1221 H   0  0  0  0  0  0  0  0  0  0  0  0
   -4.7338   23.4400  -28.2779 H   0  0  0  0  0  0  0  0  0  0  0  0
   -3.1472   22.5977  -28.2779 H   0  0  0  0  0  0  0  0  0  0  0  0
   -3.8303   22.3893  -29.9223 H   0  0  0  0  0  0  0  0  0  0  0  0
   -5.2686   22.9419  -30.8726 H   0  0  0  0  0  0  0  0  0  0  0  0
   -2.9305   23.4081  -32.4706 H   0  0  0  0  0  0  0  0  0  0  0  0
   -2.8383   21.7266  -31.8287 H   0  0  0  0  0  0  0  0  0  0  0  0
   -4.8540   22.8450  -33.7100 H   0  0  0  0  0  0  0  0  0  0  0  0
   -7.8700   16.9432  -31.7608 H   0  0  0  0  0  0  0  0  0  0  0  0
   -8.5232   17.5867  -33.3054 H   0  0  0  0  0  0  0  0  0  0  0  0
   -7.0159   16.6096  -33.3054 H   0  0  0  0  0  0  0  0  0  0  0  0
   -9.3443   18.9710  -31.7513 H   0  0  0  0  0  0  0  0  0  0  0  0
  -10.4294   21.1789  -31.4067 H   0  0  0  0  0  0  0  0  0  0  0  0
   -9.1517   23.2804  -31.7811 H   0  0  0  0  0  0  0  0  0  0  0  0
   -6.7550   23.1898  -32.4351 H   0  0  0  0  0  0  0  0  0  0  0  0
   -5.6418   15.7162  -32.2092 H   0  0  0  0  0  0  0  0  0  0  0  0
   -2.5684   19.7564  -32.6235 H   0  0  0  0  0  0  0  0  0  0  0  0
   -3.0284   19.7820  -34.3096 H   0  0  0  0  0  0  0  0  0  0  0  0
   -0.5034   15.2055  -34.1966 H   0  0  0  0  0  0  0  0  0  0  0  0
   -0.7392   14.6710  -32.4913 H   0  0  0  0  0  0  0  0  0  0  0  0
   -2.8930   12.6500  -31.2000 H   0  0  0  0  0  0  0  0  0  0  0  0
   -5.9530   13.9448  -32.7158 H   0  0  0  0  0  0  0  0  0  0  0  0
   -5.2350   12.8433  -34.0061 H   0  0  0  0  0  0  0  0  0  0  0  0
   -5.6246   12.0779  -31.0905 H   0  0  0  0  0  0  0  0  0  0  0  0
   -6.7344   11.6424  -32.4341 H   0  0  0  0  0  0  0  0  0  0  0  0
   -5.0431   11.0371  -32.4341 H   0  0  0  0  0  0  0  0  0  0  0  0
  1  2  1  0
  2  3  1  0
  3  4  1  0
  4  5  1  0
  3  6  1  0
  6  7  1  0
  7  8  1  0
  8  9  1  0
  9 10  2  0
 10 11  1  0
 11 12  2  0
 12 13  1  0
 12 14  1  0
 14 15  2  0
 15 16  1  0
 16 17  2  0
 17 18  1  0
 18 19  2  0
 11 20  1  0
 20 21  2  0
 21 22  1  0
 22 23  2  0
 23 24  1  0
 24 25  2  0
 24 26  1  0
 26 27  1  0
 23 28  1  0
 28 29  1  0
 29 30  1  0
 30 31  2  0
 30 32  1  0
 32 33  1  1
 32 34  1  0
 34 35  1  0
 19  9  1  0
 26 20  1  0
 27 10  1  0
 19 14  1  0
 32 22  1  0
  1 36  1  0
  1 37  1  0
  1 38  1  0
  2 39  1  0
  2 40  1  0
  4 41  1  0
  4 42  1  0
  5 43  1  0
  5 44  1  0
  5 45  1  0
  6 46  1  0
  6 47  1  0
  7 48  1  0
  7 49  1  0
  8 50  1  0
 13 51  1  0
 13 52  1  0
 13 53  1  0
 15 54  1  0
 16 55  1  0
 17 56  1  0
 18 57  1  0
 21 58  1  0
 27 59  1  0
 27 60  1  0
 28 61  1  0
 28 62  1  0
 33 63  1  0
 34 64  1  0
 34 65  1  0
 35 66  1  0
 35 67  1  0
 35 68  1  0
M  CHG  1  12   1
M  END
>  <UniqueID>  (34) 
34

>  <SMILES>  (34) 
CCN(CC)CCNc1c2c([n+](C)c3ccccc13)-c1cc3c(c(=O)n1C2)COC(=O)[C@]3(O)CC

>  <Energy>  (34) 
127.99601294545901

>  <Genealogy>  (34) 
CCN(CC)CCNc1c2c([n+](C)c3ccccc13)-c1cc3c(c(=O)n1C2)COC(=O)[C@]3(O)CC (chirality)
CCN(CC)CCNc1c2c([n+](C)c3ccccc13)-c1cc3c(c(=O)n1C2)COC(=O)[C@]3(O)CC (3D coordinates assigned)
CCN(CC)CCNc1c2c([n+](C)c3ccccc13)-c1cc3c(c(=O)n1C2)COC(=O)[C@]3(O)CC (nonaromatic ring conformer: 127.99601294545901 kcal/mol)

>  <smiles>  (34) 
CCN(CC)CCNc1c2c([n+](C)c3ccccc13)-c1cc3c(c(=O)n1C2)COC(=O)C3(O)CC

>  <score_type>  (34) 
oracle

>  <origin>  (34) 
adg

>  <m_score__min__energy>  (34) 
-8.7100000000000009

>  <m_primary>  (34) 
energy

$$$$
34:0
     RDKit          3D

 44 46  0  0  0  0  0  0  0  0999 V2000
   -1.9210   24.2200  -29.0200 C   0  0  0  0  0  0  0  0  0  0  0  0
   -3.2750   23.7300  -29.4390 C   0  0  0  0  0  0  0  0  0  0  0  0
   -3.4160   22.4670  -30.0230 C   0  0  0  0  0  0  0  0  0  0  0  0
   -4.6610   22.0420  -30.4880 C   0  0  0  0  0  0  0  0  0  0  0  0
   -5.7890   22.8750  -30.3970 C   0  0  0  0  0  0  0  0  0  0  0  0
   -7.3090   22.2610  -31.0910 S   0  0  0  0  0  0  0  0  0  0  0  0
   -7.7520   23.2130  -32.1660 O   0  0  0  0  0  0  0  0  0  0  0  0
   -8.3980   22.2180  -30.0570 O   0  0  0  0  0  0  0  0  0  0  0  0
   -7.1180   20.6730  -31.7960 N   0  0  0  0  0  0  0  0  0  0  0  0
   -6.4940   20.7730  -33.1260 C   0  0  0  0  0  0  0  0  0  0  0  0
   -6.4520   19.4100  -33.8490 C   0  0  0  0  0  0  0  0  0  0  0  0
   -6.9380   18.3250  -32.9850 N   0  0  0  0  0  0  0  0  0  0  0  0
   -6.3870   17.0010  -33.1060 C   0  0  0  0  0  0  0  0  0  0  0  0
   -6.8500   16.1590  -34.0730 N   0  0  0  0  0  0  0  0  0  0  0  0
   -6.3580   14.9030  -34.2050 C   0  0  0  0  0  0  0  0  0  0  0  0
   -5.3720   14.4490  -33.3370 C   0  0  0  0  0  0  0  0  0  0  0  0
   -4.9200   15.3080  -32.3360 C   0  0  0  0  0  0  0  0  0  0  0  0
   -5.4330   16.5630  -32.2340 N   0  0  0  0  0  0  0  0  0  0  0  0
   -8.1860   18.5090  -32.2340 C   0  0  0  0  0  0  0  0  0  0  0  0
   -8.4150   19.9880  -31.8950 C   0  0  0  0  0  0  0  0  0  0  0  0
   -5.6530   24.1610  -29.8040 C   0  0  0  0  0  0  0  0  0  0  0  0
   -6.7950   25.1400  -29.7120 C   0  0  0  0  0  0  0  0  0  0  0  0
   -4.3890   24.5730  -29.3410 C   0  0  0  0  0  0  0  0  0  0  0  0
   -1.8624   24.2412  -27.9218 H   0  0  0  0  0  0  0  0  0  0  0  0
   -1.1481   23.5446  -29.4154 H   0  0  0  0  0  0  0  0  0  0  0  0
   -1.7593   25.2336  -29.4154 H   0  0  0  0  0  0  0  0  0  0  0  0
   -2.5417   21.8059  -30.1161 H   0  0  0  0  0  0  0  0  0  0  0  0
   -4.7609   21.0406  -30.9321 H   0  0  0  0  0  0  0  0  0  0  0  0
   -7.0723   21.4815  -33.7372 H   0  0  0  0  0  0  0  0  0  0  0  0
   -5.4582   21.1176  -32.9903 H   0  0  0  0  0  0  0  0  0  0  0  0
   -7.0852   19.4624  -34.7469 H   0  0  0  0  0  0  0  0  0  0  0  0
   -5.4073   19.1947  -34.1176 H   0  0  0  0  0  0  0  0  0  0  0  0
   -6.7388   14.2434  -34.9986 H   0  0  0  0  0  0  0  0  0  0  0  0
   -4.9576   13.4350  -33.4374 H   0  0  0  0  0  0  0  0  0  0  0  0
   -4.1482   14.9703  -31.6287 H   0  0  0  0  0  0  0  0  0  0  0  0
   -5.1090   17.1730  -31.4510 H   0  0  0  0  0  0  0  0  0  0  0  0
   -9.0277   18.1454  -32.8417 H   0  0  0  0  0  0  0  0  0  0  0  0
   -8.1142   17.9426  -31.2938 H   0  0  0  0  0  0  0  0  0  0  0  0
   -9.0181   20.4568  -32.6865 H   0  0  0  0  0  0  0  0  0  0  0  0
   -8.9463   20.0668  -30.9350 H   0  0  0  0  0  0  0  0  0  0  0  0
   -7.0248   25.3370  -28.6545 H   0  0  0  0  0  0  0  0  0  0  0  0
   -6.5123   26.0807  -30.2072 H   0  0  0  0  0  0  0  0  0  0  0  0
   -7.6814   24.7169  -30.2072 H   0  0  0  0  0  0  0  0  0  0  0  0
   -4.2746   25.5722  -28.8955 H   0  0  0  0  0  0  0  0  0  0  0  0
  1  2  1  0
  2  3  2  0
  3  4  1  0
  4  5  2  0
  5  6  1  0
  6  7  2  0
  6  8  2  0
  6  9  1  0
  9 10  1  0
 10 11  1  0
 11 12  1  0
 12 13  1  0
 13 14  2  0
 14 15  1  0
 15 16  2  0
 16 17  1  0
 17 18  2  0
 12 19  1  0
 19 20  1  0
  5 21  1  0
 21 22  1  0
 21 23  2  0
 23  2  1  0
 20  9  1  0
 18 13  1  0
  1 24  1  0
  1 25  1  0
  1 26  1  0
  3 27  1  0
  4 28  1  0
 10 29  1  0
 10 30  1  0
 11 31  1  0
 11 32  1  0
 15 33  1  0
 16 34  1  0
 17 35  1  0
 18 36  1  0
 19 37  1  0
 19 38  1  0
 20 39  1  0
 20 40  1  0
 22 41  1  0
 22 42  1  0
 22 43  1  0
 23 44  1  0
M  CHG  1  18   1
M  END
>  <UniqueID>  (35) 
35

>  <SMILES>  (35) 
Cc1ccc(S(=O)(=O)N2CCN(c3nccc[nH+]3)CC2)c(C)c1

>  <Energy>  (35) 
54.99074180246188

>  <Genealogy>  (35) 
Cc1ccc(S(=O)(=O)N2CCN(c3nccc[nH+]3)CC2)c(C)c1 (protonated)
Cc1ccc(S(=O)(=O)N2CCN(c3nccc[nH+]3)CC2)c(C)c1 (3D coordinates assigned)
Cc1ccc(S(=O)(=O)N2CCN(c3nccc[nH+]3)CC2)c(C)c1 (nonaromatic ring conformer: 54.99074180246188 kcal/mol)

>  <smiles>  (35) 
Cc1ccc(S(=O)(=O)N2CCN(c3ncccn3)CC2)c(C)c1

>  <score_type>  (35) 
oracle

>  <origin>  (35) 
adg

>  <m_score__min__energy>  (35) 
-7.8799999999999999

>  <m_primary>  (35) 
energy

$$$$
35:0
     RDKit          3D

 40 41  0  0  0  0  0  0  0  0999 V2000
   -1.6400   25.4000  -27.7440 C   0  0  0  0  0  0  0  0  0  0  0  0
   -2.2180   25.2830  -29.0410 O   0  0  0  0  0  0  0  0  0  0  0  0
   -2.4360   24.0670  -29.7080 C   0  0  0  0  0  0  0  0  0  0  0  0
   -1.6190   22.9410  -29.4930 C   0  0  0  0  0  0  0  0  0  0  0  0
   -1.8610   21.7510  -30.1820 C   0  0  0  0  0  0  0  0  0  0  0  0
   -2.9260   21.6620  -31.0870 C   0  0  0  0  0  0  0  0  0  0  0  0
   -3.1580   20.3860  -31.8510 C   0  0  0  0  0  0  0  0  0  0  0  0
   -4.5800   20.0190  -31.8220 N   0  0  0  0  0  0  0  0  0  0  0  0
   -4.8930   19.0110  -32.8440 C   0  0  0  0  0  0  0  0  0  0  0  0
   -6.1130   19.4340  -33.6670 C   0  0  0  0  0  0  0  0  0  0  0  0
   -7.6260   19.5350  -32.6430 S   0  0  0  0  0  0  0  0  0  0  0  0
   -7.4730   21.2930  -32.3100 C   0  0  0  0  0  0  0  0  0  0  0  0
   -6.4400   22.0530  -32.7200 N   0  0  0  0  0  0  0  0  0  0  0  0
   -6.6910   23.2620  -32.2340 N   0  0  0  0  0  0  0  0  0  0  0  0
   -7.8230   23.2510  -31.5450 N   0  0  0  0  0  0  0  0  0  0  0  0
   -8.3340   22.0340  -31.5930 N   0  0  0  0  0  0  0  0  0  0  0  0
   -9.4920   21.5920  -30.8290 C   0  0  0  0  0  0  0  0  0  0  0  0
   -3.7410   22.7810  -31.3060 C   0  0  0  0  0  0  0  0  0  0  0  0
   -3.5000   23.9880  -30.6200 C   0  0  0  0  0  0  0  0  0  0  0  0
   -4.2890   25.1310  -30.8230 O   0  0  0  0  0  0  0  0  0  0  0  0
   -5.5610   25.3500  -30.2220 C   0  0  0  0  0  0  0  0  0  0  0  0
   -2.4166   25.2428  -26.9810 H   0  0  0  0  0  0  0  0  0  0  0  0
   -0.8504   24.6435  -27.6248 H   0  0  0  0  0  0  0  0  0  0  0  0
   -1.2068   26.4041  -27.6248 H   0  0  0  0  0  0  0  0  0  0  0  0
   -0.7851   22.9990  -28.7780 H   0  0  0  0  0  0  0  0  0  0  0  0
   -1.2119   20.8791  -30.0131 H   0  0  0  0  0  0  0  0  0  0  0  0
   -2.8420   20.5270  -32.8952 H   0  0  0  0  0  0  0  0  0  0  0  0
   -2.5735   19.5803  -31.3828 H   0  0  0  0  0  0  0  0  0  0  0  0
   -5.1270   20.8830  -32.0500 H   0  0  0  0  0  0  0  0  0  0  0  0
   -4.0282   18.8956  -33.5139 H   0  0  0  0  0  0  0  0  0  0  0  0
   -5.1181   18.0580  -32.3429 H   0  0  0  0  0  0  0  0  0  0  0  0
   -5.9175   20.4213  -34.1108 H   0  0  0  0  0  0  0  0  0  0  0  0
   -6.2786   18.6747  -34.4455 H   0  0  0  0  0  0  0  0  0  0  0  0
   -9.2752   21.6747  -29.7538 H   0  0  0  0  0  0  0  0  0  0  0  0
  -10.3581   22.2228  -31.0780 H   0  0  0  0  0  0  0  0  0  0  0  0
   -9.7175   20.5446  -31.0780 H   0  0  0  0  0  0  0  0  0  0  0  0
   -4.5758   22.7165  -32.0194 H   0  0  0  0  0  0  0  0  0  0  0  0
   -5.4571   25.3321  -29.1271 H   0  0  0  0  0  0  0  0  0  0  0  0
   -5.9519   26.3287  -30.5373 H   0  0  0  0  0  0  0  0  0  0  0  0
   -6.2567   24.5584  -30.5373 H   0  0  0  0  0  0  0  0  0  0  0  0
  1  2  1  0
  2  3  1  0
  3  4  2  0
  4  5  1  0
  5  6  2  0
  6  7  1  0
  7  8  1  0
  8  9  1  0
  9 10  1  0
 10 11  1  0
 11 12  1  0
 12 13  2  0
 13 14  1  0
 14 15  2  0
 15 16  1  0
 16 17  1  0
  6 18  1  0
 18 19  2  0
 19 20  1  0
 20 21  1  0
 19  3  1  0
 16 12  1  0
  1 22  1  0
  1 23  1  0
  1 24  1  0
  4 25  1  0
  5 26  1  0
  7 27  1  0
  7 28  1  0
  8 29  1  0
  9 30  1  0
  9 31  1  0
 10 32  1  0
 10 33  1  0
 17 34  1  0
 17 35  1  0
 17 36  1  0
 18 37  1  0
 21 38  1  0
 21 39  1  0
 21 40  1  0
M  END
>  <UniqueID>  (36) 
36

>  <SMILES>  (36) 
COc1ccc(CNCCSc2nnnn2C)cc1OC

>  <Energy>  (36) 
68.9835540841585

>  <Genealogy>  (36) 
COc1ccc(CNCCSc2nnnn2C)cc1OC (3D coordinates assigned)
COc1ccc(CNCCSc2nnnn2C)cc1OC (optimized conformer: 68.9835540841585 kcal/mol)

>  <smiles>  (36) 
COc1ccc(CNCCSc2nnnn2C)cc1OC

>  <score_type>  (36) 
oracle

>  <origin>  (36) 
adg

>  <m_score__min__energy>  (36) 
-7.4100000000000001

>  <m_primary>  (36) 
energy

$$$$
36:0
     RDKit          3D

 44 45  0  0  0  0  0  0  0  0999 V2000
   -4.5108   22.9922  -32.1873 H   0  0  0  0  0  0  0  0  0  0  0  0
   -4.5720   22.9920  -31.0890 C   0  0  0  0  0  0  0  0  0  0  0  0
   -5.7050   22.7240  -30.5170 N   0  0  0  0  0  0  0  0  0  0  0  0
   -6.9960   23.0390  -31.1200 C   0  0  0  0  0  0  0  0  0  0  0  0
   -6.9715   24.0697  -31.5036 H   0  0  0  0  0  0  0  0  0  0  0  0
   -7.7762   22.9309  -30.3521 H   0  0  0  0  0  0  0  0  0  0  0  0
   -7.3130   22.0830  -32.2740 C   0  0  0  0  0  0  0  0  0  0  0  0
   -6.5185   22.1510  -33.0317 H   0  0  0  0  0  0  0  0  0  0  0  0
   -8.2791   22.3632  -32.7191 H   0  0  0  0  0  0  0  0  0  0  0  0
   -7.3950   20.6880  -31.7720 N   0  0  0  0  0  0  0  0  0  0  0  0
   -8.6970   20.0630  -32.0970 C   0  0  0  0  0  0  0  0  0  0  0  0
   -8.8481   20.0851  -33.1864 H   0  0  0  0  0  0  0  0  0  0  0  0
   -9.4983   20.6238  -31.5935 H   0  0  0  0  0  0  0  0  0  0  0  0
   -8.7260   18.6150  -31.6140 C   0  0  0  0  0  0  0  0  0  0  0  0
   -8.7264   18.5953  -30.5142 H   0  0  0  0  0  0  0  0  0  0  0  0
   -9.6342   18.1212  -31.9899 H   0  0  0  0  0  0  0  0  0  0  0  0
   -7.8383   18.0852  -31.9899 H   0  0  0  0  0  0  0  0  0  0  0  0
   -6.2670   19.8590  -32.2610 C   0  0  0  0  0  0  0  0  0  0  0  0
   -5.3171   20.3458  -31.9951 H   0  0  0  0  0  0  0  0  0  0  0  0
   -6.3250   18.8648  -31.7938 H   0  0  0  0  0  0  0  0  0  0  0  0
   -6.3440   19.7000  -33.7770 C   0  0  0  0  0  0  0  0  0  0  0  0
   -6.8115   18.7347  -34.0212 H   0  0  0  0  0  0  0  0  0  0  0  0
   -6.9463   20.5168  -34.2012 H   0  0  0  0  0  0  0  0  0  0  0  0
   -5.3297   19.7339  -34.2012 H   0  0  0  0  0  0  0  0  0  0  0  0
   -3.3540   23.2990  -30.2930 C   0  0  0  0  0  0  0  0  0  0  0  0
   -3.0330   24.6330  -30.0100 C   0  0  0  0  0  0  0  0  0  0  0  0
   -3.8660   25.6710  -30.4160 O   0  0  0  0  0  0  0  0  0  0  0  0
   -1.8970   24.9290  -29.3370 N   0  0  0  0  0  0  0  0  0  0  0  0
   -1.0430   23.9640  -28.9190 C   0  0  0  0  0  0  0  0  0  0  0  0
    0.0120   24.3050  -28.3180 O   0  0  0  0  0  0  0  0  0  0  0  0
   -1.3220   22.6420  -29.1550 N   0  0  0  0  0  0  0  0  0  0  0  0
   -0.3630   21.5970  -28.7480 C   0  0  0  0  0  0  0  0  0  0  0  0
    0.0213   21.0857  -29.6429 H   0  0  0  0  0  0  0  0  0  0  0  0
    0.4698   22.0621  -28.2002 H   0  0  0  0  0  0  0  0  0  0  0  0
   -1.0430   20.6020  -27.8610 C   0  0  0  0  0  0  0  0  0  0  0  0
   -0.8640   19.3040  -27.9410 O   0  0  0  0  0  0  0  0  0  0  0  0
   -1.6360   18.7200  -27.0530 C   0  0  0  0  0  0  0  0  0  0  0  0
   -1.6993   17.6348  -26.8846 H   0  0  0  0  0  0  0  0  0  0  0  0
   -2.3560   19.6750  -26.3630 C   0  0  0  0  0  0  0  0  0  0  0  0
   -3.0861   19.4997  -25.5591 H   0  0  0  0  0  0  0  0  0  0  0  0
   -1.9750   20.8920  -26.8850 C   0  0  0  0  0  0  0  0  0  0  0  0
   -2.3377   21.8866  -26.5864 H   0  0  0  0  0  0  0  0  0  0  0  0
   -2.4630   22.3000  -29.8410 C   0  0  0  0  0  0  0  0  0  0  0  0
   -2.7100   21.0840  -30.0760 O   0  0  0  0  0  0  0  0  0  0  0  0
  1  2  1  0
  2  3  2  0
  3  4  1  0
  4  5  1  0
  4  6  1  0
  4  7  1  0
  7  8  1  0
  7  9  1  0
  7 10  1  0
 10 11  1  0
 11 12  1  0
 11 13  1  0
 11 14  1  0
 14 15  1  0
 14 16  1  0
 14 17  1  0
 10 18  1  0
 18 19  1  0
 18 20  1  0
 18 21  1  0
 21 22  1  0
 21 23  1  0
 21 24  1  0
  2 25  1  0
 25 26  2  0
 26 27  1  0
 26 28  1  0
 28 29  1  0
 29 30  2  0
 29 31  1  0
 31 32  1  0
 32 33  1  0
 32 34  1  0
 32 35  1  0
 35 36  1  0
 36 37  1  0
 37 38  1  0
 37 39  2  0
 39 40  1  0
 39 41  1  0
 41 42  1  0
 31 43  1  0
 43 44  2  0
 43 25  1  0
 41 35  2  0
M  CHG  2  27  -1  28  -1
M  END
>  <UniqueID>  (37) 
37

>  <SMILES>  (37) 
CCN(CC)CC/N=C/c1c([O-])[n-]c(=O)n(Cc2ccco2)c1=O

>  <Energy>  (37) 
70.1314110792644

>  <Genealogy>  (37) 
CCN(CC)CCN=Cc1c([O-])[n-]c(=O)n(Cc2ccco2)c1=O (protonated)
CCN(CC)CC/N=C/c1c([O-])[n-]c(=O)n(Cc2ccco2)c1=O (cis-trans isomerization)
CCN(CC)CC/N=C/c1c([O-])[n-]c(=O)n(Cc2ccco2)c1=O (3D coordinates assigned)
CCN(CC)CC/N=C/c1c([O-])[n-]c(=O)n(Cc2ccco2)c1=O (optimized conformer: 70.1314110792644 kcal/mol)

>  <smiles>  (37) 
CCN(CC)CCN=Cc1c(O)[nH]c(=O)n(Cc2ccco2)c1=O

>  <score_type>  (37) 
oracle

>  <origin>  (37) 
adg

>  <m_score__min__energy>  (37) 
-10.859999999999999

>  <m_primary>  (37) 
energy

$$$$
37:0
     RDKit          3D

 43 44  0  0  0  0  0  0  0  0999 V2000
   -5.3970   25.2960  -30.7300 C   0  0  0  0  0  0  0  0  0  0  0  0
   -6.2210   24.4340  -30.5630 C   0  0  0  0  0  0  0  0  0  0  0  0
   -7.2240   23.3830  -30.3580 C   0  0  0  0  0  0  0  0  0  0  0  0
   -7.9650   23.0880  -31.6620 C   0  0  0  0  0  0  0  0  0  0  0  0
   -7.5990   21.7640  -32.1560 N   0  0  0  0  0  0  0  0  0  0  0  0
   -6.3690   21.3780  -32.5430 C   0  0  0  0  0  0  0  0  0  0  0  0
   -6.4600   20.0820  -33.0000 C   0  0  0  0  0  0  0  0  0  0  0  0
   -5.3660   19.2540  -33.5280 C   0  0  0  0  0  0  0  0  0  0  0  0
   -4.0670   19.6090  -33.5070 N   0  0  0  0  0  0  0  0  0  0  0  0
   -3.4320   18.5740  -34.0820 C   0  0  0  0  0  0  0  0  0  0  0  0
   -1.9470   18.4660  -34.2460 C   0  0  0  0  0  0  0  0  0  0  0  0
   -1.3370   19.8120  -34.1980 N   0  0  0  0  0  0  0  0  0  0  0  0
   -1.0690   20.2600  -32.8070 C   0  0  0  0  0  0  0  0  0  0  0  0
   -1.8350   21.5250  -32.3810 C   0  0  0  0  0  0  0  0  0  0  0  0
   -2.7860   21.8700  -33.3510 O   0  0  0  0  0  0  0  0  0  0  0  0
   -0.1740   19.9140  -35.1100 C   0  0  0  0  0  0  0  0  0  0  0  0
    0.5750   21.2390  -34.9420 C   0  0  0  0  0  0  0  0  0  0  0  0
   -0.3370   22.3000  -34.8800 O   0  0  0  0  0  0  0  0  0  0  0  0
   -4.3640   17.6180  -34.4250 C   0  0  0  0  0  0  0  0  0  0  0  0
   -5.5460   18.0720  -34.0740 O   0  0  0  0  0  0  0  0  0  0  0  0
   -7.7930   19.7380  -32.8700 C   0  0  0  0  0  0  0  0  0  0  0  0
   -8.4690   20.7860  -32.3580 N   0  0  0  0  0  0  0  0  0  0  0  0
   -4.6443   26.0835  -30.8826 H   0  0  0  0  0  0  0  0  0  0  0  0
   -6.7229   22.4672  -30.0113 H   0  0  0  0  0  0  0  0  0  0  0  0
   -7.9500   23.7261  -29.6062 H   0  0  0  0  0  0  0  0  0  0  0  0
   -9.0494   23.1221  -31.4805 H   0  0  0  0  0  0  0  0  0  0  0  0
   -7.6884   23.8426  -32.4130 H   0  0  0  0  0  0  0  0  0  0  0  0
   -5.4548   21.9884  -32.5017 H   0  0  0  0  0  0  0  0  0  0  0  0
   -3.6410   20.4820  -33.1230 H   0  0  0  0  0  0  0  0  0  0  0  0
   -1.5342   17.8491  -33.4342 H   0  0  0  0  0  0  0  0  0  0  0  0
   -1.7224   18.0007  -35.2171 H   0  0  0  0  0  0  0  0  0  0  0  0
   -1.3481   19.4440  -32.1242 H   0  0  0  0  0  0  0  0  0  0  0  0
    0.0003   20.5141  -32.7626 H   0  0  0  0  0  0  0  0  0  0  0  0
   -2.3448   21.3353  -31.4249 H   0  0  0  0  0  0  0  0  0  0  0  0
   -1.1209   22.3544  -32.2705 H   0  0  0  0  0  0  0  0  0  0  0  0
   -2.3480   21.7260  -34.2300 H   0  0  0  0  0  0  0  0  0  0  0  0
    0.5179   19.0859  -34.8966 H   0  0  0  0  0  0  0  0  0  0  0  0
   -0.5483   19.8650  -36.1432 H   0  0  0  0  0  0  0  0  0  0  0  0
    1.1634   21.2096  -34.0131 H   0  0  0  0  0  0  0  0  0  0  0  0
    1.2438   21.3875  -35.8026 H   0  0  0  0  0  0  0  0  0  0  0  0
   -1.2410   21.8880  -34.8790 H   0  0  0  0  0  0  0  0  0  0  0  0
   -4.1559   16.6506  -34.9054 H   0  0  0  0  0  0  0  0  0  0  0  0
   -8.2311   18.7660  -33.1407 H   0  0  0  0  0  0  0  0  0  0  0  0
  1  2  3  0
  2  3  1  0
  3  4  1  0
  4  5  1  0
  5  6  1  0
  6  7  2  0
  7  8  1  0
  8  9  2  0
  9 10  1  0
 10 11  1  0
 11 12  1  0
 12 13  1  0
 13 14  1  0
 14 15  1  0
 12 16  1  0
 16 17  1  0
 17 18  1  0
 10 19  2  0
 19 20  1  0
  7 21  1  0
 21 22  2  0
 22  5  1  0
 20  8  1  0
  1 23  1  0
  3 24  1  0
  3 25  1  0
  4 26  1  0
  4 27  1  0
  6 28  1  0
  9 29  1  0
 11 30  1  0
 11 31  1  0
 13 32  1  0
 13 33  1  0
 14 34  1  0
 14 35  1  0
 15 36  1  0
 16 37  1  0
 16 38  1  0
 17 39  1  0
 17 40  1  0
 18 41  1  0
 19 42  1  0
 21 43  1  0
M  CHG  1   9   1
M  END
>  <UniqueID>  (38) 
38

>  <SMILES>  (38) 
C#CCCn1cc(-c2[nH+]c(CN(CCO)CCO)co2)cn1

>  <Energy>  (38) 
98.03133256556937

>  <Genealogy>  (38) 
C#CCCn1cc(-c2[nH+]c(CN(CCO)CCO)co2)cn1 (protonated)
C#CCCn1cc(-c2[nH+]c(CN(CCO)CCO)co2)cn1 (3D coordinates assigned)
C#CCCn1cc(-c2[nH+]c(CN(CCO)CCO)co2)cn1 (optimized conformer: 98.03133256556937 kcal/mol)

>  <smiles>  (38) 
C#CCCn1cc(-c2nc(CN(CCO)CCO)co2)cn1

>  <score_type>  (38) 
oracle

>  <origin>  (38) 
adg

>  <m_score__min__energy>  (38) 
-5.8799999999999999

>  <m_primary>  (38) 
energy

$$$$
39:0
     RDKit          3D

 65 68  0  0  0  0  0  0  0  0999 V2000
   -9.9500   20.6360  -32.3140 C   0  0  0  0  0  0  0  0  0  0  0  0
   -9.2820   19.3060  -32.6850 C   0  0  0  0  0  0  0  0  0  0  0  0
   -7.7950   19.3690  -32.6630 N   0  0  0  0  0  0  0  0  0  0  0  0
   -7.3190   20.3600  -31.6570 C   0  0  0  0  0  0  0  0  0  0  0  0
   -7.1910   21.7750  -32.2370 C   0  0  0  0  0  0  0  0  0  0  0  0
   -7.1430   18.0470  -32.4530 C   0  0  0  0  0  0  0  0  0  0  0  0
   -6.8510   17.2660  -33.7540 C   0  0  0  0  0  0  0  0  0  0  0  0
   -5.7770   17.9170  -34.5090 N   0  0  0  0  0  0  0  0  0  0  0  0
   -4.7230   18.7070  -33.9230 C   0  0  0  0  0  0  0  0  0  0  0  0
   -3.4900   18.1020  -33.6520 C   0  0  0  0  0  0  0  0  0  0  0  0
   -2.4450   18.8370  -33.0910 C   0  0  0  0  0  0  0  0  0  0  0  0
   -2.6160   20.1940  -32.7740 C   0  0  0  0  0  0  0  0  0  0  0  0
   -3.8420   20.8160  -33.0550 C   0  0  0  0  0  0  0  0  0  0  0  0
   -4.8950   20.0700  -33.6130 C   0  0  0  0  0  0  0  0  0  0  0  0
   -4.0140   22.2780  -32.7860 C   0  0  0  0  0  0  0  0  0  0  0  0
   -3.9680   22.5150  -31.3880 O   0  0  0  0  0  0  0  0  0  0  0  0
   -2.8100   22.4660  -30.5990 C   0  0  0  0  0  0  0  0  0  0  0  0
   -2.8610   23.1460  -29.3750 C   0  0  0  0  0  0  0  0  0  0  0  0
   -1.7390   23.2310  -28.5390 C   0  0  0  0  0  0  0  0  0  0  0  0
   -1.8020   23.9810  -27.2610 C   0  0  0  0  0  0  0  0  0  0  0  0
   -2.7000   24.9560  -27.0770 C   0  0  0  0  0  0  0  0  0  0  0  0
   -2.7690   25.6430  -25.7410 C   0  0  0  0  0  0  0  0  0  0  0  0
   -1.4230   25.9770  -25.2070 N   0  0  0  0  0  0  0  0  0  0  0  0
   -1.0320   27.3480  -25.5730 C   0  0  0  0  0  0  0  0  0  0  0  0
   -0.3430   25.0030  -25.5370 C   0  0  0  0  0  0  0  0  0  0  0  0
   -0.8660   23.6790  -26.1210 C   0  0  0  0  0  0  0  0  0  0  0  0
   -0.5520   22.6030  -28.9340 C   0  0  0  0  0  0  0  0  0  0  0  0
   -0.4910   21.8960  -30.1350 C   0  0  0  0  0  0  0  0  0  0  0  0
   -1.6120   21.7980  -30.9820 C   0  0  0  0  0  0  0  0  0  0  0  0
   -1.4820   20.9470  -32.1980 C   0  0  0  0  0  0  0  0  0  0  0  0
   -0.3410   20.7880  -32.7130 O   0  0  0  0  0  0  0  0  0  0  0  0
   -9.9971   20.7298  -31.2190 H   0  0  0  0  0  0  0  0  0  0  0  0
   -9.3634   21.4691  -32.7285 H   0  0  0  0  0  0  0  0  0  0  0  0
  -10.9686   20.6629  -32.7285 H   0  0  0  0  0  0  0  0  0  0  0  0
   -9.6098   18.5385  -31.9684 H   0  0  0  0  0  0  0  0  0  0  0  0
   -9.5832   19.0658  -33.7153 H   0  0  0  0  0  0  0  0  0  0  0  0
   -7.4820   19.6960  -33.6100 H   0  0  0  0  0  0  0  0  0  0  0  0
   -8.0341   20.3851  -30.8215 H   0  0  0  0  0  0  0  0  0  0  0  0
   -6.3188   20.0441  -31.3257 H   0  0  0  0  0  0  0  0  0  0  0  0
   -7.1251   22.5035  -31.4154 H   0  0  0  0  0  0  0  0  0  0  0  0
   -6.2836   21.8370  -32.8557 H   0  0  0  0  0  0  0  0  0  0  0  0
   -8.0726   21.9988  -32.8557 H   0  0  0  0  0  0  0  0  0  0  0  0
   -6.1897   18.2127  -31.9298 H   0  0  0  0  0  0  0  0  0  0  0  0
   -7.8502   17.4367  -31.8722 H   0  0  0  0  0  0  0  0  0  0  0  0
   -6.5457   16.2401  -33.5004 H   0  0  0  0  0  0  0  0  0  0  0  0
   -7.7612   17.2471  -34.3714 H   0  0  0  0  0  0  0  0  0  0  0  0
   -5.8000   17.8140  -35.5500 H   0  0  0  0  0  0  0  0  0  0  0  0
   -3.3435   17.0367  -33.8836 H   0  0  0  0  0  0  0  0  0  0  0  0
   -1.4788   18.3490  -32.8954 H   0  0  0  0  0  0  0  0  0  0  0  0
   -5.8623   20.5555  -33.8093 H   0  0  0  0  0  0  0  0  0  0  0  0
   -3.2056   22.8381  -33.2787 H   0  0  0  0  0  0  0  0  0  0  0  0
   -4.9861   22.6093  -33.1801 H   0  0  0  0  0  0  0  0  0  0  0  0
   -3.8017   23.6234  -29.0634 H   0  0  0  0  0  0  0  0  0  0  0  0
   -3.3781   25.2508  -27.8915 H   0  0  0  0  0  0  0  0  0  0  0  0
   -3.3464   26.5728  -25.8510 H   0  0  0  0  0  0  0  0  0  0  0  0
   -3.2496   24.9523  -25.0325 H   0  0  0  0  0  0  0  0  0  0  0  0
   -0.8639   27.9375  -24.6597 H   0  0  0  0  0  0  0  0  0  0  0  0
   -0.1063   27.3192  -26.1664 H   0  0  0  0  0  0  0  0  0  0  0  0
   -1.8337   27.8119  -26.1664 H   0  0  0  0  0  0  0  0  0  0  0  0
    0.3301   25.4662  -26.2734 H   0  0  0  0  0  0  0  0  0  0  0  0
    0.1713   24.7599  -24.5955 H   0  0  0  0  0  0  0  0  0  0  0  0
   -0.0205   23.0782  -26.4874 H   0  0  0  0  0  0  0  0  0  0  0  0
   -1.3996   23.1147  -25.3420 H   0  0  0  0  0  0  0  0  0  0  0  0
    0.3393   22.6675  -28.2926 H   0  0  0  0  0  0  0  0  0  0  0  0
    0.4499   21.4060  -30.4259 H   0  0  0  0  0  0  0  0  0  0  0  0
  1  2  1  0
  2  3  1  0
  3  4  1  0
  4  5  1  0
  3  6  1  0
  6  7  1  0
  7  8  1  0
  8  9  1  0
  9 10  2  0
 10 11  1  0
 11 12  2  0
 12 13  1  0
 13 14  2  0
 13 15  1  0
 15 16  1  0
 16 17  1  0
 17 18  2  0
 18 19  1  0
 19 20  1  0
 20 21  2  0
 21 22  1  0
 22 23  1  0
 23 24  1  0
 23 25  1  0
 25 26  1  0
 19 27  2  0
 27 28  1  0
 28 29  2  0
 29 30  1  0
 30 31  2  0
 14  9  1  0
 29 17  1  0
 30 12  1  0
 26 20  1  0
  1 32  1  0
  1 33  1  0
  1 34  1  0
  2 35  1  0
  2 36  1  0
  3 37  1  0
  4 38  1  0
  4 39  1  0
  5 40  1  0
  5 41  1  0
  5 42  1  0
  6 43  1  0
  6 44  1  0
  7 45  1  0
  7 46  1  0
  8 47  1  0
 10 48  1  0
 11 49  1  0
 14 50  1  0
 15 51  1  0
 15 52  1  0
 18 53  1  0
 21 54  1  0
 22 55  1  0
 22 56  1  0
 24 57  1  0
 24 58  1  0
 24 59  1  0
 25 60  1  0
 25 61  1  0
 26 62  1  0
 26 63  1  0
 27 64  1  0
 28 65  1  0
M  CHG  1   3   1
M  END
>  <UniqueID>  (39) 
39

>  <SMILES>  (39) 
CC[NH+](CC)CCNc1ccc2c(c1)COc1cc(C3=CCN(C)CC3)ccc1C2=O

>  <Energy>  (39) 
96.55426027166912

>  <Genealogy>  (39) 
CC[NH+](CC)CCNc1ccc2c(c1)COc1cc(C3=CCN(C)CC3)ccc1C2=O (protonated)
CC[NH+](CC)CCNc1ccc2c(c1)COc1cc(C3=CCN(C)CC3)ccc1C2=O (3D coordinates assigned)
CC[NH+](CC)CCNc1ccc2c(c1)COc1cc(C3=CCN(C)CC3)ccc1C2=O (nonaromatic ring conformer: 96.55426027166912 kcal/mol)

>  <smiles>  (39) 
CCN(CC)CCNc1ccc2c(c1)COc1cc(C3=CCN(C)CC3)ccc1C2=O

>  <score_type>  (39) 
oracle

>  <origin>  (39) 
adg

>  <m_score__min__energy>  (39) 
-9.8000000000000007

>  <m_primary>  (39) 
energy

$$$$
40:0
     RDKit          3D

 58 60  0  0  0  0  0  0  0  0999 V2000
   -2.0580   25.5100  -25.9380 C   0  0  0  0  0  0  0  0  0  0  0  0
   -2.2470   24.4630  -27.0380 C   0  0  0  0  0  0  0  0  0  0  0  0
   -3.6580   24.0140  -27.0890 N   0  0  0  0  0  0  0  0  0  0  0  0
   -4.5130   24.9320  -26.3100 C   0  0  0  0  0  0  0  0  0  0  0  0
   -4.1460   23.9100  -28.4870 C   0  0  0  0  0  0  0  0  0  0  0  0
   -3.1010   24.4700  -29.4520 C   0  0  0  0  0  0  0  0  0  0  0  0
   -3.7570   25.1210  -30.5200 O   0  0  0  0  0  0  0  0  0  0  0  0
   -5.0570   25.5350  -30.1290 C   0  0  0  0  0  0  0  0  0  0  0  0
   -6.1060   24.9620  -31.0830 C   0  0  0  0  0  0  0  0  0  0  0  0
   -5.5810   23.8470  -31.8000 O   0  0  0  0  0  0  0  0  0  0  0  0
   -6.2720   22.6370  -31.9010 C   0  0  0  0  0  0  0  0  0  0  0  0
   -7.6190   22.5940  -31.5270 C   0  0  0  0  0  0  0  0  0  0  0  0
   -8.3420   21.4100  -31.6190 C   0  0  0  0  0  0  0  0  0  0  0  0
   -7.7360   20.2470  -32.1100 C   0  0  0  0  0  0  0  0  0  0  0  0
   -8.4850   19.0630  -32.2160 C   0  0  0  0  0  0  0  0  0  0  0  0
   -7.8980   17.9030  -32.7200 C   0  0  0  0  0  0  0  0  0  0  0  0
   -6.5640   17.9120  -33.1270 C   0  0  0  0  0  0  0  0  0  0  0  0
   -5.8050   19.0800  -33.0250 C   0  0  0  0  0  0  0  0  0  0  0  0
   -6.3680   20.2660  -32.5000 C   0  0  0  0  0  0  0  0  0  0  0  0
   -5.6160   21.4680  -32.3590 C   0  0  0  0  0  0  0  0  0  0  0  0
   -4.1300   21.5200  -32.6720 C   0  0  0  0  0  0  0  0  0  0  0  0
   -3.3950   22.2450  -31.6310 N   0  0  0  0  0  0  0  0  0  0  0  0
   -2.4950   21.6240  -30.6940 C   0  0  0  0  0  0  0  0  0  0  0  0
   -1.1190   21.6050  -30.9730 C   0  0  0  0  0  0  0  0  0  0  0  0
   -0.2230   20.9950  -30.0880 C   0  0  0  0  0  0  0  0  0  0  0  0
   -0.6930   20.4070  -28.9090 C   0  0  0  0  0  0  0  0  0  0  0  0
   -2.0580   20.4320  -28.6140 C   0  0  0  0  0  0  0  0  0  0  0  0
   -2.9560   21.0440  -29.4950 C   0  0  0  0  0  0  0  0  0  0  0  0
   -2.1451   25.0273  -24.9534 H   0  0  0  0  0  0  0  0  0  0  0  0
   -1.0626   25.9681  -26.0349 H   0  0  0  0  0  0  0  0  0  0  0  0
   -2.8304   26.2872  -26.0349 H   0  0  0  0  0  0  0  0  0  0  0  0
   -1.9717   24.9029  -28.0079 H   0  0  0  0  0  0  0  0  0  0  0  0
   -1.6053   23.5968  -26.8192 H   0  0  0  0  0  0  0  0  0  0  0  0
   -4.3524   24.7596  -25.2355 H   0  0  0  0  0  0  0  0  0  0  0  0
   -4.2545   25.9723  -26.5571 H   0  0  0  0  0  0  0  0  0  0  0  0
   -5.5690   24.7480  -26.5571 H   0  0  0  0  0  0  0  0  0  0  0  0
   -4.3350   22.8536  -28.7286 H   0  0  0  0  0  0  0  0  0  0  0  0
   -5.0756   24.4895  -28.5876 H   0  0  0  0  0  0  0  0  0  0  0  0
   -2.4585   25.1886  -28.9221 H   0  0  0  0  0  0  0  0  0  0  0  0
   -2.4821   23.6493  -29.8436 H   0  0  0  0  0  0  0  0  0  0  0  0
   -5.2603   25.1772  -29.1089 H   0  0  0  0  0  0  0  0  0  0  0  0
   -5.1071   26.6334  -30.1601 H   0  0  0  0  0  0  0  0  0  0  0  0
   -6.9826   24.6378  -30.5029 H   0  0  0  0  0  0  0  0  0  0  0  0
   -6.3919   25.7424  -31.8036 H   0  0  0  0  0  0  0  0  0  0  0  0
   -8.1110   23.5055  -31.1566 H   0  0  0  0  0  0  0  0  0  0  0  0
   -9.3958   21.3867  -31.3044 H   0  0  0  0  0  0  0  0  0  0  0  0
   -9.5386   19.0511  -31.9001 H   0  0  0  0  0  0  0  0  0  0  0  0
   -8.4886   16.9782  -32.7968 H   0  0  0  0  0  0  0  0  0  0  0  0
   -6.1079   16.9957  -33.5299 H   0  0  0  0  0  0  0  0  0  0  0  0
   -4.7564   19.0772  -33.3572 H   0  0  0  0  0  0  0  0  0  0  0  0
   -3.7407   20.4933  -32.7374 H   0  0  0  0  0  0  0  0  0  0  0  0
   -3.9931   22.0477  -33.6274 H   0  0  0  0  0  0  0  0  0  0  0  0
   -3.4700   23.2880  -31.6240 H   0  0  0  0  0  0  0  0  0  0  0  0
   -0.7425   22.0733  -31.8944 H   0  0  0  0  0  0  0  0  0  0  0  0
    0.8522   20.9779  -30.3197 H   0  0  0  0  0  0  0  0  0  0  0  0
    0.0116   19.9255  -28.2150 H   0  0  0  0  0  0  0  0  0  0  0  0
   -2.4277   19.9695  -27.6870 H   0  0  0  0  0  0  0  0  0  0  0  0
   -4.0281   21.0727  -29.2505 H   0  0  0  0  0  0  0  0  0  0  0  0
  1  2  1  0
  2  3  1  0
  3  4  1  0
  3  5  1  0
  5  6  1  0
  6  7  1  0
  7  8  1  0
  8  9  1  0
  9 10  1  0
 10 11  1  0
 11 12  2  0
 12 13  1  0
 13 14  2  0
 14 15  1  0
 15 16  2  0
 16 17  1  0
 17 18  2  0
 18 19  1  0
 19 20  2  0
 20 21  1  0
 21 22  1  0
 22 23  1  0
 23 24  2  0
 24 25  1  0
 25 26  2  0
 26 27  1  0
 27 28  2  0
 20 11  1  0
 28 23  1  0
 19 14  1  0
  1 29  1  0
  1 30  1  0
  1 31  1  0
  2 32  1  0
  2 33  1  0
  4 34  1  0
  4 35  1  0
  4 36  1  0
  5 37  1  0
  5 38  1  0
  6 39  1  0
  6 40  1  0
  8 41  1  0
  8 42  1  0
  9 43  1  0
  9 44  1  0
 12 45  1  0
 13 46  1  0
 15 47  1  0
 16 48  1  0
 17 49  1  0
 18 50  1  0
 21 51  1  0
 21 52  1  0
 22 53  1  0
 24 54  1  0
 25 55  1  0
 26 56  1  0
 27 57  1  0
 28 58  1  0
M  END
>  <UniqueID>  (40) 
40

>  <SMILES>  (40) 
CCN(C)CCOCCOc1ccc2ccccc2c1CNc1ccccc1

>  <Energy>  (40) 
70.91421822304233

>  <Genealogy>  (40) 
CCN(C)CCOCCOc1ccc2ccccc2c1CNc1ccccc1 (3D coordinates assigned)
CCN(C)CCOCCOc1ccc2ccccc2c1CNc1ccccc1 (optimized conformer: 70.91421822304233 kcal/mol)

>  <smiles>  (40) 
CCN(C)CCOCCOc1ccc2ccccc2c1CNc1ccccc1

>  <score_type>  (40) 
oracle

>  <origin>  (40) 
adg

>  <m_score__min__energy>  (40) 
-8.5600000000000005

>  <m_primary>  (40) 
energy

$$$$
41:0
     RDKit          3D

 51 52  0  0  0  0  0  0  0  0999 V2000
   -6.1420   17.4530  -31.1930 C   0  0  0  0  0  0  0  0  0  0  0  0
   -7.1060   17.6010  -32.3620 C   0  0  0  0  0  0  0  0  0  0  0  0
   -7.4510   19.0310  -32.5530 N   0  0  0  0  0  0  0  0  0  0  0  0
   -6.8460   19.6030  -33.7780 C   0  0  0  0  0  0  0  0  0  0  0  0
   -6.0310   18.5880  -34.5940 C   0  0  0  0  0  0  0  0  0  0  0  0
   -8.9010   19.3160  -32.4490 C   0  0  0  0  0  0  0  0  0  0  0  0
   -9.1590   20.7760  -32.0440 C   0  0  0  0  0  0  0  0  0  0  0  0
   -7.9660   21.4000  -31.4540 N   0  0  0  0  0  0  0  0  0  0  0  0
   -7.7450   22.7810  -31.9220 C   0  0  0  0  0  0  0  0  0  0  0  0
   -6.6170   23.4100  -31.1430 C   0  0  0  0  0  0  0  0  0  0  0  0
   -6.8360   24.6140  -30.4540 C   0  0  0  0  0  0  0  0  0  0  0  0
   -5.8160   25.1950  -29.7020 C   0  0  0  0  0  0  0  0  0  0  0  0
   -4.5700   24.5750  -29.6160 C   0  0  0  0  0  0  0  0  0  0  0  0
   -4.3290   23.3780  -30.2970 C   0  0  0  0  0  0  0  0  0  0  0  0
   -2.6420   22.5080  -30.0370 Br  0  0  0  0  0  0  0  0  0  0  0  0
   -5.3430   22.8020  -31.0880 C   0  0  0  0  0  0  0  0  0  0  0  0
   -5.1110   21.6090  -31.7850 O   0  0  0  0  0  0  0  0  0  0  0  0
   -4.5470   21.5780  -33.0950 C   0  0  0  0  0  0  0  0  0  0  0  0
   -3.3280   20.7000  -33.1140 C   0  0  0  0  0  0  0  0  0  0  0  0
   -3.4430   19.3240  -32.8600 C   0  0  0  0  0  0  0  0  0  0  0  0
   -2.3170   18.4980  -32.9370 C   0  0  0  0  0  0  0  0  0  0  0  0
   -1.0730   19.0380  -33.2780 C   0  0  0  0  0  0  0  0  0  0  0  0
    0.0160   18.2360  -33.3560 F   0  0  0  0  0  0  0  0  0  0  0  0
   -0.9540   20.4050  -33.5440 C   0  0  0  0  0  0  0  0  0  0  0  0
   -2.0780   21.2340  -33.4670 C   0  0  0  0  0  0  0  0  0  0  0  0
   -6.6969   17.5382  -30.2471 H   0  0  0  0  0  0  0  0  0  0  0  0
   -5.6526   16.4692  -31.2436 H   0  0  0  0  0  0  0  0  0  0  0  0
   -5.3800   18.2447  -31.2436 H   0  0  0  0  0  0  0  0  0  0  0  0
   -6.6325   17.2146  -33.2766 H   0  0  0  0  0  0  0  0  0  0  0  0
   -8.0232   17.0321  -32.1497 H   0  0  0  0  0  0  0  0  0  0  0  0
   -7.6535   19.9929  -34.4151 H   0  0  0  0  0  0  0  0  0  0  0  0
   -6.1494   20.3910  -33.4557 H   0  0  0  0  0  0  0  0  0  0  0  0
   -5.4916   17.9162  -33.9100 H   0  0  0  0  0  0  0  0  0  0  0  0
   -6.7093   17.9982  -35.2281 H   0  0  0  0  0  0  0  0  0  0  0  0
   -5.3086   19.1228  -35.2281 H   0  0  0  0  0  0  0  0  0  0  0  0
   -9.3736   19.1264  -33.4240 H   0  0  0  0  0  0  0  0  0  0  0  0
   -9.3272   18.6618  -31.6742 H   0  0  0  0  0  0  0  0  0  0  0  0
   -9.4536   21.3462  -32.9374 H   0  0  0  0  0  0  0  0  0  0  0  0
   -9.9575   20.7840  -31.2874 H   0  0  0  0  0  0  0  0  0  0  0  0
   -7.1380   20.8230  -31.7350 H   0  0  0  0  0  0  0  0  0  0  0  0
   -7.4873   22.7674  -32.9913 H   0  0  0  0  0  0  0  0  0  0  0  0
   -8.6630   23.3675  -31.7695 H   0  0  0  0  0  0  0  0  0  0  0  0
   -7.8201   25.1025  -30.5081 H   0  0  0  0  0  0  0  0  0  0  0  0
   -5.9944   26.1442  -29.1755 H   0  0  0  0  0  0  0  0  0  0  0  0
   -3.7729   25.0298  -29.0095 H   0  0  0  0  0  0  0  0  0  0  0  0
   -5.2911   21.1820  -33.8018 H   0  0  0  0  0  0  0  0  0  0  0  0
   -4.2588   22.5989  -33.3861 H   0  0  0  0  0  0  0  0  0  0  0  0
   -4.4216   18.8943  -32.5997 H   0  0  0  0  0  0  0  0  0  0  0  0
   -2.4101   17.4219  -32.7290 H   0  0  0  0  0  0  0  0  0  0  0  0
    0.0243   20.8292  -33.8141 H   0  0  0  0  0  0  0  0  0  0  0  0
   -1.9825   22.3082  -33.6837 H   0  0  0  0  0  0  0  0  0  0  0  0
  1  2  1  0
  2  3  1  0
  3  4  1  0
  4  5  1  0
  3  6  1  0
  6  7  1  0
  7  8  1  0
  8  9  1  0
  9 10  1  0
 10 11  2  0
 11 12  1  0
 12 13  2  0
 13 14  1  0
 14 15  1  0
 14 16  2  0
 16 17  1  0
 17 18  1  0
 18 19  1  0
 19 20  2  0
 20 21  1  0
 21 22  2  0
 22 23  1  0
 22 24  1  0
 24 25  2  0
 16 10  1  0
 25 19  1  0
  1 26  1  0
  1 27  1  0
  1 28  1  0
  2 29  1  0
  2 30  1  0
  4 31  1  0
  4 32  1  0
  5 33  1  0
  5 34  1  0
  5 35  1  0
  6 36  1  0
  6 37  1  0
  7 38  1  0
  7 39  1  0
  8 40  1  0
  9 41  1  0
  9 42  1  0
 11 43  1  0
 12 44  1  0
 13 45  1  0
 18 46  1  0
 18 47  1  0
 20 48  1  0
 21 49  1  0
 24 50  1  0
 25 51  1  0
M  END
>  <UniqueID>  (41) 
41

>  <SMILES>  (41) 
CCN(CC)CCNCc1cccc(Br)c1OCc1ccc(F)cc1

>  <Energy>  (41) 
55.893189447507865

>  <Genealogy>  (41) 
CCN(CC)CCNCc1cccc(Br)c1OCc1ccc(F)cc1 (3D coordinates assigned)
CCN(CC)CCNCc1cccc(Br)c1OCc1ccc(F)cc1 (optimized conformer: 55.893189447507865 kcal/mol)

>  <smiles>  (41) 
CCN(CC)CCNCc1cccc(Br)c1OCc1ccc(F)cc1

>  <score_type>  (41) 
oracle

>  <origin>  (41) 
adg

>  <m_score__min__energy>  (41) 
-8.0199999999999996

>  <m_primary>  (41) 
energy

$$$$
42:0
     RDKit          3D

 69 74  0  0  0  0  0  0  0  0999 V2000
   -2.1590   17.2470  -34.0400 C   0  0  0  0  0  0  0  0  0  0  0  0
   -0.7410   17.5300  -34.3010 N   0  0  0  0  0  0  0  0  0  0  0  0
    0.1210   16.6440  -33.5060 C   0  0  0  0  0  0  0  0  0  0  0  0
    1.5960   17.0690  -33.6340 C   0  0  0  0  0  0  0  0  0  0  0  0
    1.8680   17.8870  -34.8360 N   0  0  0  0  0  0  0  0  0  0  0  0
    2.0410   19.3380  -34.5990 C   0  0  0  0  0  0  0  0  0  0  0  0
    0.8470   19.9950  -33.9470 C   0  0  0  0  0  0  0  0  0  0  0  0
    0.7040   20.0040  -32.5540 C   0  0  0  0  0  0  0  0  0  0  0  0
   -0.4310   20.5650  -31.9710 C   0  0  0  0  0  0  0  0  0  0  0  0
   -1.4260   21.1290  -32.7850 C   0  0  0  0  0  0  0  0  0  0  0  0
   -2.6350   21.7240  -32.1730 C   0  0  0  0  0  0  0  0  0  0  0  0
   -2.6200   22.3410  -30.9530 N   0  0  0  0  0  0  0  0  0  0  0  0
   -3.8620   22.8040  -30.6850 C   0  0  0  0  0  0  0  0  0  0  0  0
   -4.7890   22.6370  -31.6290 C   0  0  0  0  0  0  0  0  0  0  0  0
   -4.1630   21.8380  -32.9560 S   0  0  0  0  0  0  0  0  0  0  0  0
   -5.8210   23.4730  -31.4410 N   0  0  0  0  0  0  0  0  0  0  0  0
   -6.9040   23.7920  -32.3720 C   0  0  0  0  0  0  0  0  0  0  0  0
   -8.2240   23.1440  -31.9290 C   0  0  0  0  0  0  0  0  0  0  0  0
   -8.0000   21.9870  -31.1230 O   0  0  0  0  0  0  0  0  0  0  0  0
   -7.9510   20.6620  -31.5870 C   0  0  0  0  0  0  0  0  0  0  0  0
   -6.6940   20.0550  -31.7200 C   0  0  0  0  0  0  0  0  0  0  0  0
   -6.5880   18.7240  -32.1370 C   0  0  0  0  0  0  0  0  0  0  0  0
   -7.7390   17.9930  -32.4370 C   0  0  0  0  0  0  0  0  0  0  0  0
   -8.9980   18.5920  -32.3260 C   0  0  0  0  0  0  0  0  0  0  0  0
   -9.1080   19.9220  -31.9060 C   0  0  0  0  0  0  0  0  0  0  0  0
   -5.4670   24.1300  -30.2990 C   0  0  0  0  0  0  0  0  0  0  0  0
   -6.1850   25.0190  -29.7680 O   0  0  0  0  0  0  0  0  0  0  0  0
   -4.2470   23.7490  -29.8090 N   0  0  0  0  0  0  0  0  0  0  0  0
   -3.4870   24.3040  -28.7180 C   0  0  0  0  0  0  0  0  0  0  0  0
   -4.0580   24.4030  -27.4380 C   0  0  0  0  0  0  0  0  0  0  0  0
   -3.3270   24.9430  -26.3760 C   0  0  0  0  0  0  0  0  0  0  0  0
   -2.0180   25.3850  -26.5790 C   0  0  0  0  0  0  0  0  0  0  0  0
   -1.4370   25.2850  -27.8440 C   0  0  0  0  0  0  0  0  0  0  0  0
   -2.1650   24.7450  -28.9110 C   0  0  0  0  0  0  0  0  0  0  0  0
   -1.2580   21.1290  -34.1420 N   0  0  0  0  0  0  0  0  0  0  0  0
   -0.1550   20.5870  -34.7280 C   0  0  0  0  0  0  0  0  0  0  0  0
    1.0710   17.5260  -36.0270 C   0  0  0  0  0  0  0  0  0  0  0  0
   -0.4380   17.3700  -35.7340 C   0  0  0  0  0  0  0  0  0  0  0  0
   -2.3322   17.2124  -32.9543 H   0  0  0  0  0  0  0  0  0  0  0  0
   -2.7790   18.0391  -34.4852 H   0  0  0  0  0  0  0  0  0  0  0  0
   -2.4274   16.2776  -34.4852 H   0  0  0  0  0  0  0  0  0  0  0  0
   -0.1808   16.6978  -32.4496 H   0  0  0  0  0  0  0  0  0  0  0  0
    0.0137   15.6148  -33.8792 H   0  0  0  0  0  0  0  0  0  0  0  0
    1.8688   17.6551  -32.7440 H   0  0  0  0  0  0  0  0  0  0  0  0
    2.1929   16.1495  -33.7243 H   0  0  0  0  0  0  0  0  0  0  0  0
    2.9151   19.4813  -33.9467 H   0  0  0  0  0  0  0  0  0  0  0  0
    2.1693   19.8108  -35.5839 H   0  0  0  0  0  0  0  0  0  0  0  0
    1.4888   19.5675  -31.9187 H   0  0  0  0  0  0  0  0  0  0  0  0
   -0.5466   20.5658  -30.8771 H   0  0  0  0  0  0  0  0  0  0  0  0
   -7.0349   24.8835  -32.4102 H   0  0  0  0  0  0  0  0  0  0  0  0
   -6.6381   23.3991  -33.3644 H   0  0  0  0  0  0  0  0  0  0  0  0
   -8.8033   23.8766  -31.3479 H   0  0  0  0  0  0  0  0  0  0  0  0
   -8.7727   22.8330  -32.8302 H   0  0  0  0  0  0  0  0  0  0  0  0
   -5.7839   20.6302  -31.4946 H   0  0  0  0  0  0  0  0  0  0  0  0
   -5.5980   18.2534  -32.2285 H   0  0  0  0  0  0  0  0  0  0  0  0
   -7.6556   16.9451  -32.7609 H   0  0  0  0  0  0  0  0  0  0  0  0
   -9.9033   18.0164  -32.5693 H   0  0  0  0  0  0  0  0  0  0  0  0
  -10.0994   20.3915  -31.8245 H   0  0  0  0  0  0  0  0  0  0  0  0
   -5.0873   24.0531  -27.2705 H   0  0  0  0  0  0  0  0  0  0  0  0
   -3.7838   25.0199  -25.3783 H   0  0  0  0  0  0  0  0  0  0  0  0
   -1.4452   25.8117  -25.7424 H   0  0  0  0  0  0  0  0  0  0  0  0
   -0.4051   25.6311  -28.0030 H   0  0  0  0  0  0  0  0  0  0  0  0
   -1.7011   24.6651  -29.9052 H   0  0  0  0  0  0  0  0  0  0  0  0
   -1.9800   21.5510  -34.7660 H   0  0  0  0  0  0  0  0  0  0  0  0
   -0.0495   20.6139  -35.8226 H   0  0  0  0  0  0  0  0  0  0  0  0
    1.1992   18.3139  -36.7838 H   0  0  0  0  0  0  0  0  0  0  0  0
    1.4357   16.5489  -36.3766 H   0  0  0  0  0  0  0  0  0  0  0  0
   -0.9908   18.1333  -36.3013 H   0  0  0  0  0  0  0  0  0  0  0  0
   -0.7395   16.3556  -36.0340 H   0  0  0  0  0  0  0  0  0  0  0  0
  1  2  1  0
  2  3  1  0
  3  4  1  0
  4  5  1  0
  5  6  1  0
  6  7  1  0
  7  8  2  0
  8  9  1  0
  9 10  2  0
 10 11  1  0
 11 12  2  0
 12 13  1  0
 13 14  2  0
 14 15  1  0
 14 16  1  0
 16 17  1  0
 17 18  1  0
 18 19  1  0
 19 20  1  0
 20 21  2  0
 21 22  1  0
 22 23  2  0
 23 24  1  0
 24 25  2  0
 16 26  1  0
 26 27  2  0
 26 28  1  0
 28 29  1  0
 29 30  2  0
 30 31  1  0
 31 32  2  0
 32 33  1  0
 33 34  2  0
 10 35  1  0
 35 36  2  0
  5 37  1  0
 37 38  1  0
 38  2  1  0
 36  7  1  0
 15 11  1  0
 25 20  1  0
 34 29  1  0
 28 13  1  0
  1 39  1  0
  1 40  1  0
  1 41  1  0
  3 42  1  0
  3 43  1  0
  4 44  1  0
  4 45  1  0
  6 46  1  0
  6 47  1  0
  8 48  1  0
  9 49  1  0
 17 50  1  0
 17 51  1  0
 18 52  1  0
 18 53  1  0
 21 54  1  0
 22 55  1  0
 23 56  1  0
 24 57  1  0
 25 58  1  0
 30 59  1  0
 31 60  1  0
 32 61  1  0
 33 62  1  0
 34 63  1  0
 35 64  1  0
 36 65  1  0
 37 66  1  0
 37 67  1  0
 38 68  1  0
 38 69  1  0
M  CHG  1  35   1
M  END
>  <UniqueID>  (42) 
42

>  <SMILES>  (42) 
CN1CCN(Cc2ccc(-c3nc4c(s3)n(CCOc3ccccc3)c(=O)n4-c3ccccc3)[nH+]c2)CC1

>  <Energy>  (42) 
178.72586836399682

>  <Genealogy>  (42) 
CN1CCN(Cc2ccc(-c3nc4c(s3)n(CCOc3ccccc3)c(=O)n4-c3ccccc3)[nH+]c2)CC1 (protonated)
CN1CCN(Cc2ccc(-c3nc4c(s3)n(CCOc3ccccc3)c(=O)n4-c3ccccc3)[nH+]c2)CC1 (3D coordinates assigned)
CN1CCN(Cc2ccc(-c3nc4c(s3)n(CCOc3ccccc3)c(=O)n4-c3ccccc3)[nH+]c2)CC1 (nonaromatic ring conformer: 178.72586836399682 kcal/mol)

>  <smiles>  (42) 
CN1CCN(Cc2ccc(-c3nc4c(s3)n(CCOc3ccccc3)c(=O)n4-c3ccccc3)nc2)CC1

>  <score_type>  (42) 
oracle

>  <origin>  (42) 
adg

>  <m_score__min__energy>  (42) 
-9.1999999999999993

>  <m_primary>  (42) 
energy

$$$$
43:0
     RDKit          3D

 38 40  0  0  0  0  0  0  0  0999 V2000
    1.3370   24.5390  -27.5630 C   0  0  0  0  0  0  0  0  0  0  0  0
    0.1560   25.0100  -28.2030 O   0  0  0  0  0  0  0  0  0  0  0  0
   -1.1270   24.9800  -27.6330 C   0  0  0  0  0  0  0  0  0  0  0  0
   -1.4280   25.6700  -26.4410 C   0  0  0  0  0  0  0  0  0  0  0  0
   -2.7180   25.6300  -25.9080 C   0  0  0  0  0  0  0  0  0  0  0  0
   -3.7210   24.9070  -26.5540 C   0  0  0  0  0  0  0  0  0  0  0  0
   -3.4380   24.2180  -27.7340 C   0  0  0  0  0  0  0  0  0  0  0  0
   -2.1410   24.2380  -28.2750 C   0  0  0  0  0  0  0  0  0  0  0  0
   -1.8530   23.5090  -29.5640 C   0  0  0  0  0  0  0  0  0  0  0  0
   -3.0830   22.9550  -30.1280 N   0  0  0  0  0  0  0  0  0  0  0  0
   -4.1160   23.8050  -30.6460 C   0  0  0  0  0  0  0  0  0  0  0  0
   -3.8780   25.0300  -30.8420 O   0  0  0  0  0  0  0  0  0  0  0  0
   -5.4520   23.2600  -30.9850 C   0  0  0  0  0  0  0  0  0  0  0  0
   -6.5740   24.0910  -30.9100 C   0  0  0  0  0  0  0  0  0  0  0  0
   -7.7990   23.6110  -31.2250 N   0  0  0  0  0  0  0  0  0  0  0  0
   -7.9780   22.3220  -31.6080 C   0  0  0  0  0  0  0  0  0  0  0  0
   -9.2670   21.8790  -31.9240 C   0  0  0  0  0  0  0  0  0  0  0  0
   -9.4630   20.5580  -32.3140 C   0  0  0  0  0  0  0  0  0  0  0  0
   -8.3780   19.6900  -32.3810 C   0  0  0  0  0  0  0  0  0  0  0  0
   -7.1010   20.1560  -32.0590 C   0  0  0  0  0  0  0  0  0  0  0  0
   -6.9040   21.4600  -31.6770 N   0  0  0  0  0  0  0  0  0  0  0  0
   -5.6470   21.9160  -31.3580 C   0  0  0  0  0  0  0  0  0  0  0  0
   -4.6610   21.1250  -31.3720 O   0  0  0  0  0  0  0  0  0  0  0  0
    1.2081   24.5904  -26.4718 H   0  0  0  0  0  0  0  0  0  0  0  0
    1.5251   23.4971  -27.8613 H   0  0  0  0  0  0  0  0  0  0  0  0
    2.1905   25.1656  -27.8613 H   0  0  0  0  0  0  0  0  0  0  0  0
   -0.6419   26.2433  -25.9278 H   0  0  0  0  0  0  0  0  0  0  0  0
   -2.9439   26.1698  -24.9766 H   0  0  0  0  0  0  0  0  0  0  0  0
   -4.7367   24.8800  -26.1325 H   0  0  0  0  0  0  0  0  0  0  0  0
   -4.2345   23.6560  -28.2436 H   0  0  0  0  0  0  0  0  0  0  0  0
   -1.4090   24.2112  -30.2850 H   0  0  0  0  0  0  0  0  0  0  0  0
   -1.1552   22.6844  -29.3567 H   0  0  0  0  0  0  0  0  0  0  0  0
   -3.2010   21.9190  -30.1900 H   0  0  0  0  0  0  0  0  0  0  0  0
   -6.4603   25.1384  -30.5938 H   0  0  0  0  0  0  0  0  0  0  0  0
  -10.1201   22.5709  -31.8645 H   0  0  0  0  0  0  0  0  0  0  0  0
  -10.4720   20.2013  -32.5684 H   0  0  0  0  0  0  0  0  0  0  0  0
   -8.5246   18.6432  -32.6856 H   0  0  0  0  0  0  0  0  0  0  0  0
   -6.2429   19.4699  -32.1121 H   0  0  0  0  0  0  0  0  0  0  0  0
  1  2  1  0
  2  3  1  0
  3  4  2  0
  4  5  1  0
  5  6  2  0
  6  7  1  0
  7  8  2  0
  8  9  1  0
  9 10  1  0
 10 11  1  0
 11 12  2  0
 11 13  1  0
 13 14  2  0
 14 15  1  0
 15 16  2  0
 16 17  1  0
 17 18  2  0
 18 19  1  0
 19 20  2  0
 20 21  1  0
 21 22  1  0
 22 23  2  0
  8  3  1  0
 22 13  1  0
 21 16  1  0
  1 24  1  0
  1 25  1  0
  1 26  1  0
  4 27  1  0
  5 28  1  0
  6 29  1  0
  7 30  1  0
  9 31  1  0
  9 32  1  0
 10 33  1  0
 14 34  1  0
 17 35  1  0
 18 36  1  0
 19 37  1  0
 20 38  1  0
M  END
>  <UniqueID>  (43) 
43

>  <SMILES>  (43) 
COc1ccccc1CNC(=O)c1cnc2ccccn2c1=O

>  <Energy>  (43) 
48.61127388058536

>  <Genealogy>  (43) 
COc1ccccc1CNC(=O)c1cnc2ccccn2c1=O (3D coordinates assigned)
COc1ccccc1CNC(=O)c1cnc2ccccn2c1=O (optimized conformer: 48.61127388058536 kcal/mol)

>  <smiles>  (43) 
COc1ccccc1CNC(=O)c1cnc2ccccn2c1=O

>  <score_type>  (43) 
oracle

>  <origin>  (43) 
adg

>  <m_score__min__energy>  (43) 
-8.1400000000000006

>  <m_primary>  (43) 
energy

$$$$
44:0
     RDKit          3D

 46 48  0  0  0  0  0  0  0  0999 V2000
   -0.0420   24.4850  -27.8530 C   0  0  0  0  0  0  0  0  0  0  0  0
   -0.6400   23.4340  -28.7830 C   0  0  0  0  0  0  0  0  0  0  0  0
   -2.1010   23.6220  -28.9000 N   0  0  0  0  0  0  0  0  0  0  0  0
   -2.5950   24.5640  -27.8750 C   0  0  0  0  0  0  0  0  0  0  0  0
   -4.1360   24.5410  -27.7430 C   0  0  0  0  0  0  0  0  0  0  0  0
   -4.8200   23.9010  -28.8880 N   0  0  0  0  0  0  0  0  0  0  0  0
   -4.8980   24.7910  -30.0410 C   0  0  0  0  0  0  0  0  0  0  0  0
   -3.8680   25.2980  -30.4660 O   0  0  0  0  0  0  0  0  0  0  0  0
   -6.1830   25.0270  -30.8120 C   0  0  0  0  0  0  0  0  0  0  0  0
   -6.2770   24.1620  -31.9460 O   0  0  0  0  0  0  0  0  0  0  0  0
   -6.9750   22.9430  -31.9820 C   0  0  0  0  0  0  0  0  0  0  0  0
   -8.3490   22.9550  -31.6740 C   0  0  0  0  0  0  0  0  0  0  0  0
   -9.0950   21.7680  -31.6910 C   0  0  0  0  0  0  0  0  0  0  0  0
   -8.4520   20.5740  -32.0200 C   0  0  0  0  0  0  0  0  0  0  0  0
   -7.1160   20.5510  -32.3220 C   0  0  0  0  0  0  0  0  0  0  0  0
   -6.3500   21.7200  -32.3130 C   0  0  0  0  0  0  0  0  0  0  0  0
   -6.6390   19.1860  -32.6400 C   0  0  0  0  0  0  0  0  0  0  0  0
   -7.8970   18.3070  -32.4940 C   0  0  0  0  0  0  0  0  0  0  0  0
   -9.0640   19.2280  -32.0920 C   0  0  0  0  0  0  0  0  0  0  0  0
   -4.2970   22.5440  -29.2050 C   0  0  0  0  0  0  0  0  0  0  0  0
   -2.8240   22.3460  -28.8050 C   0  0  0  0  0  0  0  0  0  0  0  0
   -0.2109   24.1881  -26.8074 H   0  0  0  0  0  0  0  0  0  0  0  0
    1.0387   24.5682  -28.0405 H   0  0  0  0  0  0  0  0  0  0  0  0
   -0.5226   25.4565  -28.0405 H   0  0  0  0  0  0  0  0  0  0  0  0
   -0.1815   23.5278  -29.7785 H   0  0  0  0  0  0  0  0  0  0  0  0
   -0.4406   22.4350  -28.3679 H   0  0  0  0  0  0  0  0  0  0  0  0
   -2.1537   24.2927  -26.9046 H   0  0  0  0  0  0  0  0  0  0  0  0
   -2.3010   25.5781  -28.1836 H   0  0  0  0  0  0  0  0  0  0  0  0
   -4.3983   23.9887  -26.8286 H   0  0  0  0  0  0  0  0  0  0  0  0
   -4.4722   25.5879  -27.7111 H   0  0  0  0  0  0  0  0  0  0  0  0
   -5.8110   23.7530  -28.5740 H   0  0  0  0  0  0  0  0  0  0  0  0
   -7.0390   24.8396  -30.1470 H   0  0  0  0  0  0  0  0  0  0  0  0
   -6.1865   26.0675  -31.1689 H   0  0  0  0  0  0  0  0  0  0  0  0
   -8.8416   23.9045  -31.4177 H   0  0  0  0  0  0  0  0  0  0  0  0
  -10.1681   21.7777  -31.4493 H   0  0  0  0  0  0  0  0  0  0  0  0
   -5.2784   21.6883  -32.5595 H   0  0  0  0  0  0  0  0  0  0  0  0
   -6.2459   19.1385  -33.6663 H   0  0  0  0  0  0  0  0  0  0  0  0
   -5.8177   18.8614  -31.9842 H   0  0  0  0  0  0  0  0  0  0  0  0
   -8.1219   17.8121  -33.4503 H   0  0  0  0  0  0  0  0  0  0  0  0
   -7.7387   17.5290  -31.7326 H   0  0  0  0  0  0  0  0  0  0  0  0
   -9.8614   19.2014  -32.8493 H   0  0  0  0  0  0  0  0  0  0  0  0
   -9.5336   18.9260  -31.1442 H   0  0  0  0  0  0  0  0  0  0  0  0
   -4.9064   21.8017  -28.6687 H   0  0  0  0  0  0  0  0  0  0  0  0
   -4.3557   22.4210  -30.2965 H   0  0  0  0  0  0  0  0  0  0  0  0
   -2.7742   21.9753  -27.7705 H   0  0  0  0  0  0  0  0  0  0  0  0
   -2.3601   21.6168  -29.4855 H   0  0  0  0  0  0  0  0  0  0  0  0
  1  2  1  0
  2  3  1  0
  3  4  1  0
  4  5  1  0
  5  6  1  0
  6  7  1  0
  7  8  2  0
  7  9  1  0
  9 10  1  0
 10 11  1  0
 11 12  2  0
 12 13  1  0
 13 14  2  0
 14 15  1  0
 15 16  2  0
 15 17  1  0
 17 18  1  0
 18 19  1  0
  6 20  1  0
 20 21  1  0
 21  3  1  0
 16 11  1  0
 19 14  1  0
  1 22  1  0
  1 23  1  0
  1 24  1  0
  2 25  1  0
  2 26  1  0
  4 27  1  0
  4 28  1  0
  5 29  1  0
  5 30  1  0
  6 31  1  0
  9 32  1  0
  9 33  1  0
 12 34  1  0
 13 35  1  0
 16 36  1  0
 17 37  1  0
 17 38  1  0
 18 39  1  0
 18 40  1  0
 19 41  1  0
 19 42  1  0
 20 43  1  0
 20 44  1  0
 21 45  1  0
 21 46  1  0
M  CHG  1   6   1
M  END
>  <UniqueID>  (44) 
44

>  <SMILES>  (44) 
CCN1CC[NH+](C(=O)COc2ccc3c(c2)CCC3)CC1

>  <Energy>  (44) 
66.3592624084781

>  <Genealogy>  (44) 
CCN1CC[NH+](C(=O)COc2ccc3c(c2)CCC3)CC1 (protonated)
CCN1CC[NH+](C(=O)COc2ccc3c(c2)CCC3)CC1 (3D coordinates assigned)
CCN1CC[NH+](C(=O)COc2ccc3c(c2)CCC3)CC1 (nonaromatic ring conformer: 66.3592624084781 kcal/mol)

>  <smiles>  (44) 
CCN1CCN(C(=O)COc2ccc3c(c2)CCC3)CC1

>  <score_type>  (44) 
oracle

>  <origin>  (44) 
adg

>  <m_score__min__energy>  (44) 
-7.7300000000000004

>  <m_primary>  (44) 
energy

$$$$
45:0
     RDKit          3D

 57 60  0  0  0  0  0  0  0  0999 V2000
    1.0150   21.1850  -34.2510 C   0  0  0  0  0  0  0  0  0  0  0  0
   -0.2370   21.1310  -35.0940 C   0  0  0  0  0  0  0  0  0  0  0  0
   -1.3840   20.7540  -34.2840 N   0  0  0  0  0  0  0  0  0  0  0  0
   -1.1450   21.0120  -32.8800 C   0  0  0  0  0  0  0  0  0  0  0  0
   -2.3010   21.6520  -32.1760 C   0  0  0  0  0  0  0  0  0  0  0  0
   -3.5040   21.8490  -32.9910 C   0  0  0  0  0  0  0  0  0  0  0  0
   -4.0760   20.5990  -33.5090 N   0  0  0  0  0  0  0  0  0  0  0  0
   -4.1660   19.6780  -32.3170 C   0  0  0  0  0  0  0  0  0  0  0  0
   -5.5700   19.2660  -32.1870 C   0  0  0  0  0  0  0  0  0  0  0  0
   -5.8960   17.9250  -32.3890 C   0  0  0  0  0  0  0  0  0  0  0  0
   -7.2310   17.5040  -32.4310 C   0  0  0  0  0  0  0  0  0  0  0  0
   -8.2830   18.3730  -32.2770 C   0  0  0  0  0  0  0  0  0  0  0  0
   -7.9600   19.7020  -32.0720 C   0  0  0  0  0  0  0  0  0  0  0  0
   -6.6350   20.1210  -32.0300 C   0  0  0  0  0  0  0  0  0  0  0  0
   -6.4540   21.5420  -31.6850 C   0  0  0  0  0  0  0  0  0  0  0  0
   -7.1870   22.5330  -32.3630 C   0  0  0  0  0  0  0  0  0  0  0  0
   -7.0020   23.8710  -32.1120 C   0  0  0  0  0  0  0  0  0  0  0  0
   -6.0850   24.2460  -31.1830 C   0  0  0  0  0  0  0  0  0  0  0  0
   -5.3380   23.3280  -30.4890 C   0  0  0  0  0  0  0  0  0  0  0  0
   -4.3610   23.7960  -29.5180 C   0  0  0  0  0  0  0  0  0  0  0  0
   -3.0540   24.0590  -29.7660 N   0  0  0  0  0  0  0  0  0  0  0  0
   -2.4730   24.5070  -28.6370 C   0  0  0  0  0  0  0  0  0  0  0  0
   -1.1770   24.9230  -28.3160 C   0  0  0  0  0  0  0  0  0  0  0  0
   -0.9260   25.3370  -27.0030 C   0  0  0  0  0  0  0  0  0  0  0  0
   -1.9490   25.3310  -26.0640 C   0  0  0  0  0  0  0  0  0  0  0  0
   -3.2290   24.9180  -26.3920 C   0  0  0  0  0  0  0  0  0  0  0  0
   -3.4830   24.5060  -27.6900 C   0  0  0  0  0  0  0  0  0  0  0  0
   -4.6150   24.0730  -28.2410 N   0  0  0  0  0  0  0  0  0  0  0  0
   -5.5350   21.9630  -30.7510 C   0  0  0  0  0  0  0  0  0  0  0  0
    0.7406   21.1732  -33.1858 H   0  0  0  0  0  0  0  0  0  0  0  0
    1.6468   20.3133  -34.4766 H   0  0  0  0  0  0  0  0  0  0  0  0
    1.5694   22.1079  -34.4766 H   0  0  0  0  0  0  0  0  0  0  0  0
   -0.4174   22.1215  -35.5371 H   0  0  0  0  0  0  0  0  0  0  0  0
   -0.0994   20.3793  -35.8852 H   0  0  0  0  0  0  0  0  0  0  0  0
   -2.2570   21.1880  -34.6080 H   0  0  0  0  0  0  0  0  0  0  0  0
   -0.9244   20.0550  -32.3845 H   0  0  0  0  0  0  0  0  0  0  0  0
   -0.3049   21.7199  -32.8237 H   0  0  0  0  0  0  0  0  0  0  0  0
   -2.5714   21.0158  -31.3203 H   0  0  0  0  0  0  0  0  0  0  0  0
   -1.9614   22.6583  -31.8895 H   0  0  0  0  0  0  0  0  0  0  0  0
   -4.2643   22.3493  -32.3732 H   0  0  0  0  0  0  0  0  0  0  0  0
   -3.2079   22.4527  -33.8615 H   0  0  0  0  0  0  0  0  0  0  0  0
   -3.4100   20.2030  -34.1990 H   0  0  0  0  0  0  0  0  0  0  0  0
   -3.5280   18.7958  -32.4742 H   0  0  0  0  0  0  0  0  0  0  0  0
   -3.8243   20.1883  -31.4044 H   0  0  0  0  0  0  0  0  0  0  0  0
   -5.0914   17.1860  -32.5174 H   0  0  0  0  0  0  0  0  0  0  0  0
   -7.4449   16.4373  -32.5934 H   0  0  0  0  0  0  0  0  0  0  0  0
   -9.3275   18.0301  -32.3147 H   0  0  0  0  0  0  0  0  0  0  0  0
   -8.7650   20.4400  -31.9400 H   0  0  0  0  0  0  0  0  0  0  0  0
   -7.9292   22.2280  -33.1154 H   0  0  0  0  0  0  0  0  0  0  0  0
   -7.5877   24.6272  -32.6553 H   0  0  0  0  0  0  0  0  0  0  0  0
   -5.9369   25.3171  -30.9811 H   0  0  0  0  0  0  0  0  0  0  0  0
   -0.3788   24.9247  -29.0729 H   0  0  0  0  0  0  0  0  0  0  0  0
    0.0827   25.6675  -26.7145 H   0  0  0  0  0  0  0  0  0  0  0  0
   -1.7376   25.6618  -25.0365 H   0  0  0  0  0  0  0  0  0  0  0  0
   -4.0287   24.9170  -25.6367 H   0  0  0  0  0  0  0  0  0  0  0  0
   -5.5330   23.9690  -27.7630 H   0  0  0  0  0  0  0  0  0  0  0  0
   -4.9442   21.2165  -30.1999 H   0  0  0  0  0  0  0  0  0  0  0  0
  1  2  1  0
  2  3  1  0
  3  4  1  0
  4  5  1  0
  5  6  1  0
  6  7  1  0
  7  8  1  0
  8  9  1  0
  9 10  2  0
 10 11  1  0
 11 12  2  0
 12 13  1  0
 13 14  2  0
 14 15  1  0
 15 16  2  0
 16 17  1  0
 17 18  2  0
 18 19  1  0
 19 20  1  0
 20 21  2  0
 21 22  1  0
 22 23  2  0
 23 24  1  0
 24 25  2  0
 25 26  1  0
 26 27  2  0
 27 28  1  0
 19 29  2  0
 14  9  1  0
 29 15  1  0
 28 20  1  0
 27 22  1  0
  1 30  1  0
  1 31  1  0
  1 32  1  0
  2 33  1  0
  2 34  1  0
  3 35  1  0
  4 36  1  0
  4 37  1  0
  5 38  1  0
  5 39  1  0
  6 40  1  0
  6 41  1  0
  7 42  1  0
  8 43  1  0
  8 44  1  0
 10 45  1  0
 11 46  1  0
 12 47  1  0
 13 48  1  0
 16 49  1  0
 17 50  1  0
 18 51  1  0
 23 52  1  0
 24 53  1  0
 25 54  1  0
 26 55  1  0
 28 56  1  0
 29 57  1  0
M  END
>  <smiles>  (45) 
CCNCCCNCc1ccccc1-c1cccc(-c2nc3ccccc3[nH]2)c1

>  <score_type>  (45) 
oracle

>  <origin>  (45) 
adg

>  <m_score__min__energy>  (45) 
-8.9800000000000004

>  <m_primary>  (45) 
energy

$$$$
46:0
     RDKit          3D

 50 54  0  0  0  0  0  0  0  0999 V2000
    2.1260   25.9040  -26.1600 O   0  0  0  0  0  0  0  0  0  0  0  0
    1.0660   25.4750  -25.6290 C   0  0  0  0  0  0  0  0  0  0  0  0
    0.1340   24.7060  -26.4750 C   0  0  0  0  0  0  0  0  0  0  0  0
    0.0600   23.3170  -26.3450 C   0  0  0  0  0  0  0  0  0  0  0  0
   -0.8170   22.5750  -27.1390 C   0  0  0  0  0  0  0  0  0  0  0  0
   -1.6350   23.2030  -28.0980 C   0  0  0  0  0  0  0  0  0  0  0  0
   -1.5290   24.6240  -28.2400 C   0  0  0  0  0  0  0  0  0  0  0  0
   -0.6430   25.3520  -27.4390 C   0  0  0  0  0  0  0  0  0  0  0  0
   -2.2880   25.2950  -29.1560 N   0  0  0  0  0  0  0  0  0  0  0  0
   -3.1740   24.6610  -29.9660 C   0  0  0  0  0  0  0  0  0  0  0  0
   -3.8560   25.3150  -30.7970 O   0  0  0  0  0  0  0  0  0  0  0  0
   -3.3040   23.2860  -29.8500 C   0  0  0  0  0  0  0  0  0  0  0  0
   -4.1100   22.4100  -30.5310 C   0  0  0  0  0  0  0  0  0  0  0  0
   -3.8690   21.1730  -30.0580 N   0  0  0  0  0  0  0  0  0  0  0  0
   -2.9420   21.2360  -29.1040 N   0  0  0  0  0  0  0  0  0  0  0  0
   -2.5060   20.0010  -28.4370 C   0  0  0  0  0  0  0  0  0  0  0  0
   -3.1080   19.8610  -27.0180 C   0  0  0  0  0  0  0  0  0  0  0  0
   -2.2730   18.9460  -26.1070 C   0  0  0  0  0  0  0  0  0  0  0  0
   -1.4220   18.0990  -26.8520 O   0  0  0  0  0  0  0  0  0  0  0  0
   -0.4120   18.8740  -27.4670 C   0  0  0  0  0  0  0  0  0  0  0  0
   -0.9830   19.7720  -28.5780 C   0  0  0  0  0  0  0  0  0  0  0  0
   -2.5690   22.5460  -28.9520 C   0  0  0  0  0  0  0  0  0  0  0  0
    0.7830   25.7950  -24.2400 N   0  0  0  0  0  0  0  0  0  0  0  0
    1.6770   26.8630  -23.7220 C   0  0  0  0  0  0  0  0  0  0  0  0
    0.9870   28.2350  -23.6360 C   0  0  0  0  0  0  0  0  0  0  0  0
    0.0100   28.3590  -24.6410 O   0  0  0  0  0  0  0  0  0  0  0  0
   -1.0810   27.5060  -24.3550 C   0  0  0  0  0  0  0  0  0  0  0  0
   -0.6530   26.0610  -23.9920 C   0  0  0  0  0  0  0  0  0  0  0  0
    0.6981   22.8033  -25.6108 H   0  0  0  0  0  0  0  0  0  0  0  0
   -0.8697   21.4835  -27.0135 H   0  0  0  0  0  0  0  0  0  0  0  0
   -0.5577   26.4409  -27.5693 H   0  0  0  0  0  0  0  0  0  0  0  0
   -4.8266   22.6719  -31.3234 H   0  0  0  0  0  0  0  0  0  0  0  0
   -2.9345   19.1391  -28.9695 H   0  0  0  0  0  0  0  0  0  0  0  0
   -3.1631   20.8591  -26.5590 H   0  0  0  0  0  0  0  0  0  0  0  0
   -4.1040   19.4061  -27.1229 H   0  0  0  0  0  0  0  0  0  0  0  0
   -1.6595   19.5706  -25.4410 H   0  0  0  0  0  0  0  0  0  0  0  0
   -2.9647   18.3143  -25.5304 H   0  0  0  0  0  0  0  0  0  0  0  0
    0.0645   19.5084  -26.7051 H   0  0  0  0  0  0  0  0  0  0  0  0
    0.3185   18.1883  -27.9210 H   0  0  0  0  0  0  0  0  0  0  0  0
   -0.4754   20.7471  -28.5380 H   0  0  0  0  0  0  0  0  0  0  0  0
   -0.8111   19.2628  -29.5378 H   0  0  0  0  0  0  0  0  0  0  0  0
    1.0060   24.9280  -23.6940 H   0  0  0  0  0  0  0  0  0  0  0  0
    2.0170   26.5779  -22.7155 H   0  0  0  0  0  0  0  0  0  0  0  0
    2.5161   26.9602  -24.4266 H   0  0  0  0  0  0  0  0  0  0  0  0
    0.5083   28.3384  -22.6510 H   0  0  0  0  0  0  0  0  0  0  0  0
    1.7423   29.0225  -23.7750 H   0  0  0  0  0  0  0  0  0  0  0  0
   -1.6404   27.9276  -23.5069 H   0  0  0  0  0  0  0  0  0  0  0  0
   -1.6932   27.4443  -25.2668 H   0  0  0  0  0  0  0  0  0  0  0  0
   -0.8598   25.8934  -22.9247 H   0  0  0  0  0  0  0  0  0  0  0  0
   -1.2266   25.3796  -24.6376 H   0  0  0  0  0  0  0  0  0  0  0  0
  1  2  2  0
  2  3  1  0
  3  4  2  0
  4  5  1  0
  5  6  2  0
  6  7  1  0
  7  8  2  0
  7  9  1  0
  9 10  1  0
 10 11  2  0
 10 12  1  0
 12 13  1  0
 13 14  2  0
 14 15  1  0
 15 16  1  0
 16 17  1  0
 17 18  1  0
 18 19  1  0
 19 20  1  0
 20 21  1  0
 15 22  1  0
  2 23  1  0
 23 24  1  0
 24 25  1  0
 25 26  1  0
 26 27  1  0
 27 28  1  0
  8  3  1  0
 22 12  2  0
 28 23  1  0
 22  6  1  0
 21 16  1  0
  4 29  1  0
  5 30  1  0
  8 31  1  0
 13 32  1  0
 16 33  1  0
 17 34  1  0
 17 35  1  0
 18 36  1  0
 18 37  1  0
 20 38  1  0
 20 39  1  0
 21 40  1  0
 21 41  1  0
 23 42  1  0
 24 43  1  0
 24 44  1  0
 25 45  1  0
 25 46  1  0
 27 47  1  0
 27 48  1  0
 28 49  1  0
 28 50  1  0
M  CHG  2   9  -1  23   1
M  END
>  <UniqueID>  (46) 
45

>  <SMILES>  (46) 
O=C(c1ccc2c(c1)[n-]c(=O)c1cnn(C3CCOCC3)c12)[NH+]1CCOCC1

>  <Energy>  (46) 
138.11877212952038

>  <Genealogy>  (46) 
O=C(c1ccc2c(c1)[n-]c(=O)c1cnn(C3CCOCC3)c12)[NH+]1CCOCC1 (protonated)
O=C(c1ccc2c(c1)[n-]c(=O)c1cnn(C3CCOCC3)c12)[NH+]1CCOCC1 (3D coordinates assigned)
O=C(c1ccc2c(c1)[n-]c(=O)c1cnn(C3CCOCC3)c12)[NH+]1CCOCC1 (nonaromatic ring conformer: 138.11877212952038 kcal/mol)

>  <smiles>  (46) 
O=C(c1ccc2c(c1)[nH]c(=O)c1cnn(C3CCOCC3)c12)N1CCOCC1

>  <score_type>  (46) 
oracle

>  <origin>  (46) 
adg

>  <m_score__min__energy>  (46) 
-10.039999999999999

>  <m_primary>  (46) 
energy

$$$$
