0:0
     RDKit          3D

 25 27  0  0  0  0  0  0  0  0999 V2000
   -7.7950   17.8480  -32.0840 C   0  0  0  0  0  0  0  0  0  0  0  0
   -8.7210   19.0110  -31.7430 C   0  0  0  0  0  0  0  0  0  0  0  0
   -8.5290   20.1790  -32.7150 C   0  0  0  0  0  0  0  0  0  0  0  0
   -7.2930   20.9080  -32.3950 N   0  0  0  0  0  0  0  0  0  0  0  0
   -6.0900   20.4410  -32.8900 C   0  0  0  0  0  0  0  0  0  0  0  0
   -4.9150   21.0920  -32.6260 N   0  0  0  0  0  0  0  0  0  0  0  0
   -4.9410   22.1710  -31.8120 C   0  0  0  0  0  0  0  0  0  0  0  0
   -3.9160   23.0390  -31.5970 N   0  0  0  0  0  0  0  0  0  0  0  0
   -4.5470   23.9830  -30.8500 C   0  0  0  0  0  0  0  0  0  0  0  0
   -4.2430   25.2890  -30.7680 N   0  0  0  0  0  0  0  0  0  0  0  0
   -5.4740   25.8090  -30.4720 C   0  0  0  0  0  0  0  0  0  0  0  0
   -6.4740   24.8840  -30.4670 N   0  0  0  0  0  0  0  0  0  0  0  0
   -5.8240   23.7540  -30.6360 N   0  0  0  0  0  0  0  0  0  0  0  0
   -6.1120   22.6250  -31.2770 C   0  0  0  0  0  0  0  0  0  0  0  0
   -7.3200   22.0230  -31.5860 C   0  0  0  0  0  0  0  0  0  0  0  0
   -8.4020   22.4830  -31.1290 O   0  0  0  0  0  0  0  0  0  0  0  0
   -7.4280   17.3870  -31.1551 H   0  0  0  0  0  0  0  0  0  0  0  0
   -8.3472   17.0997  -32.6714 H   0  0  0  0  0  0  0  0  0  0  0  0
   -6.9420   18.2186  -32.6714 H   0  0  0  0  0  0  0  0  0  0  0  0
   -9.7642   18.6665  -31.7985 H   0  0  0  0  0  0  0  0  0  0  0  0
   -8.4799   19.3606  -30.7283 H   0  0  0  0  0  0  0  0  0  0  0  0
   -8.4660   19.7903  -33.7421 H   0  0  0  0  0  0  0  0  0  0  0  0
   -9.3840   20.8652  -32.6248 H   0  0  0  0  0  0  0  0  0  0  0  0
   -6.0765   19.5303  -33.5069 H   0  0  0  0  0  0  0  0  0  0  0  0
   -5.6404   26.8751  -30.2580 H   0  0  0  0  0  0  0  0  0  0  0  0
  1  2  1  0
  2  3  1  0
  3  4  1  0
  4  5  1  0
  5  6  2  0
  6  7  1  0
  7  8  1  0
  8  9  1  0
  9 10  2  0
 10 11  1  0
 11 12  2  0
 12 13  1  0
 13 14  1  0
 14 15  1  0
 15 16  2  0
 15  4  1  0
 14  7  2  0
 13  9  1  0
  1 17  1  0
  1 18  1  0
  1 19  1  0
  2 20  1  0
  2 21  1  0
  3 22  1  0
  3 23  1  0
  5 24  1  0
 11 25  1  0
M  CHG  1   8  -1
M  END
>  <UniqueID>  (1) 
1

>  <SMILES>  (1) 
CCCn1cnc2[n-]c3ncnn3c2c1=O

>  <Energy>  (1) 
129.29592390752543

>  <Genealogy>  (1) 
CCCn1cnc2[n-]c3ncnn3c2c1=O (protonated)
CCCn1cnc2[n-]c3ncnn3c2c1=O (3D coordinates assigned)
CCCn1cnc2[n-]c3ncnn3c2c1=O (optimized conformer: 129.29592390752543 kcal/mol)

>  <smiles>  (1) 
CCCn1cnc2[nH]c3ncnn3c2c1=O

>  <score_type>  (1) 
oracle

>  <origin>  (1) 
adg

>  <m_score__min__energy>  (1) 
-6.8899999999999997

>  <m_primary>  (1) 
energy

$$$$
1:0
     RDKit          3D

 55 58  0  0  0  0  0  0  0  0999 V2000
   -5.6020   16.2290  -32.5770 C   0  0  0  0  0  0  0  0  0  0  0  0
   -6.8180   16.9220  -33.2100 C   0  0  0  0  0  0  0  0  0  0  0  0
   -6.9350   18.3640  -32.8760 N   0  0  0  0  0  0  0  0  0  0  0  0
   -8.2600   18.7850  -32.3620 C   0  0  0  0  0  0  0  0  0  0  0  0
   -8.5960   20.2340  -32.7300 C   0  0  0  0  0  0  0  0  0  0  0  0
   -8.7480   21.2420  -31.2690 Cl  0  0  0  0  0  0  0  0  0  0  0  0
   -6.4480   19.2450  -33.9640 C   0  0  0  0  0  0  0  0  0  0  0  0
   -5.7230   18.4080  -35.0110 C   0  0  0  0  0  0  0  0  0  0  0  0
   -4.3190   18.4370  -34.7620 O   0  0  0  0  0  0  0  0  0  0  0  0
   -3.7070   19.2310  -33.7830 C   0  0  0  0  0  0  0  0  0  0  0  0
   -2.7550   20.1740  -34.1910 C   0  0  0  0  0  0  0  0  0  0  0  0
   -2.1180   20.9910  -33.2530 C   0  0  0  0  0  0  0  0  0  0  0  0
   -2.3990   20.8510  -31.8910 C   0  0  0  0  0  0  0  0  0  0  0  0
   -1.7650   21.7210  -30.9430 N   0  0  0  0  0  0  0  0  0  0  0  0
   -2.2320   22.7940  -30.3500 C   0  0  0  0  0  0  0  0  0  0  0  0
   -3.4940   23.3970  -30.6580 C   0  0  0  0  0  0  0  0  0  0  0  0
   -4.5400   22.7330  -31.3440 C   0  0  0  0  0  0  0  0  0  0  0  0
   -5.7320   23.3960  -31.6480 C   0  0  0  0  0  0  0  0  0  0  0  0
   -5.9320   24.7120  -31.2360 C   0  0  0  0  0  0  0  0  0  0  0  0
   -4.9590   25.3550  -30.4740 C   0  0  0  0  0  0  0  0  0  0  0  0
   -3.7640   24.6980  -30.1530 C   0  0  0  0  0  0  0  0  0  0  0  0
   -2.8930   25.3000  -29.3080 N   0  0  0  0  0  0  0  0  0  0  0  0
   -1.7520   24.6980  -28.8940 C   0  0  0  0  0  0  0  0  0  0  0  0
   -0.9160   25.3620  -27.9880 C   0  0  0  0  0  0  0  0  0  0  0  0
    0.2700   24.7630  -27.5580 C   0  0  0  0  0  0  0  0  0  0  0  0
    0.6270   23.5010  -28.0320 C   0  0  0  0  0  0  0  0  0  0  0  0
   -0.1960   22.8320  -28.9410 C   0  0  0  0  0  0  0  0  0  0  0  0
   -1.4040   23.4190  -29.3840 C   0  0  0  0  0  0  0  0  0  0  0  0
   -3.3730   19.9300  -31.4770 C   0  0  0  0  0  0  0  0  0  0  0  0
   -4.0170   19.1170  -32.4140 C   0  0  0  0  0  0  0  0  0  0  0  0
   -5.6830   16.2752  -31.4810 H   0  0  0  0  0  0  0  0  0  0  0  0
   -5.5708   15.1775  -32.8984 H   0  0  0  0  0  0  0  0  0  0  0  0
   -4.6814   16.7381  -32.8984 H   0  0  0  0  0  0  0  0  0  0  0  0
   -6.7405   16.8256  -34.3030 H   0  0  0  0  0  0  0  0  0  0  0  0
   -7.7126   16.4282  -32.8027 H   0  0  0  0  0  0  0  0  0  0  0  0
   -9.0300   18.1248  -32.7877 H   0  0  0  0  0  0  0  0  0  0  0  0
   -8.2314   18.7158  -31.2646 H   0  0  0  0  0  0  0  0  0  0  0  0
   -7.7947   20.6393  -33.3654 H   0  0  0  0  0  0  0  0  0  0  0  0
   -9.5558   20.2467  -33.2672 H   0  0  0  0  0  0  0  0  0  0  0  0
   -7.3023   19.7567  -34.4313 H   0  0  0  0  0  0  0  0  0  0  0  0
   -5.7553   19.9916  -33.5482 H   0  0  0  0  0  0  0  0  0  0  0  0
   -6.0818   17.3693  -34.9612 H   0  0  0  0  0  0  0  0  0  0  0  0
   -5.9242   18.8209  -36.0105 H   0  0  0  0  0  0  0  0  0  0  0  0
   -2.5068   20.2723  -35.2581 H   0  0  0  0  0  0  0  0  0  0  0  0
   -1.3927   21.7471  -33.5879 H   0  0  0  0  0  0  0  0  0  0  0  0
   -4.4125   21.6817  -31.6414 H   0  0  0  0  0  0  0  0  0  0  0  0
   -6.5173   22.8758  -32.2161 H   0  0  0  0  0  0  0  0  0  0  0  0
   -6.8557   25.2418  -31.5117 H   0  0  0  0  0  0  0  0  0  0  0  0
   -5.1298   26.3833  -30.1228 H   0  0  0  0  0  0  0  0  0  0  0  0
   -1.1942   26.3583  -27.6139 H   0  0  0  0  0  0  0  0  0  0  0  0
    0.9232   25.2871  -26.8448 H   0  0  0  0  0  0  0  0  0  0  0  0
    1.5602   23.0306  -27.6888 H   0  0  0  0  0  0  0  0  0  0  0  0
    0.0979   21.8403  -29.3154 H   0  0  0  0  0  0  0  0  0  0  0  0
   -3.6309   19.8474  -30.4108 H   0  0  0  0  0  0  0  0  0  0  0  0
   -4.7683   18.3858  -32.0810 H   0  0  0  0  0  0  0  0  0  0  0  0
  1  2  1  0
  2  3  1  0
  3  4  1  0
  4  5  1  0
  5  6  1  0
  3  7  1  0
  7  8  1  0
  8  9  1  0
  9 10  1  0
 10 11  2  0
 11 12  1  0
 12 13  2  0
 13 14  1  0
 14 15  2  3
 15 16  1  0
 16 17  2  0
 17 18  1  0
 18 19  2  0
 19 20  1  0
 20 21  2  0
 21 22  1  0
 22 23  1  0
 23 24  2  0
 24 25  1  0
 25 26  2  0
 26 27  1  0
 27 28  2  0
 13 29  1  0
 29 30  2  0
 30 10  1  0
 28 15  1  0
 21 16  1  0
 28 23  1  0
  1 31  1  0
  1 32  1  0
  1 33  1  0
  2 34  1  0
  2 35  1  0
  4 36  1  0
  4 37  1  0
  5 38  1  0
  5 39  1  0
  7 40  1  0
  7 41  1  0
  8 42  1  0
  8 43  1  0
 11 44  1  0
 12 45  1  0
 17 46  1  0
 18 47  1  0
 19 48  1  0
 20 49  1  0
 24 50  1  0
 25 51  1  0
 26 52  1  0
 27 53  1  0
 29 54  1  0
 30 55  1  0
M  CHG  1  22  -1
M  END
>  <UniqueID>  (2) 
2

>  <SMILES>  (2) 
CCN(CCCl)CCOc1ccc(N=c2c3ccccc3[n-]c3ccccc23)cc1

>  <Energy>  (2) 
88.08533743653437

>  <Genealogy>  (2) 
CCN(CCCl)CCOc1ccc(N=c2c3ccccc3[n-]c3ccccc23)cc1 (protonated)
CCN(CCCl)CCOc1ccc(N=c2c3ccccc3[n-]c3ccccc23)cc1 (3D coordinates assigned)
CCN(CCCl)CCOc1ccc(N=c2c3ccccc3[n-]c3ccccc23)cc1 (optimized conformer: 88.08533743653437 kcal/mol)

>  <smiles>  (2) 
CCN(CCCl)CCOc1ccc(N=c2c3ccccc3[nH]c3ccccc23)cc1

>  <score_type>  (2) 
oracle

>  <origin>  (2) 
adg

>  <m_score__min__energy>  (2) 
-9.7899999999999991

>  <m_primary>  (2) 
energy

$$$$
2:0
     RDKit          3D

 31 32  0  0  0  0  0  0  0  0999 V2000
   -4.2200   24.5250  -26.6440 C   0  0  0  0  0  0  0  0  0  0  0  0
   -3.3300   24.7280  -27.8030 N   0  0  0  0  0  0  0  0  0  0  0  0
   -2.0450   25.2830  -27.3460 C   0  0  0  0  0  0  0  0  0  0  0  0
   -3.0990   23.4650  -28.5430 C   0  0  0  0  0  0  0  0  0  0  0  0
   -2.8440   23.6980  -30.0420 C   0  0  0  0  0  0  0  0  0  0  0  0
   -3.4940   24.9270  -30.4820 N   0  0  0  0  0  0  0  0  0  0  0  0
   -4.9120   25.1200  -30.4780 C   0  0  0  0  0  0  0  0  0  0  0  0
   -5.4020   26.2280  -30.1280 O   0  0  0  0  0  0  0  0  0  0  0  0
   -5.8030   24.0270  -30.8910 C   0  0  0  0  0  0  0  0  0  0  0  0
   -7.0920   23.8030  -30.3800 C   0  0  0  0  0  0  0  0  0  0  0  0
   -7.5120   22.6920  -31.0660 C   0  0  0  0  0  0  0  0  0  0  0  0
   -8.8450   21.6890  -31.1710 S   0  0  0  0  0  0  0  0  0  0  0  0
   -8.1140   20.7060  -32.3720 C   0  0  0  0  0  0  0  0  0  0  0  0
   -6.8290   21.1810  -32.6740 C   0  0  0  0  0  0  0  0  0  0  0  0
   -6.5470   22.3020  -31.9060 C   0  0  0  0  0  0  0  0  0  0  0  0
   -5.4720   23.0990  -31.8320 N   0  0  0  0  0  0  0  0  0  0  0  0
   -3.6469   24.6557  -25.7143 H   0  0  0  0  0  0  0  0  0  0  0  0
   -5.0381   25.2596  -26.6768 H   0  0  0  0  0  0  0  0  0  0  0  0
   -4.6386   23.5083  -26.6768 H   0  0  0  0  0  0  0  0  0  0  0  0
   -3.7710   25.4320  -28.4430 H   0  0  0  0  0  0  0  0  0  0  0  0
   -2.0205   25.2936  -26.2463 H   0  0  0  0  0  0  0  0  0  0  0  0
   -1.2211   24.6605  -27.7251 H   0  0  0  0  0  0  0  0  0  0  0  0
   -1.9334   26.3095  -27.7251 H   0  0  0  0  0  0  0  0  0  0  0  0
   -2.2235   22.9582  -28.1110 H   0  0  0  0  0  0  0  0  0  0  0  0
   -4.0079   22.8525  -28.4501 H   0  0  0  0  0  0  0  0  0  0  0  0
   -1.7610   23.7776  -30.2176 H   0  0  0  0  0  0  0  0  0  0  0  0
   -3.2573   22.8519  -30.6105 H   0  0  0  0  0  0  0  0  0  0  0  0
   -7.6334   24.3790  -29.6151 H   0  0  0  0  0  0  0  0  0  0  0  0
   -8.5855   19.8286  -32.8386 H   0  0  0  0  0  0  0  0  0  0  0  0
   -6.1463   20.7316  -33.4102 H   0  0  0  0  0  0  0  0  0  0  0  0
   -4.5840   23.0200  -32.3760 H   0  0  0  0  0  0  0  0  0  0  0  0
  1  2  1  0
  2  3  1  0
  2  4  1  0
  4  5  1  0
  5  6  1  0
  6  7  1  0
  7  8  2  0
  7  9  1  0
  9 10  2  0
 10 11  1  0
 11 12  1  0
 12 13  1  0
 13 14  2  0
 14 15  1  0
 15 16  1  0
 16  9  1  0
 15 11  2  0
  1 17  1  0
  1 18  1  0
  1 19  1  0
  2 20  1  0
  3 21  1  0
  3 22  1  0
  3 23  1  0
  4 24  1  0
  4 25  1  0
  5 26  1  0
  5 27  1  0
 10 28  1  0
 13 29  1  0
 14 30  1  0
 16 31  1  0
M  CHG  2   2   1   6  -1
M  END
>  <UniqueID>  (3) 
3

>  <SMILES>  (3) 
C[NH+](C)CC[N-]C(=O)c1cc2sccc2[nH]1

>  <Energy>  (3) 
100.7997044619319

>  <Genealogy>  (3) 
C[NH+](C)CC[N-]C(=O)c1cc2sccc2[nH]1 (protonated)
C[NH+](C)CC[N-]C(=O)c1cc2sccc2[nH]1 (3D coordinates assigned)
C[NH+](C)CC[N-]C(=O)c1cc2sccc2[nH]1 (optimized conformer: 100.7997044619319 kcal/mol)

>  <smiles>  (3) 
CN(C)CCNC(=O)c1cc2sccc2[nH]1

>  <score_type>  (3) 
oracle

>  <origin>  (3) 
adg

>  <m_score__min__energy>  (3) 
-6.7000000000000002

>  <m_primary>  (3) 
energy

$$$$
3:0
     RDKit          3D

 30 31  0  0  0  0  0  0  0  0999 V2000
   -0.5260   22.7710  -29.2360 C   0  0  0  0  0  0  0  0  0  0  0  0
   -0.6560   23.7380  -28.0910 C   0  0  0  0  0  0  0  0  0  0  0  0
    0.0960   23.5270  -26.9220 C   0  0  0  0  0  0  0  0  0  0  0  0
   -0.0070   24.4070  -25.8430 C   0  0  0  0  0  0  0  0  0  0  0  0
   -0.8680   25.5010  -25.9140 C   0  0  0  0  0  0  0  0  0  0  0  0
   -1.6290   25.7210  -27.0640 C   0  0  0  0  0  0  0  0  0  0  0  0
   -1.5290   24.8510  -28.1650 C   0  0  0  0  0  0  0  0  0  0  0  0
   -2.3470   25.0640  -29.3320 N   0  0  0  0  0  0  0  0  0  0  0  0
   -3.6830   24.5500  -29.4630 C   0  0  0  0  0  0  0  0  0  0  0  0
   -4.3350   24.2140  -28.4400 O   0  0  0  0  0  0  0  0  0  0  0  0
   -4.3270   24.5030  -30.7410 N   0  0  0  0  0  0  0  0  0  0  0  0
   -5.3220   23.5520  -31.1470 C   0  0  0  0  0  0  0  0  0  0  0  0
   -6.6260   23.6820  -30.6520 C   0  0  0  0  0  0  0  0  0  0  0  0
   -7.6130   22.7580  -31.0080 C   0  0  0  0  0  0  0  0  0  0  0  0
   -7.2980   21.6860  -31.8490 C   0  0  0  0  0  0  0  0  0  0  0  0
   -8.6470   20.4230  -32.3320 Br  0  0  0  0  0  0  0  0  0  0  0  0
   -5.9920   21.5330  -32.3260 C   0  0  0  0  0  0  0  0  0  0  0  0
   -5.0040   22.4570  -31.9710 C   0  0  0  0  0  0  0  0  0  0  0  0
   -0.3891   21.7530  -28.8424 H   0  0  0  0  0  0  0  0  0  0  0  0
   -1.4370   22.8068  -29.8514 H   0  0  0  0  0  0  0  0  0  0  0  0
    0.3432   23.0461  -29.8514 H   0  0  0  0  0  0  0  0  0  0  0  0
    0.7713   22.6611  -26.8569 H   0  0  0  0  0  0  0  0  0  0  0  0
    0.5918   24.2369  -24.9361 H   0  0  0  0  0  0  0  0  0  0  0  0
   -0.9481   26.1925  -25.0623 H   0  0  0  0  0  0  0  0  0  0  0  0
   -2.3124   26.5818  -27.1094 H   0  0  0  0  0  0  0  0  0  0  0  0
   -1.9830   25.6710  -30.0990 H   0  0  0  0  0  0  0  0  0  0  0  0
   -6.8749   24.5160  -29.9793 H   0  0  0  0  0  0  0  0  0  0  0  0
   -8.6381   22.8743  -30.6263 H   0  0  0  0  0  0  0  0  0  0  0  0
   -5.7419   20.6853  -32.9808 H   0  0  0  0  0  0  0  0  0  0  0  0
   -3.9749   22.3271  -32.3373 H   0  0  0  0  0  0  0  0  0  0  0  0
  1  2  1  0
  2  3  2  0
  3  4  1  0
  4  5  2  0
  5  6  1  0
  6  7  2  0
  7  8  1  0
  8  9  1  0
  9 10  2  0
  9 11  1  0
 11 12  1  0
 12 13  2  0
 13 14  1  0
 14 15  2  0
 15 16  1  0
 15 17  1  0
 17 18  2  0
  7  2  1  0
 18 12  1  0
  1 19  1  0
  1 20  1  0
  1 21  1  0
  3 22  1  0
  4 23  1  0
  5 24  1  0
  6 25  1  0
  8 26  1  0
 13 27  1  0
 14 28  1  0
 17 29  1  0
 18 30  1  0
M  CHG  1  11  -1
M  END
>  <UniqueID>  (4) 
4

>  <SMILES>  (4) 
Cc1ccccc1NC(=O)[N-]c1ccc(Br)cc1

>  <Energy>  (4) 
37.92679325347807

>  <Genealogy>  (4) 
Cc1ccccc1NC(=O)[N-]c1ccc(Br)cc1 (protonated)
Cc1ccccc1NC(=O)[N-]c1ccc(Br)cc1 (3D coordinates assigned)
Cc1ccccc1NC(=O)[N-]c1ccc(Br)cc1 (optimized conformer: 37.92679325347807 kcal/mol)

>  <smiles>  (4) 
Cc1ccccc1NC(=O)Nc1ccc(Br)cc1

>  <score_type>  (4) 
oracle

>  <origin>  (4) 
adg

>  <m_score__min__energy>  (4) 
-8.75

>  <m_primary>  (4) 
energy

$$$$
4:0
     RDKit          3D

 51 55  0  0  0  0  0  0  0  0999 V2000
   -4.1630   19.2230  -32.5520 C   0  0  0  0  0  0  0  0  0  0  0  0
   -5.1860   20.2620  -32.3100 N   0  0  0  0  0  0  0  0  0  0  0  0
   -4.8100   21.5710  -32.0800 C   0  0  0  0  0  0  0  0  0  0  0  0
   -3.3550   21.9560  -31.8510 C   0  0  0  0  0  0  0  0  0  0  0  0
   -3.1140   22.3370  -30.4560 N   0  0  0  0  0  0  0  0  0  0  0  0
   -3.5700   23.4320  -29.7980 C   0  0  0  0  0  0  0  0  0  0  0  0
   -4.2900   24.3160  -30.3370 O   0  0  0  0  0  0  0  0  0  0  0  0
   -3.1730   23.4790  -28.5010 N   0  0  0  0  0  0  0  0  0  0  0  0
   -3.4250   24.5500  -27.5350 C   0  0  0  0  0  0  0  0  0  0  0  0
   -2.1210   25.1020  -27.0260 C   0  0  0  0  0  0  0  0  0  0  0  0
   -1.0490   25.3130  -27.9110 C   0  0  0  0  0  0  0  0  0  0  0  0
    0.1760   25.7890  -27.4320 C   0  0  0  0  0  0  0  0  0  0  0  0
    0.3430   26.0480  -26.0690 C   0  0  0  0  0  0  0  0  0  0  0  0
   -0.7150   25.8320  -25.1810 C   0  0  0  0  0  0  0  0  0  0  0  0
   -1.9410   25.3560  -25.6560 C   0  0  0  0  0  0  0  0  0  0  0  0
   -2.4240   22.3660  -28.3460 C   0  0  0  0  0  0  0  0  0  0  0  0
   -1.7560   21.9050  -27.2090 C   0  0  0  0  0  0  0  0  0  0  0  0
   -1.0410   20.6980  -27.3140 C   0  0  0  0  0  0  0  0  0  0  0  0
   -1.0100   19.9850  -28.5340 C   0  0  0  0  0  0  0  0  0  0  0  0
   -1.6930   20.4720  -29.6620 C   0  0  0  0  0  0  0  0  0  0  0  0
   -2.3920   21.6730  -29.5300 C   0  0  0  0  0  0  0  0  0  0  0  0
   -5.7510   22.5600  -32.0960 N   0  0  0  0  0  0  0  0  0  0  0  0
   -7.0730   22.2870  -32.2060 C   0  0  0  0  0  0  0  0  0  0  0  0
   -7.9040   23.2370  -32.2130 O   0  0  0  0  0  0  0  0  0  0  0  0
   -7.5050   20.9590  -32.2870 C   0  0  0  0  0  0  0  0  0  0  0  0
   -8.8750   20.6390  -32.3350 C   0  0  0  0  0  0  0  0  0  0  0  0
   -9.2860   19.3090  -32.3810 C   0  0  0  0  0  0  0  0  0  0  0  0
   -8.3400   18.2870  -32.3690 C   0  0  0  0  0  0  0  0  0  0  0  0
   -6.9770   18.5880  -32.3310 C   0  0  0  0  0  0  0  0  0  0  0  0
   -6.5290   19.9330  -32.3140 C   0  0  0  0  0  0  0  0  0  0  0  0
   -3.7901   18.8443  -31.5889 H   0  0  0  0  0  0  0  0  0  0  0  0
   -4.6088   18.3956  -33.1236 H   0  0  0  0  0  0  0  0  0  0  0  0
   -3.3288   19.6559  -33.1236 H   0  0  0  0  0  0  0  0  0  0  0  0
   -2.7142   21.0982  -32.1032 H   0  0  0  0  0  0  0  0  0  0  0  0
   -3.1215   22.8201  -32.4904 H   0  0  0  0  0  0  0  0  0  0  0  0
   -3.9950   25.3541  -28.0233 H   0  0  0  0  0  0  0  0  0  0  0  0
   -4.0001   24.1451  -26.6892 H   0  0  0  0  0  0  0  0  0  0  0  0
   -1.1741   25.1031  -28.9835 H   0  0  0  0  0  0  0  0  0  0  0  0
    1.0093   25.9597  -28.1294 H   0  0  0  0  0  0  0  0  0  0  0  0
    1.3073   26.4220  -25.6946 H   0  0  0  0  0  0  0  0  0  0  0  0
   -0.5829   26.0366  -24.1083 H   0  0  0  0  0  0  0  0  0  0  0  0
   -2.7688   25.1795  -24.9534 H   0  0  0  0  0  0  0  0  0  0  0  0
   -1.7880   22.4667  -26.2637 H   0  0  0  0  0  0  0  0  0  0  0  0
   -0.5015   20.3058  -26.4393 H   0  0  0  0  0  0  0  0  0  0  0  0
   -0.4473   19.0422  -28.6013 H   0  0  0  0  0  0  0  0  0  0  0  0
   -1.6772   19.9252  -30.6163 H   0  0  0  0  0  0  0  0  0  0  0  0
   -5.4640   23.5610  -32.0140 H   0  0  0  0  0  0  0  0  0  0  0  0
   -9.6250   21.4437  -32.3362 H   0  0  0  0  0  0  0  0  0  0  0  0
  -10.3578   19.0658  -32.4268 H   0  0  0  0  0  0  0  0  0  0  0  0
   -8.6682   17.2373  -32.3896 H   0  0  0  0  0  0  0  0  0  0  0  0
   -6.2410   17.7706  -32.3140 H   0  0  0  0  0  0  0  0  0  0  0  0
  1  2  1  0
  2  3  1  0
  3  4  1  0
  4  5  1  0
  5  6  1  0
  6  7  2  0
  6  8  1  0
  8  9  1  0
  9 10  1  0
 10 11  2  0
 11 12  1  0
 12 13  2  0
 13 14  1  0
 14 15  2  0
  8 16  1  0
 16 17  2  0
 17 18  1  0
 18 19  2  0
 19 20  1  0
 20 21  2  0
  3 22  2  0
 22 23  1  0
 23 24  2  0
 23 25  1  0
 25 26  2  0
 26 27  1  0
 27 28  2  0
 28 29  1  0
 29 30  2  0
 30  2  1  0
 21  5  1  0
 30 25  1  0
 15 10  1  0
 21 16  1  0
  1 31  1  0
  1 32  1  0
  1 33  1  0
  4 34  1  0
  4 35  1  0
  9 36  1  0
  9 37  1  0
 11 38  1  0
 12 39  1  0
 13 40  1  0
 14 41  1  0
 15 42  1  0
 17 43  1  0
 18 44  1  0
 19 45  1  0
 20 46  1  0
 22 47  1  0
 26 48  1  0
 27 49  1  0
 28 50  1  0
 29 51  1  0
M  CHG  1  22   1
M  END
>  <UniqueID>  (5) 
5

>  <SMILES>  (5) 
Cn1c(Cn2c(=O)n(Cc3ccccc3)c3ccccc32)[nH+]c(=O)c2ccccc21

>  <Energy>  (5) 
111.43144044693668

>  <Genealogy>  (5) 
Cn1c(Cn2c(=O)n(Cc3ccccc3)c3ccccc32)[nH+]c(=O)c2ccccc21 (protonated)
Cn1c(Cn2c(=O)n(Cc3ccccc3)c3ccccc32)[nH+]c(=O)c2ccccc21 (3D coordinates assigned)
Cn1c(Cn2c(=O)n(Cc3ccccc3)c3ccccc32)[nH+]c(=O)c2ccccc21 (optimized conformer: 111.43144044693668 kcal/mol)

>  <smiles>  (5) 
Cn1c(Cn2c(=O)n(Cc3ccccc3)c3ccccc32)nc(=O)c2ccccc21

>  <score_type>  (5) 
oracle

>  <origin>  (5) 
adg

>  <m_score__min__energy>  (5) 
-8.4000000000000004

>  <m_primary>  (5) 
energy

$$$$
5:0
     RDKit          3D

 25 26  0  0  0  0  0  0  0  0999 V2000
   -6.4200   25.6770  -29.3420 C   0  0  0  0  0  0  0  0  0  0  0  0
   -5.7080   25.6070  -30.6880 C   0  0  0  0  0  0  0  0  0  0  0  0
   -4.6840   24.0990  -30.8210 S   0  0  0  0  0  0  0  0  0  0  0  0
   -6.0430   23.0050  -31.2640 C   0  0  0  0  0  0  0  0  0  0  0  0
   -7.2380   23.5300  -31.5620 C   0  0  0  0  0  0  0  0  0  0  0  0
   -8.3780   22.6740  -31.9350 C   0  0  0  0  0  0  0  0  0  0  0  0
   -9.4890   23.2060  -32.2040 O   0  0  0  0  0  0  0  0  0  0  0  0
   -8.2100   21.2040  -31.9870 C   0  0  0  0  0  0  0  0  0  0  0  0
   -9.2820   20.3610  -32.3270 C   0  0  0  0  0  0  0  0  0  0  0  0
   -9.1010   18.9760  -32.3720 C   0  0  0  0  0  0  0  0  0  0  0  0
   -7.8520   18.4220  -32.0780 C   0  0  0  0  0  0  0  0  0  0  0  0
   -6.7800   19.2510  -31.7390 C   0  0  0  0  0  0  0  0  0  0  0  0
   -6.9500   20.6450  -31.6900 C   0  0  0  0  0  0  0  0  0  0  0  0
   -5.8250   21.5430  -31.3340 C   0  0  0  0  0  0  0  0  0  0  0  0
   -4.6820   21.0680  -31.0970 O   0  0  0  0  0  0  0  0  0  0  0  0
   -5.6799   25.6042  -28.5315 H   0  0  0  0  0  0  0  0  0  0  0  0
   -6.9591   26.6325  -29.2616 H   0  0  0  0  0  0  0  0  0  0  0  0
   -7.1348   24.8448  -29.2616 H   0  0  0  0  0  0  0  0  0  0  0  0
   -6.4598   25.6014  -31.4910 H   0  0  0  0  0  0  0  0  0  0  0  0
   -5.0487   26.4830  -30.7776 H   0  0  0  0  0  0  0  0  0  0  0  0
   -7.3714   24.6213  -31.5277 H   0  0  0  0  0  0  0  0  0  0  0  0
  -10.2668   20.7929  -32.5585 H   0  0  0  0  0  0  0  0  0  0  0  0
   -9.9431   18.3207  -32.6393 H   0  0  0  0  0  0  0  0  0  0  0  0
   -7.7129   17.3314  -32.1136 H   0  0  0  0  0  0  0  0  0  0  0  0
   -5.7985   18.8106  -31.5094 H   0  0  0  0  0  0  0  0  0  0  0  0
  1  2  1  0
  2  3  1  0
  3  4  1  0
  4  5  2  0
  5  6  1  0
  6  7  2  0
  6  8  1  0
  8  9  2  0
  9 10  1  0
 10 11  2  0
 11 12  1  0
 12 13  2  0
 13 14  1  0
 14 15  2  0
 14  4  1  0
 13  8  1  0
  1 16  1  0
  1 17  1  0
  1 18  1  0
  2 19  1  0
  2 20  1  0
  5 21  1  0
  9 22  1  0
 10 23  1  0
 11 24  1  0
 12 25  1  0
M  END
>  <UniqueID>  (6) 
6

>  <SMILES>  (6) 
CCSC1=CC(=O)c2ccccc2C1=O

>  <Energy>  (6) 
20.470398895682866

>  <Genealogy>  (6) 
CCSC1=CC(=O)c2ccccc2C1=O (3D coordinates assigned)
CCSC1=CC(=O)c2ccccc2C1=O (nonaromatic ring conformer: 20.470398895682866 kcal/mol)

>  <smiles>  (6) 
CCSC1=CC(=O)c2ccccc2C1=O

>  <score_type>  (6) 
oracle

>  <origin>  (6) 
adg

>  <m_score__min__energy>  (6) 
-6.9400000000000004

>  <m_primary>  (6) 
energy

$$$$
6:0
     RDKit          3D

 26 27  0  0  0  0  0  0  0  0999 V2000
   -0.8510   26.8430  -27.8420 C   0  0  0  0  0  0  0  0  0  0  0  0
   -1.3090   26.0790  -28.9530 O   0  0  0  0  0  0  0  0  0  0  0  0
   -1.3870   24.6780  -28.9750 C   0  0  0  0  0  0  0  0  0  0  0  0
   -0.4270   23.8640  -28.3400 C   0  0  0  0  0  0  0  0  0  0  0  0
   -0.5390   22.4730  -28.3890 C   0  0  0  0  0  0  0  0  0  0  0  0
   -1.5990   21.8800  -29.0760 C   0  0  0  0  0  0  0  0  0  0  0  0
   -2.5560   22.6760  -29.7090 C   0  0  0  0  0  0  0  0  0  0  0  0
   -2.4640   24.0790  -29.6490 C   0  0  0  0  0  0  0  0  0  0  0  0
   -3.4020   24.9070  -30.2850 O   0  0  0  0  0  0  0  0  0  0  0  0
   -4.7180   24.5460  -30.6020 C   0  0  0  0  0  0  0  0  0  0  0  0
   -5.7640   25.0000  -29.7930 C   0  0  0  0  0  0  0  0  0  0  0  0
   -7.0750   24.6240  -30.0900 C   0  0  0  0  0  0  0  0  0  0  0  0
   -7.3300   23.7960  -31.1850 C   0  0  0  0  0  0  0  0  0  0  0  0
   -6.2610   23.3520  -31.9660 C   0  0  0  0  0  0  0  0  0  0  0  0
   -4.9900   23.7290  -31.6590 N   0  0  0  0  0  0  0  0  0  0  0  0
   -1.1491   26.3457  -26.9072 H   0  0  0  0  0  0  0  0  0  0  0  0
    0.2453   26.9249  -27.8803 H   0  0  0  0  0  0  0  0  0  0  0  0
   -1.2954   27.8485  -27.8803 H   0  0  0  0  0  0  0  0  0  0  0  0
    0.4143   24.3268  -27.8034 H   0  0  0  0  0  0  0  0  0  0  0  0
    0.2095   21.8437  -27.8853 H   0  0  0  0  0  0  0  0  0  0  0  0
   -1.6809   20.7839  -29.1190 H   0  0  0  0  0  0  0  0  0  0  0  0
   -3.3852   22.2044  -30.2568 H   0  0  0  0  0  0  0  0  0  0  0  0
   -5.5555   25.6484  -28.9292 H   0  0  0  0  0  0  0  0  0  0  0  0
   -7.9057   24.9793  -29.4626 H   0  0  0  0  0  0  0  0  0  0  0  0
   -8.3601   23.4972  -31.4293 H   0  0  0  0  0  0  0  0  0  0  0  0
   -6.4464   22.6970  -32.8301 H   0  0  0  0  0  0  0  0  0  0  0  0
  1  2  1  0
  2  3  1  0
  3  4  2  0
  4  5  1  0
  5  6  2  0
  6  7  1  0
  7  8  2  0
  8  9  1  0
  9 10  1  0
 10 11  2  0
 11 12  1  0
 12 13  2  0
 13 14  1  0
 14 15  2  0
  8  3  1  0
 15 10  1  0
  1 16  1  0
  1 17  1  0
  1 18  1  0
  4 19  1  0
  5 20  1  0
  6 21  1  0
  7 22  1  0
 11 23  1  0
 12 24  1  0
 13 25  1  0
 14 26  1  0
M  END
>  <UniqueID>  (7) 
7

>  <SMILES>  (7) 
COc1ccccc1Oc1ccccn1

>  <Energy>  (7) 
31.770027381275188

>  <Genealogy>  (7) 
COc1ccccc1Oc1ccccn1 (3D coordinates assigned)
COc1ccccc1Oc1ccccn1 (optimized conformer: 31.770027381275188 kcal/mol)

>  <smiles>  (7) 
COc1ccccc1Oc1ccccn1

>  <score_type>  (7) 
oracle

>  <origin>  (7) 
adg

>  <m_score__min__energy>  (7) 
-6.4500000000000002

>  <m_primary>  (7) 
energy

$$$$
7:0
     RDKit          3D

 49 51  0  0  0  0  0  0  0  0999 V2000
   -9.0910   18.2350  -31.9020 C   0  0  0  0  0  0  0  0  0  0  0  0
   -8.7810   19.5050  -32.7090 C   0  0  0  0  0  0  0  0  0  0  0  0
   -7.8660   20.4480  -32.0300 N   0  0  0  0  0  0  0  0  0  0  0  0
   -6.6080   20.6790  -32.7790 C   0  0  0  0  0  0  0  0  0  0  0  0
   -5.8690   21.9590  -32.3380 C   0  0  0  0  0  0  0  0  0  0  0  0
   -6.2190   22.3230  -30.9620 N   0  0  0  0  0  0  0  0  0  0  0  0
   -5.2040   22.8060  -30.0710 C   0  0  0  0  0  0  0  0  0  0  0  0
   -4.1460   21.9620  -29.7090 C   0  0  0  0  0  0  0  0  0  0  0  0
   -3.1570   22.4030  -28.8300 C   0  0  0  0  0  0  0  0  0  0  0  0
   -3.2170   23.6970  -28.2850 C   0  0  0  0  0  0  0  0  0  0  0  0
   -2.2020   24.1790  -27.3870 N   0  0  0  0  0  0  0  0  0  0  0  0
   -1.5690   25.4630  -27.5140 C   0  0  0  0  0  0  0  0  0  0  0  0
   -1.5660   26.0510  -28.6300 O   0  0  0  0  0  0  0  0  0  0  0  0
   -0.8710   26.0840  -26.3610 C   0  0  0  0  0  0  0  0  0  0  0  0
   -1.5270   26.2100  -25.1210 C   0  0  0  0  0  0  0  0  0  0  0  0
   -0.8730   26.7890  -24.0290 C   0  0  0  0  0  0  0  0  0  0  0  0
    0.4410   27.2410  -24.1580 C   0  0  0  0  0  0  0  0  0  0  0  0
    1.1060   27.1120  -25.3790 C   0  0  0  0  0  0  0  0  0  0  0  0
    0.4570   26.5350  -26.4750 C   0  0  0  0  0  0  0  0  0  0  0  0
   -4.2610   24.5520  -28.6680 C   0  0  0  0  0  0  0  0  0  0  0  0
   -5.2520   24.1220  -29.5660 C   0  0  0  0  0  0  0  0  0  0  0  0
   -6.3680   25.0580  -29.9440 C   0  0  0  0  0  0  0  0  0  0  0  0
   -7.6250   22.3710  -30.5460 C   0  0  0  0  0  0  0  0  0  0  0  0
   -8.5190   21.6900  -31.5820 C   0  0  0  0  0  0  0  0  0  0  0  0
   -9.0358   18.4611  -30.8269 H   0  0  0  0  0  0  0  0  0  0  0  0
  -10.1021   17.8803  -32.1506 H   0  0  0  0  0  0  0  0  0  0  0  0
   -8.3571   17.4543  -32.1506 H   0  0  0  0  0  0  0  0  0  0  0  0
   -8.3211   19.2042  -33.6619 H   0  0  0  0  0  0  0  0  0  0  0  0
   -9.7360   20.0340  -32.8441 H   0  0  0  0  0  0  0  0  0  0  0  0
   -5.9424   19.8178  -32.6199 H   0  0  0  0  0  0  0  0  0  0  0  0
   -6.8747   20.8023  -33.8390 H   0  0  0  0  0  0  0  0  0  0  0  0
   -4.7843   21.7867  -32.3992 H   0  0  0  0  0  0  0  0  0  0  0  0
   -6.1680   22.7820  -33.0039 H   0  0  0  0  0  0  0  0  0  0  0  0
   -4.0949   20.9435  -30.1213 H   0  0  0  0  0  0  0  0  0  0  0  0
   -2.3256   21.7345  -28.5619 H   0  0  0  0  0  0  0  0  0  0  0  0
   -1.8270   23.5140  -26.6730 H   0  0  0  0  0  0  0  0  0  0  0  0
   -2.5608   25.8505  -25.0108 H   0  0  0  0  0  0  0  0  0  0  0  0
   -1.3955   26.8884  -23.0661 H   0  0  0  0  0  0  0  0  0  0  0  0
    0.9525   27.6986  -23.2984 H   0  0  0  0  0  0  0  0  0  0  0  0
    2.1430   27.4651  -25.4790 H   0  0  0  0  0  0  0  0  0  0  0  0
    0.9882   26.4330  -27.4328 H   0  0  0  0  0  0  0  0  0  0  0  0
   -4.3043   25.5725  -28.2598 H   0  0  0  0  0  0  0  0  0  0  0  0
   -6.8395   25.4535  -29.0323 H   0  0  0  0  0  0  0  0  0  0  0  0
   -5.9630   25.8905  -30.5380 H   0  0  0  0  0  0  0  0  0  0  0  0
   -7.1173   24.5142  -30.5380 H   0  0  0  0  0  0  0  0  0  0  0  0
   -7.7336   21.8551  -29.5806 H   0  0  0  0  0  0  0  0  0  0  0  0
   -7.9303   23.4237  -30.4530 H   0  0  0  0  0  0  0  0  0  0  0  0
   -9.4937   21.4531  -31.1305 H   0  0  0  0  0  0  0  0  0  0  0  0
   -8.6745   22.3607  -32.4399 H   0  0  0  0  0  0  0  0  0  0  0  0
  1  2  1  0
  2  3  1  0
  3  4  1  0
  4  5  1  0
  5  6  1  0
  6  7  1  0
  7  8  2  0
  8  9  1  0
  9 10  2  0
 10 11  1  0
 11 12  1  0
 12 13  2  0
 12 14  1  0
 14 15  2  0
 15 16  1  0
 16 17  2  0
 17 18  1  0
 18 19  2  0
 10 20  1  0
 20 21  2  0
 21 22  1  0
  6 23  1  0
 23 24  1  0
 24  3  1  0
 21  7  1  0
 19 14  1  0
  1 25  1  0
  1 26  1  0
  1 27  1  0
  2 28  1  0
  2 29  1  0
  4 30  1  0
  4 31  1  0
  5 32  1  0
  5 33  1  0
  8 34  1  0
  9 35  1  0
 11 36  1  0
 15 37  1  0
 16 38  1  0
 17 39  1  0
 18 40  1  0
 19 41  1  0
 20 42  1  0
 22 43  1  0
 22 44  1  0
 22 45  1  0
 23 46  1  0
 23 47  1  0
 24 48  1  0
 24 49  1  0
M  END
>  <UniqueID>  (8) 
8

>  <SMILES>  (8) 
CCN1CCN(c2ccc(NC(=O)c3ccccc3)cc2C)CC1

>  <Energy>  (8) 
66.72260134319929

>  <Genealogy>  (8) 
CCN1CCN(c2ccc(NC(=O)c3ccccc3)cc2C)CC1 (3D coordinates assigned)
CCN1CCN(c2ccc(NC(=O)c3ccccc3)cc2C)CC1 (nonaromatic ring conformer: 66.72260134319929 kcal/mol)

>  <smiles>  (8) 
CCN1CCN(c2ccc(NC(=O)c3ccccc3)cc2C)CC1

>  <score_type>  (8) 
oracle

>  <origin>  (8) 
adg

>  <m_score__min__energy>  (8) 
-8.0999999999999996

>  <m_primary>  (8) 
energy

$$$$
8:0
     RDKit          3D

 42 44  0  0  0  0  0  0  0  0999 V2000
   -9.1100   18.3330  -31.6500 C   0  0  0  0  0  0  0  0  0  0  0  0
   -9.2760   19.5760  -32.5140 C   0  0  0  0  0  0  0  0  0  0  0  0
   -8.7450   20.7890  -31.7940 C   0  0  0  0  0  0  0  0  0  0  0  0
   -9.2530   21.1150  -30.7280 O   0  0  0  0  0  0  0  0  0  0  0  0
   -7.6690   21.5820  -32.3640 N   0  0  1  0  0  0  0  0  0  0  0  0
   -7.8200   23.0200  -31.9610 C   0  0  0  0  0  0  0  0  0  0  0  0
   -6.6510   23.5900  -31.1840 C   0  0  0  0  0  0  0  0  0  0  0  0
   -6.8340   24.6930  -30.3340 C   0  0  0  0  0  0  0  0  0  0  0  0
   -5.7350   25.2870  -29.7050 C   0  0  0  0  0  0  0  0  0  0  0  0
   -4.4480   24.8020  -29.9400 C   0  0  0  0  0  0  0  0  0  0  0  0
   -4.2550   23.7110  -30.7940 C   0  0  0  0  0  0  0  0  0  0  0  0
   -5.3550   23.1000  -31.4090 C   0  0  0  0  0  0  0  0  0  0  0  0
   -5.1890   21.9170  -32.3050 C   0  0  0  0  0  0  0  0  0  0  0  0
   -6.3560   20.9520  -32.0390 C   0  0  2  0  0  0  0  0  0  0  0  0
   -6.1610   19.6720  -32.8230 C   0  0  0  0  0  0  0  0  0  0  0  0
   -6.0680   19.5780  -34.2070 C   0  0  0  0  0  0  0  0  0  0  0  0
   -5.8290   18.3240  -34.6800 N   0  0  0  0  0  0  0  0  0  0  0  0
   -5.7070   17.4220  -33.6790 C   0  0  0  0  0  0  0  0  0  0  0  0
   -5.5170   15.9550  -33.9080 C   0  0  0  0  0  0  0  0  0  0  0  0
   -6.8490   15.2890  -34.2420 C   0  0  0  0  0  0  0  0  0  0  0  0
   -5.9100   18.1370  -32.1700 S   0  0  0  0  0  0  0  0  0  0  0  0
   -9.1479   18.6169  -30.5880 H   0  0  0  0  0  0  0  0  0  0  0  0
   -9.9213   17.6232  -31.8690 H   0  0  0  0  0  0  0  0  0  0  0  0
   -8.1408   17.8610  -31.8690 H   0  0  0  0  0  0  0  0  0  0  0  0
   -8.7216   19.4408  -33.4544 H   0  0  0  0  0  0  0  0  0  0  0  0
  -10.3453   19.7248  -32.7246 H   0  0  0  0  0  0  0  0  0  0  0  0
   -7.7750   21.5620  -33.4080 H   0  0  0  0  0  0  0  0  0  0  0  0
   -7.9482   23.6194  -32.8744 H   0  0  0  0  0  0  0  0  0  0  0  0
   -8.6886   23.0624  -31.2875 H   0  0  0  0  0  0  0  0  0  0  0  0
   -7.8450   25.0910  -30.1624 H   0  0  0  0  0  0  0  0  0  0  0  0
   -5.8855   26.1377  -29.0241 H   0  0  0  0  0  0  0  0  0  0  0  0
   -3.5841   25.2781  -29.4532 H   0  0  0  0  0  0  0  0  0  0  0  0
   -3.2393   23.3330  -30.9825 H   0  0  0  0  0  0  0  0  0  0  0  0
   -5.2040   22.2400  -33.3564 H   0  0  0  0  0  0  0  0  0  0  0  0
   -4.2285   21.4190  -32.1064 H   0  0  0  0  0  0  0  0  0  0  0  0
   -6.3654   20.7108  -30.9658 H   0  0  0  0  0  0  0  0  0  0  0  0
   -6.1790   20.4496  -34.8688 H   0  0  0  0  0  0  0  0  0  0  0  0
   -4.8184   15.8068  -34.7446 H   0  0  0  0  0  0  0  0  0  0  0  0
   -5.1126   15.5014  -32.9911 H   0  0  0  0  0  0  0  0  0  0  0  0
   -7.3720   15.0275  -33.3103 H   0  0  0  0  0  0  0  0  0  0  0  0
   -7.4692   15.9831  -34.8282 H   0  0  0  0  0  0  0  0  0  0  0  0
   -6.6658   14.3764  -34.8282 H   0  0  0  0  0  0  0  0  0  0  0  0
  1  2  1  0
  2  3  1  0
  3  4  2  0
  3  5  1  0
  5  6  1  0
  6  7  1  0
  7  8  2  0
  8  9  1  0
  9 10  2  0
 10 11  1  0
 11 12  2  0
 12 13  1  0
 13 14  1  0
 14 15  1  0
 15 16  2  0
 16 17  1  0
 17 18  2  0
 18 19  1  0
 19 20  1  0
 18 21  1  0
 14  5  1  0
 21 15  1  0
 12  7  1  0
  1 22  1  0
  1 23  1  0
  1 24  1  0
  2 25  1  0
  2 26  1  0
  5 27  1  6
  6 28  1  0
  6 29  1  0
  8 30  1  0
  9 31  1  0
 10 32  1  0
 11 33  1  0
 13 34  1  0
 13 35  1  0
 14 36  1  1
 16 37  1  0
 19 38  1  0
 19 39  1  0
 20 40  1  0
 20 41  1  0
 20 42  1  0
M  CHG  1   5   1
M  END
>  <UniqueID>  (9) 
9

>  <SMILES>  (9) 
CCC(=O)[N@H+]1Cc2ccccc2C[C@@H]1c1cnc(CC)s1

>  <Energy>  (9) 
76.74437876092038

>  <Genealogy>  (9) 
CCC(=O)[NH+]1Cc2ccccc2CC1c1cnc(CC)s1 (protonated)
CCC(=O)[N@H+]1Cc2ccccc2C[C@@H]1c1cnc(CC)s1 (chirality)
CCC(=O)[N@H+]1Cc2ccccc2C[C@@H]1c1cnc(CC)s1 (3D coordinates assigned)
CCC(=O)[N@H+]1Cc2ccccc2C[C@@H]1c1cnc(CC)s1 (nonaromatic ring conformer: 76.74437876092038 kcal/mol)

>  <smiles>  (9) 
CCC(=O)N1Cc2ccccc2CC1c1cnc(CC)s1

>  <score_type>  (9) 
oracle

>  <origin>  (9) 
adg

>  <m_score__min__energy>  (9) 
-7.5999999999999996

>  <m_primary>  (9) 
energy

$$$$
9:0
     RDKit          3D

 74 78  0  0  0  0  0  0  0  0999 V2000
   -8.4630   18.8040  -31.9320 C   0  0  0  0  0  0  0  0  0  0  0  0
   -7.9640   20.2350  -31.6460 C   0  0  0  0  0  0  0  0  0  0  0  0
   -9.1570   21.1930  -31.8160 C   0  0  0  0  0  0  0  0  0  0  0  0
   -6.7200   20.5900  -32.5340 C   0  0  2  0  0  0  0  0  0  0  0  0
   -6.8420   19.9010  -33.9510 C   0  0  0  0  0  0  0  0  0  0  0  0
   -5.8760   18.7480  -34.1920 C   0  0  0  0  0  0  0  0  0  0  0  0
   -4.6190   18.8030  -33.7270 C   0  0  0  0  0  0  0  0  0  0  0  0
   -3.6550   17.7250  -33.9970 C   0  0  0  0  0  0  0  0  0  0  0  0
   -2.7500   17.9350  -34.8480 O   0  0  0  0  0  0  0  0  0  0  0  0
   -3.7090   16.4720  -33.2870 N   0  0  0  0  0  0  0  0  0  0  0  0
   -4.7940   16.1950  -32.3350 C   0  0  0  0  0  0  0  0  0  0  0  0
   -4.9810   14.6860  -32.1620 C   0  0  0  0  0  0  0  0  0  0  0  0
   -3.7530   14.0560  -31.8630 O   0  0  0  0  0  0  0  0  0  0  0  0
   -2.8800   14.1740  -32.9680 C   0  0  0  0  0  0  0  0  0  0  0  0
   -2.5030   15.6380  -33.2130 C   0  0  0  0  0  0  0  0  0  0  0  0
   -4.2590   20.0050  -32.9130 C   0  0  2  0  0  0  0  0  0  0  0  0
   -2.9480   20.0270  -32.1040 C   0  0  0  0  0  0  0  0  0  0  0  0
   -3.3250   20.9960  -31.0250 C   0  0  0  0  0  0  0  0  0  0  0  0
   -4.6750   21.1510  -30.9460 C   0  0  0  0  0  0  0  0  0  0  0  0
   -4.9210   22.4710  -30.6260 C   0  0  0  0  0  0  0  0  0  0  0  0
   -3.6700   23.0560  -30.4630 C   0  0  0  0  0  0  0  0  0  0  0  0
   -3.4730   24.5050  -30.2460 C   0  0  0  0  0  0  0  0  0  0  0  0
   -4.2420   25.3450  -30.7840 O   0  0  0  0  0  0  0  0  0  0  0  0
   -2.4020   24.9470  -29.4060 N   0  0  0  0  0  0  0  0  0  0  0  0
   -2.4380   24.9340  -27.9460 C   0  0  0  0  0  0  0  0  0  0  0  0
   -3.3300   23.7970  -27.4260 C   0  0  0  0  0  0  0  0  0  0  0  0
   -2.5100   22.6120  -27.0880 N   0  0  0  0  0  0  0  0  0  0  0  0
   -1.1210   22.7710  -27.5610 C   0  0  0  0  0  0  0  0  0  0  0  0
   -0.3440   21.4410  -27.4590 C   0  0  0  0  0  0  0  0  0  0  0  0
   -1.0250   20.5160  -26.6370 O   0  0  0  0  0  0  0  0  0  0  0  0
   -2.2560   20.1520  -27.2410 C   0  0  0  0  0  0  0  0  0  0  0  0
   -3.1000   21.3800  -27.6440 C   0  0  0  0  0  0  0  0  0  0  0  0
   -2.6900   22.1450  -30.7130 N   0  0  0  0  0  0  0  0  0  0  0  0
   -1.2590   22.3940  -30.8840 C   0  0  0  0  0  0  0  0  0  0  0  0
   -5.3650   20.2060  -31.8670 C   0  0  1  0  0  0  0  0  0  0  0  0
   -8.6450   18.2822  -30.9809 H   0  0  0  0  0  0  0  0  0  0  0  0
   -9.3980   18.8503  -32.5095 H   0  0  0  0  0  0  0  0  0  0  0  0
   -7.7019   18.2589  -32.5095 H   0  0  0  0  0  0  0  0  0  0  0  0
   -7.5976   20.3301  -30.6132 H   0  0  0  0  0  0  0  0  0  0  0  0
   -9.5304   21.4929  -30.8257 H   0  0  0  0  0  0  0  0  0  0  0  0
   -8.8341   22.0856  -32.3719 H   0  0  0  0  0  0  0  0  0  0  0  0
   -9.9589   20.6850  -32.3719 H   0  0  0  0  0  0  0  0  0  0  0  0
   -6.7194   21.6837  -32.6511 H   0  0  0  0  0  0  0  0  0  0  0  0
   -7.8667   19.5151  -34.0556 H   0  0  0  0  0  0  0  0  0  0  0  0
   -6.5885   20.6740  -34.6914 H   0  0  0  0  0  0  0  0  0  0  0  0
   -6.2121   17.8629  -34.7520 H   0  0  0  0  0  0  0  0  0  0  0  0
   -4.5452   16.6431  -31.3617 H   0  0  0  0  0  0  0  0  0  0  0  0
   -5.7279   16.6276  -32.7232 H   0  0  0  0  0  0  0  0  0  0  0  0
   -5.6889   14.5029  -31.3402 H   0  0  0  0  0  0  0  0  0  0  0  0
   -5.3687   14.2701  -33.1037 H   0  0  0  0  0  0  0  0  0  0  0  0
   -1.9661   13.5954  -32.7683 H   0  0  0  0  0  0  0  0  0  0  0  0
   -3.3912   13.7884  -33.8624 H   0  0  0  0  0  0  0  0  0  0  0  0
   -1.8679   15.9917  -32.3874 H   0  0  0  0  0  0  0  0  0  0  0  0
   -1.9595   15.7115  -34.1665 H   0  0  0  0  0  0  0  0  0  0  0  0
   -4.1302   20.7754  -33.6876 H   0  0  0  0  0  0  0  0  0  0  0  0
   -2.7038   19.0354  -31.6952 H   0  0  0  0  0  0  0  0  0  0  0  0
   -2.0521   20.3008  -32.6805 H   0  0  0  0  0  0  0  0  0  0  0  0
   -5.9016   22.9583  -30.5217 H   0  0  0  0  0  0  0  0  0  0  0  0
   -1.4166   24.7936  -27.5625 H   0  0  0  0  0  0  0  0  0  0  0  0
   -2.8530   25.8913  -27.5978 H   0  0  0  0  0  0  0  0  0  0  0  0
   -3.8635   24.1373  -26.5262 H   0  0  0  0  0  0  0  0  0  0  0  0
   -4.0501   23.5209  -28.2104 H   0  0  0  0  0  0  0  0  0  0  0  0
   -1.1342   23.0999  -28.6106 H   0  0  0  0  0  0  0  0  0  0  0  0
   -0.6196   23.5182  -26.9283 H   0  0  0  0  0  0  0  0  0  0  0  0
   -0.2318   21.0123  -28.4658 H   0  0  0  0  0  0  0  0  0  0  0  0
    0.6409   21.6450  -27.0138 H   0  0  0  0  0  0  0  0  0  0  0  0
   -2.0451   19.5573  -28.1420 H   0  0  0  0  0  0  0  0  0  0  0  0
   -2.8338   19.5756  -26.5035 H   0  0  0  0  0  0  0  0  0  0  0  0
   -3.1302   21.4553  -28.7410 H   0  0  0  0  0  0  0  0  0  0  0  0
   -4.1185   21.2601  -27.2461 H   0  0  0  0  0  0  0  0  0  0  0  0
   -0.7808   22.4772  -29.8969 H   0  0  0  0  0  0  0  0  0  0  0  0
   -0.8060   21.5612  -31.4419 H   0  0  0  0  0  0  0  0  0  0  0  0
   -1.1139   23.3309  -31.4419 H   0  0  0  0  0  0  0  0  0  0  0  0
   -5.7288   19.3373  -31.2987 H   0  0  0  0  0  0  0  0  0  0  0  0
  1  2  1  0
  2  3  1  0
  2  4  1  0
  4  5  1  0
  5  6  1  0
  6  7  2  0
  7  8  1  0
  8  9  2  0
  8 10  1  0
 10 11  1  0
 11 12  1  0
 12 13  1  0
 13 14  1  0
 14 15  1  0
  7 16  1  0
 16 17  1  0
 17 18  1  0
 18 19  2  0
 19 20  1  0
 20 21  2  0
 21 22  1  0
 22 23  2  0
 22 24  1  0
 24 25  1  0
 25 26  1  0
 26 27  1  0
 27 28  1  0
 28 29  1  0
 29 30  1  0
 30 31  1  0
 31 32  1  0
 21 33  1  0
 33 34  1  0
 19 35  1  0
 35  4  1  0
 15 10  1  0
 35 16  1  0
 33 18  1  0
 32 27  1  0
  1 36  1  0
  1 37  1  0
  1 38  1  0
  2 39  1  0
  3 40  1  0
  3 41  1  0
  3 42  1  0
  4 43  1  6
  5 44  1  0
  5 45  1  0
  6 46  1  0
 11 47  1  0
 11 48  1  0
 12 49  1  0
 12 50  1  0
 14 51  1  0
 14 52  1  0
 15 53  1  0
 15 54  1  0
 16 55  1  6
 17 56  1  0
 17 57  1  0
 20 58  1  0
 25 59  1  0
 25 60  1  0
 26 61  1  0
 26 62  1  0
 28 63  1  0
 28 64  1  0
 29 65  1  0
 29 66  1  0
 31 67  1  0
 31 68  1  0
 32 69  1  0
 32 70  1  0
 34 71  1  0
 34 72  1  0
 34 73  1  0
 35 74  1  1
M  CHG  1  24  -1
M  END
>  <UniqueID>  (10) 
10

>  <SMILES>  (10) 
CC(C)[C@@H]1CC=C(C(=O)N2CCOCC2)[C@@H]2Cc3c(cc(C(=O)[N-]CCN4CCOCC4)n3C)C12

>  <Energy>  (10) 
160.91794638606316

>  <Genealogy>  (10) 
CC(C)C1CC=C(C(=O)N2CCOCC2)C2Cc3c(cc(C(=O)[N-]CCN4CCOCC4)n3C)C21 (protonated)
CC(C)[C@@H]1CC=C(C(=O)N2CCOCC2)[C@@H]2Cc3c(cc(C(=O)[N-]CCN4CCOCC4)n3C)C12 (chirality)
CC(C)[C@@H]1CC=C(C(=O)N2CCOCC2)[C@@H]2Cc3c(cc(C(=O)[N-]CCN4CCOCC4)n3C)C12 (3D coordinates assigned)
CC(C)[C@@H]1CC=C(C(=O)N2CCOCC2)[C@@H]2Cc3c(cc(C(=O)[N-]CCN4CCOCC4)n3C)C12 (nonaromatic ring conformer: 160.91794638606316 kcal/mol)

>  <smiles>  (10) 
CC(C)C1CC=C(C(=O)N2CCOCC2)C2Cc3c(cc(C(=O)NCCN4CCOCC4)n3C)C21

>  <score_type>  (10) 
oracle

>  <origin>  (10) 
adg

>  <m_score__min__energy>  (10) 
-11.76

>  <m_primary>  (10) 
energy

$$$$
10:0
     RDKit          3D

 39 39  0  0  0  0  0  0  0  0999 V2000
   -1.6134   21.6962  -29.1581 H   0  0  0  0  0  0  0  0  0  0  0  0
   -1.9480   22.4910  -29.8410 C   0  0  0  0  0  0  0  0  0  0  0  0
   -2.1110   23.7360  -29.3480 C   0  0  0  0  0  0  0  0  0  0  0  0
   -3.4210   24.2120  -28.9990 N   0  0  0  0  0  0  0  0  0  0  0  0
   -4.3120   24.9470  -29.8470 C   0  0  0  0  0  0  0  0  0  0  0  0
   -3.8730   25.5870  -30.8400 O   0  0  0  0  0  0  0  0  0  0  0  0
   -5.7760   24.9610  -29.5440 C   0  0  0  0  0  0  0  0  0  0  0  0
   -5.9296   24.7381  -28.4778 H   0  0  0  0  0  0  0  0  0  0  0  0
   -6.1842   25.9549  -29.7796 H   0  0  0  0  0  0  0  0  0  0  0  0
   -6.4820   23.9280  -30.3750 C   0  0  0  0  0  0  0  0  0  0  0  0
   -7.2230   22.9070  -29.7560 C   0  0  0  0  0  0  0  0  0  0  0  0
   -7.3113   22.8820  -28.6598 H   0  0  0  0  0  0  0  0  0  0  0  0
   -7.8490   21.9220  -30.5280 C   0  0  0  0  0  0  0  0  0  0  0  0
   -8.4298   21.1265  -30.0382 H   0  0  0  0  0  0  0  0  0  0  0  0
   -7.7370   21.9480  -31.9210 C   0  0  0  0  0  0  0  0  0  0  0  0
   -8.2261   21.1711  -32.5269 H   0  0  0  0  0  0  0  0  0  0  0  0
   -7.0030   22.9620  -32.5440 C   0  0  0  0  0  0  0  0  0  0  0  0
   -6.9224   22.9868  -33.6408 H   0  0  0  0  0  0  0  0  0  0  0  0
   -6.3710   23.9450  -31.7750 C   0  0  0  0  0  0  0  0  0  0  0  0
   -5.7849   24.7342  -32.2687 H   0  0  0  0  0  0  0  0  0  0  0  0
   -0.9730   24.6280  -29.0370 C   0  0  0  0  0  0  0  0  0  0  0  0
    0.1890   24.1670  -28.8670 O   0  0  0  0  0  0  0  0  0  0  0  0
   -1.2130   25.9990  -28.8830 O   0  0  0  0  0  0  0  0  0  0  0  0
   -0.8370   26.7370  -27.7200 C   0  0  0  0  0  0  0  0  0  0  0  0
   -1.2382   27.7585  -27.7952 H   0  0  0  0  0  0  0  0  0  0  0  0
    0.2609   26.7617  -27.6566 H   0  0  0  0  0  0  0  0  0  0  0  0
   -1.3860   26.0750  -26.4600 C   0  0  0  0  0  0  0  0  0  0  0  0
   -0.9712   26.5752  -25.5725 H   0  0  0  0  0  0  0  0  0  0  0  0
   -2.4827   26.1595  -26.4495 H   0  0  0  0  0  0  0  0  0  0  0  0
   -1.1000   25.0129  -26.4495 H   0  0  0  0  0  0  0  0  0  0  0  0
   -2.1910   22.1550  -31.2160 N   0  0  0  0  0  0  0  0  0  0  0  0
   -3.5680   22.0080  -31.6870 C   0  0  0  0  0  0  0  0  0  0  0  0
   -4.2452   21.9357  -30.8232 H   0  0  0  0  0  0  0  0  0  0  0  0
   -3.8425   22.8819  -32.2960 H   0  0  0  0  0  0  0  0  0  0  0  0
   -3.6518   21.0958  -32.2960 H   0  0  0  0  0  0  0  0  0  0  0  0
   -1.1380   21.4520  -31.9430 C   0  0  0  0  0  0  0  0  0  0  0  0
   -0.4440   20.9887  -31.2262 H   0  0  0  0  0  0  0  0  0  0  0  0
   -1.5870   20.6718  -32.5753 H   0  0  0  0  0  0  0  0  0  0  0  0
   -0.5896   22.1658  -32.5753 H   0  0  0  0  0  0  0  0  0  0  0  0
  1  2  1  0
  2  3  2  0
  3  4  1  0
  4  5  1  0
  5  6  2  0
  5  7  1  0
  7  8  1  0
  7  9  1  0
  7 10  1  0
 10 11  2  0
 11 12  1  0
 11 13  1  0
 13 14  1  0
 13 15  2  0
 15 16  1  0
 15 17  1  0
 17 18  1  0
 17 19  2  0
 19 20  1  0
  3 21  1  0
 21 22  2  0
 21 23  1  0
 23 24  1  0
 24 25  1  0
 24 26  1  0
 24 27  1  0
 27 28  1  0
 27 29  1  0
 27 30  1  0
  2 31  1  0
 31 32  1  0
 32 33  1  0
 32 34  1  0
 32 35  1  0
 31 36  1  0
 36 37  1  0
 36 38  1  0
 36 39  1  0
 19 10  1  0
M  CHG  1   4  -1
M  END
>  <UniqueID>  (11) 
11

>  <SMILES>  (11) 
CCOC(=O)/C(=C\N(C)C)[N-]C(=O)Cc1ccccc1

>  <Energy>  (11) 
38.48804775645033

>  <Genealogy>  (11) 
CCOC(=O)C(=CN(C)C)[N-]C(=O)Cc1ccccc1 (protonated)
CCOC(=O)/C(=C\N(C)C)[N-]C(=O)Cc1ccccc1 (cis-trans isomerization)
CCOC(=O)/C(=C\N(C)C)[N-]C(=O)Cc1ccccc1 (3D coordinates assigned)
CCOC(=O)/C(=C\N(C)C)[N-]C(=O)Cc1ccccc1 (optimized conformer: 38.48804775645033 kcal/mol)

>  <smiles>  (11) 
CCOC(=O)C(=CN(C)C)NC(=O)Cc1ccccc1

>  <score_type>  (11) 
oracle

>  <origin>  (11) 
adg

>  <m_score__min__energy>  (11) 
-8.0299999999999994

>  <m_primary>  (11) 
energy

$$$$
11:0
     RDKit          3D

 33 35  0  0  0  0  0  0  0  0999 V2000
    0.6260   24.5030  -27.2670 C   0  0  0  0  0  0  0  0  0  0  0  0
    0.1660   24.5170  -28.6150 O   0  0  0  0  0  0  0  0  0  0  0  0
   -1.0790   24.0220  -29.0320 C   0  0  0  0  0  0  0  0  0  0  0  0
   -2.2290   24.5270  -28.4230 C   0  0  0  0  0  0  0  0  0  0  0  0
   -3.5070   24.0710  -28.7810 C   0  0  0  0  0  0  0  0  0  0  0  0
   -4.6270   24.5550  -28.0260 N   0  0  0  0  0  0  0  0  0  0  0  0
   -3.6410   23.1140  -29.8280 C   0  0  0  0  0  0  0  0  0  0  0  0
   -4.8830   22.6760  -30.3520 C   0  0  0  0  0  0  0  0  0  0  0  0
   -5.9640   23.2070  -29.9830 O   0  0  0  0  0  0  0  0  0  0  0  0
   -4.9100   21.6780  -31.3460 C   0  0  0  0  0  0  0  0  0  0  0  0
   -6.1810   21.1460  -31.8970 C   0  0  0  0  0  0  0  0  0  0  0  0
   -7.4140   21.5730  -31.5360 N   0  0  0  0  0  0  0  0  0  0  0  0
   -8.4110   20.9000  -32.1760 C   0  0  0  0  0  0  0  0  0  0  0  0
   -9.8540   21.2300  -31.9690 C   0  0  0  0  0  0  0  0  0  0  0  0
   -7.9790   19.9290  -33.0740 C   0  0  0  0  0  0  0  0  0  0  0  0
   -6.2970   19.9060  -33.0320 S   0  0  0  0  0  0  0  0  0  0  0  0
   -3.6900   21.2030  -31.8420 C   0  0  0  0  0  0  0  0  0  0  0  0
   -2.5400   21.6740  -31.3820 O   0  0  0  0  0  0  0  0  0  0  0  0
   -2.4650   22.5920  -30.4250 C   0  0  0  0  0  0  0  0  0  0  0  0
   -1.2050   23.0400  -30.0250 C   0  0  0  0  0  0  0  0  0  0  0  0
   -0.2366   24.5293  -26.5849 H   0  0  0  0  0  0  0  0  0  0  0  0
    1.2076   23.5867  -27.0875 H   0  0  0  0  0  0  0  0  0  0  0  0
    1.2622   25.3822  -27.0875 H   0  0  0  0  0  0  0  0  0  0  0  0
   -2.1314   25.2991  -27.6456 H   0  0  0  0  0  0  0  0  0  0  0  0
   -4.5770   25.4400  -27.4770 H   0  0  0  0  0  0  0  0  0  0  0  0
   -5.5810   24.1700  -28.2010 H   0  0  0  0  0  0  0  0  0  0  0  0
   -7.5940   22.3140  -30.8230 H   0  0  0  0  0  0  0  0  0  0  0  0
  -10.0680   21.2789  -30.8911 H   0  0  0  0  0  0  0  0  0  0  0  0
  -10.0778   22.2025  -32.4318 H   0  0  0  0  0  0  0  0  0  0  0  0
  -10.4782   20.4514  -32.4318 H   0  0  0  0  0  0  0  0  0  0  0  0
   -8.6214   19.2912  -33.6989 H   0  0  0  0  0  0  0  0  0  0  0  0
   -3.6860   20.4289  -32.6235 H   0  0  0  0  0  0  0  0  0  0  0  0
   -0.3029   22.6190  -30.4929 H   0  0  0  0  0  0  0  0  0  0  0  0
  1  2  1  0
  2  3  1  0
  3  4  2  0
  4  5  1  0
  5  6  1  0
  5  7  2  0
  7  8  1  0
  8  9  2  0
  8 10  1  0
 10 11  1  0
 11 12  2  0
 12 13  1  0
 13 14  1  0
 13 15  2  0
 15 16  1  0
 10 17  2  0
 17 18  1  0
 18 19  1  0
 19 20  2  0
 20  3  1  0
 19  7  1  0
 16 11  1  0
  1 21  1  0
  1 22  1  0
  1 23  1  0
  4 24  1  0
  6 25  1  0
  6 26  1  0
 12 27  1  0
 14 28  1  0
 14 29  1  0
 14 30  1  0
 15 31  1  0
 17 32  1  0
 20 33  1  0
M  CHG  1  12   1
M  END
>  <UniqueID>  (12) 
12

>  <SMILES>  (12) 
COc1cc(N)c2c(=O)c(-c3[nH+]c(C)cs3)coc2c1

>  <Energy>  (12) 
78.30867986270957

>  <Genealogy>  (12) 
COc1cc(N)c2c(=O)c(-c3[nH+]c(C)cs3)coc2c1 (protonated)
COc1cc(N)c2c(=O)c(-c3[nH+]c(C)cs3)coc2c1 (3D coordinates assigned)
COc1cc(N)c2c(=O)c(-c3[nH+]c(C)cs3)coc2c1 (optimized conformer: 78.30867986270957 kcal/mol)

>  <smiles>  (12) 
COc1cc(N)c2c(=O)c(-c3nc(C)cs3)coc2c1

>  <score_type>  (12) 
oracle

>  <origin>  (12) 
adg

>  <m_score__min__energy>  (12) 
-5.79

>  <m_primary>  (12) 
energy

$$$$
12:0
     RDKit          3D

 55 59  0  0  0  0  0  0  0  0999 V2000
   -0.9110   23.3350  -29.7220 C   0  0  0  0  0  0  0  0  0  0  0  0
   -1.1920   24.6780  -29.3440 O   0  0  0  0  0  0  0  0  0  0  0  0
   -1.5860   25.0780  -28.0570 C   0  0  0  0  0  0  0  0  0  0  0  0
   -0.7030   25.7460  -27.1830 C   0  0  0  0  0  0  0  0  0  0  0  0
   -1.1180   26.1020  -25.8980 C   0  0  0  0  0  0  0  0  0  0  0  0
   -2.4090   25.7970  -25.4680 C   0  0  0  0  0  0  0  0  0  0  0  0
   -3.2940   25.1410  -26.3250 C   0  0  0  0  0  0  0  0  0  0  0  0
   -2.8950   24.7860  -27.6230 C   0  0  0  0  0  0  0  0  0  0  0  0
   -3.8230   24.1220  -28.4970 N   0  0  0  0  0  0  0  0  0  0  0  0
   -3.9800   22.6660  -28.4130 C   0  0  0  0  0  0  0  0  0  0  0  0
   -4.2710   22.0830  -29.8020 C   0  0  0  0  0  0  0  0  0  0  0  0
   -5.2750   22.8760  -30.5320 N   0  0  0  0  0  0  0  0  0  0  0  0
   -5.6130   22.5290  -31.8910 C   0  0  0  0  0  0  0  0  0  0  0  0
   -6.0670   23.4070  -32.6740 O   0  0  0  0  0  0  0  0  0  0  0  0
   -5.4010   21.1610  -32.4100 C   0  0  0  0  0  0  0  0  0  0  0  0
   -4.1500   20.8430  -32.9510 C   0  0  0  0  0  0  0  0  0  0  0  0
   -3.8910   19.5490  -33.4280 C   0  0  0  0  0  0  0  0  0  0  0  0
   -2.5600   19.2020  -33.9920 C   0  0  0  0  0  0  0  0  0  0  0  0
   -1.4770   20.0610  -34.1850 C   0  0  0  0  0  0  0  0  0  0  0  0
   -0.3540   19.4320  -34.7360 C   0  0  0  0  0  0  0  0  0  0  0  0
   -0.5330   18.0790  -34.9830 C   0  0  0  0  0  0  0  0  0  0  0  0
   -2.0910   17.6680  -34.5110 S   0  0  0  0  0  0  0  0  0  0  0  0
   -4.8780   18.6060  -33.3740 N   0  0  0  0  0  0  0  0  0  0  0  0
   -6.1170   18.8830  -32.8730 C   0  0  0  0  0  0  0  0  0  0  0  0
   -7.1060   17.8850  -32.8500 C   0  0  0  0  0  0  0  0  0  0  0  0
   -8.3810   18.1660  -32.3570 C   0  0  0  0  0  0  0  0  0  0  0  0
   -8.6850   19.4450  -31.8890 C   0  0  0  0  0  0  0  0  0  0  0  0
   -7.7150   20.4480  -31.9040 C   0  0  0  0  0  0  0  0  0  0  0  0
   -6.4150   20.1790  -32.3830 C   0  0  0  0  0  0  0  0  0  0  0  0
   -5.8730   24.0560  -29.8910 C   0  0  0  0  0  0  0  0  0  0  0  0
   -4.7740   24.9280  -29.2780 C   0  0  0  0  0  0  0  0  0  0  0  0
   -0.7822   22.7194  -28.8195 H   0  0  0  0  0  0  0  0  0  0  0  0
   -1.7459   22.9399  -30.3193 H   0  0  0  0  0  0  0  0  0  0  0  0
    0.0123   23.3077  -30.3193 H   0  0  0  0  0  0  0  0  0  0  0  0
    0.3174   25.9877  -27.5152 H   0  0  0  0  0  0  0  0  0  0  0  0
   -0.4244   26.6246  -25.2229 H   0  0  0  0  0  0  0  0  0  0  0  0
   -2.7300   26.0736  -24.4529 H   0  0  0  0  0  0  0  0  0  0  0  0
   -4.3108   24.9006  -25.9809 H   0  0  0  0  0  0  0  0  0  0  0  0
   -3.0532   22.2228  -28.0199 H   0  0  0  0  0  0  0  0  0  0  0  0
   -4.8211   22.4339  -27.7431 H   0  0  0  0  0  0  0  0  0  0  0  0
   -3.3377   22.0684  -30.3841 H   0  0  0  0  0  0  0  0  0  0  0  0
   -4.6711   21.0672  -29.6680 H   0  0  0  0  0  0  0  0  0  0  0  0
   -3.3652   21.6120  -33.0026 H   0  0  0  0  0  0  0  0  0  0  0  0
   -1.5032   21.1304  -33.9286 H   0  0  0  0  0  0  0  0  0  0  0  0
    0.5848   19.9626  -34.9532 H   0  0  0  0  0  0  0  0  0  0  0  0
    0.2142   17.3955  -35.4125 H   0  0  0  0  0  0  0  0  0  0  0  0
   -4.6840   17.6400  -33.7210 H   0  0  0  0  0  0  0  0  0  0  0  0
   -6.8739   16.8764  -33.2227 H   0  0  0  0  0  0  0  0  0  0  0  0
   -9.1479   17.3777  -32.3373 H   0  0  0  0  0  0  0  0  0  0  0  0
   -9.6931   19.6634  -31.5068 H   0  0  0  0  0  0  0  0  0  0  0  0
   -7.9653   21.4554  -31.5399 H   0  0  0  0  0  0  0  0  0  0  0  0
   -6.4248   24.6393  -30.6428 H   0  0  0  0  0  0  0  0  0  0  0  0
   -6.5605   23.7281  -29.0974 H   0  0  0  0  0  0  0  0  0  0  0  0
   -4.2305   25.4396  -30.0860 H   0  0  0  0  0  0  0  0  0  0  0  0
   -5.2463   25.6569  -28.6030 H   0  0  0  0  0  0  0  0  0  0  0  0
  1  2  1  0
  2  3  1  0
  3  4  2  0
  4  5  1  0
  5  6  2  0
  6  7  1  0
  7  8  2  0
  8  9  1  0
  9 10  1  0
 10 11  1  0
 11 12  1  0
 12 13  1  0
 13 14  2  0
 13 15  1  0
 15 16  2  0
 16 17  1  0
 17 18  1  0
 18 19  2  0
 19 20  1  0
 20 21  2  0
 21 22  1  0
 17 23  2  0
 23 24  1  0
 24 25  2  0
 25 26  1  0
 26 27  2  0
 27 28  1  0
 28 29  2  0
 12 30  1  0
 30 31  1  0
  8  3  1  0
 31  9  1  0
 29 15  1  0
 22 18  1  0
 29 24  1  0
  1 32  1  0
  1 33  1  0
  1 34  1  0
  4 35  1  0
  5 36  1  0
  6 37  1  0
  7 38  1  0
 10 39  1  0
 10 40  1  0
 11 41  1  0
 11 42  1  0
 16 43  1  0
 19 44  1  0
 20 45  1  0
 21 46  1  0
 23 47  1  0
 25 48  1  0
 26 49  1  0
 27 50  1  0
 28 51  1  0
 30 52  1  0
 30 53  1  0
 31 54  1  0
 31 55  1  0
M  CHG  1  23   1
M  END
>  <UniqueID>  (13) 
13

>  <SMILES>  (13) 
COc1ccccc1N1CCN(C(=O)c2cc(-c3cccs3)[nH+]c3ccccc23)CC1

>  <Energy>  (13) 
104.53150585748776

>  <Genealogy>  (13) 
COc1ccccc1N1CCN(C(=O)c2cc(-c3cccs3)[nH+]c3ccccc23)CC1 (protonated)
COc1ccccc1N1CCN(C(=O)c2cc(-c3cccs3)[nH+]c3ccccc23)CC1 (3D coordinates assigned)
COc1ccccc1N1CCN(C(=O)c2cc(-c3cccs3)[nH+]c3ccccc23)CC1 (nonaromatic ring conformer: 104.53150585748776 kcal/mol)

>  <smiles>  (13) 
COc1ccccc1N1CCN(C(=O)c2cc(-c3cccs3)nc3ccccc23)CC1

>  <score_type>  (13) 
oracle

>  <origin>  (13) 
adg

>  <m_score__min__energy>  (13) 
-8.7400000000000002

>  <m_primary>  (13) 
energy

$$$$
13:0
     RDKit          3D

 45 47  0  0  0  0  0  0  0  0999 V2000
   -5.3240   25.7170  -30.4480 C   0  0  0  0  0  0  0  0  0  0  0  0
   -3.9670   25.2940  -30.5140 O   0  0  0  0  0  0  0  0  0  0  0  0
   -3.5330   23.9610  -30.4490 C   0  0  0  0  0  0  0  0  0  0  0  0
   -3.9510   23.0170  -31.4090 C   0  0  0  0  0  0  0  0  0  0  0  0
   -3.4830   21.6980  -31.3740 C   0  0  0  0  0  0  0  0  0  0  0  0
   -3.9250   20.7170  -32.4290 C   0  0  0  0  0  0  0  0  0  0  0  0
   -5.1220   21.2090  -33.1120 N   0  0  0  0  0  0  0  0  0  0  0  0
   -6.4720   20.9040  -32.7090 C   0  0  0  0  0  0  0  0  0  0  0  0
   -7.0560   19.6450  -32.9530 C   0  0  0  0  0  0  0  0  0  0  0  0
   -8.3680   19.3820  -32.5460 C   0  0  0  0  0  0  0  0  0  0  0  0
   -9.1080   20.3680  -31.8880 C   0  0  0  0  0  0  0  0  0  0  0  0
   -8.5370   21.6180  -31.6350 C   0  0  0  0  0  0  0  0  0  0  0  0
   -7.2250   21.8840  -32.0400 C   0  0  0  0  0  0  0  0  0  0  0  0
   -2.5960   21.3110  -30.3650 C   0  0  0  0  0  0  0  0  0  0  0  0
   -2.1760   22.2300  -29.4030 C   0  0  0  0  0  0  0  0  0  0  0  0
   -0.9690   21.6460  -28.0380 Br  0  0  0  0  0  0  0  0  0  0  0  0
   -2.6440   23.5550  -29.4220 C   0  0  0  0  0  0  0  0  0  0  0  0
   -2.1860   24.4100  -28.4000 O   0  0  0  0  0  0  0  0  0  0  0  0
   -2.8390   24.7070  -27.1630 C   0  0  0  0  0  0  0  0  0  0  0  0
   -1.8440   25.0890  -26.0970 C   0  0  0  0  0  0  0  0  0  0  0  0
   -0.8970   24.1540  -25.6440 C   0  0  0  0  0  0  0  0  0  0  0  0
    0.0410   24.5160  -24.6720 C   0  0  0  0  0  0  0  0  0  0  0  0
    0.0480   25.8130  -24.1540 C   0  0  0  0  0  0  0  0  0  0  0  0
   -0.8790   26.7550  -24.6110 C   0  0  0  0  0  0  0  0  0  0  0  0
   -0.8650   28.0170  -24.1150 F   0  0  0  0  0  0  0  0  0  0  0  0
   -1.8170   26.3970  -25.5860 C   0  0  0  0  0  0  0  0  0  0  0  0
   -5.6277   25.8117  -29.3950 H   0  0  0  0  0  0  0  0  0  0  0  0
   -5.4294   26.6906  -30.9490 H   0  0  0  0  0  0  0  0  0  0  0  0
   -5.9639   24.9757  -30.9490 H   0  0  0  0  0  0  0  0  0  0  0  0
   -4.6553   23.3213  -32.1973 H   0  0  0  0  0  0  0  0  0  0  0  0
   -3.1167   20.5855  -33.1634 H   0  0  0  0  0  0  0  0  0  0  0  0
   -4.1579   19.7556  -31.9479 H   0  0  0  0  0  0  0  0  0  0  0  0
   -4.9780   21.7530  -33.9930 H   0  0  0  0  0  0  0  0  0  0  0  0
   -6.4763   18.8640  -33.4669 H   0  0  0  0  0  0  0  0  0  0  0  0
   -8.8179   18.3979  -32.7441 H   0  0  0  0  0  0  0  0  0  0  0  0
  -10.1401   20.1601  -31.5692 H   0  0  0  0  0  0  0  0  0  0  0  0
   -9.1200   22.3936  -31.1168 H   0  0  0  0  0  0  0  0  0  0  0  0
   -6.7790   22.8680  -31.8333 H   0  0  0  0  0  0  0  0  0  0  0  0
   -2.2269   20.2754  -30.3294 H   0  0  0  0  0  0  0  0  0  0  0  0
   -3.5370   25.5429  -27.3179 H   0  0  0  0  0  0  0  0  0  0  0  0
   -3.3773   23.8075  -26.8296 H   0  0  0  0  0  0  0  0  0  0  0  0
   -0.8938   23.1339  -26.0556 H   0  0  0  0  0  0  0  0  0  0  0  0
    0.7744   23.7781  -24.3149 H   0  0  0  0  0  0  0  0  0  0  0  0
    0.7835   26.0938  -23.3857 H   0  0  0  0  0  0  0  0  0  0  0  0
   -2.5364   27.1434  -25.9538 H   0  0  0  0  0  0  0  0  0  0  0  0
  1  2  1  0
  2  3  1  0
  3  4  2  0
  4  5  1  0
  5  6  1  0
  6  7  1  0
  7  8  1  0
  8  9  2  0
  9 10  1  0
 10 11  2  0
 11 12  1  0
 12 13  2  0
  5 14  2  0
 14 15  1  0
 15 16  1  0
 15 17  2  0
 17 18  1  0
 18 19  1  0
 19 20  1  0
 20 21  2  0
 21 22  1  0
 22 23  2  0
 23 24  1  0
 24 25  1  0
 24 26  2  0
 17  3  1  0
 26 20  1  0
 13  8  1  0
  1 27  1  0
  1 28  1  0
  1 29  1  0
  4 30  1  0
  6 31  1  0
  6 32  1  0
  7 33  1  0
  9 34  1  0
 10 35  1  0
 11 36  1  0
 12 37  1  0
 13 38  1  0
 14 39  1  0
 19 40  1  0
 19 41  1  0
 21 42  1  0
 22 43  1  0
 23 44  1  0
 26 45  1  0
M  END
>  <UniqueID>  (14) 
14

>  <SMILES>  (14) 
COc1cc(CNc2ccccc2)cc(Br)c1OCc1cccc(F)c1

>  <Energy>  (14) 
48.96620056236756

>  <Genealogy>  (14) 
COc1cc(CNc2ccccc2)cc(Br)c1OCc1cccc(F)c1 (3D coordinates assigned)
COc1cc(CNc2ccccc2)cc(Br)c1OCc1cccc(F)c1 (optimized conformer: 48.96620056236756 kcal/mol)

>  <smiles>  (14) 
COc1cc(CNc2ccccc2)cc(Br)c1OCc1cccc(F)c1

>  <score_type>  (14) 
oracle

>  <origin>  (14) 
adg

>  <m_score__min__energy>  (14) 
-9.0399999999999991

>  <m_primary>  (14) 
energy

$$$$
14:0
     RDKit          3D

 58 61  0  0  0  0  0  0  0  0999 V2000
   -0.8790   17.6810  -34.7560 C   0  0  0  0  0  0  0  0  0  0  0  0
   -2.1980   17.2860  -35.1180 O   0  0  0  0  0  0  0  0  0  0  0  0
   -3.3680   17.8490  -34.5860 C   0  0  0  0  0  0  0  0  0  0  0  0
   -3.2430   18.8530  -33.6210 C   0  0  0  0  0  0  0  0  0  0  0  0
   -4.3790   19.4450  -33.0600 C   0  0  0  0  0  0  0  0  0  0  0  0
   -5.6670   19.0490  -33.4640 C   0  0  0  0  0  0  0  0  0  0  0  0
   -6.8620   19.6830  -32.8480 C   0  0  0  0  0  0  0  0  0  0  0  0
   -7.9760   18.9400  -32.4360 C   0  0  0  0  0  0  0  0  0  0  0  0
   -9.0580   19.5960  -31.8590 C   0  0  0  0  0  0  0  0  0  0  0  0
   -9.0200   20.9820  -31.7080 C   0  0  0  0  0  0  0  0  0  0  0  0
   -9.9940   21.5770  -31.1710 O   0  0  0  0  0  0  0  0  0  0  0  0
   -7.9260   21.6780  -32.1460 N   0  0  0  0  0  0  0  0  0  0  0  0
   -7.8230   23.1310  -31.9890 C   0  0  0  0  0  0  0  0  0  0  0  0
   -6.7640   23.4760  -30.9310 C   0  0  0  0  0  0  0  0  0  0  0  0
   -5.3640   23.6350  -31.5440 C   0  0  0  0  0  0  0  0  0  0  0  0
   -4.3550   22.8500  -30.7980 N   0  0  0  0  0  0  0  0  0  0  0  0
   -3.8350   23.5900  -29.6190 C   0  0  0  0  0  0  0  0  0  0  0  0
   -2.4820   23.0450  -29.1200 C   0  0  0  0  0  0  0  0  0  0  0  0
   -2.3170   21.6500  -29.5360 N   0  0  0  0  0  0  0  0  0  0  0  0
   -2.1370   20.6000  -28.5660 C   0  0  0  0  0  0  0  0  0  0  0  0
   -0.9710   19.8200  -28.5790 C   0  0  0  0  0  0  0  0  0  0  0  0
   -0.8120   18.8020  -27.6390 C   0  0  0  0  0  0  0  0  0  0  0  0
   -1.8170   18.5620  -26.7010 C   0  0  0  0  0  0  0  0  0  0  0  0
   -2.9700   19.3470  -26.7200 C   0  0  0  0  0  0  0  0  0  0  0  0
   -3.1080   20.3420  -27.6390 N   0  0  0  0  0  0  0  0  0  0  0  0
   -2.4410   21.3280  -30.9630 C   0  0  0  0  0  0  0  0  0  0  0  0
   -3.2640   22.4040  -31.6860 C   0  0  0  0  0  0  0  0  0  0  0  0
   -6.8880   21.0340  -32.6870 N   0  0  0  0  0  0  0  0  0  0  0  0
   -5.7890   18.0300  -34.4290 C   0  0  0  0  0  0  0  0  0  0  0  0
   -4.6520   17.4380  -34.9860 C   0  0  0  0  0  0  0  0  0  0  0  0
   -0.7919   17.7071  -33.6598 H   0  0  0  0  0  0  0  0  0  0  0  0
   -0.1553   16.9602  -35.1643 H   0  0  0  0  0  0  0  0  0  0  0  0
   -0.6706   18.6810  -35.1643 H   0  0  0  0  0  0  0  0  0  0  0  0
   -2.2428   19.1799  -33.3004 H   0  0  0  0  0  0  0  0  0  0  0  0
   -4.2643   20.2277  -32.2956 H   0  0  0  0  0  0  0  0  0  0  0  0
   -7.9946   17.8481  -32.5677 H   0  0  0  0  0  0  0  0  0  0  0  0
   -9.9372   19.0260  -31.5242 H   0  0  0  0  0  0  0  0  0  0  0  0
   -7.5359   23.5810  -32.9508 H   0  0  0  0  0  0  0  0  0  0  0  0
   -8.7967   23.5272  -31.6650 H   0  0  0  0  0  0  0  0  0  0  0  0
   -7.0461   24.4199  -30.4416 H   0  0  0  0  0  0  0  0  0  0  0  0
   -6.7250   22.6475  -30.2084 H   0  0  0  0  0  0  0  0  0  0  0  0
   -5.3885   23.2868  -32.5872 H   0  0  0  0  0  0  0  0  0  0  0  0
   -5.0827   24.6972  -31.4933 H   0  0  0  0  0  0  0  0  0  0  0  0
   -3.7075   24.6469  -29.8958 H   0  0  0  0  0  0  0  0  0  0  0  0
   -4.5627   23.4664  -28.8034 H   0  0  0  0  0  0  0  0  0  0  0  0
   -1.6672   23.6500  -29.5443 H   0  0  0  0  0  0  0  0  0  0  0  0
   -2.4551   23.0988  -28.0216 H   0  0  0  0  0  0  0  0  0  0  0  0
   -0.1866   20.0102  -29.3263 H   0  0  0  0  0  0  0  0  0  0  0  0
    0.1023   18.1905  -27.6370 H   0  0  0  0  0  0  0  0  0  0  0  0
   -1.7012   17.7623  -25.9546 H   0  0  0  0  0  0  0  0  0  0  0  0
   -3.7711   19.1613  -25.9894 H   0  0  0  0  0  0  0  0  0  0  0  0
   -3.9950   20.8920  -27.6410 H   0  0  0  0  0  0  0  0  0  0  0  0
   -1.4378   21.2770  -31.4114 H   0  0  0  0  0  0  0  0  0  0  0  0
   -2.9516   20.3592  -31.0667 H   0  0  0  0  0  0  0  0  0  0  0  0
   -2.6173   23.2586  -31.9340 H   0  0  0  0  0  0  0  0  0  0  0  0
   -3.6852   21.9896  -32.6138 H   0  0  0  0  0  0  0  0  0  0  0  0
   -6.7881   17.6972  -34.7470 H   0  0  0  0  0  0  0  0  0  0  0  0
   -4.7621   16.6461  -35.7415 H   0  0  0  0  0  0  0  0  0  0  0  0
  1  2  1  0
  2  3  1  0
  3  4  2  0
  4  5  1  0
  5  6  2  0
  6  7  1  0
  7  8  1  0
  8  9  2  0
  9 10  1  0
 10 11  2  0
 10 12  1  0
 12 13  1  0
 13 14  1  0
 14 15  1  0
 15 16  1  0
 16 17  1  0
 17 18  1  0
 18 19  1  0
 19 20  1  0
 20 21  2  0
 21 22  1  0
 22 23  2  0
 23 24  1  0
 24 25  2  0
 19 26  1  0
 26 27  1  0
 12 28  1  0
  6 29  1  0
 29 30  2  0
 30  3  1  0
 28  7  2  0
 27 16  1  0
 25 20  1  0
  1 31  1  0
  1 32  1  0
  1 33  1  0
  4 34  1  0
  5 35  1  0
  8 36  1  0
  9 37  1  0
 13 38  1  0
 13 39  1  0
 14 40  1  0
 14 41  1  0
 15 42  1  0
 15 43  1  0
 17 44  1  0
 17 45  1  0
 18 46  1  0
 18 47  1  0
 21 48  1  0
 22 49  1  0
 23 50  1  0
 24 51  1  0
 25 52  1  0
 26 53  1  0
 26 54  1  0
 27 55  1  0
 27 56  1  0
 29 57  1  0
 30 58  1  0
M  CHG  1  25   1
M  END
>  <UniqueID>  (15) 
15

>  <SMILES>  (15) 
COc1ccc(-c2ccc(=O)n(CCCN3CCN(c4cccc[nH+]4)CC3)n2)cc1

>  <Energy>  (15) 
71.89690652966983

>  <Genealogy>  (15) 
COc1ccc(-c2ccc(=O)n(CCCN3CCN(c4cccc[nH+]4)CC3)n2)cc1 (protonated)
COc1ccc(-c2ccc(=O)n(CCCN3CCN(c4cccc[nH+]4)CC3)n2)cc1 (3D coordinates assigned)
COc1ccc(-c2ccc(=O)n(CCCN3CCN(c4cccc[nH+]4)CC3)n2)cc1 (nonaromatic ring conformer: 71.89690652966983 kcal/mol)

>  <smiles>  (15) 
COc1ccc(-c2ccc(=O)n(CCCN3CCN(c4ccccn4)CC3)n2)cc1

>  <score_type>  (15) 
oracle

>  <origin>  (15) 
adg

>  <m_score__min__energy>  (15) 
-9.2899999999999991

>  <m_primary>  (15) 
energy

$$$$
15:0
     RDKit          3D

 36 39  0  0  0  0  0  0  0  0999 V2000
   -3.5987   21.6131  -32.6561 H   0  0  0  0  0  0  0  0  0  0  0  0
   -4.2670   20.8410  -33.0650 C   0  0  0  0  0  0  0  0  0  0  0  0
   -3.8770   19.7810  -33.8010 N   0  0  0  0  0  0  0  0  0  0  0  0
   -4.9620   19.0930  -34.1180 N   0  0  0  0  0  0  0  0  0  0  0  0
   -4.9400   17.8380  -34.8560 C   0  0  0  0  0  0  0  0  0  0  0  0
   -4.9252   16.9964  -34.1478 H   0  0  0  0  0  0  0  0  0  0  0  0
   -5.8371   17.7690  -35.4888 H   0  0  0  0  0  0  0  0  0  0  0  0
   -4.0411   17.8005  -35.4888 H   0  0  0  0  0  0  0  0  0  0  0  0
   -6.0510   19.6720  -33.5820 C   0  0  0  0  0  0  0  0  0  0  0  0
   -7.0853   19.3076  -33.6679 H   0  0  0  0  0  0  0  0  0  0  0  0
   -5.6430   20.8040  -32.9050 C   0  0  0  0  0  0  0  0  0  0  0  0
   -6.5040   21.7460  -32.1650 C   0  0  0  0  0  0  0  0  0  0  0  0
   -7.8880   21.6720  -32.0290 C   0  0  0  0  0  0  0  0  0  0  0  0
   -8.5299   20.8900  -32.4609 H   0  0  0  0  0  0  0  0  0  0  0  0
   -8.3180   22.7150  -31.2810 N   0  0  0  0  0  0  0  0  0  0  0  0
   -9.3000   22.9360  -31.0040 H   0  0  0  0  0  0  0  0  0  0  0  0
   -7.2010   23.4020  -30.9760 C   0  0  0  0  0  0  0  0  0  0  0  0
   -7.1110   24.5630  -30.2200 C   0  0  0  0  0  0  0  0  0  0  0  0
   -8.0056   25.0348  -29.7874 H   0  0  0  0  0  0  0  0  0  0  0  0
   -5.8340   25.1100  -30.0300 C   0  0  0  0  0  0  0  0  0  0  0  0
   -5.7113   26.0296  -29.4389 H   0  0  0  0  0  0  0  0  0  0  0  0
   -4.6980   24.4750  -30.6020 C   0  0  0  0  0  0  0  0  0  0  0  0
   -3.4900   24.9390  -30.4590 N   0  0  0  0  0  0  0  0  0  0  0  0
   -2.5270   24.5360  -29.4300 C   0  0  0  0  0  0  0  0  0  0  0  0
   -1.7529   23.9118  -29.9002 H   0  0  0  0  0  0  0  0  0  0  0  0
   -2.1070   25.4552  -28.9956 H   0  0  0  0  0  0  0  0  0  0  0  0
   -3.1700   23.7370  -28.2810 C   0  0  0  0  0  0  0  0  0  0  0  0
   -3.4607   22.9048  -28.9390 H   0  0  0  0  0  0  0  0  0  0  0  0
   -2.5240   23.8490  -26.9070 C   0  0  0  0  0  0  0  0  0  0  0  0
   -2.4789   22.9701  -26.2471 H   0  0  0  0  0  0  0  0  0  0  0  0
   -1.5440   24.1801  -26.5328 H   0  0  0  0  0  0  0  0  0  0  0  0
   -3.8600   24.5300  -27.1790 C   0  0  0  0  0  0  0  0  0  0  0  0
   -4.7794   24.1426  -26.7156 H   0  0  0  0  0  0  0  0  0  0  0  0
   -4.2441   25.5563  -27.0827 H   0  0  0  0  0  0  0  0  0  0  0  0
   -4.8770   23.3350  -31.3320 N   0  0  0  0  0  0  0  0  0  0  0  0
   -6.1020   22.8420  -31.4940 N   0  0  0  0  0  0  0  0  0  0  0  0
  1  2  1  0
  2  3  2  0
  3  4  1  0
  4  5  1  0
  5  6  1  0
  5  7  1  0
  5  8  1  0
  4  9  1  0
  9 10  1  0
  9 11  2  0
 11 12  1  0
 12 13  2  0
 13 14  1  0
 13 15  1  0
 15 16  1  0
 15 17  2  0
 17 18  1  0
 18 19  1  0
 18 20  2  0
 20 21  1  0
 20 22  1  0
 22 23  2  0
 23 24  1  0
 24 25  1  0
 24 26  1  0
 24 27  1  0
 27 28  1  0
 27 29  1  0
 29 30  1  0
 29 31  1  0
 29 32  1  0
 32 33  1  0
 32 34  1  0
 22 35  1  0
 35 36  1  0
 11  2  1  0
 36 12  1  0
 36 17  1  0
 32 27  1  0
M  CHG  2  15   1  35  -1
M  END
>  <UniqueID>  (16) 
16

>  <SMILES>  (16) 
Cn1cc(-c2c[nH+]c3cc/c(=N\CC4CC4)[n-]n23)cn1

>  <Energy>  (16) 
373.0925686423597

>  <Genealogy>  (16) 
Cn1cc(-c2c[nH+]c3ccc(=NCC4CC4)[n-]n23)cn1 (protonated)
Cn1cc(-c2c[nH+]c3cc/c(=N\CC4CC4)[n-]n23)cn1 (cis-trans isomerization)
Cn1cc(-c2c[nH+]c3cc/c(=N\CC4CC4)[n-]n23)cn1 (3D coordinates assigned)
Cn1cc(-c2c[nH+]c3cc/c(=N\CC4CC4)[n-]n23)cn1 (nonaromatic ring conformer: 373.0925686423597 kcal/mol)

>  <smiles>  (16) 
Cn1cc(-c2cnc3ccc(=NCC4CC4)[nH]n23)cn1

>  <score_type>  (16) 
oracle

>  <origin>  (16) 
adg

>  <m_score__min__energy>  (16) 
-7.6100000000000003

>  <m_primary>  (16) 
energy

$$$$
16:0
     RDKit          3D

 65 66  0  0  0  0  0  0  0  0999 V2000
   -2.9510   19.1650  -26.6960 C   0  0  0  0  0  0  0  0  0  0  0  0
   -2.0730   20.3420  -27.1240 C   0  0  0  0  0  0  0  0  0  0  0  0
   -2.7420   21.2420  -28.1780 C   0  0  0  0  0  0  0  0  0  0  0  0
   -1.7610   22.0150  -28.9600 N   0  0  0  0  0  0  0  0  0  0  0  0
   -0.5530   22.5330  -28.3060 C   0  0  0  0  0  0  0  0  0  0  0  0
   -0.3830   23.9900  -28.6100 C   0  0  0  0  0  0  0  0  0  0  0  0
    0.7650   24.5080  -28.5820 O   0  0  0  0  0  0  0  0  0  0  0  0
   -1.5310   24.7840  -28.9310 N   0  0  0  0  0  0  0  0  0  0  0  0
   -2.6940   24.9100  -28.0600 C   0  0  0  0  0  0  0  0  0  0  0  0
   -2.3700   24.5340  -26.5950 C   0  0  0  0  0  0  0  0  0  0  0  0
   -1.7040   25.5990  -25.8060 N   0  0  0  0  0  0  0  0  0  0  0  0
   -1.2190   26.7360  -26.6220 C   0  0  0  0  0  0  0  0  0  0  0  0
   -0.8370   27.8920  -25.7060 C   0  0  0  0  0  0  0  0  0  0  0  0
   -0.7100   25.0870  -24.8400 C   0  0  0  0  0  0  0  0  0  0  0  0
   -0.4710   23.5930  -25.0440 C   0  0  0  0  0  0  0  0  0  0  0  0
   -1.8210   22.0000  -30.4020 C   0  0  0  0  0  0  0  0  0  0  0  0
   -0.8010   22.3120  -31.0760 O   0  0  0  0  0  0  0  0  0  0  0  0
   -3.0520   21.6210  -31.1180 C   0  0  0  0  0  0  0  0  0  0  0  0
   -3.1470   20.6690  -32.1130 C   0  0  0  0  0  0  0  0  0  0  0  0
   -4.4850   20.5900  -32.4470 C   0  0  0  0  0  0  0  0  0  0  0  0
   -5.0490   19.6690  -33.4890 C   0  0  0  0  0  0  0  0  0  0  0  0
   -5.2090   21.4550  -31.7000 N   0  0  0  0  0  0  0  0  0  0  0  0
   -6.6320   21.6500  -31.7570 C   0  0  0  0  0  0  0  0  0  0  0  0
   -7.5030   20.5580  -31.6100 C   0  0  0  0  0  0  0  0  0  0  0  0
   -8.8870   20.7490  -31.6700 C   0  0  0  0  0  0  0  0  0  0  0  0
   -9.4090   22.0300  -31.8740 C   0  0  0  0  0  0  0  0  0  0  0  0
   -8.5470   23.1220  -32.0160 C   0  0  0  0  0  0  0  0  0  0  0  0
   -7.1630   22.9340  -31.9590 C   0  0  0  0  0  0  0  0  0  0  0  0
   -4.3360   22.0860  -30.8790 C   0  0  0  0  0  0  0  0  0  0  0  0
   -4.7140   23.1250  -29.8620 C   0  0  0  0  0  0  0  0  0  0  0  0
   -2.9880   19.1155  -25.5977 H   0  0  0  0  0  0  0  0  0  0  0  0
   -3.9682   19.3036  -27.0912 H   0  0  0  0  0  0  0  0  0  0  0  0
   -2.5283   18.2295  -27.0912 H   0  0  0  0  0  0  0  0  0  0  0  0
   -1.8468   20.9510  -26.2363 H   0  0  0  0  0  0  0  0  0  0  0  0
   -1.1631   19.9240  -27.5794 H   0  0  0  0  0  0  0  0  0  0  0  0
   -3.3225   20.6094  -28.8657 H   0  0  0  0  0  0  0  0  0  0  0  0
   -3.3872   21.9577  -27.6474 H   0  0  0  0  0  0  0  0  0  0  0  0
   -0.6424   22.3971  -27.2181 H   0  0  0  0  0  0  0  0  0  0  0  0
    0.3223   21.9837  -28.6831 H   0  0  0  0  0  0  0  0  0  0  0  0
   -3.0470   25.9514  -28.0887 H   0  0  0  0  0  0  0  0  0  0  0  0
   -3.4656   24.2157  -28.4242 H   0  0  0  0  0  0  0  0  0  0  0  0
   -3.3139   24.2768  -26.0922 H   0  0  0  0  0  0  0  0  0  0  0  0
   -1.6580   23.6969  -26.6432 H   0  0  0  0  0  0  0  0  0  0  0  0
   -0.3390   26.4218  -27.2023 H   0  0  0  0  0  0  0  0  0  0  0  0
   -2.0146   27.0600  -27.3090 H   0  0  0  0  0  0  0  0  0  0  0  0
   -0.9407   27.5782  -24.6568 H   0  0  0  0  0  0  0  0  0  0  0  0
    0.2055   28.1844  -25.8999 H   0  0  0  0  0  0  0  0  0  0  0  0
   -1.5000   28.7480  -25.8999 H   0  0  0  0  0  0  0  0  0  0  0  0
    0.2387   25.6258  -24.9798 H   0  0  0  0  0  0  0  0  0  0  0  0
   -1.0955   25.2453  -23.8220 H   0  0  0  0  0  0  0  0  0  0  0  0
   -0.3917   23.0973  -24.0652 H   0  0  0  0  0  0  0  0  0  0  0  0
   -1.3114   23.1607  -25.6069 H   0  0  0  0  0  0  0  0  0  0  0  0
    0.4623   23.4445  -25.6069 H   0  0  0  0  0  0  0  0  0  0  0  0
   -2.3219   20.0891  -32.5522 H   0  0  0  0  0  0  0  0  0  0  0  0
   -5.5629   18.8299  -32.9973 H   0  0  0  0  0  0  0  0  0  0  0  0
   -5.7647   20.2201  -34.1168 H   0  0  0  0  0  0  0  0  0  0  0  0
   -4.2328   19.2820  -34.1168 H   0  0  0  0  0  0  0  0  0  0  0  0
   -7.0952   19.5494  -31.4472 H   0  0  0  0  0  0  0  0  0  0  0  0
   -9.5656   19.8907  -31.5566 H   0  0  0  0  0  0  0  0  0  0  0  0
  -10.4978   22.1788  -31.9228 H   0  0  0  0  0  0  0  0  0  0  0  0
   -8.9585   24.1300  -32.1727 H   0  0  0  0  0  0  0  0  0  0  0  0
   -6.4877   23.7948  -32.0728 H   0  0  0  0  0  0  0  0  0  0  0  0
   -4.5662   22.7188  -28.8505 H   0  0  0  0  0  0  0  0  0  0  0  0
   -4.0823   24.0156  -29.9954 H   0  0  0  0  0  0  0  0  0  0  0  0
   -5.7703   23.4014  -29.9954 H   0  0  0  0  0  0  0  0  0  0  0  0
  1  2  1  0
  2  3  1  0
  3  4  1  0
  4  5  1  0
  5  6  1  0
  6  7  2  0
  6  8  1  0
  8  9  1  0
  9 10  1  0
 10 11  1  0
 11 12  1  0
 12 13  1  0
 11 14  1  0
 14 15  1  0
  4 16  1  0
 16 17  2  0
 16 18  1  0
 18 19  1  0
 19 20  2  0
 20 21  1  0
 20 22  1  0
 22 23  1  0
 23 24  2  0
 24 25  1  0
 25 26  2  0
 26 27  1  0
 27 28  2  0
 22 29  1  0
 29 30  1  0
 29 18  2  0
 28 23  1  0
  1 31  1  0
  1 32  1  0
  1 33  1  0
  2 34  1  0
  2 35  1  0
  3 36  1  0
  3 37  1  0
  5 38  1  0
  5 39  1  0
  9 40  1  0
  9 41  1  0
 10 42  1  0
 10 43  1  0
 12 44  1  0
 12 45  1  0
 13 46  1  0
 13 47  1  0
 13 48  1  0
 14 49  1  0
 14 50  1  0
 15 51  1  0
 15 52  1  0
 15 53  1  0
 19 54  1  0
 21 55  1  0
 21 56  1  0
 21 57  1  0
 24 58  1  0
 25 59  1  0
 26 60  1  0
 27 61  1  0
 28 62  1  0
 30 63  1  0
 30 64  1  0
 30 65  1  0
M  CHG  1   8  -1
M  END
>  <UniqueID>  (17) 
17

>  <SMILES>  (17) 
CCCN(CC(=O)[N-]CCN(CC)CC)C(=O)c1cc(C)n(-c2ccccc2)c1C

>  <Energy>  (17) 
93.69866992483611

>  <Genealogy>  (17) 
CCCN(CC(=O)[N-]CCN(CC)CC)C(=O)c1cc(C)n(-c2ccccc2)c1C (protonated)
CCCN(CC(=O)[N-]CCN(CC)CC)C(=O)c1cc(C)n(-c2ccccc2)c1C (3D coordinates assigned)
CCCN(CC(=O)[N-]CCN(CC)CC)C(=O)c1cc(C)n(-c2ccccc2)c1C (optimized conformer: 93.69866992483611 kcal/mol)

>  <smiles>  (17) 
CCCN(CC(=O)NCCN(CC)CC)C(=O)c1cc(C)n(-c2ccccc2)c1C

>  <score_type>  (17) 
oracle

>  <origin>  (17) 
adg

>  <m_score__min__energy>  (17) 
-10.31

>  <m_primary>  (17) 
energy

$$$$
17:0
     RDKit          3D

 43 44  0  0  0  0  0  0  0  0999 V2000
   -3.4650   22.3080  -31.9610 H   0  0  0  0  0  0  0  0  0  0  0  0
   -4.0830   21.9650  -32.7300 N   0  0  0  0  0  0  0  0  0  0  0  0
   -5.3180   21.6130  -32.5420 C   0  0  0  0  0  0  0  0  0  0  0  0
   -6.2770   22.4830  -32.1320 N   0  0  0  0  0  0  0  0  0  0  0  0
   -6.1270   23.9230  -31.8880 C   0  0  0  0  0  0  0  0  0  0  0  0
   -5.7114   24.4004  -32.7876 H   0  0  0  0  0  0  0  0  0  0  0  0
   -7.1145   24.3469  -31.6530 H   0  0  0  0  0  0  0  0  0  0  0  0
   -5.1990   24.1730  -30.7190 C   0  0  0  0  0  0  0  0  0  0  0  0
   -3.9910   24.1100  -30.9050 O   0  0  0  0  0  0  0  0  0  0  0  0
   -5.6950   24.4240  -29.3770 N   0  0  0  0  0  0  0  0  0  0  0  0
   -6.3410   23.6440  -29.1080 H   0  0  0  0  0  0  0  0  0  0  0  0
   -6.4720   25.6730  -29.3310 C   0  0  0  0  0  0  0  0  0  0  0  0
   -6.6485   25.9567  -28.2830 H   0  0  0  0  0  0  0  0  0  0  0  0
   -5.9115   26.4724  -29.8378 H   0  0  0  0  0  0  0  0  0  0  0  0
   -7.4368   25.5235  -29.8378 H   0  0  0  0  0  0  0  0  0  0  0  0
   -4.6010   24.4430  -28.3940 C   0  0  0  0  0  0  0  0  0  0  0  0
   -5.0213   24.4357  -27.3775 H   0  0  0  0  0  0  0  0  0  0  0  0
   -3.9662   23.5557  -28.5347 H   0  0  0  0  0  0  0  0  0  0  0  0
   -3.9974   25.3518  -28.5347 H   0  0  0  0  0  0  0  0  0  0  0  0
   -7.4110   21.7510  -32.1320 C   0  0  0  0  0  0  0  0  0  0  0  0
   -8.7140   22.1490  -31.8280 C   0  0  0  0  0  0  0  0  0  0  0  0
   -8.9337   23.1792  -31.5110 H   0  0  0  0  0  0  0  0  0  0  0  0
   -9.7360   21.1910  -31.9400 C   0  0  0  0  0  0  0  0  0  0  0  0
  -10.7736   21.4698  -31.7042 H   0  0  0  0  0  0  0  0  0  0  0  0
   -9.4410   19.8730  -32.3530 C   0  0  0  0  0  0  0  0  0  0  0  0
  -10.2513   19.1344  -32.4413 H   0  0  0  0  0  0  0  0  0  0  0  0
   -8.1200   19.4980  -32.6520 C   0  0  0  0  0  0  0  0  0  0  0  0
   -7.8794   18.4752  -32.9775 H   0  0  0  0  0  0  0  0  0  0  0  0
   -7.1220   20.4680  -32.5220 C   0  0  0  0  0  0  0  0  0  0  0  0
   -5.7980   20.3590  -32.7680 N   0  0  0  0  0  0  0  0  0  0  0  0
   -5.0820   19.1880  -33.2840 C   0  0  0  0  0  0  0  0  0  0  0  0
   -4.0293   19.4539  -33.4603 H   0  0  0  0  0  0  0  0  0  0  0  0
   -5.1444   18.3744  -32.5464 H   0  0  0  0  0  0  0  0  0  0  0  0
   -5.7140   18.7210  -34.6000 C   0  0  0  0  0  0  0  0  0  0  0  0
   -6.6147   19.3230  -34.7908 H   0  0  0  0  0  0  0  0  0  0  0  0
   -4.9627   18.8497  -35.3931 H   0  0  0  0  0  0  0  0  0  0  0  0
   -6.1110   17.2380  -34.5740 C   0  0  0  0  0  0  0  0  0  0  0  0
   -7.0822   17.1246  -35.0779 H   0  0  0  0  0  0  0  0  0  0  0  0
   -5.3189   16.6724  -35.0866 H   0  0  0  0  0  0  0  0  0  0  0  0
   -6.2290   16.6850  -33.1540 C   0  0  0  0  0  0  0  0  0  0  0  0
   -6.0562   17.4946  -32.4297 H   0  0  0  0  0  0  0  0  0  0  0  0
   -7.2362   16.2686  -33.0052 H   0  0  0  0  0  0  0  0  0  0  0  0
   -5.4795   15.8938  -33.0052 H   0  0  0  0  0  0  0  0  0  0  0  0
  1  2  1  0
  2  3  2  0
  3  4  1  0
  4  5  1  0
  5  6  1  0
  5  7  1  0
  5  8  1  0
  8  9  2  0
  8 10  1  0
 10 11  1  0
 10 12  1  0
 12 13  1  0
 12 14  1  0
 12 15  1  0
 10 16  1  0
 16 17  1  0
 16 18  1  0
 16 19  1  0
  4 20  1  0
 20 21  2  0
 21 22  1  0
 21 23  1  0
 23 24  1  0
 23 25  2  0
 25 26  1  0
 25 27  1  0
 27 28  1  0
 27 29  2  0
 29 30  1  0
 30 31  1  0
 31 32  1  0
 31 33  1  0
 31 34  1  0
 34 35  1  0
 34 36  1  0
 34 37  1  0
 37 38  1  0
 37 39  1  0
 37 40  1  0
 40 41  1  0
 40 42  1  0
 40 43  1  0
 30  3  1  0
 29 20  1  0
M  CHG  1  10   1
M  END
>  <UniqueID>  (18) 
18

>  <SMILES>  (18) 
[H]/N=c1\n(CCCC)c2ccccc2n1CC(=O)[NH+](C)C

>  <Energy>  (18) 
77.4409639015022

>  <Genealogy>  (18) 
CCCCn1c(=N)n(CC(=O)[NH+](C)C)c2ccccc21 (protonated)
[H]/N=c1\n(CCCC)c2ccccc2n1CC(=O)[NH+](C)C (cis-trans isomerization)
[H]/N=c1\n(CCCC)c2ccccc2n1CC(=O)[NH+](C)C (3D coordinates assigned)
[H]/N=c1\n(CCCC)c2ccccc2n1CC(=O)[NH+](C)C (optimized conformer: 77.4409639015022 kcal/mol)

>  <smiles>  (18) 
CCCCn1c(=N)n(CC(=O)N(C)C)c2ccccc21

>  <score_type>  (18) 
oracle

>  <origin>  (18) 
adg

>  <m_score__min__energy>  (18) 
-6.3700000000000001

>  <m_primary>  (18) 
energy

$$$$
18:0
     RDKit          3D

 38 39  0  0  0  0  0  0  0  0999 V2000
    0.5740   24.9260  -28.1490 O   0  0  0  0  0  0  0  0  0  0  0  0
   -0.5410   24.9880  -27.5680 C   0  0  0  0  0  0  0  0  0  0  0  0
   -1.7070   24.5250  -28.2640 N   0  0  0  0  0  0  0  0  0  0  0  0
   -2.9940   24.1760  -27.6630 C   0  0  0  0  0  0  0  0  0  0  0  0
   -3.9870   23.6280  -28.7000 C   0  0  0  0  0  0  0  0  0  0  0  0
   -4.6750   24.7300  -29.5220 C   0  0  0  0  0  0  0  0  0  0  0  0
   -4.4560   24.5540  -30.9680 N   0  0  0  0  0  0  0  0  0  0  0  0
   -4.5450   23.1480  -31.4020 C   0  0  0  0  0  0  0  0  0  0  0  0
   -5.9740   22.7000  -31.6030 C   0  0  0  0  0  0  0  0  0  0  0  0
   -7.0070   23.6470  -31.6800 C   0  0  0  0  0  0  0  0  0  0  0  0
   -8.3280   23.2340  -31.8790 C   0  0  0  0  0  0  0  0  0  0  0  0
   -8.6270   21.8750  -32.0010 C   0  0  0  0  0  0  0  0  0  0  0  0
   -7.6030   20.9230  -31.9250 C   0  0  0  0  0  0  0  0  0  0  0  0
   -8.0110   19.0660  -32.0970 Br  0  0  0  0  0  0  0  0  0  0  0  0
   -6.2800   21.3340  -31.7260 C   0  0  0  0  0  0  0  0  0  0  0  0
   -0.6010   25.5690  -26.2170 C   0  0  0  0  0  0  0  0  0  0  0  0
   -0.0810   24.8960  -25.1020 C   0  0  0  0  0  0  0  0  0  0  0  0
   -0.1460   25.4780  -23.8750 N   0  0  0  0  0  0  0  0  0  0  0  0
   -0.6960   26.7110  -23.7120 C   0  0  0  0  0  0  0  0  0  0  0  0
   -1.1920   27.3950  -24.8220 C   0  0  0  0  0  0  0  0  0  0  0  0
   -1.1270   26.8120  -26.0480 N   0  0  0  0  0  0  0  0  0  0  0  0
   -2.8288   23.4101  -26.8909 H   0  0  0  0  0  0  0  0  0  0  0  0
   -3.4256   25.0912  -27.2316 H   0  0  0  0  0  0  0  0  0  0  0  0
   -3.4425   22.9661  -29.3895 H   0  0  0  0  0  0  0  0  0  0  0  0
   -4.7738   23.0930  -28.1479 H   0  0  0  0  0  0  0  0  0  0  0  0
   -5.7559   24.7020  -29.3200 H   0  0  0  0  0  0  0  0  0  0  0  0
   -4.2414   25.6968  -29.2266 H   0  0  0  0  0  0  0  0  0  0  0  0
   -3.5100   24.9300  -31.2140 H   0  0  0  0  0  0  0  0  0  0  0  0
   -4.0020   23.0359  -32.3521 H   0  0  0  0  0  0  0  0  0  0  0  0
   -4.1041   22.5229  -30.6115 H   0  0  0  0  0  0  0  0  0  0  0  0
   -6.7765   24.7182  -31.5834 H   0  0  0  0  0  0  0  0  0  0  0  0
   -9.1334   23.9808  -31.9396 H   0  0  0  0  0  0  0  0  0  0  0  0
   -9.6671   21.5526  -32.1568 H   0  0  0  0  0  0  0  0  0  0  0  0
   -5.4767   20.5849  -31.6657 H   0  0  0  0  0  0  0  0  0  0  0  0
    0.3769   23.9028  -25.2195 H   0  0  0  0  0  0  0  0  0  0  0  0
    0.2410   24.9740  -23.0460 H   0  0  0  0  0  0  0  0  0  0  0  0
   -0.7494   27.1658  -22.7119 H   0  0  0  0  0  0  0  0  0  0  0  0
   -1.6315   28.3967  -24.7061 H   0  0  0  0  0  0  0  0  0  0  0  0
  1  2  2  0
  2  3  1  0
  3  4  1  0
  4  5  1  0
  5  6  1  0
  6  7  1  0
  7  8  1  0
  8  9  1  0
  9 10  2  0
 10 11  1  0
 11 12  2  0
 12 13  1  0
 13 14  1  0
 13 15  2  0
  2 16  1  0
 16 17  2  0
 17 18  1  0
 18 19  2  0
 19 20  1  0
 20 21  2  0
 15  9  1  0
 21 16  1  0
  4 22  1  0
  4 23  1  0
  5 24  1  0
  5 25  1  0
  6 26  1  0
  6 27  1  0
  7 28  1  0
  8 29  1  0
  8 30  1  0
 10 31  1  0
 11 32  1  0
 12 33  1  0
 15 34  1  0
 17 35  1  0
 18 36  1  0
 19 37  1  0
 20 38  1  0
M  CHG  2   3  -1  18   1
M  END
>  <UniqueID>  (19) 
19

>  <SMILES>  (19) 
O=C([N-]CCCNCc1cccc(Br)c1)c1c[nH+]ccn1

>  <Energy>  (19) 
39.868240601349676

>  <Genealogy>  (19) 
O=C([N-]CCCNCc1cccc(Br)c1)c1c[nH+]ccn1 (protonated)
O=C([N-]CCCNCc1cccc(Br)c1)c1c[nH+]ccn1 (3D coordinates assigned)
O=C([N-]CCCNCc1cccc(Br)c1)c1c[nH+]ccn1 (optimized conformer: 39.868240601349676 kcal/mol)

>  <smiles>  (19) 
O=C(NCCCNCc1cccc(Br)c1)c1cnccn1

>  <score_type>  (19) 
oracle

>  <origin>  (19) 
adg

>  <m_score__min__energy>  (19) 
-10.02

>  <m_primary>  (19) 
energy

$$$$
19:0
     RDKit          3D

 59 62  0  0  0  0  0  0  0  0999 V2000
   -4.2780   25.6070  -30.8420 O   0  0  0  0  0  0  0  0  0  0  0  0
   -3.6870   24.6450  -30.2790 C   0  0  0  0  0  0  0  0  0  0  0  0
   -4.1930   23.2400  -30.4750 C   0  0  0  0  0  0  0  0  0  0  0  0
   -3.4970   22.4600  -31.9780 S   0  0  0  0  0  0  0  0  0  0  0  0
   -4.7890   21.2060  -32.1050 C   0  0  0  0  0  0  0  0  0  0  0  0
   -6.0760   21.6310  -32.0660 N   0  0  0  0  0  0  0  0  0  0  0  0
   -7.1180   20.7720  -32.1680 C   0  0  0  0  0  0  0  0  0  0  0  0
   -8.4300   21.2540  -32.1120 C   0  0  0  0  0  0  0  0  0  0  0  0
   -9.5060   20.3660  -32.2240 C   0  0  0  0  0  0  0  0  0  0  0  0
   -9.2730   18.9950  -32.3920 C   0  0  0  0  0  0  0  0  0  0  0  0
   -7.9630   18.5080  -32.4500 C   0  0  0  0  0  0  0  0  0  0  0  0
   -6.8740   19.3960  -32.3370 C   0  0  0  0  0  0  0  0  0  0  0  0
   -5.5370   18.9630  -32.3940 C   0  0  0  0  0  0  0  0  0  0  0  0
   -5.2910   17.7360  -32.5760 O   0  0  0  0  0  0  0  0  0  0  0  0
   -4.5050   19.8660  -32.2600 N   0  0  0  0  0  0  0  0  0  0  0  0
   -3.1080   19.3950  -32.3550 C   0  0  0  0  0  0  0  0  0  0  0  0
   -2.4860   19.8380  -33.6840 C   0  0  0  0  0  0  0  0  0  0  0  0
   -0.9990   19.4650  -33.7560 C   0  0  0  0  0  0  0  0  0  0  0  0
   -0.1890   20.6250  -34.1930 N   0  0  0  0  0  0  0  0  0  0  0  0
   -0.3980   20.9270  -35.6230 C   0  0  0  0  0  0  0  0  0  0  0  0
    0.4230   22.1710  -36.0260 C   0  0  0  0  0  0  0  0  0  0  0  0
    1.3520   22.5550  -35.0270 O   0  0  0  0  0  0  0  0  0  0  0  0
    2.1240   21.4380  -34.6390 C   0  0  0  0  0  0  0  0  0  0  0  0
    1.2460   20.3780  -33.9420 C   0  0  0  0  0  0  0  0  0  0  0  0
   -2.4940   24.9140  -29.5340 N   0  0  0  0  0  0  0  0  0  0  0  0
   -2.0450   24.1410  -28.3790 C   0  0  0  0  0  0  0  0  0  0  0  0
   -1.6280   22.7680  -28.8260 C   0  0  0  0  0  0  0  0  0  0  0  0
   -0.8510   22.5970  -29.9870 C   0  0  0  0  0  0  0  0  0  0  0  0
   -0.4860   21.3120  -30.4070 C   0  0  0  0  0  0  0  0  0  0  0  0
   -0.9030   20.1910  -29.6800 C   0  0  0  0  0  0  0  0  0  0  0  0
   -1.6890   20.3530  -28.5330 C   0  0  0  0  0  0  0  0  0  0  0  0
   -2.0540   21.6350  -28.1090 C   0  0  0  0  0  0  0  0  0  0  0  0
   -3.9116   22.6364  -29.5995 H   0  0  0  0  0  0  0  0  0  0  0  0
   -5.2856   23.2871  -30.5931 H   0  0  0  0  0  0  0  0  0  0  0  0
   -8.6159   22.3301  -31.9800 H   0  0  0  0  0  0  0  0  0  0  0  0
  -10.5374   20.7457  -32.1800 H   0  0  0  0  0  0  0  0  0  0  0  0
  -10.1215   18.3003  -32.4784 H   0  0  0  0  0  0  0  0  0  0  0  0
   -7.7824   17.4312  -32.5839 H   0  0  0  0  0  0  0  0  0  0  0  0
   -2.5254   19.8174  -31.5231 H   0  0  0  0  0  0  0  0  0  0  0  0
   -3.0968   18.2963  -32.3035 H   0  0  0  0  0  0  0  0  0  0  0  0
   -3.0192   19.3459  -34.5108 H   0  0  0  0  0  0  0  0  0  0  0  0
   -2.5735   20.9318  -33.7606 H   0  0  0  0  0  0  0  0  0  0  0  0
   -0.6592   19.1416  -32.7610 H   0  0  0  0  0  0  0  0  0  0  0  0
   -0.8734   18.6511  -34.4853 H   0  0  0  0  0  0  0  0  0  0  0  0
   -0.0759   20.0665  -36.2278 H   0  0  0  0  0  0  0  0  0  0  0  0
   -1.4655   21.1272  -35.7973 H   0  0  0  0  0  0  0  0  0  0  0  0
    0.9732   21.9459  -36.9516 H   0  0  0  0  0  0  0  0  0  0  0  0
   -0.2806   23.0048  -36.1664 H   0  0  0  0  0  0  0  0  0  0  0  0
    2.5866   20.9921  -35.5319 H   0  0  0  0  0  0  0  0  0  0  0  0
    2.8977   21.7734  -33.9327 H   0  0  0  0  0  0  0  0  0  0  0  0
    1.5116   19.3824  -34.3270 H   0  0  0  0  0  0  0  0  0  0  0  0
    1.4252   20.4347  -32.8582 H   0  0  0  0  0  0  0  0  0  0  0  0
   -1.1903   24.6486  -27.9080 H   0  0  0  0  0  0  0  0  0  0  0  0
   -2.8669   24.0562  -27.6528 H   0  0  0  0  0  0  0  0  0  0  0  0
   -0.5295   23.4752  -30.5661 H   0  0  0  0  0  0  0  0  0  0  0  0
    0.1294   21.1834  -31.3096 H   0  0  0  0  0  0  0  0  0  0  0  0
   -0.6130   19.1825  -30.0100 H   0  0  0  0  0  0  0  0  0  0  0  0
   -2.0199   19.4713  -27.9646 H   0  0  0  0  0  0  0  0  0  0  0  0
   -2.6770   21.7579  -27.2108 H   0  0  0  0  0  0  0  0  0  0  0  0
  1  2  2  0
  2  3  1  0
  3  4  1  0
  4  5  1  0
  5  6  2  0
  6  7  1  0
  7  8  2  0
  8  9  1  0
  9 10  2  0
 10 11  1  0
 11 12  2  0
 12 13  1  0
 13 14  2  0
 13 15  1  0
 15 16  1  0
 16 17  1  0
 17 18  1  0
 18 19  1  0
 19 20  1  0
 20 21  1  0
 21 22  1  0
 22 23  1  0
 23 24  1  0
  2 25  1  0
 25 26  1  0
 26 27  1  0
 27 28  2  0
 28 29  1  0
 29 30  2  0
 30 31  1  0
 31 32  2  0
 15  5  1  0
 24 19  1  0
 32 27  1  0
 12  7  1  0
  3 33  1  0
  3 34  1  0
  8 35  1  0
  9 36  1  0
 10 37  1  0
 11 38  1  0
 16 39  1  0
 16 40  1  0
 17 41  1  0
 17 42  1  0
 18 43  1  0
 18 44  1  0
 20 45  1  0
 20 46  1  0
 21 47  1  0
 21 48  1  0
 23 49  1  0
 23 50  1  0
 24 51  1  0
 24 52  1  0
 26 53  1  0
 26 54  1  0
 28 55  1  0
 29 56  1  0
 30 57  1  0
 31 58  1  0
 32 59  1  0
M  CHG  1  25  -1
M  END
>  <UniqueID>  (20) 
20

>  <SMILES>  (20) 
O=C(CSc1nc2ccccc2c(=O)n1CCCN1CCOCC1)[N-]Cc1ccccc1

>  <Energy>  (20) 
70.24901752800848

>  <Genealogy>  (20) 
O=C(CSc1nc2ccccc2c(=O)n1CCCN1CCOCC1)[N-]Cc1ccccc1 (protonated)
O=C(CSc1nc2ccccc2c(=O)n1CCCN1CCOCC1)[N-]Cc1ccccc1 (3D coordinates assigned)
O=C(CSc1nc2ccccc2c(=O)n1CCCN1CCOCC1)[N-]Cc1ccccc1 (nonaromatic ring conformer: 70.24901752800848 kcal/mol)

>  <smiles>  (20) 
O=C(CSc1nc2ccccc2c(=O)n1CCCN1CCOCC1)NCc1ccccc1

>  <score_type>  (20) 
oracle

>  <origin>  (20) 
adg

>  <m_score__min__energy>  (20) 
-11.609999999999999

>  <m_primary>  (20) 
energy

$$$$
20:0
     RDKit          3D

 47 50  0  0  0  0  0  0  0  0999 V2000
    0.3960   26.6310  -24.1550 C   0  0  0  0  0  0  0  0  0  0  0  0
   -0.2000   26.1770  -25.4580 C   0  0  0  0  0  0  0  0  0  0  0  0
    0.5230   26.2270  -26.6330 C   0  0  0  0  0  0  0  0  0  0  0  0
    0.0050   25.8260  -27.8190 N   0  0  0  0  0  0  0  0  0  0  0  0
   -1.2580   25.3590  -27.8700 C   0  0  0  0  0  0  0  0  0  0  0  0
   -2.0030   24.9020  -28.8680 N   0  0  0  0  0  0  0  0  0  0  0  0
   -3.2280   24.5240  -28.4590 C   0  0  0  0  0  0  0  0  0  0  0  0
   -4.2770   23.9640  -29.3000 C   0  0  0  0  0  0  0  0  0  0  0  0
   -5.4800   24.6300  -29.3520 C   0  0  0  0  0  0  0  0  0  0  0  0
   -6.4960   24.1990  -30.1660 C   0  0  0  0  0  0  0  0  0  0  0  0
   -6.3580   23.0630  -30.9850 C   0  0  0  0  0  0  0  0  0  0  0  0
   -7.4830   22.7710  -31.8420 C   0  0  0  0  0  0  0  0  0  0  0  0
   -7.7340   23.6080  -32.7590 O   0  0  0  0  0  0  0  0  0  0  0  0
   -8.3050   21.5910  -31.7030 N   0  0  0  0  0  0  0  0  0  0  0  0
   -9.7460   21.6900  -31.9760 C   0  0  0  0  0  0  0  0  0  0  0  0
   -7.8070   20.3420  -31.2210 C   0  0  0  0  0  0  0  0  0  0  0  0
   -7.2870   19.4540  -32.2420 C   0  0  0  0  0  0  0  0  0  0  0  0
   -7.4740   18.0680  -32.2720 C   0  0  0  0  0  0  0  0  0  0  0  0
   -6.8950   17.2660  -33.2360 C   0  0  0  0  0  0  0  0  0  0  0  0
   -6.0990   17.8260  -34.2150 C   0  0  0  0  0  0  0  0  0  0  0  0
   -5.8950   19.1770  -34.2160 C   0  0  0  0  0  0  0  0  0  0  0  0
   -6.4790   19.9720  -33.2480 C   0  0  0  0  0  0  0  0  0  0  0  0
   -5.1680   22.4170  -30.9210 C   0  0  0  0  0  0  0  0  0  0  0  0
   -4.1290   22.8540  -30.0890 C   0  0  0  0  0  0  0  0  0  0  0  0
   -3.2310   24.7690  -27.1290 N   0  0  0  0  0  0  0  0  0  0  0  0
   -2.0480   25.2770  -26.7360 C   0  0  0  0  0  0  0  0  0  0  0  0
   -1.4860   25.6940  -25.5520 C   0  0  0  0  0  0  0  0  0  0  0  0
   -0.1738   26.1970  -23.3202 H   0  0  0  0  0  0  0  0  0  0  0  0
    1.4432   26.2997  -24.0956 H   0  0  0  0  0  0  0  0  0  0  0  0
    0.3548   27.7286  -24.0956 H   0  0  0  0  0  0  0  0  0  0  0  0
    1.5554   26.6055  -26.6054 H   0  0  0  0  0  0  0  0  0  0  0  0
   -1.6400   24.8550  -29.8600 H   0  0  0  0  0  0  0  0  0  0  0  0
   -5.6294   25.5244  -28.7293 H   0  0  0  0  0  0  0  0  0  0  0  0
   -7.4443   24.7562  -30.1791 H   0  0  0  0  0  0  0  0  0  0  0  0
  -10.2976   21.7279  -31.0250 H   0  0  0  0  0  0  0  0  0  0  0  0
   -9.9478   22.6041  -32.5536 H   0  0  0  0  0  0  0  0  0  0  0  0
  -10.0709   20.8121  -32.5536 H   0  0  0  0  0  0  0  0  0  0  0  0
   -6.9976   20.5506  -30.5059 H   0  0  0  0  0  0  0  0  0  0  0  0
   -8.6654   19.8224  -30.7702 H   0  0  0  0  0  0  0  0  0  0  0  0
   -8.1041   17.6006  -31.5010 H   0  0  0  0  0  0  0  0  0  0  0  0
   -7.0684   16.1798  -33.2236 H   0  0  0  0  0  0  0  0  0  0  0  0
   -5.6346   17.1923  -34.9849 H   0  0  0  0  0  0  0  0  0  0  0  0
   -5.2627   19.6343  -34.9913 H   0  0  0  0  0  0  0  0  0  0  0  0
   -6.2975   21.0566  -33.2745 H   0  0  0  0  0  0  0  0  0  0  0  0
   -5.0134   21.5220  -31.5415 H   0  0  0  0  0  0  0  0  0  0  0  0
   -3.1803   22.2976  -30.0690 H   0  0  0  0  0  0  0  0  0  0  0  0
   -2.0930   25.6390  -24.6363 H   0  0  0  0  0  0  0  0  0  0  0  0
  1  2  1  0
  2  3  2  0
  3  4  1  0
  4  5  2  0
  5  6  1  0
  6  7  1  0
  7  8  1  0
  8  9  2  0
  9 10  1  0
 10 11  2  0
 11 12  1  0
 12 13  2  0
 12 14  1  0
 14 15  1  0
 14 16  1  0
 16 17  1  0
 17 18  2  0
 18 19  1  0
 19 20  2  0
 20 21  1  0
 21 22  2  0
 11 23  1  0
 23 24  2  0
  7 25  2  0
 25 26  1  0
 26 27  2  0
 27  2  1  0
 26  5  1  0
 24  8  1  0
 22 17  1  0
  1 28  1  0
  1 29  1  0
  1 30  1  0
  3 31  1  0
  6 32  1  0
  9 33  1  0
 10 34  1  0
 15 35  1  0
 15 36  1  0
 15 37  1  0
 16 38  1  0
 16 39  1  0
 18 40  1  0
 19 41  1  0
 20 42  1  0
 21 43  1  0
 22 44  1  0
 23 45  1  0
 24 46  1  0
 27 47  1  0
M  END
>  <smiles>  (21) 
Cc1cnc2[nH]c(-c3ccc(C(=O)N(C)Cc4ccccc4)cc3)nc2c1

>  <score_type>  (21) 
oracle

>  <origin>  (21) 
adg

>  <m_score__min__energy>  (21) 
-9.7300000000000004

>  <m_primary>  (21) 
energy

$$$$
21:0
     RDKit          3D

 51 54  0  0  0  0  0  0  0  0999 V2000
   -0.1440   20.0710  -29.9420 C   0  0  0  0  0  0  0  0  0  0  0  0
   -0.5500   20.9240  -31.0090 O   0  0  0  0  0  0  0  0  0  0  0  0
   -1.8850   21.1480  -31.3780 C   0  0  0  0  0  0  0  0  0  0  0  0
   -2.9630   20.8840  -30.5150 C   0  0  0  0  0  0  0  0  0  0  0  0
   -4.2750   21.1240  -30.9340 C   0  0  0  0  0  0  0  0  0  0  0  0
   -4.5400   21.6260  -32.2190 C   0  0  0  0  0  0  0  0  0  0  0  0
   -5.9720   21.8940  -32.6470 C   0  0  2  0  0  0  0  0  0  0  0  0
   -6.5590   23.1420  -31.9390 C   0  0  0  0  0  0  0  0  0  0  0  0
   -6.3120   23.1660  -30.4870 N   0  0  0  0  0  0  0  0  0  0  0  0
   -5.3280   24.5220  -29.9990 S   0  0  0  0  0  0  0  0  0  0  0  0
   -4.8330   25.2870  -31.1980 O   0  0  0  0  0  0  0  0  0  0  0  0
   -6.1270   25.4490  -29.1240 O   0  0  0  0  0  0  0  0  0  0  0  0
   -3.9470   23.9120  -29.0970 C   0  0  0  0  0  0  0  0  0  0  0  0
   -4.1070   22.8880  -28.1510 C   0  0  0  0  0  0  0  0  0  0  0  0
   -3.0010   22.4060  -27.4450 C   0  0  0  0  0  0  0  0  0  0  0  0
   -1.7290   22.9390  -27.6810 C   0  0  0  0  0  0  0  0  0  0  0  0
   -0.3420   22.3320  -26.7940 Cl  0  0  0  0  0  0  0  0  0  0  0  0
   -1.5630   23.9550  -28.6290 C   0  0  0  0  0  0  0  0  0  0  0  0
   -2.6690   24.4380  -29.3370 C   0  0  0  0  0  0  0  0  0  0  0  0
   -6.8130   20.6550  -32.4440 C   0  0  0  0  0  0  0  0  0  0  0  0
   -7.9790   20.5370  -31.6870 C   0  0  0  0  0  0  0  0  0  0  0  0
   -8.4300   19.2610  -31.7100 N   0  0  0  0  0  0  0  0  0  0  0  0
   -7.5590   18.5700  -32.4620 C   0  0  0  0  0  0  0  0  0  0  0  0
   -7.6040   17.2110  -32.7710 C   0  0  0  0  0  0  0  0  0  0  0  0
   -6.5770   16.6860  -33.5750 C   0  0  0  0  0  0  0  0  0  0  0  0
   -5.5350   17.5190  -34.0410 C   0  0  0  0  0  0  0  0  0  0  0  0
   -5.5160   18.8870  -33.7140 C   0  0  0  0  0  0  0  0  0  0  0  0
   -6.5550   19.3830  -32.9230 C   0  0  0  0  0  0  0  0  0  0  0  0
   -3.4550   21.8980  -33.0730 C   0  0  0  0  0  0  0  0  0  0  0  0
   -2.1430   21.6580  -32.6540 C   0  0  0  0  0  0  0  0  0  0  0  0
   -0.3733   20.5527  -28.9800 H   0  0  0  0  0  0  0  0  0  0  0  0
   -0.6837   19.1150  -30.0112 H   0  0  0  0  0  0  0  0  0  0  0  0
    0.9383   19.8870  -30.0112 H   0  0  0  0  0  0  0  0  0  0  0  0
   -2.7735   20.4873  -29.5067 H   0  0  0  0  0  0  0  0  0  0  0  0
   -5.1103   20.9171  -30.2488 H   0  0  0  0  0  0  0  0  0  0  0  0
   -5.9817   22.1296  -33.7214 H   0  0  0  0  0  0  0  0  0  0  0  0
   -6.1054   24.0399  -32.3840 H   0  0  0  0  0  0  0  0  0  0  0  0
   -7.6494   23.1106  -32.0806 H   0  0  0  0  0  0  0  0  0  0  0  0
   -7.2130   23.2020  -29.9580 H   0  0  0  0  0  0  0  0  0  0  0  0
   -5.1047   22.4638  -27.9646 H   0  0  0  0  0  0  0  0  0  0  0  0
   -3.1310   21.6055  -26.7019 H   0  0  0  0  0  0  0  0  0  0  0  0
   -0.5634   24.3737  -28.8175 H   0  0  0  0  0  0  0  0  0  0  0  0
   -2.5357   25.2335  -30.0849 H   0  0  0  0  0  0  0  0  0  0  0  0
   -8.4634   21.3642  -31.1476 H   0  0  0  0  0  0  0  0  0  0  0  0
   -9.2870   18.8950  -31.2380 H   0  0  0  0  0  0  0  0  0  0  0  0
   -8.4167   16.5704  -32.3978 H   0  0  0  0  0  0  0  0  0  0  0  0
   -6.5847   15.6192  -33.8432 H   0  0  0  0  0  0  0  0  0  0  0  0
   -4.7334   17.0949  -34.6636 H   0  0  0  0  0  0  0  0  0  0  0  0
   -4.7092   19.5448  -34.0696 H   0  0  0  0  0  0  0  0  0  0  0  0
   -3.6408   22.3029  -34.0788 H   0  0  0  0  0  0  0  0  0  0  0  0
   -1.3058   21.8724  -33.3346 H   0  0  0  0  0  0  0  0  0  0  0  0
  1  2  1  0
  2  3  1  0
  3  4  2  0
  4  5  1  0
  5  6  2  0
  6  7  1  0
  7  8  1  0
  8  9  1  0
  9 10  1  0
 10 11  2  0
 10 12  2  0
 10 13  1  0
 13 14  2  0
 14 15  1  0
 15 16  2  0
 16 17  1  0
 16 18  1  0
 18 19  2  0
  7 20  1  0
 20 21  2  0
 21 22  1  0
 22 23  1  0
 23 24  2  0
 24 25  1  0
 25 26  2  0
 26 27  1  0
 27 28  2  0
  6 29  1  0
 29 30  2  0
 30  3  1  0
 19 13  1  0
 28 20  1  0
 28 23  1  0
  1 31  1  0
  1 32  1  0
  1 33  1  0
  4 34  1  0
  5 35  1  0
  7 36  1  6
  8 37  1  0
  8 38  1  0
  9 39  1  0
 14 40  1  0
 15 41  1  0
 18 42  1  0
 19 43  1  0
 21 44  1  0
 22 45  1  0
 24 46  1  0
 25 47  1  0
 26 48  1  0
 27 49  1  0
 29 50  1  0
 30 51  1  0
M  END
>  <UniqueID>  (22) 
21

>  <SMILES>  (22) 
COc1ccc([C@H](CNS(=O)(=O)c2ccc(Cl)cc2)c2c[nH]c3ccccc23)cc1

>  <Energy>  (22) 
87.57104900462807

>  <Genealogy>  (22) 
COc1ccc([C@H](CNS(=O)(=O)c2ccc(Cl)cc2)c2c[nH]c3ccccc23)cc1 (chirality)
COc1ccc([C@H](CNS(=O)(=O)c2ccc(Cl)cc2)c2c[nH]c3ccccc23)cc1 (3D coordinates assigned)
COc1ccc([C@H](CNS(=O)(=O)c2ccc(Cl)cc2)c2c[nH]c3ccccc23)cc1 (optimized conformer: 87.57104900462807 kcal/mol)

>  <smiles>  (22) 
COc1ccc(C(CNS(=O)(=O)c2ccc(Cl)cc2)c2c[nH]c3ccccc23)cc1

>  <score_type>  (22) 
oracle

>  <origin>  (22) 
adg

>  <m_score__min__energy>  (22) 
-11.210000000000001

>  <m_primary>  (22) 
energy

$$$$
22:0
     RDKit          3D

 41 44  0  0  0  0  0  0  0  0999 V2000
   -3.5110   16.3160  -35.4170 C   0  0  0  0  0  0  0  0  0  0  0  0
   -4.6580   16.4400  -34.5100 N   0  0  0  0  0  0  0  0  0  0  0  0
   -5.4560   15.2440  -34.2090 C   0  0  0  0  0  0  0  0  0  0  0  0
   -4.9980   17.7220  -33.9190 C   0  0  0  0  0  0  0  0  0  0  0  0
   -3.9980   18.5430  -33.3340 C   0  0  0  0  0  0  0  0  0  0  0  0
   -4.3360   19.7800  -32.7670 C   0  0  0  0  0  0  0  0  0  0  0  0
   -5.6350   20.1790  -32.8080 N   0  0  0  0  0  0  0  0  0  0  0  0
   -6.2470   21.2820  -32.3260 C   0  0  0  0  0  0  0  0  0  0  0  0
   -5.6060   22.4430  -31.6790 C   0  0  0  0  0  0  0  0  0  0  0  0
   -5.7320   23.7810  -32.0040 C   0  0  0  0  0  0  0  0  0  0  0  0
   -5.0510   24.5180  -31.1070 N   0  0  0  0  0  0  0  0  0  0  0  0
   -4.5010   23.6930  -30.2260 N   0  0  0  0  0  0  0  0  0  0  0  0
   -3.7060   24.1380  -29.1070 C   0  0  0  0  0  0  0  0  0  0  0  0
   -2.3660   24.5220  -29.3030 C   0  0  0  0  0  0  0  0  0  0  0  0
   -1.5850   24.9540  -28.2270 C   0  0  0  0  0  0  0  0  0  0  0  0
   -2.1280   25.0040  -26.9430 C   0  0  0  0  0  0  0  0  0  0  0  0
   -3.4540   24.6210  -26.7310 C   0  0  0  0  0  0  0  0  0  0  0  0
   -4.2410   24.1890  -27.8030 C   0  0  0  0  0  0  0  0  0  0  0  0
   -4.8330   22.4210  -30.5380 C   0  0  0  0  0  0  0  0  0  0  0  0
   -7.6090   21.1460  -32.5590 C   0  0  0  0  0  0  0  0  0  0  0  0
   -7.8310   19.9750  -33.1940 N   0  0  0  0  0  0  0  0  0  0  0  0
   -6.6120   19.4170  -33.3270 C   0  0  0  0  0  0  0  0  0  0  0  0
   -6.3380   18.1780  -33.9030 C   0  0  0  0  0  0  0  0  0  0  0  0
   -2.5872   16.2161  -34.8283 H   0  0  0  0  0  0  0  0  0  0  0  0
   -3.6396   15.4265  -36.0513 H   0  0  0  0  0  0  0  0  0  0  0  0
   -3.4465   17.2124  -36.0513 H   0  0  0  0  0  0  0  0  0  0  0  0
   -5.5372   15.1222  -33.1188 H   0  0  0  0  0  0  0  0  0  0  0  0
   -6.4613   15.3556  -34.6414 H   0  0  0  0  0  0  0  0  0  0  0  0
   -4.9671   14.3586  -34.6414 H   0  0  0  0  0  0  0  0  0  0  0  0
   -2.9509   18.2062  -33.3256 H   0  0  0  0  0  0  0  0  0  0  0  0
   -3.5676   20.4133  -32.2996 H   0  0  0  0  0  0  0  0  0  0  0  0
   -6.2982   24.1794  -32.8588 H   0  0  0  0  0  0  0  0  0  0  0  0
   -1.9295   24.4818  -30.3119 H   0  0  0  0  0  0  0  0  0  0  0  0
   -0.5401   25.2551  -28.3932 H   0  0  0  0  0  0  0  0  0  0  0  0
   -1.5119   25.3450  -26.0979 H   0  0  0  0  0  0  0  0  0  0  0  0
   -3.8806   24.6593  -25.7178 H   0  0  0  0  0  0  0  0  0  0  0  0
   -5.2842   23.8870  -27.6282 H   0  0  0  0  0  0  0  0  0  0  0  0
   -4.5371   21.5219  -29.9775 H   0  0  0  0  0  0  0  0  0  0  0  0
   -8.3821   21.8742  -32.2727 H   0  0  0  0  0  0  0  0  0  0  0  0
   -8.7490   19.5880  -33.5060 H   0  0  0  0  0  0  0  0  0  0  0  0
   -7.1448   17.5681  -34.3355 H   0  0  0  0  0  0  0  0  0  0  0  0
  1  2  1  0
  2  3  1  0
  2  4  1  0
  4  5  1  0
  5  6  2  0
  6  7  1  0
  7  8  1  0
  8  9  1  0
  9 10  1  0
 10 11  2  0
 11 12  1  0
 12 13  1  0
 13 14  2  0
 14 15  1  0
 15 16  2  0
 16 17  1  0
 17 18  2  0
 12 19  1  0
  8 20  2  0
 20 21  1  0
 21 22  2  0
 22 23  1  0
 23  4  2  0
 22  7  1  0
 19  9  2  0
 18 13  1  0
  1 24  1  0
  1 25  1  0
  1 26  1  0
  3 27  1  0
  3 28  1  0
  3 29  1  0
  5 30  1  0
  6 31  1  0
 10 32  1  0
 14 33  1  0
 15 34  1  0
 16 35  1  0
 17 36  1  0
 18 37  1  0
 19 38  1  0
 20 39  1  0
 21 40  1  0
 23 41  1  0
M  CHG  1  21   1
M  END
>  <UniqueID>  (23) 
22

>  <SMILES>  (23) 
CN(C)c1ccn2c(-c3cnn(-c4ccccc4)c3)c[nH+]c2c1

>  <Energy>  (23) 
118.85912390496269

>  <Genealogy>  (23) 
CN(C)c1ccn2c(-c3cnn(-c4ccccc4)c3)c[nH+]c2c1 (protonated)
CN(C)c1ccn2c(-c3cnn(-c4ccccc4)c3)c[nH+]c2c1 (3D coordinates assigned)
CN(C)c1ccn2c(-c3cnn(-c4ccccc4)c3)c[nH+]c2c1 (optimized conformer: 118.85912390496269 kcal/mol)

>  <smiles>  (23) 
CN(C)c1ccn2c(-c3cnn(-c4ccccc4)c3)cnc2c1

>  <score_type>  (23) 
oracle

>  <origin>  (23) 
adg

>  <m_score__min__energy>  (23) 
-7.2199999999999998

>  <m_primary>  (23) 
energy

$$$$
23:0
     RDKit          3D

 82 87  0  0  0  0  0  0  0  0999 V2000
   -3.5545   23.6206  -29.1576 H   0  0  0  0  0  0  0  0  0  0  0  0
   -4.1040   22.9980  -29.8790 C   0  0  0  0  0  0  0  0  0  0  0  0
   -3.6070   21.7420  -30.2400 C   0  0  0  0  0  0  0  0  0  0  0  0
   -2.6709   21.3733  -29.7953 H   0  0  0  0  0  0  0  0  0  0  0  0
   -4.2970   20.9550  -31.1640 C   0  0  0  0  0  0  0  0  0  0  0  0
   -3.9007   19.9684  -31.4462 H   0  0  0  0  0  0  0  0  0  0  0  0
   -5.4940   21.4160  -31.7350 C   0  0  0  0  0  0  0  0  0  0  0  0
   -6.1710   20.6050  -32.7110 N   0  0  0  0  0  0  0  0  0  0  0  0
   -7.5170   20.1000  -32.4390 C   0  0  0  0  0  0  0  0  0  0  0  0
   -8.1948   20.4004  -33.2516 H   0  0  0  0  0  0  0  0  0  0  0  0
   -7.8850   20.5159  -31.4895 H   0  0  0  0  0  0  0  0  0  0  0  0
   -7.4680   18.5740  -32.3500 C   0  0  0  0  0  0  0  0  0  0  0  0
   -8.4980   18.1917  -32.2966 H   0  0  0  0  0  0  0  0  0  0  0  0
   -6.8891   18.3128  -31.4519 H   0  0  0  0  0  0  0  0  0  0  0  0
   -6.7910   17.9520  -33.5150 N   0  0  0  0  0  0  0  0  0  0  0  0
   -6.0360   16.7230  -33.1970 C   0  0  0  0  0  0  0  0  0  0  0  0
   -5.7920   16.2095  -34.1387 H   0  0  0  0  0  0  0  0  0  0  0  0
   -6.6730   16.1091  -32.5434 H   0  0  0  0  0  0  0  0  0  0  0  0
   -4.7190   16.9950  -32.4300 C   0  0  0  0  0  0  0  0  0  0  0  0
   -4.6390   16.2698  -31.6068 H   0  0  0  0  0  0  0  0  0  0  0  0
   -4.7630   18.0327  -32.0678 H   0  0  0  0  0  0  0  0  0  0  0  0
   -3.5090   16.8790  -33.2770 N   0  0  0  0  0  0  0  0  0  0  0  0
   -3.7870   16.7980  -34.7290 C   0  0  0  0  0  0  0  0  0  0  0  0
   -3.1902   17.5551  -35.2587 H   0  0  0  0  0  0  0  0  0  0  0  0
   -4.8569   16.9817  -34.9066 H   0  0  0  0  0  0  0  0  0  0  0  0
   -3.4190   15.4090  -35.2450 C   0  0  0  0  0  0  0  0  0  0  0  0
   -3.2409   14.7366  -34.3929 H   0  0  0  0  0  0  0  0  0  0  0  0
   -4.2437   15.0148  -35.8570 H   0  0  0  0  0  0  0  0  0  0  0  0
   -2.5073   15.4748  -35.8570 H   0  0  0  0  0  0  0  0  0  0  0  0
   -2.3510   17.7000  -32.8310 C   0  0  2  0  0  0  0  0  0  0  0  0
   -2.4424   17.8403  -31.7438 H   0  0  0  0  0  0  0  0  0  0  0  0
   -2.3700   19.1680  -33.3600 C   0  0  0  0  0  0  0  0  0  0  0  0
   -2.4315   19.8389  -32.4904 H   0  0  0  0  0  0  0  0  0  0  0  0
   -3.2354   19.2297  -34.0362 H   0  0  0  0  0  0  0  0  0  0  0  0
   -1.1740   19.5880  -34.1860 C   0  0  0  0  0  0  0  0  0  0  0  0
   -0.2410   18.6460  -34.6990 C   0  0  0  0  0  0  0  0  0  0  0  0
    0.8680   19.0900  -35.4480 C   0  0  0  0  0  0  0  0  0  0  0  0
    1.5847   18.3701  -35.8701 H   0  0  0  0  0  0  0  0  0  0  0  0
    1.0370   20.4550  -35.6420 C   0  0  0  0  0  0  0  0  0  0  0  0
    2.3050   21.2550  -36.3950 S   0  0  0  0  0  0  0  0  0  0  0  0
    1.6350   22.7770  -36.0380 C   0  0  0  0  0  0  0  0  0  0  0  0
    2.1770   23.9260  -36.3200 N   0  0  0  0  0  0  0  0  0  0  0  0
    1.4690   25.0610  -36.9100 C   0  0  0  0  0  0  0  0  0  0  0  0
    2.1938   25.7290  -37.3983 H   0  0  0  0  0  0  0  0  0  0  0  0
    0.7460   24.6906  -37.6517 H   0  0  0  0  0  0  0  0  0  0  0  0
    0.7140   25.8410  -35.8090 C   0  0  0  0  0  0  0  0  0  0  0  0
    0.3566   25.1180  -35.0610 H   0  0  0  0  0  0  0  0  0  0  0  0
    1.4287   26.5703  -35.3999 H   0  0  0  0  0  0  0  0  0  0  0  0
   -0.4470   26.6190  -36.2880 N   0  0  0  0  0  0  0  0  0  0  0  0
   -0.3350   27.0610  -37.6860 C   0  0  0  0  0  0  0  0  0  0  0  0
    0.4373   27.8404  -37.7638 H   0  0  0  0  0  0  0  0  0  0  0  0
   -0.0573   26.2065  -38.3205 H   0  0  0  0  0  0  0  0  0  0  0  0
   -1.6930   27.6320  -38.1540 C   0  0  0  0  0  0  0  0  0  0  0  0
   -1.5091   28.5604  -38.7146 H   0  0  0  0  0  0  0  0  0  0  0  0
   -2.1759   26.8659  -38.7784 H   0  0  0  0  0  0  0  0  0  0  0  0
   -2.5720   27.9200  -37.0760 O   0  0  0  0  0  0  0  0  0  0  0  0
   -1.8880   28.6280  -36.0620 C   0  0  0  0  0  0  0  0  0  0  0  0
   -1.3916   29.5040  -36.5049 H   0  0  0  0  0  0  0  0  0  0  0  0
   -2.6150   28.9465  -35.3004 H   0  0  0  0  0  0  0  0  0  0  0  0
   -0.8280   27.7300  -35.3920 C   0  0  0  0  0  0  0  0  0  0  0  0
    0.0637   28.3321  -35.1633 H   0  0  0  0  0  0  0  0  0  0  0  0
   -1.2513   27.3109  -34.4673 H   0  0  0  0  0  0  0  0  0  0  0  0
    0.4620   22.6820  -35.3690 N   0  0  0  0  0  0  0  0  0  0  0  0
    0.1360   21.3840  -35.1490 C   0  0  0  0  0  0  0  0  0  0  0  0
   -0.9860   20.9650  -34.4380 C   0  0  0  0  0  0  0  0  0  0  0  0
   -1.7195   21.7003  -34.0758 H   0  0  0  0  0  0  0  0  0  0  0  0
   -0.4300   17.1790  -34.4540 C   0  0  0  0  0  0  0  0  0  0  0  0
    0.5442   16.6725  -34.5200 H   0  0  0  0  0  0  0  0  0  0  0  0
   -1.1183   16.7774  -35.2123 H   0  0  0  0  0  0  0  0  0  0  0  0
   -1.0270   16.9410  -33.0700 C   0  0  0  0  0  0  0  0  0  0  0  0
   -0.2970   17.2682  -32.3150 H   0  0  0  0  0  0  0  0  0  0  0  0
   -1.2519   15.8668  -32.9951 H   0  0  0  0  0  0  0  0  0  0  0  0
   -6.1400   18.8620  -34.4890 C   0  0  0  0  0  0  0  0  0  0  0  0
   -6.9130   19.2706  -35.1565 H   0  0  0  0  0  0  0  0  0  0  0  0
   -5.3906   18.2723  -35.0374 H   0  0  0  0  0  0  0  0  0  0  0  0
   -5.3990   20.0370  -33.8200 C   0  0  0  0  0  0  0  0  0  0  0  0
   -5.2238   20.8216  -34.5708 H   0  0  0  0  0  0  0  0  0  0  0  0
   -4.4486   19.6574  -33.4167 H   0  0  0  0  0  0  0  0  0  0  0  0
   -5.9990   22.6780  -31.3610 C   0  0  0  0  0  0  0  0  0  0  0  0
   -7.5170   23.2900  -32.0060 Cl  0  0  0  0  0  0  0  0  0  0  0  0
   -5.2990   23.4620  -30.4350 C   0  0  0  0  0  0  0  0  0  0  0  0
   -5.6918   24.4474  -30.1442 H   0  0  0  0  0  0  0  0  0  0  0  0
  1  2  1  0
  2  3  2  0
  3  4  1  0
  3  5  1  0
  5  6  1  0
  5  7  2  0
  7  8  1  0
  8  9  1  0
  9 10  1  0
  9 11  1  0
  9 12  1  0
 12 13  1  0
 12 14  1  0
 12 15  1  0
 15 16  1  0
 16 17  1  0
 16 18  1  0
 16 19  1  0
 19 20  1  0
 19 21  1  0
 19 22  1  0
 22 23  1  0
 23 24  1  0
 23 25  1  0
 23 26  1  0
 26 27  1  0
 26 28  1  0
 26 29  1  0
 22 30  1  0
 30 31  1  1
 30 32  1  0
 32 33  1  0
 32 34  1  0
 32 35  1  0
 35 36  2  0
 36 37  1  0
 37 38  1  0
 37 39  2  0
 39 40  1  0
 40 41  1  0
 41 42  2  0
 42 43  1  0
 43 44  1  0
 43 45  1  0
 43 46  1  0
 46 47  1  0
 46 48  1  0
 46 49  1  0
 49 50  1  0
 50 51  1  0
 50 52  1  0
 50 53  1  0
 53 54  1  0
 53 55  1  0
 53 56  1  0
 56 57  1  0
 57 58  1  0
 57 59  1  0
 57 60  1  0
 60 61  1  0
 60 62  1  0
 41 63  1  0
 63 64  1  0
 64 65  2  0
 65 66  1  0
 36 67  1  0
 67 68  1  0
 67 69  1  0
 67 70  1  0
 70 71  1  0
 70 72  1  0
 15 73  1  0
 73 74  1  0
 73 75  1  0
 73 76  1  0
 76 77  1  0
 76 78  1  0
  7 79  1  0
 79 80  1  0
 79 81  2  0
 81 82  1  0
 81  2  1  0
 76  8  1  0
 70 30  1  0
 65 35  1  0
 64 39  1  0
 60 49  1  0
M  CHG  1  63  -1
M  END
>  <UniqueID>  (24) 
23

>  <SMILES>  (24) 
CCN(CCN1CCN(c2ccccc2Cl)CC1)[C@H]1CCc2cc3s/c(=N\CCN4CCOCC4)[n-]c3cc2C1

>  <Energy>  (24) 
163.54549143064074

>  <Genealogy>  (24) 
CCN(CCN1CCN(c2ccccc2Cl)CC1)C1CCc2cc3sc(=NCCN4CCOCC4)[n-]c3cc2C1 (protonated)
CCN(CCN1CCN(c2ccccc2Cl)CC1)[C@H]1CCc2cc3sc(=NCCN4CCOCC4)[n-]c3cc2C1 (chirality)
CCN(CCN1CCN(c2ccccc2Cl)CC1)[C@H]1CCc2cc3s/c(=N\CCN4CCOCC4)[n-]c3cc2C1 (cis-trans isomerization)
CCN(CCN1CCN(c2ccccc2Cl)CC1)[C@H]1CCc2cc3s/c(=N\CCN4CCOCC4)[n-]c3cc2C1 (3D coordinates assigned)
CCN(CCN1CCN(c2ccccc2Cl)CC1)[C@H]1CCc2cc3s/c(=N\CCN4CCOCC4)[n-]c3cc2C1 (nonaromatic ring conformer: 163.54549143064074 kcal/mol)

>  <smiles>  (24) 
CCN(CCN1CCN(c2ccccc2Cl)CC1)C1CCc2cc3sc(=NCCN4CCOCC4)[nH]c3cc2C1

>  <score_type>  (24) 
oracle

>  <origin>  (24) 
adg

>  <m_score__min__energy>  (24) 
-11.890000000000001

>  <m_primary>  (24) 
energy

$$$$
24:0
     RDKit          3D

 35 37  0  0  0  0  0  0  0  0999 V2000
   -3.9250   17.4180  -32.8810 O   0  0  0  0  0  0  0  0  0  0  0  0
   -5.0580   16.9050  -33.0820 C   0  0  0  0  0  0  0  0  0  0  0  0
   -5.1760   15.4350  -33.1490 C   0  0  0  0  0  0  0  0  0  0  0  0
   -4.4440   14.5300  -32.3870 C   0  0  0  0  0  0  0  0  0  0  0  0
   -4.7220   13.1930  -32.6940 C   0  0  0  0  0  0  0  0  0  0  0  0
   -5.6620   13.0340  -33.7040 C   0  0  0  0  0  0  0  0  0  0  0  0
   -6.1450   14.5610  -34.2140 S   0  0  0  0  0  0  0  0  0  0  0  0
   -6.1990   17.7630  -33.2610 N   0  0  0  0  0  0  0  0  0  0  0  0
   -7.4880   17.4650  -32.6280 C   0  0  0  0  0  0  0  0  0  0  0  0
   -8.0280   18.7220  -31.9350 C   0  0  0  0  0  0  0  0  0  0  0  0
   -8.0190   19.8780  -32.8570 N   0  0  0  0  0  0  0  0  0  0  0  0
   -8.6250   21.0540  -32.2590 C   0  0  0  0  0  0  0  0  0  0  0  0
   -9.8780   21.1840  -32.3330 O   0  0  0  0  0  0  0  0  0  0  0  0
   -7.8700   22.1300  -31.5580 C   0  0  0  0  0  0  0  0  0  0  0  0
   -7.6300   22.3090  -30.1920 C   0  0  0  0  0  0  0  0  0  0  0  0
   -6.8710   23.4500  -29.9000 C   0  0  0  0  0  0  0  0  0  0  0  0
   -6.5030   24.1830  -31.0180 C   0  0  0  0  0  0  0  0  0  0  0  0
   -7.1250   23.4070  -32.3670 S   0  0  0  0  0  0  0  0  0  0  0  0
   -6.6730   20.1650  -33.4000 C   0  0  0  0  0  0  0  0  0  0  0  0
   -6.1100   18.9400  -34.1290 C   0  0  0  0  0  0  0  0  0  0  0  0
   -3.7182   14.8351  -31.6188 H   0  0  0  0  0  0  0  0  0  0  0  0
   -4.2405   12.3464  -32.1826 H   0  0  0  0  0  0  0  0  0  0  0  0
   -6.0270   12.0753  -34.1011 H   0  0  0  0  0  0  0  0  0  0  0  0
   -8.2039   17.1344  -33.3949 H   0  0  0  0  0  0  0  0  0  0  0  0
   -7.3512   16.6686  -31.8817 H   0  0  0  0  0  0  0  0  0  0  0  0
   -9.0596   18.5348  -31.6023 H   0  0  0  0  0  0  0  0  0  0  0  0
   -7.3828   18.9536  -31.0747 H   0  0  0  0  0  0  0  0  0  0  0  0
   -8.6200   19.6120  -33.6750 H   0  0  0  0  0  0  0  0  0  0  0  0
   -8.0019   21.6194  -29.4199 H   0  0  0  0  0  0  0  0  0  0  0  0
   -6.5921   23.7384  -28.8758 H   0  0  0  0  0  0  0  0  0  0  0  0
   -5.9088   25.1087  -31.0193 H   0  0  0  0  0  0  0  0  0  0  0  0
   -6.7403   21.0059  -34.1060 H   0  0  0  0  0  0  0  0  0  0  0  0
   -6.0022   20.4193  -32.5661 H   0  0  0  0  0  0  0  0  0  0  0  0
   -6.6902   18.7621  -35.0464 H   0  0  0  0  0  0  0  0  0  0  0  0
   -5.0564   19.1228  -34.3870 H   0  0  0  0  0  0  0  0  0  0  0  0
  1  2  2  0
  2  3  1  0
  3  4  2  0
  4  5  1  0
  5  6  2  0
  6  7  1  0
  2  8  1  0
  8  9  1  0
  9 10  1  0
 10 11  1  0
 11 12  1  0
 12 13  2  0
 12 14  1  0
 14 15  2  0
 15 16  1  0
 16 17  2  0
 17 18  1  0
 11 19  1  0
 19 20  1  0
  7  3  1  0
 20  8  1  0
 18 14  1  0
  4 21  1  0
  5 22  1  0
  6 23  1  0
  9 24  1  0
  9 25  1  0
 10 26  1  0
 10 27  1  0
 11 28  1  0
 15 29  1  0
 16 30  1  0
 17 31  1  0
 19 32  1  0
 19 33  1  0
 20 34  1  0
 20 35  1  0
M  CHG  1  11   1
M  END
>  <UniqueID>  (25) 
24

>  <SMILES>  (25) 
O=C(c1cccs1)N1CC[NH+](C(=O)c2cccs2)CC1

>  <Energy>  (25) 
97.82903001895225

>  <Genealogy>  (25) 
O=C(c1cccs1)N1CC[NH+](C(=O)c2cccs2)CC1 (protonated)
O=C(c1cccs1)N1CC[NH+](C(=O)c2cccs2)CC1 (3D coordinates assigned)
O=C(c1cccs1)N1CC[NH+](C(=O)c2cccs2)CC1 (nonaromatic ring conformer: 97.82903001895225 kcal/mol)

>  <smiles>  (25) 
O=C(c1cccs1)N1CCN(C(=O)c2cccs2)CC1

>  <score_type>  (25) 
oracle

>  <origin>  (25) 
adg

>  <m_score__min__energy>  (25) 
-6.5300000000000002

>  <m_primary>  (25) 
energy

$$$$
25:0
     RDKit          3D

 60 63  0  0  0  0  0  0  0  0999 V2000
    0.0220   19.0770  -30.7530 C   0  0  0  0  0  0  0  0  0  0  0  0
   -0.8240   20.3190  -30.7240 C   0  0  0  0  0  0  0  0  0  0  0  0
   -1.1200   20.8220  -29.5630 N   0  0  0  0  0  0  0  0  0  0  0  0
   -1.8280   22.0580  -29.3710 C   0  0  0  0  0  0  0  0  0  0  0  0
   -1.9360   22.5600  -27.9580 C   0  0  0  0  0  0  0  0  0  0  0  0
   -2.3890   22.6990  -30.4300 C   0  0  0  0  0  0  0  0  0  0  0  0
   -3.1400   23.9820  -30.3060 C   0  0  0  0  0  0  0  0  0  0  0  0
   -2.7770   24.8710  -29.4900 O   0  0  0  0  0  0  0  0  0  0  0  0
   -4.2450   24.2350  -31.1850 N   0  0  0  0  0  0  0  0  0  0  0  0
   -5.5700   23.6990  -31.0600 C   0  0  0  0  0  0  0  0  0  0  0  0
   -6.0090   23.0620  -29.8850 C   0  0  0  0  0  0  0  0  0  0  0  0
   -7.2980   22.5220  -29.8170 C   0  0  0  0  0  0  0  0  0  0  0  0
   -8.1530   22.6070  -30.9200 C   0  0  0  0  0  0  0  0  0  0  0  0
   -7.7160   23.2220  -32.0960 C   0  0  0  0  0  0  0  0  0  0  0  0
   -6.4250   23.7560  -32.1700 C   0  0  0  0  0  0  0  0  0  0  0  0
   -2.3780   22.0180  -31.7900 C   0  0  2  0  0  0  0  0  0  0  0  0
   -3.7020   21.3010  -32.0320 C   0  0  0  0  0  0  0  0  0  0  0  0
   -4.2450   20.4820  -31.0260 C   0  0  0  0  0  0  0  0  0  0  0  0
   -5.4630   19.8270  -31.2210 C   0  0  0  0  0  0  0  0  0  0  0  0
   -6.1700   19.9760  -32.4250 C   0  0  0  0  0  0  0  0  0  0  0  0
   -7.4230   19.2950  -32.6240 N   0  0  0  0  0  0  0  0  0  0  0  0
   -7.6190   18.1660  -32.1300 O   0  0  0  0  0  0  0  0  0  0  0  0
   -8.4390   19.8950  -33.3310 O   0  0  0  0  0  0  0  0  0  0  0  0
   -5.6350   20.8020  -33.4290 C   0  0  0  0  0  0  0  0  0  0  0  0
   -4.4180   21.4590  -33.2340 C   0  0  0  0  0  0  0  0  0  0  0  0
   -1.1320   21.1070  -31.9800 C   0  0  2  0  0  0  0  0  0  0  0  0
   -1.2620   20.2420  -33.2110 C   0  0  0  0  0  0  0  0  0  0  0  0
   -0.7460   20.6090  -34.3040 O   0  0  0  0  0  0  0  0  0  0  0  0
   -1.9330   18.9810  -33.1190 N   0  0  0  0  0  0  0  0  0  0  0  0
   -2.3300   18.1970  -34.2840 C   0  0  0  0  0  0  0  0  0  0  0  0
   -3.6570   17.5320  -34.0390 C   0  0  0  0  0  0  0  0  0  0  0  0
   -3.7900   16.5460  -33.0480 C   0  0  0  0  0  0  0  0  0  0  0  0
   -5.0210   15.9120  -32.8450 C   0  0  0  0  0  0  0  0  0  0  0  0
   -6.1240   16.2550  -33.6310 C   0  0  0  0  0  0  0  0  0  0  0  0
   -5.9980   17.2330  -34.6220 C   0  0  0  0  0  0  0  0  0  0  0  0
   -4.7700   17.8700  -34.8280 C   0  0  0  0  0  0  0  0  0  0  0  0
    0.2396   18.7575  -29.7232 H   0  0  0  0  0  0  0  0  0  0  0  0
   -0.5195   18.2767  -31.2785 H   0  0  0  0  0  0  0  0  0  0  0  0
    0.9651   19.2879  -31.2785 H   0  0  0  0  0  0  0  0  0  0  0  0
   -1.7573   21.7295  -27.2592 H   0  0  0  0  0  0  0  0  0  0  0  0
   -1.1868   23.3478  -27.7905 H   0  0  0  0  0  0  0  0  0  0  0  0
   -2.9429   22.9700  -27.7905 H   0  0  0  0  0  0  0  0  0  0  0  0
   -5.3370   22.9882  -29.0173 H   0  0  0  0  0  0  0  0  0  0  0  0
   -7.6392   22.0298  -28.8943 H   0  0  0  0  0  0  0  0  0  0  0  0
   -9.1692   22.1899  -30.8620 H   0  0  0  0  0  0  0  0  0  0  0  0
   -8.3878   23.2864  -32.9647 H   0  0  0  0  0  0  0  0  0  0  0  0
   -6.0788   24.2230  -33.1038 H   0  0  0  0  0  0  0  0  0  0  0  0
   -2.2838   22.7897  -32.5682 H   0  0  0  0  0  0  0  0  0  0  0  0
   -3.7050   20.3560  -30.0760 H   0  0  0  0  0  0  0  0  0  0  0  0
   -5.8722   19.1886  -30.4241 H   0  0  0  0  0  0  0  0  0  0  0  0
   -6.1794   20.9319  -34.3760 H   0  0  0  0  0  0  0  0  0  0  0  0
   -4.0151   22.1061  -34.0271 H   0  0  0  0  0  0  0  0  0  0  0  0
   -0.2597   21.7541  -32.1540 H   0  0  0  0  0  0  0  0  0  0  0  0
   -2.4127   18.8610  -35.1571 H   0  0  0  0  0  0  0  0  0  0  0  0
   -1.5709   17.4228  -34.4696 H   0  0  0  0  0  0  0  0  0  0  0  0
   -2.9233   16.2709  -32.4289 H   0  0  0  0  0  0  0  0  0  0  0  0
   -5.1203   15.1424  -32.0654 H   0  0  0  0  0  0  0  0  0  0  0  0
   -7.0909   15.7558  -33.4702 H   0  0  0  0  0  0  0  0  0  0  0  0
   -6.8665   17.5021  -35.2411 H   0  0  0  0  0  0  0  0  0  0  0  0
   -4.6750   18.6379  -35.6099 H   0  0  0  0  0  0  0  0  0  0  0  0
  1  2  1  0
  2  3  2  0
  3  4  1  0
  4  5  1  0
  4  6  2  0
  6  7  1  0
  7  8  2  0
  7  9  1  0
  9 10  1  0
 10 11  2  0
 11 12  1  0
 12 13  2  0
 13 14  1  0
 14 15  2  0
  6 16  1  0
 16 17  1  0
 17 18  2  0
 18 19  1  0
 19 20  2  0
 20 21  1  0
 21 22  2  0
 21 23  1  0
 20 24  1  0
 24 25  2  0
 16 26  1  0
 26 27  1  0
 27 28  2  0
 27 29  1  0
 29 30  1  0
 30 31  1  0
 31 32  2  0
 32 33  1  0
 33 34  2  0
 34 35  1  0
 35 36  2  0
 26  2  1  0
 36 31  1  0
 15 10  1  0
 25 17  1  0
  1 37  1  0
  1 38  1  0
  1 39  1  0
  5 40  1  0
  5 41  1  0
  5 42  1  0
 11 43  1  0
 12 44  1  0
 13 45  1  0
 14 46  1  0
 15 47  1  0
 16 48  1  6
 18 49  1  0
 19 50  1  0
 24 51  1  0
 25 52  1  0
 26 53  1  6
 30 54  1  0
 30 55  1  0
 32 56  1  0
 33 57  1  0
 34 58  1  0
 35 59  1  0
 36 60  1  0
M  CHG  4   9  -1  21   1  23  -1  29  -1
M  END
>  <UniqueID>  (26) 
25

>  <SMILES>  (26) 
CC1=NC(C)=C(C(=O)[N-]c2ccccc2)[C@H](c2ccc([N+](=O)[O-])cc2)[C@@H]1C(=O)[N-]Cc1ccccc1

>  <Energy>  (26) 
72.14758175705526

>  <Genealogy>  (26) 
CC1=NC(C)=C(C(=O)[N-]c2ccccc2)C(c2ccc([N+](=O)[O-])cc2)C1C(=O)[N-]Cc1ccccc1 (protonated)
CC1=NC(C)=C(C(=O)[N-]c2ccccc2)[C@H](c2ccc([N+](=O)[O-])cc2)[C@@H]1C(=O)[N-]Cc1ccccc1 (chirality)
CC1=NC(C)=C(C(=O)[N-]c2ccccc2)[C@H](c2ccc([N+](=O)[O-])cc2)[C@@H]1C(=O)[N-]Cc1ccccc1 (3D coordinates assigned)
CC1=NC(C)=C(C(=O)[N-]c2ccccc2)[C@H](c2ccc([N+](=O)[O-])cc2)[C@@H]1C(=O)[N-]Cc1ccccc1 (nonaromatic ring conformer: 72.14758175705526 kcal/mol)

>  <smiles>  (26) 
CC1=NC(C)=C(C(=O)Nc2ccccc2)C(c2ccc([N+](=O)[O-])cc2)C1C(=O)NCc1ccccc1

>  <score_type>  (26) 
oracle

>  <origin>  (26) 
adg

>  <m_score__min__energy>  (26) 
-11.07

>  <m_primary>  (26) 
energy

$$$$
26:0
     RDKit          3D

 37 40  0  0  0  0  0  0  0  0999 V2000
   -2.1439   22.6083  -31.3736 H   0  0  0  0  0  0  0  0  0  0  0  0
   -2.7470   23.0300  -30.5560 C   0  0  0  0  0  0  0  0  0  0  0  0
   -3.7940   23.8510  -30.8380 N   0  0  0  0  0  0  0  0  0  0  0  0
   -4.5660   24.3950  -29.8570 C   0  0  0  0  0  0  0  0  0  0  0  0
   -5.7070   25.2980  -30.2310 C   0  0  0  0  0  0  0  0  0  0  0  0
   -5.3394   26.3316  -30.3114 H   0  0  0  0  0  0  0  0  0  0  0  0
   -6.4832   25.2311  -29.4544 H   0  0  0  0  0  0  0  0  0  0  0  0
   -6.2830   24.8910  -31.5120 N   0  0  0  0  0  0  0  0  0  0  0  0
   -6.7440   23.7050  -31.7800 C   0  0  0  0  0  0  0  0  0  0  0  0
   -8.3450   23.2040  -31.6160 S   0  0  0  0  0  0  0  0  0  0  0  0
   -8.0160   21.6360  -32.1350 C   0  0  0  0  0  0  0  0  0  0  0  0
   -8.7487   20.8205  -32.2254 H   0  0  0  0  0  0  0  0  0  0  0  0
   -6.6540   21.5480  -32.4310 C   0  0  0  0  0  0  0  0  0  0  0  0
   -6.0100   20.3000  -32.9100 C   0  0  0  0  0  0  0  0  0  0  0  0
   -6.7380   19.1010  -32.9370 C   0  0  0  0  0  0  0  0  0  0  0  0
   -7.7887   19.0868  -32.6116 H   0  0  0  0  0  0  0  0  0  0  0  0
   -6.1260   17.9250  -33.3780 C   0  0  0  0  0  0  0  0  0  0  0  0
   -6.8170   16.7050  -33.4110 C   0  0  0  0  0  0  0  0  0  0  0  0
   -7.8671   16.6573  -33.0868 H   0  0  0  0  0  0  0  0  0  0  0  0
   -6.1680   15.5490  -33.8570 C   0  0  0  0  0  0  0  0  0  0  0  0
   -6.7104   14.5924  -33.8840 H   0  0  0  0  0  0  0  0  0  0  0  0
   -4.8320   15.6040  -34.2690 C   0  0  0  0  0  0  0  0  0  0  0  0
   -4.0260   14.1490  -34.8260 Cl  0  0  0  0  0  0  0  0  0  0  0  0
   -4.1380   16.8200  -34.2370 C   0  0  0  0  0  0  0  0  0  0  0  0
   -3.0876   16.8620  -34.5610 H   0  0  0  0  0  0  0  0  0  0  0  0
   -4.7800   17.9820  -33.7930 C   0  0  0  0  0  0  0  0  0  0  0  0
   -4.1190   19.1350  -33.7670 O   0  0  0  0  0  0  0  0  0  0  0  0
   -4.6710   20.2740  -33.3540 C   0  0  0  0  0  0  0  0  0  0  0  0
   -3.9830   21.3290  -33.3890 O   0  0  0  0  0  0  0  0  0  0  0  0
   -5.9570   22.7020  -32.2230 N   0  0  0  0  0  0  0  0  0  0  0  0
   -4.9260   22.8020  -32.3590 H   0  0  0  0  0  0  0  0  0  0  0  0
   -4.2870   24.1040  -28.5140 C   0  0  0  0  0  0  0  0  0  0  0  0
   -4.9060   24.5329  -27.7122 H   0  0  0  0  0  0  0  0  0  0  0  0
   -3.2150   23.2640  -28.2050 C   0  0  0  0  0  0  0  0  0  0  0  0
   -2.9836   23.0295  -27.1555 H   0  0  0  0  0  0  0  0  0  0  0  0
   -2.4370   22.7220  -29.2310 C   0  0  0  0  0  0  0  0  0  0  0  0
   -1.5901   22.0603  -28.9970 H   0  0  0  0  0  0  0  0  0  0  0  0
  1  2  1  0
  2  3  2  0
  3  4  1  0
  4  5  1  0
  5  6  1  0
  5  7  1  0
  5  8  1  0
  8  9  2  0
  9 10  1  0
 10 11  1  0
 11 12  1  0
 11 13  2  0
 13 14  1  0
 14 15  2  0
 15 16  1  0
 15 17  1  0
 17 18  2  0
 18 19  1  0
 18 20  1  0
 20 21  1  0
 20 22  2  0
 22 23  1  0
 22 24  1  0
 24 25  1  0
 24 26  2  0
 26 27  1  0
 27 28  1  0
 28 29  2  0
 13 30  1  0
 30 31  1  0
  4 32  2  0
 32 33  1  0
 32 34  1  0
 34 35  1  0
 34 36  2  0
 36 37  1  0
 36  2  1  0
 30  9  1  0
 28 14  1  0
 26 17  1  0
M  END
>  <UniqueID>  (27) 
26

>  <SMILES>  (27) 
O=c1oc2cc(Cl)ccc2cc1-c1cs/c(=N\Cc2ccccn2)[nH]1

>  <Energy>  (27) 
80.7615535802062

>  <Genealogy>  (27) 
O=c1oc2cc(Cl)ccc2cc1-c1cs/c(=N\Cc2ccccn2)[nH]1 (cis-trans isomerization)
O=c1oc2cc(Cl)ccc2cc1-c1cs/c(=N\Cc2ccccn2)[nH]1 (3D coordinates assigned)
O=c1oc2cc(Cl)ccc2cc1-c1cs/c(=N\Cc2ccccn2)[nH]1 (optimized conformer: 80.7615535802062 kcal/mol)

>  <smiles>  (27) 
O=c1oc2cc(Cl)ccc2cc1-c1csc(=NCc2ccccn2)[nH]1

>  <score_type>  (27) 
oracle

>  <origin>  (27) 
adg

>  <m_score__min__energy>  (27) 
-8.7799999999999994

>  <m_primary>  (27) 
energy

$$$$
27:0
     RDKit          3D

 35 38  0  0  0  0  0  0  0  0999 V2000
    0.6530   24.9410  -36.0130 C   0  0  0  0  0  0  0  0  0  0  0  0
    0.8710   23.4940  -35.7290 C   0  0  0  0  0  0  0  0  0  0  0  0
   -0.1110   22.6540  -35.3430 N   0  0  0  0  0  0  0  0  0  0  0  0
    0.3520   21.4010  -35.0780 C   0  0  0  0  0  0  0  0  0  0  0  0
   -0.5660   20.3170  -34.6380 C   0  0  0  0  0  0  0  0  0  0  0  0
   -0.1570   18.9720  -34.6320 C   0  0  0  0  0  0  0  0  0  0  0  0
   -1.0480   17.9820  -34.2210 C   0  0  0  0  0  0  0  0  0  0  0  0
   -2.3350   18.3250  -33.8210 C   0  0  0  0  0  0  0  0  0  0  0  0
   -2.7280   19.6700  -33.8370 C   0  0  0  0  0  0  0  0  0  0  0  0
   -4.0530   20.0430  -33.4200 N   0  0  0  0  0  0  0  0  0  0  0  0
   -5.2210   19.2160  -33.3650 C   0  0  0  0  0  0  0  0  0  0  0  0
   -5.2600   18.0090  -33.7230 O   0  0  0  0  0  0  0  0  0  0  0  0
   -6.3610   19.9940  -32.8920 C   0  0  0  0  0  0  0  0  0  0  0  0
   -7.6890   19.6270  -32.6810 C   0  0  0  0  0  0  0  0  0  0  0  0
   -8.5790   20.6100  -32.2120 C   0  0  0  0  0  0  0  0  0  0  0  0
   -8.1290   21.9250  -31.9700 C   0  0  0  0  0  0  0  0  0  0  0  0
   -6.7840   22.2710  -32.1930 C   0  0  0  0  0  0  0  0  0  0  0  0
   -5.9220   21.2800  -32.6580 C   0  0  0  0  0  0  0  0  0  0  0  0
   -4.5000   21.3280  -32.9760 C   0  0  0  0  0  0  0  0  0  0  0  0
   -3.7530   22.3340  -32.8340 O   0  0  0  0  0  0  0  0  0  0  0  0
   -1.8410   20.6260  -34.2450 N   0  0  0  0  0  0  0  0  0  0  0  0
    1.7340   21.2530  -35.2350 C   0  0  0  0  0  0  0  0  0  0  0  0
    2.3670   22.7340  -35.7190 S   0  0  0  0  0  0  0  0  0  0  0  0
    0.5699   25.4923  -35.0648 H   0  0  0  0  0  0  0  0  0  0  0  0
    1.5022   25.3330  -36.5919 H   0  0  0  0  0  0  0  0  0  0  0  0
   -0.2740   25.0654  -36.5919 H   0  0  0  0  0  0  0  0  0  0  0  0
    0.8609   18.7023  -34.9500 H   0  0  0  0  0  0  0  0  0  0  0  0
   -0.7328   16.9282  -34.2130 H   0  0  0  0  0  0  0  0  0  0  0  0
   -3.0396   17.5460  -33.4943 H   0  0  0  0  0  0  0  0  0  0  0  0
   -8.0307   18.5996  -32.8754 H   0  0  0  0  0  0  0  0  0  0  0  0
   -9.6331   20.3517  -32.0327 H   0  0  0  0  0  0  0  0  0  0  0  0
   -8.8350   22.6852  -31.6043 H   0  0  0  0  0  0  0  0  0  0  0  0
   -6.4235   23.2933  -32.0059 H   0  0  0  0  0  0  0  0  0  0  0  0
   -2.1580   21.6200  -34.2700 H   0  0  0  0  0  0  0  0  0  0  0  0
    2.3071   20.3286  -35.0705 H   0  0  0  0  0  0  0  0  0  0  0  0
  1  2  1  0
  2  3  2  0
  3  4  1  0
  4  5  1  0
  5  6  2  0
  6  7  1  0
  7  8  2  0
  8  9  1  0
  9 10  1  0
 10 11  1  0
 11 12  2  0
 11 13  1  0
 13 14  2  0
 14 15  1  0
 15 16  2  0
 16 17  1  0
 17 18  2  0
 18 19  1  0
 19 20  2  0
  9 21  2  0
  4 22  2  0
 22 23  1  0
 23  2  1  0
 21  5  1  0
 19 10  1  0
 18 13  1  0
  1 24  1  0
  1 25  1  0
  1 26  1  0
  6 27  1  0
  7 28  1  0
  8 29  1  0
 14 30  1  0
 15 31  1  0
 16 32  1  0
 17 33  1  0
 21 34  1  0
 22 35  1  0
M  CHG  1  21   1
M  END
>  <UniqueID>  (28) 
27

>  <SMILES>  (28) 
Cc1nc(-c2cccc(N3C(=O)c4ccccc4C3=O)[nH+]2)cs1

>  <Energy>  (28) 
106.58993994230477

>  <Genealogy>  (28) 
Cc1nc(-c2cccc(N3C(=O)c4ccccc4C3=O)[nH+]2)cs1 (protonated)
Cc1nc(-c2cccc(N3C(=O)c4ccccc4C3=O)[nH+]2)cs1 (3D coordinates assigned)
Cc1nc(-c2cccc(N3C(=O)c4ccccc4C3=O)[nH+]2)cs1 (nonaromatic ring conformer: 106.58993994230477 kcal/mol)

>  <smiles>  (28) 
Cc1nc(-c2cccc(N3C(=O)c4ccccc4C3=O)n2)cs1

>  <score_type>  (28) 
oracle

>  <origin>  (28) 
adg

>  <m_score__min__energy>  (28) 
-7.71

>  <m_primary>  (28) 
energy

$$$$
28:0
     RDKit          3D

 36 38  0  0  0  0  0  0  0  0999 V2000
   -4.4314   23.5972  -26.5366 H   0  0  0  0  0  0  0  0  0  0  0  0
   -3.8850   24.2360  -27.2460 C   0  0  0  0  0  0  0  0  0  0  0  0
   -3.7514   25.3066  -27.0318 H   0  0  0  0  0  0  0  0  0  0  0  0
   -3.3830   23.7110  -28.3690 C   0  0  0  0  0  0  0  0  0  0  0  0
   -3.5257   22.6385  -28.5677 H   0  0  0  0  0  0  0  0  0  0  0  0
   -2.6290   24.5450  -29.3680 C   0  0  0  0  0  0  0  0  0  0  0  0
   -2.2363   25.4427  -28.8681 H   0  0  0  0  0  0  0  0  0  0  0  0
   -1.8008   23.9487  -29.7785 H   0  0  0  0  0  0  0  0  0  0  0  0
   -3.5100   24.9490  -30.4610 N   0  0  0  0  0  0  0  0  0  0  0  0
   -4.6450   24.3770  -30.7310 C   0  0  0  0  0  0  0  0  0  0  0  0
   -4.7620   23.2130  -31.4050 N   0  0  0  0  0  0  0  0  0  0  0  0
   -6.0650   22.8500  -31.5460 C   0  0  0  0  0  0  0  0  0  0  0  0
   -6.4440   21.6230  -32.2520 C   0  0  0  0  0  0  0  0  0  0  0  0
   -7.6810   21.3630  -32.7240 N   0  0  0  0  0  0  0  0  0  0  0  0
   -7.5990   20.1700  -33.2870 N   0  0  0  0  0  0  0  0  0  0  0  0
   -8.4000   19.6870  -33.7490 H   0  0  0  0  0  0  0  0  0  0  0  0
   -6.3300   19.7370  -33.1460 C   0  0  0  0  0  0  0  0  0  0  0  0
   -5.7930   18.4460  -33.6330 C   0  0  0  0  0  0  0  0  0  0  0  0
   -4.5610   18.3660  -34.3050 C   0  0  0  0  0  0  0  0  0  0  0  0
   -3.9730   19.2793  -34.4788 H   0  0  0  0  0  0  0  0  0  0  0  0
   -4.0780   17.1330  -34.7540 C   0  0  0  0  0  0  0  0  0  0  0  0
   -3.1122   17.0845  -35.2782 H   0  0  0  0  0  0  0  0  0  0  0  0
   -4.8110   15.9610  -34.5430 C   0  0  0  0  0  0  0  0  0  0  0  0
   -4.2820   14.7500  -35.0140 O   0  0  0  0  0  0  0  0  0  0  0  0
   -3.0710   14.6370  -35.7560 C   0  0  0  0  0  0  0  0  0  0  0  0
   -2.2216   14.5577  -35.0616 H   0  0  0  0  0  0  0  0  0  0  0  0
   -3.1117   13.7387  -36.3896 H   0  0  0  0  0  0  0  0  0  0  0  0
   -2.9448   15.5273  -36.3896 H   0  0  0  0  0  0  0  0  0  0  0  0
   -6.0450   16.0360  -33.8720 C   0  0  0  0  0  0  0  0  0  0  0  0
   -6.6315   15.1214  -33.6999 H   0  0  0  0  0  0  0  0  0  0  0  0
   -6.5290   17.2680  -33.4230 C   0  0  0  0  0  0  0  0  0  0  0  0
   -7.4956   17.3156  -32.9001 H   0  0  0  0  0  0  0  0  0  0  0  0
   -5.6160   20.6350  -32.5070 O   0  0  0  0  0  0  0  0  0  0  0  0
   -6.9890   23.7290  -30.9790 C   0  0  0  0  0  0  0  0  0  0  0  0
   -8.0826   23.6111  -30.9872 H   0  0  0  0  0  0  0  0  0  0  0  0
   -6.1360   25.0020  -30.2800 S   0  0  0  0  0  0  0  0  0  0  0  0
  1  2  1  0
  2  3  1  0
  2  4  2  0
  4  5  1  0
  4  6  1  0
  6  7  1  0
  6  8  1  0
  6  9  1  0
  9 10  2  0
 10 11  1  0
 11 12  1  0
 12 13  1  0
 13 14  2  0
 14 15  1  0
 15 16  1  0
 15 17  2  0
 17 18  1  0
 18 19  2  0
 19 20  1  0
 19 21  1  0
 21 22  1  0
 21 23  2  0
 23 24  1  0
 24 25  1  0
 25 26  1  0
 25 27  1  0
 25 28  1  0
 23 29  1  0
 29 30  1  0
 29 31  2  0
 31 32  1  0
 17 33  1  0
 12 34  2  0
 34 35  1  0
 34 36  1  0
 36 10  1  0
 33 13  1  0
 31 18  1  0
M  CHG  2  11  -1  15   1
M  END
>  <UniqueID>  (29) 
28

>  <SMILES>  (29) 
C=CC/N=c1\[n-]c(-c2n[nH+]c(-c3ccc(OC)cc3)o2)cs1

>  <Energy>  (29) 
99.66750518973988

>  <Genealogy>  (29) 
C=CCN=c1[n-]c(-c2n[nH+]c(-c3ccc(OC)cc3)o2)cs1 (protonated)
C=CC/N=c1\[n-]c(-c2n[nH+]c(-c3ccc(OC)cc3)o2)cs1 (cis-trans isomerization)
C=CC/N=c1\[n-]c(-c2n[nH+]c(-c3ccc(OC)cc3)o2)cs1 (3D coordinates assigned)
C=CC/N=c1\[n-]c(-c2n[nH+]c(-c3ccc(OC)cc3)o2)cs1 (optimized conformer: 99.66750518973988 kcal/mol)

>  <smiles>  (29) 
C=CCN=c1[nH]c(-c2nnc(-c3ccc(OC)cc3)o2)cs1

>  <score_type>  (29) 
oracle

>  <origin>  (29) 
adg

>  <m_score__min__energy>  (29) 
-8.1500000000000004

>  <m_primary>  (29) 
energy

$$$$
29:0
     RDKit          3D

 45 46  0  0  1  0  0  0  0  0999 V2000
   -3.2830   20.4810  -32.9840 C   0  0  0  0  0  0  0  0  0  0  0  0
   -3.6330   21.9380  -33.1360 C   0  0  0  0  0  0  0  0  0  0  0  0
   -4.2590   22.5000  -32.0070 O   0  0  0  0  0  0  0  0  0  0  0  0
   -5.6040   22.2900  -31.7980 C   0  0  0  0  0  0  0  0  0  0  0  0
   -6.3280   21.2540  -32.3450 C   0  0  0  0  0  0  0  0  0  0  0  0
   -7.6750   21.0630  -32.1240 C   0  0  0  0  0  0  0  0  0  0  0  0
   -8.3850   19.9220  -32.7500 C   0  0  0  0  0  0  0  0  0  0  0  0
   -8.3130   21.9680  -31.3070 C   0  0  0  0  0  0  0  0  0  0  0  0
   -9.7710   21.7990  -31.0400 C   0  0  0  0  0  0  0  0  0  0  0  0
   -7.5960   23.0050  -30.7570 C   0  0  0  0  0  0  0  0  0  0  0  0
   -6.2490   23.2130  -30.9670 C   0  0  0  0  0  0  0  0  0  0  0  0
   -5.3760   24.5580  -30.2400 S   0  0  0  0  0  0  0  0  0  0  0  0
   -6.4780   25.3050  -29.4430 O   0  0  0  0  0  0  0  0  0  0  0  0
   -5.0080   25.5950  -31.2160 O   0  0  0  0  0  0  0  0  0  0  0  0
   -4.3100   24.1330  -29.0150 N   0  0  0  0  0  0  0  0  0  0  0  0
   -3.0690   23.8300  -29.0930 C   0  0  0  0  0  0  0  0  0  0  0  0
   -2.1100   24.6300  -28.6220 N   0  0  0  0  0  0  0  0  0  0  0  0
   -0.7870   24.3000  -28.7120 C   0  0  0  0  0  0  0  0  0  0  0  0
    0.1910   25.1510  -28.2120 O   0  0  0  0  0  0  0  0  0  0  0  0
   -0.1310   25.9780  -27.0870 C   0  0  0  0  0  0  0  0  0  0  0  0
   -0.5010   23.0930  -29.3170 C   0  0  0  0  0  0  0  0  0  0  0  0
   -1.4880   22.2510  -29.8120 C   0  0  0  0  0  0  0  0  0  0  0  0
   -1.1320   20.9580  -30.4570 C   0  0  0  0  0  0  0  0  0  0  0  0
   -2.7520   22.6650  -29.6760 N   0  0  0  0  0  0  0  0  0  0  0  0
   -3.2222   20.2281  -31.9152 H   0  0  0  0  0  0  0  0  0  0  0  0
   -4.0589   19.8656  -33.4629 H   0  0  0  0  0  0  0  0  0  0  0  0
   -2.3123   20.2852  -33.4629 H   0  0  0  0  0  0  0  0  0  0  0  0
   -2.7061   22.4973  -33.3312 H   0  0  0  0  0  0  0  0  0  0  0  0
   -4.3532   22.0063  -33.9647 H   0  0  0  0  0  0  0  0  0  0  0  0
   -5.8019   20.5390  -32.9946 H   0  0  0  0  0  0  0  0  0  0  0  0
   -8.7920   19.2680  -31.9647 H   0  0  0  0  0  0  0  0  0  0  0  0
   -9.2075   20.3002  -33.3749 H   0  0  0  0  0  0  0  0  0  0  0  0
   -7.6824   19.3512  -33.3749 H   0  0  0  0  0  0  0  0  0  0  0  0
   -9.9450   21.7788  -29.9540 H   0  0  0  0  0  0  0  0  0  0  0  0
  -10.3250   22.6389  -31.4846 H   0  0  0  0  0  0  0  0  0  0  0  0
  -10.1181   20.8546  -31.4846 H   0  0  0  0  0  0  0  0  0  0  0  0
   -8.1313   23.7138  -30.1081 H   0  0  0  0  0  0  0  0  0  0  0  0
    0.0820   25.4309  -26.1568 H   0  0  0  0  0  0  0  0  0  0  0  0
    0.4758   26.8949  -27.1203 H   0  0  0  0  0  0  0  0  0  0  0  0
   -1.1981   26.2431  -27.1203 H   0  0  0  0  0  0  0  0  0  0  0  0
    0.5510   22.7857  -29.4108 H   0  0  0  0  0  0  0  0  0  0  0  0
   -0.9250   20.2060  -29.6813 H   0  0  0  0  0  0  0  0  0  0  0  0
   -1.9699   20.6177  -31.0832 H   0  0  0  0  0  0  0  0  0  0  0  0
   -0.2380   21.0945  -31.0832 H   0  0  0  0  0  0  0  0  0  0  0  0
   -3.4990   22.0470  -30.0340 H   0  0  0  0  0  0  0  0  0  0  0  0
  1  2  1  0
  2  3  1  0
  3  4  1  0
  4  5  2  0
  5  6  1  0
  6  7  1  0
  6  8  2  0
  8  9  1  0
  8 10  1  0
 10 11  2  0
 11 12  1  0
 12 13  2  0
 12 14  2  0
 12 15  1  0
 15 16  2  0
 16 17  1  0
 17 18  2  0
 18 19  1  0
 19 20  1  0
 18 21  1  0
 21 22  2  0
 22 23  1  0
 22 24  1  0
 11  4  1  0
 24 16  1  0
  1 25  1  0
  1 26  1  0
  1 27  1  0
  2 28  1  0
  2 29  1  0
  5 30  1  0
  7 31  1  0
  7 32  1  0
  7 33  1  0
  9 34  1  0
  9 35  1  0
  9 36  1  0
 10 37  1  0
 20 38  1  0
 20 39  1  0
 20 40  1  0
 21 41  1  0
 23 42  1  0
 23 43  1  0
 23 44  1  0
 24 45  1  0
M  END
>  <smiles>  (30) 
CCOc1cc(C)c(C)cc1S(=O)(=O)N=c1nc(OC)cc(C)[nH]1

>  <score_type>  (30) 
oracle

>  <origin>  (30) 
adg

>  <m_score__min__energy>  (30) 
-8.5500000000000007

>  <m_primary>  (30) 
energy

$$$$
30:0
     RDKit          3D

 36 37  0  0  0  0  0  0  0  0999 V2000
   -9.1640   20.3910  -31.9490 C   0  0  0  0  0  0  0  0  0  0  0  0
   -7.9520   19.7600  -31.5490 O   0  0  0  0  0  0  0  0  0  0  0  0
   -7.0740   19.1810  -32.4710 C   0  0  0  0  0  0  0  0  0  0  0  0
   -7.2990   17.8960  -32.8660 N   0  0  0  0  0  0  0  0  0  0  0  0
   -6.5250   17.2880  -33.8050 C   0  0  0  0  0  0  0  0  0  0  0  0
   -5.4630   17.9750  -34.3900 C   0  0  0  0  0  0  0  0  0  0  0  0
   -5.1900   19.2810  -33.9860 C   0  0  0  0  0  0  0  0  0  0  0  0
   -5.9760   19.8950  -33.0020 C   0  0  0  0  0  0  0  0  0  0  0  0
   -5.6180   21.2510  -32.5390 C   0  0  0  0  0  0  0  0  0  0  0  0
   -6.4960   22.2310  -32.1210 C   0  0  0  0  0  0  0  0  0  0  0  0
   -5.7790   23.3230  -31.7920 N   0  0  0  0  0  0  0  0  0  0  0  0
   -6.3120   24.5560  -31.2250 C   0  0  0  0  0  0  0  0  0  0  0  0
   -5.9360   24.6580  -29.7440 C   0  0  0  0  0  0  0  0  0  0  0  0
   -4.4270   24.8300  -29.5500 C   0  0  0  0  0  0  0  0  0  0  0  0
   -3.8690   25.5770  -30.5980 O   0  0  0  0  0  0  0  0  0  0  0  0
   -4.4880   23.0950  -31.9780 N   0  0  0  0  0  0  0  0  0  0  0  0
   -4.3630   21.8410  -32.4540 C   0  0  0  0  0  0  0  0  0  0  0  0
   -3.0470   21.2280  -32.8120 C   0  0  0  0  0  0  0  0  0  0  0  0
   -9.7346   20.6881  -31.0567 H   0  0  0  0  0  0  0  0  0  0  0  0
   -8.9322   21.2829  -32.5497 H   0  0  0  0  0  0  0  0  0  0  0  0
   -9.7617   19.6896  -32.5497 H   0  0  0  0  0  0  0  0  0  0  0  0
   -8.1020   17.3680  -32.4560 H   0  0  0  0  0  0  0  0  0  0  0  0
   -6.7380   16.2509  -34.1035 H   0  0  0  0  0  0  0  0  0  0  0  0
   -4.8466   17.4918  -35.1624 H   0  0  0  0  0  0  0  0  0  0  0  0
   -4.3540   19.8318  -34.4417 H   0  0  0  0  0  0  0  0  0  0  0  0
   -7.5906   22.1366  -32.0661 H   0  0  0  0  0  0  0  0  0  0  0  0
   -5.8934   25.4168  -31.7670 H   0  0  0  0  0  0  0  0  0  0  0  0
   -7.4079   24.5522  -31.3194 H   0  0  0  0  0  0  0  0  0  0  0  0
   -6.4523   25.5242  -29.3046 H   0  0  0  0  0  0  0  0  0  0  0  0
   -6.2396   23.7235  -29.2495 H   0  0  0  0  0  0  0  0  0  0  0  0
   -4.2434   25.3511  -28.5988 H   0  0  0  0  0  0  0  0  0  0  0  0
   -3.9585   23.8348  -29.5398 H   0  0  0  0  0  0  0  0  0  0  0  0
   -3.4940   24.9230  -31.2450 H   0  0  0  0  0  0  0  0  0  0  0  0
   -2.4992   20.9728  -31.8929 H   0  0  0  0  0  0  0  0  0  0  0  0
   -3.2161   20.3160  -33.4033 H   0  0  0  0  0  0  0  0  0  0  0  0
   -2.4576   21.9443  -33.4033 H   0  0  0  0  0  0  0  0  0  0  0  0
  1  2  1  0
  2  3  1  0
  3  4  2  0
  4  5  1  0
  5  6  2  0
  6  7  1  0
  7  8  2  0
  8  9  1  0
  9 10  2  0
 10 11  1  0
 11 12  1  0
 12 13  1  0
 13 14  1  0
 14 15  1  0
 11 16  1  0
 16 17  2  0
 17 18  1  0
  8  3  1  0
 17  9  1  0
  1 19  1  0
  1 20  1  0
  1 21  1  0
  4 22  1  0
  5 23  1  0
  6 24  1  0
  7 25  1  0
 10 26  1  0
 12 27  1  0
 12 28  1  0
 13 29  1  0
 13 30  1  0
 14 31  1  0
 14 32  1  0
 15 33  1  0
 18 34  1  0
 18 35  1  0
 18 36  1  0
M  CHG  1   4   1
M  END
>  <UniqueID>  (31) 
29

>  <SMILES>  (31) 
COc1[nH+]cccc1-c1cn(CCCO)nc1C

>  <Energy>  (31) 
70.32408587820935

>  <Genealogy>  (31) 
COc1[nH+]cccc1-c1cn(CCCO)nc1C (protonated)
COc1[nH+]cccc1-c1cn(CCCO)nc1C (3D coordinates assigned)
COc1[nH+]cccc1-c1cn(CCCO)nc1C (optimized conformer: 70.32408587820935 kcal/mol)

>  <smiles>  (31) 
COc1ncccc1-c1cn(CCCO)nc1C

>  <score_type>  (31) 
oracle

>  <origin>  (31) 
adg

>  <m_score__min__energy>  (31) 
-6.71

>  <m_primary>  (31) 
energy

$$$$
31:0
     RDKit          3D

 79 83  0  0  0  0  0  0  0  0999 V2000
   -0.4780   18.0450  -27.8400 C   0  0  0  0  0  0  0  0  0  0  0  0
   -1.0010   18.8810  -26.7470 N   0  0  0  0  0  0  0  0  0  0  0  0
   -2.4710   18.7960  -26.7150 C   0  0  0  0  0  0  0  0  0  0  0  0
   -0.5550   20.2840  -26.8920 C   0  0  0  0  0  0  0  0  0  0  0  0
   -1.1350   21.1520  -25.7680 C   0  0  0  0  0  0  0  0  0  0  0  0
   -0.3920   22.4650  -25.6480 C   0  0  0  0  0  0  0  0  0  0  0  0
    0.2170   22.7970  -24.4250 C   0  0  0  0  0  0  0  0  0  0  0  0
    0.8930   23.9690  -24.2810 N   0  0  0  0  0  0  0  0  0  0  0  0
    0.9970   24.8590  -25.3020 C   0  0  0  0  0  0  0  0  0  0  0  0
    0.4040   24.5870  -26.5340 C   0  0  0  0  0  0  0  0  0  0  0  0
   -0.2970   23.3860  -26.7180 C   0  0  0  0  0  0  0  0  0  0  0  0
   -0.8720   23.0910  -28.0470 C   0  0  0  0  0  0  0  0  0  0  0  0
   -0.1440   22.7710  -29.1180 C   0  0  0  0  0  0  0  0  0  0  0  0
   -0.9910   22.6970  -30.3520 C   0  0  0  0  0  0  0  0  0  0  0  0
   -2.2250   23.4640  -29.8790 C   0  0  1  0  0  0  0  0  0  0  0  0
   -3.5440   23.4720  -30.6710 C   0  0  1  0  0  0  0  0  0  0  0  0
   -3.9990   22.1470  -31.2810 C   0  0  0  0  0  0  0  0  0  0  0  0
   -5.1550   22.4260  -32.2000 C   0  0  0  0  0  0  0  0  0  0  0  0
   -6.1370   23.2850  -31.8480 C   0  0  0  0  0  0  0  0  0  0  0  0
   -7.4680   23.1750  -32.5630 C   0  0  0  0  0  0  0  0  0  0  0  0
   -8.5600   22.6100  -31.6090 C   0  0  1  0  0  0  0  0  0  0  0  0
   -9.3640   21.6510  -32.3000 O   0  0  0  0  0  0  0  0  0  0  0  0
   -8.9210   20.3550  -32.5860 C   0  0  0  0  0  0  0  0  0  0  0  0
   -9.7360   19.3940  -32.6350 O   0  0  0  0  0  0  0  0  0  0  0  0
   -7.4610   20.0980  -32.7680 C   0  0  0  0  0  0  0  0  0  0  0  0
   -7.2670   18.8330  -33.4680 N   0  0  0  0  0  0  0  0  0  0  0  0
   -7.9630   21.9470  -30.3470 C   0  0  0  0  0  0  0  0  0  0  0  0
   -6.9490   22.8440  -29.5690 C   0  0  0  0  0  0  0  0  0  0  0  0
   -6.1610   23.8900  -30.4400 C   0  0  2  0  0  0  0  0  0  0  0  0
   -6.9430   25.2370  -30.4490 C   0  0  0  0  0  0  0  0  0  0  0  0
   -4.6920   24.2250  -29.9010 C   0  0  1  0  0  0  0  0  0  0  0  0
   -4.5900   24.2800  -28.3240 C   0  0  0  0  0  0  0  0  0  0  0  0
   -3.1590   24.2550  -27.7370 C   0  0  0  0  0  0  0  0  0  0  0  0
   -2.3350   23.1330  -28.3900 C   0  0  2  0  0  0  0  0  0  0  0  0
   -2.9330   21.7360  -28.0740 C   0  0  0  0  0  0  0  0  0  0  0  0
    0.0607   17.1840  -27.4175 H   0  0  0  0  0  0  0  0  0  0  0  0
   -1.3133   17.6868  -28.4596 H   0  0  0  0  0  0  0  0  0  0  0  0
    0.2095   18.6395  -28.4596 H   0  0  0  0  0  0  0  0  0  0  0  0
   -2.8145   18.7761  -25.6702 H   0  0  0  0  0  0  0  0  0  0  0  0
   -2.9001   19.6708  -27.2255 H   0  0  0  0  0  0  0  0  0  0  0  0
   -2.7964   17.8775  -27.2255 H   0  0  0  0  0  0  0  0  0  0  0  0
    0.5435   20.3209  -26.8475 H   0  0  0  0  0  0  0  0  0  0  0  0
   -0.9090   20.6713  -27.8588 H   0  0  0  0  0  0  0  0  0  0  0  0
   -2.1937   21.3579  -25.9843 H   0  0  0  0  0  0  0  0  0  0  0  0
   -1.0307   20.6061  -24.8188 H   0  0  0  0  0  0  0  0  0  0  0  0
    0.1462   22.1018  -23.5755 H   0  0  0  0  0  0  0  0  0  0  0  0
    1.3440   24.1900  -23.3660 H   0  0  0  0  0  0  0  0  0  0  0  0
    1.5512   25.7979  -25.1561 H   0  0  0  0  0  0  0  0  0  0  0  0
    0.4854   25.3110  -27.3582 H   0  0  0  0  0  0  0  0  0  0  0  0
    0.9400   22.5851  -29.0979 H   0  0  0  0  0  0  0  0  0  0  0  0
   -0.5078   23.1906  -31.2081 H   0  0  0  0  0  0  0  0  0  0  0  0
   -1.1917   21.6777  -30.7136 H   0  0  0  0  0  0  0  0  0  0  0  0
   -2.0439   24.5260  -30.1013 H   0  0  0  0  0  0  0  0  0  0  0  0
   -3.2921   24.0565  -31.5682 H   0  0  0  0  0  0  0  0  0  0  0  0
   -3.1724   21.6951  -31.8489 H   0  0  0  0  0  0  0  0  0  0  0  0
   -4.3038   21.4482  -30.4880 H   0  0  0  0  0  0  0  0  0  0  0  0
   -5.2026   21.9220  -33.1766 H   0  0  0  0  0  0  0  0  0  0  0  0
   -7.7741   24.1724  -32.9117 H   0  0  0  0  0  0  0  0  0  0  0  0
   -7.3554   22.4902  -33.4165 H   0  0  0  0  0  0  0  0  0  0  0  0
   -9.1703   23.4655  -31.2840 H   0  0  0  0  0  0  0  0  0  0  0  0
   -7.0170   20.9137  -33.3575 H   0  0  0  0  0  0  0  0  0  0  0  0
   -6.9749   20.0468  -31.7825 H   0  0  0  0  0  0  0  0  0  0  0  0
   -8.2000   18.3680  -33.5530 H   0  0  0  0  0  0  0  0  0  0  0  0
   -6.9500   19.0480  -34.4410 H   0  0  0  0  0  0  0  0  0  0  0  0
   -8.7898   21.6926  -29.6676 H   0  0  0  0  0  0  0  0  0  0  0  0
   -7.4041   21.0636  -30.6895 H   0  0  0  0  0  0  0  0  0  0  0  0
   -7.5073   23.3966  -28.7990 H   0  0  0  0  0  0  0  0  0  0  0  0
   -6.1909   22.1586  -29.1621 H   0  0  0  0  0  0  0  0  0  0  0  0
   -7.1301   25.5593  -29.4140 H   0  0  0  0  0  0  0  0  0  0  0  0
   -6.3488   26.0024  -30.9697 H   0  0  0  0  0  0  0  0  0  0  0  0
   -7.9023   25.1006  -30.9697 H   0  0  0  0  0  0  0  0  0  0  0  0
   -4.4930   25.2714  -30.1756 H   0  0  0  0  0  0  0  0  0  0  0  0
   -5.0760   25.2076  -27.9872 H   0  0  0  0  0  0  0  0  0  0  0  0
   -5.0755   23.3614  -27.9626 H   0  0  0  0  0  0  0  0  0  0  0  0
   -2.6712   25.2222  -27.9283 H   0  0  0  0  0  0  0  0  0  0  0  0
   -3.2191   24.0715  -26.6541 H   0  0  0  0  0  0  0  0  0  0  0  0
   -2.9912   21.6001  -26.9840 H   0  0  0  0  0  0  0  0  0  0  0  0
   -3.9415   21.6624  -28.5070 H   0  0  0  0  0  0  0  0  0  0  0  0
   -2.2901   20.9555  -28.5070 H   0  0  0  0  0  0  0  0  0  0  0  0
  1  2  1  0
  2  3  1  0
  2  4  1  0
  4  5  1  0
  5  6  1  0
  6  7  2  0
  7  8  1  0
  8  9  2  0
  9 10  1  0
 10 11  2  0
 11 12  1  0
 12 13  2  0
 13 14  1  0
 14 15  1  0
 15 16  1  0
 16 17  1  0
 17 18  1  0
 18 19  2  0
 19 20  1  0
 20 21  1  0
 21 22  1  0
 22 23  1  0
 23 24  2  0
 23 25  1  0
 25 26  1  0
 21 27  1  0
 27 28  1  0
 28 29  1  0
 29 30  1  6
 29 31  1  0
 31 32  1  0
 32 33  1  0
 33 34  1  0
 34 35  1  6
 11  6  1  0
 34 12  1  0
 34 15  1  0
 31 16  1  0
 29 19  1  0
  1 36  1  0
  1 37  1  0
  1 38  1  0
  3 39  1  0
  3 40  1  0
  3 41  1  0
  4 42  1  0
  4 43  1  0
  5 44  1  0
  5 45  1  0
  7 46  1  0
  8 47  1  0
  9 48  1  0
 10 49  1  0
 13 50  1  0
 14 51  1  0
 14 52  1  0
 15 53  1  1
 16 54  1  6
 17 55  1  0
 17 56  1  0
 18 57  1  0
 20 58  1  0
 20 59  1  0
 21 60  1  1
 25 61  1  0
 25 62  1  0
 26 63  1  0
 26 64  1  0
 27 65  1  0
 27 66  1  0
 28 67  1  0
 28 68  1  0
 30 69  1  0
 30 70  1  0
 30 71  1  0
 31 72  1  6
 32 73  1  0
 32 74  1  0
 33 75  1  0
 33 76  1  0
 35 77  1  0
 35 78  1  0
 35 79  1  0
M  CHG  1   8   1
M  END
>  <UniqueID>  (32) 
30

>  <SMILES>  (32) 
CN(C)CCc1c[nH+]ccc1C1=CC[C@H]2[C@H]3CC=C4CC(OC(=O)CN)CCC4(C)C3CCC12C

>  <Energy>  (32) 
137.5248660885544

>  <Genealogy>  (32) 
CN(C)CCc1c[nH+]ccc1C1=CCC2C3CC=C4CC(OC(=O)CN)CCC4(C)C3CCC12C (protonated)
CN(C)CCc1c[nH+]ccc1C1=CC[C@H]2[C@H]3CC=C4CC(OC(=O)CN)CCC4(C)C3CCC12C (chirality)
CN(C)CCc1c[nH+]ccc1C1=CC[C@H]2[C@H]3CC=C4CC(OC(=O)CN)CCC4(C)C3CCC12C (3D coordinates assigned)
CN(C)CCc1c[nH+]ccc1C1=CC[C@H]2[C@H]3CC=C4CC(OC(=O)CN)CCC4(C)C3CCC12C (nonaromatic ring conformer: 137.5248660885544 kcal/mol)

>  <smiles>  (32) 
CN(C)CCc1cnccc1C1=CCC2C3CC=C4CC(OC(=O)CN)CCC4(C)C3CCC12C

>  <score_type>  (32) 
oracle

>  <origin>  (32) 
adg

>  <m_score__min__energy>  (32) 
-10.83

>  <m_primary>  (32) 
energy

$$$$
32:0
     RDKit          3D

 26 28  0  0  0  0  0  0  0  0999 V2000
   -4.7060   20.5610  -33.4580 O   0  0  0  0  0  0  0  0  0  0  0  0
   -5.8730   20.2680  -33.0870 C   0  0  0  0  0  0  0  0  0  0  0  0
   -6.8600   21.2140  -32.5800 C   0  0  0  0  0  0  0  0  0  0  0  0
   -6.7700   22.5850  -32.3440 C   0  0  0  0  0  0  0  0  0  0  0  0
   -7.9070   23.2450  -31.8460 C   0  0  0  0  0  0  0  0  0  0  0  0
   -9.0990   22.5300  -31.5970 C   0  0  0  0  0  0  0  0  0  0  0  0
   -9.1650   21.1470  -31.8460 C   0  0  0  0  0  0  0  0  0  0  0  0
   -8.0260   20.5160  -32.3400 C   0  0  0  0  0  0  0  0  0  0  0  0
   -7.7860   19.1210  -32.6890 C   0  0  0  0  0  0  0  0  0  0  0  0
   -8.6160   18.1820  -32.5530 O   0  0  0  0  0  0  0  0  0  0  0  0
   -6.4420   18.9560  -33.1580 N   0  0  0  0  0  0  0  0  0  0  0  0
   -5.8010   17.7440  -33.5920 C   0  0  0  0  0  0  0  0  0  0  0  0
   -6.4570   16.5100  -33.4650 C   0  0  0  0  0  0  0  0  0  0  0  0
   -5.8230   15.3450  -33.8980 C   0  0  0  0  0  0  0  0  0  0  0  0
   -4.5440   15.4150  -34.4510 C   0  0  0  0  0  0  0  0  0  0  0  0
   -3.9180   14.2900  -34.8740 F   0  0  0  0  0  0  0  0  0  0  0  0
   -3.9170   16.6570  -34.5630 C   0  0  0  0  0  0  0  0  0  0  0  0
   -4.5490   17.7860  -34.1380 N   0  0  0  0  0  0  0  0  0  0  0  0
   -5.8374   23.1339  -32.5415 H   0  0  0  0  0  0  0  0  0  0  0  0
   -7.8678   24.3265  -31.6488 H   0  0  0  0  0  0  0  0  0  0  0  0
   -9.9814   23.0577  -31.2059 H   0  0  0  0  0  0  0  0  0  0  0  0
  -10.0888   20.5808  -31.6562 H   0  0  0  0  0  0  0  0  0  0  0  0
   -7.4648   16.4615  -33.0268 H   0  0  0  0  0  0  0  0  0  0  0  0
   -6.3304   14.3736  -33.8036 H   0  0  0  0  0  0  0  0  0  0  0  0
   -2.9082   16.7242  -34.9963 H   0  0  0  0  0  0  0  0  0  0  0  0
   -4.0410   18.6950  -34.2140 H   0  0  0  0  0  0  0  0  0  0  0  0
  1  2  2  0
  2  3  1  0
  3  4  2  0
  4  5  1  0
  5  6  2  0
  6  7  1  0
  7  8  2  0
  8  9  1  0
  9 10  2  0
  9 11  1  0
 11 12  1  0
 12 13  2  0
 13 14  1  0
 14 15  2  0
 15 16  1  0
 15 17  1  0
 17 18  2  0
 11  2  1  0
 18 12  1  0
  8  3  1  0
  4 19  1  0
  5 20  1  0
  6 21  1  0
  7 22  1  0
 13 23  1  0
 14 24  1  0
 17 25  1  0
 18 26  1  0
M  CHG  1  18   1
M  END
>  <UniqueID>  (33) 
31

>  <SMILES>  (33) 
O=C1c2ccccc2C(=O)N1c1ccc(F)c[nH+]1

>  <Energy>  (33) 
65.67643629369095

>  <Genealogy>  (33) 
O=C1c2ccccc2C(=O)N1c1ccc(F)c[nH+]1 (protonated)
O=C1c2ccccc2C(=O)N1c1ccc(F)c[nH+]1 (3D coordinates assigned)
O=C1c2ccccc2C(=O)N1c1ccc(F)c[nH+]1 (nonaromatic ring conformer: 65.67643629369095 kcal/mol)

>  <smiles>  (33) 
O=C1c2ccccc2C(=O)N1c1ccc(F)cn1

>  <score_type>  (33) 
oracle

>  <origin>  (33) 
adg

>  <m_score__min__energy>  (33) 
-5.9800000000000004

>  <m_primary>  (33) 
energy

$$$$
33:0
     RDKit          3D

 45 47  0  0  0  0  0  0  0  0999 V2000
   -7.3892   21.9927  -33.2567 H   0  0  0  0  0  0  0  0  0  0  0  0
   -7.8460   21.9490  -32.2570 C   0  0  0  0  0  0  0  0  0  0  0  0
   -8.4760   20.6960  -31.8160 C   0  0  0  0  0  0  0  0  0  0  0  0
   -9.1990   20.7190  -30.7860 O   0  0  0  0  0  0  0  0  0  0  0  0
   -8.2550   19.4390  -32.4720 N   0  0  0  0  0  0  0  0  0  0  0  0
   -6.7970   18.4920  -32.4330 S   0  0  0  0  0  0  0  0  0  0  0  0
   -6.8490   17.4710  -33.5350 O   0  0  0  0  0  0  0  0  0  0  0  0
   -6.7180   17.7780  -31.1130 O   0  0  0  0  0  0  0  0  0  0  0  0
   -5.3580   19.4980  -32.5980 C   0  0  0  0  0  0  0  0  0  0  0  0
   -5.0780   20.5010  -31.6570 C   0  0  0  0  0  0  0  0  0  0  0  0
   -5.7825   20.6931  -30.8344 H   0  0  0  0  0  0  0  0  0  0  0  0
   -3.9060   21.2570  -31.7620 C   0  0  0  0  0  0  0  0  0  0  0  0
   -3.6833   22.0324  -31.0142 H   0  0  0  0  0  0  0  0  0  0  0  0
   -3.0180   21.0280  -32.8160 C   0  0  0  0  0  0  0  0  0  0  0  0
   -2.0946   21.6205  -32.8959 H   0  0  0  0  0  0  0  0  0  0  0  0
   -3.3030   20.0460  -33.7690 C   0  0  0  0  0  0  0  0  0  0  0  0
   -2.6070   19.8714  -34.6027 H   0  0  0  0  0  0  0  0  0  0  0  0
   -4.4720   19.2850  -33.6640 C   0  0  0  0  0  0  0  0  0  0  0  0
   -4.6969   18.5177  -34.4194 H   0  0  0  0  0  0  0  0  0  0  0  0
   -7.8110   23.0380  -31.4800 C   0  0  0  0  0  0  0  0  0  0  0  0
   -8.7578   23.5556  -31.2663 H   0  0  0  0  0  0  0  0  0  0  0  0
   -6.5650   23.5840  -30.8920 C   0  0  0  0  0  0  0  0  0  0  0  0
   -5.8510   24.5520  -31.6140 C   0  0  0  0  0  0  0  0  0  0  0  0
   -6.2673   24.9544  -32.5493 H   0  0  0  0  0  0  0  0  0  0  0  0
   -4.6480   24.9950  -31.1640 N   0  0  0  0  0  0  0  0  0  0  0  0
   -4.1050   24.5470  -29.9990 C   0  0  0  0  0  0  0  0  0  0  0  0
   -2.8410   24.9820  -29.5840 O   0  0  0  0  0  0  0  0  0  0  0  0
   -2.1200   24.3780  -28.5130 C   0  0  0  0  0  0  0  0  0  0  0  0
   -1.2139   24.9670  -28.3079 H   0  0  0  0  0  0  0  0  0  0  0  0
   -2.7620   24.3506  -27.6202 H   0  0  0  0  0  0  0  0  0  0  0  0
   -1.7260   22.9710  -28.8760 C   0  0  0  0  0  0  0  0  0  0  0  0
   -2.0940   21.9030  -28.0430 C   0  0  0  0  0  0  0  0  0  0  0  0
   -2.6399   22.1006  -27.1087 H   0  0  0  0  0  0  0  0  0  0  0  0
   -1.7700   20.5890  -28.3950 C   0  0  0  0  0  0  0  0  0  0  0  0
   -2.0611   19.7562  -27.7379 H   0  0  0  0  0  0  0  0  0  0  0  0
   -1.0760   20.3330  -29.5820 C   0  0  0  0  0  0  0  0  0  0  0  0
   -0.8190   19.2993  -29.8567 H   0  0  0  0  0  0  0  0  0  0  0  0
   -0.7090   21.3900  -30.4190 C   0  0  0  0  0  0  0  0  0  0  0  0
   -0.0450   21.1400  -31.5730 F   0  0  0  0  0  0  0  0  0  0  0  0
   -1.0320   22.7060  -30.0690 C   0  0  0  0  0  0  0  0  0  0  0  0
   -0.7416   23.5359  -30.7300 H   0  0  0  0  0  0  0  0  0  0  0  0
   -4.8070   23.6290  -29.2170 C   0  0  0  0  0  0  0  0  0  0  0  0
   -4.3944   23.2896  -28.2554 H   0  0  0  0  0  0  0  0  0  0  0  0
   -6.0370   23.1450  -29.6650 C   0  0  0  0  0  0  0  0  0  0  0  0
   -6.5949   22.4181  -29.0565 H   0  0  0  0  0  0  0  0  0  0  0  0
  1  2  1  0
  2  3  1  0
  3  4  2  0
  3  5  1  0
  5  6  1  0
  6  7  2  0
  6  8  2  0
  6  9  1  0
  9 10  2  0
 10 11  1  0
 10 12  1  0
 12 13  1  0
 12 14  2  0
 14 15  1  0
 14 16  1  0
 16 17  1  0
 16 18  2  0
 18 19  1  0
  2 20  2  0
 20 21  1  0
 20 22  1  0
 22 23  2  0
 23 24  1  0
 23 25  1  0
 25 26  2  0
 26 27  1  0
 27 28  1  0
 28 29  1  0
 28 30  1  0
 28 31  1  0
 31 32  2  0
 32 33  1  0
 32 34  1  0
 34 35  1  0
 34 36  2  0
 36 37  1  0
 36 38  1  0
 38 39  1  0
 38 40  2  0
 40 41  1  0
 26 42  1  0
 42 43  1  0
 42 44  2  0
 44 45  1  0
 18  9  1  0
 44 22  1  0
 40 31  1  0
M  CHG  1   5  -1
M  END
>  <UniqueID>  (34) 
32

>  <SMILES>  (34) 
O=C(/C=C/c1ccc(OCc2cccc(F)c2)nc1)[N-]S(=O)(=O)c1ccccc1

>  <Energy>  (34) 
52.120181189902496

>  <Genealogy>  (34) 
O=C(C=Cc1ccc(OCc2cccc(F)c2)nc1)[N-]S(=O)(=O)c1ccccc1 (protonated)
O=C(/C=C/c1ccc(OCc2cccc(F)c2)nc1)[N-]S(=O)(=O)c1ccccc1 (cis-trans isomerization)
O=C(/C=C/c1ccc(OCc2cccc(F)c2)nc1)[N-]S(=O)(=O)c1ccccc1 (3D coordinates assigned)
O=C(/C=C/c1ccc(OCc2cccc(F)c2)nc1)[N-]S(=O)(=O)c1ccccc1 (optimized conformer: 52.120181189902496 kcal/mol)

>  <smiles>  (34) 
O=C(C=Cc1ccc(OCc2cccc(F)c2)nc1)NS(=O)(=O)c1ccccc1

>  <score_type>  (34) 
oracle

>  <origin>  (34) 
adg

>  <m_score__min__energy>  (34) 
-10.66

>  <m_primary>  (34) 
energy

$$$$
34:0
     RDKit          3D

 44 48  0  0  0  0  0  0  0  0999 V2000
   -8.6030   11.4580  -35.4210 C   0  0  0  0  0  0  0  0  0  0  0  0
   -7.3630   11.6790  -34.7590 O   0  0  0  0  0  0  0  0  0  0  0  0
   -6.8080   12.9450  -34.5200 C   0  0  0  0  0  0  0  0  0  0  0  0
   -7.6200   14.0710  -34.6870 C   0  0  0  0  0  0  0  0  0  0  0  0
   -7.1140   15.3540  -34.4600 C   0  0  0  0  0  0  0  0  0  0  0  0
   -5.7800   15.5310  -34.0570 C   0  0  0  0  0  0  0  0  0  0  0  0
   -5.2310   16.8880  -33.8190 C   0  0  0  0  0  0  0  0  0  0  0  0
   -3.9460   17.2000  -34.1890 N   0  0  0  0  0  0  0  0  0  0  0  0
   -3.4270   18.4540  -33.9830 C   0  0  0  0  0  0  0  0  0  0  0  0
   -4.1750   19.4290  -33.3880 N   0  0  0  0  0  0  0  0  0  0  0  0
   -5.4360   19.1190  -33.0030 C   0  0  0  0  0  0  0  0  0  0  0  0
   -5.9800   17.8980  -33.2110 C   0  0  0  0  0  0  0  0  0  0  0  0
   -7.2440   17.8640  -32.7490 N   0  0  0  0  0  0  0  0  0  0  0  0
   -7.4290   19.1250  -32.2730 C   0  0  0  0  0  0  0  0  0  0  0  0
   -6.3350   19.9210  -32.4100 N   0  0  0  0  0  0  0  0  0  0  0  0
   -6.2010   21.2980  -32.0140 C   0  0  0  0  0  0  0  0  0  0  0  0
   -7.2910   22.1950  -32.1260 C   0  0  0  0  0  0  0  0  0  0  0  0
   -7.1530   23.5390  -31.7440 C   0  0  0  0  0  0  0  0  0  0  0  0
   -5.9190   23.9680  -31.2560 C   0  0  0  0  0  0  0  0  0  0  0  0
   -4.8640   23.1200  -31.1510 C   0  0  0  0  0  0  0  0  0  0  0  0
   -4.9660   21.7780  -31.5240 C   0  0  0  0  0  0  0  0  0  0  0  0
   -3.6860   23.8310  -30.6150 C   0  0  0  0  0  0  0  0  0  0  0  0
   -4.1230   25.2230  -30.3860 N   0  0  0  0  0  0  0  0  0  0  0  0
   -5.5360   25.3210  -30.8020 C   0  0  0  0  0  0  0  0  0  0  0  0
   -4.9610   14.4020  -33.8950 C   0  0  0  0  0  0  0  0  0  0  0  0
   -5.4680   13.1190  -34.1210 C   0  0  0  0  0  0  0  0  0  0  0  0
   -9.3975   11.3164  -34.6736 H   0  0  0  0  0  0  0  0  0  0  0  0
   -8.8426   12.3276  -36.0506 H   0  0  0  0  0  0  0  0  0  0  0  0
   -8.5274   10.5592  -36.0506 H   0  0  0  0  0  0  0  0  0  0  0  0
   -8.6671   13.9459  -35.0000 H   0  0  0  0  0  0  0  0  0  0  0  0
   -7.7643   16.2304  -34.5978 H   0  0  0  0  0  0  0  0  0  0  0  0
   -3.3470   16.4870  -34.6600 H   0  0  0  0  0  0  0  0  0  0  0  0
   -2.3975   18.6757  -34.3007 H   0  0  0  0  0  0  0  0  0  0  0  0
   -8.3717   19.4673  -31.8213 H   0  0  0  0  0  0  0  0  0  0  0  0
   -8.2547   21.8355  -32.5159 H   0  0  0  0  0  0  0  0  0  0  0  0
   -7.9987   24.2375  -31.8277 H   0  0  0  0  0  0  0  0  0  0  0  0
   -4.0993   21.1061  -31.4377 H   0  0  0  0  0  0  0  0  0  0  0  0
   -3.3594   23.3722  -29.6701 H   0  0  0  0  0  0  0  0  0  0  0  0
   -2.8350   23.7841  -31.3104 H   0  0  0  0  0  0  0  0  0  0  0  0
   -4.0630   25.4260  -29.3600 H   0  0  0  0  0  0  0  0  0  0  0  0
   -6.1639   25.6321  -29.9541 H   0  0  0  0  0  0  0  0  0  0  0  0
   -5.6719   26.0678  -31.5981 H   0  0  0  0  0  0  0  0  0  0  0  0
   -3.9123   14.5281  -33.5879 H   0  0  0  0  0  0  0  0  0  0  0  0
   -4.8181   12.2417  -33.9868 H   0  0  0  0  0  0  0  0  0  0  0  0
  1  2  1  0
  2  3  1  0
  3  4  2  0
  4  5  1  0
  5  6  2  0
  6  7  1  0
  7  8  2  0
  8  9  1  0
  9 10  2  0
 10 11  1  0
 11 12  2  0
 12 13  1  0
 13 14  2  0
 14 15  1  0
 15 16  1  0
 16 17  2  0
 17 18  1  0
 18 19  2  0
 19 20  1  0
 20 21  2  0
 20 22  1  0
 22 23  1  0
 23 24  1  0
  6 25  1  0
 25 26  2  0
 26  3  1  0
 12  7  1  0
 21 16  1  0
 15 11  1  0
 24 19  1  0
  1 27  1  0
  1 28  1  0
  1 29  1  0
  4 30  1  0
  5 31  1  0
  8 32  1  0
  9 33  1  0
 14 34  1  0
 17 35  1  0
 18 36  1  0
 21 37  1  0
 22 38  1  0
 22 39  1  0
 23 40  1  0
 24 41  1  0
 24 42  1  0
 25 43  1  0
 26 44  1  0
M  CHG  1   8   1
M  END
>  <UniqueID>  (35) 
33

>  <SMILES>  (35) 
COc1ccc(-c2[nH+]cnc3c2ncn3-c2ccc3c(c2)CNC3)cc1

>  <Energy>  (35) 
108.58296886477018

>  <Genealogy>  (35) 
COc1ccc(-c2[nH+]cnc3c2ncn3-c2ccc3c(c2)CNC3)cc1 (protonated)
COc1ccc(-c2[nH+]cnc3c2ncn3-c2ccc3c(c2)CNC3)cc1 (3D coordinates assigned)
COc1ccc(-c2[nH+]cnc3c2ncn3-c2ccc3c(c2)CNC3)cc1 (nonaromatic ring conformer: 108.58296886477018 kcal/mol)

>  <smiles>  (35) 
COc1ccc(-c2ncnc3c2ncn3-c2ccc3c(c2)CNC3)cc1

>  <score_type>  (35) 
oracle

>  <origin>  (35) 
adg

>  <m_score__min__energy>  (35) 
-7.7999999999999998

>  <m_primary>  (35) 
energy

$$$$
35:0
     RDKit          3D

 46 49  0  0  1  0  0  0  0  0999 V2000
   -0.8670   26.5230  -28.1900 C   0  0  0  0  0  0  0  0  0  0  0  0
   -1.6290   25.6340  -28.9850 O   0  0  0  0  0  0  0  0  0  0  0  0
   -1.7860   24.3290  -28.5270 C   0  0  0  0  0  0  0  0  0  0  0  0
   -1.1910   23.8750  -27.3680 C   0  0  0  0  0  0  0  0  0  0  0  0
   -1.3500   22.5660  -26.9140 C   0  0  0  0  0  0  0  0  0  0  0  0
   -0.5460   22.0860  -25.4190 Cl  0  0  0  0  0  0  0  0  0  0  0  0
   -2.1270   21.6750  -27.6300 C   0  0  0  0  0  0  0  0  0  0  0  0
   -2.2640   20.3080  -27.1110 C   0  0  0  0  0  0  0  0  0  0  0  0
   -2.7340   22.1190  -28.8020 C   0  0  0  0  0  0  0  0  0  0  0  0
   -2.5690   23.4160  -29.2420 C   0  0  0  0  0  0  0  0  0  0  0  0
   -3.1700   23.9160  -30.4340 N   0  0  0  0  0  0  0  0  0  0  0  0
   -4.4230   24.2140  -30.4590 C   0  0  0  0  0  0  0  0  0  0  0  0
   -4.8690   25.3870  -29.9540 N   0  0  0  0  0  0  0  0  0  0  0  0
   -6.1640   25.7380  -29.9600 C   0  0  0  0  0  0  0  0  0  0  0  0
   -7.1160   24.9220  -30.4800 N   0  0  0  0  0  0  0  0  0  0  0  0
   -6.6940   23.7330  -30.9940 C   0  0  0  0  0  0  0  0  0  0  0  0
   -7.6820   22.9140  -31.5200 C   0  0  0  0  0  0  0  0  0  0  0  0
   -7.2850   21.7040  -32.0480 C   0  0  0  0  0  0  0  0  0  0  0  0
   -5.9380   21.3390  -32.0430 C   0  0  0  0  0  0  0  0  0  0  0  0
   -5.6300   20.0500  -32.6200 C   0  0  0  0  0  0  0  0  0  0  0  0
   -5.3650   18.9680  -33.0820 C   0  0  0  0  0  0  0  0  0  0  0  0
   -5.0570   17.6670  -33.6170 C   0  0  0  0  0  0  0  0  0  0  0  0
   -5.9570   16.6570  -33.3370 C   0  0  0  0  0  0  0  0  0  0  0  0
   -5.7040   15.3900  -33.8290 C   0  0  0  0  0  0  0  0  0  0  0  0
   -4.5780   15.1630  -34.5770 C   0  0  0  0  0  0  0  0  0  0  0  0
   -3.7050   16.1590  -34.8440 N   0  0  0  0  0  0  0  0  0  0  0  0
   -3.9350   17.4090  -34.3710 C   0  0  0  0  0  0  0  0  0  0  0  0
   -4.9620   22.1650  -31.5140 C   0  0  0  0  0  0  0  0  0  0  0  0
   -5.3740   23.3690  -30.9910 C   0  0  0  0  0  0  0  0  0  0  0  0
   -1.0487   26.3110  -27.1260 H   0  0  0  0  0  0  0  0  0  0  0  0
    0.2019   26.3900  -28.4130 H   0  0  0  0  0  0  0  0  0  0  0  0
   -1.1619   27.5590  -28.4130 H   0  0  0  0  0  0  0  0  0  0  0  0
   -0.5702   24.5689  -26.7822 H   0  0  0  0  0  0  0  0  0  0  0  0
   -2.2617   20.3314  -26.0113 H   0  0  0  0  0  0  0  0  0  0  0  0
   -3.2101   19.8739  -27.4665 H   0  0  0  0  0  0  0  0  0  0  0  0
   -1.4228   19.6948  -27.4665 H   0  0  0  0  0  0  0  0  0  0  0  0
   -3.3551   21.4243  -29.3864 H   0  0  0  0  0  0  0  0  0  0  0  0
   -6.4606   26.7080  -29.5343 H   0  0  0  0  0  0  0  0  0  0  0  0
   -8.1140   25.2060  -30.4780 H   0  0  0  0  0  0  0  0  0  0  0  0
   -8.7393   23.2175  -31.5160 H   0  0  0  0  0  0  0  0  0  0  0  0
   -8.0345   21.0220  -32.4759 H   0  0  0  0  0  0  0  0  0  0  0  0
   -6.8559   16.8567  -32.7353 H   0  0  0  0  0  0  0  0  0  0  0  0
   -6.4037   14.5671  -33.6210 H   0  0  0  0  0  0  0  0  0  0  0  0
   -4.3819   14.1531  -34.9664 H   0  0  0  0  0  0  0  0  0  0  0  0
   -3.2232   18.2184  -34.5905 H   0  0  0  0  0  0  0  0  0  0  0  0
   -3.9019   21.8715  -31.5117 H   0  0  0  0  0  0  0  0  0  0  0  0
  1  2  1  0
  2  3  1  0
  3  4  2  0
  4  5  1  0
  5  6  1  0
  5  7  2  0
  7  8  1  0
  7  9  1  0
  9 10  2  0
 10 11  1  0
 11 12  2  0
 12 13  1  0
 13 14  2  0
 14 15  1  0
 15 16  1  0
 16 17  2  0
 17 18  1  0
 18 19  2  0
 19 20  1  0
 20 21  3  0
 21 22  1  0
 22 23  2  0
 23 24  1  0
 24 25  2  0
 25 26  1  0
 26 27  2  0
 19 28  1  0
 28 29  2  0
 10  3  1  0
 29 12  1  0
 29 16  1  0
 27 22  1  0
  1 30  1  0
  1 31  1  0
  1 32  1  0
  4 33  1  0
  8 34  1  0
  8 35  1  0
  8 36  1  0
  9 37  1  0
 14 38  1  0
 15 39  1  0
 17 40  1  0
 18 41  1  0
 23 42  1  0
 24 43  1  0
 25 44  1  0
 27 45  1  0
 28 46  1  0
M  END
>  <smiles>  (36) 
COc1cc(Cl)c(C)cc1N=c1nc[nH]c2ccc(C#Cc3cccnc3)cc12

>  <score_type>  (36) 
oracle

>  <origin>  (36) 
adg

>  <m_score__min__energy>  (36) 
-8.9800000000000004

>  <m_primary>  (36) 
energy

$$$$
36:0
     RDKit          3D

 47 50  0  0  0  0  0  0  0  0999 V2000
    0.3000   26.9570  -23.4260 C   0  0  0  0  0  0  0  0  0  0  0  0
   -0.8770   26.8590  -24.2210 O   0  0  0  0  0  0  0  0  0  0  0  0
   -1.0140   26.0170  -25.3350 C   0  0  0  0  0  0  0  0  0  0  0  0
   -0.9570   24.6160  -25.2310 C   0  0  0  0  0  0  0  0  0  0  0  0
   -1.1010   23.8180  -26.3690 C   0  0  0  0  0  0  0  0  0  0  0  0
   -1.3130   24.4030  -27.6290 C   0  0  0  0  0  0  0  0  0  0  0  0
   -1.4630   23.5520  -28.8290 C   0  0  0  0  0  0  0  0  0  0  0  0
   -0.6690   22.4820  -29.0900 N   0  0  0  0  0  0  0  0  0  0  0  0
   -1.1920   21.9620  -30.2210 C   0  0  0  0  0  0  0  0  0  0  0  0
   -0.7220   20.8360  -30.8930 C   0  0  0  0  0  0  0  0  0  0  0  0
   -1.4020   20.4380  -32.0550 C   0  0  0  0  0  0  0  0  0  0  0  0
   -2.5220   21.1630  -32.5090 C   0  0  0  0  0  0  0  0  0  0  0  0
   -2.9520   22.2880  -31.7920 C   0  0  0  0  0  0  0  0  0  0  0  0
   -2.2600   22.6400  -30.6770 N   0  0  0  0  0  0  0  0  0  0  0  0
   -2.4360   23.6540  -29.8180 C   0  0  0  0  0  0  0  0  0  0  0  0
   -3.4220   24.6840  -29.9680 N   0  0  0  0  0  0  0  0  0  0  0  0
   -4.8630   24.4110  -30.0480 C   0  0  0  0  0  0  0  0  0  0  0  0
   -5.2090   23.0560  -29.4010 C   0  0  0  0  0  0  0  0  0  0  0  0
   -6.7160   22.7790  -29.4810 C   0  0  0  0  0  0  0  0  0  0  0  0
   -7.2110   22.8370  -30.9310 C   0  0  0  0  0  0  0  0  0  0  0  0
   -6.8690   24.1860  -31.5760 C   0  0  0  0  0  0  0  0  0  0  0  0
   -5.3620   24.4610  -31.5040 C   0  0  0  0  0  0  0  0  0  0  0  0
   -1.3580   25.8070  -27.7320 C   0  0  0  0  0  0  0  0  0  0  0  0
   -1.5670   26.4230  -28.9620 O   0  0  0  0  0  0  0  0  0  0  0  0
   -1.2100   26.6010  -26.5900 C   0  0  0  0  0  0  0  0  0  0  0  0
    0.0260   26.9342  -22.3609 H   0  0  0  0  0  0  0  0  0  0  0  0
    0.9662   26.1112  -23.6514 H   0  0  0  0  0  0  0  0  0  0  0  0
    0.8172   27.9013  -23.6514 H   0  0  0  0  0  0  0  0  0  0  0  0
   -0.7983   24.1459  -24.2492 H   0  0  0  0  0  0  0  0  0  0  0  0
   -1.0480   22.7231  -26.2778 H   0  0  0  0  0  0  0  0  0  0  0  0
    0.1519   20.2779  -30.5259 H   0  0  0  0  0  0  0  0  0  0  0  0
   -1.0586   19.5552  -32.6143 H   0  0  0  0  0  0  0  0  0  0  0  0
   -3.0544   20.8485  -33.4187 H   0  0  0  0  0  0  0  0  0  0  0  0
   -3.8252   22.8696  -32.1227 H   0  0  0  0  0  0  0  0  0  0  0  0
   -3.1140   25.6700  -29.8130 H   0  0  0  0  0  0  0  0  0  0  0  0
   -5.3802   25.2016  -29.4845 H   0  0  0  0  0  0  0  0  0  0  0  0
   -4.6676   22.2567  -29.9282 H   0  0  0  0  0  0  0  0  0  0  0  0
   -4.9135   23.0870  -28.3419 H   0  0  0  0  0  0  0  0  0  0  0  0
   -6.9198   21.7786  -29.0714 H   0  0  0  0  0  0  0  0  0  0  0  0
   -7.2444   23.5492  -28.9001 H   0  0  0  0  0  0  0  0  0  0  0  0
   -6.7321   22.0314  -31.5069 H   0  0  0  0  0  0  0  0  0  0  0  0
   -8.3042   22.7152  -30.9328 H   0  0  0  0  0  0  0  0  0  0  0  0
   -7.1823   24.1707  -32.6303 H   0  0  0  0  0  0  0  0  0  0  0  0
   -7.3977   24.9808  -31.0294 H   0  0  0  0  0  0  0  0  0  0  0  0
   -4.8287   23.7009  -32.0938 H   0  0  0  0  0  0  0  0  0  0  0  0
   -5.1686   25.4659  -31.9074 H   0  0  0  0  0  0  0  0  0  0  0  0
   -1.2482   27.6966  -26.6803 H   0  0  0  0  0  0  0  0  0  0  0  0
  1  2  1  0
  2  3  1  0
  3  4  2  0
  4  5  1  0
  5  6  2  0
  6  7  1  0
  7  8  1  0
  8  9  2  0
  9 10  1  0
 10 11  2  0
 11 12  1  0
 12 13  2  0
 13 14  1  0
 14 15  1  0
 15 16  1  0
 16 17  1  0
 17 18  1  0
 18 19  1  0
 19 20  1  0
 20 21  1  0
 21 22  1  0
  6 23  1  0
 23 24  1  0
 23 25  2  0
 25  3  1  0
 15  7  2  0
 22 17  1  0
 14  9  1  0
  1 26  1  0
  1 27  1  0
  1 28  1  0
  4 29  1  0
  5 30  1  0
 10 31  1  0
 11 32  1  0
 12 33  1  0
 13 34  1  0
 16 35  1  0
 17 36  1  0
 18 37  1  0
 18 38  1  0
 19 39  1  0
 19 40  1  0
 20 41  1  0
 20 42  1  0
 21 43  1  0
 21 44  1  0
 22 45  1  0
 22 46  1  0
 25 47  1  0
M  CHG  1  24  -1
M  END
>  <UniqueID>  (37) 
34

>  <SMILES>  (37) 
COc1ccc(-c2nc3ccccn3c2NC2CCCCC2)c([O-])c1

>  <Energy>  (37) 
87.25688332824613

>  <Genealogy>  (37) 
COc1ccc(-c2nc3ccccn3c2NC2CCCCC2)c([O-])c1 (protonated)
COc1ccc(-c2nc3ccccn3c2NC2CCCCC2)c([O-])c1 (3D coordinates assigned)
COc1ccc(-c2nc3ccccn3c2NC2CCCCC2)c([O-])c1 (nonaromatic ring conformer: 87.25688332824613 kcal/mol)

>  <smiles>  (37) 
COc1ccc(-c2nc3ccccn3c2NC2CCCCC2)c(O)c1

>  <score_type>  (37) 
oracle

>  <origin>  (37) 
adg

>  <m_score__min__energy>  (37) 
-10.5

>  <m_primary>  (37) 
energy

$$$$
37:0
     RDKit          3D

 66 69  0  0  0  0  0  0  0  0999 V2000
   -1.5980   26.3190  -25.4750 C   0  0  0  0  0  0  0  0  0  0  0  0
   -0.2140   26.6980  -25.9940 C   0  0  0  0  0  0  0  0  0  0  0  0
   -0.2260   26.8780  -27.5180 C   0  0  0  0  0  0  0  0  0  0  0  0
   -0.7520   25.6680  -28.2320 C   0  0  0  0  0  0  0  0  0  0  0  0
   -0.0860   24.4980  -28.3420 N   0  0  0  0  0  0  0  0  0  0  0  0
   -0.9410   23.7060  -29.0210 C   0  0  0  0  0  0  0  0  0  0  0  0
   -0.6070   22.3190  -29.4170 C   0  0  0  0  0  0  0  0  0  0  0  0
   -0.0940   21.3920  -28.4920 C   0  0  0  0  0  0  0  0  0  0  0  0
    0.2220   20.0920  -28.8970 C   0  0  0  0  0  0  0  0  0  0  0  0
    0.0420   19.7070  -30.2280 C   0  0  0  0  0  0  0  0  0  0  0  0
   -0.4430   20.6280  -31.1610 C   0  0  0  0  0  0  0  0  0  0  0  0
   -0.7600   21.9290  -30.7600 C   0  0  0  0  0  0  0  0  0  0  0  0
   -2.0880   24.4350  -29.3080 C   0  0  0  0  0  0  0  0  0  0  0  0
   -3.3070   24.0120  -30.0840 C   0  0  0  0  0  0  0  0  0  0  0  0
   -4.5360   24.6320  -29.5620 N   0  0  0  0  0  0  0  0  0  0  0  0
   -5.3630   25.2020  -30.6350 C   0  0  0  0  0  0  0  0  0  0  0  0
   -6.8390   24.8780  -30.3770 C   0  0  0  0  0  0  0  0  0  0  0  0
   -7.2950   23.7850  -31.2630 N   0  0  0  0  0  0  0  0  0  0  0  0
   -7.7370   22.6240  -30.4620 C   0  0  0  0  0  0  0  0  0  0  0  0
   -8.0390   21.4180  -31.3540 C   0  0  0  0  0  0  0  0  0  0  0  0
   -6.8620   21.0640  -32.1580 N   0  0  0  0  0  0  0  0  0  0  0  0
   -6.7440   19.7350  -32.7130 C   0  0  0  0  0  0  0  0  0  0  0  0
   -7.5270   18.6810  -32.2140 C   0  0  0  0  0  0  0  0  0  0  0  0
   -7.3960   17.3910  -32.7350 C   0  0  0  0  0  0  0  0  0  0  0  0
   -6.4810   17.1360  -33.7580 C   0  0  0  0  0  0  0  0  0  0  0  0
   -5.6870   18.1780  -34.2730 C   0  0  0  0  0  0  0  0  0  0  0  0
   -4.7510   17.9740  -35.2970 O   0  0  0  0  0  0  0  0  0  0  0  0
   -3.7130   16.9980  -35.2570 C   0  0  0  0  0  0  0  0  0  0  0  0
   -5.8250   19.4700  -33.7470 C   0  0  0  0  0  0  0  0  0  0  0  0
   -5.7550   22.0220  -32.2570 C   0  0  0  0  0  0  0  0  0  0  0  0
   -6.2960   23.4590  -32.3210 C   0  0  0  0  0  0  0  0  0  0  0  0
   -1.9360   25.6320  -28.8000 O   0  0  0  0  0  0  0  0  0  0  0  0
   -1.5903   26.3211  -24.3750 H   0  0  0  0  0  0  0  0  0  0  0  0
   -2.3379   27.0476  -25.8379 H   0  0  0  0  0  0  0  0  0  0  0  0
   -1.8635   25.3151  -25.8379 H   0  0  0  0  0  0  0  0  0  0  0  0
    0.1004   27.6412  -25.5233 H   0  0  0  0  0  0  0  0  0  0  0  0
    0.4871   25.8884  -25.7432 H   0  0  0  0  0  0  0  0  0  0  0  0
   -0.8626   27.7398  -27.7670 H   0  0  0  0  0  0  0  0  0  0  0  0
    0.8121   27.0361  -27.8455 H   0  0  0  0  0  0  0  0  0  0  0  0
    0.0593   21.6915  -27.4447 H   0  0  0  0  0  0  0  0  0  0  0  0
    0.6136   19.3698  -28.1655 H   0  0  0  0  0  0  0  0  0  0  0  0
    0.2817   18.6802  -30.5414 H   0  0  0  0  0  0  0  0  0  0  0  0
   -0.5753   20.3288  -32.2112 H   0  0  0  0  0  0  0  0  0  0  0  0
   -1.1318   22.6531  -31.4999 H   0  0  0  0  0  0  0  0  0  0  0  0
   -3.1789   24.3082  -31.1356 H   0  0  0  0  0  0  0  0  0  0  0  0
   -3.4095   22.9211  -29.9873 H   0  0  0  0  0  0  0  0  0  0  0  0
   -4.2810   25.3970  -28.8930 H   0  0  0  0  0  0  0  0  0  0  0  0
   -5.2273   26.2933  -30.6608 H   0  0  0  0  0  0  0  0  0  0  0  0
   -5.0581   24.7690  -31.5991 H   0  0  0  0  0  0  0  0  0  0  0  0
   -6.9633   24.5691  -29.3286 H   0  0  0  0  0  0  0  0  0  0  0  0
   -7.4403   25.7757  -30.5833 H   0  0  0  0  0  0  0  0  0  0  0  0
   -6.9414   22.3545  -29.7518 H   0  0  0  0  0  0  0  0  0  0  0  0
   -8.6576   22.9005  -29.9272 H   0  0  0  0  0  0  0  0  0  0  0  0
   -8.3166   20.5613  -30.7224 H   0  0  0  0  0  0  0  0  0  0  0  0
   -8.8673   21.6751  -32.0307 H   0  0  0  0  0  0  0  0  0  0  0  0
   -8.2491   18.8726  -31.4066 H   0  0  0  0  0  0  0  0  0  0  0  0
   -8.0159   16.5738  -32.3377 H   0  0  0  0  0  0  0  0  0  0  0  0
   -6.3802   16.1181  -34.1627 H   0  0  0  0  0  0  0  0  0  0  0  0
   -3.4672   16.7669  -34.2100 H   0  0  0  0  0  0  0  0  0  0  0  0
   -4.0506   16.0826  -35.7651 H   0  0  0  0  0  0  0  0  0  0  0  0
   -2.8201   17.3913  -35.7651 H   0  0  0  0  0  0  0  0  0  0  0  0
   -5.2074   20.2877  -34.1470 H   0  0  0  0  0  0  0  0  0  0  0  0
   -5.1054   21.9180  -31.3754 H   0  0  0  0  0  0  0  0  0  0  0  0
   -5.1834   21.8142  -33.1736 H   0  0  0  0  0  0  0  0  0  0  0  0
   -5.4475   24.1516  -32.2192 H   0  0  0  0  0  0  0  0  0  0  0  0
   -6.8146   23.5582  -33.2860 H   0  0  0  0  0  0  0  0  0  0  0  0
  1  2  1  0
  2  3  1  0
  3  4  1  0
  4  5  2  0
  5  6  1  0
  6  7  1  0
  7  8  2  0
  8  9  1  0
  9 10  2  0
 10 11  1  0
 11 12  2  0
  6 13  2  0
 13 14  1  0
 14 15  1  0
 15 16  1  0
 16 17  1  0
 17 18  1  0
 18 19  1  0
 19 20  1  0
 20 21  1  0
 21 22  1  0
 22 23  2  0
 23 24  1  0
 24 25  2  0
 25 26  1  0
 26 27  1  0
 27 28  1  0
 26 29  2  0
 21 30  1  0
 30 31  1  0
 13 32  1  0
 32  4  1  0
 12  7  1  0
 31 18  1  0
 29 22  1  0
  1 33  1  0
  1 34  1  0
  1 35  1  0
  2 36  1  0
  2 37  1  0
  3 38  1  0
  3 39  1  0
  8 40  1  0
  9 41  1  0
 10 42  1  0
 11 43  1  0
 12 44  1  0
 14 45  1  0
 14 46  1  0
 15 47  1  0
 16 48  1  0
 16 49  1  0
 17 50  1  0
 17 51  1  0
 19 52  1  0
 19 53  1  0
 20 54  1  0
 20 55  1  0
 23 56  1  0
 24 57  1  0
 25 58  1  0
 28 59  1  0
 28 60  1  0
 28 61  1  0
 29 62  1  0
 30 63  1  0
 30 64  1  0
 31 65  1  0
 31 66  1  0
M  END
>  <UniqueID>  (38) 
35

>  <SMILES>  (38) 
CCCc1nc(-c2ccccc2)c(CNCCN2CCN(c3cccc(OC)c3)CC2)o1

>  <Energy>  (38) 
106.03262116519822

>  <Genealogy>  (38) 
CCCc1nc(-c2ccccc2)c(CNCCN2CCN(c3cccc(OC)c3)CC2)o1 (3D coordinates assigned)
CCCc1nc(-c2ccccc2)c(CNCCN2CCN(c3cccc(OC)c3)CC2)o1 (nonaromatic ring conformer: 106.03262116519822 kcal/mol)

>  <smiles>  (38) 
CCCc1nc(-c2ccccc2)c(CNCCN2CCN(c3cccc(OC)c3)CC2)o1

>  <score_type>  (38) 
oracle

>  <origin>  (38) 
adg

>  <m_score__min__energy>  (38) 
-10.26

>  <m_primary>  (38) 
energy

$$$$
38:0
     RDKit          3D

 39 41  0  0  0  0  0  0  0  0999 V2000
   -6.1250   17.1520  -31.6330 C   0  0  0  0  0  0  0  0  0  0  0  0
   -6.8830   17.3020  -32.9480 C   0  0  0  0  0  0  0  0  0  0  0  0
   -6.6840   18.6440  -33.5070 N   0  0  0  0  0  0  0  0  0  0  0  0
   -5.7410   18.8780  -34.6070 C   0  0  0  0  0  0  0  0  0  0  0  0
   -4.9970   17.5950  -34.9580 C   0  0  0  0  0  0  0  0  0  0  0  0
   -7.2890   19.7690  -32.8540 C   0  0  0  0  0  0  0  0  0  0  0  0
   -6.4980   20.6700  -32.1370 C   0  0  0  0  0  0  0  0  0  0  0  0
   -7.1160   21.7600  -31.5100 C   0  0  0  0  0  0  0  0  0  0  0  0
   -6.3360   22.7470  -30.7370 C   0  0  0  0  0  0  0  0  0  0  0  0
   -6.6280   24.1050  -30.6290 C   0  0  0  0  0  0  0  0  0  0  0  0
   -5.7200   24.8110  -29.8310 C   0  0  0  0  0  0  0  0  0  0  0  0
   -4.7070   24.0130  -29.3070 C   0  0  0  0  0  0  0  0  0  0  0  0
   -3.6080   24.4590  -28.4360 C   0  0  0  0  0  0  0  0  0  0  0  0
   -3.6490   24.5820  -27.0500 C   0  0  0  0  0  0  0  0  0  0  0  0
   -2.4430   25.0310  -26.4970 C   0  0  0  0  0  0  0  0  0  0  0  0
   -1.4500   25.2650  -27.4400 C   0  0  0  0  0  0  0  0  0  0  0  0
   -2.0740   24.9110  -28.9600 S   0  0  0  0  0  0  0  0  0  0  0  0
   -4.9440   22.4340  -29.8370 S   0  0  0  0  0  0  0  0  0  0  0  0
   -8.4650   21.9080  -31.6190 N   0  0  0  0  0  0  0  0  0  0  0  0
   -9.2200   21.0240  -32.3200 C   0  0  0  0  0  0  0  0  0  0  0  0
   -8.6340   19.9620  -32.9330 N   0  0  0  0  0  0  0  0  0  0  0  0
   -6.8199   17.2895  -30.7915 H   0  0  0  0  0  0  0  0  0  0  0  0
   -5.6786   16.1481  -31.5796 H   0  0  0  0  0  0  0  0  0  0  0  0
   -5.3299   17.9102  -31.5796 H   0  0  0  0  0  0  0  0  0  0  0  0
   -6.5152   16.5532  -33.6650 H   0  0  0  0  0  0  0  0  0  0  0  0
   -7.9561   17.1516  -32.7587 H   0  0  0  0  0  0  0  0  0  0  0  0
   -6.2956   19.2275  -35.4904 H   0  0  0  0  0  0  0  0  0  0  0  0
   -5.0098   19.6370  -34.2918 H   0  0  0  0  0  0  0  0  0  0  0  0
   -4.6982   17.0797  -34.0332 H   0  0  0  0  0  0  0  0  0  0  0  0
   -5.6549   16.9391  -35.5471 H   0  0  0  0  0  0  0  0  0  0  0  0
   -4.1010   17.8402  -35.5471 H   0  0  0  0  0  0  0  0  0  0  0  0
   -5.4097   20.5263  -32.0660 H   0  0  0  0  0  0  0  0  0  0  0  0
   -7.4896   24.5773  -31.1235 H   0  0  0  0  0  0  0  0  0  0  0  0
   -5.7993   25.8909  -29.6370 H   0  0  0  0  0  0  0  0  0  0  0  0
   -4.5403   24.3496  -26.4486 H   0  0  0  0  0  0  0  0  0  0  0  0
   -2.2960   25.1839  -25.4177 H   0  0  0  0  0  0  0  0  0  0  0  0
   -0.4308   25.6207  -27.2283 H   0  0  0  0  0  0  0  0  0  0  0  0
  -10.3082   21.1676  -32.3920 H   0  0  0  0  0  0  0  0  0  0  0  0
   -9.2270   19.2900  -33.4690 H   0  0  0  0  0  0  0  0  0  0  0  0
  1  2  1  0
  2  3  1  0
  3  4  1  0
  4  5  1  0
  3  6  1  0
  6  7  2  0
  7  8  1  0
  8  9  1  0
  9 10  2  0
 10 11  1  0
 11 12  2  0
 12 13  1  0
 13 14  2  0
 14 15  1  0
 15 16  2  0
 16 17  1  0
 12 18  1  0
  8 19  2  0
 19 20  1  0
 20 21  2  0
 21  6  1  0
 18  9  1  0
 17 13  1  0
  1 22  1  0
  1 23  1  0
  1 24  1  0
  2 25  1  0
  2 26  1  0
  4 27  1  0
  4 28  1  0
  5 29  1  0
  5 30  1  0
  5 31  1  0
  7 32  1  0
 10 33  1  0
 11 34  1  0
 14 35  1  0
 15 36  1  0
 16 37  1  0
 20 38  1  0
 21 39  1  0
M  CHG  1  21   1
M  END
>  <UniqueID>  (39) 
36

>  <SMILES>  (39) 
CCN(CC)c1cc(-c2ccc(-c3cccs3)s2)nc[nH+]1

>  <Energy>  (39) 
92.23585503255408

>  <Genealogy>  (39) 
CCN(CC)c1cc(-c2ccc(-c3cccs3)s2)nc[nH+]1 (protonated)
CCN(CC)c1cc(-c2ccc(-c3cccs3)s2)nc[nH+]1 (3D coordinates assigned)
CCN(CC)c1cc(-c2ccc(-c3cccs3)s2)nc[nH+]1 (optimized conformer: 92.23585503255408 kcal/mol)

>  <smiles>  (39) 
CCN(CC)c1cc(-c2ccc(-c3cccs3)s2)ncn1

>  <score_type>  (39) 
oracle

>  <origin>  (39) 
adg

>  <m_score__min__energy>  (39) 
-7.2599999999999998

>  <m_primary>  (39) 
energy

$$$$
39:0
     RDKit          3D

 41 44  0  0  0  0  0  0  0  0999 V2000
   -0.8030   26.6760  -27.7240 C   0  0  0  0  0  0  0  0  0  0  0  0
   -1.2610   26.0640  -28.9230 O   0  0  0  0  0  0  0  0  0  0  0  0
   -1.6670   24.7280  -28.9770 C   0  0  0  0  0  0  0  0  0  0  0  0
   -0.9640   23.7370  -28.3480 N   0  0  0  0  0  0  0  0  0  0  0  0
   -1.3660   22.4270  -28.4060 C   0  0  0  0  0  0  0  0  0  0  0  0
   -2.4900   22.0770  -29.1020 N   0  0  0  0  0  0  0  0  0  0  0  0
   -3.1860   23.0610  -29.7250 C   0  0  0  0  0  0  0  0  0  0  0  0
   -2.8060   24.3610  -29.6800 C   0  0  0  0  0  0  0  0  0  0  0  0
   -3.6560   25.1330  -30.3840 N   0  0  0  0  0  0  0  0  0  0  0  0
   -4.5540   24.2220  -30.8460 C   0  0  0  0  0  0  0  0  0  0  0  0
   -5.5320   24.5430  -31.5720 O   0  0  0  0  0  0  0  0  0  0  0  0
   -4.3010   22.9430  -30.4610 N   0  0  0  0  0  0  0  0  0  0  0  0
   -5.0370   21.7250  -30.8070 C   0  0  0  0  0  0  0  0  0  0  0  0
   -4.3620   21.0060  -31.9580 C   0  0  0  0  0  0  0  0  0  0  0  0
   -3.0320   21.3450  -32.2700 C   0  0  0  0  0  0  0  0  0  0  0  0
   -2.3410   20.6750  -33.2800 C   0  0  0  0  0  0  0  0  0  0  0  0
   -2.9680   19.6600  -34.0000 C   0  0  0  0  0  0  0  0  0  0  0  0
   -4.2940   19.3230  -33.7240 C   0  0  0  0  0  0  0  0  0  0  0  0
   -5.0100   19.9970  -32.7200 C   0  0  0  0  0  0  0  0  0  0  0  0
   -6.4300   19.6360  -32.5160 C   0  0  0  0  0  0  0  0  0  0  0  0
   -7.4430   20.5870  -32.7260 C   0  0  0  0  0  0  0  0  0  0  0  0
   -8.7850   20.2360  -32.5510 C   0  0  0  0  0  0  0  0  0  0  0  0
   -9.1250   18.9330  -32.1770 C   0  0  0  0  0  0  0  0  0  0  0  0
   -8.1240   17.9770  -31.9830 C   0  0  0  0  0  0  0  0  0  0  0  0
   -6.7810   18.3240  -32.1570 C   0  0  0  0  0  0  0  0  0  0  0  0
   -1.2089   26.1337  -26.8573 H   0  0  0  0  0  0  0  0  0  0  0  0
    0.2962   26.6458  -27.6936 H   0  0  0  0  0  0  0  0  0  0  0  0
   -1.1420   27.7220  -27.6936 H   0  0  0  0  0  0  0  0  0  0  0  0
   -0.7803   21.6525  -27.8891 H   0  0  0  0  0  0  0  0  0  0  0  0
   -2.7970   21.0810  -29.1440 H   0  0  0  0  0  0  0  0  0  0  0  0
   -5.0669   21.0592  -29.9319 H   0  0  0  0  0  0  0  0  0  0  0  0
   -6.0583   22.0001  -31.1092 H   0  0  0  0  0  0  0  0  0  0  0  0
   -2.5309   22.1485  -31.7103 H   0  0  0  0  0  0  0  0  0  0  0  0
   -1.3002   20.9483  -33.5082 H   0  0  0  0  0  0  0  0  0  0  0  0
   -2.4172   19.1237  -34.7868 H   0  0  0  0  0  0  0  0  0  0  0  0
   -4.7833   18.5222  -34.2978 H   0  0  0  0  0  0  0  0  0  0  0  0
   -7.1793   21.6110  -33.0291 H   0  0  0  0  0  0  0  0  0  0  0  0
   -9.5741   20.9862  -32.7078 H   0  0  0  0  0  0  0  0  0  0  0  0
  -10.1810   18.6597  -32.0352 H   0  0  0  0  0  0  0  0  0  0  0  0
   -8.3932   16.9506  -31.6931 H   0  0  0  0  0  0  0  0  0  0  0  0
   -5.9962   17.5669  -32.0123 H   0  0  0  0  0  0  0  0  0  0  0  0
  1  2  1  0
  2  3  1  0
  3  4  2  0
  4  5  1  0
  5  6  2  0
  6  7  1  0
  7  8  2  0
  8  9  1  0
  9 10  1  0
 10 11  2  0
 10 12  1  0
 12 13  1  0
 13 14  1  0
 14 15  2  0
 15 16  1  0
 16 17  2  0
 17 18  1  0
 18 19  2  0
 19 20  1  0
 20 21  2  0
 21 22  1  0
 22 23  2  0
 23 24  1  0
 24 25  2  0
  8  3  1  0
 19 14  1  0
 25 20  1  0
 12  7  1  0
  1 26  1  0
  1 27  1  0
  1 28  1  0
  5 29  1  0
  6 30  1  0
 13 31  1  0
 13 32  1  0
 15 33  1  0
 16 34  1  0
 17 35  1  0
 18 36  1  0
 21 37  1  0
 22 38  1  0
 23 39  1  0
 24 40  1  0
 25 41  1  0
M  CHG  2   6   1   9  -1
M  END
>  <UniqueID>  (40) 
37

>  <SMILES>  (40) 
COc1nc[nH+]c2c1[n-]c(=O)n2Cc1ccccc1-c1ccccc1

>  <Energy>  (40) 
91.8625745481392

>  <Genealogy>  (40) 
COc1nc[nH+]c2c1[n-]c(=O)n2Cc1ccccc1-c1ccccc1 (protonated)
COc1nc[nH+]c2c1[n-]c(=O)n2Cc1ccccc1-c1ccccc1 (3D coordinates assigned)
COc1nc[nH+]c2c1[n-]c(=O)n2Cc1ccccc1-c1ccccc1 (optimized conformer: 91.8625745481392 kcal/mol)

>  <smiles>  (40) 
COc1ncnc2c1[nH]c(=O)n2Cc1ccccc1-c1ccccc1

>  <score_type>  (40) 
oracle

>  <origin>  (40) 
adg

>  <m_score__min__energy>  (40) 
-9.5500000000000007

>  <m_primary>  (40) 
energy

$$$$
40:0
     RDKit          3D

 37 39  0  0  0  0  0  0  0  0999 V2000
   -0.0750   25.2890  -25.8750 C   0  0  0  0  0  0  0  0  0  0  0  0
    0.2730   24.8460  -27.2920 C   0  0  0  0  0  0  0  0  0  0  0  0
   -0.9350   24.4240  -28.0020 N   0  0  0  0  0  0  0  0  0  0  0  0
   -1.6020   25.1320  -28.9460 C   0  0  0  0  0  0  0  0  0  0  0  0
   -1.2390   26.4150  -29.3420 O   0  0  0  0  0  0  0  0  0  0  0  0
   -2.6680   24.3950  -29.4550 C   0  0  0  0  0  0  0  0  0  0  0  0
   -3.6100   24.7810  -30.4680 N   0  0  0  0  0  0  0  0  0  0  0  0
   -5.0430   24.9100  -30.2020 C   0  0  0  0  0  0  0  0  0  0  0  0
   -5.8080   23.8080  -30.8850 C   0  0  0  0  0  0  0  0  0  0  0  0
   -7.2080   23.7550  -30.7910 C   0  0  0  0  0  0  0  0  0  0  0  0
   -7.9220   22.7530  -31.4570 C   0  0  0  0  0  0  0  0  0  0  0  0
   -7.2440   21.8060  -32.2290 C   0  0  0  0  0  0  0  0  0  0  0  0
   -5.8510   21.8620  -32.3410 C   0  0  0  0  0  0  0  0  0  0  0  0
   -5.1350   22.8620  -31.6760 C   0  0  0  0  0  0  0  0  0  0  0  0
   -2.6320   23.1810  -28.7930 C   0  0  0  0  0  0  0  0  0  0  0  0
   -3.4400   22.0500  -28.9060 C   0  0  0  0  0  0  0  0  0  0  0  0
   -3.1340   20.9410  -28.0970 C   0  0  0  0  0  0  0  0  0  0  0  0
   -2.0390   20.9840  -27.2080 C   0  0  0  0  0  0  0  0  0  0  0  0
   -1.2390   22.1360  -27.1160 C   0  0  0  0  0  0  0  0  0  0  0  0
   -1.5650   23.2300  -27.9240 C   0  0  0  0  0  0  0  0  0  0  0  0
    0.4367   24.6377  -25.1511 H   0  0  0  0  0  0  0  0  0  0  0  0
    0.2499   26.3293  -25.7258 H   0  0  0  0  0  0  0  0  0  0  0  0
   -1.1626   25.2196  -25.7258 H   0  0  0  0  0  0  0  0  0  0  0  0
    0.7366   25.6852  -27.8312 H   0  0  0  0  0  0  0  0  0  0  0  0
    0.9730   23.9990  -27.2409 H   0  0  0  0  0  0  0  0  0  0  0  0
   -3.2490   24.9730  -31.4300 H   0  0  0  0  0  0  0  0  0  0  0  0
   -5.2163   24.8523  -29.1173 H   0  0  0  0  0  0  0  0  0  0  0  0
   -5.3910   25.8783  -30.5910 H   0  0  0  0  0  0  0  0  0  0  0  0
   -7.7455   24.5043  -30.1913 H   0  0  0  0  0  0  0  0  0  0  0  0
   -9.0180   22.7107  -31.3728 H   0  0  0  0  0  0  0  0  0  0  0  0
   -7.8061   21.0162  -32.7488 H   0  0  0  0  0  0  0  0  0  0  0  0
   -5.3184   21.1189  -32.9526 H   0  0  0  0  0  0  0  0  0  0  0  0
   -4.0402   22.9082  -31.7726 H   0  0  0  0  0  0  0  0  0  0  0  0
   -4.2890   22.0261  -29.6051 H   0  0  0  0  0  0  0  0  0  0  0  0
   -3.7527   20.0335  -28.1577 H   0  0  0  0  0  0  0  0  0  0  0  0
   -1.8097   20.1090  -26.5820 H   0  0  0  0  0  0  0  0  0  0  0  0
   -0.3813   22.1760  -26.4284 H   0  0  0  0  0  0  0  0  0  0  0  0
  1  2  1  0
  2  3  1  0
  3  4  1  0
  4  5  1  0
  4  6  2  0
  6  7  1  0
  7  8  1  0
  8  9  1  0
  9 10  2  0
 10 11  1  0
 11 12  2  0
 12 13  1  0
 13 14  2  0
  6 15  1  0
 15 16  2  0
 16 17  1  0
 17 18  2  0
 18 19  1  0
 19 20  2  0
 20  3  1  0
 14  9  1  0
 20 15  1  0
  1 21  1  0
  1 22  1  0
  1 23  1  0
  2 24  1  0
  2 25  1  0
  7 26  1  0
  8 27  1  0
  8 28  1  0
 10 29  1  0
 11 30  1  0
 12 31  1  0
 13 32  1  0
 14 33  1  0
 16 34  1  0
 17 35  1  0
 18 36  1  0
 19 37  1  0
M  CHG  1   5  -1
M  END
>  <UniqueID>  (41) 
38

>  <SMILES>  (41) 
CCn1c([O-])c(NCc2ccccc2)c2ccccc21

>  <Energy>  (41) 
71.0923626502614

>  <Genealogy>  (41) 
CCn1c([O-])c(NCc2ccccc2)c2ccccc21 (protonated)
CCn1c([O-])c(NCc2ccccc2)c2ccccc21 (3D coordinates assigned)
CCn1c([O-])c(NCc2ccccc2)c2ccccc21 (optimized conformer: 71.0923626502614 kcal/mol)

>  <smiles>  (41) 
CCn1c(O)c(NCc2ccccc2)c2ccccc21

>  <score_type>  (41) 
oracle

>  <origin>  (41) 
adg

>  <m_score__min__energy>  (41) 
-10.140000000000001

>  <m_primary>  (41) 
energy

$$$$
41:0
     RDKit          3D

 24 25  0  0  0  0  0  0  0  0999 V2000
   -1.2480   27.2070  -29.3570 H   0  0  0  0  0  0  0  0  0  0  0  0
   -1.1940   26.4330  -28.6570 N   0  0  0  0  0  0  0  0  0  0  0  0
   -1.4760   25.2130  -28.9740 C   0  0  0  0  0  0  0  0  0  0  0  0
   -2.6740   24.9230  -29.5450 N   0  0  0  0  0  0  0  0  0  0  0  0
   -3.0130   23.6500  -29.8890 C   0  0  0  0  0  0  0  0  0  0  0  0
   -4.3350   23.4120  -30.5170 C   0  0  0  0  0  0  0  0  0  0  0  0
   -5.0160   24.4750  -31.0260 N   0  0  0  0  0  0  0  0  0  0  0  0
   -6.2360   24.3470  -31.6100 C   0  0  0  0  0  0  0  0  0  0  0  0
   -6.7459   25.2353  -32.0113 H   0  0  0  0  0  0  0  0  0  0  0  0
   -6.8470   23.0940  -31.7040 C   0  0  0  0  0  0  0  0  0  0  0  0
   -8.1050   23.0010  -32.3150 O   0  0  0  0  0  0  0  0  0  0  0  0
   -9.1250   22.0920  -31.9150 C   0  0  0  0  0  0  0  0  0  0  0  0
   -9.1702   22.0517  -30.8167 H   0  0  0  0  0  0  0  0  0  0  0  0
  -10.0940   22.4315  -32.3096 H   0  0  0  0  0  0  0  0  0  0  0  0
   -8.8989   21.0904  -32.3096 H   0  0  0  0  0  0  0  0  0  0  0  0
   -6.1740   21.9800  -31.1770 C   0  0  0  0  0  0  0  0  0  0  0  0
   -6.6348   20.9828  -31.2345 H   0  0  0  0  0  0  0  0  0  0  0  0
   -4.9210   22.1350  -30.5800 C   0  0  0  0  0  0  0  0  0  0  0  0
   -4.3957   21.2638  -30.1617 H   0  0  0  0  0  0  0  0  0  0  0  0
   -2.0860   22.6170  -29.6620 C   0  0  0  0  0  0  0  0  0  0  0  0
   -2.3228   21.5799  -29.9418 H   0  0  0  0  0  0  0  0  0  0  0  0
   -0.8600   22.9330  -29.0750 C   0  0  0  0  0  0  0  0  0  0  0  0
   -0.0110   22.0300  -28.8570 O   0  0  0  0  0  0  0  0  0  0  0  0
   -0.5780   24.2190  -28.7410 N   0  0  0  0  0  0  0  0  0  0  0  0
  1  2  1  0
  2  3  2  0
  3  4  1  0
  4  5  1  0
  5  6  1  0
  6  7  2  0
  7  8  1  0
  8  9  1  0
  8 10  2  0
 10 11  1  0
 11 12  1  0
 12 13  1  0
 12 14  1  0
 12 15  1  0
 10 16  1  0
 16 17  1  0
 16 18  2  0
 18 19  1  0
  5 20  2  0
 20 21  1  0
 20 22  1  0
 22 23  2  0
 22 24  1  0
 24  3  1  0
 18  6  1  0
M  CHG  2   4  -1  24  -1
M  END
>  <UniqueID>  (42) 
39

>  <SMILES>  (42) 
[H]/N=c1/[n-]c(-c2ccc(OC)cn2)cc(=O)[n-]1

>  <Energy>  (42) 
28.50538279325555

>  <Genealogy>  (42) 
COc1ccc(-c2cc(=O)[n-]c(=N)[n-]2)nc1 (protonated)
[H]/N=c1/[n-]c(-c2ccc(OC)cn2)cc(=O)[n-]1 (cis-trans isomerization)
[H]/N=c1/[n-]c(-c2ccc(OC)cn2)cc(=O)[n-]1 (3D coordinates assigned)
[H]/N=c1/[n-]c(-c2ccc(OC)cn2)cc(=O)[n-]1 (optimized conformer: 28.50538279325555 kcal/mol)

>  <smiles>  (42) 
COc1ccc(-c2cc(=O)[nH]c(=N)[nH]2)nc1

>  <score_type>  (42) 
oracle

>  <origin>  (42) 
adg

>  <m_score__min__energy>  (42) 
-8.7300000000000004

>  <m_primary>  (42) 
energy

$$$$
42:0
     RDKit          3D

 25 26  0  0  0  0  0  0  0  0999 V2000
   -2.2160   22.9890  -27.3620 O   0  0  0  0  0  0  0  0  0  0  0  0
   -3.1230   23.2390  -28.2010 C   0  0  0  0  0  0  0  0  0  0  0  0
   -4.2550   22.4300  -28.2700 C   0  0  0  0  0  0  0  0  0  0  0  0
   -5.2510   22.7220  -29.2040 C   0  0  0  0  0  0  0  0  0  0  0  0
   -5.1270   23.7950  -30.0470 N   0  0  0  0  0  0  0  0  0  0  0  0
   -6.1830   24.0510  -31.0390 C   0  0  0  0  0  0  0  0  0  0  0  0
   -6.8260   22.7570  -31.4640 C   0  0  0  0  0  0  0  0  0  0  0  0
   -8.0820   22.3910  -30.9500 C   0  0  0  0  0  0  0  0  0  0  0  0
   -8.6660   21.1760  -31.3190 C   0  0  0  0  0  0  0  0  0  0  0  0
   -8.0010   20.3150  -32.1970 C   0  0  0  0  0  0  0  0  0  0  0  0
   -8.5700   19.1370  -32.5530 F   0  0  0  0  0  0  0  0  0  0  0  0
   -6.7490   20.6690  -32.7070 C   0  0  0  0  0  0  0  0  0  0  0  0
   -6.1600   21.8840  -32.3410 C   0  0  0  0  0  0  0  0  0  0  0  0
   -4.0120   24.5930  -29.9900 C   0  0  0  0  0  0  0  0  0  0  0  0
   -3.8690   25.6780  -30.8490 O   0  0  0  0  0  0  0  0  0  0  0  0
   -2.9990   24.3270  -29.0650 C   0  0  0  0  0  0  0  0  0  0  0  0
   -4.3633   21.5686  -27.5945 H   0  0  0  0  0  0  0  0  0  0  0  0
   -6.1449   22.0837  -29.2637 H   0  0  0  0  0  0  0  0  0  0  0  0
   -6.9464   24.7069  -30.5952 H   0  0  0  0  0  0  0  0  0  0  0  0
   -5.7364   24.5349  -31.9201 H   0  0  0  0  0  0  0  0  0  0  0  0
   -8.6070   23.0630  -30.2551 H   0  0  0  0  0  0  0  0  0  0  0  0
   -9.6513   20.8965  -30.9176 H   0  0  0  0  0  0  0  0  0  0  0  0
   -6.2257   19.9911  -33.3974 H   0  0  0  0  0  0  0  0  0  0  0  0
   -5.1723   22.1569  -32.7410 H   0  0  0  0  0  0  0  0  0  0  0  0
   -2.1090   24.9718  -29.0185 H   0  0  0  0  0  0  0  0  0  0  0  0
  1  2  2  0
  2  3  1  0
  3  4  2  0
  4  5  1  0
  5  6  1  0
  6  7  1  0
  7  8  2  0
  8  9  1  0
  9 10  2  0
 10 11  1  0
 10 12  1  0
 12 13  2  0
  5 14  1  0
 14 15  1  0
 14 16  2  0
 16  2  1  0
 13  7  1  0
  3 17  1  0
  4 18  1  0
  6 19  1  0
  6 20  1  0
  8 21  1  0
  9 22  1  0
 12 23  1  0
 13 24  1  0
 16 25  1  0
M  CHG  1  15  -1
M  END
>  <UniqueID>  (43) 
40

>  <SMILES>  (43) 
O=c1ccn(Cc2ccc(F)cc2)c([O-])c1

>  <Energy>  (43) 
27.07793227769069

>  <Genealogy>  (43) 
O=c1ccn(Cc2ccc(F)cc2)c([O-])c1 (protonated)
O=c1ccn(Cc2ccc(F)cc2)c([O-])c1 (3D coordinates assigned)
O=c1ccn(Cc2ccc(F)cc2)c([O-])c1 (optimized conformer: 27.07793227769069 kcal/mol)

>  <smiles>  (43) 
O=c1ccn(Cc2ccc(F)cc2)c(O)c1

>  <score_type>  (43) 
oracle

>  <origin>  (43) 
adg

>  <m_score__min__energy>  (43) 
-8.6899999999999995

>  <m_primary>  (43) 
energy

$$$$
43:0
     RDKit          3D

 29 31  0  0  0  0  0  0  0  0999 V2000
   -4.5580   18.0830  -34.5890 C   0  0  0  0  0  0  0  0  0  0  0  0
   -5.7370   18.0540  -33.7340 N   0  0  0  0  0  0  0  0  0  0  0  0
   -6.5100   16.9790  -33.4220 C   0  0  0  0  0  0  0  0  0  0  0  0
   -7.6080   17.3190  -32.6950 N   0  0  0  0  0  0  0  0  0  0  0  0
   -7.5090   18.6520  -32.5750 C   0  0  0  0  0  0  0  0  0  0  0  0
   -8.3770   19.4980  -31.9710 N   0  0  0  0  0  0  0  0  0  0  0  0
   -8.0940   20.8370  -32.0060 C   0  0  0  0  0  0  0  0  0  0  0  0
   -6.9310   21.3080  -32.6790 C   0  0  0  0  0  0  0  0  0  0  0  0
   -6.6320   22.7130  -32.6930 N   0  0  0  0  0  0  0  0  0  0  0  0
   -6.0890   23.4310  -31.5720 C   0  0  0  0  0  0  0  0  0  0  0  0
   -4.7220   23.3580  -31.2480 C   0  0  0  0  0  0  0  0  0  0  0  0
   -4.2140   24.0830  -30.1640 C   0  0  0  0  0  0  0  0  0  0  0  0
   -2.8970   24.0060  -29.8560 F   0  0  0  0  0  0  0  0  0  0  0  0
   -5.0620   24.8970  -29.4070 C   0  0  0  0  0  0  0  0  0  0  0  0
   -6.4170   24.9920  -29.7370 C   0  0  0  0  0  0  0  0  0  0  0  0
   -7.2360   25.7900  -29.0080 F   0  0  0  0  0  0  0  0  0  0  0  0
   -6.9260   24.2690  -30.8200 C   0  0  0  0  0  0  0  0  0  0  0  0
   -6.0830   20.4080  -33.2710 N   0  0  0  0  0  0  0  0  0  0  0  0
   -6.3960   19.0930  -33.2020 C   0  0  0  0  0  0  0  0  0  0  0  0
   -3.6527   18.1053  -33.9646 H   0  0  0  0  0  0  0  0  0  0  0  0
   -4.5434   17.1849  -35.2240 H   0  0  0  0  0  0  0  0  0  0  0  0
   -4.5876   18.9807  -35.2240 H   0  0  0  0  0  0  0  0  0  0  0  0
   -6.2731   15.9483  -33.7244 H   0  0  0  0  0  0  0  0  0  0  0  0
   -8.3640   16.6930  -32.3390 H   0  0  0  0  0  0  0  0  0  0  0  0
   -8.7681   21.5522  -31.5120 H   0  0  0  0  0  0  0  0  0  0  0  0
   -6.9050   23.2630  -33.5400 H   0  0  0  0  0  0  0  0  0  0  0  0
   -4.0495   22.7284  -31.8492 H   0  0  0  0  0  0  0  0  0  0  0  0
   -4.6630   25.4625  -28.5520 H   0  0  0  0  0  0  0  0  0  0  0  0
   -7.9901   24.3578  -31.0843 H   0  0  0  0  0  0  0  0  0  0  0  0
  1  2  1  0
  2  3  1  0
  3  4  2  0
  4  5  1  0
  5  6  2  0
  6  7  1  0
  7  8  2  0
  8  9  1  0
  9 10  1  0
 10 11  2  0
 11 12  1  0
 12 13  1  0
 12 14  2  0
 14 15  1  0
 15 16  1  0
 15 17  2  0
  8 18  1  0
 18 19  2  0
 19  2  1  0
 19  5  1  0
 17 10  1  0
  1 20  1  0
  1 21  1  0
  1 22  1  0
  3 23  1  0
  4 24  1  0
  7 25  1  0
  9 26  1  0
 11 27  1  0
 14 28  1  0
 17 29  1  0
M  CHG  1   4   1
M  END
>  <UniqueID>  (44) 
41

>  <SMILES>  (44) 
Cn1c[nH+]c2ncc(Nc3cc(F)cc(F)c3)nc21

>  <Energy>  (44) 
78.36668427999277

>  <Genealogy>  (44) 
Cn1c[nH+]c2ncc(Nc3cc(F)cc(F)c3)nc21 (protonated)
Cn1c[nH+]c2ncc(Nc3cc(F)cc(F)c3)nc21 (3D coordinates assigned)
Cn1c[nH+]c2ncc(Nc3cc(F)cc(F)c3)nc21 (optimized conformer: 78.36668427999277 kcal/mol)

>  <smiles>  (44) 
Cn1cnc2ncc(Nc3cc(F)cc(F)c3)nc21

>  <score_type>  (44) 
oracle

>  <origin>  (44) 
adg

>  <m_score__min__energy>  (44) 
-5.8499999999999996

>  <m_primary>  (44) 
energy

$$$$
44:0
     RDKit          3D

 39 41  0  0  1  0  0  0  0  0999 V2000
    1.6000   24.2640  -26.0740 C   0  0  0  0  0  0  0  0  0  0  0  0
    0.6280   25.3170  -25.7170 C   0  0  0  0  0  0  0  0  0  0  0  0
    0.6150   25.8700  -24.4510 C   0  0  0  0  0  0  0  0  0  0  0  0
   -0.2860   26.8560  -24.0970 C   0  0  0  0  0  0  0  0  0  0  0  0
   -1.2050   27.2990  -25.0490 C   0  0  0  0  0  0  0  0  0  0  0  0
   -1.1850   26.7390  -26.3130 C   0  0  0  0  0  0  0  0  0  0  0  0
   -0.2680   25.7450  -26.6530 C   0  0  0  0  0  0  0  0  0  0  0  0
   -0.3430   25.2580  -27.9500 O   0  0  0  0  0  0  0  0  0  0  0  0
   -1.3040   24.3510  -28.3330 C   0  0  0  0  0  0  0  0  0  0  0  0
   -1.4610   23.1030  -27.7680 C   0  0  0  0  0  0  0  0  0  0  0  0
   -2.4700   22.2610  -28.2330 C   0  0  0  0  0  0  0  0  0  0  0  0
   -2.6350   21.0780  -27.7120 N   0  0  0  0  0  0  0  0  0  0  0  0
   -3.2760   22.7040  -29.2410 N   0  0  0  0  0  0  0  0  0  0  0  0
   -3.1220   23.9190  -29.7900 C   0  0  0  0  0  0  0  0  0  0  0  0
   -3.8690   24.3560  -30.7400 N   0  0  0  0  0  0  0  0  0  0  0  0
   -5.1200   23.7330  -31.0000 C   0  0  0  0  0  0  0  0  0  0  0  0
   -6.2750   24.0930  -30.3230 C   0  0  0  0  0  0  0  0  0  0  0  0
   -7.4400   23.4200  -30.6570 C   0  0  0  0  0  0  0  0  0  0  0  0
   -7.4810   22.4350  -31.6140 C   0  0  0  0  0  0  0  0  0  0  0  0
   -8.6900   21.7360  -31.9630 C   0  0  0  0  0  0  0  0  0  0  0  0
   -9.6650   21.1510  -32.2520 N   0  0  0  0  0  0  0  0  0  0  0  0
   -6.3250   22.0760  -32.2910 C   0  0  0  0  0  0  0  0  0  0  0  0
   -5.1340   22.7340  -31.9780 C   0  0  0  0  0  0  0  0  0  0  0  0
   -2.1410   24.7340  -29.3360 N   0  0  0  0  0  0  0  0  0  0  0  0
    2.0114   23.8184  -25.1563 H   0  0  0  0  0  0  0  0  0  0  0  0
    1.0963   23.4855  -26.6658 H   0  0  0  0  0  0  0  0  0  0  0  0
    2.4163   24.7039  -26.6658 H   0  0  0  0  0  0  0  0  0  0  0  0
    1.3414   25.5158  -23.7048 H   0  0  0  0  0  0  0  0  0  0  0  0
   -0.2789   27.2837  -23.0836 H   0  0  0  0  0  0  0  0  0  0  0  0
   -1.9349   28.0825  -24.7975 H   0  0  0  0  0  0  0  0  0  0  0  0
   -1.9079   27.0850  -27.0665 H   0  0  0  0  0  0  0  0  0  0  0  0
   -0.7951   22.7743  -26.9565 H   0  0  0  0  0  0  0  0  0  0  0  0
   -2.4280   20.2480  -28.3160 H   0  0  0  0  0  0  0  0  0  0  0  0
   -4.0380   22.0660  -29.5910 H   0  0  0  0  0  0  0  0  0  0  0  0
   -6.2673   24.8791  -29.5536 H   0  0  0  0  0  0  0  0  0  0  0  0
   -8.3705   23.6857  -30.1340 H   0  0  0  0  0  0  0  0  0  0  0  0
   -6.3460   21.2888  -33.0590 H   0  0  0  0  0  0  0  0  0  0  0  0
   -4.2047   22.4658  -32.5020 H   0  0  0  0  0  0  0  0  0  0  0  0
   -2.0320   25.6750  -29.7710 H   0  0  0  0  0  0  0  0  0  0  0  0
  1  2  1  0
  2  3  2  0
  3  4  1  0
  4  5  2  0
  5  6  1  0
  6  7  2  0
  7  8  1  0
  8  9  1  0
  9 10  2  0
 10 11  1  0
 11 12  2  3
 11 13  1  0
 13 14  1  0
 14 15  2  0
 15 16  1  0
 16 17  2  0
 17 18  1  0
 18 19  2  0
 19 20  1  0
 20 21  3  0
 19 22  1  0
 22 23  2  0
 14 24  1  0
  7  2  1  0
 24  9  1  0
 23 16  1  0
  1 25  1  0
  1 26  1  0
  1 27  1  0
  3 28  1  0
  4 29  1  0
  5 30  1  0
  6 31  1  0
 10 32  1  0
 12 33  1  0
 13 34  1  0
 17 35  1  0
 18 36  1  0
 22 37  1  0
 23 38  1  0
 24 39  1  0
M  END
>  <smiles>  (45) 
Cc1ccccc1Oc1cc(=N)[nH]c(=Nc2ccc(C#N)cc2)[nH]1

>  <score_type>  (45) 
oracle

>  <origin>  (45) 
adg

>  <m_score__min__energy>  (45) 
-8.5800000000000001

>  <m_primary>  (45) 
energy

$$$$
45:0
     RDKit          3D

 46 49  0  0  0  0  0  0  0  0999 V2000
   -2.4390   21.3740  -32.9330 O   0  0  0  0  0  0  0  0  0  0  0  0
   -3.4200   21.3800  -32.1410 C   0  0  0  0  0  0  0  0  0  0  0  0
   -4.3350   20.2750  -32.1130 N   0  0  0  0  0  0  0  0  0  0  0  0
   -4.1090   19.0420  -32.8660 C   0  0  0  0  0  0  0  0  0  0  0  0
   -5.3160   18.7000  -33.7520 C   0  0  0  0  0  0  0  0  0  0  0  0
   -6.6200   18.9680  -33.0450 C   0  0  0  0  0  0  0  0  0  0  0  0
   -7.2760   20.2010  -33.2090 C   0  0  0  0  0  0  0  0  0  0  0  0
   -8.5090   20.4300  -32.5900 C   0  0  0  0  0  0  0  0  0  0  0  0
   -9.0950   19.4330  -31.8070 C   0  0  0  0  0  0  0  0  0  0  0  0
   -8.4520   18.2020  -31.6430 C   0  0  0  0  0  0  0  0  0  0  0  0
   -7.2200   17.9670  -32.2620 C   0  0  0  0  0  0  0  0  0  0  0  0
   -3.5750   22.4950  -31.1860 C   0  0  0  0  0  0  0  0  0  0  0  0
   -2.4510   22.8930  -30.4500 C   0  0  0  0  0  0  0  0  0  0  0  0
   -2.5640   23.8910  -29.4690 C   0  0  0  0  0  0  0  0  0  0  0  0
   -1.4000   24.3100  -28.6490 C   0  0  0  0  0  0  0  0  0  0  0  0
   -1.5420   25.1910  -27.5600 C   0  0  0  0  0  0  0  0  0  0  0  0
   -0.4260   25.5750  -26.8170 C   0  0  0  0  0  0  0  0  0  0  0  0
    0.8310   25.0830  -27.1660 C   0  0  0  0  0  0  0  0  0  0  0  0
    0.9620   24.2430  -28.2260 N   0  0  0  0  0  0  0  0  0  0  0  0
   -0.1090   23.8540  -28.9680 C   0  0  0  0  0  0  0  0  0  0  0  0
   -3.7680   24.4910  -29.2700 N   0  0  0  0  0  0  0  0  0  0  0  0
   -4.8770   24.1540  -29.9760 C   0  0  0  0  0  0  0  0  0  0  0  0
   -6.0840   24.8180  -29.7260 C   0  0  0  0  0  0  0  0  0  0  0  0
   -7.2280   24.4960  -30.4570 C   0  0  0  0  0  0  0  0  0  0  0  0
   -7.1710   23.5140  -31.4480 C   0  0  0  0  0  0  0  0  0  0  0  0
   -5.9730   22.8420  -31.7070 C   0  0  0  0  0  0  0  0  0  0  0  0
   -4.8130   23.1410  -30.9630 C   0  0  0  0  0  0  0  0  0  0  0  0
   -5.1660   20.3200  -31.4810 H   0  0  0  0  0  0  0  0  0  0  0  0
   -3.2213   19.1688  -33.5031 H   0  0  0  0  0  0  0  0  0  0  0  0
   -3.9600   18.2203  -32.1500 H   0  0  0  0  0  0  0  0  0  0  0  0
   -5.2730   19.3122  -34.6649 H   0  0  0  0  0  0  0  0  0  0  0  0
   -5.2710   17.6279  -33.9940 H   0  0  0  0  0  0  0  0  0  0  0  0
   -6.8179   20.9879  -33.8261 H   0  0  0  0  0  0  0  0  0  0  0  0
   -9.0179   21.3965  -32.7200 H   0  0  0  0  0  0  0  0  0  0  0  0
  -10.0635   19.6162  -31.3187 H   0  0  0  0  0  0  0  0  0  0  0  0
   -8.9156   17.4178  -31.0266 H   0  0  0  0  0  0  0  0  0  0  0  0
   -6.7192   16.9958  -32.1356 H   0  0  0  0  0  0  0  0  0  0  0  0
   -1.4759   22.4215  -30.6417 H   0  0  0  0  0  0  0  0  0  0  0  0
   -2.5368   25.5779  -27.2942 H   0  0  0  0  0  0  0  0  0  0  0  0
   -0.5365   26.2599  -25.9633 H   0  0  0  0  0  0  0  0  0  0  0  0
    1.7170   25.3749  -26.5830 H   0  0  0  0  0  0  0  0  0  0  0  0
    0.0357   23.1780  -29.8236 H   0  0  0  0  0  0  0  0  0  0  0  0
   -6.1306   25.5965  -28.9503 H   0  0  0  0  0  0  0  0  0  0  0  0
   -8.1754   25.0161  -30.2525 H   0  0  0  0  0  0  0  0  0  0  0  0
   -8.0730   23.2681  -32.0276 H   0  0  0  0  0  0  0  0  0  0  0  0
   -5.9349   22.0758  -32.4954 H   0  0  0  0  0  0  0  0  0  0  0  0
  1  2  2  0
  2  3  1  0
  3  4  1  0
  4  5  1  0
  5  6  1  0
  6  7  2  0
  7  8  1  0
  8  9  2  0
  9 10  1  0
 10 11  2  0
  2 12  1  0
 12 13  2  0
 13 14  1  0
 14 15  1  0
 15 16  2  0
 16 17  1  0
 17 18  2  0
 18 19  1  0
 19 20  2  0
 14 21  2  0
 21 22  1  0
 22 23  2  0
 23 24  1  0
 24 25  2  0
 25 26  1  0
 26 27  2  0
 11  6  1  0
 27 12  1  0
 20 15  1  0
 27 22  1  0
  3 28  1  0
  4 29  1  0
  4 30  1  0
  5 31  1  0
  5 32  1  0
  7 33  1  0
  8 34  1  0
  9 35  1  0
 10 36  1  0
 11 37  1  0
 13 38  1  0
 16 39  1  0
 17 40  1  0
 18 41  1  0
 20 42  1  0
 23 43  1  0
 24 44  1  0
 25 45  1  0
 26 46  1  0
M  END
>  <UniqueID>  (46) 
42

>  <SMILES>  (46) 
O=C(NCCc1ccccc1)c1cc(-c2cccnc2)nc2ccccc12

>  <Energy>  (46) 
60.018453158470614

>  <Genealogy>  (46) 
O=C(NCCc1ccccc1)c1cc(-c2cccnc2)nc2ccccc12 (3D coordinates assigned)
O=C(NCCc1ccccc1)c1cc(-c2cccnc2)nc2ccccc12 (optimized conformer: 60.018453158470614 kcal/mol)

>  <smiles>  (46) 
O=C(NCCc1ccccc1)c1cc(-c2cccnc2)nc2ccccc12

>  <score_type>  (46) 
oracle

>  <origin>  (46) 
adg

>  <m_score__min__energy>  (46) 
-9.4499999999999993

>  <m_primary>  (46) 
energy

$$$$
46:0
     RDKit          3D

 31 33  0  0  0  0  0  0  0  0999 V2000
   -6.3300   25.6600  -29.5320 C   0  0  0  0  0  0  0  0  0  0  0  0
   -5.8550   24.4900  -30.3410 C   0  0  0  0  0  0  0  0  0  0  0  0
   -4.7420   23.7460  -29.9230 C   0  0  0  0  0  0  0  0  0  0  0  0
   -4.2770   22.6790  -30.6950 C   0  0  0  0  0  0  0  0  0  0  0  0
   -4.9180   22.3390  -31.8980 C   0  0  0  0  0  0  0  0  0  0  0  0
   -4.4280   21.2170  -32.7280 C   0  0  0  0  0  0  0  0  0  0  0  0
   -2.9230   21.1240  -33.4460 S   0  0  0  0  0  0  0  0  0  0  0  0
   -3.0490   19.5950  -34.0740 N   0  0  0  0  0  0  0  0  0  0  0  0
   -4.2480   19.1270  -33.7430 N   0  0  0  0  0  0  0  0  0  0  0  0
   -5.0370   19.9820  -33.0170 C   0  0  0  0  0  0  0  0  0  0  0  0
   -6.4260   19.6230  -32.6550 C   0  0  0  0  0  0  0  0  0  0  0  0
   -7.5050   20.4290  -33.0570 C   0  0  0  0  0  0  0  0  0  0  0  0
   -8.8150   20.0760  -32.7170 C   0  0  0  0  0  0  0  0  0  0  0  0
   -9.0580   18.9120  -31.9840 C   0  0  0  0  0  0  0  0  0  0  0  0
   -7.9920   18.0970  -31.5940 C   0  0  0  0  0  0  0  0  0  0  0  0
   -6.6810   18.4460  -31.9310 C   0  0  0  0  0  0  0  0  0  0  0  0
   -6.0080   23.1080  -32.3320 C   0  0  0  0  0  0  0  0  0  0  0  0
   -6.4740   24.1760  -31.5610 C   0  0  0  0  0  0  0  0  0  0  0  0
   -6.2357   25.4277  -28.4610 H   0  0  0  0  0  0  0  0  0  0  0  0
   -5.7192   26.5431  -29.7708 H   0  0  0  0  0  0  0  0  0  0  0  0
   -7.3835   25.8674  -29.7708 H   0  0  0  0  0  0  0  0  0  0  0  0
   -4.2329   24.0041  -28.9827 H   0  0  0  0  0  0  0  0  0  0  0  0
   -3.4034   22.1012  -30.3590 H   0  0  0  0  0  0  0  0  0  0  0  0
   -4.5630   18.1810  -34.0520 H   0  0  0  0  0  0  0  0  0  0  0  0
   -7.3183   21.3418  -33.6418 H   0  0  0  0  0  0  0  0  0  0  0  0
   -9.6546   20.7155  -33.0271 H   0  0  0  0  0  0  0  0  0  0  0  0
  -10.0882   18.6370  -31.7138 H   0  0  0  0  0  0  0  0  0  0  0  0
   -8.1850   17.1785  -31.0204 H   0  0  0  0  0  0  0  0  0  0  0  0
   -5.8460   17.7970  -31.6284 H   0  0  0  0  0  0  0  0  0  0  0  0
   -6.4995   22.8684  -33.2865 H   0  0  0  0  0  0  0  0  0  0  0  0
   -7.3290   24.7729  -31.9113 H   0  0  0  0  0  0  0  0  0  0  0  0
  1  2  1  0
  2  3  2  0
  3  4  1  0
  4  5  2  0
  5  6  1  0
  6  7  1  0
  7  8  1  0
  8  9  2  0
  9 10  1  0
 10 11  1  0
 11 12  2  0
 12 13  1  0
 13 14  2  0
 14 15  1  0
 15 16  2  0
  5 17  1  0
 17 18  2  0
 18  2  1  0
 10  6  2  0
 16 11  1  0
  1 19  1  0
  1 20  1  0
  1 21  1  0
  3 22  1  0
  4 23  1  0
  9 24  1  0
 12 25  1  0
 13 26  1  0
 14 27  1  0
 15 28  1  0
 16 29  1  0
 17 30  1  0
 18 31  1  0
M  CHG  1   9   1
M  END
>  <UniqueID>  (47) 
43

>  <SMILES>  (47) 
Cc1ccc(-c2sn[nH+]c2-c2ccccc2)cc1

>  <Energy>  (47) 
77.87373658325825

>  <Genealogy>  (47) 
Cc1ccc(-c2sn[nH+]c2-c2ccccc2)cc1 (protonated)
Cc1ccc(-c2sn[nH+]c2-c2ccccc2)cc1 (3D coordinates assigned)
Cc1ccc(-c2sn[nH+]c2-c2ccccc2)cc1 (optimized conformer: 77.87373658325825 kcal/mol)

>  <smiles>  (47) 
Cc1ccc(-c2snnc2-c2ccccc2)cc1

>  <score_type>  (47) 
oracle

>  <origin>  (47) 
adg

>  <m_score__min__energy>  (47) 
-7.3399999999999999

>  <m_primary>  (47) 
energy

$$$$
47:0
     RDKit          3D

 36 37  0  0  0  0  0  0  0  0999 V2000
   -7.5490   23.7380  -31.0900 C   0  0  0  0  0  0  0  0  0  0  0  0
   -6.1680   24.0450  -30.5930 C   0  0  0  0  0  0  0  0  0  0  0  0
   -5.6090   23.3090  -29.5400 C   0  0  0  0  0  0  0  0  0  0  0  0
   -4.3070   23.5800  -29.1130 C   0  0  0  0  0  0  0  0  0  0  0  0
   -3.5650   24.5800  -29.7490 C   0  0  0  0  0  0  0  0  0  0  0  0
   -2.3520   24.8260  -29.3450 N   0  0  0  0  0  0  0  0  0  0  0  0
   -1.2480   23.9070  -29.3180 C   0  0  0  0  0  0  0  0  0  0  0  0
   -0.0840   24.2890  -29.0190 O   0  0  0  0  0  0  0  0  0  0  0  0
   -1.4760   22.4770  -29.7020 C   0  0  0  0  0  0  0  0  0  0  0  0
   -0.2040   21.8480  -30.2700 C   0  0  0  0  0  0  0  0  0  0  0  0
   -0.5430   20.8390  -31.2700 N   0  0  0  0  0  0  0  0  0  0  0  0
   -1.1640   21.1370  -32.5240 C   0  0  0  0  0  0  0  0  0  0  0  0
   -0.4560   21.5540  -33.4770 O   0  0  0  0  0  0  0  0  0  0  0  0
   -2.6090   20.9390  -32.7330 C   0  0  0  0  0  0  0  0  0  0  0  0
   -3.4990   21.9570  -32.3580 C   0  0  0  0  0  0  0  0  0  0  0  0
   -4.8730   21.7990  -32.5560 C   0  0  0  0  0  0  0  0  0  0  0  0
   -5.3680   20.6220  -33.1200 C   0  0  0  0  0  0  0  0  0  0  0  0
   -4.4920   19.5970  -33.4820 C   0  0  0  0  0  0  0  0  0  0  0  0
   -3.1120   19.7460  -33.2890 C   0  0  0  0  0  0  0  0  0  0  0  0
   -2.0500   18.4060  -33.7110 Cl  0  0  0  0  0  0  0  0  0  0  0  0
   -4.1230   25.2720  -30.7830 N   0  0  0  0  0  0  0  0  0  0  0  0
   -5.3880   25.0270  -31.2180 C   0  0  0  0  0  0  0  0  0  0  0  0
   -8.2222   23.5883  -30.2331 H   0  0  0  0  0  0  0  0  0  0  0  0
   -7.9138   24.5770  -31.7008 H   0  0  0  0  0  0  0  0  0  0  0  0
   -7.5240   22.8235  -31.7008 H   0  0  0  0  0  0  0  0  0  0  0  0
   -6.1953   22.5179  -29.0497 H   0  0  0  0  0  0  0  0  0  0  0  0
   -3.8678   23.0099  -28.2811 H   0  0  0  0  0  0  0  0  0  0  0  0
   -1.7891   21.9119  -28.8117 H   0  0  0  0  0  0  0  0  0  0  0  0
   -2.2566   22.4443  -30.4763 H   0  0  0  0  0  0  0  0  0  0  0  0
    0.4108   22.6310  -30.7379 H   0  0  0  0  0  0  0  0  0  0  0  0
    0.3554   21.3693  -29.4527 H   0  0  0  0  0  0  0  0  0  0  0  0
   -3.1134   22.8830  -31.9064 H   0  0  0  0  0  0  0  0  0  0  0  0
   -5.5656   22.6032  -32.2670 H   0  0  0  0  0  0  0  0  0  0  0  0
   -6.4497   20.5019  -33.2794 H   0  0  0  0  0  0  0  0  0  0  0  0
   -4.8866   18.6686  -33.9205 H   0  0  0  0  0  0  0  0  0  0  0  0
   -5.7994   25.6005  -32.0617 H   0  0  0  0  0  0  0  0  0  0  0  0
  1  2  1  0
  2  3  1  0
  3  4  2  0
  4  5  1  0
  5  6  2  3
  6  7  1  0
  7  8  2  0
  7  9  1  0
  9 10  1  0
 10 11  1  0
 11 12  1  0
 12 13  2  0
 12 14  1  0
 14 15  2  0
 15 16  1  0
 16 17  2  0
 17 18  1  0
 18 19  2  0
 19 20  1  0
  5 21  1  0
 21 22  1  0
 22  2  2  0
 19 14  1  0
  1 23  1  0
  1 24  1  0
  1 25  1  0
  3 26  1  0
  4 27  1  0
  9 28  1  0
  9 29  1  0
 10 30  1  0
 10 31  1  0
 15 32  1  0
 16 33  1  0
 17 34  1  0
 18 35  1  0
 22 36  1  0
M  CHG  2  11  -1  21  -1
M  END
>  <UniqueID>  (48) 
44

>  <SMILES>  (48) 
Cc1ccc(=NC(=O)CC[N-]C(=O)c2ccccc2Cl)[n-]c1

>  <Energy>  (48) 
41.07022900781395

>  <Genealogy>  (48) 
Cc1ccc(=NC(=O)CC[N-]C(=O)c2ccccc2Cl)[n-]c1 (protonated)
Cc1ccc(=NC(=O)CC[N-]C(=O)c2ccccc2Cl)[n-]c1 (3D coordinates assigned)
Cc1ccc(=NC(=O)CC[N-]C(=O)c2ccccc2Cl)[n-]c1 (optimized conformer: 41.07022900781395 kcal/mol)

>  <smiles>  (48) 
Cc1ccc(=NC(=O)CCNC(=O)c2ccccc2Cl)[nH]c1

>  <score_type>  (48) 
oracle

>  <origin>  (48) 
adg

>  <m_score__min__energy>  (48) 
-10.09

>  <m_primary>  (48) 
energy

$$$$
48:0
     RDKit          3D

 44 47  0  0  0  0  0  0  0  0999 V2000
   -6.8010   16.8090  -33.3510 C   0  0  0  0  0  0  0  0  0  0  0  0
   -6.8600   18.1430  -33.8440 O   0  0  0  0  0  0  0  0  0  0  0  0
   -6.5820   19.2860  -33.0790 C   0  0  0  0  0  0  0  0  0  0  0  0
   -7.6370   19.9050  -32.4080 C   0  0  0  0  0  0  0  0  0  0  0  0
   -7.4170   21.0470  -31.6410 C   0  0  0  0  0  0  0  0  0  0  0  0
   -6.1280   21.6010  -31.5190 C   0  0  0  0  0  0  0  0  0  0  0  0
   -5.0420   20.9640  -32.1800 C   0  0  0  0  0  0  0  0  0  0  0  0
   -5.2880   19.8210  -32.9630 C   0  0  0  0  0  0  0  0  0  0  0  0
   -3.6450   21.4640  -32.0940 C   0  0  0  0  0  0  0  0  0  0  0  0
   -2.9210   21.4190  -33.1270 O   0  0  0  0  0  0  0  0  0  0  0  0
   -3.0850   21.9450  -30.8560 N   0  0  0  0  0  0  0  0  0  0  0  0
   -1.7190   22.4780  -30.8370 C   0  0  0  0  0  0  0  0  0  0  0  0
   -3.8960   21.9570  -29.6390 C   0  0  0  0  0  0  0  0  0  0  0  0
   -4.9470   23.0290  -29.7780 C   0  0  0  0  0  0  0  0  0  0  0  0
   -5.9700   22.8620  -30.7350 C   0  0  0  0  0  0  0  0  0  0  0  0
   -6.8660   23.9180  -30.9460 C   0  0  0  0  0  0  0  0  0  0  0  0
   -6.7310   25.0740  -30.2550 N   0  0  0  0  0  0  0  0  0  0  0  0
   -5.7630   25.2440  -29.3570 N   0  0  0  0  0  0  0  0  0  0  0  0
   -4.8620   24.2600  -29.0810 C   0  0  0  0  0  0  0  0  0  0  0  0
   -3.8180   24.5310  -28.0770 C   0  0  0  0  0  0  0  0  0  0  0  0
   -4.1440   24.7580  -26.7330 C   0  0  0  0  0  0  0  0  0  0  0  0
   -3.1560   25.0330  -25.8430 N   0  0  0  0  0  0  0  0  0  0  0  0
   -1.8520   25.1050  -26.2280 C   0  0  0  0  0  0  0  0  0  0  0  0
   -0.7810   25.4160  -25.2240 C   0  0  0  0  0  0  0  0  0  0  0  0
   -1.1940   26.4220  -24.3690 F   0  0  0  0  0  0  0  0  0  0  0  0
    0.3640   25.8270  -25.8800 F   0  0  0  0  0  0  0  0  0  0  0  0
   -0.4990   24.2840  -24.4800 F   0  0  0  0  0  0  0  0  0  0  0  0
   -1.5290   24.9010  -27.5760 C   0  0  0  0  0  0  0  0  0  0  0  0
   -2.5180   24.6250  -28.4670 N   0  0  0  0  0  0  0  0  0  0  0  0
   -6.8017   16.8242  -32.2511 H   0  0  0  0  0  0  0  0  0  0  0  0
   -7.6751   16.2463  -33.7105 H   0  0  0  0  0  0  0  0  0  0  0  0
   -5.8806   16.3256  -33.7105 H   0  0  0  0  0  0  0  0  0  0  0  0
   -8.6518   19.4875  -32.4853 H   0  0  0  0  0  0  0  0  0  0  0  0
   -8.2626   21.5230  -31.1230 H   0  0  0  0  0  0  0  0  0  0  0  0
   -4.4536   19.3384  -33.4930 H   0  0  0  0  0  0  0  0  0  0  0  0
   -1.3900   22.6064  -29.7952 H   0  0  0  0  0  0  0  0  0  0  0  0
   -1.0447   21.7770  -31.3508 H   0  0  0  0  0  0  0  0  0  0  0  0
   -1.6977   23.4504  -31.3508 H   0  0  0  0  0  0  0  0  0  0  0  0
   -4.3794   20.9780  -29.5050 H   0  0  0  0  0  0  0  0  0  0  0  0
   -3.2614   22.1611  -28.7640 H   0  0  0  0  0  0  0  0  0  0  0  0
   -7.6818   23.8074  -31.6755 H   0  0  0  0  0  0  0  0  0  0  0  0
   -5.7070   26.1580  -28.8520 H   0  0  0  0  0  0  0  0  0  0  0  0
   -5.1920   24.7137  -26.4017 H   0  0  0  0  0  0  0  0  0  0  0  0
   -0.4831   24.9637  -27.9109 H   0  0  0  0  0  0  0  0  0  0  0  0
  1  2  1  0
  2  3  1  0
  3  4  2  0
  4  5  1  0
  5  6  2  0
  6  7  1  0
  7  8  2  0
  7  9  1  0
  9 10  2  0
  9 11  1  0
 11 12  1  0
 11 13  1  0
 13 14  1  0
 14 15  2  0
 15 16  1  0
 16 17  2  0
 17 18  1  0
 18 19  2  0
 19 20  1  0
 20 21  2  0
 21 22  1  0
 22 23  2  0
 23 24  1  0
 24 25  1  0
 24 26  1  0
 24 27  1  0
 23 28  1  0
 28 29  2  0
  8  3  1  0
 19 14  1  0
 29 20  1  0
 15  6  1  0
  1 30  1  0
  1 31  1  0
  1 32  1  0
  4 33  1  0
  5 34  1  0
  8 35  1  0
 12 36  1  0
 12 37  1  0
 12 38  1  0
 13 39  1  0
 13 40  1  0
 16 41  1  0
 18 42  1  0
 21 43  1  0
 28 44  1  0
M  CHG  1  18   1
M  END
>  <UniqueID>  (49) 
45

>  <SMILES>  (49) 
COc1ccc2c(c1)C(=O)N(C)Cc1c-2cn[nH+]c1-c1cnc(C(F)(F)F)cn1

>  <Energy>  (49) 
71.10646124205948

>  <Genealogy>  (49) 
COc1ccc2c(c1)C(=O)N(C)Cc1c-2cn[nH+]c1-c1cnc(C(F)(F)F)cn1 (protonated)
COc1ccc2c(c1)C(=O)N(C)Cc1c-2cn[nH+]c1-c1cnc(C(F)(F)F)cn1 (3D coordinates assigned)
COc1ccc2c(c1)C(=O)N(C)Cc1c-2cn[nH+]c1-c1cnc(C(F)(F)F)cn1 (nonaromatic ring conformer: 71.10646124205948 kcal/mol)

>  <smiles>  (49) 
COc1ccc2c(c1)C(=O)N(C)Cc1c-2cnnc1-c1cnc(C(F)(F)F)cn1

>  <score_type>  (49) 
oracle

>  <origin>  (49) 
adg

>  <m_score__min__energy>  (49) 
-7.6799999999999997

>  <m_primary>  (49) 
energy

$$$$
