0:0
     RDKit          3D

 53 56  0  0  0  0  0  0  0  0999 V2000
   -4.3650   24.9500  -26.3760 C   0  0  0  0  0  0  0  0  0  0  0  0
   -4.0970   24.8520  -27.7710 O   0  0  0  0  0  0  0  0  0  0  0  0
   -3.3810   23.8010  -28.3760 C   0  0  0  0  0  0  0  0  0  0  0  0
   -2.7310   22.8080  -27.6250 C   0  0  0  0  0  0  0  0  0  0  0  0
   -2.0060   21.7680  -28.2510 C   0  0  0  0  0  0  0  0  0  0  0  0
   -1.3090   20.7810  -27.5070 C   0  0  0  0  0  0  0  0  0  0  0  0
   -1.2400   20.7940  -25.9860 C   0  0  0  0  0  0  0  0  0  0  0  0
   -0.4830   21.9890  -25.4920 C   0  0  0  0  0  0  0  0  0  0  0  0
   -0.4810   22.4890  -24.2000 C   0  0  0  0  0  0  0  0  0  0  0  0
    0.2910   23.5910  -24.1720 N   0  0  0  0  0  0  0  0  0  0  0  0
    0.7850   23.7970  -25.3820 N   0  0  0  0  0  0  0  0  0  0  0  0
    1.5690   24.9640  -25.7600 C   0  0  0  0  0  0  0  0  0  0  0  0
    0.3280   22.8430  -26.2190 C   0  0  0  0  0  0  0  0  0  0  0  0
   -0.6840   19.7240  -28.1990 C   0  0  0  0  0  0  0  0  0  0  0  0
   -0.1030   18.8190  -27.5340 O   0  0  0  0  0  0  0  0  0  0  0  0
   -0.7030   19.6620  -29.5710 N   0  0  0  0  0  0  0  0  0  0  0  0
   -0.0290   18.5430  -30.2650 C   0  0  0  0  0  0  0  0  0  0  0  0
   -1.3120   20.6450  -30.3110 C   0  0  0  0  0  0  0  0  0  0  0  0
   -1.2830   20.5790  -31.7940 C   0  0  0  0  0  0  0  0  0  0  0  0
   -2.3680   20.0360  -32.4970 C   0  0  0  0  0  0  0  0  0  0  0  0
   -2.3340   19.9670  -33.8920 C   0  0  0  0  0  0  0  0  0  0  0  0
   -1.2150   20.4360  -34.5910 C   0  0  0  0  0  0  0  0  0  0  0  0
   -0.1300   20.9790  -33.8940 C   0  0  0  0  0  0  0  0  0  0  0  0
    1.3990   21.6140  -34.8490 Br  0  0  0  0  0  0  0  0  0  0  0  0
   -0.1630   21.0510  -32.4990 C   0  0  0  0  0  0  0  0  0  0  0  0
   -1.9830   21.7120  -29.6650 C   0  0  0  0  0  0  0  0  0  0  0  0
   -2.6390   22.7210  -30.4080 C   0  0  0  0  0  0  0  0  0  0  0  0
   -3.3320   23.7590  -29.7690 C   0  0  0  0  0  0  0  0  0  0  0  0
   -3.9940   24.7640  -30.4890 O   0  0  0  0  0  0  0  0  0  0  0  0
   -5.4050   24.9600  -30.4990 C   0  0  0  0  0  0  0  0  0  0  0  0
   -3.4798   24.6263  -25.8089 H   0  0  0  0  0  0  0  0  0  0  0  0
   -4.6027   25.9932  -26.1207 H   0  0  0  0  0  0  0  0  0  0  0  0
   -5.2196   24.3062  -26.1207 H   0  0  0  0  0  0  0  0  0  0  0  0
   -2.7871   22.8401  -26.5269 H   0  0  0  0  0  0  0  0  0  0  0  0
   -2.2619   20.8227  -25.5800 H   0  0  0  0  0  0  0  0  0  0  0  0
   -0.7173   19.8858  -25.6516 H   0  0  0  0  0  0  0  0  0  0  0  0
   -1.0190   22.0584  -23.3426 H   0  0  0  0  0  0  0  0  0  0  0  0
    0.4580   24.2060  -23.3440 H   0  0  0  0  0  0  0  0  0  0  0  0
    1.9166   25.4814  -24.8537 H   0  0  0  0  0  0  0  0  0  0  0  0
    2.4369   24.6453  -26.3560 H   0  0  0  0  0  0  0  0  0  0  0  0
    0.9459   25.6470  -26.3560 H   0  0  0  0  0  0  0  0  0  0  0  0
    0.5593   22.7586  -27.2911 H   0  0  0  0  0  0  0  0  0  0  0  0
    0.3891   17.8488  -29.5212 H   0  0  0  0  0  0  0  0  0  0  0  0
   -0.7568   18.0106  -30.8950 H   0  0  0  0  0  0  0  0  0  0  0  0
    0.7819   18.9374  -30.8950 H   0  0  0  0  0  0  0  0  0  0  0  0
   -3.2467   19.6640  -31.9497 H   0  0  0  0  0  0  0  0  0  0  0  0
   -3.1874   19.5437  -34.4420 H   0  0  0  0  0  0  0  0  0  0  0  0
   -1.1889   20.3775  -35.6891 H   0  0  0  0  0  0  0  0  0  0  0  0
    0.6900   21.4783  -31.9513 H   0  0  0  0  0  0  0  0  0  0  0  0
   -2.6049   22.6909  -31.5071 H   0  0  0  0  0  0  0  0  0  0  0  0
   -5.7754   25.0114  -29.4645 H   0  0  0  0  0  0  0  0  0  0  0  0
   -5.6410   25.8995  -31.0201 H   0  0  0  0  0  0  0  0  0  0  0  0
   -5.8881   24.1203  -31.0201 H   0  0  0  0  0  0  0  0  0  0  0  0
  1  2  1  0
  2  3  1  0
  3  4  2  0
  4  5  1  0
  5  6  2  0
  6  7  1  0
  7  8  1  0
  8  9  1  0
  9 10  2  0
 10 11  1  0
 11 12  1  0
 11 13  1  0
  6 14  1  0
 14 15  2  0
 14 16  1  0
 16 17  1  0
 16 18  1  0
 18 19  1  0
 19 20  2  0
 20 21  1  0
 21 22  2  0
 22 23  1  0
 23 24  1  0
 23 25  2  0
 18 26  2  0
 26 27  1  0
 27 28  2  0
 28 29  1  0
 29 30  1  0
 28  3  1  0
 26  5  1  0
 13  8  2  0
 25 19  1  0
  1 31  1  0
  1 32  1  0
  1 33  1  0
  4 34  1  0
  7 35  1  0
  7 36  1  0
  9 37  1  0
 10 38  1  0
 12 39  1  0
 12 40  1  0
 12 41  1  0
 13 42  1  0
 17 43  1  0
 17 44  1  0
 17 45  1  0
 20 46  1  0
 21 47  1  0
 22 48  1  0
 25 49  1  0
 27 50  1  0
 30 51  1  0
 30 52  1  0
 30 53  1  0
M  CHG  1  10   1
M  END
>  <UniqueID>  (1) 
1

>  <SMILES>  (1) 
COc1cc2c(Cc3c[nH+]n(C)c3)c(=O)n(C)c(-c3cccc(Br)c3)c2cc1OC

>  <Energy>  (1) 
106.91351364480255

>  <Genealogy>  (1) 
COc1cc2c(Cc3c[nH+]n(C)c3)c(=O)n(C)c(-c3cccc(Br)c3)c2cc1OC (protonated)
COc1cc2c(Cc3c[nH+]n(C)c3)c(=O)n(C)c(-c3cccc(Br)c3)c2cc1OC (3D coordinates assigned)
COc1cc2c(Cc3c[nH+]n(C)c3)c(=O)n(C)c(-c3cccc(Br)c3)c2cc1OC (optimized conformer: 106.91351364480255 kcal/mol)

>  <smiles>  (1) 
COc1cc2c(Cc3cnn(C)c3)c(=O)n(C)c(-c3cccc(Br)c3)c2cc1OC

>  <score_type>  (1) 
oracle

>  <origin>  (1) 
adg

>  <m_score__min__energy>  (1) 
-8.7300000000000004

>  <m_primary>  (1) 
energy

$$$$
1:0
     RDKit          3D

 70 73  0  0  0  0  0  0  0  0999 V2000
   -2.7900   21.1120  -27.8250 C   0  0  0  0  0  0  0  0  0  0  0  0
   -1.5010   21.5590  -27.1330 C   0  0  0  0  0  0  0  0  0  0  0  0
   -1.4580   23.0270  -26.9450 N   0  0  0  0  0  0  0  0  0  0  0  0
   -0.6040   23.3870  -25.7970 C   0  0  0  0  0  0  0  0  0  0  0  0
   -0.9890   23.7060  -28.1770 C   0  0  0  0  0  0  0  0  0  0  0  0
   -1.5390   25.1340  -28.2570 C   0  0  0  0  0  0  0  0  0  0  0  0
   -2.4580   25.2800  -29.3430 O   0  0  0  0  0  0  0  0  0  0  0  0
   -3.3620   24.3110  -29.8060 C   0  0  0  0  0  0  0  0  0  0  0  0
   -4.7100   24.4560  -29.4570 C   0  0  0  0  0  0  0  0  0  0  0  0
   -5.6630   23.5350  -29.8950 C   0  0  0  0  0  0  0  0  0  0  0  0
   -5.2790   22.4510  -30.6960 C   0  0  0  0  0  0  0  0  0  0  0  0
   -6.2210   21.5320  -31.1610 C   0  0  0  0  0  0  0  0  0  0  0  0
   -5.8340   20.4500  -31.9870 C   0  0  0  0  0  0  0  0  0  0  0  0
   -4.4510   20.2870  -32.2520 C   0  0  0  0  0  0  0  0  0  0  0  0
   -3.5520   21.2220  -31.8100 N   0  0  0  0  0  0  0  0  0  0  0  0
   -3.9280   22.2840  -31.0450 C   0  0  0  0  0  0  0  0  0  0  0  0
   -2.9740   23.2110  -30.5950 C   0  0  0  0  0  0  0  0  0  0  0  0
   -4.0170   19.1610  -32.9700 C   0  0  0  0  0  0  0  0  0  0  0  0
   -2.6190   18.9680  -33.2330 N   0  0  0  0  0  0  0  0  0  0  0  0
   -1.9160   17.8110  -32.6800 C   0  0  0  0  0  0  0  0  0  0  0  0
   -0.4560   18.1440  -32.3440 C   0  0  0  0  0  0  0  0  0  0  0  0
    0.0690   19.3890  -33.0810 C   0  0  0  0  0  0  0  0  0  0  0  0
   -0.7210   20.6000  -32.7590 N   0  0  0  0  0  0  0  0  0  0  0  0
   -0.6600   21.5500  -33.8810 C   0  0  0  0  0  0  0  0  0  0  0  0
   -0.2190   21.2550  -31.5380 C   0  0  0  0  0  0  0  0  0  0  0  0
   -4.9490   18.1920  -33.3760 C   0  0  0  0  0  0  0  0  0  0  0  0
   -4.5250   17.0130  -34.0260 C   0  0  0  0  0  0  0  0  0  0  0  0
   -5.4420   16.0250  -34.3750 C   0  0  0  0  0  0  0  0  0  0  0  0
   -6.7880   16.1850  -34.0700 C   0  0  0  0  0  0  0  0  0  0  0  0
   -7.2310   17.3470  -33.4360 C   0  0  0  0  0  0  0  0  0  0  0  0
   -6.3280   18.3910  -33.1060 C   0  0  0  0  0  0  0  0  0  0  0  0
   -6.7570   19.5670  -32.5180 N   0  0  0  0  0  0  0  0  0  0  0  0
   -8.2000   19.8970  -32.4900 C   0  0  0  0  0  0  0  0  0  0  0  0
   -3.5422   20.8512  -27.0659 H   0  0  0  0  0  0  0  0  0  0  0  0
   -3.1716   21.9303  -28.4533 H   0  0  0  0  0  0  0  0  0  0  0  0
   -2.5831   20.2331  -28.4533 H   0  0  0  0  0  0  0  0  0  0  0  0
   -1.4381   21.0721  -26.1487 H   0  0  0  0  0  0  0  0  0  0  0  0
   -0.6528   21.2713  -27.7716 H   0  0  0  0  0  0  0  0  0  0  0  0
   -1.1354   23.1630  -24.8603 H   0  0  0  0  0  0  0  0  0  0  0  0
    0.3289   22.8056  -25.8374 H   0  0  0  0  0  0  0  0  0  0  0  0
   -0.3688   24.4608  -25.8374 H   0  0  0  0  0  0  0  0  0  0  0  0
    0.1104   23.7432  -28.1716 H   0  0  0  0  0  0  0  0  0  0  0  0
   -1.3498   23.1409  -29.0490 H   0  0  0  0  0  0  0  0  0  0  0  0
   -2.0567   25.3712  -27.3159 H   0  0  0  0  0  0  0  0  0  0  0  0
   -0.6957   25.8206  -28.4229 H   0  0  0  0  0  0  0  0  0  0  0  0
   -5.0215   25.3050  -28.8308 H   0  0  0  0  0  0  0  0  0  0  0  0
   -6.7182   23.6603  -29.6107 H   0  0  0  0  0  0  0  0  0  0  0  0
   -7.2783   21.6503  -30.8817 H   0  0  0  0  0  0  0  0  0  0  0  0
   -2.5420   21.1330  -32.0600 H   0  0  0  0  0  0  0  0  0  0  0  0
   -1.9151   23.0768  -30.8610 H   0  0  0  0  0  0  0  0  0  0  0  0
   -2.1820   19.5380  -33.9930 H   0  0  0  0  0  0  0  0  0  0  0  0
   -2.4285   17.4872  -31.7621 H   0  0  0  0  0  0  0  0  0  0  0  0
   -1.9212   17.0119  -33.4359 H   0  0  0  0  0  0  0  0  0  0  0  0
   -0.3784   18.3206  -31.2610 H   0  0  0  0  0  0  0  0  0  0  0  0
    0.1564   17.2901  -32.6694 H   0  0  0  0  0  0  0  0  0  0  0  0
    1.1155   19.5597  -32.7884 H   0  0  0  0  0  0  0  0  0  0  0  0
   -0.0175   19.2050  -34.1620 H   0  0  0  0  0  0  0  0  0  0  0  0
   -0.5941   22.5759  -33.4896 H   0  0  0  0  0  0  0  0  0  0  0  0
    0.2262   21.3346  -34.4961 H   0  0  0  0  0  0  0  0  0  0  0  0
   -1.5664   21.4497  -34.4961 H   0  0  0  0  0  0  0  0  0  0  0  0
   -0.6168   20.7360  -30.6535 H   0  0  0  0  0  0  0  0  0  0  0  0
    0.8801   21.2126  -31.5246 H   0  0  0  0  0  0  0  0  0  0  0  0
   -0.5456   22.3053  -31.5246 H   0  0  0  0  0  0  0  0  0  0  0  0
   -3.4591   16.8733  -34.2593 H   0  0  0  0  0  0  0  0  0  0  0  0
   -5.1003   15.1167  -34.8928 H   0  0  0  0  0  0  0  0  0  0  0  0
   -7.5067   15.3936  -34.3289 H   0  0  0  0  0  0  0  0  0  0  0  0
   -8.2972   17.4553  -33.1881 H   0  0  0  0  0  0  0  0  0  0  0  0
   -8.5383   19.9744  -31.4462 H   0  0  0  0  0  0  0  0  0  0  0  0
   -8.3667   20.8565  -33.0015 H   0  0  0  0  0  0  0  0  0  0  0  0
   -8.7672   19.1054  -33.0015 H   0  0  0  0  0  0  0  0  0  0  0  0
  1  2  1  0
  2  3  1  0
  3  4  1  0
  3  5  1  0
  5  6  1  0
  6  7  1  0
  7  8  1  0
  8  9  2  0
  9 10  1  0
 10 11  2  0
 11 12  1  0
 12 13  2  0
 13 14  1  0
 14 15  2  0
 15 16  1  0
 16 17  2  0
 14 18  1  0
 18 19  1  0
 19 20  1  0
 20 21  1  0
 21 22  1  0
 22 23  1  0
 23 24  1  0
 23 25  1  0
 18 26  2  0
 26 27  1  0
 27 28  2  0
 28 29  1  0
 29 30  2  0
 30 31  1  0
 31 32  2  0
 32 33  1  0
 17  8  1  0
 31 26  1  0
 16 11  1  0
 32 13  1  0
  1 34  1  0
  1 35  1  0
  1 36  1  0
  2 37  1  0
  2 38  1  0
  4 39  1  0
  4 40  1  0
  4 41  1  0
  5 42  1  0
  5 43  1  0
  6 44  1  0
  6 45  1  0
  9 46  1  0
 10 47  1  0
 12 48  1  0
 15 49  1  0
 17 50  1  0
 19 51  1  0
 20 52  1  0
 20 53  1  0
 21 54  1  0
 21 55  1  0
 22 56  1  0
 22 57  1  0
 24 58  1  0
 24 59  1  0
 24 60  1  0
 25 61  1  0
 25 62  1  0
 25 63  1  0
 27 64  1  0
 28 65  1  0
 29 66  1  0
 30 67  1  0
 33 68  1  0
 33 69  1  0
 33 70  1  0
M  CHG  2  15   1  32   1
M  END
>  <UniqueID>  (2) 
2

>  <SMILES>  (2) 
CCN(C)CCOc1ccc2cc3c([nH+]c2c1)c(NCCCN(C)C)c1ccccc1[n+]3C

>  <Energy>  (2) 
95.58931529627058

>  <Genealogy>  (2) 
CCN(C)CCOc1ccc2cc3c([nH+]c2c1)c(NCCCN(C)C)c1ccccc1[n+]3C (protonated)
CCN(C)CCOc1ccc2cc3c([nH+]c2c1)c(NCCCN(C)C)c1ccccc1[n+]3C (3D coordinates assigned)
CCN(C)CCOc1ccc2cc3c([nH+]c2c1)c(NCCCN(C)C)c1ccccc1[n+]3C (optimized conformer: 95.58931529627058 kcal/mol)

>  <smiles>  (2) 
CCN(C)CCOc1ccc2cc3c(nc2c1)c(NCCCN(C)C)c1ccccc1[n+]3C

>  <score_type>  (2) 
oracle

>  <origin>  (2) 
adg

>  <m_score__min__energy>  (2) 
-8.6300000000000008

>  <m_primary>  (2) 
energy

$$$$
2:0
     RDKit          3D

 56 57  0  0  0  0  0  0  0  0999 V2000
   -1.6250   26.4260  -24.9900 C   0  0  0  0  0  0  0  0  0  0  0  0
   -1.6100   25.1120  -25.7740 C   0  0  0  0  0  0  0  0  0  0  0  0
   -2.8680   24.9270  -26.6390 C   0  0  0  0  0  0  0  0  0  0  0  0
   -2.5350   24.5390  -28.0890 C   0  0  0  0  0  0  0  0  0  0  0  0
   -3.6790   23.8490  -28.7090 N   0  0  0  0  0  0  0  0  0  0  0  0
   -4.0430   22.4950  -28.2570 C   0  0  0  0  0  0  0  0  0  0  0  0
   -2.8510   21.5690  -28.3020 C   0  0  0  0  0  0  0  0  0  0  0  0
   -2.4840   20.8550  -27.1490 C   0  0  0  0  0  0  0  0  0  0  0  0
   -1.4020   19.9780  -27.1770 C   0  0  0  0  0  0  0  0  0  0  0  0
   -0.6750   19.7990  -28.3520 C   0  0  0  0  0  0  0  0  0  0  0  0
   -1.0240   20.5000  -29.5040 C   0  0  0  0  0  0  0  0  0  0  0  0
   -2.1120   21.3960  -29.4930 C   0  0  0  0  0  0  0  0  0  0  0  0
   -2.4810   22.1260  -30.6360 O   0  0  0  0  0  0  0  0  0  0  0  0
   -2.2130   21.7160  -31.9730 C   0  0  0  0  0  0  0  0  0  0  0  0
   -4.4480   24.5350  -29.7190 C   0  0  0  0  0  0  0  0  0  0  0  0
   -3.8640   25.3010  -30.5320 O   0  0  0  0  0  0  0  0  0  0  0  0
   -5.9440   24.4070  -29.7950 C   0  0  0  0  0  0  0  0  0  0  0  0
   -6.3400   23.1480  -30.4220 N   0  0  0  0  0  0  0  0  0  0  0  0
   -5.7990   22.6960  -31.6730 C   0  0  0  0  0  0  0  0  0  0  0  0
   -5.0270   23.4480  -32.3290 O   0  0  0  0  0  0  0  0  0  0  0  0
   -6.1750   21.3750  -32.2350 C   0  0  0  0  0  0  0  0  0  0  0  0
   -5.2050   20.6320  -32.9310 C   0  0  0  0  0  0  0  0  0  0  0  0
   -5.5270   19.4020  -33.5020 C   0  0  0  0  0  0  0  0  0  0  0  0
   -6.8160   18.8890  -33.3760 C   0  0  0  0  0  0  0  0  0  0  0  0
   -7.7870   19.5990  -32.6680 C   0  0  0  0  0  0  0  0  0  0  0  0
   -7.4790   20.8440  -32.0810 C   0  0  0  0  0  0  0  0  0  0  0  0
   -8.4290   21.5550  -31.3260 O   0  0  0  0  0  0  0  0  0  0  0  0
   -9.8260   21.5820  -31.6030 C   0  0  0  0  0  0  0  0  0  0  0  0
   -1.6225   26.2095  -23.9115 H   0  0  0  0  0  0  0  0  0  0  0  0
   -0.7335   27.0168  -25.2474 H   0  0  0  0  0  0  0  0  0  0  0  0
   -2.5297   26.9963  -25.2474 H   0  0  0  0  0  0  0  0  0  0  0  0
   -0.7268   25.1026  -26.4296 H   0  0  0  0  0  0  0  0  0  0  0  0
   -1.5819   24.2886  -25.0451 H   0  0  0  0  0  0  0  0  0  0  0  0
   -3.4875   24.1338  -26.1952 H   0  0  0  0  0  0  0  0  0  0  0  0
   -3.3998   25.8895  -26.6648 H   0  0  0  0  0  0  0  0  0  0  0  0
   -2.3044   25.4479  -28.6640 H   0  0  0  0  0  0  0  0  0  0  0  0
   -1.6671   23.8632  -28.0883 H   0  0  0  0  0  0  0  0  0  0  0  0
   -4.4171   22.5494  -27.2240 H   0  0  0  0  0  0  0  0  0  0  0  0
   -4.8191   22.0990  -28.9284 H   0  0  0  0  0  0  0  0  0  0  0  0
   -3.0547   20.9893  -26.2182 H   0  0  0  0  0  0  0  0  0  0  0  0
   -1.1207   19.4251  -26.2686 H   0  0  0  0  0  0  0  0  0  0  0  0
    0.1763   19.1027  -28.3700 H   0  0  0  0  0  0  0  0  0  0  0  0
   -0.4465   20.3533  -30.4287 H   0  0  0  0  0  0  0  0  0  0  0  0
   -1.6112   20.7953  -31.9605 H   0  0  0  0  0  0  0  0  0  0  0  0
   -3.1622   21.5266  -32.4957 H   0  0  0  0  0  0  0  0  0  0  0  0
   -1.6586   22.5094  -32.4957 H   0  0  0  0  0  0  0  0  0  0  0  0
   -6.3587   24.4458  -28.7769 H   0  0  0  0  0  0  0  0  0  0  0  0
   -6.3318   25.2353  -30.4062 H   0  0  0  0  0  0  0  0  0  0  0  0
   -7.1430   22.6290  -30.0010 H   0  0  0  0  0  0  0  0  0  0  0  0
   -4.1821   21.0254  -33.0257 H   0  0  0  0  0  0  0  0  0  0  0  0
   -4.7620   18.8354  -34.0531 H   0  0  0  0  0  0  0  0  0  0  0  0
   -7.0692   17.9222  -33.8355 H   0  0  0  0  0  0  0  0  0  0  0  0
   -8.8008   19.1842  -32.5670 H   0  0  0  0  0  0  0  0  0  0  0  0
  -10.3872   21.5928  -30.6570 H   0  0  0  0  0  0  0  0  0  0  0  0
  -10.0674   22.4850  -32.1830 H   0  0  0  0  0  0  0  0  0  0  0  0
  -10.1021   20.6890  -32.1830 H   0  0  0  0  0  0  0  0  0  0  0  0
  1  2  1  0
  2  3  1  0
  3  4  1  0
  4  5  1  0
  5  6  1  0
  6  7  1  0
  7  8  2  0
  8  9  1  0
  9 10  2  0
 10 11  1  0
 11 12  2  0
 12 13  1  0
 13 14  1  0
  5 15  1  0
 15 16  2  0
 15 17  1  0
 17 18  1  0
 18 19  1  0
 19 20  2  0
 19 21  1  0
 21 22  2  0
 22 23  1  0
 23 24  2  0
 24 25  1  0
 25 26  2  0
 26 27  1  0
 27 28  1  0
 12  7  1  0
 26 21  1  0
  1 29  1  0
  1 30  1  0
  1 31  1  0
  2 32  1  0
  2 33  1  0
  3 34  1  0
  3 35  1  0
  4 36  1  0
  4 37  1  0
  6 38  1  0
  6 39  1  0
  8 40  1  0
  9 41  1  0
 10 42  1  0
 11 43  1  0
 14 44  1  0
 14 45  1  0
 14 46  1  0
 17 47  1  0
 17 48  1  0
 18 49  1  0
 22 50  1  0
 23 51  1  0
 24 52  1  0
 25 53  1  0
 28 54  1  0
 28 55  1  0
 28 56  1  0
M  END
>  <UniqueID>  (3) 
3

>  <SMILES>  (3) 
CCCCN(Cc1ccccc1OC)C(=O)CNC(=O)c1ccccc1OC

>  <Energy>  (3) 
46.63842964750173

>  <Genealogy>  (3) 
CCCCN(Cc1ccccc1OC)C(=O)CNC(=O)c1ccccc1OC (3D coordinates assigned)
CCCCN(Cc1ccccc1OC)C(=O)CNC(=O)c1ccccc1OC (optimized conformer: 46.63842964750173 kcal/mol)

>  <smiles>  (3) 
CCCCN(Cc1ccccc1OC)C(=O)CNC(=O)c1ccccc1OC

>  <score_type>  (3) 
oracle

>  <origin>  (3) 
adg

>  <m_score__min__energy>  (3) 
-8.1600000000000001

>  <m_primary>  (3) 
energy

$$$$
3:0
     RDKit          3D

 75 78  0  0  0  0  0  0  0  0999 V2000
    0.5310   18.5210  -31.3970 C   0  0  0  0  0  0  0  0  0  0  0  0
    0.6440   19.9420  -31.9450 C   0  0  0  0  0  0  0  0  0  0  0  0
   -0.6740   20.6150  -32.0020 N   0  0  0  0  0  0  0  0  0  0  0  0
   -0.9730   21.5400  -30.8790 C   0  0  0  0  0  0  0  0  0  0  0  0
   -1.5580   20.8610  -29.6370 C   0  0  0  0  0  0  0  0  0  0  0  0
   -1.0540   21.1350  -33.3400 C   0  0  0  0  0  0  0  0  0  0  0  0
   -2.4860   20.7580  -33.7810 C   0  0  0  0  0  0  0  0  0  0  0  0
   -3.1860   20.0220  -32.7280 N   0  0  0  0  0  0  0  0  0  0  0  0
   -4.6210   19.9080  -32.7050 C   0  0  0  0  0  0  0  0  0  0  0  0
   -5.2350   18.7070  -33.0940 C   0  0  0  0  0  0  0  0  0  0  0  0
   -4.4700   17.6340  -33.6000 C   0  0  0  0  0  0  0  0  0  0  0  0
   -5.0860   16.4630  -34.0310 C   0  0  0  0  0  0  0  0  0  0  0  0
   -6.4680   16.3420  -33.9740 C   0  0  0  0  0  0  0  0  0  0  0  0
   -7.2430   17.3790  -33.4560 C   0  0  0  0  0  0  0  0  0  0  0  0
   -6.6430   18.5700  -32.9720 C   0  0  0  0  0  0  0  0  0  0  0  0
   -7.3910   19.5820  -32.4000 N   0  0  0  0  0  0  0  0  0  0  0  0
   -8.7940   19.3320  -31.9980 C   0  0  0  0  0  0  0  0  0  0  0  0
   -6.8230   20.8260  -32.1900 C   0  0  0  0  0  0  0  0  0  0  0  0
   -7.6090   21.9580  -31.8570 C   0  0  0  0  0  0  0  0  0  0  0  0
   -7.0200   23.1950  -31.6080 C   0  0  0  0  0  0  0  0  0  0  0  0
   -5.6420   23.3630  -31.7150 C   0  0  0  0  0  0  0  0  0  0  0  0
   -5.1090   24.6310  -31.4250 O   0  0  0  0  0  0  0  0  0  0  0  0
   -5.2190   25.3210  -30.1800 C   0  0  0  0  0  0  0  0  0  0  0  0
   -5.3370   24.3600  -28.9670 C   0  0  0  0  0  0  0  0  0  0  0  0
   -4.0620   23.8010  -28.3990 N   0  0  0  0  0  0  0  0  0  0  0  0
   -4.2450   22.3610  -28.0740 C   0  0  0  0  0  0  0  0  0  0  0  0
   -3.6880   24.5500  -27.1590 C   0  0  0  0  0  0  0  0  0  0  0  0
   -2.3120   24.1440  -26.5860 C   0  0  0  0  0  0  0  0  0  0  0  0
   -1.2430   23.9180  -27.6640 C   0  0  0  0  0  0  0  0  0  0  0  0
   -1.6610   24.5240  -28.9960 C   0  0  0  0  0  0  0  0  0  0  0  0
   -3.0010   23.9300  -29.4710 C   0  0  0  0  0  0  0  0  0  0  0  0
   -4.8520   22.2750  -32.1120 C   0  0  0  0  0  0  0  0  0  0  0  0
   -5.4210   21.0020  -32.3280 C   0  0  0  0  0  0  0  0  0  0  0  0
    0.5334   18.5508  -30.2974 H   0  0  0  0  0  0  0  0  0  0  0  0
   -0.4062   18.0655  -31.7494 H   0  0  0  0  0  0  0  0  0  0  0  0
    1.3844   17.9231  -31.7494 H   0  0  0  0  0  0  0  0  0  0  0  0
    1.3128   20.5231  -31.2930 H   0  0  0  0  0  0  0  0  0  0  0  0
    1.0430   19.8835  -32.9684 H   0  0  0  0  0  0  0  0  0  0  0  0
   -0.0381   22.0415  -30.5884 H   0  0  0  0  0  0  0  0  0  0  0  0
   -1.7397   22.2390  -31.2444 H   0  0  0  0  0  0  0  0  0  0  0  0
   -1.1491   21.3356  -28.7328 H   0  0  0  0  0  0  0  0  0  0  0  0
   -2.6529   20.9661  -29.6431 H   0  0  0  0  0  0  0  0  0  0  0  0
   -1.2921   19.7936  -29.6431 H   0  0  0  0  0  0  0  0  0  0  0  0
   -0.9769   22.2321  -33.3187 H   0  0  0  0  0  0  0  0  0  0  0  0
   -0.3675   20.6743  -34.0656 H   0  0  0  0  0  0  0  0  0  0  0  0
   -3.0452   21.6774  -34.0090 H   0  0  0  0  0  0  0  0  0  0  0  0
   -2.4191   20.1148  -34.6708 H   0  0  0  0  0  0  0  0  0  0  0  0
   -2.6350   19.6230  -31.9340 H   0  0  0  0  0  0  0  0  0  0  0  0
   -3.3751   17.7245  -33.6542 H   0  0  0  0  0  0  0  0  0  0  0  0
   -4.4773   15.6322  -34.4173 H   0  0  0  0  0  0  0  0  0  0  0  0
   -6.9533   15.4247  -34.3388 H   0  0  0  0  0  0  0  0  0  0  0  0
   -8.3372   17.2719  -33.4221 H   0  0  0  0  0  0  0  0  0  0  0  0
   -8.8642   19.3195  -30.9003 H   0  0  0  0  0  0  0  0  0  0  0  0
   -9.4376   20.1296  -32.3975 H   0  0  0  0  0  0  0  0  0  0  0  0
   -9.1225   18.3612  -32.3975 H   0  0  0  0  0  0  0  0  0  0  0  0
   -8.7026   21.8574  -31.7943 H   0  0  0  0  0  0  0  0  0  0  0  0
   -7.6511   24.0498  -31.3233 H   0  0  0  0  0  0  0  0  0  0  0  0
   -4.3252   25.9480  -30.0457 H   0  0  0  0  0  0  0  0  0  0  0  0
   -6.1389   25.9231  -30.2157 H   0  0  0  0  0  0  0  0  0  0  0  0
   -5.8448   24.9085  -28.1600 H   0  0  0  0  0  0  0  0  0  0  0  0
   -5.8794   23.4848  -29.3540 H   0  0  0  0  0  0  0  0  0  0  0  0
   -4.2615   22.2308  -26.9819 H   0  0  0  0  0  0  0  0  0  0  0  0
   -5.1954   22.0069  -28.4999 H   0  0  0  0  0  0  0  0  0  0  0  0
   -3.4134   21.7804  -28.4999 H   0  0  0  0  0  0  0  0  0  0  0  0
   -3.6639   25.6241  -27.3949 H   0  0  0  0  0  0  0  0  0  0  0  0
   -4.4412   24.3078  -26.3948 H   0  0  0  0  0  0  0  0  0  0  0  0
   -1.9653   24.9427  -25.9137 H   0  0  0  0  0  0  0  0  0  0  0  0
   -2.4495   23.1873  -26.0608 H   0  0  0  0  0  0  0  0  0  0  0  0
   -0.3018   24.3847  -27.3381 H   0  0  0  0  0  0  0  0  0  0  0  0
   -1.1140   22.8343  -27.8019 H   0  0  0  0  0  0  0  0  0  0  0  0
   -1.7704   25.6122  -28.8786 H   0  0  0  0  0  0  0  0  0  0  0  0
   -0.8887   24.2953  -29.7452 H   0  0  0  0  0  0  0  0  0  0  0  0
   -3.3977   24.5774  -30.2670 H   0  0  0  0  0  0  0  0  0  0  0  0
   -2.7801   22.9065  -29.8082 H   0  0  0  0  0  0  0  0  0  0  0  0
   -3.7708   22.4161  -32.2575 H   0  0  0  0  0  0  0  0  0  0  0  0
  1  2  1  0
  2  3  1  0
  3  4  1  0
  4  5  1  0
  3  6  1  0
  6  7  1  0
  7  8  1  0
  8  9  1  0
  9 10  2  0
 10 11  1  0
 11 12  2  0
 12 13  1  0
 13 14  2  0
 14 15  1  0
 15 16  2  0
 16 17  1  0
 16 18  1  0
 18 19  2  0
 19 20  1  0
 20 21  2  0
 21 22  1  0
 22 23  1  0
 23 24  1  0
 24 25  1  0
 25 26  1  0
 25 27  1  0
 27 28  1  0
 28 29  1  0
 29 30  1  0
 30 31  1  0
 21 32  1  0
 32 33  2  0
 33  9  1  0
 15 10  1  0
 33 18  1  0
 31 25  1  0
  1 34  1  0
  1 35  1  0
  1 36  1  0
  2 37  1  0
  2 38  1  0
  4 39  1  0
  4 40  1  0
  5 41  1  0
  5 42  1  0
  5 43  1  0
  6 44  1  0
  6 45  1  0
  7 46  1  0
  7 47  1  0
  8 48  1  0
 11 49  1  0
 12 50  1  0
 13 51  1  0
 14 52  1  0
 17 53  1  0
 17 54  1  0
 17 55  1  0
 19 56  1  0
 20 57  1  0
 23 58  1  0
 23 59  1  0
 24 60  1  0
 24 61  1  0
 26 62  1  0
 26 63  1  0
 26 64  1  0
 27 65  1  0
 27 66  1  0
 28 67  1  0
 28 68  1  0
 29 69  1  0
 29 70  1  0
 30 71  1  0
 30 72  1  0
 31 73  1  0
 31 74  1  0
 32 75  1  0
M  CHG  2  16   1  25   1
M  END
>  <UniqueID>  (4) 
4

>  <SMILES>  (4) 
CCN(CC)CCNc1c2ccccc2[n+](C)c2ccc(OCC[N+]3(C)CCCCC3)cc12

>  <Energy>  (4) 
122.48934943256813

>  <Genealogy>  (4) 
CCN(CC)CCNc1c2ccccc2[n+](C)c2ccc(OCC[N+]3(C)CCCCC3)cc12 (3D coordinates assigned)
CCN(CC)CCNc1c2ccccc2[n+](C)c2ccc(OCC[N+]3(C)CCCCC3)cc12 (nonaromatic ring conformer: 122.48934943256813 kcal/mol)

>  <smiles>  (4) 
CCN(CC)CCNc1c2ccccc2[n+](C)c2ccc(OCC[N+]3(C)CCCCC3)cc12

>  <score_type>  (4) 
oracle

>  <origin>  (4) 
adg

>  <m_score__min__energy>  (4) 
-8.2100000000000009

>  <m_primary>  (4) 
energy

$$$$
4:0
     RDKit          3D

 37 38  0  0  0  0  0  0  0  0999 V2000
   -6.2220   25.2930  -29.6450 C   0  0  0  0  0  0  0  0  0  0  0  0
   -5.3460   25.6720  -30.8350 C   0  0  0  0  0  0  0  0  0  0  0  0
   -4.0140   25.1910  -30.6550 O   0  0  0  0  0  0  0  0  0  0  0  0
   -3.6400   24.0640  -29.9010 C   0  0  0  0  0  0  0  0  0  0  0  0
   -3.2490   24.1590  -28.5500 C   0  0  0  0  0  0  0  0  0  0  0  0
   -2.8800   23.0160  -27.8390 C   0  0  0  0  0  0  0  0  0  0  0  0
   -2.8930   21.7660  -28.4630 C   0  0  0  0  0  0  0  0  0  0  0  0
   -2.3780   20.2080  -27.4860 Br  0  0  0  0  0  0  0  0  0  0  0  0
   -3.2820   21.6580  -29.7990 C   0  0  0  0  0  0  0  0  0  0  0  0
   -3.6650   22.7990  -30.5230 C   0  0  0  0  0  0  0  0  0  0  0  0
   -4.0580   22.6740  -31.9730 C   0  0  0  0  0  0  0  0  0  0  0  0
   -5.5130   22.8400  -32.0990 N   0  0  0  0  0  0  0  0  0  0  0  0
   -6.2410   21.9450  -31.1770 C   0  0  0  0  0  0  0  0  0  0  0  0
   -6.5200   20.5940  -31.8360 C   0  0  0  0  0  0  0  0  0  0  0  0
   -7.8010   20.7850  -32.6340 C   0  0  0  0  0  0  0  0  0  0  0  0
   -8.5580   21.9280  -31.9640 C   0  0  0  0  0  0  0  0  0  0  0  0
   -7.6390   22.4970  -30.8870 C   0  0  0  0  0  0  0  0  0  0  0  0
   -5.6901   25.5231  -28.7101 H   0  0  0  0  0  0  0  0  0  0  0  0
   -7.1604   25.8656  -29.6834 H   0  0  0  0  0  0  0  0  0  0  0  0
   -6.4472   24.2170  -29.6834 H   0  0  0  0  0  0  0  0  0  0  0  0
   -5.7687   25.2306  -31.7496 H   0  0  0  0  0  0  0  0  0  0  0  0
   -5.3177   26.7685  -30.9181 H   0  0  0  0  0  0  0  0  0  0  0  0
   -3.2346   25.1402  -28.0529 H   0  0  0  0  0  0  0  0  0  0  0  0
   -2.5781   23.0996  -26.7845 H   0  0  0  0  0  0  0  0  0  0  0  0
   -3.2887   20.6728  -30.2882 H   0  0  0  0  0  0  0  0  0  0  0  0
   -3.5474   23.4515  -32.5602 H   0  0  0  0  0  0  0  0  0  0  0  0
   -3.7668   21.6822  -32.3491 H   0  0  0  0  0  0  0  0  0  0  0  0
   -5.7550   22.5900  -33.0870 H   0  0  0  0  0  0  0  0  0  0  0  0
   -5.6144   21.8588  -30.2770 H   0  0  0  0  0  0  0  0  0  0  0  0
   -5.6909   20.3132  -32.5021 H   0  0  0  0  0  0  0  0  0  0  0  0
   -6.6203   19.7908  -31.0912 H   0  0  0  0  0  0  0  0  0  0  0  0
   -7.5649   21.0443  -33.6766 H   0  0  0  0  0  0  0  0  0  0  0  0
   -8.4020   19.8638  -32.6510 H   0  0  0  0  0  0  0  0  0  0  0  0
   -8.8010   22.7054  -32.7033 H   0  0  0  0  0  0  0  0  0  0  0  0
   -9.5029   21.5720  -31.5275 H   0  0  0  0  0  0  0  0  0  0  0  0
   -7.6317   23.5959  -30.9347 H   0  0  0  0  0  0  0  0  0  0  0  0
   -7.9796   22.2123  -29.8806 H   0  0  0  0  0  0  0  0  0  0  0  0
  1  2  1  0
  2  3  1  0
  3  4  1  0
  4  5  2  0
  5  6  1  0
  6  7  2  0
  7  8  1  0
  7  9  1  0
  9 10  2  0
 10 11  1  0
 11 12  1  0
 12 13  1  0
 13 14  1  0
 14 15  1  0
 15 16  1  0
 16 17  1  0
 10  4  1  0
 17 13  1  0
  1 18  1  0
  1 19  1  0
  1 20  1  0
  2 21  1  0
  2 22  1  0
  5 23  1  0
  6 24  1  0
  9 25  1  0
 11 26  1  0
 11 27  1  0
 12 28  1  0
 13 29  1  0
 14 30  1  0
 14 31  1  0
 15 32  1  0
 15 33  1  0
 16 34  1  0
 16 35  1  0
 17 36  1  0
 17 37  1  0
M  END
>  <UniqueID>  (5) 
5

>  <SMILES>  (5) 
CCOc1ccc(Br)cc1CNC1CCCC1

>  <Energy>  (5) 
33.10949763761784

>  <Genealogy>  (5) 
CCOc1ccc(Br)cc1CNC1CCCC1 (3D coordinates assigned)
CCOc1ccc(Br)cc1CNC1CCCC1 (nonaromatic ring conformer: 33.10949763761784 kcal/mol)

>  <smiles>  (5) 
CCOc1ccc(Br)cc1CNC1CCCC1

>  <score_type>  (5) 
oracle

>  <origin>  (5) 
adg

>  <m_score__min__energy>  (5) 
-7.3499999999999996

>  <m_primary>  (5) 
energy

$$$$
5:0
     RDKit          3D

 32 33  0  0  0  0  0  0  0  0999 V2000
   -2.2790   20.7870  -33.4650 C   0  0  0  0  0  0  0  0  0  0  0  0
   -2.8650   19.4100  -33.1700 C   0  0  0  0  0  0  0  0  0  0  0  0
   -3.8610   19.0510  -34.1900 N   0  0  0  0  0  0  0  0  0  0  0  0
   -4.5690   17.8110  -33.8420 C   0  0  0  0  0  0  0  0  0  0  0  0
   -5.9920   18.1380  -33.3850 C   0  0  0  0  0  0  0  0  0  0  0  0
   -6.3470   19.4740  -33.7450 O   0  0  0  0  0  0  0  0  0  0  0  0
   -6.4930   20.5500  -32.8530 C   0  0  0  0  0  0  0  0  0  0  0  0
   -5.4800   21.5110  -32.6590 C   0  0  0  0  0  0  0  0  0  0  0  0
   -5.6640   22.5600  -31.7530 C   0  0  0  0  0  0  0  0  0  0  0  0
   -4.7000   23.4600  -31.5730 O   0  0  0  0  0  0  0  0  0  0  0  0
   -4.8190   24.4770  -30.7230 C   0  0  0  0  0  0  0  0  0  0  0  0
   -3.8700   25.2960  -30.5960 O   0  0  0  0  0  0  0  0  0  0  0  0
   -5.9880   24.6400  -29.9740 C   0  0  0  0  0  0  0  0  0  0  0  0
   -7.0260   23.7210  -30.1320 C   0  0  0  0  0  0  0  0  0  0  0  0
   -6.8730   22.6620  -31.0320 C   0  0  0  0  0  0  0  0  0  0  0  0
   -7.8850   21.7150  -31.2290 C   0  0  0  0  0  0  0  0  0  0  0  0
   -7.6960   20.6660  -32.1360 C   0  0  0  0  0  0  0  0  0  0  0  0
   -9.0930   19.3790  -32.3690 Br  0  0  0  0  0  0  0  0  0  0  0  0
   -2.0596   21.3026  -32.5184 H   0  0  0  0  0  0  0  0  0  0  0  0
   -1.3510   20.6740  -34.0447 H   0  0  0  0  0  0  0  0  0  0  0  0
   -3.0038   21.3774  -34.0447 H   0  0  0  0  0  0  0  0  0  0  0  0
   -2.0571   18.6635  -33.1729 H   0  0  0  0  0  0  0  0  0  0  0  0
   -3.3535   19.4323  -32.1847 H   0  0  0  0  0  0  0  0  0  0  0  0
   -4.5710   19.8190  -34.2380 H   0  0  0  0  0  0  0  0  0  0  0  0
   -4.6103   17.1543  -34.7235 H   0  0  0  0  0  0  0  0  0  0  0  0
   -4.0331   17.3032  -33.0265 H   0  0  0  0  0  0  0  0  0  0  0  0
   -6.6936   17.4377  -33.8618 H   0  0  0  0  0  0  0  0  0  0  0  0
   -6.0407   18.0436  -32.2901 H   0  0  0  0  0  0  0  0  0  0  0  0
   -4.5391   21.4352  -33.2238 H   0  0  0  0  0  0  0  0  0  0  0  0
   -6.0881   25.4799  -29.2708 H   0  0  0  0  0  0  0  0  0  0  0  0
   -7.9557   23.8286  -29.5541 H   0  0  0  0  0  0  0  0  0  0  0  0
   -8.8293   21.7954  -30.6706 H   0  0  0  0  0  0  0  0  0  0  0  0
  1  2  1  0
  2  3  1  0
  3  4  1  0
  4  5  1  0
  5  6  1  0
  6  7  1  0
  7  8  2  0
  8  9  1  0
  9 10  1  0
 10 11  1  0
 11 12  2  0
 11 13  1  0
 13 14  2  0
 14 15  1  0
 15 16  1  0
 16 17  2  0
 17 18  1  0
 17  7  1  0
 15  9  2  0
  1 19  1  0
  1 20  1  0
  1 21  1  0
  2 22  1  0
  2 23  1  0
  3 24  1  0
  4 25  1  0
  4 26  1  0
  5 27  1  0
  5 28  1  0
  8 29  1  0
 13 30  1  0
 14 31  1  0
 16 32  1  0
M  END
>  <UniqueID>  (6) 
6

>  <SMILES>  (6) 
CCNCCOc1cc2oc(=O)ccc2cc1Br

>  <Energy>  (6) 
31.200768107076293

>  <Genealogy>  (6) 
CCNCCOc1cc2oc(=O)ccc2cc1Br (3D coordinates assigned)
CCNCCOc1cc2oc(=O)ccc2cc1Br (optimized conformer: 31.200768107076293 kcal/mol)

>  <smiles>  (6) 
CCNCCOc1cc2oc(=O)ccc2cc1Br

>  <score_type>  (6) 
oracle

>  <origin>  (6) 
adg

>  <m_score__min__energy>  (6) 
-7.5300000000000002

>  <m_primary>  (6) 
energy

$$$$
6:0
     RDKit          3D

 47 49  0  0  0  0  0  0  0  0999 V2000
   -8.2540   22.4770  -31.6830 C   0  0  0  0  0  0  0  0  0  0  0  0
   -7.4250   22.5800  -30.4060 C   0  0  0  0  0  0  0  0  0  0  0  0
   -6.4600   23.6760  -30.5050 N   0  0  0  0  0  0  0  0  0  0  0  0
   -6.6700   24.9430  -30.1060 C   0  0  0  0  0  0  0  0  0  0  0  0
   -5.5290   25.6690  -30.3550 C   0  0  0  0  0  0  0  0  0  0  0  0
   -4.5980   24.8700  -30.9130 N   0  0  0  0  0  0  0  0  0  0  0  0
   -5.1970   23.6630  -30.9930 C   0  0  0  0  0  0  0  0  0  0  0  0
   -4.4950   22.4560  -31.5660 C   0  0  0  0  0  0  0  0  0  0  0  0
   -3.3500   22.0240  -30.7480 N   0  0  0  0  0  0  0  0  0  0  0  0
   -3.6740   21.9060  -29.3190 C   0  0  0  0  0  0  0  0  0  0  0  0
   -2.9810   22.9760  -28.5190 C   0  0  0  0  0  0  0  0  0  0  0  0
   -1.5970   22.9480  -28.3180 C   0  0  0  0  0  0  0  0  0  0  0  0
   -1.0000   23.9140  -27.5760 N   0  0  0  0  0  0  0  0  0  0  0  0
   -1.7190   24.9250  -27.0180 C   0  0  0  0  0  0  0  0  0  0  0  0
   -1.0490   25.9230  -26.2250 N   0  0  0  0  0  0  0  0  0  0  0  0
   -0.1140   26.8800  -26.8320 C   0  0  0  0  0  0  0  0  0  0  0  0
   -0.4470   28.3120  -26.3860 C   0  0  0  0  0  0  0  0  0  0  0  0
   -0.9070   28.4060  -24.9140 C   0  0  0  0  0  0  0  0  0  0  0  0
   -0.5840   27.1420  -24.1080 C   0  0  0  0  0  0  0  0  0  0  0  0
   -1.2250   25.9110  -24.7640 C   0  0  0  0  0  0  0  0  0  0  0  0
   -3.0740   24.9580  -27.1830 N   0  0  0  0  0  0  0  0  0  0  0  0
   -3.7090   24.0090  -27.9210 C   0  0  0  0  0  0  0  0  0  0  0  0
   -9.3145   22.3452  -31.4221 H   0  0  0  0  0  0  0  0  0  0  0  0
   -8.1333   23.3970  -32.2737 H   0  0  0  0  0  0  0  0  0  0  0  0
   -7.9118   21.6145  -32.2737 H   0  0  0  0  0  0  0  0  0  0  0  0
   -8.0955   22.7646  -29.5537 H   0  0  0  0  0  0  0  0  0  0  0  0
   -6.8771   21.6371  -30.2620 H   0  0  0  0  0  0  0  0  0  0  0  0
   -7.5959   25.3320  -29.6573 H   0  0  0  0  0  0  0  0  0  0  0  0
   -5.3964   26.7381  -30.1328 H   0  0  0  0  0  0  0  0  0  0  0  0
   -5.2152   21.6269  -31.6292 H   0  0  0  0  0  0  0  0  0  0  0  0
   -4.1088   22.7354  -32.5574 H   0  0  0  0  0  0  0  0  0  0  0  0
   -3.0160   21.0940  -31.0890 H   0  0  0  0  0  0  0  0  0  0  0  0
   -4.7615   22.0058  -29.1872 H   0  0  0  0  0  0  0  0  0  0  0  0
   -3.3312   20.9237  -28.9617 H   0  0  0  0  0  0  0  0  0  0  0  0
   -0.9929   22.1428  -28.7615 H   0  0  0  0  0  0  0  0  0  0  0  0
    0.9113   26.6325  -26.5197 H   0  0  0  0  0  0  0  0  0  0  0  0
   -0.2015   26.8183  -27.9268 H   0  0  0  0  0  0  0  0  0  0  0  0
    0.4519   28.9337  -26.5106 H   0  0  0  0  0  0  0  0  0  0  0  0
   -1.2835   28.6597  -27.0100 H   0  0  0  0  0  0  0  0  0  0  0  0
   -0.4024   29.2620  -24.4422 H   0  0  0  0  0  0  0  0  0  0  0  0
   -2.0003   28.5268  -24.9160 H   0  0  0  0  0  0  0  0  0  0  0  0
    0.5068   27.0055  -24.0695 H   0  0  0  0  0  0  0  0  0  0  0  0
   -0.9868   27.2547  -23.0906 H   0  0  0  0  0  0  0  0  0  0  0  0
   -0.7561   25.0038  -24.3553 H   0  0  0  0  0  0  0  0  0  0  0  0
   -2.3033   25.9275  -24.5470 H   0  0  0  0  0  0  0  0  0  0  0  0
   -3.6500   25.6920  -26.7170 H   0  0  0  0  0  0  0  0  0  0  0  0
   -4.8007   24.0542  -28.0482 H   0  0  0  0  0  0  0  0  0  0  0  0
  1  2  1  0
  2  3  1  0
  3  4  1  0
  4  5  2  0
  5  6  1  0
  6  7  2  0
  7  8  1  0
  8  9  1  0
  9 10  1  0
 10 11  1  0
 11 12  2  0
 12 13  1  0
 13 14  2  0
 14 15  1  0
 15 16  1  0
 16 17  1  0
 17 18  1  0
 18 19  1  0
 19 20  1  0
 14 21  1  0
 21 22  2  0
  7  3  1  0
 22 11  1  0
 20 15  1  0
  1 23  1  0
  1 24  1  0
  1 25  1  0
  2 26  1  0
  2 27  1  0
  4 28  1  0
  5 29  1  0
  8 30  1  0
  8 31  1  0
  9 32  1  0
 10 33  1  0
 10 34  1  0
 12 35  1  0
 16 36  1  0
 16 37  1  0
 17 38  1  0
 17 39  1  0
 18 40  1  0
 18 41  1  0
 19 42  1  0
 19 43  1  0
 20 44  1  0
 20 45  1  0
 21 46  1  0
 22 47  1  0
M  CHG  1  21   1
M  END
>  <UniqueID>  (7) 
7

>  <SMILES>  (7) 
CCn1ccnc1CNCc1cnc(N2CCCCC2)[nH+]c1

>  <Energy>  (7) 
77.407883744253

>  <Genealogy>  (7) 
CCn1ccnc1CNCc1cnc(N2CCCCC2)[nH+]c1 (protonated)
CCn1ccnc1CNCc1cnc(N2CCCCC2)[nH+]c1 (3D coordinates assigned)
CCn1ccnc1CNCc1cnc(N2CCCCC2)[nH+]c1 (nonaromatic ring conformer: 77.407883744253 kcal/mol)

>  <smiles>  (7) 
CCn1ccnc1CNCc1cnc(N2CCCCC2)nc1

>  <score_type>  (7) 
oracle

>  <origin>  (7) 
adg

>  <m_score__min__energy>  (7) 
-7.8300000000000001

>  <m_primary>  (7) 
energy

$$$$
7:0
     RDKit          3D

 44 47  0  0  0  0  0  0  0  0999 V2000
    0.0530   23.1690  -28.1290 C   0  0  0  0  0  0  0  0  0  0  0  0
   -1.3680   23.5180  -28.1600 N   0  0  0  0  0  0  0  0  0  0  0  0
   -2.0650   24.1950  -27.2190 C   0  0  0  0  0  0  0  0  0  0  0  0
   -1.4860   24.7050  -25.9310 C   0  0  0  0  0  0  0  0  0  0  0  0
   -1.3810   26.1650  -25.9510 N   0  0  0  0  0  0  0  0  0  0  0  0
   -0.5280   26.9070  -25.0580 C   0  0  0  0  0  0  0  0  0  0  0  0
   -0.1990   28.2550  -25.2890 C   0  0  0  0  0  0  0  0  0  0  0  0
    0.6310   28.9340  -24.3960 C   0  0  0  0  0  0  0  0  0  0  0  0
    1.1270   28.2630  -23.2770 C   0  0  0  0  0  0  0  0  0  0  0  0
    0.8040   26.9600  -23.0630 N   0  0  0  0  0  0  0  0  0  0  0  0
   -0.0030   26.2760  -23.9200 C   0  0  0  0  0  0  0  0  0  0  0  0
   -3.3470   24.4180  -27.5770 N   0  0  0  0  0  0  0  0  0  0  0  0
   -3.4610   23.8560  -28.7970 C   0  0  0  0  0  0  0  0  0  0  0  0
   -4.7290   23.8400  -29.5610 C   0  0  0  0  0  0  0  0  0  0  0  0
   -5.6060   22.7450  -29.4710 C   0  0  0  0  0  0  0  0  0  0  0  0
   -6.8070   22.7390  -30.1870 C   0  0  0  0  0  0  0  0  0  0  0  0
   -7.6460   21.6770  -30.0950 F   0  0  0  0  0  0  0  0  0  0  0  0
   -7.1490   23.8280  -30.9910 C   0  0  0  0  0  0  0  0  0  0  0  0
   -6.2930   24.9290  -31.0760 C   0  0  0  0  0  0  0  0  0  0  0  0
   -5.0890   24.9410  -30.3620 C   0  0  0  0  0  0  0  0  0  0  0  0
   -4.2690   26.0160  -30.4730 F   0  0  0  0  0  0  0  0  0  0  0  0
   -2.2330   23.3300  -29.1780 C   0  0  0  0  0  0  0  0  0  0  0  0
   -1.8890   22.6710  -30.4890 C   0  0  0  0  0  0  0  0  0  0  0  0
   -1.4340   21.2200  -30.3930 C   0  0  0  0  0  0  0  0  0  0  0  0
   -2.8280   21.5410  -30.8950 C   0  0  0  0  0  0  0  0  0  0  0  0
    0.3877   23.0868  -27.0844 H   0  0  0  0  0  0  0  0  0  0  0  0
    0.2055   22.2067  -28.6397 H   0  0  0  0  0  0  0  0  0  0  0  0
    0.6339   23.9512  -28.6397 H   0  0  0  0  0  0  0  0  0  0  0  0
   -2.1368   24.4015  -25.0977 H   0  0  0  0  0  0  0  0  0  0  0  0
   -0.4791   24.2805  -25.8042 H   0  0  0  0  0  0  0  0  0  0  0  0
   -1.9500   26.7030  -26.6450 H   0  0  0  0  0  0  0  0  0  0  0  0
   -0.5961   28.7741  -26.1738 H   0  0  0  0  0  0  0  0  0  0  0  0
    0.8919   29.9880  -24.5722 H   0  0  0  0  0  0  0  0  0  0  0  0
    1.7809   28.7899  -22.5665 H   0  0  0  0  0  0  0  0  0  0  0  0
    1.1840   26.4720  -22.2200 H   0  0  0  0  0  0  0  0  0  0  0  0
   -0.2450   25.2219  -23.7190 H   0  0  0  0  0  0  0  0  0  0  0  0
   -5.3457   21.8874  -28.8332 H   0  0  0  0  0  0  0  0  0  0  0  0
   -8.0920   23.8192  -31.5573 H   0  0  0  0  0  0  0  0  0  0  0  0
   -6.5659   25.7887  -31.7057 H   0  0  0  0  0  0  0  0  0  0  0  0
   -1.4950   23.5782  -30.9703 H   0  0  0  0  0  0  0  0  0  0  0  0
   -0.6743   20.8352  -31.0893 H   0  0  0  0  0  0  0  0  0  0  0  0
   -1.0233   20.5861  -29.5933 H   0  0  0  0  0  0  0  0  0  0  0  0
   -3.0789   21.3891  -31.9552 H   0  0  0  0  0  0  0  0  0  0  0  0
   -3.8458   21.2363  -30.6099 H   0  0  0  0  0  0  0  0  0  0  0  0
  1  2  1  0
  2  3  1  0
  3  4  1  0
  4  5  1  0
  5  6  1  0
  6  7  2  0
  7  8  1  0
  8  9  2  0
  9 10  1  0
 10 11  2  0
  3 12  2  0
 12 13  1  0
 13 14  1  0
 14 15  2  0
 15 16  1  0
 16 17  1  0
 16 18  2  0
 18 19  1  0
 19 20  2  0
 20 21  1  0
 13 22  2  0
 22 23  1  0
 23 24  1  0
 24 25  1  0
 22  2  1  0
 25 23  1  0
 11  6  1  0
 20 14  1  0
  1 26  1  0
  1 27  1  0
  1 28  1  0
  4 29  1  0
  4 30  1  0
  5 31  1  0
  7 32  1  0
  8 33  1  0
  9 34  1  0
 10 35  1  0
 11 36  1  0
 15 37  1  0
 18 38  1  0
 19 39  1  0
 23 40  1  0
 24 41  1  0
 24 42  1  0
 25 43  1  0
 25 44  1  0
M  CHG  1  10   1
M  END
>  <UniqueID>  (8) 
8

>  <SMILES>  (8) 
Cn1c(CNc2ccc[nH+]c2)nc(-c2cc(F)ccc2F)c1C1CC1

>  <Energy>  (8) 
343.00845556125887

>  <Genealogy>  (8) 
Cn1c(CNc2ccc[nH+]c2)nc(-c2cc(F)ccc2F)c1C1CC1 (protonated)
Cn1c(CNc2ccc[nH+]c2)nc(-c2cc(F)ccc2F)c1C1CC1 (3D coordinates assigned)
Cn1c(CNc2ccc[nH+]c2)nc(-c2cc(F)ccc2F)c1C1CC1 (nonaromatic ring conformer: 343.00845556125887 kcal/mol)

>  <smiles>  (8) 
Cn1c(CNc2cccnc2)nc(-c2cc(F)ccc2F)c1C1CC1

>  <score_type>  (8) 
oracle

>  <origin>  (8) 
adg

>  <m_score__min__energy>  (8) 
-7.3300000000000001

>  <m_primary>  (8) 
energy

$$$$
8:0
     RDKit          3D

 42 43  0  0  0  0  0  0  0  0999 V2000
   -2.7850   18.2680  -33.8340 C   0  0  0  0  0  0  0  0  0  0  0  0
   -2.9060   19.7880  -33.8450 C   0  0  0  0  0  0  0  0  0  0  0  0
   -1.7670   20.3780  -34.4670 O   0  0  0  0  0  0  0  0  0  0  0  0
   -0.7710   21.0640  -33.7600 C   0  0  0  0  0  0  0  0  0  0  0  0
   -0.0170   21.8920  -34.3420 O   0  0  0  0  0  0  0  0  0  0  0  0
   -0.5820   20.7820  -32.3050 C   0  0  0  0  0  0  0  0  0  0  0  0
   -1.4330   21.7090  -31.4950 C   0  0  0  0  0  0  0  0  0  0  0  0
   -0.9970   22.2960  -30.3060 C   0  0  0  0  0  0  0  0  0  0  0  0
   -2.2250   23.3000  -29.7480 S   0  0  0  0  0  0  0  0  0  0  0  0
   -3.2440   22.9580  -31.0490 C   0  0  0  0  0  0  0  0  0  0  0  0
   -4.4540   23.4060  -31.2250 N   0  0  0  0  0  0  0  0  0  0  0  0
   -4.9790   24.6780  -30.8160 C   0  0  0  0  0  0  0  0  0  0  0  0
   -4.2080   25.6730  -30.7990 O   0  0  0  0  0  0  0  0  0  0  0  0
   -6.3760   24.8330  -30.2760 C   0  0  0  0  0  0  0  0  0  0  0  0
   -7.1350   23.4980  -30.3090 C   0  0  0  0  0  0  0  0  0  0  0  0
   -7.6910   23.1790  -31.7050 C   0  0  0  0  0  0  0  0  0  0  0  0
   -7.6710   21.7000  -31.9970 C   0  0  0  0  0  0  0  0  0  0  0  0
   -6.5680   21.1230  -32.6470 C   0  0  0  0  0  0  0  0  0  0  0  0
   -6.5600   19.7540  -32.9400 C   0  0  0  0  0  0  0  0  0  0  0  0
   -7.6560   18.9570  -32.5930 C   0  0  0  0  0  0  0  0  0  0  0  0
   -8.7600   19.5250  -31.9540 C   0  0  0  0  0  0  0  0  0  0  0  0
   -8.7710   20.8920  -31.6580 C   0  0  0  0  0  0  0  0  0  0  0  0
   -2.6770   22.0790  -31.9030 N   0  0  0  0  0  0  0  0  0  0  0  0
   -2.7565   17.9100  -32.7943 H   0  0  0  0  0  0  0  0  0  0  0  0
   -3.6509   17.8275  -34.3499 H   0  0  0  0  0  0  0  0  0  0  0  0
   -1.8603   17.9700  -34.3499 H   0  0  0  0  0  0  0  0  0  0  0  0
   -3.8106   20.0745  -34.4014 H   0  0  0  0  0  0  0  0  0  0  0  0
   -2.9681   20.1461  -32.8068 H   0  0  0  0  0  0  0  0  0  0  0  0
   -0.8715   19.7420  -32.0938 H   0  0  0  0  0  0  0  0  0  0  0  0
    0.4747   20.9334  -32.0397 H   0  0  0  0  0  0  0  0  0  0  0  0
   -0.0237   22.1312  -29.8206 H   0  0  0  0  0  0  0  0  0  0  0  0
   -6.3216   25.1893  -29.2367 H   0  0  0  0  0  0  0  0  0  0  0  0
   -6.9149   25.5560  -30.9059 H   0  0  0  0  0  0  0  0  0  0  0  0
   -6.4481   22.6928  -30.0091 H   0  0  0  0  0  0  0  0  0  0  0  0
   -7.9865   23.5773  -29.6172 H   0  0  0  0  0  0  0  0  0  0  0  0
   -8.7288   23.5387  -31.7645 H   0  0  0  0  0  0  0  0  0  0  0  0
   -7.0527   23.6804  -32.4474 H   0  0  0  0  0  0  0  0  0  0  0  0
   -5.7076   21.7486  -32.9268 H   0  0  0  0  0  0  0  0  0  0  0  0
   -5.6912   19.3048  -33.4434 H   0  0  0  0  0  0  0  0  0  0  0  0
   -7.6481   17.8815  -32.8238 H   0  0  0  0  0  0  0  0  0  0  0  0
   -9.6216   18.8970  -31.6832 H   0  0  0  0  0  0  0  0  0  0  0  0
   -9.6438   21.3370  -31.1579 H   0  0  0  0  0  0  0  0  0  0  0  0
  1  2  1  0
  2  3  1  0
  3  4  1  0
  4  5  2  0
  4  6  1  0
  6  7  1  0
  7  8  2  0
  8  9  1  0
  9 10  1  0
 10 11  2  3
 11 12  1  0
 12 13  2  0
 12 14  1  0
 14 15  1  0
 15 16  1  0
 16 17  1  0
 17 18  2  0
 18 19  1  0
 19 20  2  0
 20 21  1  0
 21 22  2  0
 10 23  1  0
 23  7  1  0
 22 17  1  0
  1 24  1  0
  1 25  1  0
  1 26  1  0
  2 27  1  0
  2 28  1  0
  6 29  1  0
  6 30  1  0
  8 31  1  0
 14 32  1  0
 14 33  1  0
 15 34  1  0
 15 35  1  0
 16 36  1  0
 16 37  1  0
 18 38  1  0
 19 39  1  0
 20 40  1  0
 21 41  1  0
 22 42  1  0
M  CHG  1  23  -1
M  END
>  <UniqueID>  (9) 
9

>  <SMILES>  (9) 
CCOC(=O)Cc1csc(=NC(=O)CCCc2ccccc2)[n-]1

>  <Energy>  (9) 
66.31431801659578

>  <Genealogy>  (9) 
CCOC(=O)Cc1csc(=NC(=O)CCCc2ccccc2)[n-]1 (protonated)
CCOC(=O)Cc1csc(=NC(=O)CCCc2ccccc2)[n-]1 (3D coordinates assigned)
CCOC(=O)Cc1csc(=NC(=O)CCCc2ccccc2)[n-]1 (optimized conformer: 66.31431801659578 kcal/mol)

>  <smiles>  (9) 
CCOC(=O)Cc1csc(=NC(=O)CCCc2ccccc2)[nH]1

>  <score_type>  (9) 
oracle

>  <origin>  (9) 
adg

>  <m_score__min__energy>  (9) 
-9.6500000000000004

>  <m_primary>  (9) 
energy

$$$$
9:0
     RDKit          3D

 55 58  0  0  0  0  0  0  0  0999 V2000
   -5.3520   16.2420  -34.1130 C   0  0  0  0  0  0  0  0  0  0  0  0
   -5.6390   16.7460  -32.7040 C   0  0  0  0  0  0  0  0  0  0  0  0
   -6.4450   17.9630  -32.7530 N   0  0  0  0  0  0  0  0  0  0  0  0
   -7.7260   18.0030  -32.3820 N   0  0  0  0  0  0  0  0  0  0  0  0
   -8.1440   19.3000  -32.4050 C   0  0  0  0  0  0  0  0  0  0  0  0
   -9.4700   19.7680  -31.9100 C   0  0  0  0  0  0  0  0  0  0  0  0
   -7.0690   20.0730  -32.7780 C   0  0  0  0  0  0  0  0  0  0  0  0
   -6.5830   21.3570  -32.8110 C   0  0  0  0  0  0  0  0  0  0  0  0
   -7.3030   22.6160  -32.4240 C   0  0  0  0  0  0  0  0  0  0  0  0
   -7.9940   22.4380  -31.1410 N   0  0  0  0  0  0  0  0  0  0  0  0
   -7.0430   22.3520  -30.0270 C   0  0  0  0  0  0  0  0  0  0  0  0
   -5.9610   23.3780  -30.2130 C   0  0  0  0  0  0  0  0  0  0  0  0
   -4.6100   23.0170  -30.1140 C   0  0  0  0  0  0  0  0  0  0  0  0
   -3.6250   23.9980  -30.2560 C   0  0  0  0  0  0  0  0  0  0  0  0
   -3.9790   25.2930  -30.4750 N   0  0  0  0  0  0  0  0  0  0  0  0
   -5.2810   25.6710  -30.5610 C   0  0  0  0  0  0  0  0  0  0  0  0
   -6.2970   24.7220  -30.4260 C   0  0  0  0  0  0  0  0  0  0  0  0
   -5.2060   21.1850  -33.0670 C   0  0  0  0  0  0  0  0  0  0  0  0
   -4.1980   22.2980  -33.1000 C   0  0  0  0  0  0  0  0  0  0  0  0
   -4.8830   19.8550  -33.1520 N   0  0  0  0  0  0  0  0  0  0  0  0
   -3.5540   19.2740  -33.3760 C   0  0  0  0  0  0  0  0  0  0  0  0
   -2.4980   19.9800  -32.5590 C   0  0  0  0  0  0  0  0  0  0  0  0
   -2.7130   20.2160  -31.1910 C   0  0  0  0  0  0  0  0  0  0  0  0
   -1.7600   20.9020  -30.4320 C   0  0  0  0  0  0  0  0  0  0  0  0
   -0.5920   21.3740  -31.0360 C   0  0  0  0  0  0  0  0  0  0  0  0
   -0.3790   21.1680  -32.4010 C   0  0  0  0  0  0  0  0  0  0  0  0
   -1.3310   20.4820  -33.1640 C   0  0  0  0  0  0  0  0  0  0  0  0
   -6.0710   19.2350  -32.9980 C   0  0  0  0  0  0  0  0  0  0  0  0
   -4.8084   15.2873  -34.0573 H   0  0  0  0  0  0  0  0  0  0  0  0
   -6.3007   16.0930  -34.6494 H   0  0  0  0  0  0  0  0  0  0  0  0
   -4.7397   16.9818  -34.6494 H   0  0  0  0  0  0  0  0  0  0  0  0
   -6.1857   15.9714  -32.1463 H   0  0  0  0  0  0  0  0  0  0  0  0
   -4.6852   16.9696  -32.2038 H   0  0  0  0  0  0  0  0  0  0  0  0
   -9.4714   19.7685  -30.8100 H   0  0  0  0  0  0  0  0  0  0  0  0
   -9.6596   20.7874  -32.2774 H   0  0  0  0  0  0  0  0  0  0  0  0
  -10.2574   19.0935  -32.2774 H   0  0  0  0  0  0  0  0  0  0  0  0
   -6.5754   23.4360  -32.3329 H   0  0  0  0  0  0  0  0  0  0  0  0
   -8.0464   22.8539  -33.1991 H   0  0  0  0  0  0  0  0  0  0  0  0
   -8.5160   21.5310  -31.1870 H   0  0  0  0  0  0  0  0  0  0  0  0
   -7.5693   22.5415  -29.0799 H   0  0  0  0  0  0  0  0  0  0  0  0
   -6.5959   21.3473  -30.0028 H   0  0  0  0  0  0  0  0  0  0  0  0
   -4.3277   21.9706  -29.9262 H   0  0  0  0  0  0  0  0  0  0  0  0
   -2.5620   23.7226  -30.1906 H   0  0  0  0  0  0  0  0  0  0  0  0
   -5.5357   26.7265  -30.7373 H   0  0  0  0  0  0  0  0  0  0  0  0
   -7.3522   25.0269  -30.4864 H   0  0  0  0  0  0  0  0  0  0  0  0
   -3.9366   22.5866  -32.0712 H   0  0  0  0  0  0  0  0  0  0  0  0
   -3.2939   21.9584  -33.6265 H   0  0  0  0  0  0  0  0  0  0  0  0
   -4.6253   23.1642  -33.6265 H   0  0  0  0  0  0  0  0  0  0  0  0
   -3.5755   18.2116  -33.0915 H   0  0  0  0  0  0  0  0  0  0  0  0
   -3.3015   19.3885  -34.4405 H   0  0  0  0  0  0  0  0  0  0  0  0
   -3.6374   19.8587  -30.7137 H   0  0  0  0  0  0  0  0  0  0  0  0
   -1.9300   21.0702  -29.3583 H   0  0  0  0  0  0  0  0  0  0  0  0
    0.1600   21.9079  -30.4365 H   0  0  0  0  0  0  0  0  0  0  0  0
    0.5381   21.5454  -32.8769 H   0  0  0  0  0  0  0  0  0  0  0  0
   -1.1661   20.3346  -34.2415 H   0  0  0  0  0  0  0  0  0  0  0  0
  1  2  1  0
  2  3  1  0
  3  4  1  0
  4  5  2  0
  5  6  1  0
  5  7  1  0
  7  8  1  0
  8  9  1  0
  9 10  1  0
 10 11  1  0
 11 12  1  0
 12 13  2  0
 13 14  1  0
 14 15  2  0
 15 16  1  0
 16 17  2  0
  8 18  2  0
 18 19  1  0
 18 20  1  0
 20 21  1  0
 21 22  1  0
 22 23  2  0
 23 24  1  0
 24 25  2  0
 25 26  1  0
 26 27  2  0
 20 28  1  0
 28  3  1  0
 28  7  2  0
 17 12  1  0
 27 22  1  0
  1 29  1  0
  1 30  1  0
  1 31  1  0
  2 32  1  0
  2 33  1  0
  6 34  1  0
  6 35  1  0
  6 36  1  0
  9 37  1  0
  9 38  1  0
 10 39  1  0
 11 40  1  0
 11 41  1  0
 13 42  1  0
 14 43  1  0
 16 44  1  0
 17 45  1  0
 19 46  1  0
 19 47  1  0
 19 48  1  0
 21 49  1  0
 21 50  1  0
 23 51  1  0
 24 52  1  0
 25 53  1  0
 26 54  1  0
 27 55  1  0
M  END
>  <UniqueID>  (10) 
10

>  <SMILES>  (10) 
CCn1nc(C)c2c(CNCc3ccncc3)c(C)n(Cc3ccccc3)c21

>  <Energy>  (10) 
141.73116080488654

>  <Genealogy>  (10) 
CCn1nc(C)c2c(CNCc3ccncc3)c(C)n(Cc3ccccc3)c21 (3D coordinates assigned)
CCn1nc(C)c2c(CNCc3ccncc3)c(C)n(Cc3ccccc3)c21 (optimized conformer: 141.73116080488654 kcal/mol)

>  <smiles>  (10) 
CCn1nc(C)c2c(CNCc3ccncc3)c(C)n(Cc3ccccc3)c21

>  <score_type>  (10) 
oracle

>  <origin>  (10) 
adg

>  <m_score__min__energy>  (10) 
-8.9900000000000002

>  <m_primary>  (10) 
energy

$$$$
10:0
     RDKit          3D

 33 35  0  0  0  0  0  0  0  0999 V2000
   -6.0750   25.0950  -30.2040 C   0  0  0  0  0  0  0  0  0  0  0  0
   -5.8110   24.4680  -31.5690 C   0  0  0  0  0  0  0  0  0  0  0  0
   -6.6440   23.2380  -31.7550 C   0  0  0  0  0  0  0  0  0  0  0  0
   -7.9830   23.0540  -31.4210 C   0  0  0  0  0  0  0  0  0  0  0  0
   -8.3440   21.7690  -31.6570 N   0  0  0  0  0  0  0  0  0  0  0  0
   -7.2710   21.1460  -32.1200 N   0  0  0  0  0  0  0  0  0  0  0  0
   -7.1600   19.8350  -32.4640 C   0  0  0  0  0  0  0  0  0  0  0  0
   -8.3360   18.9010  -32.3370 C   0  0  0  0  0  0  0  0  0  0  0  0
   -9.3850   19.3810  -33.0980 F   0  0  0  0  0  0  0  0  0  0  0  0
   -7.9850   17.6430  -32.7920 F   0  0  0  0  0  0  0  0  0  0  0  0
   -8.7530   18.7880  -31.0210 F   0  0  0  0  0  0  0  0  0  0  0  0
   -5.8900   19.3820  -32.8780 C   0  0  0  0  0  0  0  0  0  0  0  0
   -4.8090   20.2990  -32.9420 C   0  0  0  0  0  0  0  0  0  0  0  0
   -3.4520   19.8750  -33.3670 C   0  0  0  0  0  0  0  0  0  0  0  0
   -2.9940   18.5630  -33.1440 C   0  0  0  0  0  0  0  0  0  0  0  0
   -1.7150   18.1960  -33.5680 C   0  0  0  0  0  0  0  0  0  0  0  0
   -0.9050   19.1270  -34.2160 C   0  0  0  0  0  0  0  0  0  0  0  0
   -1.3880   20.4160  -34.4350 C   0  0  0  0  0  0  0  0  0  0  0  0
   -2.6370   20.7630  -34.0170 N   0  0  0  0  0  0  0  0  0  0  0  0
   -5.0110   21.6010  -32.5780 N   0  0  0  0  0  0  0  0  0  0  0  0
   -6.2420   21.9960  -32.1790 C   0  0  0  0  0  0  0  0  0  0  0  0
   -5.7783   24.3903  -29.4132 H   0  0  0  0  0  0  0  0  0  0  0  0
   -5.4908   26.0220  -30.1071 H   0  0  0  0  0  0  0  0  0  0  0  0
   -7.1463   25.3249  -30.1071 H   0  0  0  0  0  0  0  0  0  0  0  0
   -6.0606   25.1957  -32.3552 H   0  0  0  0  0  0  0  0  0  0  0  0
   -4.7488   24.1891  -31.6312 H   0  0  0  0  0  0  0  0  0  0  0  0
   -8.6487   23.8349  -31.0247 H   0  0  0  0  0  0  0  0  0  0  0  0
   -5.7388   18.3267  -33.1490 H   0  0  0  0  0  0  0  0  0  0  0  0
   -3.6402   17.8304  -32.6383 H   0  0  0  0  0  0  0  0  0  0  0  0
   -1.3476   17.1744  -33.3910 H   0  0  0  0  0  0  0  0  0  0  0  0
    0.1048   18.8474  -34.5510 H   0  0  0  0  0  0  0  0  0  0  0  0
   -0.7572   21.1569  -34.9481 H   0  0  0  0  0  0  0  0  0  0  0  0
   -2.9600   21.7400  -34.1940 H   0  0  0  0  0  0  0  0  0  0  0  0
  1  2  1  0
  2  3  1  0
  3  4  1  0
  4  5  2  0
  5  6  1  0
  6  7  1  0
  7  8  1  0
  8  9  1  0
  8 10  1  0
  8 11  1  0
  7 12  2  0
 12 13  1  0
 13 14  1  0
 14 15  2  0
 15 16  1  0
 16 17  2  0
 17 18  1  0
 18 19  2  0
 13 20  2  0
 20 21  1  0
 21  3  2  0
 21  6  1  0
 19 14  1  0
  1 22  1  0
  1 23  1  0
  1 24  1  0
  2 25  1  0
  2 26  1  0
  4 27  1  0
 12 28  1  0
 15 29  1  0
 16 30  1  0
 17 31  1  0
 18 32  1  0
 19 33  1  0
M  CHG  1  19   1
M  END
>  <UniqueID>  (11) 
11

>  <SMILES>  (11) 
CCc1cnn2c(C(F)(F)F)cc(-c3cccc[nH+]3)nc12

>  <Energy>  (11) 
73.09883675239239

>  <Genealogy>  (11) 
CCc1cnn2c(C(F)(F)F)cc(-c3cccc[nH+]3)nc12 (protonated)
CCc1cnn2c(C(F)(F)F)cc(-c3cccc[nH+]3)nc12 (3D coordinates assigned)
CCc1cnn2c(C(F)(F)F)cc(-c3cccc[nH+]3)nc12 (optimized conformer: 73.09883675239239 kcal/mol)

>  <smiles>  (11) 
CCc1cnn2c(C(F)(F)F)cc(-c3ccccn3)nc12

>  <score_type>  (11) 
oracle

>  <origin>  (11) 
adg

>  <m_score__min__energy>  (11) 
-5.9100000000000001

>  <m_primary>  (11) 
energy

$$$$
11:0
     RDKit          3D

 51 53  0  0  0  0  0  0  0  0999 V2000
   -0.4770   23.7960  -24.4590 C   0  0  0  0  0  0  0  0  0  0  0  0
   -0.9020   24.8320  -25.5100 C   0  0  0  0  0  0  0  0  0  0  0  0
   -1.7140   24.2730  -26.6110 N   0  0  0  0  0  0  0  0  0  0  0  0
   -0.9540   24.1080  -27.8770 C   0  0  0  0  0  0  0  0  0  0  0  0
   -1.8380   24.1750  -29.1370 C   0  0  0  0  0  0  0  0  0  0  0  0
   -3.1760   23.6400  -28.8640 N   0  0  0  0  0  0  0  0  0  0  0  0
   -3.7780   22.7080  -29.7750 C   0  0  0  0  0  0  0  0  0  0  0  0
   -3.4690   21.3460  -29.6530 C   0  0  0  0  0  0  0  0  0  0  0  0
   -3.9610   20.4210  -30.5750 C   0  0  0  0  0  0  0  0  0  0  0  0
   -4.7710   20.8460  -31.6330 C   0  0  0  0  0  0  0  0  0  0  0  0
   -5.3690   19.6940  -32.8250 S   0  0  0  0  0  0  0  0  0  0  0  0
   -4.9050   20.0910  -34.2000 O   0  0  0  0  0  0  0  0  0  0  0  0
   -4.8130   18.3340  -32.5060 O   0  0  0  0  0  0  0  0  0  0  0  0
   -7.1130   19.6470  -32.7720 N   0  0  0  0  0  0  0  0  0  0  0  0
   -7.5680   18.5750  -31.8690 C   0  0  0  0  0  0  0  0  0  0  0  0
   -9.1100   18.5670  -31.7580 C   0  0  0  0  0  0  0  0  0  0  0  0
   -9.7040   19.6490  -32.4500 O   0  0  0  0  0  0  0  0  0  0  0  0
   -9.1450   20.8670  -31.9970 C   0  0  0  0  0  0  0  0  0  0  0  0
   -7.6440   20.9550  -32.3410 C   0  0  0  0  0  0  0  0  0  0  0  0
   -5.0870   22.2030  -31.7630 C   0  0  0  0  0  0  0  0  0  0  0  0
   -4.6090   23.1450  -30.8340 C   0  0  0  0  0  0  0  0  0  0  0  0
   -4.9940   24.5260  -30.9590 N   0  0  0  0  0  0  0  0  0  0  0  0
   -6.2020   24.8410  -31.0100 O   0  0  0  0  0  0  0  0  0  0  0  0
   -4.0530   25.5250  -30.8560 O   0  0  0  0  0  0  0  0  0  0  0  0
   -3.9090   24.0540  -27.6630 C   0  0  0  0  0  0  0  0  0  0  0  0
   -3.0270   24.9260  -26.7700 C   0  0  0  0  0  0  0  0  0  0  0  0
   -0.6449   24.2053  -23.4519 H   0  0  0  0  0  0  0  0  0  0  0  0
   -1.0718   22.8795  -24.5862 H   0  0  0  0  0  0  0  0  0  0  0  0
    0.5901   23.5612  -24.5862 H   0  0  0  0  0  0  0  0  0  0  0  0
   -1.4916   25.6128  -25.0073 H   0  0  0  0  0  0  0  0  0  0  0  0
    0.0211   25.2235  -25.9624 H   0  0  0  0  0  0  0  0  0  0  0  0
   -0.2003   24.9070  -27.9374 H   0  0  0  0  0  0  0  0  0  0  0  0
   -0.4992   23.1067  -27.8535 H   0  0  0  0  0  0  0  0  0  0  0  0
   -1.9275   25.2229  -29.4593 H   0  0  0  0  0  0  0  0  0  0  0  0
   -1.3710   23.5695  -29.9278 H   0  0  0  0  0  0  0  0  0  0  0  0
   -2.8332   21.0034  -28.8233 H   0  0  0  0  0  0  0  0  0  0  0  0
   -3.7111   19.3550  -30.4693 H   0  0  0  0  0  0  0  0  0  0  0  0
   -7.4510   19.4410  -33.7430 H   0  0  0  0  0  0  0  0  0  0  0  0
   -7.2299   17.6049  -32.2621 H   0  0  0  0  0  0  0  0  0  0  0  0
   -7.1439   18.7526  -30.8697 H   0  0  0  0  0  0  0  0  0  0  0  0
   -9.4902   17.6253  -32.1807 H   0  0  0  0  0  0  0  0  0  0  0  0
   -9.3712   18.6641  -30.6939 H   0  0  0  0  0  0  0  0  0  0  0  0
   -9.6727   21.7043  -32.4772 H   0  0  0  0  0  0  0  0  0  0  0  0
   -9.2547   20.9147  -30.9035 H   0  0  0  0  0  0  0  0  0  0  0  0
   -7.5051   21.6831  -33.1538 H   0  0  0  0  0  0  0  0  0  0  0  0
   -7.0997   21.2693  -31.4383 H   0  0  0  0  0  0  0  0  0  0  0  0
   -5.7163   22.5369  -32.6011 H   0  0  0  0  0  0  0  0  0  0  0  0
   -4.7993   24.6267  -27.9620 H   0  0  0  0  0  0  0  0  0  0  0  0
   -4.2059   23.1562  -27.1010 H   0  0  0  0  0  0  0  0  0  0  0  0
   -2.8940   25.9142  -27.2345 H   0  0  0  0  0  0  0  0  0  0  0  0
   -3.5021   25.0518  -25.7859 H   0  0  0  0  0  0  0  0  0  0  0  0
  1  2  1  0
  2  3  1  0
  3  4  1  0
  4  5  1  0
  5  6  1  0
  6  7  1  0
  7  8  2  0
  8  9  1  0
  9 10  2  0
 10 11  1  0
 11 12  2  0
 11 13  2  0
 11 14  1  0
 14 15  1  0
 15 16  1  0
 16 17  1  0
 17 18  1  0
 18 19  1  0
 10 20  1  0
 20 21  2  0
 21 22  1  0
 22 23  2  0
 22 24  1  0
  6 25  1  0
 25 26  1  0
 26  3  1  0
 21  7  1  0
 19 14  1  0
  1 27  1  0
  1 28  1  0
  1 29  1  0
  2 30  1  0
  2 31  1  0
  4 32  1  0
  4 33  1  0
  5 34  1  0
  5 35  1  0
  8 36  1  0
  9 37  1  0
 14 38  1  0
 15 39  1  0
 15 40  1  0
 16 41  1  0
 16 42  1  0
 18 43  1  0
 18 44  1  0
 19 45  1  0
 19 46  1  0
 20 47  1  0
 25 48  1  0
 25 49  1  0
 26 50  1  0
 26 51  1  0
M  CHG  3  14   1  22   1  24  -1
M  END
>  <UniqueID>  (12) 
12

>  <SMILES>  (12) 
CCN1CCN(c2ccc(S(=O)(=O)[NH+]3CCOCC3)cc2[N+](=O)[O-])CC1

>  <Energy>  (12) 
73.63392597660666

>  <Genealogy>  (12) 
CCN1CCN(c2ccc(S(=O)(=O)[NH+]3CCOCC3)cc2[N+](=O)[O-])CC1 (protonated)
CCN1CCN(c2ccc(S(=O)(=O)[NH+]3CCOCC3)cc2[N+](=O)[O-])CC1 (3D coordinates assigned)
CCN1CCN(c2ccc(S(=O)(=O)[NH+]3CCOCC3)cc2[N+](=O)[O-])CC1 (nonaromatic ring conformer: 73.63392597660666 kcal/mol)

>  <smiles>  (12) 
CCN1CCN(c2ccc(S(=O)(=O)N3CCOCC3)cc2[N+](=O)[O-])CC1

>  <score_type>  (12) 
oracle

>  <origin>  (12) 
adg

>  <m_score__min__energy>  (12) 
-7.9699999999999998

>  <m_primary>  (12) 
energy

$$$$
12:0
     RDKit          3D

 50 52  0  0  0  0  0  0  0  0999 V2000
   -4.4510   21.7760  -32.4080 C   0  0  0  0  0  0  0  0  0  0  0  0
   -5.2140   21.3890  -31.1440 C   0  0  0  0  0  0  0  0  0  0  0  0
   -6.6600   21.3790  -31.3880 N   0  0  0  0  0  0  0  0  0  0  0  0
   -7.5530   22.3320  -31.0490 C   0  0  0  0  0  0  0  0  0  0  0  0
   -7.1700   23.8090  -30.1050 S   0  0  0  0  0  0  0  0  0  0  0  0
   -6.0240   24.4850  -31.3560 C   0  0  0  0  0  0  0  0  0  0  0  0
   -5.2370   25.6760  -30.8020 C   0  0  0  0  0  0  0  0  0  0  0  0
   -3.8890   25.3030  -30.5040 O   0  0  0  0  0  0  0  0  0  0  0  0
   -3.4860   24.2290  -29.6940 C   0  0  0  0  0  0  0  0  0  0  0  0
   -4.1260   24.0580  -28.4620 C   0  0  0  0  0  0  0  0  0  0  0  0
   -3.7510   23.0210  -27.6040 C   0  0  0  0  0  0  0  0  0  0  0  0
   -2.7360   22.1300  -27.9670 C   0  0  0  0  0  0  0  0  0  0  0  0
   -2.3850   21.1160  -27.0650 O   0  0  0  0  0  0  0  0  0  0  0  0
   -2.9110   19.7930  -27.0970 C   0  0  0  0  0  0  0  0  0  0  0  0
   -2.1060   22.2810  -29.2170 C   0  0  0  0  0  0  0  0  0  0  0  0
   -2.4830   23.3190  -30.0760 C   0  0  0  0  0  0  0  0  0  0  0  0
   -8.7770   22.0660  -31.5370 N   0  0  0  0  0  0  0  0  0  0  0  0
   -8.6830   20.9300  -32.2100 N   0  0  0  0  0  0  0  0  0  0  0  0
   -7.4050   20.5120  -32.1150 C   0  0  0  0  0  0  0  0  0  0  0  0
   -6.9130   19.2920  -32.7900 C   0  0  0  0  0  0  0  0  0  0  0  0
   -6.1120   19.3670  -33.9390 C   0  0  0  0  0  0  0  0  0  0  0  0
   -5.6390   18.2020  -34.5500 C   0  0  0  0  0  0  0  0  0  0  0  0
   -5.9490   16.9400  -34.0090 C   0  0  0  0  0  0  0  0  0  0  0  0
   -5.5000   15.7430  -34.5860 O   0  0  0  0  0  0  0  0  0  0  0  0
   -4.6160   14.8250  -33.9500 C   0  0  0  0  0  0  0  0  0  0  0  0
   -6.7300   16.8690  -32.8500 C   0  0  0  0  0  0  0  0  0  0  0  0
   -7.2020   18.0340  -32.2400 C   0  0  0  0  0  0  0  0  0  0  0  0
   -3.5017   22.2575  -32.1303 H   0  0  0  0  0  0  0  0  0  0  0  0
   -4.2444   20.8737  -33.0023 H   0  0  0  0  0  0  0  0  0  0  0  0
   -5.0570   22.4757  -33.0023 H   0  0  0  0  0  0  0  0  0  0  0  0
   -4.8958   20.3858  -30.8242 H   0  0  0  0  0  0  0  0  0  0  0  0
   -4.9949   22.1295  -30.3606 H   0  0  0  0  0  0  0  0  0  0  0  0
   -5.3176   23.6976  -31.6578 H   0  0  0  0  0  0  0  0  0  0  0  0
   -6.6141   24.8290  -32.2183 H   0  0  0  0  0  0  0  0  0  0  0  0
   -5.2305   26.4826  -31.5499 H   0  0  0  0  0  0  0  0  0  0  0  0
   -5.7207   26.0159  -29.8744 H   0  0  0  0  0  0  0  0  0  0  0  0
   -4.9316   24.7460  -28.1661 H   0  0  0  0  0  0  0  0  0  0  0  0
   -4.2583   22.9044  -26.6350 H   0  0  0  0  0  0  0  0  0  0  0  0
   -3.0550   19.4307  -26.0684 H   0  0  0  0  0  0  0  0  0  0  0  0
   -3.8767   19.7950  -27.6237 H   0  0  0  0  0  0  0  0  0  0  0  0
   -2.2075   19.1314  -27.6237 H   0  0  0  0  0  0  0  0  0  0  0  0
   -1.3141   21.5800  -29.5195 H   0  0  0  0  0  0  0  0  0  0  0  0
   -1.9928   23.4243  -31.0551 H   0  0  0  0  0  0  0  0  0  0  0  0
   -5.8543   20.3491  -34.3621 H   0  0  0  0  0  0  0  0  0  0  0  0
   -5.0217   18.2718  -35.4578 H   0  0  0  0  0  0  0  0  0  0  0  0
   -4.7097   14.9223  -32.8583 H   0  0  0  0  0  0  0  0  0  0  0  0
   -4.8748   13.7989  -34.2503 H   0  0  0  0  0  0  0  0  0  0  0  0
   -3.5809   15.0449  -34.2503 H   0  0  0  0  0  0  0  0  0  0  0  0
   -6.9742   15.8883  -32.4158 H   0  0  0  0  0  0  0  0  0  0  0  0
   -7.8043   17.9645  -31.3222 H   0  0  0  0  0  0  0  0  0  0  0  0
  1  2  1  0
  2  3  1  0
  3  4  1  0
  4  5  1  0
  5  6  1  0
  6  7  1  0
  7  8  1  0
  8  9  1  0
  9 10  2  0
 10 11  1  0
 11 12  2  0
 12 13  1  0
 13 14  1  0
 12 15  1  0
 15 16  2  0
  4 17  2  0
 17 18  1  0
 18 19  2  0
 19 20  1  0
 20 21  2  0
 21 22  1  0
 22 23  2  0
 23 24  1  0
 24 25  1  0
 23 26  1  0
 26 27  2  0
 19  3  1  0
 27 20  1  0
 16  9  1  0
  1 28  1  0
  1 29  1  0
  1 30  1  0
  2 31  1  0
  2 32  1  0
  6 33  1  0
  6 34  1  0
  7 35  1  0
  7 36  1  0
 10 37  1  0
 11 38  1  0
 14 39  1  0
 14 40  1  0
 14 41  1  0
 15 42  1  0
 16 43  1  0
 21 44  1  0
 22 45  1  0
 25 46  1  0
 25 47  1  0
 25 48  1  0
 26 49  1  0
 27 50  1  0
M  END
>  <UniqueID>  (13) 
13

>  <SMILES>  (13) 
CCn1c(SCCOc2ccc(OC)cc2)nnc1-c1ccc(OC)cc1

>  <Energy>  (13) 
82.16032217660934

>  <Genealogy>  (13) 
CCn1c(SCCOc2ccc(OC)cc2)nnc1-c1ccc(OC)cc1 (3D coordinates assigned)
CCn1c(SCCOc2ccc(OC)cc2)nnc1-c1ccc(OC)cc1 (optimized conformer: 82.16032217660934 kcal/mol)

>  <smiles>  (13) 
CCn1c(SCCOc2ccc(OC)cc2)nnc1-c1ccc(OC)cc1

>  <score_type>  (13) 
oracle

>  <origin>  (13) 
adg

>  <m_score__min__energy>  (13) 
-8.3499999999999996

>  <m_primary>  (13) 
energy

$$$$
13:0
     RDKit          3D

 73 75  0  0  0  0  0  0  0  0999 V2000
   -4.8820   12.9090  -30.8490 C   0  0  0  0  0  0  0  0  0  0  0  0
   -4.9500   12.5560  -32.3310 C   0  0  0  0  0  0  0  0  0  0  0  0
   -4.5030   13.7350  -33.2030 C   0  0  0  0  0  0  0  0  0  0  0  0
   -3.8470   14.8300  -32.3530 C   0  0  0  0  0  0  0  0  0  0  0  0
   -2.6670   15.4630  -33.1010 C   0  0  0  0  0  0  0  0  0  0  0  0
   -2.9540   15.6520  -34.6070 C   0  0  0  0  0  0  0  0  0  0  0  0
   -3.2600   17.0500  -34.9820 N   0  0  0  0  0  0  0  0  0  0  0  0
   -4.4260   17.6000  -34.3050 C   0  0  0  0  0  0  0  0  0  0  0  0
   -5.5960   16.8360  -34.2140 C   0  0  0  0  0  0  0  0  0  0  0  0
   -6.7320   17.3320  -33.5950 C   0  0  0  0  0  0  0  0  0  0  0  0
   -6.7710   18.6420  -33.0730 C   0  0  0  0  0  0  0  0  0  0  0  0
   -5.6160   19.4620  -33.2080 C   0  0  0  0  0  0  0  0  0  0  0  0
   -4.3910   18.8630  -33.6520 C   0  0  0  0  0  0  0  0  0  0  0  0
   -3.0460   19.4730  -33.3100 C   0  0  0  0  0  0  0  0  0  0  0  0
   -5.7410   20.8440  -32.9080 C   0  0  0  0  0  0  0  0  0  0  0  0
   -4.6740   21.7600  -33.1800 N   0  0  0  0  0  0  0  0  0  0  0  0
   -3.7480   22.1550  -32.1190 C   0  0  0  0  0  0  0  0  0  0  0  0
   -4.4940   22.7870  -30.9400 C   0  0  0  0  0  0  0  0  0  0  0  0
   -4.1390   24.2290  -30.8260 N   0  0  0  0  0  0  0  0  0  0  0  0
   -3.3890   24.5120  -29.5780 C   0  0  0  0  0  0  0  0  0  0  0  0
   -3.4240   23.3070  -28.6380 C   0  0  0  0  0  0  0  0  0  0  0  0
   -5.3290   25.1010  -30.9410 C   0  0  0  0  0  0  0  0  0  0  0  0
   -6.1950   25.0250  -29.6820 C   0  0  0  0  0  0  0  0  0  0  0  0
   -6.9710   21.3570  -32.4640 C   0  0  0  0  0  0  0  0  0  0  0  0
   -7.1410   22.7430  -32.2410 C   0  0  0  0  0  0  0  0  0  0  0  0
   -8.3710   23.2550  -31.8360 C   0  0  0  0  0  0  0  0  0  0  0  0
   -9.4540   22.4060  -31.6600 C   0  0  0  0  0  0  0  0  0  0  0  0
   -9.3130   21.0340  -31.8700 C   0  0  0  0  0  0  0  0  0  0  0  0
   -8.0650   20.4780  -32.2530 C   0  0  0  0  0  0  0  0  0  0  0  0
   -7.9070   19.1200  -32.4480 N   0  0  0  0  0  0  0  0  0  0  0  0
   -8.9360   18.1770  -31.9560 C   0  0  0  0  0  0  0  0  0  0  0  0
   -5.0563   12.0042  -30.2482 H   0  0  0  0  0  0  0  0  0  0  0  0
   -3.8884   13.3188  -30.6149 H   0  0  0  0  0  0  0  0  0  0  0  0
   -5.6523   13.6586  -30.6149 H   0  0  0  0  0  0  0  0  0  0  0  0
   -4.2921   11.6962  -32.5256 H   0  0  0  0  0  0  0  0  0  0  0  0
   -5.9924   12.3118  -32.5833 H   0  0  0  0  0  0  0  0  0  0  0  0
   -3.7785   13.3763  -33.9489 H   0  0  0  0  0  0  0  0  0  0  0  0
   -5.3884   14.1596  -33.6987 H   0  0  0  0  0  0  0  0  0  0  0  0
   -4.5917   15.6080  -32.1290 H   0  0  0  0  0  0  0  0  0  0  0  0
   -3.4743   14.3790  -31.4215 H   0  0  0  0  0  0  0  0  0  0  0  0
   -2.4541   16.4463  -32.6564 H   0  0  0  0  0  0  0  0  0  0  0  0
   -1.8081   14.7822  -33.0073 H   0  0  0  0  0  0  0  0  0  0  0  0
   -2.0689   15.3262  -35.1730 H   0  0  0  0  0  0  0  0  0  0  0  0
   -3.8459   15.0528  -34.8425 H   0  0  0  0  0  0  0  0  0  0  0  0
   -2.4330   17.6440  -34.7420 H   0  0  0  0  0  0  0  0  0  0  0  0
   -3.3670   17.0650  -36.0200 H   0  0  0  0  0  0  0  0  0  0  0  0
   -5.6135   15.8229  -34.6421 H   0  0  0  0  0  0  0  0  0  0  0  0
   -7.6218   16.6911  -33.5088 H   0  0  0  0  0  0  0  0  0  0  0  0
   -2.9338   19.5239  -32.2169 H   0  0  0  0  0  0  0  0  0  0  0  0
   -2.2432   18.8509  -33.7325 H   0  0  0  0  0  0  0  0  0  0  0  0
   -2.9851   20.4868  -33.7325 H   0  0  0  0  0  0  0  0  0  0  0  0
   -4.4380   21.9400  -34.1810 H   0  0  0  0  0  0  0  0  0  0  0  0
   -3.2066   21.2651  -31.7656 H   0  0  0  0  0  0  0  0  0  0  0  0
   -3.0474   22.8985  -32.5269 H   0  0  0  0  0  0  0  0  0  0  0  0
   -5.5779   22.6904  -31.1009 H   0  0  0  0  0  0  0  0  0  0  0  0
   -4.2068   22.2702  -30.0124 H   0  0  0  0  0  0  0  0  0  0  0  0
   -2.3434   24.7424  -29.8301 H   0  0  0  0  0  0  0  0  0  0  0  0
   -3.8584   25.3680  -29.0712 H   0  0  0  0  0  0  0  0  0  0  0  0
   -3.4139   23.6554  -27.5947 H   0  0  0  0  0  0  0  0  0  0  0  0
   -4.3394   22.7253  -28.8215 H   0  0  0  0  0  0  0  0  0  0  0  0
   -2.5439   22.6732  -28.8215 H   0  0  0  0  0  0  0  0  0  0  0  0
   -4.9994   26.1402  -31.0875 H   0  0  0  0  0  0  0  0  0  0  0  0
   -5.9291   24.7598  -31.7974 H   0  0  0  0  0  0  0  0  0  0  0  0
   -5.5524   25.0814  -28.7910 H   0  0  0  0  0  0  0  0  0  0  0  0
   -6.9061   25.8642  -29.6749 H   0  0  0  0  0  0  0  0  0  0  0  0
   -6.7491   24.0748  -29.6749 H   0  0  0  0  0  0  0  0  0  0  0  0
   -6.2910   23.4252  -32.3893 H   0  0  0  0  0  0  0  0  0  0  0  0
   -8.4841   24.3342  -31.6554 H   0  0  0  0  0  0  0  0  0  0  0  0
  -10.4276   22.8162  -31.3537 H   0  0  0  0  0  0  0  0  0  0  0  0
  -10.1824   20.3734  -31.7367 H   0  0  0  0  0  0  0  0  0  0  0  0
   -8.9368   18.1763  -30.8560 H   0  0  0  0  0  0  0  0  0  0  0  0
   -9.9249   18.4890  -32.3232 H   0  0  0  0  0  0  0  0  0  0  0  0
   -8.7112   17.1647  -32.3232 H   0  0  0  0  0  0  0  0  0  0  0  0
  1  2  1  0
  2  3  1  0
  3  4  1  0
  4  5  1  0
  5  6  1  0
  6  7  1  0
  7  8  1  0
  8  9  2  0
  9 10  1  0
 10 11  2  0
 11 12  1  0
 12 13  2  0
 13 14  1  0
 12 15  1  0
 15 16  1  0
 16 17  1  0
 17 18  1  0
 18 19  1  0
 19 20  1  0
 20 21  1  0
 19 22  1  0
 22 23  1  0
 15 24  2  0
 24 25  1  0
 25 26  2  0
 26 27  1  0
 27 28  2  0
 28 29  1  0
 29 30  2  0
 30 31  1  0
 13  8  1  0
 29 24  1  0
 30 11  1  0
  1 32  1  0
  1 33  1  0
  1 34  1  0
  2 35  1  0
  2 36  1  0
  3 37  1  0
  3 38  1  0
  4 39  1  0
  4 40  1  0
  5 41  1  0
  5 42  1  0
  6 43  1  0
  6 44  1  0
  7 45  1  0
  7 46  1  0
  9 47  1  0
 10 48  1  0
 14 49  1  0
 14 50  1  0
 14 51  1  0
 16 52  1  0
 17 53  1  0
 17 54  1  0
 18 55  1  0
 18 56  1  0
 20 57  1  0
 20 58  1  0
 21 59  1  0
 21 60  1  0
 21 61  1  0
 22 62  1  0
 22 63  1  0
 23 64  1  0
 23 65  1  0
 23 66  1  0
 25 67  1  0
 26 68  1  0
 27 69  1  0
 28 70  1  0
 31 71  1  0
 31 72  1  0
 31 73  1  0
M  CHG  2   7   1  30   1
M  END
>  <UniqueID>  (14) 
14

>  <SMILES>  (14) 
CCCCCC[NH2+]c1ccc2c(c1C)c(NCCN(CC)CC)c1ccccc1[n+]2C

>  <Energy>  (14) 
103.28440203190782

>  <Genealogy>  (14) 
CCCCCC[NH2+]c1ccc2c(c1C)c(NCCN(CC)CC)c1ccccc1[n+]2C (protonated)
CCCCCC[NH2+]c1ccc2c(c1C)c(NCCN(CC)CC)c1ccccc1[n+]2C (3D coordinates assigned)
CCCCCC[NH2+]c1ccc2c(c1C)c(NCCN(CC)CC)c1ccccc1[n+]2C (optimized conformer: 103.28440203190782 kcal/mol)

>  <smiles>  (14) 
CCCCCCNc1ccc2c(c1C)c(NCCN(CC)CC)c1ccccc1[n+]2C

>  <score_type>  (14) 
oracle

>  <origin>  (14) 
adg

>  <m_score__min__energy>  (14) 
-8.5999999999999996

>  <m_primary>  (14) 
energy

$$$$
14:0
     RDKit          3D

 68 72  0  0  0  0  0  0  0  0999 V2000
   -1.1810   19.4420  -27.6920 C   0  0  0  0  0  0  0  0  0  0  0  0
   -0.5230   20.3370  -28.7390 C   0  0  0  0  0  0  0  0  0  0  0  0
   -1.0300   20.0010  -30.0890 N   0  0  0  0  0  0  0  0  0  0  0  0
   -0.3760   18.7870  -30.6430 C   0  0  0  0  0  0  0  0  0  0  0  0
    0.6010   19.0680  -31.7930 C   0  0  0  0  0  0  0  0  0  0  0  0
   -0.9820   21.1760  -30.9900 C   0  0  0  0  0  0  0  0  0  0  0  0
   -2.1760   21.2110  -31.9530 C   0  0  0  0  0  0  0  0  0  0  0  0
   -3.2470   20.3420  -31.4660 N   0  0  0  0  0  0  0  0  0  0  0  0
   -4.2210   19.7760  -32.3620 C   0  0  0  0  0  0  0  0  0  0  0  0
   -3.8120   18.7900  -33.2750 C   0  0  0  0  0  0  0  0  0  0  0  0
   -2.4490   18.6140  -33.5980 C   0  0  0  0  0  0  0  0  0  0  0  0
   -2.0600   17.6700  -34.5470 C   0  0  0  0  0  0  0  0  0  0  0  0
   -3.0170   16.8940  -35.1890 C   0  0  0  0  0  0  0  0  0  0  0  0
   -4.3650   17.0250  -34.8560 C   0  0  0  0  0  0  0  0  0  0  0  0
   -4.7840   17.9430  -33.8600 C   0  0  0  0  0  0  0  0  0  0  0  0
   -6.0940   18.0010  -33.4280 N   0  0  0  0  0  0  0  0  0  0  0  0
   -7.0140   16.8780  -33.7200 C   0  0  0  0  0  0  0  0  0  0  0  0
   -6.5350   19.0950  -32.7030 C   0  0  0  0  0  0  0  0  0  0  0  0
   -7.9090   19.2810  -32.4220 C   0  0  0  0  0  0  0  0  0  0  0  0
   -8.3530   20.3460  -31.6510 C   0  0  0  0  0  0  0  0  0  0  0  0
   -7.4670   21.3360  -31.2350 C   0  0  0  0  0  0  0  0  0  0  0  0
   -7.9510   22.4420  -30.5200 C   0  0  0  0  0  0  0  0  0  0  0  0
   -7.1030   23.4970  -30.1930 C   0  0  0  0  0  0  0  0  0  0  0  0
   -5.7770   23.4910  -30.6320 C   0  0  0  0  0  0  0  0  0  0  0  0
   -4.8560   24.6310  -30.2890 C   0  0  0  0  0  0  0  0  0  0  0  0
   -3.3950   24.2090  -30.4680 C   0  0  0  0  0  0  0  0  0  0  0  0
   -2.7870   23.9230  -29.1660 N   0  0  0  0  0  0  0  0  0  0  0  0
   -1.9770   24.7890  -28.4900 C   0  0  0  0  0  0  0  0  0  0  0  0
   -1.6780   26.0600  -28.9680 O   0  0  0  0  0  0  0  0  0  0  0  0
   -1.4640   24.3080  -27.2900 C   0  0  0  0  0  0  0  0  0  0  0  0
   -2.0340   22.7370  -27.0750 S   0  0  0  0  0  0  0  0  0  0  0  0
   -2.9030   22.7430  -28.5120 C   0  0  0  0  0  0  0  0  0  0  0  0
   -3.5760   21.7680  -28.9360 O   0  0  0  0  0  0  0  0  0  0  0  0
   -5.2860   22.3860  -31.3410 C   0  0  0  0  0  0  0  0  0  0  0  0
   -6.0950   21.2480  -31.5800 C   0  0  0  0  0  0  0  0  0  0  0  0
   -5.6030   20.0600  -32.2150 C   0  0  0  0  0  0  0  0  0  0  0  0
   -0.9177   19.8001  -26.6858 H   0  0  0  0  0  0  0  0  0  0  0  0
   -2.2734   19.4725  -27.8179 H   0  0  0  0  0  0  0  0  0  0  0  0
   -0.8261   18.4085  -27.8179 H   0  0  0  0  0  0  0  0  0  0  0  0
   -0.7543   21.3889  -28.5152 H   0  0  0  0  0  0  0  0  0  0  0  0
    0.5653   20.1788  -28.7142 H   0  0  0  0  0  0  0  0  0  0  0  0
    0.1790   18.2934  -29.8316 H   0  0  0  0  0  0  0  0  0  0  0  0
   -1.1774   18.1567  -31.0559 H   0  0  0  0  0  0  0  0  0  0  0  0
    1.5811   19.3499  -31.3808 H   0  0  0  0  0  0  0  0  0  0  0  0
    0.7093   18.1646  -32.4112 H   0  0  0  0  0  0  0  0  0  0  0  0
    0.2128   19.8909  -32.4112 H   0  0  0  0  0  0  0  0  0  0  0  0
   -0.9905   22.0916  -30.3804 H   0  0  0  0  0  0  0  0  0  0  0  0
   -0.0630   21.1064  -31.5906 H   0  0  0  0  0  0  0  0  0  0  0  0
   -2.5514   22.2422  -32.0281 H   0  0  0  0  0  0  0  0  0  0  0  0
   -1.8489   20.8559  -32.9414 H   0  0  0  0  0  0  0  0  0  0  0  0
   -3.3420   20.1920  -30.4360 H   0  0  0  0  0  0  0  0  0  0  0  0
   -1.6866   19.2277  -33.0959 H   0  0  0  0  0  0  0  0  0  0  0  0
   -0.9946   17.5394  -34.7877 H   0  0  0  0  0  0  0  0  0  0  0  0
   -2.7106   16.1741  -35.9623 H   0  0  0  0  0  0  0  0  0  0  0  0
   -5.1138   16.4073  -35.3735 H   0  0  0  0  0  0  0  0  0  0  0  0
   -7.3714   16.4417  -32.7756 H   0  0  0  0  0  0  0  0  0  0  0  0
   -7.8718   17.2482  -34.3007 H   0  0  0  0  0  0  0  0  0  0  0  0
   -6.4822   16.1099  -34.3007 H   0  0  0  0  0  0  0  0  0  0  0  0
   -8.6417   18.5655  -32.8236 H   0  0  0  0  0  0  0  0  0  0  0  0
   -9.4137   20.4085  -31.3662 H   0  0  0  0  0  0  0  0  0  0  0  0
   -9.0075   22.4759  -30.2157 H   0  0  0  0  0  0  0  0  0  0  0  0
   -7.4778   24.3360  -29.5883 H   0  0  0  0  0  0  0  0  0  0  0  0
   -5.0711   25.4826  -30.9512 H   0  0  0  0  0  0  0  0  0  0  0  0
   -5.0186   24.9179  -29.2396 H   0  0  0  0  0  0  0  0  0  0  0  0
   -3.3519   23.3063  -31.0951 H   0  0  0  0  0  0  0  0  0  0  0  0
   -2.8416   25.0284  -30.9500 H   0  0  0  0  0  0  0  0  0  0  0  0
   -0.8029   24.8563  -26.6027 H   0  0  0  0  0  0  0  0  0  0  0  0
   -4.2531   22.4028  -31.7189 H   0  0  0  0  0  0  0  0  0  0  0  0
  1  2  1  0
  2  3  1  0
  3  4  1  0
  4  5  1  0
  3  6  1  0
  6  7  1  0
  7  8  1  0
  8  9  1  0
  9 10  2  0
 10 11  1  0
 11 12  2  0
 12 13  1  0
 13 14  2  0
 14 15  1  0
 15 16  2  0
 16 17  1  0
 16 18  1  0
 18 19  2  0
 19 20  1  0
 20 21  2  0
 21 22  1  0
 22 23  2  0
 23 24  1  0
 24 25  1  0
 25 26  1  0
 26 27  1  0
 27 28  1  0
 28 29  1  0
 28 30  2  0
 30 31  1  0
 31 32  1  0
 32 33  2  0
 24 34  2  0
 34 35  1  0
 35 36  2  0
 36  9  1  0
 15 10  1  0
 36 18  1  0
 35 21  1  0
 32 27  1  0
  1 37  1  0
  1 38  1  0
  1 39  1  0
  2 40  1  0
  2 41  1  0
  4 42  1  0
  4 43  1  0
  5 44  1  0
  5 45  1  0
  5 46  1  0
  6 47  1  0
  6 48  1  0
  7 49  1  0
  7 50  1  0
  8 51  1  0
 11 52  1  0
 12 53  1  0
 13 54  1  0
 14 55  1  0
 17 56  1  0
 17 57  1  0
 17 58  1  0
 19 59  1  0
 20 60  1  0
 22 61  1  0
 23 62  1  0
 25 63  1  0
 25 64  1  0
 26 65  1  0
 26 66  1  0
 30 67  1  0
 34 68  1  0
M  CHG  2  16   1  29  -1
M  END
>  <UniqueID>  (15) 
15

>  <SMILES>  (15) 
CCN(CC)CCNc1c2ccccc2[n+](C)c2ccc3ccc(CCn4c([O-])csc4=O)cc3c12

>  <Energy>  (15) 
140.44977529461028

>  <Genealogy>  (15) 
CCN(CC)CCNc1c2ccccc2[n+](C)c2ccc3ccc(CCn4c([O-])csc4=O)cc3c12 (protonated)
CCN(CC)CCNc1c2ccccc2[n+](C)c2ccc3ccc(CCn4c([O-])csc4=O)cc3c12 (3D coordinates assigned)
CCN(CC)CCNc1c2ccccc2[n+](C)c2ccc3ccc(CCn4c([O-])csc4=O)cc3c12 (optimized conformer: 140.44977529461028 kcal/mol)

>  <smiles>  (15) 
CCN(CC)CCNc1c2ccccc2[n+](C)c2ccc3ccc(CCn4c(O)csc4=O)cc3c12

>  <score_type>  (15) 
oracle

>  <origin>  (15) 
adg

>  <m_score__min__energy>  (15) 
-12.34

>  <m_primary>  (15) 
energy

$$$$
15:0
     RDKit          3D

 48 50  0  0  0  0  0  0  0  0999 V2000
   -6.2490   25.6670  -29.7160 C   0  0  0  0  0  0  0  0  0  0  0  0
   -5.1080   24.6580  -29.8760 C   0  0  0  0  0  0  0  0  0  0  0  0
   -5.3300   23.4270  -29.0950 N   0  0  0  0  0  0  0  0  0  0  0  0
   -4.0730   22.8760  -28.5610 C   0  0  0  0  0  0  0  0  0  0  0  0
   -3.4100   21.9210  -29.5600 C   0  0  0  0  0  0  0  0  0  0  0  0
   -4.2780   21.6580  -30.6480 O   0  0  0  0  0  0  0  0  0  0  0  0
   -3.8770   22.3310  -31.8280 C   0  0  0  0  0  0  0  0  0  0  0  0
   -4.3980   21.6070  -33.0740 C   0  0  0  0  0  0  0  0  0  0  0  0
   -5.6180   20.8500  -32.7740 N   0  0  0  0  0  0  0  0  0  0  0  0
   -6.8120   21.3490  -32.3600 C   0  0  0  0  0  0  0  0  0  0  0  0
   -7.7440   20.3330  -32.2170 C   0  0  0  0  0  0  0  0  0  0  0  0
   -7.1080   19.1760  -32.6070 C   0  0  0  0  0  0  0  0  0  0  0  0
   -7.5750   17.8680  -32.7190 C   0  0  0  0  0  0  0  0  0  0  0  0
   -6.6760   16.8870  -33.1740 C   0  0  0  0  0  0  0  0  0  0  0  0
   -5.3490   17.2330  -33.5070 C   0  0  0  0  0  0  0  0  0  0  0  0
   -4.9060   18.5620  -33.3910 C   0  0  0  0  0  0  0  0  0  0  0  0
   -5.8160   19.5210  -32.9340 C   0  0  0  0  0  0  0  0  0  0  0  0
   -9.1850   20.5480  -31.8630 C   0  0  0  0  0  0  0  0  0  0  0  0
   -9.3750   21.9280  -31.2070 C   0  0  0  0  0  0  0  0  0  0  0  0
   -8.6300   23.0330  -31.9840 C   0  0  0  0  0  0  0  0  0  0  0  0
   -7.1090   22.7820  -32.0150 C   0  0  0  0  0  0  0  0  0  0  0  0
   -6.4410   25.8368  -28.6463 H   0  0  0  0  0  0  0  0  0  0  0  0
   -5.9678   26.6173  -30.1934 H   0  0  0  0  0  0  0  0  0  0  0  0
   -7.1577   25.2716  -30.1934 H   0  0  0  0  0  0  0  0  0  0  0  0
   -5.0202   24.3903  -30.9393 H   0  0  0  0  0  0  0  0  0  0  0  0
   -4.1883   25.1308  -29.5010 H   0  0  0  0  0  0  0  0  0  0  0  0
   -5.7600   22.7210  -29.7360 H   0  0  0  0  0  0  0  0  0  0  0  0
   -6.0020   23.6140  -28.3140 H   0  0  0  0  0  0  0  0  0  0  0  0
   -3.3822   23.7046  -28.3460 H   0  0  0  0  0  0  0  0  0  0  0  0
   -4.3044   22.3120  -27.6454 H   0  0  0  0  0  0  0  0  0  0  0  0
   -2.4842   22.3790  -29.9384 H   0  0  0  0  0  0  0  0  0  0  0  0
   -3.1839   20.9735  -29.0490 H   0  0  0  0  0  0  0  0  0  0  0  0
   -4.2780   23.3552  -31.8125 H   0  0  0  0  0  0  0  0  0  0  0  0
   -2.7778   22.3494  -31.8659 H   0  0  0  0  0  0  0  0  0  0  0  0
   -4.6190   22.3496  -33.8548 H   0  0  0  0  0  0  0  0  0  0  0  0
   -3.6257   20.9029  -33.4172 H   0  0  0  0  0  0  0  0  0  0  0  0
   -8.6128   17.6112  -32.4600 H   0  0  0  0  0  0  0  0  0  0  0  0
   -7.0093   15.8432  -33.2710 H   0  0  0  0  0  0  0  0  0  0  0  0
   -4.6553   16.4559  -33.8604 H   0  0  0  0  0  0  0  0  0  0  0  0
   -3.8741   18.8397  -33.6519 H   0  0  0  0  0  0  0  0  0  0  0  0
   -9.7950   20.4937  -32.7768 H   0  0  0  0  0  0  0  0  0  0  0  0
   -9.4988   19.7686  -31.1531 H   0  0  0  0  0  0  0  0  0  0  0  0
  -10.4482   22.1683  -31.1853 H   0  0  0  0  0  0  0  0  0  0  0  0
   -8.9617   21.8849  -30.1885 H   0  0  0  0  0  0  0  0  0  0  0  0
   -9.0080   23.0594  -33.0167 H   0  0  0  0  0  0  0  0  0  0  0  0
   -8.8091   23.9910  -31.4740 H   0  0  0  0  0  0  0  0  0  0  0  0
   -6.6505   23.4374  -32.7702 H   0  0  0  0  0  0  0  0  0  0  0  0
   -6.6953   22.9982  -31.0190 H   0  0  0  0  0  0  0  0  0  0  0  0
  1  2  1  0
  2  3  1  0
  3  4  1  0
  4  5  1  0
  5  6  1  0
  6  7  1  0
  7  8  1  0
  8  9  1  0
  9 10  1  0
 10 11  2  0
 11 12  1  0
 12 13  2  0
 13 14  1  0
 14 15  2  0
 15 16  1  0
 16 17  2  0
 11 18  1  0
 18 19  1  0
 19 20  1  0
 20 21  1  0
 17  9  1  0
 21 10  1  0
 17 12  1  0
  1 22  1  0
  1 23  1  0
  1 24  1  0
  2 25  1  0
  2 26  1  0
  3 27  1  0
  3 28  1  0
  4 29  1  0
  4 30  1  0
  5 31  1  0
  5 32  1  0
  7 33  1  0
  7 34  1  0
  8 35  1  0
  8 36  1  0
 13 37  1  0
 14 38  1  0
 15 39  1  0
 16 40  1  0
 18 41  1  0
 18 42  1  0
 19 43  1  0
 19 44  1  0
 20 45  1  0
 20 46  1  0
 21 47  1  0
 21 48  1  0
M  CHG  1   3   1
M  END
>  <UniqueID>  (16) 
16

>  <SMILES>  (16) 
CC[NH2+]CCOCCn1c2c(c3ccccc31)CCCC2

>  <Energy>  (16) 
77.94467512930107

>  <Genealogy>  (16) 
CC[NH2+]CCOCCn1c2c(c3ccccc31)CCCC2 (protonated)
CC[NH2+]CCOCCn1c2c(c3ccccc31)CCCC2 (3D coordinates assigned)
CC[NH2+]CCOCCn1c2c(c3ccccc31)CCCC2 (nonaromatic ring conformer: 77.94467512930107 kcal/mol)

>  <smiles>  (16) 
CCNCCOCCn1c2c(c3ccccc31)CCCC2

>  <score_type>  (16) 
oracle

>  <origin>  (16) 
adg

>  <m_score__min__energy>  (16) 
-7.7999999999999998

>  <m_primary>  (16) 
energy

$$$$
16:0
     RDKit          3D

 52 54  0  0  0  0  0  0  0  0999 V2000
   -4.5740   24.9220  -26.1350 C   0  0  0  0  0  0  0  0  0  0  0  0
   -3.3170   24.7590  -26.7870 O   0  0  0  0  0  0  0  0  0  0  0  0
   -2.1970   25.5760  -26.5680 C   0  0  0  0  0  0  0  0  0  0  0  0
   -1.8370   26.0230  -25.2800 C   0  0  0  0  0  0  0  0  0  0  0  0
   -0.7140   26.8350  -25.1050 C   0  0  0  0  0  0  0  0  0  0  0  0
    0.0580   27.2080  -26.2050 C   0  0  0  0  0  0  0  0  0  0  0  0
   -0.2880   26.7710  -27.4850 C   0  0  0  0  0  0  0  0  0  0  0  0
   -1.4180   25.9510  -27.6760 C   0  0  0  0  0  0  0  0  0  0  0  0
   -1.8000   25.4900  -28.9450 O   0  0  0  0  0  0  0  0  0  0  0  0
   -1.7050   24.1340  -29.3750 C   0  0  0  0  0  0  0  0  0  0  0  0
   -2.9990   23.7440  -30.1010 C   0  0  0  0  0  0  0  0  0  0  0  0
   -4.2170   24.3390  -29.4860 N   0  0  0  0  0  0  0  0  0  0  0  0
   -5.0040   23.3050  -28.7540 C   0  0  0  0  0  0  0  0  0  0  0  0
   -6.1540   22.6830  -29.5800 C   0  0  0  0  0  0  0  0  0  0  0  0
   -5.9160   22.8360  -31.0180 N   0  0  0  0  0  0  0  0  0  0  0  0
   -6.0980   21.7260  -31.9130 C   0  0  0  0  0  0  0  0  0  0  0  0
   -7.3760   21.1700  -32.0880 C   0  0  0  0  0  0  0  0  0  0  0  0
   -7.5660   20.0940  -32.9560 C   0  0  0  0  0  0  0  0  0  0  0  0
   -6.4840   19.5650  -33.6610 C   0  0  0  0  0  0  0  0  0  0  0  0
   -5.2090   20.1140  -33.5040 C   0  0  0  0  0  0  0  0  0  0  0  0
   -5.0050   21.2040  -32.6340 C   0  0  0  0  0  0  0  0  0  0  0  0
   -3.7430   21.7990  -32.4760 O   0  0  0  0  0  0  0  0  0  0  0  0
   -2.5200   21.2440  -32.9490 C   0  0  0  0  0  0  0  0  0  0  0  0
   -5.6130   24.1660  -31.5530 C   0  0  0  0  0  0  0  0  0  0  0  0
   -5.0690   25.0820  -30.4460 C   0  0  0  0  0  0  0  0  0  0  0  0
   -4.4269   24.9029  -25.0450 H   0  0  0  0  0  0  0  0  0  0  0  0
   -5.0171   25.8851  -26.4284 H   0  0  0  0  0  0  0  0  0  0  0  0
   -5.2481   24.1037  -26.4284 H   0  0  0  0  0  0  0  0  0  0  0  0
   -2.4429   25.7311  -24.4096 H   0  0  0  0  0  0  0  0  0  0  0  0
   -0.4381   27.1808  -24.0979 H   0  0  0  0  0  0  0  0  0  0  0  0
    0.9415   27.8479  -26.0637 H   0  0  0  0  0  0  0  0  0  0  0  0
    0.3246   27.0683  -28.3489 H   0  0  0  0  0  0  0  0  0  0  0  0
   -0.8513   24.0240  -30.0599 H   0  0  0  0  0  0  0  0  0  0  0  0
   -1.5580   23.4791  -28.5035 H   0  0  0  0  0  0  0  0  0  0  0  0
   -2.9314   24.0857  -31.1444 H   0  0  0  0  0  0  0  0  0  0  0  0
   -3.0973   22.6507  -30.0305 H   0  0  0  0  0  0  0  0  0  0  0  0
   -3.8880   25.0310  -28.7700 H   0  0  0  0  0  0  0  0  0  0  0  0
   -4.3191   22.4983  -28.4538 H   0  0  0  0  0  0  0  0  0  0  0  0
   -5.4688   23.8104  -27.8946 H   0  0  0  0  0  0  0  0  0  0  0  0
   -6.2293   21.6120  -29.3406 H   0  0  0  0  0  0  0  0  0  0  0  0
   -7.0884   23.2040  -29.3240 H   0  0  0  0  0  0  0  0  0  0  0  0
   -8.2327   21.5855  -31.5372 H   0  0  0  0  0  0  0  0  0  0  0  0
   -8.5696   19.6624  -33.0847 H   0  0  0  0  0  0  0  0  0  0  0  0
   -6.6354   18.7142  -34.3416 H   0  0  0  0  0  0  0  0  0  0  0  0
   -4.3597   19.6933  -34.0624 H   0  0  0  0  0  0  0  0  0  0  0  0
   -1.8914   20.9587  -32.0926 H   0  0  0  0  0  0  0  0  0  0  0  0
   -2.7331   20.3544  -33.5599 H   0  0  0  0  0  0  0  0  0  0  0  0
   -1.9908   21.9901  -33.5599 H   0  0  0  0  0  0  0  0  0  0  0  0
   -4.8589   24.0727  -32.3484 H   0  0  0  0  0  0  0  0  0  0  0  0
   -6.5374   24.6059  -31.9555 H   0  0  0  0  0  0  0  0  0  0  0  0
   -4.4714   25.8820  -30.9074 H   0  0  0  0  0  0  0  0  0  0  0  0
   -5.9251   25.4967  -29.8937 H   0  0  0  0  0  0  0  0  0  0  0  0
  1  2  1  0
  2  3  1  0
  3  4  2  0
  4  5  1  0
  5  6  2  0
  6  7  1  0
  7  8  2  0
  8  9  1  0
  9 10  1  0
 10 11  1  0
 11 12  1  0
 12 13  1  0
 13 14  1  0
 14 15  1  0
 15 16  1  0
 16 17  2  0
 17 18  1  0
 18 19  2  0
 19 20  1  0
 20 21  2  0
 21 22  1  0
 22 23  1  0
 15 24  1  0
 24 25  1  0
  8  3  1  0
 25 12  1  0
 21 16  1  0
  1 26  1  0
  1 27  1  0
  1 28  1  0
  4 29  1  0
  5 30  1  0
  6 31  1  0
  7 32  1  0
 10 33  1  0
 10 34  1  0
 11 35  1  0
 11 36  1  0
 12 37  1  0
 13 38  1  0
 13 39  1  0
 14 40  1  0
 14 41  1  0
 17 42  1  0
 18 43  1  0
 19 44  1  0
 20 45  1  0
 23 46  1  0
 23 47  1  0
 23 48  1  0
 24 49  1  0
 24 50  1  0
 25 51  1  0
 25 52  1  0
M  CHG  1  12   1
M  END
>  <UniqueID>  (17) 
17

>  <SMILES>  (17) 
COc1ccccc1OCC[NH+]1CCN(c2ccccc2OC)CC1

>  <Energy>  (17) 
64.11128999999492

>  <Genealogy>  (17) 
COc1ccccc1OCC[NH+]1CCN(c2ccccc2OC)CC1 (protonated)
COc1ccccc1OCC[NH+]1CCN(c2ccccc2OC)CC1 (3D coordinates assigned)
COc1ccccc1OCC[NH+]1CCN(c2ccccc2OC)CC1 (nonaromatic ring conformer: 64.11128999999492 kcal/mol)

>  <smiles>  (17) 
COc1ccccc1OCCN1CCN(c2ccccc2OC)CC1

>  <score_type>  (17) 
oracle

>  <origin>  (17) 
adg

>  <m_score__min__energy>  (17) 
-7

>  <m_primary>  (17) 
energy

$$$$
17:0
     RDKit          3D

 44 45  0  0  0  0  0  0  0  0999 V2000
   -3.4830   19.9470  -33.0150 C   0  0  0  0  0  0  0  0  0  0  0  0
   -2.9810   20.6890  -31.7850 C   0  0  0  0  0  0  0  0  0  0  0  0
   -4.0440   21.3890  -31.1410 O   0  0  0  0  0  0  0  0  0  0  0  0
   -4.8420   22.3460  -31.7850 C   0  0  0  0  0  0  0  0  0  0  0  0
   -4.5750   22.7100  -32.9620 O   0  0  0  0  0  0  0  0  0  0  0  0
   -6.0830   22.8770  -31.1140 C   0  0  1  0  0  0  0  0  0  0  0  0
   -5.7780   24.0520  -30.1480 C   0  0  0  0  0  0  0  0  0  0  0  0
   -4.3090   24.3940  -30.1000 C   0  0  0  0  0  0  0  0  0  0  0  0
   -3.8980   25.3410  -30.8230 O   0  0  0  0  0  0  0  0  0  0  0  0
   -3.3420   23.6790  -29.2200 C   0  0  0  0  0  0  0  0  0  0  0  0
   -1.9830   24.0490  -29.2320 C   0  0  0  0  0  0  0  0  0  0  0  0
   -1.0560   23.3930  -28.4140 C   0  0  0  0  0  0  0  0  0  0  0  0
   -1.4720   22.3580  -27.5760 C   0  0  0  0  0  0  0  0  0  0  0  0
   -2.8140   21.9750  -27.5550 C   0  0  0  0  0  0  0  0  0  0  0  0
   -3.7450   22.6270  -28.3710 C   0  0  0  0  0  0  0  0  0  0  0  0
   -7.1510   23.1550  -32.1040 N   0  0  0  0  0  0  0  0  0  0  0  0
   -8.3660   22.3250  -32.0070 C   0  0  0  0  0  0  0  0  0  0  0  0
   -8.0570   20.8600  -32.1560 C   0  0  0  0  0  0  0  0  0  0  0  0
   -7.0940   20.4250  -33.0820 C   0  0  0  0  0  0  0  0  0  0  0  0
   -6.8580   19.0590  -33.2640 C   0  0  0  0  0  0  0  0  0  0  0  0
   -7.5720   18.1190  -32.5160 C   0  0  0  0  0  0  0  0  0  0  0  0
   -8.5280   18.5430  -31.5890 C   0  0  0  0  0  0  0  0  0  0  0  0
   -8.7770   19.9080  -31.4150 C   0  0  0  0  0  0  0  0  0  0  0  0
   -4.0737   19.0739  -32.7008 H   0  0  0  0  0  0  0  0  0  0  0  0
   -4.1130   20.6186  -33.6167 H   0  0  0  0  0  0  0  0  0  0  0  0
   -2.6252   19.6121  -33.6167 H   0  0  0  0  0  0  0  0  0  0  0  0
   -2.5481   19.9644  -31.0796 H   0  0  0  0  0  0  0  0  0  0  0  0
   -2.2218   21.4192  -32.1018 H   0  0  0  0  0  0  0  0  0  0  0  0
   -6.4821   22.0872  -30.4607 H   0  0  0  0  0  0  0  0  0  0  0  0
   -6.3359   24.9386  -30.4837 H   0  0  0  0  0  0  0  0  0  0  0  0
   -6.0822   23.7416  -29.1375 H   0  0  0  0  0  0  0  0  0  0  0  0
   -1.6465   24.8625  -29.8916 H   0  0  0  0  0  0  0  0  0  0  0  0
    0.0019   23.6938  -28.4318 H   0  0  0  0  0  0  0  0  0  0  0  0
   -0.7429   21.8442  -26.9323 H   0  0  0  0  0  0  0  0  0  0  0  0
   -3.1407   21.1580  -26.8949 H   0  0  0  0  0  0  0  0  0  0  0  0
   -4.8001   22.3166  -28.3503 H   0  0  0  0  0  0  0  0  0  0  0  0
   -6.7510   23.0310  -33.0630 H   0  0  0  0  0  0  0  0  0  0  0  0
   -8.8335   22.4920  -31.0254 H   0  0  0  0  0  0  0  0  0  0  0  0
   -9.0439   22.6156  -32.8231 H   0  0  0  0  0  0  0  0  0  0  0  0
   -6.5235   21.1621  -33.6661 H   0  0  0  0  0  0  0  0  0  0  0  0
   -6.1094   18.7238  -33.9969 H   0  0  0  0  0  0  0  0  0  0  0  0
   -7.3814   17.0448  -32.6569 H   0  0  0  0  0  0  0  0  0  0  0  0
   -9.0849   17.8026  -30.9959 H   0  0  0  0  0  0  0  0  0  0  0  0
   -9.5401   20.2379  -30.6947 H   0  0  0  0  0  0  0  0  0  0  0  0
  1  2  1  0
  2  3  1  0
  3  4  1  0
  4  5  2  0
  4  6  1  0
  6  7  1  0
  7  8  1  0
  8  9  2  0
  8 10  1  0
 10 11  2  0
 11 12  1  0
 12 13  2  0
 13 14  1  0
 14 15  2  0
  6 16  1  0
 16 17  1  0
 17 18  1  0
 18 19  2  0
 19 20  1  0
 20 21  2  0
 21 22  1  0
 22 23  2  0
 15 10  1  0
 23 18  1  0
  1 24  1  0
  1 25  1  0
  1 26  1  0
  2 27  1  0
  2 28  1  0
  6 29  1  1
  7 30  1  0
  7 31  1  0
 11 32  1  0
 12 33  1  0
 13 34  1  0
 14 35  1  0
 15 36  1  0
 16 37  1  0
 17 38  1  0
 17 39  1  0
 19 40  1  0
 20 41  1  0
 21 42  1  0
 22 43  1  0
 23 44  1  0
M  END
>  <UniqueID>  (18) 
18

>  <SMILES>  (18) 
CCOC(=O)[C@@H](CC(=O)c1ccccc1)NCc1ccccc1

>  <Energy>  (18) 
43.372457146060164

>  <Genealogy>  (18) 
CCOC(=O)[C@@H](CC(=O)c1ccccc1)NCc1ccccc1 (chirality)
CCOC(=O)[C@@H](CC(=O)c1ccccc1)NCc1ccccc1 (3D coordinates assigned)
CCOC(=O)[C@@H](CC(=O)c1ccccc1)NCc1ccccc1 (optimized conformer: 43.372457146060164 kcal/mol)

>  <smiles>  (18) 
CCOC(=O)C(CC(=O)c1ccccc1)NCc1ccccc1

>  <score_type>  (18) 
oracle

>  <origin>  (18) 
adg

>  <m_score__min__energy>  (18) 
-8.0500000000000007

>  <m_primary>  (18) 
energy

$$$$
18:0
     RDKit          3D

 54 58  0  0  0  0  0  0  0  0999 V2000
   -4.0430   24.1260  -28.0660 C   0  0  0  0  0  0  0  0  0  0  0  0
   -3.2200   24.5560  -29.2740 C   0  0  0  0  0  0  0  0  0  0  0  0
   -4.0550   24.5440  -30.4990 N   0  0  0  0  0  0  0  0  0  0  0  0
   -5.0540   25.6310  -30.4560 C   0  0  0  0  0  0  0  0  0  0  0  0
   -4.7110   23.2280  -30.6620 C   0  0  0  0  0  0  0  0  0  0  0  0
   -6.1280   23.3640  -31.2250 C   0  0  0  0  0  0  0  0  0  0  0  0
   -6.2210   22.7320  -32.5400 N   0  0  0  0  0  0  0  0  0  0  0  0
   -6.0210   21.3220  -32.7310 C   0  0  0  0  0  0  0  0  0  0  0  0
   -7.0860   20.4290  -32.5380 C   0  0  0  0  0  0  0  0  0  0  0  0
   -8.3580   20.8930  -32.1360 C   0  0  0  0  0  0  0  0  0  0  0  0
   -9.4180   20.0050  -31.9650 C   0  0  0  0  0  0  0  0  0  0  0  0
   -9.2280   18.6450  -32.1840 C   0  0  0  0  0  0  0  0  0  0  0  0
   -7.9810   18.1670  -32.5960 C   0  0  0  0  0  0  0  0  0  0  0  0
   -6.8920   19.0480  -32.7930 C   0  0  0  0  0  0  0  0  0  0  0  0
   -5.6730   18.5930  -33.2590 N   0  0  0  0  0  0  0  0  0  0  0  0
   -5.6370   17.3160  -34.0090 C   0  0  0  0  0  0  0  0  0  0  0  0
   -4.5620   19.4230  -33.2220 C   0  0  0  0  0  0  0  0  0  0  0  0
   -4.7600   20.8240  -33.1040 C   0  0  0  0  0  0  0  0  0  0  0  0
   -3.7030   21.6980  -33.4120 C   0  0  0  0  0  0  0  0  0  0  0  0
   -2.4720   21.2200  -33.7000 N   0  0  0  0  0  0  0  0  0  0  0  0
   -2.1870   19.8980  -33.6530 C   0  0  0  0  0  0  0  0  0  0  0  0
   -0.8570   19.4830  -33.8530 C   0  0  0  0  0  0  0  0  0  0  0  0
   -0.5580   18.1420  -33.6540 C   0  0  0  0  0  0  0  0  0  0  0  0
   -1.5010   17.2480  -33.2720 C   0  0  0  0  0  0  0  0  0  0  0  0
   -2.8280   17.6100  -33.0750 C   0  0  0  0  0  0  0  0  0  0  0  0
   -3.2160   18.9510  -33.3450 C   0  0  0  0  0  0  0  0  0  0  0  0
   -0.9160   16.0070  -33.1070 O   0  0  0  0  0  0  0  0  0  0  0  0
    0.4810   16.1320  -33.4080 C   0  0  0  0  0  0  0  0  0  0  0  0
    0.6670   17.5130  -33.7490 O   0  0  0  0  0  0  0  0  0  0  0  0
   -3.5123   24.4033  -27.1433 H   0  0  0  0  0  0  0  0  0  0  0  0
   -5.0214   24.6282  -28.0913 H   0  0  0  0  0  0  0  0  0  0  0  0
   -4.1895   23.0361  -28.0913 H   0  0  0  0  0  0  0  0  0  0  0  0
   -2.8357   25.5731  -29.1073 H   0  0  0  0  0  0  0  0  0  0  0  0
   -2.3842   23.8529  -29.4049 H   0  0  0  0  0  0  0  0  0  0  0  0
   -5.2816   25.8786  -29.4087 H   0  0  0  0  0  0  0  0  0  0  0  0
   -4.6509   26.5197  -30.9636 H   0  0  0  0  0  0  0  0  0  0  0  0
   -5.9735   25.3042  -30.9636 H   0  0  0  0  0  0  0  0  0  0  0  0
   -4.1117   22.6145  -31.3508 H   0  0  0  0  0  0  0  0  0  0  0  0
   -4.7811   22.7562  -29.6708 H   0  0  0  0  0  0  0  0  0  0  0  0
   -6.8378   22.8783  -30.5393 H   0  0  0  0  0  0  0  0  0  0  0  0
   -6.3686   24.4325  -31.3268 H   0  0  0  0  0  0  0  0  0  0  0  0
   -6.4390   23.3250  -33.3760 H   0  0  0  0  0  0  0  0  0  0  0  0
   -8.5135   21.9670  -31.9560 H   0  0  0  0  0  0  0  0  0  0  0  0
  -10.4052   20.3798  -31.6568 H   0  0  0  0  0  0  0  0  0  0  0  0
  -10.0616   17.9434  -32.0325 H   0  0  0  0  0  0  0  0  0  0  0  0
   -7.8443   17.0894  -32.7697 H   0  0  0  0  0  0  0  0  0  0  0  0
   -5.6133   16.4751  -33.3003 H   0  0  0  0  0  0  0  0  0  0  0  0
   -6.5333   17.2370  -34.6418 H   0  0  0  0  0  0  0  0  0  0  0  0
   -4.7377   17.2877  -34.6418 H   0  0  0  0  0  0  0  0  0  0  0  0
   -3.8798   22.7837  -33.4187 H   0  0  0  0  0  0  0  0  0  0  0  0
   -0.0790   20.1986  -34.1574 H   0  0  0  0  0  0  0  0  0  0  0  0
   -3.5633   16.8742  -32.7175 H   0  0  0  0  0  0  0  0  0  0  0  0
    1.0903   15.8650  -32.5320 H   0  0  0  0  0  0  0  0  0  0  0  0
    0.7889   15.4608  -34.2233 H   0  0  0  0  0  0  0  0  0  0  0  0
  1  2  1  0
  2  3  1  0
  3  4  1  0
  3  5  1  0
  5  6  1  0
  6  7  1  0
  7  8  1  0
  8  9  2  0
  9 10  1  0
 10 11  2  0
 11 12  1  0
 12 13  2  0
 13 14  1  0
 14 15  2  0
 15 16  1  0
 15 17  1  0
 17 18  2  0
 18 19  1  0
 19 20  2  0
 20 21  1  0
 21 22  2  0
 22 23  1  0
 23 24  2  0
 24 25  1  0
 25 26  2  0
 24 27  1  0
 27 28  1  0
 28 29  1  0
 18  8  1  0
 26 21  1  0
 14  9  1  0
 26 17  1  0
 29 23  1  0
  1 30  1  0
  1 31  1  0
  1 32  1  0
  2 33  1  0
  2 34  1  0
  4 35  1  0
  4 36  1  0
  4 37  1  0
  5 38  1  0
  5 39  1  0
  6 40  1  0
  6 41  1  0
  7 42  1  0
 10 43  1  0
 11 44  1  0
 12 45  1  0
 13 46  1  0
 16 47  1  0
 16 48  1  0
 16 49  1  0
 19 50  1  0
 22 51  1  0
 25 52  1  0
 28 53  1  0
 28 54  1  0
M  CHG  1  15   1
M  END
>  <UniqueID>  (19) 
19

>  <SMILES>  (19) 
CCN(C)CCNc1c2ccccc2[n+](C)c2c1cnc1cc3c(cc12)OCO3

>  <Energy>  (19) 
127.60515123617806

>  <Genealogy>  (19) 
CCN(C)CCNc1c2ccccc2[n+](C)c2c1cnc1cc3c(cc12)OCO3 (3D coordinates assigned)
CCN(C)CCNc1c2ccccc2[n+](C)c2c1cnc1cc3c(cc12)OCO3 (nonaromatic ring conformer: 127.60515123617806 kcal/mol)

>  <smiles>  (19) 
CCN(C)CCNc1c2ccccc2[n+](C)c2c1cnc1cc3c(cc12)OCO3

>  <score_type>  (19) 
oracle

>  <origin>  (19) 
adg

>  <m_score__min__energy>  (19) 
-8.5199999999999996

>  <m_primary>  (19) 
energy

$$$$
19:0
     RDKit          3D

 42 44  0  0  0  0  0  0  0  0999 V2000
   -6.1110   18.4830  -33.8460 C   0  0  0  0  0  0  0  0  0  0  0  0
   -5.9270   19.9990  -33.6920 C   0  0  0  0  0  0  0  0  0  0  0  0
   -6.8500   20.5410  -32.6340 C   0  0  0  0  0  0  0  0  0  0  0  0
   -8.1780   20.1590  -32.4690 C   0  0  0  0  0  0  0  0  0  0  0  0
   -8.6920   20.9160  -31.4250 C   0  0  0  0  0  0  0  0  0  0  0  0
   -7.6550   21.7290  -31.0110 C   0  0  0  0  0  0  0  0  0  0  0  0
   -7.6510   22.6810  -29.9960 C   0  0  0  0  0  0  0  0  0  0  0  0
   -6.4970   23.3770  -29.7630 N   0  0  0  0  0  0  0  0  0  0  0  0
   -5.3640   23.1690  -30.5120 C   0  0  0  0  0  0  0  0  0  0  0  0
   -4.1100   23.9000  -30.2010 C   0  0  0  0  0  0  0  0  0  0  0  0
   -3.8790   25.0070  -30.7620 O   0  0  0  0  0  0  0  0  0  0  0  0
   -3.1210   23.3390  -29.3230 N   0  0  0  0  0  0  0  0  0  0  0  0
   -3.4970   22.9010  -27.9710 C   0  0  0  0  0  0  0  0  0  0  0  0
   -2.7970   21.5820  -27.5770 C   0  0  0  0  0  0  0  0  0  0  0  0
   -1.5090   21.3020  -28.3840 C   0  0  0  0  0  0  0  0  0  0  0  0
   -0.5650   20.3720  -27.6090 C   0  0  0  0  0  0  0  0  0  0  0  0
   -0.8070   22.6190  -28.7560 C   0  0  0  0  0  0  0  0  0  0  0  0
   -1.7030   23.4360  -29.7030 C   0  0  0  0  0  0  0  0  0  0  0  0
   -5.3920   22.2080  -31.5430 C   0  0  0  0  0  0  0  0  0  0  0  0
   -6.5480   21.5120  -31.7430 N   0  0  0  0  0  0  0  0  0  0  0  0
   -6.1675   18.0175  -32.8509 H   0  0  0  0  0  0  0  0  0  0  0  0
   -7.0403   18.2807  -34.3987 H   0  0  0  0  0  0  0  0  0  0  0  0
   -5.2571   18.0643  -34.3987 H   0  0  0  0  0  0  0  0  0  0  0  0
   -4.8860   20.2093  -33.4055 H   0  0  0  0  0  0  0  0  0  0  0  0
   -6.1638   20.4837  -34.6507 H   0  0  0  0  0  0  0  0  0  0  0  0
   -8.7182   19.4008  -33.0549 H   0  0  0  0  0  0  0  0  0  0  0  0
   -9.7114   20.8766  -31.0137 H   0  0  0  0  0  0  0  0  0  0  0  0
   -8.5536   22.8690  -29.3960 H   0  0  0  0  0  0  0  0  0  0  0  0
   -6.4880   24.0620  -28.9740 H   0  0  0  0  0  0  0  0  0  0  0  0
   -3.2124   23.6832  -27.2518 H   0  0  0  0  0  0  0  0  0  0  0  0
   -4.5831   22.7271  -27.9589 H   0  0  0  0  0  0  0  0  0  0  0  0
   -2.5351   21.6323  -26.5098 H   0  0  0  0  0  0  0  0  0  0  0  0
   -3.5000   20.7649  -27.7963 H   0  0  0  0  0  0  0  0  0  0  0  0
   -1.7914   20.7898  -29.3156 H   0  0  0  0  0  0  0  0  0  0  0  0
   -0.7125   20.5173  -26.5287 H   0  0  0  0  0  0  0  0  0  0  0  0
   -0.7834   19.3263  -27.8715 H   0  0  0  0  0  0  0  0  0  0  0  0
    0.4773   20.6060  -27.8715 H   0  0  0  0  0  0  0  0  0  0  0  0
   -0.6141   23.2010  -27.8427 H   0  0  0  0  0  0  0  0  0  0  0  0
    0.1449   22.3943  -29.2594 H   0  0  0  0  0  0  0  0  0  0  0  0
   -1.3944   24.4911  -29.6650 H   0  0  0  0  0  0  0  0  0  0  0  0
   -1.5901   23.0307  -30.7193 H   0  0  0  0  0  0  0  0  0  0  0  0
   -4.5062   22.0245  -32.1689 H   0  0  0  0  0  0  0  0  0  0  0  0
  1  2  1  0
  2  3  1  0
  3  4  2  0
  4  5  1  0
  5  6  2  0
  6  7  1  0
  7  8  2  0
  8  9  1  0
  9 10  1  0
 10 11  2  0
 10 12  1  0
 12 13  1  0
 13 14  1  0
 14 15  1  0
 15 16  1  0
 15 17  1  0
 17 18  1  0
  9 19  2  0
 19 20  1  0
 20  3  1  0
 20  6  1  0
 18 12  1  0
  1 21  1  0
  1 22  1  0
  1 23  1  0
  2 24  1  0
  2 25  1  0
  4 26  1  0
  5 27  1  0
  7 28  1  0
  8 29  1  0
 13 30  1  0
 13 31  1  0
 14 32  1  0
 14 33  1  0
 15 34  1  0
 16 35  1  0
 16 36  1  0
 16 37  1  0
 17 38  1  0
 17 39  1  0
 18 40  1  0
 18 41  1  0
 19 42  1  0
M  CHG  1   8   1
M  END
>  <UniqueID>  (20) 
20

>  <SMILES>  (20) 
CCc1ccc2c[nH+]c(C(=O)N3CCC(C)CC3)cn12

>  <Energy>  (20) 
76.14389349040364

>  <Genealogy>  (20) 
CCc1ccc2c[nH+]c(C(=O)N3CCC(C)CC3)cn12 (protonated)
CCc1ccc2c[nH+]c(C(=O)N3CCC(C)CC3)cn12 (3D coordinates assigned)
CCc1ccc2c[nH+]c(C(=O)N3CCC(C)CC3)cn12 (nonaromatic ring conformer: 76.14389349040364 kcal/mol)

>  <smiles>  (20) 
CCc1ccc2cnc(C(=O)N3CCC(C)CC3)cn12

>  <score_type>  (20) 
oracle

>  <origin>  (20) 
adg

>  <m_score__min__energy>  (20) 
-7.4299999999999997

>  <m_primary>  (20) 
energy

$$$$
20:0
     RDKit          3D

 35 37  0  0  0  0  0  0  0  0999 V2000
   -5.8950   25.2820  -30.1880 C   0  0  0  0  0  0  0  0  0  0  0  0
   -6.8410   24.0920  -30.0920 C   0  0  0  0  0  0  0  0  0  0  0  0
   -6.4860   23.0790  -31.0830 N   0  0  0  0  0  0  0  0  0  0  0  0
   -5.3000   22.9450  -31.7190 C   0  0  0  0  0  0  0  0  0  0  0  0
   -5.2990   21.9400  -32.6270 N   0  0  0  0  0  0  0  0  0  0  0  0
   -6.5440   21.4340  -32.5350 C   0  0  0  0  0  0  0  0  0  0  0  0
   -7.2780   22.1410  -31.6280 C   0  0  0  0  0  0  0  0  0  0  0  0
   -8.6940   21.8140  -31.2740 C   0  0  0  0  0  0  0  0  0  0  0  0
   -9.2930   20.8540  -32.3300 C   0  0  0  0  0  0  0  0  0  0  0  0
   -8.3500   19.7740  -32.7510 N   0  0  2  0  0  0  0  0  0  0  0  0
   -8.0010   18.8410  -31.6500 C   0  0  0  0  0  0  0  0  0  0  0  0
   -7.0350   17.7780  -32.0910 C   0  0  0  0  0  0  0  0  0  0  0  0
   -6.1160   17.1260  -31.2790 C   0  0  0  0  0  0  0  0  0  0  0  0
   -5.3260   16.2040  -31.9750 C   0  0  0  0  0  0  0  0  0  0  0  0
   -5.6180   16.1300  -33.3320 C   0  0  0  0  0  0  0  0  0  0  0  0
   -6.8600   17.2140  -33.6650 S   0  0  0  0  0  0  0  0  0  0  0  0
   -7.1250   20.3410  -33.3770 C   0  0  0  0  0  0  0  0  0  0  0  0
   -5.6266   25.6196  -29.1761 H   0  0  0  0  0  0  0  0  0  0  0  0
   -4.9846   24.9840  -30.7286 H   0  0  0  0  0  0  0  0  0  0  0  0
   -6.3907   26.1018  -30.7286 H   0  0  0  0  0  0  0  0  0  0  0  0
   -6.7720   23.6542  -29.0852 H   0  0  0  0  0  0  0  0  0  0  0  0
   -7.8680   24.4357  -30.2847 H   0  0  0  0  0  0  0  0  0  0  0  0
   -4.4278   23.5850  -31.5198 H   0  0  0  0  0  0  0  0  0  0  0  0
   -8.7208   21.3316  -30.2858 H   0  0  0  0  0  0  0  0  0  0  0  0
   -9.2850   22.7415  -31.2513 H   0  0  0  0  0  0  0  0  0  0  0  0
  -10.1929   20.3854  -31.9050 H   0  0  0  0  0  0  0  0  0  0  0  0
   -9.5201   21.4541  -33.2235 H   0  0  0  0  0  0  0  0  0  0  0  0
   -8.8340   19.2150  -33.4940 H   0  0  0  0  0  0  0  0  0  0  0  0
   -7.5454   19.4155  -30.8300 H   0  0  0  0  0  0  0  0  0  0  0  0
   -8.9258   18.3424  -31.3242 H   0  0  0  0  0  0  0  0  0  0  0  0
   -6.0190   17.3149  -30.1997 H   0  0  0  0  0  0  0  0  0  0  0  0
   -4.5469   15.5949  -31.4933 H   0  0  0  0  0  0  0  0  0  0  0  0
   -5.1217   15.4747  -34.0629 H   0  0  0  0  0  0  0  0  0  0  0  0
   -6.3782   19.5417  -33.4929 H   0  0  0  0  0  0  0  0  0  0  0  0
   -7.3968   20.7622  -34.3561 H   0  0  0  0  0  0  0  0  0  0  0  0
  1  2  1  0
  2  3  1  0
  3  4  1  0
  4  5  2  0
  5  6  1  0
  6  7  2  0
  7  8  1  0
  8  9  1  0
  9 10  1  0
 10 11  1  0
 11 12  1  0
 12 13  2  0
 13 14  1  0
 14 15  2  0
 15 16  1  0
 10 17  1  0
  7  3  1  0
 16 12  1  0
 17  6  1  0
  1 18  1  0
  1 19  1  0
  1 20  1  0
  2 21  1  0
  2 22  1  0
  4 23  1  0
  8 24  1  0
  8 25  1  0
  9 26  1  0
  9 27  1  0
 10 28  1  6
 11 29  1  0
 11 30  1  0
 13 31  1  0
 14 32  1  0
 15 33  1  0
 17 34  1  0
 17 35  1  0
M  CHG  1  10   1
M  END
>  <UniqueID>  (21) 
21

>  <SMILES>  (21) 
CCn1cnc2c1CC[N@H+](Cc1cccs1)C2

>  <Energy>  (21) 
94.6924612562799

>  <Genealogy>  (21) 
CCn1cnc2c1CC[NH+](Cc1cccs1)C2 (protonated)
CCn1cnc2c1CC[N@H+](Cc1cccs1)C2 (chirality)
CCn1cnc2c1CC[N@H+](Cc1cccs1)C2 (3D coordinates assigned)
CCn1cnc2c1CC[N@H+](Cc1cccs1)C2 (nonaromatic ring conformer: 94.6924612562799 kcal/mol)

>  <smiles>  (21) 
CCn1cnc2c1CCN(Cc1cccs1)C2

>  <score_type>  (21) 
oracle

>  <origin>  (21) 
adg

>  <m_score__min__energy>  (21) 
-6.1600000000000001

>  <m_primary>  (21) 
energy

$$$$
21:0
     RDKit          3D

 45 47  0  0  0  0  0  0  0  0999 V2000
   -8.6350   18.6020  -31.3310 C   0  0  0  0  0  0  0  0  0  0  0  0
   -8.1210   19.0490  -32.6930 C   0  0  0  0  0  0  0  0  0  0  0  0
   -6.7160   18.6730  -32.8520 N   0  0  0  0  0  0  0  0  0  0  0  0
   -5.6120   19.4430  -32.6450 C   0  0  0  0  0  0  0  0  0  0  0  0
   -5.6660   21.0890  -32.0370 S   0  0  0  0  0  0  0  0  0  0  0  0
   -6.6580   22.0420  -33.0030 O   0  0  0  0  0  0  0  0  0  0  0  0
   -4.0480   21.8150  -31.8400 C   0  0  0  0  0  0  0  0  0  0  0  0
   -3.7500   22.0550  -30.3790 C   0  0  0  0  0  0  0  0  0  0  0  0
   -3.1170   21.0210  -29.6650 C   0  0  0  0  0  0  0  0  0  0  0  0
   -2.8540   21.1480  -28.3010 C   0  0  0  0  0  0  0  0  0  0  0  0
   -3.2210   22.3100  -27.6280 C   0  0  0  0  0  0  0  0  0  0  0  0
   -3.8530   23.3480  -28.3140 C   0  0  0  0  0  0  0  0  0  0  0  0
   -4.1350   23.2370  -29.6870 C   0  0  0  0  0  0  0  0  0  0  0  0
   -4.9150   24.6180  -30.4850 S   0  0  0  0  0  0  0  0  0  0  0  0
   -6.1560   25.3040  -29.4110 C   0  0  0  0  0  0  0  0  0  0  0  0
   -5.5810   24.1630  -31.7530 O   0  0  0  0  0  0  0  0  0  0  0  0
   -3.9070   25.6730  -30.8430 O   0  0  0  0  0  0  0  0  0  0  0  0
   -4.4430   18.8150  -32.9410 N   0  0  0  0  0  0  0  0  0  0  0  0
   -4.8610   17.6070  -33.3520 C   0  0  0  0  0  0  0  0  0  0  0  0
   -4.0760   16.5870  -33.7760 N   0  0  0  0  0  0  0  0  0  0  0  0
   -4.6640   15.4170  -34.1770 C   0  0  0  0  0  0  0  0  0  0  0  0
   -3.8110   14.2870  -34.6590 C   0  0  0  0  0  0  0  0  0  0  0  0
   -6.0760   15.2850  -34.1580 C   0  0  0  0  0  0  0  0  0  0  0  0
   -6.8750   16.3550  -33.7170 C   0  0  0  0  0  0  0  0  0  0  0  0
   -6.2160   17.5150  -33.3110 C   0  0  0  0  0  0  0  0  0  0  0  0
   -8.0589   19.1030  -30.5392 H   0  0  0  0  0  0  0  0  0  0  0  0
   -9.6981   18.8677  -31.2350 H   0  0  0  0  0  0  0  0  0  0  0  0
   -8.5193   17.5123  -31.2350 H   0  0  0  0  0  0  0  0  0  0  0  0
   -8.7173   18.5677  -33.4821 H   0  0  0  0  0  0  0  0  0  0  0  0
   -8.2103   20.1428  -32.7686 H   0  0  0  0  0  0  0  0  0  0  0  0
   -6.1450   22.8770  -33.1350 H   0  0  0  0  0  0  0  0  0  0  0  0
   -3.2921   21.1329  -32.2563 H   0  0  0  0  0  0  0  0  0  0  0  0
   -4.0233   22.7781  -32.3709 H   0  0  0  0  0  0  0  0  0  0  0  0
   -2.8254   20.0993  -30.1899 H   0  0  0  0  0  0  0  0  0  0  0  0
   -2.3571   20.3307  -27.7577 H   0  0  0  0  0  0  0  0  0  0  0  0
   -3.0123   22.4103  -26.5526 H   0  0  0  0  0  0  0  0  0  0  0  0
   -4.1340   24.2642  -27.7740 H   0  0  0  0  0  0  0  0  0  0  0  0
   -5.8638   25.1425  -28.3629 H   0  0  0  0  0  0  0  0  0  0  0  0
   -6.2513   26.3829  -29.6030 H   0  0  0  0  0  0  0  0  0  0  0  0
   -7.1203   24.8108  -29.6030 H   0  0  0  0  0  0  0  0  0  0  0  0
   -3.4005   13.7432  -33.7954 H   0  0  0  0  0  0  0  0  0  0  0  0
   -4.4194   13.6022  -35.2680 H   0  0  0  0  0  0  0  0  0  0  0  0
   -2.9857   14.6845  -35.2680 H   0  0  0  0  0  0  0  0  0  0  0  0
   -6.5457   14.3466  -34.4879 H   0  0  0  0  0  0  0  0  0  0  0  0
   -7.9722   16.2802  -33.6933 H   0  0  0  0  0  0  0  0  0  0  0  0
  1  2  1  0
  2  3  1  0
  3  4  1  0
  4  5  1  0
  5  6  1  6
  5  7  1  0
  7  8  1  0
  8  9  2  0
  9 10  1  0
 10 11  2  0
 11 12  1  0
 12 13  2  0
 13 14  1  0
 14 15  1  0
 14 16  2  0
 14 17  2  0
  4 18  2  0
 18 19  1  0
 19 20  2  0
 20 21  1  0
 21 22  1  0
 21 23  2  0
 23 24  1  0
 24 25  2  0
 25  3  1  0
 13  8  1  0
 25 19  1  0
  1 26  1  0
  1 27  1  0
  1 28  1  0
  2 29  1  0
  2 30  1  0
  6 31  1  0
  7 32  1  0
  7 33  1  0
  9 34  1  0
 10 35  1  0
 11 36  1  0
 12 37  1  0
 15 38  1  0
 15 39  1  0
 15 40  1  0
 22 41  1  0
 22 42  1  0
 22 43  1  0
 23 44  1  0
 24 45  1  0
M  CHG  1   5   1
M  END
>  <UniqueID>  (22) 
22

>  <SMILES>  (22) 
CCn1c([S@+](O)Cc2ccccc2S(C)(=O)=O)nc2nc(C)ccc21

>  <Energy>  (22) 
75.60731882761436

>  <Genealogy>  (22) 
CCn1c([S+](O)Cc2ccccc2S(C)(=O)=O)nc2nc(C)ccc21 (protonated)
CCn1c([S@+](O)Cc2ccccc2S(C)(=O)=O)nc2nc(C)ccc21 (chirality)
CCn1c([S@+](O)Cc2ccccc2S(C)(=O)=O)nc2nc(C)ccc21 (3D coordinates assigned)
CCn1c([S@+](O)Cc2ccccc2S(C)(=O)=O)nc2nc(C)ccc21 (optimized conformer: 75.60731882761436 kcal/mol)

>  <smiles>  (22) 
CCn1c([S+]([O-])Cc2ccccc2S(C)(=O)=O)nc2nc(C)ccc21

>  <score_type>  (22) 
oracle

>  <origin>  (22) 
adg

>  <m_score__min__energy>  (22) 
-8.6999999999999993

>  <m_primary>  (22) 
energy

$$$$
22:0
     RDKit          3D

 52 55  0  0  0  0  0  0  0  0999 V2000
   -2.6630   14.6970  -37.1190 C   0  0  0  0  0  0  0  0  0  0  0  0
   -2.1160   15.5490  -35.9770 C   0  0  0  0  0  0  0  0  0  0  0  0
   -3.1640   16.4470  -35.4640 N   0  0  0  0  0  0  0  0  0  0  0  0
   -3.0120   16.7350  -34.0270 C   0  0  0  0  0  0  0  0  0  0  0  0
   -3.8710   15.8030  -33.1560 C   0  0  0  0  0  0  0  0  0  0  0  0
   -4.9790   15.2110  -33.9680 C   0  0  0  0  0  0  0  0  0  0  0  0
   -4.7620   14.1830  -34.6640 O   0  0  0  0  0  0  0  0  0  0  0  0
   -6.2790   15.8120  -33.9330 N   0  0  0  0  0  0  0  0  0  0  0  0
   -6.5850   17.1450  -33.4990 C   0  0  0  0  0  0  0  0  0  0  0  0
   -6.0520   18.2240  -34.2140 C   0  0  0  0  0  0  0  0  0  0  0  0
   -6.3440   19.5380  -33.8380 C   0  0  0  0  0  0  0  0  0  0  0  0
   -7.1890   19.7920  -32.7430 C   0  0  0  0  0  0  0  0  0  0  0  0
   -7.5060   21.1840  -32.3410 C   0  0  0  0  0  0  0  0  0  0  0  0
   -8.8380   21.6120  -32.3280 C   0  0  0  0  0  0  0  0  0  0  0  0
   -9.1510   22.9140  -31.9590 C   0  0  0  0  0  0  0  0  0  0  0  0
   -8.1320   23.7910  -31.5910 C   0  0  0  0  0  0  0  0  0  0  0  0
   -6.8210   23.3840  -31.5860 N   0  0  0  0  0  0  0  0  0  0  0  0
   -5.8240   24.2490  -31.2030 C   0  0  0  0  0  0  0  0  0  0  0  0
   -6.0920   25.4340  -30.8550 O   0  0  0  0  0  0  0  0  0  0  0  0
   -4.4900   23.8280  -31.1840 C   0  0  0  0  0  0  0  0  0  0  0  0
   -3.4930   24.7000  -30.7550 O   0  0  0  0  0  0  0  0  0  0  0  0
   -4.1870   22.5180  -31.5740 C   0  0  0  0  0  0  0  0  0  0  0  0
   -2.7950   22.0030  -31.6050 C   0  0  0  0  0  0  0  0  0  0  0  0
   -1.9290   22.1950  -30.5180 C   0  0  0  0  0  0  0  0  0  0  0  0
   -0.6470   21.7520  -30.5770 N   0  0  0  0  0  0  0  0  0  0  0  0
   -0.1740   21.1260  -31.6840 C   0  0  0  0  0  0  0  0  0  0  0  0
    1.0170   20.7210  -31.7170 O   0  0  0  0  0  0  0  0  0  0  0  0
   -0.9840   20.9390  -32.7570 N   0  0  0  0  0  0  0  0  0  0  0  0
   -2.2740   21.3630  -32.7470 C   0  0  0  0  0  0  0  0  0  0  0  0
   -2.9940   21.1660  -33.7630 O   0  0  0  0  0  0  0  0  0  0  0  0
   -5.1990   21.6920  -31.9370 N   0  0  0  0  0  0  0  0  0  0  0  0
   -6.4970   22.0950  -31.9570 C   0  0  0  0  0  0  0  0  0  0  0  0
   -7.7500   18.7080  -32.0470 C   0  0  0  0  0  0  0  0  0  0  0  0
   -7.4540   17.3950  -32.4220 C   0  0  0  0  0  0  0  0  0  0  0  0
   -3.2137   13.8393  -36.7054 H   0  0  0  0  0  0  0  0  0  0  0  0
   -3.3406   15.3040  -37.7374 H   0  0  0  0  0  0  0  0  0  0  0  0
   -1.8290   14.3336  -37.7374 H   0  0  0  0  0  0  0  0  0  0  0  0
   -1.7724   14.8909  -35.1653 H   0  0  0  0  0  0  0  0  0  0  0  0
   -1.2771   16.1541  -36.3512 H   0  0  0  0  0  0  0  0  0  0  0  0
   -4.1020   16.0170  -35.6400 H   0  0  0  0  0  0  0  0  0  0  0  0
   -1.9555   16.6060  -33.7493 H   0  0  0  0  0  0  0  0  0  0  0  0
   -3.3478   17.7676  -33.8512 H   0  0  0  0  0  0  0  0  0  0  0  0
   -3.2403   14.9944  -32.7581 H   0  0  0  0  0  0  0  0  0  0  0  0
   -4.3041   16.3841  -32.3285 H   0  0  0  0  0  0  0  0  0  0  0  0
   -5.3983   18.0362  -35.0785 H   0  0  0  0  0  0  0  0  0  0  0  0
   -5.9107   20.3776  -34.4013 H   0  0  0  0  0  0  0  0  0  0  0  0
   -9.6403   20.9148  -32.6111 H   0  0  0  0  0  0  0  0  0  0  0  0
  -10.1980   23.2514  -31.9572 H   0  0  0  0  0  0  0  0  0  0  0  0
   -8.3815   24.8223  -31.3009 H   0  0  0  0  0  0  0  0  0  0  0  0
   -2.2904   22.7068  -29.6138 H   0  0  0  0  0  0  0  0  0  0  0  0
   -8.4273   18.8944  -31.2005 H   0  0  0  0  0  0  0  0  0  0  0  0
   -7.9023   16.5539  -31.8729 H   0  0  0  0  0  0  0  0  0  0  0  0
  1  2  1  0
  2  3  1  0
  3  4  1  0
  4  5  1  0
  5  6  1  0
  6  7  2  0
  6  8  1  0
  8  9  1  0
  9 10  2  0
 10 11  1  0
 11 12  2  0
 12 13  1  0
 13 14  2  0
 14 15  1  0
 15 16  2  0
 16 17  1  0
 17 18  1  0
 18 19  2  0
 18 20  1  0
 20 21  1  0
 20 22  2  0
 22 23  1  0
 23 24  2  0
 24 25  1  0
 25 26  1  0
 26 27  2  0
 26 28  1  0
 28 29  1  0
 29 30  2  0
 22 31  1  0
 31 32  2  0
 12 33  1  0
 33 34  2  0
 34  9  1  0
 32 13  1  0
 32 17  1  0
 29 23  1  0
  1 35  1  0
  1 36  1  0
  1 37  1  0
  2 38  1  0
  2 39  1  0
  3 40  1  0
  4 41  1  0
  4 42  1  0
  5 43  1  0
  5 44  1  0
 10 45  1  0
 11 46  1  0
 14 47  1  0
 15 48  1  0
 16 49  1  0
 24 50  1  0
 33 51  1  0
 34 52  1  0
M  CHG  4   8  -1  21  -1  25  -1  28  -1
M  END
>  <UniqueID>  (23) 
23

>  <SMILES>  (23) 
CCNCCC(=O)[N-]c1ccc(-c2cccn3c(=O)c([O-])c(-c4c[n-]c(=O)[n-]c4=O)nc23)cc1

>  <Energy>  (23) 
76.39191773175313

>  <Genealogy>  (23) 
CCNCCC(=O)[N-]c1ccc(-c2cccn3c(=O)c([O-])c(-c4c[n-]c(=O)[n-]c4=O)nc23)cc1 (protonated)
CCNCCC(=O)[N-]c1ccc(-c2cccn3c(=O)c([O-])c(-c4c[n-]c(=O)[n-]c4=O)nc23)cc1 (3D coordinates assigned)
CCNCCC(=O)[N-]c1ccc(-c2cccn3c(=O)c([O-])c(-c4c[n-]c(=O)[n-]c4=O)nc23)cc1 (optimized conformer: 76.39191773175313 kcal/mol)

>  <smiles>  (23) 
CCNCCC(=O)Nc1ccc(-c2cccn3c(=O)c(O)c(-c4c[nH]c(=O)[nH]c4=O)nc23)cc1

>  <score_type>  (23) 
oracle

>  <origin>  (23) 
adg

>  <m_score__min__energy>  (23) 
-11.42

>  <m_primary>  (23) 
energy

$$$$
23:0
     RDKit          3D

 50 53  0  0  0  0  0  0  0  0999 V2000
   -6.0834   24.9555  -30.7927 H   0  0  0  0  0  0  0  0  0  0  0  0
   -5.4390   24.0670  -30.7200 C   0  0  0  0  0  0  0  0  0  0  0  0
   -4.3780   24.1110  -29.9120 C   0  0  0  0  0  0  0  0  0  0  0  0
   -3.2560   24.9230  -30.1000 O   0  0  0  0  0  0  0  0  0  0  0  0
   -2.3750   24.6500  -29.0570 C   0  0  0  0  0  0  0  0  0  0  0  0
   -1.1300   25.2340  -28.8400 C   0  0  0  0  0  0  0  0  0  0  0  0
   -0.7422   26.0000  -29.5277 H   0  0  0  0  0  0  0  0  0  0  0  0
   -0.3760   24.8240  -27.7210 C   0  0  0  0  0  0  0  0  0  0  0  0
    0.8760   25.4210  -27.5130 O   0  0  0  0  0  0  0  0  0  0  0  0
    1.2840   26.0260  -26.2910 C   0  0  0  0  0  0  0  0  0  0  0  0
    0.8913   25.4436  -25.4445 H   0  0  0  0  0  0  0  0  0  0  0  0
    2.3827   26.0488  -26.2420 H   0  0  0  0  0  0  0  0  0  0  0  0
    0.8934   27.0531  -26.2420 H   0  0  0  0  0  0  0  0  0  0  0  0
   -0.9000   23.8330  -26.8460 C   0  0  0  0  0  0  0  0  0  0  0  0
   -0.3136   23.5127  -25.9722 H   0  0  0  0  0  0  0  0  0  0  0  0
   -2.1600   23.2590  -27.0870 C   0  0  0  0  0  0  0  0  0  0  0  0
   -2.5710   22.4919  -26.4142 H   0  0  0  0  0  0  0  0  0  0  0  0
   -2.8720   23.6900  -28.2020 C   0  0  0  0  0  0  0  0  0  0  0  0
   -4.1730   23.3020  -28.7130 C   0  0  0  0  0  0  0  0  0  0  0  0
   -4.9570   22.4460  -28.2220 O   0  0  0  0  0  0  0  0  0  0  0  0
   -5.7830   22.8790  -31.5180 C   0  0  0  0  0  0  0  0  0  0  0  0
   -4.8820   22.1300  -32.2650 C   0  0  0  0  0  0  0  0  0  0  0  0
   -3.8092   22.3525  -32.3631 H   0  0  0  0  0  0  0  0  0  0  0  0
   -5.5130   21.0870  -32.8550 N   0  0  0  0  0  0  0  0  0  0  0  0
   -4.8690   20.0480  -33.6610 C   0  0  0  0  0  0  0  0  0  0  0  0
   -4.9927   20.2869  -34.7276 H   0  0  0  0  0  0  0  0  0  0  0  0
   -5.3370   19.0782  -33.4362 H   0  0  0  0  0  0  0  0  0  0  0  0
   -3.3710   19.9700  -33.3290 C   0  0  0  0  0  0  0  0  0  0  0  0
   -2.9697   19.0218  -33.7161 H   0  0  0  0  0  0  0  0  0  0  0  0
   -3.2601   20.0305  -32.2363 H   0  0  0  0  0  0  0  0  0  0  0  0
   -2.6140   21.0910  -33.9300 N   0  0  0  0  0  0  0  0  0  0  0  0
   -2.2690   20.7840  -34.8700 H   0  0  0  0  0  0  0  0  0  0  0  0
   -3.2210   21.9280  -34.0940 H   0  0  0  0  0  0  0  0  0  0  0  0
   -1.4310   21.4830  -33.1410 C   0  0  0  0  0  0  0  0  0  0  0  0
   -1.1272   22.4969  -33.4406 H   0  0  0  0  0  0  0  0  0  0  0  0
   -0.6375   20.7478  -33.3403 H   0  0  0  0  0  0  0  0  0  0  0  0
   -1.7030   21.4770  -31.6360 C   0  0  0  0  0  0  0  0  0  0  0  0
   -0.7479   21.4981  -31.0907 H   0  0  0  0  0  0  0  0  0  0  0  0
   -2.2982   22.3622  -31.3674 H   0  0  0  0  0  0  0  0  0  0  0  0
   -2.2586   20.5664  -31.3674 H   0  0  0  0  0  0  0  0  0  0  0  0
   -6.8010   21.1450  -32.4560 C   0  0  0  0  0  0  0  0  0  0  0  0
   -7.8310   20.2430  -32.7400 C   0  0  0  0  0  0  0  0  0  0  0  0
   -7.6617   19.3807  -33.4016 H   0  0  0  0  0  0  0  0  0  0  0  0
   -9.0880   20.4700  -32.1560 C   0  0  0  0  0  0  0  0  0  0  0  0
   -9.9229   19.7877  -32.3739 H   0  0  0  0  0  0  0  0  0  0  0  0
   -9.2870   21.5670  -31.2920 C   0  0  0  0  0  0  0  0  0  0  0  0
  -10.2742   21.7298  -30.8349 H   0  0  0  0  0  0  0  0  0  0  0  0
   -8.2340   22.4530  -31.0110 C   0  0  0  0  0  0  0  0  0  0  0  0
   -8.3748   23.2998  -30.3232 H   0  0  0  0  0  0  0  0  0  0  0  0
   -7.0020   22.2270  -31.6310 C   0  0  0  0  0  0  0  0  0  0  0  0
  1  2  1  0
  2  3  2  0
  3  4  1  0
  4  5  1  0
  5  6  2  0
  6  7  1  0
  6  8  1  0
  8  9  1  0
  9 10  1  0
 10 11  1  0
 10 12  1  0
 10 13  1  0
  8 14  2  0
 14 15  1  0
 14 16  1  0
 16 17  1  0
 16 18  2  0
 18 19  1  0
 19 20  2  0
  2 21  1  0
 21 22  2  0
 22 23  1  0
 22 24  1  0
 24 25  1  0
 25 26  1  0
 25 27  1  0
 25 28  1  0
 28 29  1  0
 28 30  1  0
 28 31  1  0
 31 32  1  0
 31 33  1  0
 31 34  1  0
 34 35  1  0
 34 36  1  0
 34 37  1  0
 37 38  1  0
 37 39  1  0
 37 40  1  0
 24 41  1  0
 41 42  2  0
 42 43  1  0
 42 44  1  0
 44 45  1  0
 44 46  2  0
 46 47  1  0
 46 48  1  0
 48 49  1  0
 48 50  2  0
 19  3  1  0
 50 21  1  0
 18  5  1  0
 50 41  1  0
M  CHG  1  31   1
M  END
>  <UniqueID>  (24) 
24

>  <SMILES>  (24) 
CC[NH2+]CCn1cc(/C=C2\Oc3cc(OC)ccc3C2=O)c2ccccc21

>  <Energy>  (24) 
120.03349046762698

>  <Genealogy>  (24) 
CC[NH2+]CCn1cc(C=C2Oc3cc(OC)ccc3C2=O)c2ccccc21 (protonated)
CC[NH2+]CCn1cc(/C=C2\Oc3cc(OC)ccc3C2=O)c2ccccc21 (cis-trans isomerization)
CC[NH2+]CCn1cc(/C=C2\Oc3cc(OC)ccc3C2=O)c2ccccc21 (3D coordinates assigned)
CC[NH2+]CCn1cc(/C=C2\Oc3cc(OC)ccc3C2=O)c2ccccc21 (nonaromatic ring conformer: 120.03349046762698 kcal/mol)

>  <smiles>  (24) 
CCNCCn1cc(C=C2Oc3cc(OC)ccc3C2=O)c2ccccc21

>  <score_type>  (24) 
oracle

>  <origin>  (24) 
adg

>  <m_score__min__energy>  (24) 
-8.7400000000000002

>  <m_primary>  (24) 
energy

$$$$
24:0
     RDKit          3D

 55 56  0  0  0  0  0  0  0  0999 V2000
   -1.2000   22.2650  -26.3430 C   0  0  0  0  0  0  0  0  0  0  0  0
   -0.3300   21.3020  -27.1650 C   0  0  0  0  0  0  0  0  0  0  0  0
   -1.0870   20.1960  -27.8000 N   0  0  0  0  0  0  0  0  0  0  0  0
   -2.5530   20.2610  -27.5870 C   0  0  0  0  0  0  0  0  0  0  0  0
   -3.0410   19.1330  -26.6810 C   0  0  0  0  0  0  0  0  0  0  0  0
   -0.5370   18.8620  -27.4610 C   0  0  0  0  0  0  0  0  0  0  0  0
   -0.0340   18.1670  -28.7270 C   0  0  0  0  0  0  0  0  0  0  0  0
   -0.4940   18.9060  -29.9110 N   0  0  0  0  0  0  0  0  0  0  0  0
    0.6210   19.4360  -30.7140 C   0  0  0  0  0  0  0  0  0  0  0  0
    0.0800   20.0560  -32.0060 C   0  0  0  0  0  0  0  0  0  0  0  0
   -0.6810   21.3620  -31.7320 C   0  0  0  0  0  0  0  0  0  0  0  0
   -1.1510   21.4220  -30.3390 N   0  0  0  0  0  0  0  0  0  0  0  0
   -1.6640   22.7460  -30.0440 C   0  0  0  0  0  0  0  0  0  0  0  0
   -0.8180   23.6290  -29.3480 C   0  0  0  0  0  0  0  0  0  0  0  0
   -1.2560   24.9010  -28.9960 C   0  0  0  0  0  0  0  0  0  0  0  0
   -0.4910   25.6840  -28.3760 O   0  0  0  0  0  0  0  0  0  0  0  0
   -2.5080   25.2970  -29.3180 N   0  0  0  0  0  0  0  0  0  0  0  0
   -3.3780   24.4900  -29.9760 C   0  0  0  0  0  0  0  0  0  0  0  0
   -4.6550   24.9810  -30.2530 C   0  0  0  0  0  0  0  0  0  0  0  0
   -5.5860   24.1880  -30.9090 C   0  0  0  0  0  0  0  0  0  0  0  0
   -5.2540   22.8940  -31.2920 C   0  0  0  0  0  0  0  0  0  0  0  0
   -3.9740   22.3610  -31.0300 C   0  0  0  0  0  0  0  0  0  0  0  0
   -3.6730   21.0460  -31.4190 O   0  0  0  0  0  0  0  0  0  0  0  0
   -4.1570   20.4000  -32.5920 C   0  0  0  0  0  0  0  0  0  0  0  0
   -2.9990   23.1710  -30.3640 C   0  0  0  0  0  0  0  0  0  0  0  0
   -1.0356   22.0831  -25.2707 H   0  0  0  0  0  0  0  0  0  0  0  0
   -0.9272   23.3028  -26.5849 H   0  0  0  0  0  0  0  0  0  0  0  0
   -2.2601   22.0986  -26.5849 H   0  0  0  0  0  0  0  0  0  0  0  0
    0.1697   21.8785  -27.9575 H   0  0  0  0  0  0  0  0  0  0  0  0
    0.3808   20.8393  -26.4645 H   0  0  0  0  0  0  0  0  0  0  0  0
   -2.8035   21.2259  -27.1219 H   0  0  0  0  0  0  0  0  0  0  0  0
   -3.0472   20.1551  -28.5640 H   0  0  0  0  0  0  0  0  0  0  0  0
   -2.9138   19.4269  -25.6286 H   0  0  0  0  0  0  0  0  0  0  0  0
   -4.1047   18.9363  -26.8808 H   0  0  0  0  0  0  0  0  0  0  0  0
   -2.4560   18.2231  -26.8808 H   0  0  0  0  0  0  0  0  0  0  0  0
    0.2977   18.9808  -26.7545 H   0  0  0  0  0  0  0  0  0  0  0  0
   -1.3286   18.2505  -27.0034 H   0  0  0  0  0  0  0  0  0  0  0  0
    1.0656   18.1393  -28.7171 H   0  0  0  0  0  0  0  0  0  0  0  0
   -0.4279   17.1405  -28.7613 H   0  0  0  0  0  0  0  0  0  0  0  0
   -1.0980   19.7010  -29.5970 H   0  0  0  0  0  0  0  0  0  0  0  0
    1.1548   20.2045  -30.1356 H   0  0  0  0  0  0  0  0  0  0  0  0
    1.3102   18.6162  -30.9649 H   0  0  0  0  0  0  0  0  0  0  0  0
    0.9230   20.2688  -32.6799 H   0  0  0  0  0  0  0  0  0  0  0  0
   -0.6188   19.3406  -32.4642 H   0  0  0  0  0  0  0  0  0  0  0  0
   -0.0115   22.2139  -31.9218 H   0  0  0  0  0  0  0  0  0  0  0  0
   -1.5565   21.4010  -32.3969 H   0  0  0  0  0  0  0  0  0  0  0  0
   -1.9150   20.7150  -30.2240 H   0  0  0  0  0  0  0  0  0  0  0  0
   -0.4200   21.1350  -29.6540 H   0  0  0  0  0  0  0  0  0  0  0  0
    0.1999   23.3099  -29.0797 H   0  0  0  0  0  0  0  0  0  0  0  0
   -4.9251   26.0032  -29.9493 H   0  0  0  0  0  0  0  0  0  0  0  0
   -6.5888   24.5845  -31.1263 H   0  0  0  0  0  0  0  0  0  0  0  0
   -6.0020   22.2745  -31.8084 H   0  0  0  0  0  0  0  0  0  0  0  0
   -4.7939   19.5499  -32.3061 H   0  0  0  0  0  0  0  0  0  0  0  0
   -4.7443   21.1140  -33.1880 H   0  0  0  0  0  0  0  0  0  0  0  0
   -3.3067   20.0370  -33.1880 H   0  0  0  0  0  0  0  0  0  0  0  0
  1  2  1  0
  2  3  1  0
  3  4  1  0
  4  5  1  0
  3  6  1  0
  6  7  1  0
  7  8  1  0
  8  9  1  0
  9 10  1  0
 10 11  1  0
 11 12  1  0
 12 13  1  0
 13 14  2  0
 14 15  1  0
 15 16  2  0
 15 17  1  0
 17 18  1  0
 18 19  2  0
 19 20  1  0
 20 21  2  0
 21 22  1  0
 22 23  1  0
 23 24  1  0
 22 25  2  0
 25 13  1  0
 25 18  1  0
  1 26  1  0
  1 27  1  0
  1 28  1  0
  2 29  1  0
  2 30  1  0
  4 31  1  0
  4 32  1  0
  5 33  1  0
  5 34  1  0
  5 35  1  0
  6 36  1  0
  6 37  1  0
  7 38  1  0
  7 39  1  0
  8 40  1  0
  9 41  1  0
  9 42  1  0
 10 43  1  0
 10 44  1  0
 11 45  1  0
 11 46  1  0
 12 47  1  0
 12 48  1  0
 14 49  1  0
 19 50  1  0
 20 51  1  0
 21 52  1  0
 24 53  1  0
 24 54  1  0
 24 55  1  0
M  CHG  2  12   1  17  -1
M  END
>  <UniqueID>  (25) 
25

>  <SMILES>  (25) 
CCN(CC)CCNCCC[NH2+]c1cc(=O)[n-]c2cccc(OC)c12

>  <Energy>  (25) 
59.03926704557076

>  <Genealogy>  (25) 
CCN(CC)CCNCCC[NH2+]c1cc(=O)[n-]c2cccc(OC)c12 (protonated)
CCN(CC)CCNCCC[NH2+]c1cc(=O)[n-]c2cccc(OC)c12 (3D coordinates assigned)
CCN(CC)CCNCCC[NH2+]c1cc(=O)[n-]c2cccc(OC)c12 (optimized conformer: 59.03926704557076 kcal/mol)

>  <smiles>  (25) 
CCN(CC)CCNCCCNc1cc(=O)[nH]c2cccc(OC)c12

>  <score_type>  (25) 
oracle

>  <origin>  (25) 
adg

>  <m_score__min__energy>  (25) 
-7.0300000000000002

>  <m_primary>  (25) 
energy

$$$$
25:0
     RDKit          3D

 44 46  0  0  0  0  0  0  0  0999 V2000
   -6.1300   17.0750  -31.6570 C   0  0  0  0  0  0  0  0  0  0  0  0
   -6.7740   17.7580  -32.8570 C   0  0  0  0  0  0  0  0  0  0  0  0
   -6.2800   19.1300  -32.9880 N   0  0  0  0  0  0  0  0  0  0  0  0
   -6.9760   20.2850  -32.8120 C   0  0  0  0  0  0  0  0  0  0  0  0
   -8.7300   20.3650  -32.4330 S   0  0  0  0  0  0  0  0  0  0  0  0
   -8.7060   22.1240  -31.9380 C   0  0  0  0  0  0  0  0  0  0  0  0
   -8.0430   22.3190  -30.5720 C   0  0  0  0  0  0  0  0  0  0  0  0
   -6.6780   21.8960  -30.5920 O   0  0  0  0  0  0  0  0  0  0  0  0
   -5.5700   22.6950  -30.2650 C   0  0  0  0  0  0  0  0  0  0  0  0
   -4.3320   22.1570  -29.8640 C   0  0  0  0  0  0  0  0  0  0  0  0
   -3.2630   23.0030  -29.5530 C   0  0  0  0  0  0  0  0  0  0  0  0
   -3.4140   24.4000  -29.6310 C   0  0  0  0  0  0  0  0  0  0  0  0
   -2.3730   25.2900  -29.3300 O   0  0  0  0  0  0  0  0  0  0  0  0
   -1.5410   25.1910  -28.1780 C   0  0  0  0  0  0  0  0  0  0  0  0
   -4.6480   24.9300  -30.0250 C   0  0  0  0  0  0  0  0  0  0  0  0
   -5.7170   24.0850  -30.3370 C   0  0  0  0  0  0  0  0  0  0  0  0
   -6.1960   21.3890  -32.9180 N   0  0  0  0  0  0  0  0  0  0  0  0
   -4.9680   20.9020  -33.1610 C   0  0  0  0  0  0  0  0  0  0  0  0
   -3.7810   21.6100  -33.3310 C   0  0  0  0  0  0  0  0  0  0  0  0
   -2.6050   20.8670  -33.5460 C   0  0  0  0  0  0  0  0  0  0  0  0
   -2.6450   19.4540  -33.5780 C   0  0  0  0  0  0  0  0  0  0  0  0
   -3.8620   18.7690  -33.3980 C   0  0  0  0  0  0  0  0  0  0  0  0
   -5.0110   19.5360  -33.1970 C   0  0  0  0  0  0  0  0  0  0  0  0
   -6.5354   17.5049  -30.7292 H   0  0  0  0  0  0  0  0  0  0  0  0
   -6.3483   15.9973  -31.6877 H   0  0  0  0  0  0  0  0  0  0  0  0
   -5.0414   17.2296  -31.6877 H   0  0  0  0  0  0  0  0  0  0  0  0
   -6.5281   17.1953  -33.7696 H   0  0  0  0  0  0  0  0  0  0  0  0
   -7.8640   17.7832  -32.7113 H   0  0  0  0  0  0  0  0  0  0  0  0
   -8.1466   22.6986  -32.6910 H   0  0  0  0  0  0  0  0  0  0  0  0
   -9.7463   22.4745  -31.8673 H   0  0  0  0  0  0  0  0  0  0  0  0
   -8.0839   23.3848  -30.3027 H   0  0  0  0  0  0  0  0  0  0  0  0
   -8.5844   21.7098  -29.8332 H   0  0  0  0  0  0  0  0  0  0  0  0
   -4.2053   21.0665  -29.7951 H   0  0  0  0  0  0  0  0  0  0  0  0
   -2.2980   22.5739  -29.2454 H   0  0  0  0  0  0  0  0  0  0  0  0
   -2.1597   25.2646  -27.2715 H   0  0  0  0  0  0  0  0  0  0  0  0
   -1.0165   24.2241  -28.1865 H   0  0  0  0  0  0  0  0  0  0  0  0
   -0.8043   26.0078  -28.1865 H   0  0  0  0  0  0  0  0  0  0  0  0
   -4.7777   26.0204  -30.0897 H   0  0  0  0  0  0  0  0  0  0  0  0
   -6.6820   24.5162  -30.6417 H   0  0  0  0  0  0  0  0  0  0  0  0
   -6.4820   22.3880  -32.8140 H   0  0  0  0  0  0  0  0  0  0  0  0
   -3.7630   22.7094  -33.2985 H   0  0  0  0  0  0  0  0  0  0  0  0
   -1.6478   21.3895  -33.6902 H   0  0  0  0  0  0  0  0  0  0  0  0
   -1.7182   18.8854  -33.7448 H   0  0  0  0  0  0  0  0  0  0  0  0
   -3.9058   17.6700  -33.4151 H   0  0  0  0  0  0  0  0  0  0  0  0
  1  2  1  0
  2  3  1  0
  3  4  1  0
  4  5  1  0
  5  6  1  0
  6  7  1  0
  7  8  1  0
  8  9  1  0
  9 10  2  0
 10 11  1  0
 11 12  2  0
 12 13  1  0
 13 14  1  0
 12 15  1  0
 15 16  2  0
  4 17  2  0
 17 18  1  0
 18 19  2  0
 19 20  1  0
 20 21  2  0
 21 22  1  0
 22 23  2  0
 23  3  1  0
 16  9  1  0
 23 18  1  0
  1 24  1  0
  1 25  1  0
  1 26  1  0
  2 27  1  0
  2 28  1  0
  6 29  1  0
  6 30  1  0
  7 31  1  0
  7 32  1  0
 10 33  1  0
 11 34  1  0
 14 35  1  0
 14 36  1  0
 14 37  1  0
 15 38  1  0
 16 39  1  0
 17 40  1  0
 19 41  1  0
 20 42  1  0
 21 43  1  0
 22 44  1  0
M  CHG  1  17   1
M  END
>  <UniqueID>  (26) 
26

>  <SMILES>  (26) 
CCn1c(SCCOc2ccc(OC)cc2)[nH+]c2ccccc21

>  <Energy>  (26) 
75.75844432425988

>  <Genealogy>  (26) 
CCn1c(SCCOc2ccc(OC)cc2)[nH+]c2ccccc21 (protonated)
CCn1c(SCCOc2ccc(OC)cc2)[nH+]c2ccccc21 (3D coordinates assigned)
CCn1c(SCCOc2ccc(OC)cc2)[nH+]c2ccccc21 (optimized conformer: 75.75844432425988 kcal/mol)

>  <smiles>  (26) 
CCn1c(SCCOc2ccc(OC)cc2)nc2ccccc21

>  <score_type>  (26) 
oracle

>  <origin>  (26) 
adg

>  <m_score__min__energy>  (26) 
-7.1600000000000001

>  <m_primary>  (26) 
energy

$$$$
26:0
     RDKit          3D

 68 71  0  0  0  0  0  0  0  0999 V2000
   -5.6231   11.1683  -32.2999 H   0  0  0  0  0  0  0  0  0  0  0  0
   -5.2720   12.0100  -32.9150 C   0  0  0  0  0  0  0  0  0  0  0  0
   -6.1050   12.5540  -33.8980 C   0  0  0  0  0  0  0  0  0  0  0  0
   -7.1114   12.1390  -34.0560 H   0  0  0  0  0  0  0  0  0  0  0  0
   -5.6610   13.6240  -34.6800 C   0  0  0  0  0  0  0  0  0  0  0  0
   -6.3196   14.0488  -35.4519 H   0  0  0  0  0  0  0  0  0  0  0  0
   -4.3770   14.1590  -34.4840 C   0  0  0  0  0  0  0  0  0  0  0  0
   -3.8940   15.3060  -35.3430 C   0  0  0  0  0  0  0  0  0  0  0  0
   -4.5576   15.3992  -36.2154 H   0  0  0  0  0  0  0  0  0  0  0  0
   -2.8600   15.0874  -35.6481 H   0  0  0  0  0  0  0  0  0  0  0  0
   -3.8890   16.5970  -34.6050 N   0  0  2  0  0  0  0  0  0  0  0  0
   -3.9550   17.3710  -35.3070 H   0  0  0  0  0  0  0  0  0  0  0  0
   -2.6010   16.7750  -33.8960 C   0  0  0  0  0  0  0  0  0  0  0  0
   -1.7741   16.6515  -34.6109 H   0  0  0  0  0  0  0  0  0  0  0  0
   -2.5273   16.0221  -33.0975 H   0  0  0  0  0  0  0  0  0  0  0  0
   -2.5220   18.1730  -33.2690 C   0  0  0  0  0  0  0  0  0  0  0  0
   -2.3097   18.9082  -34.0592 H   0  0  0  0  0  0  0  0  0  0  0  0
   -1.7218   18.1693  -32.5142 H   0  0  0  0  0  0  0  0  0  0  0  0
   -3.7830   18.5350  -32.6050 N   0  0  0  0  0  0  0  0  0  0  0  0
   -3.9810   19.8770  -32.0920 C   0  0  0  0  0  0  0  0  0  0  0  0
   -3.0070   20.4860  -31.2790 C   0  0  0  0  0  0  0  0  0  0  0  0
   -2.0926   19.9318  -31.0207 H   0  0  0  0  0  0  0  0  0  0  0  0
   -3.1850   21.7830  -30.7960 C   0  0  0  0  0  0  0  0  0  0  0  0
   -2.2330   22.3120  -29.9820 F   0  0  0  0  0  0  0  0  0  0  0  0
   -4.3420   22.5160  -31.1170 C   0  0  0  0  0  0  0  0  0  0  0  0
   -5.3140   21.9260  -31.9560 C   0  0  0  0  0  0  0  0  0  0  0  0
   -5.1330   20.6130  -32.4190 C   0  0  0  0  0  0  0  0  0  0  0  0
   -5.9073   20.1516  -33.0495 H   0  0  0  0  0  0  0  0  0  0  0  0
   -6.5470   22.6910  -32.3710 C   0  0  0  0  0  0  0  0  0  0  0  0
   -6.2461   23.6939  -32.7081 H   0  0  0  0  0  0  0  0  0  0  0  0
   -7.0386   22.1304  -33.1797 H   0  0  0  0  0  0  0  0  0  0  0  0
   -7.5500   22.8360  -31.2160 C   0  0  0  0  0  0  0  0  0  0  0  0
   -8.3025   23.5843  -31.5053 H   0  0  0  0  0  0  0  0  0  0  0  0
   -7.9816   21.8384  -31.0469 H   0  0  0  0  0  0  0  0  0  0  0  0
   -6.9210   23.2760  -29.8810 C   0  0  0  0  0  0  0  0  0  0  0  0
   -7.7198   23.6500  -29.2237 H   0  0  0  0  0  0  0  0  0  0  0  0
   -6.4128   22.3997  -29.4523 H   0  0  0  0  0  0  0  0  0  0  0  0
   -5.8670   24.3820  -30.0490 C   0  0  0  0  0  0  0  0  0  0  0  0
   -6.2569   25.1252  -30.7600 H   0  0  0  0  0  0  0  0  0  0  0  0
   -5.6878   24.8029  -29.0486 H   0  0  0  0  0  0  0  0  0  0  0  0
   -4.5240   23.8890  -30.5630 C   0  0  0  0  0  0  0  0  0  0  0  0
   -3.4990   24.6870  -30.5440 N   0  0  0  0  0  0  0  0  0  0  0  0
   -3.0160   25.2340  -29.3760 O   0  0  0  0  0  0  0  0  0  0  0  0
   -2.6410   24.3970  -28.2950 C   0  0  0  0  0  0  0  0  0  0  0  0
   -2.8673   24.9022  -27.3445 H   0  0  0  0  0  0  0  0  0  0  0  0
   -3.2020   23.4524  -28.3509 H   0  0  0  0  0  0  0  0  0  0  0  0
   -1.5627   24.1869  -28.3509 H   0  0  0  0  0  0  0  0  0  0  0  0
   -4.7590   17.4640  -32.3610 C   0  0  0  0  0  0  0  0  0  0  0  0
   -5.6938   17.9079  -31.9881 H   0  0  0  0  0  0  0  0  0  0  0  0
   -4.3379   16.7698  -31.6189 H   0  0  0  0  0  0  0  0  0  0  0  0
   -5.0580   16.6710  -33.6660 C   0  0  1  0  0  0  0  0  0  0  0  0
   -5.2501   15.6322  -33.3593 H   0  0  0  0  0  0  0  0  0  0  0  0
   -6.3320   17.2110  -34.3670 C   0  0  0  0  0  0  0  0  0  0  0  0
   -7.1374   16.4690  -34.2635 H   0  0  0  0  0  0  0  0  0  0  0  0
   -6.0920   17.3874  -35.4259 H   0  0  0  0  0  0  0  0  0  0  0  0
   -6.7790   18.4860  -33.7790 N   0  0  0  0  0  0  0  0  0  0  0  0
   -7.1970   19.0890  -34.5250 H   0  0  0  0  0  0  0  0  0  0  0  0
   -7.7880   18.2920  -32.7240 C   0  0  0  0  0  0  0  0  0  0  0  0
   -7.2894   17.8954  -31.8273 H   0  0  0  0  0  0  0  0  0  0  0  0
   -8.5441   17.5917  -33.1086 H   0  0  0  0  0  0  0  0  0  0  0  0
   -8.5040   19.5930  -32.3530 C   0  0  0  0  0  0  0  0  0  0  0  0
   -8.5543   19.6844  -31.2580 H   0  0  0  0  0  0  0  0  0  0  0  0
   -7.9493   20.4478  -32.7672 H   0  0  0  0  0  0  0  0  0  0  0  0
   -9.5230   19.5817  -32.7672 H   0  0  0  0  0  0  0  0  0  0  0  0
   -3.5450   13.6060  -33.4950 C   0  0  0  0  0  0  0  0  0  0  0  0
   -2.5372   14.0166  -33.3346 H   0  0  0  0  0  0  0  0  0  0  0  0
   -3.9930   12.5370  -32.7150 C   0  0  0  0  0  0  0  0  0  0  0  0
   -3.3378   12.1092  -31.9419 H   0  0  0  0  0  0  0  0  0  0  0  0
  1  2  1  0
  2  3  2  0
  3  4  1  0
  3  5  1  0
  5  6  1  0
  5  7  2  0
  7  8  1  0
  8  9  1  0
  8 10  1  0
  8 11  1  0
 11 12  1  6
 11 13  1  0
 13 14  1  0
 13 15  1  0
 13 16  1  0
 16 17  1  0
 16 18  1  0
 16 19  1  0
 19 20  1  0
 20 21  2  0
 21 22  1  0
 21 23  1  0
 23 24  1  0
 23 25  2  0
 25 26  1  0
 26 27  2  0
 27 28  1  0
 26 29  1  0
 29 30  1  0
 29 31  1  0
 29 32  1  0
 32 33  1  0
 32 34  1  0
 32 35  1  0
 35 36  1  0
 35 37  1  0
 35 38  1  0
 38 39  1  0
 38 40  1  0
 38 41  1  0
 41 42  2  0
 42 43  1  0
 43 44  1  0
 44 45  1  0
 44 46  1  0
 44 47  1  0
 19 48  1  0
 48 49  1  0
 48 50  1  0
 48 51  1  0
 51 52  1  1
 51 53  1  0
 53 54  1  0
 53 55  1  0
 53 56  1  0
 56 57  1  0
 56 58  1  0
 58 59  1  0
 58 60  1  0
 58 61  1  0
 61 62  1  0
 61 63  1  0
 61 64  1  0
  7 65  1  0
 65 66  1  0
 65 67  2  0
 67 68  1  0
 67  2  1  0
 51 11  1  0
 27 20  1  0
 41 25  1  0
M  CHG  1  11   1
M  END
>  <UniqueID>  (27) 
27

>  <SMILES>  (27) 
CCNC[C@@H]1CN(c2cc(F)c3c(c2)CCCC/C3=N\OC)CC[N@H+]1Cc1ccccc1

>  <Energy>  (27) 
84.55094037176332

>  <Genealogy>  (27) 
CCNCC1CN(c2cc(F)c3c(c2)CCCCC3=NOC)CC[NH+]1Cc1ccccc1 (protonated)
CCNC[C@@H]1CN(c2cc(F)c3c(c2)CCCCC3=NOC)CC[N@H+]1Cc1ccccc1 (chirality)
CCNC[C@@H]1CN(c2cc(F)c3c(c2)CCCC/C3=N\OC)CC[N@H+]1Cc1ccccc1 (cis-trans isomerization)
CCNC[C@@H]1CN(c2cc(F)c3c(c2)CCCC/C3=N\OC)CC[N@H+]1Cc1ccccc1 (3D coordinates assigned)
CCNC[C@@H]1CN(c2cc(F)c3c(c2)CCCC/C3=N\OC)CC[N@H+]1Cc1ccccc1 (nonaromatic ring conformer: 84.55094037176332 kcal/mol)

>  <smiles>  (27) 
CCNCC1CN(c2cc(F)c3c(c2)CCCCC3=NOC)CCN1Cc1ccccc1

>  <score_type>  (27) 
oracle

>  <origin>  (27) 
adg

>  <m_score__min__energy>  (27) 
-6.9800000000000004

>  <m_primary>  (27) 
energy

$$$$
27:0
     RDKit          3D

 54 56  0  0  0  0  0  0  0  0999 V2000
   -3.8630   24.5280  -26.9610 C   0  0  0  0  0  0  0  0  0  0  0  0
   -2.8410   24.5310  -28.0960 C   0  0  0  0  0  0  0  0  0  0  0  0
   -3.5260   24.4930  -29.4100 N   0  0  0  0  0  0  0  0  0  0  0  0
   -3.0270   23.3730  -30.2400 C   0  0  0  0  0  0  0  0  0  0  0  0
   -3.2500   22.0430  -29.5250 C   0  0  0  0  0  0  0  0  0  0  0  0
   -5.0000   24.4350  -29.2510 C   0  0  0  0  0  0  0  0  0  0  0  0
   -5.6890   25.0690  -30.4590 C   0  0  0  0  0  0  0  0  0  0  0  0
   -5.4150   24.3140  -31.6330 O   0  0  0  0  0  0  0  0  0  0  0  0
   -6.3260   23.4130  -32.1910 C   0  0  0  0  0  0  0  0  0  0  0  0
   -7.4870   23.7950  -32.5010 O   0  0  0  0  0  0  0  0  0  0  0  0
   -5.9330   21.9940  -32.3370 C   0  0  0  0  0  0  0  0  0  0  0  0
   -4.5960   21.7290  -32.6580 C   0  0  0  0  0  0  0  0  0  0  0  0
   -4.1330   20.4120  -32.7530 C   0  0  0  0  0  0  0  0  0  0  0  0
   -2.7110   20.1560  -33.0820 C   0  0  0  0  0  0  0  0  0  0  0  0
   -1.7290   20.9910  -32.5220 C   0  0  0  0  0  0  0  0  0  0  0  0
   -0.3790   20.7970  -32.8180 C   0  0  0  0  0  0  0  0  0  0  0  0
    0.0070   19.7700  -33.6780 C   0  0  0  0  0  0  0  0  0  0  0  0
   -0.9540   18.9230  -34.2330 C   0  0  0  0  0  0  0  0  0  0  0  0
   -2.3170   19.0900  -33.9290 C   0  0  0  0  0  0  0  0  0  0  0  0
   -3.3150   18.1320  -34.5250 C   0  0  0  0  0  0  0  0  0  0  0  0
   -4.9940   19.3770  -32.5510 N   0  0  0  0  0  0  0  0  0  0  0  0
   -6.3100   19.5830  -32.2570 C   0  0  0  0  0  0  0  0  0  0  0  0
   -7.1650   18.4830  -32.0750 C   0  0  0  0  0  0  0  0  0  0  0  0
   -8.5200   18.6790  -31.8120 C   0  0  0  0  0  0  0  0  0  0  0  0
   -9.0390   19.9700  -31.7420 C   0  0  0  0  0  0  0  0  0  0  0  0
   -8.2050   21.0760  -31.9190 C   0  0  0  0  0  0  0  0  0  0  0  0
   -6.8230   20.9040  -32.1540 C   0  0  0  0  0  0  0  0  0  0  0  0
   -3.3377   24.5295  -25.9946 H   0  0  0  0  0  0  0  0  0  0  0  0
   -4.4963   25.4243  -27.0355 H   0  0  0  0  0  0  0  0  0  0  0  0
   -4.4911   23.6280  -27.0355 H   0  0  0  0  0  0  0  0  0  0  0  0
   -2.2311   25.4442  -28.0318 H   0  0  0  0  0  0  0  0  0  0  0  0
   -2.2014   23.6410  -28.0018 H   0  0  0  0  0  0  0  0  0  0  0  0
   -3.5656   23.3641  -31.1991 H   0  0  0  0  0  0  0  0  0  0  0  0
   -1.9494   23.5092  -30.4140 H   0  0  0  0  0  0  0  0  0  0  0  0
   -3.2232   22.2026  -28.4370 H   0  0  0  0  0  0  0  0  0  0  0  0
   -4.2295   21.6325  -29.8114 H   0  0  0  0  0  0  0  0  0  0  0  0
   -2.4580   21.3354  -29.8114 H   0  0  0  0  0  0  0  0  0  0  0  0
   -5.3145   23.3845  -29.1638 H   0  0  0  0  0  0  0  0  0  0  0  0
   -5.2843   24.9899  -28.3448 H   0  0  0  0  0  0  0  0  0  0  0  0
   -6.7752   25.0920  -30.2871 H   0  0  0  0  0  0  0  0  0  0  0  0
   -5.3083   26.0922  -30.5933 H   0  0  0  0  0  0  0  0  0  0  0  0
   -3.9030   22.5643  -32.8372 H   0  0  0  0  0  0  0  0  0  0  0  0
   -2.0271   21.8046  -31.8444 H   0  0  0  0  0  0  0  0  0  0  0  0
    0.3813   21.4552  -32.3722 H   0  0  0  0  0  0  0  0  0  0  0  0
    1.0705   19.6268  -33.9197 H   0  0  0  0  0  0  0  0  0  0  0  0
   -0.6423   18.1176  -34.9143 H   0  0  0  0  0  0  0  0  0  0  0  0
   -3.8540   17.6146  -33.7176 H   0  0  0  0  0  0  0  0  0  0  0  0
   -4.0319   18.6888  -35.1463 H   0  0  0  0  0  0  0  0  0  0  0  0
   -2.7880   17.3929  -35.1463 H   0  0  0  0  0  0  0  0  0  0  0  0
   -4.6390   18.3980  -32.6540 H   0  0  0  0  0  0  0  0  0  0  0  0
   -6.7629   17.4612  -32.1404 H   0  0  0  0  0  0  0  0  0  0  0  0
   -9.1805   17.8127  -31.6595 H   0  0  0  0  0  0  0  0  0  0  0  0
  -10.1112   20.1189  -31.5463 H   0  0  0  0  0  0  0  0  0  0  0  0
   -8.6283   22.0904  -31.8750 H   0  0  0  0  0  0  0  0  0  0  0  0
  1  2  1  0
  2  3  1  0
  3  4  1  0
  4  5  1  0
  3  6  1  0
  6  7  1  0
  7  8  1  0
  8  9  1  0
  9 10  2  0
  9 11  1  0
 11 12  2  0
 12 13  1  0
 13 14  1  0
 14 15  2  0
 15 16  1  0
 16 17  2  0
 17 18  1  0
 18 19  2  0
 19 20  1  0
 13 21  2  0
 21 22  1  0
 22 23  2  0
 23 24  1  0
 24 25  2  0
 25 26  1  0
 26 27  2  0
 27 11  1  0
 19 14  1  0
 27 22  1  0
  1 28  1  0
  1 29  1  0
  1 30  1  0
  2 31  1  0
  2 32  1  0
  4 33  1  0
  4 34  1  0
  5 35  1  0
  5 36  1  0
  5 37  1  0
  6 38  1  0
  6 39  1  0
  7 40  1  0
  7 41  1  0
 12 42  1  0
 15 43  1  0
 16 44  1  0
 17 45  1  0
 18 46  1  0
 20 47  1  0
 20 48  1  0
 20 49  1  0
 21 50  1  0
 23 51  1  0
 24 52  1  0
 25 53  1  0
 26 54  1  0
M  CHG  1  21   1
M  END
>  <UniqueID>  (28) 
28

>  <SMILES>  (28) 
CCN(CC)CCOC(=O)c1cc(-c2ccccc2C)[nH+]c2ccccc12

>  <Energy>  (28) 
66.23991483545159

>  <Genealogy>  (28) 
CCN(CC)CCOC(=O)c1cc(-c2ccccc2C)[nH+]c2ccccc12 (protonated)
CCN(CC)CCOC(=O)c1cc(-c2ccccc2C)[nH+]c2ccccc12 (3D coordinates assigned)
CCN(CC)CCOC(=O)c1cc(-c2ccccc2C)[nH+]c2ccccc12 (optimized conformer: 66.23991483545159 kcal/mol)

>  <smiles>  (28) 
CCN(CC)CCOC(=O)c1cc(-c2ccccc2C)nc2ccccc12

>  <score_type>  (28) 
oracle

>  <origin>  (28) 
adg

>  <m_score__min__energy>  (28) 
-7.8499999999999996

>  <m_primary>  (28) 
energy

$$$$
28:0
     RDKit          3D

 49 52  0  0  0  0  0  0  0  0999 V2000
   -2.0430   20.4600  -27.3240 C   0  0  0  0  0  0  0  0  0  0  0  0
   -1.2650   20.8560  -26.0740 C   0  0  0  0  0  0  0  0  0  0  0  0
   -0.4020   21.9400  -26.3590 O   0  0  0  0  0  0  0  0  0  0  0  0
   -0.2050   22.7360  -25.2080 C   0  0  0  0  0  0  0  0  0  0  0  0
   -0.8630   24.0970  -25.4150 C   0  0  0  0  0  0  0  0  0  0  0  0
   -1.3390   24.2240  -26.7900 N   0  0  0  0  0  0  0  0  0  0  0  0
   -0.6080   24.6310  -27.8450 C   0  0  0  0  0  0  0  0  0  0  0  0
   -1.3860   24.5290  -28.9790 C   0  0  0  0  0  0  0  0  0  0  0  0
   -2.5950   24.0330  -28.5230 C   0  0  0  0  0  0  0  0  0  0  0  0
   -3.7720   23.7240  -29.3420 C   0  0  0  0  0  0  0  0  0  0  0  0
   -3.9370   22.5440  -29.9840 N   0  0  0  0  0  0  0  0  0  0  0  0
   -5.1100   22.5070  -30.6670 C   0  0  0  0  0  0  0  0  0  0  0  0
   -5.8680   23.6670  -30.5950 C   0  0  0  0  0  0  0  0  0  0  0  0
   -5.0760   24.7660  -29.6030 S   0  0  0  0  0  0  0  0  0  0  0  0
   -7.2260   23.8210  -31.1980 C   0  0  0  0  0  0  0  0  0  0  0  0
   -7.4180   22.8070  -32.3330 C   0  0  0  0  0  0  0  0  0  0  0  0
   -6.9360   21.4740  -31.9280 N   0  0  0  0  0  0  0  0  0  0  0  0
   -7.6540   20.2990  -32.3490 C   0  0  0  0  0  0  0  0  0  0  0  0
   -8.9060   20.2510  -32.1960 O   0  0  0  0  0  0  0  0  0  0  0  0
   -6.9540   19.1520  -32.9730 C   0  0  0  0  0  0  0  0  0  0  0  0
   -6.0980   19.3470  -34.0730 C   0  0  0  0  0  0  0  0  0  0  0  0
   -5.4500   18.2590  -34.6650 C   0  0  0  0  0  0  0  0  0  0  0  0
   -5.6550   16.9680  -34.1720 C   0  0  0  0  0  0  0  0  0  0  0  0
   -6.5130   16.7620  -33.0900 C   0  0  0  0  0  0  0  0  0  0  0  0
   -7.1650   17.8470  -32.4940 C   0  0  0  0  0  0  0  0  0  0  0  0
   -5.5400   21.3260  -31.4860 C   0  0  0  0  0  0  0  0  0  0  0  0
   -2.5430   23.8480  -27.1900 N   0  0  0  0  0  0  0  0  0  0  0  0
   -2.9878   19.9791  -27.0308 H   0  0  0  0  0  0  0  0  0  0  0  0
   -2.2586   21.3580  -27.9215 H   0  0  0  0  0  0  0  0  0  0  0  0
   -1.4438   19.7572  -27.9215 H   0  0  0  0  0  0  0  0  0  0  0  0
   -1.9717   21.1519  -25.2847 H   0  0  0  0  0  0  0  0  0  0  0  0
   -0.6646   19.9978  -25.7379 H   0  0  0  0  0  0  0  0  0  0  0  0
   -0.6559   22.2390  -24.3364 H   0  0  0  0  0  0  0  0  0  0  0  0
    0.8728   22.8713  -25.0346 H   0  0  0  0  0  0  0  0  0  0  0  0
   -1.7140   24.1977  -24.7253 H   0  0  0  0  0  0  0  0  0  0  0  0
   -0.1233   24.8868  -25.2172 H   0  0  0  0  0  0  0  0  0  0  0  0
    0.4329   24.9848  -27.8085 H   0  0  0  0  0  0  0  0  0  0  0  0
   -1.1085   24.7842  -30.0124 H   0  0  0  0  0  0  0  0  0  0  0  0
   -7.9890   23.6496  -30.4244 H   0  0  0  0  0  0  0  0  0  0  0  0
   -7.3259   24.8384  -31.6040 H   0  0  0  0  0  0  0  0  0  0  0  0
   -8.4872   22.7436  -32.5835 H   0  0  0  0  0  0  0  0  0  0  0  0
   -6.8403   23.1413  -33.2074 H   0  0  0  0  0  0  0  0  0  0  0  0
   -5.9381   20.3607  -34.4689 H   0  0  0  0  0  0  0  0  0  0  0  0
   -4.7775   18.4196  -35.5205 H   0  0  0  0  0  0  0  0  0  0  0  0
   -5.1404   16.1138  -34.6363 H   0  0  0  0  0  0  0  0  0  0  0  0
   -6.6767   15.7445  -32.7053 H   0  0  0  0  0  0  0  0  0  0  0  0
   -7.8459   17.6783  -31.6467 H   0  0  0  0  0  0  0  0  0  0  0  0
   -5.4495   20.4138  -30.8779 H   0  0  0  0  0  0  0  0  0  0  0  0
   -4.8949   21.2608  -32.3746 H   0  0  0  0  0  0  0  0  0  0  0  0
  1  2  1  0
  2  3  1  0
  3  4  1  0
  4  5  1  0
  5  6  1  0
  6  7  1  0
  7  8  2  0
  8  9  1  0
  9 10  1  0
 10 11  2  0
 11 12  1  0
 12 13  2  0
 13 14  1  0
 13 15  1  0
 15 16  1  0
 16 17  1  0
 17 18  1  0
 18 19  2  0
 18 20  1  0
 20 21  2  0
 21 22  1  0
 22 23  2  0
 23 24  1  0
 24 25  2  0
 17 26  1  0
  9 27  2  0
 27  6  1  0
 14 10  1  0
 25 20  1  0
 26 12  1  0
  1 28  1  0
  1 29  1  0
  1 30  1  0
  2 31  1  0
  2 32  1  0
  4 33  1  0
  4 34  1  0
  5 35  1  0
  5 36  1  0
  7 37  1  0
  8 38  1  0
 15 39  1  0
 15 40  1  0
 16 41  1  0
 16 42  1  0
 21 43  1  0
 22 44  1  0
 23 45  1  0
 24 46  1  0
 25 47  1  0
 26 48  1  0
 26 49  1  0
M  END
>  <UniqueID>  (29) 
29

>  <SMILES>  (29) 
CCOCCn1ccc(-c2nc3c(s2)CCN(C(=O)c2ccccc2)C3)n1

>  <Energy>  (29) 
112.05922138780247

>  <Genealogy>  (29) 
CCOCCn1ccc(-c2nc3c(s2)CCN(C(=O)c2ccccc2)C3)n1 (3D coordinates assigned)
CCOCCn1ccc(-c2nc3c(s2)CCN(C(=O)c2ccccc2)C3)n1 (nonaromatic ring conformer: 112.05922138780247 kcal/mol)

>  <smiles>  (29) 
CCOCCn1ccc(-c2nc3c(s2)CCN(C(=O)c2ccccc2)C3)n1

>  <score_type>  (29) 
oracle

>  <origin>  (29) 
adg

>  <m_score__min__energy>  (29) 
-8.5199999999999996

>  <m_primary>  (29) 
energy

$$$$
29:0
     RDKit          3D

 89 92  0  0  0  0  0  0  0  0999 V2000
   -1.5240   26.7030  -24.8390 C   0  0  0  0  0  0  0  0  0  0  0  0
   -1.9780   25.8320  -26.0100 C   0  0  0  0  0  0  0  0  0  0  0  0
   -0.8760   24.9410  -26.4370 N   0  0  0  0  0  0  0  0  0  0  0  0
   -0.3290   24.1630  -25.3020 C   0  0  0  0  0  0  0  0  0  0  0  0
   -0.4430   22.6700  -25.6000 C   0  0  0  0  0  0  0  0  0  0  0  0
   -1.2750   24.0710  -27.5650 C   0  0  0  0  0  0  0  0  0  0  0  0
   -1.1060   24.8170  -28.8920 C   0  0  0  0  0  0  0  0  0  0  0  0
   -2.3750   25.2400  -29.3410 O   0  0  0  0  0  0  0  0  0  0  0  0
   -3.3840   24.4050  -28.8170 C   0  0  0  0  0  0  0  0  0  0  0  0
   -4.4180   24.1590  -29.9050 C   0  0  0  0  0  0  0  0  0  0  0  0
   -4.9380   22.8500  -29.7560 O   0  0  0  0  0  0  0  0  0  0  0  0
   -6.3430   22.8450  -29.9160 C   0  0  0  0  0  0  0  0  0  0  0  0
   -6.7260   23.6580  -31.1530 C   0  0  0  0  0  0  0  0  0  0  0  0
   -6.4360   22.9140  -32.3810 N   0  0  0  0  0  0  0  0  0  0  0  0
   -6.0880   21.5170  -32.3750 C   0  0  0  0  0  0  0  0  0  0  0  0
   -7.1000   20.5390  -32.3460 C   0  0  0  0  0  0  0  0  0  0  0  0
   -8.4610   20.9080  -32.3500 C   0  0  0  0  0  0  0  0  0  0  0  0
   -9.4600   19.9460  -32.2260 C   0  0  0  0  0  0  0  0  0  0  0  0
   -9.1230   18.6040  -32.0950 C   0  0  0  0  0  0  0  0  0  0  0  0
   -7.7860   18.2130  -32.1270 C   0  0  0  0  0  0  0  0  0  0  0  0
   -6.7480   19.1650  -32.3090 C   0  0  0  0  0  0  0  0  0  0  0  0
   -5.4280   18.7820  -32.4530 N   0  0  0  0  0  0  0  0  0  0  0  0
   -5.0930   17.3620  -32.7130 C   0  0  0  0  0  0  0  0  0  0  0  0
   -4.4220   19.7310  -32.4080 C   0  0  0  0  0  0  0  0  0  0  0  0
   -3.0540   19.3590  -32.3850 C   0  0  0  0  0  0  0  0  0  0  0  0
   -2.0340   20.3190  -32.4610 C   0  0  0  0  0  0  0  0  0  0  0  0
   -0.6840   19.9500  -32.5060 O   0  0  0  0  0  0  0  0  0  0  0  0
    0.2900   20.3770  -31.5470 C   0  0  0  0  0  0  0  0  0  0  0  0
    0.3030   19.4420  -30.3110 C   0  0  0  0  0  0  0  0  0  0  0  0
   -0.3750   19.9420  -29.0630 N   0  0  0  0  0  0  0  0  0  0  0  0
    0.6840   20.6450  -28.2810 C   0  0  0  0  0  0  0  0  0  0  0  0
   -1.4680   20.9240  -29.3880 C   0  0  0  0  0  0  0  0  0  0  0  0
   -2.7520   20.7650  -28.5430 C   0  0  0  0  0  0  0  0  0  0  0  0
   -2.4300   20.4730  -27.0810 C   0  0  0  0  0  0  0  0  0  0  0  0
   -1.5390   19.2250  -26.9230 C   0  0  0  0  0  0  0  0  0  0  0  0
   -0.8750   18.7910  -28.2460 C   0  0  0  0  0  0  0  0  0  0  0  0
   -2.3640   21.6700  -32.4710 C   0  0  0  0  0  0  0  0  0  0  0  0
   -3.6990   22.0660  -32.4480 C   0  0  0  0  0  0  0  0  0  0  0  0
   -4.7400   21.1150  -32.4010 C   0  0  0  0  0  0  0  0  0  0  0  0
   -1.7824   26.2073  -23.8916 H   0  0  0  0  0  0  0  0  0  0  0  0
   -0.4350   26.8491  -24.8913 H   0  0  0  0  0  0  0  0  0  0  0  0
   -2.0279   27.6794  -24.8913 H   0  0  0  0  0  0  0  0  0  0  0  0
   -2.8388   25.2224  -25.6980 H   0  0  0  0  0  0  0  0  0  0  0  0
   -2.2643   26.4800  -26.8515 H   0  0  0  0  0  0  0  0  0  0  0  0
    0.7286   24.4267  -25.1537 H   0  0  0  0  0  0  0  0  0  0  0  0
   -0.8990   24.3975  -24.3909 H   0  0  0  0  0  0  0  0  0  0  0  0
   -0.4858   22.1096  -24.6544 H   0  0  0  0  0  0  0  0  0  0  0  0
   -1.3582   22.4807  -26.1801 H   0  0  0  0  0  0  0  0  0  0  0  0
    0.4329   22.3440  -26.1801 H   0  0  0  0  0  0  0  0  0  0  0  0
   -0.6431   23.1707  -27.5710 H   0  0  0  0  0  0  0  0  0  0  0  0
   -2.3308   23.7871  -27.4441 H   0  0  0  0  0  0  0  0  0  0  0  0
   -0.4557   25.6918  -28.7441 H   0  0  0  0  0  0  0  0  0  0  0  0
   -0.6481   24.1518  -29.6389 H   0  0  0  0  0  0  0  0  0  0  0  0
   -2.9455   23.4479  -28.4982 H   0  0  0  0  0  0  0  0  0  0  0  0
   -3.8575   24.8848  -27.9477 H   0  0  0  0  0  0  0  0  0  0  0  0
   -5.2325   24.8926  -29.8130 H   0  0  0  0  0  0  0  0  0  0  0  0
   -3.9497   24.2636  -30.8948 H   0  0  0  0  0  0  0  0  0  0  0  0
   -6.6931   21.8092  -30.0369 H   0  0  0  0  0  0  0  0  0  0  0  0
   -6.8115   23.2931  -29.0273 H   0  0  0  0  0  0  0  0  0  0  0  0
   -7.8017   23.8848  -31.1154 H   0  0  0  0  0  0  0  0  0  0  0  0
   -6.1362   24.5865  -31.1584 H   0  0  0  0  0  0  0  0  0  0  0  0
   -6.4530   23.4190  -33.2950 H   0  0  0  0  0  0  0  0  0  0  0  0
   -8.7366   21.9680  -32.4522 H   0  0  0  0  0  0  0  0  0  0  0  0
  -10.5175   20.2486  -32.2317 H   0  0  0  0  0  0  0  0  0  0  0  0
   -9.9129   17.8495  -31.9659 H   0  0  0  0  0  0  0  0  0  0  0  0
   -7.5303   17.1496  -32.0094 H   0  0  0  0  0  0  0  0  0  0  0  0
   -4.9683   16.8336  -31.7563 H   0  0  0  0  0  0  0  0  0  0  0  0
   -5.9052   16.8930  -33.2878 H   0  0  0  0  0  0  0  0  0  0  0  0
   -4.1569   17.3054  -33.2878 H   0  0  0  0  0  0  0  0  0  0  0  0
   -2.7868   18.2949  -32.3059 H   0  0  0  0  0  0  0  0  0  0  0  0
    1.2849   20.3662  -32.0161 H   0  0  0  0  0  0  0  0  0  0  0  0
    0.0306   21.3928  -31.2140 H   0  0  0  0  0  0  0  0  0  0  0  0
   -0.1898   18.5024  -30.6016 H   0  0  0  0  0  0  0  0  0  0  0  0
    1.3644   19.3469  -30.0384 H   0  0  0  0  0  0  0  0  0  0  0  0
    0.4914   20.5172  -27.2056 H   0  0  0  0  0  0  0  0  0  0  0  0
    1.6673   20.2197  -28.5305 H   0  0  0  0  0  0  0  0  0  0  0  0
    0.6738   21.7163  -28.5305 H   0  0  0  0  0  0  0  0  0  0  0  0
   -1.0756   21.9389  -29.2271 H   0  0  0  0  0  0  0  0  0  0  0  0
   -1.7575   20.7320  -30.4317 H   0  0  0  0  0  0  0  0  0  0  0  0
   -3.3350   21.6960  -28.6010 H   0  0  0  0  0  0  0  0  0  0  0  0
   -3.3253   19.9166  -28.9449 H   0  0  0  0  0  0  0  0  0  0  0  0
   -1.9055   21.3401  -26.6530 H   0  0  0  0  0  0  0  0  0  0  0  0
   -3.3778   20.2819  -26.5564 H   0  0  0  0  0  0  0  0  0  0  0  0
   -0.7493   19.4478  -26.1904 H   0  0  0  0  0  0  0  0  0  0  0  0
   -2.1841   18.3984  -26.5903 H   0  0  0  0  0  0  0  0  0  0  0  0
   -0.0245   18.1342  -28.0108 H   0  0  0  0  0  0  0  0  0  0  0  0
   -1.6429   18.2770  -28.8428 H   0  0  0  0  0  0  0  0  0  0  0  0
   -1.5677   22.4285  -32.4972 H   0  0  0  0  0  0  0  0  0  0  0  0
   -3.9458   23.1378  -32.4668 H   0  0  0  0  0  0  0  0  0  0  0  0
  1  2  1  0
  2  3  1  0
  3  4  1  0
  4  5  1  0
  3  6  1  0
  6  7  1  0
  7  8  1  0
  8  9  1  0
  9 10  1  0
 10 11  1  0
 11 12  1  0
 12 13  1  0
 13 14  1  0
 14 15  1  0
 15 16  2  0
 16 17  1  0
 17 18  2  0
 18 19  1  0
 19 20  2  0
 20 21  1  0
 21 22  2  0
 22 23  1  0
 22 24  1  0
 24 25  2  0
 25 26  1  0
 26 27  1  0
 27 28  1  0
 28 29  1  0
 29 30  1  0
 30 31  1  0
 30 32  1  0
 32 33  1  0
 33 34  1  0
 34 35  1  0
 35 36  1  0
 26 37  2  0
 37 38  1  0
 38 39  2  0
 39 15  1  0
 21 16  1  0
 39 24  1  0
 36 30  1  0
  1 40  1  0
  1 41  1  0
  1 42  1  0
  2 43  1  0
  2 44  1  0
  4 45  1  0
  4 46  1  0
  5 47  1  0
  5 48  1  0
  5 49  1  0
  6 50  1  0
  6 51  1  0
  7 52  1  0
  7 53  1  0
  9 54  1  0
  9 55  1  0
 10 56  1  0
 10 57  1  0
 12 58  1  0
 12 59  1  0
 13 60  1  0
 13 61  1  0
 14 62  1  0
 17 63  1  0
 18 64  1  0
 19 65  1  0
 20 66  1  0
 23 67  1  0
 23 68  1  0
 23 69  1  0
 25 70  1  0
 28 71  1  0
 28 72  1  0
 29 73  1  0
 29 74  1  0
 31 75  1  0
 31 76  1  0
 31 77  1  0
 32 78  1  0
 32 79  1  0
 33 80  1  0
 33 81  1  0
 34 82  1  0
 34 83  1  0
 35 84  1  0
 35 85  1  0
 36 86  1  0
 36 87  1  0
 37 88  1  0
 38 89  1  0
M  CHG  2  22   1  30   1
M  END
>  <UniqueID>  (30) 
30

>  <SMILES>  (30) 
CCN(CC)CCOCCOCCNc1c2ccccc2[n+](C)c2cc(OCC[N+]3(C)CCCCC3)ccc12

>  <Energy>  (30) 
136.61659236784325

>  <Genealogy>  (30) 
CCN(CC)CCOCCOCCNc1c2ccccc2[n+](C)c2cc(OCC[N+]3(C)CCCCC3)ccc12 (3D coordinates assigned)
CCN(CC)CCOCCOCCNc1c2ccccc2[n+](C)c2cc(OCC[N+]3(C)CCCCC3)ccc12 (nonaromatic ring conformer: 136.61659236784325 kcal/mol)

>  <smiles>  (30) 
CCN(CC)CCOCCOCCNc1c2ccccc2[n+](C)c2cc(OCC[N+]3(C)CCCCC3)ccc12

>  <score_type>  (30) 
oracle

>  <origin>  (30) 
adg

>  <m_score__min__energy>  (30) 
-9.5199999999999996

>  <m_primary>  (30) 
energy

$$$$
30:0
     RDKit          3D

 46 45  0  0  0  0  0  0  0  0999 V2000
   -6.6070   25.2440  -29.7080 C   0  0  0  0  0  0  0  0  0  0  0  0
   -5.3050   25.6200  -30.4250 C   0  0  0  0  0  0  0  0  0  0  0  0
   -4.6160   24.4520  -30.9950 N   0  0  0  0  0  0  0  0  0  0  0  0
   -5.5540   23.4580  -31.5380 C   0  0  0  0  0  0  0  0  0  0  0  0
   -4.8700   22.6120  -32.6170 C   0  0  0  0  0  0  0  0  0  0  0  0
   -3.7120   21.7770  -32.0380 C   0  0  0  0  0  0  0  0  0  0  0  0
   -2.6760   22.6220  -31.4210 N   0  0  0  0  0  0  0  0  0  0  0  0
   -1.5190   21.8470  -30.9460 C   0  0  0  0  0  0  0  0  0  0  0  0
   -1.6360   21.6130  -29.4360 C   0  0  0  0  0  0  0  0  0  0  0  0
   -3.0400   21.1560  -29.0300 C   0  0  0  0  0  0  0  0  0  0  0  0
   -3.9130   22.3180  -28.8130 N   0  0  0  0  0  0  0  0  0  0  0  0
   -3.5970   23.0460  -27.5740 C   0  0  0  0  0  0  0  0  0  0  0  0
   -3.3110   24.5410  -27.8050 C   0  0  0  0  0  0  0  0  0  0  0  0
   -2.6740   24.7560  -29.1090 N   0  0  0  0  0  0  0  0  0  0  0  0
   -1.2180   24.8580  -28.9570 C   0  0  0  0  0  0  0  0  0  0  0  0
   -0.8800   25.7560  -27.7720 C   0  0  0  0  0  0  0  0  0  0  0  0
   -6.4524   25.2886  -28.6198 H   0  0  0  0  0  0  0  0  0  0  0  0
   -7.4005   25.9497  -29.9949 H   0  0  0  0  0  0  0  0  0  0  0  0
   -6.9022   24.2239  -29.9949 H   0  0  0  0  0  0  0  0  0  0  0  0
   -5.5407   26.3218  -31.2386 H   0  0  0  0  0  0  0  0  0  0  0  0
   -4.6334   26.0728  -29.6808 H   0  0  0  0  0  0  0  0  0  0  0  0
   -4.0230   24.0000  -30.2580 H   0  0  0  0  0  0  0  0  0  0  0  0
   -5.8965   22.8008  -30.7251 H   0  0  0  0  0  0  0  0  0  0  0  0
   -6.4106   23.9830  -31.9858 H   0  0  0  0  0  0  0  0  0  0  0  0
   -5.6123   21.9323  -33.0608 H   0  0  0  0  0  0  0  0  0  0  0  0
   -4.4559   23.2930  -33.3751 H   0  0  0  0  0  0  0  0  0  0  0  0
   -4.1138   21.0940  -31.2750 H   0  0  0  0  0  0  0  0  0  0  0  0
   -3.2477   21.2209  -32.8658 H   0  0  0  0  0  0  0  0  0  0  0  0
   -3.0860   23.1640  -30.6240 H   0  0  0  0  0  0  0  0  0  0  0  0
   -1.4910   20.8774  -31.4648 H   0  0  0  0  0  0  0  0  0  0  0  0
   -0.5957   22.4066  -31.1565 H   0  0  0  0  0  0  0  0  0  0  0  0
   -0.9120   20.8396  -29.1400 H   0  0  0  0  0  0  0  0  0  0  0  0
   -1.4310   22.5674  -28.9289 H   0  0  0  0  0  0  0  0  0  0  0  0
   -3.4626   20.5291  -29.8291 H   0  0  0  0  0  0  0  0  0  0  0  0
   -2.9720   20.5806  -28.0950 H   0  0  0  0  0  0  0  0  0  0  0  0
   -3.8390   22.9660  -29.6350 H   0  0  0  0  0  0  0  0  0  0  0  0
   -4.4519   22.9556  -26.8877 H   0  0  0  0  0  0  0  0  0  0  0  0
   -2.6827   22.5990  -27.1564 H   0  0  0  0  0  0  0  0  0  0  0  0
   -4.2586   25.0986  -27.7706 H   0  0  0  0  0  0  0  0  0  0  0  0
   -2.6289   24.8944  -27.0177 H   0  0  0  0  0  0  0  0  0  0  0  0
   -2.8770   23.9190  -29.7080 H   0  0  0  0  0  0  0  0  0  0  0  0
   -0.7983   23.8557  -28.7861 H   0  0  0  0  0  0  0  0  0  0  0  0
   -0.7884   25.2907  -29.8726 H   0  0  0  0  0  0  0  0  0  0  0  0
   -1.0826   25.2176  -26.8344 H   0  0  0  0  0  0  0  0  0  0  0  0
    0.1838   26.0327  -27.8133 H   0  0  0  0  0  0  0  0  0  0  0  0
   -1.4973   26.6655  -27.8133 H   0  0  0  0  0  0  0  0  0  0  0  0
  1  2  1  0
  2  3  1  0
  3  4  1  0
  4  5  1  0
  5  6  1  0
  6  7  1  0
  7  8  1  0
  8  9  1  0
  9 10  1  0
 10 11  1  0
 11 12  1  0
 12 13  1  0
 13 14  1  0
 14 15  1  0
 15 16  1  0
  1 17  1  0
  1 18  1  0
  1 19  1  0
  2 20  1  0
  2 21  1  0
  3 22  1  0
  4 23  1  0
  4 24  1  0
  5 25  1  0
  5 26  1  0
  6 27  1  0
  6 28  1  0
  7 29  1  0
  8 30  1  0
  8 31  1  0
  9 32  1  0
  9 33  1  0
 10 34  1  0
 10 35  1  0
 11 36  1  0
 12 37  1  0
 12 38  1  0
 13 39  1  0
 13 40  1  0
 14 41  1  0
 15 42  1  0
 15 43  1  0
 16 44  1  0
 16 45  1  0
 16 46  1  0
M  END
>  <UniqueID>  (31) 
31

>  <SMILES>  (31) 
CCNCCCNCCCNCCNCC

>  <Energy>  (31) 
27.399554006079335

>  <Genealogy>  (31) 
CCNCCCNCCCNCCNCC (3D coordinates assigned)
CCNCCCNCCCNCCNCC (optimized conformer: 27.399554006079335 kcal/mol)

>  <smiles>  (31) 
CCNCCCNCCCNCCNCC

>  <score_type>  (31) 
oracle

>  <origin>  (31) 
adg

>  <m_score__min__energy>  (31) 
-2.5099999999999998

>  <m_primary>  (31) 
energy

$$$$
31:0
     RDKit          3D

 48 50  0  0  0  0  0  0  0  0999 V2000
   -3.8020   23.8670  -28.2600 C   0  0  0  0  0  0  0  0  0  0  0  0
   -2.9400   24.2130  -29.4680 C   0  0  0  0  0  0  0  0  0  0  0  0
   -3.7230   24.8380  -30.4820 O   0  0  0  0  0  0  0  0  0  0  0  0
   -5.1210   24.9230  -30.4350 C   0  0  0  0  0  0  0  0  0  0  0  0
   -5.6830   26.0070  -30.1070 O   0  0  0  0  0  0  0  0  0  0  0  0
   -5.9120   23.7540  -30.7390 N   0  0  1  0  0  0  0  0  0  0  0  0
   -7.2500   24.1600  -31.2330 C   0  0  0  0  0  0  0  0  0  0  0  0
   -7.9990   23.0200  -31.9640 C   0  0  0  0  0  0  0  0  0  0  0  0
   -7.4510   21.6340  -31.5830 C   0  0  1  0  0  0  0  0  0  0  0  0
   -8.2160   20.5030  -32.2970 C   0  0  0  0  0  0  0  0  0  0  0  0
   -7.3040   19.4560  -32.7590 N   0  0  0  0  0  0  0  0  0  0  0  0
   -6.4850   19.5300  -33.9740 C   0  0  0  0  0  0  0  0  0  0  0  0
   -5.6860   18.2580  -33.9270 C   0  0  0  0  0  0  0  0  0  0  0  0
   -4.7420   17.8020  -34.8470 C   0  0  0  0  0  0  0  0  0  0  0  0
   -4.0980   16.5690  -34.6020 C   0  0  0  0  0  0  0  0  0  0  0  0
   -3.0500   16.0690  -35.5510 C   0  0  0  0  0  0  0  0  0  0  0  0
   -4.3950   15.8410  -33.4250 C   0  0  0  0  0  0  0  0  0  0  0  0
   -5.3470   16.3200  -32.5110 C   0  0  0  0  0  0  0  0  0  0  0  0
   -5.9760   17.5300  -32.7940 C   0  0  0  0  0  0  0  0  0  0  0  0
   -6.9690   18.2650  -32.0530 C   0  0  0  0  0  0  0  0  0  0  0  0
   -7.4580   17.9310  -30.9410 O   0  0  0  0  0  0  0  0  0  0  0  0
   -5.9390   21.5470  -31.8990 C   0  0  0  0  0  0  0  0  0  0  0  0
   -5.2080   22.8930  -31.7090 C   0  0  0  0  0  0  0  0  0  0  0  0
   -3.2464   24.0900  -27.3372 H   0  0  0  0  0  0  0  0  0  0  0  0
   -4.7255   24.4641  -28.2854 H   0  0  0  0  0  0  0  0  0  0  0  0
   -4.0563   22.7971  -28.2854 H   0  0  0  0  0  0  0  0  0  0  0  0
   -2.1390   24.8992  -29.1556 H   0  0  0  0  0  0  0  0  0  0  0  0
   -2.5103   23.2853  -29.8738 H   0  0  0  0  0  0  0  0  0  0  0  0
   -6.0300   23.2180  -29.8460 H   0  0  0  0  0  0  0  0  0  0  0  0
   -7.1251   25.0008  -31.9312 H   0  0  0  0  0  0  0  0  0  0  0  0
   -7.8527   24.4388  -30.3560 H   0  0  0  0  0  0  0  0  0  0  0  0
   -7.8871   23.1602  -33.0493 H   0  0  0  0  0  0  0  0  0  0  0  0
   -9.0567   23.0614  -31.6647 H   0  0  0  0  0  0  0  0  0  0  0  0
   -7.5983   21.5031  -30.5008 H   0  0  0  0  0  0  0  0  0  0  0  0
   -8.9417   20.0633  -31.5970 H   0  0  0  0  0  0  0  0  0  0  0  0
   -8.7293   20.9284  -33.1720 H   0  0  0  0  0  0  0  0  0  0  0  0
   -7.1166   19.5662  -34.8739 H   0  0  0  0  0  0  0  0  0  0  0  0
   -5.8575   20.4324  -34.0172 H   0  0  0  0  0  0  0  0  0  0  0  0
   -4.5039   18.3907  -35.7452 H   0  0  0  0  0  0  0  0  0  0  0  0
   -2.2014   15.6641  -34.9800 H   0  0  0  0  0  0  0  0  0  0  0  0
   -3.4767   15.2774  -36.1845 H   0  0  0  0  0  0  0  0  0  0  0  0
   -2.7032   16.8987  -36.1845 H   0  0  0  0  0  0  0  0  0  0  0  0
   -3.8757   14.8922  -33.2248 H   0  0  0  0  0  0  0  0  0  0  0  0
   -5.5890   15.7561  -31.5981 H   0  0  0  0  0  0  0  0  0  0  0  0
   -5.8166   21.2254  -32.9438 H   0  0  0  0  0  0  0  0  0  0  0  0
   -5.4952   20.8277  -31.1950 H   0  0  0  0  0  0  0  0  0  0  0  0
   -5.1562   23.4123  -32.6773 H   0  0  0  0  0  0  0  0  0  0  0  0
   -4.1988   22.6881  -31.3224 H   0  0  0  0  0  0  0  0  0  0  0  0
  1  2  1  0
  2  3  1  0
  3  4  1  0
  4  5  2  0
  4  6  1  0
  6  7  1  0
  7  8  1  0
  8  9  1  0
  9 10  1  0
 10 11  1  0
 11 12  1  0
 12 13  1  0
 13 14  2  0
 14 15  1  0
 15 16  1  0
 15 17  2  0
 17 18  1  0
 18 19  2  0
 19 20  1  0
 20 21  2  0
  9 22  1  0
 22 23  1  0
 23  6  1  0
 20 11  1  0
 19 13  1  0
  1 24  1  0
  1 25  1  0
  1 26  1  0
  2 27  1  0
  2 28  1  0
  6 29  1  1
  7 30  1  0
  7 31  1  0
  8 32  1  0
  8 33  1  0
  9 34  1  1
 10 35  1  0
 10 36  1  0
 12 37  1  0
 12 38  1  0
 14 39  1  0
 16 40  1  0
 16 41  1  0
 16 42  1  0
 17 43  1  0
 18 44  1  0
 22 45  1  0
 22 46  1  0
 23 47  1  0
 23 48  1  0
M  CHG  1   6   1
M  END
>  <UniqueID>  (32) 
32

>  <SMILES>  (32) 
CCOC(=O)[NH+]1CCC(CN2Cc3cc(C)ccc3C2=O)CC1

>  <Energy>  (32) 
68.59162723069598

>  <Genealogy>  (32) 
CCOC(=O)[NH+]1CCC(CN2Cc3cc(C)ccc3C2=O)CC1 (protonated)
CCOC(=O)[NH+]1CCC(CN2Cc3cc(C)ccc3C2=O)CC1 (3D coordinates assigned)
CCOC(=O)[NH+]1CCC(CN2Cc3cc(C)ccc3C2=O)CC1 (nonaromatic ring conformer: 68.59162723069598 kcal/mol)

>  <smiles>  (32) 
CCOC(=O)N1CCC(CN2Cc3cc(C)ccc3C2=O)CC1

>  <score_type>  (32) 
oracle

>  <origin>  (32) 
adg

>  <m_score__min__energy>  (32) 
-7.79

>  <m_primary>  (32) 
energy

$$$$
32:0
     RDKit          3D

 40 42  0  0  0  0  0  0  0  0999 V2000
   -4.9710   18.0560  -33.0200 C   0  0  0  0  0  0  0  0  0  0  0  0
   -5.1430   19.3530  -33.8130 C   0  0  0  0  0  0  0  0  0  0  0  0
   -5.1090   20.5450  -32.9320 N   0  0  0  0  0  0  0  0  0  0  0  0
   -3.8970   21.1710  -32.6850 C   0  0  0  0  0  0  0  0  0  0  0  0
   -2.5410   20.5140  -32.9120 C   0  0  0  0  0  0  0  0  0  0  0  0
   -1.9900   20.9160  -34.2190 N   0  0  0  0  0  0  0  0  0  0  0  0
   -0.7850   20.1480  -34.5750 C   0  0  0  0  0  0  0  0  0  0  0  0
    0.3050   21.0400  -35.0940 C   0  0  0  0  0  0  0  0  0  0  0  0
    1.4850   20.6210  -35.6760 C   0  0  0  0  0  0  0  0  0  0  0  0
    2.1580   21.7740  -36.0180 C   0  0  0  0  0  0  0  0  0  0  0  0
    1.3470   22.8210  -35.6270 C   0  0  0  0  0  0  0  0  0  0  0  0
    0.2500   22.3520  -35.0810 O   0  0  0  0  0  0  0  0  0  0  0  0
   -3.8670   22.4440  -32.1040 C   0  0  0  0  0  0  0  0  0  0  0  0
   -5.0400   23.0830  -31.7440 C   0  0  0  0  0  0  0  0  0  0  0  0
   -4.9820   24.2470  -31.2590 O   0  0  0  0  0  0  0  0  0  0  0  0
   -6.2640   22.4210  -31.8920 C   0  0  0  0  0  0  0  0  0  0  0  0
   -7.4580   23.0420  -31.4780 C   0  0  0  0  0  0  0  0  0  0  0  0
   -8.6720   22.3700  -31.5650 C   0  0  0  0  0  0  0  0  0  0  0  0
   -8.7090   21.0640  -32.0340 C   0  0  0  0  0  0  0  0  0  0  0  0
   -7.5420   20.4220  -32.4570 C   0  0  0  0  0  0  0  0  0  0  0  0
   -7.6670   19.1130  -32.7820 F   0  0  0  0  0  0  0  0  0  0  0  0
   -6.2880   21.1060  -32.4460 C   0  0  0  0  0  0  0  0  0  0  0  0
   -5.0004   18.2780  -31.9430 H   0  0  0  0  0  0  0  0  0  0  0  0
   -5.7848   17.3606  -33.2734 H   0  0  0  0  0  0  0  0  0  0  0  0
   -4.0041   17.5968  -33.2734 H   0  0  0  0  0  0  0  0  0  0  0  0
   -4.3294   19.4309  -34.5492 H   0  0  0  0  0  0  0  0  0  0  0  0
   -6.1239   19.3227  -34.3099 H   0  0  0  0  0  0  0  0  0  0  0  0
   -1.8492   20.8251  -32.1154 H   0  0  0  0  0  0  0  0  0  0  0  0
   -2.6659   19.4212  -32.8972 H   0  0  0  0  0  0  0  0  0  0  0  0
   -1.7310   21.9290  -34.1850 H   0  0  0  0  0  0  0  0  0  0  0  0
   -2.7140   20.7920  -34.9650 H   0  0  0  0  0  0  0  0  0  0  0  0
   -0.4200   19.6215  -33.6808 H   0  0  0  0  0  0  0  0  0  0  0  0
   -1.0532   19.4349  -35.3684 H   0  0  0  0  0  0  0  0  0  0  0  0
    1.8180   19.5845  -35.8336 H   0  0  0  0  0  0  0  0  0  0  0  0
    3.1421   21.8457  -36.5041 H   0  0  0  0  0  0  0  0  0  0  0  0
    1.5848   23.8874  -35.7541 H   0  0  0  0  0  0  0  0  0  0  0  0
   -2.9011   22.9414  -31.9319 H   0  0  0  0  0  0  0  0  0  0  0  0
   -7.4300   24.0680  -31.0822 H   0  0  0  0  0  0  0  0  0  0  0  0
   -9.6024   22.8728  -31.2624 H   0  0  0  0  0  0  0  0  0  0  0  0
   -9.6687   20.5278  -32.0732 H   0  0  0  0  0  0  0  0  0  0  0  0
  1  2  1  0
  2  3  1  0
  3  4  1  0
  4  5  1  0
  5  6  1  0
  6  7  1  0
  7  8  1  0
  8  9  2  0
  9 10  1  0
 10 11  2  0
 11 12  1  0
  4 13  2  0
 13 14  1  0
 14 15  2  0
 14 16  1  0
 16 17  2  0
 17 18  1  0
 18 19  2  0
 19 20  1  0
 20 21  1  0
 20 22  2  0
 22  3  1  0
 12  8  1  0
 22 16  1  0
  1 23  1  0
  1 24  1  0
  1 25  1  0
  2 26  1  0
  2 27  1  0
  5 28  1  0
  5 29  1  0
  6 30  1  0
  6 31  1  0
  7 32  1  0
  7 33  1  0
  9 34  1  0
 10 35  1  0
 11 36  1  0
 13 37  1  0
 17 38  1  0
 18 39  1  0
 19 40  1  0
M  CHG  1   6   1
M  END
>  <UniqueID>  (33) 
33

>  <SMILES>  (33) 
CCn1c(C[NH2+]Cc2ccco2)cc(=O)c2cccc(F)c21

>  <Energy>  (33) 
86.17564808443817

>  <Genealogy>  (33) 
CCn1c(C[NH2+]Cc2ccco2)cc(=O)c2cccc(F)c21 (protonated)
CCn1c(C[NH2+]Cc2ccco2)cc(=O)c2cccc(F)c21 (3D coordinates assigned)
CCn1c(C[NH2+]Cc2ccco2)cc(=O)c2cccc(F)c21 (optimized conformer: 86.17564808443817 kcal/mol)

>  <smiles>  (33) 
CCn1c(CNCc2ccco2)cc(=O)c2cccc(F)c21

>  <score_type>  (33) 
oracle

>  <origin>  (33) 
adg

>  <m_score__min__energy>  (33) 
-7.1200000000000001

>  <m_primary>  (33) 
energy

$$$$
