0:0
     RDKit          3D

 62 65  0  0  0  0  0  0  0  0999 V2000
   -0.5610   17.5010  -32.0280 C   0  0  0  0  0  0  0  0  0  0  0  0
   -1.8100   17.0590  -32.7940 C   0  0  0  0  0  0  0  0  0  0  0  0
   -2.2950   18.0920  -33.7270 N   0  0  0  0  0  0  0  0  0  0  0  0
   -3.3640   17.7410  -34.6760 C   0  0  0  0  0  0  0  0  0  0  0  0
   -4.4660   16.8800  -34.0440 C   0  0  0  0  0  0  0  0  0  0  0  0
   -5.7550   17.4630  -34.2400 O   0  0  0  0  0  0  0  0  0  0  0  0
   -6.2860   18.5550  -33.5370 C   0  0  0  0  0  0  0  0  0  0  0  0
   -7.5540   18.4080  -32.9630 C   0  0  0  0  0  0  0  0  0  0  0  0
   -8.1620   19.4710  -32.2900 C   0  0  0  0  0  0  0  0  0  0  0  0
   -7.5020   20.7080  -32.1700 C   0  0  0  0  0  0  0  0  0  0  0  0
   -8.0770   21.8230  -31.5190 C   0  0  0  0  0  0  0  0  0  0  0  0
   -9.4530   21.7690  -30.9070 C   0  0  0  0  0  0  0  0  0  0  0  0
   -7.3380   23.0120  -31.4450 C   0  0  0  0  0  0  0  0  0  0  0  0
   -6.0640   23.0680  -32.0150 C   0  0  0  0  0  0  0  0  0  0  0  0
   -5.3950   24.1330  -31.9580 O   0  0  0  0  0  0  0  0  0  0  0  0
   -5.5510   22.0030  -32.6210 O   0  0  0  0  0  0  0  0  0  0  0  0
   -6.2070   20.8500  -32.7230 C   0  0  0  0  0  0  0  0  0  0  0  0
   -5.6050   19.7780  -33.3900 C   0  0  0  0  0  0  0  0  0  0  0  0
   -1.4490   19.2170  -34.0450 C   0  0  0  0  0  0  0  0  0  0  0  0
   -0.4060   19.0380  -34.9660 C   0  0  0  0  0  0  0  0  0  0  0  0
    0.4440   20.0940  -35.2890 C   0  0  0  0  0  0  0  0  0  0  0  0
    0.2560   21.3500  -34.7070 C   0  0  0  0  0  0  0  0  0  0  0  0
   -0.8010   21.5540  -33.8160 C   0  0  0  0  0  0  0  0  0  0  0  0
   -1.6680   20.4960  -33.4710 C   0  0  0  0  0  0  0  0  0  0  0  0
   -2.7650   20.7130  -32.5580 N   0  0  0  0  0  0  0  0  0  0  0  0
   -2.8420   20.0810  -31.2350 C   0  0  0  0  0  0  0  0  0  0  0  0
   -3.3420   21.0650  -30.1780 C   0  0  0  0  0  0  0  0  0  0  0  0
   -3.5030   22.3410  -30.7630 O   0  0  0  0  0  0  0  0  0  0  0  0
   -3.2870   23.3310  -29.7830 C   0  0  0  0  0  0  0  0  0  0  0  0
    1.1090   22.4100  -35.0410 O   0  0  0  0  0  0  0  0  0  0  0  0
    2.3780   22.2200  -35.6770 C   0  0  0  0  0  0  0  0  0  0  0  0
    2.3940   20.9810  -36.5280 C   0  0  0  0  0  0  0  0  0  0  0  0
    3.2550   20.8490  -37.4380 O   0  0  0  0  0  0  0  0  0  0  0  0
    1.4840   19.9160  -36.2510 N   0  0  0  0  0  0  0  0  0  0  0  0
   -0.7511   17.4337  -30.9466 H   0  0  0  0  0  0  0  0  0  0  0  0
    0.2826   16.8468  -32.2934 H   0  0  0  0  0  0  0  0  0  0  0  0
   -0.3167   18.5402  -32.2934 H   0  0  0  0  0  0  0  0  0  0  0  0
   -1.5697   16.1511  -33.3667 H   0  0  0  0  0  0  0  0  0  0  0  0
   -2.6057   16.8737  -32.0574 H   0  0  0  0  0  0  0  0  0  0  0  0
   -3.8173   18.6697  -35.0530 H   0  0  0  0  0  0  0  0  0  0  0  0
   -2.9069   17.1506  -35.4838 H   0  0  0  0  0  0  0  0  0  0  0  0
   -4.4501   15.8817  -34.5056 H   0  0  0  0  0  0  0  0  0  0  0  0
   -4.2763   16.8112  -32.9627 H   0  0  0  0  0  0  0  0  0  0  0  0
   -8.0782   17.4442  -33.0426 H   0  0  0  0  0  0  0  0  0  0  0  0
   -9.1623   19.3401  -31.8515 H   0  0  0  0  0  0  0  0  0  0  0  0
   -9.3669   21.7724  -29.8104 H   0  0  0  0  0  0  0  0  0  0  0  0
  -10.0335   22.6451  -31.2319 H   0  0  0  0  0  0  0  0  0  0  0  0
   -9.9630   20.8501  -31.2319 H   0  0  0  0  0  0  0  0  0  0  0  0
   -7.7586   23.8949  -30.9414 H   0  0  0  0  0  0  0  0  0  0  0  0
   -4.5917   19.8916  -33.8028 H   0  0  0  0  0  0  0  0  0  0  0  0
   -0.2578   18.0552  -35.4374 H   0  0  0  0  0  0  0  0  0  0  0  0
   -0.9588   22.5509  -33.3787 H   0  0  0  0  0  0  0  0  0  0  0  0
   -3.5090   21.3970  -32.8140 H   0  0  0  0  0  0  0  0  0  0  0  0
   -3.5337   19.2272  -31.2854 H   0  0  0  0  0  0  0  0  0  0  0  0
   -1.8331   19.7481  -30.9499 H   0  0  0  0  0  0  0  0  0  0  0  0
   -4.3079   20.7185  -29.7818 H   0  0  0  0  0  0  0  0  0  0  0  0
   -2.6110   21.1264  -29.3583 H   0  0  0  0  0  0  0  0  0  0  0  0
   -3.3845   22.8841  -28.7826 H   0  0  0  0  0  0  0  0  0  0  0  0
   -2.2765   23.7493  -29.9008 H   0  0  0  0  0  0  0  0  0  0  0  0
   -4.0315   24.1322  -29.9008 H   0  0  0  0  0  0  0  0  0  0  0  0
    2.5921   23.0918  -36.3127 H   0  0  0  0  0  0  0  0  0  0  0  0
    3.1409   22.1069  -34.8926 H   0  0  0  0  0  0  0  0  0  0  0  0
  1  2  1  0
  2  3  1  0
  3  4  1  0
  4  5  1  0
  5  6  1  0
  6  7  1  0
  7  8  2  0
  8  9  1  0
  9 10  2  0
 10 11  1  0
 11 12  1  0
 11 13  2  0
 13 14  1  0
 14 15  2  0
 14 16  1  0
 16 17  1  0
 17 18  2  0
  3 19  1  0
 19 20  2  0
 20 21  1  0
 21 22  2  0
 22 23  1  0
 23 24  2  0
 24 25  1  0
 25 26  1  0
 26 27  1  0
 27 28  1  0
 28 29  1  0
 22 30  1  0
 30 31  1  0
 31 32  1  0
 32 33  2  0
 32 34  1  0
 18  7  1  0
 24 19  1  0
 17 10  1  0
 34 21  1  0
  1 35  1  0
  1 36  1  0
  1 37  1  0
  2 38  1  0
  2 39  1  0
  4 40  1  0
  4 41  1  0
  5 42  1  0
  5 43  1  0
  8 44  1  0
  9 45  1  0
 12 46  1  0
 12 47  1  0
 12 48  1  0
 13 49  1  0
 18 50  1  0
 20 51  1  0
 23 52  1  0
 25 53  1  0
 26 54  1  0
 26 55  1  0
 27 56  1  0
 27 57  1  0
 29 58  1  0
 29 59  1  0
 29 60  1  0
 31 61  1  0
 31 62  1  0
M  CHG  1  34  -1
M  END
>  <UniqueID>  (1) 
1

>  <SMILES>  (1) 
CCN(CCOc1ccc2c(C)cc(=O)oc2c1)c1cc2c(cc1NCCOC)OCC(=O)[N-]2

>  <Energy>  (1) 
73.43359473745788

>  <Genealogy>  (1) 
CCN(CCOc1ccc2c(C)cc(=O)oc2c1)c1cc2c(cc1NCCOC)OCC(=O)[N-]2 (protonated)
CCN(CCOc1ccc2c(C)cc(=O)oc2c1)c1cc2c(cc1NCCOC)OCC(=O)[N-]2 (3D coordinates assigned)
CCN(CCOc1ccc2c(C)cc(=O)oc2c1)c1cc2c(cc1NCCOC)OCC(=O)[N-]2 (nonaromatic ring conformer: 73.43359473745788 kcal/mol)

>  <smiles>  (1) 
CCN(CCOc1ccc2c(C)cc(=O)oc2c1)c1cc2c(cc1NCCOC)OCC(=O)N2

>  <score_type>  (1) 
oracle

>  <origin>  (1) 
adg

>  <m_score__min__energy>  (1) 
-10.24

>  <m_primary>  (1) 
energy

$$$$
1:0
     RDKit          3D

 34 35  0  0  0  0  0  0  0  0999 V2000
   -4.6150   24.2450  -28.6160 C   0  0  0  0  0  0  0  0  0  0  0  0
   -3.4220   24.5390  -29.5210 C   0  0  0  0  0  0  0  0  0  0  0  0
   -3.8760   25.0560  -30.8210 N   0  0  0  0  0  0  0  0  0  0  0  0
   -5.3370   25.2080  -30.8570 C   0  0  0  0  0  0  0  0  0  0  0  0
   -5.9640   24.0300  -31.6000 C   0  0  0  0  0  0  0  0  0  0  0  0
   -5.2400   22.7960  -31.3000 N   0  0  0  0  0  0  0  0  0  0  0  0
   -5.3520   21.6530  -32.1610 C   0  0  0  0  0  0  0  0  0  0  0  0
   -4.2220   21.0450  -32.7790 C   0  0  0  0  0  0  0  0  0  0  0  0
   -2.9130   21.6340  -32.6900 N   0  0  0  0  0  0  0  0  0  0  0  0
   -2.0110   21.3020  -33.4860 O   0  0  0  0  0  0  0  0  0  0  0  0
   -2.5930   22.4510  -31.6300 O   0  0  0  0  0  0  0  0  0  0  0  0
   -4.3990   19.8570  -33.5400 C   0  0  0  0  0  0  0  0  0  0  0  0
   -5.6760   19.2820  -33.7310 C   0  0  0  0  0  0  0  0  0  0  0  0
   -5.8300   18.0890  -34.5220 N   0  0  0  0  0  0  0  0  0  0  0  0
   -4.9970   17.7850  -35.3990 O   0  0  0  0  0  0  0  0  0  0  0  0
   -6.8630   17.2160  -34.2630 O   0  0  0  0  0  0  0  0  0  0  0  0
   -6.7570   19.9410  -33.1260 C   0  0  0  0  0  0  0  0  0  0  0  0
   -8.0620   19.6240  -33.0830 N   0  0  0  0  0  0  0  0  0  0  0  0
   -8.6290   20.5400  -32.3450 O   0  0  0  0  0  0  0  0  0  0  0  0
   -7.7930   21.4380  -31.8910 N   0  0  0  0  0  0  0  0  0  0  0  0
   -6.5980   21.0680  -32.3830 C   0  0  0  0  0  0  0  0  0  0  0  0
   -4.3045   24.3215  -27.5635 H   0  0  0  0  0  0  0  0  0  0  0  0
   -5.4151   24.9728  -28.8161 H   0  0  0  0  0  0  0  0  0  0  0  0
   -4.9853   23.2287  -28.8161 H   0  0  0  0  0  0  0  0  0  0  0  0
   -2.7777   25.2887  -29.0384 H   0  0  0  0  0  0  0  0  0  0  0  0
   -2.8620   23.6066  -29.6851 H   0  0  0  0  0  0  0  0  0  0  0  0
   -3.6140   24.3530  -31.5510 H   0  0  0  0  0  0  0  0  0  0  0  0
   -5.7259   25.2392  -29.8285 H   0  0  0  0  0  0  0  0  0  0  0  0
   -5.5912   26.1422  -31.3792 H   0  0  0  0  0  0  0  0  0  0  0  0
   -7.0127   23.9204  -31.2867 H   0  0  0  0  0  0  0  0  0  0  0  0
   -5.9112   24.2211  -32.6820 H   0  0  0  0  0  0  0  0  0  0  0  0
   -4.3560   22.8920  -30.7500 H   0  0  0  0  0  0  0  0  0  0  0  0
   -3.5202   19.3734  -33.9914 H   0  0  0  0  0  0  0  0  0  0  0  0
   -8.5590   18.8150  -33.5120 H   0  0  0  0  0  0  0  0  0  0  0  0
  1  2  1  0
  2  3  1  0
  3  4  1  0
  4  5  1  0
  5  6  1  0
  6  7  1  0
  7  8  2  0
  8  9  1  0
  9 10  2  0
  9 11  1  0
  8 12  1  0
 12 13  2  0
 13 14  1  0
 14 15  2  0
 14 16  1  0
 13 17  1  0
 17 18  2  0
 18 19  1  0
 19 20  1  0
 20 21  2  0
 21  7  1  0
 21 17  1  0
  1 22  1  0
  1 23  1  0
  1 24  1  0
  2 25  1  0
  2 26  1  0
  3 27  1  0
  4 28  1  0
  4 29  1  0
  5 30  1  0
  5 31  1  0
  6 32  1  0
 12 33  1  0
 18 34  1  0
M  CHG  5   9   1  11  -1  14   1  16  -1  18   1
M  END
>  <UniqueID>  (2) 
2

>  <SMILES>  (2) 
CCNCCNc1c([N+](=O)[O-])cc([N+](=O)[O-])c2[nH+]onc12

>  <Energy>  (2) 
83.1434087293159

>  <Genealogy>  (2) 
CCNCCNc1c([N+](=O)[O-])cc([N+](=O)[O-])c2[nH+]onc12 (protonated)
CCNCCNc1c([N+](=O)[O-])cc([N+](=O)[O-])c2[nH+]onc12 (3D coordinates assigned)
CCNCCNc1c([N+](=O)[O-])cc([N+](=O)[O-])c2[nH+]onc12 (optimized conformer: 83.1434087293159 kcal/mol)

>  <smiles>  (2) 
CCNCCNc1c([N+](=O)[O-])cc([N+](=O)[O-])c2nonc12

>  <score_type>  (2) 
oracle

>  <origin>  (2) 
adg

>  <m_score__min__energy>  (2) 
-6.8700000000000001

>  <m_primary>  (2) 
energy

$$$$
2:0
     RDKit          3D

 39 40  0  0  0  0  0  0  0  0999 V2000
    0.6870   25.0990  -26.7300 C   0  0  0  0  0  0  0  0  0  0  0  0
    0.4780   24.5490  -28.0280 O   0  0  0  0  0  0  0  0  0  0  0  0
   -0.7590   24.0910  -28.5080 C   0  0  0  0  0  0  0  0  0  0  0  0
   -1.6300   24.9100  -29.2460 C   0  0  0  0  0  0  0  0  0  0  0  0
   -2.8590   24.4180  -29.6990 C   0  0  0  0  0  0  0  0  0  0  0  0
   -3.6990   25.2960  -30.4610 N   0  0  0  0  0  0  0  0  0  0  0  0
   -5.1330   25.3770  -30.4480 C   0  0  0  0  0  0  0  0  0  0  0  0
   -5.7170   26.4390  -30.1030 O   0  0  0  0  0  0  0  0  0  0  0  0
   -5.9550   24.2120  -30.9160 C   0  0  0  0  0  0  0  0  0  0  0  0
   -5.3840   23.6080  -32.0780 O   0  0  0  0  0  0  0  0  0  0  0  0
   -5.3660   22.2260  -32.2930 C   0  0  0  0  0  0  0  0  0  0  0  0
   -4.5420   21.7140  -33.1030 O   0  0  0  0  0  0  0  0  0  0  0  0
   -6.4010   21.3720  -31.6100 C   0  0  0  0  0  0  0  0  0  0  0  0
   -7.8310   21.7640  -31.9690 C   0  0  0  0  0  0  0  0  0  0  0  0
   -8.0510   20.3890  -32.5860 C   0  0  0  0  0  0  0  0  0  0  0  0
   -6.6210   19.9970  -32.2400 C   0  0  0  0  0  0  0  0  0  0  0  0
   -3.2020   23.0770  -29.4470 C   0  0  0  0  0  0  0  0  0  0  0  0
   -2.3420   22.2520  -28.6980 C   0  0  0  0  0  0  0  0  0  0  0  0
   -2.6560   20.9190  -28.3910 O   0  0  0  0  0  0  0  0  0  0  0  0
   -2.3170   20.2710  -27.1690 C   0  0  0  0  0  0  0  0  0  0  0  0
   -1.1290   22.7710  -28.2350 C   0  0  0  0  0  0  0  0  0  0  0  0
    0.4052   24.3575  -25.9679 H   0  0  0  0  0  0  0  0  0  0  0  0
    1.7481   25.3630  -26.6101 H   0  0  0  0  0  0  0  0  0  0  0  0
    0.0690   26.0010  -26.6101 H   0  0  0  0  0  0  0  0  0  0  0  0
   -1.3429   25.9480  -29.4698 H   0  0  0  0  0  0  0  0  0  0  0  0
   -6.0065   23.4635  -30.1116 H   0  0  0  0  0  0  0  0  0  0  0  0
   -6.9605   24.5770  -31.1726 H   0  0  0  0  0  0  0  0  0  0  0  0
   -6.0313   21.4429  -30.5764 H   0  0  0  0  0  0  0  0  0  0  0  0
   -8.4711   21.9740  -31.0994 H   0  0  0  0  0  0  0  0  0  0  0  0
   -8.0294   22.6750  -32.5527 H   0  0  0  0  0  0  0  0  0  0  0  0
   -8.8167   19.7863  -32.0757 H   0  0  0  0  0  0  0  0  0  0  0  0
   -8.4163   20.2972  -33.6195 H   0  0  0  0  0  0  0  0  0  0  0  0
   -6.5433   19.1598  -31.5308 H   0  0  0  0  0  0  0  0  0  0  0  0
   -5.9401   19.6249  -33.0197 H   0  0  0  0  0  0  0  0  0  0  0  0
   -4.1470   22.6712  -29.8373 H   0  0  0  0  0  0  0  0  0  0  0  0
   -2.6422   20.8927  -26.3218 H   0  0  0  0  0  0  0  0  0  0  0  0
   -2.8193   19.2936  -27.1207 H   0  0  0  0  0  0  0  0  0  0  0  0
   -1.2276   20.1262  -27.1207 H   0  0  0  0  0  0  0  0  0  0  0  0
   -0.4554   22.1305  -27.6467 H   0  0  0  0  0  0  0  0  0  0  0  0
  1  2  1  0
  2  3  1  0
  3  4  2  0
  4  5  1  0
  5  6  1  0
  6  7  1  0
  7  8  2  0
  7  9  1  0
  9 10  1  0
 10 11  1  0
 11 12  2  0
 11 13  1  0
 13 14  1  0
 14 15  1  0
 15 16  1  0
  5 17  2  0
 17 18  1  0
 18 19  1  0
 19 20  1  0
 18 21  2  0
 21  3  1  0
 16 13  1  0
  1 22  1  0
  1 23  1  0
  1 24  1  0
  4 25  1  0
  9 26  1  0
  9 27  1  0
 13 28  1  0
 14 29  1  0
 14 30  1  0
 15 31  1  0
 15 32  1  0
 16 33  1  0
 16 34  1  0
 17 35  1  0
 20 36  1  0
 20 37  1  0
 20 38  1  0
 21 39  1  0
M  CHG  1   6  -1
M  END
>  <UniqueID>  (3) 
3

>  <SMILES>  (3) 
COc1cc([N-]C(=O)COC(=O)C2CCC2)cc(OC)c1

>  <Energy>  (3) 
97.38626178493591

>  <Genealogy>  (3) 
COc1cc([N-]C(=O)COC(=O)C2CCC2)cc(OC)c1 (protonated)
COc1cc([N-]C(=O)COC(=O)C2CCC2)cc(OC)c1 (3D coordinates assigned)
COc1cc([N-]C(=O)COC(=O)C2CCC2)cc(OC)c1 (nonaromatic ring conformer: 97.38626178493591 kcal/mol)

>  <smiles>  (3) 
COc1cc(NC(=O)COC(=O)C2CCC2)cc(OC)c1

>  <score_type>  (3) 
oracle

>  <origin>  (3) 
adg

>  <m_score__min__energy>  (3) 
-7.8399999999999999

>  <m_primary>  (3) 
energy

$$$$
3:0
     RDKit          3D

 53 53  0  0  0  0  0  0  0  0999 V2000
   -1.8630   22.9200  -29.6560 C   0  0  0  0  0  0  0  0  0  0  0  0
   -2.3400   23.9670  -28.6550 C   0  0  0  0  0  0  0  0  0  0  0  0
   -3.7980   23.8730  -28.4520 N   0  0  0  0  0  0  0  0  0  0  0  0
   -4.2440   24.4360  -27.1590 C   0  0  0  0  0  0  0  0  0  0  0  0
   -3.1200   25.0680  -26.3300 C   0  0  0  0  0  0  0  0  0  0  0  0
   -4.7440   24.4490  -29.8180 S   0  0  0  0  0  0  0  0  0  0  0  0
   -5.8540   25.3240  -29.3060 O   0  0  0  0  0  0  0  0  0  0  0  0
   -3.8760   25.2990  -30.7030 O   0  0  0  0  0  0  0  0  0  0  0  0
   -5.4640   23.1590  -30.7950 C   0  0  0  0  0  0  0  0  0  0  0  0
   -4.8630   21.8950  -30.8610 C   0  0  0  0  0  0  0  0  0  0  0  0
   -5.4180   20.8860  -31.6540 C   0  0  0  0  0  0  0  0  0  0  0  0
   -6.5670   21.1350  -32.4250 C   0  0  0  0  0  0  0  0  0  0  0  0
   -7.1530   20.0880  -33.2290 N   0  0  0  0  0  0  0  0  0  0  0  0
   -8.2580   19.4620  -32.5390 C   0  0  0  0  0  0  0  0  0  0  0  0
   -9.4620   20.3940  -31.9210 S   0  0  0  0  0  0  0  0  0  0  0  0
   -8.3340   18.0360  -32.3670 N   0  0  0  0  0  0  0  0  0  0  0  0
   -7.2920   17.1120  -32.8210 C   0  0  0  0  0  0  0  0  0  0  0  0
   -6.0570   17.1600  -31.9110 C   0  0  0  0  0  0  0  0  0  0  0  0
   -4.7550   17.3240  -32.7140 C   0  0  0  0  0  0  0  0  0  0  0  0
   -4.8890   18.3950  -33.7280 N   0  0  0  0  0  0  0  0  0  0  0  0
   -5.1340   17.8030  -35.0530 C   0  0  0  0  0  0  0  0  0  0  0  0
   -3.6700   19.2240  -33.7860 C   0  0  0  0  0  0  0  0  0  0  0  0
   -7.1670   22.4060  -32.3530 C   0  0  0  0  0  0  0  0  0  0  0  0
   -6.6080   23.4130  -31.5630 C   0  0  0  0  0  0  0  0  0  0  0  0
   -1.4661   22.0488  -29.1143 H   0  0  0  0  0  0  0  0  0  0  0  0
   -2.7067   22.6056  -30.2879 H   0  0  0  0  0  0  0  0  0  0  0  0
   -1.0721   23.3504  -30.2879 H   0  0  0  0  0  0  0  0  0  0  0  0
   -1.8310   23.8046  -27.6935 H   0  0  0  0  0  0  0  0  0  0  0  0
   -2.1031   24.9658  -29.0503 H   0  0  0  0  0  0  0  0  0  0  0  0
   -5.0003   25.2087  -27.3613 H   0  0  0  0  0  0  0  0  0  0  0  0
   -4.6407   23.5973  -26.5680 H   0  0  0  0  0  0  0  0  0  0  0  0
   -3.3400   24.9443  -25.2594 H   0  0  0  0  0  0  0  0  0  0  0  0
   -2.1665   24.5737  -26.5679 H   0  0  0  0  0  0  0  0  0  0  0  0
   -3.0469   26.1395  -26.5679 H   0  0  0  0  0  0  0  0  0  0  0  0
   -3.9477   21.6950  -30.2846 H   0  0  0  0  0  0  0  0  0  0  0  0
   -4.9521   19.8898  -31.6748 H   0  0  0  0  0  0  0  0  0  0  0  0
   -6.4100   19.3790  -33.4400 H   0  0  0  0  0  0  0  0  0  0  0  0
   -7.4880   20.4560  -34.1500 H   0  0  0  0  0  0  0  0  0  0  0  0
   -9.1620   17.6550  -31.8550 H   0  0  0  0  0  0  0  0  0  0  0  0
   -7.6968   16.0892  -32.8194 H   0  0  0  0  0  0  0  0  0  0  0  0
   -6.9844   17.4118  -33.8337 H   0  0  0  0  0  0  0  0  0  0  0  0
   -6.1577   18.0102  -31.2203 H   0  0  0  0  0  0  0  0  0  0  0  0
   -6.0009   16.2073  -31.3640 H   0  0  0  0  0  0  0  0  0  0  0  0
   -3.9371   17.5812  -32.0248 H   0  0  0  0  0  0  0  0  0  0  0  0
   -4.5398   16.3769  -33.2305 H   0  0  0  0  0  0  0  0  0  0  0  0
   -5.5521   16.7928  -34.9316 H   0  0  0  0  0  0  0  0  0  0  0  0
   -5.8464   18.4303  -35.6088 H   0  0  0  0  0  0  0  0  0  0  0  0
   -4.1866   17.7434  -35.6088 H   0  0  0  0  0  0  0  0  0  0  0  0
   -3.3333   19.4530  -32.7641 H   0  0  0  0  0  0  0  0  0  0  0  0
   -2.8788   18.6759  -34.3186 H   0  0  0  0  0  0  0  0  0  0  0  0
   -3.8890   20.1613  -34.3186 H   0  0  0  0  0  0  0  0  0  0  0  0
   -8.0850   22.6082  -32.9244 H   0  0  0  0  0  0  0  0  0  0  0  0
   -7.0687   24.4117  -31.5436 H   0  0  0  0  0  0  0  0  0  0  0  0
  1  2  1  0
  2  3  1  0
  3  4  1  0
  4  5  1  0
  3  6  1  0
  6  7  2  0
  6  8  2  0
  6  9  1  0
  9 10  2  0
 10 11  1  0
 11 12  2  0
 12 13  1  0
 13 14  1  0
 14 15  2  0
 14 16  1  0
 16 17  1  0
 17 18  1  0
 18 19  1  0
 19 20  1  0
 20 21  1  0
 20 22  1  0
 12 23  1  0
 23 24  2  0
 24  9  1  0
  1 25  1  0
  1 26  1  0
  1 27  1  0
  2 28  1  0
  2 29  1  0
  4 30  1  0
  4 31  1  0
  5 32  1  0
  5 33  1  0
  5 34  1  0
 10 35  1  0
 11 36  1  0
 13 37  1  0
 13 38  1  0
 16 39  1  0
 17 40  1  0
 17 41  1  0
 18 42  1  0
 18 43  1  0
 19 44  1  0
 19 45  1  0
 21 46  1  0
 21 47  1  0
 21 48  1  0
 22 49  1  0
 22 50  1  0
 22 51  1  0
 23 52  1  0
 24 53  1  0
M  CHG  1  13   1
M  END
>  <UniqueID>  (4) 
4

>  <SMILES>  (4) 
CCN(CC)S(=O)(=O)c1ccc([NH2+]C(=S)NCCCN(C)C)cc1

>  <Energy>  (4) 
48.45567608549827

>  <Genealogy>  (4) 
CCN(CC)S(=O)(=O)c1ccc([NH2+]C(=S)NCCCN(C)C)cc1 (protonated)
CCN(CC)S(=O)(=O)c1ccc([NH2+]C(=S)NCCCN(C)C)cc1 (3D coordinates assigned)
CCN(CC)S(=O)(=O)c1ccc([NH2+]C(=S)NCCCN(C)C)cc1 (optimized conformer: 48.45567608549827 kcal/mol)

>  <smiles>  (4) 
CCN(CC)S(=O)(=O)c1ccc(NC(=S)NCCCN(C)C)cc1

>  <score_type>  (4) 
oracle

>  <origin>  (4) 
adg

>  <m_score__min__energy>  (4) 
-7.46

>  <m_primary>  (4) 
energy

$$$$
4:0
     RDKit          3D

 62 65  0  0  0  0  0  0  0  0999 V2000
   -0.9160   26.6110  -24.1760 C   0  0  0  0  0  0  0  0  0  0  0  0
    0.5220   26.3100  -24.5930 C   0  0  0  0  0  0  0  0  0  0  0  0
    0.8050   24.8620  -24.4560 N   0  0  0  0  0  0  0  0  0  0  0  0
   -0.4470   24.0700  -24.4420 C   0  0  0  0  0  0  0  0  0  0  0  0
   -0.2200   22.7150  -25.1050 C   0  0  0  0  0  0  0  0  0  0  0  0
    1.7430   24.3840  -25.5010 C   0  0  0  0  0  0  0  0  0  0  0  0
    1.6170   25.2560  -26.7550 C   0  0  0  0  0  0  0  0  0  0  0  0
    1.0870   24.5190  -27.8560 O   0  0  0  0  0  0  0  0  0  0  0  0
   -0.2710   24.4300  -28.2040 C   0  0  0  0  0  0  0  0  0  0  0  0
   -1.2910   25.0540  -27.4590 C   0  0  0  0  0  0  0  0  0  0  0  0
   -2.6280   24.9250  -27.8450 C   0  0  0  0  0  0  0  0  0  0  0  0
   -2.9670   24.1750  -28.9840 C   0  0  0  0  0  0  0  0  0  0  0  0
   -4.2970   24.0110  -29.4050 C   0  0  0  0  0  0  0  0  0  0  0  0
   -5.2400   24.5270  -28.7430 O   0  0  0  0  0  0  0  0  0  0  0  0
   -4.5750   23.2530  -30.5590 C   0  0  0  0  0  0  0  0  0  0  0  0
   -5.9770   23.0600  -31.0100 C   0  0  0  0  0  0  0  0  0  0  0  0
   -6.4250   23.6550  -32.2020 C   0  0  0  0  0  0  0  0  0  0  0  0
   -7.7410   23.4680  -32.6340 C   0  0  0  0  0  0  0  0  0  0  0  0
   -8.6240   22.6960  -31.8760 C   0  0  0  0  0  0  0  0  0  0  0  0
   -9.8990   22.5110  -32.2990 F   0  0  0  0  0  0  0  0  0  0  0  0
   -8.1950   22.1180  -30.6780 C   0  0  0  0  0  0  0  0  0  0  0  0
   -6.8800   22.3050  -30.2410 C   0  0  0  0  0  0  0  0  0  0  0  0
   -3.4860   22.6810  -31.2570 C   0  0  0  0  0  0  0  0  0  0  0  0
   -3.7100   21.7290  -32.7690 S   0  0  0  0  0  0  0  0  0  0  0  0
   -4.1000   20.1620  -31.9170 C   0  0  0  0  0  0  0  0  0  0  0  0
   -5.5170   19.7360  -32.1820 C   0  0  0  0  0  0  0  0  0  0  0  0
   -6.0840   18.6760  -31.4550 C   0  0  0  0  0  0  0  0  0  0  0  0
   -7.3960   18.2700  -31.7100 C   0  0  0  0  0  0  0  0  0  0  0  0
   -8.1530   18.9180  -32.6900 C   0  0  0  0  0  0  0  0  0  0  0  0
   -7.5990   19.9780  -33.4130 C   0  0  0  0  0  0  0  0  0  0  0  0
   -6.2870   20.3910  -33.1580 C   0  0  0  0  0  0  0  0  0  0  0  0
   -2.2430   22.8450  -30.8150 O   0  0  0  0  0  0  0  0  0  0  0  0
   -1.9470   23.5540  -29.7330 C   0  0  0  0  0  0  0  0  0  0  0  0
   -0.6110   23.6860  -29.3390 C   0  0  0  0  0  0  0  0  0  0  0  0
   -0.9841   26.6252  -23.0782 H   0  0  0  0  0  0  0  0  0  0  0  0
   -1.2158   27.5914  -24.5747 H   0  0  0  0  0  0  0  0  0  0  0  0
   -1.5838   25.8332  -24.5747 H   0  0  0  0  0  0  0  0  0  0  0  0
    0.6662   26.6103  -25.6414 H   0  0  0  0  0  0  0  0  0  0  0  0
    1.2082   26.8718  -23.9422 H   0  0  0  0  0  0  0  0  0  0  0  0
   -0.7681   23.9161  -23.4012 H   0  0  0  0  0  0  0  0  0  0  0  0
   -1.2237   24.6161  -24.9975 H   0  0  0  0  0  0  0  0  0  0  0  0
   -0.0910   21.9448  -24.3303 H   0  0  0  0  0  0  0  0  0  0  0  0
   -1.0885   22.4632  -25.7314 H   0  0  0  0  0  0  0  0  0  0  0  0
    0.6831   22.7600  -25.7314 H   0  0  0  0  0  0  0  0  0  0  0  0
    2.7732   24.4406  -25.1196 H   0  0  0  0  0  0  0  0  0  0  0  0
    1.4979   23.3430  -25.7583 H   0  0  0  0  0  0  0  0  0  0  0  0
    0.9481   26.1014  -26.5362 H   0  0  0  0  0  0  0  0  0  0  0  0
    2.6213   25.6107  -27.0299 H   0  0  0  0  0  0  0  0  0  0  0  0
   -1.0336   25.6461  -26.5684 H   0  0  0  0  0  0  0  0  0  0  0  0
   -3.4181   25.4125  -27.2549 H   0  0  0  0  0  0  0  0  0  0  0  0
   -5.7360   24.2713  -32.7982 H   0  0  0  0  0  0  0  0  0  0  0  0
   -8.0817   23.9296  -33.5725 H   0  0  0  0  0  0  0  0  0  0  0  0
   -8.8927   21.5152  -30.0781 H   0  0  0  0  0  0  0  0  0  0  0  0
   -6.5504   21.8592  -29.2909 H   0  0  0  0  0  0  0  0  0  0  0  0
   -3.4168   19.3785  -32.2767 H   0  0  0  0  0  0  0  0  0  0  0  0
   -3.9795   20.3153  -30.8344 H   0  0  0  0  0  0  0  0  0  0  0  0
   -5.4925   18.1637  -30.6819 H   0  0  0  0  0  0  0  0  0  0  0  0
   -7.8342   17.4386  -31.1384 H   0  0  0  0  0  0  0  0  0  0  0  0
   -9.1845   18.5938  -32.8922 H   0  0  0  0  0  0  0  0  0  0  0  0
   -8.1955   20.4883  -34.1836 H   0  0  0  0  0  0  0  0  0  0  0  0
   -5.8568   21.2310  -33.7232 H   0  0  0  0  0  0  0  0  0  0  0  0
    0.1805   23.1996  -29.9279 H   0  0  0  0  0  0  0  0  0  0  0  0
  1  2  1  0
  2  3  1  0
  3  4  1  0
  4  5  1  0
  3  6  1  0
  6  7  1  0
  7  8  1  0
  8  9  1  0
  9 10  2  0
 10 11  1  0
 11 12  2  0
 12 13  1  0
 13 14  2  0
 13 15  1  0
 15 16  1  0
 16 17  2  0
 17 18  1  0
 18 19  2  0
 19 20  1  0
 19 21  1  0
 21 22  2  0
 15 23  2  0
 23 24  1  0
 24 25  1  0
 25 26  1  0
 26 27  2  0
 27 28  1  0
 28 29  2  0
 29 30  1  0
 30 31  2  0
 23 32  1  0
 32 33  1  0
 33 34  2  0
 34  9  1  0
 33 12  1  0
 22 16  1  0
 31 26  1  0
  1 35  1  0
  1 36  1  0
  1 37  1  0
  2 38  1  0
  2 39  1  0
  4 40  1  0
  4 41  1  0
  5 42  1  0
  5 43  1  0
  5 44  1  0
  6 45  1  0
  6 46  1  0
  7 47  1  0
  7 48  1  0
 10 49  1  0
 11 50  1  0
 17 51  1  0
 18 52  1  0
 21 53  1  0
 22 54  1  0
 25 55  1  0
 25 56  1  0
 27 57  1  0
 28 58  1  0
 29 59  1  0
 30 60  1  0
 31 61  1  0
 34 62  1  0
M  END
>  <UniqueID>  (5) 
5

>  <SMILES>  (5) 
CCN(CC)CCOc1ccc2c(=O)c(-c3ccc(F)cc3)c(SCc3ccccc3)oc2c1

>  <Energy>  (5) 
69.55690097934381

>  <Genealogy>  (5) 
CCN(CC)CCOc1ccc2c(=O)c(-c3ccc(F)cc3)c(SCc3ccccc3)oc2c1 (3D coordinates assigned)
CCN(CC)CCOc1ccc2c(=O)c(-c3ccc(F)cc3)c(SCc3ccccc3)oc2c1 (optimized conformer: 69.55690097934381 kcal/mol)

>  <smiles>  (5) 
CCN(CC)CCOc1ccc2c(=O)c(-c3ccc(F)cc3)c(SCc3ccccc3)oc2c1

>  <score_type>  (5) 
oracle

>  <origin>  (5) 
adg

>  <m_score__min__energy>  (5) 
-9.2200000000000006

>  <m_primary>  (5) 
energy

$$$$
5:0
     RDKit          3D

 59 61  0  0  0  0  0  0  0  0999 V2000
   -1.4350   21.6310  -30.0850 C   0  0  0  0  0  0  0  0  0  0  0  0
   -2.2000   20.4850  -29.4070 C   0  0  0  0  0  0  0  0  0  0  0  0
   -2.8020   20.8340  -28.0900 N   0  0  0  0  0  0  0  0  0  0  0  0
   -2.0970   20.1320  -26.9830 C   0  0  0  0  0  0  0  0  0  0  0  0
   -2.8850   18.9240  -26.4560 C   0  0  0  0  0  0  0  0  0  0  0  0
   -2.8560   22.3010  -27.8330 C   0  0  0  0  0  0  0  0  0  0  0  0
   -4.2350   22.9520  -28.0920 C   0  0  0  0  0  0  0  0  0  0  0  0
   -4.1990   24.1180  -29.1030 C   0  0  0  0  0  0  0  0  0  0  0  0
   -4.3390   23.6350  -30.5520 C   0  0  0  0  0  0  0  0  0  0  0  0
   -5.7910   23.6860  -31.0290 C   0  0  0  0  0  0  0  0  0  0  0  0
   -5.9130   23.0590  -32.3460 N   0  0  0  0  0  0  0  0  0  0  0  0
   -5.8890   21.6270  -32.4840 C   0  0  0  0  0  0  0  0  0  0  0  0
   -4.7020   20.9740  -32.8630 C   0  0  0  0  0  0  0  0  0  0  0  0
   -3.5000   21.6970  -33.0280 C   0  0  0  0  0  0  0  0  0  0  0  0
   -2.3420   21.0630  -33.4680 C   0  0  0  0  0  0  0  0  0  0  0  0
   -2.3600   19.7040  -33.7550 C   0  0  0  0  0  0  0  0  0  0  0  0
   -3.5250   18.9620  -33.5670 C   0  0  0  0  0  0  0  0  0  0  0  0
   -4.7090   19.5690  -33.0730 C   0  0  0  0  0  0  0  0  0  0  0  0
   -5.8500   18.8320  -32.8130 N   0  0  0  0  0  0  0  0  0  0  0  0
   -5.7800   17.3550  -32.7620 C   0  0  0  0  0  0  0  0  0  0  0  0
   -7.0480   19.4770  -32.5610 C   0  0  0  0  0  0  0  0  0  0  0  0
   -8.2820   18.7750  -32.5460 C   0  0  0  0  0  0  0  0  0  0  0  0
   -9.4760   19.4250  -32.2400 C   0  0  0  0  0  0  0  0  0  0  0  0
   -9.4780   20.7840  -31.9500 C   0  0  0  0  0  0  0  0  0  0  0  0
   -8.2910   21.5080  -31.9970 C   0  0  0  0  0  0  0  0  0  0  0  0
   -7.0720   20.8790  -32.3350 C   0  0  0  0  0  0  0  0  0  0  0  0
   -0.9981   22.2855  -29.3163 H   0  0  0  0  0  0  0  0  0  0  0  0
   -0.6324   21.2156  -30.7122 H   0  0  0  0  0  0  0  0  0  0  0  0
   -2.1264   22.2129  -30.7122 H   0  0  0  0  0  0  0  0  0  0  0  0
   -3.0095   20.1673  -30.0807 H   0  0  0  0  0  0  0  0  0  0  0  0
   -1.4636   19.6914  -29.2122 H   0  0  0  0  0  0  0  0  0  0  0  0
   -3.7830   20.4730  -28.1090 H   0  0  0  0  0  0  0  0  0  0  0  0
   -1.1212   19.7829  -27.3516 H   0  0  0  0  0  0  0  0  0  0  0  0
   -1.9845   20.8453  -26.1532 H   0  0  0  0  0  0  0  0  0  0  0  0
   -2.8787   18.9337  -25.3561 H   0  0  0  0  0  0  0  0  0  0  0  0
   -3.9226   18.9772  -26.8172 H   0  0  0  0  0  0  0  0  0  0  0  0
   -2.4181   17.9958  -26.8172 H   0  0  0  0  0  0  0  0  0  0  0  0
   -2.5873   22.4746  -26.7805 H   0  0  0  0  0  0  0  0  0  0  0  0
   -2.1546   22.7666  -28.5411 H   0  0  0  0  0  0  0  0  0  0  0  0
   -4.9151   22.1791  -28.4795 H   0  0  0  0  0  0  0  0  0  0  0  0
   -4.5736   23.3723  -27.1335 H   0  0  0  0  0  0  0  0  0  0  0  0
   -5.0263   24.8072  -28.8781 H   0  0  0  0  0  0  0  0  0  0  0  0
   -3.2236   24.6174  -29.0069 H   0  0  0  0  0  0  0  0  0  0  0  0
   -3.7276   24.2778  -31.2024 H   0  0  0  0  0  0  0  0  0  0  0  0
   -4.0000   22.5896  -30.5986 H   0  0  0  0  0  0  0  0  0  0  0  0
   -6.4284   23.1495  -30.3108 H   0  0  0  0  0  0  0  0  0  0  0  0
   -6.1083   24.7368  -31.1011 H   0  0  0  0  0  0  0  0  0  0  0  0
   -5.7080   23.6450  -33.1870 H   0  0  0  0  0  0  0  0  0  0  0  0
   -3.4789   22.7742  -32.8060 H   0  0  0  0  0  0  0  0  0  0  0  0
   -1.4121   21.6382  -33.5886 H   0  0  0  0  0  0  0  0  0  0  0  0
   -1.4515   19.2115  -34.1320 H   0  0  0  0  0  0  0  0  0  0  0  0
   -3.5267   17.8882  -33.8055 H   0  0  0  0  0  0  0  0  0  0  0  0
   -5.7643   17.0247  -31.7129 H   0  0  0  0  0  0  0  0  0  0  0  0
   -6.6589   16.9286  -33.2676 H   0  0  0  0  0  0  0  0  0  0  0  0
   -4.8647   17.0136  -33.2676 H   0  0  0  0  0  0  0  0  0  0  0  0
   -8.2958   17.7002  -32.7798 H   0  0  0  0  0  0  0  0  0  0  0  0
  -10.4200   18.8605  -32.2280 H   0  0  0  0  0  0  0  0  0  0  0  0
  -10.4188   21.2877  -31.6831 H   0  0  0  0  0  0  0  0  0  0  0  0
   -8.3017   22.5839  -31.7681 H   0  0  0  0  0  0  0  0  0  0  0  0
  1  2  1  0
  2  3  1  0
  3  4  1  0
  4  5  1  0
  3  6  1  0
  6  7  1  0
  7  8  1  0
  8  9  1  0
  9 10  1  0
 10 11  1  0
 11 12  1  0
 12 13  2  0
 13 14  1  0
 14 15  2  0
 15 16  1  0
 16 17  2  0
 17 18  1  0
 18 19  2  0
 19 20  1  0
 19 21  1  0
 21 22  2  0
 22 23  1  0
 23 24  2  0
 24 25  1  0
 25 26  2  0
 26 12  1  0
 18 13  1  0
 26 21  1  0
  1 27  1  0
  1 28  1  0
  1 29  1  0
  2 30  1  0
  2 31  1  0
  3 32  1  0
  4 33  1  0
  4 34  1  0
  5 35  1  0
  5 36  1  0
  5 37  1  0
  6 38  1  0
  6 39  1  0
  7 40  1  0
  7 41  1  0
  8 42  1  0
  8 43  1  0
  9 44  1  0
  9 45  1  0
 10 46  1  0
 10 47  1  0
 11 48  1  0
 14 49  1  0
 15 50  1  0
 16 51  1  0
 17 52  1  0
 20 53  1  0
 20 54  1  0
 20 55  1  0
 22 56  1  0
 23 57  1  0
 24 58  1  0
 25 59  1  0
M  CHG  2   3   1  19   1
M  END
>  <UniqueID>  (6) 
6

>  <SMILES>  (6) 
CC[NH+](CC)CCCCCNc1c2ccccc2[n+](C)c2ccccc12

>  <Energy>  (6) 
84.02587531066517

>  <Genealogy>  (6) 
CC[NH+](CC)CCCCCNc1c2ccccc2[n+](C)c2ccccc12 (protonated)
CC[NH+](CC)CCCCCNc1c2ccccc2[n+](C)c2ccccc12 (3D coordinates assigned)
CC[NH+](CC)CCCCCNc1c2ccccc2[n+](C)c2ccccc12 (optimized conformer: 84.02587531066517 kcal/mol)

>  <smiles>  (6) 
CCN(CC)CCCCCNc1c2ccccc2[n+](C)c2ccccc12

>  <score_type>  (6) 
oracle

>  <origin>  (6) 
adg

>  <m_score__min__energy>  (6) 
-7.6399999999999997

>  <m_primary>  (6) 
energy

$$$$
6:0
     RDKit          3D

 38 40  0  0  0  0  0  0  0  0999 V2000
   -1.9930   25.2810  -29.3180 O   0  0  0  0  0  0  0  0  0  0  0  0
   -2.9050   24.5730  -28.8100 C   0  0  0  0  0  0  0  0  0  0  0  0
   -2.7890   24.1350  -27.3670 C   0  0  0  0  0  0  0  0  0  0  0  0
   -2.9380   25.2850  -26.3550 C   0  0  0  0  0  0  0  0  0  0  0  0
   -1.7560   25.3950  -25.4240 C   0  0  0  0  0  0  0  0  0  0  0  0
   -1.5670   26.5420  -24.6380 C   0  0  0  0  0  0  0  0  0  0  0  0
   -0.4640   26.6190  -23.7840 C   0  0  0  0  0  0  0  0  0  0  0  0
    0.4230   25.5900  -23.7160 N   0  0  0  0  0  0  0  0  0  0  0  0
    0.2670   24.4680  -24.4720 C   0  0  0  0  0  0  0  0  0  0  0  0
   -0.8220   24.3510  -25.3380 C   0  0  0  0  0  0  0  0  0  0  0  0
   -4.0650   24.2390  -29.6050 N   0  0  0  0  0  0  0  0  0  0  0  0
   -5.3590   24.8950  -29.3400 C   0  0  0  0  0  0  0  0  0  0  0  0
   -6.2520   24.9180  -30.5830 C   0  0  0  0  0  0  0  0  0  0  0  0
   -6.3620   23.5410  -31.1600 C   0  0  0  0  0  0  0  0  0  0  0  0
   -7.5580   23.0810  -31.7270 C   0  0  0  0  0  0  0  0  0  0  0  0
   -7.6140   21.8030  -32.2860 C   0  0  0  0  0  0  0  0  0  0  0  0
   -6.4680   21.0050  -32.2850 C   0  0  0  0  0  0  0  0  0  0  0  0
   -5.3110   21.4750  -31.7460 N   0  0  0  0  0  0  0  0  0  0  0  0
   -5.2320   22.7110  -31.1800 C   0  0  0  0  0  0  0  0  0  0  0  0
   -3.9150   23.2030  -30.6460 C   0  0  0  0  0  0  0  0  0  0  0  0
   -3.5748   23.3920  -27.1658 H   0  0  0  0  0  0  0  0  0  0  0  0
   -1.7772   23.7233  -27.2375 H   0  0  0  0  0  0  0  0  0  0  0  0
   -3.0399   26.2302  -26.9083 H   0  0  0  0  0  0  0  0  0  0  0  0
   -3.8270   25.0762  -25.7417 H   0  0  0  0  0  0  0  0  0  0  0  0
   -2.2829   27.3753  -24.6939 H   0  0  0  0  0  0  0  0  0  0  0  0
   -0.3123   27.5151  -23.1643 H   0  0  0  0  0  0  0  0  0  0  0  0
    1.2430   25.6620  -23.0730 H   0  0  0  0  0  0  0  0  0  0  0  0
    1.0009   23.6518  -24.4002 H   0  0  0  0  0  0  0  0  0  0  0  0
   -0.9472   23.4453  -25.9496 H   0  0  0  0  0  0  0  0  0  0  0  0
   -5.8779   24.3476  -28.5393 H   0  0  0  0  0  0  0  0  0  0  0  0
   -5.1596   25.9355  -29.0440 H   0  0  0  0  0  0  0  0  0  0  0  0
   -7.2537   25.2777  -30.3052 H   0  0  0  0  0  0  0  0  0  0  0  0
   -5.8092   25.5896  -31.3333 H   0  0  0  0  0  0  0  0  0  0  0  0
   -8.4499   23.7248  -31.7316 H   0  0  0  0  0  0  0  0  0  0  0  0
   -8.5514   21.4283  -32.7229 H   0  0  0  0  0  0  0  0  0  0  0  0
   -6.5010   19.9954  -32.7205 H   0  0  0  0  0  0  0  0  0  0  0  0
   -3.3706   22.3497  -30.2153 H   0  0  0  0  0  0  0  0  0  0  0  0
   -3.3687   23.6573  -31.4857 H   0  0  0  0  0  0  0  0  0  0  0  0
  1  2  2  0
  2  3  1  0
  3  4  1  0
  4  5  1  0
  5  6  2  0
  6  7  1  0
  7  8  2  0
  8  9  1  0
  9 10  2  0
  2 11  1  0
 11 12  1  0
 12 13  1  0
 13 14  1  0
 14 15  2  0
 15 16  1  0
 16 17  2  0
 17 18  1  0
 18 19  2  0
 19 20  1  0
 10  5  1  0
 20 11  1  0
 19 14  1  0
  3 21  1  0
  3 22  1  0
  4 23  1  0
  4 24  1  0
  6 25  1  0
  7 26  1  0
  8 27  1  0
  9 28  1  0
 10 29  1  0
 12 30  1  0
 12 31  1  0
 13 32  1  0
 13 33  1  0
 15 34  1  0
 16 35  1  0
 17 36  1  0
 20 37  1  0
 20 38  1  0
M  CHG  1   8   1
M  END
>  <UniqueID>  (7) 
7

>  <SMILES>  (7) 
O=C(CCc1cc[nH+]cc1)N1CCc2cccnc2C1

>  <Energy>  (7) 
42.199017114438824

>  <Genealogy>  (7) 
O=C(CCc1cc[nH+]cc1)N1CCc2cccnc2C1 (protonated)
O=C(CCc1cc[nH+]cc1)N1CCc2cccnc2C1 (3D coordinates assigned)
O=C(CCc1cc[nH+]cc1)N1CCc2cccnc2C1 (nonaromatic ring conformer: 42.199017114438824 kcal/mol)

>  <smiles>  (7) 
O=C(CCc1ccncc1)N1CCc2cccnc2C1

>  <score_type>  (7) 
oracle

>  <origin>  (7) 
adg

>  <m_score__min__energy>  (7) 
-7.8300000000000001

>  <m_primary>  (7) 
energy

$$$$
7:0
     RDKit          3D

 58 60  0  0  0  0  0  0  0  0999 V2000
   -5.7410   26.0800  -30.1110 C   0  0  0  0  0  0  0  0  0  0  0  0
   -5.3040   25.2570  -31.2340 N   0  0  0  0  0  0  0  0  0  0  0  0
   -5.7880   23.9220  -31.4800 C   0  0  0  0  0  0  0  0  0  0  0  0
   -7.0840   23.5320  -31.1230 C   0  0  0  0  0  0  0  0  0  0  0  0
   -7.5300   22.2360  -31.3780 C   0  0  0  0  0  0  0  0  0  0  0  0
   -6.6850   21.2730  -31.9810 C   0  0  0  0  0  0  0  0  0  0  0  0
   -5.3830   21.6770  -32.3720 C   0  0  0  0  0  0  0  0  0  0  0  0
   -4.9520   22.9950  -32.1120 C   0  0  0  0  0  0  0  0  0  0  0  0
   -4.5480   20.7680  -33.0460 C   0  0  0  0  0  0  0  0  0  0  0  0
   -3.1970   21.1330  -33.3760 N   0  0  0  0  0  0  0  0  0  0  0  0
   -2.0780   20.7130  -32.5350 C   0  0  0  0  0  0  0  0  0  0  0  0
   -0.7590   21.2370  -33.1050 C   0  0  0  0  0  0  0  0  0  0  0  0
   -0.8290   21.3060  -34.5170 O   0  0  0  0  0  0  0  0  0  0  0  0
    0.3620   20.8310  -35.1160 C   0  0  0  0  0  0  0  0  0  0  0  0
    1.1990   22.0070  -35.6450 C   0  0  0  0  0  0  0  0  0  0  0  0
    0.4760   23.2930  -35.5530 N   0  0  0  0  0  0  0  0  0  0  0  0
    0.9520   24.3610  -36.4560 C   0  0  0  0  0  0  0  0  0  0  0  0
    2.3480   24.8840  -36.0840 C   0  0  0  0  0  0  0  0  0  0  0  0
   -0.0710   25.5000  -36.5740 C   0  0  0  0  0  0  0  0  0  0  0  0
   -5.0630   19.5190  -33.4400 C   0  0  0  0  0  0  0  0  0  0  0  0
   -4.2930   18.6290  -34.2210 C   0  0  0  0  0  0  0  0  0  0  0  0
   -4.8230   17.4120  -34.6420 C   0  0  0  0  0  0  0  0  0  0  0  0
   -6.1250   17.0650  -34.3050 C   0  0  0  0  0  0  0  0  0  0  0  0
   -6.8980   17.9190  -33.5200 C   0  0  0  0  0  0  0  0  0  0  0  0
   -6.3750   19.1480  -33.0390 C   0  0  0  0  0  0  0  0  0  0  0  0
   -7.1090   19.9770  -32.2110 N   0  0  0  0  0  0  0  0  0  0  0  0
   -8.3330   19.4700  -31.5530 C   0  0  0  0  0  0  0  0  0  0  0  0
   -5.4765   25.5819  -29.1666 H   0  0  0  0  0  0  0  0  0  0  0  0
   -5.2447   27.0605  -30.1599 H   0  0  0  0  0  0  0  0  0  0  0  0
   -6.8312   26.2180  -30.1599 H   0  0  0  0  0  0  0  0  0  0  0  0
   -4.5960   25.6660  -31.8860 H   0  0  0  0  0  0  0  0  0  0  0  0
   -7.7564   24.2543  -30.6370 H   0  0  0  0  0  0  0  0  0  0  0  0
   -8.5583   21.9561  -31.1055 H   0  0  0  0  0  0  0  0  0  0  0  0
   -3.9386   23.2999  -32.4121 H   0  0  0  0  0  0  0  0  0  0  0  0
   -2.9870   21.4690  -34.3430 H   0  0  0  0  0  0  0  0  0  0  0  0
   -2.2180   21.1114  -31.5193 H   0  0  0  0  0  0  0  0  0  0  0  0
   -2.0441   19.6139  -32.5076 H   0  0  0  0  0  0  0  0  0  0  0  0
   -0.5625   22.2413  -32.7016 H   0  0  0  0  0  0  0  0  0  0  0  0
    0.0526   20.5517  -32.8192 H   0  0  0  0  0  0  0  0  0  0  0  0
    0.9478   20.2760  -34.3685 H   0  0  0  0  0  0  0  0  0  0  0  0
    0.1012   20.1708  -35.9564 H   0  0  0  0  0  0  0  0  0  0  0  0
    2.1240   22.0776  -35.0539 H   0  0  0  0  0  0  0  0  0  0  0  0
    1.4157   21.8167  -36.7065 H   0  0  0  0  0  0  0  0  0  0  0  0
   -0.5530   23.1590  -35.6920 H   0  0  0  0  0  0  0  0  0  0  0  0
    1.0542   23.9011  -37.4500 H   0  0  0  0  0  0  0  0  0  0  0  0
    2.4460   24.9207  -34.9890 H   0  0  0  0  0  0  0  0  0  0  0  0
    3.1138   24.2118  -36.4983 H   0  0  0  0  0  0  0  0  0  0  0  0
    2.4836   25.8939  -36.4983 H   0  0  0  0  0  0  0  0  0  0  0  0
   -0.3685   25.8313  -35.5682 H   0  0  0  0  0  0  0  0  0  0  0  0
    0.3795   26.3425  -37.1192 H   0  0  0  0  0  0  0  0  0  0  0  0
   -0.9569   25.1422  -37.1192 H   0  0  0  0  0  0  0  0  0  0  0  0
   -3.2640   18.9000  -34.4996 H   0  0  0  0  0  0  0  0  0  0  0  0
   -4.2094   16.7243  -35.2425 H   0  0  0  0  0  0  0  0  0  0  0  0
   -6.5476   16.1130  -34.6588 H   0  0  0  0  0  0  0  0  0  0  0  0
   -7.9308   17.6358  -33.2690 H   0  0  0  0  0  0  0  0  0  0  0  0
   -8.2102   19.5209  -30.4611 H   0  0  0  0  0  0  0  0  0  0  0  0
   -9.1932   20.0858  -31.8543 H   0  0  0  0  0  0  0  0  0  0  0  0
   -8.5058   18.4263  -31.8543 H   0  0  0  0  0  0  0  0  0  0  0  0
  1  2  1  0
  2  3  1  0
  3  4  2  0
  4  5  1  0
  5  6  2  0
  6  7  1  0
  7  8  2  0
  7  9  1  0
  9 10  1  0
 10 11  1  0
 11 12  1  0
 12 13  1  0
 13 14  1  0
 14 15  1  0
 15 16  1  0
 16 17  1  0
 17 18  1  0
 17 19  1  0
  9 20  2  0
 20 21  1  0
 21 22  2  0
 22 23  1  0
 23 24  2  0
 24 25  1  0
 25 26  2  0
 26 27  1  0
  8  3  1  0
 25 20  1  0
 26  6  1  0
  1 28  1  0
  1 29  1  0
  1 30  1  0
  2 31  1  0
  4 32  1  0
  5 33  1  0
  8 34  1  0
 10 35  1  0
 11 36  1  0
 11 37  1  0
 12 38  1  0
 12 39  1  0
 14 40  1  0
 14 41  1  0
 15 42  1  0
 15 43  1  0
 16 44  1  0
 17 45  1  0
 18 46  1  0
 18 47  1  0
 18 48  1  0
 19 49  1  0
 19 50  1  0
 19 51  1  0
 21 52  1  0
 22 53  1  0
 23 54  1  0
 24 55  1  0
 27 56  1  0
 27 57  1  0
 27 58  1  0
M  CHG  1  26   1
M  END
>  <UniqueID>  (8) 
8

>  <SMILES>  (8) 
CNc1ccc2c(c1)c(NCCOCCNC(C)C)c1ccccc1[n+]2C

>  <Energy>  (8) 
84.11203847932771

>  <Genealogy>  (8) 
CNc1ccc2c(c1)c(NCCOCCNC(C)C)c1ccccc1[n+]2C (3D coordinates assigned)
CNc1ccc2c(c1)c(NCCOCCNC(C)C)c1ccccc1[n+]2C (optimized conformer: 84.11203847932771 kcal/mol)

>  <smiles>  (8) 
CNc1ccc2c(c1)c(NCCOCCNC(C)C)c1ccccc1[n+]2C

>  <score_type>  (8) 
oracle

>  <origin>  (8) 
adg

>  <m_score__min__energy>  (8) 
-9.3200000000000003

>  <m_primary>  (8) 
energy

$$$$
8:0
     RDKit          3D

 49 50  0  0  0  0  0  0  0  0999 V2000
   -1.6180   25.7980  -26.7910 C   0  0  0  0  0  0  0  0  0  0  0  0
   -0.9310   26.3410  -28.0390 C   0  0  0  0  0  0  0  0  0  0  0  0
   -1.4220   25.6880  -29.2110 O   0  0  0  0  0  0  0  0  0  0  0  0
   -1.8990   24.3670  -29.2760 C   0  0  0  0  0  0  0  0  0  0  0  0
   -1.1500   23.2680  -28.8070 C   0  0  0  0  0  0  0  0  0  0  0  0
   -1.6650   21.9740  -28.8950 C   0  0  0  0  0  0  0  0  0  0  0  0
   -2.9260   21.7590  -29.4500 C   0  0  0  0  0  0  0  0  0  0  0  0
   -3.6750   22.8380  -29.9210 C   0  0  0  0  0  0  0  0  0  0  0  0
   -3.1690   24.1510  -29.8360 C   0  0  0  0  0  0  0  0  0  0  0  0
   -3.8880   25.2660  -30.3010 O   0  0  0  0  0  0  0  0  0  0  0  0
   -5.3070   25.3450  -30.4570 C   0  0  0  0  0  0  0  0  0  0  0  0
   -5.7740   24.4090  -31.5890 C   0  0  0  0  0  0  0  0  0  0  0  0
   -6.4580   23.1690  -31.1320 N   0  0  1  0  0  0  0  0  0  0  0  0
   -6.9130   23.2740  -29.7330 C   0  0  0  0  0  0  0  0  0  0  0  0
   -7.5770   22.7350  -32.0050 C   0  0  0  0  0  0  0  0  0  0  0  0
   -7.7110   21.2250  -32.0860 C   0  0  0  0  0  0  0  0  0  0  0  0
   -8.9920   20.6540  -32.1990 C   0  0  0  0  0  0  0  0  0  0  0  0
   -9.1510   19.2690  -32.2580 C   0  0  0  0  0  0  0  0  0  0  0  0
   -8.0330   18.4360  -32.2190 C   0  0  0  0  0  0  0  0  0  0  0  0
   -6.7530   18.9840  -32.1360 C   0  0  0  0  0  0  0  0  0  0  0  0
   -6.5760   20.3820  -32.0800 C   0  0  0  0  0  0  0  0  0  0  0  0
   -5.2940   20.9560  -32.0180 O   0  0  0  0  0  0  0  0  0  0  0  0
   -4.2540   20.7190  -32.9610 C   0  0  0  0  0  0  0  0  0  0  0  0
   -1.1172   26.1938  -25.8952 H   0  0  0  0  0  0  0  0  0  0  0  0
   -2.6732   26.1088  -26.7887 H   0  0  0  0  0  0  0  0  0  0  0  0
   -1.5593   24.6996  -26.7887 H   0  0  0  0  0  0  0  0  0  0  0  0
   -1.1271   27.4205  -28.1183 H   0  0  0  0  0  0  0  0  0  0  0  0
    0.1499   26.1542  -27.9570 H   0  0  0  0  0  0  0  0  0  0  0  0
   -0.1542   23.4317  -28.3693 H   0  0  0  0  0  0  0  0  0  0  0  0
   -1.0751   21.1221  -28.5259 H   0  0  0  0  0  0  0  0  0  0  0  0
   -3.3305   20.7383  -29.5166 H   0  0  0  0  0  0  0  0  0  0  0  0
   -4.6675   22.6628  -30.3618 H   0  0  0  0  0  0  0  0  0  0  0  0
   -5.7926   25.0468  -29.5161 H   0  0  0  0  0  0  0  0  0  0  0  0
   -5.5818   26.3792  -30.7118 H   0  0  0  0  0  0  0  0  0  0  0  0
   -6.4718   24.9684  -32.2294 H   0  0  0  0  0  0  0  0  0  0  0  0
   -4.8651   24.0844  -32.1168 H   0  0  0  0  0  0  0  0  0  0  0  0
   -5.7320   22.4130  -31.1380 H   0  0  0  0  0  0  0  0  0  0  0  0
   -6.0676   23.0789  -29.0568 H   0  0  0  0  0  0  0  0  0  0  0  0
   -7.3034   24.2859  -29.5494 H   0  0  0  0  0  0  0  0  0  0  0  0
   -7.7073   22.5356  -29.5494 H   0  0  0  0  0  0  0  0  0  0  0  0
   -8.5146   23.1498  -31.6063 H   0  0  0  0  0  0  0  0  0  0  0  0
   -7.3659   23.1028  -33.0200 H   0  0  0  0  0  0  0  0  0  0  0  0
   -9.8770   21.3060  -32.2413 H   0  0  0  0  0  0  0  0  0  0  0  0
  -10.1584   18.8340  -32.3353 H   0  0  0  0  0  0  0  0  0  0  0  0
   -8.1610   17.3440  -32.2538 H   0  0  0  0  0  0  0  0  0  0  0  0
   -5.8755   18.3211  -32.1141 H   0  0  0  0  0  0  0  0  0  0  0  0
   -3.3164   20.5053  -32.4269 H   0  0  0  0  0  0  0  0  0  0  0  0
   -4.5206   19.8586  -33.5924 H   0  0  0  0  0  0  0  0  0  0  0  0
   -4.1215   21.6100  -33.5924 H   0  0  0  0  0  0  0  0  0  0  0  0
  1  2  1  0
  2  3  1  0
  3  4  1  0
  4  5  2  0
  5  6  1  0
  6  7  2  0
  7  8  1  0
  8  9  2  0
  9 10  1  0
 10 11  1  0
 11 12  1  0
 12 13  1  0
 13 14  1  0
 13 15  1  0
 15 16  1  0
 16 17  2  0
 17 18  1  0
 18 19  2  0
 19 20  1  0
 20 21  2  0
 21 22  1  0
 22 23  1  0
  9  4  1  0
 21 16  1  0
  1 24  1  0
  1 25  1  0
  1 26  1  0
  2 27  1  0
  2 28  1  0
  5 29  1  0
  6 30  1  0
  7 31  1  0
  8 32  1  0
 11 33  1  0
 11 34  1  0
 12 35  1  0
 12 36  1  0
 13 37  1  1
 14 38  1  0
 14 39  1  0
 14 40  1  0
 15 41  1  0
 15 42  1  0
 17 43  1  0
 18 44  1  0
 19 45  1  0
 20 46  1  0
 23 47  1  0
 23 48  1  0
 23 49  1  0
M  CHG  1  13   1
M  END
>  <UniqueID>  (9) 
9

>  <SMILES>  (9) 
CCOc1ccccc1OCC[N@@H+](C)Cc1ccccc1OC

>  <Energy>  (9) 
49.22404157660145

>  <Genealogy>  (9) 
CCOc1ccccc1OCC[NH+](C)Cc1ccccc1OC (protonated)
CCOc1ccccc1OCC[N@@H+](C)Cc1ccccc1OC (chirality)
CCOc1ccccc1OCC[N@@H+](C)Cc1ccccc1OC (3D coordinates assigned)
CCOc1ccccc1OCC[N@@H+](C)Cc1ccccc1OC (optimized conformer: 49.22404157660145 kcal/mol)

>  <smiles>  (9) 
CCOc1ccccc1OCCN(C)Cc1ccccc1OC

>  <score_type>  (9) 
oracle

>  <origin>  (9) 
adg

>  <m_score__min__energy>  (9) 
-7.2699999999999996

>  <m_primary>  (9) 
energy

$$$$
9:0
     RDKit          3D

 60 61  0  0  0  0  0  0  0  0999 V2000
   -3.3400   24.5550  -27.3800 C   0  0  0  0  0  0  0  0  0  0  0  0
   -2.3290   24.8930  -28.4680 C   0  0  0  0  0  0  0  0  0  0  0  0
   -2.9850   24.9080  -29.7360 O   0  0  0  0  0  0  0  0  0  0  0  0
   -4.3060   24.5010  -29.9610 C   0  0  0  0  0  0  0  0  0  0  0  0
   -5.3380   25.4390  -30.1700 C   0  0  0  0  0  0  0  0  0  0  0  0
   -6.6440   25.0120  -30.4150 C   0  0  0  0  0  0  0  0  0  0  0  0
   -6.9380   23.6500  -30.4560 C   0  0  0  0  0  0  0  0  0  0  0  0
   -5.9240   22.7110  -30.2600 C   0  0  0  0  0  0  0  0  0  0  0  0
   -4.6090   23.1230  -29.9970 C   0  0  0  0  0  0  0  0  0  0  0  0
   -3.3600   21.8840  -29.7900 S   0  0  0  0  0  0  0  0  0  0  0  0
   -3.0700   21.7500  -28.3170 O   0  0  0  0  0  0  0  0  0  0  0  0
   -3.8240   20.5480  -30.3120 O   0  0  0  0  0  0  0  0  0  0  0  0
   -1.8400   22.3300  -30.6410 C   0  0  0  0  0  0  0  0  0  0  0  0
   -0.9180   21.1220  -30.8820 C   0  0  0  0  0  0  0  0  0  0  0  0
   -0.5410   20.9300  -32.3670 C   0  0  0  0  0  0  0  0  0  0  0  0
   -1.5550   20.0400  -33.1030 C   0  0  0  0  0  0  0  0  0  0  0  0
   -2.7610   20.8390  -33.6080 C   0  0  0  0  0  0  0  0  0  0  0  0
   -3.9850   20.0050  -33.5550 N   0  0  0  0  0  0  0  0  0  0  0  0
   -3.7290   18.5940  -33.1810 C   0  0  0  0  0  0  0  0  0  0  0  0
   -4.9820   17.8130  -32.7450 C   0  0  0  0  0  0  0  0  0  0  0  0
   -6.1910   17.9160  -33.6900 C   0  0  0  0  0  0  0  0  0  0  0  0
   -7.0840   19.0640  -33.3910 N   0  0  1  0  0  0  0  0  0  0  0  0
   -7.5490   18.9430  -32.0190 C   0  0  0  0  0  0  0  0  0  0  0  0
   -8.2350   20.0850  -31.3220 C   0  0  0  0  0  0  0  0  0  0  0  0
   -7.3860   17.8970  -31.4060 O   0  0  0  0  0  0  0  0  0  0  0  0
   -6.5060   20.4250  -33.6170 C   0  0  0  0  0  0  0  0  0  0  0  0
   -5.1490   20.6850  -32.9270 C   0  0  0  0  0  0  0  0  0  0  0  0
   -2.8808   24.7085  -26.3923 H   0  0  0  0  0  0  0  0  0  0  0  0
   -4.2194   25.2080  -27.4810 H   0  0  0  0  0  0  0  0  0  0  0  0
   -3.6499   23.5044  -27.4810 H   0  0  0  0  0  0  0  0  0  0  0  0
   -1.8925   25.8828  -28.2688 H   0  0  0  0  0  0  0  0  0  0  0  0
   -1.5306   24.1363  -28.4760 H   0  0  0  0  0  0  0  0  0  0  0  0
   -5.1121   26.5151  -30.1397 H   0  0  0  0  0  0  0  0  0  0  0  0
   -7.4425   25.7513  -30.5760 H   0  0  0  0  0  0  0  0  0  0  0  0
   -7.9690   23.3152  -30.6428 H   0  0  0  0  0  0  0  0  0  0  0  0
   -6.1583   21.6375  -30.3123 H   0  0  0  0  0  0  0  0  0  0  0  0
   -2.0985   22.7749  -31.6132 H   0  0  0  0  0  0  0  0  0  0  0  0
   -1.2966   23.0401  -30.0003 H   0  0  0  0  0  0  0  0  0  0  0  0
    0.0059   21.2666  -30.3028 H   0  0  0  0  0  0  0  0  0  0  0  0
   -1.4680   20.2233  -30.5660 H   0  0  0  0  0  0  0  0  0  0  0  0
   -0.5101   21.9145  -32.8566 H   0  0  0  0  0  0  0  0  0  0  0  0
    0.4411   20.4363  -32.4093 H   0  0  0  0  0  0  0  0  0  0  0  0
   -1.0558   19.5693  -33.9628 H   0  0  0  0  0  0  0  0  0  0  0  0
   -1.9218   19.2844  -32.3927 H   0  0  0  0  0  0  0  0  0  0  0  0
   -2.8991   21.7279  -32.9749 H   0  0  0  0  0  0  0  0  0  0  0  0
   -2.5792   21.1445  -34.6490 H   0  0  0  0  0  0  0  0  0  0  0  0
   -3.2900   18.0822  -34.0501 H   0  0  0  0  0  0  0  0  0  0  0  0
   -3.0560   18.6175  -32.3113 H   0  0  0  0  0  0  0  0  0  0  0  0
   -4.7070   16.7512  -32.6616 H   0  0  0  0  0  0  0  0  0  0  0  0
   -5.3031   18.2650  -31.7949 H   0  0  0  0  0  0  0  0  0  0  0  0
   -5.8192   18.0238  -34.7196 H   0  0  0  0  0  0  0  0  0  0  0  0
   -6.7858   17.0009  -33.5532 H   0  0  0  0  0  0  0  0  0  0  0  0
   -7.9140   18.9730  -34.0250 H   0  0  0  0  0  0  0  0  0  0  0  0
   -8.1547   19.9514  -30.2331 H   0  0  0  0  0  0  0  0  0  0  0  0
   -7.7562   21.0321  -31.6115 H   0  0  0  0  0  0  0  0  0  0  0  0
   -9.2960   20.1071  -31.6115 H   0  0  0  0  0  0  0  0  0  0  0  0
   -6.3689   20.5612  -34.6999 H   0  0  0  0  0  0  0  0  0  0  0  0
   -7.2167   21.1367  -33.1716 H   0  0  0  0  0  0  0  0  0  0  0  0
   -4.9603   21.7686  -32.9422 H   0  0  0  0  0  0  0  0  0  0  0  0
   -5.2359   20.2715  -31.9114 H   0  0  0  0  0  0  0  0  0  0  0  0
  1  2  1  0
  2  3  1  0
  3  4  1  0
  4  5  2  0
  5  6  1  0
  6  7  2  0
  7  8  1  0
  8  9  2  0
  9 10  1  0
 10 11  2  0
 10 12  2  0
 10 13  1  0
 13 14  1  0
 14 15  1  0
 15 16  1  0
 16 17  1  0
 17 18  1  0
 18 19  1  0
 19 20  1  0
 20 21  1  0
 21 22  1  0
 22 23  1  0
 23 24  1  0
 23 25  2  0
 22 26  1  0
 26 27  1  0
  9  4  1  0
 27 18  1  0
  1 28  1  0
  1 29  1  0
  1 30  1  0
  2 31  1  0
  2 32  1  0
  5 33  1  0
  6 34  1  0
  7 35  1  0
  8 36  1  0
 13 37  1  0
 13 38  1  0
 14 39  1  0
 14 40  1  0
 15 41  1  0
 15 42  1  0
 16 43  1  0
 16 44  1  0
 17 45  1  0
 17 46  1  0
 19 47  1  0
 19 48  1  0
 20 49  1  0
 20 50  1  0
 21 51  1  0
 21 52  1  0
 22 53  1  6
 24 54  1  0
 24 55  1  0
 24 56  1  0
 26 57  1  0
 26 58  1  0
 27 59  1  0
 27 60  1  0
M  CHG  1  22   1
M  END
>  <UniqueID>  (10) 
10

>  <SMILES>  (10) 
CCOc1ccccc1S(=O)(=O)CCCCCN1CCC[N@@H+](C(C)=O)CC1

>  <Energy>  (10) 
68.45345722626709

>  <Genealogy>  (10) 
CCOc1ccccc1S(=O)(=O)CCCCCN1CCC[NH+](C(C)=O)CC1 (protonated)
CCOc1ccccc1S(=O)(=O)CCCCCN1CCC[N@@H+](C(C)=O)CC1 (chirality)
CCOc1ccccc1S(=O)(=O)CCCCCN1CCC[N@@H+](C(C)=O)CC1 (3D coordinates assigned)
CCOc1ccccc1S(=O)(=O)CCCCCN1CCC[N@@H+](C(C)=O)CC1 (nonaromatic ring conformer: 68.45345722626709 kcal/mol)

>  <smiles>  (10) 
CCOc1ccccc1S(=O)(=O)CCCCCN1CCCN(C(C)=O)CC1

>  <score_type>  (10) 
oracle

>  <origin>  (10) 
adg

>  <m_score__min__energy>  (10) 
-7.2999999999999998

>  <m_primary>  (10) 
energy

$$$$
10:0
     RDKit          3D

 44 46  0  0  0  0  0  0  0  0999 V2000
   -6.0950   25.4120  -30.3700 C   0  0  0  0  0  0  0  0  0  0  0  0
   -5.0290   24.3840  -30.0070 C   0  0  0  0  0  0  0  0  0  0  0  0
   -4.1640   24.1080  -31.1640 N   0  0  0  0  0  0  0  0  0  0  0  0
   -3.3620   22.8920  -30.9590 C   0  0  0  0  0  0  0  0  0  0  0  0
   -3.4070   21.9870  -32.2060 C   0  0  0  0  0  0  0  0  0  0  0  0
   -4.5850   22.2250  -33.0660 N   0  0  0  0  0  0  0  0  0  0  0  0
   -5.6090   21.1950  -32.9170 C   0  0  0  0  0  0  0  0  0  0  0  0
   -6.9240   21.5090  -32.4580 C   0  0  0  0  0  0  0  0  0  0  0  0
   -7.3290   22.8350  -32.1460 C   0  0  0  0  0  0  0  0  0  0  0  0
   -8.6350   23.1200  -31.7560 C   0  0  0  0  0  0  0  0  0  0  0  0
   -9.5750   22.1070  -31.6730 C   0  0  0  0  0  0  0  0  0  0  0  0
   -9.2070   20.7940  -31.9400 C   0  0  0  0  0  0  0  0  0  0  0  0
   -7.8740   20.4580  -32.2910 C   0  0  0  0  0  0  0  0  0  0  0  0
   -7.5010   19.1430  -32.4730 N   0  0  0  0  0  0  0  0  0  0  0  0
   -8.3700   18.0530  -31.9720 C   0  0  0  0  0  0  0  0  0  0  0  0
   -6.3080   18.8400  -33.0920 C   0  0  0  0  0  0  0  0  0  0  0  0
   -6.0390   17.5290  -33.5620 C   0  0  0  0  0  0  0  0  0  0  0  0
   -4.8110   17.2020  -34.1290 C   0  0  0  0  0  0  0  0  0  0  0  0
   -3.8250   18.1670  -34.2520 C   0  0  0  0  0  0  0  0  0  0  0  0
   -2.6240   17.8410  -34.7940 F   0  0  0  0  0  0  0  0  0  0  0  0
   -4.0720   19.4760  -33.8430 C   0  0  0  0  0  0  0  0  0  0  0  0
   -5.3220   19.8480  -33.2830 C   0  0  0  0  0  0  0  0  0  0  0  0
   -6.5291   25.8306  -29.4500 H   0  0  0  0  0  0  0  0  0  0  0  0
   -5.6390   26.2200  -30.9609 H   0  0  0  0  0  0  0  0  0  0  0  0
   -6.8859   24.9270  -30.9609 H   0  0  0  0  0  0  0  0  0  0  0  0
   -4.4157   24.7746  -29.1816 H   0  0  0  0  0  0  0  0  0  0  0  0
   -5.5244   23.4503  -29.7026 H   0  0  0  0  0  0  0  0  0  0  0  0
   -3.5110   24.9160  -31.2600 H   0  0  0  0  0  0  0  0  0  0  0  0
   -2.3188   23.1780  -30.7590 H   0  0  0  0  0  0  0  0  0  0  0  0
   -3.7782   22.3360  -30.1059 H   0  0  0  0  0  0  0  0  0  0  0  0
   -2.4996   22.1686  -32.8007 H   0  0  0  0  0  0  0  0  0  0  0  0
   -3.4718   20.9484  -31.8494 H   0  0  0  0  0  0  0  0  0  0  0  0
   -4.9310   23.1940  -32.9290 H   0  0  0  0  0  0  0  0  0  0  0  0
   -4.2780   22.2590  -34.0640 H   0  0  0  0  0  0  0  0  0  0  0  0
   -6.5962   23.6525  -32.2139 H   0  0  0  0  0  0  0  0  0  0  0  0
   -8.9209   24.1540  -31.5129 H   0  0  0  0  0  0  0  0  0  0  0  0
  -10.6133   22.3416  -31.3957 H   0  0  0  0  0  0  0  0  0  0  0  0
   -9.9646   19.9989  -31.8780 H   0  0  0  0  0  0  0  0  0  0  0  0
   -8.3664   18.0575  -30.8720 H   0  0  0  0  0  0  0  0  0  0  0  0
   -9.3967   18.2059  -32.3360 H   0  0  0  0  0  0  0  0  0  0  0  0
   -7.9922   17.0862  -32.3360 H   0  0  0  0  0  0  0  0  0  0  0  0
   -6.8165   16.7555  -33.4766 H   0  0  0  0  0  0  0  0  0  0  0  0
   -4.6232   16.1765  -34.4798 H   0  0  0  0  0  0  0  0  0  0  0  0
   -3.2838   20.2349  -33.9562 H   0  0  0  0  0  0  0  0  0  0  0  0
  1  2  1  0
  2  3  1  0
  3  4  1  0
  4  5  1  0
  5  6  1  0
  6  7  1  0
  7  8  2  0
  8  9  1  0
  9 10  2  0
 10 11  1  0
 11 12  2  0
 12 13  1  0
 13 14  2  0
 14 15  1  0
 14 16  1  0
 16 17  2  0
 17 18  1  0
 18 19  2  0
 19 20  1  0
 19 21  1  0
 21 22  2  0
 22  7  1  0
 13  8  1  0
 22 16  1  0
  1 23  1  0
  1 24  1  0
  1 25  1  0
  2 26  1  0
  2 27  1  0
  3 28  1  0
  4 29  1  0
  4 30  1  0
  5 31  1  0
  5 32  1  0
  6 33  1  0
  6 34  1  0
  9 35  1  0
 10 36  1  0
 11 37  1  0
 12 38  1  0
 15 39  1  0
 15 40  1  0
 15 41  1  0
 17 42  1  0
 18 43  1  0
 21 44  1  0
M  CHG  2   6   1  14   1
M  END
>  <UniqueID>  (11) 
11

>  <SMILES>  (11) 
CCNCC[NH2+]c1c2ccccc2[n+](C)c2ccc(F)cc12

>  <Energy>  (11) 
74.01342061095839

>  <Genealogy>  (11) 
CCNCC[NH2+]c1c2ccccc2[n+](C)c2ccc(F)cc12 (protonated)
CCNCC[NH2+]c1c2ccccc2[n+](C)c2ccc(F)cc12 (3D coordinates assigned)
CCNCC[NH2+]c1c2ccccc2[n+](C)c2ccc(F)cc12 (optimized conformer: 74.01342061095839 kcal/mol)

>  <smiles>  (11) 
CCNCCNc1c2ccccc2[n+](C)c2ccc(F)cc12

>  <score_type>  (11) 
oracle

>  <origin>  (11) 
adg

>  <m_score__min__energy>  (11) 
-7.7000000000000002

>  <m_primary>  (11) 
energy

$$$$
11:0
     RDKit          3D

 61 63  0  0  0  0  0  0  0  0999 V2000
   -3.5060   18.9110  -26.3350 C   0  0  0  0  0  0  0  0  0  0  0  0
   -2.0340   18.9780  -26.7550 C   0  0  0  0  0  0  0  0  0  0  0  0
   -1.7970   19.9690  -27.8370 N   0  0  0  0  0  0  0  0  0  0  0  0
   -2.0900   21.3600  -27.3740 C   0  0  0  0  0  0  0  0  0  0  0  0
   -3.4650   21.8390  -27.8440 C   0  0  0  0  0  0  0  0  0  0  0  0
   -0.3960   19.8500  -28.3200 C   0  0  0  0  0  0  0  0  0  0  0  0
   -0.3080   19.8670  -29.8530 C   0  0  0  0  0  0  0  0  0  0  0  0
   -1.5580   20.2650  -30.3800 O   0  0  0  0  0  0  0  0  0  0  0  0
   -1.4930   20.3740  -31.7910 C   0  0  0  0  0  0  0  0  0  0  0  0
   -2.8860   20.6550  -32.3560 C   0  0  0  0  0  0  0  0  0  0  0  0
   -3.8990   20.5440  -31.3070 N   0  0  0  0  0  0  0  0  0  0  0  0
   -5.1640   21.2220  -31.4130 C   0  0  0  0  0  0  0  0  0  0  0  0
   -6.3070   20.5220  -31.8440 C   0  0  0  0  0  0  0  0  0  0  0  0
   -6.2320   19.1540  -32.1870 C   0  0  0  0  0  0  0  0  0  0  0  0
   -7.3770   18.4450  -32.5430 C   0  0  0  0  0  0  0  0  0  0  0  0
   -8.6130   19.0790  -32.5500 C   0  0  0  0  0  0  0  0  0  0  0  0
   -8.7100   20.4310  -32.2310 C   0  0  0  0  0  0  0  0  0  0  0  0
   -7.5570   21.1940  -31.9100 C   0  0  0  0  0  0  0  0  0  0  0  0
   -7.6320   22.5490  -31.6440 N   0  0  0  0  0  0  0  0  0  0  0  0
   -8.8630   23.2990  -31.9830 C   0  0  0  0  0  0  0  0  0  0  0  0
   -6.5470   23.2120  -31.1020 C   0  0  0  0  0  0  0  0  0  0  0  0
   -6.6550   24.5300  -30.5940 C   0  0  0  0  0  0  0  0  0  0  0  0
   -5.5370   25.2190  -30.1280 C   0  0  0  0  0  0  0  0  0  0  0  0
   -4.2740   24.6170  -30.1470 C   0  0  0  0  0  0  0  0  0  0  0  0
   -3.1160   25.2830  -29.7190 O   0  0  0  0  0  0  0  0  0  0  0  0
   -2.1360   24.7180  -28.8540 C   0  0  0  0  0  0  0  0  0  0  0  0
   -4.1540   23.3030  -30.5970 C   0  0  0  0  0  0  0  0  0  0  0  0
   -5.2820   22.5720  -31.0320 C   0  0  0  0  0  0  0  0  0  0  0  0
   -3.5743   18.9079  -25.2371 H   0  0  0  0  0  0  0  0  0  0  0  0
   -4.0411   19.7857  -26.7332 H   0  0  0  0  0  0  0  0  0  0  0  0
   -3.9594   17.9913  -26.7332 H   0  0  0  0  0  0  0  0  0  0  0  0
   -1.4296   19.2593  -25.8800 H   0  0  0  0  0  0  0  0  0  0  0  0
   -1.7501   17.9874  -27.1400 H   0  0  0  0  0  0  0  0  0  0  0  0
   -2.4230   19.7060  -28.6350 H   0  0  0  0  0  0  0  0  0  0  0  0
   -2.0621   21.3823  -26.2746 H   0  0  0  0  0  0  0  0  0  0  0  0
   -1.3302   22.0297  -27.8032 H   0  0  0  0  0  0  0  0  0  0  0  0
   -4.0954   22.0586  -26.9697 H   0  0  0  0  0  0  0  0  0  0  0  0
   -3.3486   22.7495  -28.4501 H   0  0  0  0  0  0  0  0  0  0  0  0
   -3.9396   21.0532  -28.4501 H   0  0  0  0  0  0  0  0  0  0  0  0
    0.1887   20.6925  -27.9222 H   0  0  0  0  0  0  0  0  0  0  0  0
    0.0016   18.8861  -27.9694 H   0  0  0  0  0  0  0  0  0  0  0  0
    0.4694   20.5777  -30.1702 H   0  0  0  0  0  0  0  0  0  0  0  0
   -0.0509   18.8632  -30.2223 H   0  0  0  0  0  0  0  0  0  0  0  0
   -0.8163   21.1977  -32.0624 H   0  0  0  0  0  0  0  0  0  0  0  0
   -1.1159   19.4295  -32.2102 H   0  0  0  0  0  0  0  0  0  0  0  0
   -2.9082   21.6723  -32.7738 H   0  0  0  0  0  0  0  0  0  0  0  0
   -3.1059   19.9164  -33.1409 H   0  0  0  0  0  0  0  0  0  0  0  0
   -3.5900   20.2090  -30.3660 H   0  0  0  0  0  0  0  0  0  0  0  0
   -5.2582   18.6425  -32.1729 H   0  0  0  0  0  0  0  0  0  0  0  0
   -7.3024   17.3827  -32.8187 H   0  0  0  0  0  0  0  0  0  0  0  0
   -9.5187   18.5108  -32.8086 H   0  0  0  0  0  0  0  0  0  0  0  0
   -9.6973   20.9161  -32.2277 H   0  0  0  0  0  0  0  0  0  0  0  0
   -9.3706   23.6082  -31.0574 H   0  0  0  0  0  0  0  0  0  0  0  0
   -8.5991   24.1899  -32.5717 H   0  0  0  0  0  0  0  0  0  0  0  0
   -9.5337   22.6559  -32.5717 H   0  0  0  0  0  0  0  0  0  0  0  0
   -7.6401   25.0188  -30.5669 H   0  0  0  0  0  0  0  0  0  0  0  0
   -5.6481   26.2432  -29.7425 H   0  0  0  0  0  0  0  0  0  0  0  0
   -2.4294   24.8872  -27.8074 H   0  0  0  0  0  0  0  0  0  0  0  0
   -2.0594   23.6371  -29.0432 H   0  0  0  0  0  0  0  0  0  0  0  0
   -1.1622   25.1933  -29.0432 H   0  0  0  0  0  0  0  0  0  0  0  0
   -3.1627   22.8265  -30.6137 H   0  0  0  0  0  0  0  0  0  0  0  0
  1  2  1  0
  2  3  1  0
  3  4  1  0
  4  5  1  0
  3  6  1  0
  6  7  1  0
  7  8  1  0
  8  9  1  0
  9 10  1  0
 10 11  1  0
 11 12  1  0
 12 13  2  0
 13 14  1  0
 14 15  2  0
 15 16  1  0
 16 17  2  0
 17 18  1  0
 18 19  2  0
 19 20  1  0
 19 21  1  0
 21 22  2  0
 22 23  1  0
 23 24  2  0
 24 25  1  0
 25 26  1  0
 24 27  1  0
 27 28  2  0
 28 12  1  0
 18 13  1  0
 28 21  1  0
  1 29  1  0
  1 30  1  0
  1 31  1  0
  2 32  1  0
  2 33  1  0
  3 34  1  0
  4 35  1  0
  4 36  1  0
  5 37  1  0
  5 38  1  0
  5 39  1  0
  6 40  1  0
  6 41  1  0
  7 42  1  0
  7 43  1  0
  9 44  1  0
  9 45  1  0
 10 46  1  0
 10 47  1  0
 11 48  1  0
 14 49  1  0
 15 50  1  0
 16 51  1  0
 17 52  1  0
 20 53  1  0
 20 54  1  0
 20 55  1  0
 22 56  1  0
 23 57  1  0
 26 58  1  0
 26 59  1  0
 26 60  1  0
 27 61  1  0
M  CHG  2   3   1  19   1
M  END
>  <UniqueID>  (12) 
12

>  <SMILES>  (12) 
CC[NH+](CC)CCOCCNc1c2ccccc2[n+](C)c2ccc(OC)cc12

>  <Energy>  (12) 
89.41492952070101

>  <Genealogy>  (12) 
CC[NH+](CC)CCOCCNc1c2ccccc2[n+](C)c2ccc(OC)cc12 (protonated)
CC[NH+](CC)CCOCCNc1c2ccccc2[n+](C)c2ccc(OC)cc12 (3D coordinates assigned)
CC[NH+](CC)CCOCCNc1c2ccccc2[n+](C)c2ccc(OC)cc12 (optimized conformer: 89.41492952070101 kcal/mol)

>  <smiles>  (12) 
CCN(CC)CCOCCNc1c2ccccc2[n+](C)c2ccc(OC)cc12

>  <score_type>  (12) 
oracle

>  <origin>  (12) 
adg

>  <m_score__min__energy>  (12) 
-7.2599999999999998

>  <m_primary>  (12) 
energy

$$$$
12:0
     RDKit          3D

 54 57  0  0  0  0  0  0  0  0999 V2000
   -2.5540   18.5790  -34.1470 C   0  0  0  0  0  0  0  0  0  0  0  0
   -1.7480   18.8500  -32.8680 C   0  0  0  0  0  0  0  0  0  0  0  0
   -1.5260   20.2870  -32.5920 N   0  0  0  0  0  0  0  0  0  0  0  0
   -0.1010   20.6040  -32.3860 C   0  0  0  0  0  0  0  0  0  0  0  0
   -2.1650   21.1710  -33.5930 C   0  0  0  0  0  0  0  0  0  0  0  0
   -3.6260   21.4930  -33.2140 C   0  0  0  0  0  0  0  0  0  0  0  0
   -4.1240   20.6710  -32.0900 N   0  0  0  0  0  0  0  0  0  0  0  0
   -5.3910   21.1570  -31.5540 C   0  0  0  0  0  0  0  0  0  0  0  0
   -6.5710   20.3940  -31.7020 C   0  0  0  0  0  0  0  0  0  0  0  0
   -6.5300   18.9890  -31.8400 C   0  0  0  0  0  0  0  0  0  0  0  0
   -7.7040   18.2520  -31.9750 C   0  0  0  0  0  0  0  0  0  0  0  0
   -8.9360   18.8950  -31.9610 C   0  0  0  0  0  0  0  0  0  0  0  0
   -9.0020   20.2820  -31.8320 C   0  0  0  0  0  0  0  0  0  0  0  0
   -7.8230   21.0600  -31.7220 C   0  0  0  0  0  0  0  0  0  0  0  0
   -7.8650   22.4370  -31.6560 N   0  0  0  0  0  0  0  0  0  0  0  0
   -9.0800   23.1600  -32.0870 C   0  0  0  0  0  0  0  0  0  0  0  0
   -6.7700   23.1310  -31.1810 C   0  0  0  0  0  0  0  0  0  0  0  0
   -6.8630   24.4970  -30.8250 C   0  0  0  0  0  0  0  0  0  0  0  0
   -5.7630   25.1870  -30.3310 C   0  0  0  0  0  0  0  0  0  0  0  0
   -4.5710   24.5210  -30.0880 C   0  0  0  0  0  0  0  0  0  0  0  0
   -4.4460   23.1530  -30.3720 C   0  0  0  0  0  0  0  0  0  0  0  0
   -3.2870   22.4480  -29.7690 C   0  0  0  0  0  0  0  0  0  0  0  0
   -3.4020   21.5360  -28.7050 C   0  0  0  0  0  0  0  0  0  0  0  0
   -2.1910   20.9870  -28.3100 C   0  0  0  0  0  0  0  0  0  0  0  0
   -0.9830   21.6250  -29.2880 S   0  0  0  0  0  0  0  0  0  0  0  0
   -1.9780   22.6030  -30.2220 C   0  0  0  0  0  0  0  0  0  0  0  0
   -5.5160   22.4710  -31.0290 C   0  0  0  0  0  0  0  0  0  0  0  0
   -3.5650   18.2391  -33.8782 H   0  0  0  0  0  0  0  0  0  0  0  0
   -2.6234   19.5032  -34.7394 H   0  0  0  0  0  0  0  0  0  0  0  0
   -2.0509   17.8006  -34.7394 H   0  0  0  0  0  0  0  0  0  0  0  0
   -2.2918   18.4139  -32.0171 H   0  0  0  0  0  0  0  0  0  0  0  0
   -0.7566   18.3960  -33.0132 H   0  0  0  0  0  0  0  0  0  0  0  0
    0.1120   20.6514  -31.3079 H   0  0  0  0  0  0  0  0  0  0  0  0
    0.5192   19.8219  -32.8482 H   0  0  0  0  0  0  0  0  0  0  0  0
    0.1291   21.5753  -32.8482 H   0  0  0  0  0  0  0  0  0  0  0  0
   -1.5965   22.1107  -33.6545 H   0  0  0  0  0  0  0  0  0  0  0  0
   -2.1670   20.6499  -34.5617 H   0  0  0  0  0  0  0  0  0  0  0  0
   -3.6888   22.5533  -32.9281 H   0  0  0  0  0  0  0  0  0  0  0  0
   -4.2515   21.2673  -34.0902 H   0  0  0  0  0  0  0  0  0  0  0  0
   -3.3640   20.6770  -31.3790 H   0  0  0  0  0  0  0  0  0  0  0  0
   -4.2320   19.6790  -32.4000 H   0  0  0  0  0  0  0  0  0  0  0  0
   -5.5597   18.4709  -31.8409 H   0  0  0  0  0  0  0  0  0  0  0  0
   -7.6561   17.1594  -32.0929 H   0  0  0  0  0  0  0  0  0  0  0  0
   -9.8619   18.3081  -32.0520 H   0  0  0  0  0  0  0  0  0  0  0  0
   -9.9832   20.7790  -31.8154 H   0  0  0  0  0  0  0  0  0  0  0  0
   -9.6413   23.4940  -31.2019 H   0  0  0  0  0  0  0  0  0  0  0  0
   -8.7922   24.0339  -32.6899 H   0  0  0  0  0  0  0  0  0  0  0  0
   -9.7108   22.4902  -32.6899 H   0  0  0  0  0  0  0  0  0  0  0  0
   -7.8227   25.0218  -30.9413 H   0  0  0  0  0  0  0  0  0  0  0  0
   -5.8378   26.2662  -30.1317 H   0  0  0  0  0  0  0  0  0  0  0  0
   -3.7155   25.0707  -29.6686 H   0  0  0  0  0  0  0  0  0  0  0  0
   -4.3615   21.2820  -28.2308 H   0  0  0  0  0  0  0  0  0  0  0  0
   -2.0466   20.2599  -27.4973 H   0  0  0  0  0  0  0  0  0  0  0  0
   -1.6533   23.2530  -31.0478 H   0  0  0  0  0  0  0  0  0  0  0  0
  1  2  1  0
  2  3  1  0
  3  4  1  0
  3  5  1  0
  5  6  1  0
  6  7  1  0
  7  8  1  0
  8  9  2  0
  9 10  1  0
 10 11  2  0
 11 12  1  0
 12 13  2  0
 13 14  1  0
 14 15  2  0
 15 16  1  0
 15 17  1  0
 17 18  2  0
 18 19  1  0
 19 20  2  0
 20 21  1  0
 21 22  1  0
 22 23  1  0
 23 24  2  0
 24 25  1  0
 25 26  1  0
 21 27  2  0
 27  8  1  0
 14  9  1  0
 27 17  1  0
 26 22  2  0
  1 28  1  0
  1 29  1  0
  1 30  1  0
  2 31  1  0
  2 32  1  0
  4 33  1  0
  4 34  1  0
  4 35  1  0
  5 36  1  0
  5 37  1  0
  6 38  1  0
  6 39  1  0
  7 40  1  0
  7 41  1  0
 10 42  1  0
 11 43  1  0
 12 44  1  0
 13 45  1  0
 16 46  1  0
 16 47  1  0
 16 48  1  0
 18 49  1  0
 19 50  1  0
 20 51  1  0
 23 52  1  0
 24 53  1  0
 26 54  1  0
M  CHG  2   7   1  15   1
M  END
>  <UniqueID>  (13) 
13

>  <SMILES>  (13) 
CCN(C)CC[NH2+]c1c2ccccc2[n+](C)c2cccc(-c3ccsc3)c12

>  <Energy>  (13) 
124.81864641205921

>  <Genealogy>  (13) 
CCN(C)CC[NH2+]c1c2ccccc2[n+](C)c2cccc(-c3ccsc3)c12 (protonated)
CCN(C)CC[NH2+]c1c2ccccc2[n+](C)c2cccc(-c3ccsc3)c12 (3D coordinates assigned)
CCN(C)CC[NH2+]c1c2ccccc2[n+](C)c2cccc(-c3ccsc3)c12 (optimized conformer: 124.81864641205921 kcal/mol)

>  <smiles>  (13) 
CCN(C)CCNc1c2ccccc2[n+](C)c2cccc(-c3ccsc3)c12

>  <score_type>  (13) 
oracle

>  <origin>  (13) 
adg

>  <m_score__min__energy>  (13) 
-6.9500000000000002

>  <m_primary>  (13) 
energy

$$$$
13:0
     RDKit          3D

 48 50  0  0  0  0  0  0  0  0999 V2000
    0.5520   27.5340  -23.5570 C   0  0  0  0  0  0  0  0  0  0  0  0
   -0.5840   26.5850  -23.1870 C   0  0  0  0  0  0  0  0  0  0  0  0
   -1.5400   26.4630  -24.2990 N   0  0  0  0  0  0  0  0  0  0  0  0
   -0.8850   26.4450  -25.6190 C   0  0  0  0  0  0  0  0  0  0  0  0
   -1.7190   25.7360  -26.6620 C   0  0  0  0  0  0  0  0  0  0  0  0
   -1.2350   25.5880  -27.9690 C   0  0  0  0  0  0  0  0  0  0  0  0
   -1.9970   24.9250  -28.9340 C   0  0  0  0  0  0  0  0  0  0  0  0
   -3.2600   24.3910  -28.6100 C   0  0  0  0  0  0  0  0  0  0  0  0
   -4.0630   23.6860  -29.6430 C   0  0  0  0  0  0  0  0  0  0  0  0
   -5.1650   24.1860  -30.3360 C   0  0  0  0  0  0  0  0  0  0  0  0
   -5.7200   23.2800  -31.2500 C   0  0  0  0  0  0  0  0  0  0  0  0
   -5.0640   22.0490  -31.2940 C   0  0  0  0  0  0  0  0  0  0  0  0
   -5.4070   20.8850  -32.1510 C   0  0  0  0  0  0  0  0  0  0  0  0
   -4.4810   20.3670  -33.0730 C   0  0  0  0  0  0  0  0  0  0  0  0
   -4.8100   19.2710  -33.8730 C   0  0  0  0  0  0  0  0  0  0  0  0
   -6.0760   18.6660  -33.7700 C   0  0  0  0  0  0  0  0  0  0  0  0
   -6.4410   17.5640  -34.5590 O   0  0  0  0  0  0  0  0  0  0  0  0
   -6.4920   16.2200  -34.0920 C   0  0  0  0  0  0  0  0  0  0  0  0
   -7.0090   19.1700  -32.8530 C   0  0  0  0  0  0  0  0  0  0  0  0
   -8.2630   18.5440  -32.7710 O   0  0  0  0  0  0  0  0  0  0  0  0
   -9.1100   18.5750  -31.6260 C   0  0  0  0  0  0  0  0  0  0  0  0
   -6.6700   20.2750  -32.0480 C   0  0  0  0  0  0  0  0  0  0  0  0
   -3.7990   22.1110  -30.1820 S   0  0  0  0  0  0  0  0  0  0  0  0
   -3.7400   24.5470  -27.2970 C   0  0  0  0  0  0  0  0  0  0  0  0
   -2.9760   25.2120  -26.3330 C   0  0  0  0  0  0  0  0  0  0  0  0
    1.0180   27.9233  -22.6398 H   0  0  0  0  0  0  0  0  0  0  0  0
    1.3043   26.9922  -24.1490 H   0  0  0  0  0  0  0  0  0  0  0  0
    0.1527   28.3707  -24.1490 H   0  0  0  0  0  0  0  0  0  0  0  0
   -0.1666   25.5932  -22.9586 H   0  0  0  0  0  0  0  0  0  0  0  0
   -1.1106   26.9876  -22.3092 H   0  0  0  0  0  0  0  0  0  0  0  0
   -2.2110   27.2670  -24.2580 H   0  0  0  0  0  0  0  0  0  0  0  0
   -0.7170   27.4820  -25.9450 H   0  0  0  0  0  0  0  0  0  0  0  0
    0.0639   25.8981  -25.5171 H   0  0  0  0  0  0  0  0  0  0  0  0
   -0.2492   25.9963  -28.2365 H   0  0  0  0  0  0  0  0  0  0  0  0
   -1.6071   24.8188  -29.9571 H   0  0  0  0  0  0  0  0  0  0  0  0
   -5.5626   25.1996  -30.1795 H   0  0  0  0  0  0  0  0  0  0  0  0
   -6.5930   23.5175  -31.8756 H   0  0  0  0  0  0  0  0  0  0  0  0
   -3.4873   20.8297  -33.1652 H   0  0  0  0  0  0  0  0  0  0  0  0
   -4.0737   18.8775  -34.5893 H   0  0  0  0  0  0  0  0  0  0  0  0
   -6.4922   16.2138  -32.9920 H   0  0  0  0  0  0  0  0  0  0  0  0
   -7.4091   15.7380  -34.4616 H   0  0  0  0  0  0  0  0  0  0  0  0
   -5.6141   15.6698  -34.4616 H   0  0  0  0  0  0  0  0  0  0  0  0
   -8.4950   18.5525  -30.7143 H   0  0  0  0  0  0  0  0  0  0  0  0
   -9.7117   19.4958  -31.6398 H   0  0  0  0  0  0  0  0  0  0  0  0
   -9.7774   17.7007  -31.6398 H   0  0  0  0  0  0  0  0  0  0  0  0
   -7.4039   20.6666  -31.3282 H   0  0  0  0  0  0  0  0  0  0  0  0
   -4.7261   24.1419  -27.0259 H   0  0  0  0  0  0  0  0  0  0  0  0
   -3.3643   25.3244  -25.3100 H   0  0  0  0  0  0  0  0  0  0  0  0
  1  2  1  0
  2  3  1  0
  3  4  1  0
  4  5  1  0
  5  6  2  0
  6  7  1  0
  7  8  2  0
  8  9  1  0
  9 10  2  0
 10 11  1  0
 11 12  2  0
 12 13  1  0
 13 14  2  0
 14 15  1  0
 15 16  2  0
 16 17  1  0
 17 18  1  0
 16 19  1  0
 19 20  1  0
 20 21  1  0
 19 22  2  0
 12 23  1  0
  8 24  1  0
 24 25  2  0
 25  5  1  0
 23  9  1  0
 22 13  1  0
  1 26  1  0
  1 27  1  0
  1 28  1  0
  2 29  1  0
  2 30  1  0
  3 31  1  0
  4 32  1  0
  4 33  1  0
  6 34  1  0
  7 35  1  0
 10 36  1  0
 11 37  1  0
 14 38  1  0
 15 39  1  0
 18 40  1  0
 18 41  1  0
 18 42  1  0
 21 43  1  0
 21 44  1  0
 21 45  1  0
 22 46  1  0
 24 47  1  0
 25 48  1  0
M  END
>  <UniqueID>  (14) 
14

>  <SMILES>  (14) 
CCNCc1ccc(-c2ccc(-c3ccc(OC)c(OC)c3)s2)cc1

>  <Energy>  (14) 
78.05475177569986

>  <Genealogy>  (14) 
CCNCc1ccc(-c2ccc(-c3ccc(OC)c(OC)c3)s2)cc1 (3D coordinates assigned)
CCNCc1ccc(-c2ccc(-c3ccc(OC)c(OC)c3)s2)cc1 (optimized conformer: 78.05475177569986 kcal/mol)

>  <smiles>  (14) 
CCNCc1ccc(-c2ccc(-c3ccc(OC)c(OC)c3)s2)cc1

>  <score_type>  (14) 
oracle

>  <origin>  (14) 
adg

>  <m_score__min__energy>  (14) 
-7.9299999999999997

>  <m_primary>  (14) 
energy

$$$$
14:0
     RDKit          3D

 54 55  0  0  0  0  0  0  0  0999 V2000
   -8.0080   23.4410  -31.9570 C   0  0  0  0  0  0  0  0  0  0  0  0
   -7.6510   22.0010  -32.3540 C   0  0  0  0  0  0  0  0  0  0  0  0
   -7.8370   21.0300  -31.2440 N   0  0  1  0  0  0  0  0  0  0  0  0
   -9.1110   21.2800  -30.5360 C   0  0  0  0  0  0  0  0  0  0  0  0
   -7.8320   19.6310  -31.7490 C   0  0  0  0  0  0  0  0  0  0  0  0
   -6.4290   18.9840  -31.8030 C   0  0  0  0  0  0  0  0  0  0  0  0
   -5.3630   19.8740  -31.3150 N   0  0  0  0  0  0  0  0  0  0  0  0
   -4.2890   20.1530  -32.2960 C   0  0  1  0  0  0  0  0  0  0  0  0
   -4.5260   21.4120  -33.1520 C   0  0  0  0  0  0  0  0  0  0  0  0
   -4.6370   22.6780  -32.2960 C   0  0  0  0  0  0  0  0  0  0  0  0
   -3.5840   22.7700  -31.2050 C   0  0  0  0  0  0  0  0  0  0  0  0
   -2.8090   21.6370  -30.8520 C   0  0  0  0  0  0  0  0  0  0  0  0
   -1.7930   21.7610  -29.8990 C   0  0  0  0  0  0  0  0  0  0  0  0
   -1.5490   22.9670  -29.2430 C   0  0  0  0  0  0  0  0  0  0  0  0
   -0.5000   22.9730  -28.3020 O   0  0  0  0  0  0  0  0  0  0  0  0
   -0.4360   22.2120  -27.1020 C   0  0  0  0  0  0  0  0  0  0  0  0
   -2.3550   24.0910  -29.5400 C   0  0  0  0  0  0  0  0  0  0  0  0
   -2.1340   25.3020  -28.8750 O   0  0  0  0  0  0  0  0  0  0  0  0
   -1.9710   25.3970  -27.4630 C   0  0  0  0  0  0  0  0  0  0  0  0
   -3.3720   23.9960  -30.5160 C   0  0  0  0  0  0  0  0  0  0  0  0
   -4.1090   25.1540  -30.8090 O   0  0  0  0  0  0  0  0  0  0  0  0
   -5.4420   25.3900  -30.3650 C   0  0  0  0  0  0  0  0  0  0  0  0
   -2.9510   20.3070  -31.5610 C   0  0  0  0  0  0  0  0  0  0  0  0
   -8.0287   23.5246  -30.8604 H   0  0  0  0  0  0  0  0  0  0  0  0
   -7.2537   24.1310  -32.3631 H   0  0  0  0  0  0  0  0  0  0  0  0
   -8.9972   23.6988  -32.3631 H   0  0  0  0  0  0  0  0  0  0  0  0
   -8.2931   21.6996  -33.1948 H   0  0  0  0  0  0  0  0  0  0  0  0
   -6.5854   21.9892  -32.6267 H   0  0  0  0  0  0  0  0  0  0  0  0
   -7.0640   21.1490  -30.5470 H   0  0  0  0  0  0  0  0  0  0  0  0
   -8.9397   21.2464  -29.4499 H   0  0  0  0  0  0  0  0  0  0  0  0
   -9.4976   22.2711  -30.8157 H   0  0  0  0  0  0  0  0  0  0  0  0
   -9.8435   20.5085  -30.8157 H   0  0  0  0  0  0  0  0  0  0  0  0
   -8.4675   19.0230  -31.0883 H   0  0  0  0  0  0  0  0  0  0  0  0
   -8.2050   19.6660  -32.7832 H   0  0  0  0  0  0  0  0  0  0  0  0
   -6.4382   18.0759  -31.1823 H   0  0  0  0  0  0  0  0  0  0  0  0
   -6.2117   18.7600  -32.8578 H   0  0  0  0  0  0  0  0  0  0  0  0
   -5.7980   20.7650  -30.9820 H   0  0  0  0  0  0  0  0  0  0  0  0
   -4.2809   19.2955  -32.9850 H   0  0  0  0  0  0  0  0  0  0  0  0
   -3.6849   21.5291  -33.8512 H   0  0  0  0  0  0  0  0  0  0  0  0
   -5.4767   21.2821  -33.6898 H   0  0  0  0  0  0  0  0  0  0  0  0
   -4.5326   23.5530  -32.9544 H   0  0  0  0  0  0  0  0  0  0  0  0
   -5.6164   22.6441  -31.7963 H   0  0  0  0  0  0  0  0  0  0  0  0
   -1.1710   20.8855  -29.6610 H   0  0  0  0  0  0  0  0  0  0  0  0
   -0.4928   22.8877  -26.2359 H   0  0  0  0  0  0  0  0  0  0  0  0
   -1.2778   21.5046  -27.0711 H   0  0  0  0  0  0  0  0  0  0  0  0
    0.5121   21.6552  -27.0711 H   0  0  0  0  0  0  0  0  0  0  0  0
   -2.8172   24.9038  -26.9622 H   0  0  0  0  0  0  0  0  0  0  0  0
   -1.0327   24.9043  -27.1682 H   0  0  0  0  0  0  0  0  0  0  0  0
   -1.9372   26.4562  -27.1682 H   0  0  0  0  0  0  0  0  0  0  0  0
   -5.4668   25.3944  -29.2653 H   0  0  0  0  0  0  0  0  0  0  0  0
   -5.7876   26.3633  -30.7434 H   0  0  0  0  0  0  0  0  0  0  0  0
   -6.1008   24.5945  -30.7434 H   0  0  0  0  0  0  0  0  0  0  0  0
   -2.1366   20.2132  -32.2944 H   0  0  0  0  0  0  0  0  0  0  0  0
   -2.9081   19.5210  -30.7926 H   0  0  0  0  0  0  0  0  0  0  0  0
  1  2  1  0
  2  3  1  0
  3  4  1  0
  3  5  1  0
  5  6  1  0
  6  7  1  0
  7  8  1  0
  8  9  1  0
  9 10  1  0
 10 11  1  0
 11 12  2  0
 12 13  1  0
 13 14  2  0
 14 15  1  0
 15 16  1  0
 14 17  1  0
 17 18  1  0
 18 19  1  0
 17 20  2  0
 20 21  1  0
 21 22  1  0
 12 23  1  0
 23  8  1  0
 20 11  1  0
  1 24  1  0
  1 25  1  0
  1 26  1  0
  2 27  1  0
  2 28  1  0
  3 29  1  1
  4 30  1  0
  4 31  1  0
  4 32  1  0
  5 33  1  0
  5 34  1  0
  6 35  1  0
  6 36  1  0
  7 37  1  0
  8 38  1  6
  9 39  1  0
  9 40  1  0
 10 41  1  0
 10 42  1  0
 13 43  1  0
 16 44  1  0
 16 45  1  0
 16 46  1  0
 19 47  1  0
 19 48  1  0
 19 49  1  0
 22 50  1  0
 22 51  1  0
 22 52  1  0
 23 53  1  0
 23 54  1  0
M  CHG  1   3   1
M  END
>  <UniqueID>  (15) 
15

>  <SMILES>  (15) 
CC[N@@H+](C)CCN[C@H]1CCc2c(cc(OC)c(OC)c2OC)C1

>  <Energy>  (15) 
72.28165598762882

>  <Genealogy>  (15) 
CC[NH+](C)CCNC1CCc2c(cc(OC)c(OC)c2OC)C1 (protonated)
CC[N@@H+](C)CCN[C@H]1CCc2c(cc(OC)c(OC)c2OC)C1 (chirality)
CC[N@@H+](C)CCN[C@H]1CCc2c(cc(OC)c(OC)c2OC)C1 (3D coordinates assigned)
CC[N@@H+](C)CCN[C@H]1CCc2c(cc(OC)c(OC)c2OC)C1 (nonaromatic ring conformer: 72.28165598762882 kcal/mol)

>  <smiles>  (15) 
CCN(C)CCNC1CCc2c(cc(OC)c(OC)c2OC)C1

>  <score_type>  (15) 
oracle

>  <origin>  (15) 
adg

>  <m_score__min__energy>  (15) 
-6.3300000000000001

>  <m_primary>  (15) 
energy

$$$$
15:0
     RDKit          3D

 45 45  0  0  0  0  0  0  0  0999 V2000
   -3.1270   20.2070  -33.1290 C   0  0  0  0  0  0  0  0  0  0  0  0
   -3.9040   21.5240  -33.2280 C   0  0  0  0  0  0  0  0  0  0  0  0
   -4.0980   22.1600  -31.9100 N   0  0  0  0  0  0  0  0  0  0  0  0
   -2.8780   22.1560  -31.0780 C   0  0  0  0  0  0  0  0  0  0  0  0
   -2.7480   23.4330  -30.2310 C   0  0  0  0  0  0  0  0  0  0  0  0
   -3.8310   24.3050  -30.4970 O   0  0  0  0  0  0  0  0  0  0  0  0
   -4.6180   24.5250  -29.3390 C   0  0  0  0  0  0  0  0  0  0  0  0
   -6.0350   24.9740  -29.7150 C   0  0  0  0  0  0  0  0  0  0  0  0
   -6.9460   23.7820  -30.0420 C   0  0  0  0  0  0  0  0  0  0  0  0
   -6.4690   23.0970  -31.2500 N   0  0  0  0  0  0  0  0  0  0  0  0
   -7.5170   22.9740  -32.2790 C   0  0  0  0  0  0  0  0  0  0  0  0
   -8.4900   21.8580  -31.8950 C   0  0  0  0  0  0  0  0  0  0  0  0
   -7.9520   20.5120  -32.3080 C   0  0  0  0  0  0  0  0  0  0  0  0
   -6.9010   20.4220  -33.2360 C   0  0  0  0  0  0  0  0  0  0  0  0
   -6.3530   19.1780  -33.5600 C   0  0  0  0  0  0  0  0  0  0  0  0
   -6.8450   18.0160  -32.9580 C   0  0  0  0  0  0  0  0  0  0  0  0
   -6.0860   16.3190  -33.3950 Br  0  0  0  0  0  0  0  0  0  0  0  0
   -7.8880   18.0990  -32.0300 C   0  0  0  0  0  0  0  0  0  0  0  0
   -8.4370   19.3410  -31.7020 C   0  0  0  0  0  0  0  0  0  0  0  0
   -2.9751   19.9496  -32.0704 H   0  0  0  0  0  0  0  0  0  0  0  0
   -3.6976   19.4066  -33.6228 H   0  0  0  0  0  0  0  0  0  0  0  0
   -2.1505   20.3194  -33.6228 H   0  0  0  0  0  0  0  0  0  0  0  0
   -3.3463   22.2160  -33.8761 H   0  0  0  0  0  0  0  0  0  0  0  0
   -4.8976   21.2984  -33.6425 H   0  0  0  0  0  0  0  0  0  0  0  0
   -4.4240   23.1440  -32.0540 H   0  0  0  0  0  0  0  0  0  0  0  0
   -4.8630   21.6650  -31.3930 H   0  0  0  0  0  0  0  0  0  0  0  0
   -2.9110   21.2865  -30.4051 H   0  0  0  0  0  0  0  0  0  0  0  0
   -2.0099   22.1081  -31.7519 H   0  0  0  0  0  0  0  0  0  0  0  0
   -2.7508   23.1641  -29.1644 H   0  0  0  0  0  0  0  0  0  0  0  0
   -1.8060   23.9403  -30.4864 H   0  0  0  0  0  0  0  0  0  0  0  0
   -4.6780   23.5904  -28.7619 H   0  0  0  0  0  0  0  0  0  0  0  0
   -4.1464   25.3180  -28.7401 H   0  0  0  0  0  0  0  0  0  0  0  0
   -6.4674   25.5308  -28.8706 H   0  0  0  0  0  0  0  0  0  0  0  0
   -5.9652   25.6058  -30.6127 H   0  0  0  0  0  0  0  0  0  0  0  0
   -6.9393   23.0770  -29.1977 H   0  0  0  0  0  0  0  0  0  0  0  0
   -7.9684   24.1483  -30.2166 H   0  0  0  0  0  0  0  0  0  0  0  0
   -5.6770   23.6510  -31.6540 H   0  0  0  0  0  0  0  0  0  0  0  0
   -8.0645   23.9248  -32.3585 H   0  0  0  0  0  0  0  0  0  0  0  0
   -7.0509   22.7334  -33.2459 H   0  0  0  0  0  0  0  0  0  0  0  0
   -8.6380   21.8680  -30.8051 H   0  0  0  0  0  0  0  0  0  0  0  0
   -9.4450   22.0296  -32.4132 H   0  0  0  0  0  0  0  0  0  0  0  0
   -6.5081   21.3340  -33.7092 H   0  0  0  0  0  0  0  0  0  0  0  0
   -5.5329   19.1129  -34.2902 H   0  0  0  0  0  0  0  0  0  0  0  0
   -8.2767   17.1848  -31.5576 H   0  0  0  0  0  0  0  0  0  0  0  0
   -9.2524   19.4023  -30.9662 H   0  0  0  0  0  0  0  0  0  0  0  0
  1  2  1  0
  2  3  1  0
  3  4  1  0
  4  5  1  0
  5  6  1  0
  6  7  1  0
  7  8  1  0
  8  9  1  0
  9 10  1  0
 10 11  1  0
 11 12  1  0
 12 13  1  0
 13 14  2  0
 14 15  1  0
 15 16  2  0
 16 17  1  0
 16 18  1  0
 18 19  2  0
 19 13  1  0
  1 20  1  0
  1 21  1  0
  1 22  1  0
  2 23  1  0
  2 24  1  0
  3 25  1  0
  3 26  1  0
  4 27  1  0
  4 28  1  0
  5 29  1  0
  5 30  1  0
  7 31  1  0
  7 32  1  0
  8 33  1  0
  8 34  1  0
  9 35  1  0
  9 36  1  0
 10 37  1  0
 11 38  1  0
 11 39  1  0
 12 40  1  0
 12 41  1  0
 14 42  1  0
 15 43  1  0
 18 44  1  0
 19 45  1  0
M  CHG  1   3   1
M  END
>  <UniqueID>  (16) 
16

>  <SMILES>  (16) 
CC[NH2+]CCOCCCNCCc1ccc(Br)cc1

>  <Energy>  (16) 
36.39569355175487

>  <Genealogy>  (16) 
CC[NH2+]CCOCCCNCCc1ccc(Br)cc1 (protonated)
CC[NH2+]CCOCCCNCCc1ccc(Br)cc1 (3D coordinates assigned)
CC[NH2+]CCOCCCNCCc1ccc(Br)cc1 (optimized conformer: 36.39569355175487 kcal/mol)

>  <smiles>  (16) 
CCNCCOCCCNCCc1ccc(Br)cc1

>  <score_type>  (16) 
oracle

>  <origin>  (16) 
adg

>  <m_score__min__energy>  (16) 
-6.9800000000000004

>  <m_primary>  (16) 
energy

$$$$
16:0
     RDKit          3D

 49 50  0  0  0  0  0  0  0  0999 V2000
   -6.4950   17.7950  -31.1950 C   0  0  0  0  0  0  0  0  0  0  0  0
   -6.8510   17.0680  -32.4900 C   0  0  0  0  0  0  0  0  0  0  0  0
   -5.6620   16.8700  -33.3480 N   0  0  0  0  0  0  0  0  0  0  0  0
   -5.3790   15.4290  -33.4700 C   0  0  0  0  0  0  0  0  0  0  0  0
   -5.8130   17.4880  -34.6890 C   0  0  0  0  0  0  0  0  0  0  0  0
   -5.7500   19.0160  -34.5900 C   0  0  0  0  0  0  0  0  0  0  0  0
   -5.0590   19.4310  -33.3680 N   0  0  0  0  0  0  0  0  0  0  0  0
   -5.3550   20.6780  -32.7170 C   0  0  0  0  0  0  0  0  0  0  0  0
   -6.6800   21.1520  -32.6520 C   0  0  0  0  0  0  0  0  0  0  0  0
   -7.6920   20.4260  -33.3030 O   0  0  0  0  0  0  0  0  0  0  0  0
   -8.8660   19.9270  -32.6730 C   0  0  0  0  0  0  0  0  0  0  0  0
   -6.9570   22.3450  -31.9620 C   0  0  0  0  0  0  0  0  0  0  0  0
   -5.9270   23.0710  -31.3520 C   0  0  0  0  0  0  0  0  0  0  0  0
   -6.2160   24.2520  -30.6510 C   0  0  0  0  0  0  0  0  0  0  0  0
   -5.1920   24.9750  -30.0360 C   0  0  0  0  0  0  0  0  0  0  0  0
   -3.8680   24.5330  -30.1050 C   0  0  0  0  0  0  0  0  0  0  0  0
   -2.8800   25.2960  -29.4620 O   0  0  0  0  0  0  0  0  0  0  0  0
   -2.1520   24.8680  -28.3150 C   0  0  0  0  0  0  0  0  0  0  0  0
   -3.5700   23.3500  -30.8080 C   0  0  0  0  0  0  0  0  0  0  0  0
   -4.5910   22.6180  -31.4430 C   0  0  0  0  0  0  0  0  0  0  0  0
   -4.3090   21.4320  -32.1540 C   0  0  0  0  0  0  0  0  0  0  0  0
   -2.9930   20.9790  -32.2800 O   0  0  0  0  0  0  0  0  0  0  0  0
   -2.2550   21.1710  -33.4810 C   0  0  0  0  0  0  0  0  0  0  0  0
   -6.7963   17.1797  -30.3344 H   0  0  0  0  0  0  0  0  0  0  0  0
   -5.4095   17.9695  -31.1589 H   0  0  0  0  0  0  0  0  0  0  0  0
   -7.0228   18.7594  -31.1589 H   0  0  0  0  0  0  0  0  0  0  0  0
   -7.2796   16.0858  -32.2418 H   0  0  0  0  0  0  0  0  0  0  0  0
   -7.5753   17.6844  -33.0427 H   0  0  0  0  0  0  0  0  0  0  0  0
   -5.2920   14.9862  -32.4668 H   0  0  0  0  0  0  0  0  0  0  0  0
   -6.1982   14.9395  -34.0171 H   0  0  0  0  0  0  0  0  0  0  0  0
   -4.4355   15.2856  -34.0171 H   0  0  0  0  0  0  0  0  0  0  0  0
   -5.0023   17.1346  -35.3431 H   0  0  0  0  0  0  0  0  0  0  0  0
   -6.7902   17.1999  -35.1038 H   0  0  0  0  0  0  0  0  0  0  0  0
   -5.2088   19.4116  -35.4621 H   0  0  0  0  0  0  0  0  0  0  0  0
   -6.7768   19.4097  -34.5648 H   0  0  0  0  0  0  0  0  0  0  0  0
   -4.5800   18.6820  -32.8190 H   0  0  0  0  0  0  0  0  0  0  0  0
   -8.7459   19.9780  -31.5808 H   0  0  0  0  0  0  0  0  0  0  0  0
   -9.7312   20.5352  -32.9756 H   0  0  0  0  0  0  0  0  0  0  0  0
   -9.0286   18.8820  -32.9756 H   0  0  0  0  0  0  0  0  0  0  0  0
   -7.9924   22.7114  -31.9008 H   0  0  0  0  0  0  0  0  0  0  0  0
   -7.2542   24.6097  -30.5858 H   0  0  0  0  0  0  0  0  0  0  0  0
   -5.4296   25.9011  -29.4921 H   0  0  0  0  0  0  0  0  0  0  0  0
   -2.6845   25.1811  -27.4048 H   0  0  0  0  0  0  0  0  0  0  0  0
   -2.0598   23.7719  -28.3272 H   0  0  0  0  0  0  0  0  0  0  0  0
   -1.1494   25.3204  -28.3272 H   0  0  0  0  0  0  0  0  0  0  0  0
   -2.5303   22.9947  -30.8615 H   0  0  0  0  0  0  0  0  0  0  0  0
   -1.2175   21.4409  -33.2346 H   0  0  0  0  0  0  0  0  0  0  0  0
   -2.2623   20.2411  -34.0685 H   0  0  0  0  0  0  0  0  0  0  0  0
   -2.7146   21.9795  -34.0685 H   0  0  0  0  0  0  0  0  0  0  0  0
  1  2  1  0
  2  3  1  0
  3  4  1  0
  3  5  1  0
  5  6  1  0
  6  7  1  0
  7  8  1  0
  8  9  2  0
  9 10  1  0
 10 11  1  0
  9 12  1  0
 12 13  2  0
 13 14  1  0
 14 15  2  0
 15 16  1  0
 16 17  1  0
 17 18  1  0
 16 19  2  0
 19 20  1  0
 20 21  2  0
 21 22  1  0
 22 23  1  0
 21  8  1  0
 20 13  1  0
  1 24  1  0
  1 25  1  0
  1 26  1  0
  2 27  1  0
  2 28  1  0
  4 29  1  0
  4 30  1  0
  4 31  1  0
  5 32  1  0
  5 33  1  0
  6 34  1  0
  6 35  1  0
  7 36  1  0
 11 37  1  0
 11 38  1  0
 11 39  1  0
 12 40  1  0
 14 41  1  0
 15 42  1  0
 18 43  1  0
 18 44  1  0
 18 45  1  0
 19 46  1  0
 23 47  1  0
 23 48  1  0
 23 49  1  0
M  END
>  <UniqueID>  (17) 
17

>  <SMILES>  (17) 
CCN(C)CCNc1c(OC)cc2ccc(OC)cc2c1OC

>  <Energy>  (17) 
58.13603104250101

>  <Genealogy>  (17) 
CCN(C)CCNc1c(OC)cc2ccc(OC)cc2c1OC (3D coordinates assigned)
CCN(C)CCNc1c(OC)cc2ccc(OC)cc2c1OC (optimized conformer: 58.13603104250101 kcal/mol)

>  <smiles>  (17) 
CCN(C)CCNc1c(OC)cc2ccc(OC)cc2c1OC

>  <score_type>  (17) 
oracle

>  <origin>  (17) 
adg

>  <m_score__min__energy>  (17) 
-7.1299999999999999

>  <m_primary>  (17) 
energy

$$$$
17:0
     RDKit          3D

 58 59  0  0  0  0  0  0  0  0999 V2000
   -9.3160   21.2220  -31.8530 C   0  0  0  0  0  0  0  0  0  0  0  0
   -7.8680   20.9850  -32.2980 C   0  0  0  0  0  0  0  0  0  0  0  0
   -7.6720   19.6720  -32.9670 N   0  0  0  0  0  0  0  0  0  0  0  0
   -8.0490   18.5120  -32.1140 C   0  0  0  0  0  0  0  0  0  0  0  0
   -6.8570   17.7480  -31.5170 C   0  0  0  0  0  0  0  0  0  0  0  0
   -6.2750   19.5340  -33.4700 C   0  0  0  0  0  0  0  0  0  0  0  0
   -5.3870   20.7490  -33.1300 C   0  0  0  0  0  0  0  0  0  0  0  0
   -4.8160   20.6380  -31.7850 N   0  0  0  0  0  0  0  0  0  0  0  0
   -3.9600   21.6220  -31.1710 C   0  0  0  0  0  0  0  0  0  0  0  0
   -2.7190   21.2830  -30.6120 C   0  0  0  0  0  0  0  0  0  0  0  0
   -1.9240   22.2610  -30.0180 C   0  0  0  0  0  0  0  0  0  0  0  0
   -2.3440   23.5930  -29.9500 C   0  0  0  0  0  0  0  0  0  0  0  0
   -1.4670   24.4910  -29.3100 O   0  0  0  0  0  0  0  0  0  0  0  0
   -1.6540   25.1770  -28.0680 C   0  0  2  0  0  0  0  0  0  0  0  0
   -0.2980   25.3250  -27.3480 C   0  0  0  0  0  0  0  0  0  0  0  0
   -0.1320   24.6280  -25.9760 C   0  0  0  0  0  0  0  0  0  0  0  0
   -1.0730   25.1050  -24.8560 C   0  0  0  0  0  0  0  0  0  0  0  0
   -2.2470   26.0170  -25.2960 C   0  0  0  0  0  0  0  0  0  0  0  0
   -3.2770   25.3440  -26.1020 N   0  0  0  0  0  0  0  0  0  0  0  0
   -2.7540   24.5140  -27.1970 C   0  0  0  0  0  0  0  0  0  0  0  0
   -3.5890   23.9570  -30.5220 C   0  0  0  0  0  0  0  0  0  0  0  0
   -4.0090   25.2950  -30.5030 O   0  0  0  0  0  0  0  0  0  0  0  0
   -5.3600   25.7290  -30.3850 C   0  0  0  0  0  0  0  0  0  0  0  0
   -4.3870   22.9570  -31.1160 C   0  0  0  0  0  0  0  0  0  0  0  0
   -9.3652   21.2301  -30.7541 H   0  0  0  0  0  0  0  0  0  0  0  0
   -9.6657   22.1893  -32.2428 H   0  0  0  0  0  0  0  0  0  0  0  0
   -9.9559   20.4166  -32.2428 H   0  0  0  0  0  0  0  0  0  0  0  0
   -7.5825   21.7820  -33.0003 H   0  0  0  0  0  0  0  0  0  0  0  0
   -7.2416   20.9896  -31.3938 H   0  0  0  0  0  0  0  0  0  0  0  0
   -8.3210   19.6400  -33.7890 H   0  0  0  0  0  0  0  0  0  0  0  0
   -8.6701   18.8822  -31.2851 H   0  0  0  0  0  0  0  0  0  0  0  0
   -8.5809   17.8033  -32.7658 H   0  0  0  0  0  0  0  0  0  0  0  0
   -6.9118   17.7831  -30.4189 H   0  0  0  0  0  0  0  0  0  0  0  0
   -6.8876   16.7008  -31.8523 H   0  0  0  0  0  0  0  0  0  0  0  0
   -5.9183   18.2131  -31.8523 H   0  0  0  0  0  0  0  0  0  0  0  0
   -5.8275   18.6361  -33.0189 H   0  0  0  0  0  0  0  0  0  0  0  0
   -6.3266   19.4618  -34.5664 H   0  0  0  0  0  0  0  0  0  0  0  0
   -4.5681   20.8091  -33.8620 H   0  0  0  0  0  0  0  0  0  0  0  0
   -6.0118   21.6536  -33.1658 H   0  0  0  0  0  0  0  0  0  0  0  0
   -5.0680   19.7860  -31.2350 H   0  0  0  0  0  0  0  0  0  0  0  0
   -2.3717   20.2397  -30.6427 H   0  0  0  0  0  0  0  0  0  0  0  0
   -0.9483   21.9802  -29.5949 H   0  0  0  0  0  0  0  0  0  0  0  0
   -2.0305   26.1910  -28.2684 H   0  0  0  0  0  0  0  0  0  0  0  0
    0.4754   24.9206  -28.0176 H   0  0  0  0  0  0  0  0  0  0  0  0
   -0.2171   26.3993  -27.1257 H   0  0  0  0  0  0  0  0  0  0  0  0
   -0.3033   23.5514  -26.1231 H   0  0  0  0  0  0  0  0  0  0  0  0
    0.8832   24.8815  -25.6368 H   0  0  0  0  0  0  0  0  0  0  0  0
   -1.5016   24.2137  -24.3744 H   0  0  0  0  0  0  0  0  0  0  0  0
   -0.4519   25.7222  -24.1902 H   0  0  0  0  0  0  0  0  0  0  0  0
   -2.7273   26.4183  -24.3914 H   0  0  0  0  0  0  0  0  0  0  0  0
   -1.8115   26.7982  -25.9363 H   0  0  0  0  0  0  0  0  0  0  0  0
   -4.0200   25.9990  -26.4330 H   0  0  0  0  0  0  0  0  0  0  0  0
   -2.3324   23.5982  -26.7571 H   0  0  0  0  0  0  0  0  0  0  0  0
   -3.6040   24.3302  -27.8705 H   0  0  0  0  0  0  0  0  0  0  0  0
   -5.6261   25.8145  -29.3211 H   0  0  0  0  0  0  0  0  0  0  0  0
   -5.4741   26.7090  -30.8714 H   0  0  0  0  0  0  0  0  0  0  0  0
   -6.0235   24.9988  -30.8714 H   0  0  0  0  0  0  0  0  0  0  0  0
   -5.3629   23.2293  -31.5443 H   0  0  0  0  0  0  0  0  0  0  0  0
  1  2  1  0
  2  3  1  0
  3  4  1  0
  4  5  1  0
  3  6  1  0
  6  7  1  0
  7  8  1  0
  8  9  1  0
  9 10  2  0
 10 11  1  0
 11 12  2  0
 12 13  1  0
 13 14  1  0
 14 15  1  0
 15 16  1  0
 16 17  1  0
 17 18  1  0
 18 19  1  0
 19 20  1  0
 12 21  1  0
 21 22  1  0
 22 23  1  0
 21 24  2  0
 24  9  1  0
 20 14  1  0
  1 25  1  0
  1 26  1  0
  1 27  1  0
  2 28  1  0
  2 29  1  0
  3 30  1  0
  4 31  1  0
  4 32  1  0
  5 33  1  0
  5 34  1  0
  5 35  1  0
  6 36  1  0
  6 37  1  0
  7 38  1  0
  7 39  1  0
  8 40  1  0
 10 41  1  0
 11 42  1  0
 14 43  1  6
 15 44  1  0
 15 45  1  0
 16 46  1  0
 16 47  1  0
 17 48  1  0
 17 49  1  0
 18 50  1  0
 18 51  1  0
 19 52  1  0
 20 53  1  0
 20 54  1  0
 23 55  1  0
 23 56  1  0
 23 57  1  0
 24 58  1  0
M  CHG  1   3   1
M  END
>  <UniqueID>  (18) 
18

>  <SMILES>  (18) 
CC[NH+](CC)CCNc1ccc(O[C@@H]2CCCCNC2)c(OC)c1

>  <Energy>  (18) 
75.0013139355495

>  <Genealogy>  (18) 
CC[NH+](CC)CCNc1ccc(OC2CCCCNC2)c(OC)c1 (protonated)
CC[NH+](CC)CCNc1ccc(O[C@@H]2CCCCNC2)c(OC)c1 (chirality)
CC[NH+](CC)CCNc1ccc(O[C@@H]2CCCCNC2)c(OC)c1 (3D coordinates assigned)
CC[NH+](CC)CCNc1ccc(O[C@@H]2CCCCNC2)c(OC)c1 (nonaromatic ring conformer: 75.0013139355495 kcal/mol)

>  <smiles>  (18) 
CCN(CC)CCNc1ccc(OC2CCCCNC2)c(OC)c1

>  <score_type>  (18) 
oracle

>  <origin>  (18) 
adg

>  <m_score__min__energy>  (18) 
-5.6100000000000003

>  <m_primary>  (18) 
energy

$$$$
18:0
     RDKit          3D

 44 46  0  0  0  0  0  0  0  0999 V2000
   -4.1980   24.0640  -28.8490 C   0  0  0  0  0  0  0  0  0  0  0  0
   -3.5240   24.3470  -30.1890 C   0  0  0  0  0  0  0  0  0  0  0  0
   -4.5150   24.6950  -31.2180 N   0  0  0  0  0  0  0  0  0  0  0  0
   -5.8930   24.7490  -30.6950 C   0  0  0  0  0  0  0  0  0  0  0  0
   -6.7510   23.6550  -31.3430 C   0  0  0  0  0  0  0  0  0  0  0  0
   -6.2030   23.2410  -32.6440 N   0  0  0  0  0  0  0  0  0  0  0  0
   -5.9900   21.8080  -32.6600 C   0  0  0  0  0  0  0  0  0  0  0  0
   -7.0430   20.8620  -32.4830 C   0  0  0  0  0  0  0  0  0  0  0  0
   -8.3740   21.2720  -32.2480 C   0  0  0  0  0  0  0  0  0  0  0  0
   -9.3940   20.3350  -32.0890 C   0  0  0  0  0  0  0  0  0  0  0  0
   -9.1140   18.9750  -32.1550 C   0  0  0  0  0  0  0  0  0  0  0  0
   -7.8100   18.5330  -32.3690 C   0  0  0  0  0  0  0  0  0  0  0  0
   -6.7470   19.4520  -32.5300 C   0  0  0  0  0  0  0  0  0  0  0  0
   -5.4460   19.0160  -32.7190 N   0  0  0  0  0  0  0  0  0  0  0  0
   -5.1000   17.5860  -32.7740 C   0  0  0  0  0  0  0  0  0  0  0  0
   -4.4590   19.9480  -32.8400 C   0  0  0  0  0  0  0  0  0  0  0  0
   -3.1780   19.7100  -32.9870 O   0  0  0  0  0  0  0  0  0  0  0  0
   -2.5650   20.8770  -33.0530 C   0  0  0  0  0  0  0  0  0  0  0  0
   -1.0910   21.0360  -33.2080 C   0  0  0  0  0  0  0  0  0  0  0  0
   -3.4780   21.9170  -32.9450 C   0  0  0  0  0  0  0  0  0  0  0  0
   -4.7020   21.2910  -32.8110 C   0  0  0  0  0  0  0  0  0  0  0  0
   -3.5205   24.3485  -28.0305 H   0  0  0  0  0  0  0  0  0  0  0  0
   -5.1273   24.6479  -28.7754 H   0  0  0  0  0  0  0  0  0  0  0  0
   -4.4319   22.9917  -28.7754 H   0  0  0  0  0  0  0  0  0  0  0  0
   -2.8224   25.1855  -30.0680 H   0  0  0  0  0  0  0  0  0  0  0  0
   -2.9913   23.4398  -30.5102 H   0  0  0  0  0  0  0  0  0  0  0  0
   -4.2670   25.6460  -31.5810 H   0  0  0  0  0  0  0  0  0  0  0  0
   -5.8740   24.5977  -29.6056 H   0  0  0  0  0  0  0  0  0  0  0  0
   -6.3274   25.7316  -30.9312 H   0  0  0  0  0  0  0  0  0  0  0  0
   -6.7826   22.7822  -30.6742 H   0  0  0  0  0  0  0  0  0  0  0  0
   -7.7609   24.0594  -31.5064 H   0  0  0  0  0  0  0  0  0  0  0  0
   -6.8290   23.5340  -33.4250 H   0  0  0  0  0  0  0  0  0  0  0  0
   -5.2950   23.7300  -32.8130 H   0  0  0  0  0  0  0  0  0  0  0  0
   -8.6090   22.3450  -32.1896 H   0  0  0  0  0  0  0  0  0  0  0  0
  -10.4253   20.6735  -31.9105 H   0  0  0  0  0  0  0  0  0  0  0  0
   -9.9269   18.2432  -32.0376 H   0  0  0  0  0  0  0  0  0  0  0  0
   -7.6043   17.4533  -32.4134 H   0  0  0  0  0  0  0  0  0  0  0  0
   -5.0047   17.1922  -31.7513 H   0  0  0  0  0  0  0  0  0  0  0  0
   -5.8913   17.0375  -33.3059 H   0  0  0  0  0  0  0  0  0  0  0  0
   -4.1454   17.4599  -33.3059 H   0  0  0  0  0  0  0  0  0  0  0  0
   -0.6212   21.0867  -32.2147 H   0  0  0  0  0  0  0  0  0  0  0  0
   -0.6857   20.1764  -33.7619 H   0  0  0  0  0  0  0  0  0  0  0  0
   -0.8784   21.9623  -33.7619 H   0  0  0  0  0  0  0  0  0  0  0  0
   -3.2728   22.9975  -32.9623 H   0  0  0  0  0  0  0  0  0  0  0  0
  1  2  1  0
  2  3  1  0
  3  4  1  0
  4  5  1  0
  5  6  1  0
  6  7  1  0
  7  8  2  0
  8  9  1  0
  9 10  2  0
 10 11  1  0
 11 12  2  0
 12 13  1  0
 13 14  2  0
 14 15  1  0
 14 16  1  0
 16 17  1  0
 17 18  1  0
 18 19  1  0
 18 20  2  0
 20 21  1  0
 21  7  1  0
 13  8  1  0
 21 16  2  0
  1 22  1  0
  1 23  1  0
  1 24  1  0
  2 25  1  0
  2 26  1  0
  3 27  1  0
  4 28  1  0
  4 29  1  0
  5 30  1  0
  5 31  1  0
  6 32  1  0
  6 33  1  0
  9 34  1  0
 10 35  1  0
 11 36  1  0
 12 37  1  0
 15 38  1  0
 15 39  1  0
 15 40  1  0
 19 41  1  0
 19 42  1  0
 19 43  1  0
 20 44  1  0
M  CHG  2   6   1  14   1
M  END
>  <UniqueID>  (19) 
19

>  <SMILES>  (19) 
CCNCC[NH2+]c1c2ccccc2[n+](C)c2oc(C)cc12

>  <Energy>  (19) 
85.15464290427983

>  <Genealogy>  (19) 
CCNCC[NH2+]c1c2ccccc2[n+](C)c2oc(C)cc12 (protonated)
CCNCC[NH2+]c1c2ccccc2[n+](C)c2oc(C)cc12 (3D coordinates assigned)
CCNCC[NH2+]c1c2ccccc2[n+](C)c2oc(C)cc12 (optimized conformer: 85.15464290427983 kcal/mol)

>  <smiles>  (19) 
CCNCCNc1c2ccccc2[n+](C)c2oc(C)cc12

>  <score_type>  (19) 
oracle

>  <origin>  (19) 
adg

>  <m_score__min__energy>  (19) 
-7.3600000000000003

>  <m_primary>  (19) 
energy

$$$$
19:0
     RDKit          3D

 83 85  0  0  0  0  0  0  0  0999 V2000
    2.3110   26.1630  -38.6150 C   0  0  0  0  0  0  0  0  0  0  0  0
    2.4950   25.5100  -37.2510 C   0  0  0  0  0  0  0  0  0  0  0  0
    1.4060   24.5250  -37.0160 N   0  0  0  0  0  0  0  0  0  0  0  0
    0.1770   25.1740  -36.5050 C   0  0  0  0  0  0  0  0  0  0  0  0
    0.5140   26.4070  -35.6640 C   0  0  0  0  0  0  0  0  0  0  0  0
    1.8370   23.4410  -36.1030 C   0  0  0  0  0  0  0  0  0  0  0  0
    0.7800   22.3370  -36.0380 C   0  0  0  0  0  0  0  0  0  0  0  0
    0.2790   22.2520  -34.7180 O   0  0  0  0  0  0  0  0  0  0  0  0
    0.5820   20.9880  -34.1510 C   0  0  0  0  0  0  0  0  0  0  0  0
   -0.4780   19.9620  -34.5380 C   0  0  0  0  0  0  0  0  0  0  0  0
   -1.7530   20.4410  -34.1570 O   0  0  0  0  0  0  0  0  0  0  0  0
   -1.7190   20.9770  -32.8500 C   0  0  0  0  0  0  0  0  0  0  0  0
   -3.0430   21.6920  -32.5550 C   0  0  0  0  0  0  0  0  0  0  0  0
   -4.0300   21.5550  -33.6430 N   0  0  0  0  0  0  0  0  0  0  0  0
   -5.2020   20.7770  -33.2500 C   0  0  0  0  0  0  0  0  0  0  0  0
   -6.2850   21.4110  -32.5770 C   0  0  0  0  0  0  0  0  0  0  0  0
   -6.2720   22.8000  -32.2850 C   0  0  0  0  0  0  0  0  0  0  0  0
   -7.3000   23.3950  -31.5600 C   0  0  0  0  0  0  0  0  0  0  0  0
   -8.3550   22.6280  -31.0920 C   0  0  0  0  0  0  0  0  0  0  0  0
   -8.4110   21.2690  -31.3800 C   0  0  0  0  0  0  0  0  0  0  0  0
   -7.4090   20.6410  -32.1660 C   0  0  0  0  0  0  0  0  0  0  0  0
   -7.5030   19.3090  -32.5090 N   0  0  0  0  0  0  0  0  0  0  0  0
   -8.7910   18.5930  -32.3480 C   0  0  0  0  0  0  0  0  0  0  0  0
   -6.4100   18.6430  -33.0240 C   0  0  0  0  0  0  0  0  0  0  0  0
   -6.3970   17.2260  -33.1160 C   0  0  0  0  0  0  0  0  0  0  0  0
   -5.3260   16.5360  -33.6790 C   0  0  0  0  0  0  0  0  0  0  0  0
   -5.3840   15.1340  -33.7000 O   0  0  0  0  0  0  0  0  0  0  0  0
   -4.3450   14.2600  -34.1400 C   0  0  0  0  0  0  0  0  0  0  0  0
   -3.2650   14.0230  -33.0570 C   0  0  0  0  0  0  0  0  0  0  0  0
   -3.5320   12.9180  -32.0820 N   0  0  0  0  0  0  0  0  0  0  0  0
   -4.6100   13.3750  -31.1680 C   0  0  0  0  0  0  0  0  0  0  0  0
   -4.0010   11.6870  -32.7630 C   0  0  0  0  0  0  0  0  0  0  0  0
   -2.3340   12.6080  -31.2660 C   0  0  0  0  0  0  0  0  0  0  0  0
   -4.2480   17.2560  -34.1900 C   0  0  0  0  0  0  0  0  0  0  0  0
   -4.2070   18.6420  -34.0700 C   0  0  0  0  0  0  0  0  0  0  0  0
   -5.2590   19.3650  -33.4530 C   0  0  0  0  0  0  0  0  0  0  0  0
    2.0149   27.2139  -38.4814 H   0  0  0  0  0  0  0  0  0  0  0  0
    3.2571   26.1169  -39.1742 H   0  0  0  0  0  0  0  0  0  0  0  0
    1.5282   25.6297  -39.1742 H   0  0  0  0  0  0  0  0  0  0  0  0
    3.4666   24.9952  -37.2201 H   0  0  0  0  0  0  0  0  0  0  0  0
    2.4617   26.2833  -36.4694 H   0  0  0  0  0  0  0  0  0  0  0  0
   -0.4484   25.4800  -37.3566 H   0  0  0  0  0  0  0  0  0  0  0  0
   -0.3600   24.4541  -35.8699 H   0  0  0  0  0  0  0  0  0  0  0  0
    0.4445   26.1526  -34.5961 H   0  0  0  0  0  0  0  0  0  0  0  0
    1.5363   26.7406  -35.8957 H   0  0  0  0  0  0  0  0  0  0  0  0
   -0.1965   27.2142  -35.8957 H   0  0  0  0  0  0  0  0  0  0  0  0
    2.7825   23.0147  -36.4695 H   0  0  0  0  0  0  0  0  0  0  0  0
    1.9730   23.8604  -35.0952 H   0  0  0  0  0  0  0  0  0  0  0  0
   -0.0423   22.5733  -36.7294 H   0  0  0  0  0  0  0  0  0  0  0  0
    1.2306   21.3756  -36.3256 H   0  0  0  0  0  0  0  0  0  0  0  0
    1.5627   20.6518  -34.5187 H   0  0  0  0  0  0  0  0  0  0  0  0
    0.6010   21.0845  -33.0554 H   0  0  0  0  0  0  0  0  0  0  0  0
   -0.4554   19.8028  -35.6262 H   0  0  0  0  0  0  0  0  0  0  0  0
   -0.2738   19.0101  -34.0260 H   0  0  0  0  0  0  0  0  0  0  0  0
   -1.5720   20.1637  -32.1241 H   0  0  0  0  0  0  0  0  0  0  0  0
   -0.8894   21.6949  -32.7701 H   0  0  0  0  0  0  0  0  0  0  0  0
   -3.4734   21.2667  -31.6364 H   0  0  0  0  0  0  0  0  0  0  0  0
   -2.8200   22.7638  -32.4477 H   0  0  0  0  0  0  0  0  0  0  0  0
   -4.2620   22.4920  -34.0300 H   0  0  0  0  0  0  0  0  0  0  0  0
   -3.5730   21.1030  -34.4640 H   0  0  0  0  0  0  0  0  0  0  0  0
   -5.4334   23.4178  -32.6385 H   0  0  0  0  0  0  0  0  0  0  0  0
   -7.2751   24.4760  -31.3580 H   0  0  0  0  0  0  0  0  0  0  0  0
   -9.1495   23.0952  -30.4916 H   0  0  0  0  0  0  0  0  0  0  0  0
   -9.2472   20.6690  -30.9917 H   0  0  0  0  0  0  0  0  0  0  0  0
   -9.0111   18.4706  -31.2772 H   0  0  0  0  0  0  0  0  0  0  0  0
   -9.5952   19.1735  -32.8237 H   0  0  0  0  0  0  0  0  0  0  0  0
   -8.7224   17.6035  -32.8237 H   0  0  0  0  0  0  0  0  0  0  0  0
   -7.2567   16.6574  -32.7319 H   0  0  0  0  0  0  0  0  0  0  0  0
   -4.7909   13.2914  -34.4102 H   0  0  0  0  0  0  0  0  0  0  0  0
   -3.8531   14.7359  -35.0011 H   0  0  0  0  0  0  0  0  0  0  0  0
   -2.3197   13.7947  -33.5711 H   0  0  0  0  0  0  0  0  0  0  0  0
   -3.2455   14.9445  -32.4567 H   0  0  0  0  0  0  0  0  0  0  0  0
   -4.2886   13.2387  -30.1249 H   0  0  0  0  0  0  0  0  0  0  0  0
   -4.8193   14.4393  -31.3511 H   0  0  0  0  0  0  0  0  0  0  0  0
   -5.5204   12.7854  -31.3511 H   0  0  0  0  0  0  0  0  0  0  0  0
   -4.2865   10.9376  -32.0101 H   0  0  0  0  0  0  0  0  0  0  0  0
   -4.8715   11.9249  -33.3920 H   0  0  0  0  0  0  0  0  0  0  0  0
   -3.1929   11.2854  -33.3920 H   0  0  0  0  0  0  0  0  0  0  0  0
   -2.5904   12.6743  -30.1984 H   0  0  0  0  0  0  0  0  0  0  0  0
   -1.9863   11.5903  -31.4970 H   0  0  0  0  0  0  0  0  0  0  0  0
   -1.5363   13.3293  -31.4970 H   0  0  0  0  0  0  0  0  0  0  0  0
   -3.4247   16.7259  -34.6911 H   0  0  0  0  0  0  0  0  0  0  0  0
   -3.3377   19.1895  -34.4632 H   0  0  0  0  0  0  0  0  0  0  0  0
  1  2  1  0
  2  3  1  0
  3  4  1  0
  4  5  1  0
  3  6  1  0
  6  7  1  0
  7  8  1  0
  8  9  1  0
  9 10  1  0
 10 11  1  0
 11 12  1  0
 12 13  1  0
 13 14  1  0
 14 15  1  0
 15 16  2  0
 16 17  1  0
 17 18  2  0
 18 19  1  0
 19 20  2  0
 20 21  1  0
 21 22  2  0
 22 23  1  0
 22 24  1  0
 24 25  2  0
 25 26  1  0
 26 27  1  0
 27 28  1  0
 28 29  1  0
 29 30  1  0
 30 31  1  0
 30 32  1  0
 30 33  1  0
 26 34  2  0
 34 35  1  0
 35 36  2  0
 36 15  1  0
 21 16  1  0
 36 24  1  0
  1 37  1  0
  1 38  1  0
  1 39  1  0
  2 40  1  0
  2 41  1  0
  4 42  1  0
  4 43  1  0
  5 44  1  0
  5 45  1  0
  5 46  1  0
  6 47  1  0
  6 48  1  0
  7 49  1  0
  7 50  1  0
  9 51  1  0
  9 52  1  0
 10 53  1  0
 10 54  1  0
 12 55  1  0
 12 56  1  0
 13 57  1  0
 13 58  1  0
 14 59  1  0
 14 60  1  0
 17 61  1  0
 18 62  1  0
 19 63  1  0
 20 64  1  0
 23 65  1  0
 23 66  1  0
 23 67  1  0
 25 68  1  0
 28 69  1  0
 28 70  1  0
 29 71  1  0
 29 72  1  0
 31 73  1  0
 31 74  1  0
 31 75  1  0
 32 76  1  0
 32 77  1  0
 32 78  1  0
 33 79  1  0
 33 80  1  0
 33 81  1  0
 34 82  1  0
 35 83  1  0
M  CHG  3  14   1  22   1  30   1
M  END
>  <UniqueID>  (20) 
20

>  <SMILES>  (20) 
CCN(CC)CCOCCOCC[NH2+]c1c2ccccc2[n+](C)c2cc(OCC[N+](C)(C)C)ccc12

>  <Energy>  (20) 
112.9134075008563

>  <Genealogy>  (20) 
CCN(CC)CCOCCOCC[NH2+]c1c2ccccc2[n+](C)c2cc(OCC[N+](C)(C)C)ccc12 (protonated)
CCN(CC)CCOCCOCC[NH2+]c1c2ccccc2[n+](C)c2cc(OCC[N+](C)(C)C)ccc12 (3D coordinates assigned)
CCN(CC)CCOCCOCC[NH2+]c1c2ccccc2[n+](C)c2cc(OCC[N+](C)(C)C)ccc12 (optimized conformer: 112.9134075008563 kcal/mol)

>  <smiles>  (20) 
CCN(CC)CCOCCOCCNc1c2ccccc2[n+](C)c2cc(OCC[N+](C)(C)C)ccc12

>  <score_type>  (20) 
oracle

>  <origin>  (20) 
adg

>  <m_score__min__energy>  (20) 
-7.5300000000000002

>  <m_primary>  (20) 
energy

$$$$
20:0
     RDKit          3D

 38 39  0  0  0  0  0  0  0  0999 V2000
   -6.4520   17.0340  -33.6960 C   0  0  0  0  0  0  0  0  0  0  0  0
   -5.9210   17.1720  -32.2720 C   0  0  0  0  0  0  0  0  0  0  0  0
   -6.0790   18.4980  -31.8020 O   0  0  0  0  0  0  0  0  0  0  0  0
   -5.2800   19.4100  -32.5360 C   0  0  0  0  0  0  0  0  0  0  0  0
   -6.1590   20.4270  -33.2700 C   0  0  0  0  0  0  0  0  0  0  0  0
   -6.4220   21.6120  -32.4440 N   0  0  0  0  0  0  0  0  0  0  0  0
   -7.6270   22.0530  -31.9790 C   0  0  0  0  0  0  0  0  0  0  0  0
   -9.1900   21.1950  -32.2200 S   0  0  0  0  0  0  0  0  0  0  0  0
   -8.7570   19.7320  -31.2160 C   0  0  0  0  0  0  0  0  0  0  0  0
   -9.1080   18.4460  -31.9480 C   0  0  0  0  0  0  0  0  0  0  0  0
   -7.5170   23.1510  -31.1950 N   0  0  0  0  0  0  0  0  0  0  0  0
   -6.1970   23.4090  -31.1730 C   0  0  0  0  0  0  0  0  0  0  0  0
   -5.5320   22.4780  -31.9090 C   0  0  0  0  0  0  0  0  0  0  0  0
   -4.1390   22.4910  -31.9390 C   0  0  0  0  0  0  0  0  0  0  0  0
   -3.4760   21.6200  -32.5600 O   0  0  0  0  0  0  0  0  0  0  0  0
   -3.4980   23.4740  -31.2480 N   0  0  0  0  0  0  0  0  0  0  0  0
   -4.1810   24.4170  -30.5270 C   0  0  0  0  0  0  0  0  0  0  0  0
   -3.5290   25.2970  -29.9030 O   0  0  0  0  0  0  0  0  0  0  0  0
   -5.5590   24.3960  -30.4800 N   0  0  0  0  0  0  0  0  0  0  0  0
   -6.3290   25.3630  -29.6870 C   0  0  0  0  0  0  0  0  0  0  0  0
   -7.5162   16.7574  -33.6653 H   0  0  0  0  0  0  0  0  0  0  0  0
   -6.3372   17.9918  -34.2246 H   0  0  0  0  0  0  0  0  0  0  0  0
   -5.8854   16.2533  -34.2246 H   0  0  0  0  0  0  0  0  0  0  0  0
   -6.4750   16.4875  -31.6128 H   0  0  0  0  0  0  0  0  0  0  0  0
   -4.8496   16.9229  -32.2699 H   0  0  0  0  0  0  0  0  0  0  0  0
   -4.6113   19.9429  -31.8440 H   0  0  0  0  0  0  0  0  0  0  0  0
   -4.6918   18.8492  -33.2773 H   0  0  0  0  0  0  0  0  0  0  0  0
   -5.6474   20.7411  -34.1917 H   0  0  0  0  0  0  0  0  0  0  0  0
   -7.1220   19.9470  -33.4983 H   0  0  0  0  0  0  0  0  0  0  0  0
   -7.6768   19.7447  -31.0088 H   0  0  0  0  0  0  0  0  0  0  0  0
   -9.3296   19.7688  -30.2775 H   0  0  0  0  0  0  0  0  0  0  0  0
   -9.3241   17.6544  -31.2154 H   0  0  0  0  0  0  0  0  0  0  0  0
   -9.9934   18.6132  -32.5790 H   0  0  0  0  0  0  0  0  0  0  0  0
   -8.2605   18.1402  -32.5790 H   0  0  0  0  0  0  0  0  0  0  0  0
   -8.2810   23.6440  -30.6840 H   0  0  0  0  0  0  0  0  0  0  0  0
   -6.1724   25.1664  -28.6161 H   0  0  0  0  0  0  0  0  0  0  0  0
   -5.9931   26.3829  -29.9255 H   0  0  0  0  0  0  0  0  0  0  0  0
   -7.3983   25.2640  -29.9255 H   0  0  0  0  0  0  0  0  0  0  0  0
  1  2  1  0
  2  3  1  0
  3  4  1  0
  4  5  1  0
  5  6  1  0
  6  7  1  0
  7  8  1  0
  8  9  1  0
  9 10  1  0
  7 11  2  0
 11 12  1  0
 12 13  2  0
 13 14  1  0
 14 15  2  0
 14 16  1  0
 16 17  1  0
 17 18  2  0
 17 19  1  0
 19 20  1  0
 13  6  1  0
 19 12  1  0
  1 21  1  0
  1 22  1  0
  1 23  1  0
  2 24  1  0
  2 25  1  0
  4 26  1  0
  4 27  1  0
  5 28  1  0
  5 29  1  0
  9 30  1  0
  9 31  1  0
 10 32  1  0
 10 33  1  0
 10 34  1  0
 11 35  1  0
 20 36  1  0
 20 37  1  0
 20 38  1  0
M  CHG  2  11   1  16  -1
M  END
>  <UniqueID>  (21) 
21

>  <SMILES>  (21) 
CCOCCn1c(SCC)[nH+]c2c1c(=O)[n-]c(=O)n2C

>  <Energy>  (21) 
75.05721449025717

>  <Genealogy>  (21) 
CCOCCn1c(SCC)[nH+]c2c1c(=O)[n-]c(=O)n2C (protonated)
CCOCCn1c(SCC)[nH+]c2c1c(=O)[n-]c(=O)n2C (3D coordinates assigned)
CCOCCn1c(SCC)[nH+]c2c1c(=O)[n-]c(=O)n2C (optimized conformer: 75.05721449025717 kcal/mol)

>  <smiles>  (21) 
CCOCCn1c(SCC)nc2c1c(=O)[nH]c(=O)n2C

>  <score_type>  (21) 
oracle

>  <origin>  (21) 
adg

>  <m_score__min__energy>  (21) 
-7.1399999999999997

>  <m_primary>  (21) 
energy

$$$$
21:0
     RDKit          3D

 51 52  0  0  0  0  0  0  0  0999 V2000
   -4.0880   24.1810  -28.6010 C   0  0  0  0  0  0  0  0  0  0  0  0
   -3.4140   24.5340  -29.9300 C   0  0  0  0  0  0  0  0  0  0  0  0
   -4.3860   24.9490  -30.9560 N   0  0  0  0  0  0  0  0  0  0  0  0
   -5.6280   25.4920  -30.3800 C   0  0  0  0  0  0  0  0  0  0  0  0
   -6.8160   24.5580  -30.6530 C   0  0  0  0  0  0  0  0  0  0  0  0
   -6.4580   23.0800  -30.3820 C   0  0  0  0  0  0  0  0  0  0  0  0
   -5.7180   22.4490  -31.5100 N   0  0  1  0  0  0  0  0  0  0  0  0
   -4.8380   21.3540  -31.0190 C   0  0  0  0  0  0  0  0  0  0  0  0
   -3.5260   21.2820  -31.7690 C   0  0  0  0  0  0  0  0  0  0  0  0
   -2.3180   21.5640  -31.1080 C   0  0  0  0  0  0  0  0  0  0  0  0
   -1.1040   21.5030  -31.7990 C   0  0  0  0  0  0  0  0  0  0  0  0
   -1.0850   21.1550  -33.1520 C   0  0  0  0  0  0  0  0  0  0  0  0
   -2.2800   20.8650  -33.8160 C   0  0  0  0  0  0  0  0  0  0  0  0
   -3.4960   20.9250  -33.1290 C   0  0  0  0  0  0  0  0  0  0  0  0
   -6.6220   22.0150  -32.6210 C   0  0  0  0  0  0  0  0  0  0  0  0
   -7.1350   20.5790  -32.5200 C   0  0  0  0  0  0  0  0  0  0  0  0
   -6.4330   19.5580  -33.1880 C   0  0  0  0  0  0  0  0  0  0  0  0
   -6.8380   18.2270  -33.0910 C   0  0  0  0  0  0  0  0  0  0  0  0
   -7.9680   17.8920  -32.3510 C   0  0  0  0  0  0  0  0  0  0  0  0
   -8.7140   18.8920  -31.7270 C   0  0  0  0  0  0  0  0  0  0  0  0
   -8.3220   20.2400  -31.8090 C   0  0  0  0  0  0  0  0  0  0  0  0
   -9.2400   21.2860  -31.2220 C   0  0  0  0  0  0  0  0  0  0  0  0
   -3.4521   24.5141  -27.7675 H   0  0  0  0  0  0  0  0  0  0  0  0
   -5.0647   24.6833  -28.5404 H   0  0  0  0  0  0  0  0  0  0  0  0
   -4.2313   23.0921  -28.5404 H   0  0  0  0  0  0  0  0  0  0  0  0
   -2.7057   25.3582  -29.7596 H   0  0  0  0  0  0  0  0  0  0  0  0
   -2.9007   23.6330  -30.2971 H   0  0  0  0  0  0  0  0  0  0  0  0
   -3.9540   25.6700  -31.5810 H   0  0  0  0  0  0  0  0  0  0  0  0
   -5.5013   25.6044  -29.2931 H   0  0  0  0  0  0  0  0  0  0  0  0
   -5.8340   26.4664  -30.8470 H   0  0  0  0  0  0  0  0  0  0  0  0
   -7.6533   24.8469  -30.0007 H   0  0  0  0  0  0  0  0  0  0  0  0
   -7.0899   24.6544  -31.7140 H   0  0  0  0  0  0  0  0  0  0  0  0
   -5.8316   23.0300  -29.4791 H   0  0  0  0  0  0  0  0  0  0  0  0
   -7.4014   22.5287  -30.2554 H   0  0  0  0  0  0  0  0  0  0  0  0
   -5.0960   23.1860  -31.9210 H   0  0  0  0  0  0  0  0  0  0  0  0
   -4.6257   21.5237  -29.9531 H   0  0  0  0  0  0  0  0  0  0  0  0
   -5.3671   20.4032  -31.1808 H   0  0  0  0  0  0  0  0  0  0  0  0
   -2.3278   21.8340  -30.0417 H   0  0  0  0  0  0  0  0  0  0  0  0
   -0.1627   21.7293  -31.2767 H   0  0  0  0  0  0  0  0  0  0  0  0
   -0.1293   21.1093  -33.6947 H   0  0  0  0  0  0  0  0  0  0  0  0
   -2.2637   20.5891  -34.8807 H   0  0  0  0  0  0  0  0  0  0  0  0
   -4.4338   20.6919  -33.6546 H   0  0  0  0  0  0  0  0  0  0  0  0
   -7.4926   22.6872  -32.6334 H   0  0  0  0  0  0  0  0  0  0  0  0
   -6.0190   22.0595  -33.5399 H   0  0  0  0  0  0  0  0  0  0  0  0
   -5.5522   19.8137  -33.7953 H   0  0  0  0  0  0  0  0  0  0  0  0
   -6.2628   17.4400  -33.6007 H   0  0  0  0  0  0  0  0  0  0  0  0
   -8.2728   16.8391  -32.2582 H   0  0  0  0  0  0  0  0  0  0  0  0
   -9.6199   18.6229  -31.1640 H   0  0  0  0  0  0  0  0  0  0  0  0
   -9.1970   21.2370  -30.1239 H   0  0  0  0  0  0  0  0  0  0  0  0
   -8.9207   22.2838  -31.5573 H   0  0  0  0  0  0  0  0  0  0  0  0
  -10.2708   21.0989  -31.5573 H   0  0  0  0  0  0  0  0  0  0  0  0
  1  2  1  0
  2  3  1  0
  3  4  1  0
  4  5  1  0
  5  6  1  0
  6  7  1  0
  7  8  1  0
  8  9  1  0
  9 10  2  0
 10 11  1  0
 11 12  2  0
 12 13  1  0
 13 14  2  0
  7 15  1  0
 15 16  1  0
 16 17  2  0
 17 18  1  0
 18 19  2  0
 19 20  1  0
 20 21  2  0
 21 22  1  0
 14  9  1  0
 21 16  1  0
  1 23  1  0
  1 24  1  0
  1 25  1  0
  2 26  1  0
  2 27  1  0
  3 28  1  0
  4 29  1  0
  4 30  1  0
  5 31  1  0
  5 32  1  0
  6 33  1  0
  6 34  1  0
  7 35  1  6
  8 36  1  0
  8 37  1  0
 10 38  1  0
 11 39  1  0
 12 40  1  0
 13 41  1  0
 14 42  1  0
 15 43  1  0
 15 44  1  0
 17 45  1  0
 18 46  1  0
 19 47  1  0
 20 48  1  0
 22 49  1  0
 22 50  1  0
 22 51  1  0
M  CHG  1   7   1
M  END
>  <UniqueID>  (22) 
22

>  <SMILES>  (22) 
CCNCCC[N@@H+](Cc1ccccc1)Cc1ccccc1C

>  <Energy>  (22) 
58.226628430820966

>  <Genealogy>  (22) 
CCNCCC[NH+](Cc1ccccc1)Cc1ccccc1C (protonated)
CCNCCC[N@@H+](Cc1ccccc1)Cc1ccccc1C (chirality)
CCNCCC[N@@H+](Cc1ccccc1)Cc1ccccc1C (3D coordinates assigned)
CCNCCC[N@@H+](Cc1ccccc1)Cc1ccccc1C (optimized conformer: 58.226628430820966 kcal/mol)

>  <smiles>  (22) 
CCNCCCN(Cc1ccccc1)Cc1ccccc1C

>  <score_type>  (22) 
oracle

>  <origin>  (22) 
adg

>  <m_score__min__energy>  (22) 
-7.9299999999999997

>  <m_primary>  (22) 
energy

$$$$
22:0
     RDKit          3D

 48 51  0  0  0  0  0  0  0  0999 V2000
   -2.3770   23.0430  -28.1740 C   0  0  0  0  0  0  0  0  0  0  0  0
   -3.0730   23.0110  -29.4620 N   0  0  0  0  0  0  0  0  0  0  0  0
   -2.7380   22.3060  -30.5730 C   0  0  0  0  0  0  0  0  0  0  0  0
   -3.7000   22.4600  -31.5680 C   0  0  0  0  0  0  0  0  0  0  0  0
   -4.6160   23.3680  -31.0560 C   0  0  0  0  0  0  0  0  0  0  0  0
   -5.7410   23.9780  -31.6240 C   0  0  0  0  0  0  0  0  0  0  0  0
   -6.4850   24.8670  -30.8280 C   0  0  0  0  0  0  0  0  0  0  0  0
   -6.0960   25.1360  -29.5010 C   0  0  0  0  0  0  0  0  0  0  0  0
   -4.9480   24.5330  -28.9590 C   0  0  0  0  0  0  0  0  0  0  0  0
   -4.2180   23.6560  -29.7680 C   0  0  0  0  0  0  0  0  0  0  0  0
   -3.5880   21.8640  -32.9630 C   0  0  2  0  0  0  0  0  0  0  0  0
   -4.8850   21.3060  -33.4470 N   0  0  0  0  0  0  0  0  0  0  0  0
   -5.0430   19.8690  -33.1460 C   0  0  0  0  0  0  0  0  0  0  0  0
   -5.7720   19.6350  -31.8150 C   0  0  0  0  0  0  0  0  0  0  0  0
   -7.1770   20.1750  -31.8770 C   0  0  0  0  0  0  0  0  0  0  0  0
   -7.5060   21.3770  -31.2250 C   0  0  0  0  0  0  0  0  0  0  0  0
   -8.8120   21.8740  -31.2790 C   0  0  0  0  0  0  0  0  0  0  0  0
   -9.8030   21.1720  -31.9740 C   0  0  0  0  0  0  0  0  0  0  0  0
   -9.4870   19.9720  -32.6200 C   0  0  0  0  0  0  0  0  0  0  0  0
   -8.1820   19.4670  -32.5620 C   0  0  0  0  0  0  0  0  0  0  0  0
   -2.4840   20.7680  -32.9780 C   0  0  0  0  0  0  0  0  0  0  0  0
   -1.2170   21.2230  -32.2360 C   0  0  0  0  0  0  0  0  0  0  0  0
   -1.5040   21.4630  -30.7450 C   0  0  0  0  0  0  0  0  0  0  0  0
   -3.1139   23.0091  -27.3581 H   0  0  0  0  0  0  0  0  0  0  0  0
   -1.7059   22.1748  -28.0982 H   0  0  0  0  0  0  0  0  0  0  0  0
   -1.7884   23.9692  -28.0982 H   0  0  0  0  0  0  0  0  0  0  0  0
   -6.0344   23.7679  -32.6631 H   0  0  0  0  0  0  0  0  0  0  0  0
   -7.3777   25.3562  -31.2448 H   0  0  0  0  0  0  0  0  0  0  0  0
   -6.6949   25.8227  -28.8848 H   0  0  0  0  0  0  0  0  0  0  0  0
   -4.6322   24.7449  -27.9268 H   0  0  0  0  0  0  0  0  0  0  0  0
   -3.3126   22.6757  -33.6525 H   0  0  0  0  0  0  0  0  0  0  0  0
   -4.9810   21.4230  -34.4800 H   0  0  0  0  0  0  0  0  0  0  0  0
   -5.7010   21.8230  -33.0470 H   0  0  0  0  0  0  0  0  0  0  0  0
   -5.6214   19.3986  -33.9548 H   0  0  0  0  0  0  0  0  0  0  0  0
   -4.0389   19.4273  -33.0648 H   0  0  0  0  0  0  0  0  0  0  0  0
   -5.8087   18.5553  -31.6080 H   0  0  0  0  0  0  0  0  0  0  0  0
   -5.2265   20.1578  -31.0156 H   0  0  0  0  0  0  0  0  0  0  0  0
   -6.7327   21.9285  -30.6702 H   0  0  0  0  0  0  0  0  0  0  0  0
   -9.0608   22.8190  -30.7739 H   0  0  0  0  0  0  0  0  0  0  0  0
  -10.8302   21.5636  -32.0124 H   0  0  0  0  0  0  0  0  0  0  0  0
  -10.2640   19.4248  -33.1738 H   0  0  0  0  0  0  0  0  0  0  0  0
   -7.9415   18.5130  -33.0539 H   0  0  0  0  0  0  0  0  0  0  0  0
   -2.8752   19.8621  -32.4919 H   0  0  0  0  0  0  0  0  0  0  0  0
   -2.2137   20.5696  -34.0257 H   0  0  0  0  0  0  0  0  0  0  0  0
   -0.4454   20.4450  -32.3325 H   0  0  0  0  0  0  0  0  0  0  0  0
   -0.8719   22.1677  -32.6815 H   0  0  0  0  0  0  0  0  0  0  0  0
   -1.6550   20.4947  -30.2454 H   0  0  0  0  0  0  0  0  0  0  0  0
   -0.6483   21.9914  -30.2994 H   0  0  0  0  0  0  0  0  0  0  0  0
  1  2  1  0
  2  3  1  0
  3  4  2  0
  4  5  1  0
  5  6  2  0
  6  7  1  0
  7  8  2  0
  8  9  1  0
  9 10  2  0
  4 11  1  0
 11 12  1  0
 12 13  1  0
 13 14  1  0
 14 15  1  0
 15 16  2  0
 16 17  1  0
 17 18  2  0
 18 19  1  0
 19 20  2  0
 11 21  1  0
 21 22  1  0
 22 23  1  0
 10  2  1  0
 20 15  1  0
 23  3  1  0
 10  5  1  0
  1 24  1  0
  1 25  1  0
  1 26  1  0
  6 27  1  0
  7 28  1  0
  8 29  1  0
  9 30  1  0
 11 31  1  6
 12 32  1  0
 12 33  1  0
 13 34  1  0
 13 35  1  0
 14 36  1  0
 14 37  1  0
 16 38  1  0
 17 39  1  0
 18 40  1  0
 19 41  1  0
 20 42  1  0
 21 43  1  0
 21 44  1  0
 22 45  1  0
 22 46  1  0
 23 47  1  0
 23 48  1  0
M  CHG  1  12   1
M  END
>  <UniqueID>  (23) 
23

>  <SMILES>  (23) 
Cn1c2c(c3ccccc31)[C@H]([NH2+]CCc1ccccc1)CCC2

>  <Energy>  (23) 
89.58954440426125

>  <Genealogy>  (23) 
Cn1c2c(c3ccccc31)C([NH2+]CCc1ccccc1)CCC2 (protonated)
Cn1c2c(c3ccccc31)[C@H]([NH2+]CCc1ccccc1)CCC2 (chirality)
Cn1c2c(c3ccccc31)[C@H]([NH2+]CCc1ccccc1)CCC2 (3D coordinates assigned)
Cn1c2c(c3ccccc31)[C@H]([NH2+]CCc1ccccc1)CCC2 (nonaromatic ring conformer: 89.58954440426125 kcal/mol)

>  <smiles>  (23) 
Cn1c2c(c3ccccc31)C(NCCc1ccccc1)CCC2

>  <score_type>  (23) 
oracle

>  <origin>  (23) 
adg

>  <m_score__min__energy>  (23) 
-8.1600000000000001

>  <m_primary>  (23) 
energy

$$$$
23:0
     RDKit          3D

 49 51  0  0  0  0  0  0  0  0999 V2000
   -9.4370   18.5460  -32.3560 C   0  0  0  0  0  0  0  0  0  0  0  0
   -8.1170   19.2580  -32.3530 C   0  0  0  0  0  0  0  0  0  0  0  0
   -7.9860   20.5420  -31.7800 C   0  0  0  0  0  0  0  0  0  0  0  0
   -6.7530   21.2430  -31.8130 C   0  0  0  0  0  0  0  0  0  0  0  0
   -6.7130   22.5920  -31.3210 N   0  0  0  0  0  0  0  0  0  0  0  0
   -6.8360   23.6890  -32.2800 C   0  0  0  0  0  0  0  0  0  0  0  0
   -7.0320   22.8510  -29.9180 C   0  0  0  0  0  0  0  0  0  0  0  0
   -5.6160   20.6330  -32.4180 C   0  0  0  0  0  0  0  0  0  0  0  0
   -4.3030   21.1850  -32.5040 C   0  0  0  0  0  0  0  0  0  0  0  0
   -3.9480   22.3870  -31.8020 N   0  0  0  0  0  0  0  0  0  0  0  0
   -2.7340   22.5130  -30.9990 C   0  0  0  0  0  0  0  0  0  0  0  0
   -2.8280   23.7390  -30.0860 C   0  0  0  0  0  0  0  0  0  0  0  0
   -4.2410   24.0480  -29.7750 N   0  0  0  0  0  0  0  0  0  0  0  0
   -4.6810   25.2680  -30.4770 C   0  0  0  0  0  0  0  0  0  0  0  0
   -4.4170   24.2300  -28.3250 C   0  0  0  0  0  0  0  0  0  0  0  0
   -3.3030   20.4770  -33.2250 C   0  0  0  0  0  0  0  0  0  0  0  0
   -3.5780   19.2340  -33.8220 C   0  0  0  0  0  0  0  0  0  0  0  0
   -4.8540   18.6980  -33.6850 C   0  0  0  0  0  0  0  0  0  0  0  0
   -5.8160   19.3810  -33.0060 C   0  0  0  0  0  0  0  0  0  0  0  0
   -6.9970   18.7050  -32.9870 C   0  0  0  0  0  0  0  0  0  0  0  0
   -6.8660   17.4050  -33.7220 C   0  0  0  0  0  0  0  0  0  0  0  0
   -5.3910   17.4040  -34.2050 C   0  0  0  0  0  0  0  0  0  0  0  0
   -9.7615   18.3709  -31.3196 H   0  0  0  0  0  0  0  0  0  0  0  0
  -10.1852   19.1629  -32.8753 H   0  0  0  0  0  0  0  0  0  0  0  0
   -9.3324   17.5819  -32.8753 H   0  0  0  0  0  0  0  0  0  0  0  0
   -8.8580   21.0083  -31.2981 H   0  0  0  0  0  0  0  0  0  0  0  0
   -6.9426   24.6400  -31.7376 H   0  0  0  0  0  0  0  0  0  0  0  0
   -5.9364   23.7262  -32.9119 H   0  0  0  0  0  0  0  0  0  0  0  0
   -7.7215   23.5260  -32.9119 H   0  0  0  0  0  0  0  0  0  0  0  0
   -6.3393   22.2886  -29.2746 H   0  0  0  0  0  0  0  0  0  0  0  0
   -6.9322   23.9269  -29.7119 H   0  0  0  0  0  0  0  0  0  0  0  0
   -8.0645   22.5324  -29.7119 H   0  0  0  0  0  0  0  0  0  0  0  0
   -4.6250   23.1830  -31.7890 H   0  0  0  0  0  0  0  0  0  0  0  0
   -2.6105   21.6100  -30.3831 H   0  0  0  0  0  0  0  0  0  0  0  0
   -1.8706   22.6310  -31.6703 H   0  0  0  0  0  0  0  0  0  0  0  0
   -2.2878   23.5351  -29.1497 H   0  0  0  0  0  0  0  0  0  0  0  0
   -2.3812   24.6014  -30.6023 H   0  0  0  0  0  0  0  0  0  0  0  0
   -4.9579   26.0357  -29.7395 H   0  0  0  0  0  0  0  0  0  0  0  0
   -3.8618   25.6438  -31.1076 H   0  0  0  0  0  0  0  0  0  0  0  0
   -5.5515   25.0344  -31.1076 H   0  0  0  0  0  0  0  0  0  0  0  0
   -3.7506   23.5409  -27.7854 H   0  0  0  0  0  0  0  0  0  0  0  0
   -4.1703   25.2669  -28.0530 H   0  0  0  0  0  0  0  0  0  0  0  0
   -5.4616   24.0182  -28.0530 H   0  0  0  0  0  0  0  0  0  0  0  0
   -2.2958   20.9095  -33.3175 H   0  0  0  0  0  0  0  0  0  0  0  0
   -2.8006   18.6970  -34.3853 H   0  0  0  0  0  0  0  0  0  0  0  0
   -7.0603   16.5542  -33.0524 H   0  0  0  0  0  0  0  0  0  0  0  0
   -7.5857   17.3074  -34.5481 H   0  0  0  0  0  0  0  0  0  0  0  0
   -4.8394   16.5511  -33.7828 H   0  0  0  0  0  0  0  0  0  0  0  0
   -5.2973   17.3085  -35.2968 H   0  0  0  0  0  0  0  0  0  0  0  0
  1  2  1  0
  2  3  2  0
  3  4  1  0
  4  5  1  0
  5  6  1  0
  5  7  1  0
  4  8  2  0
  8  9  1  0
  9 10  1  0
 10 11  1  0
 11 12  1  0
 12 13  1  0
 13 14  1  0
 13 15  1  0
  9 16  2  0
 16 17  1  0
 17 18  2  0
 18 19  1  0
 19 20  2  0
 20 21  1  0
 21 22  1  0
 20  2  1  0
 19  8  1  0
 22 18  1  0
  1 23  1  0
  1 24  1  0
  1 25  1  0
  3 26  1  0
  6 27  1  0
  6 28  1  0
  6 29  1  0
  7 30  1  0
  7 31  1  0
  7 32  1  0
 10 33  1  0
 11 34  1  0
 11 35  1  0
 12 36  1  0
 12 37  1  0
 14 38  1  0
 14 39  1  0
 14 40  1  0
 15 41  1  0
 15 42  1  0
 15 43  1  0
 16 44  1  0
 17 45  1  0
 21 46  1  0
 21 47  1  0
 22 48  1  0
 22 49  1  0
M  END
>  <UniqueID>  (24) 
24

>  <SMILES>  (24) 
Cc1cc(N(C)C)c2c(NCCN(C)C)ccc3c2c1CC3

>  <Energy>  (24) 
76.65271405107177

>  <Genealogy>  (24) 
Cc1cc(N(C)C)c2c(NCCN(C)C)ccc3c2c1CC3 (3D coordinates assigned)
Cc1cc(N(C)C)c2c(NCCN(C)C)ccc3c2c1CC3 (nonaromatic ring conformer: 76.65271405107177 kcal/mol)

>  <smiles>  (24) 
Cc1cc(N(C)C)c2c(NCCN(C)C)ccc3c2c1CC3

>  <score_type>  (24) 
oracle

>  <origin>  (24) 
adg

>  <m_score__min__energy>  (24) 
-7.5800000000000001

>  <m_primary>  (24) 
energy

$$$$
24:0
     RDKit          3D

 70 72  0  0  0  0  0  0  0  0999 V2000
   -3.3250   23.8130  -28.1090 C   0  0  0  0  0  0  0  0  0  0  0  0
   -3.1250   24.5380  -29.4420 C   0  0  0  0  0  0  0  0  0  0  0  0
   -3.9980   24.0040  -30.5150 N   0  0  0  0  0  0  0  0  0  0  0  0
   -5.0650   24.9820  -30.8350 C   0  0  0  0  0  0  0  0  0  0  0  0
   -6.0900   25.1220  -29.7090 C   0  0  0  0  0  0  0  0  0  0  0  0
   -4.4960   22.6250  -30.2570 C   0  0  0  0  0  0  0  0  0  0  0  0
   -3.8120   21.5250  -31.0930 C   0  0  0  0  0  0  0  0  0  0  0  0
   -3.5610   22.0030  -32.5260 C   0  0  0  0  0  0  0  0  0  0  0  0
   -4.6160   21.5250  -33.4190 N   0  0  0  0  0  0  0  0  0  0  0  0
   -5.6850   20.6900  -32.9450 C   0  0  0  0  0  0  0  0  0  0  0  0
   -6.8560   21.2630  -32.4230 C   0  0  0  0  0  0  0  0  0  0  0  0
   -6.9630   22.6610  -32.2590 C   0  0  0  0  0  0  0  0  0  0  0  0
   -8.1090   23.2250  -31.7040 C   0  0  0  0  0  0  0  0  0  0  0  0
   -9.1540   22.4110  -31.2870 C   0  0  0  0  0  0  0  0  0  0  0  0
   -9.0700   21.0270  -31.4370 C   0  0  0  0  0  0  0  0  0  0  0  0
   -7.9310   20.4230  -32.0320 C   0  0  0  0  0  0  0  0  0  0  0  0
   -7.8440   19.0550  -32.2150 N   0  0  0  0  0  0  0  0  0  0  0  0
   -9.0550   18.2140  -32.0800 C   0  0  0  0  0  0  0  0  0  0  0  0
   -6.6320   18.4780  -32.5470 C   0  0  0  0  0  0  0  0  0  0  0  0
   -6.4300   17.0780  -32.4830 C   0  0  0  0  0  0  0  0  0  0  0  0
   -5.2240   16.4940  -32.8870 C   0  0  0  0  0  0  0  0  0  0  0  0
   -5.0700   15.0660  -32.8230 N   0  0  0  0  0  0  0  0  0  0  0  0
   -5.3480   14.2510  -34.0140 C   0  0  0  0  0  0  0  0  0  0  0  0
   -6.8370   14.2720  -34.3410 C   0  0  0  0  0  0  0  0  0  0  0  0
   -4.5780   14.4450  -31.5850 C   0  0  0  0  0  0  0  0  0  0  0  0
   -4.6120   12.9250  -31.6960 C   0  0  0  0  0  0  0  0  0  0  0  0
   -4.1780   17.2980  -33.3550 C   0  0  0  0  0  0  0  0  0  0  0  0
   -3.0060   16.6780  -33.8190 O   0  0  0  0  0  0  0  0  0  0  0  0
   -2.7000   16.4460  -35.1900 C   0  0  0  0  0  0  0  0  0  0  0  0
   -4.3340   18.6920  -33.3560 C   0  0  0  0  0  0  0  0  0  0  0  0
   -5.5430   19.2910  -32.9490 C   0  0  0  0  0  0  0  0  0  0  0  0
   -3.1327   24.5100  -27.2800 H   0  0  0  0  0  0  0  0  0  0  0  0
   -4.3588   23.4428  -28.0445 H   0  0  0  0  0  0  0  0  0  0  0  0
   -2.6272   22.9651  -28.0445 H   0  0  0  0  0  0  0  0  0  0  0  0
   -3.3520   25.6050  -29.3008 H   0  0  0  0  0  0  0  0  0  0  0  0
   -2.0811   24.3844  -29.7528 H   0  0  0  0  0  0  0  0  0  0  0  0
   -4.6015   25.9634  -31.0138 H   0  0  0  0  0  0  0  0  0  0  0  0
   -5.5963   24.6164  -31.7261 H   0  0  0  0  0  0  0  0  0  0  0  0
   -5.5791   25.0522  -28.7373 H   0  0  0  0  0  0  0  0  0  0  0  0
   -6.5926   26.0971  -29.7898 H   0  0  0  0  0  0  0  0  0  0  0  0
   -6.8357   24.3174  -29.7898 H   0  0  0  0  0  0  0  0  0  0  0  0
   -4.3353   22.3963  -29.1931 H   0  0  0  0  0  0  0  0  0  0  0  0
   -5.5574   22.6194  -30.5459 H   0  0  0  0  0  0  0  0  0  0  0  0
   -2.8504   21.2642  -30.6269 H   0  0  0  0  0  0  0  0  0  0  0  0
   -4.4738   20.6470  -31.1266 H   0  0  0  0  0  0  0  0  0  0  0  0
   -3.5437   23.1027  -32.5427 H   0  0  0  0  0  0  0  0  0  0  0  0
   -2.5960   21.6026  -32.8701 H   0  0  0  0  0  0  0  0  0  0  0  0
   -4.6070   21.8150  -34.4230 H   0  0  0  0  0  0  0  0  0  0  0  0
   -6.1331   23.3112  -32.5727 H   0  0  0  0  0  0  0  0  0  0  0  0
   -8.1866   24.3169  -31.5958 H   0  0  0  0  0  0  0  0  0  0  0  0
  -10.0517   22.8597  -30.8365 H   0  0  0  0  0  0  0  0  0  0  0  0
   -9.8991   20.3934  -31.0889 H   0  0  0  0  0  0  0  0  0  0  0  0
   -9.2772   18.0597  -31.0138 H   0  0  0  0  0  0  0  0  0  0  0  0
   -9.9061   18.7165  -32.5630 H   0  0  0  0  0  0  0  0  0  0  0  0
   -8.8814   17.2410  -32.5630 H   0  0  0  0  0  0  0  0  0  0  0  0
   -7.2393   16.4348  -32.1072 H   0  0  0  0  0  0  0  0  0  0  0  0
   -4.7843   14.6544  -34.8681 H   0  0  0  0  0  0  0  0  0  0  0  0
   -5.0428   13.2134  -33.8136 H   0  0  0  0  0  0  0  0  0  0  0  0
   -7.4175   14.2802  -33.4067 H   0  0  0  0  0  0  0  0  0  0  0  0
   -7.0712   15.1735  -34.9261 H   0  0  0  0  0  0  0  0  0  0  0  0
   -7.0966   13.3774  -34.9261 H   0  0  0  0  0  0  0  0  0  0  0  0
   -3.5432   14.7710  -31.4037 H   0  0  0  0  0  0  0  0  0  0  0  0
   -5.2263   14.7540  -30.7518 H   0  0  0  0  0  0  0  0  0  0  0  0
   -4.6219   12.4839  -30.6884 H   0  0  0  0  0  0  0  0  0  0  0  0
   -5.5173   12.6172  -32.2399 H   0  0  0  0  0  0  0  0  0  0  0  0
   -3.7214   12.5771  -32.2399 H   0  0  0  0  0  0  0  0  0  0  0  0
   -1.8254   15.7829  -35.2634 H   0  0  0  0  0  0  0  0  0  0  0  0
   -3.5617   15.9722  -35.6829 H   0  0  0  0  0  0  0  0  0  0  0  0
   -2.4765   17.4036  -35.6829 H   0  0  0  0  0  0  0  0  0  0  0  0
   -3.4978   19.3289  -33.6802 H   0  0  0  0  0  0  0  0  0  0  0  0
  1  2  1  0
  2  3  1  0
  3  4  1  0
  4  5  1  0
  3  6  1  0
  6  7  1  0
  7  8  1  0
  8  9  1  0
  9 10  1  0
 10 11  2  0
 11 12  1  0
 12 13  2  0
 13 14  1  0
 14 15  2  0
 15 16  1  0
 16 17  2  0
 17 18  1  0
 17 19  1  0
 19 20  2  0
 20 21  1  0
 21 22  1  0
 22 23  1  0
 23 24  1  0
 22 25  1  0
 25 26  1  0
 21 27  2  0
 27 28  1  0
 28 29  1  0
 27 30  1  0
 30 31  2  0
 31 10  1  0
 16 11  1  0
 31 19  1  0
  1 32  1  0
  1 33  1  0
  1 34  1  0
  2 35  1  0
  2 36  1  0
  4 37  1  0
  4 38  1  0
  5 39  1  0
  5 40  1  0
  5 41  1  0
  6 42  1  0
  6 43  1  0
  7 44  1  0
  7 45  1  0
  8 46  1  0
  8 47  1  0
  9 48  1  0
 12 49  1  0
 13 50  1  0
 14 51  1  0
 15 52  1  0
 18 53  1  0
 18 54  1  0
 18 55  1  0
 20 56  1  0
 23 57  1  0
 23 58  1  0
 24 59  1  0
 24 60  1  0
 24 61  1  0
 25 62  1  0
 25 63  1  0
 26 64  1  0
 26 65  1  0
 26 66  1  0
 29 67  1  0
 29 68  1  0
 29 69  1  0
 30 70  1  0
M  CHG  1  17   1
M  END
>  <UniqueID>  (25) 
25

>  <SMILES>  (25) 
CCN(CC)CCCNc1c2ccccc2[n+](C)c2cc(N(CC)CC)c(OC)cc12

>  <Energy>  (25) 
91.66472498567792

>  <Genealogy>  (25) 
CCN(CC)CCCNc1c2ccccc2[n+](C)c2cc(N(CC)CC)c(OC)cc12 (3D coordinates assigned)
CCN(CC)CCCNc1c2ccccc2[n+](C)c2cc(N(CC)CC)c(OC)cc12 (optimized conformer: 91.66472498567792 kcal/mol)

>  <smiles>  (25) 
CCN(CC)CCCNc1c2ccccc2[n+](C)c2cc(N(CC)CC)c(OC)cc12

>  <score_type>  (25) 
oracle

>  <origin>  (25) 
adg

>  <m_score__min__energy>  (25) 
-8.2200000000000006

>  <m_primary>  (25) 
energy

$$$$
25:0
     RDKit          3D

 51 52  0  0  0  0  0  0  0  0999 V2000
   -3.3170   21.0490  -33.4740 C   0  0  0  0  0  0  0  0  0  0  0  0
   -4.6700   21.3860  -32.9820 N   0  0  0  0  0  0  0  0  0  0  0  0
   -5.6200   20.3490  -33.4600 C   0  0  0  0  0  0  0  0  0  0  0  0
   -6.5610   19.8590  -32.3340 C   0  0  0  0  0  0  0  0  0  0  0  0
   -7.9460   19.6190  -32.8110 N   0  0  0  0  0  0  0  0  0  0  0  0
   -8.8580   20.6810  -32.3450 C   0  0  0  0  0  0  0  0  0  0  0  0
   -8.4290   18.3110  -32.3370 C   0  0  0  0  0  0  0  0  0  0  0  0
   -4.6740   21.4510  -31.5000 C   0  0  0  0  0  0  0  0  0  0  0  0
   -5.2420   22.7660  -30.9770 C   0  0  0  0  0  0  0  0  0  0  0  0
   -6.6030   23.0130  -31.2550 C   0  0  0  0  0  0  0  0  0  0  0  0
   -7.2320   24.1750  -30.8170 C   0  0  0  0  0  0  0  0  0  0  0  0
   -6.5180   25.1210  -30.0960 C   0  0  0  0  0  0  0  0  0  0  0  0
   -5.1730   24.9100  -29.8060 C   0  0  0  0  0  0  0  0  0  0  0  0
   -4.5040   23.7370  -30.2220 C   0  0  0  0  0  0  0  0  0  0  0  0
   -3.0270   23.6340  -29.8370 C   0  0  0  0  0  0  0  0  0  0  0  0
   -2.2530   23.0180  -30.7910 F   0  0  0  0  0  0  0  0  0  0  0  0
   -2.5290   24.9200  -29.6980 F   0  0  0  0  0  0  0  0  0  0  0  0
   -2.8260   22.9030  -28.4950 C   0  0  0  0  0  0  0  0  0  0  0  0
   -2.3420   23.8140  -27.3950 C   0  0  0  0  0  0  0  0  0  0  0  0
   -3.2050   24.7680  -26.8330 C   0  0  0  0  0  0  0  0  0  0  0  0
   -2.7440   25.6330  -25.8350 C   0  0  0  0  0  0  0  0  0  0  0  0
   -1.4240   25.5430  -25.3850 C   0  0  0  0  0  0  0  0  0  0  0  0
   -0.5640   24.5850  -25.9290 C   0  0  0  0  0  0  0  0  0  0  0  0
   -1.0180   23.7270  -26.9340 C   0  0  0  0  0  0  0  0  0  0  0  0
   -2.6466   20.8820  -32.6180 H   0  0  0  0  0  0  0  0  0  0  0  0
   -3.3660   20.1356  -34.0850 H   0  0  0  0  0  0  0  0  0  0  0  0
   -2.9318   21.8786  -34.0850 H   0  0  0  0  0  0  0  0  0  0  0  0
   -6.2291   20.7731  -34.2719 H   0  0  0  0  0  0  0  0  0  0  0  0
   -5.0329   19.4871  -33.8101 H   0  0  0  0  0  0  0  0  0  0  0  0
   -6.1615   18.9192  -31.9252 H   0  0  0  0  0  0  0  0  0  0  0  0
   -6.6043   20.6484  -31.5692 H   0  0  0  0  0  0  0  0  0  0  0  0
   -7.9680   19.6030  -33.8570 H   0  0  0  0  0  0  0  0  0  0  0  0
   -8.8712   20.6964  -31.2452 H   0  0  0  0  0  0  0  0  0  0  0  0
   -8.5100   21.6543  -32.7212 H   0  0  0  0  0  0  0  0  0  0  0  0
   -9.8727   20.4840  -32.7212 H   0  0  0  0  0  0  0  0  0  0  0  0
   -8.4336   18.2985  -31.2371 H   0  0  0  0  0  0  0  0  0  0  0  0
   -9.4496   18.1399  -32.7099 H   0  0  0  0  0  0  0  0  0  0  0  0
   -7.7645   17.5177  -32.7099 H   0  0  0  0  0  0  0  0  0  0  0  0
   -5.2853   20.6230  -31.1118 H   0  0  0  0  0  0  0  0  0  0  0  0
   -3.6310   21.3769  -31.1584 H   0  0  0  0  0  0  0  0  0  0  0  0
   -7.1787   22.2724  -31.8295 H   0  0  0  0  0  0  0  0  0  0  0  0
   -8.2954   24.3432  -31.0426 H   0  0  0  0  0  0  0  0  0  0  0  0
   -7.0158   26.0399  -29.7527 H   0  0  0  0  0  0  0  0  0  0  0  0
   -4.6186   25.6734  -29.2404 H   0  0  0  0  0  0  0  0  0  0  0  0
   -3.7862   22.4626  -28.1884 H   0  0  0  0  0  0  0  0  0  0  0  0
   -2.0535   22.1355  -28.6506 H   0  0  0  0  0  0  0  0  0  0  0  0
   -4.2471   24.8355  -27.1786 H   0  0  0  0  0  0  0  0  0  0  0  0
   -3.4213   26.3849  -25.4039 H   0  0  0  0  0  0  0  0  0  0  0  0
   -1.0619   26.2262  -24.6026 H   0  0  0  0  0  0  0  0  0  0  0  0
    0.4713   24.5064  -25.5656 H   0  0  0  0  0  0  0  0  0  0  0  0
   -0.3356   22.9802  -27.3660 H   0  0  0  0  0  0  0  0  0  0  0  0
  1  2  1  0
  2  3  1  0
  3  4  1  0
  4  5  1  0
  5  6  1  0
  5  7  1  0
  2  8  1  0
  8  9  1  0
  9 10  2  0
 10 11  1  0
 11 12  2  0
 12 13  1  0
 13 14  2  0
 14 15  1  0
 15 16  1  0
 15 17  1  0
 15 18  1  0
 18 19  1  0
 19 20  2  0
 20 21  1  0
 21 22  2  0
 22 23  1  0
 23 24  2  0
 14  9  1  0
 24 19  1  0
  1 25  1  0
  1 26  1  0
  1 27  1  0
  3 28  1  0
  3 29  1  0
  4 30  1  0
  4 31  1  0
  5 32  1  0
  6 33  1  0
  6 34  1  0
  6 35  1  0
  7 36  1  0
  7 37  1  0
  7 38  1  0
  8 39  1  0
  8 40  1  0
 10 41  1  0
 11 42  1  0
 12 43  1  0
 13 44  1  0
 18 45  1  0
 18 46  1  0
 20 47  1  0
 21 48  1  0
 22 49  1  0
 23 50  1  0
 24 51  1  0
M  CHG  1   5   1
M  END
>  <UniqueID>  (26) 
26

>  <SMILES>  (26) 
CN(CC[NH+](C)C)Cc1ccccc1C(F)(F)Cc1ccccc1

>  <Energy>  (26) 
57.24428408826223

>  <Genealogy>  (26) 
CN(CC[NH+](C)C)Cc1ccccc1C(F)(F)Cc1ccccc1 (protonated)
CN(CC[NH+](C)C)Cc1ccccc1C(F)(F)Cc1ccccc1 (3D coordinates assigned)
CN(CC[NH+](C)C)Cc1ccccc1C(F)(F)Cc1ccccc1 (optimized conformer: 57.24428408826223 kcal/mol)

>  <smiles>  (26) 
CN(C)CCN(C)Cc1ccccc1C(F)(F)Cc1ccccc1

>  <score_type>  (26) 
oracle

>  <origin>  (26) 
adg

>  <m_score__min__energy>  (26) 
-6.7300000000000004

>  <m_primary>  (26) 
energy

$$$$
26:0
     RDKit          3D

 38 40  0  0  0  0  0  0  0  0999 V2000
   -3.9300   24.2780  -27.1520 C   0  0  0  0  0  0  0  0  0  0  0  0
   -4.2620   24.1410  -28.6370 C   0  0  0  0  0  0  0  0  0  0  0  0
   -5.5030   24.8600  -28.9660 N   0  0  0  0  0  0  0  0  0  0  0  0
   -5.9960   24.5450  -30.3200 C   0  0  0  0  0  0  0  0  0  0  0  0
   -4.9910   23.7430  -31.1690 C   0  0  0  0  0  0  0  0  0  0  0  0
   -5.6200   23.1810  -32.3660 N   0  0  0  0  0  0  0  0  0  0  0  0
   -6.1200   21.8330  -32.4660 C   0  0  0  0  0  0  0  0  0  0  0  0
   -5.3500   20.7730  -33.0030 C   0  0  0  0  0  0  0  0  0  0  0  0
   -5.8590   19.4940  -33.0880 N   0  0  0  0  0  0  0  0  0  0  0  0
   -5.0780   18.4990  -33.6130 C   0  0  0  0  0  0  0  0  0  0  0  0
   -5.5610   17.1930  -33.7130 C   0  0  0  0  0  0  0  0  0  0  0  0
   -6.8510   16.8990  -33.2760 C   0  0  0  0  0  0  0  0  0  0  0  0
   -7.6490   17.9070  -32.7420 C   0  0  0  0  0  0  0  0  0  0  0  0
   -7.1410   19.2110  -32.6530 C   0  0  0  0  0  0  0  0  0  0  0  0
   -7.9070   20.2490  -32.1270 C   0  0  0  0  0  0  0  0  0  0  0  0
   -9.1310   20.1970  -31.6570 O   0  0  0  0  0  0  0  0  0  0  0  0
   -9.4570   21.4110  -31.2560 C   0  0  0  0  0  0  0  0  0  0  0  0
   -8.4020   22.2890  -31.4730 C   0  0  0  0  0  0  0  0  0  0  0  0
   -7.4100   21.5160  -32.0410 C   0  0  0  0  0  0  0  0  0  0  0  0
   -4.7821   23.9264  -26.5518 H   0  0  0  0  0  0  0  0  0  0  0  0
   -3.0418   23.6729  -26.9175 H   0  0  0  0  0  0  0  0  0  0  0  0
   -3.7270   25.3334  -26.9175 H   0  0  0  0  0  0  0  0  0  0  0  0
   -3.4356   24.5586  -29.2308 H   0  0  0  0  0  0  0  0  0  0  0  0
   -4.4014   23.0748  -28.8691 H   0  0  0  0  0  0  0  0  0  0  0  0
   -5.3570   25.8920  -28.8650 H   0  0  0  0  0  0  0  0  0  0  0  0
   -6.2480   24.5750  -28.2860 H   0  0  0  0  0  0  0  0  0  0  0  0
   -6.9202   23.9559  -30.2257 H   0  0  0  0  0  0  0  0  0  0  0  0
   -6.1624   25.5028  -30.8347 H   0  0  0  0  0  0  0  0  0  0  0  0
   -4.1720   24.4099  -31.4764 H   0  0  0  0  0  0  0  0  0  0  0  0
   -4.6131   22.9105  -30.5574 H   0  0  0  0  0  0  0  0  0  0  0  0
   -5.7420   23.8230  -33.1810 H   0  0  0  0  0  0  0  0  0  0  0  0
   -4.3284   20.9730  -33.3584 H   0  0  0  0  0  0  0  0  0  0  0  0
   -4.0601   18.7312  -33.9593 H   0  0  0  0  0  0  0  0  0  0  0  0
   -4.9262   16.3998  -34.1348 H   0  0  0  0  0  0  0  0  0  0  0  0
   -7.2382   15.8723  -33.3528 H   0  0  0  0  0  0  0  0  0  0  0  0
   -8.6679   17.6828  -32.3933 H   0  0  0  0  0  0  0  0  0  0  0  0
  -10.4251   21.6883  -30.8134 H   0  0  0  0  0  0  0  0  0  0  0  0
   -8.3656   23.3640  -31.2426 H   0  0  0  0  0  0  0  0  0  0  0  0
  1  2  1  0
  2  3  1  0
  3  4  1  0
  4  5  1  0
  5  6  1  0
  6  7  1  0
  7  8  2  0
  8  9  1  0
  9 10  2  0
 10 11  1  0
 11 12  2  0
 12 13  1  0
 13 14  2  0
 14 15  1  0
 15 16  1  0
 16 17  1  0
 17 18  2  0
 18 19  1  0
 19  7  1  0
 14  9  1  0
 19 15  2  0
  1 20  1  0
  1 21  1  0
  1 22  1  0
  2 23  1  0
  2 24  1  0
  3 25  1  0
  3 26  1  0
  4 27  1  0
  4 28  1  0
  5 29  1  0
  5 30  1  0
  6 31  1  0
  8 32  1  0
 10 33  1  0
 11 34  1  0
 12 35  1  0
 13 36  1  0
 17 37  1  0
 18 38  1  0
M  CHG  2   3   1   9   1
M  END
>  <UniqueID>  (27) 
27

>  <SMILES>  (27) 
CC[NH2+]CCNc1c[n+]2ccccc2c2occc12

>  <Energy>  (27) 
73.619308843795

>  <Genealogy>  (27) 
CC[NH2+]CCNc1c[n+]2ccccc2c2occc12 (protonated)
CC[NH2+]CCNc1c[n+]2ccccc2c2occc12 (3D coordinates assigned)
CC[NH2+]CCNc1c[n+]2ccccc2c2occc12 (optimized conformer: 73.619308843795 kcal/mol)

>  <smiles>  (27) 
CCNCCNc1c[n+]2ccccc2c2occc12

>  <score_type>  (27) 
oracle

>  <origin>  (27) 
adg

>  <m_score__min__energy>  (27) 
-6.04

>  <m_primary>  (27) 
energy

$$$$
27:0
     RDKit          3D

 70 72  0  0  0  0  0  0  0  0999 V2000
   -7.2490   23.0560  -29.9790 C   0  0  0  0  0  0  0  0  0  0  0  0
   -6.8070   23.7470  -31.2780 C   0  0  0  0  0  0  0  0  0  0  0  0
   -5.3860   24.1650  -31.3050 N   0  0  0  0  0  0  0  0  0  0  0  0
   -5.1080   25.5230  -30.8090 C   0  0  0  0  0  0  0  0  0  0  0  0
   -4.4090   23.1450  -30.8610 C   0  0  0  0  0  0  0  0  0  0  0  0
   -3.8310   22.2950  -32.0080 C   0  0  0  0  0  0  0  0  0  0  0  0
   -4.8250   22.0160  -33.0680 N   0  0  0  0  0  0  0  0  0  0  0  0
   -5.1430   20.5970  -33.1820 C   0  0  0  0  0  0  0  0  0  0  0  0
   -6.4450   20.1020  -32.8750 C   0  0  0  0  0  0  0  0  0  0  0  0
   -7.4740   20.9350  -32.3640 C   0  0  0  0  0  0  0  0  0  0  0  0
   -8.7210   20.4190  -32.0240 C   0  0  0  0  0  0  0  0  0  0  0  0
   -8.9800   19.0660  -32.1720 C   0  0  0  0  0  0  0  0  0  0  0  0
   -8.0020   18.2240  -32.6910 C   0  0  0  0  0  0  0  0  0  0  0  0
   -6.7340   18.7220  -33.0860 C   0  0  0  0  0  0  0  0  0  0  0  0
   -5.7920   17.8910  -33.6540 N   0  0  0  0  0  0  0  0  0  0  0  0
   -6.1990   16.5720  -34.1910 C   0  0  0  0  0  0  0  0  0  0  0  0
   -4.4800   18.2990  -33.7560 C   0  0  0  0  0  0  0  0  0  0  0  0
   -3.4450   17.3710  -34.0320 C   0  0  0  0  0  0  0  0  0  0  0  0
   -2.1190   17.7820  -34.2240 C   0  0  0  0  0  0  0  0  0  0  0  0
   -1.0820   16.8810  -34.5250 O   0  0  0  0  0  0  0  0  0  0  0  0
   -0.0240   16.4930  -33.6490 C   0  0  0  0  0  0  0  0  0  0  0  0
   -0.3710   16.7370  -32.1590 C   0  0  0  0  0  0  0  0  0  0  0  0
    0.5190   17.6880  -31.4210 N   0  0  0  0  0  0  0  0  0  0  0  0
    1.6220   18.0770  -32.3350 C   0  0  0  0  0  0  0  0  0  0  0  0
    1.1180   17.0540  -30.2210 C   0  0  0  0  0  0  0  0  0  0  0  0
   -0.2070   18.9200  -31.0240 C   0  0  0  0  0  0  0  0  0  0  0  0
   -1.7950   19.1320  -34.1110 C   0  0  0  0  0  0  0  0  0  0  0  0
   -0.4570   19.5100  -34.3140 O   0  0  0  0  0  0  0  0  0  0  0  0
   -0.0400   20.7120  -34.9540 C   0  0  0  0  0  0  0  0  0  0  0  0
   -2.7960   20.0630  -33.7920 C   0  0  0  0  0  0  0  0  0  0  0  0
   -4.1390   19.6660  -33.5760 C   0  0  0  0  0  0  0  0  0  0  0  0
   -6.8820   23.6298  -29.1152 H   0  0  0  0  0  0  0  0  0  0  0  0
   -8.3473   23.0057  -29.9458 H   0  0  0  0  0  0  0  0  0  0  0  0
   -6.8341   22.0378  -29.9458 H   0  0  0  0  0  0  0  0  0  0  0  0
   -6.9746   23.0489  -32.1114 H   0  0  0  0  0  0  0  0  0  0  0  0
   -7.4030   24.6681  -31.3580 H   0  0  0  0  0  0  0  0  0  0  0  0
   -5.1088   25.5189  -29.7090 H   0  0  0  0  0  0  0  0  0  0  0  0
   -4.1238   25.8522  -31.1737 H   0  0  0  0  0  0  0  0  0  0  0  0
   -5.8836   26.2125  -31.1737 H   0  0  0  0  0  0  0  0  0  0  0  0
   -3.5770   23.6584  -30.3568 H   0  0  0  0  0  0  0  0  0  0  0  0
   -4.9469   22.4566  -30.1926 H   0  0  0  0  0  0  0  0  0  0  0  0
   -2.9831   22.8355  -32.4540 H   0  0  0  0  0  0  0  0  0  0  0  0
   -3.5191   21.3299  -31.5822 H   0  0  0  0  0  0  0  0  0  0  0  0
   -5.6670   22.6170  -32.9480 H   0  0  0  0  0  0  0  0  0  0  0  0
   -4.4530   22.3570  -33.9830 H   0  0  0  0  0  0  0  0  0  0  0  0
   -7.2821   22.0103  -32.2340 H   0  0  0  0  0  0  0  0  0  0  0  0
   -9.5037   21.0877  -31.6364 H   0  0  0  0  0  0  0  0  0  0  0  0
   -9.9586   18.6578  -31.8792 H   0  0  0  0  0  0  0  0  0  0  0  0
   -8.2163   17.1503  -32.7972 H   0  0  0  0  0  0  0  0  0  0  0  0
   -6.4106   15.8862  -33.3574 H   0  0  0  0  0  0  0  0  0  0  0  0
   -7.1025   16.6899  -34.8072 H   0  0  0  0  0  0  0  0  0  0  0  0
   -5.3861   16.1603  -34.8072 H   0  0  0  0  0  0  0  0  0  0  0  0
   -3.6888   16.3003  -34.0972 H   0  0  0  0  0  0  0  0  0  0  0  0
    0.1792   15.4216  -33.7935 H   0  0  0  0  0  0  0  0  0  0  0  0
    0.8556   17.1068  -33.8932 H   0  0  0  0  0  0  0  0  0  0  0  0
   -1.3963   17.1327  -32.1135 H   0  0  0  0  0  0  0  0  0  0  0  0
   -0.2390   15.7643  -31.6626 H   0  0  0  0  0  0  0  0  0  0  0  0
    2.4967   18.3855  -31.7436 H   0  0  0  0  0  0  0  0  0  0  0  0
    1.8921   17.2199  -32.9694 H   0  0  0  0  0  0  0  0  0  0  0  0
    1.2946   18.9139  -32.9694 H   0  0  0  0  0  0  0  0  0  0  0  0
    0.6899   17.5071  -29.3147 H   0  0  0  0  0  0  0  0  0  0  0  0
    0.9013   15.9756  -30.2293 H   0  0  0  0  0  0  0  0  0  0  0  0
    2.2070   17.2092  -30.2293 H   0  0  0  0  0  0  0  0  0  0  0  0
   -0.2455   18.9854  -29.9266 H   0  0  0  0  0  0  0  0  0  0  0  0
    0.3170   19.7999  -31.4256 H   0  0  0  0  0  0  0  0  0  0  0  0
   -1.2306   18.8879  -31.4256 H   0  0  0  0  0  0  0  0  0  0  0  0
    0.2201   21.4618  -34.1923 H   0  0  0  0  0  0  0  0  0  0  0  0
    0.8395   20.5069  -35.5820 H   0  0  0  0  0  0  0  0  0  0  0  0
   -0.8575   21.0957  -35.5820 H   0  0  0  0  0  0  0  0  0  0  0  0
   -2.5312   21.1273  -33.7076 H   0  0  0  0  0  0  0  0  0  0  0  0
  1  2  1  0
  2  3  1  0
  3  4  1  0
  3  5  1  0
  5  6  1  0
  6  7  1  0
  7  8  1  0
  8  9  2  0
  9 10  1  0
 10 11  2  0
 11 12  1  0
 12 13  2  0
 13 14  1  0
 14 15  2  0
 15 16  1  0
 15 17  1  0
 17 18  2  0
 18 19  1  0
 19 20  1  0
 20 21  1  0
 21 22  1  0
 22 23  1  0
 23 24  1  0
 23 25  1  0
 23 26  1  0
 19 27  2  0
 27 28  1  0
 28 29  1  0
 27 30  1  0
 30 31  2  0
 31  8  1  0
 14  9  1  0
 31 17  1  0
  1 32  1  0
  1 33  1  0
  1 34  1  0
  2 35  1  0
  2 36  1  0
  4 37  1  0
  4 38  1  0
  4 39  1  0
  5 40  1  0
  5 41  1  0
  6 42  1  0
  6 43  1  0
  7 44  1  0
  7 45  1  0
 10 46  1  0
 11 47  1  0
 12 48  1  0
 13 49  1  0
 16 50  1  0
 16 51  1  0
 16 52  1  0
 18 53  1  0
 21 54  1  0
 21 55  1  0
 22 56  1  0
 22 57  1  0
 24 58  1  0
 24 59  1  0
 24 60  1  0
 25 61  1  0
 25 62  1  0
 25 63  1  0
 26 64  1  0
 26 65  1  0
 26 66  1  0
 29 67  1  0
 29 68  1  0
 29 69  1  0
 30 70  1  0
M  CHG  3   7   1  15   1  23   1
M  END
>  <UniqueID>  (28) 
28

>  <SMILES>  (28) 
CCN(C)CC[NH2+]c1c2ccccc2[n+](C)c2cc(OCC[N+](C)(C)C)c(OC)cc12

>  <Energy>  (28) 
112.47390768111548

>  <Genealogy>  (28) 
CCN(C)CC[NH2+]c1c2ccccc2[n+](C)c2cc(OCC[N+](C)(C)C)c(OC)cc12 (protonated)
CCN(C)CC[NH2+]c1c2ccccc2[n+](C)c2cc(OCC[N+](C)(C)C)c(OC)cc12 (3D coordinates assigned)
CCN(C)CC[NH2+]c1c2ccccc2[n+](C)c2cc(OCC[N+](C)(C)C)c(OC)cc12 (optimized conformer: 112.47390768111548 kcal/mol)

>  <smiles>  (28) 
CCN(C)CCNc1c2ccccc2[n+](C)c2cc(OCC[N+](C)(C)C)c(OC)cc12

>  <score_type>  (28) 
oracle

>  <origin>  (28) 
adg

>  <m_score__min__energy>  (28) 
-6.8300000000000001

>  <m_primary>  (28) 
energy

$$$$
