0:0
     RDKit          3D

 64 68  0  0  0  0  0  0  0  0999 V2000
   -1.7620   18.4880  -34.2190 C   0  0  0  0  0  0  0  0  0  0  0  0
   -1.4170   18.5040  -32.7220 C   0  0  0  0  0  0  0  0  0  0  0  0
   -1.0550   19.8420  -32.2030 N   0  0  0  0  0  0  0  0  0  0  0  0
    0.3750   19.9360  -31.8530 C   0  0  0  0  0  0  0  0  0  0  0  0
   -1.4880   20.9420  -33.0930 C   0  0  0  0  0  0  0  0  0  0  0  0
   -2.8590   21.4790  -32.6700 C   0  0  0  0  0  0  0  0  0  0  0  0
   -3.5480   20.5390  -31.7840 N   0  0  0  0  0  0  0  0  0  0  0  0
   -4.9740   20.4210  -31.8230 C   0  0  0  0  0  0  0  0  0  0  0  0
   -5.6070   19.2790  -32.3630 C   0  0  0  0  0  0  0  0  0  0  0  0
   -4.8450   18.1900  -32.8280 C   0  0  0  0  0  0  0  0  0  0  0  0
   -5.4660   17.0810  -33.3970 C   0  0  0  0  0  0  0  0  0  0  0  0
   -6.8520   17.0400  -33.5190 C   0  0  0  0  0  0  0  0  0  0  0  0
   -7.6330   18.0960  -33.0530 C   0  0  0  0  0  0  0  0  0  0  0  0
   -7.0400   19.2290  -32.4430 C   0  0  0  0  0  0  0  0  0  0  0  0
   -7.8090   20.2740  -31.9450 N   0  0  0  0  0  0  0  0  0  0  0  0
   -9.2820   20.2050  -31.9400 C   0  0  0  0  0  0  0  0  0  0  0  0
   -7.1630   21.3840  -31.4620 C   0  0  0  0  0  0  0  0  0  0  0  0
   -7.7390   22.5350  -31.0320 N   0  0  0  0  0  0  0  0  0  0  0  0
   -6.7120   23.3260  -30.6620 C   0  0  0  0  0  0  0  0  0  0  0  0
   -6.7940   24.6220  -30.1590 C   0  0  0  0  0  0  0  0  0  0  0  0
   -5.5970   25.2860  -29.8380 C   0  0  0  0  0  0  0  0  0  0  0  0
   -4.3400   24.6450  -30.0220 C   0  0  0  0  0  0  0  0  0  0  0  0
   -3.1220   25.2690  -29.7120 O   0  0  0  0  0  0  0  0  0  0  0  0
   -2.2730   24.9250  -28.6170 C   0  0  0  0  0  0  0  0  0  0  0  0
   -2.0930   23.4340  -28.5290 C   0  0  0  0  0  0  0  0  0  0  0  0
   -1.1170   22.7940  -29.3120 C   0  0  0  0  0  0  0  0  0  0  0  0
   -0.9410   21.4100  -29.2270 C   0  0  0  0  0  0  0  0  0  0  0  0
   -1.7300   20.6560  -28.3550 C   0  0  0  0  0  0  0  0  0  0  0  0
   -2.6940   21.2850  -27.5630 C   0  0  0  0  0  0  0  0  0  0  0  0
   -2.8750   22.6690  -27.6450 C   0  0  0  0  0  0  0  0  0  0  0  0
   -4.2970   23.3360  -30.5340 C   0  0  0  0  0  0  0  0  0  0  0  0
   -5.4990   22.7030  -30.8520 C   0  0  0  0  0  0  0  0  0  0  0  0
   -5.7870   21.4570  -31.3790 C   0  0  0  0  0  0  0  0  0  0  0  0
   -2.8538   18.4374  -34.3431 H   0  0  0  0  0  0  0  0  0  0  0  0
   -1.3812   19.4048  -34.6929 H   0  0  0  0  0  0  0  0  0  0  0  0
   -1.2980   17.6104  -34.6929 H   0  0  0  0  0  0  0  0  0  0  0  0
   -2.2908   18.1402  -32.1615 H   0  0  0  0  0  0  0  0  0  0  0  0
   -0.5335   17.8618  -32.5916 H   0  0  0  0  0  0  0  0  0  0  0  0
    0.4849   19.9432  -30.7585 H   0  0  0  0  0  0  0  0  0  0  0  0
    0.9121   19.0712  -32.2697 H   0  0  0  0  0  0  0  0  0  0  0  0
    0.7943   20.8636  -32.2697 H   0  0  0  0  0  0  0  0  0  0  0  0
   -0.7509   21.7570  -33.0433 H   0  0  0  0  0  0  0  0  0  0  0  0
   -1.5634   20.5547  -34.1198 H   0  0  0  0  0  0  0  0  0  0  0  0
   -2.7224   22.4344  -32.1423 H   0  0  0  0  0  0  0  0  0  0  0  0
   -3.4715   21.6175  -33.5732 H   0  0  0  0  0  0  0  0  0  0  0  0
   -3.0200   19.9780  -31.0780 H   0  0  0  0  0  0  0  0  0  0  0  0
   -3.7487   18.2155  -32.7410 H   0  0  0  0  0  0  0  0  0  0  0  0
   -4.8592   16.2346  -33.7512 H   0  0  0  0  0  0  0  0  0  0  0  0
   -7.3339   16.1685  -33.9862 H   0  0  0  0  0  0  0  0  0  0  0  0
   -8.7267   18.0491  -33.1604 H   0  0  0  0  0  0  0  0  0  0  0  0
   -9.6447   20.1880  -30.9017 H   0  0  0  0  0  0  0  0  0  0  0  0
   -9.6920   21.0849  -32.4573 H   0  0  0  0  0  0  0  0  0  0  0  0
   -9.6080   19.2906  -32.4573 H   0  0  0  0  0  0  0  0  0  0  0  0
   -8.7470   22.8030  -31.0100 H   0  0  0  0  0  0  0  0  0  0  0  0
   -7.7682   25.1126  -30.0168 H   0  0  0  0  0  0  0  0  0  0  0  0
   -5.6326   26.3111  -29.4407 H   0  0  0  0  0  0  0  0  0  0  0  0
   -1.2907   25.3991  -28.7594 H   0  0  0  0  0  0  0  0  0  0  0  0
   -2.7377   25.2798  -27.6853 H   0  0  0  0  0  0  0  0  0  0  0  0
   -0.4888   23.3849  -29.9948 H   0  0  0  0  0  0  0  0  0  0  0  0
   -0.1802   20.9139  -29.8476 H   0  0  0  0  0  0  0  0  0  0  0  0
   -1.5923   19.5665  -28.2918 H   0  0  0  0  0  0  0  0  0  0  0  0
   -3.3116   20.6904  -26.8738 H   0  0  0  0  0  0  0  0  0  0  0  0
   -3.6315   23.1611  -27.0161 H   0  0  0  0  0  0  0  0  0  0  0  0
   -3.3357   22.8218  -30.6807 H   0  0  0  0  0  0  0  0  0  0  0  0
  1  2  1  0
  2  3  1  0
  3  4  1  0
  3  5  1  0
  5  6  1  0
  6  7  1  0
  7  8  1  0
  8  9  2  0
  9 10  1  0
 10 11  2  0
 11 12  1  0
 12 13  2  0
 13 14  1  0
 14 15  2  0
 15 16  1  0
 15 17  1  0
 17 18  1  0
 18 19  1  0
 19 20  2  0
 20 21  1  0
 21 22  2  0
 22 23  1  0
 23 24  1  0
 24 25  1  0
 25 26  2  0
 26 27  1  0
 27 28  2  0
 28 29  1  0
 29 30  2  0
 22 31  1  0
 31 32  2  0
 32 33  1  0
 33  8  1  0
 14  9  1  0
 33 17  2  0
 32 19  1  0
 30 25  1  0
  1 34  1  0
  1 35  1  0
  1 36  1  0
  2 37  1  0
  2 38  1  0
  4 39  1  0
  4 40  1  0
  4 41  1  0
  5 42  1  0
  5 43  1  0
  6 44  1  0
  6 45  1  0
  7 46  1  0
 10 47  1  0
 11 48  1  0
 12 49  1  0
 13 50  1  0
 16 51  1  0
 16 52  1  0
 16 53  1  0
 18 54  1  0
 20 55  1  0
 21 56  1  0
 24 57  1  0
 24 58  1  0
 26 59  1  0
 27 60  1  0
 28 61  1  0
 29 62  1  0
 30 63  1  0
 31 64  1  0
M  CHG  1  15   1
M  END
>  <UniqueID>  (1) 
1

>  <SMILES>  (1) 
CCN(C)CCNc1c2ccccc2[n+](C)c2[nH]c3ccc(OCc4ccccc4)cc3c12

>  <Energy>  (1) 
125.11033598259229

>  <Genealogy>  (1) 
CCN(C)CCNc1c2ccccc2[n+](C)c2[nH]c3ccc(OCc4ccccc4)cc3c12 (3D coordinates assigned)
CCN(C)CCNc1c2ccccc2[n+](C)c2[nH]c3ccc(OCc4ccccc4)cc3c12 (optimized conformer: 125.11033598259229 kcal/mol)

>  <smiles>  (1) 
CCN(C)CCNc1c2ccccc2[n+](C)c2[nH]c3ccc(OCc4ccccc4)cc3c12

>  <score_type>  (1) 
oracle

>  <origin>  (1) 
adg

>  <m_score__min__energy>  (1) 
-10.109999999999999

>  <m_primary>  (1) 
energy

$$$$
1:0
     RDKit          3D

 43 45  0  0  0  0  0  0  0  0999 V2000
   -3.1250   20.5280  -30.2950 C   0  0  0  0  0  0  0  0  0  0  0  0
   -3.6160   21.8440  -29.6730 C   0  0  0  0  0  0  0  0  0  0  0  0
   -2.8430   23.0330  -30.0980 N   0  0  0  0  0  0  0  0  0  0  0  0
   -1.4040   22.7450  -30.2340 C   0  0  0  0  0  0  0  0  0  0  0  0
   -3.1030   24.2270  -29.2600 C   0  0  0  0  0  0  0  0  0  0  0  0
   -4.3920   24.9260  -29.7080 C   0  0  0  0  0  0  0  0  0  0  0  0
   -4.5630   24.8580  -31.1660 N   0  0  0  0  0  0  0  0  0  0  0  0
   -5.7780   24.1190  -31.5320 C   0  0  0  0  0  0  0  0  0  0  0  0
   -5.3980   22.8310  -32.1960 C   0  0  0  0  0  0  0  0  0  0  0  0
   -4.2140   22.6250  -32.8150 N   0  0  0  0  0  0  0  0  0  0  0  0
   -4.2520   21.3300  -33.2090 C   0  0  0  0  0  0  0  0  0  0  0  0
   -5.4040   20.7210  -32.8480 N   0  0  0  0  0  0  0  0  0  0  0  0
   -6.1210   21.6580  -32.2090 C   0  0  0  0  0  0  0  0  0  0  0  0
   -7.3770   21.3740  -31.6740 C   0  0  0  0  0  0  0  0  0  0  0  0
   -7.8760   20.0730  -31.8310 C   0  0  0  0  0  0  0  0  0  0  0  0
   -7.1180   19.0950  -32.5080 C   0  0  0  0  0  0  0  0  0  0  0  0
   -7.6050   17.7900  -32.6710 C   0  0  0  0  0  0  0  0  0  0  0  0
   -6.8370   16.8350  -33.3430 C   0  0  0  0  0  0  0  0  0  0  0  0
   -5.5800   17.1720  -33.8560 C   0  0  0  0  0  0  0  0  0  0  0  0
   -4.8440   16.2370  -34.5050 F   0  0  0  0  0  0  0  0  0  0  0  0
   -5.0810   18.4690  -33.7010 C   0  0  0  0  0  0  0  0  0  0  0  0
   -5.8420   19.4410  -33.0290 C   0  0  0  0  0  0  0  0  0  0  0  0
   -2.8610   19.8205  -29.4952 H   0  0  0  0  0  0  0  0  0  0  0  0
   -3.9227   20.0966  -30.9176 H   0  0  0  0  0  0  0  0  0  0  0  0
   -2.2397   20.7246  -30.9176 H   0  0  0  0  0  0  0  0  0  0  0  0
   -4.6670   21.9927  -29.9617 H   0  0  0  0  0  0  0  0  0  0  0  0
   -3.4864   21.7509  -28.5846 H   0  0  0  0  0  0  0  0  0  0  0  0
   -0.9522   22.6546  -29.2352 H   0  0  0  0  0  0  0  0  0  0  0  0
   -1.2692   21.8021  -30.7842 H   0  0  0  0  0  0  0  0  0  0  0  0
   -0.9167   23.5634  -30.7842 H   0  0  0  0  0  0  0  0  0  0  0  0
   -3.2055   23.9169  -28.2096 H   0  0  0  0  0  0  0  0  0  0  0  0
   -2.2619   24.9277  -29.3677 H   0  0  0  0  0  0  0  0  0  0  0  0
   -5.2504   24.4370  -29.2243 H   0  0  0  0  0  0  0  0  0  0  0  0
   -4.3293   25.9849  -29.4170 H   0  0  0  0  0  0  0  0  0  0  0  0
   -3.7440   24.3370  -31.5570 H   0  0  0  0  0  0  0  0  0  0  0  0
   -6.3642   23.9055  -30.6260 H   0  0  0  0  0  0  0  0  0  0  0  0
   -6.3809   24.7247  -32.2246 H   0  0  0  0  0  0  0  0  0  0  0  0
   -3.4401   20.8315  -33.7588 H   0  0  0  0  0  0  0  0  0  0  0  0
   -7.9573   22.1452  -31.1462 H   0  0  0  0  0  0  0  0  0  0  0  0
   -8.8644   19.8136  -31.4238 H   0  0  0  0  0  0  0  0  0  0  0  0
   -8.5923   17.5178  -32.2696 H   0  0  0  0  0  0  0  0  0  0  0  0
   -7.2231   15.8128  -33.4692 H   0  0  0  0  0  0  0  0  0  0  0  0
   -4.0916   18.7289  -34.1055 H   0  0  0  0  0  0  0  0  0  0  0  0
  1  2  1  0
  2  3  1  0
  3  4  1  0
  3  5  1  0
  5  6  1  0
  6  7  1  0
  7  8  1  0
  8  9  1  0
  9 10  1  0
 10 11  2  0
 11 12  1  0
 12 13  1  0
 13 14  1  0
 14 15  2  0
 15 16  1  0
 16 17  2  0
 17 18  1  0
 18 19  2  0
 19 20  1  0
 19 21  1  0
 21 22  2  0
 13  9  2  0
 22 16  1  0
 22 12  1  0
  1 23  1  0
  1 24  1  0
  1 25  1  0
  2 26  1  0
  2 27  1  0
  4 28  1  0
  4 29  1  0
  4 30  1  0
  5 31  1  0
  5 32  1  0
  6 33  1  0
  6 34  1  0
  7 35  1  0
  8 36  1  0
  8 37  1  0
 11 38  1  0
 14 39  1  0
 15 40  1  0
 17 41  1  0
 18 42  1  0
 21 43  1  0
M  END
>  <UniqueID>  (2) 
2

>  <SMILES>  (2) 
CCN(C)CCNCc1ncn2c1ccc1ccc(F)cc12

>  <Energy>  (2) 
84.09596302437392

>  <Genealogy>  (2) 
CCN(C)CCNCc1ncn2c1ccc1ccc(F)cc12 (3D coordinates assigned)
CCN(C)CCNCc1ncn2c1ccc1ccc(F)cc12 (optimized conformer: 84.09596302437392 kcal/mol)

>  <smiles>  (2) 
CCN(C)CCNCc1ncn2c1ccc1ccc(F)cc12

>  <score_type>  (2) 
oracle

>  <origin>  (2) 
adg

>  <m_score__min__energy>  (2) 
-7.6699999999999999

>  <m_primary>  (2) 
energy

$$$$
2:0
     RDKit          3D

 50 53  0  0  0  0  0  0  0  0999 V2000
   -8.3740   22.8410  -31.9190 C   0  0  0  0  0  0  0  0  0  0  0  0
   -7.5740   22.5920  -30.6470 C   0  0  0  0  0  0  0  0  0  0  0  0
   -6.4960   23.5700  -30.5220 N   0  0  0  0  0  0  0  0  0  0  0  0
   -6.4250   24.4970  -29.5830 N   0  0  0  0  0  0  0  0  0  0  0  0
   -5.3170   25.1950  -29.7800 N   0  0  0  0  0  0  0  0  0  0  0  0
   -4.6490   24.7450  -30.8330 N   0  0  0  0  0  0  0  0  0  0  0  0
   -5.3970   23.7210  -31.2860 C   0  0  0  0  0  0  0  0  0  0  0  0
   -4.9730   22.7200  -32.7120 S   0  0  0  0  0  0  0  0  0  0  0  0
   -4.1480   21.4250  -31.7210 C   0  0  0  0  0  0  0  0  0  0  0  0
   -2.6270   21.5850  -31.7720 C   0  0  0  0  0  0  0  0  0  0  0  0
   -1.9330   20.7420  -30.6740 C   0  0  0  0  0  0  0  0  0  0  0  0
   -1.5810   21.4860  -29.4430 N   0  0  0  0  0  0  0  0  0  0  0  0
   -2.2580   21.0390  -28.2170 C   0  0  0  0  0  0  0  0  0  0  0  0
   -2.7510   22.2660  -27.4670 C   0  0  2  0  0  0  0  0  0  0  0  0
   -3.8630   23.0670  -28.1290 C   0  0  0  0  0  0  0  0  0  0  0  0
   -2.4040   23.4640  -28.3200 C   0  0  1  0  0  0  0  0  0  0  0  0
   -1.8870   24.6640  -27.5720 C   0  0  0  0  0  0  0  0  0  0  0  0
   -0.9270   25.5070  -28.1530 C   0  0  0  0  0  0  0  0  0  0  0  0
   -0.4770   26.6390  -27.4700 C   0  0  0  0  0  0  0  0  0  0  0  0
   -0.9770   26.9470  -26.1930 C   0  0  0  0  0  0  0  0  0  0  0  0
   -0.5290   28.1970  -25.4780 C   0  0  0  0  0  0  0  0  0  0  0  0
    0.8250   28.4110  -25.6730 F   0  0  0  0  0  0  0  0  0  0  0  0
   -0.7580   28.0900  -24.1170 F   0  0  0  0  0  0  0  0  0  0  0  0
   -1.2320   29.2800  -25.9710 F   0  0  0  0  0  0  0  0  0  0  0  0
   -1.9730   26.1260  -25.6360 C   0  0  0  0  0  0  0  0  0  0  0  0
   -2.4220   24.9930  -26.3200 C   0  0  0  0  0  0  0  0  0  0  0  0
   -1.6660   22.9510  -29.5470 C   0  0  0  0  0  0  0  0  0  0  0  0
   -9.3935   23.1583  -31.6547 H   0  0  0  0  0  0  0  0  0  0  0  0
   -7.8862   23.6298  -32.5105 H   0  0  0  0  0  0  0  0  0  0  0  0
   -8.4200   21.9147  -32.5105 H   0  0  0  0  0  0  0  0  0  0  0  0
   -8.2418   22.6759  -29.7769 H   0  0  0  0  0  0  0  0  0  0  0  0
   -7.1366   21.5837  -30.6930 H   0  0  0  0  0  0  0  0  0  0  0  0
   -5.0110   25.9950  -29.1840 H   0  0  0  0  0  0  0  0  0  0  0  0
   -4.4835   21.5024  -30.6763 H   0  0  0  0  0  0  0  0  0  0  0  0
   -4.4123   20.4418  -32.1374 H   0  0  0  0  0  0  0  0  0  0  0  0
   -2.2654   21.2564  -32.7575 H   0  0  0  0  0  0  0  0  0  0  0  0
   -2.3844   22.6441  -31.6004 H   0  0  0  0  0  0  0  0  0  0  0  0
   -2.6101   19.9213  -30.3949 H   0  0  0  0  0  0  0  0  0  0  0  0
   -0.9826   20.3960  -31.1066 H   0  0  0  0  0  0  0  0  0  0  0  0
   -3.1109   20.3950  -28.4772 H   0  0  0  0  0  0  0  0  0  0  0  0
   -1.5612   20.4659  -27.5878 H   0  0  0  0  0  0  0  0  0  0  0  0
   -2.6286   21.9113  -26.4330 H   0  0  0  0  0  0  0  0  0  0  0  0
   -4.4309   22.6346  -28.9660 H   0  0  0  0  0  0  0  0  0  0  0  0
   -4.7719   23.5782  -27.7789 H   0  0  0  0  0  0  0  0  0  0  0  0
   -0.5271   25.2750  -29.1511 H   0  0  0  0  0  0  0  0  0  0  0  0
    0.2743   27.2944  -27.9348 H   0  0  0  0  0  0  0  0  0  0  0  0
   -2.4020   26.3772  -24.6547 H   0  0  0  0  0  0  0  0  0  0  0  0
   -3.1996   24.3563  -25.8728 H   0  0  0  0  0  0  0  0  0  0  0  0
   -2.2160   23.2299  -30.4579 H   0  0  0  0  0  0  0  0  0  0  0  0
   -0.6591   23.3907  -29.6006 H   0  0  0  0  0  0  0  0  0  0  0  0
  1  2  1  0
  2  3  1  0
  3  4  1  0
  4  5  2  0
  5  6  1  0
  6  7  2  0
  7  8  1  0
  8  9  1  0
  9 10  1  0
 10 11  1  0
 11 12  1  0
 12 13  1  0
 13 14  1  0
 14 15  1  0
 15 16  1  0
 16 17  1  1
 17 18  2  0
 18 19  1  0
 19 20  2  0
 20 21  1  0
 21 22  1  0
 21 23  1  0
 21 24  1  0
 20 25  1  0
 25 26  2  0
 16 27  1  0
  7  3  1  0
 27 12  1  0
 16 14  1  0
 26 17  1  0
  1 28  1  0
  1 29  1  0
  1 30  1  0
  2 31  1  0
  2 32  1  0
  5 33  1  0
  9 34  1  0
  9 35  1  0
 10 36  1  0
 10 37  1  0
 11 38  1  0
 11 39  1  0
 13 40  1  0
 13 41  1  0
 14 42  1  1
 15 43  1  0
 15 44  1  0
 18 45  1  0
 19 46  1  0
 25 47  1  0
 26 48  1  0
 27 49  1  0
 27 50  1  0
M  CHG  1   5   1
M  END
>  <UniqueID>  (3) 
3

>  <SMILES>  (3) 
CCn1n[nH+]nc1SCCCN1C[C@@H]2C[C@]2(c2ccc(C(F)(F)F)cc2)C1

>  <Energy>  (3) 
358.3161754099813

>  <Genealogy>  (3) 
CCn1n[nH+]nc1SCCCN1CC2CC2(c2ccc(C(F)(F)F)cc2)C1 (protonated)
CCn1n[nH+]nc1SCCCN1C[C@@H]2C[C@]2(c2ccc(C(F)(F)F)cc2)C1 (chirality)
CCn1n[nH+]nc1SCCCN1C[C@@H]2C[C@]2(c2ccc(C(F)(F)F)cc2)C1 (3D coordinates assigned)
CCn1n[nH+]nc1SCCCN1C[C@@H]2C[C@]2(c2ccc(C(F)(F)F)cc2)C1 (nonaromatic ring conformer: 358.3161754099813 kcal/mol)

>  <smiles>  (3) 
CCn1nnnc1SCCCN1CC2CC2(c2ccc(C(F)(F)F)cc2)C1

>  <score_type>  (3) 
oracle

>  <origin>  (3) 
adg

>  <m_score__min__energy>  (3) 
-8.6699999999999999

>  <m_primary>  (3) 
energy

$$$$
3:0
     RDKit          3D

 54 56  0  0  0  0  0  0  0  0999 V2000
   -6.8510   24.9160  -29.9440 C   0  0  0  0  0  0  0  0  0  0  0  0
   -5.5440   25.5710  -30.3920 C   0  0  0  0  0  0  0  0  0  0  0  0
   -4.5640   24.5620  -30.8490 N   0  0  0  0  0  0  0  0  0  0  0  0
   -3.7070   24.1560  -29.7210 C   0  0  0  0  0  0  0  0  0  0  0  0
   -5.2160   23.3820  -31.4700 C   0  0  0  0  0  0  0  0  0  0  0  0
   -4.1610   22.3450  -31.8670 C   0  0  0  0  0  0  0  0  0  0  0  0
   -4.5360   21.6400  -33.0950 N   0  0  0  0  0  0  0  0  0  0  0  0
   -5.0610   20.3080  -33.0220 C   0  0  0  0  0  0  0  0  0  0  0  0
   -6.4240   20.1270  -32.7380 C   0  0  0  0  0  0  0  0  0  0  0  0
   -7.2320   21.2160  -32.3430 C   0  0  0  0  0  0  0  0  0  0  0  0
   -8.5730   21.0270  -32.0200 C   0  0  0  0  0  0  0  0  0  0  0  0
   -9.1300   19.7550  -32.0720 C   0  0  0  0  0  0  0  0  0  0  0  0
   -8.3540   18.6670  -32.4740 C   0  0  0  0  0  0  0  0  0  0  0  0
   -6.9960   18.8350  -32.8470 C   0  0  0  0  0  0  0  0  0  0  0  0
   -6.2320   17.7810  -33.3040 N   0  0  0  0  0  0  0  0  0  0  0  0
   -6.8890   16.5280  -33.7390 C   0  0  0  0  0  0  0  0  0  0  0  0
   -4.8560   17.9020  -33.3740 C   0  0  0  0  0  0  0  0  0  0  0  0
   -4.0310   16.7650  -33.5630 C   0  0  0  0  0  0  0  0  0  0  0  0
   -2.6510   16.8840  -33.6680 C   0  0  0  0  0  0  0  0  0  0  0  0
   -2.0470   18.1250  -33.5540 C   0  0  0  0  0  0  0  0  0  0  0  0
   -2.8110   19.2740  -33.3230 C   0  0  0  0  0  0  0  0  0  0  0  0
   -2.1070   20.5020  -33.0700 N   0  0  0  0  0  0  0  0  0  0  0  0
   -1.6400   20.7570  -31.7070 C   0  0  0  0  0  0  0  0  0  0  0  0
   -1.3950   21.1430  -34.1740 C   0  0  0  0  0  0  0  0  0  0  0  0
   -4.2330   19.1800  -33.2380 C   0  0  0  0  0  0  0  0  0  0  0  0
   -6.8928   24.8951  -28.8450 H   0  0  0  0  0  0  0  0  0  0  0  0
   -7.7026   25.4938  -30.3324 H   0  0  0  0  0  0  0  0  0  0  0  0
   -6.8979   23.8879  -30.3324 H   0  0  0  0  0  0  0  0  0  0  0  0
   -5.7562   26.2642  -31.2193 H   0  0  0  0  0  0  0  0  0  0  0  0
   -5.1137   26.1078  -29.5337 H   0  0  0  0  0  0  0  0  0  0  0  0
   -4.2112   24.3948  -28.7730 H   0  0  0  0  0  0  0  0  0  0  0  0
   -3.5196   23.0734  -29.7740 H   0  0  0  0  0  0  0  0  0  0  0  0
   -2.7505   24.6967  -29.7740 H   0  0  0  0  0  0  0  0  0  0  0  0
   -5.9154   22.9320  -30.7500 H   0  0  0  0  0  0  0  0  0  0  0  0
   -5.7604   23.7040  -32.3700 H   0  0  0  0  0  0  0  0  0  0  0  0
   -3.2003   22.8561  -32.0275 H   0  0  0  0  0  0  0  0  0  0  0  0
   -4.0811   21.6063  -31.0559 H   0  0  0  0  0  0  0  0  0  0  0  0
   -4.2000   21.9800  -34.0220 H   0  0  0  0  0  0  0  0  0  0  0  0
   -6.7969   22.2249  -32.2900 H   0  0  0  0  0  0  0  0  0  0  0  0
   -9.1926   21.8860  -31.7231 H   0  0  0  0  0  0  0  0  0  0  0  0
  -10.1842   19.6054  -31.7959 H   0  0  0  0  0  0  0  0  0  0  0  0
   -8.8027   17.6631  -32.5020 H   0  0  0  0  0  0  0  0  0  0  0  0
   -7.1933   15.9477  -32.8555 H   0  0  0  0  0  0  0  0  0  0  0  0
   -7.7764   16.7696  -34.3424 H   0  0  0  0  0  0  0  0  0  0  0  0
   -6.1856   15.9355  -34.3424 H   0  0  0  0  0  0  0  0  0  0  0  0
   -4.4927   15.7687  -33.6278 H   0  0  0  0  0  0  0  0  0  0  0  0
   -2.0356   15.9891  -33.8424 H   0  0  0  0  0  0  0  0  0  0  0  0
   -0.9540   18.2083  -33.6461 H   0  0  0  0  0  0  0  0  0  0  0  0
   -2.3709   20.3579  -30.9883 H   0  0  0  0  0  0  0  0  0  0  0  0
   -0.6686   20.2641  -31.5540 H   0  0  0  0  0  0  0  0  0  0  0  0
   -1.5294   21.8407  -31.5540 H   0  0  0  0  0  0  0  0  0  0  0  0
   -0.6343   21.8279  -33.7712 H   0  0  0  0  0  0  0  0  0  0  0  0
   -0.9065   20.3743  -34.7908 H   0  0  0  0  0  0  0  0  0  0  0  0
   -2.1084   21.7092  -34.7908 H   0  0  0  0  0  0  0  0  0  0  0  0
  1  2  1  0
  2  3  1  0
  3  4  1  0
  3  5  1  0
  5  6  1  0
  6  7  1  0
  7  8  1  0
  8  9  2  0
  9 10  1  0
 10 11  2  0
 11 12  1  0
 12 13  2  0
 13 14  1  0
 14 15  2  0
 15 16  1  0
 15 17  1  0
 17 18  2  0
 18 19  1  0
 19 20  2  0
 20 21  1  0
 21 22  1  0
 22 23  1  0
 22 24  1  0
 21 25  2  0
 25  8  1  0
 14  9  1  0
 25 17  1  0
  1 26  1  0
  1 27  1  0
  1 28  1  0
  2 29  1  0
  2 30  1  0
  4 31  1  0
  4 32  1  0
  4 33  1  0
  5 34  1  0
  5 35  1  0
  6 36  1  0
  6 37  1  0
  7 38  1  0
 10 39  1  0
 11 40  1  0
 12 41  1  0
 13 42  1  0
 16 43  1  0
 16 44  1  0
 16 45  1  0
 18 46  1  0
 19 47  1  0
 20 48  1  0
 23 49  1  0
 23 50  1  0
 23 51  1  0
 24 52  1  0
 24 53  1  0
 24 54  1  0
M  CHG  1  15   1
M  END
>  <UniqueID>  (4) 
4

>  <SMILES>  (4) 
CCN(C)CCNc1c2ccccc2[n+](C)c2cccc(N(C)C)c12

>  <Energy>  (4) 
86.85575550410321

>  <Genealogy>  (4) 
CCN(C)CCNc1c2ccccc2[n+](C)c2cccc(N(C)C)c12 (3D coordinates assigned)
CCN(C)CCNc1c2ccccc2[n+](C)c2cccc(N(C)C)c12 (optimized conformer: 86.85575550410321 kcal/mol)

>  <smiles>  (4) 
CCN(C)CCNc1c2ccccc2[n+](C)c2cccc(N(C)C)c12

>  <score_type>  (4) 
oracle

>  <origin>  (4) 
adg

>  <m_score__min__energy>  (4) 
-8.1699999999999999

>  <m_primary>  (4) 
energy

$$$$
4:0
     RDKit          3D

 63 65  0  0  0  0  0  0  0  0999 V2000
   -3.6250   17.3460  -34.0890 C   0  0  0  0  0  0  0  0  0  0  0  0
   -5.0070   17.7580  -33.7900 N   0  0  0  0  0  0  0  0  0  0  0  0
   -5.6780   18.1490  -35.0440 C   0  0  0  0  0  0  0  0  0  0  0  0
   -5.7240   16.6480  -33.1230 C   0  0  0  0  0  0  0  0  0  0  0  0
   -5.8050   16.8680  -31.6020 C   0  0  0  0  0  0  0  0  0  0  0  0
   -6.8050   17.9700  -31.2280 C   0  0  0  0  0  0  0  0  0  0  0  0
   -6.9810   18.9090  -32.3390 N   0  0  0  0  0  0  0  0  0  0  0  0
   -7.3910   20.2740  -32.1440 C   0  0  0  0  0  0  0  0  0  0  0  0
   -8.7340   20.5730  -32.3900 C   0  0  0  0  0  0  0  0  0  0  0  0
   -9.2840   21.7660  -31.9490 C   0  0  0  0  0  0  0  0  0  0  0  0
   -8.5070   22.6720  -31.2370 C   0  0  0  0  0  0  0  0  0  0  0  0
   -7.1220   22.4490  -31.0320 C   0  0  0  0  0  0  0  0  0  0  0  0
   -6.5380   21.2650  -31.5710 C   0  0  0  0  0  0  0  0  0  0  0  0
   -5.1240   21.1370  -31.5200 C   0  0  0  0  0  0  0  0  0  0  0  0
   -4.3940   20.4010  -32.5450 N   0  0  0  0  0  0  0  0  0  0  0  0
   -3.6760   21.3020  -33.4690 C   0  0  0  0  0  0  0  0  0  0  0  0
   -2.1450   21.1600  -33.3380 C   0  0  0  0  0  0  0  0  0  0  0  0
   -1.7610   19.7650  -33.0250 N   0  0  0  0  0  0  0  0  0  0  0  0
   -0.9660   19.1710  -34.1160 C   0  0  0  0  0  0  0  0  0  0  0  0
   -0.9770   19.7320  -31.7800 C   0  0  0  0  0  0  0  0  0  0  0  0
   -4.4300   21.8800  -30.5360 C   0  0  0  0  0  0  0  0  0  0  0  0
   -3.1010   21.5650  -30.1720 C   0  0  0  0  0  0  0  0  0  0  0  0
   -2.4440   22.2890  -29.1770 C   0  0  0  0  0  0  0  0  0  0  0  0
   -3.0950   23.3300  -28.5270 C   0  0  0  0  0  0  0  0  0  0  0  0
   -4.3990   23.6710  -28.8830 C   0  0  0  0  0  0  0  0  0  0  0  0
   -5.0830   22.9720  -29.9100 C   0  0  0  0  0  0  0  0  0  0  0  0
   -6.3470   23.3420  -30.3190 N   0  0  0  0  0  0  0  0  0  0  0  0
   -6.8620   24.6890  -29.9850 C   0  0  0  0  0  0  0  0  0  0  0  0
   -3.0792   17.1833  -33.1479 H   0  0  0  0  0  0  0  0  0  0  0  0
   -3.6384   16.4128  -34.6712 H   0  0  0  0  0  0  0  0  0  0  0  0
   -3.1252   18.1342  -34.6712 H   0  0  0  0  0  0  0  0  0  0  0  0
   -6.6066   18.6901  -34.8097 H   0  0  0  0  0  0  0  0  0  0  0  0
   -5.0117   18.8003  -35.6287 H   0  0  0  0  0  0  0  0  0  0  0  0
   -5.9161   17.2482  -35.6287 H   0  0  0  0  0  0  0  0  0  0  0  0
   -6.7437   16.5841  -33.5305 H   0  0  0  0  0  0  0  0  0  0  0  0
   -5.1709   15.7157  -33.3098 H   0  0  0  0  0  0  0  0  0  0  0  0
   -6.1187   15.9281  -31.1244 H   0  0  0  0  0  0  0  0  0  0  0  0
   -4.8103   17.1821  -31.2529 H   0  0  0  0  0  0  0  0  0  0  0  0
   -7.7749   17.5106  -30.9865 H   0  0  0  0  0  0  0  0  0  0  0  0
   -6.4160   18.5201  -30.3585 H   0  0  0  0  0  0  0  0  0  0  0  0
   -7.0020   18.5170  -33.3070 H   0  0  0  0  0  0  0  0  0  0  0  0
   -9.3604   19.8544  -32.9389 H   0  0  0  0  0  0  0  0  0  0  0  0
  -10.3381   21.9965  -32.1630 H   0  0  0  0  0  0  0  0  0  0  0  0
   -8.9750   23.5783  -30.8252 H   0  0  0  0  0  0  0  0  0  0  0  0
   -5.0140   19.8170  -33.1420 H   0  0  0  0  0  0  0  0  0  0  0  0
   -3.7190   19.7430  -32.0950 H   0  0  0  0  0  0  0  0  0  0  0  0
   -3.9686   21.0594  -34.5012 H   0  0  0  0  0  0  0  0  0  0  0  0
   -3.9453   22.3374  -33.2133 H   0  0  0  0  0  0  0  0  0  0  0  0
   -1.6747   21.4572  -34.2870 H   0  0  0  0  0  0  0  0  0  0  0  0
   -1.8044   21.8074  -32.5165 H   0  0  0  0  0  0  0  0  0  0  0  0
   -0.1538   18.5641  -33.6894 H   0  0  0  0  0  0  0  0  0  0  0  0
   -1.6132   18.5334  -34.7362 H   0  0  0  0  0  0  0  0  0  0  0  0
   -0.5381   19.9724  -34.7362 H   0  0  0  0  0  0  0  0  0  0  0  0
   -1.6583   19.7607  -30.9168 H   0  0  0  0  0  0  0  0  0  0  0  0
   -0.3811   18.8080  -31.7463 H   0  0  0  0  0  0  0  0  0  0  0  0
   -0.3056   20.6027  -31.7463 H   0  0  0  0  0  0  0  0  0  0  0  0
   -2.5791   20.7399  -30.6789 H   0  0  0  0  0  0  0  0  0  0  0  0
   -1.4084   22.0352  -28.9065 H   0  0  0  0  0  0  0  0  0  0  0  0
   -2.5804   23.8864  -27.7297 H   0  0  0  0  0  0  0  0  0  0  0  0
   -4.9053   24.4951  -28.3591 H   0  0  0  0  0  0  0  0  0  0  0  0
   -6.9060   24.8041  -28.8919 H   0  0  0  0  0  0  0  0  0  0  0  0
   -6.1924   25.4527  -30.4074 H   0  0  0  0  0  0  0  0  0  0  0  0
   -7.8703   24.8112  -30.4074 H   0  0  0  0  0  0  0  0  0  0  0  0
  1  2  1  0
  2  3  1  0
  2  4  1  0
  4  5  1  0
  5  6  1  0
  6  7  1  0
  7  8  1  0
  8  9  2  0
  9 10  1  0
 10 11  2  0
 11 12  1  0
 12 13  2  0
 13 14  1  0
 14 15  1  0
 15 16  1  0
 16 17  1  0
 17 18  1  0
 18 19  1  0
 18 20  1  0
 14 21  2  0
 21 22  1  0
 22 23  2  0
 23 24  1  0
 24 25  2  0
 25 26  1  0
 26 27  2  0
 27 28  1  0
 13  8  1  0
 26 21  1  0
 27 12  1  0
  1 29  1  0
  1 30  1  0
  1 31  1  0
  3 32  1  0
  3 33  1  0
  3 34  1  0
  4 35  1  0
  4 36  1  0
  5 37  1  0
  5 38  1  0
  6 39  1  0
  6 40  1  0
  7 41  1  0
  9 42  1  0
 10 43  1  0
 11 44  1  0
 15 45  1  0
 15 46  1  0
 16 47  1  0
 16 48  1  0
 17 49  1  0
 17 50  1  0
 19 51  1  0
 19 52  1  0
 19 53  1  0
 20 54  1  0
 20 55  1  0
 20 56  1  0
 22 57  1  0
 23 58  1  0
 24 59  1  0
 25 60  1  0
 28 61  1  0
 28 62  1  0
 28 63  1  0
M  CHG  2  15   1  27   1
M  END
>  <UniqueID>  (5) 
5

>  <SMILES>  (5) 
CN(C)CCCNc1cccc2c1c([NH2+]CCN(C)C)c1ccccc1[n+]2C

>  <Energy>  (5) 
101.23139907833718

>  <Genealogy>  (5) 
CN(C)CCCNc1cccc2c1c([NH2+]CCN(C)C)c1ccccc1[n+]2C (protonated)
CN(C)CCCNc1cccc2c1c([NH2+]CCN(C)C)c1ccccc1[n+]2C (3D coordinates assigned)
CN(C)CCCNc1cccc2c1c([NH2+]CCN(C)C)c1ccccc1[n+]2C (optimized conformer: 101.23139907833718 kcal/mol)

>  <smiles>  (5) 
CN(C)CCCNc1cccc2c1c(NCCN(C)C)c1ccccc1[n+]2C

>  <score_type>  (5) 
oracle

>  <origin>  (5) 
adg

>  <m_score__min__energy>  (5) 
-7.4000000000000004

>  <m_primary>  (5) 
energy

$$$$
5:0
     RDKit          3D

 49 52  0  0  0  0  0  0  0  0999 V2000
    0.4060   19.5800  -35.7600 C   0  0  0  0  0  0  0  0  0  0  0  0
   -0.2190   20.6510  -34.9660 N   0  0  0  0  0  0  0  0  0  0  0  0
    0.2910   21.9740  -35.3480 C   0  0  0  0  0  0  0  0  0  0  0  0
   -0.1860   20.3980  -33.5070 C   0  0  0  0  0  0  0  0  0  0  0  0
   -1.5480   20.5370  -32.7760 C   0  0  0  0  0  0  0  0  0  0  0  0
   -2.5910   21.1440  -33.6300 N   0  0  0  0  0  0  0  0  0  0  0  0
   -3.9270   20.7430  -33.2050 C   0  0  0  0  0  0  0  0  0  0  0  0
   -4.4460   19.4840  -33.6210 C   0  0  0  0  0  0  0  0  0  0  0  0
   -3.6260   18.5130  -34.2530 C   0  0  0  0  0  0  0  0  0  0  0  0
   -4.1390   17.2810  -34.6460 C   0  0  0  0  0  0  0  0  0  0  0  0
   -5.4710   16.9770  -34.4180 C   0  0  0  0  0  0  0  0  0  0  0  0
   -6.3020   17.9060  -33.8000 C   0  0  0  0  0  0  0  0  0  0  0  0
   -5.8160   19.1790  -33.4010 C   0  0  0  0  0  0  0  0  0  0  0  0
   -6.6480   20.1080  -32.8150 N   0  0  0  0  0  0  0  0  0  0  0  0
   -8.1020   19.8440  -32.7160 C   0  0  0  0  0  0  0  0  0  0  0  0
   -6.1340   21.2650  -32.2780 C   0  0  0  0  0  0  0  0  0  0  0  0
   -6.9600   22.1010  -31.5910 N   0  0  0  0  0  0  0  0  0  0  0  0
   -6.5550   23.2530  -31.0150 C   0  0  0  0  0  0  0  0  0  0  0  0
   -7.4890   24.0470  -30.3400 C   0  0  0  0  0  0  0  0  0  0  0  0
   -7.0880   25.2330  -29.7260 C   0  0  0  0  0  0  0  0  0  0  0  0
   -5.7520   25.6280  -29.7810 C   0  0  0  0  0  0  0  0  0  0  0  0
   -4.8060   24.8430  -30.4500 C   0  0  0  0  0  0  0  0  0  0  0  0
   -3.4870   25.2830  -30.4800 O   0  0  0  0  0  0  0  0  0  0  0  0
   -5.2030   23.6340  -31.0810 C   0  0  0  0  0  0  0  0  0  0  0  0
   -4.3000   22.7900  -31.7660 C   0  0  0  0  0  0  0  0  0  0  0  0
   -3.0780   23.0840  -31.7490 O   0  0  0  0  0  0  0  0  0  0  0  0
   -4.7610   21.6040  -32.4220 C   0  0  0  0  0  0  0  0  0  0  0  0
    0.8435   18.8303  -35.0843 H   0  0  0  0  0  0  0  0  0  0  0  0
   -0.3550   19.1021  -36.3944 H   0  0  0  0  0  0  0  0  0  0  0  0
    1.1964   20.0075  -36.3944 H   0  0  0  0  0  0  0  0  0  0  0  0
    0.5154   22.5561  -34.4420 H   0  0  0  0  0  0  0  0  0  0  0  0
    1.2079   21.8554  -35.9441 H   0  0  0  0  0  0  0  0  0  0  0  0
   -0.4682   22.5015  -35.9441 H   0  0  0  0  0  0  0  0  0  0  0  0
    0.1811   19.3732  -33.3485 H   0  0  0  0  0  0  0  0  0  0  0  0
    0.4675   21.1729  -33.0799 H   0  0  0  0  0  0  0  0  0  0  0  0
   -1.8849   19.5371  -32.4651 H   0  0  0  0  0  0  0  0  0  0  0  0
   -1.3966   21.2004  -31.9117 H   0  0  0  0  0  0  0  0  0  0  0  0
   -2.5050   22.1790  -33.6690 H   0  0  0  0  0  0  0  0  0  0  0  0
   -2.4530   20.8740  -34.6310 H   0  0  0  0  0  0  0  0  0  0  0  0
   -2.5650   18.7388  -34.4355 H   0  0  0  0  0  0  0  0  0  0  0  0
   -3.4852   16.5465  -35.1390 H   0  0  0  0  0  0  0  0  0  0  0  0
   -5.8721   16.0001  -34.7259 H   0  0  0  0  0  0  0  0  0  0  0  0
   -7.3559   17.6493  -33.6170 H   0  0  0  0  0  0  0  0  0  0  0  0
   -8.3938   19.7910  -31.6567 H   0  0  0  0  0  0  0  0  0  0  0  0
   -8.6565   20.6561  -33.2089 H   0  0  0  0  0  0  0  0  0  0  0  0
   -8.3356   18.8888  -33.2089 H   0  0  0  0  0  0  0  0  0  0  0  0
   -8.5427   23.7346  -30.2937 H   0  0  0  0  0  0  0  0  0  0  0  0
   -7.8251   25.8564  -29.1987 H   0  0  0  0  0  0  0  0  0  0  0  0
   -5.4391   26.5638  -29.2948 H   0  0  0  0  0  0  0  0  0  0  0  0
  1  2  1  0
  2  3  1  0
  2  4  1  0
  4  5  1  0
  5  6  1  0
  6  7  1  0
  7  8  2  0
  8  9  1  0
  9 10  2  0
 10 11  1  0
 11 12  2  0
 12 13  1  0
 13 14  2  0
 14 15  1  0
 14 16  1  0
 16 17  1  0
 17 18  1  0
 18 19  2  0
 19 20  1  0
 20 21  2  0
 21 22  1  0
 22 23  1  0
 22 24  2  0
 24 25  1  0
 25 26  2  0
 25 27  1  0
 27  7  1  0
 13  8  1  0
 27 16  2  0
 24 18  1  0
  1 28  1  0
  1 29  1  0
  1 30  1  0
  3 31  1  0
  3 32  1  0
  3 33  1  0
  4 34  1  0
  4 35  1  0
  5 36  1  0
  5 37  1  0
  6 38  1  0
  6 39  1  0
  9 40  1  0
 10 41  1  0
 11 42  1  0
 12 43  1  0
 15 44  1  0
 15 45  1  0
 15 46  1  0
 19 47  1  0
 20 48  1  0
 21 49  1  0
M  CHG  4   6   1  14   1  17  -1  23  -1
M  END
>  <UniqueID>  (6) 
6

>  <SMILES>  (6) 
CN(C)CC[NH2+]c1c2ccccc2[n+](C)c2[n-]c3cccc([O-])c3c(=O)c12

>  <Energy>  (6) 
92.94661794037216

>  <Genealogy>  (6) 
CN(C)CC[NH2+]c1c2ccccc2[n+](C)c2[n-]c3cccc([O-])c3c(=O)c12 (protonated)
CN(C)CC[NH2+]c1c2ccccc2[n+](C)c2[n-]c3cccc([O-])c3c(=O)c12 (3D coordinates assigned)
CN(C)CC[NH2+]c1c2ccccc2[n+](C)c2[n-]c3cccc([O-])c3c(=O)c12 (optimized conformer: 92.94661794037216 kcal/mol)

>  <smiles>  (6) 
CN(C)CCNc1c2ccccc2[n+](C)c2[nH]c3cccc(O)c3c(=O)c12

>  <score_type>  (6) 
oracle

>  <origin>  (6) 
adg

>  <m_score__min__energy>  (6) 
-11.699999999999999

>  <m_primary>  (6) 
energy

$$$$
6:0
     RDKit          3D

 33 33  0  0  0  0  0  0  0  0999 V2000
   -6.0820   25.2980  -30.1270 C   0  0  0  0  0  0  0  0  0  0  0  0
   -6.1570   24.2660  -31.2470 C   0  0  0  0  0  0  0  0  0  0  0  0
   -4.8690   23.7470  -31.5230 O   0  0  0  0  0  0  0  0  0  0  0  0
   -4.4060   22.9230  -30.4680 C   0  0  0  0  0  0  0  0  0  0  0  0
   -3.4750   21.8150  -30.9860 C   0  0  0  0  0  0  0  0  0  0  0  0
   -3.1820   21.9280  -32.4990 C   0  0  0  0  0  0  0  0  0  0  0  0
   -4.3670   21.6440  -33.3370 N   0  0  0  0  0  0  0  0  0  0  0  0
   -4.6540   20.2020  -33.4640 C   0  0  0  0  0  0  0  0  0  0  0  0
   -6.0570   19.8600  -33.0170 C   0  0  0  0  0  0  0  0  0  0  0  0
   -6.5080   18.5320  -33.0170 C   0  0  0  0  0  0  0  0  0  0  0  0
   -7.7680   18.2360  -32.6010 N   0  0  0  0  0  0  0  0  0  0  0  0
   -8.6250   19.2020  -32.1770 C   0  0  0  0  0  0  0  0  0  0  0  0
   -8.2200   20.5390  -32.1570 C   0  0  0  0  0  0  0  0  0  0  0  0
   -9.4150   21.9020  -31.5590 Br  0  0  0  0  0  0  0  0  0  0  0  0
   -6.9290   20.8670  -32.5790 C   0  0  0  0  0  0  0  0  0  0  0  0
   -6.1192   24.7864  -29.1539 H   0  0  0  0  0  0  0  0  0  0  0  0
   -5.1406   25.8609  -30.2096 H   0  0  0  0  0  0  0  0  0  0  0  0
   -6.9321   25.9911  -30.2096 H   0  0  0  0  0  0  0  0  0  0  0  0
   -6.8212   23.4447  -30.9400 H   0  0  0  0  0  0  0  0  0  0  0  0
   -6.5502   24.7493  -32.1536 H   0  0  0  0  0  0  0  0  0  0  0  0
   -3.8558   23.5432  -29.7451 H   0  0  0  0  0  0  0  0  0  0  0  0
   -5.2771   22.4480  -29.9932 H   0  0  0  0  0  0  0  0  0  0  0  0
   -2.5222   21.8743  -30.4395 H   0  0  0  0  0  0  0  0  0  0  0  0
   -3.9850   20.8544  -30.8214 H   0  0  0  0  0  0  0  0  0  0  0  0
   -2.8365   22.9499  -32.7143 H   0  0  0  0  0  0  0  0  0  0  0  0
   -2.4165   21.1771  -32.7442 H   0  0  0  0  0  0  0  0  0  0  0  0
   -4.2340   22.0410  -34.2940 H   0  0  0  0  0  0  0  0  0  0  0  0
   -5.1970   22.1280  -32.9230 H   0  0  0  0  0  0  0  0  0  0  0  0
   -4.5358   19.9082  -34.5174 H   0  0  0  0  0  0  0  0  0  0  0  0
   -3.9502   19.6582  -32.8167 H   0  0  0  0  0  0  0  0  0  0  0  0
   -5.8394   17.7265  -33.3550 H   0  0  0  0  0  0  0  0  0  0  0  0
   -9.6393   18.9306  -31.8490 H   0  0  0  0  0  0  0  0  0  0  0  0
   -6.5966   21.9155  -32.5676 H   0  0  0  0  0  0  0  0  0  0  0  0
  1  2  1  0
  2  3  1  0
  3  4  1  0
  4  5  1  0
  5  6  1  0
  6  7  1  0
  7  8  1  0
  8  9  1  0
  9 10  2  0
 10 11  1  0
 11 12  2  0
 12 13  1  0
 13 14  1  0
 13 15  2  0
 15  9  1  0
  1 16  1  0
  1 17  1  0
  1 18  1  0
  2 19  1  0
  2 20  1  0
  4 21  1  0
  4 22  1  0
  5 23  1  0
  5 24  1  0
  6 25  1  0
  6 26  1  0
  7 27  1  0
  7 28  1  0
  8 29  1  0
  8 30  1  0
 10 31  1  0
 12 32  1  0
 15 33  1  0
M  CHG  1   7   1
M  END
>  <UniqueID>  (7) 
7

>  <SMILES>  (7) 
CCOCCC[NH2+]Cc1cncc(Br)c1

>  <Energy>  (7) 
31.813982018406563

>  <Genealogy>  (7) 
CCOCCC[NH2+]Cc1cncc(Br)c1 (protonated)
CCOCCC[NH2+]Cc1cncc(Br)c1 (3D coordinates assigned)
CCOCCC[NH2+]Cc1cncc(Br)c1 (optimized conformer: 31.813982018406563 kcal/mol)

>  <smiles>  (7) 
CCOCCCNCc1cncc(Br)c1

>  <score_type>  (7) 
oracle

>  <origin>  (7) 
adg

>  <m_score__min__energy>  (7) 
-5.8799999999999999

>  <m_primary>  (7) 
energy

$$$$
7:0
     RDKit          3D

 71 76  0  0  0  0  0  0  0  0999 V2000
    0.2350   20.5210  -32.3590 C   0  0  0  0  0  0  0  0  0  0  0  0
   -0.5190   21.5490  -31.5120 C   0  0  0  0  0  0  0  0  0  0  0  0
   -1.5010   20.9540  -30.5680 N   0  0  0  0  0  0  0  0  0  0  0  0
   -0.9020   19.8020  -29.8470 C   0  0  0  0  0  0  0  0  0  0  0  0
   -1.2040   19.8860  -28.3570 C   0  0  0  0  0  0  0  0  0  0  0  0
   -2.8060   20.5770  -31.1800 C   0  0  0  0  0  0  0  0  0  0  0  0
   -3.3630   21.6200  -32.1790 C   0  0  0  0  0  0  0  0  0  0  0  0
   -3.5270   21.1080  -33.5580 N   0  0  0  0  0  0  0  0  0  0  0  0
   -3.9050   19.7060  -33.6100 C   0  0  0  0  0  0  0  0  0  0  0  0
   -3.0080   18.6740  -34.0560 C   0  0  0  0  0  0  0  0  0  0  0  0
   -1.7000   18.9590  -34.5230 C   0  0  0  0  0  0  0  0  0  0  0  0
   -0.8730   17.9520  -35.0140 C   0  0  0  0  0  0  0  0  0  0  0  0
   -1.3260   16.6400  -35.0820 C   0  0  0  0  0  0  0  0  0  0  0  0
   -2.5930   16.3170  -34.6100 C   0  0  0  0  0  0  0  0  0  0  0  0
   -3.4380   17.2970  -34.0380 C   0  0  0  0  0  0  0  0  0  0  0  0
   -4.6530   16.9510  -33.4820 N   0  0  0  0  0  0  0  0  0  0  0  0
   -5.0160   15.5590  -33.1510 C   0  0  0  0  0  0  0  0  0  0  0  0
   -5.5310   17.9460  -33.1590 C   0  0  0  0  0  0  0  0  0  0  0  0
   -6.7880   17.7590  -32.6900 N   0  0  0  0  0  0  0  0  0  0  0  0
   -7.2630   18.9900  -32.4450 C   0  0  0  0  0  0  0  0  0  0  0  0
   -8.5030   19.2880  -31.8820 C   0  0  0  0  0  0  0  0  0  0  0  0
   -8.8080   20.6320  -31.6350 C   0  0  0  0  0  0  0  0  0  0  0  0
   -7.8950   21.6500  -31.9860 C   0  0  0  0  0  0  0  0  0  0  0  0
   -8.3090   23.3540  -31.5960 S   0  0  0  0  0  0  0  0  0  0  0  0
   -6.7240   23.7260  -30.8300 C   0  0  0  0  0  0  0  0  0  0  0  0
   -6.0400   24.8780  -31.2270 C   0  0  0  0  0  0  0  0  0  0  0  0
   -4.8150   25.2100  -30.6440 C   0  0  0  0  0  0  0  0  0  0  0  0
   -4.2330   24.3560  -29.6970 C   0  0  0  0  0  0  0  0  0  0  0  0
   -2.9810   24.6590  -29.1440 C   0  0  0  0  0  0  0  0  0  0  0  0
   -2.3840   23.7770  -28.2340 C   0  0  0  0  0  0  0  0  0  0  0  0
   -3.0280   22.5940  -27.8700 C   0  0  0  0  0  0  0  0  0  0  0  0
   -4.2880   22.2940  -28.3940 C   0  0  0  0  0  0  0  0  0  0  0  0
   -4.9030   23.1690  -29.3100 C   0  0  0  0  0  0  0  0  0  0  0  0
   -6.1620   22.8780  -29.8600 C   0  0  0  0  0  0  0  0  0  0  0  0
   -6.6630   21.3280  -32.5920 C   0  0  0  0  0  0  0  0  0  0  0  0
   -6.3450   19.9710  -32.7750 C   0  0  0  0  0  0  0  0  0  0  0  0
   -5.2030   19.2920  -33.2270 C   0  0  0  0  0  0  0  0  0  0  0  0
    0.7551   19.8120  -31.6981 H   0  0  0  0  0  0  0  0  0  0  0  0
   -0.4783   19.9749  -32.9938 H   0  0  0  0  0  0  0  0  0  0  0  0
    0.9701   21.0373  -32.9938 H   0  0  0  0  0  0  0  0  0  0  0  0
    0.2166   22.1228  -30.9292 H   0  0  0  0  0  0  0  0  0  0  0  0
   -1.0909   22.1775  -32.2105 H   0  0  0  0  0  0  0  0  0  0  0  0
   -1.3204   18.8672  -30.2484 H   0  0  0  0  0  0  0  0  0  0  0  0
    0.1886   19.8230  -29.9893 H   0  0  0  0  0  0  0  0  0  0  0  0
   -0.2990   19.6343  -27.7847 H   0  0  0  0  0  0  0  0  0  0  0  0
   -1.5249   20.9075  -28.1049 H   0  0  0  0  0  0  0  0  0  0  0  0
   -2.0063   19.1769  -28.1049 H   0  0  0  0  0  0  0  0  0  0  0  0
   -2.6744   19.6242  -31.7136 H   0  0  0  0  0  0  0  0  0  0  0  0
   -3.5328   20.5077  -30.3572 H   0  0  0  0  0  0  0  0  0  0  0  0
   -4.3456   21.9557  -31.8160 H   0  0  0  0  0  0  0  0  0  0  0  0
   -2.6272   22.4361  -32.2289 H   0  0  0  0  0  0  0  0  0  0  0  0
   -2.6740   21.3320  -34.1050 H   0  0  0  0  0  0  0  0  0  0  0  0
   -4.2630   21.6550  -34.0620 H   0  0  0  0  0  0  0  0  0  0  0  0
   -1.3315   19.9951  -34.4970 H   0  0  0  0  0  0  0  0  0  0  0  0
    0.1454   18.1966  -35.3502 H   0  0  0  0  0  0  0  0  0  0  0  0
   -0.6821   15.8572  -35.5093 H   0  0  0  0  0  0  0  0  0  0  0  0
   -2.9460   15.2777  -34.6828 H   0  0  0  0  0  0  0  0  0  0  0  0
   -5.0475   15.4383  -32.0581 H   0  0  0  0  0  0  0  0  0  0  0  0
   -6.0046   15.3274  -33.5741 H   0  0  0  0  0  0  0  0  0  0  0  0
   -4.2664   14.8741  -33.5741 H   0  0  0  0  0  0  0  0  0  0  0  0
   -7.3030   16.8640  -32.5280 H   0  0  0  0  0  0  0  0  0  0  0  0
   -9.2207   18.4907  -31.6389 H   0  0  0  0  0  0  0  0  0  0  0  0
   -9.7661   20.8967  -31.1639 H   0  0  0  0  0  0  0  0  0  0  0  0
   -6.4692   25.5278  -32.0039 H   0  0  0  0  0  0  0  0  0  0  0  0
   -4.3063   26.1429  -30.9284 H   0  0  0  0  0  0  0  0  0  0  0  0
   -2.4669   25.5901  -29.4248 H   0  0  0  0  0  0  0  0  0  0  0  0
   -1.4010   24.0187  -27.8036 H   0  0  0  0  0  0  0  0  0  0  0  0
   -2.5435   21.8972  -27.1702 H   0  0  0  0  0  0  0  0  0  0  0  0
   -4.8018   21.3702  -28.0897 H   0  0  0  0  0  0  0  0  0  0  0  0
   -6.7104   21.9832  -29.5305 H   0  0  0  0  0  0  0  0  0  0  0  0
   -5.9687   22.1184  -32.9132 H   0  0  0  0  0  0  0  0  0  0  0  0
  1  2  1  0
  2  3  1  0
  3  4  1  0
  4  5  1  0
  3  6  1  0
  6  7  1  0
  7  8  1  0
  8  9  1  0
  9 10  2  0
 10 11  1  0
 11 12  2  0
 12 13  1  0
 13 14  2  0
 14 15  1  0
 15 16  2  0
 16 17  1  0
 16 18  1  0
 18 19  1  0
 19 20  1  0
 20 21  2  0
 21 22  1  0
 22 23  2  0
 23 24  1  0
 24 25  1  0
 25 26  2  0
 26 27  1  0
 27 28  2  0
 28 29  1  0
 29 30  2  0
 30 31  1  0
 31 32  2  0
 32 33  1  0
 33 34  2  0
 23 35  1  0
 35 36  2  0
 36 37  1  0
 37  9  1  0
 15 10  1  0
 37 18  2  0
 36 20  1  0
 34 25  1  0
 33 28  1  0
  1 38  1  0
  1 39  1  0
  1 40  1  0
  2 41  1  0
  2 42  1  0
  4 43  1  0
  4 44  1  0
  5 45  1  0
  5 46  1  0
  5 47  1  0
  6 48  1  0
  6 49  1  0
  7 50  1  0
  7 51  1  0
  8 52  1  0
  8 53  1  0
 11 54  1  0
 12 55  1  0
 13 56  1  0
 14 57  1  0
 17 58  1  0
 17 59  1  0
 17 60  1  0
 19 61  1  0
 21 62  1  0
 22 63  1  0
 26 64  1  0
 27 65  1  0
 29 66  1  0
 30 67  1  0
 31 68  1  0
 32 69  1  0
 34 70  1  0
 35 71  1  0
M  CHG  2   8   1  16   1
M  END
>  <UniqueID>  (8) 
8

>  <SMILES>  (8) 
CCN(CC)CC[NH2+]c1c2ccccc2[n+](C)c2[nH]c3ccc(Sc4ccc5ccccc5c4)cc3c12

>  <Energy>  (8) 
139.0304982974686

>  <Genealogy>  (8) 
CCN(CC)CC[NH2+]c1c2ccccc2[n+](C)c2[nH]c3ccc(Sc4ccc5ccccc5c4)cc3c12 (protonated)
CCN(CC)CC[NH2+]c1c2ccccc2[n+](C)c2[nH]c3ccc(Sc4ccc5ccccc5c4)cc3c12 (3D coordinates assigned)
CCN(CC)CC[NH2+]c1c2ccccc2[n+](C)c2[nH]c3ccc(Sc4ccc5ccccc5c4)cc3c12 (optimized conformer: 139.0304982974686 kcal/mol)

>  <smiles>  (8) 
CCN(CC)CCNc1c2ccccc2[n+](C)c2[nH]c3ccc(Sc4ccc5ccccc5c4)cc3c12

>  <score_type>  (8) 
oracle

>  <origin>  (8) 
adg

>  <m_score__min__energy>  (8) 
-9.6899999999999995

>  <m_primary>  (8) 
energy

$$$$
8:0
     RDKit          3D

 54 55  0  0  0  0  0  0  0  0999 V2000
   -2.8740   21.8630  -34.2170 H   0  0  0  0  0  0  0  0  0  0  0  0
   -3.5800   22.0000  -33.4650 N   0  0  0  0  0  0  0  0  0  0  0  0
   -4.5310   21.1550  -33.2090 C   0  0  0  0  0  0  0  0  0  0  0  0
   -4.4690   19.8200  -33.4820 N   0  0  0  0  0  0  0  0  0  0  0  0
   -3.3500   19.0360  -34.0210 C   0  0  0  0  0  0  0  0  0  0  0  0
   -3.6286   17.9720  -34.0348 H   0  0  0  0  0  0  0  0  0  0  0  0
   -3.1315   19.3875  -35.0402 H   0  0  0  0  0  0  0  0  0  0  0  0
   -2.0950   19.2160  -33.1590 C   0  0  0  0  0  0  0  0  0  0  0  0
   -2.3892   19.2634  -32.1001 H   0  0  0  0  0  0  0  0  0  0  0  0
   -1.4236   18.3624  -33.3336 H   0  0  0  0  0  0  0  0  0  0  0  0
   -1.3790   20.4630  -33.5200 N   0  0  0  0  0  0  0  0  0  0  0  0
   -0.6240   20.9610  -32.3560 C   0  0  0  0  0  0  0  0  0  0  0  0
   -1.1198   20.6340  -31.4301 H   0  0  0  0  0  0  0  0  0  0  0  0
    0.4001   20.5606  -32.3846 H   0  0  0  0  0  0  0  0  0  0  0  0
   -0.5889   22.0601  -32.3846 H   0  0  0  0  0  0  0  0  0  0  0  0
   -0.4770   20.2350  -34.6720 C   0  0  0  0  0  0  0  0  0  0  0  0
    0.2768   19.4837  -34.3938 H   0  0  0  0  0  0  0  0  0  0  0  0
   -1.0807   19.8839  -35.5219 H   0  0  0  0  0  0  0  0  0  0  0  0
    0.2330   21.5240  -35.0840 C   0  0  0  0  0  0  0  0  0  0  0  0
    0.5382   22.0782  -34.1842 H   0  0  0  0  0  0  0  0  0  0  0  0
    1.1226   21.2775  -35.6822 H   0  0  0  0  0  0  0  0  0  0  0  0
   -0.4508   22.1442  -35.6822 H   0  0  0  0  0  0  0  0  0  0  0  0
   -5.6640   19.3470  -33.0640 C   0  0  0  0  0  0  0  0  0  0  0  0
   -6.1490   18.0380  -33.0970 C   0  0  0  0  0  0  0  0  0  0  0  0
   -5.5360   17.2151  -33.4933 H   0  0  0  0  0  0  0  0  0  0  0  0
   -7.4470   17.8060  -32.6070 C   0  0  0  0  0  0  0  0  0  0  0  0
   -7.8599   16.7865  -32.6168 H   0  0  0  0  0  0  0  0  0  0  0  0
   -8.2250   18.8730  -32.1020 C   0  0  0  0  0  0  0  0  0  0  0  0
   -9.4750   18.6340  -31.6370 F   0  0  0  0  0  0  0  0  0  0  0  0
   -7.7090   20.1820  -32.0770 C   0  0  0  0  0  0  0  0  0  0  0  0
   -8.3036   21.0208  -31.6861 H   0  0  0  0  0  0  0  0  0  0  0  0
   -6.4150   20.3790  -32.5660 C   0  0  0  0  0  0  0  0  0  0  0  0
   -5.7080   21.5240  -32.6410 N   0  0  0  0  0  0  0  0  0  0  0  0
   -6.1440   22.8740  -32.2780 C   0  0  0  0  0  0  0  0  0  0  0  0
   -5.7278   23.5960  -32.9960 H   0  0  0  0  0  0  0  0  0  0  0  0
   -7.2430   22.9152  -32.2998 H   0  0  0  0  0  0  0  0  0  0  0  0
   -5.6570   23.2240  -30.8670 C   0  0  0  0  0  0  0  0  0  0  0  0
   -6.5149   23.5502  -30.2607 H   0  0  0  0  0  0  0  0  0  0  0  0
   -5.1909   22.3310  -30.4251 H   0  0  0  0  0  0  0  0  0  0  0  0
   -4.6520   24.3100  -30.9080 N   0  0  0  0  0  0  0  0  0  0  0  0
   -5.2670   25.6010  -30.5190 C   0  0  0  0  0  0  0  0  0  0  0  0
   -4.5323   26.1930  -29.9535 H   0  0  0  0  0  0  0  0  0  0  0  0
   -5.5709   26.1327  -31.4328 H   0  0  0  0  0  0  0  0  0  0  0  0
   -6.5050   25.3810  -29.6510 C   0  0  0  0  0  0  0  0  0  0  0  0
   -6.2220   25.4313  -28.5892 H   0  0  0  0  0  0  0  0  0  0  0  0
   -7.2493   26.1610  -29.8694 H   0  0  0  0  0  0  0  0  0  0  0  0
   -6.9350   24.3924  -29.8694 H   0  0  0  0  0  0  0  0  0  0  0  0
   -3.4630   23.9920  -30.0730 C   0  0  0  0  0  0  0  0  0  0  0  0
   -2.6146   24.6157  -30.3911 H   0  0  0  0  0  0  0  0  0  0  0  0
   -3.6930   24.1951  -29.0167 H   0  0  0  0  0  0  0  0  0  0  0  0
   -3.1020   22.5220  -30.2390 C   0  0  0  0  0  0  0  0  0  0  0  0
   -2.9881   22.0582  -29.2481 H   0  0  0  0  0  0  0  0  0  0  0  0
   -3.9008   22.0087  -30.7944 H   0  0  0  0  0  0  0  0  0  0  0  0
   -2.1563   22.4371  -30.7944 H   0  0  0  0  0  0  0  0  0  0  0  0
  1  2  1  0
  2  3  2  0
  3  4  1  0
  4  5  1  0
  5  6  1  0
  5  7  1  0
  5  8  1  0
  8  9  1  0
  8 10  1  0
  8 11  1  0
 11 12  1  0
 12 13  1  0
 12 14  1  0
 12 15  1  0
 11 16  1  0
 16 17  1  0
 16 18  1  0
 16 19  1  0
 19 20  1  0
 19 21  1  0
 19 22  1  0
  4 23  1  0
 23 24  2  0
 24 25  1  0
 24 26  1  0
 26 27  1  0
 26 28  2  0
 28 29  1  0
 28 30  1  0
 30 31  1  0
 30 32  2  0
 32 33  1  0
 33 34  1  0
 34 35  1  0
 34 36  1  0
 34 37  1  0
 37 38  1  0
 37 39  1  0
 37 40  1  0
 40 41  1  0
 41 42  1  0
 41 43  1  0
 41 44  1  0
 44 45  1  0
 44 46  1  0
 44 47  1  0
 40 48  1  0
 48 49  1  0
 48 50  1  0
 48 51  1  0
 51 52  1  0
 51 53  1  0
 51 54  1  0
 33  3  1  0
 32 23  1  0
M  END
>  <UniqueID>  (9) 
9

>  <SMILES>  (9) 
[H]/N=c1\n(CCN(C)CC)c2ccc(F)cc2n1CCN(CC)CC

>  <Energy>  (9) 
89.04198390629385

>  <Genealogy>  (9) 
[H]/N=c1\n(CCN(C)CC)c2ccc(F)cc2n1CCN(CC)CC (cis-trans isomerization)
[H]/N=c1\n(CCN(C)CC)c2ccc(F)cc2n1CCN(CC)CC (3D coordinates assigned)
[H]/N=c1\n(CCN(C)CC)c2ccc(F)cc2n1CCN(CC)CC (optimized conformer: 89.04198390629385 kcal/mol)

>  <smiles>  (9) 
CCN(C)CCn1c(=N)n(CCN(CC)CC)c2cc(F)ccc21

>  <score_type>  (9) 
oracle

>  <origin>  (9) 
adg

>  <m_score__min__energy>  (9) 
-6.8700000000000001

>  <m_primary>  (9) 
energy

$$$$
9:0
     RDKit          3D

 49 51  0  0  0  0  0  0  0  0999 V2000
   -5.5120   25.3230  -30.4010 C   0  0  0  0  0  0  0  0  0  0  0  0
   -5.5840   23.9400  -29.7420 C   0  0  0  0  0  0  0  0  0  0  0  0
   -4.2650   23.2810  -29.5590 N   0  0  0  0  0  0  0  0  0  0  0  0
   -3.1090   24.1850  -29.7700 C   0  0  0  0  0  0  0  0  0  0  0  0
   -2.2970   24.3900  -28.4900 C   0  0  0  0  0  0  0  0  0  0  0  0
   -4.1470   22.0480  -30.3730 C   0  0  0  0  0  0  0  0  0  0  0  0
   -3.5970   22.3490  -31.7800 C   0  0  0  0  0  0  0  0  0  0  0  0
   -4.4900   21.9420  -32.8740 N   0  0  0  0  0  0  0  0  0  0  0  0
   -5.5890   21.0280  -32.7280 C   0  0  0  0  0  0  0  0  0  0  0  0
   -6.8620   21.5310  -32.3980 C   0  0  0  0  0  0  0  0  0  0  0  0
   -7.0970   22.9230  -32.3490 C   0  0  0  0  0  0  0  0  0  0  0  0
   -8.3330   23.4250  -31.9530 C   0  0  0  0  0  0  0  0  0  0  0  0
   -9.3520   22.5530  -31.5920 C   0  0  0  0  0  0  0  0  0  0  0  0
   -9.1530   21.1760  -31.6600 C   0  0  0  0  0  0  0  0  0  0  0  0
   -7.9200   20.6340  -32.1060 C   0  0  0  0  0  0  0  0  0  0  0  0
   -7.7280   19.2740  -32.2340 N   0  0  0  0  0  0  0  0  0  0  0  0
   -8.8930   18.3600  -32.1930 C   0  0  0  0  0  0  0  0  0  0  0  0
   -6.4600   18.7650  -32.4430 C   0  0  0  0  0  0  0  0  0  0  0  0
   -6.1930   17.3820  -32.2820 C   0  0  0  0  0  0  0  0  0  0  0  0
   -4.9420   16.8500  -32.5680 C   0  0  0  0  0  0  0  0  0  0  0  0
   -4.6520   15.1300  -32.3670 Cl  0  0  0  0  0  0  0  0  0  0  0  0
   -3.9280   17.6720  -33.0350 C   0  0  0  0  0  0  0  0  0  0  0  0
   -4.1250   19.0480  -33.1580 C   0  0  0  0  0  0  0  0  0  0  0  0
   -2.7640   19.9390  -33.8440 Cl  0  0  0  0  0  0  0  0  0  0  0  0
   -5.3800   19.6290  -32.7950 C   0  0  0  0  0  0  0  0  0  0  0  0
   -5.4716   26.0987  -29.6221 H   0  0  0  0  0  0  0  0  0  0  0  0
   -4.6094   25.3844  -31.0268 H   0  0  0  0  0  0  0  0  0  0  0  0
   -6.4033   25.4778  -31.0268 H   0  0  0  0  0  0  0  0  0  0  0  0
   -6.0527   24.0534  -28.7533 H   0  0  0  0  0  0  0  0  0  0  0  0
   -6.1659   23.2979  -30.4196 H   0  0  0  0  0  0  0  0  0  0  0  0
   -2.4543   23.7497  -30.5394 H   0  0  0  0  0  0  0  0  0  0  0  0
   -3.4983   25.1646  -30.0844 H   0  0  0  0  0  0  0  0  0  0  0  0
   -2.9438   24.2267  -27.6154 H   0  0  0  0  0  0  0  0  0  0  0  0
   -1.4618   23.6745  -28.4671 H   0  0  0  0  0  0  0  0  0  0  0  0
   -1.9015   25.4162  -28.4671 H   0  0  0  0  0  0  0  0  0  0  0  0
   -3.4662   21.3488  -29.8655 H   0  0  0  0  0  0  0  0  0  0  0  0
   -5.1500   21.6097  -30.4817 H   0  0  0  0  0  0  0  0  0  0  0  0
   -3.4257   23.4327  -31.8592 H   0  0  0  0  0  0  0  0  0  0  0  0
   -2.6727   21.7630  -31.8909 H   0  0  0  0  0  0  0  0  0  0  0  0
   -4.4760   22.5250  -33.7410 H   0  0  0  0  0  0  0  0  0  0  0  0
   -6.2924   23.6194  -32.6275 H   0  0  0  0  0  0  0  0  0  0  0  0
   -8.5028   24.5115  -31.9259 H   0  0  0  0  0  0  0  0  0  0  0  0
  -10.3192   22.9510  -31.2513 H   0  0  0  0  0  0  0  0  0  0  0  0
   -9.9659   20.4971  -31.3628 H   0  0  0  0  0  0  0  0  0  0  0  0
   -9.1588   18.1515  -31.1462 H   0  0  0  0  0  0  0  0  0  0  0  0
   -9.7470   18.8315  -32.7012 H   0  0  0  0  0  0  0  0  0  0  0  0
   -8.6383   17.4183  -32.7012 H   0  0  0  0  0  0  0  0  0  0  0  0
   -6.9924   16.7169  -31.9234 H   0  0  0  0  0  0  0  0  0  0  0  0
   -2.9573   17.2347  -33.3117 H   0  0  0  0  0  0  0  0  0  0  0  0
  1  2  1  0
  2  3  1  0
  3  4  1  0
  4  5  1  0
  3  6  1  0
  6  7  1  0
  7  8  1  0
  8  9  1  0
  9 10  2  0
 10 11  1  0
 11 12  2  0
 12 13  1  0
 13 14  2  0
 14 15  1  0
 15 16  2  0
 16 17  1  0
 16 18  1  0
 18 19  2  0
 19 20  1  0
 20 21  1  0
 20 22  2  0
 22 23  1  0
 23 24  1  0
 23 25  2  0
 25  9  1  0
 15 10  1  0
 25 18  1  0
  1 26  1  0
  1 27  1  0
  1 28  1  0
  2 29  1  0
  2 30  1  0
  4 31  1  0
  4 32  1  0
  5 33  1  0
  5 34  1  0
  5 35  1  0
  6 36  1  0
  6 37  1  0
  7 38  1  0
  7 39  1  0
  8 40  1  0
 11 41  1  0
 12 42  1  0
 13 43  1  0
 14 44  1  0
 17 45  1  0
 17 46  1  0
 17 47  1  0
 19 48  1  0
 22 49  1  0
M  CHG  1  16   1
M  END
>  <UniqueID>  (10) 
10

>  <SMILES>  (10) 
CCN(CC)CCNc1c2ccccc2[n+](C)c2cc(Cl)cc(Cl)c12

>  <Energy>  (10) 
82.80014595330347

>  <Genealogy>  (10) 
CCN(CC)CCNc1c2ccccc2[n+](C)c2cc(Cl)cc(Cl)c12 (3D coordinates assigned)
CCN(CC)CCNc1c2ccccc2[n+](C)c2cc(Cl)cc(Cl)c12 (optimized conformer: 82.80014595330347 kcal/mol)

>  <smiles>  (10) 
CCN(CC)CCNc1c2ccccc2[n+](C)c2cc(Cl)cc(Cl)c12

>  <score_type>  (10) 
oracle

>  <origin>  (10) 
adg

>  <m_score__min__energy>  (10) 
-8.9000000000000004

>  <m_primary>  (10) 
energy

$$$$
10:0
     RDKit          3D

 63 66  0  0  0  0  0  0  0  0999 V2000
   -3.6040   15.3170  -33.1080 C   0  0  0  0  0  0  0  0  0  0  0  0
   -2.8690   16.0380  -34.2530 C   0  0  0  0  0  0  0  0  0  0  0  0
   -3.4530   17.3580  -34.6150 N   0  0  0  0  0  0  0  0  0  0  0  0
   -4.8460   17.4970  -34.0910 C   0  0  0  0  0  0  0  0  0  0  0  0
   -5.7960   18.1440  -35.1030 C   0  0  0  0  0  0  0  0  0  0  0  0
   -2.5560   18.4680  -34.1830 C   0  0  0  0  0  0  0  0  0  0  0  0
   -3.1290   19.3040  -33.0170 C   0  0  0  0  0  0  0  0  0  0  0  0
   -4.0400   20.3570  -33.4790 N   0  0  0  0  0  0  0  0  0  0  0  0
   -4.8230   21.1260  -32.5410 C   0  0  0  0  0  0  0  0  0  0  0  0
   -4.2180   22.0090  -31.7040 C   0  0  0  0  0  0  0  0  0  0  0  0
   -2.8560   21.9650  -31.2750 C   0  0  0  0  0  0  0  0  0  0  0  0
   -2.3440   22.9160  -30.3270 C   0  0  0  0  0  0  0  0  0  0  0  0
   -3.1610   23.9700  -29.8140 C   0  0  0  0  0  0  0  0  0  0  0  0
   -2.7310   24.9400  -28.8980 O   0  0  0  0  0  0  0  0  0  0  0  0
   -2.9100   24.8660  -27.4830 C   0  0  0  0  0  0  0  0  0  0  0  0
   -1.6100   24.4620  -26.7780 C   0  0  0  0  0  0  0  0  0  0  0  0
   -0.3850   25.1560  -27.4030 C   0  0  0  0  0  0  0  0  0  0  0  0
    0.0640   24.5020  -28.6390 N   0  0  0  0  0  0  0  0  0  0  0  0
    0.2410   23.0600  -28.4700 C   0  0  0  0  0  0  0  0  0  0  0  0
   -4.4510   23.9980  -30.3040 C   0  0  0  0  0  0  0  0  0  0  0  0
   -4.9180   23.0680  -31.1880 C   0  0  0  0  0  0  0  0  0  0  0  0
   -6.0580   23.7080  -31.4080 C   0  0  0  0  0  0  0  0  0  0  0  0
   -7.2440   23.4210  -32.6940 S   0  0  0  0  0  0  0  0  0  0  0  0
   -7.3680   21.6710  -32.2730 C   0  0  0  0  0  0  0  0  0  0  0  0
   -8.6380   21.2140  -31.8910 C   0  0  0  0  0  0  0  0  0  0  0  0
   -8.8480   19.8760  -31.5710 C   0  0  0  0  0  0  0  0  0  0  0  0
   -7.7880   18.9750  -31.6150 C   0  0  0  0  0  0  0  0  0  0  0  0
   -6.5130   19.4110  -31.9720 C   0  0  0  0  0  0  0  0  0  0  0  0
   -6.2690   20.7530  -32.3210 C   0  0  0  0  0  0  0  0  0  0  0  0
   -5.7250   24.6640  -30.3650 C   0  0  0  0  0  0  0  0  0  0  0  0
   -6.2690   25.6590  -29.8210 O   0  0  0  0  0  0  0  0  0  0  0  0
   -3.2285   15.6853  -32.1419 H   0  0  0  0  0  0  0  0  0  0  0  0
   -4.6832   15.5165  -33.1821 H   0  0  0  0  0  0  0  0  0  0  0  0
   -3.4253   14.2341  -33.1821 H   0  0  0  0  0  0  0  0  0  0  0  0
   -1.8239   16.1949  -33.9477 H   0  0  0  0  0  0  0  0  0  0  0  0
   -2.9608   15.3965  -35.1419 H   0  0  0  0  0  0  0  0  0  0  0  0
   -3.4780   17.3540  -35.6640 H   0  0  0  0  0  0  0  0  0  0  0  0
   -5.2285   16.4970  -33.8386 H   0  0  0  0  0  0  0  0  0  0  0  0
   -4.8051   18.1516  -33.2079 H   0  0  0  0  0  0  0  0  0  0  0  0
   -6.5899   18.6847  -34.5669 H   0  0  0  0  0  0  0  0  0  0  0  0
   -5.2347   18.8484  -35.7345 H   0  0  0  0  0  0  0  0  0  0  0  0
   -6.2458   17.3637  -35.7345 H   0  0  0  0  0  0  0  0  0  0  0  0
   -1.5963   18.0359  -33.8631 H   0  0  0  0  0  0  0  0  0  0  0  0
   -2.4423   19.1455  -35.0421 H   0  0  0  0  0  0  0  0  0  0  0  0
   -3.6780   18.6344  -32.3386 H   0  0  0  0  0  0  0  0  0  0  0  0
   -2.2849   19.7908  -32.5067 H   0  0  0  0  0  0  0  0  0  0  0  0
   -4.2940   20.3690  -34.4900 H   0  0  0  0  0  0  0  0  0  0  0  0
   -2.1875   21.1896  -31.6774 H   0  0  0  0  0  0  0  0  0  0  0  0
   -1.3007   22.8307  -29.9890 H   0  0  0  0  0  0  0  0  0  0  0  0
   -3.2289   25.8505  -27.1101 H   0  0  0  0  0  0  0  0  0  0  0  0
   -3.6730   24.1031  -27.2688 H   0  0  0  0  0  0  0  0  0  0  0  0
   -1.6771   24.7442  -25.7169 H   0  0  0  0  0  0  0  0  0  0  0  0
   -1.4826   23.3750  -26.8889 H   0  0  0  0  0  0  0  0  0  0  0  0
   -0.6495   26.1989  -27.6321 H   0  0  0  0  0  0  0  0  0  0  0  0
    0.4386   25.0970  -26.6763 H   0  0  0  0  0  0  0  0  0  0  0  0
   -0.6330   24.6710  -29.3990 H   0  0  0  0  0  0  0  0  0  0  0  0
    0.2708   22.8174  -27.3975 H   0  0  0  0  0  0  0  0  0  0  0  0
   -0.5988   22.5296  -28.9427 H   0  0  0  0  0  0  0  0  0  0  0  0
    1.1841   22.7485  -28.9427 H   0  0  0  0  0  0  0  0  0  0  0  0
   -9.4785   21.9221  -31.8438 H   0  0  0  0  0  0  0  0  0  0  0  0
   -9.8519   19.5304  -31.2832 H   0  0  0  0  0  0  0  0  0  0  0  0
   -7.9568   17.9166  -31.3675 H   0  0  0  0  0  0  0  0  0  0  0  0
   -5.6806   18.6920  -31.9812 H   0  0  0  0  0  0  0  0  0  0  0  0
  1  2  1  0
  2  3  1  0
  3  4  1  0
  4  5  1  0
  3  6  1  0
  6  7  1  0
  7  8  1  0
  8  9  1  0
  9 10  2  0
 10 11  1  0
 11 12  2  0
 12 13  1  0
 13 14  1  0
 14 15  1  0
 15 16  1  0
 16 17  1  0
 17 18  1  0
 18 19  1  0
 13 20  2  0
 20 21  1  0
 21 22  2  0
 22 23  1  0
 23 24  1  0
 24 25  2  0
 25 26  1  0
 26 27  2  0
 27 28  1  0
 28 29  2  0
 22 30  1  0
 30 31  2  0
 29  9  1  0
 21 10  1  0
 29 24  1  0
 30 20  1  0
  1 32  1  0
  1 33  1  0
  1 34  1  0
  2 35  1  0
  2 36  1  0
  3 37  1  0
  4 38  1  0
  4 39  1  0
  5 40  1  0
  5 41  1  0
  5 42  1  0
  6 43  1  0
  6 44  1  0
  7 45  1  0
  7 46  1  0
  8 47  1  0
 11 48  1  0
 12 49  1  0
 15 50  1  0
 15 51  1  0
 16 52  1  0
 16 53  1  0
 17 54  1  0
 17 55  1  0
 18 56  1  0
 19 57  1  0
 19 58  1  0
 19 59  1  0
 25 60  1  0
 26 61  1  0
 27 62  1  0
 28 63  1  0
M  CHG  1   3   1
M  END
>  <UniqueID>  (11) 
11

>  <SMILES>  (11) 
CC[NH+](CC)CCNC1=c2ccc(OCCCNC)c3c2=C(Sc2ccccc21)C3=O

>  <Energy>  (11) 
114.77645716228943

>  <Genealogy>  (11) 
CC[NH+](CC)CCNC1=c2ccc(OCCCNC)c3c2=C(Sc2ccccc21)C3=O (protonated)
CC[NH+](CC)CCNC1=c2ccc(OCCCNC)c3c2=C(Sc2ccccc21)C3=O (3D coordinates assigned)
CC[NH+](CC)CCNC1=c2ccc(OCCCNC)c3c2=C(Sc2ccccc21)C3=O (nonaromatic ring conformer: 114.77645716228943 kcal/mol)

>  <smiles>  (11) 
CCN(CC)CCNC1=c2ccc(OCCCNC)c3c2=C(Sc2ccccc21)C3=O

>  <score_type>  (11) 
oracle

>  <origin>  (11) 
adg

>  <m_score__min__energy>  (11) 
-8.9399999999999995

>  <m_primary>  (11) 
energy

$$$$
11:0
     RDKit          3D

 57 60  0  0  0  0  0  0  0  0999 V2000
   -3.2850   24.1740  -27.9190 C   0  0  0  0  0  0  0  0  0  0  0  0
   -3.0230   24.5230  -29.3870 C   0  0  0  0  0  0  0  0  0  0  0  0
   -4.1160   24.1350  -30.3130 N   0  0  0  0  0  0  0  0  0  0  0  0
   -5.0640   25.2300  -30.6360 C   0  0  0  0  0  0  0  0  0  0  0  0
   -6.2910   25.3080  -29.7130 C   0  0  0  0  0  0  0  0  0  0  0  0
   -4.7450   22.8170  -30.0720 C   0  0  0  0  0  0  0  0  0  0  0  0
   -4.0990   21.7110  -30.9180 C   0  0  0  0  0  0  0  0  0  0  0  0
   -3.4510   22.2870  -32.1880 C   0  0  0  0  0  0  0  0  0  0  0  0
   -4.2330   21.9810  -33.4000 N   0  0  0  0  0  0  0  0  0  0  0  0
   -5.3330   21.0760  -33.1190 C   0  0  0  0  0  0  0  0  0  0  0  0
   -5.2100   19.6940  -33.3460 C   0  0  0  0  0  0  0  0  0  0  0  0
   -6.2470   18.8190  -33.0550 C   0  0  0  0  0  0  0  0  0  0  0  0
   -7.3890   19.2360  -32.4240 N   0  0  0  0  0  0  0  0  0  0  0  0
   -8.3000   18.2490  -31.8190 C   0  0  0  0  0  0  0  0  0  0  0  0
   -7.6190   20.5960  -32.3030 C   0  0  0  0  0  0  0  0  0  0  0  0
   -8.8790   21.0900  -31.8830 C   0  0  0  0  0  0  0  0  0  0  0  0
   -9.0960   22.4560  -31.7150 C   0  0  0  0  0  0  0  0  0  0  0  0
   -8.0760   23.3630  -31.9670 C   0  0  0  0  0  0  0  0  0  0  0  0
   -6.8360   22.9180  -32.4180 C   0  0  0  0  0  0  0  0  0  0  0  0
   -6.5850   21.5400  -32.6170 C   0  0  0  0  0  0  0  0  0  0  0  0
   -5.8400   17.4510  -33.4650 C   0  0  0  0  0  0  0  0  0  0  0  0
   -6.5690   16.2590  -33.5940 C   0  0  0  0  0  0  0  0  0  0  0  0
   -5.9180   15.1200  -34.0960 C   0  0  0  0  0  0  0  0  0  0  0  0
   -4.5740   15.1880  -34.5060 C   0  0  0  0  0  0  0  0  0  0  0  0
   -3.8750   16.4030  -34.4400 C   0  0  0  0  0  0  0  0  0  0  0  0
   -4.5360   17.5170  -33.9250 C   0  0  0  0  0  0  0  0  0  0  0  0
   -4.0900   18.8970  -33.8700 C   0  0  0  0  0  0  0  0  0  0  0  0
   -2.9530   19.3060  -34.2220 O   0  0  0  0  0  0  0  0  0  0  0  0
   -2.7509   24.8854  -27.2720 H   0  0  0  0  0  0  0  0  0  0  0  0
   -4.3644   24.2322  -27.7153 H   0  0  0  0  0  0  0  0  0  0  0  0
   -2.9279   23.1537  -27.7153 H   0  0  0  0  0  0  0  0  0  0  0  0
   -2.8785   25.6109  -29.4617 H   0  0  0  0  0  0  0  0  0  0  0  0
   -2.1344   23.9510  -29.6923 H   0  0  0  0  0  0  0  0  0  0  0  0
   -4.5218   26.1846  -30.5671 H   0  0  0  0  0  0  0  0  0  0  0  0
   -5.4468   25.0228  -31.6462 H   0  0  0  0  0  0  0  0  0  0  0  0
   -5.9623   25.2871  -28.6635 H   0  0  0  0  0  0  0  0  0  0  0  0
   -6.8374   26.2427  -29.9076 H   0  0  0  0  0  0  0  0  0  0  0  0
   -6.9513   24.4500  -29.9076 H   0  0  0  0  0  0  0  0  0  0  0  0
   -4.6361   22.5602  -29.0079 H   0  0  0  0  0  0  0  0  0  0  0  0
   -5.8052   22.8882  -30.3563 H   0  0  0  0  0  0  0  0  0  0  0  0
   -3.3269   21.2061  -30.3189 H   0  0  0  0  0  0  0  0  0  0  0  0
   -4.8832   21.0009  -31.2193 H   0  0  0  0  0  0  0  0  0  0  0  0
   -3.3741   23.3792  -32.0824 H   0  0  0  0  0  0  0  0  0  0  0  0
   -2.4591   21.8249  -32.3004 H   0  0  0  0  0  0  0  0  0  0  0  0
   -4.6000   22.8670  -33.8130 H   0  0  0  0  0  0  0  0  0  0  0  0
   -3.6020   21.6050  -34.1400 H   0  0  0  0  0  0  0  0  0  0  0  0
   -8.2379   18.3163  -30.7228 H   0  0  0  0  0  0  0  0  0  0  0  0
   -9.3312   18.4560  -32.1412 H   0  0  0  0  0  0  0  0  0  0  0  0
   -8.0112   17.2377  -32.1412 H   0  0  0  0  0  0  0  0  0  0  0  0
   -9.6990   20.3836  -31.6864 H   0  0  0  0  0  0  0  0  0  0  0  0
  -10.0799   22.8172  -31.3812 H   0  0  0  0  0  0  0  0  0  0  0  0
   -8.2479   24.4380  -31.8098 H   0  0  0  0  0  0  0  0  0  0  0  0
   -6.0397   23.6488  -32.6226 H   0  0  0  0  0  0  0  0  0  0  0  0
   -7.6302   16.2173  -33.3074 H   0  0  0  0  0  0  0  0  0  0  0  0
   -6.4633   14.1675  -34.1691 H   0  0  0  0  0  0  0  0  0  0  0  0
   -4.0690   14.2851  -34.8798 H   0  0  0  0  0  0  0  0  0  0  0  0
   -2.8331   16.4744  -34.7855 H   0  0  0  0  0  0  0  0  0  0  0  0
  1  2  1  0
  2  3  1  0
  3  4  1  0
  4  5  1  0
  3  6  1  0
  6  7  1  0
  7  8  1  0
  8  9  1  0
  9 10  1  0
 10 11  2  0
 11 12  1  0
 12 13  2  0
 13 14  1  0
 13 15  1  0
 15 16  2  0
 16 17  1  0
 17 18  2  0
 18 19  1  0
 19 20  2  0
 12 21  1  0
 21 22  2  0
 22 23  1  0
 23 24  2  0
 24 25  1  0
 25 26  2  0
 26 27  1  0
 27 28  2  0
 20 10  1  0
 26 21  1  0
 27 11  1  0
 20 15  1  0
  1 29  1  0
  1 30  1  0
  1 31  1  0
  2 32  1  0
  2 33  1  0
  4 34  1  0
  4 35  1  0
  5 36  1  0
  5 37  1  0
  5 38  1  0
  6 39  1  0
  6 40  1  0
  7 41  1  0
  7 42  1  0
  8 43  1  0
  8 44  1  0
  9 45  1  0
  9 46  1  0
 14 47  1  0
 14 48  1  0
 14 49  1  0
 16 50  1  0
 17 51  1  0
 18 52  1  0
 19 53  1  0
 22 54  1  0
 23 55  1  0
 24 56  1  0
 25 57  1  0
M  CHG  2   9   1  13   1
M  END
>  <UniqueID>  (12) 
12

>  <SMILES>  (12) 
CCN(CC)CCC[NH2+]c1c2c([n+](C)c3ccccc13)-c1ccccc1C2=O

>  <Energy>  (12) 
117.94248082193509

>  <Genealogy>  (12) 
CCN(CC)CCC[NH2+]c1c2c([n+](C)c3ccccc13)-c1ccccc1C2=O (protonated)
CCN(CC)CCC[NH2+]c1c2c([n+](C)c3ccccc13)-c1ccccc1C2=O (3D coordinates assigned)
CCN(CC)CCC[NH2+]c1c2c([n+](C)c3ccccc13)-c1ccccc1C2=O (nonaromatic ring conformer: 117.94248082193509 kcal/mol)

>  <smiles>  (12) 
CCN(CC)CCCNc1c2c([n+](C)c3ccccc13)-c1ccccc1C2=O

>  <score_type>  (12) 
oracle

>  <origin>  (12) 
adg

>  <m_score__min__energy>  (12) 
-8.9499999999999993

>  <m_primary>  (12) 
energy

$$$$
12:0
     RDKit          3D

 59 62  0  0  0  0  0  0  0  0999 V2000
   -5.7330   25.6740  -30.4550 C   0  0  0  0  0  0  0  0  0  0  0  0
   -5.7310   24.6260  -29.3480 C   0  0  0  0  0  0  0  0  0  0  0  0
   -4.3540   24.3980  -28.8550 N   0  0  0  0  0  0  0  0  0  0  0  0
   -4.2880   24.4050  -27.3700 C   0  0  0  0  0  0  0  0  0  0  0  0
   -2.9460   24.8830  -26.7950 C   0  0  0  0  0  0  0  0  0  0  0  0
   -3.7410   23.1990  -29.4770 C   0  0  0  0  0  0  0  0  0  0  0  0
   -3.3240   23.4290  -30.9420 C   0  0  0  0  0  0  0  0  0  0  0  0
   -3.3250   22.1480  -31.7900 C   0  0  0  0  0  0  0  0  0  0  0  0
   -4.3980   22.1440  -32.7820 N   0  0  0  0  0  0  0  0  0  0  0  0
   -5.4450   21.1640  -32.7090 C   0  0  0  0  0  0  0  0  0  0  0  0
   -5.1670   19.8150  -32.9900 C   0  0  0  0  0  0  0  0  0  0  0  0
   -6.1940   18.8490  -32.8780 C   0  0  0  0  0  0  0  0  0  0  0  0
   -7.4150   19.2170  -32.3380 N   0  0  0  0  0  0  0  0  0  0  0  0
   -8.3200   18.1990  -31.7670 C   0  0  0  0  0  0  0  0  0  0  0  0
   -7.7560   20.5530  -32.2500 C   0  0  0  0  0  0  0  0  0  0  0  0
   -9.0900   20.9700  -32.0140 C   0  0  0  0  0  0  0  0  0  0  0  0
   -9.4100   22.3220  -31.8930 C   0  0  0  0  0  0  0  0  0  0  0  0
   -8.4180   23.2890  -32.0150 C   0  0  0  0  0  0  0  0  0  0  0  0
   -7.1050   22.9110  -32.2790 C   0  0  0  0  0  0  0  0  0  0  0  0
   -6.7600   21.5510  -32.4120 C   0  0  0  0  0  0  0  0  0  0  0  0
   -5.9130   17.4670  -33.4180 C   0  0  0  0  0  0  0  0  0  0  0  0
   -6.8430   16.4720  -33.3460 N   0  0  0  0  0  0  0  0  0  0  0  0
   -6.6350   15.2290  -33.8510 C   0  0  0  0  0  0  0  0  0  0  0  0
   -5.4400   14.9320  -34.4990 C   0  0  0  0  0  0  0  0  0  0  0  0
   -4.4750   15.9270  -34.6330 C   0  0  0  0  0  0  0  0  0  0  0  0
   -4.6990   17.2020  -34.0930 C   0  0  0  0  0  0  0  0  0  0  0  0
   -3.7190   18.3060  -34.3710 C   0  0  0  0  0  0  0  0  0  0  0  0
   -3.7490   19.3570  -33.2690 C   0  0  0  0  0  0  0  0  0  0  0  0
   -5.7349   26.6792  -30.0083 H   0  0  0  0  0  0  0  0  0  0  0  0
   -4.8346   25.5512  -31.0778 H   0  0  0  0  0  0  0  0  0  0  0  0
   -6.6309   25.5478  -31.0778 H   0  0  0  0  0  0  0  0  0  0  0  0
   -6.3603   24.9761  -28.5165 H   0  0  0  0  0  0  0  0  0  0  0  0
   -6.1267   23.6817  -29.7502 H   0  0  0  0  0  0  0  0  0  0  0  0
   -5.0795   25.0699  -26.9939 H   0  0  0  0  0  0  0  0  0  0  0  0
   -4.4136   23.3613  -27.0460 H   0  0  0  0  0  0  0  0  0  0  0  0
   -2.9914   24.8668  -25.6961 H   0  0  0  0  0  0  0  0  0  0  0  0
   -2.1415   24.2161  -27.1386 H   0  0  0  0  0  0  0  0  0  0  0  0
   -2.7442   25.9083  -27.1386 H   0  0  0  0  0  0  0  0  0  0  0  0
   -2.8482   22.9210  -28.8977 H   0  0  0  0  0  0  0  0  0  0  0  0
   -4.4983   22.4012  -29.4713 H   0  0  0  0  0  0  0  0  0  0  0  0
   -4.0246   24.1462  -31.3945 H   0  0  0  0  0  0  0  0  0  0  0  0
   -2.2906   23.8058  -30.9279 H   0  0  0  0  0  0  0  0  0  0  0  0
   -2.3599   22.0676  -32.3116 H   0  0  0  0  0  0  0  0  0  0  0  0
   -3.4867   21.2954  -31.1140 H   0  0  0  0  0  0  0  0  0  0  0  0
   -4.3060   22.6890  -33.6670 H   0  0  0  0  0  0  0  0  0  0  0  0
   -8.2783   18.2459  -30.6688 H   0  0  0  0  0  0  0  0  0  0  0  0
   -9.3491   18.3932  -32.1035 H   0  0  0  0  0  0  0  0  0  0  0  0
   -8.0066   17.1997  -32.1035 H   0  0  0  0  0  0  0  0  0  0  0  0
   -9.8853   20.2154  -31.9249 H   0  0  0  0  0  0  0  0  0  0  0  0
  -10.4500   22.6244  -31.7005 H   0  0  0  0  0  0  0  0  0  0  0  0
   -8.6714   24.3535  -31.9027 H   0  0  0  0  0  0  0  0  0  0  0  0
   -6.3278   23.6822  -32.3850 H   0  0  0  0  0  0  0  0  0  0  0  0
   -7.4113   14.4566  -33.7479 H   0  0  0  0  0  0  0  0  0  0  0  0
   -5.2598   13.9238  -34.9004 H   0  0  0  0  0  0  0  0  0  0  0  0
   -3.5354   15.7127  -35.1633 H   0  0  0  0  0  0  0  0  0  0  0  0
   -2.7067   17.8803  -34.4338 H   0  0  0  0  0  0  0  0  0  0  0  0
   -3.9958   18.7876  -35.3204 H   0  0  0  0  0  0  0  0  0  0  0  0
   -3.3232   18.9268  -32.3505 H   0  0  0  0  0  0  0  0  0  0  0  0
   -3.1598   20.2255  -33.5984 H   0  0  0  0  0  0  0  0  0  0  0  0
  1  2  1  0
  2  3  1  0
  3  4  1  0
  4  5  1  0
  3  6  1  0
  6  7  1  0
  7  8  1  0
  8  9  1  0
  9 10  1  0
 10 11  2  0
 11 12  1  0
 12 13  2  0
 13 14  1  0
 13 15  1  0
 15 16  2  0
 16 17  1  0
 17 18  2  0
 18 19  1  0
 19 20  2  0
 12 21  1  0
 21 22  2  0
 22 23  1  0
 23 24  2  0
 24 25  1  0
 25 26  2  0
 26 27  1  0
 27 28  1  0
 20 10  1  0
 26 21  1  0
 28 11  1  0
 20 15  1  0
  1 29  1  0
  1 30  1  0
  1 31  1  0
  2 32  1  0
  2 33  1  0
  4 34  1  0
  4 35  1  0
  5 36  1  0
  5 37  1  0
  5 38  1  0
  6 39  1  0
  6 40  1  0
  7 41  1  0
  7 42  1  0
  8 43  1  0
  8 44  1  0
  9 45  1  0
 14 46  1  0
 14 47  1  0
 14 48  1  0
 16 49  1  0
 17 50  1  0
 18 51  1  0
 19 52  1  0
 23 53  1  0
 24 54  1  0
 25 55  1  0
 27 56  1  0
 27 57  1  0
 28 58  1  0
 28 59  1  0
M  CHG  1  13   1
M  END
>  <UniqueID>  (13) 
13

>  <SMILES>  (13) 
CCN(CC)CCCNc1c2c([n+](C)c3ccccc13)-c1ncccc1CC2

>  <Energy>  (13) 
91.91766603703336

>  <Genealogy>  (13) 
CCN(CC)CCCNc1c2c([n+](C)c3ccccc13)-c1ncccc1CC2 (3D coordinates assigned)
CCN(CC)CCCNc1c2c([n+](C)c3ccccc13)-c1ncccc1CC2 (nonaromatic ring conformer: 91.91766603703336 kcal/mol)

>  <smiles>  (13) 
CCN(CC)CCCNc1c2c([n+](C)c3ccccc13)-c1ncccc1CC2

>  <score_type>  (13) 
oracle

>  <origin>  (13) 
adg

>  <m_score__min__energy>  (13) 
-9.0099999999999998

>  <m_primary>  (13) 
energy

$$$$
13:0
     RDKit          3D

 72 73  0  0  0  0  0  0  0  0999 V2000
   -1.7885   20.5460  -33.6520 H   0  0  0  0  0  0  0  0  0  0  0  0
   -2.4670   20.1540  -32.8800 C   0  0  0  0  0  0  0  0  0  0  0  0
   -2.1970   18.9950  -32.3490 N   0  0  0  0  0  0  0  0  0  0  0  0
   -1.3580   17.9420  -32.9280 C   0  0  0  0  0  0  0  0  0  0  0  0
   -0.6237   18.3982  -33.6082 H   0  0  0  0  0  0  0  0  0  0  0  0
   -0.8441   17.4106  -32.1134 H   0  0  0  0  0  0  0  0  0  0  0  0
   -2.2130   16.9380  -33.7100 C   0  0  0  0  0  0  0  0  0  0  0  0
   -1.8386   16.8772  -34.7425 H   0  0  0  0  0  0  0  0  0  0  0  0
   -2.1422   15.9606  -33.2103 H   0  0  0  0  0  0  0  0  0  0  0  0
   -3.6270   17.3420  -33.7370 N   0  0  0  0  0  0  0  0  0  0  0  0
   -3.8190   17.9500  -32.9090 H   0  0  0  0  0  0  0  0  0  0  0  0
   -3.8220   17.8800  -34.6140 H   0  0  0  0  0  0  0  0  0  0  0  0
   -4.5020   16.1580  -33.7060 C   0  0  0  0  0  0  0  0  0  0  0  0
   -4.8302   15.9289  -34.7306 H   0  0  0  0  0  0  0  0  0  0  0  0
   -3.9326   15.3183  -33.2810 H   0  0  0  0  0  0  0  0  0  0  0  0
   -5.7400   16.3970  -32.8260 C   0  0  0  0  0  0  0  0  0  0  0  0
   -6.6259   16.4787  -33.4729 H   0  0  0  0  0  0  0  0  0  0  0  0
   -5.8336   15.5493  -32.1312 H   0  0  0  0  0  0  0  0  0  0  0  0
   -5.6170   17.6280  -32.0300 N   0  0  0  0  0  0  0  0  0  0  0  0
   -5.8820   18.4290  -32.6500 H   0  0  0  0  0  0  0  0  0  0  0  0
   -6.5050   17.6440  -30.8520 C   0  0  0  0  0  0  0  0  0  0  0  0
   -6.6003   16.6220  -30.4564 H   0  0  0  0  0  0  0  0  0  0  0  0
   -6.0718   18.3069  -30.0885 H   0  0  0  0  0  0  0  0  0  0  0  0
   -7.8920   18.1680  -31.2340 C   0  0  0  0  0  0  0  0  0  0  0  0
   -8.6066   17.3317  -31.2334 H   0  0  0  0  0  0  0  0  0  0  0  0
   -8.1957   18.9305  -30.5016 H   0  0  0  0  0  0  0  0  0  0  0  0
   -7.8670   18.7800  -32.5700 N   0  0  0  0  0  0  0  0  0  0  0  0
   -6.9300   19.2310  -32.6960 H   0  0  0  0  0  0  0  0  0  0  0  0
   -8.8790   19.8400  -32.6910 C   0  0  0  0  0  0  0  0  0  0  0  0
   -8.5747   20.5412  -33.4820 H   0  0  0  0  0  0  0  0  0  0  0  0
   -9.8460   19.3792  -32.9411 H   0  0  0  0  0  0  0  0  0  0  0  0
   -9.0230   20.6000  -31.3760 C   0  0  0  0  0  0  0  0  0  0  0  0
   -8.8912   19.9044  -30.5341 H   0  0  0  0  0  0  0  0  0  0  0  0
   -8.2584   21.3890  -31.3229 H   0  0  0  0  0  0  0  0  0  0  0  0
  -10.0233   21.0546  -31.3229 H   0  0  0  0  0  0  0  0  0  0  0  0
   -3.6380   20.9670  -32.4970 C   0  0  0  0  0  0  0  0  0  0  0  0
   -4.9100   20.6130  -32.9800 C   0  0  0  0  0  0  0  0  0  0  0  0
   -5.0230   19.4960  -33.8250 O   0  0  0  0  0  0  0  0  0  0  0  0
   -6.0980   19.2730  -34.7330 C   0  0  0  0  0  0  0  0  0  0  0  0
   -7.0218   19.0814  -34.1675 H   0  0  0  0  0  0  0  0  0  0  0  0
   -6.2335   20.1622  -35.3663 H   0  0  0  0  0  0  0  0  0  0  0  0
   -5.8686   18.4033  -35.3663 H   0  0  0  0  0  0  0  0  0  0  0  0
   -6.0310   21.3750  -32.6030 C   0  0  0  0  0  0  0  0  0  0  0  0
   -7.0274   21.1018  -32.9804 H   0  0  0  0  0  0  0  0  0  0  0  0
   -5.8900   22.4790  -31.7510 C   0  0  0  0  0  0  0  0  0  0  0  0
   -7.0150   23.2290  -31.3690 C   0  0  0  0  0  0  0  0  0  0  0  0
   -8.0125   22.9470  -31.7369 H   0  0  0  0  0  0  0  0  0  0  0  0
   -6.8710   24.3310  -30.5240 C   0  0  0  0  0  0  0  0  0  0  0  0
   -7.7553   24.9139  -30.2270 H   0  0  0  0  0  0  0  0  0  0  0  0
   -5.6070   24.6950  -30.0550 C   0  0  0  0  0  0  0  0  0  0  0  0
   -5.4992   25.5633  -29.3883 H   0  0  0  0  0  0  0  0  0  0  0  0
   -4.4790   23.9610  -30.4290 C   0  0  0  0  0  0  0  0  0  0  0  0
   -3.4864   24.2561  -30.0580 H   0  0  0  0  0  0  0  0  0  0  0  0
   -4.6060   22.8460  -31.2780 C   0  0  0  0  0  0  0  0  0  0  0  0
   -3.4810   22.0950  -31.6670 C   0  0  0  0  0  0  0  0  0  0  0  0
   -2.2080   22.4610  -31.2250 O   0  0  0  0  0  0  0  0  0  0  0  0
   -1.7750   22.2030  -29.8960 C   0  0  0  0  0  0  0  0  0  0  0  0
   -2.1921   22.9677  -29.2242 H   0  0  0  0  0  0  0  0  0  0  0  0
   -0.6758   22.2328  -29.8672 H   0  0  0  0  0  0  0  0  0  0  0  0
   -2.2460   20.8190  -29.4390 C   0  0  0  0  0  0  0  0  0  0  0  0
   -1.4092   20.1130  -29.5452 H   0  0  0  0  0  0  0  0  0  0  0  0
   -3.1044   20.5432  -30.0691 H   0  0  0  0  0  0  0  0  0  0  0  0
   -2.7270   20.7900  -27.9760 C   0  0  0  0  0  0  0  0  0  0  0  0
   -3.8206   20.6719  -27.9682 H   0  0  0  0  0  0  0  0  0  0  0  0
   -2.4143   21.7344  -27.5066 H   0  0  0  0  0  0  0  0  0  0  0  0
   -2.1040   19.6430  -27.1650 C   0  0  0  0  0  0  0  0  0  0  0  0
   -1.3335   20.0534  -26.4957 H   0  0  0  0  0  0  0  0  0  0  0  0
   -1.6619   18.9196  -27.8659 H   0  0  0  0  0  0  0  0  0  0  0  0
   -3.1590   18.9250  -26.3290 C   0  0  0  0  0  0  0  0  0  0  0  0
   -2.9427   19.0722  -25.2606 H   0  0  0  0  0  0  0  0  0  0  0  0
   -4.1528   19.3351  -26.5618 H   0  0  0  0  0  0  0  0  0  0  0  0
   -3.1422   17.8501  -26.5618 H   0  0  0  0  0  0  0  0  0  0  0  0
  1  2  1  0
  2  3  2  0
  3  4  1  0
  4  5  1  0
  4  6  1  0
  4  7  1  0
  7  8  1  0
  7  9  1  0
  7 10  1  0
 10 11  1  0
 10 12  1  0
 10 13  1  0
 13 14  1  0
 13 15  1  0
 13 16  1  0
 16 17  1  0
 16 18  1  0
 16 19  1  0
 19 20  1  0
 19 21  1  0
 21 22  1  0
 21 23  1  0
 21 24  1  0
 24 25  1  0
 24 26  1  0
 24 27  1  0
 27 28  1  0
 27 29  1  0
 29 30  1  0
 29 31  1  0
 29 32  1  0
 32 33  1  0
 32 34  1  0
 32 35  1  0
  2 36  1  0
 36 37  2  0
 37 38  1  0
 38 39  1  0
 39 40  1  0
 39 41  1  0
 39 42  1  0
 37 43  1  0
 43 44  1  0
 43 45  2  0
 45 46  1  0
 46 47  1  0
 46 48  2  0
 48 49  1  0
 48 50  1  0
 50 51  1  0
 50 52  2  0
 52 53  1  0
 52 54  1  0
 54 55  2  0
 55 56  1  0
 56 57  1  0
 57 58  1  0
 57 59  1  0
 57 60  1  0
 60 61  1  0
 60 62  1  0
 60 63  1  0
 63 64  1  0
 63 65  1  0
 63 66  1  0
 66 67  1  0
 66 68  1  0
 66 69  1  0
 69 70  1  0
 69 71  1  0
 69 72  1  0
 55 36  1  0
 54 45  1  0
M  CHG  1  10   1
M  END
>  <UniqueID>  (14) 
14

>  <SMILES>  (14) 
CCCCCOc1c(/C=N\CC[NH2+]CCNCCNCC)c(OC)cc2ccccc12

>  <Energy>  (14) 
70.46330386479532

>  <Genealogy>  (14) 
CCCCCOc1c(C=NCC[NH2+]CCNCCNCC)c(OC)cc2ccccc12 (protonated)
CCCCCOc1c(/C=N\CC[NH2+]CCNCCNCC)c(OC)cc2ccccc12 (cis-trans isomerization)
CCCCCOc1c(/C=N\CC[NH2+]CCNCCNCC)c(OC)cc2ccccc12 (3D coordinates assigned)
CCCCCOc1c(/C=N\CC[NH2+]CCNCCNCC)c(OC)cc2ccccc12 (optimized conformer: 70.46330386479532 kcal/mol)

>  <smiles>  (14) 
CCCCCOc1c(C=NCCNCCNCCNCC)c(OC)cc2ccccc12

>  <score_type>  (14) 
oracle

>  <origin>  (14) 
adg

>  <m_score__min__energy>  (14) 
-6.0099999999999998

>  <m_primary>  (14) 
energy

$$$$
14:0
     RDKit          3D

 55 57  0  0  0  0  0  0  0  0999 V2000
    0.6830   24.1280  -36.0830 C   0  0  0  0  0  0  0  0  0  0  0  0
    1.0640   22.7140  -35.6380 C   0  0  0  0  0  0  0  0  0  0  0  0
   -0.0800   22.0030  -35.0490 N   0  0  0  0  0  0  0  0  0  0  0  0
    0.2190   21.5340  -33.6900 C   0  0  0  0  0  0  0  0  0  0  0  0
   -1.0700   21.2400  -32.9080 C   0  0  0  0  0  0  0  0  0  0  0  0
   -2.2520   21.1120  -33.7720 N   0  0  0  0  0  0  0  0  0  0  0  0
   -3.3870   20.2670  -33.4780 C   0  0  0  0  0  0  0  0  0  0  0  0
   -4.5830   20.8640  -33.0380 C   0  0  0  0  0  0  0  0  0  0  0  0
   -4.5980   22.2780  -32.7690 N   0  0  0  0  0  0  0  0  0  0  0  0
   -4.4690   22.8470  -31.4520 C   0  0  0  0  0  0  0  0  0  0  0  0
   -3.4610   22.4350  -30.5610 C   0  0  0  0  0  0  0  0  0  0  0  0
   -3.3700   22.9960  -29.2840 C   0  0  0  0  0  0  0  0  0  0  0  0
   -4.2770   23.9850  -28.8790 C   0  0  0  0  0  0  0  0  0  0  0  0
   -4.1990   24.5510  -27.4930 C   0  0  0  0  0  0  0  0  0  0  0  0
   -5.2910   24.3880  -29.7580 C   0  0  0  0  0  0  0  0  0  0  0  0
   -5.3820   23.8280  -31.0360 C   0  0  0  0  0  0  0  0  0  0  0  0
   -5.7060   20.0980  -32.8450 N   0  0  0  0  0  0  0  0  0  0  0  0
   -6.9020   20.6900  -32.2110 C   0  0  0  0  0  0  0  0  0  0  0  0
   -5.7120   18.7850  -33.2630 C   0  0  0  0  0  0  0  0  0  0  0  0
   -6.9030   18.0190  -33.2910 C   0  0  0  0  0  0  0  0  0  0  0  0
   -6.8900   16.6910  -33.7120 C   0  0  0  0  0  0  0  0  0  0  0  0
   -5.7010   16.0980  -34.1190 C   0  0  0  0  0  0  0  0  0  0  0  0
   -4.5140   16.8280  -34.1060 C   0  0  0  0  0  0  0  0  0  0  0  0
   -4.4940   18.1760  -33.6740 C   0  0  0  0  0  0  0  0  0  0  0  0
   -3.3280   18.9070  -33.6500 N   0  0  0  0  0  0  0  0  0  0  0  0
   -2.0190   18.2360  -33.7550 C   0  0  0  0  0  0  0  0  0  0  0  0
    0.5133   24.7579  -35.1973 H   0  0  0  0  0  0  0  0  0  0  0  0
    1.4982   24.5548  -36.6858 H   0  0  0  0  0  0  0  0  0  0  0  0
   -0.2363   24.0875  -36.6858 H   0  0  0  0  0  0  0  0  0  0  0  0
    1.4231   22.1499  -36.5114 H   0  0  0  0  0  0  0  0  0  0  0  0
    1.8489   22.7953  -34.8716 H   0  0  0  0  0  0  0  0  0  0  0  0
   -0.8700   22.6880  -34.9840 H   0  0  0  0  0  0  0  0  0  0  0  0
    0.8190   20.6141  -33.7517 H   0  0  0  0  0  0  0  0  0  0  0  0
    0.7738   22.3241  -33.1629 H   0  0  0  0  0  0  0  0  0  0  0  0
   -0.9370   20.2985  -32.3550 H   0  0  0  0  0  0  0  0  0  0  0  0
   -1.2466   22.0917  -32.2346 H   0  0  0  0  0  0  0  0  0  0  0  0
   -2.1500   21.4850  -34.7420 H   0  0  0  0  0  0  0  0  0  0  0  0
   -4.8160   22.9140  -33.5680 H   0  0  0  0  0  0  0  0  0  0  0  0
   -2.7390   21.6655  -30.8718 H   0  0  0  0  0  0  0  0  0  0  0  0
   -2.5826   22.6597  -28.5934 H   0  0  0  0  0  0  0  0  0  0  0  0
   -4.3108   23.7396  -26.7588 H   0  0  0  0  0  0  0  0  0  0  0  0
   -3.2247   25.0417  -27.3516 H   0  0  0  0  0  0  0  0  0  0  0  0
   -5.0042   25.2870  -27.3516 H   0  0  0  0  0  0  0  0  0  0  0  0
   -6.0193   25.1490  -29.4410 H   0  0  0  0  0  0  0  0  0  0  0  0
   -6.1762   24.1593  -31.7212 H   0  0  0  0  0  0  0  0  0  0  0  0
   -6.8000   20.6395  -31.1169 H   0  0  0  0  0  0  0  0  0  0  0  0
   -6.9998   21.7406  -32.5220 H   0  0  0  0  0  0  0  0  0  0  0  0
   -7.7967   20.1307  -32.5220 H   0  0  0  0  0  0  0  0  0  0  0  0
   -7.8513   18.4789  -32.9760 H   0  0  0  0  0  0  0  0  0  0  0  0
   -7.8240   16.1100  -33.7223 H   0  0  0  0  0  0  0  0  0  0  0  0
   -5.6967   15.0497  -34.4523 H   0  0  0  0  0  0  0  0  0  0  0  0
   -3.5797   16.3502  -34.4360 H   0  0  0  0  0  0  0  0  0  0  0  0
   -1.6278   18.0355  -32.7466 H   0  0  0  0  0  0  0  0  0  0  0  0
   -2.1361   17.2868  -34.2983 H   0  0  0  0  0  0  0  0  0  0  0  0
   -1.3167   18.8853  -34.2983 H   0  0  0  0  0  0  0  0  0  0  0  0
  1  2  1  0
  2  3  1  0
  3  4  1  0
  4  5  1  0
  5  6  1  0
  6  7  1  0
  7  8  2  0
  8  9  1  0
  9 10  1  0
 10 11  2  0
 11 12  1  0
 12 13  2  0
 13 14  1  0
 13 15  1  0
 15 16  2  0
  8 17  1  0
 17 18  1  0
 17 19  2  0
 19 20  1  0
 20 21  2  0
 21 22  1  0
 22 23  2  0
 23 24  1  0
 24 25  2  0
 25 26  1  0
 25  7  1  0
 16 10  1  0
 24 19  1  0
  1 27  1  0
  1 28  1  0
  1 29  1  0
  2 30  1  0
  2 31  1  0
  3 32  1  0
  4 33  1  0
  4 34  1  0
  5 35  1  0
  5 36  1  0
  6 37  1  0
  9 38  1  0
 11 39  1  0
 12 40  1  0
 14 41  1  0
 14 42  1  0
 14 43  1  0
 15 44  1  0
 16 45  1  0
 18 46  1  0
 18 47  1  0
 18 48  1  0
 20 49  1  0
 21 50  1  0
 22 51  1  0
 23 52  1  0
 26 53  1  0
 26 54  1  0
 26 55  1  0
M  CHG  2  17   1  25   1
M  END
>  <UniqueID>  (15) 
15

>  <SMILES>  (15) 
CCNCCNc1c(Nc2ccc(C)cc2)[n+](C)c2ccccc2[n+]1C

>  <Energy>  (15) 
77.91512929601352

>  <Genealogy>  (15) 
CCNCCNc1c(Nc2ccc(C)cc2)[n+](C)c2ccccc2[n+]1C (3D coordinates assigned)
CCNCCNc1c(Nc2ccc(C)cc2)[n+](C)c2ccccc2[n+]1C (optimized conformer: 77.91512929601352 kcal/mol)

>  <smiles>  (15) 
CCNCCNc1c(Nc2ccc(C)cc2)[n+](C)c2ccccc2[n+]1C

>  <score_type>  (15) 
oracle

>  <origin>  (15) 
adg

>  <m_score__min__energy>  (15) 
-7.6900000000000004

>  <m_primary>  (15) 
energy

$$$$
15:0
     RDKit          3D

 44 45  0  0  0  0  0  0  0  0999 V2000
   -6.8520   17.8370  -31.4230 C   0  0  0  0  0  0  0  0  0  0  0  0
   -8.1240   18.3550  -32.1080 C   0  0  0  0  0  0  0  0  0  0  0  0
   -7.9590   19.7390  -32.6310 N   0  0  0  0  0  0  0  0  0  0  0  0
   -9.1810   20.5460  -32.3770 C   0  0  0  0  0  0  0  0  0  0  0  0
   -9.0010   21.5450  -31.2260 C   0  0  0  0  0  0  0  0  0  0  0  0
   -6.7730   20.3780  -31.9940 C   0  0  0  0  0  0  0  0  0  0  0  0
   -5.6340   20.4970  -32.9260 N   0  0  0  0  0  0  0  0  0  0  0  0
   -4.6880   21.6140  -32.7550 C   0  0  0  0  0  0  0  0  0  0  0  0
   -5.1510   22.5680  -31.6850 C   0  0  0  0  0  0  0  0  0  0  0  0
   -6.0840   23.5750  -31.9860 C   0  0  0  0  0  0  0  0  0  0  0  0
   -6.4780   24.4890  -31.0040 C   0  0  0  0  0  0  0  0  0  0  0  0
   -5.9450   24.4040  -29.7150 C   0  0  0  0  0  0  0  0  0  0  0  0
   -5.0200   23.4040  -29.4060 C   0  0  0  0  0  0  0  0  0  0  0  0
   -4.6220   22.4890  -30.3860 C   0  0  0  0  0  0  0  0  0  0  0  0
   -5.2760   19.3770  -33.7620 C   0  0  0  0  0  0  0  0  0  0  0  0
   -6.0670   18.9000  -34.6610 N   0  0  0  0  0  0  0  0  0  0  0  0
   -5.4260   17.7790  -35.3370 C   0  0  0  0  0  0  0  0  0  0  0  0
   -4.0450   17.6490  -34.6780 C   0  0  0  0  0  0  0  0  0  0  0  0
   -4.0350   18.6980  -33.6780 N   0  0  0  0  0  0  0  0  0  0  0  0
   -6.9768   17.8878  -30.3313 H   0  0  0  0  0  0  0  0  0  0  0  0
   -6.6725   16.7941  -31.7234 H   0  0  0  0  0  0  0  0  0  0  0  0
   -5.9950   18.4578  -31.7234 H   0  0  0  0  0  0  0  0  0  0  0  0
   -8.3717   17.6871  -32.9461 H   0  0  0  0  0  0  0  0  0  0  0  0
   -8.9280   18.3719  -31.3574 H   0  0  0  0  0  0  0  0  0  0  0  0
   -7.8050   19.6950  -33.6650 H   0  0  0  0  0  0  0  0  0  0  0  0
   -9.4310   21.1038  -33.2915 H   0  0  0  0  0  0  0  0  0  0  0  0
   -9.9851   19.8515  -32.0922 H   0  0  0  0  0  0  0  0  0  0  0  0
   -9.0959   21.0182  -30.2650 H   0  0  0  0  0  0  0  0  0  0  0  0
   -8.0051   22.0072  -31.2940 H   0  0  0  0  0  0  0  0  0  0  0  0
   -9.7729   22.3257  -31.2940 H   0  0  0  0  0  0  0  0  0  0  0  0
   -7.0552   21.3839  -31.6496 H   0  0  0  0  0  0  0  0  0  0  0  0
   -6.4568   19.7408  -31.1549 H   0  0  0  0  0  0  0  0  0  0  0  0
   -3.7045   21.2100  -32.4730 H   0  0  0  0  0  0  0  0  0  0  0  0
   -4.6263   22.1638  -33.7057 H   0  0  0  0  0  0  0  0  0  0  0  0
   -6.5064   23.6445  -32.9993 H   0  0  0  0  0  0  0  0  0  0  0  0
   -7.2080   25.2754  -31.2462 H   0  0  0  0  0  0  0  0  0  0  0  0
   -6.2539   25.1247  -28.9436 H   0  0  0  0  0  0  0  0  0  0  0  0
   -4.6038   23.3360  -28.3900 H   0  0  0  0  0  0  0  0  0  0  0  0
   -3.8918   21.7044  -30.1386 H   0  0  0  0  0  0  0  0  0  0  0  0
   -6.0098   16.8576  -35.1947 H   0  0  0  0  0  0  0  0  0  0  0  0
   -5.3504   17.9416  -36.4223 H   0  0  0  0  0  0  0  0  0  0  0  0
   -3.9265   16.6608  -34.2096 H   0  0  0  0  0  0  0  0  0  0  0  0
   -3.2203   17.7435  -35.3998 H   0  0  0  0  0  0  0  0  0  0  0  0
   -3.2280   18.9350  -33.0620 H   0  0  0  0  0  0  0  0  0  0  0  0
  1  2  1  0
  2  3  1  0
  3  4  1  0
  4  5  1  0
  3  6  1  0
  6  7  1  0
  7  8  1  0
  8  9  1  0
  9 10  2  0
 10 11  1  0
 11 12  2  0
 12 13  1  0
 13 14  2  0
  7 15  1  0
 15 16  2  0
 16 17  1  0
 17 18  1  0
 18 19  1  0
 14  9  1  0
 19 15  1  0
  1 20  1  0
  1 21  1  0
  1 22  1  0
  2 23  1  0
  2 24  1  0
  3 25  1  0
  4 26  1  0
  4 27  1  0
  5 28  1  0
  5 29  1  0
  5 30  1  0
  6 31  1  0
  6 32  1  0
  8 33  1  0
  8 34  1  0
 10 35  1  0
 11 36  1  0
 12 37  1  0
 13 38  1  0
 14 39  1  0
 17 40  1  0
 17 41  1  0
 18 42  1  0
 18 43  1  0
 19 44  1  0
M  CHG  1   3   1
M  END
>  <UniqueID>  (16) 
16

>  <SMILES>  (16) 
CC[NH+](CC)CN(Cc1ccccc1)C1=NCCN1

>  <Energy>  (16) 
54.856063688828435

>  <Genealogy>  (16) 
CC[NH+](CC)CN(Cc1ccccc1)C1=NCCN1 (protonated)
CC[NH+](CC)CN(Cc1ccccc1)C1=NCCN1 (3D coordinates assigned)
CC[NH+](CC)CN(Cc1ccccc1)C1=NCCN1 (nonaromatic ring conformer: 54.856063688828435 kcal/mol)

>  <smiles>  (16) 
CCN(CC)CN(Cc1ccccc1)C1=NCCN1

>  <score_type>  (16) 
oracle

>  <origin>  (16) 
adg

>  <m_score__min__energy>  (16) 
-5.29

>  <m_primary>  (16) 
energy

$$$$
16:0
     RDKit          3D

 83 86  0  0  0  0  0  0  0  0999 V2000
   -3.2710   18.8910  -26.3120 C   0  0  0  0  0  0  0  0  0  0  0  0
   -1.9320   18.9390  -27.0540 C   0  0  0  0  0  0  0  0  0  0  0  0
   -1.8820   20.0400  -28.0640 N   0  0  0  0  0  0  0  0  0  0  0  0
   -2.1150   21.3790  -27.4600 C   0  0  0  0  0  0  0  0  0  0  0  0
   -3.4710   21.9720  -27.8510 C   0  0  0  0  0  0  0  0  0  0  0  0
   -0.6140   20.0170  -28.8400 C   0  0  0  0  0  0  0  0  0  0  0  0
   -0.7250   19.3380  -30.2180 C   0  0  0  0  0  0  0  0  0  0  0  0
   -1.9570   19.7040  -30.8090 O   0  0  0  0  0  0  0  0  0  0  0  0
   -1.7590   20.6680  -31.8260 C   0  0  0  0  0  0  0  0  0  0  0  0
   -3.1000   21.0250  -32.4700 C   0  0  0  0  0  0  0  0  0  0  0  0
   -4.2330   20.5080  -31.7010 N   0  0  0  0  0  0  0  0  0  0  0  0
   -5.5060   21.1780  -31.6700 C   0  0  0  0  0  0  0  0  0  0  0  0
   -5.5580   22.5180  -31.2450 C   0  0  0  0  0  0  0  0  0  0  0  0
   -4.4040   23.1660  -30.7510 C   0  0  0  0  0  0  0  0  0  0  0  0
   -4.4560   24.4910  -30.3270 C   0  0  0  0  0  0  0  0  0  0  0  0
   -5.6580   25.1880  -30.3660 C   0  0  0  0  0  0  0  0  0  0  0  0
   -6.8130   24.5630  -30.8330 C   0  0  0  0  0  0  0  0  0  0  0  0
   -6.7860   23.2230  -31.2960 C   0  0  0  0  0  0  0  0  0  0  0  0
   -7.9220   22.5930  -31.7580 N   0  0  0  0  0  0  0  0  0  0  0  0
   -9.1250   23.3880  -32.0900 C   0  0  0  0  0  0  0  0  0  0  0  0
   -7.9370   21.2190  -31.9070 C   0  0  0  0  0  0  0  0  0  0  0  0
   -9.1580   20.5130  -32.0020 C   0  0  0  0  0  0  0  0  0  0  0  0
   -9.1810   19.1350  -32.1570 C   0  0  0  0  0  0  0  0  0  0  0  0
   -7.9970   18.4220  -32.2450 C   0  0  0  0  0  0  0  0  0  0  0  0
   -6.7550   19.0730  -32.1670 C   0  0  0  0  0  0  0  0  0  0  0  0
   -5.5620   18.3470  -32.3320 O   0  0  0  0  0  0  0  0  0  0  0  0
   -5.3490   16.9720  -32.0070 C   0  0  0  0  0  0  0  0  0  0  0  0
   -5.2790   16.0010  -33.2230 C   0  0  0  0  0  0  0  0  0  0  0  0
   -4.0580   16.0280  -34.1050 N   0  0  0  0  0  0  0  0  0  0  0  0
   -3.9450   14.7420  -34.8460 C   0  0  0  0  0  0  0  0  0  0  0  0
   -2.8520   16.1260  -33.2030 C   0  0  0  0  0  0  0  0  0  0  0  0
   -1.6600   16.8470  -33.8550 C   0  0  0  0  0  0  0  0  0  0  0  0
   -2.0280   18.2990  -34.2010 C   0  0  0  0  0  0  0  0  0  0  0  0
   -3.5220   18.4640  -34.5260 C   0  0  0  0  0  0  0  0  0  0  0  0
   -4.0990   17.1610  -35.0940 C   0  0  0  0  0  0  0  0  0  0  0  0
   -6.7140   20.4820  -31.9330 C   0  0  0  0  0  0  0  0  0  0  0  0
   -3.0894   18.8975  -25.2271 H   0  0  0  0  0  0  0  0  0  0  0  0
   -3.8748   19.7681  -26.5880 H   0  0  0  0  0  0  0  0  0  0  0  0
   -3.8104   17.9729  -26.5880 H   0  0  0  0  0  0  0  0  0  0  0  0
   -1.1268   19.0946  -26.3209 H   0  0  0  0  0  0  0  0  0  0  0  0
   -1.8095   17.9858  -27.5891 H   0  0  0  0  0  0  0  0  0  0  0  0
   -2.6350   19.8880  -28.7770 H   0  0  0  0  0  0  0  0  0  0  0  0
   -2.0745   21.2836  -26.3649 H   0  0  0  0  0  0  0  0  0  0  0  0
   -1.3338   22.0555  -27.8369 H   0  0  0  0  0  0  0  0  0  0  0  0
   -4.0385   22.2202  -26.9420 H   0  0  0  0  0  0  0  0  0  0  0  0
   -3.3146   22.8839  -28.4460 H   0  0  0  0  0  0  0  0  0  0  0  0
   -4.0343   21.2381  -28.4460 H   0  0  0  0  0  0  0  0  0  0  0  0
   -0.2854   21.0555  -28.9934 H   0  0  0  0  0  0  0  0  0  0  0  0
    0.1027   19.4233  -28.2537 H   0  0  0  0  0  0  0  0  0  0  0  0
    0.1052   19.6671  -30.8602 H   0  0  0  0  0  0  0  0  0  0  0  0
   -0.6768   18.2453  -30.1010 H   0  0  0  0  0  0  0  0  0  0  0  0
   -1.3113   21.5729  -31.3892 H   0  0  0  0  0  0  0  0  0  0  0  0
   -1.0868   20.2546  -32.5923 H   0  0  0  0  0  0  0  0  0  0  0  0
   -3.1835   22.1200  -32.5326 H   0  0  0  0  0  0  0  0  0  0  0  0
   -3.1299   20.5657  -33.4691 H   0  0  0  0  0  0  0  0  0  0  0  0
   -4.1470   19.5780  -31.2330 H   0  0  0  0  0  0  0  0  0  0  0  0
   -3.4523   22.6167  -30.7007 H   0  0  0  0  0  0  0  0  0  0  0  0
   -3.5450   24.9869  -29.9608 H   0  0  0  0  0  0  0  0  0  0  0  0
   -5.6977   26.2340  -30.0279 H   0  0  0  0  0  0  0  0  0  0  0  0
   -7.7621   25.1190  -30.8426 H   0  0  0  0  0  0  0  0  0  0  0  0
   -9.6172   23.7133  -31.1616 H   0  0  0  0  0  0  0  0  0  0  0  0
   -8.8309   24.2702  -32.6776 H   0  0  0  0  0  0  0  0  0  0  0  0
   -9.8212   22.7715  -32.6776 H   0  0  0  0  0  0  0  0  0  0  0  0
  -10.1072   21.0667  -31.9521 H   0  0  0  0  0  0  0  0  0  0  0  0
  -10.1440   18.6060  -32.2103 H   0  0  0  0  0  0  0  0  0  0  0  0
   -8.0298   17.3305  -32.3778 H   0  0  0  0  0  0  0  0  0  0  0  0
   -4.3992   16.8964  -31.4573 H   0  0  0  0  0  0  0  0  0  0  0  0
   -6.2255   16.6600  -31.4202 H   0  0  0  0  0  0  0  0  0  0  0  0
   -5.3683   14.9790  -32.8260 H   0  0  0  0  0  0  0  0  0  0  0  0
   -6.0906   16.3423  -33.8824 H   0  0  0  0  0  0  0  0  0  0  0  0
   -3.8720   13.9109  -34.1291 H   0  0  0  0  0  0  0  0  0  0  0  0
   -4.8345   14.6037  -35.4783 H   0  0  0  0  0  0  0  0  0  0  0  0
   -3.0451   14.7610  -35.4783 H   0  0  0  0  0  0  0  0  0  0  0  0
   -3.1391   16.6771  -32.2953 H   0  0  0  0  0  0  0  0  0  0  0  0
   -2.5283   15.0986  -32.9800 H   0  0  0  0  0  0  0  0  0  0  0  0
   -0.8108   16.8463  -33.1558 H   0  0  0  0  0  0  0  0  0  0  0  0
   -1.3908   16.3193  -34.7819 H   0  0  0  0  0  0  0  0  0  0  0  0
   -1.7804   18.9403  -33.3423 H   0  0  0  0  0  0  0  0  0  0  0  0
   -1.4566   18.5854  -35.0962 H   0  0  0  0  0  0  0  0  0  0  0  0
   -4.0647   18.7290  -33.6066 H   0  0  0  0  0  0  0  0  0  0  0  0
   -3.6353   19.2590  -35.2778 H   0  0  0  0  0  0  0  0  0  0  0  0
   -5.1453   17.3367  -35.3846 H   0  0  0  0  0  0  0  0  0  0  0  0
   -3.4803   16.8718  -35.9563 H   0  0  0  0  0  0  0  0  0  0  0  0
  1  2  1  0
  2  3  1  0
  3  4  1  0
  4  5  1  0
  3  6  1  0
  6  7  1  0
  7  8  1  0
  8  9  1  0
  9 10  1  0
 10 11  1  0
 11 12  1  0
 12 13  2  0
 13 14  1  0
 14 15  2  0
 15 16  1  0
 16 17  2  0
 17 18  1  0
 18 19  2  0
 19 20  1  0
 19 21  1  0
 21 22  2  0
 22 23  1  0
 23 24  2  0
 24 25  1  0
 25 26  1  0
 26 27  1  0
 27 28  1  0
 28 29  1  0
 29 30  1  0
 29 31  1  0
 31 32  1  0
 32 33  1  0
 33 34  1  0
 34 35  1  0
 25 36  2  0
 36 12  1  0
 18 13  1  0
 36 21  1  0
 35 29  1  0
  1 37  1  0
  1 38  1  0
  1 39  1  0
  2 40  1  0
  2 41  1  0
  3 42  1  0
  4 43  1  0
  4 44  1  0
  5 45  1  0
  5 46  1  0
  5 47  1  0
  6 48  1  0
  6 49  1  0
  7 50  1  0
  7 51  1  0
  9 52  1  0
  9 53  1  0
 10 54  1  0
 10 55  1  0
 11 56  1  0
 14 57  1  0
 15 58  1  0
 16 59  1  0
 17 60  1  0
 20 61  1  0
 20 62  1  0
 20 63  1  0
 22 64  1  0
 23 65  1  0
 24 66  1  0
 27 67  1  0
 27 68  1  0
 28 69  1  0
 28 70  1  0
 30 71  1  0
 30 72  1  0
 30 73  1  0
 31 74  1  0
 31 75  1  0
 32 76  1  0
 32 77  1  0
 33 78  1  0
 33 79  1  0
 34 80  1  0
 34 81  1  0
 35 82  1  0
 35 83  1  0
M  CHG  3   3   1  19   1  29   1
M  END
>  <UniqueID>  (17) 
17

>  <SMILES>  (17) 
CC[NH+](CC)CCOCCNc1c2ccccc2[n+](C)c2cccc(OCC[N+]3(C)CCCCC3)c12

>  <Energy>  (17) 
135.78195068212585

>  <Genealogy>  (17) 
CC[NH+](CC)CCOCCNc1c2ccccc2[n+](C)c2cccc(OCC[N+]3(C)CCCCC3)c12 (protonated)
CC[NH+](CC)CCOCCNc1c2ccccc2[n+](C)c2cccc(OCC[N+]3(C)CCCCC3)c12 (3D coordinates assigned)
CC[NH+](CC)CCOCCNc1c2ccccc2[n+](C)c2cccc(OCC[N+]3(C)CCCCC3)c12 (nonaromatic ring conformer: 135.78195068212585 kcal/mol)

>  <smiles>  (17) 
CCN(CC)CCOCCNc1c2ccccc2[n+](C)c2cccc(OCC[N+]3(C)CCCCC3)c12

>  <score_type>  (17) 
oracle

>  <origin>  (17) 
adg

>  <m_score__min__energy>  (17) 
-7.0499999999999998

>  <m_primary>  (17) 
energy

$$$$
17:0
     RDKit          3D

 70 73  0  0  0  0  0  0  0  0999 V2000
   -3.1090   21.0970  -28.2670 C   0  0  0  0  0  0  0  0  0  0  0  0
   -1.7870   20.4940  -28.0220 N   0  0  0  0  0  0  0  0  0  0  0  0
   -1.9370   19.3500  -27.1060 C   0  0  0  0  0  0  0  0  0  0  0  0
   -1.1770   20.0730  -29.3030 C   0  0  0  0  0  0  0  0  0  0  0  0
   -1.4310   21.1180  -30.4040 C   0  0  0  0  0  0  0  0  0  0  0  0
   -1.8420   20.4700  -31.7340 C   0  0  0  0  0  0  0  0  0  0  0  0
   -2.7660   21.3280  -32.4810 N   0  0  0  0  0  0  0  0  0  0  0  0
   -4.1240   21.5460  -32.0520 C   0  0  0  0  0  0  0  0  0  0  0  0
   -5.1450   20.6590  -32.4420 C   0  0  0  0  0  0  0  0  0  0  0  0
   -4.8790   19.5930  -33.3300 C   0  0  0  0  0  0  0  0  0  0  0  0
   -5.8730   18.6770  -33.6610 C   0  0  0  0  0  0  0  0  0  0  0  0
   -7.1450   18.8030  -33.1140 C   0  0  0  0  0  0  0  0  0  0  0  0
   -7.4420   19.8700  -32.2680 C   0  0  0  0  0  0  0  0  0  0  0  0
   -6.4650   20.8480  -31.9500 C   0  0  0  0  0  0  0  0  0  0  0  0
   -6.7660   21.9530  -31.1750 N   0  0  0  0  0  0  0  0  0  0  0  0
   -8.1800   22.2970  -30.8980 C   0  0  0  0  0  0  0  0  0  0  0  0
   -5.7520   22.7580  -30.6920 C   0  0  0  0  0  0  0  0  0  0  0  0
   -5.9880   23.7300  -29.6900 C   0  0  0  0  0  0  0  0  0  0  0  0
   -4.9690   24.5700  -29.2420 C   0  0  0  0  0  0  0  0  0  0  0  0
   -3.6780   24.4640  -29.7720 C   0  0  0  0  0  0  0  0  0  0  0  0
   -2.6180   25.2920  -29.3640 O   0  0  0  0  0  0  0  0  0  0  0  0
   -1.3550   24.8350  -28.8740 C   0  0  0  0  0  0  0  0  0  0  0  0
   -1.0230   25.5460  -27.5420 C   0  0  0  0  0  0  0  0  0  0  0  0
   -1.5040   24.8540  -26.3030 N   0  0  0  0  0  0  0  0  0  0  0  0
   -2.8760   25.3210  -25.9710 C   0  0  0  0  0  0  0  0  0  0  0  0
   -0.5840   25.1280  -25.1530 C   0  0  0  0  0  0  0  0  0  0  0  0
   -0.4800   23.9240  -24.1980 C   0  0  0  0  0  0  0  0  0  0  0  0
    0.0650   22.7710  -24.8200 O   0  0  0  0  0  0  0  0  0  0  0  0
   -0.2640   22.6600  -26.2000 C   0  0  0  0  0  0  0  0  0  0  0  0
   -1.5710   23.3810  -26.5850 C   0  0  0  0  0  0  0  0  0  0  0  0
   -3.4190   23.4920  -30.7370 C   0  0  0  0  0  0  0  0  0  0  0  0
   -4.4260   22.6060  -31.1770 C   0  0  0  0  0  0  0  0  0  0  0  0
   -3.5948   21.3186  -27.3053 H   0  0  0  0  0  0  0  0  0  0  0  0
   -2.9868   22.0284  -28.8393 H   0  0  0  0  0  0  0  0  0  0  0  0
   -3.7322   20.3941  -28.8393 H   0  0  0  0  0  0  0  0  0  0  0  0
   -1.8905   19.7046  -26.0658 H   0  0  0  0  0  0  0  0  0  0  0  0
   -2.9068   18.8623  -27.2841 H   0  0  0  0  0  0  0  0  0  0  0  0
   -1.1257   18.6288  -27.2841 H   0  0  0  0  0  0  0  0  0  0  0  0
   -0.0924   19.9540  -29.1631 H   0  0  0  0  0  0  0  0  0  0  0  0
   -1.6322   19.1204  -29.6119 H   0  0  0  0  0  0  0  0  0  0  0  0
   -2.2357   21.7916  -30.0744 H   0  0  0  0  0  0  0  0  0  0  0  0
   -0.4929   21.6675  -30.5714 H   0  0  0  0  0  0  0  0  0  0  0  0
   -0.9417   20.2980  -32.3421 H   0  0  0  0  0  0  0  0  0  0  0  0
   -2.3508   19.5197  -31.5147 H   0  0  0  0  0  0  0  0  0  0  0  0
   -2.3620   21.9730  -33.1970 H   0  0  0  0  0  0  0  0  0  0  0  0
   -3.8744   19.4857  -33.7649 H   0  0  0  0  0  0  0  0  0  0  0  0
   -5.6523   17.8531  -34.3556 H   0  0  0  0  0  0  0  0  0  0  0  0
   -7.9194   18.0582  -33.3497 H   0  0  0  0  0  0  0  0  0  0  0  0
   -8.4515   19.9552  -31.8395 H   0  0  0  0  0  0  0  0  0  0  0  0
   -8.3416   22.3363  -29.8106 H   0  0  0  0  0  0  0  0  0  0  0  0
   -8.4119   23.2778  -31.3388 H   0  0  0  0  0  0  0  0  0  0  0  0
   -8.8365   21.5324  -31.3388 H   0  0  0  0  0  0  0  0  0  0  0  0
   -6.9946   23.8244  -29.2565 H   0  0  0  0  0  0  0  0  0  0  0  0
   -5.1813   25.3210  -28.4668 H   0  0  0  0  0  0  0  0  0  0  0  0
   -1.3992   23.7486  -28.7072 H   0  0  0  0  0  0  0  0  0  0  0  0
   -0.5735   25.0644  -29.6133 H   0  0  0  0  0  0  0  0  0  0  0  0
    0.0706   25.6427  -27.4731 H   0  0  0  0  0  0  0  0  0  0  0  0
   -1.5527   26.5095  -27.5742 H   0  0  0  0  0  0  0  0  0  0  0  0
   -2.9951   25.3615  -24.8782 H   0  0  0  0  0  0  0  0  0  0  0  0
   -3.0346   26.3237  -26.3946 H   0  0  0  0  0  0  0  0  0  0  0  0
   -3.6134   24.6232  -26.3946 H   0  0  0  0  0  0  0  0  0  0  0  0
    0.4175   25.3571  -25.5461 H   0  0  0  0  0  0  0  0  0  0  0  0
   -0.9925   25.9774  -24.5858 H   0  0  0  0  0  0  0  0  0  0  0  0
    0.1635   24.2028  -23.3505 H   0  0  0  0  0  0  0  0  0  0  0  0
   -1.5000   23.6722  -23.8722 H   0  0  0  0  0  0  0  0  0  0  0  0
    0.5580   23.0929  -26.7890 H   0  0  0  0  0  0  0  0  0  0  0  0
   -0.4127   21.5906  -26.4102 H   0  0  0  0  0  0  0  0  0  0  0  0
   -1.7552   23.2330  -27.6593 H   0  0  0  0  0  0  0  0  0  0  0  0
   -2.3851   22.9556  -25.9797 H   0  0  0  0  0  0  0  0  0  0  0  0
   -2.4086   23.4137  -31.1647 H   0  0  0  0  0  0  0  0  0  0  0  0
  1  2  1  0
  2  3  1  0
  2  4  1  0
  4  5  1  0
  5  6  1  0
  6  7  1  0
  7  8  1  0
  8  9  2  0
  9 10  1  0
 10 11  2  0
 11 12  1  0
 12 13  2  0
 13 14  1  0
 14 15  2  0
 15 16  1  0
 15 17  1  0
 17 18  2  0
 18 19  1  0
 19 20  2  0
 20 21  1  0
 21 22  1  0
 22 23  1  0
 23 24  1  0
 24 25  1  0
 24 26  1  0
 26 27  1  0
 27 28  1  0
 28 29  1  0
 29 30  1  0
 20 31  1  0
 31 32  2  0
 32  8  1  0
 14  9  1  0
 32 17  1  0
 30 24  1  0
  1 33  1  0
  1 34  1  0
  1 35  1  0
  3 36  1  0
  3 37  1  0
  3 38  1  0
  4 39  1  0
  4 40  1  0
  5 41  1  0
  5 42  1  0
  6 43  1  0
  6 44  1  0
  7 45  1  0
 10 46  1  0
 11 47  1  0
 12 48  1  0
 13 49  1  0
 16 50  1  0
 16 51  1  0
 16 52  1  0
 18 53  1  0
 19 54  1  0
 22 55  1  0
 22 56  1  0
 23 57  1  0
 23 58  1  0
 25 59  1  0
 25 60  1  0
 25 61  1  0
 26 62  1  0
 26 63  1  0
 27 64  1  0
 27 65  1  0
 29 66  1  0
 29 67  1  0
 30 68  1  0
 30 69  1  0
 31 70  1  0
M  CHG  2  15   1  24   1
M  END
>  <UniqueID>  (18) 
18

>  <SMILES>  (18) 
CN(C)CCCNc1c2ccccc2[n+](C)c2ccc(OCC[N+]3(C)CCOCC3)cc12

>  <Energy>  (18) 
115.34536411906447

>  <Genealogy>  (18) 
CN(C)CCCNc1c2ccccc2[n+](C)c2ccc(OCC[N+]3(C)CCOCC3)cc12 (3D coordinates assigned)
CN(C)CCCNc1c2ccccc2[n+](C)c2ccc(OCC[N+]3(C)CCOCC3)cc12 (nonaromatic ring conformer: 115.34536411906447 kcal/mol)

>  <smiles>  (18) 
CN(C)CCCNc1c2ccccc2[n+](C)c2ccc(OCC[N+]3(C)CCOCC3)cc12

>  <score_type>  (18) 
oracle

>  <origin>  (18) 
adg

>  <m_score__min__energy>  (18) 
-8.4900000000000002

>  <m_primary>  (18) 
energy

$$$$
18:0
     RDKit          3D

 50 52  0  0  0  0  0  0  0  0999 V2000
   -1.3190   21.6860  -31.0110 C   0  0  0  0  0  0  0  0  0  0  0  0
   -1.4900   20.1780  -31.1560 C   0  0  0  0  0  0  0  0  0  0  0  0
   -2.2920   19.8650  -32.3610 N   0  0  0  0  0  0  0  0  0  0  0  0
   -1.8480   18.6000  -32.9960 C   0  0  0  0  0  0  0  0  0  0  0  0
   -2.7060   18.2350  -34.2070 C   0  0  0  0  0  0  0  0  0  0  0  0
   -2.3750   21.0170  -33.2930 C   0  0  0  0  0  0  0  0  0  0  0  0
   -3.8010   21.5790  -33.4740 C   0  0  0  0  0  0  0  0  0  0  0  0
   -4.7660   20.7970  -32.6880 N   0  0  0  0  0  0  0  0  0  0  0  0
   -5.7970   21.6620  -32.1660 C   0  0  0  0  0  0  0  0  0  0  0  0
   -7.1740   21.4370  -32.3490 C   0  0  0  0  0  0  0  0  0  0  0  0
   -7.8190   20.2620  -33.0280 C   0  0  0  0  0  0  0  0  0  0  0  0
   -7.0280   19.0020  -32.7910 C   0  0  0  0  0  0  0  0  0  0  0  0
   -6.4740   18.2920  -33.8710 C   0  0  0  0  0  0  0  0  0  0  0  0
   -5.7370   17.1260  -33.6440 C   0  0  0  0  0  0  0  0  0  0  0  0
   -5.5510   16.6560  -32.3410 C   0  0  0  0  0  0  0  0  0  0  0  0
   -6.1050   17.3510  -31.2620 C   0  0  0  0  0  0  0  0  0  0  0  0
   -6.8430   18.5170  -31.4850 C   0  0  0  0  0  0  0  0  0  0  0  0
   -8.0400   22.6970  -31.6260 S   0  0  0  0  0  0  0  0  0  0  0  0
   -6.6890   23.5430  -31.1080 C   0  0  0  0  0  0  0  0  0  0  0  0
   -6.6440   24.7510  -30.4200 C   0  0  0  0  0  0  0  0  0  0  0  0
   -5.3810   25.2730  -30.1120 C   0  0  0  0  0  0  0  0  0  0  0  0
   -4.2490   24.6050  -30.4850 N   0  0  0  0  0  0  0  0  0  0  0  0
   -4.2940   23.4190  -31.1600 C   0  0  0  0  0  0  0  0  0  0  0  0
   -5.5390   22.8660  -31.4800 C   0  0  0  0  0  0  0  0  0  0  0  0
   -1.2890   21.9507  -29.9437 H   0  0  0  0  0  0  0  0  0  0  0  0
   -0.3799   21.9965  -31.4923 H   0  0  0  0  0  0  0  0  0  0  0  0
   -2.1647   22.1989  -31.4923 H   0  0  0  0  0  0  0  0  0  0  0  0
   -0.4998   19.7076  -31.2469 H   0  0  0  0  0  0  0  0  0  0  0  0
   -2.0115   19.7901  -30.2685 H   0  0  0  0  0  0  0  0  0  0  0  0
   -0.8036   18.7139  -33.3221 H   0  0  0  0  0  0  0  0  0  0  0  0
   -1.9477   17.7942  -32.2539 H   0  0  0  0  0  0  0  0  0  0  0  0
   -3.6680   17.8258  -33.8648 H   0  0  0  0  0  0  0  0  0  0  0  0
   -2.8853   19.1347  -34.8139 H   0  0  0  0  0  0  0  0  0  0  0  0
   -2.1822   17.4818  -34.8139 H   0  0  0  0  0  0  0  0  0  0  0  0
   -1.7330   21.8218  -32.9056 H   0  0  0  0  0  0  0  0  0  0  0  0
   -2.0502   20.6520  -34.2785 H   0  0  0  0  0  0  0  0  0  0  0  0
   -3.8231   22.6258  -33.1367 H   0  0  0  0  0  0  0  0  0  0  0  0
   -4.0754   21.5175  -34.5375 H   0  0  0  0  0  0  0  0  0  0  0  0
   -4.2800   20.3140  -31.8990 H   0  0  0  0  0  0  0  0  0  0  0  0
   -5.1930   20.0570  -33.2880 H   0  0  0  0  0  0  0  0  0  0  0  0
   -8.8355   20.1292  -32.6291 H   0  0  0  0  0  0  0  0  0  0  0  0
   -7.8527   20.4570  -34.1101 H   0  0  0  0  0  0  0  0  0  0  0  0
   -6.6212   18.6556  -34.8987 H   0  0  0  0  0  0  0  0  0  0  0  0
   -5.3026   16.5773  -34.4927 H   0  0  0  0  0  0  0  0  0  0  0  0
   -4.9689   15.7395  -32.1646 H   0  0  0  0  0  0  0  0  0  0  0  0
   -5.9601   16.9800  -30.2366 H   0  0  0  0  0  0  0  0  0  0  0  0
   -7.2814   19.0580  -30.6335 H   0  0  0  0  0  0  0  0  0  0  0  0
   -7.5654   25.2766  -30.1287 H   0  0  0  0  0  0  0  0  0  0  0  0
   -5.3003   26.2252  -29.5673 H   0  0  0  0  0  0  0  0  0  0  0  0
   -3.3649   22.9055  -31.4482 H   0  0  0  0  0  0  0  0  0  0  0  0
  1  2  1  0
  2  3  1  0
  3  4  1  0
  4  5  1  0
  3  6  1  0
  6  7  1  0
  7  8  1  0
  8  9  1  0
  9 10  2  0
 10 11  1  0
 11 12  1  0
 12 13  2  0
 13 14  1  0
 14 15  2  0
 15 16  1  0
 16 17  2  0
 10 18  1  0
 18 19  1  0
 19 20  2  0
 20 21  1  0
 21 22  2  0
 22 23  1  0
 23 24  2  0
 24  9  1  0
 17 12  1  0
 24 19  1  0
  1 25  1  0
  1 26  1  0
  1 27  1  0
  2 28  1  0
  2 29  1  0
  4 30  1  0
  4 31  1  0
  5 32  1  0
  5 33  1  0
  5 34  1  0
  6 35  1  0
  6 36  1  0
  7 37  1  0
  7 38  1  0
  8 39  1  0
  8 40  1  0
 11 41  1  0
 11 42  1  0
 13 43  1  0
 14 44  1  0
 15 45  1  0
 16 46  1  0
 17 47  1  0
 20 48  1  0
 21 49  1  0
 23 50  1  0
M  CHG  1   8   1
M  END
>  <UniqueID>  (19) 
19

>  <SMILES>  (19) 
CCN(CC)CC[NH2+]c1c(Cc2ccccc2)sc2ccncc12

>  <Energy>  (19) 
82.16124120796891

>  <Genealogy>  (19) 
CCN(CC)CC[NH2+]c1c(Cc2ccccc2)sc2ccncc12 (protonated)
CCN(CC)CC[NH2+]c1c(Cc2ccccc2)sc2ccncc12 (3D coordinates assigned)
CCN(CC)CC[NH2+]c1c(Cc2ccccc2)sc2ccncc12 (optimized conformer: 82.16124120796891 kcal/mol)

>  <smiles>  (19) 
CCN(CC)CCNc1c(Cc2ccccc2)sc2ccncc12

>  <score_type>  (19) 
oracle

>  <origin>  (19) 
adg

>  <m_score__min__energy>  (19) 
-7.6399999999999997

>  <m_primary>  (19) 
energy

$$$$
19:0
     RDKit          3D

 66 69  0  0  0  0  0  0  0  0999 V2000
   -6.5100   25.2790  -29.7100 C   0  0  0  0  0  0  0  0  0  0  0  0
   -5.3500   25.9160  -30.4670 C   0  0  0  0  0  0  0  0  0  0  0  0
   -4.2790   24.9310  -30.6680 N   0  0  0  0  0  0  0  0  0  0  0  0
   -4.8230   23.5820  -30.8860 C   0  0  0  0  0  0  0  0  0  0  0  0
   -3.8090   22.7050  -31.6260 C   0  0  0  0  0  0  0  0  0  0  0  0
   -4.3820   22.1880  -32.8660 N   0  0  0  0  0  0  0  0  0  0  0  0
   -4.6800   20.7960  -33.0000 C   0  0  0  0  0  0  0  0  0  0  0  0
   -5.9720   20.2900  -32.7400 C   0  0  0  0  0  0  0  0  0  0  0  0
   -7.0160   21.1550  -32.3620 C   0  0  0  0  0  0  0  0  0  0  0  0
   -8.3000   20.6640  -32.1420 C   0  0  0  0  0  0  0  0  0  0  0  0
   -8.5680   19.3070  -32.3020 C   0  0  0  0  0  0  0  0  0  0  0  0
   -7.5520   18.4240  -32.6710 C   0  0  0  0  0  0  0  0  0  0  0  0
   -6.2280   18.8820  -32.8810 C   0  0  0  0  0  0  0  0  0  0  0  0
   -5.2020   18.0140  -33.2290 N   0  0  0  0  0  0  0  0  0  0  0  0
   -5.4220   16.5570  -33.2910 C   0  0  0  0  0  0  0  0  0  0  0  0
   -3.9760   18.5460  -33.5360 C   0  0  0  0  0  0  0  0  0  0  0  0
   -2.8910   17.8740  -34.0010 N   0  0  0  0  0  0  0  0  0  0  0  0
   -1.9420   18.8150  -34.1740 C   0  0  0  0  0  0  0  0  0  0  0  0
   -0.6500   18.6180  -34.6560 C   0  0  0  0  0  0  0  0  0  0  0  0
    0.1860   19.7390  -34.7900 C   0  0  0  0  0  0  0  0  0  0  0  0
   -0.2820   21.0390  -34.4480 C   0  0  0  0  0  0  0  0  0  0  0  0
    0.5160   22.1890  -34.5720 O   0  0  0  0  0  0  0  0  0  0  0  0
    1.0010   22.7350  -35.7990 C   0  0  0  0  0  0  0  0  0  0  0  0
    0.3140   24.0880  -36.0890 C   0  0  0  0  0  0  0  0  0  0  0  0
    1.2280   25.2690  -36.1500 N   0  0  0  0  0  0  0  0  0  0  0  0
    0.5990   26.3720  -35.3840 C   0  0  0  0  0  0  0  0  0  0  0  0
    2.5420   24.9630  -35.5330 C   0  0  0  0  0  0  0  0  0  0  0  0
    1.4270   25.7260  -37.5470 C   0  0  0  0  0  0  0  0  0  0  0  0
   -1.5970   21.2010  -33.9740 C   0  0  0  0  0  0  0  0  0  0  0  0
   -2.4010   20.0670  -33.8370 C   0  0  0  0  0  0  0  0  0  0  0  0
   -3.7100   19.8960  -33.4260 C   0  0  0  0  0  0  0  0  0  0  0  0
   -6.3376   25.3737  -28.6277 H   0  0  0  0  0  0  0  0  0  0  0  0
   -7.4470   25.7891  -29.9781 H   0  0  0  0  0  0  0  0  0  0  0  0
   -6.5823   24.2146  -29.9781 H   0  0  0  0  0  0  0  0  0  0  0  0
   -5.7054   26.2722  -31.4452 H   0  0  0  0  0  0  0  0  0  0  0  0
   -4.9579   26.7609  -29.8818 H   0  0  0  0  0  0  0  0  0  0  0  0
   -3.7580   25.2050  -31.5350 H   0  0  0  0  0  0  0  0  0  0  0  0
   -5.0549   23.1241  -29.9131 H   0  0  0  0  0  0  0  0  0  0  0  0
   -5.7348   23.6617  -31.4961 H   0  0  0  0  0  0  0  0  0  0  0  0
   -2.9176   23.3046  -31.8625 H   0  0  0  0  0  0  0  0  0  0  0  0
   -3.5378   21.8564  -30.9808 H   0  0  0  0  0  0  0  0  0  0  0  0
   -4.6040   22.8240  -33.6650 H   0  0  0  0  0  0  0  0  0  0  0  0
   -6.8154   22.2296  -32.2392 H   0  0  0  0  0  0  0  0  0  0  0  0
   -9.1053   21.3502  -31.8408 H   0  0  0  0  0  0  0  0  0  0  0  0
   -9.5874   18.9283  -32.1364 H   0  0  0  0  0  0  0  0  0  0  0  0
   -7.7828   17.3563  -32.8007 H   0  0  0  0  0  0  0  0  0  0  0  0
   -5.4832   16.1517  -32.2702 H   0  0  0  0  0  0  0  0  0  0  0  0
   -6.3615   16.3504  -33.8245 H   0  0  0  0  0  0  0  0  0  0  0  0
   -4.5854   16.0822  -33.8245 H   0  0  0  0  0  0  0  0  0  0  0  0
   -2.7890   16.8610  -34.2290 H   0  0  0  0  0  0  0  0  0  0  0  0
   -0.2941   17.6123  -34.9243 H   0  0  0  0  0  0  0  0  0  0  0  0
    1.2128   19.6108  -35.1631 H   0  0  0  0  0  0  0  0  0  0  0  0
    2.0878   22.8879  -35.7243 H   0  0  0  0  0  0  0  0  0  0  0  0
    0.7757   22.0352  -36.6173 H   0  0  0  0  0  0  0  0  0  0  0  0
   -0.2011   24.0067  -37.0575 H   0  0  0  0  0  0  0  0  0  0  0  0
   -0.3642   24.2720  -35.2427 H   0  0  0  0  0  0  0  0  0  0  0  0
    0.7089   26.1794  -34.3066 H   0  0  0  0  0  0  0  0  0  0  0  0
    1.0910   27.3223  -35.6386 H   0  0  0  0  0  0  0  0  0  0  0  0
   -0.4694   26.4325  -35.6386 H   0  0  0  0  0  0  0  0  0  0  0  0
    2.4467   24.9852  -34.4374 H   0  0  0  0  0  0  0  0  0  0  0  0
    2.8731   23.9637  -35.8521 H   0  0  0  0  0  0  0  0  0  0  0  0
    3.2805   25.7132  -35.8521 H   0  0  0  0  0  0  0  0  0  0  0  0
    1.8662   26.7345  -37.5438 H   0  0  0  0  0  0  0  0  0  0  0  0
    2.1047   25.0326  -38.0666 H   0  0  0  0  0  0  0  0  0  0  0  0
    0.4577   25.7498  -38.0666 H   0  0  0  0  0  0  0  0  0  0  0  0
   -1.9832   22.1984  -33.7171 H   0  0  0  0  0  0  0  0  0  0  0  0
  1  2  1  0
  2  3  1  0
  3  4  1  0
  4  5  1  0
  5  6  1  0
  6  7  1  0
  7  8  2  0
  8  9  1  0
  9 10  2  0
 10 11  1  0
 11 12  2  0
 12 13  1  0
 13 14  2  0
 14 15  1  0
 14 16  1  0
 16 17  1  0
 17 18  1  0
 18 19  2  0
 19 20  1  0
 20 21  2  0
 21 22  1  0
 22 23  1  0
 23 24  1  0
 24 25  1  0
 25 26  1  0
 25 27  1  0
 25 28  1  0
 21 29  1  0
 29 30  2  0
 30 31  1  0
 31  7  1  0
 13  8  1  0
 31 16  2  0
 30 18  1  0
  1 32  1  0
  1 33  1  0
  1 34  1  0
  2 35  1  0
  2 36  1  0
  3 37  1  0
  4 38  1  0
  4 39  1  0
  5 40  1  0
  5 41  1  0
  6 42  1  0
  9 43  1  0
 10 44  1  0
 11 45  1  0
 12 46  1  0
 15 47  1  0
 15 48  1  0
 15 49  1  0
 17 50  1  0
 19 51  1  0
 20 52  1  0
 23 53  1  0
 23 54  1  0
 24 55  1  0
 24 56  1  0
 26 57  1  0
 26 58  1  0
 26 59  1  0
 27 60  1  0
 27 61  1  0
 27 62  1  0
 28 63  1  0
 28 64  1  0
 28 65  1  0
 29 66  1  0
M  CHG  2  14   1  25   1
M  END
>  <UniqueID>  (20) 
20

>  <SMILES>  (20) 
CCNCCNc1c2ccccc2[n+](C)c2[nH]c3ccc(OCC[N+](C)(C)C)cc3c12

>  <Energy>  (20) 
126.0346826188163

>  <Genealogy>  (20) 
CCNCCNc1c2ccccc2[n+](C)c2[nH]c3ccc(OCC[N+](C)(C)C)cc3c12 (3D coordinates assigned)
CCNCCNc1c2ccccc2[n+](C)c2[nH]c3ccc(OCC[N+](C)(C)C)cc3c12 (optimized conformer: 126.0346826188163 kcal/mol)

>  <smiles>  (20) 
CCNCCNc1c2ccccc2[n+](C)c2[nH]c3ccc(OCC[N+](C)(C)C)cc3c12

>  <score_type>  (20) 
oracle

>  <origin>  (20) 
adg

>  <m_score__min__energy>  (20) 
-8.2300000000000004

>  <m_primary>  (20) 
energy

$$$$
20:0
     RDKit          3D

 32 33  0  0  0  0  0  0  0  0999 V2000
   -9.4870   21.8320  -31.2460 C   0  0  0  0  0  0  0  0  0  0  0  0
   -7.9990   21.9500  -31.5880 C   0  0  1  0  0  0  0  0  0  0  0  0
   -7.5910   20.8380  -32.4610 C   0  0  0  0  0  0  0  0  0  0  0  0
   -7.2700   19.9620  -33.1460 N   0  0  0  0  0  0  0  0  0  0  0  0
   -7.6410   23.3070  -32.2250 C   0  0  0  0  0  0  0  0  0  0  0  0
   -6.7900   24.1230  -31.3510 N   0  0  0  0  0  0  0  0  0  0  0  0
   -5.4550   23.7900  -30.9170 C   0  0  0  0  0  0  0  0  0  0  0  0
   -4.9950   22.4780  -31.0960 C   0  0  0  0  0  0  0  0  0  0  0  0
   -3.7100   22.1040  -30.6960 C   0  0  0  0  0  0  0  0  0  0  0  0
   -2.8420   23.0400  -30.1000 C   0  0  0  0  0  0  0  0  0  0  0  0
   -1.5240   22.7110  -29.6790 C   0  0  0  0  0  0  0  0  0  0  0  0
   -0.9550   21.3140  -29.8440 C   0  0  0  0  0  0  0  0  0  0  0  0
    0.2570   21.1690  -29.1910 F   0  0  0  0  0  0  0  0  0  0  0  0
   -0.7510   21.0500  -31.1870 F   0  0  0  0  0  0  0  0  0  0  0  0
   -1.8360   20.3860  -29.3200 F   0  0  0  0  0  0  0  0  0  0  0  0
   -0.7350   23.7190  -29.0920 C   0  0  0  0  0  0  0  0  0  0  0  0
   -1.2440   25.0090  -28.9330 C   0  0  0  0  0  0  0  0  0  0  0  0
   -0.5360   25.9070  -28.4080 O   0  0  0  0  0  0  0  0  0  0  0  0
   -2.5030   25.2990  -29.3420 N   0  0  0  0  0  0  0  0  0  0  0  0
   -3.3070   24.3660  -29.9150 C   0  0  0  0  0  0  0  0  0  0  0  0
   -4.5980   24.7310  -30.3160 C   0  0  0  0  0  0  0  0  0  0  0  0
   -9.6124   21.8221  -30.1532 H   0  0  0  0  0  0  0  0  0  0  0  0
  -10.0297   22.6899  -31.6696 H   0  0  0  0  0  0  0  0  0  0  0  0
   -9.8877   20.8993  -31.6696 H   0  0  0  0  0  0  0  0  0  0  0  0
   -7.4408   21.8924  -30.6419 H   0  0  0  0  0  0  0  0  0  0  0  0
   -7.1073   23.1251  -33.1695 H   0  0  0  0  0  0  0  0  0  0  0  0
   -8.5779   23.8581  -32.3940 H   0  0  0  0  0  0  0  0  0  0  0  0
   -7.2270   24.9920  -30.9660 H   0  0  0  0  0  0  0  0  0  0  0  0
   -5.6566   21.7310  -31.5589 H   0  0  0  0  0  0  0  0  0  0  0  0
   -3.3724   21.0682  -30.8479 H   0  0  0  0  0  0  0  0  0  0  0  0
    0.2872   23.4887  -28.7572 H   0  0  0  0  0  0  0  0  0  0  0  0
   -4.9457   25.7629  -30.1599 H   0  0  0  0  0  0  0  0  0  0  0  0
  1  2  1  0
  2  3  1  0
  3  4  3  0
  2  5  1  0
  5  6  1  0
  6  7  1  0
  7  8  2  0
  8  9  1  0
  9 10  2  0
 10 11  1  0
 11 12  1  0
 12 13  1  0
 12 14  1  0
 12 15  1  0
 11 16  2  0
 16 17  1  0
 17 18  2  0
 17 19  1  0
 19 20  1  0
 20 21  2  0
 21  7  1  0
 20 10  1  0
  1 22  1  0
  1 23  1  0
  1 24  1  0
  2 25  1  1
  5 26  1  0
  5 27  1  0
  6 28  1  0
  8 29  1  0
  9 30  1  0
 16 31  1  0
 21 32  1  0
M  CHG  1  19  -1
M  END
>  <UniqueID>  (21) 
21

>  <SMILES>  (21) 
C[C@@H](C#N)CNc1ccc2c(C(F)(F)F)cc(=O)[n-]c2c1

>  <Energy>  (21) 
36.566417460026585

>  <Genealogy>  (21) 
CC(C#N)CNc1ccc2c(C(F)(F)F)cc(=O)[n-]c2c1 (protonated)
C[C@@H](C#N)CNc1ccc2c(C(F)(F)F)cc(=O)[n-]c2c1 (chirality)
C[C@@H](C#N)CNc1ccc2c(C(F)(F)F)cc(=O)[n-]c2c1 (3D coordinates assigned)
C[C@@H](C#N)CNc1ccc2c(C(F)(F)F)cc(=O)[n-]c2c1 (optimized conformer: 36.566417460026585 kcal/mol)

>  <smiles>  (21) 
CC(C#N)CNc1ccc2c(C(F)(F)F)cc(=O)[nH]c2c1

>  <score_type>  (21) 
oracle

>  <origin>  (21) 
adg

>  <m_score__min__energy>  (21) 
-7.8600000000000003

>  <m_primary>  (21) 
energy

$$$$
21:0
     RDKit          3D

 54 57  0  0  0  0  0  0  0  0999 V2000
   -1.8330   21.5020  -32.0730 C   0  0  0  0  0  0  0  0  0  0  0  0
   -2.4220   21.2090  -33.4510 C   0  0  0  0  0  0  0  0  0  0  0  0
   -3.9060   21.3420  -33.4510 C   0  0  0  0  0  0  0  0  0  0  0  0
   -4.6630   20.1420  -32.9570 C   0  0  0  0  0  0  0  0  0  0  0  0
   -5.8620   20.5900  -32.2920 N   0  0  0  0  0  0  0  0  0  0  0  0
   -7.0830   20.1200  -32.5990 C   0  0  0  0  0  0  0  0  0  0  0  0
   -7.2350   19.2300  -33.5040 O   0  0  0  0  0  0  0  0  0  0  0  0
   -8.1910   20.5700  -31.9620 N   0  0  0  0  0  0  0  0  0  0  0  0
   -9.4920   20.0230  -32.3370 C   0  0  0  0  0  0  0  0  0  0  0  0
   -8.1360   21.5060  -30.9910 C   0  0  0  0  0  0  0  0  0  0  0  0
   -9.1610   21.9160  -30.4090 O   0  0  0  0  0  0  0  0  0  0  0  0
   -6.8870   22.0050  -30.6590 C   0  0  0  0  0  0  0  0  0  0  0  0
   -6.4770   22.9280  -29.7560 N   0  0  0  0  0  0  0  0  0  0  0  0
   -5.1370   23.0390  -29.8410 C   0  0  0  0  0  0  0  0  0  0  0  0
   -4.2140   23.9130  -29.0650 C   0  0  0  0  0  0  0  0  0  0  0  0
   -3.9630   23.3730  -27.6710 C   0  0  0  0  0  0  0  0  0  0  0  0
   -3.3730   24.5560  -26.8910 C   0  0  0  0  0  0  0  0  0  0  0  0
   -2.1260   24.8970  -27.5850 N   0  0  0  0  0  0  0  0  0  0  0  0
   -1.2640   25.8900  -26.9920 C   0  0  0  0  0  0  0  0  0  0  0  0
   -0.1730   26.2040  -27.5780 O   0  0  0  0  0  0  0  0  0  0  0  0
   -1.6160   26.5500  -25.7230 C   0  0  0  0  0  0  0  0  0  0  0  0
   -0.6420   27.3610  -24.9720 C   0  0  0  0  0  0  0  0  0  0  0  0
   -0.9390   25.9570  -24.5020 C   0  0  0  0  0  0  0  0  0  0  0  0
   -1.7440   24.2770  -28.8270 C   0  0  0  0  0  0  0  0  0  0  0  0
   -2.9020   24.0330  -29.7700 C   0  0  0  0  0  0  0  0  0  0  0  0
   -4.7280   22.1700  -30.8120 N   0  0  0  0  0  0  0  0  0  0  0  0
   -5.7850   21.5230  -31.3270 C   0  0  0  0  0  0  0  0  0  0  0  0
   -2.5295   21.1555  -31.2953 H   0  0  0  0  0  0  0  0  0  0  0  0
   -0.8726   20.9766  -31.9655 H   0  0  0  0  0  0  0  0  0  0  0  0
   -1.6726   22.5849  -31.9655 H   0  0  0  0  0  0  0  0  0  0  0  0
   -1.9997   21.9182  -34.1782 H   0  0  0  0  0  0  0  0  0  0  0  0
   -2.1687   20.1732  -33.7210 H   0  0  0  0  0  0  0  0  0  0  0  0
   -4.1697   22.1964  -32.8103 H   0  0  0  0  0  0  0  0  0  0  0  0
   -4.1976   21.4706  -34.5038 H   0  0  0  0  0  0  0  0  0  0  0  0
   -4.9307   19.4979  -33.8076 H   0  0  0  0  0  0  0  0  0  0  0  0
   -4.0386   19.5690  -32.2557 H   0  0  0  0  0  0  0  0  0  0  0  0
  -10.0642   19.7824  -31.4288 H   0  0  0  0  0  0  0  0  0  0  0  0
  -10.0440   20.7652  -32.9323 H   0  0  0  0  0  0  0  0  0  0  0  0
   -9.3478   19.1093  -32.9323 H   0  0  0  0  0  0  0  0  0  0  0  0
   -7.0670   23.4720  -29.0980 H   0  0  0  0  0  0  0  0  0  0  0  0
   -4.6976   24.8974  -28.9814 H   0  0  0  0  0  0  0  0  0  0  0  0
   -4.9037   23.0364  -27.2109 H   0  0  0  0  0  0  0  0  0  0  0  0
   -3.2891   22.5037  -27.6782 H   0  0  0  0  0  0  0  0  0  0  0  0
   -4.0665   25.4097  -26.9039 H   0  0  0  0  0  0  0  0  0  0  0  0
   -3.1975   24.3031  -25.8350 H   0  0  0  0  0  0  0  0  0  0  0  0
   -2.6377   26.7689  -26.0669 H   0  0  0  0  0  0  0  0  0  0  0  0
    0.3363   27.5929  -25.4183 H   0  0  0  0  0  0  0  0  0  0  0  0
   -0.6667   28.3540  -24.4993 H   0  0  0  0  0  0  0  0  0  0  0  0
   -0.1863   25.1630  -24.6158 H   0  0  0  0  0  0  0  0  0  0  0  0
   -1.2742   25.4952  -23.5616 H   0  0  0  0  0  0  0  0  0  0  0  0
   -1.0176   24.9308  -29.3319 H   0  0  0  0  0  0  0  0  0  0  0  0
   -1.3220   23.2925  -28.5768 H   0  0  0  0  0  0  0  0  0  0  0  0
   -2.9602   24.8727  -30.4782 H   0  0  0  0  0  0  0  0  0  0  0  0
   -2.7144   23.0770  -30.2808 H   0  0  0  0  0  0  0  0  0  0  0  0
  1  2  1  0
  2  3  1  0
  3  4  1  0
  4  5  1  0
  5  6  1  0
  6  7  2  0
  6  8  1  0
  8  9  1  0
  8 10  1  0
 10 11  2  0
 10 12  1  0
 12 13  1  0
 13 14  1  0
 14 15  1  0
 15 16  1  0
 16 17  1  0
 17 18  1  0
 18 19  1  0
 19 20  2  0
 19 21  1  0
 21 22  1  0
 22 23  1  0
 18 24  1  0
 24 25  1  0
 14 26  2  0
 26 27  1  0
 27  5  1  0
 27 12  2  0
 25 15  1  0
 23 21  1  0
  1 28  1  0
  1 29  1  0
  1 30  1  0
  2 31  1  0
  2 32  1  0
  3 33  1  0
  3 34  1  0
  4 35  1  0
  4 36  1  0
  9 37  1  0
  9 38  1  0
  9 39  1  0
 13 40  1  0
 15 41  1  0
 16 42  1  0
 16 43  1  0
 17 44  1  0
 17 45  1  0
 21 46  1  0
 22 47  1  0
 22 48  1  0
 23 49  1  0
 23 50  1  0
 24 51  1  0
 24 52  1  0
 25 53  1  0
 25 54  1  0
M  END
>  <smiles>  (22) 
CCCCn1c(=O)n(C)c(=O)c2[nH]c(C3CCN(C(=O)C4CC4)CC3)nc21

>  <score_type>  (22) 
oracle

>  <origin>  (22) 
adg

>  <m_score__min__energy>  (22) 
-7.9699999999999998

>  <m_primary>  (22) 
energy

$$$$
22:0
     RDKit          3D

 61 64  0  0  0  0  0  0  0  0999 V2000
   -5.2650   25.3930  -30.4630 C   0  0  0  0  0  0  0  0  0  0  0  0
   -4.7370   24.5010  -29.3380 C   0  0  0  0  0  0  0  0  0  0  0  0
   -3.3110   24.1500  -29.5310 N   0  0  0  0  0  0  0  0  0  0  0  0
   -2.3790   24.8270  -28.5880 C   0  0  0  0  0  0  0  0  0  0  0  0
   -2.6990   24.6060  -27.1020 C   0  0  0  0  0  0  0  0  0  0  0  0
   -3.1050   22.6820  -29.6010 C   0  0  0  0  0  0  0  0  0  0  0  0
   -1.8170   22.3510  -30.3670 C   0  0  0  0  0  0  0  0  0  0  0  0
   -2.1120   21.9590  -31.6910 O   0  0  0  0  0  0  0  0  0  0  0  0
   -1.1150   21.0980  -32.2040 C   0  0  0  0  0  0  0  0  0  0  0  0
   -1.5850   20.5000  -33.5310 C   0  0  0  0  0  0  0  0  0  0  0  0
   -2.9580   20.9000  -33.8520 N   0  0  0  0  0  0  0  0  0  0  0  0
   -4.0930   20.1130  -33.4520 C   0  0  0  0  0  0  0  0  0  0  0  0
   -5.1610   20.7300  -32.7770 C   0  0  0  0  0  0  0  0  0  0  0  0
   -6.3550   20.0060  -32.5640 C   0  0  0  0  0  0  0  0  0  0  0  0
   -6.3560   18.6330  -32.7180 N   0  0  0  0  0  0  0  0  0  0  0  0
   -7.3210   17.8010  -31.9730 C   0  0  0  0  0  0  0  0  0  0  0  0
   -5.3490   18.0210  -33.4380 C   0  0  0  0  0  0  0  0  0  0  0  0
   -5.4360   16.6590  -33.8240 C   0  0  0  0  0  0  0  0  0  0  0  0
   -4.3950   16.0410  -34.5170 C   0  0  0  0  0  0  0  0  0  0  0  0
   -3.2450   16.7550  -34.8320 C   0  0  0  0  0  0  0  0  0  0  0  0
   -3.1360   18.0990  -34.4780 C   0  0  0  0  0  0  0  0  0  0  0  0
   -4.1920   18.7550  -33.8110 C   0  0  0  0  0  0  0  0  0  0  0  0
   -7.5870   20.8110  -32.2490 C   0  0  0  0  0  0  0  0  0  0  0  0
   -8.9310   20.3850  -32.3240 C   0  0  0  0  0  0  0  0  0  0  0  0
   -9.8570   21.4000  -32.1230 C   0  0  0  0  0  0  0  0  0  0  0  0
   -9.0330   22.8490  -31.9470 S   0  0  0  0  0  0  0  0  0  0  0  0
   -7.4950   22.1890  -32.0640 C   0  0  0  0  0  0  0  0  0  0  0  0
   -6.2610   22.9800  -32.3360 C   0  0  0  0  0  0  0  0  0  0  0  0
   -5.0090   22.1170  -32.1640 C   0  0  0  0  0  0  0  0  0  0  0  0
   -5.7801   26.2631  -30.0299 H   0  0  0  0  0  0  0  0  0  0  0  0
   -4.4244   25.7361  -31.0840 H   0  0  0  0  0  0  0  0  0  0  0  0
   -5.9702   24.8211  -31.0840 H   0  0  0  0  0  0  0  0  0  0  0  0
   -4.8453   25.0339  -28.3818 H   0  0  0  0  0  0  0  0  0  0  0  0
   -5.3200   23.5682  -29.3420 H   0  0  0  0  0  0  0  0  0  0  0  0
   -1.3635   24.4502  -28.7798 H   0  0  0  0  0  0  0  0  0  0  0  0
   -2.4809   25.9069  -28.7711 H   0  0  0  0  0  0  0  0  0  0  0  0
   -1.9498   25.1234  -26.4847 H   0  0  0  0  0  0  0  0  0  0  0  0
   -3.6986   25.0072  -26.8786 H   0  0  0  0  0  0  0  0  0  0  0  0
   -2.6778   23.5291  -26.8786 H   0  0  0  0  0  0  0  0  0  0  0  0
   -3.0319   22.2785  -28.5803 H   0  0  0  0  0  0  0  0  0  0  0  0
   -3.9571   22.2301  -30.1299 H   0  0  0  0  0  0  0  0  0  0  0  0
   -1.1709   23.2410  -30.3891 H   0  0  0  0  0  0  0  0  0  0  0  0
   -1.3052   21.5212  -29.8576 H   0  0  0  0  0  0  0  0  0  0  0  0
   -0.1883   21.6677  -32.3672 H   0  0  0  0  0  0  0  0  0  0  0  0
   -0.9277   20.2873  -31.4845 H   0  0  0  0  0  0  0  0  0  0  0  0
   -0.9167   20.8451  -34.3337 H   0  0  0  0  0  0  0  0  0  0  0  0
   -1.5604   19.4040  -33.4401 H   0  0  0  0  0  0  0  0  0  0  0  0
   -3.1170   21.7480  -34.4430 H   0  0  0  0  0  0  0  0  0  0  0  0
   -7.1643   17.9361  -30.8926 H   0  0  0  0  0  0  0  0  0  0  0  0
   -8.3454   18.1036  -32.2356 H   0  0  0  0  0  0  0  0  0  0  0  0
   -7.1725   16.7432  -32.2356 H   0  0  0  0  0  0  0  0  0  0  0  0
   -6.3379   16.0814  -33.5731 H   0  0  0  0  0  0  0  0  0  0  0  0
   -4.4845   14.9859  -34.8149 H   0  0  0  0  0  0  0  0  0  0  0  0
   -2.4188   16.2585  -35.3619 H   0  0  0  0  0  0  0  0  0  0  0  0
   -2.2176   18.6534  -34.7211 H   0  0  0  0  0  0  0  0  0  0  0  0
   -9.2188   19.3423  -32.5238 H   0  0  0  0  0  0  0  0  0  0  0  0
  -10.9491   21.2741  -32.0855 H   0  0  0  0  0  0  0  0  0  0  0  0
   -6.2972   23.3602  -33.3676 H   0  0  0  0  0  0  0  0  0  0  0  0
   -6.2136   23.8138  -31.6201 H   0  0  0  0  0  0  0  0  0  0  0  0
   -4.1623   22.6250  -32.6488 H   0  0  0  0  0  0  0  0  0  0  0  0
   -4.8416   21.9863  -31.0847 H   0  0  0  0  0  0  0  0  0  0  0  0
  1  2  1  0
  2  3  1  0
  3  4  1  0
  4  5  1  0
  3  6  1  0
  6  7  1  0
  7  8  1  0
  8  9  1  0
  9 10  1  0
 10 11  1  0
 11 12  1  0
 12 13  2  0
 13 14  1  0
 14 15  2  0
 15 16  1  0
 15 17  1  0
 17 18  2  0
 18 19  1  0
 19 20  2  0
 20 21  1  0
 21 22  2  0
 14 23  1  0
 23 24  1  0
 24 25  2  0
 25 26  1  0
 26 27  1  0
 27 28  1  0
 28 29  1  0
 22 12  1  0
 27 23  2  0
 29 13  1  0
 22 17  1  0
  1 30  1  0
  1 31  1  0
  1 32  1  0
  2 33  1  0
  2 34  1  0
  4 35  1  0
  4 36  1  0
  5 37  1  0
  5 38  1  0
  5 39  1  0
  6 40  1  0
  6 41  1  0
  7 42  1  0
  7 43  1  0
  9 44  1  0
  9 45  1  0
 10 46  1  0
 10 47  1  0
 11 48  1  0
 16 49  1  0
 16 50  1  0
 16 51  1  0
 18 52  1  0
 19 53  1  0
 20 54  1  0
 21 55  1  0
 24 56  1  0
 25 57  1  0
 28 58  1  0
 28 59  1  0
 29 60  1  0
 29 61  1  0
M  CHG  1  15   1
M  END
>  <UniqueID>  (23) 
22

>  <SMILES>  (23) 
CCN(CC)CCOCCNc1c2c([n+](C)c3ccccc13)-c1ccsc1CC2

>  <Energy>  (23) 
123.47946565913232

>  <Genealogy>  (23) 
CCN(CC)CCOCCNc1c2c([n+](C)c3ccccc13)-c1ccsc1CC2 (3D coordinates assigned)
CCN(CC)CCOCCNc1c2c([n+](C)c3ccccc13)-c1ccsc1CC2 (nonaromatic ring conformer: 123.47946565913232 kcal/mol)

>  <smiles>  (23) 
CCN(CC)CCOCCNc1c2c([n+](C)c3ccccc13)-c1ccsc1CC2

>  <score_type>  (23) 
oracle

>  <origin>  (23) 
adg

>  <m_score__min__energy>  (23) 
-8.6999999999999993

>  <m_primary>  (23) 
energy

$$$$
23:0
     RDKit          3D

 55 58  0  0  0  0  0  0  0  0999 V2000
   -0.9790   21.6150  -30.5440 C   0  0  0  0  0  0  0  0  0  0  0  0
   -2.3640   21.0350  -30.2780 C   0  0  0  0  0  0  0  0  0  0  0  0
   -3.3780   22.0930  -30.3750 N   0  0  0  0  0  0  0  0  0  0  0  0
   -3.3460   23.0110  -29.2220 C   0  0  0  0  0  0  0  0  0  0  0  0
   -3.6010   24.4770  -29.6080 C   0  0  0  0  0  0  0  0  0  0  0  0
   -4.2750   24.5420  -30.8510 O   0  0  0  0  0  0  0  0  0  0  0  0
   -5.6780   24.4930  -30.6690 C   0  0  0  0  0  0  0  0  0  0  0  0
   -6.2240   23.1640  -31.2170 C   0  0  0  0  0  0  0  0  0  0  0  0
   -5.4870   22.6900  -32.4050 N   0  0  0  0  0  0  0  0  0  0  0  0
   -5.7000   21.2740  -32.6470 C   0  0  0  0  0  0  0  0  0  0  0  0
   -4.6240   20.4670  -33.0370 C   0  0  0  0  0  0  0  0  0  0  0  0
   -4.7920   19.1060  -33.2630 C   0  0  0  0  0  0  0  0  0  0  0  0
   -5.9860   18.4650  -33.0990 N   0  0  0  0  0  0  0  0  0  0  0  0
   -6.0660   17.0060  -33.2830 C   0  0  0  0  0  0  0  0  0  0  0  0
   -7.0980   19.2230  -32.7670 C   0  0  0  0  0  0  0  0  0  0  0  0
   -8.3810   18.6300  -32.6790 C   0  0  0  0  0  0  0  0  0  0  0  0
   -9.4970   19.3760  -32.3110 C   0  0  0  0  0  0  0  0  0  0  0  0
   -9.3720   20.7280  -32.0290 C   0  0  0  0  0  0  0  0  0  0  0  0
   -8.1340   21.3560  -32.1290 C   0  0  0  0  0  0  0  0  0  0  0  0
   -6.9750   20.6360  -32.5100 C   0  0  0  0  0  0  0  0  0  0  0  0
   -3.4940   18.5880  -33.6940 C   0  0  0  0  0  0  0  0  0  0  0  0
   -3.0020   17.4500  -34.1180 O   0  0  0  0  0  0  0  0  0  0  0  0
   -1.7270   17.6820  -34.4100 C   0  0  0  0  0  0  0  0  0  0  0  0
   -1.4050   19.0200  -34.1540 C   0  0  0  0  0  0  0  0  0  0  0  0
   -0.1200   19.7230  -34.4430 C   0  0  0  0  0  0  0  0  0  0  0  0
   -2.5810   19.5610  -33.7050 C   0  0  0  0  0  0  0  0  0  0  0  0
   -3.2010   20.8080  -33.3050 C   0  0  0  0  0  0  0  0  0  0  0  0
   -2.6370   21.9290  -33.2120 O   0  0  0  0  0  0  0  0  0  0  0  0
   -0.4791   21.8243  -29.5868 H   0  0  0  0  0  0  0  0  0  0  0  0
   -0.3825   20.8911  -31.1186 H   0  0  0  0  0  0  0  0  0  0  0  0
   -1.0763   22.5480  -31.1186 H   0  0  0  0  0  0  0  0  0  0  0  0
   -2.5806   20.2534  -31.0211 H   0  0  0  0  0  0  0  0  0  0  0  0
   -2.3871   20.6040  -29.2662 H   0  0  0  0  0  0  0  0  0  0  0  0
   -3.2400   22.6230  -31.2700 H   0  0  0  0  0  0  0  0  0  0  0  0
   -4.1194   22.6987  -28.5049 H   0  0  0  0  0  0  0  0  0  0  0  0
   -2.3359   22.9577  -28.7896 H   0  0  0  0  0  0  0  0  0  0  0  0
   -4.2188   24.9551  -28.8336 H   0  0  0  0  0  0  0  0  0  0  0  0
   -2.6371   25.0000  -29.6931 H   0  0  0  0  0  0  0  0  0  0  0  0
   -5.9108   24.5699  -29.5967 H   0  0  0  0  0  0  0  0  0  0  0  0
   -6.1455   25.3298  -31.2086 H   0  0  0  0  0  0  0  0  0  0  0  0
   -6.1480   22.4008  -30.4285 H   0  0  0  0  0  0  0  0  0  0  0  0
   -7.2675   23.3342  -31.5204 H   0  0  0  0  0  0  0  0  0  0  0  0
   -4.4660   22.8520  -32.2400 H   0  0  0  0  0  0  0  0  0  0  0  0
   -5.7000   23.2860  -33.2330 H   0  0  0  0  0  0  0  0  0  0  0  0
   -6.0930   16.5134  -32.2998 H   0  0  0  0  0  0  0  0  0  0  0  0
   -6.9792   16.7566  -33.8433 H   0  0  0  0  0  0  0  0  0  0  0  0
   -5.1856   16.6583  -33.8433 H   0  0  0  0  0  0  0  0  0  0  0  0
   -8.4978   17.5600  -32.9057 H   0  0  0  0  0  0  0  0  0  0  0  0
  -10.4821   18.8912  -32.2436 H   0  0  0  0  0  0  0  0  0  0  0  0
  -10.2562   21.3073  -31.7246 H   0  0  0  0  0  0  0  0  0  0  0  0
   -8.0541   22.4307  -31.9082 H   0  0  0  0  0  0  0  0  0  0  0  0
   -1.0243   16.9298  -34.7978 H   0  0  0  0  0  0  0  0  0  0  0  0
    0.3717   19.9920  -33.4965 H   0  0  0  0  0  0  0  0  0  0  0  0
    0.5386   19.0595  -35.0227 H   0  0  0  0  0  0  0  0  0  0  0  0
   -0.3235   20.6354  -35.0227 H   0  0  0  0  0  0  0  0  0  0  0  0
  1  2  1  0
  2  3  1  0
  3  4  1  0
  4  5  1  0
  5  6  1  0
  6  7  1  0
  7  8  1  0
  8  9  1  0
  9 10  1  0
 10 11  2  0
 11 12  1  0
 12 13  2  0
 13 14  1  0
 13 15  1  0
 15 16  2  0
 16 17  1  0
 17 18  2  0
 18 19  1  0
 19 20  2  0
 12 21  1  0
 21 22  1  0
 22 23  1  0
 23 24  2  0
 24 25  1  0
 24 26  1  0
 26 27  1  0
 27 28  2  0
 20 10  1  0
 26 21  2  0
 27 11  1  0
 20 15  1  0
  1 29  1  0
  1 30  1  0
  1 31  1  0
  2 32  1  0
  2 33  1  0
  3 34  1  0
  4 35  1  0
  4 36  1  0
  5 37  1  0
  5 38  1  0
  7 39  1  0
  7 40  1  0
  8 41  1  0
  8 42  1  0
  9 43  1  0
  9 44  1  0
 14 45  1  0
 14 46  1  0
 14 47  1  0
 16 48  1  0
 17 49  1  0
 18 50  1  0
 19 51  1  0
 23 52  1  0
 25 53  1  0
 25 54  1  0
 25 55  1  0
M  CHG  2   9   1  13   1
M  END
>  <UniqueID>  (24) 
23

>  <SMILES>  (24) 
CCNCCOCC[NH2+]c1c2c([n+](C)c3ccccc13)-c1occ(C)c1C2=O

>  <Energy>  (24) 
152.1905358663513

>  <Genealogy>  (24) 
CCNCCOCC[NH2+]c1c2c([n+](C)c3ccccc13)-c1occ(C)c1C2=O (protonated)
CCNCCOCC[NH2+]c1c2c([n+](C)c3ccccc13)-c1occ(C)c1C2=O (3D coordinates assigned)
CCNCCOCC[NH2+]c1c2c([n+](C)c3ccccc13)-c1occ(C)c1C2=O (nonaromatic ring conformer: 152.1905358663513 kcal/mol)

>  <smiles>  (24) 
CCNCCOCCNc1c2c([n+](C)c3ccccc13)-c1occ(C)c1C2=O

>  <score_type>  (24) 
oracle

>  <origin>  (24) 
adg

>  <m_score__min__energy>  (24) 
-7.5999999999999996

>  <m_primary>  (24) 
energy

$$$$
24:0
     RDKit          3D

 54 58  0  0  0  0  0  0  0  0999 V2000
   -3.3450   24.3420  -27.1070 C   0  0  0  0  0  0  0  0  0  0  0  0
   -4.2180   23.7230  -28.1970 C   0  0  0  0  0  0  0  0  0  0  0  0
   -5.2000   24.6980  -28.6990 N   0  0  0  0  0  0  0  0  0  0  0  0
   -5.2520   24.7310  -30.1720 C   0  0  0  0  0  0  0  0  0  0  0  0
   -4.6470   23.4690  -30.8100 C   0  0  0  0  0  0  0  0  0  0  0  0
   -5.2320   23.2240  -32.1280 N   0  0  0  0  0  0  0  0  0  0  0  0
   -5.8010   21.9470  -32.4370 C   0  0  0  0  0  0  0  0  0  0  0  0
   -4.9970   20.9240  -32.9180 C   0  0  0  0  0  0  0  0  0  0  0  0
   -5.4990   19.6700  -33.2020 C   0  0  0  0  0  0  0  0  0  0  0  0
   -6.7730   19.3240  -32.8130 N   0  0  0  0  0  0  0  0  0  0  0  0
   -7.1450   17.9170  -32.5950 C   0  0  0  0  0  0  0  0  0  0  0  0
   -7.6550   20.3400  -32.4790 C   0  0  0  0  0  0  0  0  0  0  0  0
   -9.0380   20.0940  -32.3180 C   0  0  0  0  0  0  0  0  0  0  0  0
   -9.9150   21.1230  -31.9740 C   0  0  0  0  0  0  0  0  0  0  0  0
   -9.4410   22.4200  -31.7890 C   0  0  0  0  0  0  0  0  0  0  0  0
   -8.0850   22.7000  -31.9490 C   0  0  0  0  0  0  0  0  0  0  0  0
   -7.1770   21.6770  -32.2860 C   0  0  0  0  0  0  0  0  0  0  0  0
   -4.4410   18.8030  -33.6760 N   0  0  0  0  0  0  0  0  0  0  0  0
   -3.2860   19.5050  -33.5490 C   0  0  0  0  0  0  0  0  0  0  0  0
   -2.0600   18.9840  -33.9530 C   0  0  0  0  0  0  0  0  0  0  0  0
   -2.0450   17.7170  -34.5540 C   0  0  0  0  0  0  0  0  0  0  0  0
   -0.8330   17.1400  -34.9610 C   0  0  0  0  0  0  0  0  0  0  0  0
   -0.8270   15.8980  -35.6040 C   0  0  0  0  0  0  0  0  0  0  0  0
   -2.0280   15.2310  -35.8550 C   0  0  0  0  0  0  0  0  0  0  0  0
   -3.2440   15.7950  -35.4610 C   0  0  0  0  0  0  0  0  0  0  0  0
   -3.2690   17.0380  -34.7990 C   0  0  0  0  0  0  0  0  0  0  0  0
   -4.4830   17.6400  -34.3980 C   0  0  0  0  0  0  0  0  0  0  0  0
   -5.5830   17.1460  -34.7610 O   0  0  0  0  0  0  0  0  0  0  0  0
   -3.5550   20.8580  -33.0870 C   0  0  0  0  0  0  0  0  0  0  0  0
   -2.7150   21.7740  -32.8820 O   0  0  0  0  0  0  0  0  0  0  0  0
   -3.7391   24.0625  -26.1188 H   0  0  0  0  0  0  0  0  0  0  0  0
   -2.3141   23.9719  -27.2086 H   0  0  0  0  0  0  0  0  0  0  0  0
   -3.3531   25.4373  -27.2086 H   0  0  0  0  0  0  0  0  0  0  0  0
   -3.5774   23.3957  -29.0292 H   0  0  0  0  0  0  0  0  0  0  0  0
   -4.7596   22.8662  -27.7698 H   0  0  0  0  0  0  0  0  0  0  0  0
   -6.1500   24.4800  -28.3130 H   0  0  0  0  0  0  0  0  0  0  0  0
   -4.9260   25.6520  -28.3680 H   0  0  0  0  0  0  0  0  0  0  0  0
   -6.3027   24.8164  -30.4863 H   0  0  0  0  0  0  0  0  0  0  0  0
   -4.6584   25.5937  -30.5087 H   0  0  0  0  0  0  0  0  0  0  0  0
   -3.5605   23.6039  -30.9167 H   0  0  0  0  0  0  0  0  0  0  0  0
   -4.8631   22.6070  -30.1617 H   0  0  0  0  0  0  0  0  0  0  0  0
   -5.0190   23.8710  -32.9210 H   0  0  0  0  0  0  0  0  0  0  0  0
   -7.1984   17.7150  -31.5150 H   0  0  0  0  0  0  0  0  0  0  0  0
   -8.1256   17.7217  -33.0535 H   0  0  0  0  0  0  0  0  0  0  0  0
   -6.3890   17.2626  -33.0535 H   0  0  0  0  0  0  0  0  0  0  0  0
   -9.4282   19.0763  -32.4662 H   0  0  0  0  0  0  0  0  0  0  0  0
  -10.9866   20.9091  -31.8481 H   0  0  0  0  0  0  0  0  0  0  0  0
  -10.1388   23.2253  -31.5159 H   0  0  0  0  0  0  0  0  0  0  0  0
   -7.7207   23.7287  -31.8109 H   0  0  0  0  0  0  0  0  0  0  0  0
   -1.1287   19.5504  -33.8049 H   0  0  0  0  0  0  0  0  0  0  0  0
    0.1150   17.6656  -34.7740 H   0  0  0  0  0  0  0  0  0  0  0  0
    0.1267   15.4451  -35.9130 H   0  0  0  0  0  0  0  0  0  0  0  0
   -2.0165   14.2567  -36.3655 H   0  0  0  0  0  0  0  0  0  0  0  0
   -4.1859   15.2661  -35.6687 H   0  0  0  0  0  0  0  0  0  0  0  0
  1  2  1  0
  2  3  1  0
  3  4  1  0
  4  5  1  0
  5  6  1  0
  6  7  1  0
  7  8  2  0
  8  9  1  0
  9 10  2  0
 10 11  1  0
 10 12  1  0
 12 13  2  0
 13 14  1  0
 14 15  2  0
 15 16  1  0
 16 17  2  0
  9 18  1  0
 18 19  1  0
 19 20  2  0
 20 21  1  0
 21 22  2  0
 22 23  1  0
 23 24  2  0
 24 25  1  0
 25 26  2  0
 26 27  1  0
 27 28  2  0
 19 29  1  0
 29 30  2  0
 17  7  1  0
 27 18  1  0
 29  8  1  0
 17 12  1  0
 26 21  1  0
  1 31  1  0
  1 32  1  0
  1 33  1  0
  2 34  1  0
  2 35  1  0
  3 36  1  0
  3 37  1  0
  4 38  1  0
  4 39  1  0
  5 40  1  0
  5 41  1  0
  6 42  1  0
 11 43  1  0
 11 44  1  0
 11 45  1  0
 13 46  1  0
 14 47  1  0
 15 48  1  0
 16 49  1  0
 20 50  1  0
 22 51  1  0
 23 52  1  0
 24 53  1  0
 25 54  1  0
M  CHG  2   3   1  10   1
M  END
>  <UniqueID>  (25) 
24

>  <SMILES>  (25) 
CC[NH2+]CCNc1c2c([n+](C)c3ccccc13)-n1c(cc3ccccc3c1=O)C2=O

>  <Energy>  (25) 
123.7386357342951

>  <Genealogy>  (25) 
CC[NH2+]CCNc1c2c([n+](C)c3ccccc13)-n1c(cc3ccccc3c1=O)C2=O (protonated)
CC[NH2+]CCNc1c2c([n+](C)c3ccccc13)-n1c(cc3ccccc3c1=O)C2=O (3D coordinates assigned)
CC[NH2+]CCNc1c2c([n+](C)c3ccccc13)-n1c(cc3ccccc3c1=O)C2=O (nonaromatic ring conformer: 123.7386357342951 kcal/mol)

>  <smiles>  (25) 
CCNCCNc1c2c([n+](C)c3ccccc13)-n1c(cc3ccccc3c1=O)C2=O

>  <score_type>  (25) 
oracle

>  <origin>  (25) 
adg

>  <m_score__min__energy>  (25) 
-8.6099999999999994

>  <m_primary>  (25) 
energy

$$$$
