0:0
     RDKit          3D

 58 60  0  0  0  0  0  0  0  0999 V2000
   -6.5310   25.2280  -30.0080 C   0  0  0  0  0  0  0  0  0  0  0  0
   -5.6640   24.8840  -31.2140 C   0  0  0  0  0  0  0  0  0  0  0  0
   -4.2410   24.9030  -30.8400 N   0  0  0  0  0  0  0  0  0  0  0  0
   -4.0410   24.5190  -29.4370 C   0  0  0  0  0  0  0  0  0  0  0  0
   -2.5690   24.1950  -29.1880 C   0  0  0  0  0  0  0  0  0  0  0  0
   -2.0470   23.4730  -30.2870 O   0  0  0  0  0  0  0  0  0  0  0  0
   -1.7190   22.1510  -29.9030 C   0  0  0  0  0  0  0  0  0  0  0  0
   -2.9190   21.2190  -30.0890 C   0  0  0  0  0  0  0  0  0  0  0  0
   -3.8320   21.7270  -31.1090 N   0  0  0  0  0  0  0  0  0  0  0  0
   -4.7000   20.8250  -31.8120 C   0  0  0  0  0  0  0  0  0  0  0  0
   -6.0900   20.9150  -31.6430 C   0  0  0  0  0  0  0  0  0  0  0  0
   -6.6530   21.9220  -30.8280 C   0  0  0  0  0  0  0  0  0  0  0  0
   -8.0350   22.0410  -30.7040 C   0  0  0  0  0  0  0  0  0  0  0  0
   -8.8730   21.1720  -31.3920 C   0  0  0  0  0  0  0  0  0  0  0  0
   -8.3390   20.1560  -32.1830 C   0  0  0  0  0  0  0  0  0  0  0  0
   -6.9360   19.9810  -32.2980 C   0  0  0  0  0  0  0  0  0  0  0  0
   -6.3860   18.9430  -33.0280 N   0  0  0  0  0  0  0  0  0  0  0  0
   -7.2380   17.8110  -33.4570 C   0  0  0  0  0  0  0  0  0  0  0  0
   -5.0370   18.9490  -33.3340 C   0  0  0  0  0  0  0  0  0  0  0  0
   -4.4810   18.0570  -34.2820 C   0  0  0  0  0  0  0  0  0  0  0  0
   -3.1120   18.0400  -34.5440 C   0  0  0  0  0  0  0  0  0  0  0  0
   -2.2440   18.9290  -33.8970 C   0  0  0  0  0  0  0  0  0  0  0  0
   -0.8190   18.8970  -34.1630 N   0  0  0  0  0  0  0  0  0  0  0  0
   -0.0900   20.1270  -34.4820 C   0  0  0  0  0  0  0  0  0  0  0  0
   -0.0810   17.6340  -34.0720 C   0  0  0  0  0  0  0  0  0  0  0  0
   -2.7880   19.8570  -32.9930 C   0  0  0  0  0  0  0  0  0  0  0  0
   -4.1690   19.8790  -32.7050 C   0  0  0  0  0  0  0  0  0  0  0  0
   -5.9770   25.0082  -29.0835 H   0  0  0  0  0  0  0  0  0  0  0  0
   -6.7895   26.2968  -30.0352 H   0  0  0  0  0  0  0  0  0  0  0  0
   -7.4520   24.6272  -30.0352 H   0  0  0  0  0  0  0  0  0  0  0  0
   -5.9304   23.8809  -31.5785 H   0  0  0  0  0  0  0  0  0  0  0  0
   -5.8370   25.6294  -32.0042 H   0  0  0  0  0  0  0  0  0  0  0  0
   -3.7450   24.1980  -31.4370 H   0  0  0  0  0  0  0  0  0  0  0  0
   -4.3462   25.3506  -28.7848 H   0  0  0  0  0  0  0  0  0  0  0  0
   -4.6486   23.6290  -29.2164 H   0  0  0  0  0  0  0  0  0  0  0  0
   -2.0045   25.1309  -29.0641 H   0  0  0  0  0  0  0  0  0  0  0  0
   -2.4793   23.5860  -28.2764 H   0  0  0  0  0  0  0  0  0  0  0  0
   -0.8838   21.7920  -30.5223 H   0  0  0  0  0  0  0  0  0  0  0  0
   -1.4340   22.1522  -28.8406 H   0  0  0  0  0  0  0  0  0  0  0  0
   -2.5575   20.2259  -30.3942 H   0  0  0  0  0  0  0  0  0  0  0  0
   -3.4631   21.1588  -29.1349 H   0  0  0  0  0  0  0  0  0  0  0  0
   -3.9860   22.7540  -31.2180 H   0  0  0  0  0  0  0  0  0  0  0  0
   -5.9947   22.6177  -30.2870 H   0  0  0  0  0  0  0  0  0  0  0  0
   -8.4636   22.8237  -30.0608 H   0  0  0  0  0  0  0  0  0  0  0  0
   -9.9641   21.2865  -31.3120 H   0  0  0  0  0  0  0  0  0  0  0  0
   -9.0157   19.4799  -32.7261 H   0  0  0  0  0  0  0  0  0  0  0  0
   -7.6298   17.2905  -32.5707 H   0  0  0  0  0  0  0  0  0  0  0  0
   -8.0763   18.1908  -34.0596 H   0  0  0  0  0  0  0  0  0  0  0  0
   -6.6411   17.1106  -34.0596 H   0  0  0  0  0  0  0  0  0  0  0  0
   -5.1421   17.3637  -34.8225 H   0  0  0  0  0  0  0  0  0  0  0  0
   -2.7076   17.3183  -35.2690 H   0  0  0  0  0  0  0  0  0  0  0  0
    0.2076   20.6291  -33.5496 H   0  0  0  0  0  0  0  0  0  0  0  0
    0.8075   19.8798  -35.0679 H   0  0  0  0  0  0  0  0  0  0  0  0
   -0.7377   20.7957  -35.0679 H   0  0  0  0  0  0  0  0  0  0  0  0
    0.0711   17.3736  -33.0141 H   0  0  0  0  0  0  0  0  0  0  0  0
   -0.6556   16.8371  -34.5668 H   0  0  0  0  0  0  0  0  0  0  0  0
    0.8953   17.7434  -34.5668 H   0  0  0  0  0  0  0  0  0  0  0  0
   -2.1233   20.5814  -32.4996 H   0  0  0  0  0  0  0  0  0  0  0  0
  1  2  1  0
  2  3  1  0
  3  4  1  0
  4  5  1  0
  5  6  1  0
  6  7  1  0
  7  8  1  0
  8  9  1  0
  9 10  1  0
 10 11  2  0
 11 12  1  0
 12 13  2  0
 13 14  1  0
 14 15  2  0
 15 16  1  0
 16 17  2  0
 17 18  1  0
 17 19  1  0
 19 20  2  0
 20 21  1  0
 21 22  2  0
 22 23  1  0
 23 24  1  0
 23 25  1  0
 22 26  1  0
 26 27  2  0
 27 10  1  0
 16 11  1  0
 27 19  1  0
  1 28  1  0
  1 29  1  0
  1 30  1  0
  2 31  1  0
  2 32  1  0
  3 33  1  0
  4 34  1  0
  4 35  1  0
  5 36  1  0
  5 37  1  0
  7 38  1  0
  7 39  1  0
  8 40  1  0
  8 41  1  0
  9 42  1  0
 12 43  1  0
 13 44  1  0
 14 45  1  0
 15 46  1  0
 18 47  1  0
 18 48  1  0
 18 49  1  0
 20 50  1  0
 21 51  1  0
 24 52  1  0
 24 53  1  0
 24 54  1  0
 25 55  1  0
 25 56  1  0
 25 57  1  0
 26 58  1  0
M  CHG  1  17   1
M  END
>  <UniqueID>  (1) 
1

>  <SMILES>  (1) 
CCNCCOCCNc1c2ccccc2[n+](C)c2ccc(N(C)C)cc12

>  <Energy>  (1) 
81.44225307721794

>  <Genealogy>  (1) 
CCNCCOCCNc1c2ccccc2[n+](C)c2ccc(N(C)C)cc12 (3D coordinates assigned)
CCNCCOCCNc1c2ccccc2[n+](C)c2ccc(N(C)C)cc12 (optimized conformer: 81.44225307721794 kcal/mol)

>  <smiles>  (1) 
CCNCCOCCNc1c2ccccc2[n+](C)c2ccc(N(C)C)cc12

>  <score_type>  (1) 
oracle

>  <origin>  (1) 
adg

>  <m_score__min__energy>  (1) 
-9.2699999999999996

>  <m_primary>  (1) 
energy

$$$$
1:0
     RDKit          3D

 75 78  0  0  0  0  0  0  0  0999 V2000
    0.4680   21.1730  -33.9190 C   0  0  0  0  0  0  0  0  0  0  0  0
   -0.1900   21.1740  -32.5350 C   0  0  0  0  0  0  0  0  0  0  0  0
   -1.3860   20.3050  -32.4260 N   0  0  0  0  0  0  0  0  0  0  0  0
   -1.2080   19.1130  -31.5600 C   0  0  0  0  0  0  0  0  0  0  0  0
    0.0290   19.1640  -30.6480 C   0  0  0  0  0  0  0  0  0  0  0  0
   -2.1260   20.0710  -33.6860 C   0  0  0  0  0  0  0  0  0  0  0  0
   -3.6410   20.1720  -33.4680 C   0  0  0  0  0  0  0  0  0  0  0  0
   -3.9410   20.6860  -32.1320 N   0  0  0  0  0  0  0  0  0  0  0  0
   -5.2840   21.0520  -31.7860 C   0  0  0  0  0  0  0  0  0  0  0  0
   -6.3170   20.1180  -31.9610 C   0  0  0  0  0  0  0  0  0  0  0  0
   -6.0300   18.7870  -32.3340 C   0  0  0  0  0  0  0  0  0  0  0  0
   -7.0510   17.8470  -32.4520 C   0  0  0  0  0  0  0  0  0  0  0  0
   -8.3670   18.2130  -32.1950 C   0  0  0  0  0  0  0  0  0  0  0  0
   -8.6740   19.5290  -31.8480 C   0  0  0  0  0  0  0  0  0  0  0  0
   -7.6620   20.5180  -31.7620 C   0  0  0  0  0  0  0  0  0  0  0  0
   -7.9550   21.8400  -31.4920 N   0  0  0  0  0  0  0  0  0  0  0  0
   -9.3480   22.3260  -31.6160 C   0  0  0  0  0  0  0  0  0  0  0  0
   -6.9460   22.7150  -31.1320 C   0  0  0  0  0  0  0  0  0  0  0  0
   -7.2380   23.9950  -30.6010 C   0  0  0  0  0  0  0  0  0  0  0  0
   -6.2260   24.8910  -30.2800 C   0  0  0  0  0  0  0  0  0  0  0  0
   -4.8960   24.5300  -30.4340 C   0  0  0  0  0  0  0  0  0  0  0  0
   -4.5500   23.2510  -30.8990 C   0  0  0  0  0  0  0  0  0  0  0  0
   -3.2020   22.8500  -30.9550 O   0  0  0  0  0  0  0  0  0  0  0  0
   -2.1670   23.2220  -30.0450 C   0  0  0  0  0  0  0  0  0  0  0  0
   -1.5350   21.9580  -29.4150 C   0  0  0  0  0  0  0  0  0  0  0  0
   -2.0460   21.5800  -28.0540 N   0  0  0  0  0  0  0  0  0  0  0  0
   -2.7500   22.7330  -27.4330 C   0  0  0  0  0  0  0  0  0  0  0  0
   -3.0420   20.4670  -28.2390 C   0  0  0  0  0  0  0  0  0  0  0  0
   -3.1390   19.5340  -27.0210 C   0  0  0  0  0  0  0  0  0  0  0  0
   -1.7970   18.8310  -26.7600 C   0  0  0  0  0  0  0  0  0  0  0  0
   -0.5970   19.6640  -27.2390 C   0  0  0  0  0  0  0  0  0  0  0  0
   -0.9070   21.1670  -27.1620 C   0  0  0  0  0  0  0  0  0  0  0  0
   -5.5780   22.3390  -31.2760 C   0  0  0  0  0  0  0  0  0  0  0  0
    1.5621   21.1713  -33.8048 H   0  0  0  0  0  0  0  0  0  0  0  0
    0.1558   20.2753  -34.4728 H   0  0  0  0  0  0  0  0  0  0  0  0
    0.1585   22.0716  -34.4728 H   0  0  0  0  0  0  0  0  0  0  0  0
    0.5531   20.8306  -31.8003 H   0  0  0  0  0  0  0  0  0  0  0  0
   -0.5313   22.2032  -32.3499 H   0  0  0  0  0  0  0  0  0  0  0  0
   -2.0998   19.0149  -30.9236 H   0  0  0  0  0  0  0  0  0  0  0  0
   -1.0633   18.2562  -32.2345 H   0  0  0  0  0  0  0  0  0  0  0  0
   -0.2906   19.1508  -29.5955 H   0  0  0  0  0  0  0  0  0  0  0  0
    0.6682   18.2914  -30.8480 H   0  0  0  0  0  0  0  0  0  0  0  0
    0.5943   20.0862  -30.8480 H   0  0  0  0  0  0  0  0  0  0  0  0
   -1.8194   20.8239  -34.4270 H   0  0  0  0  0  0  0  0  0  0  0  0
   -1.8929   19.0570  -34.0431 H   0  0  0  0  0  0  0  0  0  0  0  0
   -4.0690   20.8512  -34.2201 H   0  0  0  0  0  0  0  0  0  0  0  0
   -4.0787   19.1676  -33.5655 H   0  0  0  0  0  0  0  0  0  0  0  0
   -3.2040   20.7130  -31.3890 H   0  0  0  0  0  0  0  0  0  0  0  0
   -4.9900   18.4894  -32.5334 H   0  0  0  0  0  0  0  0  0  0  0  0
   -6.8157   16.8143  -32.7488 H   0  0  0  0  0  0  0  0  0  0  0  0
   -9.1686   17.4630  -32.2654 H   0  0  0  0  0  0  0  0  0  0  0  0
   -9.7182   19.8036  -31.6377 H   0  0  0  0  0  0  0  0  0  0  0  0
   -9.7750   22.4750  -30.6133 H   0  0  0  0  0  0  0  0  0  0  0  0
   -9.3561   23.2801  -32.1634 H   0  0  0  0  0  0  0  0  0  0  0  0
   -9.9478   21.5840  -32.1634 H   0  0  0  0  0  0  0  0  0  0  0  0
   -8.2866   24.2854  -30.4396 H   0  0  0  0  0  0  0  0  0  0  0  0
   -6.4810   25.8919  -29.9017 H   0  0  0  0  0  0  0  0  0  0  0  0
   -4.1039   25.2530  -30.1894 H   0  0  0  0  0  0  0  0  0  0  0  0
   -1.3923   23.7856  -30.5855 H   0  0  0  0  0  0  0  0  0  0  0  0
   -2.5955   23.8466  -29.2474 H   0  0  0  0  0  0  0  0  0  0  0  0
   -1.7238   21.1127  -30.0930 H   0  0  0  0  0  0  0  0  0  0  0  0
   -0.4691   22.1934  -29.2789 H   0  0  0  0  0  0  0  0  0  0  0  0
   -2.6979   22.6476  -26.3376 H   0  0  0  0  0  0  0  0  0  0  0  0
   -2.2699   23.6702  -27.7510 H   0  0  0  0  0  0  0  0  0  0  0  0
   -3.8030   22.7341  -27.7510 H   0  0  0  0  0  0  0  0  0  0  0  0
   -4.0324   20.9103  -28.4199 H   0  0  0  0  0  0  0  0  0  0  0  0
   -2.7001   19.8598  -29.0901 H   0  0  0  0  0  0  0  0  0  0  0  0
   -3.4139   20.1255  -26.1353 H   0  0  0  0  0  0  0  0  0  0  0  0
   -3.9027   18.7689  -27.2244 H   0  0  0  0  0  0  0  0  0  0  0  0
   -1.6952   18.6537  -25.6792 H   0  0  0  0  0  0  0  0  0  0  0  0
   -1.7971   17.8870  -27.3246 H   0  0  0  0  0  0  0  0  0  0  0  0
    0.2722   19.4425  -26.6023 H   0  0  0  0  0  0  0  0  0  0  0  0
   -0.3832   19.4025  -28.2858 H   0  0  0  0  0  0  0  0  0  0  0  0
   -1.1668   21.4183  -26.1231 H   0  0  0  0  0  0  0  0  0  0  0  0
   -0.0105   21.7052  -27.5035 H   0  0  0  0  0  0  0  0  0  0  0  0
  1  2  1  0
  2  3  1  0
  3  4  1  0
  4  5  1  0
  3  6  1  0
  6  7  1  0
  7  8  1  0
  8  9  1  0
  9 10  2  0
 10 11  1  0
 11 12  2  0
 12 13  1  0
 13 14  2  0
 14 15  1  0
 15 16  2  0
 16 17  1  0
 16 18  1  0
 18 19  2  0
 19 20  1  0
 20 21  2  0
 21 22  1  0
 22 23  1  0
 23 24  1  0
 24 25  1  0
 25 26  1  0
 26 27  1  0
 26 28  1  0
 28 29  1  0
 29 30  1  0
 30 31  1  0
 31 32  1  0
 22 33  2  0
 33  9  1  0
 15 10  1  0
 33 18  1  0
 32 26  1  0
  1 34  1  0
  1 35  1  0
  1 36  1  0
  2 37  1  0
  2 38  1  0
  4 39  1  0
  4 40  1  0
  5 41  1  0
  5 42  1  0
  5 43  1  0
  6 44  1  0
  6 45  1  0
  7 46  1  0
  7 47  1  0
  8 48  1  0
 11 49  1  0
 12 50  1  0
 13 51  1  0
 14 52  1  0
 17 53  1  0
 17 54  1  0
 17 55  1  0
 19 56  1  0
 20 57  1  0
 21 58  1  0
 24 59  1  0
 24 60  1  0
 25 61  1  0
 25 62  1  0
 27 63  1  0
 27 64  1  0
 27 65  1  0
 28 66  1  0
 28 67  1  0
 29 68  1  0
 29 69  1  0
 30 70  1  0
 30 71  1  0
 31 72  1  0
 31 73  1  0
 32 74  1  0
 32 75  1  0
M  CHG  2  16   1  26   1
M  END
>  <UniqueID>  (2) 
2

>  <SMILES>  (2) 
CCN(CC)CCNc1c2ccccc2[n+](C)c2cccc(OCC[N+]3(C)CCCCC3)c12

>  <Energy>  (2) 
124.64583504320662

>  <Genealogy>  (2) 
CCN(CC)CCNc1c2ccccc2[n+](C)c2cccc(OCC[N+]3(C)CCCCC3)c12 (3D coordinates assigned)
CCN(CC)CCNc1c2ccccc2[n+](C)c2cccc(OCC[N+]3(C)CCCCC3)c12 (nonaromatic ring conformer: 124.64583504320662 kcal/mol)

>  <smiles>  (2) 
CCN(CC)CCNc1c2ccccc2[n+](C)c2cccc(OCC[N+]3(C)CCCCC3)c12

>  <score_type>  (2) 
oracle

>  <origin>  (2) 
adg

>  <m_score__min__energy>  (2) 
-8.8599999999999994

>  <m_primary>  (2) 
energy

$$$$
2:0
     RDKit          3D

 61 64  0  0  0  0  0  0  0  0999 V2000
   -2.9310   18.9710  -26.1540 C   0  0  0  0  0  0  0  0  0  0  0  0
   -2.7380   19.7360  -27.4760 C   0  0  0  0  0  0  0  0  0  0  0  0
   -2.3890   21.1810  -27.3450 N   0  0  0  0  0  0  0  0  0  0  0  0
   -0.9990   21.4850  -27.7820 C   0  0  0  0  0  0  0  0  0  0  0  0
   -0.0900   20.2650  -27.9630 C   0  0  0  0  0  0  0  0  0  0  0  0
   -3.4290   22.0910  -27.8960 C   0  0  0  0  0  0  0  0  0  0  0  0
   -2.9410   23.5100  -28.2600 C   0  0  0  0  0  0  0  0  0  0  0  0
   -3.8770   24.3380  -29.1600 C   0  0  0  0  0  0  0  0  0  0  0  0
   -3.6860   24.0860  -30.5970 N   0  0  0  0  0  0  0  0  0  0  0  0
   -3.8840   22.8030  -31.2260 C   0  0  0  0  0  0  0  0  0  0  0  0
   -5.1760   22.4230  -31.6420 C   0  0  0  0  0  0  0  0  0  0  0  0
   -5.4070   21.1130  -32.0910 C   0  0  0  0  0  0  0  0  0  0  0  0
   -4.3310   20.3250  -32.4520 N   0  0  0  0  0  0  0  0  0  0  0  0
   -4.4750   19.2940  -33.5030 C   0  0  0  0  0  0  0  0  0  0  0  0
   -3.0620   20.6450  -32.0120 C   0  0  0  0  0  0  0  0  0  0  0  0
   -1.9790   19.7440  -32.1720 C   0  0  0  0  0  0  0  0  0  0  0  0
   -0.6820   20.1140  -31.8240 C   0  0  0  0  0  0  0  0  0  0  0  0
   -0.4280   21.3920  -31.3410 C   0  0  0  0  0  0  0  0  0  0  0  0
   -1.4770   22.2910  -31.1570 C   0  0  0  0  0  0  0  0  0  0  0  0
   -2.8100   21.9120  -31.4230 C   0  0  0  0  0  0  0  0  0  0  0  0
   -6.8370   20.6470  -32.1720 C   0  0  0  0  0  0  0  0  0  0  0  0
   -7.1580   19.2720  -32.1690 C   0  0  0  0  0  0  0  0  0  0  0  0
   -8.4780   18.8600  -32.3250 C   0  0  0  0  0  0  0  0  0  0  0  0
   -9.4870   19.8070  -32.4180 C   0  0  0  0  0  0  0  0  0  0  0  0
   -9.1680   21.1550  -32.2770 C   0  0  0  0  0  0  0  0  0  0  0  0
   -7.8690   21.5570  -32.1140 N   0  0  0  0  0  0  0  0  0  0  0  0
   -7.6590   22.9250  -31.6180 C   0  0  0  0  0  0  0  0  0  0  0  0
   -6.2530   23.4570  -31.8730 C   0  0  0  0  0  0  0  0  0  0  0  0
   -2.7591   19.6523  -25.3077 H   0  0  0  0  0  0  0  0  0  0  0  0
   -3.9567   18.5768  -26.1049 H   0  0  0  0  0  0  0  0  0  0  0  0
   -2.2150   18.1373  -26.1049 H   0  0  0  0  0  0  0  0  0  0  0  0
   -1.9299   19.2430  -28.0363 H   0  0  0  0  0  0  0  0  0  0  0  0
   -3.7143   19.7091  -27.9821 H   0  0  0  0  0  0  0  0  0  0  0  0
   -2.3850   21.3440  -26.3100 H   0  0  0  0  0  0  0  0  0  0  0  0
   -1.0532   22.0147  -28.7445 H   0  0  0  0  0  0  0  0  0  0  0  0
   -0.5497   22.0832  -26.9756 H   0  0  0  0  0  0  0  0  0  0  0  0
    0.2007   19.8748  -26.9765 H   0  0  0  0  0  0  0  0  0  0  0  0
   -0.6293   19.4855  -28.5212 H   0  0  0  0  0  0  0  0  0  0  0  0
    0.8112   20.5588  -28.5212 H   0  0  0  0  0  0  0  0  0  0  0  0
   -3.8370   21.6283  -28.8067 H   0  0  0  0  0  0  0  0  0  0  0  0
   -4.1724   22.2218  -27.0959 H   0  0  0  0  0  0  0  0  0  0  0  0
   -2.7971   24.0668  -27.3223 H   0  0  0  0  0  0  0  0  0  0  0  0
   -2.0206   23.3651  -28.8447 H   0  0  0  0  0  0  0  0  0  0  0  0
   -4.9171   24.0930  -28.8990 H   0  0  0  0  0  0  0  0  0  0  0  0
   -3.6404   25.3977  -28.9837 H   0  0  0  0  0  0  0  0  0  0  0  0
   -3.4980   24.9120  -31.2080 H   0  0  0  0  0  0  0  0  0  0  0  0
   -4.6126   18.3087  -33.0337 H   0  0  0  0  0  0  0  0  0  0  0  0
   -5.3492   19.5276  -34.1284 H   0  0  0  0  0  0  0  0  0  0  0  0
   -3.5702   19.2791  -34.1284 H   0  0  0  0  0  0  0  0  0  0  0  0
   -2.1657   18.7384  -32.5768 H   0  0  0  0  0  0  0  0  0  0  0  0
    0.1423   19.3936  -31.9317 H   0  0  0  0  0  0  0  0  0  0  0  0
    0.6026   21.6946  -31.1035 H   0  0  0  0  0  0  0  0  0  0  0  0
   -1.2631   23.3092  -30.7998 H   0  0  0  0  0  0  0  0  0  0  0  0
   -6.3617   18.5237  -32.0429 H   0  0  0  0  0  0  0  0  0  0  0  0
   -8.7201   17.7881  -32.3743 H   0  0  0  0  0  0  0  0  0  0  0  0
  -10.5264   19.4970  -32.6009 H   0  0  0  0  0  0  0  0  0  0  0  0
   -9.9703   21.9073  -32.2968 H   0  0  0  0  0  0  0  0  0  0  0  0
   -8.3786   23.5904  -32.1174 H   0  0  0  0  0  0  0  0  0  0  0  0
   -7.8013   22.8984  -30.5276 H   0  0  0  0  0  0  0  0  0  0  0  0
   -6.1921   23.7984  -32.9169 H   0  0  0  0  0  0  0  0  0  0  0  0
   -6.0786   24.2764  -31.1602 H   0  0  0  0  0  0  0  0  0  0  0  0
  1  2  1  0
  2  3  1  0
  3  4  1  0
  4  5  1  0
  3  6  1  0
  6  7  1  0
  7  8  1  0
  8  9  1  0
  9 10  1  0
 10 11  2  0
 11 12  1  0
 12 13  2  0
 13 14  1  0
 13 15  1  0
 15 16  2  0
 16 17  1  0
 17 18  2  0
 18 19  1  0
 19 20  2  0
 12 21  1  0
 21 22  2  0
 22 23  1  0
 23 24  2  0
 24 25  1  0
 25 26  2  0
 26 27  1  0
 27 28  1  0
 20 10  1  0
 26 21  1  0
 28 11  1  0
 20 15  1  0
  1 29  1  0
  1 30  1  0
  1 31  1  0
  2 32  1  0
  2 33  1  0
  3 34  1  0
  4 35  1  0
  4 36  1  0
  5 37  1  0
  5 38  1  0
  5 39  1  0
  6 40  1  0
  6 41  1  0
  7 42  1  0
  7 43  1  0
  8 44  1  0
  8 45  1  0
  9 46  1  0
 14 47  1  0
 14 48  1  0
 14 49  1  0
 16 50  1  0
 17 51  1  0
 18 52  1  0
 19 53  1  0
 22 54  1  0
 23 55  1  0
 24 56  1  0
 25 57  1  0
 27 58  1  0
 27 59  1  0
 28 60  1  0
 28 61  1  0
M  CHG  3   3   1  13   1  26   1
M  END
>  <UniqueID>  (3) 
3

>  <SMILES>  (3) 
CC[NH+](CC)CCCNc1c2c([n+](C)c3ccccc13)-c1cccc[n+]1CC2

>  <Energy>  (3) 
112.79588043858702

>  <Genealogy>  (3) 
CC[NH+](CC)CCCNc1c2c([n+](C)c3ccccc13)-c1cccc[n+]1CC2 (protonated)
CC[NH+](CC)CCCNc1c2c([n+](C)c3ccccc13)-c1cccc[n+]1CC2 (3D coordinates assigned)
CC[NH+](CC)CCCNc1c2c([n+](C)c3ccccc13)-c1cccc[n+]1CC2 (nonaromatic ring conformer: 112.79588043858702 kcal/mol)

>  <smiles>  (3) 
CCN(CC)CCCNc1c2c([n+](C)c3ccccc13)-c1cccc[n+]1CC2

>  <score_type>  (3) 
oracle

>  <origin>  (3) 
adg

>  <m_score__min__energy>  (3) 
-7.6399999999999997

>  <m_primary>  (3) 
energy

$$$$
3:0
     RDKit          3D

 75 78  0  0  0  0  0  0  0  0999 V2000
   -3.4090   21.4520  -28.2130 C   0  0  0  0  0  0  0  0  0  0  0  0
   -2.4690   20.3520  -28.0050 N   0  0  0  0  0  0  0  0  0  0  0  0
   -2.3990   19.5830  -26.9000 C   0  0  0  0  0  0  0  0  0  0  0  0
   -1.3610   18.6800  -27.0230 C   0  0  0  0  0  0  0  0  0  0  0  0
   -0.7690   18.9210  -28.2480 C   0  0  0  0  0  0  0  0  0  0  0  0
   -1.4720   19.9600  -28.8270 C   0  0  0  0  0  0  0  0  0  0  0  0
   -1.1540   20.5800  -30.1580 C   0  0  0  0  0  0  0  0  0  0  0  0
   -2.2550   20.3860  -31.0970 N   0  0  0  0  0  0  0  0  0  0  0  0
   -2.8660   21.4730  -31.8080 C   0  0  0  0  0  0  0  0  0  0  0  0
   -2.5500   22.6620  -31.5450 O   0  0  0  0  0  0  0  0  0  0  0  0
   -3.8860   21.1940  -32.8750 C   0  0  0  0  0  0  0  0  0  0  0  0
   -4.4790   19.8500  -32.7130 N   0  0  0  0  0  0  0  0  0  0  0  0
   -5.1120   19.6910  -31.3780 C   0  0  0  0  0  0  0  0  0  0  0  0
   -6.1920   18.5980  -31.3870 C   0  0  0  0  0  0  0  0  0  0  0  0
   -7.2980   18.9130  -32.3280 N   0  0  0  0  0  0  0  0  0  0  0  0
   -8.4590   19.4930  -31.6160 C   0  0  0  0  0  0  0  0  0  0  0  0
   -9.3220   20.3720  -32.5370 C   0  0  0  0  0  0  0  0  0  0  0  0
   -9.0990   21.7610  -32.2830 O   0  0  0  0  0  0  0  0  0  0  0  0
   -7.9400   22.3140  -31.7150 C   0  0  0  0  0  0  0  0  0  0  0  0
   -7.7430   22.1560  -30.3380 C   0  0  0  0  0  0  0  0  0  0  0  0
   -6.6210   22.7080  -29.7090 C   0  0  0  0  0  0  0  0  0  0  0  0
   -5.6820   23.4250  -30.4580 C   0  0  0  0  0  0  0  0  0  0  0  0
   -4.5170   23.9770  -29.8170 C   0  0  0  0  0  0  0  0  0  0  0  0
   -3.5440   24.4170  -29.2580 C   0  0  0  0  0  0  0  0  0  0  0  0
   -2.3480   24.9150  -28.5710 C   0  0  0  0  0  0  0  0  0  0  0  0
   -2.4240   24.6840  -27.0490 C   0  0  0  0  0  0  0  0  0  0  0  0
   -1.1470   24.2870  -26.4110 N   0  0  0  0  0  0  0  0  0  0  0  0
   -0.6540   22.9360  -26.7470 C   0  0  0  0  0  0  0  0  0  0  0  0
    0.4160   22.9430  -27.8620 C   0  0  0  0  0  0  0  0  0  0  0  0
    0.7070   24.2440  -28.3290 O   0  0  0  0  0  0  0  0  0  0  0  0
    1.0900   25.0590  -27.2470 C   0  0  0  0  0  0  0  0  0  0  0  0
   -0.1080   25.3360  -26.3230 C   0  0  0  0  0  0  0  0  0  0  0  0
   -5.8610   23.5760  -31.8380 C   0  0  0  0  0  0  0  0  0  0  0  0
   -6.9830   23.0270  -32.4650 C   0  0  0  0  0  0  0  0  0  0  0  0
   -6.8680   19.7670  -33.4640 C   0  0  0  0  0  0  0  0  0  0  0  0
   -5.3970   19.5290  -33.8350 C   0  0  0  0  0  0  0  0  0  0  0  0
   -3.7406   21.8401  -27.2386 H   0  0  0  0  0  0  0  0  0  0  0  0
   -2.9141   22.2553  -28.7784 H   0  0  0  0  0  0  0  0  0  0  0  0
   -4.2796   21.0883  -28.7784 H   0  0  0  0  0  0  0  0  0  0  0  0
   -3.0682   19.6627  -26.0306 H   0  0  0  0  0  0  0  0  0  0  0  0
   -1.0635   17.9172  -26.2884 H   0  0  0  0  0  0  0  0  0  0  0  0
    0.0930   18.3898  -28.6780 H   0  0  0  0  0  0  0  0  0  0  0  0
   -0.9820   21.6579  -30.0218 H   0  0  0  0  0  0  0  0  0  0  0  0
   -0.2538   20.0969  -30.5657 H   0  0  0  0  0  0  0  0  0  0  0  0
   -2.5630   19.4110  -31.3050 H   0  0  0  0  0  0  0  0  0  0  0  0
   -4.6847   21.9478  -32.8130 H   0  0  0  0  0  0  0  0  0  0  0  0
   -3.3853   21.2368  -33.8535 H   0  0  0  0  0  0  0  0  0  0  0  0
   -4.3369   19.4201  -30.6461 H   0  0  0  0  0  0  0  0  0  0  0  0
   -5.5914   20.6442  -31.1104 H   0  0  0  0  0  0  0  0  0  0  0  0
   -5.7306   17.6459  -31.6879 H   0  0  0  0  0  0  0  0  0  0  0  0
   -6.6168   18.5331  -30.3744 H   0  0  0  0  0  0  0  0  0  0  0  0
   -9.0797   18.6741  -31.2235 H   0  0  0  0  0  0  0  0  0  0  0  0
   -8.0757   20.1277  -30.8035 H   0  0  0  0  0  0  0  0  0  0  0  0
   -9.0667   20.1532  -33.5844 H   0  0  0  0  0  0  0  0  0  0  0  0
  -10.3809   20.1475  -32.3410 H   0  0  0  0  0  0  0  0  0  0  0  0
   -8.4776   21.5922  -29.7442 H   0  0  0  0  0  0  0  0  0  0  0  0
   -6.4777   22.5780  -28.6261 H   0  0  0  0  0  0  0  0  0  0  0  0
   -1.4657   24.3908  -28.9670 H   0  0  0  0  0  0  0  0  0  0  0  0
   -2.2775   25.9982  -28.7492 H   0  0  0  0  0  0  0  0  0  0  0  0
   -2.7643   25.6183  -26.5787 H   0  0  0  0  0  0  0  0  0  0  0  0
   -3.1165   23.8424  -26.9002 H   0  0  0  0  0  0  0  0  0  0  0  0
   -0.2153   22.4882  -25.8431 H   0  0  0  0  0  0  0  0  0  0  0  0
   -1.5118   22.3559  -27.1181 H   0  0  0  0  0  0  0  0  0  0  0  0
    1.3399   22.4962  -27.4661 H   0  0  0  0  0  0  0  0  0  0  0  0
    0.0168   22.3668  -28.7097 H   0  0  0  0  0  0  0  0  0  0  0  0
    1.8783   24.5500  -26.6731 H   0  0  0  0  0  0  0  0  0  0  0  0
    1.4616   26.0167  -27.6403 H   0  0  0  0  0  0  0  0  0  0  0  0
    0.2522   25.3892  -25.2850 H   0  0  0  0  0  0  0  0  0  0  0  0
   -0.5637   26.2848  -26.6427 H   0  0  0  0  0  0  0  0  0  0  0  0
   -5.1167   24.1282  -32.4305 H   0  0  0  0  0  0  0  0  0  0  0  0
   -7.1199   23.1520  -33.5493 H   0  0  0  0  0  0  0  0  0  0  0  0
   -7.4964   19.5394  -34.3377 H   0  0  0  0  0  0  0  0  0  0  0  0
   -6.9769   20.8186  -33.1601 H   0  0  0  0  0  0  0  0  0  0  0  0
   -5.2668   18.4715  -34.1084 H   0  0  0  0  0  0  0  0  0  0  0  0
   -5.1483   20.1923  -34.6765 H   0  0  0  0  0  0  0  0  0  0  0  0
  1  2  1  0
  2  3  1  0
  3  4  2  0
  4  5  1  0
  5  6  2  0
  6  7  1  0
  7  8  1  0
  8  9  1  0
  9 10  2  0
  9 11  1  0
 11 12  1  0
 12 13  1  0
 13 14  1  0
 14 15  1  0
 15 16  1  0
 16 17  1  0
 17 18  1  0
 18 19  1  0
 19 20  2  0
 20 21  1  0
 21 22  2  0
 22 23  1  0
 23 24  3  0
 24 25  1  0
 25 26  1  0
 26 27  1  0
 27 28  1  0
 28 29  1  0
 29 30  1  0
 30 31  1  0
 31 32  1  0
 22 33  1  0
 33 34  2  0
 15 35  1  0
 35 36  1  0
  6  2  1  0
 36 12  1  0
 34 19  1  0
 32 27  1  0
  1 37  1  0
  1 38  1  0
  1 39  1  0
  3 40  1  0
  4 41  1  0
  5 42  1  0
  7 43  1  0
  7 44  1  0
  8 45  1  0
 11 46  1  0
 11 47  1  0
 13 48  1  0
 13 49  1  0
 14 50  1  0
 14 51  1  0
 16 52  1  0
 16 53  1  0
 17 54  1  0
 17 55  1  0
 20 56  1  0
 21 57  1  0
 25 58  1  0
 25 59  1  0
 26 60  1  0
 26 61  1  0
 28 62  1  0
 28 63  1  0
 29 64  1  0
 29 65  1  0
 31 66  1  0
 31 67  1  0
 32 68  1  0
 32 69  1  0
 33 70  1  0
 34 71  1  0
 35 72  1  0
 35 73  1  0
 36 74  1  0
 36 75  1  0
M  END
>  <UniqueID>  (4) 
4

>  <SMILES>  (4) 
Cn1cccc1CNC(=O)CN1CCN(CCOc2ccc(C#CCCN3CCOCC3)cc2)CC1

>  <Energy>  (4) 
120.14540487142972

>  <Genealogy>  (4) 
Cn1cccc1CNC(=O)CN1CCN(CCOc2ccc(C#CCCN3CCOCC3)cc2)CC1 (3D coordinates assigned)
Cn1cccc1CNC(=O)CN1CCN(CCOc2ccc(C#CCCN3CCOCC3)cc2)CC1 (nonaromatic ring conformer: 120.14540487142972 kcal/mol)

>  <smiles>  (4) 
Cn1cccc1CNC(=O)CN1CCN(CCOc2ccc(C#CCCN3CCOCC3)cc2)CC1

>  <score_type>  (4) 
oracle

>  <origin>  (4) 
adg

>  <m_score__min__energy>  (4) 
-9.4700000000000006

>  <m_primary>  (4) 
energy

$$$$
4:0
     RDKit          3D

 52 54  0  0  0  0  0  0  0  0999 V2000
   -2.7760   19.8920  -27.4040 C   0  0  0  0  0  0  0  0  0  0  0  0
   -1.9880   21.1420  -27.0290 C   0  0  0  0  0  0  0  0  0  0  0  0
   -2.4280   22.3180  -27.8590 C   0  0  0  0  0  0  0  0  0  0  0  0
   -1.5010   23.2970  -28.2470 C   0  0  0  0  0  0  0  0  0  0  0  0
   -1.9160   24.4030  -28.9940 C   0  0  0  0  0  0  0  0  0  0  0  0
   -3.2570   24.5410  -29.3550 C   0  0  0  0  0  0  0  0  0  0  0  0
   -4.1970   23.5730  -28.9730 C   0  0  0  0  0  0  0  0  0  0  0  0
   -5.6400   23.7190  -29.3780 C   0  0  0  0  0  0  0  0  0  0  0  0
   -5.8710   23.5000  -30.8890 C   0  0  0  0  0  0  0  0  0  0  0  0
   -5.5410   22.1160  -31.3550 N   0  0  2  0  0  0  0  0  0  0  0  0
   -4.6840   22.0490  -32.5850 C   0  0  0  0  0  0  0  0  0  0  0  0
   -3.2700   21.5130  -32.4380 C   0  0  0  0  0  0  0  0  0  0  0  0
   -2.4730   21.7560  -31.3030 C   0  0  0  0  0  0  0  0  0  0  0  0
   -1.1640   21.3150  -31.4250 C   0  0  0  0  0  0  0  0  0  0  0  0
   -0.9660   20.6900  -32.9680 S   0  0  0  0  0  0  0  0  0  0  0  0
   -2.5400   20.9560  -33.4880 C   0  0  0  0  0  0  0  0  0  0  0  0
   -6.7380   21.2130  -31.3260 C   0  0  0  0  0  0  0  0  0  0  0  0
   -8.0180   21.8190  -31.9490 C   0  0  0  0  0  0  0  0  0  0  0  0
   -9.1030   20.7420  -32.0610 C   0  0  0  0  0  0  0  0  0  0  0  0
   -8.7040   19.5950  -32.9060 N   0  0  0  0  0  0  0  0  0  0  0  0
   -7.2520   19.4470  -33.1160 C   0  0  0  0  0  0  0  0  0  0  0  0
   -6.4490   19.7750  -31.8520 C   0  0  0  0  0  0  0  0  0  0  0  0
   -3.7790   22.4690  -28.2110 C   0  0  0  0  0  0  0  0  0  0  0  0
   -3.1016   19.3756  -26.4890 H   0  0  0  0  0  0  0  0  0  0  0  0
   -3.6573   20.1782  -27.9968 H   0  0  0  0  0  0  0  0  0  0  0  0
   -2.1377   19.2203  -27.9968 H   0  0  0  0  0  0  0  0  0  0  0  0
   -2.1547   21.3682  -25.9655 H   0  0  0  0  0  0  0  0  0  0  0  0
   -0.9203   20.9563  -27.2173 H   0  0  0  0  0  0  0  0  0  0  0  0
   -0.4435   23.1937  -27.9622 H   0  0  0  0  0  0  0  0  0  0  0  0
   -1.1843   25.1661  -29.2979 H   0  0  0  0  0  0  0  0  0  0  0  0
   -3.5784   25.4138  -29.9423 H   0  0  0  0  0  0  0  0  0  0  0  0
   -6.2359   22.9801  -28.8222 H   0  0  0  0  0  0  0  0  0  0  0  0
   -5.9425   24.7509  -29.1465 H   0  0  0  0  0  0  0  0  0  0  0  0
   -6.9303   23.6974  -31.1104 H   0  0  0  0  0  0  0  0  0  0  0  0
   -5.1956   24.1870  -31.4199 H   0  0  0  0  0  0  0  0  0  0  0  0
   -4.9270   21.7060  -30.6110 H   0  0  0  0  0  0  0  0  0  0  0  0
   -5.2037   21.4073  -33.3117 H   0  0  0  0  0  0  0  0  0  0  0  0
   -4.5512   23.0986  -32.8861 H   0  0  0  0  0  0  0  0  0  0  0  0
   -2.8552   22.2522  -30.3987 H   0  0  0  0  0  0  0  0  0  0  0  0
   -0.3901   21.3663  -30.6450 H   0  0  0  0  0  0  0  0  0  0  0  0
   -2.9309   20.7287  -34.4908 H   0  0  0  0  0  0  0  0  0  0  0  0
   -6.9588   21.1128  -30.2531 H   0  0  0  0  0  0  0  0  0  0  0  0
   -8.3815   22.6383  -31.3113 H   0  0  0  0  0  0  0  0  0  0  0  0
   -7.7851   22.2047  -32.9525 H   0  0  0  0  0  0  0  0  0  0  0  0
   -9.3306   20.3694  -31.0514 H   0  0  0  0  0  0  0  0  0  0  0  0
   -9.9776   21.2090  -32.5374 H   0  0  0  0  0  0  0  0  0  0  0  0
   -9.1530   19.6990  -33.8460 H   0  0  0  0  0  0  0  0  0  0  0  0
   -7.0405   18.4086  -33.4108 H   0  0  0  0  0  0  0  0  0  0  0  0
   -6.9500   20.1550  -33.9018 H   0  0  0  0  0  0  0  0  0  0  0  0
   -6.7132   19.0512  -31.0670 H   0  0  0  0  0  0  0  0  0  0  0  0
   -5.3805   19.7178  -32.1071 H   0  0  0  0  0  0  0  0  0  0  0  0
   -4.5150   21.7180  -27.8880 H   0  0  0  0  0  0  0  0  0  0  0  0
  1  2  1  0
  2  3  1  0
  3  4  2  0
  4  5  1  0
  5  6  2  0
  6  7  1  0
  7  8  1  0
  8  9  1  0
  9 10  1  0
 10 11  1  0
 11 12  1  0
 12 13  1  0
 13 14  2  0
 14 15  1  0
 15 16  1  0
 10 17  1  0
 17 18  1  0
 18 19  1  0
 19 20  1  0
 20 21  1  0
 21 22  1  0
  7 23  2  0
 23  3  1  0
 16 12  2  0
 22 17  1  0
  1 24  1  0
  1 25  1  0
  1 26  1  0
  2 27  1  0
  2 28  1  0
  4 29  1  0
  5 30  1  0
  6 31  1  0
  8 32  1  0
  8 33  1  0
  9 34  1  0
  9 35  1  0
 10 36  1  1
 11 37  1  0
 11 38  1  0
 13 39  1  0
 14 40  1  0
 16 41  1  0
 17 42  1  0
 18 43  1  0
 18 44  1  0
 19 45  1  0
 19 46  1  0
 20 47  1  0
 21 48  1  0
 21 49  1  0
 22 50  1  0
 22 51  1  0
 23 52  1  0
M  CHG  1  10   1
M  END
>  <UniqueID>  (5) 
5

>  <SMILES>  (5) 
CCc1cccc(CC[N@H+](Cc2ccsc2)C2CCNCC2)c1

>  <Energy>  (5) 
99.48604496906492

>  <Genealogy>  (5) 
CCc1cccc(CC[NH+](Cc2ccsc2)C2CCNCC2)c1 (protonated)
CCc1cccc(CC[N@H+](Cc2ccsc2)C2CCNCC2)c1 (chirality)
CCc1cccc(CC[N@H+](Cc2ccsc2)C2CCNCC2)c1 (3D coordinates assigned)
CCc1cccc(CC[N@H+](Cc2ccsc2)C2CCNCC2)c1 (nonaromatic ring conformer: 99.48604496906492 kcal/mol)

>  <smiles>  (5) 
CCc1cccc(CCN(Cc2ccsc2)C2CCNCC2)c1

>  <score_type>  (5) 
oracle

>  <origin>  (5) 
adg

>  <m_score__min__energy>  (5) 
-7.21

>  <m_primary>  (5) 
energy

$$$$
5:0
     RDKit          3D

 71 74  0  0  0  0  0  0  0  0999 V2000
   -4.2520   24.1400  -27.7680 C   0  0  0  0  0  0  0  0  0  0  0  0
   -4.2040   24.5400  -29.2440 C   0  0  0  0  0  0  0  0  0  0  0  0
   -2.9420   24.1660  -29.9200 N   0  0  0  0  0  0  0  0  0  0  0  0
   -1.7300   24.2150  -29.0640 C   0  0  0  0  0  0  0  0  0  0  0  0
   -0.7470   23.0520  -29.2630 C   0  0  0  0  0  0  0  0  0  0  0  0
   -3.0610   23.0240  -30.8530 C   0  0  0  0  0  0  0  0  0  0  0  0
   -4.4990   22.9030  -31.3830 C   0  0  0  0  0  0  0  0  0  0  0  0
   -4.5200   22.3230  -32.7410 N   0  0  0  0  0  0  0  0  0  0  0  0
   -5.4400   21.1980  -32.8250 C   0  0  0  0  0  0  0  0  0  0  0  0
   -6.8160   21.4040  -32.5000 C   0  0  0  0  0  0  0  0  0  0  0  0
   -7.3440   22.6950  -32.2260 C   0  0  0  0  0  0  0  0  0  0  0  0
   -8.7000   22.8850  -31.9700 C   0  0  0  0  0  0  0  0  0  0  0  0
   -9.5690   21.8060  -31.9860 C   0  0  0  0  0  0  0  0  0  0  0  0
   -9.0810   20.5250  -32.2210 C   0  0  0  0  0  0  0  0  0  0  0  0
   -7.6980   20.2950  -32.4410 C   0  0  0  0  0  0  0  0  0  0  0  0
   -7.2120   19.0200  -32.6000 N   0  0  0  0  0  0  0  0  0  0  0  0
   -8.0200   17.8650  -32.1480 C   0  0  0  0  0  0  0  0  0  0  0  0
   -5.9680   18.8170  -33.1600 C   0  0  0  0  0  0  0  0  0  0  0  0
   -5.6250   17.5360  -33.6570 C   0  0  0  0  0  0  0  0  0  0  0  0
   -4.3730   17.2760  -34.1820 C   0  0  0  0  0  0  0  0  0  0  0  0
   -3.4270   18.2780  -34.2380 C   0  0  0  0  0  0  0  0  0  0  0  0
   -3.7150   19.5730  -33.7930 C   0  0  0  0  0  0  0  0  0  0  0  0
   -2.6640   20.5370  -33.9540 N   0  0  0  0  0  0  0  0  0  0  0  0
   -1.5470   20.6360  -33.0070 C   0  0  0  0  0  0  0  0  0  0  0  0
   -0.3580   21.4250  -33.5920 C   0  0  0  0  0  0  0  0  0  0  0  0
   -0.3820   21.3650  -35.0730 N   0  0  0  0  0  0  0  0  0  0  0  0
    0.1820   20.1020  -35.5960 C   0  0  0  0  0  0  0  0  0  0  0  0
    1.7240   20.1140  -35.6040 C   0  0  0  0  0  0  0  0  0  0  0  0
    2.2210   21.2410  -36.2990 O   0  0  0  0  0  0  0  0  0  0  0  0
    1.7920   22.4220  -35.6530 C   0  0  0  0  0  0  0  0  0  0  0  0
    0.2630   22.5330  -35.7070 C   0  0  0  0  0  0  0  0  0  0  0  0
   -5.0220   19.8900  -33.2650 C   0  0  0  0  0  0  0  0  0  0  0  0
   -4.1443   25.0375  -27.1412 H   0  0  0  0  0  0  0  0  0  0  0  0
   -5.2149   23.6545  -27.5508 H   0  0  0  0  0  0  0  0  0  0  0  0
   -3.4314   23.4404  -27.5508 H   0  0  0  0  0  0  0  0  0  0  0  0
   -5.0371   24.0457  -29.7652 H   0  0  0  0  0  0  0  0  0  0  0  0
   -4.2771   25.6369  -29.2827 H   0  0  0  0  0  0  0  0  0  0  0  0
   -1.1973   25.1528  -29.2803 H   0  0  0  0  0  0  0  0  0  0  0  0
   -2.0844   24.1434  -28.0251 H   0  0  0  0  0  0  0  0  0  0  0  0
   -0.4256   22.6717  -28.2822 H   0  0  0  0  0  0  0  0  0  0  0  0
   -1.2416   22.2459  -29.8247 H   0  0  0  0  0  0  0  0  0  0  0  0
    0.1303   23.4054  -29.8247 H   0  0  0  0  0  0  0  0  0  0  0  0
   -2.3757   23.1766  -31.6998 H   0  0  0  0  0  0  0  0  0  0  0  0
   -2.8033   22.0996  -30.3153 H   0  0  0  0  0  0  0  0  0  0  0  0
   -5.0773   22.2557  -30.7073 H   0  0  0  0  0  0  0  0  0  0  0  0
   -4.9401   23.9097  -31.4271 H   0  0  0  0  0  0  0  0  0  0  0  0
   -4.7080   23.0390  -33.4670 H   0  0  0  0  0  0  0  0  0  0  0  0
   -3.5560   22.0200  -33.0060 H   0  0  0  0  0  0  0  0  0  0  0  0
   -6.6675   23.5623  -32.2159 H   0  0  0  0  0  0  0  0  0  0  0  0
   -9.0817   23.8939  -31.7547 H   0  0  0  0  0  0  0  0  0  0  0  0
  -10.6440   21.9624  -31.8130 H   0  0  0  0  0  0  0  0  0  0  0  0
   -9.7793   19.6752  -32.2366 H   0  0  0  0  0  0  0  0  0  0  0  0
   -8.0386   17.8384  -31.0485 H   0  0  0  0  0  0  0  0  0  0  0  0
   -9.0468   17.9640  -32.5298 H   0  0  0  0  0  0  0  0  0  0  0  0
   -7.5750   16.9343  -32.5298 H   0  0  0  0  0  0  0  0  0  0  0  0
   -6.3721   16.7293  -33.6245 H   0  0  0  0  0  0  0  0  0  0  0  0
   -4.1312   16.2699  -34.5551 H   0  0  0  0  0  0  0  0  0  0  0  0
   -2.4276   18.0550  -34.6399 H   0  0  0  0  0  0  0  0  0  0  0  0
   -2.4890   20.8940  -34.9130 H   0  0  0  0  0  0  0  0  0  0  0  0
   -1.8975   21.1455  -32.0973 H   0  0  0  0  0  0  0  0  0  0  0  0
   -1.2000   19.6160  -32.7850 H   0  0  0  0  0  0  0  0  0  0  0  0
   -0.4249   22.4746  -33.2699 H   0  0  0  0  0  0  0  0  0  0  0  0
    0.5806   20.9799  -33.2302 H   0  0  0  0  0  0  0  0  0  0  0  0
   -0.1628   19.2709  -34.9633 H   0  0  0  0  0  0  0  0  0  0  0  0
   -0.1609   19.9825  -36.6343 H   0  0  0  0  0  0  0  0  0  0  0  0
    2.0884   20.1423  -34.5665 H   0  0  0  0  0  0  0  0  0  0  0  0
    2.0777   19.2055  -36.1135 H   0  0  0  0  0  0  0  0  0  0  0  0
    2.1173   22.3996  -34.6024 H   0  0  0  0  0  0  0  0  0  0  0  0
    2.2321   23.2902  -36.1654 H   0  0  0  0  0  0  0  0  0  0  0  0
   -0.0490   23.4457  -35.1782 H   0  0  0  0  0  0  0  0  0  0  0  0
   -0.0457   22.5702  -36.7622 H   0  0  0  0  0  0  0  0  0  0  0  0
  1  2  1  0
  2  3  1  0
  3  4  1  0
  4  5  1  0
  3  6  1  0
  6  7  1  0
  7  8  1  0
  8  9  1  0
  9 10  2  0
 10 11  1  0
 11 12  2  0
 12 13  1  0
 13 14  2  0
 14 15  1  0
 15 16  2  0
 16 17  1  0
 16 18  1  0
 18 19  2  0
 19 20  1  0
 20 21  2  0
 21 22  1  0
 22 23  1  0
 23 24  1  0
 24 25  1  0
 25 26  1  0
 26 27  1  0
 27 28  1  0
 28 29  1  0
 29 30  1  0
 30 31  1  0
 22 32  2  0
 32  9  1  0
 15 10  1  0
 32 18  1  0
 31 26  1  0
  1 33  1  0
  1 34  1  0
  1 35  1  0
  2 36  1  0
  2 37  1  0
  4 38  1  0
  4 39  1  0
  5 40  1  0
  5 41  1  0
  5 42  1  0
  6 43  1  0
  6 44  1  0
  7 45  1  0
  7 46  1  0
  8 47  1  0
  8 48  1  0
 11 49  1  0
 12 50  1  0
 13 51  1  0
 14 52  1  0
 17 53  1  0
 17 54  1  0
 17 55  1  0
 19 56  1  0
 20 57  1  0
 21 58  1  0
 23 59  1  0
 24 60  1  0
 24 61  1  0
 25 62  1  0
 25 63  1  0
 27 64  1  0
 27 65  1  0
 28 66  1  0
 28 67  1  0
 30 68  1  0
 30 69  1  0
 31 70  1  0
 31 71  1  0
M  CHG  2   8   1  16   1
M  END
>  <UniqueID>  (6) 
6

>  <SMILES>  (6) 
CCN(CC)CC[NH2+]c1c2ccccc2[n+](C)c2cccc(NCCN3CCOCC3)c12

>  <Energy>  (6) 
127.0655424209275

>  <Genealogy>  (6) 
CCN(CC)CC[NH2+]c1c2ccccc2[n+](C)c2cccc(NCCN3CCOCC3)c12 (protonated)
CCN(CC)CC[NH2+]c1c2ccccc2[n+](C)c2cccc(NCCN3CCOCC3)c12 (3D coordinates assigned)
CCN(CC)CC[NH2+]c1c2ccccc2[n+](C)c2cccc(NCCN3CCOCC3)c12 (nonaromatic ring conformer: 127.0655424209275 kcal/mol)

>  <smiles>  (6) 
CCN(CC)CCNc1c2ccccc2[n+](C)c2cccc(NCCN3CCOCC3)c12

>  <score_type>  (6) 
oracle

>  <origin>  (6) 
adg

>  <m_score__min__energy>  (6) 
-8.8800000000000008

>  <m_primary>  (6) 
energy

$$$$
6:0
     RDKit          3D

 56 58  0  0  0  0  0  0  0  0999 V2000
   -1.4310   18.5750  -32.7410 C   0  0  0  0  0  0  0  0  0  0  0  0
   -1.3240   19.3300  -34.0730 C   0  0  0  0  0  0  0  0  0  0  0  0
   -1.4500   20.8080  -33.9580 N   0  0  0  0  0  0  0  0  0  0  0  0
   -0.3250   21.5460  -34.5840 C   0  0  0  0  0  0  0  0  0  0  0  0
    0.2620   20.7950  -35.7790 C   0  0  0  0  0  0  0  0  0  0  0  0
   -1.6730   21.2210  -32.5520 C   0  0  0  0  0  0  0  0  0  0  0  0
   -3.0650   21.8430  -32.3190 C   0  0  0  0  0  0  0  0  0  0  0  0
   -3.9930   21.6750  -33.4590 N   0  0  0  0  0  0  0  0  0  0  0  0
   -5.2320   21.0170  -33.0660 C   0  0  0  0  0  0  0  0  0  0  0  0
   -6.2130   21.7380  -32.3320 C   0  0  0  0  0  0  0  0  0  0  0  0
   -7.4160   21.1080  -31.9570 C   0  0  0  0  0  0  0  0  0  0  0  0
   -7.7120   19.8430  -32.4040 N   0  0  0  0  0  0  0  0  0  0  0  0
   -9.0960   19.3340  -32.2910 C   0  0  0  0  0  0  0  0  0  0  0  0
   -6.7260   19.0630  -32.9740 C   0  0  0  0  0  0  0  0  0  0  0  0
   -6.9240   17.6730  -33.1790 C   0  0  0  0  0  0  0  0  0  0  0  0
   -5.9600   16.8780  -33.8150 C   0  0  0  0  0  0  0  0  0  0  0  0
   -6.1820   15.4700  -34.0210 N   0  0  0  0  0  0  0  0  0  0  0  0
   -5.3250   14.6300  -33.6750 O   0  0  0  0  0  0  0  0  0  0  0  0
   -7.3470   15.0240  -34.6000 O   0  0  0  0  0  0  0  0  0  0  0  0
   -4.7770   17.4740  -34.2470 C   0  0  0  0  0  0  0  0  0  0  0  0
   -4.5380   18.8270  -34.0220 C   0  0  0  0  0  0  0  0  0  0  0  0
   -5.4820   19.6430  -33.3550 C   0  0  0  0  0  0  0  0  0  0  0  0
   -8.3710   21.8950  -31.0710 C   0  0  0  0  0  0  0  0  0  0  0  0
   -7.5970   22.6480  -29.9830 C   0  0  0  0  0  0  0  0  0  0  0  0
   -6.4530   23.5190  -30.5390 C   0  0  0  0  0  0  0  0  0  0  0  0
   -6.0890   23.2210  -32.0020 C   0  0  0  0  0  0  0  0  0  0  0  0
   -1.3303   19.2858  -31.9075 H   0  0  0  0  0  0  0  0  0  0  0  0
   -2.4090   18.0751  -32.6804 H   0  0  0  0  0  0  0  0  0  0  0  0
   -0.6304   17.8230  -32.6804 H   0  0  0  0  0  0  0  0  0  0  0  0
   -0.3444   19.1026  -34.5187 H   0  0  0  0  0  0  0  0  0  0  0  0
   -2.1681   18.9920  -34.6921 H   0  0  0  0  0  0  0  0  0  0  0  0
   -0.6901   22.5258  -34.9256 H   0  0  0  0  0  0  0  0  0  0  0  0
    0.4687   21.6560  -33.8303 H   0  0  0  0  0  0  0  0  0  0  0  0
    0.9021   19.9761  -35.4189 H   0  0  0  0  0  0  0  0  0  0  0  0
   -0.5545   20.3811  -36.3890 H   0  0  0  0  0  0  0  0  0  0  0  0
    0.8608   21.4873  -36.3890 H   0  0  0  0  0  0  0  0  0  0  0  0
   -1.5723   20.3359  -31.9067 H   0  0  0  0  0  0  0  0  0  0  0  0
   -0.9248   21.9912  -32.3132 H   0  0  0  0  0  0  0  0  0  0  0  0
   -3.5134   21.3678  -31.4340 H   0  0  0  0  0  0  0  0  0  0  0  0
   -2.9142   22.9244  -32.1856 H   0  0  0  0  0  0  0  0  0  0  0  0
   -4.2220   22.6140  -33.8530 H   0  0  0  0  0  0  0  0  0  0  0  0
   -3.5130   21.2220  -34.2620 H   0  0  0  0  0  0  0  0  0  0  0  0
   -9.3648   19.2352  -31.2289 H   0  0  0  0  0  0  0  0  0  0  0  0
   -9.7863   20.0371  -32.7800 H   0  0  0  0  0  0  0  0  0  0  0  0
   -9.1663   18.3512  -32.7800 H   0  0  0  0  0  0  0  0  0  0  0  0
   -7.8575   17.2073  -32.8301 H   0  0  0  0  0  0  0  0  0  0  0  0
   -4.0233   16.8686  -34.7718 H   0  0  0  0  0  0  0  0  0  0  0  0
   -3.5941   19.2715  -34.3706 H   0  0  0  0  0  0  0  0  0  0  0  0
   -8.9242   22.6183  -31.6880 H   0  0  0  0  0  0  0  0  0  0  0  0
   -9.0694   21.1942  -30.5903 H   0  0  0  0  0  0  0  0  0  0  0  0
   -8.2997   23.2987  -29.4419 H   0  0  0  0  0  0  0  0  0  0  0  0
   -7.1410   21.8926  -29.3262 H   0  0  0  0  0  0  0  0  0  0  0  0
   -6.7561   24.5739  -30.4668 H   0  0  0  0  0  0  0  0  0  0  0  0
   -5.5605   23.2902  -29.9381 H   0  0  0  0  0  0  0  0  0  0  0  0
   -6.7650   23.7884  -32.6585 H   0  0  0  0  0  0  0  0  0  0  0  0
   -5.0410   23.5167  -32.1578 H   0  0  0  0  0  0  0  0  0  0  0  0
  1  2  1  0
  2  3  1  0
  3  4  1  0
  4  5  1  0
  3  6  1  0
  6  7  1  0
  7  8  1  0
  8  9  1  0
  9 10  2  0
 10 11  1  0
 11 12  2  0
 12 13  1  0
 12 14  1  0
 14 15  2  0
 15 16  1  0
 16 17  1  0
 17 18  2  0
 17 19  1  0
 16 20  2  0
 20 21  1  0
 21 22  2  0
 11 23  1  0
 23 24  1  0
 24 25  1  0
 25 26  1  0
 22  9  1  0
 26 10  1  0
 22 14  1  0
  1 27  1  0
  1 28  1  0
  1 29  1  0
  2 30  1  0
  2 31  1  0
  4 32  1  0
  4 33  1  0
  5 34  1  0
  5 35  1  0
  5 36  1  0
  6 37  1  0
  6 38  1  0
  7 39  1  0
  7 40  1  0
  8 41  1  0
  8 42  1  0
 13 43  1  0
 13 44  1  0
 13 45  1  0
 15 46  1  0
 20 47  1  0
 21 48  1  0
 23 49  1  0
 23 50  1  0
 24 51  1  0
 24 52  1  0
 25 53  1  0
 25 54  1  0
 26 55  1  0
 26 56  1  0
M  CHG  4   8   1  12   1  17   1  19  -1
M  END
>  <UniqueID>  (7) 
7

>  <SMILES>  (7) 
CCN(CC)CC[NH2+]c1c2c([n+](C)c3cc([N+](=O)[O-])ccc13)CCCC2

>  <Energy>  (7) 
87.8492475048407

>  <Genealogy>  (7) 
CCN(CC)CC[NH2+]c1c2c([n+](C)c3cc([N+](=O)[O-])ccc13)CCCC2 (protonated)
CCN(CC)CC[NH2+]c1c2c([n+](C)c3cc([N+](=O)[O-])ccc13)CCCC2 (3D coordinates assigned)
CCN(CC)CC[NH2+]c1c2c([n+](C)c3cc([N+](=O)[O-])ccc13)CCCC2 (nonaromatic ring conformer: 87.8492475048407 kcal/mol)

>  <smiles>  (7) 
CCN(CC)CCNc1c2c([n+](C)c3cc([N+](=O)[O-])ccc13)CCCC2

>  <score_type>  (7) 
oracle

>  <origin>  (7) 
adg

>  <m_score__min__energy>  (7) 
-7.54

>  <m_primary>  (7) 
energy

$$$$
7:0
     RDKit          3D

 56 57  0  0  0  0  0  0  0  0999 V2000
    0.2590   21.9140  -35.7070 C   0  0  0  0  0  0  0  0  0  0  0  0
    0.5940   20.9910  -34.5240 C   0  0  0  0  0  0  0  0  0  0  0  0
   -0.5800   20.5840  -33.7160 N   0  0  0  0  0  0  0  0  0  0  0  0
   -0.3510   20.6940  -32.2660 C   0  0  0  0  0  0  0  0  0  0  0  0
   -1.1350   19.2660  -34.1030 C   0  0  0  0  0  0  0  0  0  0  0  0
   -2.5250   19.0500  -33.4540 C   0  0  2  0  0  0  0  0  0  0  0  0
   -3.1890   17.7730  -34.0340 C   0  0  0  0  0  0  0  0  0  0  0  0
   -4.5660   17.5360  -33.5280 N   0  0  0  0  0  0  0  0  0  0  0  0
   -4.8920   16.1000  -33.2430 C   0  0  0  0  0  0  0  0  0  0  0  0
   -5.3320   15.8060  -31.7910 C   0  0  0  0  0  0  0  0  0  0  0  0
   -6.0270   15.6430  -34.1770 C   0  0  0  0  0  0  0  0  0  0  0  0
   -5.6160   18.1620  -34.3760 C   0  0  0  0  0  0  0  0  0  0  0  0
   -5.7290   19.6900  -34.1850 C   0  0  0  0  0  0  0  0  0  0  0  0
   -4.8270   20.2710  -33.1460 N   0  0  2  0  0  0  0  0  0  0  0  0
   -5.3690   21.5460  -32.6030 C   0  0  0  0  0  0  0  0  0  0  0  0
   -6.8220   21.4220  -32.1770 C   0  0  0  0  0  0  0  0  0  0  0  0
   -7.6840   22.5320  -32.2870 C   0  0  0  0  0  0  0  0  0  0  0  0
   -7.2220   23.7220  -32.7510 F   0  0  0  0  0  0  0  0  0  0  0  0
   -9.0270   22.4250  -31.9130 C   0  0  0  0  0  0  0  0  0  0  0  0
   -9.5230   21.2170  -31.4200 C   0  0  0  0  0  0  0  0  0  0  0  0
   -8.6770   20.1150  -31.2930 C   0  0  0  0  0  0  0  0  0  0  0  0
   -7.3320   20.2120  -31.6630 C   0  0  0  0  0  0  0  0  0  0  0  0
   -6.5330   19.1300  -31.5060 F   0  0  0  0  0  0  0  0  0  0  0  0
   -3.3770   20.3650  -33.4840 C   0  0  0  0  0  0  0  0  0  0  0  0
   -0.0932   22.8843  -35.3268 H   0  0  0  0  0  0  0  0  0  0  0  0
    1.1595   22.0655  -36.3203 H   0  0  0  0  0  0  0  0  0  0  0  0
   -0.5290   21.4526  -36.3203 H   0  0  0  0  0  0  0  0  0  0  0  0
    1.0710   20.0825  -34.9203 H   0  0  0  0  0  0  0  0  0  0  0  0
    1.2535   21.5633  -33.8550 H   0  0  0  0  0  0  0  0  0  0  0  0
   -1.2148   20.2791  -31.7259 H   0  0  0  0  0  0  0  0  0  0  0  0
    0.5553   20.1330  -31.9943 H   0  0  0  0  0  0  0  0  0  0  0  0
   -0.2224   21.7521  -31.9943 H   0  0  0  0  0  0  0  0  0  0  0  0
   -1.2361   19.2232  -35.1975 H   0  0  0  0  0  0  0  0  0  0  0  0
   -0.4531   18.4767  -33.7536 H   0  0  0  0  0  0  0  0  0  0  0  0
   -2.4265   18.8438  -32.3780 H   0  0  0  0  0  0  0  0  0  0  0  0
   -3.2328   17.8705  -35.1288 H   0  0  0  0  0  0  0  0  0  0  0  0
   -2.5762   16.9173  -33.7143 H   0  0  0  0  0  0  0  0  0  0  0  0
   -3.9532   15.5514  -33.4095 H   0  0  0  0  0  0  0  0  0  0  0  0
   -4.6262   16.2776  -31.0914 H   0  0  0  0  0  0  0  0  0  0  0  0
   -6.3405   16.2123  -31.6241 H   0  0  0  0  0  0  0  0  0  0  0  0
   -5.3425   14.7188  -31.6241 H   0  0  0  0  0  0  0  0  0  0  0  0
   -6.8811   15.2991  -33.5751 H   0  0  0  0  0  0  0  0  0  0  0  0
   -6.3410   16.4848  -34.8117 H   0  0  0  0  0  0  0  0  0  0  0  0
   -5.6700   14.8185  -34.8117 H   0  0  0  0  0  0  0  0  0  0  0  0
   -5.3789   17.9592  -35.4308 H   0  0  0  0  0  0  0  0  0  0  0  0
   -6.5795   17.7252  -34.0746 H   0  0  0  0  0  0  0  0  0  0  0  0
   -5.4947   20.1710  -35.1461 H   0  0  0  0  0  0  0  0  0  0  0  0
   -6.7554   19.8783  -33.8370 H   0  0  0  0  0  0  0  0  0  0  0  0
   -4.8580   19.5770  -32.3590 H   0  0  0  0  0  0  0  0  0  0  0  0
   -4.7688   21.8418  -31.7299 H   0  0  0  0  0  0  0  0  0  0  0  0
   -5.3166   22.3003  -33.4019 H   0  0  0  0  0  0  0  0  0  0  0  0
   -9.6940   23.2946  -32.0075 H   0  0  0  0  0  0  0  0  0  0  0  0
  -10.5812   21.1339  -31.1315 H   0  0  0  0  0  0  0  0  0  0  0  0
   -9.0697   19.1656  -30.9001 H   0  0  0  0  0  0  0  0  0  0  0  0
   -3.3049   20.7777  -34.5011 H   0  0  0  0  0  0  0  0  0  0  0  0
   -2.9493   20.9863  -32.6834 H   0  0  0  0  0  0  0  0  0  0  0  0
  1  2  1  0
  2  3  1  0
  3  4  1  0
  3  5  1  0
  5  6  1  0
  6  7  1  0
  7  8  1  0
  8  9  1  0
  9 10  1  0
  9 11  1  0
  8 12  1  0
 12 13  1  0
 13 14  1  0
 14 15  1  0
 15 16  1  0
 16 17  2  0
 17 18  1  0
 17 19  1  0
 19 20  2  0
 20 21  1  0
 21 22  2  0
 22 23  1  0
 14 24  1  0
 24  6  1  0
 22 16  1  0
  1 25  1  0
  1 26  1  0
  1 27  1  0
  2 28  1  0
  2 29  1  0
  4 30  1  0
  4 31  1  0
  4 32  1  0
  5 33  1  0
  5 34  1  0
  6 35  1  1
  7 36  1  0
  7 37  1  0
  9 38  1  0
 10 39  1  0
 10 40  1  0
 10 41  1  0
 11 42  1  0
 11 43  1  0
 11 44  1  0
 12 45  1  0
 12 46  1  0
 13 47  1  0
 13 48  1  0
 14 49  1  1
 15 50  1  0
 15 51  1  0
 19 52  1  0
 20 53  1  0
 21 54  1  0
 24 55  1  0
 24 56  1  0
M  CHG  1  14   1
M  END
>  <UniqueID>  (8) 
8

>  <SMILES>  (8) 
CCN(C)C[C@@H]1CN(C(C)C)CC[N@H+](Cc2c(F)cccc2F)C1

>  <Energy>  (8) 
91.77538565974506

>  <Genealogy>  (8) 
CCN(C)CC1CN(C(C)C)CC[NH+](Cc2c(F)cccc2F)C1 (protonated)
CCN(C)C[C@@H]1CN(C(C)C)CC[N@H+](Cc2c(F)cccc2F)C1 (chirality)
CCN(C)C[C@@H]1CN(C(C)C)CC[N@H+](Cc2c(F)cccc2F)C1 (3D coordinates assigned)
CCN(C)C[C@@H]1CN(C(C)C)CC[N@H+](Cc2c(F)cccc2F)C1 (nonaromatic ring conformer: 91.77538565974506 kcal/mol)

>  <smiles>  (8) 
CCN(C)CC1CN(Cc2c(F)cccc2F)CCN(C(C)C)C1

>  <score_type>  (8) 
oracle

>  <origin>  (8) 
adg

>  <m_score__min__energy>  (8) 
-4.3600000000000003

>  <m_primary>  (8) 
energy

$$$$
8:0
     RDKit          3D

 42 43  0  0  0  0  0  0  0  0999 V2000
   -4.0760   23.9630  -28.4740 C   0  0  0  0  0  0  0  0  0  0  0  0
   -3.4790   24.5240  -29.7620 C   0  0  0  0  0  0  0  0  0  0  0  0
   -4.5210   24.6070  -30.8120 N   0  0  0  0  0  0  0  0  0  0  0  0
   -5.5490   25.6190  -30.4740 C   0  0  0  0  0  0  0  0  0  0  0  0
   -6.8550   24.9390  -30.0710 C   0  0  0  0  0  0  0  0  0  0  0  0
   -5.1400   23.2820  -31.0520 C   0  0  0  0  0  0  0  0  0  0  0  0
   -4.1650   22.3700  -31.7990 C   0  0  0  0  0  0  0  0  0  0  0  0
   -4.7570   21.9250  -33.0600 N   0  0  0  0  0  0  0  0  0  0  0  0
   -5.1960   20.5690  -33.2260 C   0  0  0  0  0  0  0  0  0  0  0  0
   -4.3230   19.6010  -33.7630 C   0  0  0  0  0  0  0  0  0  0  0  0
   -2.9990   19.9450  -34.1950 N   0  0  0  0  0  0  0  0  0  0  0  0
   -4.7480   18.2690  -33.8540 C   0  0  0  0  0  0  0  0  0  0  0  0
   -5.9910   17.8980  -33.4400 N   0  0  0  0  0  0  0  0  0  0  0  0
   -6.3340   16.5630  -33.5430 O   0  0  0  0  0  0  0  0  0  0  0  0
   -6.8730   18.8210  -32.9440 C   0  0  0  0  0  0  0  0  0  0  0  0
   -8.1220   18.4370  -32.5590 N   0  0  0  0  0  0  0  0  0  0  0  0
   -9.0340   19.3210  -32.0770 C   0  0  0  0  0  0  0  0  0  0  0  0
   -8.7100   20.6720  -31.9690 C   0  0  0  0  0  0  0  0  0  0  0  0
   -7.4390   21.1050  -32.3510 C   0  0  0  0  0  0  0  0  0  0  0  0
   -6.4940   20.1810  -32.8340 C   0  0  0  0  0  0  0  0  0  0  0  0
   -3.5817   24.4275  -27.6080 H   0  0  0  0  0  0  0  0  0  0  0  0
   -5.1533   24.1831  -28.4429 H   0  0  0  0  0  0  0  0  0  0  0  0
   -3.9232   22.8741  -28.4429 H   0  0  0  0  0  0  0  0  0  0  0  0
   -3.0763   25.5292  -29.5687 H   0  0  0  0  0  0  0  0  0  0  0  0
   -2.6738   23.8580  -30.1056 H   0  0  0  0  0  0  0  0  0  0  0  0
   -5.1887   26.2359  -29.6375 H   0  0  0  0  0  0  0  0  0  0  0  0
   -5.7329   26.2486  -31.3571 H   0  0  0  0  0  0  0  0  0  0  0  0
   -6.9258   24.9021  -28.9739 H   0  0  0  0  0  0  0  0  0  0  0  0
   -7.7049   25.5091  -30.4744 H   0  0  0  0  0  0  0  0  0  0  0  0
   -6.8753   23.9158  -30.4744 H   0  0  0  0  0  0  0  0  0  0  0  0
   -5.4003   22.8226  -30.0870 H   0  0  0  0  0  0  0  0  0  0  0  0
   -6.0459   23.4146  -31.6618 H   0  0  0  0  0  0  0  0  0  0  0  0
   -3.2374   22.9230  -32.0080 H   0  0  0  0  0  0  0  0  0  0  0  0
   -3.9451   21.4911  -31.1752 H   0  0  0  0  0  0  0  0  0  0  0  0
   -4.5960   22.5080  -33.9100 H   0  0  0  0  0  0  0  0  0  0  0  0
   -2.7810   20.8680  -34.6280 H   0  0  0  0  0  0  0  0  0  0  0  0
   -2.2110   19.2690  -34.0790 H   0  0  0  0  0  0  0  0  0  0  0  0
   -4.0664   17.5106  -34.2666 H   0  0  0  0  0  0  0  0  0  0  0  0
   -7.2500   16.2180  -33.2790 H   0  0  0  0  0  0  0  0  0  0  0  0
  -10.0305   18.9695  -31.7713 H   0  0  0  0  0  0  0  0  0  0  0  0
   -9.4492   21.3910  -31.5861 H   0  0  0  0  0  0  0  0  0  0  0  0
   -7.1758   22.1703  -32.2743 H   0  0  0  0  0  0  0  0  0  0  0  0
  1  2  1  0
  2  3  1  0
  3  4  1  0
  4  5  1  0
  3  6  1  0
  6  7  1  0
  7  8  1  0
  8  9  1  0
  9 10  2  0
 10 11  1  0
 10 12  1  0
 12 13  2  0
 13 14  1  0
 13 15  1  0
 15 16  2  0
 16 17  1  0
 17 18  2  0
 18 19  1  0
 19 20  2  0
 20  9  1  0
 20 15  1  0
  1 21  1  0
  1 22  1  0
  1 23  1  0
  2 24  1  0
  2 25  1  0
  4 26  1  0
  4 27  1  0
  5 28  1  0
  5 29  1  0
  5 30  1  0
  6 31  1  0
  6 32  1  0
  7 33  1  0
  7 34  1  0
  8 35  1  0
 11 36  1  0
 11 37  1  0
 12 38  1  0
 14 39  1  0
 17 40  1  0
 18 41  1  0
 19 42  1  0
M  CHG  1  13   1
M  END
>  <UniqueID>  (9) 
9

>  <SMILES>  (9) 
CCN(CC)CCNc1c(N)c[n+](O)c2ncccc12

>  <Energy>  (9) 
48.74084143111707

>  <Genealogy>  (9) 
CCN(CC)CCNc1c(N)c[n+](O)c2ncccc12 (protonated)
CCN(CC)CCNc1c(N)c[n+](O)c2ncccc12 (3D coordinates assigned)
CCN(CC)CCNc1c(N)c[n+](O)c2ncccc12 (optimized conformer: 48.74084143111707 kcal/mol)

>  <smiles>  (9) 
CCN(CC)CCNc1c(N)c[n+]([O-])c2ncccc12

>  <score_type>  (9) 
oracle

>  <origin>  (9) 
adg

>  <m_score__min__energy>  (9) 
-6.54

>  <m_primary>  (9) 
energy

$$$$
9:0
     RDKit          3D

 79 82  0  0  0  0  0  0  0  0999 V2000
   -6.8600   16.8200  -33.8320 C   0  0  0  0  0  0  0  0  0  0  0  0
   -5.8550   16.8430  -32.6680 C   0  0  0  0  0  0  0  0  0  0  0  0
   -4.4980   17.2950  -33.0570 N   0  0  0  0  0  0  0  0  0  0  0  0
   -3.5640   16.1760  -33.3050 C   0  0  0  0  0  0  0  0  0  0  0  0
   -4.1130   14.8760  -32.7170 C   0  0  0  0  0  0  0  0  0  0  0  0
   -4.5160   18.2980  -34.1470 C   0  0  0  0  0  0  0  0  0  0  0  0
   -4.2830   19.6900  -33.5520 C   0  0  0  0  0  0  0  0  0  0  0  0
   -4.2920   19.6870  -32.0740 N   0  0  0  0  0  0  0  0  0  0  0  0
   -4.9330   20.8640  -31.5120 C   0  0  0  0  0  0  0  0  0  0  0  0
   -6.3510   20.9830  -31.6290 C   0  0  0  0  0  0  0  0  0  0  0  0
   -7.1500   19.9470  -32.1870 C   0  0  0  0  0  0  0  0  0  0  0  0
   -8.5340   20.0730  -32.2860 C   0  0  0  0  0  0  0  0  0  0  0  0
   -9.1630   21.2170  -31.8260 C   0  0  0  0  0  0  0  0  0  0  0  0
   -8.4120   22.2500  -31.2760 C   0  0  0  0  0  0  0  0  0  0  0  0
   -6.9980   22.1640  -31.1830 C   0  0  0  0  0  0  0  0  0  0  0  0
   -6.2590   23.1890  -30.6470 N   0  0  0  0  0  0  0  0  0  0  0  0
   -6.8680   24.5300  -30.4900 C   0  0  0  0  0  0  0  0  0  0  0  0
   -4.9570   22.9720  -30.2550 C   0  0  0  0  0  0  0  0  0  0  0  0
   -4.3630   23.8330  -29.3060 C   0  0  0  0  0  0  0  0  0  0  0  0
   -3.0460   23.6760  -28.9070 C   0  0  0  0  0  0  0  0  0  0  0  0
   -2.4460   24.6110  -27.8950 C   0  0  0  0  0  0  0  0  0  0  0  0
   -2.2600   22.7180  -29.5270 C   0  0  0  0  0  0  0  0  0  0  0  0
   -2.7850   21.8380  -30.4980 C   0  0  0  0  0  0  0  0  0  0  0  0
   -1.8870   20.9810  -31.1780 O   0  0  0  0  0  0  0  0  0  0  0  0
   -0.5030   20.8210  -30.8280 C   0  0  0  0  0  0  0  0  0  0  0  0
   -0.1980   19.5540  -29.9920 C   0  0  0  0  0  0  0  0  0  0  0  0
   -0.4240   19.6270  -28.5010 N   0  0  0  0  0  0  0  0  0  0  0  0
    0.1270   18.3640  -27.9290 C   0  0  0  0  0  0  0  0  0  0  0  0
   -1.8850   19.6890  -28.1730 C   0  0  0  0  0  0  0  0  0  0  0  0
   -2.1700   19.8250  -26.6620 C   0  0  0  0  0  0  0  0  0  0  0  0
   -1.2360   20.8300  -25.9640 C   0  0  0  0  0  0  0  0  0  0  0  0
   -0.4630   21.6820  -26.9680 C   0  0  0  0  0  0  0  0  0  0  0  0
    0.3500   20.7820  -27.9170 C   0  0  0  0  0  0  0  0  0  0  0  0
   -4.2050   21.8690  -30.7770 C   0  0  0  0  0  0  0  0  0  0  0  0
   -7.8843   16.7966  -33.4316 H   0  0  0  0  0  0  0  0  0  0  0  0
   -6.7278   17.7214  -34.4484 H   0  0  0  0  0  0  0  0  0  0  0  0
   -6.6867   15.9256  -34.4484 H   0  0  0  0  0  0  0  0  0  0  0  0
   -6.2379   17.5230  -31.8928 H   0  0  0  0  0  0  0  0  0  0  0  0
   -5.7569   15.8077  -32.3094 H   0  0  0  0  0  0  0  0  0  0  0  0
   -3.4274   16.0528  -34.3895 H   0  0  0  0  0  0  0  0  0  0  0  0
   -2.6016   16.4042  -32.8236 H   0  0  0  0  0  0  0  0  0  0  0  0
   -4.0895   14.9317  -31.6187 H   0  0  0  0  0  0  0  0  0  0  0  0
   -5.1497   14.7299  -33.0546 H   0  0  0  0  0  0  0  0  0  0  0  0
   -3.4949   14.0311  -33.0546 H   0  0  0  0  0  0  0  0  0  0  0  0
   -3.7202   18.0692  -34.8711 H   0  0  0  0  0  0  0  0  0  0  0  0
   -5.4897   18.2720  -34.6581 H   0  0  0  0  0  0  0  0  0  0  0  0
   -3.3069   20.0615  -33.8973 H   0  0  0  0  0  0  0  0  0  0  0  0
   -5.1065   20.3373  -33.8881 H   0  0  0  0  0  0  0  0  0  0  0  0
   -3.3090   19.6280  -31.7250 H   0  0  0  0  0  0  0  0  0  0  0  0
   -4.6710   18.8140  -31.6940 H   0  0  0  0  0  0  0  0  0  0  0  0
   -6.6654   19.0277  -32.5477 H   0  0  0  0  0  0  0  0  0  0  0  0
   -9.1283   19.2613  -32.7308 H   0  0  0  0  0  0  0  0  0  0  0  0
  -10.2569   21.3090  -31.8955 H   0  0  0  0  0  0  0  0  0  0  0  0
   -8.9232   23.1509  -30.9059 H   0  0  0  0  0  0  0  0  0  0  0  0
   -6.9733   24.7619  -29.4199 H   0  0  0  0  0  0  0  0  0  0  0  0
   -6.2237   25.2834  -30.9668 H   0  0  0  0  0  0  0  0  0  0  0  0
   -7.8593   24.5406  -30.9668 H   0  0  0  0  0  0  0  0  0  0  0  0
   -4.9611   24.6484  -28.8731 H   0  0  0  0  0  0  0  0  0  0  0  0
   -2.6768   24.2513  -26.8814 H   0  0  0  0  0  0  0  0  0  0  0  0
   -1.3551   24.6480  -28.0314 H   0  0  0  0  0  0  0  0  0  0  0  0
   -2.8669   25.6181  -28.0314 H   0  0  0  0  0  0  0  0  0  0  0  0
   -1.1970   22.6410  -29.2549 H   0  0  0  0  0  0  0  0  0  0  0  0
    0.0833   20.7696  -31.7573 H   0  0  0  0  0  0  0  0  0  0  0  0
   -0.2358   21.6838  -30.2001 H   0  0  0  0  0  0  0  0  0  0  0  0
   -0.8312   18.7431  -30.3811 H   0  0  0  0  0  0  0  0  0  0  0  0
    0.8858   19.4019  -30.1023 H   0  0  0  0  0  0  0  0  0  0  0  0
    0.1034   18.4180  -26.8306 H   0  0  0  0  0  0  0  0  0  0  0  0
   -0.4813   17.5122  -28.2673 H   0  0  0  0  0  0  0  0  0  0  0  0
    1.1651   18.2305  -28.2673 H   0  0  0  0  0  0  0  0  0  0  0  0
   -2.3216   20.5566  -28.6894 H   0  0  0  0  0  0  0  0  0  0  0  0
   -2.3320   18.7397  -28.5031 H   0  0  0  0  0  0  0  0  0  0  0  0
   -3.2090   20.1612  -26.5297 H   0  0  0  0  0  0  0  0  0  0  0  0
   -1.9967   18.8402  -26.2036 H   0  0  0  0  0  0  0  0  0  0  0  0
   -1.8396   21.4923  -25.3260 H   0  0  0  0  0  0  0  0  0  0  0  0
   -0.5074   20.2607  -25.3681 H   0  0  0  0  0  0  0  0  0  0  0  0
   -1.1722   22.2829  -27.5562 H   0  0  0  0  0  0  0  0  0  0  0  0
    0.2268   22.3420  -26.4216 H   0  0  0  0  0  0  0  0  0  0  0  0
    0.7189   21.4027  -28.7468 H   0  0  0  0  0  0  0  0  0  0  0  0
    1.1591   20.3432  -27.3147 H   0  0  0  0  0  0  0  0  0  0  0  0
  1  2  1  0
  2  3  1  0
  3  4  1  0
  4  5  1  0
  3  6  1  0
  6  7  1  0
  7  8  1  0
  8  9  1  0
  9 10  2  0
 10 11  1  0
 11 12  2  0
 12 13  1  0
 13 14  2  0
 14 15  1  0
 15 16  2  0
 16 17  1  0
 16 18  1  0
 18 19  2  0
 19 20  1  0
 20 21  1  0
 20 22  2  0
 22 23  1  0
 23 24  1  0
 24 25  1  0
 25 26  1  0
 26 27  1  0
 27 28  1  0
 27 29  1  0
 29 30  1  0
 30 31  1  0
 31 32  1  0
 32 33  1  0
 23 34  2  0
 34  9  1  0
 15 10  1  0
 34 18  1  0
 33 27  1  0
  1 35  1  0
  1 36  1  0
  1 37  1  0
  2 38  1  0
  2 39  1  0
  4 40  1  0
  4 41  1  0
  5 42  1  0
  5 43  1  0
  5 44  1  0
  6 45  1  0
  6 46  1  0
  7 47  1  0
  7 48  1  0
  8 49  1  0
  8 50  1  0
 11 51  1  0
 12 52  1  0
 13 53  1  0
 14 54  1  0
 17 55  1  0
 17 56  1  0
 17 57  1  0
 19 58  1  0
 21 59  1  0
 21 60  1  0
 21 61  1  0
 22 62  1  0
 25 63  1  0
 25 64  1  0
 26 65  1  0
 26 66  1  0
 28 67  1  0
 28 68  1  0
 28 69  1  0
 29 70  1  0
 29 71  1  0
 30 72  1  0
 30 73  1  0
 31 74  1  0
 31 75  1  0
 32 76  1  0
 32 77  1  0
 33 78  1  0
 33 79  1  0
M  CHG  3   8   1  16   1  27   1
M  END
>  <UniqueID>  (10) 
10

>  <SMILES>  (10) 
CCN(CC)CC[NH2+]c1c2ccccc2[n+](C)c2cc(C)cc(OCC[N+]3(C)CCCCC3)c12

>  <Energy>  (10) 
140.00869408055854

>  <Genealogy>  (10) 
CCN(CC)CC[NH2+]c1c2ccccc2[n+](C)c2cc(C)cc(OCC[N+]3(C)CCCCC3)c12 (protonated)
CCN(CC)CC[NH2+]c1c2ccccc2[n+](C)c2cc(C)cc(OCC[N+]3(C)CCCCC3)c12 (3D coordinates assigned)
CCN(CC)CC[NH2+]c1c2ccccc2[n+](C)c2cc(C)cc(OCC[N+]3(C)CCCCC3)c12 (nonaromatic ring conformer: 140.00869408055854 kcal/mol)

>  <smiles>  (10) 
CCN(CC)CCNc1c2ccccc2[n+](C)c2cc(C)cc(OCC[N+]3(C)CCCCC3)c12

>  <score_type>  (10) 
oracle

>  <origin>  (10) 
adg

>  <m_score__min__energy>  (10) 
-8.75

>  <m_primary>  (10) 
energy

$$$$
10:0
     RDKit          3D

 31 32  0  0  0  0  0  0  0  0999 V2000
   -5.7180   25.8900  -30.3380 C   0  0  0  0  0  0  0  0  0  0  0  0
   -6.8590   25.0820  -29.7150 C   0  0  0  0  0  0  0  0  0  0  0  0
   -6.5160   23.6570  -29.5570 N   0  0  0  0  0  0  0  0  0  0  0  0
   -5.5190   23.1810  -30.5440 C   0  0  0  0  0  0  0  0  0  0  0  0
   -6.1060   23.0300  -31.9570 C   0  0  0  0  0  0  0  0  0  0  0  0
   -7.3130   22.1970  -31.9430 N   0  0  0  0  0  0  0  0  0  0  0  0
   -8.5810   22.6550  -31.8150 C   0  0  0  0  0  0  0  0  0  0  0  0
   -9.4900   21.6040  -31.8590 C   0  0  0  0  0  0  0  0  0  0  0  0
   -8.7250   20.4690  -32.0200 C   0  0  0  0  0  0  0  0  0  0  0  0
   -9.1100   19.1340  -32.1280 C   0  0  0  0  0  0  0  0  0  0  0  0
   -8.0980   18.1720  -32.2900 C   0  0  0  0  0  0  0  0  0  0  0  0
   -6.7420   18.5610  -32.3410 C   0  0  0  0  0  0  0  0  0  0  0  0
   -6.3830   19.9160  -32.2290 C   0  0  0  0  0  0  0  0  0  0  0  0
   -7.4090   20.8560  -32.0680 C   0  0  0  0  0  0  0  0  0  0  0  0
   -5.1002   26.3275  -29.5399 H   0  0  0  0  0  0  0  0  0  0  0  0
   -5.0979   25.2286  -30.9609 H   0  0  0  0  0  0  0  0  0  0  0  0
   -6.1360   26.6946  -30.9609 H   0  0  0  0  0  0  0  0  0  0  0  0
   -7.0899   25.5019  -28.7249 H   0  0  0  0  0  0  0  0  0  0  0  0
   -7.7243   25.1462  -30.3911 H   0  0  0  0  0  0  0  0  0  0  0  0
   -7.3910   23.0850  -29.5740 H   0  0  0  0  0  0  0  0  0  0  0  0
   -6.1070   23.5420  -28.5990 H   0  0  0  0  0  0  0  0  0  0  0  0
   -4.6902   23.9032  -30.5829 H   0  0  0  0  0  0  0  0  0  0  0  0
   -5.1785   22.1870  -30.2184 H   0  0  0  0  0  0  0  0  0  0  0  0
   -6.3618   24.0260  -32.3477 H   0  0  0  0  0  0  0  0  0  0  0  0
   -5.3545   22.5440  -32.5966 H   0  0  0  0  0  0  0  0  0  0  0  0
   -8.8543   23.7135  -31.6929 H   0  0  0  0  0  0  0  0  0  0  0  0
  -10.5856   21.6652  -31.7818 H   0  0  0  0  0  0  0  0  0  0  0  0
  -10.1700   18.8429  -32.0878 H   0  0  0  0  0  0  0  0  0  0  0  0
   -8.3646   17.1084  -32.3777 H   0  0  0  0  0  0  0  0  0  0  0  0
   -5.9600   17.7981  -32.4694 H   0  0  0  0  0  0  0  0  0  0  0  0
   -5.3289   20.2282  -32.2667 H   0  0  0  0  0  0  0  0  0  0  0  0
  1  2  1  0
  2  3  1  0
  3  4  1  0
  4  5  1  0
  5  6  1  0
  6  7  1  0
  7  8  2  0
  8  9  1  0
  9 10  2  0
 10 11  1  0
 11 12  2  0
 12 13  1  0
 13 14  2  0
 14  6  1  0
 14  9  1  0
  1 15  1  0
  1 16  1  0
  1 17  1  0
  2 18  1  0
  2 19  1  0
  3 20  1  0
  3 21  1  0
  4 22  1  0
  4 23  1  0
  5 24  1  0
  5 25  1  0
  7 26  1  0
  8 27  1  0
 10 28  1  0
 11 29  1  0
 12 30  1  0
 13 31  1  0
M  CHG  1   3   1
M  END
>  <UniqueID>  (11) 
11

>  <SMILES>  (11) 
CC[NH2+]CCn1ccc2ccccc21

>  <Energy>  (11) 
62.613506408032656

>  <Genealogy>  (11) 
CC[NH2+]CCn1ccc2ccccc21 (protonated)
CC[NH2+]CCn1ccc2ccccc21 (3D coordinates assigned)
CC[NH2+]CCn1ccc2ccccc21 (optimized conformer: 62.613506408032656 kcal/mol)

>  <smiles>  (11) 
CCNCCn1ccc2ccccc21

>  <score_type>  (11) 
oracle

>  <origin>  (11) 
adg

>  <m_score__min__energy>  (11) 
-5.5899999999999999

>  <m_primary>  (11) 
energy

$$$$
11:0
     RDKit          3D

 36 37  0  0  0  0  0  0  0  0999 V2000
   -6.3400   24.8210  -30.0670 C   0  0  0  0  0  0  0  0  0  0  0  0
   -5.2080   25.7500  -30.5150 C   0  0  0  0  0  0  0  0  0  0  0  0
   -3.9560   25.0210  -30.7790 N   0  0  0  0  0  0  0  0  0  0  0  0
   -3.7740   23.8620  -29.8910 C   0  0  0  0  0  0  0  0  0  0  0  0
   -2.8000   22.8480  -30.5000 C   0  0  0  0  0  0  0  0  0  0  0  0
   -1.4810   22.9570  -29.8790 N   0  0  0  0  0  0  0  0  0  0  0  0
   -1.2830   23.4730  -28.5500 C   0  0  0  0  0  0  0  0  0  0  0  0
   -1.0230   22.6190  -27.5250 N   0  0  0  0  0  0  0  0  0  0  0  0
   -0.8270   23.0540  -26.2800 N   0  0  0  0  0  0  0  0  0  0  0  0
   -0.5630   22.1310  -25.2940 O   0  0  0  0  0  0  0  0  0  0  0  0
   -0.8870   24.3850  -25.9940 C   0  0  0  0  0  0  0  0  0  0  0  0
   -0.6780   24.8670  -24.6910 C   0  0  0  0  0  0  0  0  0  0  0  0
   -0.7440   26.2360  -24.4270 C   0  0  0  0  0  0  0  0  0  0  0  0
   -1.0330   27.1430  -25.4560 C   0  0  0  0  0  0  0  0  0  0  0  0
   -1.0640   28.6160  -25.1750 C   0  0  0  0  0  0  0  0  0  0  0  0
   -1.2240   26.6710  -26.7620 C   0  0  0  0  0  0  0  0  0  0  0  0
   -1.1590   25.2920  -27.0410 C   0  0  0  0  0  0  0  0  0  0  0  0
   -1.3540   24.8120  -28.3060 N   0  0  0  0  0  0  0  0  0  0  0  0
   -1.6180   25.6820  -29.3430 O   0  0  0  0  0  0  0  0  0  0  0  0
   -6.3765   24.7910  -28.9680 H   0  0  0  0  0  0  0  0  0  0  0  0
   -7.2981   25.1966  -30.4556 H   0  0  0  0  0  0  0  0  0  0  0  0
   -6.1585   23.8081  -30.4556 H   0  0  0  0  0  0  0  0  0  0  0  0
   -5.5176   26.2658  -31.4359 H   0  0  0  0  0  0  0  0  0  0  0  0
   -5.0160   26.4628  -29.6995 H   0  0  0  0  0  0  0  0  0  0  0  0
   -3.1400   25.6680  -30.6710 H   0  0  0  0  0  0  0  0  0  0  0  0
   -3.3755   24.2080  -28.9259 H   0  0  0  0  0  0  0  0  0  0  0  0
   -4.7486   23.3710  -29.7532 H   0  0  0  0  0  0  0  0  0  0  0  0
   -3.1907   21.8322  -30.3406 H   0  0  0  0  0  0  0  0  0  0  0  0
   -2.7014   23.0562  -31.5756 H   0  0  0  0  0  0  0  0  0  0  0  0
   -0.6630   22.6010  -30.4220 H   0  0  0  0  0  0  0  0  0  0  0  0
   -0.4613   24.1620  -23.8749 H   0  0  0  0  0  0  0  0  0  0  0  0
   -0.5683   26.6052  -23.4058 H   0  0  0  0  0  0  0  0  0  0  0  0
   -1.0675   28.7818  -24.0876 H   0  0  0  0  0  0  0  0  0  0  0  0
   -0.1757   29.0921  -25.6157 H   0  0  0  0  0  0  0  0  0  0  0  0
   -1.9716   29.0543  -25.6157 H   0  0  0  0  0  0  0  0  0  0  0  0
   -1.4263   27.3833  -27.5755 H   0  0  0  0  0  0  0  0  0  0  0  0
  1  2  1  0
  2  3  1  0
  3  4  1  0
  4  5  1  0
  5  6  1  0
  6  7  1  0
  7  8  2  0
  8  9  1  0
  9 10  1  0
  9 11  2  0
 11 12  1  0
 12 13  2  0
 13 14  1  0
 14 15  1  0
 14 16  2  0
 16 17  1  0
 17 18  2  0
 18 19  1  0
 18  7  1  0
 17 11  1  0
  1 20  1  0
  1 21  1  0
  1 22  1  0
  2 23  1  0
  2 24  1  0
  3 25  1  0
  4 26  1  0
  4 27  1  0
  5 28  1  0
  5 29  1  0
  6 30  1  0
 12 31  1  0
 13 32  1  0
 15 33  1  0
 15 34  1  0
 15 35  1  0
 16 36  1  0
M  CHG  4   9   1  10  -1  18   1  19  -1
M  END
>  <UniqueID>  (12) 
12

>  <SMILES>  (12) 
CCNCCNc1n[n+]([O-])c2ccc(C)cc2[n+]1[O-]

>  <Energy>  (12) 
37.056932535778174

>  <Genealogy>  (12) 
CCNCCNc1n[n+]([O-])c2ccc(C)cc2[n+]1[O-] (3D coordinates assigned)
CCNCCNc1n[n+]([O-])c2ccc(C)cc2[n+]1[O-] (optimized conformer: 37.056932535778174 kcal/mol)

>  <smiles>  (12) 
CCNCCNc1n[n+]([O-])c2ccc(C)cc2[n+]1[O-]

>  <score_type>  (12) 
oracle

>  <origin>  (12) 
adg

>  <m_score__min__energy>  (12) 
-7.9199999999999999

>  <m_primary>  (12) 
energy

$$$$
12:0
     RDKit          3D

 48 50  0  0  0  0  0  0  0  0999 V2000
    0.8260   22.7940  -35.7850 C   0  0  0  0  0  0  0  0  0  0  0  0
    0.2740   21.4780  -35.2490 C   0  0  0  0  0  0  0  0  0  0  0  0
   -0.8440   21.7370  -34.3350 N   0  0  0  0  0  0  0  0  0  0  0  0
   -0.7620   20.8600  -33.1620 C   0  0  0  0  0  0  0  0  0  0  0  0
   -2.0990   20.8470  -32.4150 C   0  0  0  0  0  0  0  0  0  0  0  0
   -3.2220   21.0490  -33.3330 N   0  0  0  0  0  0  0  0  0  0  0  0
   -4.5550   20.6170  -33.0040 C   0  0  0  0  0  0  0  0  0  0  0  0
   -5.0110   19.3560  -33.4270 C   0  0  0  0  0  0  0  0  0  0  0  0
   -4.1370   18.4400  -34.0490 C   0  0  0  0  0  0  0  0  0  0  0  0
   -4.5880   17.1850  -34.4490 C   0  0  0  0  0  0  0  0  0  0  0  0
   -5.9070   16.8130  -34.2180 C   0  0  0  0  0  0  0  0  0  0  0  0
   -6.7900   17.7030  -33.6060 C   0  0  0  0  0  0  0  0  0  0  0  0
   -6.3730   19.0040  -33.2260 C   0  0  0  0  0  0  0  0  0  0  0  0
   -7.2490   19.9150  -32.6650 N   0  0  0  0  0  0  0  0  0  0  0  0
   -8.7070   19.6740  -32.7250 C   0  0  0  0  0  0  0  0  0  0  0  0
   -6.7600   21.0570  -32.0580 C   0  0  0  0  0  0  0  0  0  0  0  0
   -7.5750   21.8690  -31.2290 C   0  0  0  0  0  0  0  0  0  0  0  0
   -7.0760   23.0300  -30.6410 C   0  0  0  0  0  0  0  0  0  0  0  0
   -5.7460   23.4030  -30.8360 C   0  0  0  0  0  0  0  0  0  0  0  0
   -5.1070   24.8680  -30.0950 S   0  0  0  0  0  0  0  0  0  0  0  0
   -4.7460   24.5650  -28.4320 N   0  0  0  0  0  0  0  0  0  0  0  0
   -6.1270   25.9680  -30.1970 O   0  0  0  0  0  0  0  0  0  0  0  0
   -3.8550   25.3050  -30.8020 O   0  0  0  0  0  0  0  0  0  0  0  0
   -4.9150   22.6050  -31.6220 C   0  0  0  0  0  0  0  0  0  0  0  0
   -5.4040   21.4350  -32.2390 C   0  0  0  0  0  0  0  0  0  0  0  0
    1.0998   23.4468  -34.9431 H   0  0  0  0  0  0  0  0  0  0  0  0
    1.7165   22.5950  -36.3994 H   0  0  0  0  0  0  0  0  0  0  0  0
    0.0600   23.2898  -36.3994 H   0  0  0  0  0  0  0  0  0  0  0  0
   -0.0780   20.8616  -36.0893 H   0  0  0  0  0  0  0  0  0  0  0  0
    1.0696   20.9482  -34.7047 H   0  0  0  0  0  0  0  0  0  0  0  0
   -1.7360   21.5160  -34.8400 H   0  0  0  0  0  0  0  0  0  0  0  0
   -0.5188   19.8382  -33.4889 H   0  0  0  0  0  0  0  0  0  0  0  0
    0.0216   21.2359  -32.4877 H   0  0  0  0  0  0  0  0  0  0  0  0
   -2.2184   19.8769  -31.9104 H   0  0  0  0  0  0  0  0  0  0  0  0
   -2.0963   21.6680  -31.6829 H   0  0  0  0  0  0  0  0  0  0  0  0
   -3.0660   21.5840  -34.2160 H   0  0  0  0  0  0  0  0  0  0  0  0
   -3.0872   18.7204  -34.2200 H   0  0  0  0  0  0  0  0  0  0  0  0
   -3.8997   16.4872  -34.9483 H   0  0  0  0  0  0  0  0  0  0  0  0
   -6.2557   15.8140  -34.5186 H   0  0  0  0  0  0  0  0  0  0  0  0
   -7.8272   17.3903  -33.4150 H   0  0  0  0  0  0  0  0  0  0  0  0
   -9.1100   19.6074  -31.7036 H   0  0  0  0  0  0  0  0  0  0  0  0
   -9.1942   20.5038  -33.2580 H   0  0  0  0  0  0  0  0  0  0  0  0
   -8.9012   18.7316  -33.2580 H   0  0  0  0  0  0  0  0  0  0  0  0
   -8.6199   21.5774  -31.0467 H   0  0  0  0  0  0  0  0  0  0  0  0
   -7.7343   23.6553  -30.0200 H   0  0  0  0  0  0  0  0  0  0  0  0
   -5.6220   24.2090  -27.9890 H   0  0  0  0  0  0  0  0  0  0  0  0
   -4.5390   25.4890  -27.9910 H   0  0  0  0  0  0  0  0  0  0  0  0
   -3.8626   22.8925  -31.7627 H   0  0  0  0  0  0  0  0  0  0  0  0
  1  2  1  0
  2  3  1  0
  3  4  1  0
  4  5  1  0
  5  6  1  0
  6  7  1  0
  7  8  2  0
  8  9  1  0
  9 10  2  0
 10 11  1  0
 11 12  2  0
 12 13  1  0
 13 14  2  0
 14 15  1  0
 14 16  1  0
 16 17  2  0
 17 18  1  0
 18 19  2  0
 19 20  1  0
 20 21  1  0
 20 22  2  0
 20 23  2  0
 19 24  1  0
 24 25  2  0
 25  7  1  0
 13  8  1  0
 25 16  1  0
  1 26  1  0
  1 27  1  0
  1 28  1  0
  2 29  1  0
  2 30  1  0
  3 31  1  0
  4 32  1  0
  4 33  1  0
  5 34  1  0
  5 35  1  0
  6 36  1  0
  9 37  1  0
 10 38  1  0
 11 39  1  0
 12 40  1  0
 15 41  1  0
 15 42  1  0
 15 43  1  0
 17 44  1  0
 18 45  1  0
 21 46  1  0
 21 47  1  0
 24 48  1  0
M  CHG  1  14   1
M  END
>  <UniqueID>  (13) 
13

>  <SMILES>  (13) 
CCNCCNc1c2ccccc2[n+](C)c2ccc(S(N)(=O)=O)cc12

>  <Energy>  (13) 
66.29471256099585

>  <Genealogy>  (13) 
CCNCCNc1c2ccccc2[n+](C)c2ccc(S(N)(=O)=O)cc12 (3D coordinates assigned)
CCNCCNc1c2ccccc2[n+](C)c2ccc(S(N)(=O)=O)cc12 (optimized conformer: 66.29471256099585 kcal/mol)

>  <smiles>  (13) 
CCNCCNc1c2ccccc2[n+](C)c2ccc(S(N)(=O)=O)cc12

>  <score_type>  (13) 
oracle

>  <origin>  (13) 
adg

>  <m_score__min__energy>  (13) 
-10.449999999999999

>  <m_primary>  (13) 
energy

$$$$
13:0
     RDKit          3D

 63 65  0  0  0  0  0  0  0  0999 V2000
   -3.8990   24.2020  -27.1420 C   0  0  0  0  0  0  0  0  0  0  0  0
   -4.1150   22.8590  -27.8360 C   0  0  0  0  0  0  0  0  0  0  0  0
   -2.8530   22.3710  -28.4310 N   0  0  0  0  0  0  0  0  0  0  0  0
   -1.9620   23.4990  -28.7480 C   0  0  0  0  0  0  0  0  0  0  0  0
   -2.1660   21.3770  -27.5680 C   0  0  0  0  0  0  0  0  0  0  0  0
   -2.0090   20.0640  -28.3440 C   0  0  0  0  0  0  0  0  0  0  0  0
   -2.0080   20.2700  -29.8080 N   0  0  0  0  0  0  0  0  0  0  0  0
   -0.8270   19.6850  -30.4640 C   0  0  0  0  0  0  0  0  0  0  0  0
   -0.3200   20.5730  -31.6170 C   0  0  0  0  0  0  0  0  0  0  0  0
   -1.3400   21.5370  -32.0560 N   0  0  0  0  0  0  0  0  0  0  0  0
   -1.9280   21.1470  -33.3510 C   0  0  0  0  0  0  0  0  0  0  0  0
   -3.3450   20.5830  -33.1660 C   0  0  0  0  0  0  0  0  0  0  0  0
   -3.7970   20.6380  -31.7600 N   0  0  0  0  0  0  0  0  0  0  0  0
   -5.2000   21.0280  -31.6430 C   0  0  0  0  0  0  0  0  0  0  0  0
   -5.5450   22.3640  -31.2890 C   0  0  0  0  0  0  0  0  0  0  0  0
   -4.5550   23.3460  -31.0230 C   0  0  0  0  0  0  0  0  0  0  0  0
   -4.9030   24.6330  -30.6250 C   0  0  0  0  0  0  0  0  0  0  0  0
   -6.2360   24.9770  -30.4670 C   0  0  0  0  0  0  0  0  0  0  0  0
   -7.2330   24.0450  -30.7420 C   0  0  0  0  0  0  0  0  0  0  0  0
   -6.9150   22.7380  -31.1950 C   0  0  0  0  0  0  0  0  0  0  0  0
   -7.9080   21.8400  -31.5260 N   0  0  0  0  0  0  0  0  0  0  0  0
   -9.2940   22.3200  -31.7380 C   0  0  0  0  0  0  0  0  0  0  0  0
   -7.6070   20.5060  -31.7020 C   0  0  0  0  0  0  0  0  0  0  0  0
   -8.6330   19.5270  -31.7510 C   0  0  0  0  0  0  0  0  0  0  0  0
   -8.3490   18.1970  -32.0380 C   0  0  0  0  0  0  0  0  0  0  0  0
   -7.0420   17.8020  -32.2700 C   0  0  0  0  0  0  0  0  0  0  0  0
   -6.0030   18.7230  -32.1640 C   0  0  0  0  0  0  0  0  0  0  0  0
   -6.2520   20.0830  -31.8370 C   0  0  0  0  0  0  0  0  0  0  0  0
   -3.9220   24.0591  -26.0516 H   0  0  0  0  0  0  0  0  0  0  0  0
   -2.9230   24.6145  -27.4373 H   0  0  0  0  0  0  0  0  0  0  0  0
   -4.6965   24.8998  -27.4373 H   0  0  0  0  0  0  0  0  0  0  0  0
   -4.4747   22.1254  -27.0995 H   0  0  0  0  0  0  0  0  0  0  0  0
   -4.8572   22.9896  -28.6373 H   0  0  0  0  0  0  0  0  0  0  0  0
   -1.6016   23.9552  -27.8142 H   0  0  0  0  0  0  0  0  0  0  0  0
   -1.1045   23.1356  -29.3333 H   0  0  0  0  0  0  0  0  0  0  0  0
   -2.5141   24.2491  -29.3333 H   0  0  0  0  0  0  0  0  0  0  0  0
   -1.1740   21.7584  -27.2844 H   0  0  0  0  0  0  0  0  0  0  0  0
   -2.7597   21.2019  -26.6587 H   0  0  0  0  0  0  0  0  0  0  0  0
   -1.0583   19.5934  -28.0530 H   0  0  0  0  0  0  0  0  0  0  0  0
   -2.8686   19.4238  -28.0965 H   0  0  0  0  0  0  0  0  0  0  0  0
   -2.0940   21.2820  -30.0650 H   0  0  0  0  0  0  0  0  0  0  0  0
   -0.0244   19.5731  -29.7202 H   0  0  0  0  0  0  0  0  0  0  0  0
   -1.1141   18.7090  -30.8823 H   0  0  0  0  0  0  0  0  0  0  0  0
    0.5682   21.1254  -31.2763 H   0  0  0  0  0  0  0  0  0  0  0  0
   -0.0785   19.9205  -32.4690 H   0  0  0  0  0  0  0  0  0  0  0  0
   -0.8400   22.4490  -32.1840 H   0  0  0  0  0  0  0  0  0  0  0  0
   -1.9751   22.0302  -34.0050 H   0  0  0  0  0  0  0  0  0  0  0  0
   -1.2968   20.3667  -33.8012 H   0  0  0  0  0  0  0  0  0  0  0  0
   -4.0414   21.1692  -33.7836 H   0  0  0  0  0  0  0  0  0  0  0  0
   -3.3263   19.5260  -33.4699 H   0  0  0  0  0  0  0  0  0  0  0  0
   -3.1990   21.3120  -31.2330 H   0  0  0  0  0  0  0  0  0  0  0  0
   -3.5730   19.7420  -31.2810 H   0  0  0  0  0  0  0  0  0  0  0  0
   -3.4923   23.0844  -31.1337 H   0  0  0  0  0  0  0  0  0  0  0  0
   -4.1177   25.3795  -30.4352 H   0  0  0  0  0  0  0  0  0  0  0  0
   -6.5065   25.9866  -30.1242 H   0  0  0  0  0  0  0  0  0  0  0  0
   -8.2875   24.3270  -30.6056 H   0  0  0  0  0  0  0  0  0  0  0  0
   -9.7771   22.4873  -30.7640 H   0  0  0  0  0  0  0  0  0  0  0  0
   -9.2729   23.2632  -32.3037 H   0  0  0  0  0  0  0  0  0  0  0  0
   -9.8607   21.5658  -32.3037 H   0  0  0  0  0  0  0  0  0  0  0  0
   -9.6737   19.8266  -31.5580 H   0  0  0  0  0  0  0  0  0  0  0  0
   -9.1626   17.4579  -32.0809 H   0  0  0  0  0  0  0  0  0  0  0  0
   -6.8241   16.7578  -32.5387 H   0  0  0  0  0  0  0  0  0  0  0  0
   -4.9687   18.3909  -32.3369 H   0  0  0  0  0  0  0  0  0  0  0  0
  1  2  1  0
  2  3  1  0
  3  4  1  0
  3  5  1  0
  5  6  1  0
  6  7  1  0
  7  8  1  0
  8  9  1  0
  9 10  1  0
 10 11  1  0
 11 12  1  0
 12 13  1  0
 13 14  1  0
 14 15  2  0
 15 16  1  0
 16 17  2  0
 17 18  1  0
 18 19  2  0
 19 20  1  0
 20 21  2  0
 21 22  1  0
 21 23  1  0
 23 24  2  0
 24 25  1  0
 25 26  2  0
 26 27  1  0
 27 28  2  0
 28 14  1  0
 20 15  1  0
 28 23  1  0
  1 29  1  0
  1 30  1  0
  1 31  1  0
  2 32  1  0
  2 33  1  0
  4 34  1  0
  4 35  1  0
  4 36  1  0
  5 37  1  0
  5 38  1  0
  6 39  1  0
  6 40  1  0
  7 41  1  0
  8 42  1  0
  8 43  1  0
  9 44  1  0
  9 45  1  0
 10 46  1  0
 11 47  1  0
 11 48  1  0
 12 49  1  0
 12 50  1  0
 13 51  1  0
 13 52  1  0
 16 53  1  0
 17 54  1  0
 18 55  1  0
 19 56  1  0
 22 57  1  0
 22 58  1  0
 22 59  1  0
 24 60  1  0
 25 61  1  0
 26 62  1  0
 27 63  1  0
M  CHG  2  13   1  21   1
M  END
>  <UniqueID>  (14) 
14

>  <SMILES>  (14) 
CCN(C)CCNCCNCC[NH2+]c1c2ccccc2[n+](C)c2ccccc12

>  <Energy>  (14) 
90.80837090392757

>  <Genealogy>  (14) 
CCN(C)CCNCCNCC[NH2+]c1c2ccccc2[n+](C)c2ccccc12 (protonated)
CCN(C)CCNCCNCC[NH2+]c1c2ccccc2[n+](C)c2ccccc12 (3D coordinates assigned)
CCN(C)CCNCCNCC[NH2+]c1c2ccccc2[n+](C)c2ccccc12 (optimized conformer: 90.80837090392757 kcal/mol)

>  <smiles>  (14) 
CCN(C)CCNCCNCCNc1c2ccccc2[n+](C)c2ccccc12

>  <score_type>  (14) 
oracle

>  <origin>  (14) 
adg

>  <m_score__min__energy>  (14) 
-8.4700000000000006

>  <m_primary>  (14) 
energy

$$$$
14:0
     RDKit          3D

 37 38  0  0  0  0  0  0  0  0999 V2000
   -2.2330   21.5100  -29.5320 C   0  0  0  0  0  0  0  0  0  0  0  0
   -2.8290   22.5940  -28.7570 N   0  0  0  0  0  0  0  0  0  0  0  0
   -2.7800   22.7430  -27.4180 C   0  0  0  0  0  0  0  0  0  0  0  0
   -3.4700   23.8900  -27.0850 C   0  0  0  0  0  0  0  0  0  0  0  0
   -3.9490   24.4490  -28.2120 N   0  0  0  0  0  0  0  0  0  0  0  0
   -3.5590   23.6360  -29.2140 C   0  0  0  0  0  0  0  0  0  0  0  0
   -3.8320   23.9250  -30.6600 C   0  0  0  0  0  0  0  0  0  0  0  0
   -4.5060   25.2230  -30.7780 N   0  0  0  0  0  0  0  0  0  0  0  0
   -5.9700   25.0740  -30.8370 C   0  0  0  0  0  0  0  0  0  0  0  0
   -6.3500   23.5910  -30.8490 C   0  0  0  0  0  0  0  0  0  0  0  0
   -6.6990   23.0960  -32.2600 C   0  0  0  0  0  0  0  0  0  0  0  0
   -6.7980   21.5860  -32.2860 C   0  0  0  0  0  0  0  0  0  0  0  0
   -5.6800   20.7970  -32.6520 C   0  0  0  0  0  0  0  0  0  0  0  0
   -4.1280   21.5120  -33.0810 Cl  0  0  0  0  0  0  0  0  0  0  0  0
   -5.7900   19.4030  -32.6930 C   0  0  0  0  0  0  0  0  0  0  0  0
   -6.9980   18.7790  -32.3890 C   0  0  0  0  0  0  0  0  0  0  0  0
   -8.1130   19.5450  -32.0500 C   0  0  0  0  0  0  0  0  0  0  0  0
   -8.0260   20.9410  -32.0020 C   0  0  0  0  0  0  0  0  0  0  0  0
   -9.4850   21.8420  -31.5970 Cl  0  0  0  0  0  0  0  0  0  0  0  0
   -1.8180   20.7552  -28.8478 H   0  0  0  0  0  0  0  0  0  0  0  0
   -3.0030   21.0462  -30.1661 H   0  0  0  0  0  0  0  0  0  0  0  0
   -1.4289   21.9117  -30.1661 H   0  0  0  0  0  0  0  0  0  0  0  0
   -2.2763   22.0661  -26.7122 H   0  0  0  0  0  0  0  0  0  0  0  0
   -3.6063   24.2830  -26.0667 H   0  0  0  0  0  0  0  0  0  0  0  0
   -4.5000   25.3330  -28.2900 H   0  0  0  0  0  0  0  0  0  0  0  0
   -2.8824   23.9527  -31.2145 H   0  0  0  0  0  0  0  0  0  0  0  0
   -4.4760   23.1369  -31.0773 H   0  0  0  0  0  0  0  0  0  0  0  0
   -4.1800   25.6780  -31.6640 H   0  0  0  0  0  0  0  0  0  0  0  0
   -6.4202   25.5574  -29.9575 H   0  0  0  0  0  0  0  0  0  0  0  0
   -6.3424   25.5476  -31.7574 H   0  0  0  0  0  0  0  0  0  0  0  0
   -5.5016   23.0043  -30.4669 H   0  0  0  0  0  0  0  0  0  0  0  0
   -7.2402   23.4641  -30.2155 H   0  0  0  0  0  0  0  0  0  0  0  0
   -7.6639   23.5268  -32.5658 H   0  0  0  0  0  0  0  0  0  0  0  0
   -5.9047   23.4111  -32.9527 H   0  0  0  0  0  0  0  0  0  0  0  0
   -4.9156   18.7946  -32.9675 H   0  0  0  0  0  0  0  0  0  0  0  0
   -7.0723   17.6819  -32.4164 H   0  0  0  0  0  0  0  0  0  0  0  0
   -9.0671   19.0487  -31.8188 H   0  0  0  0  0  0  0  0  0  0  0  0
  1  2  1  0
  2  3  1  0
  3  4  2  0
  4  5  1  0
  5  6  2  0
  6  7  1  0
  7  8  1  0
  8  9  1  0
  9 10  1  0
 10 11  1  0
 11 12  1  0
 12 13  2  0
 13 14  1  0
 13 15  1  0
 15 16  2  0
 16 17  1  0
 17 18  2  0
 18 19  1  0
  6  2  1  0
 18 12  1  0
  1 20  1  0
  1 21  1  0
  1 22  1  0
  3 23  1  0
  4 24  1  0
  5 25  1  0
  7 26  1  0
  7 27  1  0
  8 28  1  0
  9 29  1  0
  9 30  1  0
 10 31  1  0
 10 32  1  0
 11 33  1  0
 11 34  1  0
 15 35  1  0
 16 36  1  0
 17 37  1  0
M  CHG  1   5   1
M  END
>  <UniqueID>  (15) 
15

>  <SMILES>  (15) 
Cn1cc[nH+]c1CNCCCc1c(Cl)cccc1Cl

>  <Energy>  (15) 
63.811536112834126

>  <Genealogy>  (15) 
Cn1cc[nH+]c1CNCCCc1c(Cl)cccc1Cl (protonated)
Cn1cc[nH+]c1CNCCCc1c(Cl)cccc1Cl (3D coordinates assigned)
Cn1cc[nH+]c1CNCCCc1c(Cl)cccc1Cl (optimized conformer: 63.811536112834126 kcal/mol)

>  <smiles>  (15) 
Cn1ccnc1CNCCCc1c(Cl)cccc1Cl

>  <score_type>  (15) 
oracle

>  <origin>  (15) 
adg

>  <m_score__min__energy>  (15) 
-7.25

>  <m_primary>  (15) 
energy

$$$$
15:0
     RDKit          3D

 55 57  0  0  0  0  0  0  0  0999 V2000
   -0.8740   26.7800  -23.4870 C   0  0  0  0  0  0  0  0  0  0  0  0
   -0.1300   25.6140  -24.1430 C   0  0  0  0  0  0  0  0  0  0  0  0
    0.5610   26.0020  -25.3870 N   0  0  0  0  0  0  0  0  0  0  0  0
   -0.2480   26.8210  -26.3130 C   0  0  0  0  0  0  0  0  0  0  0  0
   -0.6030   26.1010  -27.6290 C   0  0  0  0  0  0  0  0  0  0  0  0
    0.2770   25.0250  -27.9010 O   0  0  0  0  0  0  0  0  0  0  0  0
   -0.4130   23.8920  -28.4030 C   0  0  0  0  0  0  0  0  0  0  0  0
   -1.8270   23.8340  -27.8140 C   0  0  0  0  0  0  0  0  0  0  0  0
   -2.8210   24.3310  -28.7700 N   0  0  0  0  0  0  0  0  0  0  0  0
   -3.3620   23.5380  -29.8480 C   0  0  0  0  0  0  0  0  0  0  0  0
   -2.5580   22.5840  -30.4780 C   0  0  0  0  0  0  0  0  0  0  0  0
   -3.0640   21.8120  -31.5140 C   0  0  0  0  0  0  0  0  0  0  0  0
   -4.3530   21.9550  -31.9470 N   0  0  0  0  0  0  0  0  0  0  0  0
   -4.7790   21.1270  -33.0930 C   0  0  0  0  0  0  0  0  0  0  0  0
   -5.8290   20.1240  -32.6800 C   0  0  0  0  0  0  0  0  0  0  0  0
   -7.1710   20.2920  -33.0740 C   0  0  0  0  0  0  0  0  0  0  0  0
   -8.1380   19.3540  -32.7040 C   0  0  0  0  0  0  0  0  0  0  0  0
   -7.7760   18.2330  -31.9530 C   0  0  0  0  0  0  0  0  0  0  0  0
   -6.4430   18.0450  -31.5730 C   0  0  0  0  0  0  0  0  0  0  0  0
   -5.4710   18.9820  -31.9410 C   0  0  0  0  0  0  0  0  0  0  0  0
   -5.1890   22.8800  -31.3460 C   0  0  0  0  0  0  0  0  0  0  0  0
   -6.5290   23.0560  -31.7670 C   0  0  0  0  0  0  0  0  0  0  0  0
   -7.3490   24.0160  -31.1750 C   0  0  0  0  0  0  0  0  0  0  0  0
   -6.8550   24.8300  -30.1620 C   0  0  0  0  0  0  0  0  0  0  0  0
   -5.5430   24.6790  -29.7200 C   0  0  0  0  0  0  0  0  0  0  0  0
   -4.6990   23.6980  -30.2840 C   0  0  0  0  0  0  0  0  0  0  0  0
   -0.8131   26.6846  -22.3928 H   0  0  0  0  0  0  0  0  0  0  0  0
   -0.4146   27.7297  -23.7984 H   0  0  0  0  0  0  0  0  0  0  0  0
   -1.9289   26.7635  -23.7984 H   0  0  0  0  0  0  0  0  0  0  0  0
    0.6162   25.2293  -23.4322 H   0  0  0  0  0  0  0  0  0  0  0  0
   -0.8774   24.8505  -24.4046 H   0  0  0  0  0  0  0  0  0  0  0  0
    0.8780   25.1360  -25.8820 H   0  0  0  0  0  0  0  0  0  0  0  0
    1.4220   26.5430  -25.1390 H   0  0  0  0  0  0  0  0  0  0  0  0
   -1.1838   27.0973  -25.8050 H   0  0  0  0  0  0  0  0  0  0  0  0
    0.3595   27.6982  -26.5805 H   0  0  0  0  0  0  0  0  0  0  0  0
   -1.6286   25.7104  -27.5543 H   0  0  0  0  0  0  0  0  0  0  0  0
   -0.5122   26.8288  -28.4488 H   0  0  0  0  0  0  0  0  0  0  0  0
   -0.4777   23.9613  -29.4989 H   0  0  0  0  0  0  0  0  0  0  0  0
    0.1340   22.9813  -28.1177 H   0  0  0  0  0  0  0  0  0  0  0  0
   -2.0662   22.7914  -27.5573 H   0  0  0  0  0  0  0  0  0  0  0  0
   -1.8571   24.4711  -26.9178 H   0  0  0  0  0  0  0  0  0  0  0  0
   -3.1530   25.3110  -28.6380 H   0  0  0  0  0  0  0  0  0  0  0  0
   -1.5173   22.4443  -30.1504 H   0  0  0  0  0  0  0  0  0  0  0  0
   -2.4136   21.0684  -31.9977 H   0  0  0  0  0  0  0  0  0  0  0  0
   -5.1947   21.7811  -33.8736 H   0  0  0  0  0  0  0  0  0  0  0  0
   -3.9036   20.5794  -33.4722 H   0  0  0  0  0  0  0  0  0  0  0  0
   -7.4591   21.1663  -33.6762 H   0  0  0  0  0  0  0  0  0  0  0  0
   -9.1863   19.4984  -33.0045 H   0  0  0  0  0  0  0  0  0  0  0  0
   -8.5398   17.4976  -31.6603 H   0  0  0  0  0  0  0  0  0  0  0  0
   -6.1587   17.1602  -30.9846 H   0  0  0  0  0  0  0  0  0  0  0  0
   -4.4217   18.8247  -31.6509 H   0  0  0  0  0  0  0  0  0  0  0  0
   -6.9299   22.4253  -32.5742 H   0  0  0  0  0  0  0  0  0  0  0  0
   -8.3903   24.1296  -31.5107 H   0  0  0  0  0  0  0  0  0  0  0  0
   -7.5021   25.5953  -29.7085 H   0  0  0  0  0  0  0  0  0  0  0  0
   -5.1598   25.3319  -28.9219 H   0  0  0  0  0  0  0  0  0  0  0  0
  1  2  1  0
  2  3  1  0
  3  4  1  0
  4  5  1  0
  5  6  1  0
  6  7  1  0
  7  8  1  0
  8  9  1  0
  9 10  1  0
 10 11  2  0
 11 12  1  0
 12 13  2  0
 13 14  1  0
 14 15  1  0
 15 16  2  0
 16 17  1  0
 17 18  2  0
 18 19  1  0
 19 20  2  0
 13 21  1  0
 21 22  2  0
 22 23  1  0
 23 24  2  0
 24 25  1  0
 25 26  2  0
 26 10  1  0
 20 15  1  0
 26 21  1  0
  1 27  1  0
  1 28  1  0
  1 29  1  0
  2 30  1  0
  2 31  1  0
  3 32  1  0
  3 33  1  0
  4 34  1  0
  4 35  1  0
  5 36  1  0
  5 37  1  0
  7 38  1  0
  7 39  1  0
  8 40  1  0
  8 41  1  0
  9 42  1  0
 11 43  1  0
 12 44  1  0
 14 45  1  0
 14 46  1  0
 16 47  1  0
 17 48  1  0
 18 49  1  0
 19 50  1  0
 20 51  1  0
 22 52  1  0
 23 53  1  0
 24 54  1  0
 25 55  1  0
M  CHG  2   3   1  13   1
M  END
>  <UniqueID>  (16) 
16

>  <SMILES>  (16) 
CC[NH2+]CCOCCNc1cc[n+](Cc2ccccc2)c2ccccc12

>  <Energy>  (16) 
66.74446622110769

>  <Genealogy>  (16) 
CC[NH2+]CCOCCNc1cc[n+](Cc2ccccc2)c2ccccc12 (protonated)
CC[NH2+]CCOCCNc1cc[n+](Cc2ccccc2)c2ccccc12 (3D coordinates assigned)
CC[NH2+]CCOCCNc1cc[n+](Cc2ccccc2)c2ccccc12 (optimized conformer: 66.74446622110769 kcal/mol)

>  <smiles>  (16) 
CCNCCOCCNc1cc[n+](Cc2ccccc2)c2ccccc12

>  <score_type>  (16) 
oracle

>  <origin>  (16) 
adg

>  <m_score__min__energy>  (16) 
-7.3899999999999997

>  <m_primary>  (16) 
energy

$$$$
16:0
     RDKit          3D

 74 78  0  0  0  0  0  0  0  0999 V2000
   -2.5700   24.5020  -29.2740 C   0  0  0  0  0  0  0  0  0  0  0  0
   -3.9060   23.8310  -29.5870 C   0  0  0  0  0  0  0  0  0  0  0  0
   -4.5070   24.4440  -30.7910 N   0  0  0  0  0  0  0  0  0  0  0  0
   -5.3440   25.6260  -30.4690 C   0  0  0  0  0  0  0  0  0  0  0  0
   -6.6500   25.2930  -29.7380 C   0  0  0  0  0  0  0  0  0  0  0  0
   -5.1760   23.4330  -31.6450 C   0  0  0  0  0  0  0  0  0  0  0  0
   -4.1700   22.3780  -32.1490 C   0  0  0  0  0  0  0  0  0  0  0  0
   -4.6350   21.5840  -33.2990 N   0  0  0  0  0  0  0  0  0  0  0  0
   -5.0010   20.1940  -33.2600 C   0  0  0  0  0  0  0  0  0  0  0  0
   -6.2790   19.8540  -32.7620 C   0  0  0  0  0  0  0  0  0  0  0  0
   -7.1160   20.8320  -32.1710 C   0  0  0  0  0  0  0  0  0  0  0  0
   -8.3850   20.5000  -31.7040 C   0  0  0  0  0  0  0  0  0  0  0  0
   -8.8390   19.1890  -31.7920 C   0  0  0  0  0  0  0  0  0  0  0  0
   -8.0260   18.2080  -32.3540 C   0  0  0  0  0  0  0  0  0  0  0  0
   -6.7400   18.5220  -32.8640 C   0  0  0  0  0  0  0  0  0  0  0  0
   -5.9320   17.5590  -33.4240 N   0  0  0  0  0  0  0  0  0  0  0  0
   -6.5100   16.2570  -33.8270 C   0  0  0  0  0  0  0  0  0  0  0  0
   -4.5860   17.8070  -33.6050 C   0  0  0  0  0  0  0  0  0  0  0  0
   -3.6880   16.7280  -33.7780 C   0  0  0  0  0  0  0  0  0  0  0  0
   -2.3450   16.9380  -34.0160 C   0  0  0  0  0  0  0  0  0  0  0  0
   -1.8460   18.2230  -34.0860 C   0  0  0  0  0  0  0  0  0  0  0  0
   -2.6680   19.3460  -33.8820 C   0  0  0  0  0  0  0  0  0  0  0  0
   -2.0270   20.6430  -34.0060 N   0  0  0  0  0  0  0  0  0  0  0  0
   -0.6890   20.6440  -33.3890 C   0  0  0  0  0  0  0  0  0  0  0  0
   -0.6090   21.5510  -32.1510 C   0  0  0  0  0  0  0  0  0  0  0  0
   -0.7190   20.7420  -30.9310 N   0  0  0  0  0  0  0  0  0  0  0  0
    0.2540   19.8270  -30.6330 C   0  0  0  0  0  0  0  0  0  0  0  0
    0.2030   19.0890  -29.4500 C   0  0  0  0  0  0  0  0  0  0  0  0
   -0.8470   19.3020  -28.5500 C   0  0  0  0  0  0  0  0  0  0  0  0
   -0.9210   18.5860  -27.3460 C   0  0  0  0  0  0  0  0  0  0  0  0
   -1.9740   18.8230  -26.4560 C   0  0  0  0  0  0  0  0  0  0  0  0
   -2.9560   19.7700  -26.7620 C   0  0  0  0  0  0  0  0  0  0  0  0
   -2.8920   20.4870  -27.9600 C   0  0  0  0  0  0  0  0  0  0  0  0
   -1.8410   20.2560  -28.8610 C   0  0  0  0  0  0  0  0  0  0  0  0
   -1.7520   20.9670  -30.0660 C   0  0  0  0  0  0  0  0  0  0  0  0
   -4.0760   19.1490  -33.5910 C   0  0  0  0  0  0  0  0  0  0  0  0
   -2.4392   24.5677  -28.1838 H   0  0  0  0  0  0  0  0  0  0  0  0
   -1.7512   23.9082  -29.7064 H   0  0  0  0  0  0  0  0  0  0  0  0
   -2.5574   25.5134  -29.7064 H   0  0  0  0  0  0  0  0  0  0  0  0
   -3.7421   22.7583  -29.7670 H   0  0  0  0  0  0  0  0  0  0  0  0
   -4.5873   23.9650  -28.7338 H   0  0  0  0  0  0  0  0  0  0  0  0
   -4.7551   26.3021  -29.8318 H   0  0  0  0  0  0  0  0  0  0  0  0
   -5.6274   26.0827  -31.4288 H   0  0  0  0  0  0  0  0  0  0  0  0
   -6.4832   25.3355  -28.6516 H   0  0  0  0  0  0  0  0  0  0  0  0
   -7.4238   26.0226  -30.0190 H   0  0  0  0  0  0  0  0  0  0  0  0
   -6.9800   24.2820  -30.0190 H   0  0  0  0  0  0  0  0  0  0  0  0
   -5.9603   22.9307  -31.0597 H   0  0  0  0  0  0  0  0  0  0  0  0
   -5.6113   23.9446  -32.5161 H   0  0  0  0  0  0  0  0  0  0  0  0
   -3.2464   22.8982  -32.4428 H   0  0  0  0  0  0  0  0  0  0  0  0
   -4.0227   21.6688  -31.3211 H   0  0  0  0  0  0  0  0  0  0  0  0
   -4.3500   21.9550  -34.2360 H   0  0  0  0  0  0  0  0  0  0  0  0
   -6.7585   21.8683  -32.0797 H   0  0  0  0  0  0  0  0  0  0  0  0
   -9.0291   21.2761  -31.2649 H   0  0  0  0  0  0  0  0  0  0  0  0
   -9.8397   18.9268  -31.4180 H   0  0  0  0  0  0  0  0  0  0  0  0
   -8.3877   17.1703  -32.4034 H   0  0  0  0  0  0  0  0  0  0  0  0
   -6.7677   15.6765  -32.9289 H   0  0  0  0  0  0  0  0  0  0  0  0
   -7.4168   16.4280  -34.4258 H   0  0  0  0  0  0  0  0  0  0  0  0
   -5.7750   15.6991  -34.4258 H   0  0  0  0  0  0  0  0  0  0  0  0
   -4.0689   15.6976  -33.7215 H   0  0  0  0  0  0  0  0  0  0  0  0
   -1.6706   16.0794  -34.1502 H   0  0  0  0  0  0  0  0  0  0  0  0
   -0.7788   18.3726  -34.3068 H   0  0  0  0  0  0  0  0  0  0  0  0
   -1.9950   20.9570  -34.9940 H   0  0  0  0  0  0  0  0  0  0  0  0
   -2.6040   21.3860  -33.5460 H   0  0  0  0  0  0  0  0  0  0  0  0
   -0.4388   19.6157  -33.0890 H   0  0  0  0  0  0  0  0  0  0  0  0
    0.0206   21.0338  -34.1336 H   0  0  0  0  0  0  0  0  0  0  0  0
    0.3538   22.0831  -32.1503 H   0  0  0  0  0  0  0  0  0  0  0  0
   -1.4350   22.2769  -32.1799 H   0  0  0  0  0  0  0  0  0  0  0  0
    1.0866   19.6714  -31.3348 H   0  0  0  0  0  0  0  0  0  0  0  0
    0.9822   18.3454  -29.2266 H   0  0  0  0  0  0  0  0  0  0  0  0
   -0.1516   17.8387  -27.1018 H   0  0  0  0  0  0  0  0  0  0  0  0
   -2.0296   18.2619  -25.5115 H   0  0  0  0  0  0  0  0  0  0  0  0
   -3.7814   19.9513  -26.0578 H   0  0  0  0  0  0  0  0  0  0  0  0
   -3.6655   21.2325  -28.1967 H   0  0  0  0  0  0  0  0  0  0  0  0
   -2.5208   21.7126  -30.3171 H   0  0  0  0  0  0  0  0  0  0  0  0
  1  2  1  0
  2  3  1  0
  3  4  1  0
  4  5  1  0
  3  6  1  0
  6  7  1  0
  7  8  1  0
  8  9  1  0
  9 10  2  0
 10 11  1  0
 11 12  2  0
 12 13  1  0
 13 14  2  0
 14 15  1  0
 15 16  2  0
 16 17  1  0
 16 18  1  0
 18 19  2  0
 19 20  1  0
 20 21  2  0
 21 22  1  0
 22 23  1  0
 23 24  1  0
 24 25  1  0
 25 26  1  0
 26 27  2  0
 27 28  1  0
 28 29  2  0
 29 30  1  0
 30 31  2  0
 31 32  1  0
 32 33  2  0
 33 34  1  0
 34 35  2  0
 22 36  2  0
 36  9  1  0
 15 10  1  0
 36 18  1  0
 35 26  1  0
 34 29  1  0
  1 37  1  0
  1 38  1  0
  1 39  1  0
  2 40  1  0
  2 41  1  0
  4 42  1  0
  4 43  1  0
  5 44  1  0
  5 45  1  0
  5 46  1  0
  6 47  1  0
  6 48  1  0
  7 49  1  0
  7 50  1  0
  8 51  1  0
 11 52  1  0
 12 53  1  0
 13 54  1  0
 14 55  1  0
 17 56  1  0
 17 57  1  0
 17 58  1  0
 19 59  1  0
 20 60  1  0
 21 61  1  0
 23 62  1  0
 23 63  1  0
 24 64  1  0
 24 65  1  0
 25 66  1  0
 25 67  1  0
 27 68  1  0
 28 69  1  0
 30 70  1  0
 31 71  1  0
 32 72  1  0
 33 73  1  0
 35 74  1  0
M  CHG  3  16   1  23   1  26   1
M  END
>  <UniqueID>  (17) 
17

>  <SMILES>  (17) 
CCN(CC)CCNc1c2ccccc2[n+](C)c2cccc([NH2+]CC[n+]3ccc4ccccc4c3)c12

>  <Energy>  (17) 
121.54539179574844

>  <Genealogy>  (17) 
CCN(CC)CCNc1c2ccccc2[n+](C)c2cccc([NH2+]CC[n+]3ccc4ccccc4c3)c12 (protonated)
CCN(CC)CCNc1c2ccccc2[n+](C)c2cccc([NH2+]CC[n+]3ccc4ccccc4c3)c12 (3D coordinates assigned)
CCN(CC)CCNc1c2ccccc2[n+](C)c2cccc([NH2+]CC[n+]3ccc4ccccc4c3)c12 (optimized conformer: 121.54539179574844 kcal/mol)

>  <smiles>  (17) 
CCN(CC)CCNc1c2ccccc2[n+](C)c2cccc(NCC[n+]3ccc4ccccc4c3)c12

>  <score_type>  (17) 
oracle

>  <origin>  (17) 
adg

>  <m_score__min__energy>  (17) 
-9.8399999999999999

>  <m_primary>  (17) 
energy

$$$$
17:0
     RDKit          3D

 69 71  0  0  0  0  0  0  0  0999 V2000
   -3.8270   18.6490  -26.3170 C   0  0  0  0  0  0  0  0  0  0  0  0
   -2.3320   19.0020  -26.3560 C   0  0  0  0  0  0  0  0  0  0  0  0
   -1.8930   19.7510  -27.5680 N   0  0  2  0  0  0  0  0  0  0  0  0
   -0.5230   19.3660  -27.9660 C   0  0  0  0  0  0  0  0  0  0  0  0
   -1.9930   21.2300  -27.4490 C   0  0  0  0  0  0  0  0  0  0  0  0
   -3.3030   21.8120  -28.0510 C   0  0  0  0  0  0  0  0  0  0  0  0
   -3.1380   23.1180  -28.9040 C   0  0  0  0  0  0  0  0  0  0  0  0
   -2.2350   22.7350  -30.1300 C   0  0  0  0  0  0  0  0  0  0  0  0
   -2.6410   21.4430  -30.8680 C   0  0  0  0  0  0  0  0  0  0  0  0
   -3.1400   21.7500  -32.2870 C   0  0  0  0  0  0  0  0  0  0  0  0
   -3.3480   20.4690  -33.0960 C   0  0  0  0  0  0  0  0  0  0  0  0
   -4.6860   20.4130  -33.5430 O   0  0  0  0  0  0  0  0  0  0  0  0
   -5.5070   21.1780  -32.6900 C   0  0  0  0  0  0  0  0  0  0  0  0
   -6.7550   20.3940  -32.3990 C   0  0  0  0  0  0  0  0  0  0  0  0
   -7.9980   21.0470  -32.3330 C   0  0  0  0  0  0  0  0  0  0  0  0
   -9.1670   20.3130  -32.1120 C   0  0  0  0  0  0  0  0  0  0  0  0
   -9.1060   18.9240  -31.9670 C   0  0  0  0  0  0  0  0  0  0  0  0
   -7.8760   18.2650  -32.0490 C   0  0  0  0  0  0  0  0  0  0  0  0
   -6.7040   18.9960  -32.2720 C   0  0  0  0  0  0  0  0  0  0  0  0
   -2.4640   24.1610  -27.9720 C   0  0  0  0  0  0  0  0  0  0  0  0
   -1.3140   24.8760  -28.3880 C   0  0  0  0  0  0  0  0  0  0  0  0
   -0.7530   25.8740  -27.5860 C   0  0  0  0  0  0  0  0  0  0  0  0
   -1.3420   26.2060  -26.3680 C   0  0  0  0  0  0  0  0  0  0  0  0
   -2.5020   25.5550  -25.9560 C   0  0  0  0  0  0  0  0  0  0  0  0
   -3.0710   24.5580  -26.7550 C   0  0  0  0  0  0  0  0  0  0  0  0
   -4.4800   23.6270  -29.4940 C   0  0  0  0  0  0  0  0  0  0  0  0
   -5.6280   22.7990  -29.5530 C   0  0  0  0  0  0  0  0  0  0  0  0
   -6.8130   23.2550  -30.1370 C   0  0  0  0  0  0  0  0  0  0  0  0
   -6.8730   24.5250  -30.7070 C   0  0  0  0  0  0  0  0  0  0  0  0
   -5.7430   25.3390  -30.7090 C   0  0  0  0  0  0  0  0  0  0  0  0
   -4.5550   24.8910  -30.1250 C   0  0  0  0  0  0  0  0  0  0  0  0
   -4.1581   18.5708  -25.2709 H   0  0  0  0  0  0  0  0  0  0  0  0
   -4.4029   19.4359  -26.8261 H   0  0  0  0  0  0  0  0  0  0  0  0
   -3.9902   17.6876  -26.8261 H   0  0  0  0  0  0  0  0  0  0  0  0
   -2.1035   19.6172  -25.4732 H   0  0  0  0  0  0  0  0  0  0  0  0
   -1.7904   18.0447  -26.3732 H   0  0  0  0  0  0  0  0  0  0  0  0
   -2.5200   19.4440  -28.3490 H   0  0  0  0  0  0  0  0  0  0  0  0
    0.0859   19.1949  -27.0660 H   0  0  0  0  0  0  0  0  0  0  0  0
   -0.5605   18.4436  -28.5641 H   0  0  0  0  0  0  0  0  0  0  0  0
   -0.0745   20.1729  -28.5641 H   0  0  0  0  0  0  0  0  0  0  0  0
   -1.9506   21.4974  -26.3829 H   0  0  0  0  0  0  0  0  0  0  0  0
   -1.1557   21.6585  -28.0195 H   0  0  0  0  0  0  0  0  0  0  0  0
   -3.7501   21.0413  -28.6960 H   0  0  0  0  0  0  0  0  0  0  0  0
   -3.9293   22.0925  -27.1913 H   0  0  0  0  0  0  0  0  0  0  0  0
   -2.2715   23.5645  -30.8515 H   0  0  0  0  0  0  0  0  0  0  0  0
   -1.2302   22.5501  -29.7224 H   0  0  0  0  0  0  0  0  0  0  0  0
   -1.7687   20.7758  -30.9305 H   0  0  0  0  0  0  0  0  0  0  0  0
   -3.4563   20.9623  -30.3075 H   0  0  0  0  0  0  0  0  0  0  0  0
   -4.0958   22.2904  -32.2209 H   0  0  0  0  0  0  0  0  0  0  0  0
   -2.3799   22.3608  -32.7961 H   0  0  0  0  0  0  0  0  0  0  0  0
   -2.6705   20.4673  -33.9626 H   0  0  0  0  0  0  0  0  0  0  0  0
   -3.1331   19.5945  -32.4642 H   0  0  0  0  0  0  0  0  0  0  0  0
   -4.9733   21.3875  -31.7513 H   0  0  0  0  0  0  0  0  0  0  0  0
   -5.7656   22.1321  -33.1724 H   0  0  0  0  0  0  0  0  0  0  0  0
   -8.0510   22.1389  -32.4556 H   0  0  0  0  0  0  0  0  0  0  0  0
  -10.1365   20.8293  -32.0521 H   0  0  0  0  0  0  0  0  0  0  0  0
  -10.0266   18.3491  -31.7882 H   0  0  0  0  0  0  0  0  0  0  0  0
   -7.8295   17.1716  -31.9382 H   0  0  0  0  0  0  0  0  0  0  0  0
   -5.7388   18.4739  -32.3482 H   0  0  0  0  0  0  0  0  0  0  0  0
   -0.8543   24.6417  -29.3595 H   0  0  0  0  0  0  0  0  0  0  0  0
    0.1555   26.3983  -27.9173 H   0  0  0  0  0  0  0  0  0  0  0  0
   -0.8910   26.9820  -25.7320 H   0  0  0  0  0  0  0  0  0  0  0  0
   -2.9723   25.8257  -24.9992 H   0  0  0  0  0  0  0  0  0  0  0  0
   -4.0050   24.0742  -26.4332 H   0  0  0  0  0  0  0  0  0  0  0  0
   -5.5861   21.7831  -29.1333 H   0  0  0  0  0  0  0  0  0  0  0  0
   -7.7026   22.6081  -30.1467 H   0  0  0  0  0  0  0  0  0  0  0  0
   -7.8114   24.8841  -31.1547 H   0  0  0  0  0  0  0  0  0  0  0  0
   -5.7856   26.3363  -31.1711 H   0  0  0  0  0  0  0  0  0  0  0  0
   -3.6622   25.5327  -30.1565 H   0  0  0  0  0  0  0  0  0  0  0  0
  1  2  1  0
  2  3  1  0
  3  4  1  0
  3  5  1  0
  5  6  1  0
  6  7  1  0
  7  8  1  0
  8  9  1  0
  9 10  1  0
 10 11  1  0
 11 12  1  0
 12 13  1  0
 13 14  1  0
 14 15  2  0
 15 16  1  0
 16 17  2  0
 17 18  1  0
 18 19  2  0
  7 20  1  0
 20 21  2  0
 21 22  1  0
 22 23  2  0
 23 24  1  0
 24 25  2  0
  7 26  1  0
 26 27  2  0
 27 28  1  0
 28 29  2  0
 29 30  1  0
 30 31  2  0
 19 14  1  0
 25 20  1  0
 31 26  1  0
  1 32  1  0
  1 33  1  0
  1 34  1  0
  2 35  1  0
  2 36  1  0
  3 37  1  6
  4 38  1  0
  4 39  1  0
  4 40  1  0
  5 41  1  0
  5 42  1  0
  6 43  1  0
  6 44  1  0
  8 45  1  0
  8 46  1  0
  9 47  1  0
  9 48  1  0
 10 49  1  0
 10 50  1  0
 11 51  1  0
 11 52  1  0
 13 53  1  0
 13 54  1  0
 15 55  1  0
 16 56  1  0
 17 57  1  0
 18 58  1  0
 19 59  1  0
 21 60  1  0
 22 61  1  0
 23 62  1  0
 24 63  1  0
 25 64  1  0
 27 65  1  0
 28 66  1  0
 29 67  1  0
 30 68  1  0
 31 69  1  0
M  CHG  1   3   1
M  END
>  <UniqueID>  (18) 
18

>  <SMILES>  (18) 
CC[N@H+](C)CCC(CCCCOCc1ccccc1)(c1ccccc1)c1ccccc1

>  <Energy>  (18) 
82.95832752152009

>  <Genealogy>  (18) 
CC[NH+](C)CCC(CCCCOCc1ccccc1)(c1ccccc1)c1ccccc1 (protonated)
CC[N@H+](C)CCC(CCCCOCc1ccccc1)(c1ccccc1)c1ccccc1 (chirality)
CC[N@H+](C)CCC(CCCCOCc1ccccc1)(c1ccccc1)c1ccccc1 (3D coordinates assigned)
CC[N@H+](C)CCC(CCCCOCc1ccccc1)(c1ccccc1)c1ccccc1 (optimized conformer: 82.95832752152009 kcal/mol)

>  <smiles>  (18) 
CCN(C)CCC(CCCCOCc1ccccc1)(c1ccccc1)c1ccccc1

>  <score_type>  (18) 
oracle

>  <origin>  (18) 
adg

>  <m_score__min__energy>  (18) 
-8.6099999999999994

>  <m_primary>  (18) 
energy

$$$$
18:0
     RDKit          3D

 58 61  0  0  0  0  0  0  0  0999 V2000
   -4.5580   23.0290  -28.8930 C   0  0  0  0  0  0  0  0  0  0  0  0
   -3.2330   22.5700  -29.5230 C   0  0  0  0  0  0  0  0  0  0  0  0
   -2.9860   21.1030  -29.4740 N   0  0  0  0  0  0  0  0  0  0  0  0
   -2.7490   20.5640  -28.1160 C   0  0  0  0  0  0  0  0  0  0  0  0
   -1.3660   19.9280  -27.9860 C   0  0  0  0  0  0  0  0  0  0  0  0
   -1.9500   20.6460  -30.4290 C   0  0  0  0  0  0  0  0  0  0  0  0
   -1.6770   21.7130  -31.5080 C   0  0  0  0  0  0  0  0  0  0  0  0
   -1.3440   21.1080  -32.8900 C   0  0  0  0  0  0  0  0  0  0  0  0
   -2.4730   21.1570  -33.8490 N   0  0  0  0  0  0  0  0  0  0  0  0
   -3.6250   20.3710  -33.4220 C   0  0  0  0  0  0  0  0  0  0  0  0
   -3.6940   18.9620  -33.6540 C   0  0  0  0  0  0  0  0  0  0  0  0
   -2.6800   18.2460  -34.3420 C   0  0  0  0  0  0  0  0  0  0  0  0
   -2.7810   16.8750  -34.5590 C   0  0  0  0  0  0  0  0  0  0  0  0
   -3.8850   16.1720  -34.0960 C   0  0  0  0  0  0  0  0  0  0  0  0
   -4.0120   14.4460  -34.3880 Cl  0  0  0  0  0  0  0  0  0  0  0  0
   -4.8890   16.8400  -33.3990 C   0  0  0  0  0  0  0  0  0  0  0  0
   -4.8120   18.2340  -33.1600 C   0  0  0  0  0  0  0  0  0  0  0  0
   -5.8070   18.8760  -32.4600 N   0  0  0  0  0  0  0  0  0  0  0  0
   -6.5850   18.1020  -31.4670 C   0  0  0  0  0  0  0  0  0  0  0  0
   -5.9090   20.2500  -32.5100 C   0  0  0  0  0  0  0  0  0  0  0  0
   -4.7540   21.0150  -32.8340 C   0  0  0  0  0  0  0  0  0  0  0  0
   -4.7630   22.4030  -32.5590 C   0  0  0  0  0  0  0  0  0  0  0  0
   -5.9020   23.0380  -32.0830 C   0  0  0  0  0  0  0  0  0  0  0  0
   -7.0970   22.3330  -31.9590 C   0  0  0  0  0  0  0  0  0  0  0  0
   -8.2800   23.0120  -31.6240 C   0  0  0  0  0  0  0  0  0  0  0  0
   -9.4670   22.3540  -31.6270 N   0  0  0  0  0  0  0  0  0  0  0  0
   -9.5510   21.0430  -31.9630 C   0  0  0  0  0  0  0  0  0  0  0  0
   -8.4000   20.3250  -32.2930 C   0  0  0  0  0  0  0  0  0  0  0  0
   -7.1310   20.9430  -32.2230 C   0  0  0  0  0  0  0  0  0  0  0  0
   -4.4724   22.9994  -27.7967 H   0  0  0  0  0  0  0  0  0  0  0  0
   -4.7808   24.0567  -29.2157 H   0  0  0  0  0  0  0  0  0  0  0  0
   -5.3688   22.3594  -29.2157 H   0  0  0  0  0  0  0  0  0  0  0  0
   -3.2315   22.8809  -30.5782 H   0  0  0  0  0  0  0  0  0  0  0  0
   -2.4333   23.0356  -28.9283 H   0  0  0  0  0  0  0  0  0  0  0  0
   -2.8322   21.3849  -27.3886 H   0  0  0  0  0  0  0  0  0  0  0  0
   -3.5009   19.7844  -27.9239 H   0  0  0  0  0  0  0  0  0  0  0  0
   -1.1143   19.8122  -26.9215 H   0  0  0  0  0  0  0  0  0  0  0  0
   -1.3692   18.9409  -28.4715 H   0  0  0  0  0  0  0  0  0  0  0  0
   -0.6187   20.5729  -28.4715 H   0  0  0  0  0  0  0  0  0  0  0  0
   -1.0187   20.4452  -29.8792 H   0  0  0  0  0  0  0  0  0  0  0  0
   -2.3118   19.7334  -30.9252 H   0  0  0  0  0  0  0  0  0  0  0  0
   -2.5716   22.3451  -31.6092 H   0  0  0  0  0  0  0  0  0  0  0  0
   -0.7987   22.2900  -31.1830 H   0  0  0  0  0  0  0  0  0  0  0  0
   -0.4991   21.6665  -33.3192 H   0  0  0  0  0  0  0  0  0  0  0  0
   -1.1058   20.0465  -32.7275 H   0  0  0  0  0  0  0  0  0  0  0  0
   -2.7070   22.1450  -34.0760 H   0  0  0  0  0  0  0  0  0  0  0  0
   -2.1460   20.8000  -34.7750 H   0  0  0  0  0  0  0  0  0  0  0  0
   -1.7957   18.7860  -34.7115 H   0  0  0  0  0  0  0  0  0  0  0  0
   -1.9825   16.3460  -35.0998 H   0  0  0  0  0  0  0  0  0  0  0  0
   -5.7568   16.2751  -33.0277 H   0  0  0  0  0  0  0  0  0  0  0  0
   -6.2845   18.4010  -30.4520 H   0  0  0  0  0  0  0  0  0  0  0  0
   -7.6578   18.3016  -31.6055 H   0  0  0  0  0  0  0  0  0  0  0  0
   -6.3909   17.0281  -31.6055 H   0  0  0  0  0  0  0  0  0  0  0  0
   -3.8485   22.9910  -32.7259 H   0  0  0  0  0  0  0  0  0  0  0  0
   -5.8608   24.1010  -31.8029 H   0  0  0  0  0  0  0  0  0  0  0  0
   -8.2444   24.0789  -31.3587 H   0  0  0  0  0  0  0  0  0  0  0  0
  -10.5306   20.5428  -31.9756 H   0  0  0  0  0  0  0  0  0  0  0  0
   -8.4812   19.2744  -32.6087 H   0  0  0  0  0  0  0  0  0  0  0  0
  1  2  1  0
  2  3  1  0
  3  4  1  0
  4  5  1  0
  3  6  1  0
  6  7  1  0
  7  8  1  0
  8  9  1  0
  9 10  1  0
 10 11  2  0
 11 12  1  0
 12 13  2  0
 13 14  1  0
 14 15  1  0
 14 16  2  0
 16 17  1  0
 17 18  2  0
 18 19  1  0
 18 20  1  0
 20 21  2  0
 21 22  1  0
 22 23  2  0
 23 24  1  0
 24 25  2  0
 25 26  1  0
 26 27  2  0
 27 28  1  0
 28 29  2  0
 21 10  1  0
 29 24  1  0
 17 11  1  0
 29 20  1  0
  1 30  1  0
  1 31  1  0
  1 32  1  0
  2 33  1  0
  2 34  1  0
  4 35  1  0
  4 36  1  0
  5 37  1  0
  5 38  1  0
  5 39  1  0
  6 40  1  0
  6 41  1  0
  7 42  1  0
  7 43  1  0
  8 44  1  0
  8 45  1  0
  9 46  1  0
  9 47  1  0
 12 48  1  0
 13 49  1  0
 16 50  1  0
 19 51  1  0
 19 52  1  0
 19 53  1  0
 22 54  1  0
 23 55  1  0
 25 56  1  0
 27 57  1  0
 28 58  1  0
M  CHG  2   9   1  18   1
M  END
>  <UniqueID>  (19) 
19

>  <SMILES>  (19) 
CCN(CC)CCC[NH2+]c1c2ccc(Cl)cc2[n+](C)c2c1ccc1cnccc12

>  <Energy>  (19) 
107.96184495838766

>  <Genealogy>  (19) 
CCN(CC)CCC[NH2+]c1c2ccc(Cl)cc2[n+](C)c2c1ccc1cnccc12 (protonated)
CCN(CC)CCC[NH2+]c1c2ccc(Cl)cc2[n+](C)c2c1ccc1cnccc12 (3D coordinates assigned)
CCN(CC)CCC[NH2+]c1c2ccc(Cl)cc2[n+](C)c2c1ccc1cnccc12 (optimized conformer: 107.96184495838766 kcal/mol)

>  <smiles>  (19) 
CCN(CC)CCCNc1c2ccc(Cl)cc2[n+](C)c2c1ccc1cnccc12

>  <score_type>  (19) 
oracle

>  <origin>  (19) 
adg

>  <m_score__min__energy>  (19) 
-8.2799999999999994

>  <m_primary>  (19) 
energy

$$$$
19:0
     RDKit          3D

 45 46  0  0  0  0  0  0  0  0999 V2000
    0.5950   23.8320  -24.7220 C   0  0  0  0  0  0  0  0  0  0  0  0
   -0.2880   23.3710  -25.7920 C   0  0  0  0  0  0  0  0  0  0  0  0
   -1.0150   22.9890  -26.6760 C   0  0  0  0  0  0  0  0  0  0  0  0
   -1.8850   22.5300  -27.7330 C   0  0  0  0  0  0  0  0  0  0  0  0
   -2.4200   23.4700  -28.6210 C   0  0  0  0  0  0  0  0  0  0  0  0
   -3.2730   23.0650  -29.6600 C   0  0  0  0  0  0  0  0  0  0  0  0
   -3.5940   21.7010  -29.8140 C   0  0  0  0  0  0  0  0  0  0  0  0
   -3.0460   20.7590  -28.9240 C   0  0  0  0  0  0  0  0  0  0  0  0
   -2.1960   21.1630  -27.8810 C   0  0  0  0  0  0  0  0  0  0  0  0
   -1.6300   20.1320  -26.9390 C   0  0  0  0  0  0  0  0  0  0  0  0
   -4.4190   21.3140  -30.8350 N   0  0  0  0  0  0  0  0  0  0  0  0
   -4.6160   19.9660  -31.0730 O   0  0  0  0  0  0  0  0  0  0  0  0
   -4.9780   22.2630  -31.6500 C   0  0  0  0  0  0  0  0  0  0  0  0
   -5.9490   21.9210  -32.6460 N   0  0  0  0  0  0  0  0  0  0  0  0
   -7.3870   22.0450  -32.3970 C   0  0  0  0  0  0  0  0  0  0  0  0
   -7.9590   20.7610  -31.7810 C   0  0  0  0  0  0  0  0  0  0  0  0
   -7.9010   19.5450  -32.7250 C   0  0  0  0  0  0  0  0  0  0  0  0
   -6.5450   18.9560  -32.7920 N   0  0  0  0  0  0  0  0  0  0  0  0
   -6.0510   18.9120  -34.1800 C   0  0  0  0  0  0  0  0  0  0  0  0
   -6.5580   17.5930  -32.2360 C   0  0  0  0  0  0  0  0  0  0  0  0
   -4.6300   23.5670  -31.5000 N   0  0  0  0  0  0  0  0  0  0  0  0
   -3.7960   23.9650  -30.5420 N   0  0  0  0  0  0  0  0  0  0  0  0
   -3.4940   25.3050  -30.4450 O   0  0  0  0  0  0  0  0  0  0  0  0
    0.1436   23.5963  -23.7470 H   0  0  0  0  0  0  0  0  0  0  0  0
    1.5686   23.3271  -24.8069 H   0  0  0  0  0  0  0  0  0  0  0  0
    0.7373   24.9195  -24.8069 H   0  0  0  0  0  0  0  0  0  0  0  0
   -2.1702   24.5348  -28.5040 H   0  0  0  0  0  0  0  0  0  0  0  0
   -3.2862   19.6926  -29.0465 H   0  0  0  0  0  0  0  0  0  0  0  0
   -1.8043   20.4494  -25.9003 H   0  0  0  0  0  0  0  0  0  0  0  0
   -2.1236   19.1648  -27.1145 H   0  0  0  0  0  0  0  0  0  0  0  0
   -0.5490   20.0292  -27.1145 H   0  0  0  0  0  0  0  0  0  0  0  0
   -5.3030   19.6260  -31.7350 H   0  0  0  0  0  0  0  0  0  0  0  0
   -5.6390   21.9290  -33.6430 H   0  0  0  0  0  0  0  0  0  0  0  0
   -7.5599   22.8823  -31.7049 H   0  0  0  0  0  0  0  0  0  0  0  0
   -7.8916   22.2238  -33.3579 H   0  0  0  0  0  0  0  0  0  0  0  0
   -7.3839   20.5245  -30.8736 H   0  0  0  0  0  0  0  0  0  0  0  0
   -9.0207   20.9518  -31.5657 H   0  0  0  0  0  0  0  0  0  0  0  0
   -8.6024   18.7798  -32.3611 H   0  0  0  0  0  0  0  0  0  0  0  0
   -8.1718   19.8871  -33.7348 H   0  0  0  0  0  0  0  0  0  0  0  0
   -4.9553   18.8144  -34.1763 H   0  0  0  0  0  0  0  0  0  0  0  0
   -6.4942   18.0498  -34.6998 H   0  0  0  0  0  0  0  0  0  0  0  0
   -6.3348   19.8390  -34.6998 H   0  0  0  0  0  0  0  0  0  0  0  0
   -6.5575   17.6452  -31.1372 H   0  0  0  0  0  0  0  0  0  0  0  0
   -7.4612   17.0662  -32.5776 H   0  0  0  0  0  0  0  0  0  0  0  0
   -5.6650   17.0491  -32.5776 H   0  0  0  0  0  0  0  0  0  0  0  0
  1  2  1  0
  2  3  3  0
  3  4  1  0
  4  5  2  0
  5  6  1  0
  6  7  2  0
  7  8  1  0
  8  9  2  0
  9 10  1  0
  7 11  1  0
 11 12  1  0
 11 13  2  0
 13 14  1  0
 14 15  1  0
 15 16  1  0
 16 17  1  0
 17 18  1  0
 18 19  1  0
 18 20  1  0
 13 21  1  0
 21 22  2  0
 22 23  1  0
  9  4  1  0
 22  6  1  0
  1 24  1  0
  1 25  1  0
  1 26  1  0
  5 27  1  0
  8 28  1  0
 10 29  1  0
 10 30  1  0
 10 31  1  0
 12 32  1  0
 14 33  1  0
 15 34  1  0
 15 35  1  0
 16 36  1  0
 16 37  1  0
 17 38  1  0
 17 39  1  0
 19 40  1  0
 19 41  1  0
 19 42  1  0
 20 43  1  0
 20 44  1  0
 20 45  1  0
M  CHG  3  11   1  22   1  23  -1
M  END
>  <UniqueID>  (20) 
20

>  <SMILES>  (20) 
CC#Cc1cc2c(cc1C)[n+](O)c(NCCCN(C)C)n[n+]2[O-]

>  <Energy>  (20) 
46.50644561168824

>  <Genealogy>  (20) 
CC#Cc1cc2c(cc1C)[n+](O)c(NCCCN(C)C)n[n+]2[O-] (protonated)
CC#Cc1cc2c(cc1C)[n+](O)c(NCCCN(C)C)n[n+]2[O-] (3D coordinates assigned)
CC#Cc1cc2c(cc1C)[n+](O)c(NCCCN(C)C)n[n+]2[O-] (optimized conformer: 46.50644561168824 kcal/mol)

>  <smiles>  (20) 
CC#Cc1cc2c(cc1C)[n+]([O-])c(NCCCN(C)C)n[n+]2[O-]

>  <score_type>  (20) 
oracle

>  <origin>  (20) 
adg

>  <m_score__min__energy>  (20) 
-7.04

>  <m_primary>  (20) 
energy

$$$$
20:0
     RDKit          3D

 47 49  0  0  1  0  0  0  0  0999 V2000
   -8.8550   18.7090  -31.6350 C   0  0  0  0  0  0  0  0  0  0  0  0
   -8.3920   19.7770  -31.9540 C   0  0  0  0  0  0  0  0  0  0  0  0
   -7.8080   21.0650  -32.3420 C   0  0  0  0  0  0  0  0  0  0  0  0
   -8.6070   22.1040  -31.6730 N   0  0  0  0  0  0  0  0  0  0  0  0
   -8.3020   21.9210  -30.2460 C   0  0  0  0  0  0  0  0  0  0  0  0
   -8.1070   23.4140  -32.1060 C   0  0  0  0  0  0  0  0  0  0  0  0
   -6.8360   23.7400  -31.3720 C   0  0  0  0  0  0  0  0  0  0  0  0
   -6.8610   24.7770  -30.4650 C   0  0  0  0  0  0  0  0  0  0  0  0
   -5.7340   25.1490  -29.7420 C   0  0  0  0  0  0  0  0  0  0  0  0
   -4.5890   24.4190  -29.9840 C   0  0  0  0  0  0  0  0  0  0  0  0
   -3.4760   24.7650  -29.3050 N   0  0  0  0  0  0  0  0  0  0  0  0
   -2.3270   24.0950  -29.5090 C   0  0  0  0  0  0  0  0  0  0  0  0
   -1.2680   24.4390  -28.8530 N   0  0  0  0  0  0  0  0  0  0  0  0
   -1.1230   24.1130  -27.4650 C   0  0  0  0  0  0  0  0  0  0  0  0
   -1.9900   25.0070  -26.5820 C   0  0  0  0  0  0  0  0  0  0  0  0
   -2.2810   23.0700  -30.3970 N   0  0  0  0  0  0  0  0  0  0  0  0
   -3.3750   22.6890  -31.0970 C   0  0  0  0  0  0  0  0  0  0  0  0
   -3.2220   21.5870  -32.0220 C   0  0  0  0  0  0  0  0  0  0  0  0
   -2.1090   21.5860  -32.8550 C   0  0  0  0  0  0  0  0  0  0  0  0
   -1.8640   20.5570  -33.7530 C   0  0  0  0  0  0  0  0  0  0  0  0
   -2.7610   19.5110  -33.8070 C   0  0  0  0  0  0  0  0  0  0  0  0
   -3.8760   19.4670  -33.0010 C   0  0  0  0  0  0  0  0  0  0  0  0
   -4.0830   20.5180  -32.1170 C   0  0  0  0  0  0  0  0  0  0  0  0
   -4.5400   23.3820  -30.8800 C   0  0  0  0  0  0  0  0  0  0  0  0
   -5.6710   23.0350  -31.5840 C   0  0  0  0  0  0  0  0  0  0  0  0
   -9.2770   17.7356  -31.3443 H   0  0  0  0  0  0  0  0  0  0  0  0
   -6.7597   21.1214  -32.0136 H   0  0  0  0  0  0  0  0  0  0  0  0
   -7.8207   21.1949  -33.4342 H   0  0  0  0  0  0  0  0  0  0  0  0
   -9.0889   22.3931  -29.6394 H   0  0  0  0  0  0  0  0  0  0  0  0
   -8.2566   20.8464  -30.0156 H   0  0  0  0  0  0  0  0  0  0  0  0
   -7.3324   22.3867  -30.0156 H   0  0  0  0  0  0  0  0  0  0  0  0
   -7.9086   23.3902  -33.1877 H   0  0  0  0  0  0  0  0  0  0  0  0
   -8.8621   24.1828  -31.8854 H   0  0  0  0  0  0  0  0  0  0  0  0
   -7.8009   25.3267  -30.3086 H   0  0  0  0  0  0  0  0  0  0  0  0
   -5.7539   25.9775  -29.0187 H   0  0  0  0  0  0  0  0  0  0  0  0
   -3.5230   25.5670  -28.6150 H   0  0  0  0  0  0  0  0  0  0  0  0
   -1.4199   23.0650  -27.3120 H   0  0  0  0  0  0  0  0  0  0  0  0
   -0.0711   24.2695  -27.1838 H   0  0  0  0  0  0  0  0  0  0  0  0
   -1.7806   24.7911  -25.5239 H   0  0  0  0  0  0  0  0  0  0  0  0
   -1.7623   26.0623  -26.7929 H   0  0  0  0  0  0  0  0  0  0  0  0
   -3.0518   24.8118  -26.7929 H   0  0  0  0  0  0  0  0  0  0  0  0
   -1.4012   22.4263  -32.8006 H   0  0  0  0  0  0  0  0  0  0  0  0
   -0.9779   20.5751  -34.4045 H   0  0  0  0  0  0  0  0  0  0  0  0
   -2.5803   18.6882  -34.5144 H   0  0  0  0  0  0  0  0  0  0  0  0
   -4.5817   18.6249  -33.0554 H   0  0  0  0  0  0  0  0  0  0  0  0
   -4.9703   20.4949  -31.4672 H   0  0  0  0  0  0  0  0  0  0  0  0
   -5.6452   22.2058  -32.3063 H   0  0  0  0  0  0  0  0  0  0  0  0
  1  2  3  0
  2  3  1  0
  3  4  1  0
  4  5  1  0
  4  6  1  0
  6  7  1  0
  7  8  2  0
  8  9  1  0
  9 10  2  0
 10 11  1  0
 11 12  1  0
 12 13  2  0
 13 14  1  0
 14 15  1  0
 12 16  1  0
 16 17  2  0
 17 18  1  0
 18 19  2  0
 19 20  1  0
 20 21  2  0
 21 22  1  0
 22 23  2  0
 17 24  1  0
 24 25  2  0
 25  7  1  0
 24 10  1  0
 23 18  1  0
  1 26  1  0
  3 27  1  0
  3 28  1  0
  5 29  1  0
  5 30  1  0
  5 31  1  0
  6 32  1  0
  6 33  1  0
  8 34  1  0
  9 35  1  0
 11 36  1  0
 14 37  1  0
 14 38  1  0
 15 39  1  0
 15 40  1  0
 15 41  1  0
 19 42  1  0
 20 43  1  0
 21 44  1  0
 22 45  1  0
 23 46  1  0
 25 47  1  0
M  END
>  <smiles>  (21) 
C#CCN(C)Cc1ccc2[nH]c(=NCC)nc(-c3ccccc3)c2c1

>  <score_type>  (21) 
oracle

>  <origin>  (21) 
adg

>  <m_score__min__energy>  (21) 
-8.1699999999999999

>  <m_primary>  (21) 
energy

$$$$
21:0
     RDKit          3D

 64 66  0  0  0  0  0  0  0  0999 V2000
   -1.5060   24.2010  -28.9100 C   0  0  0  0  0  0  0  0  0  0  0  0
   -2.0900   23.3600  -30.0460 C   0  0  0  0  0  0  0  0  0  0  0  0
   -3.3650   22.7260  -29.6780 N   0  0  0  0  0  0  0  0  0  0  0  0
   -3.4590   21.9820  -28.4090 C   0  0  0  0  0  0  0  0  0  0  0  0
   -2.6510   20.6920  -28.4660 C   0  0  0  0  0  0  0  0  0  0  0  0
   -4.5770   23.3530  -30.1460 C   0  0  0  0  0  0  0  0  0  0  0  0
   -4.8510   24.6490  -29.6910 C   0  0  0  0  0  0  0  0  0  0  0  0
   -6.1090   25.2080  -29.8590 C   0  0  0  0  0  0  0  0  0  0  0  0
   -7.1240   24.4780  -30.4660 C   0  0  0  0  0  0  0  0  0  0  0  0
   -6.8840   23.1850  -30.9910 C   0  0  0  0  0  0  0  0  0  0  0  0
   -5.5750   22.6360  -30.8650 C   0  0  0  0  0  0  0  0  0  0  0  0
   -5.3140   21.3970  -31.4850 C   0  0  0  0  0  0  0  0  0  0  0  0
   -3.9690   20.9970  -31.7950 N   0  0  0  0  0  0  0  0  0  0  0  0
   -3.1430   21.5920  -32.8630 C   0  0  0  0  0  0  0  0  0  0  0  0
   -1.6950   21.0500  -32.9320 C   0  0  0  0  0  0  0  0  0  0  0  0
   -1.3910   20.3850  -34.2330 N   0  0  0  0  0  0  0  0  0  0  0  0
    0.0420   20.5990  -34.6040 C   0  0  0  0  0  0  0  0  0  0  0  0
    0.2650   21.8880  -35.4040 C   0  0  0  0  0  0  0  0  0  0  0  0
   -1.7270   18.9400  -34.1270 C   0  0  0  0  0  0  0  0  0  0  0  0
   -3.2310   18.6630  -34.1720 C   0  0  0  0  0  0  0  0  0  0  0  0
   -6.3870   20.5830  -31.8730 C   0  0  0  0  0  0  0  0  0  0  0  0
   -6.1750   19.2460  -32.2670 C   0  0  0  0  0  0  0  0  0  0  0  0
   -7.2490   18.4300  -32.6100 C   0  0  0  0  0  0  0  0  0  0  0  0
   -8.5460   18.9300  -32.5640 C   0  0  0  0  0  0  0  0  0  0  0  0
   -8.7740   20.2580  -32.2040 C   0  0  0  0  0  0  0  0  0  0  0  0
   -7.6970   21.1210  -31.8840 C   0  0  0  0  0  0  0  0  0  0  0  0
   -7.8900   22.4600  -31.6040 N   0  0  0  0  0  0  0  0  0  0  0  0
   -9.1620   23.1170  -31.9770 C   0  0  0  0  0  0  0  0  0  0  0  0
   -1.8054   23.7699  -27.9433 H   0  0  0  0  0  0  0  0  0  0  0  0
   -0.4086   24.2067  -28.9848 H   0  0  0  0  0  0  0  0  0  0  0  0
   -1.8840   25.2313  -28.9848 H   0  0  0  0  0  0  0  0  0  0  0  0
   -2.2578   24.0109  -30.9167 H   0  0  0  0  0  0  0  0  0  0  0  0
   -1.3711   22.5590  -30.2731 H   0  0  0  0  0  0  0  0  0  0  0  0
   -3.0724   22.6119  -27.5942 H   0  0  0  0  0  0  0  0  0  0  0  0
   -4.5140   21.7249  -28.2331 H   0  0  0  0  0  0  0  0  0  0  0  0
   -2.4359   20.3486  -27.4434 H   0  0  0  0  0  0  0  0  0  0  0  0
   -3.2280   19.9212  -28.9979 H   0  0  0  0  0  0  0  0  0  0  0  0
   -1.7056   20.8747  -28.9979 H   0  0  0  0  0  0  0  0  0  0  0  0
   -4.0596   25.2299  -29.1949 H   0  0  0  0  0  0  0  0  0  0  0  0
   -6.3042   26.2329  -29.5105 H   0  0  0  0  0  0  0  0  0  0  0  0
   -8.1319   24.9125  -30.5399 H   0  0  0  0  0  0  0  0  0  0  0  0
   -3.6310   20.1040  -31.3780 H   0  0  0  0  0  0  0  0  0  0  0  0
   -3.6316   21.3905  -33.8277 H   0  0  0  0  0  0  0  0  0  0  0  0
   -3.0646   22.6655  -32.6364 H   0  0  0  0  0  0  0  0  0  0  0  0
   -0.9979   21.8897  -32.7945 H   0  0  0  0  0  0  0  0  0  0  0  0
   -1.5841   20.2957  -32.1391 H   0  0  0  0  0  0  0  0  0  0  0  0
   -2.0080   20.8020  -34.9680 H   0  0  0  0  0  0  0  0  0  0  0  0
    0.6394   20.6504  -33.6818 H   0  0  0  0  0  0  0  0  0  0  0  0
    0.3470   19.7570  -35.2428 H   0  0  0  0  0  0  0  0  0  0  0  0
    0.4106   22.7294  -34.7105 H   0  0  0  0  0  0  0  0  0  0  0  0
    1.1572   21.7765  -36.0377 H   0  0  0  0  0  0  0  0  0  0  0  0
   -0.6128   22.0828  -36.0377 H   0  0  0  0  0  0  0  0  0  0  0  0
   -1.2490   18.4083  -34.9629 H   0  0  0  0  0  0  0  0  0  0  0  0
   -1.3608   18.5914  -33.1501 H   0  0  0  0  0  0  0  0  0  0  0  0
   -3.6214   18.5911  -33.1461 H   0  0  0  0  0  0  0  0  0  0  0  0
   -3.7391   19.4827  -34.7011 H   0  0  0  0  0  0  0  0  0  0  0  0
   -3.4138   17.7161  -34.7011 H   0  0  0  0  0  0  0  0  0  0  0  0
   -5.1517   18.8442  -32.3036 H   0  0  0  0  0  0  0  0  0  0  0  0
   -7.0719   17.3889  -32.9177 H   0  0  0  0  0  0  0  0  0  0  0  0
   -9.3948   18.2759  -32.8124 H   0  0  0  0  0  0  0  0  0  0  0  0
   -9.8046   20.6407  -32.1680 H   0  0  0  0  0  0  0  0  0  0  0  0
   -9.7096   23.3998  -31.0659 H   0  0  0  0  0  0  0  0  0  0  0  0
   -8.9489   24.0178  -32.5712 H   0  0  0  0  0  0  0  0  0  0  0  0
   -9.7733   22.4219  -32.5712 H   0  0  0  0  0  0  0  0  0  0  0  0
  1  2  1  0
  2  3  1  0
  3  4  1  0
  4  5  1  0
  3  6  1  0
  6  7  2  0
  7  8  1  0
  8  9  2  0
  9 10  1  0
 10 11  2  0
 11 12  1  0
 12 13  1  0
 13 14  1  0
 14 15  1  0
 15 16  1  0
 16 17  1  0
 17 18  1  0
 16 19  1  0
 19 20  1  0
 12 21  2  0
 21 22  1  0
 22 23  2  0
 23 24  1  0
 24 25  2  0
 25 26  1  0
 26 27  2  0
 27 28  1  0
 11  6  1  0
 26 21  1  0
 27 10  1  0
  1 29  1  0
  1 30  1  0
  1 31  1  0
  2 32  1  0
  2 33  1  0
  4 34  1  0
  4 35  1  0
  5 36  1  0
  5 37  1  0
  5 38  1  0
  7 39  1  0
  8 40  1  0
  9 41  1  0
 13 42  1  0
 14 43  1  0
 14 44  1  0
 15 45  1  0
 15 46  1  0
 16 47  1  0
 17 48  1  0
 17 49  1  0
 18 50  1  0
 18 51  1  0
 18 52  1  0
 19 53  1  0
 19 54  1  0
 20 55  1  0
 20 56  1  0
 20 57  1  0
 22 58  1  0
 23 59  1  0
 24 60  1  0
 25 61  1  0
 28 62  1  0
 28 63  1  0
 28 64  1  0
M  CHG  2  16   1  27   1
M  END
>  <UniqueID>  (22) 
21

>  <SMILES>  (22) 
CCN(CC)c1cccc2c1c(NCC[NH+](CC)CC)c1ccccc1[n+]2C

>  <Energy>  (22) 
101.39504255430923

>  <Genealogy>  (22) 
CCN(CC)c1cccc2c1c(NCC[NH+](CC)CC)c1ccccc1[n+]2C (protonated)
CCN(CC)c1cccc2c1c(NCC[NH+](CC)CC)c1ccccc1[n+]2C (3D coordinates assigned)
CCN(CC)c1cccc2c1c(NCC[NH+](CC)CC)c1ccccc1[n+]2C (optimized conformer: 101.39504255430923 kcal/mol)

>  <smiles>  (22) 
CCN(CC)CCNc1c2ccccc2[n+](C)c2cccc(N(CC)CC)c12

>  <score_type>  (22) 
oracle

>  <origin>  (22) 
adg

>  <m_score__min__energy>  (22) 
-6.9100000000000001

>  <m_primary>  (22) 
energy

$$$$
22:0
     RDKit          3D

 39 40  0  0  0  0  0  0  0  0999 V2000
   -0.5880   25.1990  -27.6700 C   0  0  0  0  0  0  0  0  0  0  0  0
   -1.1500   24.5940  -28.9490 C   0  0  0  0  0  0  0  0  0  0  0  0
   -2.3670   25.2990  -29.3320 N   0  0  0  0  0  0  0  0  0  0  0  0
   -3.4930   24.7080  -29.9930 C   0  0  0  0  0  0  0  0  0  0  0  0
   -4.0820   25.3790  -30.8820 O   0  0  0  0  0  0  0  0  0  0  0  0
   -4.0370   23.3460  -29.6070 C   0  0  2  0  0  0  0  0  0  0  0  0
   -3.2580   22.2170  -30.3260 C   0  0  0  0  0  0  0  0  0  0  0  0
   -4.1180   20.9500  -30.4470 C   0  0  0  0  0  0  0  0  0  0  0  0
   -5.3670   21.1760  -31.2310 N   0  0  2  0  0  0  0  0  0  0  0  0
   -5.2000   20.7310  -32.6010 C   0  0  0  0  0  0  0  0  0  0  0  0
   -4.7290   21.5260  -33.4610 O   0  0  0  0  0  0  0  0  0  0  0  0
   -5.6170   19.3730  -33.0360 C   0  0  0  0  0  0  0  0  0  0  0  0
   -5.0220   18.7470  -34.1460 C   0  0  0  0  0  0  0  0  0  0  0  0
   -5.4120   17.4570  -34.5230 C   0  0  0  0  0  0  0  0  0  0  0  0
   -6.3930   16.7780  -33.7940 C   0  0  0  0  0  0  0  0  0  0  0  0
   -6.8810   15.1600  -34.2700 Cl  0  0  0  0  0  0  0  0  0  0  0  0
   -7.0040   17.4020  -32.7030 C   0  0  0  0  0  0  0  0  0  0  0  0
   -6.6260   18.6960  -32.3320 C   0  0  0  0  0  0  0  0  0  0  0  0
   -5.8510   22.5820  -31.2180 C   0  0  0  0  0  0  0  0  0  0  0  0
   -5.5590   23.2700  -29.8790 C   0  0  0  0  0  0  0  0  0  0  0  0
   -1.0456   24.7064  -26.7994 H   0  0  0  0  0  0  0  0  0  0  0  0
    0.5019   25.0526  -27.6432 H   0  0  0  0  0  0  0  0  0  0  0  0
   -0.8142   26.2752  -27.6432 H   0  0  0  0  0  0  0  0  0  0  0  0
   -0.4060   24.6847  -29.7541 H   0  0  0  0  0  0  0  0  0  0  0  0
   -1.3821   23.5323  -28.7787 H   0  0  0  0  0  0  0  0  0  0  0  0
   -3.8902   23.2011  -28.5265 H   0  0  0  0  0  0  0  0  0  0  0  0
   -2.9760   22.5586  -31.3329 H   0  0  0  0  0  0  0  0  0  0  0  0
   -2.3606   21.9781  -29.7364 H   0  0  0  0  0  0  0  0  0  0  0  0
   -3.5257   20.1687  -30.9457 H   0  0  0  0  0  0  0  0  0  0  0  0
   -4.4128   20.6496  -29.4307 H   0  0  0  0  0  0  0  0  0  0  0  0
   -6.1190   20.6080  -30.7770 H   0  0  0  0  0  0  0  0  0  0  0  0
   -4.2462   19.2740  -34.7207 H   0  0  0  0  0  0  0  0  0  0  0  0
   -4.9455   16.9759  -35.3953 H   0  0  0  0  0  0  0  0  0  0  0  0
   -7.7840   16.8740  -32.1349 H   0  0  0  0  0  0  0  0  0  0  0  0
   -7.1227   19.1874  -31.4824 H   0  0  0  0  0  0  0  0  0  0  0  0
   -5.3485   23.1394  -32.0222 H   0  0  0  0  0  0  0  0  0  0  0  0
   -6.9408   22.5709  -31.3674 H   0  0  0  0  0  0  0  0  0  0  0  0
   -5.9703   24.2899  -29.9028 H   0  0  0  0  0  0  0  0  0  0  0  0
   -6.0266   22.6810  -29.0763 H   0  0  0  0  0  0  0  0  0  0  0  0
  1  2  1  0
  2  3  1  0
  3  4  1  0
  4  5  2  0
  4  6  1  0
  6  7  1  0
  7  8  1  0
  8  9  1  0
  9 10  1  0
 10 11  2  0
 10 12  1  0
 12 13  2  0
 13 14  1  0
 14 15  2  0
 15 16  1  0
 15 17  1  0
 17 18  2  0
  9 19  1  0
 19 20  1  0
 20  6  1  0
 18 12  1  0
  1 21  1  0
  1 22  1  0
  1 23  1  0
  2 24  1  0
  2 25  1  0
  6 26  1  1
  7 27  1  0
  7 28  1  0
  8 29  1  0
  8 30  1  0
  9 31  1  1
 13 32  1  0
 14 33  1  0
 17 34  1  0
 18 35  1  0
 19 36  1  0
 19 37  1  0
 20 38  1  0
 20 39  1  0
M  CHG  2   3  -1   9   1
M  END
>  <UniqueID>  (23) 
22

>  <SMILES>  (23) 
CC[N-]C(=O)C1CC[NH+](C(=O)c2ccc(Cl)cc2)CC1

>  <Energy>  (23) 
47.509227425160084

>  <Genealogy>  (23) 
CC[N-]C(=O)C1CC[NH+](C(=O)c2ccc(Cl)cc2)CC1 (protonated)
CC[N-]C(=O)C1CC[NH+](C(=O)c2ccc(Cl)cc2)CC1 (3D coordinates assigned)
CC[N-]C(=O)C1CC[NH+](C(=O)c2ccc(Cl)cc2)CC1 (nonaromatic ring conformer: 47.509227425160084 kcal/mol)

>  <smiles>  (23) 
CCNC(=O)C1CCN(C(=O)c2ccc(Cl)cc2)CC1

>  <score_type>  (23) 
oracle

>  <origin>  (23) 
adg

>  <m_score__min__energy>  (23) 
-9.0999999999999996

>  <m_primary>  (23) 
energy

$$$$
