0:0
     RDKit          3D

 41 43  0  0  0  0  0  0  0  0999 V2000
   -6.1070   18.9420  -34.9990 N   0  0  0  0  0  0  0  0  0  0  0  0
   -6.0160   18.0560  -33.8740 C   0  0  0  0  0  0  0  0  0  0  0  0
   -5.2680   16.8760  -34.0000 C   0  0  0  0  0  0  0  0  0  0  0  0
   -5.1060   16.0170  -32.9110 C   0  0  0  0  0  0  0  0  0  0  0  0
   -5.6900   16.3280  -31.6840 C   0  0  0  0  0  0  0  0  0  0  0  0
   -6.4450   17.4940  -31.5430 C   0  0  0  0  0  0  0  0  0  0  0  0
   -6.6240   18.3660  -32.6310 C   0  0  0  0  0  0  0  0  0  0  0  0
   -7.4810   19.5600  -32.4550 C   0  0  0  0  0  0  0  0  0  0  0  0
   -8.7340   19.4100  -32.1350 N   0  0  0  0  0  0  0  0  0  0  0  0
   -9.6510   20.5400  -31.9660 C   0  0  0  0  0  0  0  0  0  0  0  0
   -8.9310   21.7170  -31.2990 C   0  0  0  0  0  0  0  0  0  0  0  0
   -7.6970   22.0290  -32.0310 N   0  0  0  0  0  0  0  0  0  0  0  0
   -7.3400   23.4210  -32.3530 C   0  0  0  0  0  0  0  0  0  0  0  0
   -6.0680   23.9180  -31.6220 C   0  0  1  0  0  0  0  0  0  0  0  0
   -6.3300   24.5440  -30.2580 C   0  0  0  0  0  0  0  0  0  0  0  0
   -5.0170   24.3700  -29.5110 C   0  0  0  0  0  0  0  0  0  0  0  0
   -4.1870   23.4040  -30.3550 C   0  0  0  0  0  0  0  0  0  0  0  0
   -5.0540   22.8840  -31.4120 N   0  0  0  0  0  0  0  0  0  0  0  0
   -6.9190   20.9260  -32.5380 C   0  0  0  0  0  0  0  0  0  0  0  0
   -5.7880   21.1200  -33.0620 O   0  0  0  0  0  0  0  0  0  0  0  0
   -5.8250   19.9430  -34.9080 H   0  0  0  0  0  0  0  0  0  0  0  0
   -6.5260   18.6440  -35.9070 H   0  0  0  0  0  0  0  0  0  0  0  0
   -4.8048   16.6250  -34.9656 H   0  0  0  0  0  0  0  0  0  0  0  0
   -4.5172   15.0944  -33.0214 H   0  0  0  0  0  0  0  0  0  0  0  0
   -5.5558   15.6536  -30.8254 H   0  0  0  0  0  0  0  0  0  0  0  0
   -6.9038   17.7324  -30.5721 H   0  0  0  0  0  0  0  0  0  0  0  0
  -10.0239   20.8548  -32.9518 H   0  0  0  0  0  0  0  0  0  0  0  0
  -10.4898   20.2264  -31.3272 H   0  0  0  0  0  0  0  0  0  0  0  0
   -9.5902   22.5976  -31.3037 H   0  0  0  0  0  0  0  0  0  0  0  0
   -8.6785   21.4464  -30.2631 H   0  0  0  0  0  0  0  0  0  0  0  0
   -7.1696   23.4948  -33.4372 H   0  0  0  0  0  0  0  0  0  0  0  0
   -8.1742   24.0547  -32.0175 H   0  0  0  0  0  0  0  0  0  0  0  0
   -5.6968   24.6802  -32.3229 H   0  0  0  0  0  0  0  0  0  0  0  0
   -6.5831   25.6097  -30.3597 H   0  0  0  0  0  0  0  0  0  0  0  0
   -7.1779   24.0772  -29.7353 H   0  0  0  0  0  0  0  0  0  0  0  0
   -4.5000   25.3360  -29.4137 H   0  0  0  0  0  0  0  0  0  0  0  0
   -5.1767   23.9858  -28.4927 H   0  0  0  0  0  0  0  0  0  0  0  0
   -3.3310   23.9336  -30.7985 H   0  0  0  0  0  0  0  0  0  0  0  0
   -3.7995   22.5829  -29.7340 H   0  0  0  0  0  0  0  0  0  0  0  0
   -5.4820   21.9930  -31.0710 H   0  0  0  0  0  0  0  0  0  0  0  0
   -4.5100   22.7100  -32.2900 H   0  0  0  0  0  0  0  0  0  0  0  0
  1  2  1  0
  2  3  2  0
  3  4  1  0
  4  5  2  0
  5  6  1  0
  6  7  2  0
  7  8  1  0
  8  9  2  0
  9 10  1  0
 10 11  1  0
 11 12  1  0
 12 13  1  0
 13 14  1  0
 14 15  1  0
 15 16  1  0
 16 17  1  0
 17 18  1  0
 12 19  1  0
 19 20  2  0
  7  2  1  0
 19  8  1  0
 18 14  1  0
  1 21  1  0
  1 22  1  0
  3 23  1  0
  4 24  1  0
  5 25  1  0
  6 26  1  0
 10 27  1  0
 10 28  1  0
 11 29  1  0
 11 30  1  0
 13 31  1  0
 13 32  1  0
 14 33  1  6
 15 34  1  0
 15 35  1  0
 16 36  1  0
 16 37  1  0
 17 38  1  0
 17 39  1  0
 18 40  1  0
 18 41  1  0
M  CHG  1  18   1
M  END
>  <UniqueID>  (1) 
1

>  <SMILES>  (1) 
Nc1ccccc1C1=NCCN(C[C@H]2CCC[NH2+]2)C1=O

>  <Energy>  (1) 
50.09165562996945

>  <Genealogy>  (1) 
Nc1ccccc1C1=NCCN(CC2CCC[NH2+]2)C1=O (protonated)
Nc1ccccc1C1=NCCN(C[C@H]2CCC[NH2+]2)C1=O (chirality)
Nc1ccccc1C1=NCCN(C[C@H]2CCC[NH2+]2)C1=O (3D coordinates assigned)
Nc1ccccc1C1=NCCN(C[C@H]2CCC[NH2+]2)C1=O (nonaromatic ring conformer: 50.09165562996945 kcal/mol)

>  <smiles>  (1) 
Nc1ccccc1C1=NCCN(CC2CCCN2)C1=O

>  <score_type>  (1) 
oracle

>  <origin>  (1) 
adg

>  <m_score__min__energy>  (1) 
-6.0700000000000003

>  <m_primary>  (1) 
energy

$$$$
1:0
     RDKit          3D

 33 34  0  0  0  0  0  0  0  0999 V2000
   -2.4640   25.2740  -29.3680 N   0  0  0  0  0  0  0  0  0  0  0  0
   -3.4930   24.7150  -30.1820 C   0  0  0  0  0  0  0  0  0  0  0  0
   -4.3910   25.4700  -30.6400 O   0  0  0  0  0  0  0  0  0  0  0  0
   -3.4830   23.2690  -30.5130 C   0  0  0  0  0  0  0  0  0  0  0  0
   -2.2730   22.5550  -30.4100 C   0  0  0  0  0  0  0  0  0  0  0  0
   -2.2020   21.2130  -30.7920 C   0  0  0  0  0  0  0  0  0  0  0  0
   -3.3330   20.5650  -31.2840 C   0  0  0  0  0  0  0  0  0  0  0  0
   -4.5460   21.2500  -31.3790 C   0  0  0  0  0  0  0  0  0  0  0  0
   -4.6400   22.5910  -30.9790 C   0  0  0  0  0  0  0  0  0  0  0  0
   -5.9230   23.2310  -31.0260 N   0  0  0  0  0  0  0  0  0  0  0  0
   -6.7540   23.1260  -32.2260 C   0  0  0  0  0  0  0  0  0  0  0  0
   -8.0620   22.3790  -31.9340 C   0  0  0  0  0  0  0  0  0  0  0  0
   -7.9250   20.8950  -32.1650 C   0  0  0  0  0  0  0  0  0  0  0  0
   -8.7370   19.9870  -31.4640 C   0  0  0  0  0  0  0  0  0  0  0  0
   -8.6210   18.6140  -31.6960 C   0  0  0  0  0  0  0  0  0  0  0  0
   -7.6980   18.1370  -32.6310 C   0  0  0  0  0  0  0  0  0  0  0  0
   -6.8900   19.0340  -33.3350 C   0  0  0  0  0  0  0  0  0  0  0  0
   -7.0030   20.4090  -33.1060 C   0  0  0  0  0  0  0  0  0  0  0  0
   -1.6000   25.6750  -29.7940 H   0  0  0  0  0  0  0  0  0  0  0  0
   -1.3746   23.0594  -30.0247 H   0  0  0  0  0  0  0  0  0  0  0  0
   -1.2512   20.6669  -30.7041 H   0  0  0  0  0  0  0  0  0  0  0  0
   -3.2703   19.5126  -31.5979 H   0  0  0  0  0  0  0  0  0  0  0  0
   -5.4349   20.7338  -31.7707 H   0  0  0  0  0  0  0  0  0  0  0  0
   -6.0360   24.0940  -30.4470 H   0  0  0  0  0  0  0  0  0  0  0  0
   -6.9918   24.1375  -32.5869 H   0  0  0  0  0  0  0  0  0  0  0  0
   -6.1948   22.5628  -32.9877 H   0  0  0  0  0  0  0  0  0  0  0  0
   -8.3434   22.5512  -30.8846 H   0  0  0  0  0  0  0  0  0  0  0  0
   -8.8333   22.7611  -32.6189 H   0  0  0  0  0  0  0  0  0  0  0  0
   -9.4668   20.3587  -30.7297 H   0  0  0  0  0  0  0  0  0  0  0  0
   -9.2568   17.9076  -31.1421 H   0  0  0  0  0  0  0  0  0  0  0  0
   -7.6076   17.0559  -32.8127 H   0  0  0  0  0  0  0  0  0  0  0  0
   -6.1638   18.6578  -34.0706 H   0  0  0  0  0  0  0  0  0  0  0  0
   -6.3677   21.1120  -33.6647 H   0  0  0  0  0  0  0  0  0  0  0  0
  1  2  1  0
  2  3  2  0
  2  4  1  0
  4  5  2  0
  5  6  1  0
  6  7  2  0
  7  8  1  0
  8  9  2  0
  9 10  1  0
 10 11  1  0
 11 12  1  0
 12 13  1  0
 13 14  2  0
 14 15  1  0
 15 16  2  0
 16 17  1  0
 17 18  2  0
  9  4  1  0
 18 13  1  0
  1 19  1  0
  5 20  1  0
  6 21  1  0
  7 22  1  0
  8 23  1  0
 10 24  1  0
 11 25  1  0
 11 26  1  0
 12 27  1  0
 12 28  1  0
 14 29  1  0
 15 30  1  0
 16 31  1  0
 17 32  1  0
 18 33  1  0
M  CHG  1   1  -1
M  END
>  <UniqueID>  (2) 
2

>  <SMILES>  (2) 
[NH-]C(=O)c1ccccc1NCCc1ccccc1

>  <Energy>  (2) 
38.43752635056618

>  <Genealogy>  (2) 
[NH-]C(=O)c1ccccc1NCCc1ccccc1 (protonated)
[NH-]C(=O)c1ccccc1NCCc1ccccc1 (3D coordinates assigned)
[NH-]C(=O)c1ccccc1NCCc1ccccc1 (optimized conformer: 38.43752635056618 kcal/mol)

>  <smiles>  (2) 
NC(=O)c1ccccc1NCCc1ccccc1

>  <score_type>  (2) 
oracle

>  <origin>  (2) 
adg

>  <m_score__min__energy>  (2) 
-9.5399999999999991

>  <m_primary>  (2) 
energy

$$$$
2:0
     RDKit          3D

 35 37  0  0  0  0  0  0  0  0999 V2000
   -1.1130   25.6030  -29.7900 H   0  0  0  0  0  0  0  0  0  0  0  0
   -1.8970   25.3030  -29.1680 N   0  0  0  0  0  0  0  0  0  0  0  0
   -2.8980   24.6150  -29.6210 C   0  0  0  0  0  0  0  0  0  0  0  0
   -3.8580   25.2380  -30.3560 N   0  0  0  0  0  0  0  0  0  0  0  0
   -4.9470   24.5820  -30.8320 C   0  0  0  0  0  0  0  0  0  0  0  0
   -5.6976   25.1256  -31.4245 H   0  0  0  0  0  0  0  0  0  0  0  0
   -5.1200   23.2140  -30.5720 C   0  0  0  0  0  0  0  0  0  0  0  0
   -6.3080   22.4870  -31.0860 C   0  0  0  0  0  0  0  0  0  0  0  0
   -7.5860   23.0720  -31.0290 C   0  0  0  0  0  0  0  0  0  0  0  0
   -7.7061   24.0779  -30.6004 H   0  0  0  0  0  0  0  0  0  0  0  0
   -8.7050   22.3870  -31.5120 C   0  0  0  0  0  0  0  0  0  0  0  0
   -9.6989   22.8552  -31.4587 H   0  0  0  0  0  0  0  0  0  0  0  0
   -8.5650   21.1010  -32.0660 C   0  0  0  0  0  0  0  0  0  0  0  0
   -9.6560   20.3740  -32.5660 O   0  0  0  0  0  0  0  0  0  0  0  0
   -9.6770   18.9570  -32.7130 C   0  0  0  0  0  0  0  0  0  0  0  0
   -9.6840   18.4853  -31.7193 H   0  0  0  0  0  0  0  0  0  0  0  0
  -10.5797   18.6591  -33.2666 H   0  0  0  0  0  0  0  0  0  0  0  0
   -8.7836   18.6325  -33.2666 H   0  0  0  0  0  0  0  0  0  0  0  0
   -7.2950   20.5180  -32.1230 C   0  0  0  0  0  0  0  0  0  0  0  0
   -7.1761   19.5128  -32.5537 H   0  0  0  0  0  0  0  0  0  0  0  0
   -6.1750   21.2000  -31.6380 C   0  0  0  0  0  0  0  0  0  0  0  0
   -5.1832   20.7270  -31.6884 H   0  0  0  0  0  0  0  0  0  0  0  0
   -4.1410   22.5500  -29.8150 C   0  0  0  0  0  0  0  0  0  0  0  0
   -4.2584   21.4788  -29.5943 H   0  0  0  0  0  0  0  0  0  0  0  0
   -3.0150   23.2370  -29.3370 C   0  0  0  0  0  0  0  0  0  0  0  0
   -1.9930   22.5060  -28.5460 C   0  0  0  0  0  0  0  0  0  0  0  0
   -0.6310   22.5660  -28.8910 C   0  0  0  0  0  0  0  0  0  0  0  0
   -0.3100   23.1707  -29.7520 H   0  0  0  0  0  0  0  0  0  0  0  0
    0.2910   21.8790  -28.1640 N   0  0  0  0  0  0  0  0  0  0  0  0
   -0.0640   21.1180  -27.0960 C   0  0  0  0  0  0  0  0  0  0  0  0
    0.7066   20.5782  -26.5260 H   0  0  0  0  0  0  0  0  0  0  0  0
   -1.4040   21.0200  -26.7210 C   0  0  0  0  0  0  0  0  0  0  0  0
   -1.6957   20.4018  -25.8592 H   0  0  0  0  0  0  0  0  0  0  0  0
   -2.3710   21.7140  -27.4500 C   0  0  0  0  0  0  0  0  0  0  0  0
   -3.4310   21.6403  -27.1654 H   0  0  0  0  0  0  0  0  0  0  0  0
  1  2  1  0
  2  3  2  0
  3  4  1  0
  4  5  1  0
  5  6  1  0
  5  7  2  0
  7  8  1  0
  8  9  2  0
  9 10  1  0
  9 11  1  0
 11 12  1  0
 11 13  2  0
 13 14  1  0
 14 15  1  0
 15 16  1  0
 15 17  1  0
 15 18  1  0
 13 19  1  0
 19 20  1  0
 19 21  2  0
 21 22  1  0
  7 23  1  0
 23 24  1  0
 23 25  2  0
 25 26  1  0
 26 27  2  0
 27 28  1  0
 27 29  1  0
 29 30  2  0
 30 31  1  0
 30 32  1  0
 32 33  1  0
 32 34  2  0
 34 35  1  0
 25  3  1  0
 34 26  1  0
 21  8  1  0
M  CHG  1   4  -1
M  END
>  <UniqueID>  (3) 
3

>  <SMILES>  (3) 
[H]/N=c1\[n-]cc(-c2ccc(OC)cc2)cc1-c1cccnc1

>  <Energy>  (3) 
51.15166178660487

>  <Genealogy>  (3) 
COc1ccc(-c2c[n-]c(=N)c(-c3cccnc3)c2)cc1 (protonated)
[H]/N=c1\[n-]cc(-c2ccc(OC)cc2)cc1-c1cccnc1 (cis-trans isomerization)
[H]/N=c1\[n-]cc(-c2ccc(OC)cc2)cc1-c1cccnc1 (3D coordinates assigned)
[H]/N=c1\[n-]cc(-c2ccc(OC)cc2)cc1-c1cccnc1 (optimized conformer: 51.15166178660487 kcal/mol)

>  <smiles>  (3) 
COc1ccc(-c2c[nH]c(=N)c(-c3cccnc3)c2)cc1

>  <score_type>  (3) 
oracle

>  <origin>  (3) 
adg

>  <m_score__min__energy>  (3) 
-9.1500000000000004

>  <m_primary>  (3) 
energy

$$$$
3:0
     RDKit          3D

 43 45  0  0  0  0  0  0  0  0999 V2000
   -5.6090   18.2140  -34.6110 C   0  0  0  0  0  0  0  0  0  0  0  0
   -6.4520   18.7800  -33.5140 C   0  0  0  0  0  0  0  0  0  0  0  0
   -7.5090   18.0390  -32.9770 C   0  0  0  0  0  0  0  0  0  0  0  0
   -8.2680   18.6090  -31.9560 C   0  0  0  0  0  0  0  0  0  0  0  0
   -7.9750   19.8570  -31.5080 N   0  0  0  0  0  0  0  0  0  0  0  0
   -6.9490   20.5740  -32.0430 C   0  0  0  0  0  0  0  0  0  0  0  0
   -6.6450   21.8910  -31.5450 N   0  0  0  0  0  0  0  0  0  0  0  0
   -7.4880   22.9490  -31.5150 C   0  0  0  0  0  0  0  0  0  0  0  0
   -8.9140   22.9350  -31.9810 C   0  0  0  0  0  0  0  0  0  0  0  0
   -6.8420   24.0660  -31.0270 C   0  0  0  0  0  0  0  0  0  0  0  0
   -5.5410   23.6830  -30.7520 C   0  0  0  0  0  0  0  0  0  0  0  0
   -4.4680   24.5790  -30.2620 C   0  0  0  0  0  0  0  0  0  0  0  0
   -4.2330   25.6680  -30.8520 O   0  0  0  0  0  0  0  0  0  0  0  0
   -3.6910   24.2460  -29.0270 C   0  0  0  0  0  0  0  0  0  0  0  0
   -2.3760   24.7770  -29.1400 O   0  0  0  0  0  0  0  0  0  0  0  0
   -1.2600   24.1650  -28.5610 C   0  0  0  0  0  0  0  0  0  0  0  0
   -0.1370   24.7430  -28.5770 O   0  0  0  0  0  0  0  0  0  0  0  0
   -1.4070   22.8410  -27.9350 C   0  0  0  0  0  0  0  0  0  0  0  0
   -1.0860   22.6230  -26.5870 C   0  0  0  0  0  0  0  0  0  0  0  0
   -1.2380   21.3800  -26.0550 N   0  0  0  0  0  0  0  0  0  0  0  0
   -1.6960   20.3450  -26.8040 C   0  0  0  0  0  0  0  0  0  0  0  0
   -2.0170   20.5570  -28.1460 C   0  0  0  0  0  0  0  0  0  0  0  0
   -1.8660   21.7970  -28.6790 N   0  0  0  0  0  0  0  0  0  0  0  0
   -5.4550   22.3260  -31.0620 C   0  0  0  0  0  0  0  0  0  0  0  0
   -4.2400   21.4590  -30.8720 C   0  0  0  0  0  0  0  0  0  0  0  0
   -6.1970   20.0280  -33.0370 N   0  0  0  0  0  0  0  0  0  0  0  0
   -4.7703   17.6509  -34.1756 H   0  0  0  0  0  0  0  0  0  0  0  0
   -6.2188   17.5416  -35.2323 H   0  0  0  0  0  0  0  0  0  0  0  0
   -5.2175   19.0330  -35.2323 H   0  0  0  0  0  0  0  0  0  0  0  0
   -7.7364   17.0300  -33.3513 H   0  0  0  0  0  0  0  0  0  0  0  0
   -9.1042   18.0479  -31.5133 H   0  0  0  0  0  0  0  0  0  0  0  0
   -9.5846   22.9284  -31.1091 H   0  0  0  0  0  0  0  0  0  0  0  0
   -9.1103   23.8313  -32.5878 H   0  0  0  0  0  0  0  0  0  0  0  0
   -9.0926   22.0351  -32.5878 H   0  0  0  0  0  0  0  0  0  0  0  0
   -7.2765   25.0664  -30.8843 H   0  0  0  0  0  0  0  0  0  0  0  0
   -4.1899   24.6842  -28.1500 H   0  0  0  0  0  0  0  0  0  0  0  0
   -3.6379   23.1536  -28.9090 H   0  0  0  0  0  0  0  0  0  0  0  0
   -0.7143   23.4505  -25.9649 H   0  0  0  0  0  0  0  0  0  0  0  0
   -1.8134   19.3468  -26.3571 H   0  0  0  0  0  0  0  0  0  0  0  0
   -2.3887   19.7277  -28.7658 H   0  0  0  0  0  0  0  0  0  0  0  0
   -4.0505   21.3238  -29.7969 H   0  0  0  0  0  0  0  0  0  0  0  0
   -4.4123   20.4786  -31.3401 H   0  0  0  0  0  0  0  0  0  0  0  0
   -3.3689   21.9408  -31.3401 H   0  0  0  0  0  0  0  0  0  0  0  0
  1  2  1  0
  2  3  2  0
  3  4  1  0
  4  5  2  0
  5  6  1  0
  6  7  1  0
  7  8  1  0
  8  9  1  0
  8 10  2  0
 10 11  1  0
 11 12  1  0
 12 13  2  0
 12 14  1  0
 14 15  1  0
 15 16  1  0
 16 17  2  0
 16 18  1  0
 18 19  2  0
 19 20  1  0
 20 21  2  0
 21 22  1  0
 22 23  2  0
 11 24  2  0
 24 25  1  0
  6 26  2  0
 26  2  1  0
 24  7  1  0
 23 18  1  0
  1 27  1  0
  1 28  1  0
  1 29  1  0
  3 30  1  0
  4 31  1  0
  9 32  1  0
  9 33  1  0
  9 34  1  0
 10 35  1  0
 14 36  1  0
 14 37  1  0
 19 38  1  0
 21 39  1  0
 22 40  1  0
 25 41  1  0
 25 42  1  0
 25 43  1  0
M  END
>  <UniqueID>  (4) 
4

>  <SMILES>  (4) 
Cc1ccnc(-n2c(C)cc(C(=O)COC(=O)c3cnccn3)c2C)n1

>  <Energy>  (4) 
74.08920319372208

>  <Genealogy>  (4) 
Cc1ccnc(-n2c(C)cc(C(=O)COC(=O)c3cnccn3)c2C)n1 (3D coordinates assigned)
Cc1ccnc(-n2c(C)cc(C(=O)COC(=O)c3cnccn3)c2C)n1 (optimized conformer: 74.08920319372208 kcal/mol)

>  <smiles>  (4) 
Cc1ccnc(-n2c(C)cc(C(=O)COC(=O)c3cnccn3)c2C)n1

>  <score_type>  (4) 
oracle

>  <origin>  (4) 
adg

>  <m_score__min__energy>  (4) 
-9.5199999999999996

>  <m_primary>  (4) 
energy

$$$$
4:0
     RDKit          3D

 39 42  0  0  0  0  0  0  0  0999 V2000
   -0.8930   22.6620  -29.7090 C   0  0  0  0  0  0  0  0  0  0  0  0
   -1.1180   23.9050  -29.1550 C   0  0  0  0  0  0  0  0  0  0  0  0
   -2.3680   24.3080  -29.4480 N   0  0  0  0  0  0  0  0  0  0  0  0
   -2.9410   23.3610  -30.1760 N   0  0  0  0  0  0  0  0  0  0  0  0
   -4.2910   23.4610  -30.6670 C   0  0  0  0  0  0  0  0  0  0  0  0
   -5.0540   22.3240  -30.9750 C   0  0  0  0  0  0  0  0  0  0  0  0
   -6.3600   22.4900  -31.4590 C   0  0  0  0  0  0  0  0  0  0  0  0
   -7.1770   21.3510  -31.7930 N   0  0  0  0  0  0  0  0  0  0  0  0
   -8.5760   21.2330  -31.3770 C   0  0  0  0  0  0  0  0  0  0  0  0
   -8.9540   19.7590  -31.5940 C   0  0  0  0  0  0  0  0  0  0  0  0
   -7.9390   19.3090  -32.6320 C   0  0  2  0  0  0  0  0  0  0  0  0
   -7.6130   17.8140  -32.7710 C   0  0  0  0  0  0  0  0  0  0  0  0
   -6.2360   17.6090  -33.2890 N   0  0  0  0  0  0  0  0  0  0  0  0
   -5.7750   18.6950  -34.1850 C   0  0  0  0  0  0  0  0  0  0  0  0
   -5.7430   20.0750  -33.4640 C   0  0  0  0  0  0  0  0  0  0  0  0
   -6.6830   20.0590  -32.2480 C   0  0  1  0  0  0  0  0  0  0  0  0
   -6.8620   23.7510  -31.6000 N   0  0  0  0  0  0  0  0  0  0  0  0
   -6.1100   24.8420  -31.3010 C   0  0  0  0  0  0  0  0  0  0  0  0
   -4.8420   24.6910  -30.8430 N   0  0  0  0  0  0  0  0  0  0  0  0
   -2.0710   22.3430  -30.3500 C   0  0  0  0  0  0  0  0  0  0  0  0
    0.0246   22.0581  -29.6519 H   0  0  0  0  0  0  0  0  0  0  0  0
   -0.3881   24.4784  -28.5647 H   0  0  0  0  0  0  0  0  0  0  0  0
   -4.6336   21.3167  -30.8387 H   0  0  0  0  0  0  0  0  0  0  0  0
   -8.6846   21.5042  -30.3165 H   0  0  0  0  0  0  0  0  0  0  0  0
   -9.2278   21.9072  -31.9520 H   0  0  0  0  0  0  0  0  0  0  0  0
   -8.8535   19.1816  -30.6632 H   0  0  0  0  0  0  0  0  0  0  0  0
   -9.9978   19.6157  -31.9102 H   0  0  0  0  0  0  0  0  0  0  0  0
   -8.3761   19.5202  -33.6191 H   0  0  0  0  0  0  0  0  0  0  0  0
   -7.7001   17.3348  -31.7847 H   0  0  0  0  0  0  0  0  0  0  0  0
   -8.3225   17.3682  -33.4836 H   0  0  0  0  0  0  0  0  0  0  0  0
   -6.2150   16.7110  -33.8260 H   0  0  0  0  0  0  0  0  0  0  0  0
   -4.7614   18.4563  -34.5393 H   0  0  0  0  0  0  0  0  0  0  0  0
   -6.4840   18.7668  -35.0230 H   0  0  0  0  0  0  0  0  0  0  0  0
   -4.7171   20.2858  -33.1278 H   0  0  0  0  0  0  0  0  0  0  0  0
   -6.0754   20.8547  -34.1651 H   0  0  0  0  0  0  0  0  0  0  0  0
   -6.0720   19.6191  -31.4460 H   0  0  0  0  0  0  0  0  0  0  0  0
   -7.8310   23.8960  -31.9590 H   0  0  0  0  0  0  0  0  0  0  0  0
   -6.5302   25.8503  -31.4305 H   0  0  0  0  0  0  0  0  0  0  0  0
   -2.2688   21.4162  -30.9086 H   0  0  0  0  0  0  0  0  0  0  0  0
  1  2  1  0
  2  3  2  0
  3  4  1  0
  4  5  1  0
  5  6  2  0
  6  7  1  0
  7  8  1  0
  8  9  1  0
  9 10  1  0
 10 11  1  0
 11 12  1  0
 12 13  1  0
 13 14  1  0
 14 15  1  0
 15 16  1  0
  7 17  2  0
 17 18  1  0
 18 19  2  0
  4 20  1  0
 20  1  2  0
 19  5  1  0
 16  8  1  0
 16 11  1  0
  1 21  1  0
  2 22  1  0
  6 23  1  0
  9 24  1  0
  9 25  1  0
 10 26  1  0
 10 27  1  0
 11 28  1  6
 12 29  1  0
 12 30  1  0
 13 31  1  0
 14 32  1  0
 14 33  1  0
 15 34  1  0
 15 35  1  0
 16 36  1  1
 17 37  1  0
 18 38  1  0
 20 39  1  0
M  CHG  1  17   1
M  END
>  <UniqueID>  (5) 
5

>  <SMILES>  (5) 
c1cnn(-c2cc(N3CC[C@@H]4CNCC[C@H]43)[nH+]cn2)c1

>  <Energy>  (5) 
90.64804422040903

>  <Genealogy>  (5) 
c1cnn(-c2cc(N3CCC4CNCCC43)[nH+]cn2)c1 (protonated)
c1cnn(-c2cc(N3CC[C@@H]4CNCC[C@H]43)[nH+]cn2)c1 (chirality)
c1cnn(-c2cc(N3CC[C@@H]4CNCC[C@H]43)[nH+]cn2)c1 (3D coordinates assigned)
c1cnn(-c2cc(N3CC[C@@H]4CNCC[C@H]43)[nH+]cn2)c1 (nonaromatic ring conformer: 90.64804422040903 kcal/mol)

>  <smiles>  (5) 
c1cnn(-c2cc(N3CCC4CNCCC43)ncn2)c1

>  <score_type>  (5) 
oracle

>  <origin>  (5) 
adg

>  <m_score__min__energy>  (5) 
-6.9900000000000002

>  <m_primary>  (5) 
energy

$$$$
5:0
     RDKit          3D

 21 21  0  0  0  0  0  0  0  0999 V2000
   -6.8100   24.1750  -30.8210 C   0  0  0  0  0  0  0  0  0  0  0  0
   -6.1450   25.3410  -30.0850 C   0  0  0  0  0  0  0  0  0  0  0  0
   -5.2340   24.8800  -29.0130 N   0  0  0  0  0  0  0  0  0  0  0  0
   -4.3650   23.7650  -29.4290 C   0  0  0  0  0  0  0  0  0  0  0  0
   -2.9150   24.0740  -29.2070 C   0  0  0  0  0  0  0  0  0  0  0  0
   -1.9040   23.1470  -29.0510 C   0  0  0  0  0  0  0  0  0  0  0  0
   -0.7490   23.8820  -28.8930 C   0  0  0  0  0  0  0  0  0  0  0  0
   -1.1270   25.2080  -28.9600 C   0  0  0  0  0  0  0  0  0  0  0  0
   -2.4240   25.2900  -29.1490 O   0  0  0  0  0  0  0  0  0  0  0  0
   -7.2163   23.4626  -30.0879 H   0  0  0  0  0  0  0  0  0  0  0  0
   -7.6259   24.5572  -31.4520 H   0  0  0  0  0  0  0  0  0  0  0  0
   -6.0656   23.6673  -31.4520 H   0  0  0  0  0  0  0  0  0  0  0  0
   -5.5677   25.9340  -30.8096 H   0  0  0  0  0  0  0  0  0  0  0  0
   -6.9391   25.9418  -29.6176 H   0  0  0  0  0  0  0  0  0  0  0  0
   -5.8180   24.5340  -28.2160 H   0  0  0  0  0  0  0  0  0  0  0  0
   -4.6500   25.6660  -28.6400 H   0  0  0  0  0  0  0  0  0  0  0  0
   -4.6312   22.8703  -28.8470 H   0  0  0  0  0  0  0  0  0  0  0  0
   -4.5171   23.5973  -30.5055 H   0  0  0  0  0  0  0  0  0  0  0  0
   -2.0002   22.0512  -29.0525 H   0  0  0  0  0  0  0  0  0  0  0  0
    0.2683   23.4911  -28.7437 H   0  0  0  0  0  0  0  0  0  0  0  0
   -0.4449   26.0662  -28.8689 H   0  0  0  0  0  0  0  0  0  0  0  0
  1  2  1  0
  2  3  1  0
  3  4  1  0
  4  5  1  0
  5  6  2  0
  6  7  1  0
  7  8  2  0
  8  9  1  0
  9  5  1  0
  1 10  1  0
  1 11  1  0
  1 12  1  0
  2 13  1  0
  2 14  1  0
  3 15  1  0
  3 16  1  0
  4 17  1  0
  4 18  1  0
  6 19  1  0
  7 20  1  0
  8 21  1  0
M  CHG  1   3   1
M  END
>  <UniqueID>  (6) 
6

>  <SMILES>  (6) 
CC[NH2+]Cc1ccco1

>  <Energy>  (6) 
43.36371775450002

>  <Genealogy>  (6) 
CC[NH2+]Cc1ccco1 (protonated)
CC[NH2+]Cc1ccco1 (3D coordinates assigned)
CC[NH2+]Cc1ccco1 (optimized conformer: 43.36371775450002 kcal/mol)

>  <smiles>  (6) 
CCNCc1ccco1

>  <score_type>  (6) 
oracle

>  <origin>  (6) 
adg

>  <m_score__min__energy>  (6) 
-3.4300000000000002

>  <m_primary>  (6) 
energy

$$$$
6:0
     RDKit          3D

 55 56  0  0  0  0  0  0  0  0999 V2000
   -1.2690   17.2540  -32.7870 C   0  0  0  0  0  0  0  0  0  0  0  0
   -2.7250   17.5680  -33.1650 C   0  0  0  0  0  0  0  0  0  0  0  0
   -2.8390   18.9420  -33.8340 C   0  0  0  0  0  0  0  0  0  0  0  0
   -3.4410   16.4090  -33.9240 C   0  0  0  0  0  0  0  0  0  0  0  0
   -4.4510   15.6130  -33.1830 N   0  0  0  0  0  0  0  0  0  0  0  0
   -4.1780   14.1710  -33.0970 C   0  0  0  0  0  0  0  0  0  0  0  0
   -5.8590   15.9260  -33.4960 C   0  0  0  0  0  0  0  0  0  0  0  0
   -6.1330   17.3750  -33.1980 C   0  0  0  0  0  0  0  0  0  0  0  0
   -6.0980   18.3220  -34.2320 C   0  0  0  0  0  0  0  0  0  0  0  0
   -6.3240   19.6740  -33.9600 C   0  0  0  0  0  0  0  0  0  0  0  0
   -6.5760   20.1010  -32.6460 C   0  0  0  0  0  0  0  0  0  0  0  0
   -6.8190   21.4930  -32.3660 N   0  0  0  0  0  0  0  0  0  0  0  0
   -8.1660   21.9160  -31.9630 C   0  0  0  0  0  0  0  0  0  0  0  0
   -8.1970   23.4030  -31.6020 C   0  0  0  0  0  0  0  0  0  0  0  0
   -7.0680   23.7760  -30.6260 C   0  0  0  0  0  0  0  0  0  0  0  0
   -5.6680   23.1700  -30.9690 C   0  0  2  0  0  0  0  0  0  0  0  0
   -4.6180   24.2290  -30.8840 N   0  0  0  0  0  0  0  0  0  0  0  0
   -3.5430   23.9050  -29.9250 C   0  0  0  0  0  0  0  0  0  0  0  0
   -5.2170   25.5190  -30.4840 C   0  0  0  0  0  0  0  0  0  0  0  0
   -5.7110   22.4580  -32.3460 C   0  0  0  0  0  0  0  0  0  0  0  0
   -6.6040   19.1520  -31.6100 C   0  0  0  0  0  0  0  0  0  0  0  0
   -6.3800   17.8000  -31.8840 C   0  0  0  0  0  0  0  0  0  0  0  0
   -1.1710   17.2329  -31.6916 H   0  0  0  0  0  0  0  0  0  0  0  0
   -0.9862   16.2742  -33.1994 H   0  0  0  0  0  0  0  0  0  0  0  0
   -0.6076   18.0301  -33.1994 H   0  0  0  0  0  0  0  0  0  0  0  0
   -3.2975   17.6384  -32.2284 H   0  0  0  0  0  0  0  0  0  0  0  0
   -2.9037   19.7219  -33.0610 H   0  0  0  0  0  0  0  0  0  0  0  0
   -1.9525   19.1194  -34.4606 H   0  0  0  0  0  0  0  0  0  0  0  0
   -3.7426   18.9709  -34.4606 H   0  0  0  0  0  0  0  0  0  0  0  0
   -3.9471   16.8512  -34.7948 H   0  0  0  0  0  0  0  0  0  0  0  0
   -2.6387   15.6921  -34.1528 H   0  0  0  0  0  0  0  0  0  0  0  0
   -4.1212   13.8710  -32.0402 H   0  0  0  0  0  0  0  0  0  0  0  0
   -4.9867   13.6145  -33.5932 H   0  0  0  0  0  0  0  0  0  0  0  0
   -3.2218   13.9486  -33.5932 H   0  0  0  0  0  0  0  0  0  0  0  0
   -6.0495   15.7291  -34.5613 H   0  0  0  0  0  0  0  0  0  0  0  0
   -6.5184   15.2959  -32.8810 H   0  0  0  0  0  0  0  0  0  0  0  0
   -5.8915   17.9987  -35.2629 H   0  0  0  0  0  0  0  0  0  0  0  0
   -6.3044   20.4076  -34.7794 H   0  0  0  0  0  0  0  0  0  0  0  0
   -8.8625   21.7346  -32.7949 H   0  0  0  0  0  0  0  0  0  0  0  0
   -8.4608   21.3370  -31.0754 H   0  0  0  0  0  0  0  0  0  0  0  0
   -8.0831   23.9954  -32.5218 H   0  0  0  0  0  0  0  0  0  0  0  0
   -9.1582   23.6165  -31.1116 H   0  0  0  0  0  0  0  0  0  0  0  0
   -6.9724   24.8718  -30.6182 H   0  0  0  0  0  0  0  0  0  0  0  0
   -7.3539   23.3544  -29.6511 H   0  0  0  0  0  0  0  0  0  0  0  0
   -5.4020   22.3999  -30.2300 H   0  0  0  0  0  0  0  0  0  0  0  0
   -3.9210   24.0189  -28.8983 H   0  0  0  0  0  0  0  0  0  0  0  0
   -3.2128   22.8674  -30.0812 H   0  0  0  0  0  0  0  0  0  0  0  0
   -2.6944   24.5873  -30.0812 H   0  0  0  0  0  0  0  0  0  0  0  0
   -5.2474   25.5845  -29.3864 H   0  0  0  0  0  0  0  0  0  0  0  0
   -4.6102   26.3447  -30.8839 H   0  0  0  0  0  0  0  0  0  0  0  0
   -6.2394   25.5882  -30.8839 H   0  0  0  0  0  0  0  0  0  0  0  0
   -5.8610   23.2045  -33.1399 H   0  0  0  0  0  0  0  0  0  0  0  0
   -4.7616   21.9285  -32.5140 H   0  0  0  0  0  0  0  0  0  0  0  0
   -6.8033   19.4751  -30.5776 H   0  0  0  0  0  0  0  0  0  0  0  0
   -6.3974   17.0655  -31.0654 H   0  0  0  0  0  0  0  0  0  0  0  0
  1  2  1  0
  2  3  1  0
  2  4  1  0
  4  5  1  0
  5  6  1  0
  5  7  1  0
  7  8  1  0
  8  9  2  0
  9 10  1  0
 10 11  2  0
 11 12  1  0
 12 13  1  0
 13 14  1  0
 14 15  1  0
 15 16  1  0
 16 17  1  0
 17 18  1  0
 17 19  1  0
 16 20  1  0
 11 21  1  0
 21 22  2  0
 22  8  1  0
 20 12  1  0
  1 23  1  0
  1 24  1  0
  1 25  1  0
  2 26  1  0
  3 27  1  0
  3 28  1  0
  3 29  1  0
  4 30  1  0
  4 31  1  0
  6 32  1  0
  6 33  1  0
  6 34  1  0
  7 35  1  0
  7 36  1  0
  9 37  1  0
 10 38  1  0
 13 39  1  0
 13 40  1  0
 14 41  1  0
 14 42  1  0
 15 43  1  0
 15 44  1  0
 16 45  1  1
 18 46  1  0
 18 47  1  0
 18 48  1  0
 19 49  1  0
 19 50  1  0
 19 51  1  0
 20 52  1  0
 20 53  1  0
 21 54  1  0
 22 55  1  0
M  END
>  <UniqueID>  (7) 
7

>  <SMILES>  (7) 
CC(C)CN(C)Cc1ccc(N2CCC[C@H](N(C)C)C2)cc1

>  <Energy>  (7) 
71.62452286511284

>  <Genealogy>  (7) 
CC(C)CN(C)Cc1ccc(N2CCC[C@H](N(C)C)C2)cc1 (chirality)
CC(C)CN(C)Cc1ccc(N2CCC[C@H](N(C)C)C2)cc1 (3D coordinates assigned)
CC(C)CN(C)Cc1ccc(N2CCC[C@H](N(C)C)C2)cc1 (nonaromatic ring conformer: 71.62452286511284 kcal/mol)

>  <smiles>  (7) 
CC(C)CN(C)Cc1ccc(N2CCCC(N(C)C)C2)cc1

>  <score_type>  (7) 
oracle

>  <origin>  (7) 
adg

>  <m_score__min__energy>  (7) 
-7.4900000000000002

>  <m_primary>  (7) 
energy

$$$$
7:0
     RDKit          3D

 28 29  0  0  0  0  0  0  0  0999 V2000
   -7.6500   22.4730  -29.6420 O   0  0  0  0  0  0  0  0  0  0  0  0
   -6.6980   22.4720  -30.4690 C   0  0  0  0  0  0  0  0  0  0  0  0
   -6.8280   21.7640  -31.7150 N   0  0  0  0  0  0  0  0  0  0  0  0
   -8.0610   21.2000  -32.1930 C   0  0  0  0  0  0  0  0  0  0  0  0
   -9.4780   21.9980  -31.9690 S   0  0  0  0  0  0  0  0  0  0  0  0
   -8.0350   20.0930  -33.1080 N   0  0  0  0  0  0  0  0  0  0  0  0
   -6.9880   19.1080  -33.1450 C   0  0  0  0  0  0  0  0  0  0  0  0
   -6.0660   19.1210  -34.2030 C   0  0  0  0  0  0  0  0  0  0  0  0
   -5.0510   18.1610  -34.2700 C   0  0  0  0  0  0  0  0  0  0  0  0
   -4.9570   17.1720  -33.2880 C   0  0  0  0  0  0  0  0  0  0  0  0
   -5.8830   17.1360  -32.2420 C   0  0  0  0  0  0  0  0  0  0  0  0
   -6.8990   18.0940  -32.1710 C   0  0  0  0  0  0  0  0  0  0  0  0
   -5.4400   23.1730  -30.1360 C   0  0  0  0  0  0  0  0  0  0  0  0
   -5.0450   24.3330  -30.8240 C   0  0  0  0  0  0  0  0  0  0  0  0
   -3.8800   24.9480  -30.4890 N   0  0  0  0  0  0  0  0  0  0  0  0
   -3.0860   24.4640  -29.5000 C   0  0  0  0  0  0  0  0  0  0  0  0
   -3.4720   23.3130  -28.8120 C   0  0  0  0  0  0  0  0  0  0  0  0
   -4.6350   22.6960  -29.1460 N   0  0  0  0  0  0  0  0  0  0  0  0
   -5.9670   21.5880  -32.2800 H   0  0  0  0  0  0  0  0  0  0  0  0
   -8.8160   20.0050  -33.7980 H   0  0  0  0  0  0  0  0  0  0  0  0
   -6.1421   19.8912  -34.9847 H   0  0  0  0  0  0  0  0  0  0  0  0
   -4.3260   18.1848  -35.0969 H   0  0  0  0  0  0  0  0  0  0  0  0
   -4.1542   16.4217  -33.3380 H   0  0  0  0  0  0  0  0  0  0  0  0
   -5.8125   16.3525  -31.4731 H   0  0  0  0  0  0  0  0  0  0  0  0
   -7.6317   18.0558  -31.3514 H   0  0  0  0  0  0  0  0  0  0  0  0
   -5.6746   24.7407  -31.6286 H   0  0  0  0  0  0  0  0  0  0  0  0
   -2.1463   24.9748  -29.2431 H   0  0  0  0  0  0  0  0  0  0  0  0
   -2.8405   22.9092  -28.0069 H   0  0  0  0  0  0  0  0  0  0  0  0
  1  2  2  0
  2  3  1  0
  3  4  1  0
  4  5  2  0
  4  6  1  0
  6  7  1  0
  7  8  2  0
  8  9  1  0
  9 10  2  0
 10 11  1  0
 11 12  2  0
  2 13  1  0
 13 14  2  0
 14 15  1  0
 15 16  2  0
 16 17  1  0
 17 18  2  0
 12  7  1  0
 18 13  1  0
  3 19  1  0
  6 20  1  0
  8 21  1  0
  9 22  1  0
 10 23  1  0
 11 24  1  0
 12 25  1  0
 14 26  1  0
 16 27  1  0
 17 28  1  0
M  END
>  <UniqueID>  (8) 
8

>  <SMILES>  (8) 
O=C(NC(=S)Nc1ccccc1)c1cnccn1

>  <Energy>  (8) 
36.60065391049129

>  <Genealogy>  (8) 
O=C(NC(=S)Nc1ccccc1)c1cnccn1 (3D coordinates assigned)
O=C(NC(=S)Nc1ccccc1)c1cnccn1 (optimized conformer: 36.60065391049129 kcal/mol)

>  <smiles>  (8) 
O=C(NC(=S)Nc1ccccc1)c1cnccn1

>  <score_type>  (8) 
oracle

>  <origin>  (8) 
adg

>  <m_score__min__energy>  (8) 
-7.25

>  <m_primary>  (8) 
energy

$$$$
8:0
     RDKit          3D

 47 48  0  0  0  0  0  0  0  0999 V2000
   -9.5210   20.3300  -32.3520 C   0  0  0  0  0  0  0  0  0  0  0  0
   -8.9860   18.9050  -32.4510 C   0  0  0  0  0  0  0  0  0  0  0  0
   -7.7180   18.7300  -31.6040 C   0  0  0  0  0  0  0  0  0  0  0  0
   -6.7320   17.7190  -32.2120 C   0  0  0  0  0  0  0  0  0  0  0  0
   -6.4840   17.8820  -33.7240 C   0  0  0  0  0  0  0  0  0  0  0  0
   -5.4500   18.9750  -34.0720 C   0  0  0  0  0  0  0  0  0  0  0  0
   -4.7330   19.5200  -32.8280 C   0  0  0  0  0  0  0  0  0  0  0  0
   -4.0670   20.8660  -33.1270 C   0  0  0  0  0  0  0  0  0  0  0  0
   -4.3580   22.0840  -31.8360 S   0  0  0  0  0  0  0  0  0  0  0  0
   -4.5270   21.3900  -30.5140 O   0  0  0  0  0  0  0  0  0  0  0  0
   -3.1090   22.9180  -31.7520 O   0  0  0  0  0  0  0  0  0  0  0  0
   -5.7270   23.2450  -32.1290 C   0  0  1  0  0  0  0  0  0  0  0  0
   -7.0590   22.5040  -32.2990 C   0  0  0  0  0  0  0  0  0  0  0  0
   -7.8770   22.7710  -31.0430 C   0  0  1  0  0  0  0  0  0  0  0  0
   -7.1780   22.4790  -29.8540 O   0  0  0  0  0  0  0  0  0  0  0  0
   -7.2280   23.8290  -30.2550 C   0  0  1  0  0  0  0  0  0  0  0  0
   -6.0150   24.3100  -31.0440 C   0  0  1  0  0  0  0  0  0  0  0  0
   -4.8600   24.7360  -30.1820 C   0  0  0  0  0  0  0  0  0  0  0  0
   -3.8690   25.3020  -30.7190 O   0  0  0  0  0  0  0  0  0  0  0  0
   -4.8980   24.5460  -28.7980 O   0  0  0  0  0  0  0  0  0  0  0  0
   -4.2030   23.4870  -28.1520 C   0  0  0  0  0  0  0  0  0  0  0  0
   -9.6259   20.6095  -31.2933 H   0  0  0  0  0  0  0  0  0  0  0  0
   -8.8206   21.0197  -32.8457 H   0  0  0  0  0  0  0  0  0  0  0  0
  -10.5023   20.3884  -32.8457 H   0  0  0  0  0  0  0  0  0  0  0  0
   -9.7565   18.2064  -32.0927 H   0  0  0  0  0  0  0  0  0  0  0  0
   -8.7351   18.6986  -33.5019 H   0  0  0  0  0  0  0  0  0  0  0  0
   -7.2148   19.7044  -31.5187 H   0  0  0  0  0  0  0  0  0  0  0  0
   -8.0261   18.3433  -30.6214 H   0  0  0  0  0  0  0  0  0  0  0  0
   -5.7678   17.8285  -31.6940 H   0  0  0  0  0  0  0  0  0  0  0  0
   -7.1877   16.7266  -32.0798 H   0  0  0  0  0  0  0  0  0  0  0  0
   -6.1214   16.9225  -34.1213 H   0  0  0  0  0  0  0  0  0  0  0  0
   -7.4394   18.1901  -34.1739 H   0  0  0  0  0  0  0  0  0  0  0  0
   -4.6996   18.5474  -34.7532 H   0  0  0  0  0  0  0  0  0  0  0  0
   -5.9902   19.8107  -34.5408 H   0  0  0  0  0  0  0  0  0  0  0  0
   -5.4663   19.6529  -32.0189 H   0  0  0  0  0  0  0  0  0  0  0  0
   -3.9555   18.8022  -32.5278 H   0  0  0  0  0  0  0  0  0  0  0  0
   -2.9827   20.7085  -33.2247 H   0  0  0  0  0  0  0  0  0  0  0  0
   -4.5061   21.2554  -34.0574 H   0  0  0  0  0  0  0  0  0  0  0  0
   -5.3654   23.7639  -33.0290 H   0  0  0  0  0  0  0  0  0  0  0  0
   -7.5914   22.8813  -33.1845 H   0  0  0  0  0  0  0  0  0  0  0  0
   -6.8944   21.4255  -32.4398 H   0  0  0  0  0  0  0  0  0  0  0  0
   -8.8838   22.5408  -31.4215 H   0  0  0  0  0  0  0  0  0  0  0  0
   -7.4938   24.7586  -29.7303 H   0  0  0  0  0  0  0  0  0  0  0  0
   -6.2249   25.2596  -31.5580 H   0  0  0  0  0  0  0  0  0  0  0  0
   -4.2823   23.6078  -27.0615 H   0  0  0  0  0  0  0  0  0  0  0  0
   -4.6454   22.5242  -28.4474 H   0  0  0  0  0  0  0  0  0  0  0  0
   -3.1436   23.5097  -28.4474 H   0  0  0  0  0  0  0  0  0  0  0  0
  1  2  1  0
  2  3  1  0
  3  4  1  0
  4  5  1  0
  5  6  1  0
  6  7  1  0
  7  8  1  0
  8  9  1  0
  9 10  2  0
  9 11  2  0
  9 12  1  0
 12 13  1  0
 13 14  1  0
 14 15  1  0
 15 16  1  0
 16 17  1  0
 17 18  1  0
 18 19  2  0
 18 20  1  0
 20 21  1  0
 17 12  1  0
 16 14  1  0
  1 22  1  0
  1 23  1  0
  1 24  1  0
  2 25  1  0
  2 26  1  0
  3 27  1  0
  3 28  1  0
  4 29  1  0
  4 30  1  0
  5 31  1  0
  5 32  1  0
  6 33  1  0
  6 34  1  0
  7 35  1  0
  7 36  1  0
  8 37  1  0
  8 38  1  0
 12 39  1  6
 13 40  1  0
 13 41  1  0
 14 42  1  6
 16 43  1  1
 17 44  1  6
 21 45  1  0
 21 46  1  0
 21 47  1  0
M  END
>  <UniqueID>  (9) 
9

>  <SMILES>  (9) 
CCCCCCCCS(=O)(=O)[C@H]1C[C@H]2OC2C1C(=O)OC

>  <Energy>  (9) 
365.31888165354013

>  <Genealogy>  (9) 
CCCCCCCCS(=O)(=O)[C@H]1C[C@H]2OC2C1C(=O)OC (chirality)
CCCCCCCCS(=O)(=O)[C@H]1C[C@H]2OC2C1C(=O)OC (3D coordinates assigned)
CCCCCCCCS(=O)(=O)[C@H]1C[C@H]2OC2C1C(=O)OC (nonaromatic ring conformer: 365.31888165354013 kcal/mol)

>  <smiles>  (9) 
CCCCCCCCS(=O)(=O)C1CC2OC2C1C(=O)OC

>  <score_type>  (9) 
oracle

>  <origin>  (9) 
adg

>  <m_score__min__energy>  (9) 
-8.0800000000000001

>  <m_primary>  (9) 
energy

$$$$
9:0
     RDKit          3D

 47 49  0  0  0  0  0  0  0  0999 V2000
   -4.0690   21.5940  -31.6920 C   0  0  0  0  0  0  0  0  0  0  0  0
   -4.2760   21.3100  -33.1770 C   0  0  0  0  0  0  0  0  0  0  0  0
   -3.8760   19.9360  -33.5120 N   0  0  0  0  0  0  0  0  0  0  0  0
   -4.9150   18.9710  -33.7970 C   0  0  0  0  0  0  0  0  0  0  0  0
   -5.9080   19.3170  -34.4940 O   0  0  0  0  0  0  0  0  0  0  0  0
   -4.8910   17.6000  -33.2370 C   0  0  0  0  0  0  0  0  0  0  0  0
   -5.4520   17.3430  -31.9660 C   0  0  0  0  0  0  0  0  0  0  0  0
   -6.0490   18.3550  -31.2010 O   0  0  0  0  0  0  0  0  0  0  0  0
   -7.1730   19.0960  -31.5930 C   0  0  0  0  0  0  0  0  0  0  0  0
   -8.3130   18.4040  -32.0220 C   0  0  0  0  0  0  0  0  0  0  0  0
   -9.4600   19.1020  -32.4080 C   0  0  0  0  0  0  0  0  0  0  0  0
   -9.4730   20.4990  -32.3790 C   0  0  0  0  0  0  0  0  0  0  0  0
   -8.3340   21.2010  -31.9710 C   0  0  0  0  0  0  0  0  0  0  0  0
   -8.3480   22.9540  -31.9410 Cl  0  0  0  0  0  0  0  0  0  0  0  0
   -7.1830   20.5040  -31.5860 C   0  0  0  0  0  0  0  0  0  0  0  0
   -5.3880   16.0890  -31.4440 N   0  0  0  0  0  0  0  0  0  0  0  0
   -4.8570   15.0730  -32.1220 N   0  0  0  0  0  0  0  0  0  0  0  0
   -4.3380   15.2370  -33.3630 C   0  0  0  0  0  0  0  0  0  0  0  0
   -3.7940   14.1380  -34.0380 C   0  0  0  0  0  0  0  0  0  0  0  0
   -3.2440   14.3000  -35.3100 C   0  0  0  0  0  0  0  0  0  0  0  0
   -3.2290   15.5600  -35.9110 C   0  0  0  0  0  0  0  0  0  0  0  0
   -3.7700   16.6640  -35.2440 C   0  0  0  0  0  0  0  0  0  0  0  0
   -4.3390   16.5160  -33.9610 C   0  0  0  0  0  0  0  0  0  0  0  0
   -2.4460   19.6700  -33.7950 C   0  0  0  0  0  0  0  0  0  0  0  0
   -1.6190   20.9580  -33.8320 C   0  0  0  0  0  0  0  0  0  0  0  0
   -1.8560   18.6530  -32.8130 C   0  0  0  0  0  0  0  0  0  0  0  0
   -4.6137   20.8467  -31.0964 H   0  0  0  0  0  0  0  0  0  0  0  0
   -2.9962   21.5410  -31.4546 H   0  0  0  0  0  0  0  0  0  0  0  0
   -4.4478   22.5990  -31.4546 H   0  0  0  0  0  0  0  0  0  0  0  0
   -5.3393   21.4453  -33.4242 H   0  0  0  0  0  0  0  0  0  0  0  0
   -3.6534   22.0072  -33.7569 H   0  0  0  0  0  0  0  0  0  0  0  0
   -8.3050   17.3045  -32.0551 H   0  0  0  0  0  0  0  0  0  0  0  0
  -10.3541   18.5511  -32.7352 H   0  0  0  0  0  0  0  0  0  0  0  0
  -10.3791   21.0468  -32.6771 H   0  0  0  0  0  0  0  0  0  0  0  0
   -6.2840   21.0575  -31.2772 H   0  0  0  0  0  0  0  0  0  0  0  0
   -5.7820   15.9090  -30.4940 H   0  0  0  0  0  0  0  0  0  0  0  0
   -3.8001   13.1450  -33.5648 H   0  0  0  0  0  0  0  0  0  0  0  0
   -2.8216   13.4336  -35.8401 H   0  0  0  0  0  0  0  0  0  0  0  0
   -2.7904   15.6849  -36.9120 H   0  0  0  0  0  0  0  0  0  0  0  0
   -3.7518   17.6542  -35.7227 H   0  0  0  0  0  0  0  0  0  0  0  0
   -2.3965   19.2260  -34.8002 H   0  0  0  0  0  0  0  0  0  0  0  0
   -1.4074   21.2875  -32.8041 H   0  0  0  0  0  0  0  0  0  0  0  0
   -0.6720   20.7706  -34.3593 H   0  0  0  0  0  0  0  0  0  0  0  0
   -2.1835   21.7412  -34.3593 H   0  0  0  0  0  0  0  0  0  0  0  0
   -2.0484   18.9846  -31.7820 H   0  0  0  0  0  0  0  0  0  0  0  0
   -2.3249   17.6714  -32.9759 H   0  0  0  0  0  0  0  0  0  0  0  0
   -0.7711   18.5727  -32.9759 H   0  0  0  0  0  0  0  0  0  0  0  0
  1  2  1  0
  2  3  1  0
  3  4  1  0
  4  5  2  0
  4  6  1  0
  6  7  2  0
  7  8  1  0
  8  9  1  0
  9 10  2  0
 10 11  1  0
 11 12  2  0
 12 13  1  0
 13 14  1  0
 13 15  2  0
  7 16  1  0
 16 17  2  0
 17 18  1  0
 18 19  2  0
 19 20  1  0
 20 21  2  0
 21 22  1  0
 22 23  2  0
  3 24  1  0
 24 25  1  0
 24 26  1  0
 23  6  1  0
 15  9  1  0
 23 18  1  0
  1 27  1  0
  1 28  1  0
  1 29  1  0
  2 30  1  0
  2 31  1  0
 10 32  1  0
 11 33  1  0
 12 34  1  0
 15 35  1  0
 16 36  1  0
 19 37  1  0
 20 38  1  0
 21 39  1  0
 22 40  1  0
 24 41  1  0
 25 42  1  0
 25 43  1  0
 25 44  1  0
 26 45  1  0
 26 46  1  0
 26 47  1  0
M  CHG  1  16   1
M  END
>  <UniqueID>  (10) 
10

>  <SMILES>  (10) 
CCN(C(=O)c1c(Oc2cccc(Cl)c2)[nH+]nc2ccccc12)C(C)C

>  <Energy>  (10) 
61.30282845043729

>  <Genealogy>  (10) 
CCN(C(=O)c1c(Oc2cccc(Cl)c2)[nH+]nc2ccccc12)C(C)C (protonated)
CCN(C(=O)c1c(Oc2cccc(Cl)c2)[nH+]nc2ccccc12)C(C)C (3D coordinates assigned)
CCN(C(=O)c1c(Oc2cccc(Cl)c2)[nH+]nc2ccccc12)C(C)C (optimized conformer: 61.30282845043729 kcal/mol)

>  <smiles>  (10) 
CCN(C(=O)c1c(Oc2cccc(Cl)c2)nnc2ccccc12)C(C)C

>  <score_type>  (10) 
oracle

>  <origin>  (10) 
adg

>  <m_score__min__energy>  (10) 
-8.5999999999999996

>  <m_primary>  (10) 
energy

$$$$
10:0
     RDKit          3D

 40 42  0  0  0  0  0  0  0  0999 V2000
   -4.9520   17.9860  -33.9350 C   0  0  0  0  0  0  0  0  0  0  0  0
   -4.5180   19.3060  -33.8210 C   0  0  0  0  0  0  0  0  0  0  0  0
   -5.3430   20.2720  -33.2390 C   0  0  0  0  0  0  0  0  0  0  0  0
   -6.6340   19.9350  -32.7750 C   0  0  0  0  0  0  0  0  0  0  0  0
   -7.5150   20.8960  -32.2000 C   0  0  0  0  0  0  0  0  0  0  0  0
   -7.1810   22.3750  -32.1120 C   0  0  0  0  0  0  0  0  0  0  0  0
   -7.6990   23.0810  -30.8320 C   0  0  0  0  0  0  0  0  0  0  0  0
   -6.6860   23.5730  -29.8570 N   0  0  0  0  0  0  0  0  0  0  0  0
   -5.4150   22.7930  -29.8170 C   0  0  0  0  0  0  0  0  0  0  0  0
   -4.2190   23.4550  -30.5090 C   0  0  0  0  0  0  0  0  0  0  0  0
   -4.0810   24.9140  -30.1090 C   0  0  0  0  0  0  0  0  0  0  0  0
   -5.3530   25.6550  -30.4790 C   0  0  0  0  0  0  0  0  0  0  0  0
   -6.5650   25.0550  -29.7520 C   0  0  0  0  0  0  0  0  0  0  0  0
   -8.7070   20.4490  -31.6040 C   0  0  0  0  0  0  0  0  0  0  0  0
   -9.0930   19.1110  -31.6820 C   0  0  0  0  0  0  0  0  0  0  0  0
   -8.2790   18.1820  -32.3240 C   0  0  0  0  0  0  0  0  0  0  0  0
   -7.0460   18.5750  -32.8570 C   0  0  0  0  0  0  0  0  0  0  0  0
   -6.2060   17.6180  -33.4500 C   0  0  0  0  0  0  0  0  0  0  0  0
   -4.3039   17.2338  -34.4084 H   0  0  0  0  0  0  0  0  0  0  0  0
   -3.5213   19.5884  -34.1910 H   0  0  0  0  0  0  0  0  0  0  0  0
   -4.9830   21.3068  -33.1410 H   0  0  0  0  0  0  0  0  0  0  0  0
   -6.0866   22.4816  -32.1431 H   0  0  0  0  0  0  0  0  0  0  0  0
   -7.6871   22.8589  -32.9603 H   0  0  0  0  0  0  0  0  0  0  0  0
   -8.2950   23.9481  -31.1529 H   0  0  0  0  0  0  0  0  0  0  0  0
   -8.2537   22.3018  -30.2887 H   0  0  0  0  0  0  0  0  0  0  0  0
   -7.1390   23.3120  -28.9460 H   0  0  0  0  0  0  0  0  0  0  0  0
   -5.1496   22.6295  -28.7621 H   0  0  0  0  0  0  0  0  0  0  0  0
   -5.6109   21.8632  -30.3712 H   0  0  0  0  0  0  0  0  0  0  0  0
   -3.3010   22.9187  -30.2266 H   0  0  0  0  0  0  0  0  0  0  0  0
   -4.3809   23.4093  -31.5961 H   0  0  0  0  0  0  0  0  0  0  0  0
   -3.9168   24.9840  -29.0236 H   0  0  0  0  0  0  0  0  0  0  0  0
   -3.2255   25.3624  -30.6354 H   0  0  0  0  0  0  0  0  0  0  0  0
   -5.2496   26.7127  -30.1952 H   0  0  0  0  0  0  0  0  0  0  0  0
   -5.5116   25.5631  -31.5636 H   0  0  0  0  0  0  0  0  0  0  0  0
   -6.4894   25.3176  -28.6865 H   0  0  0  0  0  0  0  0  0  0  0  0
   -7.4574   25.4740  -30.2399 H   0  0  0  0  0  0  0  0  0  0  0  0
   -9.3457   21.1660  -31.0674 H   0  0  0  0  0  0  0  0  0  0  0  0
  -10.0446   18.7885  -31.2343 H   0  0  0  0  0  0  0  0  0  0  0  0
   -8.6060   17.1355  -32.4127 H   0  0  0  0  0  0  0  0  0  0  0  0
   -6.5394   16.5730  -33.5321 H   0  0  0  0  0  0  0  0  0  0  0  0
  1  2  2  0
  2  3  1  0
  3  4  2  0
  4  5  1  0
  5  6  1  0
  6  7  1  0
  7  8  1  0
  8  9  1  0
  9 10  1  0
 10 11  1  0
 11 12  1  0
 12 13  1  0
  5 14  2  0
 14 15  1  0
 15 16  2  0
 16 17  1  0
 17 18  2  0
 18  1  1  0
 17  4  1  0
 13  8  1  0
  1 19  1  0
  2 20  1  0
  3 21  1  0
  6 22  1  0
  6 23  1  0
  7 24  1  0
  7 25  1  0
  8 26  1  0
  9 27  1  0
  9 28  1  0
 10 29  1  0
 10 30  1  0
 11 31  1  0
 11 32  1  0
 12 33  1  0
 12 34  1  0
 13 35  1  0
 13 36  1  0
 14 37  1  0
 15 38  1  0
 16 39  1  0
 18 40  1  0
M  CHG  1   8   1
M  END
>  <UniqueID>  (11) 
11

>  <SMILES>  (11) 
c1ccc2c(CC[NH+]3CCCCC3)cccc2c1

>  <Energy>  (11) 
62.04829867819666

>  <Genealogy>  (11) 
c1ccc2c(CC[NH+]3CCCCC3)cccc2c1 (protonated)
c1ccc2c(CC[NH+]3CCCCC3)cccc2c1 (3D coordinates assigned)
c1ccc2c(CC[NH+]3CCCCC3)cccc2c1 (nonaromatic ring conformer: 62.04829867819666 kcal/mol)

>  <smiles>  (11) 
c1ccc2c(CCN3CCCCC3)cccc2c1

>  <score_type>  (11) 
oracle

>  <origin>  (11) 
adg

>  <m_score__min__energy>  (11) 
-7.1100000000000003

>  <m_primary>  (11) 
energy

$$$$
11:0
     RDKit          3D

 53 57  0  0  0  0  0  0  0  0999 V2000
   -7.1070   23.7890  -31.5560 C   0  0  0  0  0  0  0  0  0  0  0  0
   -5.9470   22.8460  -31.5380 C   0  0  0  0  0  0  0  0  0  0  0  0
   -5.9520   21.6990  -32.3610 C   0  0  0  0  0  0  0  0  0  0  0  0
   -4.8430   20.8340  -32.3350 C   0  0  0  0  0  0  0  0  0  0  0  0
   -4.8090   19.6420  -33.1430 N   0  0  0  0  0  0  0  0  0  0  0  0
   -5.8670   18.6340  -32.9920 C   0  0  0  0  0  0  0  0  0  0  0  0
   -6.1160   17.8660  -34.3100 C   0  0  0  0  0  0  0  0  0  0  0  0
   -4.9610   17.8600  -35.2290 N   0  0  0  0  0  0  0  0  0  0  0  0
   -3.6850   17.9300  -34.5160 C   0  0  0  0  0  0  0  0  0  0  0  0
   -3.5670   19.2980  -33.8490 C   0  0  0  0  0  0  0  0  0  0  0  0
   -3.8090   21.1610  -31.5140 N   0  0  0  0  0  0  0  0  0  0  0  0
   -2.6550   20.5300  -31.3850 N   0  0  0  0  0  0  0  0  0  0  0  0
   -1.9190   21.2340  -30.4910 C   0  0  0  0  0  0  0  0  0  0  0  0
   -0.5460   20.8210  -30.0690 C   0  0  0  0  0  0  0  0  0  0  0  0
   -2.6310   22.3600  -30.0590 C   0  0  0  0  0  0  0  0  0  0  0  0
   -2.2290   23.4120  -29.1000 C   0  0  0  0  0  0  0  0  0  0  0  0
   -3.0570   23.7370  -28.0170 C   0  0  0  0  0  0  0  0  0  0  0  0
   -2.6720   24.7250  -27.1090 C   0  0  0  0  0  0  0  0  0  0  0  0
   -1.4560   25.4040  -27.2920 C   0  0  0  0  0  0  0  0  0  0  0  0
   -0.9890   26.4500  -26.3440 C   0  0  0  0  0  0  0  0  0  0  0  0
   -1.0610   26.2180  -24.9570 C   0  0  0  0  0  0  0  0  0  0  0  0
   -0.6320   27.1910  -24.0490 C   0  0  0  0  0  0  0  0  0  0  0  0
   -0.1220   28.4060  -24.5120 C   0  0  0  0  0  0  0  0  0  0  0  0
   -0.0310   28.6450  -25.8840 C   0  0  0  0  0  0  0  0  0  0  0  0
   -0.4560   27.6740  -26.7970 C   0  0  0  0  0  0  0  0  0  0  0  0
   -0.6720   25.0720  -28.3560 N   0  0  0  0  0  0  0  0  0  0  0  0
   -1.0240   24.1100  -29.2510 C   0  0  0  0  0  0  0  0  0  0  0  0
   -3.8230   22.2530  -30.7420 C   0  0  0  0  0  0  0  0  0  0  0  0
   -4.8700   23.1140  -30.7420 N   0  0  0  0  0  0  0  0  0  0  0  0
   -7.4012   24.0281  -30.5234 H   0  0  0  0  0  0  0  0  0  0  0  0
   -6.8201   24.7133  -32.0789 H   0  0  0  0  0  0  0  0  0  0  0  0
   -7.9532   23.3194  -32.0789 H   0  0  0  0  0  0  0  0  0  0  0  0
   -6.8112   21.4846  -33.0136 H   0  0  0  0  0  0  0  0  0  0  0  0
   -5.5683   17.9175  -32.2127 H   0  0  0  0  0  0  0  0  0  0  0  0
   -6.7973   19.1516  -32.7153 H   0  0  0  0  0  0  0  0  0  0  0  0
   -6.3655   16.8239  -34.0612 H   0  0  0  0  0  0  0  0  0  0  0  0
   -6.9343   18.3848  -34.8308 H   0  0  0  0  0  0  0  0  0  0  0  0
   -4.9810   16.9700  -35.7800 H   0  0  0  0  0  0  0  0  0  0  0  0
   -3.6458   17.1411  -33.7504 H   0  0  0  0  0  0  0  0  0  0  0  0
   -2.8543   17.7865  -35.2226 H   0  0  0  0  0  0  0  0  0  0  0  0
   -2.7361   19.2776  -33.1284 H   0  0  0  0  0  0  0  0  0  0  0  0
   -3.3812   20.0546  -34.6256 H   0  0  0  0  0  0  0  0  0  0  0  0
   -0.4896   20.8040  -28.9706 H   0  0  0  0  0  0  0  0  0  0  0  0
   -0.3277   19.8174  -30.4629 H   0  0  0  0  0  0  0  0  0  0  0  0
    0.1898   21.5376  -30.4629 H   0  0  0  0  0  0  0  0  0  0  0  0
   -4.0139   23.2116  -27.8819 H   0  0  0  0  0  0  0  0  0  0  0  0
   -3.3184   24.9708  -26.2536 H   0  0  0  0  0  0  0  0  0  0  0  0
   -1.4584   25.2624  -24.5843 H   0  0  0  0  0  0  0  0  0  0  0  0
   -0.6963   26.9991  -22.9678 H   0  0  0  0  0  0  0  0  0  0  0  0
    0.2075   29.1735  -23.7962 H   0  0  0  0  0  0  0  0  0  0  0  0
    0.3761   29.5997  -26.2485 H   0  0  0  0  0  0  0  0  0  0  0  0
   -0.3737   27.8670  -27.8768 H   0  0  0  0  0  0  0  0  0  0  0  0
   -0.3596   23.8793  -30.0968 H   0  0  0  0  0  0  0  0  0  0  0  0
  1  2  1  0
  2  3  1  0
  3  4  2  0
  4  5  1  0
  5  6  1  0
  6  7  1  0
  7  8  1  0
  8  9  1  0
  9 10  1  0
  4 11  1  0
 11 12  1  0
 12 13  2  0
 13 14  1  0
 13 15  1  0
 15 16  1  0
 16 17  2  0
 17 18  1  0
 18 19  2  0
 19 20  1  0
 20 21  2  0
 21 22  1  0
 22 23  2  0
 23 24  1  0
 24 25  2  0
 19 26  1  0
 26 27  2  0
 15 28  2  0
 28 29  1  0
 29  2  2  0
 10  5  1  0
 28 11  1  0
 27 16  1  0
 25 20  1  0
  1 30  1  0
  1 31  1  0
  1 32  1  0
  3 33  1  0
  6 34  1  0
  6 35  1  0
  7 36  1  0
  7 37  1  0
  8 38  1  0
  9 39  1  0
  9 40  1  0
 10 41  1  0
 10 42  1  0
 14 43  1  0
 14 44  1  0
 14 45  1  0
 17 46  1  0
 18 47  1  0
 21 48  1  0
 22 49  1  0
 23 50  1  0
 24 51  1  0
 25 52  1  0
 27 53  1  0
M  END
>  <UniqueID>  (12) 
12

>  <SMILES>  (12) 
Cc1cc(N2CCNCC2)n2nc(C)c(-c3ccc(-c4ccccc4)nc3)c2n1

>  <Energy>  (12) 
110.18274503180109

>  <Genealogy>  (12) 
Cc1cc(N2CCNCC2)n2nc(C)c(-c3ccc(-c4ccccc4)nc3)c2n1 (3D coordinates assigned)
Cc1cc(N2CCNCC2)n2nc(C)c(-c3ccc(-c4ccccc4)nc3)c2n1 (nonaromatic ring conformer: 110.18274503180109 kcal/mol)

>  <smiles>  (12) 
Cc1cc(N2CCNCC2)n2nc(C)c(-c3ccc(-c4ccccc4)nc3)c2n1

>  <score_type>  (12) 
oracle

>  <origin>  (12) 
adg

>  <m_score__min__energy>  (12) 
-8.5800000000000001

>  <m_primary>  (12) 
energy

$$$$
12:0
     RDKit          3D

 51 54  0  0  0  0  0  0  0  0999 V2000
   -2.1975   23.6354  -27.0741 H   0  0  0  0  0  0  0  0  0  0  0  0
   -2.7880   23.5480  -27.9980 C   0  0  0  0  0  0  0  0  0  0  0  0
   -3.3910   22.3320  -28.3290 C   0  0  0  0  0  0  0  0  0  0  0  0
   -3.2833   21.4655  -27.6601 H   0  0  0  0  0  0  0  0  0  0  0  0
   -4.1310   22.2150  -29.5090 C   0  0  0  0  0  0  0  0  0  0  0  0
   -4.6220   21.2620  -29.7553 H   0  0  0  0  0  0  0  0  0  0  0  0
   -4.2500   23.3060  -30.3790 C   0  0  0  0  0  0  0  0  0  0  0  0
   -5.0480   23.1720  -31.5620 N   0  0  0  0  0  0  0  0  0  0  0  0
   -5.4740   22.1000  -32.1880 C   0  0  0  0  0  0  0  0  0  0  0  0
   -6.8450   21.6840  -32.2350 C   0  0  0  0  0  0  0  0  0  0  0  0
   -7.9410   22.5290  -31.9350 C   0  0  0  0  0  0  0  0  0  0  0  0
   -7.7592   23.5847  -31.6850 H   0  0  0  0  0  0  0  0  0  0  0  0
   -9.2500   22.0410  -31.9520 C   0  0  0  0  0  0  0  0  0  0  0  0
  -10.0846   22.7031  -31.6780 H   0  0  0  0  0  0  0  0  0  0  0  0
   -9.5030   20.7210  -32.3140 C   0  0  0  0  0  0  0  0  0  0  0  0
  -10.5309   20.3302  -32.2893 H   0  0  0  0  0  0  0  0  0  0  0  0
   -8.4510   19.8950  -32.7080 C   0  0  0  0  0  0  0  0  0  0  0  0
   -8.6549   18.8608  -33.0225 H   0  0  0  0  0  0  0  0  0  0  0  0
   -7.1370   20.3760  -32.7050 C   0  0  0  0  0  0  0  0  0  0  0  0
   -6.1550   19.5910  -33.2070 N   0  0  0  0  0  0  0  0  0  0  0  0
   -4.8700   20.0070  -33.2970 C   0  0  0  0  0  0  0  0  0  0  0  0
   -3.9150   19.1650  -33.8730 C   0  0  0  0  0  0  0  0  0  0  0  0
   -4.2151   18.1773  -34.2529 H   0  0  0  0  0  0  0  0  0  0  0  0
   -2.5850   19.5690  -33.9690 C   0  0  0  0  0  0  0  0  0  0  0  0
   -1.8453   18.9014  -34.4351 H   0  0  0  0  0  0  0  0  0  0  0  0
   -2.1800   20.8190  -33.4770 C   0  0  0  0  0  0  0  0  0  0  0  0
   -0.7530   21.2220  -33.5960 C   0  0  0  0  0  0  0  0  0  0  0  0
   -0.4040   21.9230  -34.5880 O   0  0  0  0  0  0  0  0  0  0  0  0
    0.2530   20.7830  -32.6440 N   0  0  0  0  0  0  0  0  0  0  0  0
    0.9650   21.5370  -32.5010 H   0  0  0  0  0  0  0  0  0  0  0  0
   -0.4060   20.5330  -31.3380 C   0  0  0  0  0  0  0  0  0  0  0  0
    0.2506   19.8939  -30.7294 H   0  0  0  0  0  0  0  0  0  0  0  0
   -1.3721   20.0480  -31.5413 H   0  0  0  0  0  0  0  0  0  0  0  0
   -0.6910   21.8240  -30.5610 C   0  0  0  0  0  0  0  0  0  0  0  0
   -0.6459   21.6196  -29.4811 H   0  0  0  0  0  0  0  0  0  0  0  0
    0.0612   22.5829  -30.8223 H   0  0  0  0  0  0  0  0  0  0  0  0
   -1.6928   22.1956  -30.8223 H   0  0  0  0  0  0  0  0  0  0  0  0
    0.9390   19.5660  -33.1450 C   0  0  0  0  0  0  0  0  0  0  0  0
    1.5225   19.1257  -32.3230 H   0  0  0  0  0  0  0  0  0  0  0  0
    0.1672   18.8716  -33.5085 H   0  0  0  0  0  0  0  0  0  0  0  0
    1.8840   19.8670  -34.3130 C   0  0  0  0  0  0  0  0  0  0  0  0
    2.8634   20.1790  -33.9212 H   0  0  0  0  0  0  0  0  0  0  0  0
    2.0061   18.9633  -34.9281 H   0  0  0  0  0  0  0  0  0  0  0  0
    1.4609   20.6748  -34.9281 H   0  0  0  0  0  0  0  0  0  0  0  0
   -3.1430   21.6700  -32.9030 C   0  0  0  0  0  0  0  0  0  0  0  0
   -2.8366   22.6558  -32.5232 H   0  0  0  0  0  0  0  0  0  0  0  0
   -4.4970   21.2780  -32.8070 C   0  0  0  0  0  0  0  0  0  0  0  0
   -3.6770   24.5440  -30.0220 C   0  0  0  0  0  0  0  0  0  0  0  0
   -3.8500   25.6630  -30.8280 O   0  0  0  0  0  0  0  0  0  0  0  0
   -2.9350   24.6540  -28.8410 C   0  0  0  0  0  0  0  0  0  0  0  0
   -2.4661   25.6128  -28.5749 H   0  0  0  0  0  0  0  0  0  0  0  0
  1  2  1  0
  2  3  2  0
  3  4  1  0
  3  5  1  0
  5  6  1  0
  5  7  2  0
  7  8  1  0
  8  9  2  0
  9 10  1  0
 10 11  2  0
 11 12  1  0
 11 13  1  0
 13 14  1  0
 13 15  2  0
 15 16  1  0
 15 17  1  0
 17 18  1  0
 17 19  2  0
 19 20  1  0
 20 21  1  0
 21 22  2  0
 22 23  1  0
 22 24  1  0
 24 25  1  0
 24 26  2  0
 26 27  1  0
 27 28  2  0
 27 29  1  0
 29 30  1  0
 29 31  1  0
 31 32  1  0
 31 33  1  0
 31 34  1  0
 34 35  1  0
 34 36  1  0
 34 37  1  0
 29 38  1  0
 38 39  1  0
 38 40  1  0
 38 41  1  0
 41 42  1  0
 41 43  1  0
 41 44  1  0
 26 45  1  0
 45 46  1  0
 45 47  2  0
  7 48  1  0
 48 49  1  0
 48 50  2  0
 50 51  1  0
 50  2  1  0
 47  9  1  0
 19 10  1  0
 47 21  1  0
M  CHG  3  20  -1  29   1  49  -1
M  END
>  <UniqueID>  (13) 
13

>  <SMILES>  (13) 
CC[NH+](CC)C(=O)c1ccc2[n-]c3ccccc3/c(=N\c3ccccc3[O-])c2c1

>  <Energy>  (13) 
87.88446289106187

>  <Genealogy>  (13) 
CC[NH+](CC)C(=O)c1ccc2[n-]c3ccccc3c(=Nc3ccccc3[O-])c2c1 (protonated)
CC[NH+](CC)C(=O)c1ccc2[n-]c3ccccc3/c(=N\c3ccccc3[O-])c2c1 (cis-trans isomerization)
CC[NH+](CC)C(=O)c1ccc2[n-]c3ccccc3/c(=N\c3ccccc3[O-])c2c1 (3D coordinates assigned)
CC[NH+](CC)C(=O)c1ccc2[n-]c3ccccc3/c(=N\c3ccccc3[O-])c2c1 (optimized conformer: 87.88446289106187 kcal/mol)

>  <smiles>  (13) 
CCN(CC)C(=O)c1ccc2[nH]c3ccccc3c(=Nc3ccccc3O)c2c1

>  <score_type>  (13) 
oracle

>  <origin>  (13) 
adg

>  <m_score__min__energy>  (13) 
-11.880000000000001

>  <m_primary>  (13) 
energy

$$$$
13:0
     RDKit          3D

 43 45  0  0  0  0  0  0  0  0999 V2000
   -5.3780   25.5920  -30.4340 C   0  0  0  0  0  0  0  0  0  0  0  0
   -3.9840   25.3090  -30.4800 O   0  0  0  0  0  0  0  0  0  0  0  0
   -3.4310   24.0200  -30.4180 C   0  0  0  0  0  0  0  0  0  0  0  0
   -3.9790   23.0310  -31.2360 C   0  0  0  0  0  0  0  0  0  0  0  0
   -3.4770   21.7240  -31.2270 C   0  0  0  0  0  0  0  0  0  0  0  0
   -4.0690   20.7460  -32.0920 N   0  0  0  0  0  0  0  0  0  0  0  0
   -5.1390   21.1030  -33.0220 C   0  0  0  0  0  0  0  0  0  0  0  0
   -6.4110   20.3730  -32.6490 C   0  0  0  0  0  0  0  0  0  0  0  0
   -6.4600   18.9900  -32.9080 C   0  0  0  0  0  0  0  0  0  0  0  0
   -7.5770   18.2330  -32.5560 C   0  0  0  0  0  0  0  0  0  0  0  0
   -8.6670   18.8450  -31.9430 C   0  0  0  0  0  0  0  0  0  0  0  0
   -8.6470   20.2160  -31.6810 C   0  0  0  0  0  0  0  0  0  0  0  0
   -7.5270   21.0050  -32.0230 C   0  0  0  0  0  0  0  0  0  0  0  0
   -7.5550   22.4980  -31.7390 C   0  0  0  0  0  0  0  0  0  0  0  0
   -6.8790   23.1790  -32.7320 F   0  0  0  0  0  0  0  0  0  0  0  0
   -8.8650   22.9390  -31.6820 F   0  0  0  0  0  0  0  0  0  0  0  0
   -6.9490   22.8060  -30.5310 F   0  0  0  0  0  0  0  0  0  0  0  0
   -2.3940   21.3910  -30.3800 C   0  0  0  0  0  0  0  0  0  0  0  0
   -1.9030   20.1140  -30.3350 N   0  0  0  0  0  0  0  0  0  0  0  0
   -0.8750   19.7690  -29.5170 C   0  0  0  0  0  0  0  0  0  0  0  0
   -0.2820   20.7170  -28.6910 C   0  0  0  0  0  0  0  0  0  0  0  0
   -0.7460   22.0380  -28.6920 C   0  0  0  0  0  0  0  0  0  0  0  0
   -0.0840   23.0410  -27.7790 C   0  0  0  0  0  0  0  0  0  0  0  0
   -1.8260   22.3910  -29.5420 C   0  0  0  0  0  0  0  0  0  0  0  0
   -2.3560   23.6970  -29.5720 C   0  0  0  0  0  0  0  0  0  0  0  0
   -5.7043   25.6582  -29.3856 H   0  0  0  0  0  0  0  0  0  0  0  0
   -5.5749   26.5484  -30.9404 H   0  0  0  0  0  0  0  0  0  0  0  0
   -5.9323   24.7881  -30.9404 H   0  0  0  0  0  0  0  0  0  0  0  0
   -4.8197   23.2826  -31.8992 H   0  0  0  0  0  0  0  0  0  0  0  0
   -3.9080   19.7320  -31.8930 H   0  0  0  0  0  0  0  0  0  0  0  0
   -5.3146   22.1880  -32.9768 H   0  0  0  0  0  0  0  0  0  0  0  0
   -4.8428   20.8163  -34.0418 H   0  0  0  0  0  0  0  0  0  0  0  0
   -5.6045   18.4993  -33.3952 H   0  0  0  0  0  0  0  0  0  0  0  0
   -7.5969   17.1528  -32.7626 H   0  0  0  0  0  0  0  0  0  0  0  0
   -9.5467   18.2463  -31.6643 H   0  0  0  0  0  0  0  0  0  0  0  0
   -9.5166   20.6887  -31.2010 H   0  0  0  0  0  0  0  0  0  0  0  0
   -2.3140   19.3560  -30.9220 H   0  0  0  0  0  0  0  0  0  0  0  0
   -0.5090   18.7317  -29.5081 H   0  0  0  0  0  0  0  0  0  0  0  0
    0.5531   20.4288  -28.0356 H   0  0  0  0  0  0  0  0  0  0  0  0
   -0.2688   22.7611  -26.7314 H   0  0  0  0  0  0  0  0  0  0  0  0
    0.9992   23.0517  -27.9701 H   0  0  0  0  0  0  0  0  0  0  0  0
   -0.5000   24.0412  -27.9701 H   0  0  0  0  0  0  0  0  0  0  0  0
   -1.9225   24.4736  -28.9247 H   0  0  0  0  0  0  0  0  0  0  0  0
  1  2  1  0
  2  3  1  0
  3  4  2  0
  4  5  1  0
  5  6  1  0
  6  7  1  0
  7  8  1  0
  8  9  2  0
  9 10  1  0
 10 11  2  0
 11 12  1  0
 12 13  2  0
 13 14  1  0
 14 15  1  0
 14 16  1  0
 14 17  1  0
  5 18  2  0
 18 19  1  0
 19 20  2  0
 20 21  1  0
 21 22  2  0
 22 23  1  0
 22 24  1  0
 24 25  2  0
 25  3  1  0
 13  8  1  0
 24 18  1  0
  1 26  1  0
  1 27  1  0
  1 28  1  0
  4 29  1  0
  6 30  1  0
  7 31  1  0
  7 32  1  0
  9 33  1  0
 10 34  1  0
 11 35  1  0
 12 36  1  0
 19 37  1  0
 20 38  1  0
 21 39  1  0
 23 40  1  0
 23 41  1  0
 23 42  1  0
 25 43  1  0
M  CHG  1  19   1
M  END
>  <UniqueID>  (14) 
14

>  <SMILES>  (14) 
COc1cc(NCc2ccccc2C(F)(F)F)c2[nH+]ccc(C)c2c1

>  <Energy>  (14) 
56.717545892272526

>  <Genealogy>  (14) 
COc1cc(NCc2ccccc2C(F)(F)F)c2[nH+]ccc(C)c2c1 (protonated)
COc1cc(NCc2ccccc2C(F)(F)F)c2[nH+]ccc(C)c2c1 (3D coordinates assigned)
COc1cc(NCc2ccccc2C(F)(F)F)c2[nH+]ccc(C)c2c1 (optimized conformer: 56.717545892272526 kcal/mol)

>  <smiles>  (14) 
COc1cc(NCc2ccccc2C(F)(F)F)c2nccc(C)c2c1

>  <score_type>  (14) 
oracle

>  <origin>  (14) 
adg

>  <m_score__min__energy>  (14) 
-7.1299999999999999

>  <m_primary>  (14) 
energy

$$$$
14:0
     RDKit          3D

 52 55  0  0  0  0  0  0  0  0999 V2000
   -4.2260   23.5260  -27.5860 C   0  0  0  0  0  0  0  0  0  0  0  0
   -3.3490   22.8060  -28.5600 C   0  0  0  0  0  0  0  0  0  0  0  0
   -2.4810   21.8440  -28.1940 N   0  0  0  0  0  0  0  0  0  0  0  0
   -1.8600   21.4170  -29.2840 N   0  0  0  0  0  0  0  0  0  0  0  0
   -0.8790   20.3680  -29.2520 C   0  0  0  0  0  0  0  0  0  0  0  0
   -0.8630   19.3970  -30.2660 C   0  0  0  0  0  0  0  0  0  0  0  0
    0.1020   18.3850  -30.2590 C   0  0  0  0  0  0  0  0  0  0  0  0
    1.0670   18.3440  -29.2490 C   0  0  0  0  0  0  0  0  0  0  0  0
    1.0720   19.3200  -28.2480 C   0  0  0  0  0  0  0  0  0  0  0  0
    0.1090   20.3330  -28.2510 C   0  0  0  0  0  0  0  0  0  0  0  0
   -2.3000   22.1130  -30.3590 C   0  0  0  0  0  0  0  0  0  0  0  0
   -1.8390   21.9100  -31.7750 C   0  0  0  0  0  0  0  0  0  0  0  0
   -3.2840   22.9940  -29.9350 C   0  0  0  0  0  0  0  0  0  0  0  0
   -4.0720   23.9330  -30.7650 C   0  0  0  0  0  0  0  0  0  0  0  0
   -3.8730   25.1730  -30.6410 O   0  0  0  0  0  0  0  0  0  0  0  0
   -5.0340   23.4510  -31.7350 N   0  0  0  0  0  0  0  0  0  0  0  0
   -6.3560   24.0740  -31.4800 C   0  0  0  0  0  0  0  0  0  0  0  0
   -7.4800   23.2520  -32.1190 C   0  0  0  0  0  0  0  0  0  0  0  0
   -7.5600   21.9070  -31.5110 N   0  0  0  0  0  0  0  0  0  0  0  0
   -8.3420   20.9450  -32.3190 C   0  0  0  0  0  0  0  0  0  0  0  0
   -7.6020   19.6680  -32.6250 C   0  0  0  0  0  0  0  0  0  0  0  0
   -7.7960   18.4400  -32.0020 C   0  0  0  0  0  0  0  0  0  0  0  0
   -6.9800   17.4250  -32.5110 C   0  0  0  0  0  0  0  0  0  0  0  0
   -6.1490   17.8410  -33.5420 C   0  0  0  0  0  0  0  0  0  0  0  0
   -6.4340   19.4740  -33.8200 S   0  0  0  0  0  0  0  0  0  0  0  0
   -6.2710   21.3780  -31.0030 C   0  0  0  0  0  0  0  0  0  0  0  0
   -5.0650   21.9620  -31.7620 C   0  0  0  0  0  0  0  0  0  0  0  0
   -3.9190   23.2739  -26.5602 H   0  0  0  0  0  0  0  0  0  0  0  0
   -4.1322   24.6110  -27.7406 H   0  0  0  0  0  0  0  0  0  0  0  0
   -5.2720   23.2227  -27.7406 H   0  0  0  0  0  0  0  0  0  0  0  0
   -1.6131   19.4325  -31.0698 H   0  0  0  0  0  0  0  0  0  0  0  0
    0.1015   17.6201  -31.0496 H   0  0  0  0  0  0  0  0  0  0  0  0
    1.8222   17.5443  -29.2416 H   0  0  0  0  0  0  0  0  0  0  0  0
    1.8353   19.2906  -27.4565 H   0  0  0  0  0  0  0  0  0  0  0  0
    0.1236   21.1055  -27.4680 H   0  0  0  0  0  0  0  0  0  0  0  0
   -0.8323   21.4667  -31.7729 H   0  0  0  0  0  0  0  0  0  0  0  0
   -2.5356   21.2354  -32.2943 H   0  0  0  0  0  0  0  0  0  0  0  0
   -1.8117   22.8793  -32.2943 H   0  0  0  0  0  0  0  0  0  0  0  0
   -4.7370   23.7720  -32.6860 H   0  0  0  0  0  0  0  0  0  0  0  0
   -6.5239   24.1310  -30.3944 H   0  0  0  0  0  0  0  0  0  0  0  0
   -6.3614   25.0809  -31.9229 H   0  0  0  0  0  0  0  0  0  0  0  0
   -8.4372   23.7727  -31.9689 H   0  0  0  0  0  0  0  0  0  0  0  0
   -7.2678   23.1407  -33.1926 H   0  0  0  0  0  0  0  0  0  0  0  0
   -9.2584   20.6913  -31.7660 H   0  0  0  0  0  0  0  0  0  0  0  0
   -8.5542   21.4321  -33.2822 H   0  0  0  0  0  0  0  0  0  0  0  0
   -8.5200   18.2826  -31.1889 H   0  0  0  0  0  0  0  0  0  0  0  0
   -6.9952   16.3932  -32.1300 H   0  0  0  0  0  0  0  0  0  0  0  0
   -5.4283   17.2108  -34.0837 H   0  0  0  0  0  0  0  0  0  0  0  0
   -6.1776   21.6348  -29.9375 H   0  0  0  0  0  0  0  0  0  0  0  0
   -6.2698   20.2882  -31.1528 H   0  0  0  0  0  0  0  0  0  0  0  0
   -4.1415   21.5825  -31.3003 H   0  0  0  0  0  0  0  0  0  0  0  0
   -5.1523   21.6509  -32.8135 H   0  0  0  0  0  0  0  0  0  0  0  0
  1  2  1  0
  2  3  2  0
  3  4  1  0
  4  5  1  0
  5  6  2  0
  6  7  1  0
  7  8  2  0
  8  9  1  0
  9 10  2  0
  4 11  1  0
 11 12  1  0
 11 13  2  0
 13 14  1  0
 14 15  2  0
 14 16  1  0
 16 17  1  0
 17 18  1  0
 18 19  1  0
 19 20  1  0
 20 21  1  0
 21 22  2  0
 22 23  1  0
 23 24  2  0
 24 25  1  0
 19 26  1  0
 26 27  1  0
 13  2  1  0
 27 16  1  0
 10  5  1  0
 25 21  1  0
  1 28  1  0
  1 29  1  0
  1 30  1  0
  6 31  1  0
  7 32  1  0
  8 33  1  0
  9 34  1  0
 10 35  1  0
 12 36  1  0
 12 37  1  0
 12 38  1  0
 16 39  1  0
 17 40  1  0
 17 41  1  0
 18 42  1  0
 18 43  1  0
 20 44  1  0
 20 45  1  0
 22 46  1  0
 23 47  1  0
 24 48  1  0
 26 49  1  0
 26 50  1  0
 27 51  1  0
 27 52  1  0
M  CHG  1  16   1
M  END
>  <UniqueID>  (15) 
15

>  <SMILES>  (15) 
Cc1nn(-c2ccccc2)c(C)c1C(=O)[NH+]1CCN(Cc2cccs2)CC1

>  <Energy>  (15) 
134.98081627456554

>  <Genealogy>  (15) 
Cc1nn(-c2ccccc2)c(C)c1C(=O)[NH+]1CCN(Cc2cccs2)CC1 (protonated)
Cc1nn(-c2ccccc2)c(C)c1C(=O)[NH+]1CCN(Cc2cccs2)CC1 (3D coordinates assigned)
Cc1nn(-c2ccccc2)c(C)c1C(=O)[NH+]1CCN(Cc2cccs2)CC1 (nonaromatic ring conformer: 134.98081627456554 kcal/mol)

>  <smiles>  (15) 
Cc1nn(-c2ccccc2)c(C)c1C(=O)N1CCN(Cc2cccs2)CC1

>  <score_type>  (15) 
oracle

>  <origin>  (15) 
adg

>  <m_score__min__energy>  (15) 
-8.5099999999999998

>  <m_primary>  (15) 
energy

$$$$
15:0
     RDKit          3D

 41 44  0  0  0  0  0  0  0  0999 V2000
    0.4210   20.8420  -35.0160 C   0  0  0  0  0  0  0  0  0  0  0  0
   -0.7240   20.3050  -34.2100 C   0  0  0  0  0  0  0  0  0  0  0  0
   -0.9290   18.9230  -34.0960 C   0  0  0  0  0  0  0  0  0  0  0  0
   -1.9970   18.4430  -33.4030 N   0  0  0  0  0  0  0  0  0  0  0  0
   -2.8920   19.2760  -32.8060 C   0  0  0  0  0  0  0  0  0  0  0  0
   -2.7270   20.6650  -32.8870 C   0  0  0  0  0  0  0  0  0  0  0  0
   -3.6990   21.5620  -32.2390 C   0  0  0  0  0  0  0  0  0  0  0  0
   -3.3090   22.5540  -31.3970 N   0  0  0  0  0  0  0  0  0  0  0  0
   -4.4660   23.1630  -31.0850 C   0  0  0  0  0  0  0  0  0  0  0  0
   -4.6400   24.2750  -30.2650 C   0  0  0  0  0  0  0  0  0  0  0  0
   -5.9450   24.7780  -30.1120 C   0  0  0  0  0  0  0  0  0  0  0  0
   -7.0280   24.1690  -30.7830 C   0  0  0  0  0  0  0  0  0  0  0  0
   -6.8190   23.0500  -31.6100 C   0  0  0  0  0  0  0  0  0  0  0  0
   -5.5120   22.5660  -31.7300 C   0  0  0  0  0  0  0  0  0  0  0  0
   -5.0450   21.5390  -32.4650 N   0  0  0  0  0  0  0  0  0  0  0  0
   -5.7780   20.7480  -33.4600 C   0  0  0  0  0  0  0  0  0  0  0  0
   -6.8070   19.8840  -32.7830 C   0  0  0  0  0  0  0  0  0  0  0  0
   -8.1450   20.3080  -32.7090 C   0  0  0  0  0  0  0  0  0  0  0  0
   -9.1120   19.4910  -32.1160 C   0  0  0  0  0  0  0  0  0  0  0  0
   -8.7520   18.2440  -31.5980 C   0  0  0  0  0  0  0  0  0  0  0  0
   -7.4250   17.8120  -31.6710 C   0  0  0  0  0  0  0  0  0  0  0  0
   -6.4550   18.6270  -32.2610 C   0  0  0  0  0  0  0  0  0  0  0  0
   -1.6480   21.1760  -33.6190 C   0  0  0  0  0  0  0  0  0  0  0  0
    1.2056   21.2100  -34.3385 H   0  0  0  0  0  0  0  0  0  0  0  0
    0.8300   20.0418  -35.6504 H   0  0  0  0  0  0  0  0  0  0  0  0
    0.0673   21.6681  -35.6504 H   0  0  0  0  0  0  0  0  0  0  0  0
   -0.2236   18.2238  -34.5687 H   0  0  0  0  0  0  0  0  0  0  0  0
   -2.1330   17.4100  -33.3280 H   0  0  0  0  0  0  0  0  0  0  0  0
   -3.7486   18.8572  -32.2575 H   0  0  0  0  0  0  0  0  0  0  0  0
   -3.7862   24.7442  -29.7543 H   0  0  0  0  0  0  0  0  0  0  0  0
   -6.1227   25.6505  -29.4661 H   0  0  0  0  0  0  0  0  0  0  0  0
   -8.0436   24.5728  -30.6581 H   0  0  0  0  0  0  0  0  0  0  0  0
   -7.6541   22.5725  -32.1435 H   0  0  0  0  0  0  0  0  0  0  0  0
   -6.2806   21.4267  -34.1648 H   0  0  0  0  0  0  0  0  0  0  0  0
   -5.0681   20.1039  -33.9995 H   0  0  0  0  0  0  0  0  0  0  0  0
   -8.4326   21.2872  -33.1196 H   0  0  0  0  0  0  0  0  0  0  0  0
  -10.1568   19.8299  -32.0571 H   0  0  0  0  0  0  0  0  0  0  0  0
   -9.5140   17.6018  -31.1323 H   0  0  0  0  0  0  0  0  0  0  0  0
   -7.1437   16.8297  -31.2637 H   0  0  0  0  0  0  0  0  0  0  0  0
   -5.4115   18.2834  -32.3172 H   0  0  0  0  0  0  0  0  0  0  0  0
   -1.5259   22.2636  -33.7300 H   0  0  0  0  0  0  0  0  0  0  0  0
  1  2  1  0
  2  3  2  0
  3  4  1  0
  4  5  2  0
  5  6  1  0
  6  7  1  0
  7  8  2  0
  8  9  1  0
  9 10  2  0
 10 11  1  0
 11 12  2  0
 12 13  1  0
 13 14  2  0
 14 15  1  0
 15 16  1  0
 16 17  1  0
 17 18  2  0
 18 19  1  0
 19 20  2  0
 20 21  1  0
 21 22  2  0
  6 23  2  0
 23  2  1  0
 15  7  1  0
 22 17  1  0
 14  9  1  0
  1 24  1  0
  1 25  1  0
  1 26  1  0
  3 27  1  0
  4 28  1  0
  5 29  1  0
 10 30  1  0
 11 31  1  0
 12 32  1  0
 13 33  1  0
 16 34  1  0
 16 35  1  0
 18 36  1  0
 19 37  1  0
 20 38  1  0
 21 39  1  0
 22 40  1  0
 23 41  1  0
M  CHG  1   4   1
M  END
>  <UniqueID>  (16) 
16

>  <SMILES>  (16) 
Cc1c[nH+]cc(-c2nc3ccccc3n2Cc2ccccc2)c1

>  <Energy>  (16) 
85.35280188180732

>  <Genealogy>  (16) 
Cc1c[nH+]cc(-c2nc3ccccc3n2Cc2ccccc2)c1 (protonated)
Cc1c[nH+]cc(-c2nc3ccccc3n2Cc2ccccc2)c1 (3D coordinates assigned)
Cc1c[nH+]cc(-c2nc3ccccc3n2Cc2ccccc2)c1 (optimized conformer: 85.35280188180732 kcal/mol)

>  <smiles>  (16) 
Cc1cncc(-c2nc3ccccc3n2Cc2ccccc2)c1

>  <score_type>  (16) 
oracle

>  <origin>  (16) 
adg

>  <m_score__min__energy>  (16) 
-7.5499999999999998

>  <m_primary>  (16) 
energy

$$$$
16:0
     RDKit          3D

 43 46  0  0  0  0  0  0  0  0999 V2000
   -5.8340   25.6600  -30.0730 C   0  0  0  0  0  0  0  0  0  0  0  0
   -5.3580   24.2630  -30.4620 C   0  0  1  0  0  0  0  0  0  0  0  0
   -5.8610   23.9380  -31.7570 O   0  0  0  0  0  0  0  0  0  0  0  0
   -5.9330   22.6180  -32.2120 C   0  0  0  0  0  0  0  0  0  0  0  0
   -4.8210   22.0320  -32.7350 N   0  0  0  0  0  0  0  0  0  0  0  0
   -4.8440   20.7440  -33.1700 C   0  0  0  0  0  0  0  0  0  0  0  0
   -5.9880   20.0170  -33.1000 N   0  0  0  0  0  0  0  0  0  0  0  0
   -7.1290   20.5560  -32.6010 C   0  0  0  0  0  0  0  0  0  0  0  0
   -8.3010   19.7920  -32.5460 C   0  0  0  0  0  0  0  0  0  0  0  0
   -9.4800   20.3530  -32.0470 C   0  0  0  0  0  0  0  0  0  0  0  0
   -9.4930   21.6790  -31.6040 C   0  0  0  0  0  0  0  0  0  0  0  0
   -8.3280   22.4510  -31.6520 C   0  0  0  0  0  0  0  0  0  0  0  0
   -7.1350   21.8920  -32.1440 C   0  0  0  0  0  0  0  0  0  0  0  0
   -3.8570   24.2070  -30.4600 C   0  0  0  0  0  0  0  0  0  0  0  0
   -3.2640   23.3860  -31.2110 O   0  0  0  0  0  0  0  0  0  0  0  0
   -3.1170   25.1160  -29.6350 N   0  0  0  0  0  0  0  0  0  0  0  0
   -2.0820   24.7750  -28.7030 C   0  0  0  0  0  0  0  0  0  0  0  0
   -0.8900   24.1410  -29.1080 C   0  0  0  0  0  0  0  0  0  0  0  0
    0.0840   23.8000  -28.1620 C   0  0  0  0  0  0  0  0  0  0  0  0
   -0.1310   24.0760  -26.8100 C   0  0  0  0  0  0  0  0  0  0  0  0
   -1.3100   24.7120  -26.4020 C   0  0  0  0  0  0  0  0  0  0  0  0
   -2.2920   25.0400  -27.3420 C   0  0  0  0  0  0  0  0  0  0  0  0
   -1.4870   25.0120  -25.0470 O   0  0  0  0  0  0  0  0  0  0  0  0
   -0.3960   24.9400  -24.1270 C   0  0  0  0  0  0  0  0  0  0  0  0
    0.4960   23.7340  -24.4520 C   0  0  0  0  0  0  0  0  0  0  0  0
    0.8180   23.7180  -25.8460 O   0  0  0  0  0  0  0  0  0  0  0  0
   -5.8631   25.7454  -28.9767 H   0  0  0  0  0  0  0  0  0  0  0  0
   -5.1408   26.4104  -30.4810 H   0  0  0  0  0  0  0  0  0  0  0  0
   -6.8411   25.8310  -30.4810 H   0  0  0  0  0  0  0  0  0  0  0  0
   -5.7341   23.5327  -29.7304 H   0  0  0  0  0  0  0  0  0  0  0  0
   -3.9310   22.5740  -32.7990 H   0  0  0  0  0  0  0  0  0  0  0  0
   -3.9307   20.2888  -33.5808 H   0  0  0  0  0  0  0  0  0  0  0  0
   -8.2939   18.7491  -32.8959 H   0  0  0  0  0  0  0  0  0  0  0  0
  -10.3991   19.7502  -32.0028 H   0  0  0  0  0  0  0  0  0  0  0  0
  -10.4243   22.1172  -31.2158 H   0  0  0  0  0  0  0  0  0  0  0  0
   -8.3447   23.4948  -31.3052 H   0  0  0  0  0  0  0  0  0  0  0  0
   -0.7245   23.9133  -30.1714 H   0  0  0  0  0  0  0  0  0  0  0  0
    1.0177   23.3152  -28.4833 H   0  0  0  0  0  0  0  0  0  0  0  0
   -3.2319   25.5072  -27.0129 H   0  0  0  0  0  0  0  0  0  0  0  0
    0.2000   25.8618  -24.1980 H   0  0  0  0  0  0  0  0  0  0  0  0
   -0.7942   24.8263  -23.1079 H   0  0  0  0  0  0  0  0  0  0  0  0
    1.4243   23.8003  -23.8656 H   0  0  0  0  0  0  0  0  0  0  0  0
   -0.0439   22.8099  -24.1981 H   0  0  0  0  0  0  0  0  0  0  0  0
  1  2  1  0
  2  3  1  0
  3  4  1  0
  4  5  2  0
  5  6  1  0
  6  7  2  0
  7  8  1  0
  8  9  2  0
  9 10  1  0
 10 11  2  0
 11 12  1  0
 12 13  2  0
  2 14  1  0
 14 15  2  0
 14 16  1  0
 16 17  1  0
 17 18  2  0
 18 19  1  0
 19 20  2  0
 20 21  1  0
 21 22  2  0
 21 23  1  0
 23 24  1  0
 24 25  1  0
 25 26  1  0
 13  4  1  0
 22 17  1  0
 13  8  1  0
 26 20  1  0
  1 27  1  0
  1 28  1  0
  1 29  1  0
  2 30  1  1
  5 31  1  0
  6 32  1  0
  9 33  1  0
 10 34  1  0
 11 35  1  0
 12 36  1  0
 18 37  1  0
 19 38  1  0
 22 39  1  0
 24 40  1  0
 24 41  1  0
 25 42  1  0
 25 43  1  0
M  CHG  2   5   1  16  -1
M  END
>  <UniqueID>  (17) 
17

>  <SMILES>  (17) 
C[C@@H](Oc1[nH+]cnc2ccccc12)C(=O)[N-]c1ccc2c(c1)OCCO2

>  <Energy>  (17) 
57.55567047781454

>  <Genealogy>  (17) 
CC(Oc1[nH+]cnc2ccccc12)C(=O)[N-]c1ccc2c(c1)OCCO2 (protonated)
C[C@@H](Oc1[nH+]cnc2ccccc12)C(=O)[N-]c1ccc2c(c1)OCCO2 (chirality)
C[C@@H](Oc1[nH+]cnc2ccccc12)C(=O)[N-]c1ccc2c(c1)OCCO2 (3D coordinates assigned)
C[C@@H](Oc1[nH+]cnc2ccccc12)C(=O)[N-]c1ccc2c(c1)OCCO2 (nonaromatic ring conformer: 57.55567047781454 kcal/mol)

>  <smiles>  (17) 
CC(Oc1ncnc2ccccc12)C(=O)Nc1ccc2c(c1)OCCO2

>  <score_type>  (17) 
oracle

>  <origin>  (17) 
adg

>  <m_score__min__energy>  (17) 
-9.3100000000000005

>  <m_primary>  (17) 
energy

$$$$
17:0
     RDKit          3D

 42 45  0  0  0  0  0  0  0  0999 V2000
   -4.8020   17.3630  -34.5340 C   0  0  0  0  0  0  0  0  0  0  0  0
   -5.4720   16.5550  -33.4530 C   0  0  0  0  0  0  0  0  0  0  0  0
   -4.6850   15.4930  -32.7240 C   0  0  0  0  0  0  0  0  0  0  0  0
   -6.7690   16.8060  -33.1720 C   0  0  0  0  0  0  0  0  0  0  0  0
   -7.2630   17.4490  -31.8980 C   0  0  0  0  0  0  0  0  0  0  0  0
   -7.4340   18.9440  -32.0560 C   0  0  0  0  0  0  0  0  0  0  0  0
   -8.7220   19.4970  -32.2060 C   0  0  0  0  0  0  0  0  0  0  0  0
   -9.8490   18.6790  -32.2070 O   0  0  0  0  0  0  0  0  0  0  0  0
   -8.8850   20.8760  -32.3520 C   0  0  0  0  0  0  0  0  0  0  0  0
   -7.7740   21.7190  -32.3580 C   0  0  0  0  0  0  0  0  0  0  0  0
   -6.4860   21.1940  -32.1910 C   0  0  0  0  0  0  0  0  0  0  0  0
   -6.3180   19.8070  -32.0210 C   0  0  0  0  0  0  0  0  0  0  0  0
   -5.0340   19.2960  -31.8180 O   0  0  0  0  0  0  0  0  0  0  0  0
   -3.9920   20.1120  -31.3030 C   0  0  0  0  0  0  0  0  0  0  0  0
   -3.8950   21.4300  -32.0880 C   0  0  2  0  0  0  0  0  0  0  0  0
   -3.2000   22.4660  -31.2650 C   0  0  0  0  0  0  0  0  0  0  0  0
   -1.8690   22.5130  -30.8410 C   0  0  0  0  0  0  0  0  0  0  0  0
   -0.9610   21.5370  -31.2300 O   0  0  0  0  0  0  0  0  0  0  0  0
   -1.4690   23.5720  -30.0060 C   0  0  0  0  0  0  0  0  0  0  0  0
   -2.4000   24.5520  -29.6050 C   0  0  0  0  0  0  0  0  0  0  0  0
   -2.0000   25.5920  -28.7780 O   0  0  0  0  0  0  0  0  0  0  0  0
   -3.7350   24.4780  -30.0420 C   0  0  0  0  0  0  0  0  0  0  0  0
   -4.0990   23.4220  -30.8760 C   0  0  0  0  0  0  0  0  0  0  0  0
   -5.3480   23.1930  -31.4120 O   0  0  0  0  0  0  0  0  0  0  0  0
   -5.2870   22.1010  -32.3320 C   0  0  2  0  0  0  0  0  0  0  0  0
   -4.1640   18.1324  -34.0746 H   0  0  0  0  0  0  0  0  0  0  0  0
   -4.1850   16.7000  -35.1583 H   0  0  0  0  0  0  0  0  0  0  0  0
   -5.5678   17.8465  -35.1583 H   0  0  0  0  0  0  0  0  0  0  0  0
   -4.7920   15.6374  -31.6388 H   0  0  0  0  0  0  0  0  0  0  0  0
   -5.0663   14.4991  -33.0010 H   0  0  0  0  0  0  0  0  0  0  0  0
   -3.6231   15.5686  -33.0010 H   0  0  0  0  0  0  0  0  0  0  0  0
   -7.5190   16.5218  -33.9248 H   0  0  0  0  0  0  0  0  0  0  0  0
   -8.2328   17.0058  -31.6277 H   0  0  0  0  0  0  0  0  0  0  0  0
   -6.5152   17.2705  -31.1113 H   0  0  0  0  0  0  0  0  0  0  0  0
   -9.8942   21.2994  -32.4628 H   0  0  0  0  0  0  0  0  0  0  0  0
   -7.9098   22.8020  -32.4946 H   0  0  0  0  0  0  0  0  0  0  0  0
   -4.1977   20.3358  -30.2458 H   0  0  0  0  0  0  0  0  0  0  0  0
   -3.0389   19.5716  -31.4005 H   0  0  0  0  0  0  0  0  0  0  0  0
   -3.3897   21.1559  -33.0258 H   0  0  0  0  0  0  0  0  0  0  0  0
   -0.4253   23.6358  -29.6644 H   0  0  0  0  0  0  0  0  0  0  0  0
   -4.4725   25.2337  -29.7337 H   0  0  0  0  0  0  0  0  0  0  0  0
   -5.3496   22.4140  -33.3847 H   0  0  0  0  0  0  0  0  0  0  0  0
  1  2  1  0
  2  3  1  0
  2  4  2  3
  4  5  1  0
  5  6  1  0
  6  7  2  0
  7  8  1  0
  7  9  1  0
  9 10  2  0
 10 11  1  0
 11 12  2  0
 12 13  1  0
 13 14  1  0
 14 15  1  0
 15 16  1  0
 16 17  2  0
 17 18  1  0
 17 19  1  0
 19 20  2  0
 20 21  1  0
 20 22  1  0
 22 23  2  0
 23 24  1  0
 24 25  1  0
 12  6  1  0
 25 15  1  0
 25 11  1  0
 23 16  1  0
  1 26  1  0
  1 27  1  0
  1 28  1  0
  3 29  1  0
  3 30  1  0
  3 31  1  0
  4 32  1  0
  5 33  1  0
  5 34  1  0
  9 35  1  0
 10 36  1  0
 14 37  1  0
 14 38  1  0
 15 39  1  6
 19 40  1  0
 22 41  1  0
 25 42  1  6
M  CHG  3   8  -1  18  -1  21  -1
M  END
>  <UniqueID>  (18) 
18

>  <SMILES>  (18) 
CC(C)=CCc1c([O-])ccc2c1OC[C@@H]1c3c([O-])cc([O-])cc3O[C@H]21

>  <Energy>  (18) 
63.1146551185378

>  <Genealogy>  (18) 
CC(C)=CCc1c([O-])ccc2c1OCC1c3c([O-])cc([O-])cc3OC21 (protonated)
CC(C)=CCc1c([O-])ccc2c1OC[C@@H]1c3c([O-])cc([O-])cc3O[C@H]21 (chirality)
CC(C)=CCc1c([O-])ccc2c1OC[C@@H]1c3c([O-])cc([O-])cc3O[C@H]21 (3D coordinates assigned)
CC(C)=CCc1c([O-])ccc2c1OC[C@@H]1c3c([O-])cc([O-])cc3O[C@H]21 (nonaromatic ring conformer: 63.1146551185378 kcal/mol)

>  <smiles>  (18) 
CC(C)=CCc1c(O)ccc2c1OCC1c3c(O)cc(O)cc3OC21

>  <score_type>  (18) 
oracle

>  <origin>  (18) 
adg

>  <m_score__min__energy>  (18) 
-9.25

>  <m_primary>  (18) 
energy

$$$$
18:0
     RDKit          3D

 34 35  0  0  0  0  0  0  0  0999 V2000
   -9.0490   19.4340  -30.7490 O   0  0  0  0  0  0  0  0  0  0  0  0
   -8.4020   20.2360  -31.8450 S   0  0  0  0  0  0  0  0  0  0  0  0
   -9.4800   20.8060  -32.7250 O   0  0  0  0  0  0  0  0  0  0  0  0
   -7.4220   21.5590  -31.1460 C   0  0  0  0  0  0  0  0  0  0  0  0
   -7.1910   22.6970  -32.1490 C   0  0  0  0  0  0  0  0  0  0  0  0
   -6.0710   23.5720  -31.7450 N   0  0  0  0  0  0  0  0  0  0  0  0
   -4.9800   22.7730  -31.1590 C   0  0  0  0  0  0  0  0  0  0  0  0
   -3.7890   23.6840  -30.7900 C   0  0  0  0  0  0  0  0  0  0  0  0
   -4.1210   25.0610  -30.8410 O   0  0  0  0  0  0  0  0  0  0  0  0
   -5.3050   25.2930  -30.1070 C   0  0  0  0  0  0  0  0  0  0  0  0
   -6.5090   24.6140  -30.7890 C   0  0  0  0  0  0  0  0  0  0  0  0
   -7.3520   19.1900  -32.7940 C   0  0  0  0  0  0  0  0  0  0  0  0
   -6.5570   19.7310  -33.8140 C   0  0  0  0  0  0  0  0  0  0  0  0
   -5.7340   18.8990  -34.5780 C   0  0  0  0  0  0  0  0  0  0  0  0
   -5.7060   17.5230  -34.3310 C   0  0  0  0  0  0  0  0  0  0  0  0
   -6.5030   16.9780  -33.3200 C   0  0  0  0  0  0  0  0  0  0  0  0
   -7.3270   17.8080  -32.5540 C   0  0  0  0  0  0  0  0  0  0  0  0
   -7.9456   21.9620  -30.2665 H   0  0  0  0  0  0  0  0  0  0  0  0
   -6.4407   21.1452  -30.8708 H   0  0  0  0  0  0  0  0  0  0  0  0
   -6.9645   22.2620  -33.1336 H   0  0  0  0  0  0  0  0  0  0  0  0
   -8.1044   23.3089  -32.1849 H   0  0  0  0  0  0  0  0  0  0  0  0
   -5.3458   22.2685  -30.2525 H   0  0  0  0  0  0  0  0  0  0  0  0
   -4.6462   22.0274  -31.8957 H   0  0  0  0  0  0  0  0  0  0  0  0
   -3.4602   23.4382  -29.7695 H   0  0  0  0  0  0  0  0  0  0  0  0
   -2.9918   23.5056  -31.5266 H   0  0  0  0  0  0  0  0  0  0  0  0
   -5.1870   24.8849  -29.0924 H   0  0  0  0  0  0  0  0  0  0  0  0
   -5.4878   26.3768  -30.0628 H   0  0  0  0  0  0  0  0  0  0  0  0
   -7.1418   24.1495  -30.0184 H   0  0  0  0  0  0  0  0  0  0  0  0
   -7.0697   25.3801  -31.3446 H   0  0  0  0  0  0  0  0  0  0  0  0
   -6.5810   20.8125  -34.0135 H   0  0  0  0  0  0  0  0  0  0  0  0
   -5.1076   19.3271  -35.3745 H   0  0  0  0  0  0  0  0  0  0  0  0
   -5.0569   16.8694  -34.9322 H   0  0  0  0  0  0  0  0  0  0  0  0
   -6.4818   15.8953  -33.1270 H   0  0  0  0  0  0  0  0  0  0  0  0
   -7.9567   17.3767  -31.7619 H   0  0  0  0  0  0  0  0  0  0  0  0
  1  2  2  0
  2  3  2  0
  2  4  1  0
  4  5  1  0
  5  6  1  0
  6  7  1  0
  7  8  1  0
  8  9  1  0
  9 10  1  0
 10 11  1  0
  2 12  1  0
 12 13  2  0
 13 14  1  0
 14 15  2  0
 15 16  1  0
 16 17  2  0
 11  6  1  0
 17 12  1  0
  4 18  1  0
  4 19  1  0
  5 20  1  0
  5 21  1  0
  7 22  1  0
  7 23  1  0
  8 24  1  0
  8 25  1  0
 10 26  1  0
 10 27  1  0
 11 28  1  0
 11 29  1  0
 13 30  1  0
 14 31  1  0
 15 32  1  0
 16 33  1  0
 17 34  1  0
M  END
>  <UniqueID>  (19) 
19

>  <SMILES>  (19) 
O=S(=O)(CCN1CCOCC1)c1ccccc1

>  <Energy>  (19) 
38.688778748945595

>  <Genealogy>  (19) 
O=S(=O)(CCN1CCOCC1)c1ccccc1 (3D coordinates assigned)
O=S(=O)(CCN1CCOCC1)c1ccccc1 (nonaromatic ring conformer: 38.688778748945595 kcal/mol)

>  <smiles>  (19) 
O=S(=O)(CCN1CCOCC1)c1ccccc1

>  <score_type>  (19) 
oracle

>  <origin>  (19) 
adg

>  <m_score__min__energy>  (19) 
-7.96

>  <m_primary>  (19) 
energy

$$$$
19:0
     RDKit          3D

 63 66  0  0  0  0  0  0  0  0999 V2000
   -0.4930   21.5180  -31.7040 C   0  0  0  0  0  0  0  0  0  0  0  0
   -1.8420   21.0830  -32.1960 C   0  0  0  0  0  0  0  0  0  0  0  0
   -1.9450   20.2510  -33.3410 C   0  0  0  0  0  0  0  0  0  0  0  0
   -3.2050   19.8660  -33.8350 C   0  0  0  0  0  0  0  0  0  0  0  0
   -4.3320   20.3410  -33.1710 C   0  0  0  0  0  0  0  0  0  0  0  0
   -5.6230   20.1190  -33.4670 N   0  0  0  0  0  0  0  0  0  0  0  0
   -6.3090   20.8200  -32.5290 C   0  0  0  0  0  0  0  0  0  0  0  0
   -7.8110   20.8100  -32.4490 C   0  0  0  0  0  0  0  0  0  0  0  0
   -8.3430   19.4490  -31.9830 C   0  0  0  0  0  0  0  0  0  0  0  0
   -7.3590   18.3450  -32.2550 C   0  0  0  0  0  0  0  0  0  0  0  0
   -6.6290   17.7610  -31.2090 C   0  0  0  0  0  0  0  0  0  0  0  0
   -5.7490   16.7130  -31.4920 C   0  0  0  0  0  0  0  0  0  0  0  0
   -5.6150   16.2530  -32.8040 C   0  0  0  0  0  0  0  0  0  0  0  0
   -6.3660   16.8500  -33.8180 C   0  0  0  0  0  0  0  0  0  0  0  0
   -7.2160   17.8700  -33.5240 N   0  0  0  0  0  0  0  0  0  0  0  0
   -5.4860   21.4530  -31.6460 N   0  0  0  0  0  0  0  0  0  0  0  0
   -5.8520   22.3300  -30.5310 C   0  0  0  0  0  0  0  0  0  0  0  0
   -6.2340   23.7180  -31.0540 C   0  0  0  0  0  0  0  0  0  0  0  0
   -5.3370   24.8010  -30.4450 C   0  0  0  0  0  0  0  0  0  0  0  0
   -3.8660   24.3780  -30.4590 C   0  0  0  0  0  0  0  0  0  0  0  0
   -3.2050   24.8310  -29.2120 N   0  0  0  0  0  0  0  0  0  0  0  0
   -1.7940   24.4030  -29.1020 C   0  0  0  0  0  0  0  0  0  0  0  0
   -1.6370   22.9310  -28.6590 C   0  0  0  0  0  0  0  0  0  0  0  0
   -2.9440   22.2630  -28.5370 N   0  0  0  0  0  0  0  0  0  0  0  0
   -2.7670   20.8720  -28.0920 C   0  0  0  0  0  0  0  0  0  0  0  0
   -3.8060   22.9940  -27.5900 C   0  0  0  0  0  0  0  0  0  0  0  0
   -3.9690   24.4770  -27.9980 C   0  0  0  0  0  0  0  0  0  0  0  0
   -4.2440   21.1510  -32.0760 C   0  0  0  0  0  0  0  0  0  0  0  0
   -3.0110   21.5550  -31.5590 C   0  0  0  0  0  0  0  0  0  0  0  0
   -0.4870   21.5199  -30.6040 H   0  0  0  0  0  0  0  0  0  0  0  0
    0.2742   20.8217  -32.0736 H   0  0  0  0  0  0  0  0  0  0  0  0
   -0.2771   22.5313  -32.0736 H   0  0  0  0  0  0  0  0  0  0  0  0
   -1.0319   19.9040  -33.8468 H   0  0  0  0  0  0  0  0  0  0  0  0
   -3.2960   19.2125  -34.7151 H   0  0  0  0  0  0  0  0  0  0  0  0
   -6.0110   19.5350  -34.2410 H   0  0  0  0  0  0  0  0  0  0  0  0
   -8.1356   21.5829  -31.7368 H   0  0  0  0  0  0  0  0  0  0  0  0
   -8.2102   21.0093  -33.4544 H   0  0  0  0  0  0  0  0  0  0  0  0
   -8.5385   19.4939  -30.9014 H   0  0  0  0  0  0  0  0  0  0  0  0
   -9.2655   19.2317  -32.5414 H   0  0  0  0  0  0  0  0  0  0  0  0
   -6.7480   18.1240  -30.1775 H   0  0  0  0  0  0  0  0  0  0  0  0
   -5.1632   16.2514  -30.6834 H   0  0  0  0  0  0  0  0  0  0  0  0
   -4.9246   15.4286  -33.0359 H   0  0  0  0  0  0  0  0  0  0  0  0
   -6.2702   16.4954  -34.8549 H   0  0  0  0  0  0  0  0  0  0  0  0
   -6.7078   21.8961  -29.9930 H   0  0  0  0  0  0  0  0  0  0  0  0
   -4.9917   22.4261  -29.8522 H   0  0  0  0  0  0  0  0  0  0  0  0
   -6.1234   23.7329  -32.1483 H   0  0  0  0  0  0  0  0  0  0  0  0
   -7.2760   23.9251  -30.7688 H   0  0  0  0  0  0  0  0  0  0  0  0
   -5.4488   25.7278  -31.0269 H   0  0  0  0  0  0  0  0  0  0  0  0
   -5.6430   24.9580  -29.4002 H   0  0  0  0  0  0  0  0  0  0  0  0
   -3.8011   23.2822  -30.5302 H   0  0  0  0  0  0  0  0  0  0  0  0
   -3.3635   24.8343  -31.3246 H   0  0  0  0  0  0  0  0  0  0  0  0
   -1.3139   24.5256  -30.0841 H   0  0  0  0  0  0  0  0  0  0  0  0
   -1.3219   25.0287  -28.3302 H   0  0  0  0  0  0  0  0  0  0  0  0
   -1.0301   22.3960  -29.4042 H   0  0  0  0  0  0  0  0  0  0  0  0
   -1.1482   22.9168  -27.6737 H   0  0  0  0  0  0  0  0  0  0  0  0
   -2.7625   20.8365  -26.9926 H   0  0  0  0  0  0  0  0  0  0  0  0
   -3.5940   20.2563  -28.4753 H   0  0  0  0  0  0  0  0  0  0  0  0
   -1.8121   20.4831  -28.4753 H   0  0  0  0  0  0  0  0  0  0  0  0
   -4.7976   22.5182  -27.5692 H   0  0  0  0  0  0  0  0  0  0  0  0
   -3.3335   22.9598  -26.5972 H   0  0  0  0  0  0  0  0  0  0  0  0
   -5.0350   24.6735  -28.1854 H   0  0  0  0  0  0  0  0  0  0  0  0
   -3.5764   25.0894  -27.1729 H   0  0  0  0  0  0  0  0  0  0  0  0
   -2.9522   22.2192  -30.6841 H   0  0  0  0  0  0  0  0  0  0  0  0
  1  2  1  0
  2  3  2  0
  3  4  1  0
  4  5  2  0
  5  6  1  0
  6  7  2  0
  7  8  1  0
  8  9  1  0
  9 10  1  0
 10 11  2  0
 11 12  1  0
 12 13  2  0
 13 14  1  0
 14 15  2  0
  7 16  1  0
 16 17  1  0
 17 18  1  0
 18 19  1  0
 19 20  1  0
 20 21  1  0
 21 22  1  0
 22 23  1  0
 23 24  1  0
 24 25  1  0
 24 26  1  0
 26 27  1  0
 16 28  1  0
 28 29  2  0
 29  2  1  0
 28  5  1  0
 15 10  1  0
 27 21  1  0
  1 30  1  0
  1 31  1  0
  1 32  1  0
  3 33  1  0
  4 34  1  0
  6 35  1  0
  8 36  1  0
  8 37  1  0
  9 38  1  0
  9 39  1  0
 11 40  1  0
 12 41  1  0
 13 42  1  0
 14 43  1  0
 17 44  1  0
 17 45  1  0
 18 46  1  0
 18 47  1  0
 19 48  1  0
 19 49  1  0
 20 50  1  0
 20 51  1  0
 22 52  1  0
 22 53  1  0
 23 54  1  0
 23 55  1  0
 25 56  1  0
 25 57  1  0
 25 58  1  0
 26 59  1  0
 26 60  1  0
 27 61  1  0
 27 62  1  0
 29 63  1  0
M  CHG  1   6   1
M  END
>  <UniqueID>  (20) 
20

>  <SMILES>  (20) 
Cc1ccc2[nH+]c(CCc3ccccn3)n(CCCCN3CCN(C)CC3)c2c1

>  <Energy>  (20) 
103.92633839741127

>  <Genealogy>  (20) 
Cc1ccc2[nH+]c(CCc3ccccn3)n(CCCCN3CCN(C)CC3)c2c1 (protonated)
Cc1ccc2[nH+]c(CCc3ccccn3)n(CCCCN3CCN(C)CC3)c2c1 (3D coordinates assigned)
Cc1ccc2[nH+]c(CCc3ccccn3)n(CCCCN3CCN(C)CC3)c2c1 (nonaromatic ring conformer: 103.92633839741127 kcal/mol)

>  <smiles>  (20) 
Cc1ccc2nc(CCc3ccccn3)n(CCCCN3CCN(C)CC3)c2c1

>  <score_type>  (20) 
oracle

>  <origin>  (20) 
adg

>  <m_score__min__energy>  (20) 
-8.3200000000000003

>  <m_primary>  (20) 
energy

$$$$
20:0
     RDKit          3D

 49 52  0  0  0  0  0  0  0  0999 V2000
   -0.5290   25.6830  -23.9870 C   0  0  0  0  0  0  0  0  0  0  0  0
   -1.2330   26.7940  -24.7490 C   0  0  0  0  0  0  0  0  0  0  0  0
   -1.0020   26.6350  -26.1450 O   0  0  0  0  0  0  0  0  0  0  0  0
   -1.6540   25.6930  -26.9550 C   0  0  0  0  0  0  0  0  0  0  0  0
   -2.7160   24.8980  -26.4820 C   0  0  0  0  0  0  0  0  0  0  0  0
   -3.3340   23.9720  -27.3290 C   0  0  0  0  0  0  0  0  0  0  0  0
   -2.9000   23.8280  -28.6540 C   0  0  0  0  0  0  0  0  0  0  0  0
   -3.5400   22.8760  -29.5280 N   0  0  0  0  0  0  0  0  0  0  0  0
   -2.8040   21.8260  -30.0010 C   0  0  0  0  0  0  0  0  0  0  0  0
   -1.5900   21.6910  -29.6810 O   0  0  0  0  0  0  0  0  0  0  0  0
   -3.3850   20.8850  -30.8380 C   0  0  0  0  0  0  0  0  0  0  0  0
   -4.7290   21.0120  -31.1800 C   0  0  0  0  0  0  0  0  0  0  0  0
   -5.3300   19.9730  -32.0500 C   0  0  0  0  0  0  0  0  0  0  0  0
   -5.8010   18.7690  -31.5000 C   0  0  0  0  0  0  0  0  0  0  0  0
   -6.3760   17.7960  -32.3250 C   0  0  0  0  0  0  0  0  0  0  0  0
   -6.4750   18.0150  -33.7020 C   0  0  0  0  0  0  0  0  0  0  0  0
   -5.9960   19.2040  -34.2570 C   0  0  0  0  0  0  0  0  0  0  0  0
   -5.4220   20.1800  -33.4360 C   0  0  0  0  0  0  0  0  0  0  0  0
   -5.4580   22.0780  -30.7090 N   0  0  0  0  0  0  0  0  0  0  0  0
   -6.8340   22.2330  -31.1220 C   0  0  0  0  0  0  0  0  0  0  0  0
   -7.8080   21.3150  -30.6980 C   0  0  0  0  0  0  0  0  0  0  0  0
   -9.1340   21.4530  -31.1190 C   0  0  0  0  0  0  0  0  0  0  0  0
   -9.4940   22.5080  -31.9630 C   0  0  0  0  0  0  0  0  0  0  0  0
   -8.5270   23.4260  -32.3880 C   0  0  0  0  0  0  0  0  0  0  0  0
   -7.2010   23.2900  -31.9690 C   0  0  0  0  0  0  0  0  0  0  0  0
   -4.8630   23.0150  -29.8870 C   0  0  0  0  0  0  0  0  0  0  0  0
   -5.7210   24.3410  -29.3780 S   0  0  0  0  0  0  0  0  0  0  0  0
   -1.8460   24.6220  -29.1270 C   0  0  0  0  0  0  0  0  0  0  0  0
   -1.2280   25.5470  -28.2800 C   0  0  0  0  0  0  0  0  0  0  0  0
   -0.6375   25.8542  -22.9058 H   0  0  0  0  0  0  0  0  0  0  0  0
   -0.9787   24.7147  -24.2519 H   0  0  0  0  0  0  0  0  0  0  0  0
    0.5386   25.6762  -24.2519 H   0  0  0  0  0  0  0  0  0  0  0  0
   -2.3137   26.7476  -24.5489 H   0  0  0  0  0  0  0  0  0  0  0  0
   -0.8400   27.7679  -24.4218 H   0  0  0  0  0  0  0  0  0  0  0  0
   -3.0607   25.0056  -25.4430 H   0  0  0  0  0  0  0  0  0  0  0  0
   -4.1635   23.3546  -26.9539 H   0  0  0  0  0  0  0  0  0  0  0  0
   -2.7898   20.0462  -31.2281 H   0  0  0  0  0  0  0  0  0  0  0  0
   -5.7175   18.5907  -30.4178 H   0  0  0  0  0  0  0  0  0  0  0  0
   -6.7505   16.8579  -31.8895 H   0  0  0  0  0  0  0  0  0  0  0  0
   -6.9303   17.2507  -34.3489 H   0  0  0  0  0  0  0  0  0  0  0  0
   -6.0704   19.3730  -35.3414 H   0  0  0  0  0  0  0  0  0  0  0  0
   -5.0413   21.1129  -33.8774 H   0  0  0  0  0  0  0  0  0  0  0  0
   -7.5271   20.4851  -30.0329 H   0  0  0  0  0  0  0  0  0  0  0  0
   -9.8944   20.7313  -30.7861 H   0  0  0  0  0  0  0  0  0  0  0  0
  -10.5377   22.6165  -32.2931 H   0  0  0  0  0  0  0  0  0  0  0  0
   -8.8110   24.2553  -33.0525 H   0  0  0  0  0  0  0  0  0  0  0  0
   -6.4429   24.0133  -32.3039 H   0  0  0  0  0  0  0  0  0  0  0  0
   -1.5042   24.5170  -30.1673 H   0  0  0  0  0  0  0  0  0  0  0  0
   -0.4003   26.1649  -28.6582 H   0  0  0  0  0  0  0  0  0  0  0  0
  1  2  1  0
  2  3  1  0
  3  4  1  0
  4  5  2  0
  5  6  1  0
  6  7  2  0
  7  8  1  0
  8  9  1  0
  9 10  2  0
  9 11  1  0
 11 12  2  0
 12 13  1  0
 13 14  2  0
 14 15  1  0
 15 16  2  0
 16 17  1  0
 17 18  2  0
 12 19  1  0
 19 20  1  0
 20 21  2  0
 21 22  1  0
 22 23  2  0
 23 24  1  0
 24 25  2  0
 19 26  1  0
 26 27  2  0
  7 28  1  0
 28 29  2  0
 29  4  1  0
 26  8  1  0
 18 13  1  0
 25 20  1  0
  1 30  1  0
  1 31  1  0
  1 32  1  0
  2 33  1  0
  2 34  1  0
  5 35  1  0
  6 36  1  0
 11 37  1  0
 14 38  1  0
 15 39  1  0
 16 40  1  0
 17 41  1  0
 18 42  1  0
 21 43  1  0
 22 44  1  0
 23 45  1  0
 24 46  1  0
 25 47  1  0
 28 48  1  0
 29 49  1  0
M  END
>  <UniqueID>  (21) 
21

>  <SMILES>  (21) 
CCOc1ccc(-n2c(=O)cc(-c3ccccc3)n(-c3ccccc3)c2=S)cc1

>  <Energy>  (21) 
81.11483058212319

>  <Genealogy>  (21) 
CCOc1ccc(-n2c(=O)cc(-c3ccccc3)n(-c3ccccc3)c2=S)cc1 (3D coordinates assigned)
CCOc1ccc(-n2c(=O)cc(-c3ccccc3)n(-c3ccccc3)c2=S)cc1 (optimized conformer: 81.11483058212319 kcal/mol)

>  <smiles>  (21) 
CCOc1ccc(-n2c(=O)cc(-c3ccccc3)n(-c3ccccc3)c2=S)cc1

>  <score_type>  (21) 
oracle

>  <origin>  (21) 
adg

>  <m_score__min__energy>  (21) 
-8.5700000000000003

>  <m_primary>  (21) 
energy

$$$$
21:0
     RDKit          3D

 47 51  0  0  0  0  0  0  0  0999 V2000
   -9.4730   19.0530  -32.3410 C   0  0  0  0  0  0  0  0  0  0  0  0
   -8.0070   19.3500  -32.4380 C   0  0  0  0  0  0  0  0  0  0  0  0
   -7.5050   20.5600  -32.0310 N   0  0  0  0  0  0  0  0  0  0  0  0
   -6.1570   20.8500  -32.0770 C   0  0  0  0  0  0  0  0  0  0  0  0
   -5.6650   22.1830  -31.6470 C   0  0  0  0  0  0  0  0  0  0  0  0
   -4.3290   22.3490  -31.2400 C   0  0  0  0  0  0  0  0  0  0  0  0
   -3.8640   23.6050  -30.8350 C   0  0  0  0  0  0  0  0  0  0  0  0
   -4.7240   24.7050  -30.8340 C   0  0  0  0  0  0  0  0  0  0  0  0
   -4.2700   25.9210  -30.4420 F   0  0  0  0  0  0  0  0  0  0  0  0
   -6.0530   24.5520  -31.2380 C   0  0  0  0  0  0  0  0  0  0  0  0
   -6.5230   23.2980  -31.6420 C   0  0  0  0  0  0  0  0  0  0  0  0
   -5.2450   19.8730  -32.5380 C   0  0  0  0  0  0  0  0  0  0  0  0
   -5.7660   18.6460  -32.9220 C   0  0  0  0  0  0  0  0  0  0  0  0
   -5.1700   17.5020  -33.3960 C   0  0  0  0  0  0  0  0  0  0  0  0
   -6.2040   16.6240  -33.6340 C   0  0  0  0  0  0  0  0  0  0  0  0
   -7.3630   17.1640  -33.3060 O   0  0  0  0  0  0  0  0  0  0  0  0
   -7.1070   18.3830  -32.8790 C   0  0  0  0  0  0  0  0  0  0  0  0
   -5.9890   15.2460  -34.1660 C   0  0  0  0  0  0  0  0  0  0  0  0
   -4.5500   15.1030  -34.7230 C   0  0  0  0  0  0  0  0  0  0  0  0
   -3.5130   15.7550  -33.8740 N   0  0  0  0  0  0  0  0  0  0  0  0
   -3.3520   15.1170  -32.5460 C   0  0  0  0  0  0  0  0  0  0  0  0
   -3.8680   13.6680  -32.5650 C   0  0  0  0  0  0  0  0  0  0  0  0
   -4.5950   13.2070  -31.3100 C   0  0  0  0  0  0  0  0  0  0  0  0
   -3.1800   12.7250  -31.5900 C   0  0  0  0  0  0  0  0  0  0  0  0
   -3.7460   17.2170  -33.7570 C   0  0  0  0  0  0  0  0  0  0  0  0
   -9.7658   18.9937  -31.2824 H   0  0  0  0  0  0  0  0  0  0  0  0
  -10.0428   19.8539  -32.8347 H   0  0  0  0  0  0  0  0  0  0  0  0
   -9.6862   18.0934  -32.8347 H   0  0  0  0  0  0  0  0  0  0  0  0
   -8.1690   21.2740  -31.6590 H   0  0  0  0  0  0  0  0  0  0  0  0
   -3.6460   21.4868  -31.2401 H   0  0  0  0  0  0  0  0  0  0  0  0
   -2.8181   23.7262  -30.5165 H   0  0  0  0  0  0  0  0  0  0  0  0
   -6.7303   25.4187  -31.2383 H   0  0  0  0  0  0  0  0  0  0  0  0
   -7.5704   23.1829  -31.9579 H   0  0  0  0  0  0  0  0  0  0  0  0
   -4.1655   20.0776  -32.5901 H   0  0  0  0  0  0  0  0  0  0  0  0
   -6.1387   14.5169  -33.3561 H   0  0  0  0  0  0  0  0  0  0  0  0
   -6.7072   15.0599  -34.9781 H   0  0  0  0  0  0  0  0  0  0  0  0
   -4.3123   14.0318  -34.8009 H   0  0  0  0  0  0  0  0  0  0  0  0
   -4.5310   15.6084  -35.6998 H   0  0  0  0  0  0  0  0  0  0  0  0
   -2.2861   15.1158  -32.2742 H   0  0  0  0  0  0  0  0  0  0  0  0
   -3.9366   15.6878  -31.8095 H   0  0  0  0  0  0  0  0  0  0  0  0
   -4.0938   13.6541  -33.6415 H   0  0  0  0  0  0  0  0  0  0  0  0
   -4.7823   13.9168  -30.4908 H   0  0  0  0  0  0  0  0  0  0  0  0
   -5.5577   12.7161  -31.1047 H   0  0  0  0  0  0  0  0  0  0  0  0
   -2.3439   13.0860  -30.9730 H   0  0  0  0  0  0  0  0  0  0  0  0
   -2.6955   11.7407  -31.6709 H   0  0  0  0  0  0  0  0  0  0  0  0
   -3.0875   17.6256  -32.9763 H   0  0  0  0  0  0  0  0  0  0  0  0
   -3.5278   17.6871  -34.7273 H   0  0  0  0  0  0  0  0  0  0  0  0
  1  2  1  0
  2  3  2  0
  3  4  1  0
  4  5  1  0
  5  6  2  0
  6  7  1  0
  7  8  2  0
  8  9  1  0
  8 10  1  0
 10 11  2  0
  4 12  2  0
 12 13  1  0
 13 14  1  0
 14 15  2  0
 15 16  1  0
 16 17  1  0
 15 18  1  0
 18 19  1  0
 19 20  1  0
 20 21  1  0
 21 22  1  0
 22 23  1  0
 23 24  1  0
 20 25  1  0
 17  2  1  0
 24 22  1  0
 11  5  1  0
 17 13  2  0
 25 14  1  0
  1 26  1  0
  1 27  1  0
  1 28  1  0
  3 29  1  0
  6 30  1  0
  7 31  1  0
 10 32  1  0
 11 33  1  0
 12 34  1  0
 18 35  1  0
 18 36  1  0
 19 37  1  0
 19 38  1  0
 21 39  1  0
 21 40  1  0
 22 41  1  0
 23 42  1  0
 23 43  1  0
 24 44  1  0
 24 45  1  0
 25 46  1  0
 25 47  1  0
M  CHG  1   3   1
M  END
>  <UniqueID>  (22) 
22

>  <SMILES>  (22) 
Cc1[nH+]c(-c2ccc(F)cc2)cc2c3c(oc12)CCN(CC1CC1)C3

>  <Energy>  (22) 
361.6229078771527

>  <Genealogy>  (22) 
Cc1[nH+]c(-c2ccc(F)cc2)cc2c3c(oc12)CCN(CC1CC1)C3 (protonated)
Cc1[nH+]c(-c2ccc(F)cc2)cc2c3c(oc12)CCN(CC1CC1)C3 (3D coordinates assigned)
Cc1[nH+]c(-c2ccc(F)cc2)cc2c3c(oc12)CCN(CC1CC1)C3 (nonaromatic ring conformer: 361.6229078771527 kcal/mol)

>  <smiles>  (22) 
Cc1nc(-c2ccc(F)cc2)cc2c3c(oc12)CCN(CC1CC1)C3

>  <score_type>  (22) 
oracle

>  <origin>  (22) 
adg

>  <m_score__min__energy>  (22) 
-7.3600000000000003

>  <m_primary>  (22) 
energy

$$$$
22:0
     RDKit          3D

 56 59  0  0  0  0  0  0  0  0999 V2000
   -5.9010   16.8680  -33.0970 C   0  0  0  0  0  0  0  0  0  0  0  0
   -6.8360   18.0040  -32.8070 C   0  0  0  0  0  0  0  0  0  0  0  0
   -7.9450   17.8040  -31.9710 C   0  0  0  0  0  0  0  0  0  0  0  0
   -8.8410   18.8490  -31.7260 C   0  0  0  0  0  0  0  0  0  0  0  0
   -8.6430   20.1050  -32.3210 C   0  0  0  0  0  0  0  0  0  0  0  0
   -9.6200   21.2280  -32.0850 C   0  0  0  0  0  0  0  0  0  0  0  0
   -9.0030   22.2850  -31.2610 N   0  0  0  0  0  0  0  0  0  0  0  0
   -7.9320   21.7470  -30.3750 C   0  0  0  0  0  0  0  0  0  0  0  0
   -6.8490   22.7920  -30.4450 C   0  0  1  0  0  0  0  0  0  0  0  0
   -5.3700   22.5920  -30.2190 C   0  0  0  0  0  0  0  0  0  0  0  0
   -4.7180   23.6230  -31.0780 N   0  0  0  0  0  0  0  0  0  0  0  0
   -4.0500   24.6860  -30.2980 C   0  0  0  0  0  0  0  0  0  0  0  0
   -2.9160   24.1070  -29.4440 C   0  0  0  0  0  0  0  0  0  0  0  0
   -2.6400   24.9550  -28.2850 N   0  0  0  0  0  0  0  0  0  0  0  0
   -1.3050   25.2370  -27.8270 C   0  0  0  0  0  0  0  0  0  0  0  0
   -0.3200   24.9290  -28.5520 O   0  0  0  0  0  0  0  0  0  0  0  0
   -1.0620   25.8930  -26.5180 C   0  0  0  0  0  0  0  0  0  0  0  0
   -0.8470   27.2820  -26.4220 C   0  0  0  0  0  0  0  0  0  0  0  0
   -0.6340   27.8810  -25.1770 C   0  0  0  0  0  0  0  0  0  0  0  0
   -0.6390   27.1080  -24.0150 C   0  0  0  0  0  0  0  0  0  0  0  0
   -0.8590   25.7320  -24.0950 C   0  0  0  0  0  0  0  0  0  0  0  0
   -1.0740   25.1260  -25.3360 C   0  0  0  0  0  0  0  0  0  0  0  0
   -5.7940   24.1760  -31.9470 C   0  0  0  0  0  0  0  0  0  0  0  0
   -6.8780   23.1320  -31.8800 C   0  0  2  0  0  0  0  0  0  0  0  0
   -8.3580   23.3310  -32.1040 C   0  0  0  0  0  0  0  0  0  0  0  0
   -7.5460   20.2980  -33.1750 C   0  0  0  0  0  0  0  0  0  0  0  0
   -6.6500   19.2530  -33.4200 C   0  0  0  0  0  0  0  0  0  0  0  0
   -5.5449   16.4354  -32.1504 H   0  0  0  0  0  0  0  0  0  0  0  0
   -6.4296   16.0969  -33.6767 H   0  0  0  0  0  0  0  0  0  0  0  0
   -5.0426   17.2384  -33.6767 H   0  0  0  0  0  0  0  0  0  0  0  0
   -8.1102   16.8208  -31.5063 H   0  0  0  0  0  0  0  0  0  0  0  0
   -9.7046   18.6863  -31.0643 H   0  0  0  0  0  0  0  0  0  0  0  0
   -9.9226   21.6539  -33.0530 H   0  0  0  0  0  0  0  0  0  0  0  0
  -10.4978   20.8303  -31.5546 H   0  0  0  0  0  0  0  0  0  0  0  0
   -8.2980   21.6304  -29.3442 H   0  0  0  0  0  0  0  0  0  0  0  0
   -7.5830   20.7512  -30.6859 H   0  0  0  0  0  0  0  0  0  0  0  0
   -7.1123   23.4419  -29.5975 H   0  0  0  0  0  0  0  0  0  0  0  0
   -5.1137   22.7489  -29.1609 H   0  0  0  0  0  0  0  0  0  0  0  0
   -5.0429   21.5719  -30.4687 H   0  0  0  0  0  0  0  0  0  0  0  0
   -3.6343   25.4333  -30.9899 H   0  0  0  0  0  0  0  0  0  0  0  0
   -4.7907   25.1506  -29.6306 H   0  0  0  0  0  0  0  0  0  0  0  0
   -3.2059   23.1051  -29.0945 H   0  0  0  0  0  0  0  0  0  0  0  0
   -2.0071   24.0549  -30.0614 H   0  0  0  0  0  0  0  0  0  0  0  0
   -3.4610   25.3410  -27.7690 H   0  0  0  0  0  0  0  0  0  0  0  0
   -0.8467   27.8992  -27.3326 H   0  0  0  0  0  0  0  0  0  0  0  0
   -0.4618   28.9656  -25.1130 H   0  0  0  0  0  0  0  0  0  0  0  0
   -0.4698   27.5826  -23.0372 H   0  0  0  0  0  0  0  0  0  0  0  0
   -0.8632   25.1229  -23.1790 H   0  0  0  0  0  0  0  0  0  0  0  0
   -1.2539   24.0422  -25.3904 H   0  0  0  0  0  0  0  0  0  0  0  0
   -6.1539   25.1407  -31.5600 H   0  0  0  0  0  0  0  0  0  0  0  0
   -5.4538   24.3724  -32.9745 H   0  0  0  0  0  0  0  0  0  0  0  0
   -6.6156   22.4846  -32.7297 H   0  0  0  0  0  0  0  0  0  0  0  0
   -8.6688   24.3362  -31.7831 H   0  0  0  0  0  0  0  0  0  0  0  0
   -8.6372   23.2465  -33.1646 H   0  0  0  0  0  0  0  0  0  0  0  0
   -7.3904   21.2760  -33.6538 H   0  0  0  0  0  0  0  0  0  0  0  0
   -5.7962   19.4102  -34.0956 H   0  0  0  0  0  0  0  0  0  0  0  0
  1  2  1  0
  2  3  2  0
  3  4  1  0
  4  5  2  0
  5  6  1  0
  6  7  1  0
  7  8  1  0
  8  9  1  0
  9 10  1  0
 10 11  1  0
 11 12  1  0
 12 13  1  0
 13 14  1  0
 14 15  1  0
 15 16  2  0
 15 17  1  0
 17 18  2  0
 18 19  1  0
 19 20  2  0
 20 21  1  0
 21 22  2  0
 11 23  1  0
 23 24  1  0
 24 25  1  0
  5 26  1  0
 26 27  2  0
 27  2  1  0
 25  7  1  0
 24  9  1  0
 22 17  1  0
  1 28  1  0
  1 29  1  0
  1 30  1  0
  3 31  1  0
  4 32  1  0
  6 33  1  0
  6 34  1  0
  8 35  1  0
  8 36  1  0
  9 37  1  1
 10 38  1  0
 10 39  1  0
 12 40  1  0
 12 41  1  0
 13 42  1  0
 13 43  1  0
 14 44  1  0
 18 45  1  0
 19 46  1  0
 20 47  1  0
 21 48  1  0
 22 49  1  0
 23 50  1  0
 23 51  1  0
 24 52  1  6
 25 53  1  0
 25 54  1  0
 26 55  1  0
 27 56  1  0
M  END
>  <UniqueID>  (23) 
23

>  <SMILES>  (23) 
Cc1ccc(CN2C[C@H]3CN(CCNC(=O)c4ccccc4)C[C@@H]3C2)cc1

>  <Energy>  (23) 
92.88402014133361

>  <Genealogy>  (23) 
Cc1ccc(CN2C[C@H]3CN(CCNC(=O)c4ccccc4)C[C@@H]3C2)cc1 (chirality)
Cc1ccc(CN2C[C@H]3CN(CCNC(=O)c4ccccc4)C[C@@H]3C2)cc1 (3D coordinates assigned)
Cc1ccc(CN2C[C@H]3CN(CCNC(=O)c4ccccc4)C[C@@H]3C2)cc1 (nonaromatic ring conformer: 92.88402014133361 kcal/mol)

>  <smiles>  (23) 
Cc1ccc(CN2CC3CN(CCNC(=O)c4ccccc4)CC3C2)cc1

>  <score_type>  (23) 
oracle

>  <origin>  (23) 
adg

>  <m_score__min__energy>  (23) 
-10.41

>  <m_primary>  (23) 
energy

$$$$
23:0
     RDKit          3D

 38 40  0  0  0  0  0  0  0  0999 V2000
   -3.8130   25.2790  -30.4940 O   0  0  0  0  0  0  0  0  0  0  0  0
   -4.8420   24.9270  -29.8570 C   0  0  0  0  0  0  0  0  0  0  0  0
   -6.1940   25.2270  -30.4240 C   0  0  0  0  0  0  0  0  0  0  0  0
   -7.1460   24.2000  -29.9740 N   0  0  0  0  0  0  0  0  0  0  0  0
   -6.9940   22.8840  -30.6270 C   0  0  2  0  0  0  0  0  0  0  0  0
   -6.2030   22.9360  -31.9600 C   0  0  0  0  0  0  0  0  0  0  0  0
   -5.9230   21.5200  -32.4910 C   0  0  0  0  0  0  0  0  0  0  0  0
   -7.1610   20.6770  -32.4190 C   0  0  0  0  0  0  0  0  0  0  0  0
   -7.3230   19.5100  -33.0790 N   0  0  0  0  0  0  0  0  0  0  0  0
   -8.5360   19.0750  -32.6700 C   0  0  0  0  0  0  0  0  0  0  0  0
   -9.0760   19.9690  -31.7690 C   0  0  0  0  0  0  0  0  0  0  0  0
   -8.1910   20.9620  -31.6010 N   0  0  0  0  0  0  0  0  0  0  0  0
   -8.3580   22.1860  -30.8170 C   0  0  0  0  0  0  0  0  0  0  0  0
   -4.7310   24.1610  -28.6470 N   0  0  0  0  0  0  0  0  0  0  0  0
   -3.4980   23.9530  -27.9370 C   0  0  0  0  0  0  0  0  0  0  0  0
   -2.6900   22.8260  -28.1800 C   0  0  0  0  0  0  0  0  0  0  0  0
   -1.4840   22.6610  -27.4910 C   0  0  0  0  0  0  0  0  0  0  0  0
   -1.0680   23.6220  -26.5660 C   0  0  0  0  0  0  0  0  0  0  0  0
   -1.8550   24.7550  -26.3320 C   0  0  0  0  0  0  0  0  0  0  0  0
   -1.2810   26.0720  -25.0730 Br  0  0  0  0  0  0  0  0  0  0  0  0
   -3.0600   24.9240  -27.0210 C   0  0  0  0  0  0  0  0  0  0  0  0
   -6.5277   26.2157  -30.0761 H   0  0  0  0  0  0  0  0  0  0  0  0
   -6.1423   25.2268  -31.5228 H   0  0  0  0  0  0  0  0  0  0  0  0
   -7.0160   24.0700  -28.9430 H   0  0  0  0  0  0  0  0  0  0  0  0
   -6.3858   22.2807  -29.9370 H   0  0  0  0  0  0  0  0  0  0  0  0
   -6.7916   23.4900  -32.7061 H   0  0  0  0  0  0  0  0  0  0  0  0
   -5.2414   23.4380  -31.7773 H   0  0  0  0  0  0  0  0  0  0  0  0
   -5.5900   21.5852  -33.5373 H   0  0  0  0  0  0  0  0  0  0  0  0
   -5.1408   21.0564  -31.8719 H   0  0  0  0  0  0  0  0  0  0  0  0
   -9.0203   18.1462  -33.0058 H   0  0  0  0  0  0  0  0  0  0  0  0
  -10.0561   19.8828  -31.2770 H   0  0  0  0  0  0  0  0  0  0  0  0
   -9.0440   22.8652  -31.3443 H   0  0  0  0  0  0  0  0  0  0  0  0
   -8.7714   21.9285  -29.8307 H   0  0  0  0  0  0  0  0  0  0  0  0
   -5.5810   23.6510  -28.3160 H   0  0  0  0  0  0  0  0  0  0  0  0
   -3.0085   22.0720  -28.9149 H   0  0  0  0  0  0  0  0  0  0  0  0
   -0.8620   21.7732  -27.6777 H   0  0  0  0  0  0  0  0  0  0  0  0
   -0.1216   23.4878  -26.0216 H   0  0  0  0  0  0  0  0  0  0  0  0
   -3.6689   25.8230  -26.8447 H   0  0  0  0  0  0  0  0  0  0  0  0
  1  2  2  0
  2  3  1  0
  3  4  1  0
  4  5  1  0
  5  6  1  0
  6  7  1  0
  7  8  1  0
  8  9  2  0
  9 10  1  0
 10 11  2  0
 11 12  1  0
 12 13  1  0
  2 14  1  0
 14 15  1  0
 15 16  2  0
 16 17  1  0
 17 18  2  0
 18 19  1  0
 19 20  1  0
 19 21  2  0
 13  5  1  0
 21 15  1  0
 12  8  1  0
  3 22  1  0
  3 23  1  0
  4 24  1  0
  5 25  1  1
  6 26  1  0
  6 27  1  0
  7 28  1  0
  7 29  1  0
 10 30  1  0
 11 31  1  0
 13 32  1  0
 13 33  1  0
 14 34  1  0
 16 35  1  0
 17 36  1  0
 18 37  1  0
 21 38  1  0
M  END
>  <UniqueID>  (24) 
24

>  <SMILES>  (24) 
O=C(CN[C@@H]1CCc2nccn2C1)Nc1cccc(Br)c1

>  <Energy>  (24) 
72.68874877617752

>  <Genealogy>  (24) 
O=C(CN[C@@H]1CCc2nccn2C1)Nc1cccc(Br)c1 (chirality)
O=C(CN[C@@H]1CCc2nccn2C1)Nc1cccc(Br)c1 (3D coordinates assigned)
O=C(CN[C@@H]1CCc2nccn2C1)Nc1cccc(Br)c1 (nonaromatic ring conformer: 72.68874877617752 kcal/mol)

>  <smiles>  (24) 
O=C(CNC1CCc2nccn2C1)Nc1cccc(Br)c1

>  <score_type>  (24) 
oracle

>  <origin>  (24) 
adg

>  <m_score__min__energy>  (24) 
-8.6999999999999993

>  <m_primary>  (24) 
energy

$$$$
24:0
     RDKit          3D

 49 52  0  0  1  0  0  0  0  0999 V2000
   -4.2060   25.6610  -30.8430 O   0  0  0  0  0  0  0  0  0  0  0  0
   -4.9590   24.4440  -30.4040 S   0  0  0  0  0  0  0  0  0  0  0  0
   -5.3530   24.5040  -28.9660 O   0  0  0  0  0  0  0  0  0  0  0  0
   -6.4190   24.1860  -31.3880 C   0  0  0  0  0  0  0  0  0  0  0  0
   -6.3670   22.6750  -31.5020 C   0  0  0  0  0  0  0  0  0  0  0  0
   -4.9420   22.4730  -32.0030 C   0  0  2  0  0  0  0  0  0  0  0  0
   -4.6560   21.1680  -32.4080 N   0  0  0  0  0  0  0  0  0  0  0  0
   -5.4200   20.6550  -33.4640 C   0  0  0  0  0  0  0  0  0  0  0  0
   -5.5470   19.1840  -33.5400 C   0  0  0  0  0  0  0  0  0  0  0  0
   -4.6990   18.4940  -34.4050 C   0  0  0  0  0  0  0  0  0  0  0  0
   -4.7870   17.1070  -34.5080 C   0  0  0  0  0  0  0  0  0  0  0  0
   -5.6990   16.3700  -33.7730 C   0  0  0  0  0  0  0  0  0  0  0  0
   -5.7470   14.8930  -33.9250 C   0  0  0  0  0  0  0  0  0  0  0  0
   -7.0260   14.5170  -34.2790 F   0  0  0  0  0  0  0  0  0  0  0  0
   -4.8210   14.5580  -34.9150 F   0  0  0  0  0  0  0  0  0  0  0  0
   -5.3500   14.3520  -32.7080 F   0  0  0  0  0  0  0  0  0  0  0  0
   -6.5250   17.0630  -32.9280 C   0  0  0  0  0  0  0  0  0  0  0  0
   -6.4380   18.4320  -32.8280 C   0  0  0  0  0  0  0  0  0  0  0  0
   -3.6190   20.4300  -31.8360 C   0  0  0  0  0  0  0  0  0  0  0  0
   -2.3010   20.5350  -32.5440 C   0  0  0  0  0  0  0  0  0  0  0  0
   -1.1080   20.0380  -32.1750 N   0  0  0  0  0  0  0  0  0  0  0  0
   -0.1740   20.3460  -33.0740 C   0  0  0  0  0  0  0  0  0  0  0  0
    1.1880   20.1060  -33.2100 C   0  0  0  0  0  0  0  0  0  0  0  0
    1.8680   20.5920  -34.3120 C   0  0  0  0  0  0  0  0  0  0  0  0
    1.2310   21.3250  -35.3060 C   0  0  0  0  0  0  0  0  0  0  0  0
   -0.1280   21.5670  -35.1740 C   0  0  0  0  0  0  0  0  0  0  0  0
   -0.8280   21.0810  -34.0650 C   0  0  0  0  0  0  0  0  0  0  0  0
   -2.1410   21.1850  -33.7180 N   0  0  0  0  0  0  0  0  0  0  0  0
   -4.0940   22.9460  -30.8220 C   0  0  0  0  0  0  0  0  0  0  0  0
   -7.3286   24.5294  -30.8736 H   0  0  0  0  0  0  0  0  0  0  0  0
   -6.4471   24.7309  -32.3431 H   0  0  0  0  0  0  0  0  0  0  0  0
   -6.5256   22.1902  -30.5274 H   0  0  0  0  0  0  0  0  0  0  0  0
   -7.1425   22.2411  -32.1503 H   0  0  0  0  0  0  0  0  0  0  0  0
   -4.7419   23.0347  -32.9274 H   0  0  0  0  0  0  0  0  0  0  0  0
   -6.4337   21.0727  -33.3752 H   0  0  0  0  0  0  0  0  0  0  0  0
   -4.8809   20.9456  -34.3778 H   0  0  0  0  0  0  0  0  0  0  0  0
   -3.9604   19.0444  -35.0063 H   0  0  0  0  0  0  0  0  0  0  0  0
   -4.1092   16.5807  -35.1962 H   0  0  0  0  0  0  0  0  0  0  0  0
   -7.2655   16.5190  -32.3232 H   0  0  0  0  0  0  0  0  0  0  0  0
   -7.1218   18.9486  -32.1384 H   0  0  0  0  0  0  0  0  0  0  0  0
   -3.4802   20.7807  -30.8027 H   0  0  0  0  0  0  0  0  0  0  0  0
   -3.9203   19.3741  -31.9021 H   0  0  0  0  0  0  0  0  0  0  0  0
    1.7248   19.5300  -32.4419 H   0  0  0  0  0  0  0  0  0  0  0  0
    2.9458   20.3922  -34.4044 H   0  0  0  0  0  0  0  0  0  0  0  0
    1.7900   21.7033  -36.1746 H   0  0  0  0  0  0  0  0  0  0  0  0
   -0.6583   22.1443  -35.9457 H   0  0  0  0  0  0  0  0  0  0  0  0
   -2.8460   21.6760  -34.2730 H   0  0  0  0  0  0  0  0  0  0  0  0
   -4.1069   22.2221  -29.9939 H   0  0  0  0  0  0  0  0  0  0  0  0
   -3.0236   23.0738  -31.0410 H   0  0  0  0  0  0  0  0  0  0  0  0
  1  2  2  0
  2  3  2  0
  2  4  1  0
  4  5  1  0
  5  6  1  0
  6  7  1  0
  7  8  1  0
  8  9  1  0
  9 10  2  0
 10 11  1  0
 11 12  2  0
 12 13  1  0
 13 14  1  0
 13 15  1  0
 13 16  1  0
 12 17  1  0
 17 18  2  0
  7 19  1  0
 19 20  1  0
 20 21  2  0
 21 22  1  0
 22 23  2  0
 23 24  1  0
 24 25  2  0
 25 26  1  0
 26 27  2  0
 27 28  1  0
  6 29  1  0
 29  2  1  0
 18  9  1  0
 28 20  1  0
 27 22  1  0
  4 30  1  0
  4 31  1  0
  5 32  1  0
  5 33  1  0
  6 34  1  6
  8 35  1  0
  8 36  1  0
 10 37  1  0
 11 38  1  0
 17 39  1  0
 18 40  1  0
 19 41  1  0
 19 42  1  0
 23 43  1  0
 24 44  1  0
 25 45  1  0
 26 46  1  0
 28 47  1  0
 29 48  1  0
 29 49  1  0
M  END
>  <smiles>  (25) 
O=S1(=O)CCC(N(Cc2ccc(C(F)(F)F)cc2)Cc2nc3ccccc3[nH]2)C1

>  <score_type>  (25) 
oracle

>  <origin>  (25) 
adg

>  <m_score__min__energy>  (25) 
-9

>  <m_primary>  (25) 
energy

$$$$
25:0
     RDKit          3D

 33 34  0  0  0  0  0  0  0  0999 V2000
   -3.7630   21.9580  -33.4240 N   0  0  0  0  0  0  0  0  0  0  0  0
   -4.3230   20.9900  -32.4730 C   0  0  0  0  0  0  0  0  0  0  0  0
   -5.6640   21.4410  -31.8440 C   0  0  1  0  0  0  0  0  0  0  0  0
   -5.8980   23.2430  -32.1260 S   0  0  0  0  0  0  0  0  0  0  0  0
   -7.5050   23.4020  -31.2690 C   0  0  0  0  0  0  0  0  0  0  0  0
   -8.6770   22.9560  -32.1470 C   0  0  0  0  0  0  0  0  0  0  0  0
   -9.4220   21.7320  -31.6010 C   0  0  0  0  0  0  0  0  0  0  0  0
   -8.2640   20.3770  -31.1780 S   0  0  0  0  0  0  0  0  0  0  0  0
   -6.8850   20.6430  -32.3740 C   0  0  2  0  0  0  0  0  0  0  0  0
   -6.5030   19.3200  -33.0140 C   0  0  0  0  0  0  0  0  0  0  0  0
   -6.5650   18.1350  -32.2570 C   0  0  0  0  0  0  0  0  0  0  0  0
   -6.2050   16.9090  -32.8250 C   0  0  0  0  0  0  0  0  0  0  0  0
   -5.7720   16.8520  -34.1510 C   0  0  0  0  0  0  0  0  0  0  0  0
   -5.6970   18.0210  -34.9110 C   0  0  0  0  0  0  0  0  0  0  0  0
   -6.0550   19.2490  -34.3480 C   0  0  0  0  0  0  0  0  0  0  0  0
   -3.1970   22.6770  -32.9200 H   0  0  0  0  0  0  0  0  0  0  0  0
   -3.1780   21.4820  -34.1470 H   0  0  0  0  0  0  0  0  0  0  0  0
   -4.5500   22.4490  -33.9060 H   0  0  0  0  0  0  0  0  0  0  0  0
   -4.4894   20.0399  -33.0018 H   0  0  0  0  0  0  0  0  0  0  0  0
   -3.5991   20.8910  -31.6507 H   0  0  0  0  0  0  0  0  0  0  0  0
   -5.6067   21.2322  -30.7655 H   0  0  0  0  0  0  0  0  0  0  0  0
   -7.4855   22.7800  -30.3620 H   0  0  0  0  0  0  0  0  0  0  0  0
   -7.6526   24.4641  -31.0239 H   0  0  0  0  0  0  0  0  0  0  0  0
   -9.3896   23.7902  -32.2259 H   0  0  0  0  0  0  0  0  0  0  0  0
   -8.2582   22.6698  -33.1231 H   0  0  0  0  0  0  0  0  0  0  0  0
   -9.9760   22.0244  -30.6968 H   0  0  0  0  0  0  0  0  0  0  0  0
  -10.1088   21.3694  -32.3800 H   0  0  0  0  0  0  0  0  0  0  0  0
   -7.2790   21.3223  -33.1443 H   0  0  0  0  0  0  0  0  0  0  0  0
   -6.8995   18.1737  -31.2098 H   0  0  0  0  0  0  0  0  0  0  0  0
   -6.2631   15.9881  -32.2262 H   0  0  0  0  0  0  0  0  0  0  0  0
   -5.4901   15.8867  -34.5968 H   0  0  0  0  0  0  0  0  0  0  0  0
   -5.3552   17.9752  -35.9556 H   0  0  0  0  0  0  0  0  0  0  0  0
   -5.9865   20.1667  -34.9506 H   0  0  0  0  0  0  0  0  0  0  0  0
  1  2  1  0
  2  3  1  0
  3  4  1  0
  4  5  1  0
  5  6  1  0
  6  7  1  0
  7  8  1  0
  8  9  1  0
  9 10  1  0
 10 11  2  0
 11 12  1  0
 12 13  2  0
 13 14  1  0
 14 15  2  0
  9  3  1  0
 15 10  1  0
  1 16  1  0
  1 17  1  0
  1 18  1  0
  2 19  1  0
  2 20  1  0
  3 21  1  1
  5 22  1  0
  5 23  1  0
  6 24  1  0
  6 25  1  0
  7 26  1  0
  7 27  1  0
  9 28  1  6
 11 29  1  0
 12 30  1  0
 13 31  1  0
 14 32  1  0
 15 33  1  0
M  CHG  1   1   1
M  END
>  <UniqueID>  (26) 
25

>  <SMILES>  (26) 
[NH3+]C[C@H]1SCCCS[C@@H]1c1ccccc1

>  <Energy>  (26) 
35.56195102820084

>  <Genealogy>  (26) 
[NH3+]CC1SCCCSC1c1ccccc1 (protonated)
[NH3+]C[C@H]1SCCCS[C@@H]1c1ccccc1 (chirality)
[NH3+]C[C@H]1SCCCS[C@@H]1c1ccccc1 (3D coordinates assigned)
[NH3+]C[C@H]1SCCCS[C@@H]1c1ccccc1 (nonaromatic ring conformer: 35.56195102820084 kcal/mol)

>  <smiles>  (26) 
NCC1SCCCSC1c1ccccc1

>  <score_type>  (26) 
oracle

>  <origin>  (26) 
adg

>  <m_score__min__energy>  (26) 
-4.6200000000000001

>  <m_primary>  (26) 
energy

$$$$
26:0
     RDKit          3D

 42 44  0  0  0  0  0  0  0  0999 V2000
   -1.6020   21.2600  -33.4120 C   0  0  0  0  0  0  0  0  0  0  0  0
   -2.8300   21.5410  -32.6130 C   0  0  0  0  0  0  0  0  0  0  0  0
   -4.1330   21.4390  -33.0630 C   0  0  0  0  0  0  0  0  0  0  0  0
   -4.8980   21.9030  -32.0070 C   0  0  0  0  0  0  0  0  0  0  0  0
   -6.3710   22.0120  -32.0010 C   0  0  0  0  0  0  0  0  0  0  0  0
   -6.9490   23.2890  -31.9660 C   0  0  0  0  0  0  0  0  0  0  0  0
   -8.2980   23.4370  -31.9500 N   0  0  0  0  0  0  0  0  0  0  0  0
   -9.1370   22.3710  -31.9670 C   0  0  0  0  0  0  0  0  0  0  0  0
   -8.6220   21.0700  -32.0030 C   0  0  0  0  0  0  0  0  0  0  0  0
   -9.4860   19.9640  -32.0380 C   0  0  0  0  0  0  0  0  0  0  0  0
   -8.9640   18.6700  -32.0980 C   0  0  0  0  0  0  0  0  0  0  0  0
   -7.5840   18.4710  -32.1240 C   0  0  0  0  0  0  0  0  0  0  0  0
   -6.7140   19.5630  -32.0850 C   0  0  0  0  0  0  0  0  0  0  0  0
   -7.2180   20.8790  -32.0170 C   0  0  0  0  0  0  0  0  0  0  0  0
   -4.0770   22.2580  -30.9900 N   0  0  0  0  0  0  0  0  0  0  0  0
   -4.4460   22.9100  -29.7310 C   0  0  0  0  0  0  0  0  0  0  0  0
   -3.5660   24.1400  -29.4820 C   0  0  0  0  0  0  0  0  0  0  0  0
   -2.1670   23.7430  -29.2100 N   0  0  0  0  0  0  0  0  0  0  0  0
   -2.1230   22.5960  -28.2910 C   0  0  0  0  0  0  0  0  0  0  0  0
   -1.3980   24.8630  -28.6390 C   0  0  0  0  0  0  0  0  0  0  0  0
   -2.8260   22.0530  -31.3680 N   0  0  0  0  0  0  0  0  0  0  0  0
   -0.7587   21.0670  -32.7326 H   0  0  0  0  0  0  0  0  0  0  0  0
   -1.7712   20.3774  -34.0463 H   0  0  0  0  0  0  0  0  0  0  0  0
   -1.3706   22.1284  -34.0463 H   0  0  0  0  0  0  0  0  0  0  0  0
   -4.4827   21.0721  -34.0393 H   0  0  0  0  0  0  0  0  0  0  0  0
   -6.3030   24.1792  -31.9514 H   0  0  0  0  0  0  0  0  0  0  0  0
  -10.2254   22.5296  -31.9524 H   0  0  0  0  0  0  0  0  0  0  0  0
  -10.5752   20.1167  -32.0181 H   0  0  0  0  0  0  0  0  0  0  0  0
   -9.6434   17.8053  -32.1248 H   0  0  0  0  0  0  0  0  0  0  0  0
   -7.1789   17.4496  -32.1754 H   0  0  0  0  0  0  0  0  0  0  0  0
   -5.6270   19.3956  -32.1075 H   0  0  0  0  0  0  0  0  0  0  0  0
   -5.4992   23.2233  -29.7813 H   0  0  0  0  0  0  0  0  0  0  0  0
   -4.3000   22.1968  -28.9063 H   0  0  0  0  0  0  0  0  0  0  0  0
   -3.5903   24.7861  -30.3719 H   0  0  0  0  0  0  0  0  0  0  0  0
   -3.9550   24.6783  -28.6051 H   0  0  0  0  0  0  0  0  0  0  0  0
   -2.1369   22.9577  -27.2523 H   0  0  0  0  0  0  0  0  0  0  0  0
   -2.9971   21.9517  -28.4666 H   0  0  0  0  0  0  0  0  0  0  0  0
   -1.2021   22.0206  -28.4666 H   0  0  0  0  0  0  0  0  0  0  0  0
   -1.4341   24.8104  -27.5409 H   0  0  0  0  0  0  0  0  0  0  0  0
   -0.3525   24.7989  -28.9750 H   0  0  0  0  0  0  0  0  0  0  0  0
   -1.8334   25.8157  -28.9750 H   0  0  0  0  0  0  0  0  0  0  0  0
   -1.9820   22.2870  -30.7970 H   0  0  0  0  0  0  0  0  0  0  0  0
  1  2  1  0
  2  3  1  0
  3  4  2  0
  4  5  1  0
  5  6  2  0
  6  7  1  0
  7  8  2  0
  8  9  1  0
  9 10  2  0
 10 11  1  0
 11 12  2  0
 12 13  1  0
 13 14  2  0
  4 15  1  0
 15 16  1  0
 16 17  1  0
 17 18  1  0
 18 19  1  0
 18 20  1  0
 15 21  1  0
 21  2  2  0
 14  5  1  0
 14  9  1  0
  1 22  1  0
  1 23  1  0
  1 24  1  0
  3 25  1  0
  6 26  1  0
  8 27  1  0
 10 28  1  0
 11 29  1  0
 12 30  1  0
 13 31  1  0
 16 32  1  0
 16 33  1  0
 17 34  1  0
 17 35  1  0
 19 36  1  0
 19 37  1  0
 19 38  1  0
 20 39  1  0
 20 40  1  0
 20 41  1  0
 21 42  1  0
M  CHG  1  21   1
M  END
>  <UniqueID>  (27) 
26

>  <SMILES>  (27) 
Cc1cc(-c2cncc3ccccc23)n(CCN(C)C)[nH+]1

>  <Energy>  (27) 
79.5570504108779

>  <Genealogy>  (27) 
Cc1cc(-c2cncc3ccccc23)n(CCN(C)C)[nH+]1 (protonated)
Cc1cc(-c2cncc3ccccc23)n(CCN(C)C)[nH+]1 (3D coordinates assigned)
Cc1cc(-c2cncc3ccccc23)n(CCN(C)C)[nH+]1 (optimized conformer: 79.5570504108779 kcal/mol)

>  <smiles>  (27) 
Cc1cc(-c2cncc3ccccc23)n(CCN(C)C)n1

>  <score_type>  (27) 
oracle

>  <origin>  (27) 
adg

>  <m_score__min__energy>  (27) 
-6.7800000000000002

>  <m_primary>  (27) 
energy

$$$$
27:0
     RDKit          3D

 41 43  0  0  0  0  0  0  0  0999 V2000
   -9.0050   21.4790  -31.7720 C   0  0  0  0  0  0  0  0  0  0  0  0
   -7.8040   22.2970  -31.4020 C   0  0  0  0  0  0  0  0  0  0  0  0
   -7.5860   22.6700  -30.0670 C   0  0  0  0  0  0  0  0  0  0  0  0
   -6.4460   23.4000  -29.7160 C   0  0  0  0  0  0  0  0  0  0  0  0
   -5.5060   23.7480  -30.6940 C   0  0  0  0  0  0  0  0  0  0  0  0
   -4.0400   24.6770  -30.2360 S   0  0  0  0  0  0  0  0  0  0  0  0
   -3.3890   23.3430  -29.2170 C   0  0  0  0  0  0  0  0  0  0  0  0
   -3.4830   22.0350  -29.7110 C   0  0  0  0  0  0  0  0  0  0  0  0
   -2.9760   20.9630  -28.9780 C   0  0  0  0  0  0  0  0  0  0  0  0
   -2.3720   21.1870  -27.7410 C   0  0  0  0  0  0  0  0  0  0  0  0
   -1.6720   19.7180  -26.7410 Br  0  0  0  0  0  0  0  0  0  0  0  0
   -2.2830   22.4850  -27.2310 C   0  0  0  0  0  0  0  0  0  0  0  0
   -2.8000   23.5820  -27.9510 C   0  0  0  0  0  0  0  0  0  0  0  0
   -2.7430   24.9200  -27.4070 N   0  0  0  0  0  0  0  0  0  0  0  0
   -2.8520   25.2420  -25.9810 C   0  0  0  0  0  0  0  0  0  0  0  0
   -1.5530   25.7970  -25.4580 C   0  0  0  0  0  0  0  0  0  0  0  0
   -0.9470   26.9040  -26.0680 C   0  0  0  0  0  0  0  0  0  0  0  0
    0.2520   27.4090  -25.5630 C   0  0  0  0  0  0  0  0  0  0  0  0
    0.8300   26.8090  -24.4430 C   0  0  0  0  0  0  0  0  0  0  0  0
    0.2260   25.7420  -23.8500 N   0  0  0  0  0  0  0  0  0  0  0  0
   -0.9430   25.2330  -24.3260 C   0  0  0  0  0  0  0  0  0  0  0  0
   -5.7150   23.3700  -32.0250 C   0  0  0  0  0  0  0  0  0  0  0  0
   -6.8540   22.6410  -32.3780 C   0  0  0  0  0  0  0  0  0  0  0  0
   -9.5102   21.1349  -30.8575 H   0  0  0  0  0  0  0  0  0  0  0  0
   -9.6985   22.0933  -32.3650 H   0  0  0  0  0  0  0  0  0  0  0  0
   -8.6873   20.6087  -32.3650 H   0  0  0  0  0  0  0  0  0  0  0  0
   -8.3149   22.3870  -29.2933 H   0  0  0  0  0  0  0  0  0  0  0  0
   -6.2874   23.7013  -28.6700 H   0  0  0  0  0  0  0  0  0  0  0  0
   -3.9607   21.8526  -30.6850 H   0  0  0  0  0  0  0  0  0  0  0  0
   -3.0524   19.9401  -29.3754 H   0  0  0  0  0  0  0  0  0  0  0  0
   -1.8035   22.6533  -26.2554 H   0  0  0  0  0  0  0  0  0  0  0  0
   -2.6690   25.7380  -28.0500 H   0  0  0  0  0  0  0  0  0  0  0  0
   -3.6466   25.9894  -25.8396 H   0  0  0  0  0  0  0  0  0  0  0  0
   -3.0903   24.3212  -25.4285 H   0  0  0  0  0  0  0  0  0  0  0  0
   -1.4164   27.3746  -26.9445 H   0  0  0  0  0  0  0  0  0  0  0  0
    0.7370   28.2717  -26.0430 H   0  0  0  0  0  0  0  0  0  0  0  0
    1.7756   27.1989  -24.0383 H   0  0  0  0  0  0  0  0  0  0  0  0
    0.6680   25.3070  -23.0110 H   0  0  0  0  0  0  0  0  0  0  0  0
   -1.4123   24.3756  -23.8214 H   0  0  0  0  0  0  0  0  0  0  0  0
   -4.9807   23.6474  -32.7957 H   0  0  0  0  0  0  0  0  0  0  0  0
   -7.0071   22.3356  -33.4236 H   0  0  0  0  0  0  0  0  0  0  0  0
  1  2  1  0
  2  3  2  0
  3  4  1  0
  4  5  2  0
  5  6  1  0
  6  7  1  0
  7  8  2  0
  8  9  1  0
  9 10  2  0
 10 11  1  0
 10 12  1  0
 12 13  2  0
 13 14  1  0
 14 15  1  0
 15 16  1  0
 16 17  2  0
 17 18  1  0
 18 19  2  0
 19 20  1  0
 20 21  2  0
  5 22  1  0
 22 23  2  0
 23  2  1  0
 13  7  1  0
 21 16  1  0
  1 24  1  0
  1 25  1  0
  1 26  1  0
  3 27  1  0
  4 28  1  0
  8 29  1  0
  9 30  1  0
 12 31  1  0
 14 32  1  0
 15 33  1  0
 15 34  1  0
 17 35  1  0
 18 36  1  0
 19 37  1  0
 20 38  1  0
 21 39  1  0
 22 40  1  0
 23 41  1  0
M  CHG  1  20   1
M  END
>  <UniqueID>  (28) 
27

>  <SMILES>  (28) 
Cc1ccc(Sc2ccc(Br)cc2NCc2ccc[nH+]c2)cc1

>  <Energy>  (28) 
38.58518342120065

>  <Genealogy>  (28) 
Cc1ccc(Sc2ccc(Br)cc2NCc2ccc[nH+]c2)cc1 (protonated)
Cc1ccc(Sc2ccc(Br)cc2NCc2ccc[nH+]c2)cc1 (3D coordinates assigned)
Cc1ccc(Sc2ccc(Br)cc2NCc2ccc[nH+]c2)cc1 (optimized conformer: 38.58518342120065 kcal/mol)

>  <smiles>  (28) 
Cc1ccc(Sc2ccc(Br)cc2NCc2cccnc2)cc1

>  <score_type>  (28) 
oracle

>  <origin>  (28) 
adg

>  <m_score__min__energy>  (28) 
-8.9499999999999993

>  <m_primary>  (28) 
energy

$$$$
28:0
     RDKit          3D

 35 38  0  0  0  0  0  0  0  0999 V2000
   -6.3380   13.9070  -34.2310 C   0  0  0  0  0  0  0  0  0  0  0  0
   -5.5500   15.0570  -34.5200 O   0  0  0  0  0  0  0  0  0  0  0  0
   -5.7640   16.3250  -33.9620 C   0  0  0  0  0  0  0  0  0  0  0  0
   -6.0630   16.5100  -32.5980 C   0  0  0  0  0  0  0  0  0  0  0  0
   -6.2700   17.7950  -32.0890 C   0  0  0  0  0  0  0  0  0  0  0  0
   -6.1920   18.9150  -32.9330 C   0  0  0  0  0  0  0  0  0  0  0  0
   -6.3920   20.2810  -32.3980 C   0  0  0  0  0  0  0  0  0  0  0  0
   -5.3090   21.0780  -32.1370 N   0  0  0  0  0  0  0  0  0  0  0  0
   -5.4550   22.3420  -31.6300 C   0  0  0  0  0  0  0  0  0  0  0  0
   -4.3390   23.1440  -31.3570 C   0  0  0  0  0  0  0  0  0  0  0  0
   -4.5060   24.3960  -30.8540 N   0  0  0  0  0  0  0  0  0  0  0  0
   -5.7390   24.9100  -30.6010 C   0  0  0  0  0  0  0  0  0  0  0  0
   -6.8840   24.1520  -30.8560 C   0  0  0  0  0  0  0  0  0  0  0  0
   -6.7470   22.8540  -31.3740 C   0  0  0  0  0  0  0  0  0  0  0  0
   -7.8130   22.0510  -31.6540 N   0  0  0  0  0  0  0  0  0  0  0  0
   -9.1380   22.2900  -31.5430 C   0  0  0  0  0  0  0  0  0  0  0  0
   -9.8410   21.1840  -31.9850 C   0  0  0  0  0  0  0  0  0  0  0  0
   -8.9100   20.2370  -32.3790 C   0  0  0  0  0  0  0  0  0  0  0  0
   -7.6700   20.8080  -32.1500 C   0  0  0  0  0  0  0  0  0  0  0  0
   -5.8800   18.7300  -34.2890 C   0  0  0  0  0  0  0  0  0  0  0  0
   -5.6730   17.4450  -34.7980 C   0  0  0  0  0  0  0  0  0  0  0  0
   -6.4219   13.7845  -33.1411 H   0  0  0  0  0  0  0  0  0  0  0  0
   -7.3413   14.0317  -34.6643 H   0  0  0  0  0  0  0  0  0  0  0  0
   -5.8595   13.0163  -34.6643 H   0  0  0  0  0  0  0  0  0  0  0  0
   -6.1339   15.6388  -31.9302 H   0  0  0  0  0  0  0  0  0  0  0  0
   -6.4954   17.9301  -31.0209 H   0  0  0  0  0  0  0  0  0  0  0  0
   -4.3480   20.7040  -32.3120 H   0  0  0  0  0  0  0  0  0  0  0  0
   -3.3264   22.7601  -31.5499 H   0  0  0  0  0  0  0  0  0  0  0  0
   -5.8352   25.9273  -30.1937 H   0  0  0  0  0  0  0  0  0  0  0  0
   -7.8822   24.5672  -30.6533 H   0  0  0  0  0  0  0  0  0  0  0  0
   -9.5873   23.2186  -31.1610 H   0  0  0  0  0  0  0  0  0  0  0  0
  -10.9352   21.0764  -32.0176 H   0  0  0  0  0  0  0  0  0  0  0  0
   -9.1141   19.2370  -32.7894 H   0  0  0  0  0  0  0  0  0  0  0  0
   -5.7979   19.6016  -34.9550 H   0  0  0  0  0  0  0  0  0  0  0  0
   -5.4366   17.3121  -35.8641 H   0  0  0  0  0  0  0  0  0  0  0  0
  1  2  1  0
  2  3  1  0
  3  4  2  0
  4  5  1  0
  5  6  2  0
  6  7  1  0
  7  8  2  0
  8  9  1  0
  9 10  2  0
 10 11  1  0
 11 12  2  0
 12 13  1  0
 13 14  2  0
 14 15  1  0
 15 16  1  0
 16 17  2  0
 17 18  1  0
 18 19  2  0
  6 20  1  0
 20 21  2  0
 21  3  1  0
 19  7  1  0
 14  9  1  0
 19 15  1  0
  1 22  1  0
  1 23  1  0
  1 24  1  0
  4 25  1  0
  5 26  1  0
  8 27  1  0
 10 28  1  0
 12 29  1  0
 13 30  1  0
 16 31  1  0
 17 32  1  0
 18 33  1  0
 20 34  1  0
 21 35  1  0
M  CHG  1   8   1
M  END
>  <UniqueID>  (29) 
28

>  <SMILES>  (29) 
COc1ccc(-c2[nH+]c3cnccc3n3cccc23)cc1

>  <Energy>  (29) 
82.09607424900014

>  <Genealogy>  (29) 
COc1ccc(-c2[nH+]c3cnccc3n3cccc23)cc1 (protonated)
COc1ccc(-c2[nH+]c3cnccc3n3cccc23)cc1 (3D coordinates assigned)
COc1ccc(-c2[nH+]c3cnccc3n3cccc23)cc1 (optimized conformer: 82.09607424900014 kcal/mol)

>  <smiles>  (29) 
COc1ccc(-c2nc3cnccc3n3cccc23)cc1

>  <score_type>  (29) 
oracle

>  <origin>  (29) 
adg

>  <m_score__min__energy>  (29) 
-7.4500000000000002

>  <m_primary>  (29) 
energy

$$$$
29:0
     RDKit          3D

 49 52  0  0  0  0  0  0  0  0999 V2000
   -9.2732   17.9431  -31.5054 H   0  0  0  0  0  0  0  0  0  0  0  0
   -8.5970   18.7570  -31.8060 C   0  0  0  0  0  0  0  0  0  0  0  0
   -7.6180   18.5280  -32.7770 C   0  0  0  0  0  0  0  0  0  0  0  0
   -7.5304   17.5340  -33.2399 H   0  0  0  0  0  0  0  0  0  0  0  0
   -6.7480   19.5540  -33.1650 C   0  0  0  0  0  0  0  0  0  0  0  0
   -5.7770   19.2710  -34.1370 O   0  0  0  0  0  0  0  0  0  0  0  0
   -5.4850   17.9660  -34.6250 C   0  0  0  0  0  0  0  0  0  0  0  0
   -5.3322   17.2829  -33.7764 H   0  0  0  0  0  0  0  0  0  0  0  0
   -6.3251   17.6072  -35.2378 H   0  0  0  0  0  0  0  0  0  0  0  0
   -4.5721   17.9994  -35.2378 H   0  0  0  0  0  0  0  0  0  0  0  0
   -6.8740   20.8260  -32.5690 C   0  0  0  0  0  0  0  0  0  0  0  0
   -6.1900   21.6366  -32.8606 H   0  0  0  0  0  0  0  0  0  0  0  0
   -7.8680   21.0640  -31.6050 C   0  0  0  0  0  0  0  0  0  0  0  0
   -7.9730   22.4080  -30.9450 C   0  0  0  0  0  0  0  0  0  0  0  0
   -7.9710   23.1959  -31.7126 H   0  0  0  0  0  0  0  0  0  0  0  0
   -8.9082   22.4642  -30.3685 H   0  0  0  0  0  0  0  0  0  0  0  0
   -6.8330   22.5950  -30.0500 N   0  0  0  0  0  0  0  0  0  0  0  0
   -5.8820   23.4750  -30.1900 C   0  0  0  0  0  0  0  0  0  0  0  0
   -5.9570   24.5370  -31.1100 C   0  0  0  0  0  0  0  0  0  0  0  0
   -6.8445   24.6533  -31.7494 H   0  0  0  0  0  0  0  0  0  0  0  0
   -4.9270   25.4180  -31.2040 N   0  0  0  0  0  0  0  0  0  0  0  0
   -3.8390   25.3020  -30.4410 N   0  0  0  0  0  0  0  0  0  0  0  0
   -3.7090   24.2980  -29.5340 C   0  0  0  0  0  0  0  0  0  0  0  0
   -2.5640   24.1850  -28.7370 O   0  0  0  0  0  0  0  0  0  0  0  0
   -2.5510   24.4270  -27.3320 C   0  0  0  0  0  0  0  0  0  0  0  0
   -2.9154   25.4460  -27.1351 H   0  0  0  0  0  0  0  0  0  0  0  0
   -3.2026   23.6934  -26.8346 H   0  0  0  0  0  0  0  0  0  0  0  0
   -1.1180   24.2830  -26.7820 C   0  0  2  0  0  0  0  0  0  0  0  0
   -1.2163   25.1390  -26.0981 H   0  0  0  0  0  0  0  0  0  0  0  0
   -0.1360   23.7510  -27.8220 C   0  0  0  0  0  0  0  0  0  0  0  0
   -0.4982   23.4545  -28.8174 H   0  0  0  0  0  0  0  0  0  0  0  0
    0.7961   24.1252  -28.2705 H   0  0  0  0  0  0  0  0  0  0  0  0
   -0.4750   22.9000  -26.6060 C   0  0  2  0  0  0  0  0  0  0  0  0
    0.0758   22.4209  -25.7832 H   0  0  0  0  0  0  0  0  0  0  0  0
   -1.2990   21.6800  -26.9050 C   0  0  0  0  0  0  0  0  0  0  0  0
   -1.6570   20.7760  -25.9740 N   0  0  0  0  0  0  0  0  0  0  0  0
   -2.2960   19.8010  -26.5990 N   0  0  0  0  0  0  0  0  0  0  0  0
   -2.7890   18.6010  -25.9400 C   0  0  0  0  0  0  0  0  0  0  0  0
   -2.7347   18.7331  -24.8493 H   0  0  0  0  0  0  0  0  0  0  0  0
   -3.8332   18.4227  -26.2363 H   0  0  0  0  0  0  0  0  0  0  0  0
   -2.1717   17.7401  -26.2363 H   0  0  0  0  0  0  0  0  0  0  0  0
   -2.3190   20.0390  -27.9240 C   0  0  0  0  0  0  0  0  0  0  0  0
   -2.7685   19.3873  -28.6877 H   0  0  0  0  0  0  0  0  0  0  0  0
   -1.6830   21.2390  -28.1600 C   0  0  0  0  0  0  0  0  0  0  0  0
   -1.5177   21.7348  -29.1279 H   0  0  0  0  0  0  0  0  0  0  0  0
   -4.7370   23.3650  -29.3970 C   0  0  0  0  0  0  0  0  0  0  0  0
   -4.6465   22.5464  -28.6679 H   0  0  0  0  0  0  0  0  0  0  0  0
   -8.7180   20.0170  -31.2170 C   0  0  0  0  0  0  0  0  0  0  0  0
   -9.4828   20.1898  -30.4455 H   0  0  0  0  0  0  0  0  0  0  0  0
  1  2  1  0
  2  3  2  0
  3  4  1  0
  3  5  1  0
  5  6  1  0
  6  7  1  0
  7  8  1  0
  7  9  1  0
  7 10  1  0
  5 11  2  0
 11 12  1  0
 11 13  1  0
 13 14  1  0
 14 15  1  0
 14 16  1  0
 14 17  1  0
 17 18  2  0
 18 19  1  0
 19 20  1  0
 19 21  2  0
 21 22  1  0
 22 23  1  0
 23 24  1  0
 24 25  1  0
 25 26  1  0
 25 27  1  0
 25 28  1  0
 28 29  1  1
 28 30  1  0
 30 31  1  0
 30 32  1  0
 30 33  1  0
 33 34  1  1
 33 35  1  0
 35 36  2  0
 36 37  1  0
 37 38  1  0
 38 39  1  0
 38 40  1  0
 38 41  1  0
 37 42  1  0
 42 43  1  0
 42 44  2  0
 44 45  1  0
 23 46  2  0
 46 47  1  0
 13 48  2  0
 48 49  1  0
 48  2  1  0
 46 18  1  0
 33 28  1  0
 44 35  1  0
M  CHG  1  22  -1
M  END
>  <UniqueID>  (30) 
29

>  <SMILES>  (30) 
COc1cccc(C/N=c2\cn[n-]c(OC[C@@H]3C[C@@H]3c3ccn(C)n3)c2)c1

>  <Energy>  (30) 
347.8438993868574

>  <Genealogy>  (30) 
COc1cccc(CN=c2cn[n-]c(OCC3CC3c3ccn(C)n3)c2)c1 (protonated)
COc1cccc(CN=c2cn[n-]c(OC[C@@H]3C[C@@H]3c3ccn(C)n3)c2)c1 (chirality)
COc1cccc(C/N=c2\cn[n-]c(OC[C@@H]3C[C@@H]3c3ccn(C)n3)c2)c1 (cis-trans isomerization)
COc1cccc(C/N=c2\cn[n-]c(OC[C@@H]3C[C@@H]3c3ccn(C)n3)c2)c1 (3D coordinates assigned)
COc1cccc(C/N=c2\cn[n-]c(OC[C@@H]3C[C@@H]3c3ccn(C)n3)c2)c1 (nonaromatic ring conformer: 347.8438993868574 kcal/mol)

>  <smiles>  (30) 
COc1cccc(CN=c2cn[nH]c(OCC3CC3c3ccn(C)n3)c2)c1

>  <score_type>  (30) 
oracle

>  <origin>  (30) 
adg

>  <m_score__min__energy>  (30) 
-10.619999999999999

>  <m_primary>  (30) 
energy

$$$$
30:0
     RDKit          3D

 54 56  0  0  0  0  0  0  0  0999 V2000
   -0.8540   22.6110  -35.5060 H   0  0  0  0  0  0  0  0  0  0  0  0
   -0.0440   22.2410  -34.9600 N   0  0  0  0  0  0  0  0  0  0  0  0
   -0.1450   21.2450  -34.1360 C   0  0  0  0  0  0  0  0  0  0  0  0
   -1.4540   20.5920  -33.8830 C   0  0  0  0  0  0  0  0  0  0  0  0
   -2.5580   21.3550  -33.4700 C   0  0  0  0  0  0  0  0  0  0  0  0
   -2.4529   22.4422  -33.3399 H   0  0  0  0  0  0  0  0  0  0  0  0
   -3.7900   20.7420  -33.2230 C   0  0  0  0  0  0  0  0  0  0  0  0
   -4.6455   21.3510  -32.8956 H   0  0  0  0  0  0  0  0  0  0  0  0
   -3.9450   19.3630  -33.3880 C   0  0  0  0  0  0  0  0  0  0  0  0
   -5.2040   18.8030  -33.1190 O   0  0  0  0  0  0  0  0  0  0  0  0
   -6.4540   19.2910  -33.6130 C   0  0  0  0  0  0  0  0  0  0  0  0
   -6.2939   19.7282  -34.6096 H   0  0  0  0  0  0  0  0  0  0  0  0
   -7.1536   18.4431  -33.6534 H   0  0  0  0  0  0  0  0  0  0  0  0
   -7.0540   20.3400  -32.7150 C   0  0  0  0  0  0  0  0  0  0  0  0
   -6.5300   21.5960  -32.7360 N   0  0  0  0  0  0  0  0  0  0  0  0
   -7.0770   22.6250  -32.0300 C   0  0  0  0  0  0  0  0  0  0  0  0
   -6.4650   23.9930  -32.1250 C   0  0  0  0  0  0  0  0  0  0  0  0
   -6.1040   24.1562  -33.1512 H   0  0  0  0  0  0  0  0  0  0  0  0
   -7.2292   24.7402  -31.8648 H   0  0  0  0  0  0  0  0  0  0  0  0
   -5.3300   24.1270  -31.1840 N   0  0  0  0  0  0  0  0  0  0  0  0
   -5.2270   22.9880  -30.2400 C   0  0  0  0  0  0  0  0  0  0  0  0
   -5.5920   23.3021  -29.2510 H   0  0  0  0  0  0  0  0  0  0  0  0
   -5.8354   22.1533  -30.6183 H   0  0  0  0  0  0  0  0  0  0  0  0
   -3.7970   22.5370  -30.1210 C   0  0  0  0  0  0  0  0  0  0  0  0
   -2.7490   23.4710  -30.0690 C   0  0  0  0  0  0  0  0  0  0  0  0
   -2.9709   24.5473  -30.1181 H   0  0  0  0  0  0  0  0  0  0  0  0
   -1.4250   23.0370  -29.9550 C   0  0  0  0  0  0  0  0  0  0  0  0
   -0.6093   23.7726  -29.8951 H   0  0  0  0  0  0  0  0  0  0  0  0
   -1.1360   21.6710  -29.9170 C   0  0  0  0  0  0  0  0  0  0  0  0
   -0.0931   21.3314  -29.8328 H   0  0  0  0  0  0  0  0  0  0  0  0
   -2.1720   20.7360  -29.9860 C   0  0  0  0  0  0  0  0  0  0  0  0
   -1.9430   19.6603  -29.9647 H   0  0  0  0  0  0  0  0  0  0  0  0
   -3.4990   21.1650  -30.0820 C   0  0  0  0  0  0  0  0  0  0  0  0
   -4.3123   20.4258  -30.1271 H   0  0  0  0  0  0  0  0  0  0  0  0
   -5.3360   25.4340  -30.4870 C   0  0  0  0  0  0  0  0  0  0  0  0
   -4.3832   25.5446  -29.9486 H   0  0  0  0  0  0  0  0  0  0  0  0
   -5.4762   26.2074  -31.2565 H   0  0  0  0  0  0  0  0  0  0  0  0
   -6.4830   25.5920  -29.4790 C   0  0  0  0  0  0  0  0  0  0  0  0
   -6.0824   25.5368  -28.4560 H   0  0  0  0  0  0  0  0  0  0  0  0
   -6.9717   26.5659  -29.6293 H   0  0  0  0  0  0  0  0  0  0  0  0
   -7.2168   24.7865  -29.6293 H   0  0  0  0  0  0  0  0  0  0  0  0
   -8.2250   22.4000  -31.2580 C   0  0  0  0  0  0  0  0  0  0  0  0
   -8.6790   23.2225  -30.6857 H   0  0  0  0  0  0  0  0  0  0  0  0
   -8.7860   21.1250  -31.2220 C   0  0  0  0  0  0  0  0  0  0  0  0
   -9.6802   20.9346  -30.6104 H   0  0  0  0  0  0  0  0  0  0  0  0
   -8.2140   20.0910  -31.9610 C   0  0  0  0  0  0  0  0  0  0  0  0
   -8.6665   19.0884  -31.9543 H   0  0  0  0  0  0  0  0  0  0  0  0
   -2.8450   18.5940  -33.8070 C   0  0  0  0  0  0  0  0  0  0  0  0
   -2.9567   17.5090  -33.9496 H   0  0  0  0  0  0  0  0  0  0  0  0
   -1.6090   19.2050  -34.0430 C   0  0  0  0  0  0  0  0  0  0  0  0
   -0.7502   18.5935  -34.3569 H   0  0  0  0  0  0  0  0  0  0  0  0
    1.0300   20.7880  -33.4600 N   0  0  0  0  0  0  0  0  0  0  0  0
    1.0110   19.9360  -32.8580 H   0  0  0  0  0  0  0  0  0  0  0  0
    1.9430   21.2740  -33.6050 H   0  0  0  0  0  0  0  0  0  0  0  0
  1  2  1  0
  2  3  2  0
  3  4  1  0
  4  5  2  0
  5  6  1  0
  5  7  1  0
  7  8  1  0
  7  9  2  0
  9 10  1  0
 10 11  1  0
 11 12  1  0
 11 13  1  0
 11 14  1  0
 14 15  2  0
 15 16  1  0
 16 17  1  0
 17 18  1  0
 17 19  1  0
 17 20  1  0
 20 21  1  0
 21 22  1  0
 21 23  1  0
 21 24  1  0
 24 25  2  0
 25 26  1  0
 25 27  1  0
 27 28  1  0
 27 29  2  0
 29 30  1  0
 29 31  1  0
 31 32  1  0
 31 33  2  0
 33 34  1  0
 20 35  1  0
 35 36  1  0
 35 37  1  0
 35 38  1  0
 38 39  1  0
 38 40  1  0
 38 41  1  0
 16 42  2  0
 42 43  1  0
 42 44  1  0
 44 45  1  0
 44 46  2  0
 46 47  1  0
  9 48  1  0
 48 49  1  0
 48 50  2  0
 50 51  1  0
  3 52  1  0
 52 53  1  0
 52 54  1  0
 50  4  1  0
 46 14  1  0
 33 24  1  0
M  END
>  <UniqueID>  (31) 
30

>  <SMILES>  (31) 
[H]/N=C(/N)c1ccc(OCc2cccc(CN(CC)Cc3ccccc3)n2)cc1

>  <Energy>  (31) 
57.109218391364706

>  <Genealogy>  (31) 
[H]/N=C(/N)c1ccc(OCc2cccc(CN(CC)Cc3ccccc3)n2)cc1 (cis-trans isomerization)
[H]/N=C(/N)c1ccc(OCc2cccc(CN(CC)Cc3ccccc3)n2)cc1 (3D coordinates assigned)
[H]/N=C(/N)c1ccc(OCc2cccc(CN(CC)Cc3ccccc3)n2)cc1 (optimized conformer: 57.109218391364706 kcal/mol)

>  <smiles>  (31) 
CCN(Cc1ccccc1)Cc1cccc(COc2ccc(C(=N)N)cc2)n1

>  <score_type>  (31) 
oracle

>  <origin>  (31) 
adg

>  <m_score__min__energy>  (31) 
-9.4700000000000006

>  <m_primary>  (31) 
energy

$$$$
31:0
     RDKit          3D

 33 34  0  0  0  0  0  0  0  0999 V2000
   -2.2220   24.5130  -28.9630 C   0  0  0  0  0  0  0  0  0  0  0  0
   -3.1060   24.9310  -29.9990 O   0  0  0  0  0  0  0  0  0  0  0  0
   -4.1990   24.1800  -30.4560 C   0  0  0  0  0  0  0  0  0  0  0  0
   -5.4190   24.7750  -30.8340 C   0  0  0  0  0  0  0  0  0  0  0  0
   -6.4790   23.9830  -31.2840 C   0  0  0  0  0  0  0  0  0  0  0  0
   -6.3390   22.5890  -31.3620 C   0  0  0  0  0  0  0  0  0  0  0  0
   -7.4300   21.7730  -31.8240 N   0  0  0  0  0  0  0  0  0  0  0  0
   -8.7880   22.2520  -31.7110 C   0  0  0  0  0  0  0  0  0  0  0  0
   -9.7830   21.5620  -30.8280 C   0  0  0  0  0  0  0  0  0  0  0  0
   -9.1440   23.2910  -32.3290 O   0  0  0  0  0  0  0  0  0  0  0  0
   -7.1410   20.5070  -32.4560 C   0  0  0  0  0  0  0  0  0  0  0  0
   -6.3200   20.3660  -33.4870 C   0  0  0  0  0  0  0  0  0  0  0  0
   -6.2670   18.9710  -33.8490 C   0  0  0  0  0  0  0  0  0  0  0  0
   -5.5750   18.5100  -34.7930 O   0  0  0  0  0  0  0  0  0  0  0  0
   -7.1300   18.1510  -32.9620 C   0  0  0  0  0  0  0  0  0  0  0  0
   -7.7500   19.2000  -32.0250 C   0  0  0  0  0  0  0  0  0  0  0  0
   -5.1250   21.9970  -30.9870 C   0  0  0  0  0  0  0  0  0  0  0  0
   -4.0640   22.7900  -30.5380 C   0  0  0  0  0  0  0  0  0  0  0  0
   -2.6763   24.7278  -27.9845 H   0  0  0  0  0  0  0  0  0  0  0  0
   -2.0375   23.4323  -29.0523 H   0  0  0  0  0  0  0  0  0  0  0  0
   -1.2696   25.0562  -29.0523 H   0  0  0  0  0  0  0  0  0  0  0  0
   -5.5376   25.8670  -30.7747 H   0  0  0  0  0  0  0  0  0  0  0  0
   -7.4280   24.4549  -31.5786 H   0  0  0  0  0  0  0  0  0  0  0  0
   -9.5243   21.7414  -29.7740 H   0  0  0  0  0  0  0  0  0  0  0  0
  -10.7893   21.9571  -31.0309 H   0  0  0  0  0  0  0  0  0  0  0  0
   -9.7657   20.4810  -31.0309 H   0  0  0  0  0  0  0  0  0  0  0  0
   -5.7701   21.1786  -33.9843 H   0  0  0  0  0  0  0  0  0  0  0  0
   -7.9063   17.6269  -33.5388 H   0  0  0  0  0  0  0  0  0  0  0  0
   -6.5805   17.3614  -32.4286 H   0  0  0  0  0  0  0  0  0  0  0  0
   -8.8436   19.2250  -32.1407 H   0  0  0  0  0  0  0  0  0  0  0  0
   -7.5530   18.9791  -30.9656 H   0  0  0  0  0  0  0  0  0  0  0  0
   -5.0064   20.9050  -31.0461 H   0  0  0  0  0  0  0  0  0  0  0  0
   -3.1148   22.3164  -30.2467 H   0  0  0  0  0  0  0  0  0  0  0  0
  1  2  1  0
  2  3  1  0
  3  4  2  0
  4  5  1  0
  5  6  2  0
  6  7  1  0
  7  8  1  0
  8  9  1  0
  8 10  2  0
  7 11  1  0
 11 12  2  0
 12 13  1  0
 13 14  2  0
 13 15  1  0
 15 16  1  0
  6 17  1  0
 17 18  2  0
 18  3  1  0
 16 11  1  0
  1 19  1  0
  1 20  1  0
  1 21  1  0
  4 22  1  0
  5 23  1  0
  9 24  1  0
  9 25  1  0
  9 26  1  0
 12 27  1  0
 15 28  1  0
 15 29  1  0
 16 30  1  0
 16 31  1  0
 17 32  1  0
 18 33  1  0
M  END
>  <UniqueID>  (32) 
31

>  <SMILES>  (32) 
COc1ccc(N(C(C)=O)C2=CC(=O)CC2)cc1

>  <Energy>  (32) 
48.59983023010996

>  <Genealogy>  (32) 
COc1ccc(N(C(C)=O)C2=CC(=O)CC2)cc1 (3D coordinates assigned)
COc1ccc(N(C(C)=O)C2=CC(=O)CC2)cc1 (nonaromatic ring conformer: 48.59983023010996 kcal/mol)

>  <smiles>  (32) 
COc1ccc(N(C(C)=O)C2=CC(=O)CC2)cc1

>  <score_type>  (32) 
oracle

>  <origin>  (32) 
adg

>  <m_score__min__energy>  (32) 
-7.4100000000000001

>  <m_primary>  (32) 
energy

$$$$
32:0
     RDKit          3D

 50 53  0  0  0  0  0  0  0  0999 V2000
   -7.7450   24.2030  -30.9130 H   0  0  0  0  0  0  0  0  0  0  0  0
   -7.7310   23.2150  -31.2410 N   0  0  0  0  0  0  0  0  0  0  0  0
   -6.6750   22.5110  -31.5330 C   0  0  0  0  0  0  0  0  0  0  0  0
   -5.4160   23.0210  -31.1570 C   0  0  0  0  0  0  0  0  0  0  0  0
   -5.2760   24.5360  -30.2470 S   0  0  0  0  0  0  0  0  0  0  0  0
   -6.5730   24.8240  -29.5420 O   0  0  0  0  0  0  0  0  0  0  0  0
   -4.9860   25.6600  -31.2030 O   0  0  0  0  0  0  0  0  0  0  0  0
   -4.0000   24.4500  -29.0330 C   0  0  0  0  0  0  0  0  0  0  0  0
   -4.3120   24.5140  -27.6670 C   0  0  0  0  0  0  0  0  0  0  0  0
   -5.3609   24.5989  -27.3467 H   0  0  0  0  0  0  0  0  0  0  0  0
   -3.2920   24.4700  -26.7120 C   0  0  0  0  0  0  0  0  0  0  0  0
   -3.5399   24.5181  -25.6414 H   0  0  0  0  0  0  0  0  0  0  0  0
   -1.9580   24.3650  -27.1150 C   0  0  0  0  0  0  0  0  0  0  0  0
   -1.1570   24.3272  -26.3620 H   0  0  0  0  0  0  0  0  0  0  0  0
   -1.6420   24.3080  -28.4760 C   0  0  0  0  0  0  0  0  0  0  0  0
   -0.5917   24.2284  -28.7932 H   0  0  0  0  0  0  0  0  0  0  0  0
   -2.6590   24.3520  -29.4340 C   0  0  0  0  0  0  0  0  0  0  0  0
   -2.4076   24.3097  -30.5040 H   0  0  0  0  0  0  0  0  0  0  0  0
   -4.2600   22.3410  -31.5400 C   0  0  0  0  0  0  0  0  0  0  0  0
   -3.2736   22.7345  -31.2534 H   0  0  0  0  0  0  0  0  0  0  0  0
   -4.3480   21.1640  -32.2850 C   0  0  0  0  0  0  0  0  0  0  0  0
   -3.2030   20.4650  -32.7150 C   0  0  0  0  0  0  0  0  0  0  0  0
   -2.0570   20.9060  -32.4140 O   0  0  0  0  0  0  0  0  0  0  0  0
   -3.3310   19.3170  -33.4590 N   0  0  0  0  0  0  0  0  0  0  0  0
   -2.2190   18.6330  -33.8830 C   0  0  0  0  0  0  0  0  0  0  0  0
   -1.2187   19.0093  -33.6227 H   0  0  0  0  0  0  0  0  0  0  0  0
   -2.3400   17.4680  -34.6390 C   0  0  0  0  0  0  0  0  0  0  0  0
   -1.4404   16.9283  -34.9699 H   0  0  0  0  0  0  0  0  0  0  0  0
   -3.6030   16.9910  -34.9730 C   0  0  0  0  0  0  0  0  0  0  0  0
   -3.7044   16.0733  -35.5710 H   0  0  0  0  0  0  0  0  0  0  0  0
   -4.7440   17.6790  -34.5480 C   0  0  0  0  0  0  0  0  0  0  0  0
   -6.1130   17.1660  -34.9040 C   0  0  0  0  0  0  0  0  0  0  0  0
   -6.6764   16.9549  -33.9831 H   0  0  0  0  0  0  0  0  0  0  0  0
   -6.6469   17.9251  -35.4946 H   0  0  0  0  0  0  0  0  0  0  0  0
   -6.0166   16.2430  -35.4946 H   0  0  0  0  0  0  0  0  0  0  0  0
   -4.5870   18.8510  -33.7810 C   0  0  0  0  0  0  0  0  0  0  0  0
   -5.6890   19.5240  -33.3590 N   0  0  0  0  0  0  0  0  0  0  0  0
   -5.6160   20.6610  -32.6200 C   0  0  0  0  0  0  0  0  0  0  0  0
   -6.7650   21.3090  -32.2170 N   0  0  0  0  0  0  0  0  0  0  0  0
   -8.0750   20.7090  -32.5580 C   0  0  0  0  0  0  0  0  0  0  0  0
   -8.8526   21.4851  -32.5036 H   0  0  0  0  0  0  0  0  0  0  0  0
   -8.0197   20.2943  -33.5753 H   0  0  0  0  0  0  0  0  0  0  0  0
   -8.4230   19.5810  -31.5860 C   0  0  0  0  0  0  0  0  0  0  0  0
   -7.8911   19.7365  -30.6358 H   0  0  0  0  0  0  0  0  0  0  0  0
   -9.5068   19.5752  -31.3979 H   0  0  0  0  0  0  0  0  0  0  0  0
   -8.0320   18.3480  -32.1500 O   0  0  0  0  0  0  0  0  0  0  0  0
   -6.9830   17.7970  -31.3860 C   0  0  0  0  0  0  0  0  0  0  0  0
   -7.2077   17.9150  -30.3157 H   0  0  0  0  0  0  0  0  0  0  0  0
   -6.8791   16.7279  -31.6231 H   0  0  0  0  0  0  0  0  0  0  0  0
   -6.0438   18.3182  -31.6231 H   0  0  0  0  0  0  0  0  0  0  0  0
  1  2  1  0
  2  3  2  0
  3  4  1  0
  4  5  1  0
  5  6  2  0
  5  7  2  0
  5  8  1  0
  8  9  2  0
  9 10  1  0
  9 11  1  0
 11 12  1  0
 11 13  2  0
 13 14  1  0
 13 15  1  0
 15 16  1  0
 15 17  2  0
 17 18  1  0
  4 19  2  0
 19 20  1  0
 19 21  1  0
 21 22  1  0
 22 23  2  0
 22 24  1  0
 24 25  1  0
 25 26  1  0
 25 27  2  0
 27 28  1  0
 27 29  1  0
 29 30  1  0
 29 31  2  0
 31 32  1  0
 32 33  1  0
 32 34  1  0
 32 35  1  0
 31 36  1  0
 36 37  2  0
 37 38  1  0
 38 39  1  0
 39 40  1  0
 40 41  1  0
 40 42  1  0
 40 43  1  0
 43 44  1  0
 43 45  1  0
 43 46  1  0
 46 47  1  0
 47 48  1  0
 47 49  1  0
 47 50  1  0
 39  3  1  0
 17  8  1  0
 38 21  2  0
 36 24  1  0
M  END
>  <UniqueID>  (33) 
32

>  <SMILES>  (33) 
[H]/N=c1/c(S(=O)(=O)c2ccccc2)cc2c(=O)n3cccc(C)c3nc2n1CCOC

>  <Energy>  (33) 
73.73148618533853

>  <Genealogy>  (33) 
[H]/N=c1/c(S(=O)(=O)c2ccccc2)cc2c(=O)n3cccc(C)c3nc2n1CCOC (cis-trans isomerization)
[H]/N=c1/c(S(=O)(=O)c2ccccc2)cc2c(=O)n3cccc(C)c3nc2n1CCOC (3D coordinates assigned)
[H]/N=c1/c(S(=O)(=O)c2ccccc2)cc2c(=O)n3cccc(C)c3nc2n1CCOC (optimized conformer: 73.73148618533853 kcal/mol)

>  <smiles>  (33) 
COCCn1c(=N)c(S(=O)(=O)c2ccccc2)cc2c(=O)n3cccc(C)c3nc21

>  <score_type>  (33) 
oracle

>  <origin>  (33) 
adg

>  <m_score__min__energy>  (33) 
-9.0600000000000005

>  <m_primary>  (33) 
energy

$$$$
33:0
     RDKit          3D

 27 27  0  0  0  0  0  0  0  0999 V2000
   -0.3270   25.4316  -28.0307 H   0  0  0  0  0  0  0  0  0  0  0  0
   -1.2150   24.8480  -28.3150 C   0  0  0  0  0  0  0  0  0  0  0  0
   -2.0180   25.2820  -29.3250 N   0  0  0  0  0  0  0  0  0  0  0  0
   -3.1210   24.5850  -29.7180 C   0  0  0  0  0  0  0  0  0  0  0  0
   -3.8740   25.0200  -30.6850 N   0  0  0  0  0  0  0  0  0  0  0  0
   -5.1720   25.6630  -30.4870 C   0  0  0  0  0  0  0  0  0  0  0  0
   -5.1494   26.2475  -29.5554 H   0  0  0  0  0  0  0  0  0  0  0  0
   -5.3783   26.3247  -31.3411 H   0  0  0  0  0  0  0  0  0  0  0  0
   -6.2770   24.6080  -30.3950 C   0  0  0  0  0  0  0  0  0  0  0  0
   -6.0491   23.9253  -29.5632 H   0  0  0  0  0  0  0  0  0  0  0  0
   -7.2326   25.1272  -30.2298 H   0  0  0  0  0  0  0  0  0  0  0  0
   -6.3950   23.7910  -31.6910 C   0  0  0  0  0  0  0  0  0  0  0  0
   -6.5224   24.4829  -32.5366 H   0  0  0  0  0  0  0  0  0  0  0  0
   -5.4780   23.1933  -31.8006 H   0  0  0  0  0  0  0  0  0  0  0  0
   -7.5850   22.8290  -31.6560 C   0  0  0  0  0  0  0  0  0  0  0  0
   -8.6690   23.4190  -32.2800 F   0  0  0  0  0  0  0  0  0  0  0  0
   -7.2730   21.6560  -32.3200 F   0  0  0  0  0  0  0  0  0  0  0  0
   -7.9280   22.5370  -30.3480 F   0  0  0  0  0  0  0  0  0  0  0  0
   -3.4460   23.3850  -29.0780 C   0  0  0  0  0  0  0  0  0  0  0  0
   -4.3318   22.8123  -29.3900 H   0  0  0  0  0  0  0  0  0  0  0  0
   -2.6370   22.9200  -28.0400 C   0  0  0  0  0  0  0  0  0  0  0  0
   -2.8787   21.9717  -27.5377 H   0  0  0  0  0  0  0  0  0  0  0  0
   -1.5170   23.6600  -27.6370 C   0  0  0  0  0  0  0  0  0  0  0  0
   -0.6170   23.1510  -26.5510 C   0  0  0  0  0  0  0  0  0  0  0  0
   -1.0507   23.3963  -25.5703 H   0  0  0  0  0  0  0  0  0  0  0  0
   -0.5122   22.0599  -26.6430 H   0  0  0  0  0  0  0  0  0  0  0  0
    0.3721   23.6234  -26.6430 H   0  0  0  0  0  0  0  0  0  0  0  0
  1  2  1  0
  2  3  1  0
  3  4  1  0
  4  5  2  0
  5  6  1  0
  6  7  1  0
  6  8  1  0
  6  9  1  0
  9 10  1  0
  9 11  1  0
  9 12  1  0
 12 13  1  0
 12 14  1  0
 12 15  1  0
 15 16  1  0
 15 17  1  0
 15 18  1  0
  4 19  1  0
 19 20  1  0
 19 21  2  0
 21 22  1  0
 21 23  1  0
 23 24  1  0
 24 25  1  0
 24 26  1  0
 24 27  1  0
 23  2  2  0
M  CHG  1   3  -1
M  END
>  <UniqueID>  (34) 
33

>  <SMILES>  (34) 
Cc1cc/c(=N/CCCC(F)(F)F)[n-]c1

>  <Energy>  (34) 
17.876970115728085

>  <Genealogy>  (34) 
Cc1ccc(=NCCCC(F)(F)F)[n-]c1 (protonated)
Cc1cc/c(=N/CCCC(F)(F)F)[n-]c1 (cis-trans isomerization)
Cc1cc/c(=N/CCCC(F)(F)F)[n-]c1 (3D coordinates assigned)
Cc1cc/c(=N/CCCC(F)(F)F)[n-]c1 (optimized conformer: 17.876970115728085 kcal/mol)

>  <smiles>  (34) 
Cc1ccc(=NCCCC(F)(F)F)[nH]c1

>  <score_type>  (34) 
oracle

>  <origin>  (34) 
adg

>  <m_score__min__energy>  (34) 
-6.71

>  <m_primary>  (34) 
energy

$$$$
34:0
     RDKit          3D

 38 40  0  0  0  0  0  0  0  0999 V2000
   -1.6590   21.0130  -33.3640 C   0  0  0  0  0  0  0  0  0  0  0  0
   -3.1440   20.9400  -33.2340 C   0  0  0  0  0  0  0  0  0  0  0  0
   -3.8230   21.9520  -32.6060 N   0  0  0  0  0  0  0  0  0  0  0  0
   -5.1760   21.9090  -32.4170 C   0  0  0  0  0  0  0  0  0  0  0  0
   -5.8820   23.0330  -31.6900 C   0  0  0  0  0  0  0  0  0  0  0  0
   -4.9760   24.1030  -31.2050 N   0  0  0  0  0  0  0  0  0  0  0  0
   -4.1320   23.6940  -30.0730 C   0  0  0  0  0  0  0  0  0  0  0  0
   -4.6610   24.3700  -28.8110 C   0  0  0  0  0  0  0  0  0  0  0  0
   -5.7620   25.3090  -29.2690 C   0  0  0  0  0  0  0  0  0  0  0  0
   -5.6760   25.3230  -30.7860 C   0  0  0  0  0  0  0  0  0  0  0  0
   -5.8490   20.7890  -32.9030 C   0  0  0  0  0  0  0  0  0  0  0  0
   -7.1680   20.3720  -32.9030 C   0  0  0  0  0  0  0  0  0  0  0  0
   -7.2140   19.1550  -33.4990 N   0  0  0  0  0  0  0  0  0  0  0  0
   -5.9910   18.8040  -33.8790 N   0  0  0  0  0  0  0  0  0  0  0  0
   -5.6410   17.5220  -34.4870 C   0  0  0  0  0  0  0  0  0  0  0  0
   -6.0130   16.3740  -33.5550 C   0  0  0  0  0  0  0  0  0  0  0  0
   -7.2900   16.5570  -33.0580 F   0  0  0  0  0  0  0  0  0  0  0  0
   -5.1550   19.7900  -33.5140 C   0  0  0  0  0  0  0  0  0  0  0  0
   -3.8110   19.8340  -33.6820 N   0  0  0  0  0  0  0  0  0  0  0  0
   -1.2039   21.0354  -32.3628 H   0  0  0  0  0  0  0  0  0  0  0  0
   -1.2952   20.1317  -33.9125 H   0  0  0  0  0  0  0  0  0  0  0  0
   -1.3834   21.9258  -33.9125 H   0  0  0  0  0  0  0  0  0  0  0  0
   -6.6126   23.4841  -32.3776 H   0  0  0  0  0  0  0  0  0  0  0  0
   -6.3537   22.5892  -30.8009 H   0  0  0  0  0  0  0  0  0  0  0  0
   -4.1730   22.6012  -29.9545 H   0  0  0  0  0  0  0  0  0  0  0  0
   -3.0881   23.9908  -30.2523 H   0  0  0  0  0  0  0  0  0  0  0  0
   -5.0640   23.6191  -28.1155 H   0  0  0  0  0  0  0  0  0  0  0  0
   -3.8644   24.9120  -28.2803 H   0  0  0  0  0  0  0  0  0  0  0  0
   -6.7447   24.9378  -28.9427 H   0  0  0  0  0  0  0  0  0  0  0  0
   -5.6435   26.3164  -28.8434 H   0  0  0  0  0  0  0  0  0  0  0  0
   -6.6873   25.3418  -31.2183 H   0  0  0  0  0  0  0  0  0  0  0  0
   -5.1350   26.2158  -31.1328 H   0  0  0  0  0  0  0  0  0  0  0  0
   -8.0247   20.9274  -32.4935 H   0  0  0  0  0  0  0  0  0  0  0  0
   -8.0700   18.5710  -33.6310 H   0  0  0  0  0  0  0  0  0  0  0  0
   -6.1859   17.4099  -35.4360 H   0  0  0  0  0  0  0  0  0  0  0  0
   -4.5565   17.4972  -34.6694 H   0  0  0  0  0  0  0  0  0  0  0  0
   -5.9722   15.4262  -34.1118 H   0  0  0  0  0  0  0  0  0  0  0  0
   -5.3018   16.3478  -32.7162 H   0  0  0  0  0  0  0  0  0  0  0  0
  1  2  1  0
  2  3  2  0
  3  4  1  0
  4  5  1  0
  5  6  1  0
  6  7  1  0
  7  8  1  0
  8  9  1  0
  9 10  1  0
  4 11  2  0
 11 12  1  0
 12 13  2  0
 13 14  1  0
 14 15  1  0
 15 16  1  0
 16 17  1  0
 14 18  1  0
 18 19  2  0
 19  2  1  0
 10  6  1  0
 18 11  1  0
  1 20  1  0
  1 21  1  0
  1 22  1  0
  5 23  1  0
  5 24  1  0
  7 25  1  0
  7 26  1  0
  8 27  1  0
  8 28  1  0
  9 29  1  0
  9 30  1  0
 10 31  1  0
 10 32  1  0
 12 33  1  0
 13 34  1  0
 15 35  1  0
 15 36  1  0
 16 37  1  0
 16 38  1  0
M  CHG  1  13   1
M  END
>  <UniqueID>  (35) 
34

>  <SMILES>  (35) 
Cc1nc(CN2CCCC2)c2c[nH+]n(CCF)c2n1

>  <Energy>  (35) 
79.95244355756418

>  <Genealogy>  (35) 
Cc1nc(CN2CCCC2)c2c[nH+]n(CCF)c2n1 (protonated)
Cc1nc(CN2CCCC2)c2c[nH+]n(CCF)c2n1 (3D coordinates assigned)
Cc1nc(CN2CCCC2)c2c[nH+]n(CCF)c2n1 (nonaromatic ring conformer: 79.95244355756418 kcal/mol)

>  <smiles>  (35) 
Cc1nc(CN2CCCC2)c2cnn(CCF)c2n1

>  <score_type>  (35) 
oracle

>  <origin>  (35) 
adg

>  <m_score__min__energy>  (35) 
-6.21

>  <m_primary>  (35) 
energy

$$$$
35:0
     RDKit          3D

 29 31  0  0  0  0  0  0  0  0999 V2000
   -9.0700   21.5710  -30.4650 C   0  0  0  0  0  0  0  0  0  0  0  0
   -8.8930   21.7070  -31.9740 C   0  0  0  0  0  0  0  0  0  0  0  0
   -7.6560   20.9930  -32.4310 C   0  0  0  0  0  0  0  0  0  0  0  0
   -7.6770   19.8570  -33.1810 N   0  0  0  0  0  0  0  0  0  0  0  0
   -6.3780   19.6270  -33.4260 C   0  0  0  0  0  0  0  0  0  0  0  0
   -5.5720   18.3990  -34.2310 S   0  0  0  0  0  0  0  0  0  0  0  0
   -4.0540   19.1030  -33.8510 C   0  0  0  0  0  0  0  0  0  0  0  0
   -4.2500   20.2720  -33.1010 C   0  0  0  0  0  0  0  0  0  0  0  0
   -5.5640   20.5210  -32.9040 N   0  0  0  0  0  0  0  0  0  0  0  0
   -6.3290   21.4190  -32.2650 C   0  0  0  0  0  0  0  0  0  0  0  0
   -5.8380   22.6110  -31.5540 C   0  0  0  0  0  0  0  0  0  0  0  0
   -6.4900   24.1520  -31.7120 S   0  0  0  0  0  0  0  0  0  0  0  0
   -5.4540   24.9100  -30.6260 C   0  0  0  0  0  0  0  0  0  0  0  0
   -4.5750   23.9600  -30.1270 C   0  0  0  0  0  0  0  0  0  0  0  0
   -4.7750   22.6730  -30.6510 C   0  0  0  0  0  0  0  0  0  0  0  0
   -3.9100   21.5110  -30.2660 C   0  0  0  0  0  0  0  0  0  0  0  0
   -8.2990   22.1634  -29.9505 H   0  0  0  0  0  0  0  0  0  0  0  0
  -10.0665   21.9380  -30.1782 H   0  0  0  0  0  0  0  0  0  0  0  0
   -8.9721   20.5136  -30.1782 H   0  0  0  0  0  0  0  0  0  0  0  0
   -9.7678   21.2731  -32.4804 H   0  0  0  0  0  0  0  0  0  0  0  0
   -8.7969   22.7741  -32.2232 H   0  0  0  0  0  0  0  0  0  0  0  0
   -8.5020   19.2980  -33.4930 H   0  0  0  0  0  0  0  0  0  0  0  0
   -3.0756   18.6989  -34.1502 H   0  0  0  0  0  0  0  0  0  0  0  0
   -3.4362   20.9068  -32.7207 H   0  0  0  0  0  0  0  0  0  0  0  0
   -5.4705   25.9765  -30.3573 H   0  0  0  0  0  0  0  0  0  0  0  0
   -3.7935   24.1935  -29.3889 H   0  0  0  0  0  0  0  0  0  0  0  0
   -3.8575   21.4404  -29.1695 H   0  0  0  0  0  0  0  0  0  0  0  0
   -4.3393   20.5836  -30.6730 H   0  0  0  0  0  0  0  0  0  0  0  0
   -2.8984   21.6562  -30.6730 H   0  0  0  0  0  0  0  0  0  0  0  0
  1  2  1  0
  2  3  1  0
  3  4  1  0
  4  5  2  0
  5  6  1  0
  6  7  1  0
  7  8  2  0
  8  9  1  0
  9 10  1  0
 10 11  1  0
 11 12  1  0
 12 13  1  0
 13 14  2  0
 14 15  1  0
 15 16  1  0
 10  3  2  0
 15 11  2  0
  9  5  1  0
  1 17  1  0
  1 18  1  0
  1 19  1  0
  2 20  1  0
  2 21  1  0
  4 22  1  0
  7 23  1  0
  8 24  1  0
 13 25  1  0
 14 26  1  0
 16 27  1  0
 16 28  1  0
 16 29  1  0
M  CHG  1   4   1
M  END
>  <UniqueID>  (36) 
35

>  <SMILES>  (36) 
CCc1[nH+]c2sccn2c1-c1sccc1C

>  <Energy>  (36) 
136.75472667546444

>  <Genealogy>  (36) 
CCc1[nH+]c2sccn2c1-c1sccc1C (protonated)
CCc1[nH+]c2sccn2c1-c1sccc1C (3D coordinates assigned)
CCc1[nH+]c2sccn2c1-c1sccc1C (optimized conformer: 136.75472667546444 kcal/mol)

>  <smiles>  (36) 
CCc1nc2sccn2c1-c1sccc1C

>  <score_type>  (36) 
oracle

>  <origin>  (36) 
adg

>  <m_score__min__energy>  (36) 
-6.0800000000000001

>  <m_primary>  (36) 
energy

$$$$
36:0
     RDKit          3D

 55 56  0  0  0  0  0  0  0  0999 V2000
   -6.5060   25.3250  -29.7400 C   0  0  0  0  0  0  0  0  0  0  0  0
   -5.1170   24.6980  -29.6270 C   0  0  0  0  0  0  0  0  0  0  0  0
   -5.1650   23.2270  -29.1860 C   0  0  0  0  0  0  0  0  0  0  0  0
   -3.7970   22.6990  -28.7280 C   0  0  0  0  0  0  0  0  0  0  0  0
   -3.3420   21.6120  -29.6250 N   0  0  0  0  0  0  0  0  0  0  0  0
   -2.8210   20.4570  -28.8570 C   0  0  0  0  0  0  0  0  0  0  0  0
   -2.3380   20.9140  -27.4690 C   0  0  0  0  0  0  0  0  0  0  0  0
   -1.9950   19.7350  -26.5440 C   0  0  0  0  0  0  0  0  0  0  0  0
   -3.1860   18.8070  -26.3080 C   0  0  0  0  0  0  0  0  0  0  0  0
   -2.3580   22.0970  -30.6270 C   0  0  0  0  0  0  0  0  0  0  0  0
   -2.2360   21.0950  -31.7790 C   0  0  0  0  0  0  0  0  0  0  0  0
   -2.9750   21.5560  -33.0400 C   0  0  0  0  0  0  0  0  0  0  0  0
   -4.4030   21.2370  -32.9340 N   0  0  0  0  0  0  0  0  0  0  0  0
   -4.9180   19.9660  -33.4600 C   0  0  0  0  0  0  0  0  0  0  0  0
   -6.0000   19.3990  -32.5340 C   0  0  0  0  0  0  0  0  0  0  0  0
   -7.0700   20.4260  -32.2550 C   0  0  0  0  0  0  0  0  0  0  0  0
   -8.3850   20.0160  -31.9840 C   0  0  0  0  0  0  0  0  0  0  0  0
   -9.3650   20.9580  -31.6640 C   0  0  0  0  0  0  0  0  0  0  0  0
   -9.0390   22.3150  -31.5970 C   0  0  0  0  0  0  0  0  0  0  0  0
   -7.7300   22.7350  -31.8470 C   0  0  0  0  0  0  0  0  0  0  0  0
   -6.7370   21.7950  -32.1750 C   0  0  0  0  0  0  0  0  0  0  0  0
   -5.3450   22.2110  -32.4440 C   0  0  0  0  0  0  0  0  0  0  0  0
   -4.9810   23.4000  -32.2340 O   0  0  0  0  0  0  0  0  0  0  0  0
   -6.9092   25.5070  -28.7329 H   0  0  0  0  0  0  0  0  0  0  0  0
   -6.4348   26.2783  -30.2842 H   0  0  0  0  0  0  0  0  0  0  0  0
   -7.1739   24.6411  -30.2842 H   0  0  0  0  0  0  0  0  0  0  0  0
   -4.6240   24.7552  -30.6087 H   0  0  0  0  0  0  0  0  0  0  0  0
   -4.5613   25.2571  -28.8598 H   0  0  0  0  0  0  0  0  0  0  0  0
   -5.8755   23.1331  -28.3515 H   0  0  0  0  0  0  0  0  0  0  0  0
   -5.4767   22.6300  -30.0558 H   0  0  0  0  0  0  0  0  0  0  0  0
   -3.0646   23.5194  -28.7508 H   0  0  0  0  0  0  0  0  0  0  0  0
   -3.8883   22.3055  -27.7049 H   0  0  0  0  0  0  0  0  0  0  0  0
   -3.6204   19.7112  -28.7358 H   0  0  0  0  0  0  0  0  0  0  0  0
   -1.9745   20.0158  -29.4036 H   0  0  0  0  0  0  0  0  0  0  0  0
   -1.4391   21.5352  -27.5958 H   0  0  0  0  0  0  0  0  0  0  0  0
   -3.1581   21.4774  -27.0000 H   0  0  0  0  0  0  0  0  0  0  0  0
   -1.1808   19.1538  -27.0014 H   0  0  0  0  0  0  0  0  0  0  0  0
   -1.6990   20.1512  -25.5698 H   0  0  0  0  0  0  0  0  0  0  0  0
   -3.3454   18.6828  -25.2267 H   0  0  0  0  0  0  0  0  0  0  0  0
   -4.0870   19.2436  -26.7637 H   0  0  0  0  0  0  0  0  0  0  0  0
   -2.9829   17.8266  -26.7637 H   0  0  0  0  0  0  0  0  0  0  0  0
   -2.6918   23.0672  -31.0235 H   0  0  0  0  0  0  0  0  0  0  0  0
   -1.3769   22.2062  -30.1418 H   0  0  0  0  0  0  0  0  0  0  0  0
   -1.1711   20.9652  -32.0221 H   0  0  0  0  0  0  0  0  0  0  0  0
   -2.6943   20.1507  -31.4500 H   0  0  0  0  0  0  0  0  0  0  0  0
   -2.8529   22.6430  -33.1560 H   0  0  0  0  0  0  0  0  0  0  0  0
   -2.5544   21.0361  -33.9134 H   0  0  0  0  0  0  0  0  0  0  0  0
   -5.3485   20.1354  -34.4580 H   0  0  0  0  0  0  0  0  0  0  0  0
   -4.0894   19.2451  -33.5210 H   0  0  0  0  0  0  0  0  0  0  0  0
   -6.4599   18.5224  -33.0136 H   0  0  0  0  0  0  0  0  0  0  0  0
   -5.5303   19.1163  -31.5803 H   0  0  0  0  0  0  0  0  0  0  0  0
   -8.6446   18.9478  -32.0239 H   0  0  0  0  0  0  0  0  0  0  0  0
  -10.3961   20.6309  -31.4642 H   0  0  0  0  0  0  0  0  0  0  0  0
   -9.8144   23.0541  -31.3470 H   0  0  0  0  0  0  0  0  0  0  0  0
   -7.4757   23.8035  -31.7871 H   0  0  0  0  0  0  0  0  0  0  0  0
  1  2  1  0
  2  3  1  0
  3  4  1  0
  4  5  1  0
  5  6  1  0
  6  7  1  0
  7  8  1  0
  8  9  1  0
  5 10  1  0
 10 11  1  0
 11 12  1  0
 12 13  1  0
 13 14  1  0
 14 15  1  0
 15 16  1  0
 16 17  2  0
 17 18  1  0
 18 19  2  0
 19 20  1  0
 20 21  2  0
 21 22  1  0
 22 23  2  0
 22 13  1  0
 21 16  1  0
  1 24  1  0
  1 25  1  0
  1 26  1  0
  2 27  1  0
  2 28  1  0
  3 29  1  0
  3 30  1  0
  4 31  1  0
  4 32  1  0
  6 33  1  0
  6 34  1  0
  7 35  1  0
  7 36  1  0
  8 37  1  0
  8 38  1  0
  9 39  1  0
  9 40  1  0
  9 41  1  0
 10 42  1  0
 10 43  1  0
 11 44  1  0
 11 45  1  0
 12 46  1  0
 12 47  1  0
 14 48  1  0
 14 49  1  0
 15 50  1  0
 15 51  1  0
 17 52  1  0
 18 53  1  0
 19 54  1  0
 20 55  1  0
M  END
>  <UniqueID>  (37) 
36

>  <SMILES>  (37) 
CCCCN(CCCC)CCCN1CCc2ccccc2C1=O

>  <Energy>  (37) 
42.97463107641454

>  <Genealogy>  (37) 
CCCCN(CCCC)CCCN1CCc2ccccc2C1=O (3D coordinates assigned)
CCCCN(CCCC)CCCN1CCc2ccccc2C1=O (nonaromatic ring conformer: 42.97463107641454 kcal/mol)

>  <smiles>  (37) 
CCCCN(CCCC)CCCN1CCc2ccccc2C1=O

>  <score_type>  (37) 
oracle

>  <origin>  (37) 
adg

>  <m_score__min__energy>  (37) 
-7.4100000000000001

>  <m_primary>  (37) 
energy

$$$$
37:0
     RDKit          3D

 38 39  0  0  0  0  0  0  0  0999 V2000
   -2.4740   19.8800  -27.1360 C   0  0  0  0  0  0  0  0  0  0  0  0
   -1.7940   20.7080  -28.0730 O   0  0  0  0  0  0  0  0  0  0  0  0
   -2.3790   21.7950  -28.7400 C   0  0  0  0  0  0  0  0  0  0  0  0
   -2.0750   23.0850  -28.3000 C   0  0  0  0  0  0  0  0  0  0  0  0
   -2.6300   24.2000  -28.9280 C   0  0  0  0  0  0  0  0  0  0  0  0
   -3.5100   24.0440  -30.0170 C   0  0  0  0  0  0  0  0  0  0  0  0
   -4.0730   25.1520  -30.6680 O   0  0  0  0  0  0  0  0  0  0  0  0
   -5.3640   25.6870  -30.3910 C   0  0  0  0  0  0  0  0  0  0  0  0
   -3.8300   22.7440  -30.4610 C   0  0  0  0  0  0  0  0  0  0  0  0
   -4.9540   22.4780  -31.8080 S   0  0  0  0  0  0  0  0  0  0  0  0
   -4.2400   21.7230  -32.8960 O   0  0  0  0  0  0  0  0  0  0  0  0
   -5.3890   23.7990  -32.3810 O   0  0  0  0  0  0  0  0  0  0  0  0
   -6.3630   21.5670  -31.3120 N   0  0  0  0  0  0  0  0  0  0  0  0
   -6.3340   20.1750  -31.8260 C   0  0  0  0  0  0  0  0  0  0  0  0
   -7.2470   19.9700  -33.0430 C   0  0  0  0  0  0  0  0  0  0  0  0
   -8.7080   20.3140  -32.7040 C   0  0  0  0  0  0  0  0  0  0  0  0
   -8.8290   21.4000  -31.6210 C   0  0  0  0  0  0  0  0  0  0  0  0
   -7.6000   22.3170  -31.6240 C   0  0  0  0  0  0  0  0  0  0  0  0
   -3.2550   21.6310  -29.8270 C   0  0  0  0  0  0  0  0  0  0  0  0
   -2.2159   20.1943  -26.1140 H   0  0  0  0  0  0  0  0  0  0  0  0
   -3.5599   19.9729  -27.2850 H   0  0  0  0  0  0  0  0  0  0  0  0
   -2.1717   18.8329  -27.2850 H   0  0  0  0  0  0  0  0  0  0  0  0
   -1.3910   23.2232  -27.4497 H   0  0  0  0  0  0  0  0  0  0  0  0
   -2.3785   25.2093  -28.5700 H   0  0  0  0  0  0  0  0  0  0  0  0
   -5.5100   25.7475  -29.3024 H   0  0  0  0  0  0  0  0  0  0  0  0
   -5.4456   26.6930  -30.8284 H   0  0  0  0  0  0  0  0  0  0  0  0
   -6.1333   25.0336  -30.8284 H   0  0  0  0  0  0  0  0  0  0  0  0
   -5.3018   19.9290  -32.1159 H   0  0  0  0  0  0  0  0  0  0  0  0
   -6.7005   19.5183  -31.0232 H   0  0  0  0  0  0  0  0  0  0  0  0
   -6.9055   20.6203  -33.8618 H   0  0  0  0  0  0  0  0  0  0  0  0
   -7.1976   18.9127  -33.3425 H   0  0  0  0  0  0  0  0  0  0  0  0
   -9.2059   20.6715  -33.6174 H   0  0  0  0  0  0  0  0  0  0  0  0
   -9.1807   19.4014  -32.3121 H   0  0  0  0  0  0  0  0  0  0  0  0
   -9.7284   22.0029  -31.8148 H   0  0  0  0  0  0  0  0  0  0  0  0
   -8.8986   20.9098  -30.6387 H   0  0  0  0  0  0  0  0  0  0  0  0
   -7.4987   22.7756  -32.6187 H   0  0  0  0  0  0  0  0  0  0  0  0
   -7.7415   23.0863  -30.8506 H   0  0  0  0  0  0  0  0  0  0  0  0
   -3.4929   20.6185  -30.1852 H   0  0  0  0  0  0  0  0  0  0  0  0
  1  2  1  0
  2  3  1  0
  3  4  2  0
  4  5  1  0
  5  6  2  0
  6  7  1  0
  7  8  1  0
  6  9  1  0
  9 10  1  0
 10 11  2  0
 10 12  2  0
 10 13  1  0
 13 14  1  0
 14 15  1  0
 15 16  1  0
 16 17  1  0
 17 18  1  0
  9 19  2  0
 19  3  1  0
 18 13  1  0
  1 20  1  0
  1 21  1  0
  1 22  1  0
  4 23  1  0
  5 24  1  0
  8 25  1  0
  8 26  1  0
  8 27  1  0
 14 28  1  0
 14 29  1  0
 15 30  1  0
 15 31  1  0
 16 32  1  0
 16 33  1  0
 17 34  1  0
 17 35  1  0
 18 36  1  0
 18 37  1  0
 19 38  1  0
M  END
>  <UniqueID>  (38) 
37

>  <SMILES>  (38) 
COc1ccc(OC)c(S(=O)(=O)N2CCCCC2)c1

>  <Energy>  (38) 
41.06811868775052

>  <Genealogy>  (38) 
COc1ccc(OC)c(S(=O)(=O)N2CCCCC2)c1 (3D coordinates assigned)
COc1ccc(OC)c(S(=O)(=O)N2CCCCC2)c1 (nonaromatic ring conformer: 41.06811868775052 kcal/mol)

>  <smiles>  (38) 
COc1ccc(OC)c(S(=O)(=O)N2CCCCC2)c1

>  <score_type>  (38) 
oracle

>  <origin>  (38) 
adg

>  <m_score__min__energy>  (38) 
-7.2000000000000002

>  <m_primary>  (38) 
energy

$$$$
38:0
     RDKit          3D

 46 49  0  0  0  0  0  0  0  0999 V2000
   -2.3210   21.0640  -31.4350 C   0  0  0  0  0  0  0  0  0  0  0  0
   -3.1250   21.3530  -32.5740 O   0  0  0  0  0  0  0  0  0  0  0  0
   -4.0370   20.4290  -33.0920 C   0  0  0  0  0  0  0  0  0  0  0  0
   -3.5590   19.3100  -33.7060 N   0  0  0  0  0  0  0  0  0  0  0  0
   -4.3850   18.3900  -34.2720 C   0  0  0  0  0  0  0  0  0  0  0  0
   -5.7660   18.5690  -34.2270 C   0  0  0  0  0  0  0  0  0  0  0  0
   -6.2890   19.6890  -33.5840 C   0  0  0  0  0  0  0  0  0  0  0  0
   -5.4330   20.6320  -32.9920 C   0  0  0  0  0  0  0  0  0  0  0  0
   -6.0130   21.7700  -32.2410 C   0  0  0  0  0  0  0  0  0  0  0  0
   -7.3930   21.8390  -31.9940 C   0  0  0  0  0  0  0  0  0  0  0  0
   -7.9360   22.9370  -31.3230 C   0  0  0  0  0  0  0  0  0  0  0  0
   -7.1130   23.9910  -30.9190 C   0  0  0  0  0  0  0  0  0  0  0  0
   -5.7320   23.9540  -31.1800 C   0  0  0  0  0  0  0  0  0  0  0  0
   -4.8700   25.0990  -30.7990 C   0  0  0  0  0  0  0  0  0  0  0  0
   -5.3690   26.2550  -30.7380 O   0  0  0  0  0  0  0  0  0  0  0  0
   -3.4860   24.9300  -30.4580 N   0  0  0  0  0  0  0  0  0  0  0  0
   -2.9670   23.9800  -29.5160 C   0  0  0  0  0  0  0  0  0  0  0  0
   -1.5840   23.7660  -29.3760 C   0  0  0  0  0  0  0  0  0  0  0  0
   -1.1100   22.7870  -28.5010 C   0  0  0  0  0  0  0  0  0  0  0  0
   -2.0080   22.0070  -27.7580 C   0  0  0  0  0  0  0  0  0  0  0  0
   -1.4980   20.9510  -26.8150 C   0  0  0  0  0  0  0  0  0  0  0  0
   -1.0120   19.6680  -27.4790 C   0  0  0  0  0  0  0  0  0  0  0  0
   -2.3460   19.6850  -26.7560 C   0  0  0  0  0  0  0  0  0  0  0  0
   -3.3840   22.2700  -27.8470 C   0  0  0  0  0  0  0  0  0  0  0  0
   -3.8580   23.2530  -28.7200 C   0  0  0  0  0  0  0  0  0  0  0  0
   -5.1870   22.8220  -31.8090 C   0  0  0  0  0  0  0  0  0  0  0  0
   -2.8947   21.2702  -30.5194 H   0  0  0  0  0  0  0  0  0  0  0  0
   -2.0274   20.0041  -31.4528 H   0  0  0  0  0  0  0  0  0  0  0  0
   -1.4198   21.6945  -31.4528 H   0  0  0  0  0  0  0  0  0  0  0  0
   -2.5260   19.1610  -33.7630 H   0  0  0  0  0  0  0  0  0  0  0  0
   -3.9622   17.5029  -34.7662 H   0  0  0  0  0  0  0  0  0  0  0  0
   -6.4369   17.8333  -34.6946 H   0  0  0  0  0  0  0  0  0  0  0  0
   -7.3783   19.8354  -33.5398 H   0  0  0  0  0  0  0  0  0  0  0  0
   -8.0504   21.0239  -32.3307 H   0  0  0  0  0  0  0  0  0  0  0  0
   -9.0150   22.9719  -31.1120 H   0  0  0  0  0  0  0  0  0  0  0  0
   -7.5477   24.8544  -30.3940 H   0  0  0  0  0  0  0  0  0  0  0  0
   -0.8737   24.3719  -29.9577 H   0  0  0  0  0  0  0  0  0  0  0  0
   -0.0271   22.6266  -28.3938 H   0  0  0  0  0  0  0  0  0  0  0  0
   -1.0820   21.6515  -26.0759 H   0  0  0  0  0  0  0  0  0  0  0  0
   -0.9825   19.5942  -28.5761 H   0  0  0  0  0  0  0  0  0  0  0  0
   -0.1002   19.0562  -27.4126 H   0  0  0  0  0  0  0  0  0  0  0  0
   -3.2827   19.6237  -27.3294 H   0  0  0  0  0  0  0  0  0  0  0  0
   -2.8003   19.0909  -25.9493 H   0  0  0  0  0  0  0  0  0  0  0  0
   -4.0919   21.7002  -27.2272 H   0  0  0  0  0  0  0  0  0  0  0  0
   -4.9374   23.4560  -28.7814 H   0  0  0  0  0  0  0  0  0  0  0  0
   -4.1000   22.7582  -31.9654 H   0  0  0  0  0  0  0  0  0  0  0  0
  1  2  1  0
  2  3  1  0
  3  4  2  0
  4  5  1  0
  5  6  2  0
  6  7  1  0
  7  8  2  0
  8  9  1  0
  9 10  2  0
 10 11  1  0
 11 12  2  0
 12 13  1  0
 13 14  1  0
 14 15  2  0
 14 16  1  0
 16 17  1  0
 17 18  2  0
 18 19  1  0
 19 20  2  0
 20 21  1  0
 21 22  1  0
 22 23  1  0
 20 24  1  0
 24 25  2  0
 13 26  2  0
  8  3  1  0
 26  9  1  0
 25 17  1  0
 23 21  1  0
  1 27  1  0
  1 28  1  0
  1 29  1  0
  4 30  1  0
  5 31  1  0
  6 32  1  0
  7 33  1  0
 10 34  1  0
 11 35  1  0
 12 36  1  0
 18 37  1  0
 19 38  1  0
 21 39  1  0
 22 40  1  0
 22 41  1  0
 23 42  1  0
 23 43  1  0
 24 44  1  0
 25 45  1  0
 26 46  1  0
M  CHG  2   4   1  16  -1
M  END
>  <UniqueID>  (39) 
38

>  <SMILES>  (39) 
COc1[nH+]cccc1-c1cccc(C(=O)[N-]c2ccc(C3CC3)cc2)c1

>  <Energy>  (39) 
329.28793884942166

>  <Genealogy>  (39) 
COc1[nH+]cccc1-c1cccc(C(=O)[N-]c2ccc(C3CC3)cc2)c1 (protonated)
COc1[nH+]cccc1-c1cccc(C(=O)[N-]c2ccc(C3CC3)cc2)c1 (3D coordinates assigned)
COc1[nH+]cccc1-c1cccc(C(=O)[N-]c2ccc(C3CC3)cc2)c1 (nonaromatic ring conformer: 329.28793884942166 kcal/mol)

>  <smiles>  (39) 
COc1ncccc1-c1cccc(C(=O)Nc2ccc(C3CC3)cc2)c1

>  <score_type>  (39) 
oracle

>  <origin>  (39) 
adg

>  <m_score__min__energy>  (39) 
-10.85

>  <m_primary>  (39) 
energy

$$$$
39:0
     RDKit          3D

 56 59  0  0  0  0  0  0  0  0999 V2000
   -8.1731   18.0824  -30.9781 H   0  0  0  0  0  0  0  0  0  0  0  0
   -7.6580   18.7660  -31.6690 C   0  0  0  0  0  0  0  0  0  0  0  0
   -8.0070   20.0710  -31.6450 C   0  0  0  0  0  0  0  0  0  0  0  0
   -6.9510   21.1170  -31.7440 C   0  0  0  0  0  0  0  0  0  0  0  0
   -5.7340   20.7870  -31.6800 O   0  0  0  0  0  0  0  0  0  0  0  0
   -7.3210   22.5500  -31.9140 C   0  0  0  0  0  0  0  0  0  0  0  0
   -6.3530   23.4880  -32.0060 C   0  0  0  0  0  0  0  0  0  0  0  0
   -6.3534   24.1345  -32.8959 H   0  0  0  0  0  0  0  0  0  0  0  0
   -5.2930   23.7100  -30.9990 C   0  0  0  0  0  0  0  0  0  0  0  0
   -3.9930   23.2080  -31.1830 C   0  0  0  0  0  0  0  0  0  0  0  0
   -3.7426   22.6609  -32.1038 H   0  0  0  0  0  0  0  0  0  0  0  0
   -3.0170   23.4010  -30.2010 C   0  0  0  0  0  0  0  0  0  0  0  0
   -1.9993   23.0143  -30.3587 H   0  0  0  0  0  0  0  0  0  0  0  0
   -3.3270   24.0850  -29.0150 C   0  0  0  0  0  0  0  0  0  0  0  0
   -2.3190   24.2740  -28.0020 N   0  0  0  0  0  0  0  0  0  0  0  0
   -0.9370   23.8340  -28.2390 C   0  0  0  0  0  0  0  0  0  0  0  0
   -0.9403   23.0332  -28.9931 H   0  0  0  0  0  0  0  0  0  0  0  0
   -0.3534   24.6975  -28.5907 H   0  0  0  0  0  0  0  0  0  0  0  0
   -0.2860   23.3010  -26.9410 C   0  0  0  0  0  0  0  0  0  0  0  0
   -0.1225   22.2191  -27.0539 H   0  0  0  0  0  0  0  0  0  0  0  0
    0.6533   23.8564  -26.8021 H   0  0  0  0  0  0  0  0  0  0  0  0
   -1.0690   23.5160  -25.7780 O   0  0  0  0  0  0  0  0  0  0  0  0
   -1.5310   24.8490  -25.7440 C   0  0  0  0  0  0  0  0  0  0  0  0
   -1.9289   25.0741  -24.7435 H   0  0  0  0  0  0  0  0  0  0  0  0
   -0.6988   25.5322  -25.9689 H   0  0  0  0  0  0  0  0  0  0  0  0
   -2.6360   25.0300  -26.7850 C   0  0  0  0  0  0  0  0  0  0  0  0
   -3.5880   24.6672  -26.3703 H   0  0  0  0  0  0  0  0  0  0  0  0
   -2.7172   26.0974  -27.0382 H   0  0  0  0  0  0  0  0  0  0  0  0
   -4.6370   24.5520  -28.8170 C   0  0  0  0  0  0  0  0  0  0  0  0
   -4.8967   25.0726  -27.8835 H   0  0  0  0  0  0  0  0  0  0  0  0
   -5.6120   24.3590  -29.7990 C   0  0  0  0  0  0  0  0  0  0  0  0
   -6.6373   24.7192  -29.6288 H   0  0  0  0  0  0  0  0  0  0  0  0
   -8.7900   22.9080  -32.0040 C   0  0  0  0  0  0  0  0  0  0  0  0
   -9.1033   22.8742  -33.0579 H   0  0  0  0  0  0  0  0  0  0  0  0
   -8.9278   23.9177  -31.5898 H   0  0  0  0  0  0  0  0  0  0  0  0
   -9.6490   21.9330  -31.1970 C   0  0  0  0  0  0  0  0  0  0  0  0
  -10.7072   22.2136  -31.3041 H   0  0  0  0  0  0  0  0  0  0  0  0
   -9.3388   21.9854  -30.1429 H   0  0  0  0  0  0  0  0  0  0  0  0
   -9.4620   20.4970  -31.6860 C   0  0  0  0  0  0  0  0  0  0  0  0
   -9.8250   20.4238  -32.7218 H   0  0  0  0  0  0  0  0  0  0  0  0
  -10.0308   19.8327  -31.0188 H   0  0  0  0  0  0  0  0  0  0  0  0
   -6.6310   18.2000  -32.5620 C   0  0  0  0  0  0  0  0  0  0  0  0
   -6.4160   18.7370  -33.8410 C   0  0  0  0  0  0  0  0  0  0  0  0
   -6.9994   19.6076  -34.1753 H   0  0  0  0  0  0  0  0  0  0  0  0
   -5.4630   18.1690  -34.6910 C   0  0  0  0  0  0  0  0  0  0  0  0
   -5.2879   18.6020  -35.6869 H   0  0  0  0  0  0  0  0  0  0  0  0
   -4.7310   17.0500  -34.2770 C   0  0  0  0  0  0  0  0  0  0  0  0
   -3.5110   16.3190  -35.3680 S   0  0  0  0  0  0  0  0  0  0  0  0
   -3.0310   15.0350  -34.1710 C   0  0  0  0  0  0  0  0  0  0  0  0
   -3.1732   15.4153  -33.1487 H   0  0  0  0  0  0  0  0  0  0  0  0
   -3.6561   14.1423  -34.3204 H   0  0  0  0  0  0  0  0  0  0  0  0
   -1.9736   14.7713  -34.3204 H   0  0  0  0  0  0  0  0  0  0  0  0
   -4.9650   16.4930  -33.0140 C   0  0  0  0  0  0  0  0  0  0  0  0
   -4.3988   15.6068  -32.6914 H   0  0  0  0  0  0  0  0  0  0  0  0
   -5.9170   17.0610  -32.1620 C   0  0  0  0  0  0  0  0  0  0  0  0
   -6.1065   16.6133  -31.1752 H   0  0  0  0  0  0  0  0  0  0  0  0
  1  2  1  0
  2  3  2  0
  3  4  1  0
  4  5  2  0
  4  6  1  0
  6  7  2  0
  7  8  1  0
  7  9  1  0
  9 10  2  0
 10 11  1  0
 10 12  1  0
 12 13  1  0
 12 14  2  0
 14 15  1  0
 15 16  1  0
 16 17  1  0
 16 18  1  0
 16 19  1  0
 19 20  1  0
 19 21  1  0
 19 22  1  0
 22 23  1  0
 23 24  1  0
 23 25  1  0
 23 26  1  0
 26 27  1  0
 26 28  1  0
 14 29  1  0
 29 30  1  0
 29 31  2  0
 31 32  1  0
  6 33  1  0
 33 34  1  0
 33 35  1  0
 33 36  1  0
 36 37  1  0
 36 38  1  0
 36 39  1  0
 39 40  1  0
 39 41  1  0
  2 42  1  0
 42 43  2  0
 43 44  1  0
 43 45  1  0
 45 46  1  0
 45 47  2  0
 47 48  1  0
 48 49  1  0
 49 50  1  0
 49 51  1  0
 49 52  1  0
 47 53  1  0
 53 54  1  0
 53 55  2  0
 55 56  1  0
 39  3  1  0
 55 42  1  0
 31  9  1  0
 26 15  1  0
M  END
>  <UniqueID>  (40) 
39

>  <SMILES>  (40) 
CSc1ccc(/C=C2\CCC/C(=C\c3ccc(N4CCOCC4)cc3)C2=O)cc1

>  <Energy>  (40) 
79.6021772611466

>  <Genealogy>  (40) 
CSc1ccc(/C=C2\CCC/C(=C\c3ccc(N4CCOCC4)cc3)C2=O)cc1 (cis-trans isomerization)
CSc1ccc(/C=C2\CCC/C(=C\c3ccc(N4CCOCC4)cc3)C2=O)cc1 (3D coordinates assigned)
CSc1ccc(/C=C2\CCC/C(=C\c3ccc(N4CCOCC4)cc3)C2=O)cc1 (nonaromatic ring conformer: 79.6021772611466 kcal/mol)

>  <smiles>  (40) 
CSc1ccc(C=C2CCCC(=Cc3ccc(N4CCOCC4)cc3)C2=O)cc1

>  <score_type>  (40) 
oracle

>  <origin>  (40) 
adg

>  <m_score__min__energy>  (40) 
-10.48

>  <m_primary>  (40) 
energy

$$$$
40:0
     RDKit          3D

 61 65  0  0  0  0  0  0  0  0999 V2000
    1.1000   27.9870  -23.3200 C   0  0  0  0  0  0  0  0  0  0  0  0
    0.1610   26.7830  -23.3530 C   0  0  0  0  0  0  0  0  0  0  0  0
   -0.5720   26.7190  -24.6250 N   0  0  0  0  0  0  0  0  0  0  0  0
   -1.1790   27.9480  -25.1690 C   0  0  0  0  0  0  0  0  0  0  0  0
   -0.4750   28.4110  -26.4410 C   0  0  0  0  0  0  0  0  0  0  0  0
   -0.4910   25.5250  -25.4330 C   0  0  0  0  0  0  0  0  0  0  0  0
    0.4980   24.7500  -25.3140 O   0  0  0  0  0  0  0  0  0  0  0  0
   -1.5410   25.1760  -26.4040 C   0  0  0  0  0  0  0  0  0  0  0  0
   -2.8530   24.9310  -25.9750 C   0  0  0  0  0  0  0  0  0  0  0  0
   -3.8410   24.6020  -26.9040 C   0  0  0  0  0  0  0  0  0  0  0  0
   -3.5120   24.5430  -28.2620 C   0  0  0  0  0  0  0  0  0  0  0  0
   -4.5050   24.2180  -29.2330 N   0  0  0  0  0  0  0  0  0  0  0  0
   -5.8700   24.6580  -29.6120 C   0  0  0  0  0  0  0  0  0  0  0  0
   -6.1220   23.5160  -30.5770 C   0  0  1  0  0  0  0  0  0  0  0  0
   -6.1970   22.8680  -31.9580 C   0  0  0  0  0  0  0  0  0  0  0  0
   -5.2110   21.7780  -31.8380 N   0  0  0  0  0  0  0  0  0  0  0  0
   -5.0290   20.7540  -32.8270 C   0  0  0  0  0  0  0  0  0  0  0  0
   -4.4620   21.0370  -33.9170 O   0  0  0  0  0  0  0  0  0  0  0  0
   -5.4690   19.3670  -32.5830 C   0  0  0  0  0  0  0  0  0  0  0  0
   -4.5530   18.3280  -32.8050 C   0  0  0  0  0  0  0  0  0  0  0  0
   -4.8870   17.0080  -32.5030 C   0  0  0  0  0  0  0  0  0  0  0  0
   -3.9860   16.0170  -32.7060 F   0  0  0  0  0  0  0  0  0  0  0  0
   -6.1420   16.7120  -31.9700 C   0  0  0  0  0  0  0  0  0  0  0  0
   -7.0760   17.7300  -31.7670 C   0  0  0  0  0  0  0  0  0  0  0  0
   -6.7640   19.0610  -32.0900 C   0  0  0  0  0  0  0  0  0  0  0  0
   -7.7800   20.0680  -31.9430 N   0  0  0  0  0  0  0  0  0  0  0  0
   -7.9720   20.7560  -30.8270 N   0  0  0  0  0  0  0  0  0  0  0  0
   -9.0210   21.5680  -31.0600 C   0  0  0  0  0  0  0  0  0  0  0  0
   -9.4660   21.3370  -32.3450 C   0  0  0  0  0  0  0  0  0  0  0  0
   -8.6740   20.3880  -32.8670 N   0  0  0  0  0  0  0  0  0  0  0  0
   -4.2940   22.0350  -30.7200 C   0  0  0  0  0  0  0  0  0  0  0  0
   -4.6210   23.4810  -30.4850 C   0  0  2  0  0  0  0  0  0  0  0  0
   -2.2410   24.8090  -28.6630 N   0  0  0  0  0  0  0  0  0  0  0  0
   -1.2580   25.1190  -27.7760 C   0  0  0  0  0  0  0  0  0  0  0  0
    1.3117   28.2584  -22.2752 H   0  0  0  0  0  0  0  0  0  0  0  0
    2.0406   27.7326  -23.8305 H   0  0  0  0  0  0  0  0  0  0  0  0
    0.6241   28.8372  -23.8305 H   0  0  0  0  0  0  0  0  0  0  0  0
    0.7519   25.8631  -23.2321 H   0  0  0  0  0  0  0  0  0  0  0  0
   -0.5671   26.8850  -22.5348 H   0  0  0  0  0  0  0  0  0  0  0  0
   -2.2367   27.7516  -25.3985 H   0  0  0  0  0  0  0  0  0  0  0  0
   -1.0798   28.7420  -24.4143 H   0  0  0  0  0  0  0  0  0  0  0  0
    0.4166   28.9973  -26.1739 H   0  0  0  0  0  0  0  0  0  0  0  0
   -0.1735   27.5343  -27.0331 H   0  0  0  0  0  0  0  0  0  0  0  0
   -1.1605   29.0351  -27.0331 H   0  0  0  0  0  0  0  0  0  0  0  0
   -3.1037   24.9981  -24.9060 H   0  0  0  0  0  0  0  0  0  0  0  0
   -4.8681   24.3912  -26.5715 H   0  0  0  0  0  0  0  0  0  0  0  0
   -6.5692   24.6628  -28.7628 H   0  0  0  0  0  0  0  0  0  0  0  0
   -5.9860   25.6826  -29.9952 H   0  0  0  0  0  0  0  0  0  0  0  0
   -7.1663   23.2297  -30.3835 H   0  0  0  0  0  0  0  0  0  0  0  0
   -7.2043   22.4754  -32.1613 H   0  0  0  0  0  0  0  0  0  0  0  0
   -5.9923   23.5626  -32.7860 H   0  0  0  0  0  0  0  0  0  0  0  0
   -3.5610   18.5567  -33.2216 H   0  0  0  0  0  0  0  0  0  0  0  0
   -6.3963   15.6741  -31.7090 H   0  0  0  0  0  0  0  0  0  0  0  0
   -8.0648   17.4875  -31.3505 H   0  0  0  0  0  0  0  0  0  0  0  0
   -9.4487   22.2901  -30.3489 H   0  0  0  0  0  0  0  0  0  0  0  0
  -10.3089   21.8354  -32.8460 H   0  0  0  0  0  0  0  0  0  0  0  0
   -8.7720   19.9500  -33.8090 H   0  0  0  0  0  0  0  0  0  0  0  0
   -4.5248   21.4111  -29.8439 H   0  0  0  0  0  0  0  0  0  0  0  0
   -3.2342   21.8122  -30.9131 H   0  0  0  0  0  0  0  0  0  0  0  0
   -3.8832   23.9386  -31.1605 H   0  0  0  0  0  0  0  0  0  0  0  0
   -0.2391   25.3254  -28.1355 H   0  0  0  0  0  0  0  0  0  0  0  0
  1  2  1  0
  2  3  1  0
  3  4  1  0
  4  5  1  0
  3  6  1  0
  6  7  2  0
  6  8  1  0
  8  9  2  0
  9 10  1  0
 10 11  2  0
 11 12  1  0
 12 13  1  0
 13 14  1  0
 14 15  1  0
 15 16  1  0
 16 17  1  0
 17 18  2  0
 17 19  1  0
 19 20  2  0
 20 21  1  0
 21 22  1  0
 21 23  2  0
 23 24  1  0
 24 25  2  0
 25 26  1  0
 26 27  1  0
 27 28  2  0
 28 29  1  0
 29 30  2  0
 16 31  1  0
 31 32  1  0
 11 33  1  0
 33 34  2  0
 34  8  1  0
 32 12  1  0
 32 14  1  0
 25 19  1  0
 30 26  1  0
  1 35  1  0
  1 36  1  0
  1 37  1  0
  2 38  1  0
  2 39  1  0
  4 40  1  0
  4 41  1  0
  5 42  1  0
  5 43  1  0
  5 44  1  0
  9 45  1  0
 10 46  1  0
 13 47  1  0
 13 48  1  0
 14 49  1  1
 15 50  1  0
 15 51  1  0
 20 52  1  0
 23 53  1  0
 24 54  1  0
 28 55  1  0
 29 56  1  0
 30 57  1  0
 31 58  1  0
 31 59  1  0
 32 60  1  6
 34 61  1  0
M  CHG  1  30   1
M  END
>  <UniqueID>  (41) 
40

>  <SMILES>  (41) 
CCN(CC)C(=O)c1ccc(N2C[C@H]3CN(C(=O)c4cc(F)ccc4-n4ncc[nH+]4)C[C@@H]32)nc1

>  <Energy>  (41) 
235.20858153885132

>  <Genealogy>  (41) 
CCN(CC)C(=O)c1ccc(N2CC3CN(C(=O)c4cc(F)ccc4-n4ncc[nH+]4)CC32)nc1 (protonated)
CCN(CC)C(=O)c1ccc(N2C[C@H]3CN(C(=O)c4cc(F)ccc4-n4ncc[nH+]4)C[C@@H]32)nc1 (chirality)
CCN(CC)C(=O)c1ccc(N2C[C@H]3CN(C(=O)c4cc(F)ccc4-n4ncc[nH+]4)C[C@@H]32)nc1 (3D coordinates assigned)
CCN(CC)C(=O)c1ccc(N2C[C@H]3CN(C(=O)c4cc(F)ccc4-n4ncc[nH+]4)C[C@@H]32)nc1 (nonaromatic ring conformer: 235.20858153885132 kcal/mol)

>  <smiles>  (41) 
CCN(CC)C(=O)c1ccc(N2CC3CN(C(=O)c4cc(F)ccc4-n4nccn4)CC32)nc1

>  <score_type>  (41) 
oracle

>  <origin>  (41) 
adg

>  <m_score__min__energy>  (41) 
-9.0500000000000007

>  <m_primary>  (41) 
energy

$$$$
41:0
     RDKit          3D

 41 43  0  0  0  0  0  0  0  0999 V2000
   -9.4130   22.6760  -31.9640 C   0  0  0  0  0  0  0  0  0  0  0  0
   -9.8240   21.2070  -31.9690 C   0  0  0  0  0  0  0  0  0  0  0  0
   -8.6270   20.3270  -32.1330 C   0  0  0  0  0  0  0  0  0  0  0  0
   -7.4990   20.7130  -32.7660 N   0  0  0  0  0  0  0  0  0  0  0  0
   -6.5800   19.7110  -32.8360 C   0  0  0  0  0  0  0  0  0  0  0  0
   -5.2610   19.9320  -33.4740 C   0  0  0  0  0  0  0  0  0  0  0  0
   -4.8290   19.0520  -34.2680 O   0  0  0  0  0  0  0  0  0  0  0  0
   -4.5030   21.1520  -33.2650 N   0  0  0  0  0  0  0  0  0  0  0  0
   -5.1390   22.0170  -32.2300 C   0  0  0  0  0  0  0  0  0  0  0  0
   -4.4700   21.8990  -30.8530 C   0  0  0  0  0  0  0  0  0  0  0  0
   -3.0360   22.1950  -30.9650 N   0  0  0  0  0  0  0  0  0  0  0  0
   -2.2970   22.6640  -29.8170 C   0  0  0  0  0  0  0  0  0  0  0  0
   -1.5140   21.7670  -29.0650 C   0  0  0  0  0  0  0  0  0  0  0  0
   -0.7900   22.2130  -27.9560 C   0  0  0  0  0  0  0  0  0  0  0  0
   -0.8400   23.5580  -27.5820 C   0  0  0  0  0  0  0  0  0  0  0  0
   -1.6160   24.4570  -28.3150 C   0  0  0  0  0  0  0  0  0  0  0  0
   -2.3430   24.0190  -29.4260 C   0  0  0  0  0  0  0  0  0  0  0  0
   -3.1160   24.9110  -30.0950 F   0  0  0  0  0  0  0  0  0  0  0  0
   -2.3520   21.9180  -32.2340 C   0  0  0  0  0  0  0  0  0  0  0  0
   -3.0850   20.8040  -32.9890 C   0  0  0  0  0  0  0  0  0  0  0  0
   -6.9860   18.5060  -32.2540 C   0  0  0  0  0  0  0  0  0  0  0  0
   -8.5410   18.7210  -31.6510 S   0  0  0  0  0  0  0  0  0  0  0  0
   -9.3151   23.0258  -30.9257 H   0  0  0  0  0  0  0  0  0  0  0  0
   -8.4488   22.7888  -32.4813 H   0  0  0  0  0  0  0  0  0  0  0  0
  -10.1787   23.2727  -32.4813 H   0  0  0  0  0  0  0  0  0  0  0  0
  -10.3213   20.9674  -31.0176 H   0  0  0  0  0  0  0  0  0  0  0  0
  -10.5102   21.0333  -32.8110 H   0  0  0  0  0  0  0  0  0  0  0  0
   -4.5250   21.7080  -34.1510 H   0  0  0  0  0  0  0  0  0  0  0  0
   -5.0756   23.0639  -32.5615 H   0  0  0  0  0  0  0  0  0  0  0  0
   -6.1811   21.6829  -32.1183 H   0  0  0  0  0  0  0  0  0  0  0  0
   -4.9364   22.6135  -30.1588 H   0  0  0  0  0  0  0  0  0  0  0  0
   -4.5990   20.8740  -30.4752 H   0  0  0  0  0  0  0  0  0  0  0  0
   -1.4719   20.7062  -29.3530 H   0  0  0  0  0  0  0  0  0  0  0  0
   -0.1800   21.5041  -27.3769 H   0  0  0  0  0  0  0  0  0  0  0  0
   -0.2680   23.9084  -26.7102 H   0  0  0  0  0  0  0  0  0  0  0  0
   -1.6558   25.5152  -28.0172 H   0  0  0  0  0  0  0  0  0  0  0  0
   -2.3414   22.8298  -32.8493 H   0  0  0  0  0  0  0  0  0  0  0  0
   -1.3204   21.5972  -32.0270 H   0  0  0  0  0  0  0  0  0  0  0  0
   -2.5712   20.6267  -33.9453 H   0  0  0  0  0  0  0  0  0  0  0  0
   -3.0751   19.9042  -32.3564 H   0  0  0  0  0  0  0  0  0  0  0  0
   -6.3930   17.5811  -32.2002 H   0  0  0  0  0  0  0  0  0  0  0  0
  1  2  1  0
  2  3  1  0
  3  4  2  0
  4  5  1  0
  5  6  1  0
  6  7  2  0
  6  8  1  0
  8  9  1  0
  9 10  1  0
 10 11  1  0
 11 12  1  0
 12 13  2  0
 13 14  1  0
 14 15  2  0
 15 16  1  0
 16 17  2  0
 17 18  1  0
 11 19  1  0
 19 20  1  0
  5 21  2  0
 21 22  1  0
 22  3  1  0
 20  8  1  0
 17 12  1  0
  1 23  1  0
  1 24  1  0
  1 25  1  0
  2 26  1  0
  2 27  1  0
  8 28  1  0
  9 29  1  0
  9 30  1  0
 10 31  1  0
 10 32  1  0
 13 33  1  0
 14 34  1  0
 15 35  1  0
 16 36  1  0
 19 37  1  0
 19 38  1  0
 20 39  1  0
 20 40  1  0
 21 41  1  0
M  CHG  1   8   1
M  END
>  <UniqueID>  (42) 
41

>  <SMILES>  (42) 
CCc1nc(C(=O)[NH+]2CCN(c3ccccc3F)CC2)cs1

>  <Energy>  (42) 
81.24381435645624

>  <Genealogy>  (42) 
CCc1nc(C(=O)[NH+]2CCN(c3ccccc3F)CC2)cs1 (protonated)
CCc1nc(C(=O)[NH+]2CCN(c3ccccc3F)CC2)cs1 (3D coordinates assigned)
CCc1nc(C(=O)[NH+]2CCN(c3ccccc3F)CC2)cs1 (nonaromatic ring conformer: 81.24381435645624 kcal/mol)

>  <smiles>  (42) 
CCc1nc(C(=O)N2CCN(c3ccccc3F)CC2)cs1

>  <score_type>  (42) 
oracle

>  <origin>  (42) 
adg

>  <m_score__min__energy>  (42) 
-7.2599999999999998

>  <m_primary>  (42) 
energy

$$$$
42:0
     RDKit          3D

 53 56  0  0  0  0  0  0  0  0999 V2000
    1.3450   17.0860  -27.9650 C   0  0  0  0  0  0  0  0  0  0  0  0
    0.8080   18.4040  -28.0020 O   0  0  0  0  0  0  0  0  0  0  0  0
   -0.4460   18.7740  -27.4820 C   0  0  0  0  0  0  0  0  0  0  0  0
   -1.2460   17.8550  -26.7730 C   0  0  0  0  0  0  0  0  0  0  0  0
   -2.4840   18.2460  -26.2560 C   0  0  0  0  0  0  0  0  0  0  0  0
   -2.9390   19.5510  -26.4370 C   0  0  0  0  0  0  0  0  0  0  0  0
   -2.1600   20.4730  -27.1350 C   0  0  0  0  0  0  0  0  0  0  0  0
   -0.9120   20.0990  -27.6710 C   0  0  0  0  0  0  0  0  0  0  0  0
   -0.1270   21.0700  -28.4010 N   0  0  0  0  0  0  0  0  0  0  0  0
   -0.9410   22.2060  -28.7440 C   0  0  0  0  0  0  0  0  0  0  0  0
   -2.3240   22.0900  -29.6930 S   0  0  0  0  0  0  0  0  0  0  0  0
   -2.6720   23.7330  -29.7340 C   0  0  0  0  0  0  0  0  0  0  0  0
   -3.8760   24.3110  -30.3700 C   0  0  0  0  0  0  0  0  0  0  0  0
   -3.9570   25.5630  -30.5040 O   0  0  0  0  0  0  0  0  0  0  0  0
   -5.0150   23.4670  -30.8040 C   0  0  0  0  0  0  0  0  0  0  0  0
   -4.9030   22.6140  -31.9190 C   0  0  0  0  0  0  0  0  0  0  0  0
   -5.9920   21.8370  -32.3260 C   0  0  0  0  0  0  0  0  0  0  0  0
   -7.2030   21.9060  -31.6310 C   0  0  0  0  0  0  0  0  0  0  0  0
   -7.3300   22.7590  -30.5320 C   0  0  0  0  0  0  0  0  0  0  0  0
   -6.2440   23.5400  -30.1210 C   0  0  0  0  0  0  0  0  0  0  0  0
   -1.6880   24.4100  -29.0040 C   0  0  0  0  0  0  0  0  0  0  0  0
   -1.6070   25.8420  -28.9540 N   0  0  0  0  0  0  0  0  0  0  0  0
   -0.7220   23.5560  -28.4150 C   0  0  0  0  0  0  0  0  0  0  0  0
    0.5980   24.1640  -27.3920 S   0  0  0  0  0  0  0  0  0  0  0  0
    1.2950   22.9950  -26.7540 O   0  0  0  0  0  0  0  0  0  0  0  0
    1.6320   24.9200  -28.1760 O   0  0  0  0  0  0  0  0  0  0  0  0
   -0.0760   25.2230  -26.1570 C   0  0  0  0  0  0  0  0  0  0  0  0
   -0.3600   26.5680  -26.4410 C   0  0  0  0  0  0  0  0  0  0  0  0
   -0.8920   27.3990  -25.4500 C   0  0  0  0  0  0  0  0  0  0  0  0
   -1.1420   26.8910  -24.1720 C   0  0  0  0  0  0  0  0  0  0  0  0
   -0.8610   25.5530  -23.8850 C   0  0  0  0  0  0  0  0  0  0  0  0
   -0.3280   24.7190  -24.8730 C   0  0  0  0  0  0  0  0  0  0  0  0
    1.4731   16.7715  -26.9187 H   0  0  0  0  0  0  0  0  0  0  0  0
    0.6566   16.3952  -28.4738 H   0  0  0  0  0  0  0  0  0  0  0  0
    2.3201   17.0730  -28.4738 H   0  0  0  0  0  0  0  0  0  0  0  0
   -0.8935   16.8235  -26.6258 H   0  0  0  0  0  0  0  0  0  0  0  0
   -3.1013   17.5216  -25.7045 H   0  0  0  0  0  0  0  0  0  0  0  0
   -3.9143   19.8540  -26.0285 H   0  0  0  0  0  0  0  0  0  0  0  0
   -2.5235   21.5026  -27.2685 H   0  0  0  0  0  0  0  0  0  0  0  0
    0.2450   20.6740  -29.2930 H   0  0  0  0  0  0  0  0  0  0  0  0
    0.7060   21.3360  -27.8390 H   0  0  0  0  0  0  0  0  0  0  0  0
   -3.9540   22.5587  -32.4725 H   0  0  0  0  0  0  0  0  0  0  0  0
   -5.8955   21.1698  -33.1952 H   0  0  0  0  0  0  0  0  0  0  0  0
   -8.0559   21.2886  -31.9495 H   0  0  0  0  0  0  0  0  0  0  0  0
   -8.2849   22.8168  -29.9890 H   0  0  0  0  0  0  0  0  0  0  0  0
   -6.3512   24.2150  -29.2591 H   0  0  0  0  0  0  0  0  0  0  0  0
   -2.4620   26.4360  -28.9680 H   0  0  0  0  0  0  0  0  0  0  0  0
   -0.6980   26.3410  -29.0740 H   0  0  0  0  0  0  0  0  0  0  0  0
   -0.1635   26.9696  -27.4461 H   0  0  0  0  0  0  0  0  0  0  0  0
   -1.1137   28.4524  -25.6762 H   0  0  0  0  0  0  0  0  0  0  0  0
   -1.5600   27.5447  -23.3923 H   0  0  0  0  0  0  0  0  0  0  0  0
   -1.0595   25.1544  -22.8792 H   0  0  0  0  0  0  0  0  0  0  0  0
   -0.1062   23.6665  -24.6426 H   0  0  0  0  0  0  0  0  0  0  0  0
  1  2  1  0
  2  3  1  0
  3  4  2  0
  4  5  1  0
  5  6  2  0
  6  7  1  0
  7  8  2  0
  8  9  1  0
  9 10  1  0
 10 11  1  0
 11 12  1  0
 12 13  1  0
 13 14  2  0
 13 15  1  0
 15 16  2  0
 16 17  1  0
 17 18  2  0
 18 19  1  0
 19 20  2  0
 12 21  2  0
 21 22  1  0
 21 23  1  0
 23 24  1  0
 24 25  2  0
 24 26  2  0
 24 27  1  0
 27 28  2  0
 28 29  1  0
 29 30  2  0
 30 31  1  0
 31 32  2  0
  8  3  1  0
 23 10  2  0
 32 27  1  0
 20 15  1  0
  1 33  1  0
  1 34  1  0
  1 35  1  0
  4 36  1  0
  5 37  1  0
  6 38  1  0
  7 39  1  0
  9 40  1  0
  9 41  1  0
 16 42  1  0
 17 43  1  0
 18 44  1  0
 19 45  1  0
 20 46  1  0
 22 47  1  0
 22 48  1  0
 28 49  1  0
 29 50  1  0
 30 51  1  0
 31 52  1  0
 32 53  1  0
M  CHG  1   9   1
M  END
>  <UniqueID>  (43) 
42

>  <SMILES>  (43) 
COc1ccccc1[NH2+]c1sc(C(=O)c2ccccc2)c(N)c1S(=O)(=O)c1ccccc1

>  <Energy>  (43) 
98.24681563928553

>  <Genealogy>  (43) 
COc1ccccc1[NH2+]c1sc(C(=O)c2ccccc2)c(N)c1S(=O)(=O)c1ccccc1 (protonated)
COc1ccccc1[NH2+]c1sc(C(=O)c2ccccc2)c(N)c1S(=O)(=O)c1ccccc1 (3D coordinates assigned)
COc1ccccc1[NH2+]c1sc(C(=O)c2ccccc2)c(N)c1S(=O)(=O)c1ccccc1 (optimized conformer: 98.24681563928553 kcal/mol)

>  <smiles>  (43) 
COc1ccccc1Nc1sc(C(=O)c2ccccc2)c(N)c1S(=O)(=O)c1ccccc1

>  <score_type>  (43) 
oracle

>  <origin>  (43) 
adg

>  <m_score__min__energy>  (43) 
-9.6600000000000001

>  <m_primary>  (43) 
energy

$$$$
43:0
     RDKit          3D

 37 39  0  0  0  0  0  0  0  0999 V2000
  -10.1320   21.1740  -31.9680 C   0  0  0  0  0  0  0  0  0  0  0  0
   -8.6410   21.1100  -32.0560 C   0  0  0  0  0  0  0  0  0  0  0  0
   -7.8560   22.1290  -31.5090 C   0  0  0  0  0  0  0  0  0  0  0  0
   -6.4570   22.0320  -31.6020 C   0  0  0  0  0  0  0  0  0  0  0  0
   -5.5890   23.0540  -31.0600 N   0  0  0  0  0  0  0  0  0  0  0  0
   -4.1290   22.8910  -31.0960 C   0  0  0  0  0  0  0  0  0  0  0  0
   -3.4340   23.9560  -30.2410 C   0  0  0  0  0  0  0  0  0  0  0  0
   -3.9050   25.2980  -30.6010 N   0  0  0  0  0  0  0  0  0  0  0  0
   -5.3730   25.4650  -30.5090 C   0  0  0  0  0  0  0  0  0  0  0  0
   -6.1580   24.1600  -30.2740 C   0  0  0  0  0  0  0  0  0  0  0  0
   -5.9180   20.9440  -32.2200 N   0  0  0  0  0  0  0  0  0  0  0  0
   -6.6890   19.9550  -32.7470 C   0  0  0  0  0  0  0  0  0  0  0  0
   -6.0590   18.7870  -33.4080 C   0  0  0  0  0  0  0  0  0  0  0  0
   -4.7590   18.8810  -33.9460 C   0  0  0  0  0  0  0  0  0  0  0  0
   -4.1680   17.7780  -34.5690 C   0  0  0  0  0  0  0  0  0  0  0  0
   -4.8620   16.5700  -34.6630 C   0  0  0  0  0  0  0  0  0  0  0  0
   -6.1500   16.4630  -34.1350 C   0  0  0  0  0  0  0  0  0  0  0  0
   -6.8240   15.2890  -34.2280 F   0  0  0  0  0  0  0  0  0  0  0  0
   -6.7470   17.5630  -33.5110 C   0  0  0  0  0  0  0  0  0  0  0  0
   -8.0430   20.0500  -32.6590 N   0  0  0  0  0  0  0  0  0  0  0  0
  -10.4367   21.1871  -30.9111 H   0  0  0  0  0  0  0  0  0  0  0  0
  -10.4897   22.0883  -32.4641 H   0  0  0  0  0  0  0  0  0  0  0  0
  -10.5667   20.2937  -32.4641 H   0  0  0  0  0  0  0  0  0  0  0  0
   -8.3252   22.9921  -31.0142 H   0  0  0  0  0  0  0  0  0  0  0  0
   -3.8691   21.8944  -30.7098 H   0  0  0  0  0  0  0  0  0  0  0  0
   -3.7904   23.0026  -32.1366 H   0  0  0  0  0  0  0  0  0  0  0  0
   -3.6552   23.7682  -29.1800 H   0  0  0  0  0  0  0  0  0  0  0  0
   -2.3501   23.9016  -30.4202 H   0  0  0  0  0  0  0  0  0  0  0  0
   -3.6040   25.4970  -31.5840 H   0  0  0  0  0  0  0  0  0  0  0  0
   -5.5881   26.1488  -29.6746 H   0  0  0  0  0  0  0  0  0  0  0  0
   -5.7023   25.8533  -31.4841 H   0  0  0  0  0  0  0  0  0  0  0  0
   -6.1148   23.9016  -29.2057 H   0  0  0  0  0  0  0  0  0  0  0  0
   -7.1998   24.3156  -30.5909 H   0  0  0  0  0  0  0  0  0  0  0  0
   -4.2059   19.8292  -33.8749 H   0  0  0  0  0  0  0  0  0  0  0  0
   -3.1537   17.8619  -34.9862 H   0  0  0  0  0  0  0  0  0  0  0  0
   -4.3942   15.7032  -35.1527 H   0  0  0  0  0  0  0  0  0  0  0  0
   -7.7621   17.4712  -33.0974 H   0  0  0  0  0  0  0  0  0  0  0  0
  1  2  1  0
  2  3  2  0
  3  4  1  0
  4  5  1  0
  5  6  1  0
  6  7  1  0
  7  8  1  0
  8  9  1  0
  9 10  1  0
  4 11  2  0
 11 12  1  0
 12 13  1  0
 13 14  2  0
 14 15  1  0
 15 16  2  0
 16 17  1  0
 17 18  1  0
 17 19  2  0
 12 20  2  0
 20  2  1  0
 10  5  1  0
 19 13  1  0
  1 21  1  0
  1 22  1  0
  1 23  1  0
  3 24  1  0
  6 25  1  0
  6 26  1  0
  7 27  1  0
  7 28  1  0
  8 29  1  0
  9 30  1  0
  9 31  1  0
 10 32  1  0
 10 33  1  0
 14 34  1  0
 15 35  1  0
 16 36  1  0
 19 37  1  0
M  END
>  <UniqueID>  (44) 
43

>  <SMILES>  (44) 
Cc1cc(N2CCNCC2)nc(-c2cccc(F)c2)n1

>  <Energy>  (44) 
45.35212758559326

>  <Genealogy>  (44) 
Cc1cc(N2CCNCC2)nc(-c2cccc(F)c2)n1 (3D coordinates assigned)
Cc1cc(N2CCNCC2)nc(-c2cccc(F)c2)n1 (nonaromatic ring conformer: 45.35212758559326 kcal/mol)

>  <smiles>  (44) 
Cc1cc(N2CCNCC2)nc(-c2cccc(F)c2)n1

>  <score_type>  (44) 
oracle

>  <origin>  (44) 
adg

>  <m_score__min__energy>  (44) 
-8.3599999999999994

>  <m_primary>  (44) 
energy

$$$$
44:0
     RDKit          3D

 51 54  0  0  0  0  0  0  0  0999 V2000
   -0.3990   22.3260  -30.7100 F   0  0  0  0  0  0  0  0  0  0  0  0
   -0.8740   21.3000  -31.4590 C   0  0  0  0  0  0  0  0  0  0  0  0
   -1.5480   21.5610  -32.6550 C   0  0  0  0  0  0  0  0  0  0  0  0
   -2.0370   20.5050  -33.4290 C   0  0  0  0  0  0  0  0  0  0  0  0
   -1.8540   19.1770  -33.0090 C   0  0  0  0  0  0  0  0  0  0  0  0
   -2.3690   18.0430  -33.8570 C   0  0  0  0  0  0  0  0  0  0  0  0
   -3.8170   17.8500  -33.6310 N   0  0  0  0  0  0  0  0  0  0  0  0
   -4.5830   18.2740  -34.8240 C   0  0  0  0  0  0  0  0  0  0  0  0
   -6.1140   18.1010  -34.6540 C   0  0  1  0  0  0  0  0  0  0  0  0
   -6.4670   16.7530  -33.9820 C   0  0  0  0  0  0  0  0  0  0  0  0
   -6.0550   16.7050  -32.4890 C   0  0  0  0  0  0  0  0  0  0  0  0
   -5.6890   18.1060  -31.9560 C   0  0  1  0  0  0  0  0  0  0  0  0
   -4.2610   18.5500  -32.4030 C   0  0  0  0  0  0  0  0  0  0  0  0
   -6.7420   19.0460  -32.4020 N   0  0  0  0  0  0  0  0  0  0  0  0
   -6.8160   20.2910  -31.6070 C   0  0  0  0  0  0  0  0  0  0  0  0
   -6.8060   21.5050  -32.5400 C   0  0  0  0  0  0  0  0  0  0  0  0
   -5.9560   22.6080  -31.9680 C   0  0  0  0  0  0  0  0  0  0  0  0
   -6.5070   23.8770  -31.7320 C   0  0  0  0  0  0  0  0  0  0  0  0
   -5.7110   24.8770  -31.1680 C   0  0  0  0  0  0  0  0  0  0  0  0
   -4.4160   24.6180  -30.8440 N   0  0  0  0  0  0  0  0  0  0  0  0
   -3.8610   23.3940  -31.0510 C   0  0  0  0  0  0  0  0  0  0  0  0
   -4.6220   22.3650  -31.6100 C   0  0  0  0  0  0  0  0  0  0  0  0
   -6.7290   19.2860  -33.8640 C   0  0  0  0  0  0  0  0  0  0  0  0
   -1.1750   18.9210  -31.8070 C   0  0  0  0  0  0  0  0  0  0  0  0
   -0.6870   19.9810  -31.0360 C   0  0  0  0  0  0  0  0  0  0  0  0
   -1.6939   22.5992  -32.9878 H   0  0  0  0  0  0  0  0  0  0  0  0
   -2.5668   20.7144  -34.3700 H   0  0  0  0  0  0  0  0  0  0  0  0
   -2.1951   18.2753  -34.9180 H   0  0  0  0  0  0  0  0  0  0  0  0
   -1.8377   17.1201  -33.5813 H   0  0  0  0  0  0  0  0  0  0  0  0
   -4.3697   19.3354  -35.0185 H   0  0  0  0  0  0  0  0  0  0  0  0
   -4.2704   17.6322  -35.6609 H   0  0  0  0  0  0  0  0  0  0  0  0
   -6.5531   18.0960  -35.6626 H   0  0  0  0  0  0  0  0  0  0  0  0
   -7.5538   16.5982  -34.0526 H   0  0  0  0  0  0  0  0  0  0  0  0
   -5.9095   15.9632  -34.5068 H   0  0  0  0  0  0  0  0  0  0  0  0
   -6.8941   16.3067  -31.8997 H   0  0  0  0  0  0  0  0  0  0  0  0
   -5.1692   16.0594  -32.3969 H   0  0  0  0  0  0  0  0  0  0  0  0
   -5.6494   18.0925  -30.8568 H   0  0  0  0  0  0  0  0  0  0  0  0
   -4.2708   19.6329  -32.5962 H   0  0  0  0  0  0  0  0  0  0  0  0
   -3.5592   18.2942  -31.5955 H   0  0  0  0  0  0  0  0  0  0  0  0
   -7.7440   20.2923  -31.0164 H   0  0  0  0  0  0  0  0  0  0  0  0
   -5.9475   20.3437  -30.9340 H   0  0  0  0  0  0  0  0  0  0  0  0
   -6.3998   21.2059  -33.5175 H   0  0  0  0  0  0  0  0  0  0  0  0
   -7.8362   21.8739  -32.6518 H   0  0  0  0  0  0  0  0  0  0  0  0
   -7.5567   24.0825  -31.9889 H   0  0  0  0  0  0  0  0  0  0  0  0
   -6.1329   25.8764  -30.9856 H   0  0  0  0  0  0  0  0  0  0  0  0
   -2.8108   23.2140  -30.7777 H   0  0  0  0  0  0  0  0  0  0  0  0
   -4.1782   21.3710  -31.7684 H   0  0  0  0  0  0  0  0  0  0  0  0
   -7.7633   19.4391  -34.2058 H   0  0  0  0  0  0  0  0  0  0  0  0
   -6.1060   20.1729  -34.0521 H   0  0  0  0  0  0  0  0  0  0  0  0
   -1.0265   17.8842  -31.4708 H   0  0  0  0  0  0  0  0  0  0  0  0
   -0.1551   19.7763  -30.0951 H   0  0  0  0  0  0  0  0  0  0  0  0
  1  2  1  0
  2  3  2  0
  3  4  1  0
  4  5  2  0
  5  6  1  0
  6  7  1  0
  7  8  1  0
  8  9  1  0
  9 10  1  0
 10 11  1  0
 11 12  1  0
 12 13  1  0
 12 14  1  0
 14 15  1  0
 15 16  1  0
 16 17  1  0
 17 18  2  0
 18 19  1  0
 19 20  2  0
 20 21  1  0
 21 22  2  0
 14 23  1  0
  5 24  1  0
 24 25  2  0
 25  2  1  0
 13  7  1  0
 22 17  1  0
 23  9  1  0
  3 26  1  0
  4 27  1  0
  6 28  1  0
  6 29  1  0
  8 30  1  0
  8 31  1  0
  9 32  1  6
 10 33  1  0
 10 34  1  0
 11 35  1  0
 11 36  1  0
 12 37  1  1
 13 38  1  0
 13 39  1  0
 15 40  1  0
 15 41  1  0
 16 42  1  0
 16 43  1  0
 18 44  1  0
 19 45  1  0
 21 46  1  0
 22 47  1  0
 23 48  1  0
 23 49  1  0
 24 50  1  0
 25 51  1  0
M  END
>  <UniqueID>  (45) 
44

>  <SMILES>  (45) 
Fc1ccc(CN2C[C@H]3CC[C@@H](C2)N(CCc2ccncc2)C3)cc1

>  <Energy>  (45) 
71.76330793583264

>  <Genealogy>  (45) 
Fc1ccc(CN2C[C@H]3CC[C@@H](C2)N(CCc2ccncc2)C3)cc1 (chirality)
Fc1ccc(CN2C[C@H]3CC[C@@H](C2)N(CCc2ccncc2)C3)cc1 (3D coordinates assigned)
Fc1ccc(CN2C[C@H]3CC[C@@H](C2)N(CCc2ccncc2)C3)cc1 (nonaromatic ring conformer: 71.76330793583264 kcal/mol)

>  <smiles>  (45) 
Fc1ccc(CN2CC3CCC(C2)N(CCc2ccncc2)C3)cc1

>  <score_type>  (45) 
oracle

>  <origin>  (45) 
adg

>  <m_score__min__energy>  (45) 
-7.0300000000000002

>  <m_primary>  (45) 
energy

$$$$
45:0
     RDKit          3D

 47 50  0  0  0  0  0  0  0  0999 V2000
   -3.5230   21.4530  -30.2300 C   0  0  0  0  0  0  0  0  0  0  0  0
   -3.4240   21.6490  -31.6370 O   0  0  0  0  0  0  0  0  0  0  0  0
   -2.5850   20.9130  -32.4880 C   0  0  0  0  0  0  0  0  0  0  0  0
   -1.2200   21.2280  -32.6380 C   0  0  0  0  0  0  0  0  0  0  0  0
   -0.4020   20.4570  -33.4680 C   0  0  0  0  0  0  0  0  0  0  0  0
   -0.9330   19.3660  -34.1550 C   0  0  0  0  0  0  0  0  0  0  0  0
   -2.2840   19.0450  -34.0200 C   0  0  0  0  0  0  0  0  0  0  0  0
   -3.1220   19.8160  -33.1970 C   0  0  0  0  0  0  0  0  0  0  0  0
   -4.5150   19.4720  -33.0800 N   0  0  0  0  0  0  0  0  0  0  0  0
   -4.9050   18.1150  -32.6930 C   0  0  0  0  0  0  0  0  0  0  0  0
   -6.2340   18.1710  -31.9370 C   0  0  0  0  0  0  0  0  0  0  0  0
   -7.3240   18.7790  -32.7510 N   0  0  0  0  0  0  0  0  0  0  0  0
   -8.3960   19.3540  -31.8970 C   0  0  0  0  0  0  0  0  0  0  0  0
   -8.2750   20.8430  -31.6900 C   0  0  0  0  0  0  0  0  0  0  0  0
   -9.2610   21.7770  -31.9280 C   0  0  0  0  0  0  0  0  0  0  0  0
   -8.7560   22.9560  -31.6640 O   0  0  0  0  0  0  0  0  0  0  0  0
   -7.5140   22.7680  -31.2780 C   0  0  0  0  0  0  0  0  0  0  0  0
   -6.6040   23.8580  -30.9100 C   0  0  0  0  0  0  0  0  0  0  0  0
   -6.8690   24.8880  -30.0350 C   0  0  0  0  0  0  0  0  0  0  0  0
   -5.7320   25.6690  -30.0330 C   0  0  0  0  0  0  0  0  0  0  0  0
   -4.8360   25.1550  -30.8470 O   0  0  0  0  0  0  0  0  0  0  0  0
   -5.3280   24.0650  -31.3910 C   0  0  0  0  0  0  0  0  0  0  0  0
   -7.1580   21.4660  -31.2710 N   0  0  0  0  0  0  0  0  0  0  0  0
   -6.8650   19.7140  -33.8190 C   0  0  0  0  0  0  0  0  0  0  0  0
   -5.5510   20.4350  -33.4750 C   0  0  0  0  0  0  0  0  0  0  0  0
   -3.0865   22.3172  -29.7078 H   0  0  0  0  0  0  0  0  0  0  0  0
   -4.5812   21.3501  -29.9477 H   0  0  0  0  0  0  0  0  0  0  0  0
   -2.9778   20.5403  -29.9477 H   0  0  0  0  0  0  0  0  0  0  0  0
   -0.7952   22.0870  -32.0979 H   0  0  0  0  0  0  0  0  0  0  0  0
    0.6624   20.7111  -33.5796 H   0  0  0  0  0  0  0  0  0  0  0  0
   -0.2860   18.7577  -34.8041 H   0  0  0  0  0  0  0  0  0  0  0  0
   -2.6964   18.1814  -34.5623 H   0  0  0  0  0  0  0  0  0  0  0  0
   -5.0197   17.4940  -33.5937 H   0  0  0  0  0  0  0  0  0  0  0  0
   -4.1299   17.6773  -32.0468 H   0  0  0  0  0  0  0  0  0  0  0  0
   -6.5274   17.1472  -31.6616 H   0  0  0  0  0  0  0  0  0  0  0  0
   -6.0880   18.8009  -31.0471 H   0  0  0  0  0  0  0  0  0  0  0  0
   -7.7790   17.9780  -33.2530 H   0  0  0  0  0  0  0  0  0  0  0  0
   -9.3664   19.1474  -32.3721 H   0  0  0  0  0  0  0  0  0  0  0  0
   -8.3041   18.8839  -30.9068 H   0  0  0  0  0  0  0  0  0  0  0  0
  -10.2838   21.5698  -32.2757 H   0  0  0  0  0  0  0  0  0  0  0  0
   -7.7919   25.0529  -29.4596 H   0  0  0  0  0  0  0  0  0  0  0  0
   -5.5952   26.5849  -29.4393 H   0  0  0  0  0  0  0  0  0  0  0  0
   -4.8061   23.4209  -32.1140 H   0  0  0  0  0  0  0  0  0  0  0  0
   -6.7155   19.1394  -34.7450 H   0  0  0  0  0  0  0  0  0  0  0  0
   -7.6402   20.4865  -33.9300 H   0  0  0  0  0  0  0  0  0  0  0  0
   -5.2055   20.9949  -34.3566 H   0  0  0  0  0  0  0  0  0  0  0  0
   -5.7346   21.1197  -32.6339 H   0  0  0  0  0  0  0  0  0  0  0  0
  1  2  1  0
  2  3  1  0
  3  4  2  0
  4  5  1  0
  5  6  2  0
  6  7  1  0
  7  8  2  0
  8  9  1  0
  9 10  1  0
 10 11  1  0
 11 12  1  0
 12 13  1  0
 13 14  1  0
 14 15  2  0
 15 16  1  0
 16 17  1  0
 17 18  1  0
 18 19  1  0
 19 20  2  0
 20 21  1  0
 21 22  1  0
 17 23  2  0
 12 24  1  0
 24 25  1  0
  8  3  1  0
 25  9  1  0
 23 14  1  0
 22 18  2  0
  1 26  1  0
  1 27  1  0
  1 28  1  0
  4 29  1  0
  5 30  1  0
  6 31  1  0
  7 32  1  0
 10 33  1  0
 10 34  1  0
 11 35  1  0
 11 36  1  0
 12 37  1  0
 13 38  1  0
 13 39  1  0
 15 40  1  0
 19 41  1  0
 20 42  1  0
 22 43  1  0
 24 44  1  0
 24 45  1  0
 25 46  1  0
 25 47  1  0
M  CHG  1  12   1
M  END
>  <UniqueID>  (46) 
45

>  <SMILES>  (46) 
COc1ccccc1N1CC[NH+](Cc2coc(-c3ccoc3)n2)CC1

>  <Energy>  (46) 
116.54879061539506

>  <Genealogy>  (46) 
COc1ccccc1N1CC[NH+](Cc2coc(-c3ccoc3)n2)CC1 (protonated)
COc1ccccc1N1CC[NH+](Cc2coc(-c3ccoc3)n2)CC1 (3D coordinates assigned)
COc1ccccc1N1CC[NH+](Cc2coc(-c3ccoc3)n2)CC1 (nonaromatic ring conformer: 116.54879061539506 kcal/mol)

>  <smiles>  (46) 
COc1ccccc1N1CCN(Cc2coc(-c3ccoc3)n2)CC1

>  <score_type>  (46) 
oracle

>  <origin>  (46) 
adg

>  <m_score__min__energy>  (46) 
-7.8799999999999999

>  <m_primary>  (46) 
energy

$$$$
46:0
     RDKit          3D

 54 58  0  0  0  0  0  0  0  0999 V2000
   -5.7610   24.7090  -29.7000 C   0  0  0  0  0  0  0  0  0  0  0  0
   -6.0960   24.6610  -31.1870 C   0  0  0  0  0  0  0  0  0  0  0  0
   -6.1540   23.2740  -31.6470 N   0  0  0  0  0  0  0  0  0  0  0  0
   -5.1140   22.5320  -32.0940 C   0  0  0  0  0  0  0  0  0  0  0  0
   -5.5580   21.2780  -32.5120 C   0  0  0  0  0  0  0  0  0  0  0  0
   -4.7030   20.2090  -33.0600 C   0  0  0  0  0  0  0  0  0  0  0  0
   -3.4440   20.5170  -33.4630 N   0  0  0  0  0  0  0  0  0  0  0  0
   -2.6310   19.5690  -33.9980 C   0  0  0  0  0  0  0  0  0  0  0  0
   -1.2900   19.9040  -34.4140 N   0  0  0  0  0  0  0  0  0  0  0  0
   -0.6920   21.1820  -34.0010 C   0  0  0  0  0  0  0  0  0  0  0  0
    0.4230   21.5900  -34.9730 C   0  0  0  0  0  0  0  0  0  0  0  0
    1.3440   20.5320  -35.1560 O   0  0  0  0  0  0  0  0  0  0  0  0
    0.6980   19.4530  -35.8030 C   0  0  0  0  0  0  0  0  0  0  0  0
   -0.3920   18.8500  -34.9090 C   0  0  0  0  0  0  0  0  0  0  0  0
   -3.0970   18.3000  -34.1310 N   0  0  0  0  0  0  0  0  0  0  0  0
   -4.3570   17.9730  -33.7390 C   0  0  0  0  0  0  0  0  0  0  0  0
   -4.8170   16.6160  -33.8880 N   0  0  0  0  0  0  0  0  0  0  0  0
   -6.1910   16.2490  -34.2070 C   0  0  0  0  0  0  0  0  0  0  0  0
   -6.2280   14.7290  -34.2170 C   0  0  0  0  0  0  0  0  0  0  0  0
   -4.9180   14.2650  -33.5720 C   0  0  0  0  0  0  0  0  0  0  0  0
   -3.9850   15.4700  -33.5680 C   0  0  0  0  0  0  0  0  0  0  0  0
   -5.1660   18.9370  -33.2120 N   0  0  0  0  0  0  0  0  0  0  0  0
   -6.9290   21.2720  -32.2930 C   0  0  0  0  0  0  0  0  0  0  0  0
   -7.9110   20.2900  -32.4430 C   0  0  0  0  0  0  0  0  0  0  0  0
   -9.2290   20.6310  -32.0960 C   0  0  0  0  0  0  0  0  0  0  0  0
   -9.5120   21.9190  -31.5930 C   0  0  0  0  0  0  0  0  0  0  0  0
   -8.5150   22.8380  -31.4340 N   0  0  0  0  0  0  0  0  0  0  0  0
   -7.2470   22.5020  -31.7820 C   0  0  0  0  0  0  0  0  0  0  0  0
   -6.6815   24.5771  -29.1123 H   0  0  0  0  0  0  0  0  0  0  0  0
   -5.0526   23.9032  -29.4575 H   0  0  0  0  0  0  0  0  0  0  0  0
   -5.3073   25.6813  -29.4575 H   0  0  0  0  0  0  0  0  0  0  0  0
   -7.0714   25.1408  -31.3554 H   0  0  0  0  0  0  0  0  0  0  0  0
   -5.3139   25.1930  -31.7485 H   0  0  0  0  0  0  0  0  0  0  0  0
   -4.0676   22.8700  -32.1234 H   0  0  0  0  0  0  0  0  0  0  0  0
   -1.4693   21.9603  -33.9939 H   0  0  0  0  0  0  0  0  0  0  0  0
   -0.2633   21.0665  -32.9946 H   0  0  0  0  0  0  0  0  0  0  0  0
   -0.0231   21.8513  -35.9439 H   0  0  0  0  0  0  0  0  0  0  0  0
    0.9584   22.4537  -34.5518 H   0  0  0  0  0  0  0  0  0  0  0  0
    0.2395   19.8148  -36.7351 H   0  0  0  0  0  0  0  0  0  0  0  0
    1.4453   18.6750  -36.0181 H   0  0  0  0  0  0  0  0  0  0  0  0
   -0.9751   18.1205  -35.4903 H   0  0  0  0  0  0  0  0  0  0  0  0
    0.0844   18.3547  -34.0501 H   0  0  0  0  0  0  0  0  0  0  0  0
   -6.8786   16.6429  -33.4441 H   0  0  0  0  0  0  0  0  0  0  0  0
   -6.5045   16.6657  -35.1755 H   0  0  0  0  0  0  0  0  0  0  0  0
   -7.0886   14.3647  -33.6368 H   0  0  0  0  0  0  0  0  0  0  0  0
   -6.3318   14.3374  -35.2397 H   0  0  0  0  0  0  0  0  0  0  0  0
   -5.1017   13.9236  -32.5426 H   0  0  0  0  0  0  0  0  0  0  0  0
   -4.4779   13.4239  -34.1277 H   0  0  0  0  0  0  0  0  0  0  0  0
   -3.5255   15.5953  -32.5765 H   0  0  0  0  0  0  0  0  0  0  0  0
   -3.1657   15.3499  -34.2921 H   0  0  0  0  0  0  0  0  0  0  0  0
   -6.1540   18.7150  -32.9720 H   0  0  0  0  0  0  0  0  0  0  0  0
   -7.6616   19.2868  -32.8189 H   0  0  0  0  0  0  0  0  0  0  0  0
  -10.0385   19.8959  -32.2161 H   0  0  0  0  0  0  0  0  0  0  0  0
  -10.5456   22.1849  -31.3266 H   0  0  0  0  0  0  0  0  0  0  0  0
  1  2  1  0
  2  3  1  0
  3  4  1  0
  4  5  2  0
  5  6  1  0
  6  7  2  0
  7  8  1  0
  8  9  1  0
  9 10  1  0
 10 11  1  0
 11 12  1  0
 12 13  1  0
 13 14  1  0
  8 15  2  0
 15 16  1  0
 16 17  1  0
 17 18  1  0
 18 19  1  0
 19 20  1  0
 20 21  1  0
 16 22  2  0
  5 23  1  0
 23 24  2  0
 24 25  1  0
 25 26  2  0
 26 27  1  0
 27 28  2  0
 28  3  1  0
 22  6  1  0
 28 23  1  0
 14  9  1  0
 21 17  1  0
  1 29  1  0
  1 30  1  0
  1 31  1  0
  2 32  1  0
  2 33  1  0
  4 34  1  0
 10 35  1  0
 10 36  1  0
 11 37  1  0
 11 38  1  0
 13 39  1  0
 13 40  1  0
 14 41  1  0
 14 42  1  0
 18 43  1  0
 18 44  1  0
 19 45  1  0
 19 46  1  0
 20 47  1  0
 20 48  1  0
 21 49  1  0
 21 50  1  0
 22 51  1  0
 24 52  1  0
 25 53  1  0
 26 54  1  0
M  CHG  1  22   1
M  END
>  <UniqueID>  (47) 
46

>  <SMILES>  (47) 
CCn1cc(-c2nc(N3CCOCC3)nc(N3CCCC3)[nH+]2)c2cccnc21

>  <Energy>  (47) 
94.61337223210361

>  <Genealogy>  (47) 
CCn1cc(-c2nc(N3CCOCC3)nc(N3CCCC3)[nH+]2)c2cccnc21 (protonated)
CCn1cc(-c2nc(N3CCOCC3)nc(N3CCCC3)[nH+]2)c2cccnc21 (3D coordinates assigned)
CCn1cc(-c2nc(N3CCOCC3)nc(N3CCCC3)[nH+]2)c2cccnc21 (nonaromatic ring conformer: 94.61337223210361 kcal/mol)

>  <smiles>  (47) 
CCn1cc(-c2nc(N3CCCC3)nc(N3CCOCC3)n2)c2cccnc21

>  <score_type>  (47) 
oracle

>  <origin>  (47) 
adg

>  <m_score__min__energy>  (47) 
-7.3600000000000003

>  <m_primary>  (47) 
energy

$$$$
47:0
     RDKit          3D

 42 43  0  0  0  0  0  0  0  0999 V2000
   -2.8410   21.5430  -27.7960 C   0  0  0  0  0  0  0  0  0  0  0  0
   -1.4560   21.6970  -28.4180 C   0  0  0  0  0  0  0  0  0  0  0  0
   -0.7280   22.8050  -27.7470 N   0  0  0  0  0  0  0  0  0  0  0  0
   -1.2760   23.0860  -26.4000 C   0  0  0  0  0  0  0  0  0  0  0  0
   -0.1770   23.0570  -25.3370 C   0  0  0  0  0  0  0  0  0  0  0  0
   -0.7080   24.0360  -28.5740 C   0  0  0  0  0  0  0  0  0  0  0  0
   -1.8730   24.9670  -28.2060 C   0  0  0  0  0  0  0  0  0  0  0  0
   -2.6720   25.2970  -29.3430 O   0  0  0  0  0  0  0  0  0  0  0  0
   -3.7770   24.5630  -29.8060 C   0  0  0  0  0  0  0  0  0  0  0  0
   -5.1060   24.9290  -29.5280 C   0  0  0  0  0  0  0  0  0  0  0  0
   -6.1670   24.1570  -30.0110 C   0  0  0  0  0  0  0  0  0  0  0  0
   -5.9240   23.0030  -30.7810 C   0  0  0  0  0  0  0  0  0  0  0  0
   -7.0450   22.1760  -31.2990 C   0  0  0  0  0  0  0  0  0  0  0  0
   -8.3700   22.5810  -31.4800 C   0  0  0  0  0  0  0  0  0  0  0  0
   -9.2040   21.5730  -31.9830 C   0  0  0  0  0  0  0  0  0  0  0  0
   -8.5440   20.3730  -32.2000 C   0  0  0  0  0  0  0  0  0  0  0  0
   -9.1570   19.1470  -32.7160 C   0  0  0  0  0  0  0  0  0  0  0  0
   -9.4070   18.1830  -31.9460 O   0  0  0  0  0  0  0  0  0  0  0  0
   -6.9310   20.5570  -31.7660 S   0  0  0  0  0  0  0  0  0  0  0  0
   -4.5910   22.6500  -31.0600 C   0  0  0  0  0  0  0  0  0  0  0  0
   -3.5330   23.4230  -30.5760 C   0  0  0  0  0  0  0  0  0  0  0  0
   -2.7537   21.5527  -26.6995 H   0  0  0  0  0  0  0  0  0  0  0  0
   -3.4831   22.3753  -28.1201 H   0  0  0  0  0  0  0  0  0  0  0  0
   -3.2846   20.5900  -28.1201 H   0  0  0  0  0  0  0  0  0  0  0  0
   -0.8926   20.7605  -28.2933 H   0  0  0  0  0  0  0  0  0  0  0  0
   -1.5601   21.9245  -29.4892 H   0  0  0  0  0  0  0  0  0  0  0  0
   -1.7447   24.0812  -26.4041 H   0  0  0  0  0  0  0  0  0  0  0  0
   -2.0157   22.3090  -26.1566 H   0  0  0  0  0  0  0  0  0  0  0  0
   -0.6341   23.0691  -24.3366 H   0  0  0  0  0  0  0  0  0  0  0  0
    0.4231   22.1427  -25.4549 H   0  0  0  0  0  0  0  0  0  0  0  0
    0.4705   23.9384  -25.4549 H   0  0  0  0  0  0  0  0  0  0  0  0
    0.2417   24.5655  -28.4075 H   0  0  0  0  0  0  0  0  0  0  0  0
   -0.8099   23.7491  -29.6310 H   0  0  0  0  0  0  0  0  0  0  0  0
   -2.5067   24.4655  -27.4598 H   0  0  0  0  0  0  0  0  0  0  0  0
   -1.4498   25.8998  -27.8050 H   0  0  0  0  0  0  0  0  0  0  0  0
   -5.3119   25.8273  -28.9274 H   0  0  0  0  0  0  0  0  0  0  0  0
   -7.2022   24.4540  -29.7873 H   0  0  0  0  0  0  0  0  0  0  0  0
   -8.7254   23.5961  -31.2493 H   0  0  0  0  0  0  0  0  0  0  0  0
  -10.2753   21.7193  -32.1854 H   0  0  0  0  0  0  0  0  0  0  0  0
   -9.4011   19.0679  -33.7857 H   0  0  0  0  0  0  0  0  0  0  0  0
   -4.3798   21.7562  -31.6654 H   0  0  0  0  0  0  0  0  0  0  0  0
   -2.4971   23.1312  -30.8034 H   0  0  0  0  0  0  0  0  0  0  0  0
  1  2  1  0
  2  3  1  0
  3  4  1  0
  4  5  1  0
  3  6  1  0
  6  7  1  0
  7  8  1  0
  8  9  1  0
  9 10  2  0
 10 11  1  0
 11 12  2  0
 12 13  1  0
 13 14  2  0
 14 15  1  0
 15 16  2  0
 16 17  1  0
 17 18  2  0
 16 19  1  0
 12 20  1  0
 20 21  2  0
 21  9  1  0
 19 13  1  0
  1 22  1  0
  1 23  1  0
  1 24  1  0
  2 25  1  0
  2 26  1  0
  4 27  1  0
  4 28  1  0
  5 29  1  0
  5 30  1  0
  5 31  1  0
  6 32  1  0
  6 33  1  0
  7 34  1  0
  7 35  1  0
 10 36  1  0
 11 37  1  0
 14 38  1  0
 15 39  1  0
 17 40  1  0
 20 41  1  0
 21 42  1  0
M  END
>  <UniqueID>  (48) 
47

>  <SMILES>  (48) 
CCN(CC)CCOc1ccc(-c2ccc(C=O)s2)cc1

>  <Energy>  (48) 
68.45990151187247

>  <Genealogy>  (48) 
CCN(CC)CCOc1ccc(-c2ccc(C=O)s2)cc1 (3D coordinates assigned)
CCN(CC)CCOc1ccc(-c2ccc(C=O)s2)cc1 (optimized conformer: 68.45990151187247 kcal/mol)

>  <smiles>  (48) 
CCN(CC)CCOc1ccc(-c2ccc(C=O)s2)cc1

>  <score_type>  (48) 
oracle

>  <origin>  (48) 
adg

>  <m_score__min__energy>  (48) 
-7.2400000000000002

>  <m_primary>  (48) 
energy

$$$$
48:0
     RDKit          3D

 28 29  0  0  0  0  0  0  0  0999 V2000
   -5.5685   25.2974  -31.6951 H   0  0  0  0  0  0  0  0  0  0  0  0
   -5.0670   24.8260  -30.8370 C   0  0  0  0  0  0  0  0  0  0  0  0
   -3.8640   25.2940  -30.4130 N   0  0  0  0  0  0  0  0  0  0  0  0
   -3.2010   24.7460  -29.3570 C   0  0  0  0  0  0  0  0  0  0  0  0
   -2.0490   25.2540  -29.0170 N   0  0  0  0  0  0  0  0  0  0  0  0
   -0.8360   24.5310  -28.6280 C   0  0  0  0  0  0  0  0  0  0  0  0
    0.0226   24.9528  -29.1711 H   0  0  0  0  0  0  0  0  0  0  0  0
   -0.9694   23.4681  -28.8777 H   0  0  0  0  0  0  0  0  0  0  0  0
   -0.5830   24.6450  -27.1400 C   0  0  0  0  0  0  0  0  0  0  0  0
   -0.5080   23.4720  -26.3720 C   0  0  0  0  0  0  0  0  0  0  0  0
   -0.6391   22.4908  -26.8516 H   0  0  0  0  0  0  0  0  0  0  0  0
   -0.2670   23.5520  -25.0000 C   0  0  0  0  0  0  0  0  0  0  0  0
   -0.2015   22.6320  -24.4006 H   0  0  0  0  0  0  0  0  0  0  0  0
   -0.1130   24.7610  -24.4020 N   0  0  0  0  0  0  0  0  0  0  0  0
    0.0730   24.8020  -23.3750 H   0  0  0  0  0  0  0  0  0  0  0  0
   -0.1960   25.9190  -25.1100 C   0  0  0  0  0  0  0  0  0  0  0  0
   -0.0629   26.8824  -24.5960 H   0  0  0  0  0  0  0  0  0  0  0  0
   -0.4500   25.8970  -26.4910 C   0  0  0  0  0  0  0  0  0  0  0  0
   -0.5260   27.2010  -27.2420 C   0  0  0  0  0  0  0  0  0  0  0  0
   -0.5746   28.0344  -26.5257 H   0  0  0  0  0  0  0  0  0  0  0  0
    0.3672   27.3126  -27.8743 H   0  0  0  0  0  0  0  0  0  0  0  0
   -1.4261   27.2081  -27.8743 H   0  0  0  0  0  0  0  0  0  0  0  0
   -3.7830   23.6590  -28.6730 C   0  0  0  0  0  0  0  0  0  0  0  0
   -3.2682   23.2041  -27.8139 H   0  0  0  0  0  0  0  0  0  0  0  0
   -5.0190   23.1650  -29.0960 C   0  0  0  0  0  0  0  0  0  0  0  0
   -5.4813   22.3164  -28.5705 H   0  0  0  0  0  0  0  0  0  0  0  0
   -5.6670   23.7480  -30.1850 C   0  0  0  0  0  0  0  0  0  0  0  0
   -6.6393   23.3626  -30.5257 H   0  0  0  0  0  0  0  0  0  0  0  0
  1  2  1  0
  2  3  1  0
  3  4  1  0
  4  5  2  0
  5  6  1  0
  6  7  1  0
  6  8  1  0
  6  9  1  0
  9 10  2  0
 10 11  1  0
 10 12  1  0
 12 13  1  0
 12 14  2  0
 14 15  1  0
 14 16  1  0
 16 17  1  0
 16 18  2  0
 18 19  1  0
 19 20  1  0
 19 21  1  0
 19 22  1  0
  4 23  1  0
 23 24  1  0
 23 25  2  0
 25 26  1  0
 25 27  1  0
 27 28  1  0
 27  2  2  0
 18  9  1  0
M  CHG  2   3  -1  14   1
M  END
>  <UniqueID>  (49) 
48

>  <SMILES>  (49) 
Cc1c[nH+]ccc1C/N=c1\cccc[n-]1

>  <Energy>  (49) 
31.896470445994623

>  <Genealogy>  (49) 
Cc1c[nH+]ccc1CN=c1cccc[n-]1 (protonated)
Cc1c[nH+]ccc1C/N=c1\cccc[n-]1 (cis-trans isomerization)
Cc1c[nH+]ccc1C/N=c1\cccc[n-]1 (3D coordinates assigned)
Cc1c[nH+]ccc1C/N=c1\cccc[n-]1 (optimized conformer: 31.896470445994623 kcal/mol)

>  <smiles>  (49) 
Cc1cnccc1CN=c1cccc[nH]1

>  <score_type>  (49) 
oracle

>  <origin>  (49) 
adg

>  <m_score__min__energy>  (49) 
-7.71

>  <m_primary>  (49) 
energy

$$$$
49:0
     RDKit          3D

 66 68  0  0  0  0  0  0  0  0999 V2000
   -2.2910   24.4520  -28.3370 C   0  0  0  0  0  0  0  0  0  0  0  0
   -2.8300   25.0560  -29.5070 O   0  0  0  0  0  0  0  0  0  0  0  0
   -4.0000   24.6280  -30.1580 C   0  0  0  0  0  0  0  0  0  0  0  0
   -5.2080   25.3460  -30.0700 C   0  0  0  0  0  0  0  0  0  0  0  0
   -6.3500   24.8930  -30.7350 C   0  0  0  0  0  0  0  0  0  0  0  0
   -6.3080   23.7130  -31.4900 C   0  0  0  0  0  0  0  0  0  0  0  0
   -7.5300   23.2340  -32.2340 C   0  0  0  0  0  0  0  0  0  0  0  0
   -7.5740   21.6960  -32.3280 C   0  0  0  0  0  0  0  0  0  0  0  0
   -8.9440   21.1450  -32.1580 N   0  0  2  0  0  0  0  0  0  0  0  0
   -9.4030   21.2410  -30.7570 C   0  0  0  0  0  0  0  0  0  0  0  0
   -9.0940   19.7700  -32.7070 C   0  0  0  0  0  0  0  0  0  0  0  0
   -8.5660   18.6150  -31.8160 C   0  0  0  0  0  0  0  0  0  0  0  0
   -7.2240   18.0310  -32.2930 C   0  0  0  0  0  0  0  0  0  0  0  0
   -6.3910   19.0780  -32.9300 N   0  0  0  0  0  0  0  0  0  0  0  0
   -5.1340   19.3310  -32.1740 C   0  0  0  0  0  0  0  0  0  0  0  0
   -3.9120   18.5600  -32.7160 C   0  0  0  0  0  0  0  0  0  0  0  0
   -4.3390   17.3420  -33.4140 N   0  0  0  0  0  0  0  0  0  0  0  0
   -3.8220   16.0410  -33.0680 C   0  0  0  0  0  0  0  0  0  0  0  0
   -2.5360   15.5700  -33.2910 C   0  0  0  0  0  0  0  0  0  0  0  0
   -2.4950   14.3010  -32.7470 C   0  0  0  0  0  0  0  0  0  0  0  0
   -3.6860   14.0000  -32.1920 N   0  0  0  0  0  0  0  0  0  0  0  0
   -4.0490   12.7390  -31.5580 C   0  0  0  0  0  0  0  0  0  0  0  0
   -4.5070   15.0480  -32.3890 C   0  0  0  0  0  0  0  0  0  0  0  0
   -5.3090   17.4790  -34.5090 C   0  0  0  0  0  0  0  0  0  0  0  0
   -6.1210   18.7780  -34.3540 C   0  0  0  0  0  0  0  0  0  0  0  0
   -5.1070   22.9920  -31.5740 C   0  0  0  0  0  0  0  0  0  0  0  0
   -3.9470   23.4500  -30.9180 C   0  0  0  0  0  0  0  0  0  0  0  0
   -2.7260   22.7640  -31.0040 O   0  0  0  0  0  0  0  0  0  0  0  0
   -2.5020   21.6130  -31.8130 C   0  0  0  0  0  0  0  0  0  0  0  0
   -2.7199   24.9327  -27.4454 H   0  0  0  0  0  0  0  0  0  0  0  0
   -2.5383   23.3802  -28.3305 H   0  0  0  0  0  0  0  0  0  0  0  0
   -1.1981   24.5762  -28.3305 H   0  0  0  0  0  0  0  0  0  0  0  0
   -5.2528   26.2694  -29.4739 H   0  0  0  0  0  0  0  0  0  0  0  0
   -7.2868   25.4653  -30.6657 H   0  0  0  0  0  0  0  0  0  0  0  0
   -8.4290   23.5847  -31.7060 H   0  0  0  0  0  0  0  0  0  0  0  0
   -7.4898   23.6389  -33.2560 H   0  0  0  0  0  0  0  0  0  0  0  0
   -7.1941   21.3937  -33.3151 H   0  0  0  0  0  0  0  0  0  0  0  0
   -6.9543   21.2975  -31.5112 H   0  0  0  0  0  0  0  0  0  0  0  0
   -9.6070   21.7310  -32.7200 H   0  0  0  0  0  0  0  0  0  0  0  0
   -8.5543   21.0635  -30.0801 H   0  0  0  0  0  0  0  0  0  0  0  0
   -9.8144   22.2446  -30.5739 H   0  0  0  0  0  0  0  0  0  0  0  0
  -10.1821   20.4864  -30.5739 H   0  0  0  0  0  0  0  0  0  0  0  0
  -10.1654   19.5944  -32.8840 H   0  0  0  0  0  0  0  0  0  0  0  0
   -8.4749   19.7470  -33.6160 H   0  0  0  0  0  0  0  0  0  0  0  0
   -8.4346   18.9975  -30.7930 H   0  0  0  0  0  0  0  0  0  0  0  0
   -9.3069   17.8036  -31.8681 H   0  0  0  0  0  0  0  0  0  0  0  0
   -6.6838   17.6164  -31.4291 H   0  0  0  0  0  0  0  0  0  0  0  0
   -7.4258   17.2425  -33.0329 H   0  0  0  0  0  0  0  0  0  0  0  0
   -4.9127   20.4075  -32.2204 H   0  0  0  0  0  0  0  0  0  0  0  0
   -5.3035   18.9785  -31.1459 H   0  0  0  0  0  0  0  0  0  0  0  0
   -3.3599   19.2037  -33.4166 H   0  0  0  0  0  0  0  0  0  0  0  0
   -3.2672   18.2773  -31.8709 H   0  0  0  0  0  0  0  0  0  0  0  0
   -1.7159   16.0995  -33.7979 H   0  0  0  0  0  0  0  0  0  0  0  0
   -1.6200   13.6347  -32.7641 H   0  0  0  0  0  0  0  0  0  0  0  0
   -4.0155   12.8553  -30.4647 H   0  0  0  0  0  0  0  0  0  0  0  0
   -5.0658   12.4534  -31.8654 H   0  0  0  0  0  0  0  0  0  0  0  0
   -3.3396   11.9565  -31.8654 H   0  0  0  0  0  0  0  0  0  0  0  0
   -5.5558   15.1063  -32.0624 H   0  0  0  0  0  0  0  0  0  0  0  0
   -4.7708   17.5013  -35.4681 H   0  0  0  0  0  0  0  0  0  0  0  0
   -5.9997   16.6234  -34.4802 H   0  0  0  0  0  0  0  0  0  0  0  0
   -5.5522   19.6105  -34.7938 H   0  0  0  0  0  0  0  0  0  0  0  0
   -7.0840   18.6486  -34.8697 H   0  0  0  0  0  0  0  0  0  0  0  0
   -5.0707   22.0603  -32.1576 H   0  0  0  0  0  0  0  0  0  0  0  0
   -2.3318   20.7387  -31.1676 H   0  0  0  0  0  0  0  0  0  0  0  0
   -3.3822   21.4342  -32.4480 H   0  0  0  0  0  0  0  0  0  0  0  0
   -1.6190   21.7774  -32.4480 H   0  0  0  0  0  0  0  0  0  0  0  0
  1  2  1  0
  2  3  1  0
  3  4  2  0
  4  5  1  0
  5  6  2  0
  6  7  1  0
  7  8  1  0
  8  9  1  0
  9 10  1  0
  9 11  1  0
 11 12  1  0
 12 13  1  0
 13 14  1  0
 14 15  1  0
 15 16  1  0
 16 17  1  0
 17 18  1  0
 18 19  1  0
 19 20  2  0
 20 21  1  0
 21 22  1  0
 21 23  1  0
 17 24  1  0
 24 25  1  0
  6 26  1  0
 26 27  2  0
 27 28  1  0
 28 29  1  0
 27  3  1  0
 25 14  1  0
 23 18  2  0
  1 30  1  0
  1 31  1  0
  1 32  1  0
  4 33  1  0
  5 34  1  0
  7 35  1  0
  7 36  1  0
  8 37  1  0
  8 38  1  0
  9 39  1  6
 10 40  1  0
 10 41  1  0
 10 42  1  0
 11 43  1  0
 11 44  1  0
 12 45  1  0
 12 46  1  0
 13 47  1  0
 13 48  1  0
 15 49  1  0
 15 50  1  0
 16 51  1  0
 16 52  1  0
 19 53  1  0
 20 54  1  0
 22 55  1  0
 22 56  1  0
 22 57  1  0
 23 58  1  0
 24 59  1  0
 24 60  1  0
 25 61  1  0
 25 62  1  0
 26 63  1  0
 29 64  1  0
 29 65  1  0
 29 66  1  0
M  CHG  1   9   1
M  END
>  <UniqueID>  (50) 
49

>  <SMILES>  (50) 
COc1ccc(CC[N@H+](C)CCCN2CCN(c3ccn(C)c3)CC2)cc1OC

>  <Energy>  (50) 
102.86645314354936

>  <Genealogy>  (50) 
COc1ccc(CC[NH+](C)CCCN2CCN(c3ccn(C)c3)CC2)cc1OC (protonated)
COc1ccc(CC[N@H+](C)CCCN2CCN(c3ccn(C)c3)CC2)cc1OC (chirality)
COc1ccc(CC[N@H+](C)CCCN2CCN(c3ccn(C)c3)CC2)cc1OC (3D coordinates assigned)
COc1ccc(CC[N@H+](C)CCCN2CCN(c3ccn(C)c3)CC2)cc1OC (nonaromatic ring conformer: 102.86645314354936 kcal/mol)

>  <smiles>  (50) 
COc1ccc(CCN(C)CCCN2CCN(c3ccn(C)c3)CC2)cc1OC

>  <score_type>  (50) 
oracle

>  <origin>  (50) 
adg

>  <m_score__min__energy>  (50) 
-7.9699999999999998

>  <m_primary>  (50) 
energy

$$$$
