0:0
     RDKit          3D

 83 87  0  0  0  0  0  0  0  0999 V2000
    0.0760   20.8210  -35.5300 C   0  0  0  0  0  0  0  0  0  0  0  0
   -0.3980   20.6100  -34.0890 C   0  0  0  0  0  0  0  0  0  0  0  0
   -1.7740   21.0830  -33.8700 N   0  0  0  0  0  0  0  0  0  0  0  0
   -2.0200   21.4470  -32.4680 C   0  0  0  0  0  0  0  0  0  0  0  0
   -3.4950   21.8130  -32.2810 C   0  0  0  0  0  0  0  0  0  0  0  0
   -4.2810   21.4520  -33.4710 N   0  0  0  0  0  0  0  0  0  0  0  0
   -5.4820   20.7390  -33.0860 C   0  0  0  0  0  0  0  0  0  0  0  0
   -6.6190   21.4150  -32.5510 C   0  0  0  0  0  0  0  0  0  0  0  0
   -6.5730   22.7910  -32.2250 C   0  0  0  0  0  0  0  0  0  0  0  0
   -7.7080   23.4600  -31.7740 C   0  0  0  0  0  0  0  0  0  0  0  0
   -8.9110   22.7820  -31.6350 C   0  0  0  0  0  0  0  0  0  0  0  0
   -8.9840   21.4200  -31.9100 C   0  0  0  0  0  0  0  0  0  0  0  0
   -7.8430   20.6930  -32.3350 C   0  0  0  0  0  0  0  0  0  0  0  0
   -7.9020   19.3260  -32.5490 N   0  0  0  0  0  0  0  0  0  0  0  0
   -9.1190   18.5550  -32.2280 C   0  0  0  0  0  0  0  0  0  0  0  0
   -6.7970   18.6950  -33.0570 C   0  0  0  0  0  0  0  0  0  0  0  0
   -6.7120   17.3840  -33.3950 N   0  0  0  0  0  0  0  0  0  0  0  0
   -5.4460   17.2030  -33.8060 C   0  0  0  0  0  0  0  0  0  0  0  0
   -4.8850   16.0010  -34.2310 C   0  0  0  0  0  0  0  0  0  0  0  0
   -3.5300   15.9910  -34.5910 C   0  0  0  0  0  0  0  0  0  0  0  0
   -2.7510   17.1740  -34.5040 C   0  0  0  0  0  0  0  0  0  0  0  0
   -1.3860   17.2090  -34.8360 O   0  0  0  0  0  0  0  0  0  0  0  0
   -0.4200   16.2120  -34.5000 C   0  0  0  0  0  0  0  0  0  0  0  0
   -0.6820   15.6750  -33.0670 C   0  0  0  0  0  0  0  0  0  0  0  0
    0.4690   15.7630  -32.0990 N   0  0  1  0  0  0  0  0  0  0  0  0
    0.4510   14.5480  -31.2320 C   0  0  0  0  0  0  0  0  0  0  0  0
    1.7780   15.7790  -32.8450 C   0  0  0  0  0  0  0  0  0  0  0  0
    2.3690   17.1860  -33.0330 C   0  0  0  0  0  0  0  0  0  0  0  0
    2.6830   17.8490  -31.7330 N   0  0  0  0  0  0  0  0  0  0  0  0
    2.6890   19.3210  -31.9330 C   0  0  0  0  0  0  0  0  0  0  0  0
    4.0520   17.4620  -31.2990 C   0  0  0  0  0  0  0  0  0  0  0  0
    1.7070   17.4760  -30.6580 C   0  0  0  0  0  0  0  0  0  0  0  0
    0.3290   16.9750  -31.1850 C   0  0  1  0  0  0  0  0  0  0  0  0
   -0.5050   18.1660  -31.7360 C   0  0  0  0  0  0  0  0  0  0  0  0
   -3.3520   18.3730  -34.0740 C   0  0  0  0  0  0  0  0  0  0  0  0
   -4.7160   18.3700  -33.7470 C   0  0  0  0  0  0  0  0  0  0  0  0
   -5.6000   19.3530  -33.2880 C   0  0  0  0  0  0  0  0  0  0  0  0
    1.0809   21.2683  -35.5236 H   0  0  0  0  0  0  0  0  0  0  0  0
    0.1090   19.8526  -36.0507 H   0  0  0  0  0  0  0  0  0  0  0  0
   -0.6215   21.4936  -36.0507 H   0  0  0  0  0  0  0  0  0  0  0  0
   -0.3540   19.5355  -33.8576 H   0  0  0  0  0  0  0  0  0  0  0  0
    0.2632   21.1944  -33.4323 H   0  0  0  0  0  0  0  0  0  0  0  0
   -1.9530   21.9190  -34.4770 H   0  0  0  0  0  0  0  0  0  0  0  0
   -1.7698   20.5944  -31.8196 H   0  0  0  0  0  0  0  0  0  0  0  0
   -1.3936   22.3108  -32.2006 H   0  0  0  0  0  0  0  0  0  0  0  0
   -3.8924   21.2723  -31.4094 H   0  0  0  0  0  0  0  0  0  0  0  0
   -3.5704   22.8995  -32.1266 H   0  0  0  0  0  0  0  0  0  0  0  0
   -3.7240   20.8750  -34.1350 H   0  0  0  0  0  0  0  0  0  0  0  0
   -4.5110   22.3070  -34.0250 H   0  0  0  0  0  0  0  0  0  0  0  0
   -5.6260   23.3409  -32.3294 H   0  0  0  0  0  0  0  0  0  0  0  0
   -7.6508   24.5304  -31.5269 H   0  0  0  0  0  0  0  0  0  0  0  0
   -9.8102   23.3235  -31.3061 H   0  0  0  0  0  0  0  0  0  0  0  0
   -9.9450   20.8972  -31.7956 H   0  0  0  0  0  0  0  0  0  0  0  0
   -9.2308   18.4842  -31.1360 H   0  0  0  0  0  0  0  0  0  0  0  0
   -9.9973   19.0618  -32.6544 H   0  0  0  0  0  0  0  0  0  0  0  0
   -9.0359   17.5444  -32.6544 H   0  0  0  0  0  0  0  0  0  0  0  0
   -7.4500   16.6470  -33.3780 H   0  0  0  0  0  0  0  0  0  0  0  0
   -5.4894   15.0834  -34.2828 H   0  0  0  0  0  0  0  0  0  0  0  0
   -3.0666   15.0579  -34.9440 H   0  0  0  0  0  0  0  0  0  0  0  0
   -0.4898   15.3815  -35.2179 H   0  0  0  0  0  0  0  0  0  0  0  0
    0.5850   16.6576  -34.5388 H   0  0  0  0  0  0  0  0  0  0  0  0
   -1.5205   16.2470  -32.6431 H   0  0  0  0  0  0  0  0  0  0  0  0
   -0.8803   14.5999  -33.1890 H   0  0  0  0  0  0  0  0  0  0  0  0
    0.4555   14.8518  -30.1748 H   0  0  0  0  0  0  0  0  0  0  0  0
   -0.4559   13.9617  -31.4411 H   0  0  0  0  0  0  0  0  0  0  0  0
    1.3402   13.9351  -31.4411 H   0  0  0  0  0  0  0  0  0  0  0  0
    2.5034   15.1703  -32.2853 H   0  0  0  0  0  0  0  0  0  0  0  0
    1.5785   15.3788  -33.8500 H   0  0  0  0  0  0  0  0  0  0  0  0
    3.2951   17.1046  -33.6209 H   0  0  0  0  0  0  0  0  0  0  0  0
    1.6165   17.7998  -33.5497 H   0  0  0  0  0  0  0  0  0  0  0  0
    2.6910   19.8239  -30.9547 H   0  0  0  0  0  0  0  0  0  0  0  0
    3.5883   19.6109  -32.4962 H   0  0  0  0  0  0  0  0  0  0  0  0
    1.7921   19.6182  -32.4962 H   0  0  0  0  0  0  0  0  0  0  0  0
    4.0983   17.4489  -30.2001 H   0  0  0  0  0  0  0  0  0  0  0  0
    4.2908   16.4612  -31.6880 H   0  0  0  0  0  0  0  0  0  0  0  0
    4.7794   18.1897  -31.6880 H   0  0  0  0  0  0  0  0  0  0  0  0
    2.1542   16.6759  -30.0499 H   0  0  0  0  0  0  0  0  0  0  0  0
    1.5086   18.3923  -30.0826 H   0  0  0  0  0  0  0  0  0  0  0  0
   -0.2675   16.5784  -30.3502 H   0  0  0  0  0  0  0  0  0  0  0  0
   -0.9125   18.7479  -30.8961 H   0  0  0  0  0  0  0  0  0  0  0  0
    0.1394   18.8115  -32.3508 H   0  0  0  0  0  0  0  0  0  0  0  0
   -1.3320   17.7812  -32.3508 H   0  0  0  0  0  0  0  0  0  0  0  0
   -2.7609   19.2974  -33.9958 H   0  0  0  0  0  0  0  0  0  0  0  0
  1  2  1  0
  2  3  1  0
  3  4  1  0
  4  5  1  0
  5  6  1  0
  6  7  1  0
  7  8  2  0
  8  9  1  0
  9 10  2  0
 10 11  1  0
 11 12  2  0
 12 13  1  0
 13 14  2  0
 14 15  1  0
 14 16  1  0
 16 17  1  0
 17 18  1  0
 18 19  2  0
 19 20  1  0
 20 21  2  0
 21 22  1  0
 22 23  1  0
 23 24  1  0
 25 24  1  6
 25 26  1  0
 25 27  1  0
 27 28  1  0
 28 29  1  0
 29 30  1  0
 29 31  1  0
 29 32  1  0
 32 33  1  0
 33 34  1  0
 21 35  1  0
 35 36  2  0
 36 37  1  0
 37  7  1  0
 13  8  1  0
 37 16  2  0
 36 18  1  0
 33 25  1  0
  1 38  1  0
  1 39  1  0
  1 40  1  0
  2 41  1  0
  2 42  1  0
  3 43  1  0
  4 44  1  0
  4 45  1  0
  5 46  1  0
  5 47  1  0
  6 48  1  0
  6 49  1  0
  9 50  1  0
 10 51  1  0
 11 52  1  0
 12 53  1  0
 15 54  1  0
 15 55  1  0
 15 56  1  0
 17 57  1  0
 19 58  1  0
 20 59  1  0
 23 60  1  0
 23 61  1  0
 24 62  1  0
 24 63  1  0
 26 64  1  0
 26 65  1  0
 26 66  1  0
 27 67  1  0
 27 68  1  0
 28 69  1  0
 28 70  1  0
 30 71  1  0
 30 72  1  0
 30 73  1  0
 31 74  1  0
 31 75  1  0
 31 76  1  0
 32 77  1  0
 32 78  1  0
 33 79  1  1
 34 80  1  0
 34 81  1  0
 34 82  1  0
 35 83  1  0
M  CHG  4   6   1  14   1  25   1  29   1
M  END
>  <UniqueID>  (1) 
1

>  <SMILES>  (1) 
CCNCC[NH2+]c1c2ccccc2[n+](C)c2[nH]c3ccc(OCC[N@@+]4(C)CC[N+](C)(C)C[C@H]4C)cc3c12

>  <Energy>  (1) 
178.7468814583995

>  <Genealogy>  (1) 
CCNCC[NH2+]c1c2ccccc2[n+](C)c2[nH]c3ccc(OCC[N+]4(C)CC[N+](C)(C)CC4C)cc3c12 (protonated)
CCNCC[NH2+]c1c2ccccc2[n+](C)c2[nH]c3ccc(OCC[N@@+]4(C)CC[N+](C)(C)C[C@H]4C)cc3c12 (chirality)
CCNCC[NH2+]c1c2ccccc2[n+](C)c2[nH]c3ccc(OCC[N@@+]4(C)CC[N+](C)(C)C[C@H]4C)cc3c12 (3D coordinates assigned)
CCNCC[NH2+]c1c2ccccc2[n+](C)c2[nH]c3ccc(OCC[N@@+]4(C)CC[N+](C)(C)C[C@H]4C)cc3c12 (nonaromatic ring conformer: 178.7468814583995 kcal/mol)

>  <smiles>  (1) 
CCNCCNc1c2ccccc2[n+](C)c2[nH]c3ccc(OCC[N+]4(C)CC[N+](C)(C)CC4C)cc3c12

>  <score_type>  (1) 
oracle

>  <origin>  (1) 
adg

>  <m_score__min__energy>  (1) 
-7.79

>  <m_primary>  (1) 
energy

$$$$
1:0
     RDKit          3D

 64 66  0  0  0  0  0  0  0  0999 V2000
   -1.2410   21.6560  -26.9132 H   0  0  0  0  0  0  0  0  0  0  0  0
   -1.9410   21.4930  -27.7460 C   0  0  0  0  0  0  0  0  0  0  0  0
   -2.2190   20.2990  -28.1320 N   0  0  0  0  0  0  0  0  0  0  0  0
   -1.9530   19.1470  -27.3030 C   0  0  0  0  0  0  0  0  0  0  0  0
   -1.0285   19.3138  -26.7308 H   0  0  0  0  0  0  0  0  0  0  0  0
   -1.8372   18.2581  -27.9405 H   0  0  0  0  0  0  0  0  0  0  0  0
   -3.1110   18.9300  -26.3410 C   0  0  0  0  0  0  0  0  0  0  0  0
   -2.7454   18.9985  -25.3058 H   0  0  0  0  0  0  0  0  0  0  0  0
   -3.8779   19.7001  -26.5107 H   0  0  0  0  0  0  0  0  0  0  0  0
   -3.5471   17.9345  -26.5107 H   0  0  0  0  0  0  0  0  0  0  0  0
   -2.5760   22.6630  -28.4370 C   0  0  0  0  0  0  0  0  0  0  0  0
   -3.2320   23.1893  -27.7280 H   0  0  0  0  0  0  0  0  0  0  0  0
   -1.7835   23.3372  -28.7941 H   0  0  0  0  0  0  0  0  0  0  0  0
   -3.3670   22.2160  -29.5830 N   0  0  0  0  0  0  0  0  0  0  0  0
   -3.1910   21.2620  -29.9710 H   0  0  0  0  0  0  0  0  0  0  0  0
   -4.4620   22.9780  -30.1250 C   0  0  0  0  0  0  0  0  0  0  0  0
   -4.6070   24.3190  -29.7400 C   0  0  0  0  0  0  0  0  0  0  0  0
   -3.7732   24.8354  -29.2418 H   0  0  0  0  0  0  0  0  0  0  0  0
   -5.7910   25.0010  -29.9810 C   0  0  0  0  0  0  0  0  0  0  0  0
   -5.8785   26.0620  -29.7043 H   0  0  0  0  0  0  0  0  0  0  0  0
   -6.8670   24.3480  -30.5710 C   0  0  0  0  0  0  0  0  0  0  0  0
   -7.8213   24.8811  -30.6942 H   0  0  0  0  0  0  0  0  0  0  0  0
   -6.7560   23.0090  -31.0160 C   0  0  0  0  0  0  0  0  0  0  0  0
   -5.5060   22.3430  -30.8640 C   0  0  0  0  0  0  0  0  0  0  0  0
   -5.3610   21.0510  -31.4390 C   0  0  0  0  0  0  0  0  0  0  0  0
   -4.0710   20.5740  -31.9230 N   0  0  0  0  0  0  0  0  0  0  0  0
   -3.8090   19.6830  -31.4420 H   0  0  0  0  0  0  0  0  0  0  0  0
   -3.3140   21.2640  -31.7410 H   0  0  0  0  0  0  0  0  0  0  0  0
   -4.0870   20.4030  -33.3870 C   0  0  0  0  0  0  0  0  0  0  0  0
   -5.0031   19.8678  -33.6773 H   0  0  0  0  0  0  0  0  0  0  0  0
   -4.0577   21.3967  -33.8577 H   0  0  0  0  0  0  0  0  0  0  0  0
   -2.8630   19.5990  -33.8580 C   0  0  0  0  0  0  0  0  0  0  0  0
   -3.0992   19.1332  -34.8261 H   0  0  0  0  0  0  0  0  0  0  0  0
   -2.0173   20.2978  -33.9383 H   0  0  0  0  0  0  0  0  0  0  0  0
   -2.4610   18.4960  -32.8670 C   0  0  0  0  0  0  0  0  0  0  0  0
   -3.3360   18.2412  -32.2511 H   0  0  0  0  0  0  0  0  0  0  0  0
   -2.1105   17.6349  -33.4549 H   0  0  0  0  0  0  0  0  0  0  0  0
   -1.3100   18.9200  -31.9350 C   0  0  0  0  0  0  0  0  0  0  0  0
   -1.0297   18.0639  -31.3038 H   0  0  0  0  0  0  0  0  0  0  0  0
   -0.4657   19.2439  -32.5613 H   0  0  0  0  0  0  0  0  0  0  0  0
   -1.6940   20.0490  -31.0650 N   0  0  0  0  0  0  0  0  0  0  0  0
   -1.6800   19.7860  -30.0510 H   0  0  0  0  0  0  0  0  0  0  0  0
   -0.8860   21.2590  -31.2820 C   0  0  0  0  0  0  0  0  0  0  0  0
   -1.5606   22.1241  -31.3632 H   0  0  0  0  0  0  0  0  0  0  0  0
   -0.1997   21.3609  -30.4284 H   0  0  0  0  0  0  0  0  0  0  0  0
   -0.0390   21.1760  -32.5530 C   0  0  0  0  0  0  0  0  0  0  0  0
    1.0217   21.0721  -32.2806 H   0  0  0  0  0  0  0  0  0  0  0  0
   -0.3524   20.3043  -33.1462 H   0  0  0  0  0  0  0  0  0  0  0  0
   -0.1772   22.0920  -33.1462 H   0  0  0  0  0  0  0  0  0  0  0  0
   -6.5380   20.3000  -31.6680 C   0  0  0  0  0  0  0  0  0  0  0  0
   -6.4930   18.9030  -31.8710 C   0  0  0  0  0  0  0  0  0  0  0  0
   -5.5232   18.3838  -31.8664 H   0  0  0  0  0  0  0  0  0  0  0  0
   -7.6630   18.1750  -32.0770 C   0  0  0  0  0  0  0  0  0  0  0  0
   -7.6118   17.0889  -32.2439 H   0  0  0  0  0  0  0  0  0  0  0  0
   -8.8950   18.8190  -32.0720 C   0  0  0  0  0  0  0  0  0  0  0  0
   -9.8180   18.2392  -32.2198 H   0  0  0  0  0  0  0  0  0  0  0  0
   -8.9630   20.1980  -31.8800 C   0  0  0  0  0  0  0  0  0  0  0  0
   -9.9439   20.6958  -31.8713 H   0  0  0  0  0  0  0  0  0  0  0  0
   -7.7890   20.9680  -31.6960 C   0  0  0  0  0  0  0  0  0  0  0  0
   -7.8350   22.3410  -31.5600 N   0  0  0  0  0  0  0  0  0  0  0  0
   -9.0470   23.0850  -31.9680 C   0  0  0  0  0  0  0  0  0  0  0  0
   -9.5911   23.4190  -31.0722 H   0  0  0  0  0  0  0  0  0  0  0  0
   -8.7556   23.9600  -32.5676 H   0  0  0  0  0  0  0  0  0  0  0  0
   -9.6954   22.4291  -32.5676 H   0  0  0  0  0  0  0  0  0  0  0  0
  1  2  1  0
  2  3  2  0
  3  4  1  0
  4  5  1  0
  4  6  1  0
  4  7  1  0
  7  8  1  0
  7  9  1  0
  7 10  1  0
  2 11  1  0
 11 12  1  0
 11 13  1  0
 11 14  1  0
 14 15  1  0
 14 16  1  0
 16 17  2  0
 17 18  1  0
 17 19  1  0
 19 20  1  0
 19 21  2  0
 21 22  1  0
 21 23  1  0
 23 24  2  0
 24 25  1  0
 25 26  1  0
 26 27  1  0
 26 28  1  0
 26 29  1  0
 29 30  1  0
 29 31  1  0
 29 32  1  0
 32 33  1  0
 32 34  1  0
 32 35  1  0
 35 36  1  0
 35 37  1  0
 35 38  1  0
 38 39  1  0
 38 40  1  0
 38 41  1  0
 41 42  1  0
 41 43  1  0
 43 44  1  0
 43 45  1  0
 43 46  1  0
 46 47  1  0
 46 48  1  0
 46 49  1  0
 25 50  2  0
 50 51  1  0
 51 52  1  0
 51 53  2  0
 53 54  1  0
 53 55  1  0
 55 56  1  0
 55 57  2  0
 57 58  1  0
 57 59  1  0
 59 60  2  0
 60 61  1  0
 61 62  1  0
 61 63  1  0
 61 64  1  0
 24 16  1  0
 59 50  1  0
 60 23  1  0
M  CHG  2  26   1  60   1
M  END
>  <UniqueID>  (2) 
2

>  <SMILES>  (2) 
CC/N=C/CNc1cccc2c1c([NH2+]CCCCNCC)c1ccccc1[n+]2C

>  <Energy>  (2) 
94.36841849685312

>  <Genealogy>  (2) 
CCN=CCNc1cccc2c1c([NH2+]CCCCNCC)c1ccccc1[n+]2C (protonated)
CC/N=C/CNc1cccc2c1c([NH2+]CCCCNCC)c1ccccc1[n+]2C (cis-trans isomerization)
CC/N=C/CNc1cccc2c1c([NH2+]CCCCNCC)c1ccccc1[n+]2C (3D coordinates assigned)
CC/N=C/CNc1cccc2c1c([NH2+]CCCCNCC)c1ccccc1[n+]2C (optimized conformer: 94.36841849685312 kcal/mol)

>  <smiles>  (2) 
CCN=CCNc1cccc2c1c(NCCCCNCC)c1ccccc1[n+]2C

>  <score_type>  (2) 
oracle

>  <origin>  (2) 
adg

>  <m_score__min__energy>  (2) 
-7.6600000000000001

>  <m_primary>  (2) 
energy

$$$$
2:0
     RDKit          3D

 66 69  0  0  0  0  0  0  0  0999 V2000
   -2.6910   20.1300  -27.5580 C   0  0  0  0  0  0  0  0  0  0  0  0
   -3.0200   20.8130  -28.8800 C   0  0  0  0  0  0  0  0  0  0  0  0
   -2.0420   20.4850  -29.8510 O   0  0  0  0  0  0  0  0  0  0  0  0
   -0.8170   20.1600  -29.2290 C   0  0  0  0  0  0  0  0  0  0  0  0
   -0.2330   18.9210  -29.8890 C   0  0  0  0  0  0  0  0  0  0  0  0
   -0.8000   18.7790  -31.1740 O   0  0  0  0  0  0  0  0  0  0  0  0
    0.2060   18.6980  -32.1640 C   0  0  0  0  0  0  0  0  0  0  0  0
    0.7290   20.0950  -32.5130 C   0  0  0  0  0  0  0  0  0  0  0  0
   -0.3050   21.1170  -32.2840 N   0  0  0  0  0  0  0  0  0  0  0  0
   -0.9720   21.5180  -33.5350 C   0  0  0  0  0  0  0  0  0  0  0  0
   -2.4360   21.0390  -33.5620 C   0  0  0  0  0  0  0  0  0  0  0  0
   -2.9480   20.6050  -32.2450 N   0  0  0  0  0  0  0  0  0  0  0  0
   -4.3750   20.3400  -32.2540 C   0  0  0  0  0  0  0  0  0  0  0  0
   -4.9310   19.1440  -32.8170 C   0  0  0  0  0  0  0  0  0  0  0  0
   -4.1190   18.1160  -33.3610 C   0  0  0  0  0  0  0  0  0  0  0  0
   -4.6770   16.9670  -33.9130 C   0  0  0  0  0  0  0  0  0  0  0  0
   -6.0520   16.8130  -33.9680 C   0  0  0  0  0  0  0  0  0  0  0  0
   -6.8850   17.7970  -33.4530 C   0  0  0  0  0  0  0  0  0  0  0  0
   -6.3590   18.9670  -32.8450 C   0  0  0  0  0  0  0  0  0  0  0  0
   -7.2020   19.9260  -32.3060 N   0  0  0  0  0  0  0  0  0  0  0  0
   -8.6640   19.7090  -32.2620 C   0  0  0  0  0  0  0  0  0  0  0  0
   -6.6560   21.0800  -31.8120 C   0  0  0  0  0  0  0  0  0  0  0  0
   -7.3460   22.1400  -31.3260 N   0  0  0  0  0  0  0  0  0  0  0  0
   -6.4150   23.0140  -30.9120 C   0  0  0  0  0  0  0  0  0  0  0  0
   -6.6600   24.2480  -30.3160 C   0  0  0  0  0  0  0  0  0  0  0  0
   -5.5640   25.0240  -29.9150 C   0  0  0  0  0  0  0  0  0  0  0  0
   -4.2400   24.5550  -30.1140 C   0  0  0  0  0  0  0  0  0  0  0  0
   -3.1180   25.2960  -29.7120 O   0  0  0  0  0  0  0  0  0  0  0  0
   -2.2220   24.8990  -28.6800 C   0  0  0  0  0  0  0  0  0  0  0  0
   -4.0260   23.3070  -30.7290 C   0  0  0  0  0  0  0  0  0  0  0  0
   -5.1360   22.5440  -31.1320 C   0  0  0  0  0  0  0  0  0  0  0  0
   -5.2860   21.2910  -31.7430 C   0  0  0  0  0  0  0  0  0  0  0  0
   -3.0023   20.7762  -26.7240 H   0  0  0  0  0  0  0  0  0  0  0  0
   -3.2258   19.1706  -27.4979 H   0  0  0  0  0  0  0  0  0  0  0  0
   -1.6075   19.9502  -27.4979 H   0  0  0  0  0  0  0  0  0  0  0  0
   -4.0072   20.4755  -29.2287 H   0  0  0  0  0  0  0  0  0  0  0  0
   -3.0298   21.9028  -28.7309 H   0  0  0  0  0  0  0  0  0  0  0  0
   -0.1152   21.0000  -29.3378 H   0  0  0  0  0  0  0  0  0  0  0  0
   -0.9866   19.9635  -28.1601 H   0  0  0  0  0  0  0  0  0  0  0  0
    0.8582   19.0284  -29.9764 H   0  0  0  0  0  0  0  0  0  0  0  0
   -0.4587   18.0325  -29.2810 H   0  0  0  0  0  0  0  0  0  0  0  0
    1.0371   18.0843  -31.7863 H   0  0  0  0  0  0  0  0  0  0  0  0
   -0.2214   18.2418  -33.0691 H   0  0  0  0  0  0  0  0  0  0  0  0
    1.6027   20.3197  -31.8836 H   0  0  0  0  0  0  0  0  0  0  0  0
    1.0070   20.1097  -33.5772 H   0  0  0  0  0  0  0  0  0  0  0  0
   -1.0300   20.6910  -31.6580 H   0  0  0  0  0  0  0  0  0  0  0  0
   -0.9514   22.6147  -33.6174 H   0  0  0  0  0  0  0  0  0  0  0  0
   -0.4381   21.0564  -34.3787 H   0  0  0  0  0  0  0  0  0  0  0  0
   -3.0647   21.8665  -33.9226 H   0  0  0  0  0  0  0  0  0  0  0  0
   -2.4729   20.1614  -34.2242 H   0  0  0  0  0  0  0  0  0  0  0  0
   -2.7530   21.3370  -31.5300 H   0  0  0  0  0  0  0  0  0  0  0  0
   -2.3750   19.8090  -31.9010 H   0  0  0  0  0  0  0  0  0  0  0  0
   -3.0250   18.2295  -33.3462 H   0  0  0  0  0  0  0  0  0  0  0  0
   -4.0220   16.1764  -34.3080 H   0  0  0  0  0  0  0  0  0  0  0  0
   -6.4853   15.9090  -34.4208 H   0  0  0  0  0  0  0  0  0  0  0  0
   -7.9754   17.6673  -33.5174 H   0  0  0  0  0  0  0  0  0  0  0  0
   -8.9960   19.6597  -31.2145 H   0  0  0  0  0  0  0  0  0  0  0  0
   -9.1737   20.5413  -32.7694 H   0  0  0  0  0  0  0  0  0  0  0  0
   -8.9099   18.7645  -32.7694 H   0  0  0  0  0  0  0  0  0  0  0  0
   -8.3750   22.3020  -31.2820 H   0  0  0  0  0  0  0  0  0  0  0  0
   -7.6891   24.6054  -30.1635 H   0  0  0  0  0  0  0  0  0  0  0  0
   -5.7315   26.0033  -29.4428 H   0  0  0  0  0  0  0  0  0  0  0  0
   -2.6787   25.1014  -27.7000 H   0  0  0  0  0  0  0  0  0  0  0  0
   -2.0112   23.8232  -28.7712 H   0  0  0  0  0  0  0  0  0  0  0  0
   -1.2835   25.4655  -28.7712 H   0  0  0  0  0  0  0  0  0  0  0  0
   -3.0042   22.9338  -30.8921 H   0  0  0  0  0  0  0  0  0  0  0  0
  1  2  1  0
  2  3  1  0
  3  4  1  0
  4  5  1  0
  5  6  1  0
  6  7  1  0
  7  8  1  0
  8  9  1  0
  9 10  1  0
 10 11  1  0
 11 12  1  0
 12 13  1  0
 13 14  2  0
 14 15  1  0
 15 16  2  0
 16 17  1  0
 17 18  2  0
 18 19  1  0
 19 20  2  0
 20 21  1  0
 20 22  1  0
 22 23  1  0
 23 24  1  0
 24 25  2  0
 25 26  1  0
 26 27  2  0
 27 28  1  0
 28 29  1  0
 27 30  1  0
 30 31  2  0
 31 32  1  0
 32 13  1  0
 19 14  1  0
 32 22  2  0
 31 24  1  0
  1 33  1  0
  1 34  1  0
  1 35  1  0
  2 36  1  0
  2 37  1  0
  4 38  1  0
  4 39  1  0
  5 40  1  0
  5 41  1  0
  7 42  1  0
  7 43  1  0
  8 44  1  0
  8 45  1  0
  9 46  1  0
 10 47  1  0
 10 48  1  0
 11 49  1  0
 11 50  1  0
 12 51  1  0
 12 52  1  0
 15 53  1  0
 16 54  1  0
 17 55  1  0
 18 56  1  0
 21 57  1  0
 21 58  1  0
 21 59  1  0
 23 60  1  0
 25 61  1  0
 26 62  1  0
 29 63  1  0
 29 64  1  0
 29 65  1  0
 30 66  1  0
M  CHG  2  12   1  20   1
M  END
>  <UniqueID>  (3) 
3

>  <SMILES>  (3) 
CCOCCOCCNCC[NH2+]c1c2ccccc2[n+](C)c2[nH]c3ccc(OC)cc3c12

>  <Energy>  (3) 
123.87283264129927

>  <Genealogy>  (3) 
CCOCCOCCNCC[NH2+]c1c2ccccc2[n+](C)c2[nH]c3ccc(OC)cc3c12 (protonated)
CCOCCOCCNCC[NH2+]c1c2ccccc2[n+](C)c2[nH]c3ccc(OC)cc3c12 (3D coordinates assigned)
CCOCCOCCNCC[NH2+]c1c2ccccc2[n+](C)c2[nH]c3ccc(OC)cc3c12 (optimized conformer: 123.87283264129927 kcal/mol)

>  <smiles>  (3) 
CCOCCOCCNCCNc1c2ccccc2[n+](C)c2[nH]c3ccc(OC)cc3c12

>  <score_type>  (3) 
oracle

>  <origin>  (3) 
adg

>  <m_score__min__energy>  (3) 
-8.1799999999999997

>  <m_primary>  (3) 
energy

$$$$
3:0
     RDKit          3D

 46 48  0  0  0  0  0  0  0  0999 V2000
   -6.0980   25.3060  -29.9070 C   0  0  0  0  0  0  0  0  0  0  0  0
   -5.3840   24.7730  -31.1460 C   0  0  0  0  0  0  0  0  0  0  0  0
   -4.1040   24.1350  -30.7670 N   0  0  0  0  0  0  0  0  0  0  0  0
   -3.6400   24.5570  -29.4230 C   0  0  0  0  0  0  0  0  0  0  0  0
   -3.7070   23.4560  -28.3530 C   0  0  0  0  0  0  0  0  0  0  0  0
   -4.1390   22.6650  -30.9590 C   0  0  0  0  0  0  0  0  0  0  0  0
   -3.5640   22.2490  -32.3260 C   0  0  0  0  0  0  0  0  0  0  0  0
   -4.6090   21.8310  -33.2660 N   0  0  0  0  0  0  0  0  0  0  0  0
   -5.7230   20.9770  -32.9240 C   0  0  0  0  0  0  0  0  0  0  0  0
   -5.6910   19.5730  -33.1510 C   0  0  0  0  0  0  0  0  0  0  0  0
   -4.5400   18.9430  -33.6680 C   0  0  0  0  0  0  0  0  0  0  0  0
   -4.5100   17.5660  -33.8770 C   0  0  0  0  0  0  0  0  0  0  0  0
   -5.6210   16.7860  -33.5730 C   0  0  0  0  0  0  0  0  0  0  0  0
   -5.5680   15.0520  -33.8420 Cl  0  0  0  0  0  0  0  0  0  0  0  0
   -6.7710   17.3750  -33.0480 C   0  0  0  0  0  0  0  0  0  0  0  0
   -6.8370   18.7700  -32.8160 C   0  0  0  0  0  0  0  0  0  0  0  0
   -7.9720   19.3550  -32.2720 N   0  0  0  0  0  0  0  0  0  0  0  0
   -9.1560   18.5480  -31.9240 C   0  0  0  0  0  0  0  0  0  0  0  0
   -7.9610   20.7070  -32.0620 C   0  0  0  0  0  0  0  0  0  0  0  0
   -8.9370   21.5430  -31.5480 C   0  0  0  0  0  0  0  0  0  0  0  0
   -8.3740   22.8090  -31.5890 C   0  0  0  0  0  0  0  0  0  0  0  0
   -7.1570   22.7510  -32.0880 O   0  0  0  0  0  0  0  0  0  0  0  0
   -6.8910   21.4990  -32.3720 C   0  0  0  0  0  0  0  0  0  0  0  0
   -5.5948   24.9304  -29.0038 H   0  0  0  0  0  0  0  0  0  0  0  0
   -6.0696   26.4056  -29.9121 H   0  0  0  0  0  0  0  0  0  0  0  0
   -7.1442   24.9662  -29.9121 H   0  0  0  0  0  0  0  0  0  0  0  0
   -6.0258   24.0310  -31.6435 H   0  0  0  0  0  0  0  0  0  0  0  0
   -5.1777   25.6110  -31.8281 H   0  0  0  0  0  0  0  0  0  0  0  0
   -2.5952   24.8901  -29.5088 H   0  0  0  0  0  0  0  0  0  0  0  0
   -4.3196   25.3566  -29.0933 H   0  0  0  0  0  0  0  0  0  0  0  0
   -3.6791   23.9141  -27.3533 H   0  0  0  0  0  0  0  0  0  0  0  0
   -4.6414   22.8875  -28.4699 H   0  0  0  0  0  0  0  0  0  0  0  0
   -2.8484   22.7784  -28.4699 H   0  0  0  0  0  0  0  0  0  0  0  0
   -3.5462   22.1886  -30.1643 H   0  0  0  0  0  0  0  0  0  0  0  0
   -5.1896   22.3415  -30.9191 H   0  0  0  0  0  0  0  0  0  0  0  0
   -3.0223   23.1040  -32.7568 H   0  0  0  0  0  0  0  0  0  0  0  0
   -2.8958   21.3907  -32.1626 H   0  0  0  0  0  0  0  0  0  0  0  0
   -4.5410   22.2110  -34.2350 H   0  0  0  0  0  0  0  0  0  0  0  0
   -3.6533   19.5475  -33.9096 H   0  0  0  0  0  0  0  0  0  0  0  0
   -3.6039   17.0935  -34.2841 H   0  0  0  0  0  0  0  0  0  0  0  0
   -7.6410   16.7453  -32.8103 H   0  0  0  0  0  0  0  0  0  0  0  0
   -9.2482   18.4852  -30.8297 H   0  0  0  0  0  0  0  0  0  0  0  0
  -10.0574   19.0205  -32.3414 H   0  0  0  0  0  0  0  0  0  0  0  0
   -9.0457   17.5362  -32.3414 H   0  0  0  0  0  0  0  0  0  0  0  0
   -9.9380   21.2644  -31.1869 H   0  0  0  0  0  0  0  0  0  0  0  0
   -8.8725   23.7301  -31.2528 H   0  0  0  0  0  0  0  0  0  0  0  0
  1  2  1  0
  2  3  1  0
  3  4  1  0
  4  5  1  0
  3  6  1  0
  6  7  1  0
  7  8  1  0
  8  9  1  0
  9 10  2  0
 10 11  1  0
 11 12  2  0
 12 13  1  0
 13 14  1  0
 13 15  2  0
 15 16  1  0
 16 17  2  0
 17 18  1  0
 17 19  1  0
 19 20  1  0
 20 21  2  0
 21 22  1  0
 22 23  1  0
 23  9  1  0
 16 10  1  0
 23 19  2  0
  1 24  1  0
  1 25  1  0
  1 26  1  0
  2 27  1  0
  2 28  1  0
  4 29  1  0
  4 30  1  0
  5 31  1  0
  5 32  1  0
  5 33  1  0
  6 34  1  0
  6 35  1  0
  7 36  1  0
  7 37  1  0
  8 38  1  0
 11 39  1  0
 12 40  1  0
 15 41  1  0
 18 42  1  0
 18 43  1  0
 18 44  1  0
 20 45  1  0
 21 46  1  0
M  CHG  1  17   1
M  END
>  <UniqueID>  (4) 
4

>  <SMILES>  (4) 
CCN(CC)CCNc1c2ccc(Cl)cc2[n+](C)c2ccoc12

>  <Energy>  (4) 
94.22350713100272

>  <Genealogy>  (4) 
CCN(CC)CCNc1c2ccc(Cl)cc2[n+](C)c2ccoc12 (3D coordinates assigned)
CCN(CC)CCNc1c2ccc(Cl)cc2[n+](C)c2ccoc12 (optimized conformer: 94.22350713100272 kcal/mol)

>  <smiles>  (4) 
CCN(CC)CCNc1c2ccc(Cl)cc2[n+](C)c2ccoc12

>  <score_type>  (4) 
oracle

>  <origin>  (4) 
adg

>  <m_score__min__energy>  (4) 
-7.9199999999999999

>  <m_primary>  (4) 
energy

$$$$
4:0
     RDKit          3D

 52 54  0  0  0  0  0  0  0  0999 V2000
   -3.4110   22.6310  -29.6570 C   0  0  0  0  0  0  0  0  0  0  0  0
   -3.4070   24.1540  -29.6830 C   0  0  0  0  0  0  0  0  0  0  0  0
   -4.1700   24.6380  -30.8420 N   0  0  0  0  0  0  0  0  0  0  0  0
   -5.1540   25.6570  -30.4460 C   0  0  0  0  0  0  0  0  0  0  0  0
   -6.3640   24.9950  -29.7730 C   0  0  0  0  0  0  0  0  0  0  0  0
   -7.2190   24.1760  -30.7560 C   0  0  0  0  0  0  0  0  0  0  0  0
   -6.7610   22.7100  -30.8960 C   0  0  0  0  0  0  0  0  0  0  0  0
   -5.8810   22.5410  -32.0540 N   0  0  0  0  0  0  0  0  0  0  0  0
   -5.6230   21.2410  -32.6080 C   0  0  0  0  0  0  0  0  0  0  0  0
   -6.6430   20.2850  -32.7240 C   0  0  0  0  0  0  0  0  0  0  0  0
   -6.3290   18.9770  -33.1400 C   0  0  0  0  0  0  0  0  0  0  0  0
   -5.0650   18.6750  -33.6050 N   0  0  0  0  0  0  0  0  0  0  0  0
   -4.8170   17.3860  -34.2830 C   0  0  0  0  0  0  0  0  0  0  0  0
   -4.0390   19.5870  -33.4440 C   0  0  0  0  0  0  0  0  0  0  0  0
   -2.6870   19.2660  -33.7100 C   0  0  0  0  0  0  0  0  0  0  0  0
   -1.6840   20.2220  -33.5460 C   0  0  0  0  0  0  0  0  0  0  0  0
   -2.0200   21.4970  -33.1080 C   0  0  0  0  0  0  0  0  0  0  0  0
   -3.3110   21.7970  -32.8230 N   0  0  0  0  0  0  0  0  0  0  0  0
   -4.3180   20.8910  -32.9660 C   0  0  0  0  0  0  0  0  0  0  0  0
   -7.4430   17.9440  -33.0600 C   0  0  0  0  0  0  0  0  0  0  0  0
   -8.2860   18.1550  -31.7900 C   0  0  0  0  0  0  0  0  0  0  0  0
   -8.8010   19.6020  -31.6170 C   0  0  0  0  0  0  0  0  0  0  0  0
   -8.1040   20.6270  -32.5250 C   0  0  0  0  0  0  0  0  0  0  0  0
   -3.4119   22.2821  -28.6138 H   0  0  0  0  0  0  0  0  0  0  0  0
   -4.3101   22.2579  -30.1692 H   0  0  0  0  0  0  0  0  0  0  0  0
   -2.5138   22.2532  -30.1692 H   0  0  0  0  0  0  0  0  0  0  0  0
   -3.8664   24.5355  -28.7592 H   0  0  0  0  0  0  0  0  0  0  0  0
   -2.3695   24.5115  -29.7584 H   0  0  0  0  0  0  0  0  0  0  0  0
   -3.4900   25.0890  -31.4990 H   0  0  0  0  0  0  0  0  0  0  0  0
   -4.6855   26.3592  -29.7407 H   0  0  0  0  0  0  0  0  0  0  0  0
   -5.4933   26.1949  -31.3435 H   0  0  0  0  0  0  0  0  0  0  0  0
   -6.0018   24.3248  -28.9795 H   0  0  0  0  0  0  0  0  0  0  0  0
   -6.9994   25.7977  -29.3706 H   0  0  0  0  0  0  0  0  0  0  0  0
   -8.2602   24.1831  -30.4013 H   0  0  0  0  0  0  0  0  0  0  0  0
   -7.1121   24.6443  -31.7456 H   0  0  0  0  0  0  0  0  0  0  0  0
   -6.2180   22.4148  -29.9860 H   0  0  0  0  0  0  0  0  0  0  0  0
   -7.6502   22.0782  -31.0377 H   0  0  0  0  0  0  0  0  0  0  0  0
   -5.1740   23.2920  -32.2230 H   0  0  0  0  0  0  0  0  0  0  0  0
   -4.6655   16.5987  -33.5298 H   0  0  0  0  0  0  0  0  0  0  0  0
   -5.6824   17.1301  -34.9120 H   0  0  0  0  0  0  0  0  0  0  0  0
   -3.9184   17.4695  -34.9120 H   0  0  0  0  0  0  0  0  0  0  0  0
   -2.4241   18.2532  -34.0493 H   0  0  0  0  0  0  0  0  0  0  0  0
   -0.6356   19.9683  -33.7618 H   0  0  0  0  0  0  0  0  0  0  0  0
   -1.2388   22.2628  -32.9925 H   0  0  0  0  0  0  0  0  0  0  0  0
   -8.0904   18.0410  -33.9440 H   0  0  0  0  0  0  0  0  0  0  0  0
   -6.9945   16.9402  -33.0256 H   0  0  0  0  0  0  0  0  0  0  0  0
   -9.1540   17.4808  -31.8338 H   0  0  0  0  0  0  0  0  0  0  0  0
   -7.6314   17.9429  -30.9318 H   0  0  0  0  0  0  0  0  0  0  0  0
   -9.8774   19.6153  -31.8432 H   0  0  0  0  0  0  0  0  0  0  0  0
   -8.5821   19.8955  -30.5797 H   0  0  0  0  0  0  0  0  0  0  0  0
   -8.6057   20.6375  -33.5039 H   0  0  0  0  0  0  0  0  0  0  0  0
   -8.1661   21.6143  -32.0440 H   0  0  0  0  0  0  0  0  0  0  0  0
  1  2  1  0
  2  3  1  0
  3  4  1  0
  4  5  1  0
  5  6  1  0
  6  7  1  0
  7  8  1  0
  8  9  1  0
  9 10  2  0
 10 11  1  0
 11 12  2  0
 12 13  1  0
 12 14  1  0
 14 15  2  0
 15 16  1  0
 16 17  2  0
 17 18  1  0
 18 19  2  0
 11 20  1  0
 20 21  1  0
 21 22  1  0
 22 23  1  0
 19  9  1  0
 23 10  1  0
 19 14  1  0
  1 24  1  0
  1 25  1  0
  1 26  1  0
  2 27  1  0
  2 28  1  0
  3 29  1  0
  4 30  1  0
  4 31  1  0
  5 32  1  0
  5 33  1  0
  6 34  1  0
  6 35  1  0
  7 36  1  0
  7 37  1  0
  8 38  1  0
 13 39  1  0
 13 40  1  0
 13 41  1  0
 15 42  1  0
 16 43  1  0
 17 44  1  0
 20 45  1  0
 20 46  1  0
 21 47  1  0
 21 48  1  0
 22 49  1  0
 22 50  1  0
 23 51  1  0
 23 52  1  0
M  CHG  1  12   1
M  END
>  <UniqueID>  (5) 
5

>  <SMILES>  (5) 
CCNCCCCNc1c2c([n+](C)c3cccnc13)CCCC2

>  <Energy>  (5) 
68.27757464979963

>  <Genealogy>  (5) 
CCNCCCCNc1c2c([n+](C)c3cccnc13)CCCC2 (3D coordinates assigned)
CCNCCCCNc1c2c([n+](C)c3cccnc13)CCCC2 (nonaromatic ring conformer: 68.27757464979963 kcal/mol)

>  <smiles>  (5) 
CCNCCCCNc1c2c([n+](C)c3cccnc13)CCCC2

>  <score_type>  (5) 
oracle

>  <origin>  (5) 
adg

>  <m_score__min__energy>  (5) 
-8.9600000000000009

>  <m_primary>  (5) 
energy

$$$$
5:0
     RDKit          3D

 76 79  0  0  0  0  0  0  0  0999 V2000
   -9.1040   21.0840  -31.3170 C   0  0  0  0  0  0  0  0  0  0  0  0
   -8.8020   20.0180  -32.2880 N   0  0  0  0  0  0  0  0  0  0  0  0
   -8.7180   18.7310  -31.5770 C   0  0  0  0  0  0  0  0  0  0  0  0
   -7.5310   20.2740  -33.0020 C   0  0  0  0  0  0  0  0  0  0  0  0
   -6.2970   20.0350  -32.1020 C   0  0  0  0  0  0  0  0  0  0  0  0
   -4.9950   20.0580  -32.9010 C   0  0  0  0  0  0  0  0  0  0  0  0
   -4.5440   21.4330  -33.1070 N   0  0  0  0  0  0  0  0  0  0  0  0
   -4.0520   22.2090  -32.0040 C   0  0  0  0  0  0  0  0  0  0  0  0
   -4.9520   23.0540  -31.3240 C   0  0  0  0  0  0  0  0  0  0  0  0
   -6.2430   23.3000  -31.8440 C   0  0  0  0  0  0  0  0  0  0  0  0
   -7.1540   24.0890  -31.1480 C   0  0  0  0  0  0  0  0  0  0  0  0
   -6.8050   24.6390  -29.9230 C   0  0  0  0  0  0  0  0  0  0  0  0
   -5.5350   24.4190  -29.3930 C   0  0  0  0  0  0  0  0  0  0  0  0
   -4.5700   23.6490  -30.0950 C   0  0  0  0  0  0  0  0  0  0  0  0
   -3.3060   23.4360  -29.5900 N   0  0  0  0  0  0  0  0  0  0  0  0
   -2.8230   24.2400  -28.4440 C   0  0  0  0  0  0  0  0  0  0  0  0
   -2.4700   22.5030  -30.1750 C   0  0  0  0  0  0  0  0  0  0  0  0
   -1.3290   22.0260  -29.4940 C   0  0  0  0  0  0  0  0  0  0  0  0
   -0.4350   21.1670  -30.1100 C   0  0  0  0  0  0  0  0  0  0  0  0
   -0.6140   20.8090  -31.4350 C   0  0  0  0  0  0  0  0  0  0  0  0
   -1.7420   21.2350  -32.1630 C   0  0  0  0  0  0  0  0  0  0  0  0
   -1.7760   21.0620  -33.6040 N   0  0  0  0  0  0  0  0  0  0  0  0
   -1.4610   19.8220  -34.3280 C   0  0  0  0  0  0  0  0  0  0  0  0
   -2.0340   18.5720  -33.6400 C   0  0  0  0  0  0  0  0  0  0  0  0
   -2.3580   17.4320  -34.6390 C   0  0  0  0  0  0  0  0  0  0  0  0
   -3.6850   16.7530  -34.4500 N   0  0  0  0  0  0  0  0  0  0  0  0
   -3.5550   15.3160  -34.8280 C   0  0  0  0  0  0  0  0  0  0  0  0
   -4.7450   17.4270  -35.2800 C   0  0  0  0  0  0  0  0  0  0  0  0
   -6.1010   17.6370  -34.5700 C   0  0  0  0  0  0  0  0  0  0  0  0
   -6.4530   16.4630  -33.6700 C   0  0  0  0  0  0  0  0  0  0  0  0
   -5.3710   16.2340  -32.6060 C   0  0  0  0  0  0  0  0  0  0  0  0
   -4.0020   16.8400  -32.9900 C   0  0  0  0  0  0  0  0  0  0  0  0
   -2.7580   21.9790  -31.4710 C   0  0  0  0  0  0  0  0  0  0  0  0
   -8.9928   20.6916  -30.2954 H   0  0  0  0  0  0  0  0  0  0  0  0
   -8.4082   21.9230  -31.4653 H   0  0  0  0  0  0  0  0  0  0  0  0
  -10.1365   21.4333  -31.4653 H   0  0  0  0  0  0  0  0  0  0  0  0
   -8.7297   18.9102  -30.4918 H   0  0  0  0  0  0  0  0  0  0  0  0
   -9.5770   18.1023  -31.8541 H   0  0  0  0  0  0  0  0  0  0  0  0
   -7.7845   18.2193  -31.8541 H   0  0  0  0  0  0  0  0  0  0  0  0
   -7.4712   19.6020  -33.8708 H   0  0  0  0  0  0  0  0  0  0  0  0
   -7.5241   21.3297  -33.3110 H   0  0  0  0  0  0  0  0  0  0  0  0
   -6.2578   20.8233  -31.3358 H   0  0  0  0  0  0  0  0  0  0  0  0
   -6.3976   19.0402  -31.6434 H   0  0  0  0  0  0  0  0  0  0  0  0
   -4.2222   19.5025  -32.3495 H   0  0  0  0  0  0  0  0  0  0  0  0
   -5.1713   19.5912  -33.8813 H   0  0  0  0  0  0  0  0  0  0  0  0
   -4.9730   21.9560  -33.9030 H   0  0  0  0  0  0  0  0  0  0  0  0
   -6.5314   22.8623  -32.8111 H   0  0  0  0  0  0  0  0  0  0  0  0
   -8.1524   24.2769  -31.5698 H   0  0  0  0  0  0  0  0  0  0  0  0
   -7.5325   25.2502  -29.3688 H   0  0  0  0  0  0  0  0  0  0  0  0
   -5.2756   24.8490  -28.4143 H   0  0  0  0  0  0  0  0  0  0  0  0
   -3.1167   23.7511  -27.5034 H   0  0  0  0  0  0  0  0  0  0  0  0
   -1.7269   24.3205  -28.4887 H   0  0  0  0  0  0  0  0  0  0  0  0
   -3.2667   25.2456  -28.4887 H   0  0  0  0  0  0  0  0  0  0  0  0
   -1.1472   22.3423  -28.4562 H   0  0  0  0  0  0  0  0  0  0  0  0
    0.4201   20.7678  -29.5448 H   0  0  0  0  0  0  0  0  0  0  0  0
    0.1400   20.1790  -31.9295 H   0  0  0  0  0  0  0  0  0  0  0  0
   -1.6490   21.9110  -34.1930 H   0  0  0  0  0  0  0  0  0  0  0  0
   -1.8819   19.8898  -35.3420 H   0  0  0  0  0  0  0  0  0  0  0  0
   -0.3661   19.7179  -34.3485 H   0  0  0  0  0  0  0  0  0  0  0  0
   -1.2968   18.2024  -32.9120 H   0  0  0  0  0  0  0  0  0  0  0  0
   -2.9765   18.8642  -33.1538 H   0  0  0  0  0  0  0  0  0  0  0  0
   -2.3379   17.8567  -35.6535 H   0  0  0  0  0  0  0  0  0  0  0  0
   -1.5983   16.6562  -34.4629 H   0  0  0  0  0  0  0  0  0  0  0  0
   -3.4994   14.7010  -33.9177 H   0  0  0  0  0  0  0  0  0  0  0  0
   -4.4294   15.0127  -35.4225 H   0  0  0  0  0  0  0  0  0  0  0  0
   -2.6404   15.1745  -35.4225 H   0  0  0  0  0  0  0  0  0  0  0  0
   -4.3636   18.4130  -35.5839 H   0  0  0  0  0  0  0  0  0  0  0  0
   -4.9445   16.7534  -36.1264 H   0  0  0  0  0  0  0  0  0  0  0  0
   -6.0458   18.5502  -33.9593 H   0  0  0  0  0  0  0  0  0  0  0  0
   -6.8813   17.7242  -35.3404 H   0  0  0  0  0  0  0  0  0  0  0  0
   -7.4104   16.6695  -33.1692 H   0  0  0  0  0  0  0  0  0  0  0  0
   -6.5269   15.5583  -34.2913 H   0  0  0  0  0  0  0  0  0  0  0  0
   -5.7046   16.6930  -31.6636 H   0  0  0  0  0  0  0  0  0  0  0  0
   -5.2320   15.1471  -32.5096 H   0  0  0  0  0  0  0  0  0  0  0  0
   -3.9993   17.9006  -32.6982 H   0  0  0  0  0  0  0  0  0  0  0  0
   -3.2354   16.2532  -32.4627 H   0  0  0  0  0  0  0  0  0  0  0  0
  1  2  1  0
  2  3  1  0
  2  4  1  0
  4  5  1  0
  5  6  1  0
  6  7  1  0
  7  8  1  0
  8  9  2  0
  9 10  1  0
 10 11  2  0
 11 12  1  0
 12 13  2  0
 13 14  1  0
 14 15  2  0
 15 16  1  0
 15 17  1  0
 17 18  2  0
 18 19  1  0
 19 20  2  0
 20 21  1  0
 21 22  1  0
 22 23  1  0
 23 24  1  0
 24 25  1  0
 25 26  1  0
 26 27  1  0
 26 28  1  0
 28 29  1  0
 29 30  1  0
 30 31  1  0
 31 32  1  0
 21 33  2  0
 33  8  1  0
 14  9  1  0
 33 17  1  0
 32 26  1  0
  1 34  1  0
  1 35  1  0
  1 36  1  0
  3 37  1  0
  3 38  1  0
  3 39  1  0
  4 40  1  0
  4 41  1  0
  5 42  1  0
  5 43  1  0
  6 44  1  0
  6 45  1  0
  7 46  1  0
 10 47  1  0
 11 48  1  0
 12 49  1  0
 13 50  1  0
 16 51  1  0
 16 52  1  0
 16 53  1  0
 18 54  1  0
 19 55  1  0
 20 56  1  0
 22 57  1  0
 23 58  1  0
 23 59  1  0
 24 60  1  0
 24 61  1  0
 25 62  1  0
 25 63  1  0
 27 64  1  0
 27 65  1  0
 27 66  1  0
 28 67  1  0
 28 68  1  0
 29 69  1  0
 29 70  1  0
 30 71  1  0
 30 72  1  0
 31 73  1  0
 31 74  1  0
 32 75  1  0
 32 76  1  0
M  CHG  2  15   1  26   1
M  END
>  <UniqueID>  (6) 
6

>  <SMILES>  (6) 
CN(C)CCCNc1c2ccccc2[n+](C)c2cccc(NCCC[N+]3(C)CCCCC3)c12

>  <Energy>  (6) 
129.30404021417723

>  <Genealogy>  (6) 
CN(C)CCCNc1c2ccccc2[n+](C)c2cccc(NCCC[N+]3(C)CCCCC3)c12 (3D coordinates assigned)
CN(C)CCCNc1c2ccccc2[n+](C)c2cccc(NCCC[N+]3(C)CCCCC3)c12 (nonaromatic ring conformer: 129.30404021417723 kcal/mol)

>  <smiles>  (6) 
CN(C)CCCNc1c2ccccc2[n+](C)c2cccc(NCCC[N+]3(C)CCCCC3)c12

>  <score_type>  (6) 
oracle

>  <origin>  (6) 
adg

>  <m_score__min__energy>  (6) 
-8.4700000000000006

>  <m_primary>  (6) 
energy

$$$$
6:0
     RDKit          3D

 56 57  0  0  0  0  0  0  0  0999 V2000
   -3.1440   21.5620  -27.9130 C   0  0  0  0  0  0  0  0  0  0  0  0
   -2.2960   22.5360  -27.0950 C   0  0  0  0  0  0  0  0  0  0  0  0
   -2.7680   23.9960  -27.2270 C   0  0  0  0  0  0  0  0  0  0  0  0
   -1.9430   24.8360  -28.2370 C   0  0  2  0  0  0  0  0  0  0  0  0
   -1.1110   25.9400  -27.5150 C   0  0  0  0  0  0  0  0  0  0  0  0
   -0.7600   25.6460  -26.1070 N   0  0  0  0  0  0  0  0  0  0  0  0
    0.6540   25.2720  -25.8610 C   0  0  0  0  0  0  0  0  0  0  0  0
    1.3800   26.3200  -25.0020 C   0  0  0  0  0  0  0  0  0  0  0  0
    0.7180   26.5240  -23.6820 N   0  0  0  0  0  0  0  0  0  0  0  0
    1.0120   27.8670  -23.1190 C   0  0  0  0  0  0  0  0  0  0  0  0
    2.4590   28.0080  -22.6120 C   0  0  0  0  0  0  0  0  0  0  0  0
    3.1310   26.7780  -22.7140 O   0  0  0  0  0  0  0  0  0  0  0  0
   -0.7570   26.2980  -23.7270 C   0  0  0  0  0  0  0  0  0  0  0  0
   -1.3340   26.5800  -25.1180 C   0  0  0  0  0  0  0  0  0  0  0  0
   -2.7220   25.3000  -29.3340 O   0  0  0  0  0  0  0  0  0  0  0  0
   -3.6100   24.3320  -29.8670 C   0  0  0  0  0  0  0  0  0  0  0  0
   -4.9230   25.0150  -30.2470 C   0  0  0  0  0  0  0  0  0  0  0  0
   -5.9630   24.0100  -30.6730 C   0  0  0  0  0  0  0  0  0  0  0  0
   -6.6620   23.2540  -29.7130 C   0  0  0  0  0  0  0  0  0  0  0  0
   -7.6370   22.3340  -30.1180 C   0  0  0  0  0  0  0  0  0  0  0  0
   -7.9290   22.1720  -31.4770 C   0  0  0  0  0  0  0  0  0  0  0  0
   -7.2510   22.9310  -32.4340 C   0  0  0  0  0  0  0  0  0  0  0  0
   -6.2730   23.8490  -32.0340 C   0  0  0  0  0  0  0  0  0  0  0  0
   -3.7118   20.9098  -27.2331 H   0  0  0  0  0  0  0  0  0  0  0  0
   -3.8426   22.1274  -28.5473 H   0  0  0  0  0  0  0  0  0  0  0  0
   -2.4878   20.9479  -28.5473 H   0  0  0  0  0  0  0  0  0  0  0  0
   -2.3492   22.2440  -26.0358 H   0  0  0  0  0  0  0  0  0  0  0  0
   -1.2675   22.4846  -27.4818 H   0  0  0  0  0  0  0  0  0  0  0  0
   -3.8176   23.9920  -27.5562 H   0  0  0  0  0  0  0  0  0  0  0  0
   -2.6358   24.4641  -26.2404 H   0  0  0  0  0  0  0  0  0  0  0  0
   -1.2030   24.1683  -28.7024 H   0  0  0  0  0  0  0  0  0  0  0  0
   -0.1757   26.0826  -28.0761 H   0  0  0  0  0  0  0  0  0  0  0  0
   -1.7495   26.8354  -27.4896 H   0  0  0  0  0  0  0  0  0  0  0  0
    0.6808   24.3037  -25.3397 H   0  0  0  0  0  0  0  0  0  0  0  0
    1.1660   25.2119  -26.8327 H   0  0  0  0  0  0  0  0  0  0  0  0
    2.4134   25.9838  -24.8316 H   0  0  0  0  0  0  0  0  0  0  0  0
    1.3540   27.2769  -25.5439 H   0  0  0  0  0  0  0  0  0  0  0  0
    1.1140   25.8170  -23.0160 H   0  0  0  0  0  0  0  0  0  0  0  0
    0.8411   28.6198  -23.9027 H   0  0  0  0  0  0  0  0  0  0  0  0
    0.3470   28.0122  -22.2549 H   0  0  0  0  0  0  0  0  0  0  0  0
    2.9847   28.7606  -23.2181 H   0  0  0  0  0  0  0  0  0  0  0  0
    2.4410   28.3208  -21.5576 H   0  0  0  0  0  0  0  0  0  0  0  0
    2.9210   26.2600  -21.8930 H   0  0  0  0  0  0  0  0  0  0  0  0
   -0.9650   25.2512  -23.4608 H   0  0  0  0  0  0  0  0  0  0  0  0
   -1.2305   26.9890  -23.0141 H   0  0  0  0  0  0  0  0  0  0  0  0
   -2.4264   26.4540  -25.0906 H   0  0  0  0  0  0  0  0  0  0  0  0
   -1.0820   27.6104  -25.4090 H   0  0  0  0  0  0  0  0  0  0  0  0
   -3.1615   23.8727  -30.7603 H   0  0  0  0  0  0  0  0  0  0  0  0
   -3.8017   23.5511  -29.1163 H   0  0  0  0  0  0  0  0  0  0  0  0
   -5.3003   25.5738  -29.3779 H   0  0  0  0  0  0  0  0  0  0  0  0
   -4.7291   25.6918  -31.0922 H   0  0  0  0  0  0  0  0  0  0  0  0
   -6.4420   23.3861  -28.6433 H   0  0  0  0  0  0  0  0  0  0  0  0
   -8.1745   21.7374  -29.3663 H   0  0  0  0  0  0  0  0  0  0  0  0
   -8.6932   21.4462  -31.7920 H   0  0  0  0  0  0  0  0  0  0  0  0
   -7.4856   22.8072  -33.5015 H   0  0  0  0  0  0  0  0  0  0  0  0
   -5.7439   24.4481  -32.7897 H   0  0  0  0  0  0  0  0  0  0  0  0
  1  2  1  0
  2  3  1  0
  3  4  1  0
  4  5  1  0
  5  6  1  0
  6  7  1  0
  7  8  1  0
  8  9  1  0
  9 10  1  0
 10 11  1  0
 11 12  1  0
  9 13  1  0
 13 14  1  0
  4 15  1  0
 15 16  1  0
 16 17  1  0
 17 18  1  0
 18 19  2  0
 19 20  1  0
 20 21  2  0
 21 22  1  0
 22 23  2  0
 14  6  1  0
 23 18  1  0
  1 24  1  0
  1 25  1  0
  1 26  1  0
  2 27  1  0
  2 28  1  0
  3 29  1  0
  3 30  1  0
  4 31  1  6
  5 32  1  0
  5 33  1  0
  7 34  1  0
  7 35  1  0
  8 36  1  0
  8 37  1  0
  9 38  1  0
 10 39  1  0
 10 40  1  0
 11 41  1  0
 11 42  1  0
 12 43  1  0
 13 44  1  0
 13 45  1  0
 14 46  1  0
 14 47  1  0
 16 48  1  0
 16 49  1  0
 17 50  1  0
 17 51  1  0
 19 52  1  0
 20 53  1  0
 21 54  1  0
 22 55  1  0
 23 56  1  0
M  CHG  1   9   1
M  END
>  <UniqueID>  (7) 
7

>  <SMILES>  (7) 
CCC[C@H](CN1CC[NH+](CCO)CC1)OCCc1ccccc1

>  <Energy>  (7) 
68.5568597903464

>  <Genealogy>  (7) 
CCCC(CN1CC[NH+](CCO)CC1)OCCc1ccccc1 (protonated)
CCC[C@H](CN1CC[NH+](CCO)CC1)OCCc1ccccc1 (chirality)
CCC[C@H](CN1CC[NH+](CCO)CC1)OCCc1ccccc1 (3D coordinates assigned)
CCC[C@H](CN1CC[NH+](CCO)CC1)OCCc1ccccc1 (nonaromatic ring conformer: 68.5568597903464 kcal/mol)

>  <smiles>  (7) 
CCCC(CN1CCN(CCO)CC1)OCCc1ccccc1

>  <score_type>  (7) 
oracle

>  <origin>  (7) 
adg

>  <m_score__min__energy>  (7) 
-6.8499999999999996

>  <m_primary>  (7) 
energy

$$$$
7:0
     RDKit          3D

 68 70  0  0  0  0  0  0  0  0999 V2000
   -0.9310   24.5750  -28.7230 C   0  0  0  0  0  0  0  0  0  0  0  0
   -2.3940   24.8880  -28.4360 C   0  0  0  0  0  0  0  0  0  0  0  0
   -3.1520   24.9230  -29.6460 O   0  0  0  0  0  0  0  0  0  0  0  0
   -3.7480   23.8140  -30.2710 C   0  0  0  0  0  0  0  0  0  0  0  0
   -3.1950   22.5200  -30.2160 C   0  0  0  0  0  0  0  0  0  0  0  0
   -3.8300   21.4570  -30.8630 C   0  0  0  0  0  0  0  0  0  0  0  0
   -5.0230   21.6670  -31.5570 C   0  0  0  0  0  0  0  0  0  0  0  0
   -5.5930   22.9480  -31.6090 C   0  0  0  0  0  0  0  0  0  0  0  0
   -6.8640   23.1790  -32.3850 C   0  0  0  0  0  0  0  0  0  0  0  0
   -8.0650   23.3790  -31.4520 C   0  0  0  0  0  0  0  0  0  0  0  0
   -8.4300   22.1180  -30.7900 N   0  0  0  0  0  0  0  0  0  0  0  0
   -9.1150   21.1880  -31.7030 C   0  0  0  0  0  0  0  0  0  0  0  0
   -8.8390   19.7020  -31.3940 C   0  0  0  0  0  0  0  0  0  0  0  0
   -7.7770   19.1180  -32.2900 C   0  0  0  0  0  0  0  0  0  0  0  0
   -7.2170   19.8820  -33.3260 C   0  0  0  0  0  0  0  0  0  0  0  0
   -6.2350   19.3340  -34.1570 C   0  0  0  0  0  0  0  0  0  0  0  0
   -5.7930   18.0100  -33.9590 C   0  0  0  0  0  0  0  0  0  0  0  0
   -4.7790   17.4160  -34.7280 O   0  0  0  0  0  0  0  0  0  0  0  0
   -3.6050   16.7790  -34.2240 C   0  0  0  0  0  0  0  0  0  0  0  0
   -2.3650   17.6660  -34.4420 C   0  0  0  0  0  0  0  0  0  0  0  0
   -2.2070   18.7650  -33.4600 N   0  0  0  0  0  0  0  0  0  0  0  0
   -2.5700   20.0990  -33.9850 C   0  0  0  0  0  0  0  0  0  0  0  0
   -1.7710   21.2290  -33.2870 C   0  0  0  0  0  0  0  0  0  0  0  0
   -0.4210   21.5490  -33.9560 C   0  0  0  0  0  0  0  0  0  0  0  0
    0.7070   20.5290  -33.6710 C   0  0  0  0  0  0  0  0  0  0  0  0
    0.2860   19.0470  -33.6700 C   0  0  0  0  0  0  0  0  0  0  0  0
   -0.9090   18.7290  -32.7520 C   0  0  0  0  0  0  0  0  0  0  0  0
   -6.3550   17.2540  -32.9230 C   0  0  0  0  0  0  0  0  0  0  0  0
   -7.3460   17.7960  -32.1020 C   0  0  0  0  0  0  0  0  0  0  0  0
   -4.9440   24.0160  -30.9690 C   0  0  0  0  0  0  0  0  0  0  0  0
   -0.3878   24.4588  -27.7736 H   0  0  0  0  0  0  0  0  0  0  0  0
   -0.8623   23.6418  -29.3013 H   0  0  0  0  0  0  0  0  0  0  0  0
   -0.4865   25.3984  -29.3013 H   0  0  0  0  0  0  0  0  0  0  0  0
   -2.8059   24.1114  -27.7747 H   0  0  0  0  0  0  0  0  0  0  0  0
   -2.4553   25.8743  -27.9529 H   0  0  0  0  0  0  0  0  0  0  0  0
   -2.2607   22.3458  -29.6622 H   0  0  0  0  0  0  0  0  0  0  0  0
   -3.3881   20.4504  -30.8254 H   0  0  0  0  0  0  0  0  0  0  0  0
   -5.5176   20.8257  -32.0645 H   0  0  0  0  0  0  0  0  0  0  0  0
   -6.7433   24.0766  -33.0093 H   0  0  0  0  0  0  0  0  0  0  0  0
   -7.0544   22.2917  -33.0066 H   0  0  0  0  0  0  0  0  0  0  0  0
   -7.8064   24.1258  -30.6869 H   0  0  0  0  0  0  0  0  0  0  0  0
   -8.9216   23.7230  -32.0502 H   0  0  0  0  0  0  0  0  0  0  0  0
   -9.0370   22.3100  -29.9620 H   0  0  0  0  0  0  0  0  0  0  0  0
  -10.1985   21.3630  -31.6288 H   0  0  0  0  0  0  0  0  0  0  0  0
   -8.7271   21.3843  -32.7135 H   0  0  0  0  0  0  0  0  0  0  0  0
   -8.5074   19.6139  -30.3489 H   0  0  0  0  0  0  0  0  0  0  0  0
   -9.7705   19.1437  -31.5690 H   0  0  0  0  0  0  0  0  0  0  0  0
   -7.5525   20.9174  -33.4849 H   0  0  0  0  0  0  0  0  0  0  0  0
   -5.8053   19.9388  -34.9691 H   0  0  0  0  0  0  0  0  0  0  0  0
   -3.7300   16.5923  -33.1472 H   0  0  0  0  0  0  0  0  0  0  0  0
   -3.4594   15.8310  -34.7626 H   0  0  0  0  0  0  0  0  0  0  0  0
   -1.4722   17.0259  -34.3860 H   0  0  0  0  0  0  0  0  0  0  0  0
   -2.4949   18.1443  -35.4240 H   0  0  0  0  0  0  0  0  0  0  0  0
   -2.3577   20.1269  -35.0640 H   0  0  0  0  0  0  0  0  0  0  0  0
   -3.6395   20.2646  -33.7882 H   0  0  0  0  0  0  0  0  0  0  0  0
   -2.3851   22.1416  -33.2940 H   0  0  0  0  0  0  0  0  0  0  0  0
   -1.5457   20.8769  -32.2695 H   0  0  0  0  0  0  0  0  0  0  0  0
   -0.5797   21.5875  -35.0438 H   0  0  0  0  0  0  0  0  0  0  0  0
   -0.0855   22.5060  -33.5299 H   0  0  0  0  0  0  0  0  0  0  0  0
    1.4821   20.6592  -34.4405 H   0  0  0  0  0  0  0  0  0  0  0  0
    1.0516   20.7425  -32.6484 H   0  0  0  0  0  0  0  0  0  0  0  0
    0.0154   18.7649  -34.6982 H   0  0  0  0  0  0  0  0  0  0  0  0
    1.1424   18.4762  -33.2819 H   0  0  0  0  0  0  0  0  0  0  0  0
   -0.7682   17.7234  -32.3289 H   0  0  0  0  0  0  0  0  0  0  0  0
   -0.9388   19.5027  -31.9706 H   0  0  0  0  0  0  0  0  0  0  0  0
   -6.0123   16.2225  -32.7541 H   0  0  0  0  0  0  0  0  0  0  0  0
   -7.7910   17.1835  -31.3039 H   0  0  0  0  0  0  0  0  0  0  0  0
   -5.3812   25.0243  -31.0169 H   0  0  0  0  0  0  0  0  0  0  0  0
  1  2  1  0
  2  3  1  0
  3  4  1  0
  4  5  2  0
  5  6  1  0
  6  7  2  0
  7  8  1  0
  8  9  1  0
  9 10  1  0
 10 11  1  0
 11 12  1  0
 12 13  1  0
 13 14  1  0
 14 15  2  0
 15 16  1  0
 16 17  2  0
 17 18  1  0
 18 19  1  0
 19 20  1  0
 20 21  1  0
 21 22  1  0
 22 23  1  0
 23 24  1  0
 24 25  1  0
 25 26  1  0
 26 27  1  0
 17 28  1  0
 28 29  2  0
  8 30  2  0
 30  4  1  0
 29 14  1  0
 27 21  1  0
  1 31  1  0
  1 32  1  0
  1 33  1  0
  2 34  1  0
  2 35  1  0
  5 36  1  0
  6 37  1  0
  7 38  1  0
  9 39  1  0
  9 40  1  0
 10 41  1  0
 10 42  1  0
 11 43  1  0
 12 44  1  0
 12 45  1  0
 13 46  1  0
 13 47  1  0
 15 48  1  0
 16 49  1  0
 19 50  1  0
 19 51  1  0
 20 52  1  0
 20 53  1  0
 22 54  1  0
 22 55  1  0
 23 56  1  0
 23 57  1  0
 24 58  1  0
 24 59  1  0
 25 60  1  0
 25 61  1  0
 26 62  1  0
 26 63  1  0
 27 64  1  0
 27 65  1  0
 28 66  1  0
 29 67  1  0
 30 68  1  0
M  END
>  <UniqueID>  (8) 
8

>  <SMILES>  (8) 
CCOc1cccc(CCNCCc2ccc(OCCN3CCCCCC3)cc2)c1

>  <Energy>  (8) 
73.91216888094877

>  <Genealogy>  (8) 
CCOc1cccc(CCNCCc2ccc(OCCN3CCCCCC3)cc2)c1 (3D coordinates assigned)
CCOc1cccc(CCNCCc2ccc(OCCN3CCCCCC3)cc2)c1 (nonaromatic ring conformer: 73.91216888094877 kcal/mol)

>  <smiles>  (8) 
CCOc1cccc(CCNCCc2ccc(OCCN3CCCCCC3)cc2)c1

>  <score_type>  (8) 
oracle

>  <origin>  (8) 
adg

>  <m_score__min__energy>  (8) 
-7.2800000000000002

>  <m_primary>  (8) 
energy

$$$$
8:0
     RDKit          3D

 44 45  0  0  0  0  0  0  0  0999 V2000
   -6.8090   17.6600  -31.2410 C   0  0  0  0  0  0  0  0  0  0  0  0
   -8.0140   17.8530  -32.1620 C   0  0  0  0  0  0  0  0  0  0  0  0
   -8.7630   19.1650  -31.8890 C   0  0  0  0  0  0  0  0  0  0  0  0
   -8.2320   20.3330  -32.7270 C   0  0  0  0  0  0  0  0  0  0  0  0
   -6.8670   20.6670  -32.3140 N   0  0  0  0  0  0  0  0  0  0  0  0
   -6.4750   21.6010  -31.4070 C   0  0  0  0  0  0  0  0  0  0  0  0
   -7.5980   22.6070  -30.4360 S   0  0  0  0  0  0  0  0  0  0  0  0
   -6.8710   24.1750  -31.0150 C   0  0  0  0  0  0  0  0  0  0  0  0
   -6.0470   24.8080  -29.8970 C   0  0  0  0  0  0  0  0  0  0  0  0
   -4.5870   24.5380  -30.0970 C   0  0  0  0  0  0  0  0  0  0  0  0
   -3.9050   25.3040  -30.8380 O   0  0  0  0  0  0  0  0  0  0  0  0
   -4.0050   23.4140  -29.4940 O   0  0  0  0  0  0  0  0  0  0  0  0
   -4.2380   23.0430  -28.1360 C   0  0  0  0  0  0  0  0  0  0  0  0
   -3.8920   24.1990  -27.1990 C   0  0  0  0  0  0  0  0  0  0  0  0
   -5.1280   21.7190  -31.3240 N   0  0  0  0  0  0  0  0  0  0  0  0
   -4.6630   20.8370  -32.2220 C   0  0  0  0  0  0  0  0  0  0  0  0
   -3.3390   20.5740  -32.5650 C   0  0  0  0  0  0  0  0  0  0  0  0
   -3.1030   19.6210  -33.5750 C   0  0  0  0  0  0  0  0  0  0  0  0
   -4.1840   18.9680  -34.2100 C   0  0  0  0  0  0  0  0  0  0  0  0
   -5.5110   19.2590  -33.8410 C   0  0  0  0  0  0  0  0  0  0  0  0
   -5.7110   20.2030  -32.8310 C   0  0  0  0  0  0  0  0  0  0  0  0
   -7.1369   17.7125  -30.1923 H   0  0  0  0  0  0  0  0  0  0  0  0
   -6.3536   16.6775  -31.4340 H   0  0  0  0  0  0  0  0  0  0  0  0
   -6.0695   18.4512  -31.4340 H   0  0  0  0  0  0  0  0  0  0  0  0
   -7.6631   17.8583  -33.2045 H   0  0  0  0  0  0  0  0  0  0  0  0
   -8.7132   17.0252  -31.9729 H   0  0  0  0  0  0  0  0  0  0  0  0
   -9.8275   19.0183  -32.1241 H   0  0  0  0  0  0  0  0  0  0  0  0
   -8.6124   19.4200  -30.8296 H   0  0  0  0  0  0  0  0  0  0  0  0
   -8.2316   20.0482  -33.7895 H   0  0  0  0  0  0  0  0  0  0  0  0
   -8.8794   21.2093  -32.5755 H   0  0  0  0  0  0  0  0  0  0  0  0
   -6.2215   23.9785  -31.8807 H   0  0  0  0  0  0  0  0  0  0  0  0
   -7.6781   24.8637  -31.3053 H   0  0  0  0  0  0  0  0  0  0  0  0
   -6.2162   25.8949  -29.8948 H   0  0  0  0  0  0  0  0  0  0  0  0
   -6.3591   24.3711  -28.9369 H   0  0  0  0  0  0  0  0  0  0  0  0
   -5.2984   22.7794  -28.0095 H   0  0  0  0  0  0  0  0  0  0  0  0
   -3.6010   22.1811  -27.8882 H   0  0  0  0  0  0  0  0  0  0  0  0
   -3.9913   23.8671  -26.1550 H   0  0  0  0  0  0  0  0  0  0  0  0
   -2.8573   24.5236  -27.3837 H   0  0  0  0  0  0  0  0  0  0  0  0
   -4.5782   25.0387  -27.3837 H   0  0  0  0  0  0  0  0  0  0  0  0
   -4.5780   22.3650  -30.7150 H   0  0  0  0  0  0  0  0  0  0  0  0
   -2.5073   21.0920  -32.0650 H   0  0  0  0  0  0  0  0  0  0  0  0
   -2.0707   19.3833  -33.8716 H   0  0  0  0  0  0  0  0  0  0  0  0
   -3.9868   18.2268  -34.9985 H   0  0  0  0  0  0  0  0  0  0  0  0
   -6.3605   18.7605  -34.3308 H   0  0  0  0  0  0  0  0  0  0  0  0
  1  2  1  0
  2  3  1  0
  3  4  1  0
  4  5  1  0
  5  6  1  0
  6  7  1  0
  7  8  1  0
  8  9  1  0
  9 10  1  0
 10 11  2  0
 10 12  1  0
 12 13  1  0
 13 14  1  0
  6 15  2  0
 15 16  1  0
 16 17  2  0
 17 18  1  0
 18 19  2  0
 19 20  1  0
 20 21  2  0
 21  5  1  0
 21 16  1  0
  1 22  1  0
  1 23  1  0
  1 24  1  0
  2 25  1  0
  2 26  1  0
  3 27  1  0
  3 28  1  0
  4 29  1  0
  4 30  1  0
  8 31  1  0
  8 32  1  0
  9 33  1  0
  9 34  1  0
 13 35  1  0
 13 36  1  0
 14 37  1  0
 14 38  1  0
 14 39  1  0
 15 40  1  0
 17 41  1  0
 18 42  1  0
 19 43  1  0
 20 44  1  0
M  CHG  1  15   1
M  END
>  <UniqueID>  (9) 
9

>  <SMILES>  (9) 
CCCCn1c(SCCC(=O)OCC)[nH+]c2ccccc21

>  <Energy>  (9) 
63.762348034501066

>  <Genealogy>  (9) 
CCCCn1c(SCCC(=O)OCC)[nH+]c2ccccc21 (protonated)
CCCCn1c(SCCC(=O)OCC)[nH+]c2ccccc21 (3D coordinates assigned)
CCCCn1c(SCCC(=O)OCC)[nH+]c2ccccc21 (optimized conformer: 63.762348034501066 kcal/mol)

>  <smiles>  (9) 
CCCCn1c(SCCC(=O)OCC)nc2ccccc21

>  <score_type>  (9) 
oracle

>  <origin>  (9) 
adg

>  <m_score__min__energy>  (9) 
-7.0999999999999996

>  <m_primary>  (9) 
energy

$$$$
9:0
     RDKit          3D

 56 59  0  0  0  0  0  0  0  0999 V2000
   -8.3760   18.9130  -32.4170 C   0  0  0  0  0  0  0  0  0  0  0  0
   -7.6510   17.5740  -32.3810 C   0  0  0  0  0  0  0  0  0  0  0  0
   -6.4300   17.6450  -33.1750 N   0  0  0  0  0  0  0  0  0  0  0  0
   -5.2650   17.1590  -32.7770 N   0  0  0  0  0  0  0  0  0  0  0  0
   -4.3830   17.4890  -33.7430 C   0  0  0  0  0  0  0  0  0  0  0  0
   -2.9150   17.2050  -33.6870 C   0  0  0  0  0  0  0  0  0  0  0  0
   -2.1840   18.3600  -33.1250 N   0  0  0  0  0  0  0  0  0  0  0  0
   -1.5000   19.1200  -34.1980 C   0  0  0  0  0  0  0  0  0  0  0  0
   -0.6930   20.3330  -33.6680 C   0  0  2  0  0  0  0  0  0  0  0  0
    0.0590   20.0060  -32.3610 C   0  0  0  0  0  0  0  0  0  0  0  0
   -0.8940   19.8330  -31.1570 C   0  0  0  0  0  0  0  0  0  0  0  0
   -2.3360   20.2760  -31.4910 C   0  0  2  0  0  0  0  0  0  0  0  0
   -3.1000   19.2160  -32.3370 C   0  0  0  0  0  0  0  0  0  0  0  0
   -2.2890   21.5950  -32.1620 N   0  0  0  0  0  0  0  0  0  0  0  0
   -3.5980   22.2970  -32.1800 C   0  0  0  0  0  0  0  0  0  0  0  0
   -4.2050   22.4330  -30.7630 C   0  0  0  0  0  0  0  0  0  0  0  0
   -5.4520   23.3490  -30.7160 C   0  0  0  0  0  0  0  0  0  0  0  0
   -5.1410   24.7380  -30.1330 C   0  0  0  0  0  0  0  0  0  0  0  0
   -3.8170   25.1220  -30.4360 O   0  0  0  0  0  0  0  0  0  0  0  0
   -2.9010   24.3680  -29.6630 C   0  0  0  0  0  0  0  0  0  0  0  0
   -3.1590   22.8430  -29.7050 C   0  0  0  0  0  0  0  0  0  0  0  0
   -1.5990   21.5740  -33.4760 C   0  0  0  0  0  0  0  0  0  0  0  0
   -5.0450   18.2070  -34.7180 C   0  0  0  0  0  0  0  0  0  0  0  0
   -6.3280   18.2860  -34.3290 N   0  0  0  0  0  0  0  0  0  0  0  0
   -8.5622   19.2569  -31.3889 H   0  0  0  0  0  0  0  0  0  0  0  0
   -7.7549   19.6522  -32.9441 H   0  0  0  0  0  0  0  0  0  0  0  0
   -9.3345   18.7969  -32.9441 H   0  0  0  0  0  0  0  0  0  0  0  0
   -7.3946   17.3267  -31.3403 H   0  0  0  0  0  0  0  0  0  0  0  0
   -8.3080   16.7970  -32.7988 H   0  0  0  0  0  0  0  0  0  0  0  0
   -2.7411   16.3234  -33.0526 H   0  0  0  0  0  0  0  0  0  0  0  0
   -2.5505   17.0165  -34.7076 H   0  0  0  0  0  0  0  0  0  0  0  0
   -0.8093   18.4421  -34.7208 H   0  0  0  0  0  0  0  0  0  0  0  0
   -2.2791   19.5131  -34.8677 H   0  0  0  0  0  0  0  0  0  0  0  0
    0.0602   20.5680  -34.4345 H   0  0  0  0  0  0  0  0  0  0  0  0
    0.6220   19.0716  -32.5023 H   0  0  0  0  0  0  0  0  0  0  0  0
    0.7271   20.8513  -32.1395 H   0  0  0  0  0  0  0  0  0  0  0  0
   -0.9072   18.7728  -30.8641 H   0  0  0  0  0  0  0  0  0  0  0  0
   -0.5249   20.4678  -30.3380 H   0  0  0  0  0  0  0  0  0  0  0  0
   -2.9052   20.3682  -30.5542 H   0  0  0  0  0  0  0  0  0  0  0  0
   -3.6856   18.5775  -31.6592 H   0  0  0  0  0  0  0  0  0  0  0  0
   -3.7496   19.7536  -33.0434 H   0  0  0  0  0  0  0  0  0  0  0  0
   -3.4555   23.3024  -32.6029 H   0  0  0  0  0  0  0  0  0  0  0  0
   -4.2931   21.7021  -32.7907 H   0  0  0  0  0  0  0  0  0  0  0  0
   -4.5522   21.4227  -30.5008 H   0  0  0  0  0  0  0  0  0  0  0  0
   -5.8367   23.4739  -31.7389 H   0  0  0  0  0  0  0  0  0  0  0  0
   -6.1941   22.8699  -30.0604 H   0  0  0  0  0  0  0  0  0  0  0  0
   -5.8373   25.4736  -30.5619 H   0  0  0  0  0  0  0  0  0  0  0  0
   -5.2553   24.6960  -29.0398 H   0  0  0  0  0  0  0  0  0  0  0  0
   -1.8865   24.5591  -30.0427 H   0  0  0  0  0  0  0  0  0  0  0  0
   -3.0248   24.6862  -28.6173 H   0  0  0  0  0  0  0  0  0  0  0  0
   -2.2112   22.3341  -29.9347 H   0  0  0  0  0  0  0  0  0  0  0  0
   -3.5565   22.5512  -28.7217 H   0  0  0  0  0  0  0  0  0  0  0  0
   -2.3596   21.5782  -34.2707 H   0  0  0  0  0  0  0  0  0  0  0  0
   -0.9515   22.4621  -33.5201 H   0  0  0  0  0  0  0  0  0  0  0  0
   -4.6077   18.6313  -35.6339 H   0  0  0  0  0  0  0  0  0  0  0  0
   -7.1060   18.7790  -34.8220 H   0  0  0  0  0  0  0  0  0  0  0  0
  1  2  1  0
  2  3  1  0
  3  4  1  0
  4  5  2  0
  5  6  1  0
  6  7  1  0
  7  8  1  0
  8  9  1  0
  9 10  1  0
 10 11  1  0
 11 12  1  0
 12 13  1  0
 12 14  1  0
 14 15  1  0
 15 16  1  0
 16 17  1  0
 17 18  1  0
 18 19  1  0
 19 20  1  0
 20 21  1  0
 14 22  1  0
  5 23  1  0
 23 24  2  0
 24  3  1  0
 13  7  1  0
 21 16  1  0
 22  9  1  0
  1 25  1  0
  1 26  1  0
  1 27  1  0
  2 28  1  0
  2 29  1  0
  6 30  1  0
  6 31  1  0
  8 32  1  0
  8 33  1  0
  9 34  1  6
 10 35  1  0
 10 36  1  0
 11 37  1  0
 11 38  1  0
 12 39  1  1
 13 40  1  0
 13 41  1  0
 15 42  1  0
 15 43  1  0
 16 44  1  0
 17 45  1  0
 17 46  1  0
 18 47  1  0
 18 48  1  0
 20 49  1  0
 20 50  1  0
 21 51  1  0
 21 52  1  0
 22 53  1  0
 22 54  1  0
 23 55  1  0
 24 56  1  0
M  CHG  1  24   1
M  END
>  <UniqueID>  (10) 
10

>  <SMILES>  (10) 
CCn1nc(CN2C[C@@H]3CC[C@H](C2)N(CC2CCOCC2)C3)c[nH+]1

>  <Energy>  (10) 
113.96233778846195

>  <Genealogy>  (10) 
CCn1nc(CN2CC3CCC(C2)N(CC2CCOCC2)C3)c[nH+]1 (protonated)
CCn1nc(CN2C[C@@H]3CC[C@H](C2)N(CC2CCOCC2)C3)c[nH+]1 (chirality)
CCn1nc(CN2C[C@@H]3CC[C@H](C2)N(CC2CCOCC2)C3)c[nH+]1 (3D coordinates assigned)
CCn1nc(CN2C[C@@H]3CC[C@H](C2)N(CC2CCOCC2)C3)c[nH+]1 (nonaromatic ring conformer: 113.96233778846195 kcal/mol)

>  <smiles>  (10) 
CCn1ncc(CN2CC3CCC(C2)N(CC2CCOCC2)C3)n1

>  <score_type>  (10) 
oracle

>  <origin>  (10) 
adg

>  <m_score__min__energy>  (10) 
-6.7000000000000002

>  <m_primary>  (10) 
energy

$$$$
10:0
     RDKit          3D

 42 45  0  0  0  0  0  0  0  0999 V2000
   -2.8143   25.1419  -25.3041 H   0  0  0  0  0  0  0  0  0  0  0  0
   -2.3650   25.3100  -26.2940 C   0  0  0  0  0  0  0  0  0  0  0  0
   -1.4370   26.3420  -26.4750 C   0  0  0  0  0  0  0  0  0  0  0  0
   -1.0130   27.2010  -25.3220 C   0  0  0  0  0  0  0  0  0  0  0  0
   -1.2624   26.6958  -24.3772 H   0  0  0  0  0  0  0  0  0  0  0  0
    0.0726   27.3712  -25.3713 H   0  0  0  0  0  0  0  0  0  0  0  0
   -1.5381   28.1663  -25.3713 H   0  0  0  0  0  0  0  0  0  0  0  0
   -0.8670   26.5200  -27.7420 C   0  0  0  0  0  0  0  0  0  0  0  0
   -0.1242   27.3159  -27.8992 H   0  0  0  0  0  0  0  0  0  0  0  0
   -1.2250   25.7160  -28.7800 N   0  0  0  0  0  0  0  0  0  0  0  0
   -0.7990   25.9210  -29.7110 H   0  0  0  0  0  0  0  0  0  0  0  0
   -2.1270   24.6970  -28.6200 C   0  0  0  0  0  0  0  0  0  0  0  0
   -2.4730   23.9170  -29.6070 N   0  0  0  0  0  0  0  0  0  0  0  0
   -3.5650   24.1160  -30.5140 C   0  0  0  0  0  0  0  0  0  0  0  0
   -3.9570   25.2900  -30.7470 O   0  0  0  0  0  0  0  0  0  0  0  0
   -4.2900   22.9800  -31.1110 C   0  0  0  0  0  0  0  0  0  0  0  0
   -3.5230   21.6530  -31.8880 S   0  0  0  0  0  0  0  0  0  0  0  0
   -4.9910   20.9260  -32.2300 C   0  0  0  0  0  0  0  0  0  0  0  0
   -6.0280   21.6440  -31.7710 C   0  0  0  0  0  0  0  0  0  0  0  0
   -5.6900   22.8250  -31.1280 C   0  0  0  0  0  0  0  0  0  0  0  0
   -6.4090   23.5360  -30.6950 H   0  0  0  0  0  0  0  0  0  0  0  0
   -7.1650   20.9190  -32.0340 C   0  0  0  0  0  0  0  0  0  0  0  0
   -6.7140   19.7380  -32.6220 C   0  0  0  0  0  0  0  0  0  0  0  0
   -5.3620   19.7560  -32.7760 N   0  0  0  0  0  0  0  0  0  0  0  0
   -4.4950   18.6850  -33.2570 C   0  0  0  0  0  0  0  0  0  0  0  0
   -4.0621   18.1503  -32.3987 H   0  0  0  0  0  0  0  0  0  0  0  0
   -5.0828   17.9836  -33.8674 H   0  0  0  0  0  0  0  0  0  0  0  0
   -3.6866   19.1139  -33.8674 H   0  0  0  0  0  0  0  0  0  0  0  0
   -7.6410   18.6360  -33.0510 C   0  0  0  0  0  0  0  0  0  0  0  0
   -7.7981   18.6987  -34.1379 H   0  0  0  0  0  0  0  0  0  0  0  0
   -7.1879   17.6692  -32.7863 H   0  0  0  0  0  0  0  0  0  0  0  0
   -9.0010   18.7590  -32.3350 C   0  0  0  0  0  0  0  0  0  0  0  0
   -9.7303   18.1116  -32.8439 H   0  0  0  0  0  0  0  0  0  0  0  0
   -8.8626   18.4545  -31.2871 H   0  0  0  0  0  0  0  0  0  0  0  0
   -9.5300   20.2110  -32.3450 C   0  0  0  0  0  0  0  0  0  0  0  0
   -9.6335   20.5455  -33.3878 H   0  0  0  0  0  0  0  0  0  0  0  0
  -10.5009   20.2258  -31.8281 H   0  0  0  0  0  0  0  0  0  0  0  0
   -8.5770   21.1700  -31.6050 C   0  0  0  0  0  0  0  0  0  0  0  0
   -8.8503   22.2091  -31.8406 H   0  0  0  0  0  0  0  0  0  0  0  0
   -8.6615   20.9991  -30.5217 H   0  0  0  0  0  0  0  0  0  0  0  0
   -2.7200   24.4950  -27.3680 C   0  0  0  0  0  0  0  0  0  0  0  0
   -3.4636   23.6959  -27.2321 H   0  0  0  0  0  0  0  0  0  0  0  0
  1  2  1  0
  2  3  1  0
  3  4  1  0
  4  5  1  0
  4  6  1  0
  4  7  1  0
  3  8  2  0
  8  9  1  0
  8 10  1  0
 10 11  1  0
 10 12  1  0
 12 13  2  0
 13 14  1  0
 14 15  2  0
 14 16  1  0
 16 17  1  0
 17 18  1  0
 18 19  2  0
 19 20  1  0
 20 21  1  0
 19 22  1  0
 22 23  2  0
 23 24  1  0
 24 25  1  0
 25 26  1  0
 25 27  1  0
 25 28  1  0
 23 29  1  0
 29 30  1  0
 29 31  1  0
 29 32  1  0
 32 33  1  0
 32 34  1  0
 32 35  1  0
 35 36  1  0
 35 37  1  0
 35 38  1  0
 38 39  1  0
 38 40  1  0
 12 41  1  0
 41 42  1  0
 41  2  2  0
 20 16  2  0
 38 22  1  0
 24 18  1  0
M  END
>  <UniqueID>  (11) 
11

>  <SMILES>  (11) 
Cc1cc/c(=N/C(=O)c2cc3c4c(n(C)c3s2)CCCC4)[nH]c1

>  <Energy>  (11) 
126.12874676350769

>  <Genealogy>  (11) 
Cc1cc/c(=N/C(=O)c2cc3c4c(n(C)c3s2)CCCC4)[nH]c1 (cis-trans isomerization)
Cc1cc/c(=N/C(=O)c2cc3c4c(n(C)c3s2)CCCC4)[nH]c1 (3D coordinates assigned)
Cc1cc/c(=N/C(=O)c2cc3c4c(n(C)c3s2)CCCC4)[nH]c1 (nonaromatic ring conformer: 126.12874676350769 kcal/mol)

>  <smiles>  (11) 
Cc1ccc(=NC(=O)c2cc3c4c(n(C)c3s2)CCCC4)[nH]c1

>  <score_type>  (11) 
oracle

>  <origin>  (11) 
adg

>  <m_score__min__energy>  (11) 
-9.7300000000000004

>  <m_primary>  (11) 
energy

$$$$
11:0
     RDKit          3D

 40 41  0  0  0  0  0  0  0  0999 V2000
   -5.7650   25.9680  -30.1940 C   0  0  0  0  0  0  0  0  0  0  0  0
   -5.0670   24.7190  -30.6130 C   0  0  0  0  0  0  0  0  0  0  0  0
   -5.6810   23.5750  -31.0860 C   0  0  0  0  0  0  0  0  0  0  0  0
   -4.6460   22.6740  -31.2340 C   0  0  0  0  0  0  0  0  0  0  0  0
   -4.7810   21.2420  -31.6610 C   0  0  0  0  0  0  0  0  0  0  0  0
   -4.6520   21.1390  -33.1250 N   0  0  0  0  0  0  0  0  0  0  0  0
   -5.3710   19.9820  -33.6780 C   0  0  0  0  0  0  0  0  0  0  0  0
   -6.7070   19.7890  -32.9960 C   0  0  0  0  0  0  0  0  0  0  0  0
   -7.5350   20.8980  -32.7670 C   0  0  0  0  0  0  0  0  0  0  0  0
   -8.7320   20.7510  -32.0680 C   0  0  0  0  0  0  0  0  0  0  0  0
   -9.0990   19.4910  -31.5980 C   0  0  0  0  0  0  0  0  0  0  0  0
   -8.3020   18.4180  -31.8370 N   0  0  0  0  0  0  0  0  0  0  0  0
   -7.1320   18.5230  -32.5270 C   0  0  0  0  0  0  0  0  0  0  0  0
   -6.3440   17.3440  -32.7490 N   0  0  0  0  0  0  0  0  0  0  0  0
   -6.5640   16.5550  -33.9610 C   0  0  0  0  0  0  0  0  0  0  0  0
   -5.7380   16.6760  -31.5990 C   0  0  0  0  0  0  0  0  0  0  0  0
   -3.4940   23.2730  -30.8630 N   0  0  0  0  0  0  0  0  0  0  0  0
   -2.1630   22.6750  -30.8500 C   0  0  0  0  0  0  0  0  0  0  0  0
   -3.7420   24.5130  -30.4750 N   0  0  0  0  0  0  0  0  0  0  0  0
   -5.7945   26.0207  -29.0957 H   0  0  0  0  0  0  0  0  0  0  0  0
   -5.2237   26.8405  -30.5886 H   0  0  0  0  0  0  0  0  0  0  0  0
   -6.7918   25.9642  -30.5886 H   0  0  0  0  0  0  0  0  0  0  0  0
   -6.7493   23.4184  -31.2963 H   0  0  0  0  0  0  0  0  0  0  0  0
   -3.9919   20.6432  -31.1827 H   0  0  0  0  0  0  0  0  0  0  0  0
   -5.7695   20.8663  -31.3581 H   0  0  0  0  0  0  0  0  0  0  0  0
   -5.0830   21.9970  -33.5450 H   0  0  0  0  0  0  0  0  0  0  0  0
   -5.5375   20.1439  -34.7532 H   0  0  0  0  0  0  0  0  0  0  0  0
   -4.7618   19.0816  -33.5101 H   0  0  0  0  0  0  0  0  0  0  0  0
   -7.2381   21.8889  -33.1410 H   0  0  0  0  0  0  0  0  0  0  0  0
   -9.3809   21.6210  -31.8890 H   0  0  0  0  0  0  0  0  0  0  0  0
  -10.0347   19.3659  -31.0333 H   0  0  0  0  0  0  0  0  0  0  0  0
   -6.8499   15.5295  -33.6841 H   0  0  0  0  0  0  0  0  0  0  0  0
   -7.3689   17.0123  -34.5552 H   0  0  0  0  0  0  0  0  0  0  0  0
   -5.6386   16.5298  -34.5552 H   0  0  0  0  0  0  0  0  0  0  0  0
   -6.1343   17.1128  -30.6705 H   0  0  0  0  0  0  0  0  0  0  0  0
   -5.9770   15.6027  -31.6305 H   0  0  0  0  0  0  0  0  0  0  0  0
   -4.6466   16.8097  -31.6305 H   0  0  0  0  0  0  0  0  0  0  0  0
   -1.8370   22.5285  -29.8097 H   0  0  0  0  0  0  0  0  0  0  0  0
   -2.1924   21.7036  -31.3653 H   0  0  0  0  0  0  0  0  0  0  0  0
   -1.4563   23.3421  -31.3653 H   0  0  0  0  0  0  0  0  0  0  0  0
  1  2  1  0
  2  3  1  0
  3  4  2  0
  4  5  1  0
  5  6  1  0
  6  7  1  0
  7  8  1  0
  8  9  2  0
  9 10  1  0
 10 11  2  0
 11 12  1  0
 12 13  2  0
 13 14  1  0
 14 15  1  0
 14 16  1  0
  4 17  1  0
 17 18  1  0
 17 19  1  0
 19  2  2  0
 13  8  1  0
  1 20  1  0
  1 21  1  0
  1 22  1  0
  3 23  1  0
  5 24  1  0
  5 25  1  0
  6 26  1  0
  7 27  1  0
  7 28  1  0
  9 29  1  0
 10 30  1  0
 11 31  1  0
 15 32  1  0
 15 33  1  0
 15 34  1  0
 16 35  1  0
 16 36  1  0
 16 37  1  0
 18 38  1  0
 18 39  1  0
 18 40  1  0
M  END
>  <UniqueID>  (12) 
12

>  <SMILES>  (12) 
Cc1cc(CNCc2cccnc2N(C)C)n(C)n1

>  <Energy>  (12) 
67.76658986516098

>  <Genealogy>  (12) 
Cc1cc(CNCc2cccnc2N(C)C)n(C)n1 (3D coordinates assigned)
Cc1cc(CNCc2cccnc2N(C)C)n(C)n1 (optimized conformer: 67.76658986516098 kcal/mol)

>  <smiles>  (12) 
Cc1cc(CNCc2cccnc2N(C)C)n(C)n1

>  <score_type>  (12) 
oracle

>  <origin>  (12) 
adg

>  <m_score__min__energy>  (12) 
-6.9299999999999997

>  <m_primary>  (12) 
energy

$$$$
12:0
     RDKit          3D

 62 64  0  0  0  0  0  0  0  0999 V2000
   -1.0290   17.8920  -34.3890 C   0  0  0  0  0  0  0  0  0  0  0  0
   -1.5770   17.7620  -32.9710 C   0  0  0  0  0  0  0  0  0  0  0  0
   -2.4870   18.8090  -32.6900 O   0  0  0  0  0  0  0  0  0  0  0  0
   -1.9460   20.0530  -33.0850 C   0  0  0  0  0  0  0  0  0  0  0  0
   -2.8580   21.1740  -32.5950 C   0  0  0  0  0  0  0  0  0  0  0  0
   -3.9060   20.6560  -31.7140 N   0  0  0  0  0  0  0  0  0  0  0  0
   -5.2680   21.0910  -31.8450 C   0  0  0  0  0  0  0  0  0  0  0  0
   -5.5940   22.3870  -31.4030 C   0  0  0  0  0  0  0  0  0  0  0  0
   -4.5790   23.3180  -31.0880 C   0  0  0  0  0  0  0  0  0  0  0  0
   -4.8950   24.5850  -30.6090 C   0  0  0  0  0  0  0  0  0  0  0  0
   -6.2230   24.9450  -30.4170 C   0  0  0  0  0  0  0  0  0  0  0  0
   -7.2430   24.0460  -30.7240 C   0  0  0  0  0  0  0  0  0  0  0  0
   -6.9540   22.7580  -31.2490 C   0  0  0  0  0  0  0  0  0  0  0  0
   -7.9530   21.8580  -31.5540 N   0  0  0  0  0  0  0  0  0  0  0  0
   -9.3620   22.3150  -31.6050 C   0  0  0  0  0  0  0  0  0  0  0  0
   -7.6410   20.5480  -31.8590 C   0  0  0  0  0  0  0  0  0  0  0  0
   -8.6330   19.5390  -31.8380 C   0  0  0  0  0  0  0  0  0  0  0  0
   -8.3510   18.2460  -32.2510 C   0  0  0  0  0  0  0  0  0  0  0  0
   -7.1010   17.9380  -32.7630 C   0  0  0  0  0  0  0  0  0  0  0  0
   -6.0680   18.8900  -32.7790 C   0  0  0  0  0  0  0  0  0  0  0  0
   -4.9230   18.5950  -33.6210 N   0  0  0  0  0  0  0  0  0  0  0  0
   -5.3850   18.1350  -34.9420 C   0  0  0  0  0  0  0  0  0  0  0  0
   -4.4160   17.1210  -35.5780 C   0  0  0  0  0  0  0  0  0  0  0  0
   -3.9890   15.9870  -34.6310 C   0  0  0  0  0  0  0  0  0  0  0  0
   -4.9710   15.7880  -33.5440 N   0  0  0  0  0  0  0  0  0  0  0  0
   -4.3290   15.1390  -32.3890 C   0  0  0  0  0  0  0  0  0  0  0  0
   -6.1070   14.9680  -34.0000 C   0  0  0  0  0  0  0  0  0  0  0  0
   -6.3010   20.1780  -32.1780 C   0  0  0  0  0  0  0  0  0  0  0  0
    0.0405   18.1457  -34.3469 H   0  0  0  0  0  0  0  0  0  0  0  0
   -1.1589   16.9381  -34.9212 H   0  0  0  0  0  0  0  0  0  0  0  0
   -1.5735   18.6859  -34.9212 H   0  0  0  0  0  0  0  0  0  0  0  0
   -2.0947   16.7966  -32.8707 H   0  0  0  0  0  0  0  0  0  0  0  0
   -0.7392   17.8205  -32.2606 H   0  0  0  0  0  0  0  0  0  0  0  0
   -0.9446   20.1749  -32.6463 H   0  0  0  0  0  0  0  0  0  0  0  0
   -1.8689   20.0915  -34.1816 H   0  0  0  0  0  0  0  0  0  0  0  0
   -2.2563   21.9106  -32.0425 H   0  0  0  0  0  0  0  0  0  0  0  0
   -3.3363   21.6412  -33.4685 H   0  0  0  0  0  0  0  0  0  0  0  0
   -3.7250   19.7590  -31.2080 H   0  0  0  0  0  0  0  0  0  0  0  0
   -3.5242   23.0369  -31.2235 H   0  0  0  0  0  0  0  0  0  0  0  0
   -4.0928   25.3026  -30.3820 H   0  0  0  0  0  0  0  0  0  0  0  0
   -6.4700   25.9414  -30.0219 H   0  0  0  0  0  0  0  0  0  0  0  0
   -8.2900   24.3390  -30.5568 H   0  0  0  0  0  0  0  0  0  0  0  0
   -9.7445   22.4391  -30.5811 H   0  0  0  0  0  0  0  0  0  0  0  0
   -9.4165   23.2769  -32.1359 H   0  0  0  0  0  0  0  0  0  0  0  0
   -9.9707   21.5682  -32.1359 H   0  0  0  0  0  0  0  0  0  0  0  0
   -9.6462   19.7851  -31.4876 H   0  0  0  0  0  0  0  0  0  0  0  0
   -9.1204   17.4639  -32.1721 H   0  0  0  0  0  0  0  0  0  0  0  0
   -6.9142   16.9308  -33.1638 H   0  0  0  0  0  0  0  0  0  0  0  0
   -4.2740   19.3930  -33.7440 H   0  0  0  0  0  0  0  0  0  0  0  0
   -4.3560   17.8390  -33.1700 H   0  0  0  0  0  0  0  0  0  0  0  0
   -6.3699   17.6590  -34.8265 H   0  0  0  0  0  0  0  0  0  0  0  0
   -5.4384   19.0115  -35.6045 H   0  0  0  0  0  0  0  0  0  0  0  0
   -4.9089   16.6735  -36.4537 H   0  0  0  0  0  0  0  0  0  0  0  0
   -3.5036   17.6752  -35.8435 H   0  0  0  0  0  0  0  0  0  0  0  0
   -3.9007   15.0544  -35.2076 H   0  0  0  0  0  0  0  0  0  0  0  0
   -3.0248   16.2612  -34.1781 H   0  0  0  0  0  0  0  0  0  0  0  0
   -4.7413   15.5558  -31.4583 H   0  0  0  0  0  0  0  0  0  0  0  0
   -4.5215   14.0565  -32.4229 H   0  0  0  0  0  0  0  0  0  0  0  0
   -3.2445   15.3198  -32.4229 H   0  0  0  0  0  0  0  0  0  0  0  0
   -6.6500   14.5761  -33.1273 H   0  0  0  0  0  0  0  0  0  0  0  0
   -6.7852   15.5861  -34.6066 H   0  0  0  0  0  0  0  0  0  0  0  0
   -5.7339   14.1296  -34.6066 H   0  0  0  0  0  0  0  0  0  0  0  0
  1  2  1  0
  2  3  1  0
  3  4  1  0
  4  5  1  0
  5  6  1  0
  6  7  1  0
  7  8  2  0
  8  9  1  0
  9 10  2  0
 10 11  1  0
 11 12  2  0
 12 13  1  0
 13 14  2  0
 14 15  1  0
 14 16  1  0
 16 17  2  0
 17 18  1  0
 18 19  2  0
 19 20  1  0
 20 21  1  0
 21 22  1  0
 22 23  1  0
 23 24  1  0
 24 25  1  0
 25 26  1  0
 25 27  1  0
 20 28  2  0
 28  7  1  0
 13  8  1  0
 28 16  1  0
  1 29  1  0
  1 30  1  0
  1 31  1  0
  2 32  1  0
  2 33  1  0
  4 34  1  0
  4 35  1  0
  5 36  1  0
  5 37  1  0
  6 38  1  0
  9 39  1  0
 10 40  1  0
 11 41  1  0
 12 42  1  0
 15 43  1  0
 15 44  1  0
 15 45  1  0
 17 46  1  0
 18 47  1  0
 19 48  1  0
 21 49  1  0
 21 50  1  0
 22 51  1  0
 22 52  1  0
 23 53  1  0
 23 54  1  0
 24 55  1  0
 24 56  1  0
 26 57  1  0
 26 58  1  0
 26 59  1  0
 27 60  1  0
 27 61  1  0
 27 62  1  0
M  CHG  2  14   1  21   1
M  END
>  <UniqueID>  (13) 
13

>  <SMILES>  (13) 
CCOCCNc1c2ccccc2[n+](C)c2cccc([NH2+]CCCN(C)C)c12

>  <Energy>  (13) 
98.40290577352589

>  <Genealogy>  (13) 
CCOCCNc1c2ccccc2[n+](C)c2cccc([NH2+]CCCN(C)C)c12 (protonated)
CCOCCNc1c2ccccc2[n+](C)c2cccc([NH2+]CCCN(C)C)c12 (3D coordinates assigned)
CCOCCNc1c2ccccc2[n+](C)c2cccc([NH2+]CCCN(C)C)c12 (optimized conformer: 98.40290577352589 kcal/mol)

>  <smiles>  (13) 
CCOCCNc1c2ccccc2[n+](C)c2cccc(NCCCN(C)C)c12

>  <score_type>  (13) 
oracle

>  <origin>  (13) 
adg

>  <m_score__min__energy>  (13) 
-8.3900000000000006

>  <m_primary>  (13) 
energy

$$$$
13:0
     RDKit          3D

 17 17  0  0  0  0  0  0  0  0999 V2000
   -3.9350   25.6720  -31.5940 H   0  0  0  0  0  0  0  0  0  0  0  0
   -3.8940   25.0380  -30.7640 N   0  0  0  0  0  0  0  0  0  0  0  0
   -4.9460   24.4820  -30.2490 C   0  0  0  0  0  0  0  0  0  0  0  0
   -5.6890   23.4290  -30.9840 C   0  0  0  0  0  0  0  0  0  0  0  0
   -7.0960   23.3720  -30.9400 C   0  0  0  0  0  0  0  0  0  0  0  0
   -7.6551   24.1187  -30.3571 H   0  0  0  0  0  0  0  0  0  0  0  0
   -7.7860   22.3730  -31.6320 C   0  0  0  0  0  0  0  0  0  0  0  0
   -8.8847   22.3372  -31.5921 H   0  0  0  0  0  0  0  0  0  0  0  0
   -7.0850   21.4200  -32.3740 C   0  0  0  0  0  0  0  0  0  0  0  0
   -7.7580   20.4530  -33.0450 F   0  0  0  0  0  0  0  0  0  0  0  0
   -5.6900   21.4650  -32.4240 C   0  0  0  0  0  0  0  0  0  0  0  0
   -5.1377   20.7144  -33.0084 H   0  0  0  0  0  0  0  0  0  0  0  0
   -4.9930   22.4620  -31.7330 C   0  0  0  0  0  0  0  0  0  0  0  0
   -3.8942   22.4902  -31.7754 H   0  0  0  0  0  0  0  0  0  0  0  0
   -5.3770   24.8940  -28.9500 N   0  0  0  0  0  0  0  0  0  0  0  0
   -4.8310   25.6050  -28.4130 H   0  0  0  0  0  0  0  0  0  0  0  0
   -6.2670   24.5370  -28.5360 H   0  0  0  0  0  0  0  0  0  0  0  0
  1  2  1  0
  2  3  2  0
  3  4  1  0
  4  5  2  0
  5  6  1  0
  5  7  1  0
  7  8  1  0
  7  9  2  0
  9 10  1  0
  9 11  1  0
 11 12  1  0
 11 13  2  0
 13 14  1  0
  3 15  1  0
 15 16  1  0
 15 17  1  0
 13  4  1  0
M  END
>  <UniqueID>  (14) 
14

>  <SMILES>  (14) 
[H]/N=C(/N)c1ccc(F)cc1

>  <Energy>  (14) 
18.036277059240298

>  <Genealogy>  (14) 
[H]/N=C(/N)c1ccc(F)cc1 (cis-trans isomerization)
[H]/N=C(/N)c1ccc(F)cc1 (3D coordinates assigned)
[H]/N=C(/N)c1ccc(F)cc1 (optimized conformer: 18.036277059240298 kcal/mol)

>  <smiles>  (14) 
N=C(N)c1ccc(F)cc1

>  <score_type>  (14) 
oracle

>  <origin>  (14) 
adg

>  <m_score__min__energy>  (14) 
-5.7800000000000002

>  <m_primary>  (14) 
energy

$$$$
14:0
     RDKit          3D

 82 86  0  0  0  0  0  0  0  0999 V2000
   -2.1800   20.7570  -32.7730 C   0  0  0  0  0  0  0  0  0  0  0  0
   -3.2770   21.2730  -33.4970 O   0  0  0  0  0  0  0  0  0  0  0  0
   -3.9450   22.2890  -32.7710 C   0  0  2  0  0  0  0  0  0  0  0  0
   -3.1340   22.5770  -31.5210 C   0  0  0  0  0  0  0  0  0  0  0  0
   -3.7050   23.7670  -30.7370 C   0  0  2  0  0  0  0  0  0  0  0  0
   -2.7130   24.2300  -29.6300 C   0  0  0  0  0  0  0  0  0  0  0  0
   -2.6560   23.3880  -28.3140 C   0  0  1  0  0  0  0  0  0  0  0  0
   -1.7450   22.1300  -28.3810 C   0  0  0  0  0  0  0  0  0  0  0  0
   -0.2710   22.4900  -28.5980 C   0  0  0  0  0  0  0  0  0  0  0  0
    0.2810   23.4550  -27.5090 C   0  0  0  0  0  0  0  0  0  0  0  0
    0.7010   22.6510  -26.2610 C   0  0  0  0  0  0  0  0  0  0  0  0
    1.5180   24.1840  -28.0720 C   0  0  0  0  0  0  0  0  0  0  0  0
   -0.7670   24.4710  -27.0860 C   0  0  0  0  0  0  0  0  0  0  0  0
   -0.4220   25.4830  -26.4180 O   0  0  0  0  0  0  0  0  0  0  0  0
   -2.1320   24.2470  -27.2980 O   0  0  0  0  0  0  0  0  0  0  0  0
   -4.0800   22.9810  -27.8640 C   0  0  0  0  0  0  0  0  0  0  0  0
   -5.0190   22.5100  -28.9950 C   0  0  0  0  0  0  0  0  0  0  0  0
   -5.1490   23.4950  -30.2130 C   0  0  1  0  0  0  0  0  0  0  0  0
   -5.7280   24.8380  -29.6450 C   0  0  0  0  0  0  0  0  0  0  0  0
   -6.1200   22.9520  -31.4230 C   0  0  2  0  0  0  0  0  0  0  0  0
   -6.5890   24.1800  -32.2910 C   0  0  0  0  0  0  0  0  0  0  0  0
   -7.4280   22.3260  -30.8250 C   0  0  0  0  0  0  0  0  0  0  0  0
   -8.2690   21.5630  -31.8390 C   0  0  0  0  0  0  0  0  0  0  0  0
   -7.5100   20.3830  -32.5120 C   0  0  2  0  0  0  0  0  0  0  0  0
   -8.1790   18.9630  -32.3400 C   0  0  0  0  0  0  0  0  0  0  0  0
   -9.5330   18.9250  -33.0890 C   0  0  0  0  0  0  0  0  0  0  0  0
   -8.4440   18.5720  -30.8580 C   0  0  0  0  0  0  0  0  0  0  0  0
   -7.2790   17.9220  -32.9870 C   0  0  0  0  0  0  0  0  0  0  0  0
   -7.4400   16.7330  -32.7470 O   0  0  0  0  0  0  0  0  0  0  0  0
   -6.2590   18.3280  -34.0190 C   0  0  0  0  0  0  0  0  0  0  0  0
   -5.3960   19.5510  -33.6090 C   0  0  0  0  0  0  0  0  0  0  0  0
   -5.9250   20.3980  -32.3890 C   0  0  2  0  0  0  0  0  0  0  0  0
   -5.3910   19.6960  -31.1150 C   0  0  0  0  0  0  0  0  0  0  0  0
   -5.4410   21.9260  -32.4640 C   0  0  2  0  0  0  0  0  0  0  0  0
   -2.3763   20.8493  -31.6946 H   0  0  0  0  0  0  0  0  0  0  0  0
   -2.0368   19.6971  -33.0302 H   0  0  0  0  0  0  0  0  0  0  0  0
   -1.2723   21.3226  -33.0302 H   0  0  0  0  0  0  0  0  0  0  0  0
   -4.0088   23.2024  -33.3807 H   0  0  0  0  0  0  0  0  0  0  0  0
   -3.1449   21.6863  -30.8756 H   0  0  0  0  0  0  0  0  0  0  0  0
   -2.1079   22.8282  -31.8276 H   0  0  0  0  0  0  0  0  0  0  0  0
   -3.8132   24.6125  -31.4323 H   0  0  0  0  0  0  0  0  0  0  0  0
   -1.7042   24.2248  -30.0684 H   0  0  0  0  0  0  0  0  0  0  0  0
   -3.0843   25.2166  -29.3157 H   0  0  0  0  0  0  0  0  0  0  0  0
   -1.8381   21.5751  -27.4358 H   0  0  0  0  0  0  0  0  0  0  0  0
   -2.0726   21.5225  -29.2375 H   0  0  0  0  0  0  0  0  0  0  0  0
    0.3230   21.5643  -28.5810 H   0  0  0  0  0  0  0  0  0  0  0  0
   -0.1953   23.0058  -29.5666 H   0  0  0  0  0  0  0  0  0  0  0  0
    0.4124   23.2035  -25.3547 H   0  0  0  0  0  0  0  0  0  0  0  0
    0.1990   21.6723  -26.2693 H   0  0  0  0  0  0  0  0  0  0  0  0
    1.7911   22.5040  -26.2693 H   0  0  0  0  0  0  0  0  0  0  0  0
    2.1382   24.5495  -27.2403 H   0  0  0  0  0  0  0  0  0  0  0  0
    2.1050   23.4874  -28.6886 H   0  0  0  0  0  0  0  0  0  0  0  0
    1.1930   25.0350  -28.6886 H   0  0  0  0  0  0  0  0  0  0  0  0
   -3.9854   22.1609  -27.1370 H   0  0  0  0  0  0  0  0  0  0  0  0
   -4.5385   23.8893  -27.4460 H   0  0  0  0  0  0  0  0  0  0  0  0
   -4.6399   21.5493  -29.3736 H   0  0  0  0  0  0  0  0  0  0  0  0
   -6.0225   22.4426  -28.5494 H   0  0  0  0  0  0  0  0  0  0  0  0
   -5.7147   24.8071  -28.5455 H   0  0  0  0  0  0  0  0  0  0  0  0
   -5.1129   25.6798  -29.9956 H   0  0  0  0  0  0  0  0  0  0  0  0
   -6.7624   24.9687  -29.9956 H   0  0  0  0  0  0  0  0  0  0  0  0
   -6.9021   24.9997  -31.6276 H   0  0  0  0  0  0  0  0  0  0  0  0
   -5.7572   24.5194  -32.9258 H   0  0  0  0  0  0  0  0  0  0  0  0
   -7.4353   23.8785  -32.9258 H   0  0  0  0  0  0  0  0  0  0  0  0
   -7.1429   21.6324  -30.0202 H   0  0  0  0  0  0  0  0  0  0  0  0
   -8.0451   23.1623  -30.4646 H   0  0  0  0  0  0  0  0  0  0  0  0
   -9.1537   21.1598  -31.3246 H   0  0  0  0  0  0  0  0  0  0  0  0
   -8.5371   22.2720  -32.6361 H   0  0  0  0  0  0  0  0  0  0  0  0
   -7.6574   20.6096  -33.5783 H   0  0  0  0  0  0  0  0  0  0  0  0
  -10.3554   18.9019  -32.3589 H   0  0  0  0  0  0  0  0  0  0  0  0
   -9.6281   19.8208  -33.7202 H   0  0  0  0  0  0  0  0  0  0  0  0
   -9.5777   18.0252  -33.7202 H   0  0  0  0  0  0  0  0  0  0  0  0
   -7.9521   19.2978  -30.1937 H   0  0  0  0  0  0  0  0  0  0  0  0
   -9.5271   18.5747  -30.6661 H   0  0  0  0  0  0  0  0  0  0  0  0
   -8.0402   17.5670  -30.6661 H   0  0  0  0  0  0  0  0  0  0  0  0
   -5.5875   17.4748  -34.1955 H   0  0  0  0  0  0  0  0  0  0  0  0
   -6.8181   18.6216  -34.9197 H   0  0  0  0  0  0  0  0  0  0  0  0
   -4.3921   19.1823  -33.3516 H   0  0  0  0  0  0  0  0  0  0  0  0
   -5.4204   20.2316  -34.4728 H   0  0  0  0  0  0  0  0  0  0  0  0
   -5.7809   20.2085  -30.2232 H   0  0  0  0  0  0  0  0  0  0  0  0
   -5.7214   18.6468  -31.1087 H   0  0  0  0  0  0  0  0  0  0  0  0
   -4.2917   19.7343  -31.1087 H   0  0  0  0  0  0  0  0  0  0  0  0
   -5.8977   22.0935  -33.4506 H   0  0  0  0  0  0  0  0  0  0  0  0
  1  2  1  0
  2  3  1  0
  3  4  1  0
  4  5  1  0
  5  6  1  0
  6  7  1  0
  7  8  1  0
  8  9  1  0
  9 10  1  0
 10 11  1  0
 10 12  1  0
 10 13  1  0
 13 14  2  0
 13 15  1  0
  7 16  1  0
 16 17  1  0
 17 18  1  0
 18 19  1  1
 18 20  1  0
 20 21  1  6
 20 22  1  0
 22 23  1  0
 23 24  1  0
 24 25  1  0
 25 26  1  0
 25 27  1  0
 25 28  1  0
 28 29  2  0
 28 30  1  0
 30 31  1  0
 31 32  1  0
 32 33  1  1
 32 34  1  0
 34  3  1  0
 18  5  1  0
 34 20  1  0
  7 15  1  1
 32 24  1  0
  1 35  1  0
  1 36  1  0
  1 37  1  0
  3 38  1  6
  4 39  1  0
  4 40  1  0
  5 41  1  6
  6 42  1  0
  6 43  1  0
  8 44  1  0
  8 45  1  0
  9 46  1  0
  9 47  1  0
 11 48  1  0
 11 49  1  0
 11 50  1  0
 12 51  1  0
 12 52  1  0
 12 53  1  0
 16 54  1  0
 16 55  1  0
 17 56  1  0
 17 57  1  0
 19 58  1  0
 19 59  1  0
 19 60  1  0
 21 61  1  0
 21 62  1  0
 21 63  1  0
 22 64  1  0
 22 65  1  0
 23 66  1  0
 23 67  1  0
 24 68  1  6
 26 69  1  0
 26 70  1  0
 26 71  1  0
 27 72  1  0
 27 73  1  0
 27 74  1  0
 30 75  1  0
 30 76  1  0
 31 77  1  0
 31 78  1  0
 33 79  1  0
 33 80  1  0
 33 81  1  0
 34 82  1  6
M  END
>  <UniqueID>  (15) 
15

>  <SMILES>  (15) 
CO[C@@H]1C[C@@H]2CC3(CCC(C)(C)C(=O)O3)CCC2(C)C2(C)CCC3C(C)(C)C(=O)CCC3(C)C12

>  <Energy>  (15) 
158.74340438175437

>  <Genealogy>  (15) 
CO[C@@H]1C[C@@H]2CC3(CCC(C)(C)C(=O)O3)CCC2(C)C2(C)CCC3C(C)(C)C(=O)CCC3(C)C12 (chirality)
CO[C@@H]1C[C@@H]2CC3(CCC(C)(C)C(=O)O3)CCC2(C)C2(C)CCC3C(C)(C)C(=O)CCC3(C)C12 (3D coordinates assigned)
CO[C@@H]1C[C@@H]2CC3(CCC(C)(C)C(=O)O3)CCC2(C)C2(C)CCC3C(C)(C)C(=O)CCC3(C)C12 (nonaromatic ring conformer: 158.74340438175437 kcal/mol)

>  <smiles>  (15) 
COC1CC2CC3(CCC(C)(C)C(=O)O3)CCC2(C)C2(C)CCC3C(C)(C)C(=O)CCC3(C)C12

>  <score_type>  (15) 
oracle

>  <origin>  (15) 
adg

>  <m_score__min__energy>  (15) 
-10.48

>  <m_primary>  (15) 
energy

$$$$
15:0
     RDKit          3D

 47 48  0  0  0  0  0  0  0  0999 V2000
   -4.8563   17.9580  -35.7946 H   0  0  0  0  0  0  0  0  0  0  0  0
   -5.4160   18.0490  -34.8520 C   0  0  0  0  0  0  0  0  0  0  0  0
   -5.3800   19.1740  -34.2100 N   0  0  0  0  0  0  0  0  0  0  0  0
   -4.2910   19.5500  -33.4530 O   0  0  0  0  0  0  0  0  0  0  0  0
   -3.0000   19.6470  -34.0360 C   0  0  0  0  0  0  0  0  0  0  0  0
   -2.5280   20.5880  -33.7171 H   0  0  0  0  0  0  0  0  0  0  0  0
   -3.1004   19.6270  -35.1312 H   0  0  0  0  0  0  0  0  0  0  0  0
   -2.1310   18.4760  -33.5980 C   0  0  0  0  0  0  0  0  0  0  0  0
   -2.0995   18.4336  -32.4993 H   0  0  0  0  0  0  0  0  0  0  0  0
   -2.5541   17.5390  -33.9891 H   0  0  0  0  0  0  0  0  0  0  0  0
   -1.1116   18.6094  -33.9891 H   0  0  0  0  0  0  0  0  0  0  0  0
   -6.1960   16.8630  -34.3540 C   0  0  0  0  0  0  0  0  0  0  0  0
   -7.2535   16.9982  -34.6250 H   0  0  0  0  0  0  0  0  0  0  0  0
   -5.7685   15.9637  -34.8214 H   0  0  0  0  0  0  0  0  0  0  0  0
   -6.0970   16.6860  -32.8260 C   0  0  0  0  0  0  0  0  0  0  0  0
   -6.8196   15.9159  -32.5182 H   0  0  0  0  0  0  0  0  0  0  0  0
   -5.0584   16.4009  -32.6024 H   0  0  0  0  0  0  0  0  0  0  0  0
   -6.3780   17.9170  -32.0670 N   0  0  0  0  0  0  0  0  0  0  0  0
   -5.9250   18.7360  -32.5360 H   0  0  0  0  0  0  0  0  0  0  0  0
   -7.8180   18.1740  -31.9210 C   0  0  0  0  0  0  0  0  0  0  0  0
   -8.3659   17.6258  -32.7016 H   0  0  0  0  0  0  0  0  0  0  0  0
   -8.1437   17.8364  -30.9260 H   0  0  0  0  0  0  0  0  0  0  0  0
   -8.1050   19.6730  -32.0590 C   0  0  0  0  0  0  0  0  0  0  0  0
   -8.0471   19.9496  -33.1221 H   0  0  0  0  0  0  0  0  0  0  0  0
   -9.1087   19.8662  -31.6525 H   0  0  0  0  0  0  0  0  0  0  0  0
   -7.1000   20.5250  -31.2690 C   0  0  0  0  0  0  0  0  0  0  0  0
   -7.5489   21.5060  -31.0542 H   0  0  0  0  0  0  0  0  0  0  0  0
   -6.8546   20.0034  -30.3321 H   0  0  0  0  0  0  0  0  0  0  0  0
   -5.8630   20.7190  -32.0390 N   0  0  0  0  0  0  0  0  0  0  0  0
   -6.0710   20.8030  -33.0590 H   0  0  0  0  0  0  0  0  0  0  0  0
   -5.2640   19.8670  -31.9550 H   0  0  0  0  0  0  0  0  0  0  0  0
   -5.1520   21.8890  -31.5650 C   0  0  0  0  0  0  0  0  0  0  0  0
   -5.7620   23.1650  -31.6180 C   0  0  0  0  0  0  0  0  0  0  0  0
   -7.5230   23.4310  -32.3550 Br  0  0  0  0  0  0  0  0  0  0  0  0
   -5.0630   24.2790  -31.1340 C   0  0  0  0  0  0  0  0  0  0  0  0
   -5.5940   25.4210  -31.1580 O   0  0  0  0  0  0  0  0  0  0  0  0
   -3.8360   24.1480  -30.6490 O   0  0  0  0  0  0  0  0  0  0  0  0
   -3.1990   22.9860  -30.6020 C   0  0  0  0  0  0  0  0  0  0  0  0
   -1.8980   22.9460  -30.0890 C   0  0  0  0  0  0  0  0  0  0  0  0
   -1.4278   23.8682  -29.7169 H   0  0  0  0  0  0  0  0  0  0  0  0
   -1.1940   21.7420  -30.0470 C   0  0  0  0  0  0  0  0  0  0  0  0
   -0.1730   21.7157  -29.6385 H   0  0  0  0  0  0  0  0  0  0  0  0
   -1.7850   20.5720  -30.5230 C   0  0  0  0  0  0  0  0  0  0  0  0
   -1.2244   19.6260  -30.4965 H   0  0  0  0  0  0  0  0  0  0  0  0
   -3.0870   20.5950  -31.0340 C   0  0  0  0  0  0  0  0  0  0  0  0
   -3.5427   19.6670  -31.4097 H   0  0  0  0  0  0  0  0  0  0  0  0
   -3.8210   21.8020  -31.0710 C   0  0  0  0  0  0  0  0  0  0  0  0
  1  2  1  0
  2  3  2  0
  3  4  1  0
  4  5  1  0
  5  6  1  0
  5  7  1  0
  5  8  1  0
  8  9  1  0
  8 10  1  0
  8 11  1  0
  2 12  1  0
 12 13  1  0
 12 14  1  0
 12 15  1  0
 15 16  1  0
 15 17  1  0
 15 18  1  0
 18 19  1  0
 18 20  1  0
 20 21  1  0
 20 22  1  0
 20 23  1  0
 23 24  1  0
 23 25  1  0
 23 26  1  0
 26 27  1  0
 26 28  1  0
 26 29  1  0
 29 30  1  0
 29 31  1  0
 29 32  1  0
 32 33  2  0
 33 34  1  0
 33 35  1  0
 35 36  2  0
 35 37  1  0
 37 38  1  0
 38 39  2  0
 39 40  1  0
 39 41  1  0
 41 42  1  0
 41 43  2  0
 43 44  1  0
 43 45  1  0
 45 46  1  0
 45 47  2  0
 47 32  1  0
 47 38  1  0
M  CHG  1  29   1
M  END
>  <UniqueID>  (16) 
16

>  <SMILES>  (16) 
CCO/N=C\CCNCCC[NH2+]c1c(Br)c(=O)oc2ccccc12

>  <Energy>  (16) 
43.841960054677514

>  <Genealogy>  (16) 
CCON=CCCNCCC[NH2+]c1c(Br)c(=O)oc2ccccc12 (protonated)
CCO/N=C\CCNCCC[NH2+]c1c(Br)c(=O)oc2ccccc12 (cis-trans isomerization)
CCO/N=C\CCNCCC[NH2+]c1c(Br)c(=O)oc2ccccc12 (3D coordinates assigned)
CCO/N=C\CCNCCC[NH2+]c1c(Br)c(=O)oc2ccccc12 (optimized conformer: 43.841960054677514 kcal/mol)

>  <smiles>  (16) 
CCON=CCCNCCCNc1c(Br)c(=O)oc2ccccc12

>  <score_type>  (16) 
oracle

>  <origin>  (16) 
adg

>  <m_score__min__energy>  (16) 
-7.4400000000000004

>  <m_primary>  (16) 
energy

$$$$
16:0
     RDKit          3D

 29 30  0  0  0  0  0  0  0  0999 V2000
    0.2600   24.5110  -28.5860 O   0  0  0  0  0  0  0  0  0  0  0  0
   -0.7050   25.1770  -28.1220 C   0  0  0  0  0  0  0  0  0  0  0  0
   -1.8300   25.4900  -28.9560 N   0  0  0  0  0  0  0  0  0  0  0  0
   -2.7700   24.5580  -29.5090 C   0  0  0  0  0  0  0  0  0  0  0  0
   -2.3380   23.2550  -29.7880 C   0  0  0  0  0  0  0  0  0  0  0  0
   -3.2280   22.3090  -30.3010 C   0  0  0  0  0  0  0  0  0  0  0  0
   -4.5630   22.6520  -30.5290 C   0  0  0  0  0  0  0  0  0  0  0  0
   -5.0160   23.9490  -30.2450 C   0  0  0  0  0  0  0  0  0  0  0  0
   -6.4650   24.3030  -30.4340 C   0  0  0  0  0  0  0  0  0  0  0  0
   -6.8600   25.2440  -29.4750 O   0  0  0  0  0  0  0  0  0  0  0  0
   -4.1210   24.8930  -29.7150 C   0  0  0  0  0  0  0  0  0  0  0  0
   -0.7010   25.5900  -26.6990 C   0  0  0  0  0  0  0  0  0  0  0  0
   -1.2480   26.8220  -26.3040 C   0  0  0  0  0  0  0  0  0  0  0  0
   -1.2350   27.1950  -24.9600 C   0  0  0  0  0  0  0  0  0  0  0  0
   -0.6740   26.3360  -24.0150 C   0  0  0  0  0  0  0  0  0  0  0  0
   -0.1460   25.1450  -24.4040 N   0  0  0  0  0  0  0  0  0  0  0  0
   -0.1470   24.7580  -25.7090 C   0  0  0  0  0  0  0  0  0  0  0  0
   -1.2906   22.9751  -29.6017 H   0  0  0  0  0  0  0  0  0  0  0  0
   -2.8770   21.2911  -30.5262 H   0  0  0  0  0  0  0  0  0  0  0  0
   -5.2607   21.9032  -30.9322 H   0  0  0  0  0  0  0  0  0  0  0  0
   -6.6079   24.7262  -31.4392 H   0  0  0  0  0  0  0  0  0  0  0  0
   -7.0751   23.3949  -30.3197 H   0  0  0  0  0  0  0  0  0  0  0  0
   -6.5340   24.9090  -28.5980 H   0  0  0  0  0  0  0  0  0  0  0  0
   -4.4788   25.9012  -29.4592 H   0  0  0  0  0  0  0  0  0  0  0  0
   -1.6874   27.4939  -27.0560 H   0  0  0  0  0  0  0  0  0  0  0  0
   -1.6637   28.1587  -24.6479 H   0  0  0  0  0  0  0  0  0  0  0  0
   -0.6587   26.6227  -22.9531 H   0  0  0  0  0  0  0  0  0  0  0  0
    0.2710   24.5130  -23.6850 H   0  0  0  0  0  0  0  0  0  0  0  0
    0.2883   23.7881  -25.9915 H   0  0  0  0  0  0  0  0  0  0  0  0
  1  2  2  0
  2  3  1  0
  3  4  1  0
  4  5  2  0
  5  6  1  0
  6  7  2  0
  7  8  1  0
  8  9  1  0
  9 10  1  0
  8 11  2  0
  2 12  1  0
 12 13  2  0
 13 14  1  0
 14 15  2  0
 15 16  1  0
 16 17  2  0
 11  4  1  0
 17 12  1  0
  5 18  1  0
  6 19  1  0
  7 20  1  0
  9 21  1  0
  9 22  1  0
 10 23  1  0
 11 24  1  0
 13 25  1  0
 14 26  1  0
 15 27  1  0
 16 28  1  0
 17 29  1  0
M  CHG  2   3  -1  16   1
M  END
>  <UniqueID>  (17) 
17

>  <SMILES>  (17) 
O=C([N-]c1cccc(CO)c1)c1ccc[nH+]c1

>  <Energy>  (17) 
33.17890343641366

>  <Genealogy>  (17) 
O=C([N-]c1cccc(CO)c1)c1ccc[nH+]c1 (protonated)
O=C([N-]c1cccc(CO)c1)c1ccc[nH+]c1 (3D coordinates assigned)
O=C([N-]c1cccc(CO)c1)c1ccc[nH+]c1 (optimized conformer: 33.17890343641366 kcal/mol)

>  <smiles>  (17) 
O=C(Nc1cccc(CO)c1)c1cccnc1

>  <score_type>  (17) 
oracle

>  <origin>  (17) 
adg

>  <m_score__min__energy>  (17) 
-7.8899999999999997

>  <m_primary>  (17) 
energy

$$$$
17:0
     RDKit          3D

 46 49  0  0  0  0  0  0  0  0999 V2000
   -6.3220   17.6450  -33.2820 C   0  0  0  0  0  0  0  0  0  0  0  0
   -6.2480   19.0710  -32.9790 N   0  0  0  0  0  0  0  0  0  0  0  0
   -5.1550   19.8610  -33.1060 C   0  0  0  0  0  0  0  0  0  0  0  0
   -5.4660   21.1750  -32.7650 C   0  0  0  0  0  0  0  0  0  0  0  0
   -4.5220   22.3540  -32.7750 C   0  0  0  0  0  0  0  0  0  0  0  0
   -4.2440   22.9100  -31.4310 N   0  0  0  0  0  0  0  0  0  0  0  0
   -4.0150   21.8640  -30.4050 C   0  0  0  0  0  0  0  0  0  0  0  0
   -4.1680   22.3800  -28.9590 C   0  0  0  0  0  0  0  0  0  0  0  0
   -3.9610   23.8300  -28.8840 N   0  0  0  0  0  0  0  0  0  0  0  0
   -3.2400   24.3930  -27.7810 C   0  0  0  0  0  0  0  0  0  0  0  0
   -3.9510   24.9240  -26.6950 C   0  0  0  0  0  0  0  0  0  0  0  0
   -3.2660   25.4760  -25.6090 C   0  0  0  0  0  0  0  0  0  0  0  0
   -1.8690   25.5000  -25.6000 C   0  0  0  0  0  0  0  0  0  0  0  0
   -1.2060   26.0340  -24.5450 F   0  0  0  0  0  0  0  0  0  0  0  0
   -1.1540   24.9640  -26.6760 C   0  0  0  0  0  0  0  0  0  0  0  0
   -1.8320   24.4100  -27.7690 C   0  0  0  0  0  0  0  0  0  0  0  0
   -0.8130   23.6630  -29.2080 Br  0  0  0  0  0  0  0  0  0  0  0  0
   -4.6060   24.7280  -29.8450 C   0  0  0  0  0  0  0  0  0  0  0  0
   -5.2080   23.9380  -31.0060 C   0  0  0  0  0  0  0  0  0  0  0  0
   -6.8140   21.1680  -32.4440 C   0  0  0  0  0  0  0  0  0  0  0  0
   -7.6820   22.2000  -32.0810 C   0  0  0  0  0  0  0  0  0  0  0  0
   -9.0280   21.8750  -31.8330 C   0  0  0  0  0  0  0  0  0  0  0  0
   -9.4780   20.5430  -31.9630 C   0  0  0  0  0  0  0  0  0  0  0  0
   -8.5870   19.5250  -32.3470 C   0  0  0  0  0  0  0  0  0  0  0  0
   -7.2550   19.8740  -32.5820 C   0  0  0  0  0  0  0  0  0  0  0  0
   -6.3517   17.0718  -32.3436 H   0  0  0  0  0  0  0  0  0  0  0  0
   -7.2319   17.4408  -33.8654 H   0  0  0  0  0  0  0  0  0  0  0  0
   -5.4381   17.3477  -33.8654 H   0  0  0  0  0  0  0  0  0  0  0  0
   -4.1633   19.5142  -33.4319 H   0  0  0  0  0  0  0  0  0  0  0  0
   -3.5694   22.0314  -33.2205 H   0  0  0  0  0  0  0  0  0  0  0  0
   -5.0108   23.1502  -33.3556 H   0  0  0  0  0  0  0  0  0  0  0  0
   -4.7417   21.0538  -30.5648 H   0  0  0  0  0  0  0  0  0  0  0  0
   -2.9765   21.5195  -30.5187 H   0  0  0  0  0  0  0  0  0  0  0  0
   -5.1806   22.1439  -28.5999 H   0  0  0  0  0  0  0  0  0  0  0  0
   -3.4079   21.8888  -28.3337 H   0  0  0  0  0  0  0  0  0  0  0  0
   -5.0508   24.9060  -26.6980 H   0  0  0  0  0  0  0  0  0  0  0  0
   -3.8277   25.8923  -24.7598 H   0  0  0  0  0  0  0  0  0  0  0  0
   -0.0542   24.9777  -26.6637 H   0  0  0  0  0  0  0  0  0  0  0  0
   -5.4053   25.2868  -29.3362 H   0  0  0  0  0  0  0  0  0  0  0  0
   -3.8495   25.4198  -30.2439 H   0  0  0  0  0  0  0  0  0  0  0  0
   -6.1421   23.4568  -30.6807 H   0  0  0  0  0  0  0  0  0  0  0  0
   -5.4265   24.6150  -31.8450 H   0  0  0  0  0  0  0  0  0  0  0  0
   -7.3238   23.2362  -31.9917 H   0  0  0  0  0  0  0  0  0  0  0  0
   -9.7347   22.6638  -31.5358 H   0  0  0  0  0  0  0  0  0  0  0  0
  -10.5320   20.3001  -31.7627 H   0  0  0  0  0  0  0  0  0  0  0  0
   -8.9286   18.4854  -32.4589 H   0  0  0  0  0  0  0  0  0  0  0  0
  1  2  1  0
  2  3  1  0
  3  4  2  0
  4  5  1  0
  5  6  1  0
  6  7  1  0
  7  8  1  0
  8  9  1  0
  9 10  1  0
 10 11  2  0
 11 12  1  0
 12 13  2  0
 13 14  1  0
 13 15  1  0
 15 16  2  0
 16 17  1  0
  9 18  1  0
 18 19  1  0
  4 20  1  0
 20 21  2  0
 21 22  1  0
 22 23  2  0
 23 24  1  0
 24 25  2  0
 25  2  1  0
 19  6  1  0
 25 20  1  0
 16 10  1  0
  1 26  1  0
  1 27  1  0
  1 28  1  0
  3 29  1  0
  5 30  1  0
  5 31  1  0
  7 32  1  0
  7 33  1  0
  8 34  1  0
  8 35  1  0
 11 36  1  0
 12 37  1  0
 15 38  1  0
 18 39  1  0
 18 40  1  0
 19 41  1  0
 19 42  1  0
 21 43  1  0
 22 44  1  0
 23 45  1  0
 24 46  1  0
M  END
>  <UniqueID>  (18) 
18

>  <SMILES>  (18) 
Cn1cc(CN2CCN(c3ccc(F)cc3Br)CC2)c2ccccc21

>  <Energy>  (18) 
95.83650655720015

>  <Genealogy>  (18) 
Cn1cc(CN2CCN(c3ccc(F)cc3Br)CC2)c2ccccc21 (3D coordinates assigned)
Cn1cc(CN2CCN(c3ccc(F)cc3Br)CC2)c2ccccc21 (nonaromatic ring conformer: 95.83650655720015 kcal/mol)

>  <smiles>  (18) 
Cn1cc(CN2CCN(c3ccc(F)cc3Br)CC2)c2ccccc21

>  <score_type>  (18) 
oracle

>  <origin>  (18) 
adg

>  <m_score__min__energy>  (18) 
-8.4600000000000009

>  <m_primary>  (18) 
energy

$$$$
18:0
     RDKit          3D

 64 66  0  0  0  0  0  0  0  0999 V2000
   -3.9880   24.5120  -27.0820 C   0  0  0  0  0  0  0  0  0  0  0  0
   -3.8620   23.2640  -27.9560 C   0  0  0  0  0  0  0  0  0  0  0  0
   -4.8650   23.2460  -29.1240 C   0  0  0  0  0  0  0  0  0  0  0  0
   -4.8630   24.5170  -30.0010 C   0  0  0  0  0  0  0  0  0  0  0  0
   -6.2110   24.8420  -30.6820 C   0  0  0  0  0  0  0  0  0  0  0  0
   -6.4940   24.0310  -31.9620 C   0  0  0  0  0  0  0  0  0  0  0  0
   -7.1420   22.6970  -31.6890 C   0  0  0  0  0  0  0  0  0  0  0  0
   -8.2830   22.6290  -30.9640 N   0  0  0  0  0  0  0  0  0  0  0  0
   -8.7140   21.3800  -30.9380 N   0  0  0  0  0  0  0  0  0  0  0  0
   -7.8560   20.6360  -31.6580 C   0  0  0  0  0  0  0  0  0  0  0  0
   -6.8290   21.4060  -32.1480 C   0  0  0  0  0  0  0  0  0  0  0  0
   -5.8060   20.8250  -32.9360 C   0  0  0  0  0  0  0  0  0  0  0  0
   -4.6010   21.5560  -33.2830 N   0  0  0  0  0  0  0  0  0  0  0  0
   -3.7420   21.9080  -32.1300 C   0  0  0  0  0  0  0  0  0  0  0  0
   -2.3270   21.2740  -32.1510 C   0  0  0  0  0  0  0  0  0  0  0  0
   -2.1600   20.3170  -33.2750 N   0  0  0  0  0  0  0  0  0  0  0  0
   -1.0970   20.7560  -34.2170 C   0  0  0  0  0  0  0  0  0  0  0  0
    0.2130   21.0950  -33.5000 C   0  0  0  0  0  0  0  0  0  0  0  0
   -1.9940   18.9180  -32.7950 C   0  0  0  0  0  0  0  0  0  0  0  0
   -1.8450   17.8750  -33.9140 C   0  0  0  0  0  0  0  0  0  0  0  0
   -5.9910   19.4580  -33.3190 C   0  0  0  0  0  0  0  0  0  0  0  0
   -5.1200   18.8250  -34.2350 C   0  0  0  0  0  0  0  0  0  0  0  0
   -5.2860   17.4840  -34.5740 C   0  0  0  0  0  0  0  0  0  0  0  0
   -6.3190   16.7410  -34.0170 C   0  0  0  0  0  0  0  0  0  0  0  0
   -7.2080   17.3360  -33.1240 C   0  0  0  0  0  0  0  0  0  0  0  0
   -7.0800   18.7000  -32.7640 C   0  0  0  0  0  0  0  0  0  0  0  0
   -7.9860   19.3040  -31.9100 N   0  0  0  0  0  0  0  0  0  0  0  0
   -9.1040   18.5530  -31.3090 C   0  0  0  0  0  0  0  0  0  0  0  0
   -3.9587   24.2214  -26.0215 H   0  0  0  0  0  0  0  0  0  0  0  0
   -3.1544   25.1965  -27.2978 H   0  0  0  0  0  0  0  0  0  0  0  0
   -4.9416   25.0160  -27.2978 H   0  0  0  0  0  0  0  0  0  0  0  0
   -2.8428   23.2257  -28.3681 H   0  0  0  0  0  0  0  0  0  0  0  0
   -4.0800   22.3930  -27.3206 H   0  0  0  0  0  0  0  0  0  0  0  0
   -4.6254   22.3864  -29.7672 H   0  0  0  0  0  0  0  0  0  0  0  0
   -5.8656   23.1847  -28.6711 H   0  0  0  0  0  0  0  0  0  0  0  0
   -4.5878   25.3706  -29.3642 H   0  0  0  0  0  0  0  0  0  0  0  0
   -4.1455   24.3291  -30.8133 H   0  0  0  0  0  0  0  0  0  0  0  0
   -7.0172   24.6391  -29.9617 H   0  0  0  0  0  0  0  0  0  0  0  0
   -6.1606   25.8979  -30.9861 H   0  0  0  0  0  0  0  0  0  0  0  0
   -7.1629   24.6190  -32.6077 H   0  0  0  0  0  0  0  0  0  0  0  0
   -5.5253   23.8314  -32.4433 H   0  0  0  0  0  0  0  0  0  0  0  0
   -4.8200   22.4350  -33.7840 H   0  0  0  0  0  0  0  0  0  0  0  0
   -4.0410   20.9920  -33.9670 H   0  0  0  0  0  0  0  0  0  0  0  0
   -3.6259   23.0017  -32.1120 H   0  0  0  0  0  0  0  0  0  0  0  0
   -4.2454   21.5082  -31.2374 H   0  0  0  0  0  0  0  0  0  0  0  0
   -1.5807   22.0755  -32.2538 H   0  0  0  0  0  0  0  0  0  0  0  0
   -2.1903   20.7195  -31.2109 H   0  0  0  0  0  0  0  0  0  0  0  0
   -0.9066   19.9466  -34.9372 H   0  0  0  0  0  0  0  0  0  0  0  0
   -1.4501   21.6680  -34.7206 H   0  0  0  0  0  0  0  0  0  0  0  0
    0.0566   21.0545  -32.4119 H   0  0  0  0  0  0  0  0  0  0  0  0
    0.9867   20.3675  -33.7865 H   0  0  0  0  0  0  0  0  0  0  0  0
    0.5367   22.1065  -33.7865 H   0  0  0  0  0  0  0  0  0  0  0  0
   -1.0943   18.8757  -32.1635 H   0  0  0  0  0  0  0  0  0  0  0  0
   -2.9142   18.6627  -32.2491 H   0  0  0  0  0  0  0  0  0  0  0  0
   -1.7027   16.8787  -33.4700 H   0  0  0  0  0  0  0  0  0  0  0  0
   -2.7520   17.8729  -34.5364 H   0  0  0  0  0  0  0  0  0  0  0  0
   -0.9737   18.1269  -34.5364 H   0  0  0  0  0  0  0  0  0  0  0  0
   -4.2985   19.4002  -34.6871 H   0  0  0  0  0  0  0  0  0  0  0  0
   -4.5949   17.0107  -35.2870 H   0  0  0  0  0  0  0  0  0  0  0  0
   -6.4356   15.6797  -34.2816 H   0  0  0  0  0  0  0  0  0  0  0  0
   -8.0226   16.7366  -32.6915 H   0  0  0  0  0  0  0  0  0  0  0  0
   -9.0311   18.6019  -30.2125 H   0  0  0  0  0  0  0  0  0  0  0  0
  -10.0582   18.9940  -31.6331 H   0  0  0  0  0  0  0  0  0  0  0  0
   -9.0565   17.5029  -31.6331 H   0  0  0  0  0  0  0  0  0  0  0  0
  1  2  1  0
  2  3  1  0
  3  4  1  0
  4  5  1  0
  5  6  1  0
  6  7  1  0
  7  8  2  0
  8  9  1  0
  9 10  1  0
 10 11  2  0
 11 12  1  0
 12 13  1  0
 13 14  1  0
 14 15  1  0
 15 16  1  0
 16 17  1  0
 17 18  1  0
 16 19  1  0
 19 20  1  0
 12 21  2  0
 21 22  1  0
 22 23  2  0
 23 24  1  0
 24 25  2  0
 25 26  1  0
 26 27  2  0
 27 28  1  0
 11  7  1  0
 26 21  1  0
 27 10  1  0
  1 29  1  0
  1 30  1  0
  1 31  1  0
  2 32  1  0
  2 33  1  0
  3 34  1  0
  3 35  1  0
  4 36  1  0
  4 37  1  0
  5 38  1  0
  5 39  1  0
  6 40  1  0
  6 41  1  0
 13 42  1  0
 13 43  1  0
 14 44  1  0
 14 45  1  0
 15 46  1  0
 15 47  1  0
 17 48  1  0
 17 49  1  0
 18 50  1  0
 18 51  1  0
 18 52  1  0
 19 53  1  0
 19 54  1  0
 20 55  1  0
 20 56  1  0
 20 57  1  0
 22 58  1  0
 23 59  1  0
 24 60  1  0
 25 61  1  0
 28 62  1  0
 28 63  1  0
 28 64  1  0
M  CHG  3   9  -1  13   1  27   1
M  END
>  <UniqueID>  (19) 
19

>  <SMILES>  (19) 
CCCCCCc1n[n-]c2c1c([NH2+]CCN(CC)CC)c1ccccc1[n+]2C

>  <Energy>  (19) 
114.29669458888652

>  <Genealogy>  (19) 
CCCCCCc1n[n-]c2c1c([NH2+]CCN(CC)CC)c1ccccc1[n+]2C (protonated)
CCCCCCc1n[n-]c2c1c([NH2+]CCN(CC)CC)c1ccccc1[n+]2C (3D coordinates assigned)
CCCCCCc1n[n-]c2c1c([NH2+]CCN(CC)CC)c1ccccc1[n+]2C (optimized conformer: 114.29669458888652 kcal/mol)

>  <smiles>  (19) 
CCCCCCc1n[nH]c2c1c(NCCN(CC)CC)c1ccccc1[n+]2C

>  <score_type>  (19) 
oracle

>  <origin>  (19) 
adg

>  <m_score__min__energy>  (19) 
-8.3200000000000003

>  <m_primary>  (19) 
energy

$$$$
19:0
     RDKit          3D

 57 59  0  0  0  0  0  0  0  0999 V2000
   -0.1370   20.8870  -31.9990 C   0  0  0  0  0  0  0  0  0  0  0  0
   -1.2160   21.9140  -31.6710 C   0  0  0  0  0  0  0  0  0  0  0  0
   -2.2790   21.3140  -30.9300 O   0  0  0  0  0  0  0  0  0  0  0  0
   -2.1780   20.7860  -29.6310 C   0  0  0  0  0  0  0  0  0  0  0  0
   -1.1760   19.8650  -29.2650 C   0  0  0  0  0  0  0  0  0  0  0  0
   -1.1180   19.3670  -27.9620 C   0  0  0  0  0  0  0  0  0  0  0  0
   -2.0510   19.7800  -27.0120 C   0  0  0  0  0  0  0  0  0  0  0  0
   -3.0500   20.6900  -27.3620 C   0  0  0  0  0  0  0  0  0  0  0  0
   -3.1240   21.1970  -28.6760 C   0  0  0  0  0  0  0  0  0  0  0  0
   -4.1120   22.1130  -29.0750 O   0  0  0  0  0  0  0  0  0  0  0  0
   -4.3430   23.3970  -28.4930 C   0  0  0  0  0  0  0  0  0  0  0  0
   -3.8390   24.5080  -29.4170 C   0  0  0  0  0  0  0  0  0  0  0  0
   -3.8870   24.0590  -30.8130 N   0  0  0  0  0  0  0  0  0  0  0  0
   -5.2650   24.1020  -31.3140 C   0  0  0  0  0  0  0  0  0  0  0  0
   -5.5130   22.9300  -32.2750 C   0  0  0  0  0  0  0  0  0  0  0  0
   -4.6180   21.7880  -32.0070 N   0  0  0  0  0  0  0  0  0  0  0  0
   -5.1430   20.5470  -32.5510 C   0  0  0  0  0  0  0  0  0  0  0  0
   -4.3050   19.7300  -33.3510 C   0  0  0  0  0  0  0  0  0  0  0  0
   -2.9850   20.1480  -33.6010 O   0  0  0  0  0  0  0  0  0  0  0  0
   -1.9570   19.3210  -34.1370 C   0  0  0  0  0  0  0  0  0  0  0  0
   -4.7960   18.5240  -33.8770 C   0  0  0  0  0  0  0  0  0  0  0  0
   -6.0990   18.1140  -33.6210 C   0  0  0  0  0  0  0  0  0  0  0  0
   -6.9460   18.8960  -32.8300 C   0  0  0  0  0  0  0  0  0  0  0  0
   -8.2580   18.4620  -32.5800 C   0  0  0  0  0  0  0  0  0  0  0  0
   -9.1140   19.2270  -31.7890 C   0  0  0  0  0  0  0  0  0  0  0  0
   -8.6690   20.4280  -31.2410 C   0  0  0  0  0  0  0  0  0  0  0  0
   -7.3670   20.8750  -31.4810 C   0  0  0  0  0  0  0  0  0  0  0  0
   -6.4780   20.1210  -32.2820 C   0  0  0  0  0  0  0  0  0  0  0  0
    0.2839   20.4864  -31.0650 H   0  0  0  0  0  0  0  0  0  0  0  0
   -0.5776   20.0664  -32.5843 H   0  0  0  0  0  0  0  0  0  0  0  0
    0.6608   21.3676  -32.5843 H   0  0  0  0  0  0  0  0  0  0  0  0
   -0.7728   22.7245  -31.0738 H   0  0  0  0  0  0  0  0  0  0  0  0
   -1.6230   22.3107  -32.6128 H   0  0  0  0  0  0  0  0  0  0  0  0
   -0.4359   19.5369  -30.0097 H   0  0  0  0  0  0  0  0  0  0  0  0
   -0.3342   18.6470  -27.6843 H   0  0  0  0  0  0  0  0  0  0  0  0
   -1.9999   19.3883  -25.9854 H   0  0  0  0  0  0  0  0  0  0  0  0
   -3.7835   21.0134  -26.6088 H   0  0  0  0  0  0  0  0  0  0  0  0
   -5.4221   23.5286  -28.3252 H   0  0  0  0  0  0  0  0  0  0  0  0
   -3.7986   23.4561  -27.5390 H   0  0  0  0  0  0  0  0  0  0  0  0
   -4.4753   25.3974  -29.2982 H   0  0  0  0  0  0  0  0  0  0  0  0
   -2.8002   24.7548  -29.1523 H   0  0  0  0  0  0  0  0  0  0  0  0
   -3.5680   23.0620  -30.8390 H   0  0  0  0  0  0  0  0  0  0  0  0
   -5.9628   24.0317  -30.4665 H   0  0  0  0  0  0  0  0  0  0  0  0
   -5.4237   25.0486  -31.8514 H   0  0  0  0  0  0  0  0  0  0  0  0
   -6.5553   22.5963  -32.1645 H   0  0  0  0  0  0  0  0  0  0  0  0
   -5.3110   23.2837  -33.2968 H   0  0  0  0  0  0  0  0  0  0  0  0
   -4.4530   21.7110  -30.9760 H   0  0  0  0  0  0  0  0  0  0  0  0
   -3.6730   21.9800  -32.4080 H   0  0  0  0  0  0  0  0  0  0  0  0
   -1.3882   18.8634  -33.3142 H   0  0  0  0  0  0  0  0  0  0  0  0
   -2.4074   18.5306  -34.7554 H   0  0  0  0  0  0  0  0  0  0  0  0
   -1.2814   19.9302  -34.7554 H   0  0  0  0  0  0  0  0  0  0  0  0
   -4.1413   17.8962  -34.4992 H   0  0  0  0  0  0  0  0  0  0  0  0
   -6.4666   17.1674  -34.0438 H   0  0  0  0  0  0  0  0  0  0  0  0
   -8.6121   17.5137  -33.0105 H   0  0  0  0  0  0  0  0  0  0  0  0
  -10.1409   18.8822  -31.5976 H   0  0  0  0  0  0  0  0  0  0  0  0
   -9.3465   21.0280  -30.6157 H   0  0  0  0  0  0  0  0  0  0  0  0
   -7.0293   21.8251  -31.0415 H   0  0  0  0  0  0  0  0  0  0  0  0
  1  2  1  0
  2  3  1  0
  3  4  1  0
  4  5  2  0
  5  6  1  0
  6  7  2  0
  7  8  1  0
  8  9  2  0
  9 10  1  0
 10 11  1  0
 11 12  1  0
 12 13  1  0
 13 14  1  0
 14 15  1  0
 15 16  1  0
 16 17  1  0
 17 18  2  0
 18 19  1  0
 19 20  1  0
 18 21  1  0
 21 22  2  0
 22 23  1  0
 23 24  2  0
 24 25  1  0
 25 26  2  0
 26 27  1  0
 27 28  2  0
  9  4  1  0
 28 17  1  0
 28 23  1  0
  1 29  1  0
  1 30  1  0
  1 31  1  0
  2 32  1  0
  2 33  1  0
  5 34  1  0
  6 35  1  0
  7 36  1  0
  8 37  1  0
 11 38  1  0
 11 39  1  0
 12 40  1  0
 12 41  1  0
 13 42  1  0
 14 43  1  0
 14 44  1  0
 15 45  1  0
 15 46  1  0
 16 47  1  0
 16 48  1  0
 20 49  1  0
 20 50  1  0
 20 51  1  0
 21 52  1  0
 22 53  1  0
 24 54  1  0
 25 55  1  0
 26 56  1  0
 27 57  1  0
M  CHG  1  16   1
M  END
>  <UniqueID>  (20) 
20

>  <SMILES>  (20) 
CCOc1ccccc1OCCNCC[NH2+]c1c(OC)ccc2ccccc12

>  <Energy>  (20) 
59.90190091872562

>  <Genealogy>  (20) 
CCOc1ccccc1OCCNCC[NH2+]c1c(OC)ccc2ccccc12 (protonated)
CCOc1ccccc1OCCNCC[NH2+]c1c(OC)ccc2ccccc12 (3D coordinates assigned)
CCOc1ccccc1OCCNCC[NH2+]c1c(OC)ccc2ccccc12 (optimized conformer: 59.90190091872562 kcal/mol)

>  <smiles>  (20) 
CCOc1ccccc1OCCNCCNc1c(OC)ccc2ccccc12

>  <score_type>  (20) 
oracle

>  <origin>  (20) 
adg

>  <m_score__min__energy>  (20) 
-8.75

>  <m_primary>  (20) 
energy

$$$$
20:0
     RDKit          3D

 49 51  0  0  0  0  0  0  0  0999 V2000
   -5.6640   25.8480  -30.2690 C   0  0  0  0  0  0  0  0  0  0  0  0
   -5.1470   24.9310  -31.2300 O   0  0  0  0  0  0  0  0  0  0  0  0
   -5.7070   23.6770  -31.5180 C   0  0  0  0  0  0  0  0  0  0  0  0
   -6.9970   23.4200  -31.0780 C   0  0  0  0  0  0  0  0  0  0  0  0
   -7.6110   22.2060  -31.3610 C   0  0  0  0  0  0  0  0  0  0  0  0
   -6.9510   21.2000  -32.1120 C   0  0  0  0  0  0  0  0  0  0  0  0
   -5.6010   21.4170  -32.4940 C   0  0  0  0  0  0  0  0  0  0  0  0
   -5.0130   22.6810  -32.2200 C   0  0  0  0  0  0  0  0  0  0  0  0
   -4.8720   20.3730  -33.1360 C   0  0  0  0  0  0  0  0  0  0  0  0
   -3.4410   20.5230  -33.3550 N   0  0  0  0  0  0  0  0  0  0  0  0
   -2.7080   20.5550  -32.0730 C   0  0  0  0  0  0  0  0  0  0  0  0
   -1.3640   21.2970  -32.1870 C   0  0  0  0  0  0  0  0  0  0  0  0
   -0.4940   20.8090  -33.3550 C   0  0  0  0  0  0  0  0  0  0  0  0
   -1.2530   20.7860  -34.6020 N   0  0  0  0  0  0  0  0  0  0  0  0
   -5.5410   19.1420  -33.4310 C   0  0  0  0  0  0  0  0  0  0  0  0
   -4.9390   18.0760  -34.1790 C   0  0  0  0  0  0  0  0  0  0  0  0
   -3.7560   18.2860  -34.9080 O   0  0  0  0  0  0  0  0  0  0  0  0
   -2.6500   17.3880  -34.9690 C   0  0  0  0  0  0  0  0  0  0  0  0
   -5.5650   16.8190  -34.2270 C   0  0  0  0  0  0  0  0  0  0  0  0
   -6.7860   16.6110  -33.6100 C   0  0  0  0  0  0  0  0  0  0  0  0
   -7.4410   17.6650  -32.9970 C   0  0  0  0  0  0  0  0  0  0  0  0
   -6.8730   18.9610  -32.9520 C   0  0  0  0  0  0  0  0  0  0  0  0
   -7.5880   20.0230  -32.4410 N   0  0  0  0  0  0  0  0  0  0  0  0
   -9.0610   19.9200  -32.2990 C   0  0  0  0  0  0  0  0  0  0  0  0
   -5.4536   25.4748  -29.2559 H   0  0  0  0  0  0  0  0  0  0  0  0
   -5.1863   26.8295  -30.4048 H   0  0  0  0  0  0  0  0  0  0  0  0
   -6.7511   25.9473  -30.4048 H   0  0  0  0  0  0  0  0  0  0  0  0
   -7.5385   24.1835  -30.5002 H   0  0  0  0  0  0  0  0  0  0  0  0
   -8.6315   22.0211  -30.9945 H   0  0  0  0  0  0  0  0  0  0  0  0
   -3.9889   22.8832  -32.5668 H   0  0  0  0  0  0  0  0  0  0  0  0
   -3.2340   21.3600  -33.9420 H   0  0  0  0  0  0  0  0  0  0  0  0
   -3.0840   19.7480  -33.9540 H   0  0  0  0  0  0  0  0  0  0  0  0
   -3.3304   21.0638  -31.3222 H   0  0  0  0  0  0  0  0  0  0  0  0
   -2.4952   19.5161  -31.7809 H   0  0  0  0  0  0  0  0  0  0  0  0
   -1.5684   22.3685  -32.3286 H   0  0  0  0  0  0  0  0  0  0  0  0
   -0.8045   21.0988  -31.2609 H   0  0  0  0  0  0  0  0  0  0  0  0
    0.3655   21.4858  -33.4700 H   0  0  0  0  0  0  0  0  0  0  0  0
   -0.1541   19.7865  -33.1340 H   0  0  0  0  0  0  0  0  0  0  0  0
   -1.5840   21.7570  -34.8020 H   0  0  0  0  0  0  0  0  0  0  0  0
   -0.5930   20.5310  -35.3720 H   0  0  0  0  0  0  0  0  0  0  0  0
   -2.3312   17.1291  -33.9485 H   0  0  0  0  0  0  0  0  0  0  0  0
   -2.9490   16.4738  -35.5028 H   0  0  0  0  0  0  0  0  0  0  0  0
   -1.8167   17.8683  -35.5028 H   0  0  0  0  0  0  0  0  0  0  0  0
   -5.0784   15.9900  -34.7617 H   0  0  0  0  0  0  0  0  0  0  0  0
   -7.2363   15.6074  -33.6067 H   0  0  0  0  0  0  0  0  0  0  0  0
   -8.4241   17.4920  -32.5348 H   0  0  0  0  0  0  0  0  0  0  0  0
   -9.3261   19.9015  -31.2316 H   0  0  0  0  0  0  0  0  0  0  0  0
   -9.5373   20.7870  -32.7801 H   0  0  0  0  0  0  0  0  0  0  0  0
   -9.4120   18.9951  -32.7801 H   0  0  0  0  0  0  0  0  0  0  0  0
  1  2  1  0
  2  3  1  0
  3  4  2  0
  4  5  1  0
  5  6  2  0
  6  7  1  0
  7  8  2  0
  7  9  1  0
  9 10  1  0
 10 11  1  0
 11 12  1  0
 12 13  1  0
 13 14  1  0
  9 15  2  0
 15 16  1  0
 16 17  1  0
 17 18  1  0
 16 19  2  0
 19 20  1  0
 20 21  2  0
 21 22  1  0
 22 23  2  0
 23 24  1  0
  8  3  1  0
 22 15  1  0
 23  6  1  0
  1 25  1  0
  1 26  1  0
  1 27  1  0
  4 28  1  0
  5 29  1  0
  8 30  1  0
 10 31  1  0
 10 32  1  0
 11 33  1  0
 11 34  1  0
 12 35  1  0
 12 36  1  0
 13 37  1  0
 13 38  1  0
 14 39  1  0
 14 40  1  0
 18 41  1  0
 18 42  1  0
 18 43  1  0
 19 44  1  0
 20 45  1  0
 21 46  1  0
 24 47  1  0
 24 48  1  0
 24 49  1  0
M  CHG  2  10   1  23   1
M  END
>  <UniqueID>  (21) 
21

>  <SMILES>  (21) 
COc1ccc2c(c1)c([NH2+]CCCN)c1c(OC)cccc1[n+]2C

>  <Energy>  (21) 
80.78576674074299

>  <Genealogy>  (21) 
COc1ccc2c(c1)c([NH2+]CCCN)c1c(OC)cccc1[n+]2C (protonated)
COc1ccc2c(c1)c([NH2+]CCCN)c1c(OC)cccc1[n+]2C (3D coordinates assigned)
COc1ccc2c(c1)c([NH2+]CCCN)c1c(OC)cccc1[n+]2C (optimized conformer: 80.78576674074299 kcal/mol)

>  <smiles>  (21) 
COc1ccc2c(c1)c(NCCCN)c1c(OC)cccc1[n+]2C

>  <score_type>  (21) 
oracle

>  <origin>  (21) 
adg

>  <m_score__min__energy>  (21) 
-6.7999999999999998

>  <m_primary>  (21) 
energy

$$$$
