0:0
     RDKit          3D

 54 56  0  0  0  0  0  0  0  0999 V2000
    0.2030   27.1950  -23.3260 C   0  0  0  0  0  0  0  0  0  0  0  0
   -0.8320   27.4540  -24.4160 C   0  0  0  0  0  0  0  0  0  0  0  0
   -1.6530   26.3140  -24.5950 O   0  0  0  0  0  0  0  0  0  0  0  0
   -0.8780   25.1360  -24.7140 C   0  0  0  0  0  0  0  0  0  0  0  0
   -0.7970   24.7020  -26.1530 C   0  0  0  0  0  0  0  0  0  0  0  0
    0.2320   23.8510  -26.5870 C   0  0  0  0  0  0  0  0  0  0  0  0
    0.3140   23.4750  -27.9300 C   0  0  0  0  0  0  0  0  0  0  0  0
   -0.6320   23.9380  -28.8470 C   0  0  0  0  0  0  0  0  0  0  0  0
   -1.6800   24.7700  -28.4220 C   0  0  0  0  0  0  0  0  0  0  0  0
   -2.6450   25.2910  -29.3460 N   0  0  0  0  0  0  0  0  0  0  0  0
   -3.6040   24.5340  -30.0970 C   0  0  0  0  0  0  0  0  0  0  0  0
   -4.2790   25.1300  -30.9780 O   0  0  0  0  0  0  0  0  0  0  0  0
   -3.8840   23.0740  -29.7940 C   0  0  1  0  0  0  0  0  0  0  0  0
   -5.3410   22.8720  -29.3350 C   0  0  0  0  0  0  0  0  0  0  0  0
   -6.3700   22.9120  -30.4880 C   0  0  0  0  0  0  0  0  0  0  0  0
   -5.8340   22.4320  -31.7910 N   0  0  2  0  0  0  0  0  0  0  0  0
   -6.9010   21.9280  -32.6950 C   0  0  0  0  0  0  0  0  0  0  0  0
   -6.9240   20.4200  -32.8670 C   0  0  0  0  0  0  0  0  0  0  0  0
   -7.6900   19.6150  -32.0040 C   0  0  0  0  0  0  0  0  0  0  0  0
   -7.6980   18.2250  -32.1530 C   0  0  0  0  0  0  0  0  0  0  0  0
   -6.9290   17.6240  -33.1540 C   0  0  0  0  0  0  0  0  0  0  0  0
   -6.9370   16.2750  -33.2950 F   0  0  0  0  0  0  0  0  0  0  0  0
   -6.1440   18.4120  -33.9990 C   0  0  0  0  0  0  0  0  0  0  0  0
   -6.1350   19.8020  -33.8530 C   0  0  0  0  0  0  0  0  0  0  0  0
   -4.7260   21.4690  -31.6280 C   0  0  0  0  0  0  0  0  0  0  0  0
   -3.5060   22.1490  -30.9810 C   0  0  0  0  0  0  0  0  0  0  0  0
   -1.7430   25.1680  -27.0810 C   0  0  0  0  0  0  0  0  0  0  0  0
   -0.2672   27.3127  -22.3385 H   0  0  0  0  0  0  0  0  0  0  0  0
    0.5933   26.1715  -23.4267 H   0  0  0  0  0  0  0  0  0  0  0  0
    1.0293   27.9141  -23.4267 H   0  0  0  0  0  0  0  0  0  0  0  0
   -1.4584   28.3103  -24.1255 H   0  0  0  0  0  0  0  0  0  0  0  0
   -0.3108   27.6714  -25.3600 H   0  0  0  0  0  0  0  0  0  0  0  0
    0.1368   25.3306  -24.3368 H   0  0  0  0  0  0  0  0  0  0  0  0
   -1.3535   24.3363  -24.1272 H   0  0  0  0  0  0  0  0  0  0  0  0
    0.9760   23.4791  -25.8672 H   0  0  0  0  0  0  0  0  0  0  0  0
    1.1255   22.8128  -28.2659 H   0  0  0  0  0  0  0  0  0  0  0  0
   -0.5558   23.6499  -29.9059 H   0  0  0  0  0  0  0  0  0  0  0  0
   -3.2344   22.7789  -28.9568 H   0  0  0  0  0  0  0  0  0  0  0  0
   -5.5922   23.6677  -28.6183 H   0  0  0  0  0  0  0  0  0  0  0  0
   -5.3997   21.8686  -28.8880 H   0  0  0  0  0  0  0  0  0  0  0  0
   -6.7086   23.9509  -30.6143 H   0  0  0  0  0  0  0  0  0  0  0  0
   -7.1887   22.2322  -30.2094 H   0  0  0  0  0  0  0  0  0  0  0  0
   -5.4360   23.2650  -32.2860 H   0  0  0  0  0  0  0  0  0  0  0  0
   -7.8730   22.2415  -32.2865 H   0  0  0  0  0  0  0  0  0  0  0  0
   -6.6933   22.3517  -33.6886 H   0  0  0  0  0  0  0  0  0  0  0  0
   -8.2866   20.0825  -31.2067 H   0  0  0  0  0  0  0  0  0  0  0  0
   -8.3097   17.6038  -31.4822 H   0  0  0  0  0  0  0  0  0  0  0  0
   -5.5320   17.9379  -34.7805 H   0  0  0  0  0  0  0  0  0  0  0  0
   -5.5063   20.4166  -34.5141 H   0  0  0  0  0  0  0  0  0  0  0  0
   -4.4398   21.0771  -32.6152 H   0  0  0  0  0  0  0  0  0  0  0  0
   -5.0621   20.6498  -30.9754 H   0  0  0  0  0  0  0  0  0  0  0  0
   -2.9946   22.7520  -31.7458 H   0  0  0  0  0  0  0  0  0  0  0  0
   -2.8588   21.3531  -30.5838 H   0  0  0  0  0  0  0  0  0  0  0  0
   -2.5397   25.8511  -26.7515 H   0  0  0  0  0  0  0  0  0  0  0  0
  1  2  1  0
  2  3  1  0
  3  4  1  0
  4  5  1  0
  5  6  2  0
  6  7  1  0
  7  8  2  0
  8  9  1  0
  9 10  1  0
 10 11  1  0
 11 12  2  0
 11 13  1  0
 13 14  1  0
 14 15  1  0
 15 16  1  0
 16 17  1  0
 17 18  1  0
 18 19  2  0
 19 20  1  0
 20 21  2  0
 21 22  1  0
 21 23  1  0
 23 24  2  0
 16 25  1  0
 25 26  1  0
  9 27  2  0
 27  5  1  0
 26 13  1  0
 24 18  1  0
  1 28  1  0
  1 29  1  0
  1 30  1  0
  2 31  1  0
  2 32  1  0
  4 33  1  0
  4 34  1  0
  6 35  1  0
  7 36  1  0
  8 37  1  0
 13 38  1  1
 14 39  1  0
 14 40  1  0
 15 41  1  0
 15 42  1  0
 16 43  1  6
 17 44  1  0
 17 45  1  0
 19 46  1  0
 20 47  1  0
 23 48  1  0
 24 49  1  0
 25 50  1  0
 25 51  1  0
 26 52  1  0
 26 53  1  0
 27 54  1  0
M  CHG  2  10  -1  16   1
M  END
>  <UniqueID>  (1) 
1

>  <SMILES>  (1) 
CCOCc1cccc([N-]C(=O)C2CC[NH+](Cc3ccc(F)cc3)CC2)c1

>  <Energy>  (1) 
72.23691536650912

>  <Genealogy>  (1) 
CCOCc1cccc([N-]C(=O)C2CC[NH+](Cc3ccc(F)cc3)CC2)c1 (protonated)
CCOCc1cccc([N-]C(=O)C2CC[NH+](Cc3ccc(F)cc3)CC2)c1 (3D coordinates assigned)
CCOCc1cccc([N-]C(=O)C2CC[NH+](Cc3ccc(F)cc3)CC2)c1 (nonaromatic ring conformer: 72.23691536650912 kcal/mol)

>  <smiles>  (1) 
CCOCc1cccc(NC(=O)C2CCN(Cc3ccc(F)cc3)CC2)c1

>  <score_type>  (1) 
oracle

>  <origin>  (1) 
adg

>  <m_score__min__energy>  (1) 
-10.1

>  <m_primary>  (1) 
energy

$$$$
1:0
     RDKit          3D

 55 57  0  0  0  0  0  0  0  0999 V2000
    0.4070   22.3520  -35.7180 C   0  0  0  0  0  0  0  0  0  0  0  0
    0.2950   20.9380  -35.1380 C   0  0  0  0  0  0  0  0  0  0  0  0
   -1.0170   20.6970  -34.4840 N   0  0  1  0  0  0  0  0  0  0  0  0
   -1.2490   19.2630  -34.2190 C   0  0  0  0  0  0  0  0  0  0  0  0
   -1.1890   21.5160  -33.2560 C   0  0  0  0  0  0  0  0  0  0  0  0
   -2.5170   21.2710  -32.4950 C   0  0  0  0  0  0  0  0  0  0  0  0
   -3.6740   21.4380  -33.3760 N   0  0  0  0  0  0  0  0  0  0  0  0
   -5.0010   21.0670  -32.9650 C   0  0  0  0  0  0  0  0  0  0  0  0
   -5.4550   19.7460  -33.1400 C   0  0  0  0  0  0  0  0  0  0  0  0
   -6.8190   19.4360  -32.8850 C   0  0  0  0  0  0  0  0  0  0  0  0
   -7.6590   20.4100  -32.3720 N   0  0  0  0  0  0  0  0  0  0  0  0
   -9.0930   20.1260  -32.1410 C   0  0  0  0  0  0  0  0  0  0  0  0
   -7.1540   21.6400  -32.0000 C   0  0  0  0  0  0  0  0  0  0  0  0
   -5.8370   22.0010  -32.3350 C   0  0  0  0  0  0  0  0  0  0  0  0
   -5.4020   23.4290  -32.0660 C   0  0  0  0  0  0  0  0  0  0  0  0
   -5.7770   23.8720  -30.6440 C   0  0  0  0  0  0  0  0  0  0  0  0
   -7.1530   23.3610  -30.1640 C   0  0  0  0  0  0  0  0  0  0  0  0
   -7.9830   22.6820  -31.2620 C   0  0  0  0  0  0  0  0  0  0  0  0
   -7.3280   18.0070  -33.0950 C   0  0  0  0  0  0  0  0  0  0  0  0
   -6.3000   16.9980  -33.6250 C   0  0  0  0  0  0  0  0  0  0  0  0
   -4.9040   17.2960  -33.1050 C   0  0  0  0  0  0  0  0  0  0  0  0
   -4.4840   18.6740  -33.5940 C   0  0  0  0  0  0  0  0  0  0  0  0
    0.4648   23.0816  -34.8968 H   0  0  0  0  0  0  0  0  0  0  0  0
    1.3136   22.4238  -36.3367 H   0  0  0  0  0  0  0  0  0  0  0  0
   -0.4770   22.5656  -36.3367 H   0  0  0  0  0  0  0  0  0  0  0  0
    0.4224   20.2106  -35.9532 H   0  0  0  0  0  0  0  0  0  0  0  0
    1.0771   20.8263  -34.3726 H   0  0  0  0  0  0  0  0  0  0  0  0
   -1.7730   21.0110  -35.1410 H   0  0  0  0  0  0  0  0  0  0  0  0
   -1.2769   19.0907  -33.1329 H   0  0  0  0  0  0  0  0  0  0  0  0
   -2.2081   18.9585  -34.6633 H   0  0  0  0  0  0  0  0  0  0  0  0
   -0.4349   18.6716  -34.6633 H   0  0  0  0  0  0  0  0  0  0  0  0
   -0.3563   21.2897  -32.5738 H   0  0  0  0  0  0  0  0  0  0  0  0
   -1.2073   22.5661  -33.5829 H   0  0  0  0  0  0  0  0  0  0  0  0
   -2.5166   20.2465  -32.0945 H   0  0  0  0  0  0  0  0  0  0  0  0
   -2.5915   22.0073  -31.6811 H   0  0  0  0  0  0  0  0  0  0  0  0
   -3.4970   21.6590  -34.3820 H   0  0  0  0  0  0  0  0  0  0  0  0
   -9.2895   20.0871  -31.0594 H   0  0  0  0  0  0  0  0  0  0  0  0
   -9.7022   20.9209  -32.5960 H   0  0  0  0  0  0  0  0  0  0  0  0
   -9.3532   19.1589  -32.5960 H   0  0  0  0  0  0  0  0  0  0  0  0
   -4.3109   23.4992  -32.1864 H   0  0  0  0  0  0  0  0  0  0  0  0
   -5.9174   24.0877  -32.7805 H   0  0  0  0  0  0  0  0  0  0  0  0
   -5.0089   23.4965  -29.9519 H   0  0  0  0  0  0  0  0  0  0  0  0
   -5.8358   24.9703  -30.6602 H   0  0  0  0  0  0  0  0  0  0  0  0
   -6.9893   22.6344  -29.3546 H   0  0  0  0  0  0  0  0  0  0  0  0
   -7.7224   24.2419  -29.8327 H   0  0  0  0  0  0  0  0  0  0  0  0
   -8.8543   22.1912  -30.8039 H   0  0  0  0  0  0  0  0  0  0  0  0
   -8.3091   23.4474  -31.9816 H   0  0  0  0  0  0  0  0  0  0  0  0
   -7.6965   17.6354  -32.1275 H   0  0  0  0  0  0  0  0  0  0  0  0
   -8.1017   18.0790  -33.8736 H   0  0  0  0  0  0  0  0  0  0  0  0
   -6.5927   15.9877  -33.3030 H   0  0  0  0  0  0  0  0  0  0  0  0
   -6.2810   17.0706  -34.7224 H   0  0  0  0  0  0  0  0  0  0  0  0
   -4.9074   17.2789  -32.0051 H   0  0  0  0  0  0  0  0  0  0  0  0
   -4.1977   16.5370  -33.4726 H   0  0  0  0  0  0  0  0  0  0  0  0
   -3.4850   18.9051  -33.1958 H   0  0  0  0  0  0  0  0  0  0  0  0
   -4.4746   18.6612  -34.6939 H   0  0  0  0  0  0  0  0  0  0  0  0
  1  2  1  0
  2  3  1  0
  3  4  1  0
  3  5  1  0
  5  6  1  0
  6  7  1  0
  7  8  1  0
  8  9  2  0
  9 10  1  0
 10 11  2  0
 11 12  1  0
 11 13  1  0
 13 14  2  0
 14 15  1  0
 15 16  1  0
 16 17  1  0
 17 18  1  0
 10 19  1  0
 19 20  1  0
 20 21  1  0
 21 22  1  0
 14  8  1  0
 22  9  1  0
 18 13  1  0
  1 23  1  0
  1 24  1  0
  1 25  1  0
  2 26  1  0
  2 27  1  0
  3 28  1  6
  4 29  1  0
  4 30  1  0
  4 31  1  0
  5 32  1  0
  5 33  1  0
  6 34  1  0
  6 35  1  0
  7 36  1  0
 12 37  1  0
 12 38  1  0
 12 39  1  0
 15 40  1  0
 15 41  1  0
 16 42  1  0
 16 43  1  0
 17 44  1  0
 17 45  1  0
 18 46  1  0
 18 47  1  0
 19 48  1  0
 19 49  1  0
 20 50  1  0
 20 51  1  0
 21 52  1  0
 21 53  1  0
 22 54  1  0
 22 55  1  0
M  CHG  2   3   1  11   1
M  END
>  <UniqueID>  (2) 
2

>  <SMILES>  (2) 
CC[N@@H+](C)CCNc1c2c([n+](C)c3c1CCCC3)CCCC2

>  <Energy>  (2) 
78.88256557950882

>  <Genealogy>  (2) 
CC[NH+](C)CCNc1c2c([n+](C)c3c1CCCC3)CCCC2 (protonated)
CC[N@@H+](C)CCNc1c2c([n+](C)c3c1CCCC3)CCCC2 (chirality)
CC[N@@H+](C)CCNc1c2c([n+](C)c3c1CCCC3)CCCC2 (3D coordinates assigned)
CC[N@@H+](C)CCNc1c2c([n+](C)c3c1CCCC3)CCCC2 (nonaromatic ring conformer: 78.88256557950882 kcal/mol)

>  <smiles>  (2) 
CCN(C)CCNc1c2c([n+](C)c3c1CCCC3)CCCC2

>  <score_type>  (2) 
oracle

>  <origin>  (2) 
adg

>  <m_score__min__energy>  (2) 
-7.21

>  <m_primary>  (2) 
energy

$$$$
2:0
     RDKit          3D

 39 38  0  0  0  0  0  0  0  0999 V2000
   -5.7450   18.3140  -34.5900 C   0  0  0  0  0  0  0  0  0  0  0  0
   -6.3760   19.5950  -34.0360 C   0  0  0  0  0  0  0  0  0  0  0  0
   -5.7060   20.0690  -32.8010 N   0  0  1  0  0  0  0  0  0  0  0  0
   -5.3940   18.9560  -31.8800 C   0  0  0  0  0  0  0  0  0  0  0  0
   -4.5080   20.9000  -33.0940 C   0  0  0  0  0  0  0  0  0  0  0  0
   -4.4390   22.2390  -32.3320 C   0  0  0  0  0  0  0  0  0  0  0  0
   -5.2430   22.1790  -31.1710 O   0  0  0  0  0  0  0  0  0  0  0  0
   -5.7260   23.4690  -30.8600 C   0  0  0  0  0  0  0  0  0  0  0  0
   -7.1460   23.6420  -31.4110 C   0  0  0  0  0  0  0  0  0  0  0  0
   -7.6570   22.4190  -32.0600 N   0  0  0  0  0  0  0  0  0  0  0  0
   -9.1140   22.2990  -31.9300 C   0  0  0  0  0  0  0  0  0  0  0  0
   -9.5320   20.8270  -31.9580 C   0  0  0  0  0  0  0  0  0  0  0  0
   -8.3920   19.9900  -31.9090 O   0  0  0  0  0  0  0  0  0  0  0  0
   -8.7710   18.6490  -31.6910 C   0  0  0  0  0  0  0  0  0  0  0  0
   -5.4282   17.6708  -33.7557 H   0  0  0  0  0  0  0  0  0  0  0  0
   -6.4825   17.7787  -35.2061 H   0  0  0  0  0  0  0  0  0  0  0  0
   -4.8711   18.5725  -35.2061 H   0  0  0  0  0  0  0  0  0  0  0  0
   -6.3049   20.3826  -34.8006 H   0  0  0  0  0  0  0  0  0  0  0  0
   -7.4228   19.3702  -33.7835 H   0  0  0  0  0  0  0  0  0  0  0  0
   -6.3710   20.7040  -32.2970 H   0  0  0  0  0  0  0  0  0  0  0  0
   -5.4910   19.3022  -30.8404 H   0  0  0  0  0  0  0  0  0  0  0  0
   -6.0942   18.1263  -32.0571 H   0  0  0  0  0  0  0  0  0  0  0  0
   -4.3646   18.6112  -32.0571 H   0  0  0  0  0  0  0  0  0  0  0  0
   -3.6144   20.3135  -32.8341 H   0  0  0  0  0  0  0  0  0  0  0  0
   -4.5673   21.1576  -34.1618 H   0  0  0  0  0  0  0  0  0  0  0  0
   -3.3968   22.4398  -32.0429 H   0  0  0  0  0  0  0  0  0  0  0  0
   -4.8081   23.0440  -32.9844 H   0  0  0  0  0  0  0  0  0  0  0  0
   -5.7403   23.5995  -29.7679 H   0  0  0  0  0  0  0  0  0  0  0  0
   -5.0666   24.2220  -31.3162 H   0  0  0  0  0  0  0  0  0  0  0  0
   -7.8165   23.9059  -30.5798 H   0  0  0  0  0  0  0  0  0  0  0  0
   -7.1128   24.4342  -32.1735 H   0  0  0  0  0  0  0  0  0  0  0  0
   -7.2010   21.5680  -31.6520 H   0  0  0  0  0  0  0  0  0  0  0  0
   -9.4312   22.7479  -30.9772 H   0  0  0  0  0  0  0  0  0  0  0  0
   -9.5919   22.8220  -32.7715 H   0  0  0  0  0  0  0  0  0  0  0  0
  -10.1743   20.6159  -31.0903 H   0  0  0  0  0  0  0  0  0  0  0  0
  -10.0803   20.6292  -32.8908 H   0  0  0  0  0  0  0  0  0  0  0  0
   -8.8259   18.4546  -30.6097 H   0  0  0  0  0  0  0  0  0  0  0  0
   -9.7556   18.4675  -32.1466 H   0  0  0  0  0  0  0  0  0  0  0  0
   -8.0270   17.9790  -32.1466 H   0  0  0  0  0  0  0  0  0  0  0  0
  1  2  1  0
  2  3  1  0
  3  4  1  0
  3  5  1  0
  5  6  1  0
  6  7  1  0
  7  8  1  0
  8  9  1  0
  9 10  1  0
 10 11  1  0
 11 12  1  0
 12 13  1  0
 13 14  1  0
  1 15  1  0
  1 16  1  0
  1 17  1  0
  2 18  1  0
  2 19  1  0
  3 20  1  1
  4 21  1  0
  4 22  1  0
  4 23  1  0
  5 24  1  0
  5 25  1  0
  6 26  1  0
  6 27  1  0
  8 28  1  0
  8 29  1  0
  9 30  1  0
  9 31  1  0
 10 32  1  0
 11 33  1  0
 11 34  1  0
 12 35  1  0
 12 36  1  0
 14 37  1  0
 14 38  1  0
 14 39  1  0
M  CHG  1   3   1
M  END
>  <UniqueID>  (3) 
3

>  <SMILES>  (3) 
CC[N@@H+](C)CCOCCNCCOC

>  <Energy>  (3) 
33.56289509766102

>  <Genealogy>  (3) 
CC[NH+](C)CCOCCNCCOC (protonated)
CC[N@@H+](C)CCOCCNCCOC (chirality)
CC[N@@H+](C)CCOCCNCCOC (3D coordinates assigned)
CC[N@@H+](C)CCOCCNCCOC (optimized conformer: 33.56289509766102 kcal/mol)

>  <smiles>  (3) 
CCN(C)CCOCCNCCOC

>  <score_type>  (3) 
oracle

>  <origin>  (3) 
adg

>  <m_score__min__energy>  (3) 
-4.1299999999999999

>  <m_primary>  (3) 
energy

$$$$
3:0
     RDKit          3D

 68 72  0  0  0  0  0  0  0  0999 V2000
   -4.7980   24.5400  -29.2890 C   0  0  0  0  0  0  0  0  0  0  0  0
   -3.4550   24.5400  -28.5500 C   0  0  0  0  0  0  0  0  0  0  0  0
   -3.6800   24.5370  -27.0340 C   0  0  0  0  0  0  0  0  0  0  0  0
   -2.6610   23.3720  -28.9460 N   0  0  0  0  0  0  0  0  0  0  0  0
   -1.2360   23.4410  -29.1260 C   0  0  0  0  0  0  0  0  0  0  0  0
   -0.6280   24.5410  -29.0140 O   0  0  0  0  0  0  0  0  0  0  0  0
   -0.4490   22.1970  -29.4340 C   0  0  0  0  0  0  0  0  0  0  0  0
   -1.3490   21.0670  -29.9740 C   0  0  1  0  0  0  0  0  0  0  0  0
   -2.1340   21.5220  -31.2220 C   0  0  0  0  0  0  0  0  0  0  0  0
   -2.6230   20.3030  -32.0210 C   0  0  1  0  0  0  0  0  0  0  0  0
   -3.7960   20.6690  -32.9310 C   0  0  0  0  0  0  0  0  0  0  0  0
   -3.6670   21.5380  -33.8340 O   0  0  0  0  0  0  0  0  0  0  0  0
   -5.0780   20.0170  -32.7880 N   0  0  0  0  0  0  0  0  0  0  0  0
   -5.1710   18.6120  -32.3630 C   0  0  0  0  0  0  0  0  0  0  0  0
   -6.4830   17.9970  -32.8550 C   0  0  0  0  0  0  0  0  0  0  0  0
   -7.5810   18.8110  -32.4950 O   0  0  0  0  0  0  0  0  0  0  0  0
   -7.5080   20.0370  -33.1960 C   0  0  0  0  0  0  0  0  0  0  0  0
   -6.2860   20.8490  -32.7490 C   0  0  0  0  0  0  0  0  0  0  0  0
   -1.3730   19.5740  -32.6380 C   0  0  1  0  0  0  0  0  0  0  0  0
   -1.8260   18.2780  -33.3590 C   0  0  0  0  0  0  0  0  0  0  0  0
   -0.5340   20.4200  -33.5990 C   0  0  0  0  0  0  0  0  0  0  0  0
   -0.9400   21.4450  -34.3920 N   0  0  0  0  0  0  0  0  0  0  0  0
    0.1750   21.9190  -34.9790 C   0  0  0  0  0  0  0  0  0  0  0  0
    0.2770   23.0230  -35.8240 C   0  0  0  0  0  0  0  0  0  0  0  0
    1.5600   23.4050  -36.2610 C   0  0  0  0  0  0  0  0  0  0  0  0
    2.7030   22.6900  -35.8350 C   0  0  0  0  0  0  0  0  0  0  0  0
    2.5710   21.5890  -34.9700 C   0  0  0  0  0  0  0  0  0  0  0  0
    1.2860   21.2230  -34.5720 C   0  0  0  0  0  0  0  0  0  0  0  0
    0.8490   20.2550  -33.6950 C   0  0  0  0  0  0  0  0  0  0  0  0
    1.6880   19.4460  -32.7480 C   0  0  0  0  0  0  0  0  0  0  0  0
    0.8150   18.5130  -31.8930 C   0  0  0  0  0  0  0  0  0  0  0  0
   -0.4480   19.1920  -31.5320 N   0  0  0  0  0  0  0  0  0  0  0  0
   -0.5240   19.8200  -30.2280 C   0  0  0  0  0  0  0  0  0  0  0  0
    0.0930   19.3080  -29.2540 O   0  0  0  0  0  0  0  0  0  0  0  0
   -5.1192   23.5029  -29.4658 H   0  0  0  0  0  0  0  0  0  0  0  0
   -5.5522   25.0585  -28.6789 H   0  0  0  0  0  0  0  0  0  0  0  0
   -4.6863   25.0585  -30.2527 H   0  0  0  0  0  0  0  0  0  0  0  0
   -2.9043   25.4528  -28.8211 H   0  0  0  0  0  0  0  0  0  0  0  0
   -2.7081   24.5500  -26.5190 H   0  0  0  0  0  0  0  0  0  0  0  0
   -4.2587   25.4275  -26.7474 H   0  0  0  0  0  0  0  0  0  0  0  0
   -4.2347   23.6314  -26.7474 H   0  0  0  0  0  0  0  0  0  0  0  0
   -3.1190   22.4330  -28.9900 H   0  0  0  0  0  0  0  0  0  0  0  0
    0.3135   22.4364  -30.1898 H   0  0  0  0  0  0  0  0  0  0  0  0
    0.0151   21.8469  -28.5002 H   0  0  0  0  0  0  0  0  0  0  0  0
   -2.1020   20.8171  -29.2120 H   0  0  0  0  0  0  0  0  0  0  0  0
   -3.0014   22.1203  -30.9064 H   0  0  0  0  0  0  0  0  0  0  0  0
   -1.4713   22.1248  -31.8604 H   0  0  0  0  0  0  0  0  0  0  0  0
   -3.0903   19.5337  -31.3886 H   0  0  0  0  0  0  0  0  0  0  0  0
   -4.3252   18.0484  -32.7837 H   0  0  0  0  0  0  0  0  0  0  0  0
   -5.1431   18.5667  -31.2643 H   0  0  0  0  0  0  0  0  0  0  0  0
   -6.4485   17.9006  -33.9502 H   0  0  0  0  0  0  0  0  0  0  0  0
   -6.6073   17.0083  -32.3891 H   0  0  0  0  0  0  0  0  0  0  0  0
   -7.4299   19.8318  -34.2739 H   0  0  0  0  0  0  0  0  0  0  0  0
   -8.4159   20.6199  -32.9816 H   0  0  0  0  0  0  0  0  0  0  0  0
   -6.1559   21.7089  -33.4225 H   0  0  0  0  0  0  0  0  0  0  0  0
   -6.4464   21.1977  -31.7181 H   0  0  0  0  0  0  0  0  0  0  0  0
   -2.0922   17.5164  -32.6113 H   0  0  0  0  0  0  0  0  0  0  0  0
   -2.7014   18.4955  -33.9886 H   0  0  0  0  0  0  0  0  0  0  0  0
   -1.0057   17.9028  -33.9886 H   0  0  0  0  0  0  0  0  0  0  0  0
   -1.8800   21.8820  -34.4720 H   0  0  0  0  0  0  0  0  0  0  0  0
   -0.6179   23.5791  -36.1400 H   0  0  0  0  0  0  0  0  0  0  0  0
    1.6736   24.2647  -36.9378 H   0  0  0  0  0  0  0  0  0  0  0  0
    3.7008   22.9965  -36.1820 H   0  0  0  0  0  0  0  0  0  0  0  0
    3.4535   21.0343  -34.6187 H   0  0  0  0  0  0  0  0  0  0  0  0
    2.4006   18.8403  -33.3272 H   0  0  0  0  0  0  0  0  0  0  0  0
    2.2218   20.1359  -32.0779 H   0  0  0  0  0  0  0  0  0  0  0  0
    0.5878   17.6013  -32.4649 H   0  0  0  0  0  0  0  0  0  0  0  0
    1.3595   18.2509  -30.9738 H   0  0  0  0  0  0  0  0  0  0  0  0
  1  2  1  0
  2  3  1  0
  2  4  1  0
  4  5  1  0
  5  6  2  0
  5  7  1  0
  7  8  1  0
  8  9  1  0
  9 10  1  0
 10 11  1  0
 11 12  2  0
 11 13  1  0
 13 14  1  0
 14 15  1  0
 15 16  1  0
 16 17  1  0
 17 18  1  0
 10 19  1  0
 19 20  1  6
 19 21  1  0
 21 22  1  0
 22 23  1  0
 23 24  2  0
 24 25  1  0
 25 26  2  0
 26 27  1  0
 27 28  2  0
 28 29  1  0
 29 30  1  0
 30 31  1  0
 31 32  1  0
 32 33  1  0
 33 34  2  0
 33  8  1  0
 18 13  1  0
 32 19  1  0
 29 21  2  0
 28 23  1  0
  1 35  1  0
  1 36  1  0
  1 37  1  0
  2 38  1  0
  3 39  1  0
  3 40  1  0
  3 41  1  0
  4 42  1  0
  7 43  1  0
  7 44  1  0
  8 45  1  1
  9 46  1  0
  9 47  1  0
 10 48  1  1
 14 49  1  0
 14 50  1  0
 15 51  1  0
 15 52  1  0
 17 53  1  0
 17 54  1  0
 18 55  1  0
 18 56  1  0
 20 57  1  0
 20 58  1  0
 20 59  1  0
 22 60  1  0
 24 61  1  0
 25 62  1  0
 26 63  1  0
 27 64  1  0
 30 65  1  0
 30 66  1  0
 31 67  1  0
 31 68  1  0
M  END
>  <UniqueID>  (4) 
4

>  <SMILES>  (4) 
CC(C)NC(=O)C[C@H]1C[C@@H](C(=O)N2CCOCC2)C2(C)c3[nH]c4ccccc4c3CCN2C1=O

>  <Energy>  (4) 
119.11476140524049

>  <Genealogy>  (4) 
CC(C)NC(=O)C[C@H]1C[C@@H](C(=O)N2CCOCC2)C2(C)c3[nH]c4ccccc4c3CCN2C1=O (chirality)
CC(C)NC(=O)C[C@H]1C[C@@H](C(=O)N2CCOCC2)C2(C)c3[nH]c4ccccc4c3CCN2C1=O (3D coordinates assigned)
CC(C)NC(=O)C[C@H]1C[C@@H](C(=O)N2CCOCC2)C2(C)c3[nH]c4ccccc4c3CCN2C1=O (nonaromatic ring conformer: 119.11476140524049 kcal/mol)

>  <smiles>  (4) 
CC(C)NC(=O)CC1CC(C(=O)N2CCOCC2)C2(C)c3[nH]c4ccccc4c3CCN2C1=O

>  <score_type>  (4) 
oracle

>  <origin>  (4) 
adg

>  <m_score__min__energy>  (4) 
-9.2400000000000002

>  <m_primary>  (4) 
energy

$$$$
4:0
     RDKit          3D

 44 46  0  0  0  0  0  0  0  0999 V2000
   -6.1010   25.6690  -29.7120 C   0  0  0  0  0  0  0  0  0  0  0  0
   -4.9970   25.2730  -30.6870 C   0  0  0  0  0  0  0  0  0  0  0  0
   -5.3890   24.0560  -31.4370 N   0  0  0  0  0  0  0  0  0  0  0  0
   -6.8550   23.8950  -31.4080 C   0  0  0  0  0  0  0  0  0  0  0  0
   -4.7420   22.8410  -30.8920 C   0  0  0  0  0  0  0  0  0  0  0  0
   -4.4200   21.8050  -31.9900 C   0  0  0  0  0  0  0  0  0  0  0  0
   -5.4260   21.7590  -33.0690 N   0  0  0  0  0  0  0  0  0  0  0  0
   -6.4310   20.7360  -32.8400 C   0  0  0  0  0  0  0  0  0  0  0  0
   -7.6730   21.1410  -32.3110 C   0  0  0  0  0  0  0  0  0  0  0  0
   -8.6870   20.2200  -32.0620 C   0  0  0  0  0  0  0  0  0  0  0  0
   -8.4860   18.8710  -32.3320 C   0  0  0  0  0  0  0  0  0  0  0  0
   -7.2660   18.4270  -32.8570 C   0  0  0  0  0  0  0  0  0  0  0  0
   -7.0810   17.0660  -33.1100 C   0  0  0  0  0  0  0  0  0  0  0  0
   -5.8660   16.6110  -33.6270 C   0  0  0  0  0  0  0  0  0  0  0  0
   -5.6810   15.2420  -33.8700 C   0  0  0  0  0  0  0  0  0  0  0  0
   -4.4660   14.7920  -34.3810 C   0  0  0  0  0  0  0  0  0  0  0  0
   -3.4480   15.7020  -34.6450 C   0  0  0  0  0  0  0  0  0  0  0  0
   -3.6560   17.0600  -34.3960 C   0  0  0  0  0  0  0  0  0  0  0  0
   -4.8520   17.5040  -33.8940 N   0  0  0  0  0  0  0  0  0  0  0  0
   -5.0180   18.8430  -33.6590 C   0  0  0  0  0  0  0  0  0  0  0  0
   -6.2230   19.3500  -33.1250 C   0  0  0  0  0  0  0  0  0  0  0  0
   -5.7424   25.5404  -28.6801 H   0  0  0  0  0  0  0  0  0  0  0  0
   -6.3752   26.7215  -29.8764 H   0  0  0  0  0  0  0  0  0  0  0  0
   -6.9817   25.0307  -29.8764 H   0  0  0  0  0  0  0  0  0  0  0  0
   -4.8251   26.0968  -31.3954 H   0  0  0  0  0  0  0  0  0  0  0  0
   -4.0764   25.0655  -30.1219 H   0  0  0  0  0  0  0  0  0  0  0  0
   -7.1991   23.8572  -30.3639 H   0  0  0  0  0  0  0  0  0  0  0  0
   -7.3276   24.7466  -31.9192 H   0  0  0  0  0  0  0  0  0  0  0  0
   -7.1315   22.9611  -31.9192 H   0  0  0  0  0  0  0  0  0  0  0  0
   -3.8049   23.1322  -30.3949 H   0  0  0  0  0  0  0  0  0  0  0  0
   -5.4441   22.3746  -30.1853 H   0  0  0  0  0  0  0  0  0  0  0  0
   -3.4456   22.0586  -32.4330 H   0  0  0  0  0  0  0  0  0  0  0  0
   -4.4150   20.8154  -31.5098 H   0  0  0  0  0  0  0  0  0  0  0  0
   -4.9710   21.7000  -34.0030 H   0  0  0  0  0  0  0  0  0  0  0  0
   -5.9150   22.6840  -33.0800 H   0  0  0  0  0  0  0  0  0  0  0  0
   -7.8445   22.2050  -32.0907 H   0  0  0  0  0  0  0  0  0  0  0  0
   -9.6489   20.5602  -31.6509 H   0  0  0  0  0  0  0  0  0  0  0  0
   -9.2904   18.1479  -32.1320 H   0  0  0  0  0  0  0  0  0  0  0  0
   -7.8921   16.3526  -32.9021 H   0  0  0  0  0  0  0  0  0  0  0  0
   -6.4906   14.5281  -33.6583 H   0  0  0  0  0  0  0  0  0  0  0  0
   -4.3121   13.7203  -34.5751 H   0  0  0  0  0  0  0  0  0  0  0  0
   -2.4852   15.3541  -35.0474 H   0  0  0  0  0  0  0  0  0  0  0  0
   -2.8520   17.7811  -34.6048 H   0  0  0  0  0  0  0  0  0  0  0  0
   -4.1967   19.5371  -33.8907 H   0  0  0  0  0  0  0  0  0  0  0  0
  1  2  1  0
  2  3  1  0
  3  4  1  0
  3  5  1  0
  5  6  1  0
  6  7  1  0
  7  8  1  0
  8  9  2  0
  9 10  1  0
 10 11  2  0
 11 12  1  0
 12 13  2  0
 13 14  1  0
 14 15  2  0
 15 16  1  0
 16 17  2  0
 17 18  1  0
 18 19  2  0
 19 20  1  0
 20 21  2  0
 21  8  1  0
 21 12  1  0
 19 14  1  0
  1 22  1  0
  1 23  1  0
  1 24  1  0
  2 25  1  0
  2 26  1  0
  4 27  1  0
  4 28  1  0
  4 29  1  0
  5 30  1  0
  5 31  1  0
  6 32  1  0
  6 33  1  0
  7 34  1  0
  7 35  1  0
  9 36  1  0
 10 37  1  0
 11 38  1  0
 13 39  1  0
 15 40  1  0
 16 41  1  0
 17 42  1  0
 18 43  1  0
 20 44  1  0
M  CHG  2   7   1  19   1
M  END
>  <UniqueID>  (5) 
5

>  <SMILES>  (5) 
CCN(C)CC[NH2+]c1cccc2cc3cccc[n+]3cc12

>  <Energy>  (5) 
55.02102230953883

>  <Genealogy>  (5) 
CCN(C)CC[NH2+]c1cccc2cc3cccc[n+]3cc12 (protonated)
CCN(C)CC[NH2+]c1cccc2cc3cccc[n+]3cc12 (3D coordinates assigned)
CCN(C)CC[NH2+]c1cccc2cc3cccc[n+]3cc12 (optimized conformer: 55.02102230953883 kcal/mol)

>  <smiles>  (5) 
CCN(C)CCNc1cccc2cc3cccc[n+]3cc12

>  <score_type>  (5) 
oracle

>  <origin>  (5) 
adg

>  <m_score__min__energy>  (5) 
-7.5700000000000003

>  <m_primary>  (5) 
energy

$$$$
5:0
     RDKit          3D

 63 66  0  0  0  0  0  0  0  0999 V2000
   -4.4750   14.7200  -32.4840 C   0  0  0  0  0  0  0  0  0  0  0  0
   -5.2520   14.4150  -33.7600 C   0  0  0  0  0  0  0  0  0  0  0  0
   -5.3560   15.5790  -34.5800 O   0  0  0  0  0  0  0  0  0  0  0  0
   -5.7970   16.8440  -34.1550 C   0  0  0  0  0  0  0  0  0  0  0  0
   -5.2580   18.0460  -34.6540 C   0  0  0  0  0  0  0  0  0  0  0  0
   -5.7360   19.2780  -34.2000 C   0  0  0  0  0  0  0  0  0  0  0  0
   -6.7590   19.3310  -33.2440 C   0  0  0  0  0  0  0  0  0  0  0  0
   -7.2440   20.5640  -32.7810 C   0  0  0  0  0  0  0  0  0  0  0  0
   -8.2640   20.6060  -31.8220 C   0  0  0  0  0  0  0  0  0  0  0  0
   -8.8530   22.1470  -31.2050 S   0  0  0  0  0  0  0  0  0  0  0  0
  -10.0690   21.9050  -30.3560 O   0  0  0  0  0  0  0  0  0  0  0  0
   -9.2390   23.0500  -32.3440 O   0  0  0  0  0  0  0  0  0  0  0  0
   -7.6160   22.8960  -30.2340 N   0  0  0  0  0  0  0  0  0  0  0  0
   -7.0400   24.0760  -30.9150 C   0  0  0  0  0  0  0  0  0  0  0  0
   -5.8860   24.6420  -30.0710 C   0  0  0  0  0  0  0  0  0  0  0  0
   -4.7010   23.6560  -29.9620 C   0  0  0  0  0  0  0  0  0  0  0  0
   -4.8060   22.5540  -30.9420 N   0  0  0  0  0  0  0  0  0  0  0  0
   -3.7210   21.5470  -30.8570 C   0  0  0  0  0  0  0  0  0  0  0  0
   -2.6670   21.5740  -32.0040 C   0  0  0  0  0  0  0  0  0  0  0  0
   -1.2100   21.5380  -31.4840 C   0  0  0  0  0  0  0  0  0  0  0  0
   -0.2220   20.9730  -32.5210 C   0  0  0  0  0  0  0  0  0  0  0  0
   -0.7130   21.2120  -33.8810 N   0  0  0  0  0  0  0  0  0  0  0  0
   -1.9220   20.4150  -34.1540 C   0  0  0  0  0  0  0  0  0  0  0  0
   -2.9070   20.3910  -32.9620 C   0  0  0  0  0  0  0  0  0  0  0  0
   -5.1360   23.0190  -32.3010 C   0  0  0  0  0  0  0  0  0  0  0  0
   -6.5110   23.7200  -32.3270 C   0  0  0  0  0  0  0  0  0  0  0  0
   -8.7980   19.4120  -31.3210 C   0  0  0  0  0  0  0  0  0  0  0  0
   -8.3250   18.1790  -31.7790 C   0  0  0  0  0  0  0  0  0  0  0  0
   -7.3050   18.1280  -32.7410 C   0  0  0  0  0  0  0  0  0  0  0  0
   -6.8200   16.8960  -33.2030 C   0  0  0  0  0  0  0  0  0  0  0  0
   -5.0960   14.4762  -31.6094 H   0  0  0  0  0  0  0  0  0  0  0  0
   -3.5560   14.1159  -32.4610 H   0  0  0  0  0  0  0  0  0  0  0  0
   -4.2124   15.7879  -32.4610 H   0  0  0  0  0  0  0  0  0  0  0  0
   -4.7304   13.6248  -34.3198 H   0  0  0  0  0  0  0  0  0  0  0  0
   -6.2649   14.0848  -33.4859 H   0  0  0  0  0  0  0  0  0  0  0  0
   -4.4557   18.0145  -35.4059 H   0  0  0  0  0  0  0  0  0  0  0  0
   -5.3071   20.2108  -34.5950 H   0  0  0  0  0  0  0  0  0  0  0  0
   -6.8214   21.5010  -33.1728 H   0  0  0  0  0  0  0  0  0  0  0  0
   -6.8890   22.1610  -30.0800 H   0  0  0  0  0  0  0  0  0  0  0  0
   -7.8379   24.8250  -31.0262 H   0  0  0  0  0  0  0  0  0  0  0  0
   -5.5302   25.5727  -30.5371 H   0  0  0  0  0  0  0  0  0  0  0  0
   -6.2685   24.8222  -29.0555 H   0  0  0  0  0  0  0  0  0  0  0  0
   -3.7648   24.2044  -30.1431 H   0  0  0  0  0  0  0  0  0  0  0  0
   -4.7159   23.2167  -28.9536 H   0  0  0  0  0  0  0  0  0  0  0  0
   -3.1884   21.7066  -29.9078 H   0  0  0  0  0  0  0  0  0  0  0  0
   -4.2192   20.5696  -30.9375 H   0  0  0  0  0  0  0  0  0  0  0  0
   -2.7960   22.5281  -32.5359 H   0  0  0  0  0  0  0  0  0  0  0  0
   -0.9027   22.5625  -31.2272 H   0  0  0  0  0  0  0  0  0  0  0  0
   -1.1868   20.8741  -30.6073 H   0  0  0  0  0  0  0  0  0  0  0  0
    0.7539   21.4651  -32.3968 H   0  0  0  0  0  0  0  0  0  0  0  0
   -0.1227   19.8888  -32.3640 H   0  0  0  0  0  0  0  0  0  0  0  0
    0.0310   20.9160  -34.5540 H   0  0  0  0  0  0  0  0  0  0  0  0
   -2.4364   20.8447  -35.0262 H   0  0  0  0  0  0  0  0  0  0  0  0
   -1.6007   19.3793  -34.3385 H   0  0  0  0  0  0  0  0  0  0  0  0
   -3.9356   20.4470  -33.3477 H   0  0  0  0  0  0  0  0  0  0  0  0
   -2.7475   19.4574  -32.4026 H   0  0  0  0  0  0  0  0  0  0  0  0
   -4.3644   23.7279  -32.6359 H   0  0  0  0  0  0  0  0  0  0  0  0
   -5.1745   22.1468  -32.9702 H   0  0  0  0  0  0  0  0  0  0  0  0
   -6.4196   24.6480  -32.9106 H   0  0  0  0  0  0  0  0  0  0  0  0
   -7.2279   23.0180  -32.7778 H   0  0  0  0  0  0  0  0  0  0  0  0
   -9.5942   19.4448  -30.5627 H   0  0  0  0  0  0  0  0  0  0  0  0
   -8.7537   17.2461  -31.3841 H   0  0  0  0  0  0  0  0  0  0  0  0
   -7.2486   15.9611  -32.8126 H   0  0  0  0  0  0  0  0  0  0  0  0
  1  2  1  0
  2  3  1  0
  3  4  1  0
  4  5  2  0
  5  6  1  0
  6  7  2  0
  7  8  1  0
  8  9  2  0
  9 10  1  0
 10 11  2  0
 10 12  2  0
 10 13  1  0
 13 14  1  0
 14 15  1  0
 15 16  1  0
 16 17  1  0
 17 18  1  0
 18 19  1  0
 19 20  1  0
 20 21  1  0
 21 22  1  0
 22 23  1  0
 23 24  1  0
 17 25  1  0
 25 26  1  0
  9 27  1  0
 27 28  2  0
 28 29  1  0
 29 30  2  0
 30  4  1  0
 29  7  1  0
 26 14  1  0
 24 19  1  0
  1 31  1  0
  1 32  1  0
  1 33  1  0
  2 34  1  0
  2 35  1  0
  5 36  1  0
  6 37  1  0
  8 38  1  0
 13 39  1  0
 14 40  1  0
 15 41  1  0
 15 42  1  0
 16 43  1  0
 16 44  1  0
 18 45  1  0
 18 46  1  0
 19 47  1  0
 20 48  1  0
 20 49  1  0
 21 50  1  0
 21 51  1  0
 22 52  1  0
 23 53  1  0
 23 54  1  0
 24 55  1  0
 24 56  1  0
 25 57  1  0
 25 58  1  0
 26 59  1  0
 26 60  1  0
 27 61  1  0
 28 62  1  0
 30 63  1  0
M  END
>  <UniqueID>  (6) 
6

>  <SMILES>  (6) 
CCOc1ccc2cc(S(=O)(=O)NC3CCN(CC4CCNCC4)CC3)ccc2c1

>  <Energy>  (6) 
81.77162165864516

>  <Genealogy>  (6) 
CCOc1ccc2cc(S(=O)(=O)NC3CCN(CC4CCNCC4)CC3)ccc2c1 (3D coordinates assigned)
CCOc1ccc2cc(S(=O)(=O)NC3CCN(CC4CCNCC4)CC3)ccc2c1 (nonaromatic ring conformer: 81.77162165864516 kcal/mol)

>  <smiles>  (6) 
CCOc1ccc2cc(S(=O)(=O)NC3CCN(CC4CCNCC4)CC3)ccc2c1

>  <score_type>  (6) 
oracle

>  <origin>  (6) 
adg

>  <m_score__min__energy>  (6) 
-10.800000000000001

>  <m_primary>  (6) 
energy

$$$$
6:0
     RDKit          3D

 33 33  0  0  0  0  0  0  0  0999 V2000
   -0.6429   27.1819  -27.6645 H   0  0  0  0  0  0  0  0  0  0  0  0
   -0.9580   26.1290  -27.6190 C   0  0  0  0  0  0  0  0  0  0  0  0
   -1.0680   25.4520  -28.7190 N   0  0  0  0  0  0  0  0  0  0  0  0
   -2.2850   25.2870  -29.3450 O   0  0  0  0  0  0  0  0  0  0  0  0
   -3.1320   24.1970  -29.0080 C   0  0  0  0  0  0  0  0  0  0  0  0
   -3.9928   24.5714  -28.4346 H   0  0  0  0  0  0  0  0  0  0  0  0
   -2.5602   23.4753  -28.4062 H   0  0  0  0  0  0  0  0  0  0  0  0
   -3.6350   23.4980  -30.2720 C   0  0  0  0  0  0  0  0  0  0  0  0
   -4.1177   22.5491  -29.9954 H   0  0  0  0  0  0  0  0  0  0  0  0
   -2.7825   23.3036  -30.9394 H   0  0  0  0  0  0  0  0  0  0  0  0
   -4.6150   24.3600  -30.9750 N   0  0  0  0  0  0  0  0  0  0  0  0
   -5.5350   23.5950  -31.8500 C   0  0  0  0  0  0  0  0  0  0  0  0
   -5.7708   24.2146  -32.7278 H   0  0  0  0  0  0  0  0  0  0  0  0
   -6.4221   23.3577  -31.2444 H   0  0  0  0  0  0  0  0  0  0  0  0
   -4.9670   22.2540  -32.3450 C   0  0  0  0  0  0  0  0  0  0  0  0
   -4.7014   21.6270  -31.4811 H   0  0  0  0  0  0  0  0  0  0  0  0
   -5.7237   21.7377  -32.9540 H   0  0  0  0  0  0  0  0  0  0  0  0
   -4.0697   22.4383  -32.9540 H   0  0  0  0  0  0  0  0  0  0  0  0
   -5.3190   25.3000  -30.0770 C   0  0  0  0  0  0  0  0  0  0  0  0
   -4.8496   25.2699  -29.0826 H   0  0  0  0  0  0  0  0  0  0  0  0
   -5.2502   26.3130  -30.5002 H   0  0  0  0  0  0  0  0  0  0  0  0
   -6.7920   24.9200  -29.9480 C   0  0  0  0  0  0  0  0  0  0  0  0
   -7.0609   24.8506  -28.8836 H   0  0  0  0  0  0  0  0  0  0  0  0
   -7.4126   25.6875  -30.4337 H   0  0  0  0  0  0  0  0  0  0  0  0
   -6.9638   23.9481  -30.4337 H   0  0  0  0  0  0  0  0  0  0  0  0
   -1.2510   25.5080  -26.2860 C   0  0  0  0  0  0  0  0  0  0  0  0
   -0.5435   24.6712  -26.3817 H   0  0  0  0  0  0  0  0  0  0  0  0
   -1.6020   26.4950  -25.1850 C   0  0  0  0  0  0  0  0  0  0  0  0
   -1.2983   26.2921  -24.1474 H   0  0  0  0  0  0  0  0  0  0  0  0
   -1.4368   27.5704  -25.0234 H   0  0  0  0  0  0  0  0  0  0  0  0
   -2.6950   25.6620  -25.8330 C   0  0  0  0  0  0  0  0  0  0  0  0
   -3.1822   24.8559  -25.2648 H   0  0  0  0  0  0  0  0  0  0  0  0
   -3.6483   25.8843  -26.3348 H   0  0  0  0  0  0  0  0  0  0  0  0
  1  2  1  0
  2  3  2  0
  3  4  1  0
  4  5  1  0
  5  6  1  0
  5  7  1  0
  5  8  1  0
  8  9  1  0
  8 10  1  0
  8 11  1  0
 11 12  1  0
 12 13  1  0
 12 14  1  0
 12 15  1  0
 15 16  1  0
 15 17  1  0
 15 18  1  0
 11 19  1  0
 19 20  1  0
 19 21  1  0
 19 22  1  0
 22 23  1  0
 22 24  1  0
 22 25  1  0
  2 26  1  0
 26 27  1  0
 26 28  1  0
 28 29  1  0
 28 30  1  0
 28 31  1  0
 31 32  1  0
 31 33  1  0
 31 26  1  0
M  END
>  <UniqueID>  (7) 
7

>  <SMILES>  (7) 
CCN(CC)CCO/N=C\C1CC1

>  <Energy>  (7) 
287.23494530844437

>  <Genealogy>  (7) 
CCN(CC)CCO/N=C\C1CC1 (cis-trans isomerization)
CCN(CC)CCO/N=C\C1CC1 (3D coordinates assigned)
CCN(CC)CCO/N=C\C1CC1 (nonaromatic ring conformer: 287.23494530844437 kcal/mol)

>  <smiles>  (7) 
CCN(CC)CCON=CC1CC1

>  <score_type>  (7) 
oracle

>  <origin>  (7) 
adg

>  <m_score__min__energy>  (7) 
-5.2000000000000002

>  <m_primary>  (7) 
energy

$$$$
7:0
     RDKit          3D

 64 66  0  0  0  0  0  0  0  0999 V2000
   -4.4390   24.2190  -28.6380 C   0  0  0  0  0  0  0  0  0  0  0  0
   -3.6290   24.9030  -29.7310 C   0  0  0  0  0  0  0  0  0  0  0  0
   -4.3470   24.8330  -31.0120 N   0  0  0  0  0  0  0  0  0  0  0  0
   -5.8020   24.8760  -30.8100 C   0  0  0  0  0  0  0  0  0  0  0  0
   -6.4220   23.4940  -31.0470 C   0  0  0  0  0  0  0  0  0  0  0  0
   -5.9030   22.8870  -32.2710 N   0  0  0  0  0  0  0  0  0  0  0  0
   -5.8710   21.4560  -32.3950 C   0  0  0  0  0  0  0  0  0  0  0  0
   -7.0810   20.7450  -32.4190 C   0  0  0  0  0  0  0  0  0  0  0  0
   -8.2830   21.3400  -31.9810 C   0  0  0  0  0  0  0  0  0  0  0  0
   -9.4690   20.6100  -31.9500 C   0  0  0  0  0  0  0  0  0  0  0  0
   -9.4740   19.2770  -32.3440 C   0  0  0  0  0  0  0  0  0  0  0  0
   -8.3040   18.6790  -32.8120 C   0  0  0  0  0  0  0  0  0  0  0  0
   -7.0940   19.4130  -32.9040 C   0  0  0  0  0  0  0  0  0  0  0  0
   -5.9570   18.8800  -33.4760 N   0  0  0  0  0  0  0  0  0  0  0  0
   -6.0560   17.6670  -34.3190 C   0  0  0  0  0  0  0  0  0  0  0  0
   -4.7310   19.4970  -33.2860 C   0  0  0  0  0  0  0  0  0  0  0  0
   -3.5250   18.8850  -33.7040 C   0  0  0  0  0  0  0  0  0  0  0  0
   -2.3080   19.5400  -33.5840 C   0  0  0  0  0  0  0  0  0  0  0  0
   -2.2320   20.7590  -32.9290 C   0  0  0  0  0  0  0  0  0  0  0  0
   -3.3760   21.3380  -32.3440 C   0  0  0  0  0  0  0  0  0  0  0  0
   -3.2360   22.4620  -31.4240 N   0  0  0  0  0  0  0  0  0  0  0  0
   -2.3110   22.1970  -30.3010 C   0  0  0  0  0  0  0  0  0  0  0  0
   -2.8990   21.2750  -29.1940 C   0  0  0  0  0  0  0  0  0  0  0  0
   -1.9510   20.7230  -28.1660 N   0  0  0  0  0  0  0  0  0  0  0  0
   -2.6140   19.7830  -27.2310 C   0  0  0  0  0  0  0  0  0  0  0  0
   -0.7950   20.0540  -28.8090 C   0  0  0  0  0  0  0  0  0  0  0  0
   -1.4220   21.8620  -27.3740 C   0  0  0  0  0  0  0  0  0  0  0  0
   -4.6580   20.7790  -32.6630 C   0  0  0  0  0  0  0  0  0  0  0  0
   -4.0653   24.5346  -27.6527 H   0  0  0  0  0  0  0  0  0  0  0  0
   -5.4979   24.5004  -28.7358 H   0  0  0  0  0  0  0  0  0  0  0  0
   -4.3390   23.1279  -28.7358 H   0  0  0  0  0  0  0  0  0  0  0  0
   -3.4703   25.9573  -29.4602 H   0  0  0  0  0  0  0  0  0  0  0  0
   -2.6601   24.3924  -29.8335 H   0  0  0  0  0  0  0  0  0  0  0  0
   -4.0810   25.6810  -31.5680 H   0  0  0  0  0  0  0  0  0  0  0  0
   -6.0143   25.1952  -29.7790 H   0  0  0  0  0  0  0  0  0  0  0  0
   -6.2381   25.5874  -31.5267 H   0  0  0  0  0  0  0  0  0  0  0  0
   -6.1834   22.8421  -30.1937 H   0  0  0  0  0  0  0  0  0  0  0  0
   -7.5107   23.6127  -31.1505 H   0  0  0  0  0  0  0  0  0  0  0  0
   -5.4030   23.4700  -32.9820 H   0  0  0  0  0  0  0  0  0  0  0  0
   -8.2836   22.3922  -31.6604 H   0  0  0  0  0  0  0  0  0  0  0  0
  -10.4009   21.0881  -31.6140 H   0  0  0  0  0  0  0  0  0  0  0  0
  -10.4037   18.6918  -32.2865 H   0  0  0  0  0  0  0  0  0  0  0  0
   -8.3201   17.6215  -33.1145 H   0  0  0  0  0  0  0  0  0  0  0  0
   -6.1286   16.7780  -33.6752 H   0  0  0  0  0  0  0  0  0  0  0  0
   -6.9517   17.7339  -34.9541 H   0  0  0  0  0  0  0  0  0  0  0  0
   -5.1613   17.5878  -34.9541 H   0  0  0  0  0  0  0  0  0  0  0  0
   -3.5533   17.8719  -34.1316 H   0  0  0  0  0  0  0  0  0  0  0  0
   -1.3994   19.0899  -34.0105 H   0  0  0  0  0  0  0  0  0  0  0  0
   -1.2661   21.2814  -32.8649 H   0  0  0  0  0  0  0  0  0  0  0  0
   -2.8870   23.2780  -31.9710 H   0  0  0  0  0  0  0  0  0  0  0  0
   -4.1660   22.6670  -30.9970 H   0  0  0  0  0  0  0  0  0  0  0  0
   -1.4068   21.7179  -30.7046 H   0  0  0  0  0  0  0  0  0  0  0  0
   -2.1036   23.1676  -29.8267 H   0  0  0  0  0  0  0  0  0  0  0  0
   -3.6647   21.8541  -28.6570 H   0  0  0  0  0  0  0  0  0  0  0  0
   -3.2664   20.3909  -29.7356 H   0  0  0  0  0  0  0  0  0  0  0  0
   -2.4010   20.0850  -26.1950 H   0  0  0  0  0  0  0  0  0  0  0  0
   -3.7005   19.8009  -27.4021 H   0  0  0  0  0  0  0  0  0  0  0  0
   -2.2326   18.7655  -27.4021 H   0  0  0  0  0  0  0  0  0  0  0  0
   -0.1197   19.6632  -28.0336 H   0  0  0  0  0  0  0  0  0  0  0  0
   -1.1536   19.2238  -29.4353 H   0  0  0  0  0  0  0  0  0  0  0  0
   -0.2539   20.7785  -29.4353 H   0  0  0  0  0  0  0  0  0  0  0  0
   -1.5244   21.6415  -26.3012 H   0  0  0  0  0  0  0  0  0  0  0  0
   -0.3603   22.0158  -27.6170 H   0  0  0  0  0  0  0  0  0  0  0  0
   -1.9894   22.7725  -27.6170 H   0  0  0  0  0  0  0  0  0  0  0  0
  1  2  1  0
  2  3  1  0
  3  4  1  0
  4  5  1  0
  5  6  1  0
  6  7  1  0
  7  8  2  0
  8  9  1  0
  9 10  2  0
 10 11  1  0
 11 12  2  0
 12 13  1  0
 13 14  2  0
 14 15  1  0
 14 16  1  0
 16 17  2  0
 17 18  1  0
 18 19  2  0
 19 20  1  0
 20 21  1  0
 21 22  1  0
 22 23  1  0
 23 24  1  0
 24 25  1  0
 24 26  1  0
 24 27  1  0
 20 28  2  0
 28  7  1  0
 13  8  1  0
 28 16  1  0
  1 29  1  0
  1 30  1  0
  1 31  1  0
  2 32  1  0
  2 33  1  0
  3 34  1  0
  4 35  1  0
  4 36  1  0
  5 37  1  0
  5 38  1  0
  6 39  1  0
  9 40  1  0
 10 41  1  0
 11 42  1  0
 12 43  1  0
 15 44  1  0
 15 45  1  0
 15 46  1  0
 17 47  1  0
 18 48  1  0
 19 49  1  0
 21 50  1  0
 21 51  1  0
 22 52  1  0
 22 53  1  0
 23 54  1  0
 23 55  1  0
 25 56  1  0
 25 57  1  0
 25 58  1  0
 26 59  1  0
 26 60  1  0
 26 61  1  0
 27 62  1  0
 27 63  1  0
 27 64  1  0
M  CHG  3  14   1  21   1  24   1
M  END
>  <UniqueID>  (8) 
8

>  <SMILES>  (8) 
CCNCCNc1c2ccccc2[n+](C)c2cccc([NH2+]CC[N+](C)(C)C)c12

>  <Energy>  (8) 
109.88370062348066

>  <Genealogy>  (8) 
CCNCCNc1c2ccccc2[n+](C)c2cccc([NH2+]CC[N+](C)(C)C)c12 (protonated)
CCNCCNc1c2ccccc2[n+](C)c2cccc([NH2+]CC[N+](C)(C)C)c12 (3D coordinates assigned)
CCNCCNc1c2ccccc2[n+](C)c2cccc([NH2+]CC[N+](C)(C)C)c12 (optimized conformer: 109.88370062348066 kcal/mol)

>  <smiles>  (8) 
CCNCCNc1c2ccccc2[n+](C)c2cccc(NCC[N+](C)(C)C)c12

>  <score_type>  (8) 
oracle

>  <origin>  (8) 
adg

>  <m_score__min__energy>  (8) 
-6.9100000000000001

>  <m_primary>  (8) 
energy

$$$$
8:0
     RDKit          3D

 23 23  0  0  0  0  0  0  0  0999 V2000
   -2.9100   23.0040  -30.0280 C   0  0  0  0  0  0  0  0  0  0  0  0
   -3.4210   24.3750  -29.6020 C   0  0  0  0  0  0  0  0  0  0  0  0
   -3.9470   25.1020  -30.7720 N   0  0  0  0  0  0  0  0  0  0  0  0
   -5.3990   25.3200  -30.6960 C   0  0  0  0  0  0  0  0  0  0  0  0
   -6.1500   24.0480  -30.9860 C   0  0  0  0  0  0  0  0  0  0  0  0
   -6.9910   23.4900  -30.0100 C   0  0  0  0  0  0  0  0  0  0  0  0
   -7.7160   22.3270  -30.2840 C   0  0  0  0  0  0  0  0  0  0  0  0
   -7.6100   21.7140  -31.5380 C   0  0  0  0  0  0  0  0  0  0  0  0
   -8.6040   20.1270  -31.9120 Br  0  0  0  0  0  0  0  0  0  0  0  0
   -6.7780   22.2660  -32.5160 C   0  0  0  0  0  0  0  0  0  0  0  0
   -6.0510   23.4300  -32.2440 C   0  0  0  0  0  0  0  0  0  0  0  0
   -2.6858   22.4025  -29.1348 H   0  0  0  0  0  0  0  0  0  0  0  0
   -3.6793   22.4963  -30.6284 H   0  0  0  0  0  0  0  0  0  0  0  0
   -1.9961   23.1236  -30.6284 H   0  0  0  0  0  0  0  0  0  0  0  0
   -4.2230   24.2505  -28.8595 H   0  0  0  0  0  0  0  0  0  0  0  0
   -2.5921   24.9491  -29.1623 H   0  0  0  0  0  0  0  0  0  0  0  0
   -3.4950   26.0470  -30.7950 H   0  0  0  0  0  0  0  0  0  0  0  0
   -5.6583   25.6687  -29.6855 H   0  0  0  0  0  0  0  0  0  0  0  0
   -5.6807   26.0730  -31.4468 H   0  0  0  0  0  0  0  0  0  0  0  0
   -7.0797   23.9707  -29.0246 H   0  0  0  0  0  0  0  0  0  0  0  0
   -8.3704   21.8930  -29.5137 H   0  0  0  0  0  0  0  0  0  0  0  0
   -6.6946   21.7844  -33.5014 H   0  0  0  0  0  0  0  0  0  0  0  0
   -5.3997   23.8628  -33.0176 H   0  0  0  0  0  0  0  0  0  0  0  0
  1  2  1  0
  2  3  1  0
  3  4  1  0
  4  5  1  0
  5  6  2  0
  6  7  1  0
  7  8  2  0
  8  9  1  0
  8 10  1  0
 10 11  2  0
 11  5  1  0
  1 12  1  0
  1 13  1  0
  1 14  1  0
  2 15  1  0
  2 16  1  0
  3 17  1  0
  4 18  1  0
  4 19  1  0
  6 20  1  0
  7 21  1  0
 10 22  1  0
 11 23  1  0
M  END
>  <UniqueID>  (9) 
9

>  <SMILES>  (9) 
CCNCc1ccc(Br)cc1

>  <Energy>  (9) 
18.295102009406552

>  <Genealogy>  (9) 
CCNCc1ccc(Br)cc1 (3D coordinates assigned)
CCNCc1ccc(Br)cc1 (optimized conformer: 18.295102009406552 kcal/mol)

>  <smiles>  (9) 
CCNCc1ccc(Br)cc1

>  <score_type>  (9) 
oracle

>  <origin>  (9) 
adg

>  <m_score__min__energy>  (9) 
-6.1900000000000004

>  <m_primary>  (9) 
energy

$$$$
9:0
     RDKit          3D

 54 56  0  0  0  0  0  0  0  0999 V2000
   -0.5550   25.9170  -36.8340 C   0  0  0  0  0  0  0  0  0  0  0  0
    0.7990   25.5560  -36.2330 C   0  0  0  0  0  0  0  0  0  0  0  0
    1.1290   24.0710  -36.4680 C   0  0  0  0  0  0  0  0  0  0  0  0
    0.0790   23.1730  -35.9410 N   0  0  0  0  0  0  0  0  0  0  0  0
    0.4190   21.7370  -36.0340 C   0  0  0  0  0  0  0  0  0  0  0  0
   -0.2920   20.8670  -34.9810 C   0  0  0  0  0  0  0  0  0  0  0  0
   -1.0600   21.6730  -34.1040 O   0  0  0  0  0  0  0  0  0  0  0  0
   -1.0790   21.1130  -32.8060 C   0  0  0  0  0  0  0  0  0  0  0  0
   -2.3530   20.2870  -32.6340 C   0  0  0  0  0  0  0  0  0  0  0  0
   -3.4430   20.8090  -33.4630 N   0  0  0  0  0  0  0  0  0  0  0  0
   -4.8280   20.5620  -33.1590 C   0  0  0  0  0  0  0  0  0  0  0  0
   -5.5970   21.5600  -32.5360 C   0  0  0  0  0  0  0  0  0  0  0  0
   -5.0460   22.8310  -32.2630 C   0  0  0  0  0  0  0  0  0  0  0  0
   -5.7760   23.7910  -31.5670 C   0  0  0  0  0  0  0  0  0  0  0  0
   -7.0620   23.5010  -31.1250 C   0  0  0  0  0  0  0  0  0  0  0  0
   -7.6370   22.2610  -31.4060 C   0  0  0  0  0  0  0  0  0  0  0  0
   -6.9370   21.2780  -32.1540 C   0  0  0  0  0  0  0  0  0  0  0  0
   -7.5160   20.0680  -32.4890 N   0  0  0  0  0  0  0  0  0  0  0  0
   -8.9770   19.8810  -32.3370 C   0  0  0  0  0  0  0  0  0  0  0  0
   -6.7390   19.0470  -33.0080 C   0  0  0  0  0  0  0  0  0  0  0  0
   -7.2400   17.7270  -33.1540 C   0  0  0  0  0  0  0  0  0  0  0  0
   -6.4770   16.7300  -33.7610 C   0  0  0  0  0  0  0  0  0  0  0  0
   -5.2010   17.0150  -34.2320 C   0  0  0  0  0  0  0  0  0  0  0  0
   -4.6610   18.2870  -34.0570 C   0  0  0  0  0  0  0  0  0  0  0  0
   -5.3980   19.3000  -33.4060 C   0  0  0  0  0  0  0  0  0  0  0  0
   -1.2756   26.1091  -36.0254 H   0  0  0  0  0  0  0  0  0  0  0  0
   -0.4517   26.8190  -37.4551 H   0  0  0  0  0  0  0  0  0  0  0  0
   -0.9145   25.0833  -37.4551 H   0  0  0  0  0  0  0  0  0  0  0  0
    1.5774   26.1760  -36.7018 H   0  0  0  0  0  0  0  0  0  0  0  0
    0.7611   25.7391  -35.1490 H   0  0  0  0  0  0  0  0  0  0  0  0
    1.2322   23.8983  -37.5494 H   0  0  0  0  0  0  0  0  0  0  0  0
    2.0640   23.8453  -35.9343 H   0  0  0  0  0  0  0  0  0  0  0  0
   -0.8130   23.3360  -36.4660 H   0  0  0  0  0  0  0  0  0  0  0  0
   -0.1180   23.4230  -34.9450 H   0  0  0  0  0  0  0  0  0  0  0  0
    0.1344   21.3760  -37.0333 H   0  0  0  0  0  0  0  0  0  0  0  0
    1.4999   21.6483  -35.8500 H   0  0  0  0  0  0  0  0  0  0  0  0
   -0.9559   20.1531  -35.4905 H   0  0  0  0  0  0  0  0  0  0  0  0
    0.4672   20.3288  -34.3945 H   0  0  0  0  0  0  0  0  0  0  0  0
   -0.1998   20.4657  -32.6716 H   0  0  0  0  0  0  0  0  0  0  0  0
   -1.0559   21.9174  -32.0560 H   0  0  0  0  0  0  0  0  0  0  0  0
   -2.1475   19.2466  -32.9261 H   0  0  0  0  0  0  0  0  0  0  0  0
   -2.6622   20.3418  -31.5798 H   0  0  0  0  0  0  0  0  0  0  0  0
   -3.2140   21.4950  -34.2170 H   0  0  0  0  0  0  0  0  0  0  0  0
   -4.0271   23.0658  -32.6045 H   0  0  0  0  0  0  0  0  0  0  0  0
   -5.3353   24.7788  -31.3669 H   0  0  0  0  0  0  0  0  0  0  0  0
   -7.6275   24.2509  -30.5524 H   0  0  0  0  0  0  0  0  0  0  0  0
   -8.6512   22.0411  -31.0413 H   0  0  0  0  0  0  0  0  0  0  0  0
   -9.2332   19.8482  -31.2678 H   0  0  0  0  0  0  0  0  0  0  0  0
   -9.5056   20.7188  -32.8152 H   0  0  0  0  0  0  0  0  0  0  0  0
   -9.2776   18.9371  -32.8152 H   0  0  0  0  0  0  0  0  0  0  0  0
   -8.2469   17.4865  -32.7821 H   0  0  0  0  0  0  0  0  0  0  0  0
   -6.8865   15.7146  -33.8673 H   0  0  0  0  0  0  0  0  0  0  0  0
   -4.6170   16.2356  -34.7433 H   0  0  0  0  0  0  0  0  0  0  0  0
   -3.6493   18.5046  -34.4301 H   0  0  0  0  0  0  0  0  0  0  0  0
  1  2  1  0
  2  3  1  0
  3  4  1  0
  4  5  1  0
  5  6  1  0
  6  7  1  0
  7  8  1  0
  8  9  1  0
  9 10  1  0
 10 11  1  0
 11 12  2  0
 12 13  1  0
 13 14  2  0
 14 15  1  0
 15 16  2  0
 16 17  1  0
 17 18  2  0
 18 19  1  0
 18 20  1  0
 20 21  2  0
 21 22  1  0
 22 23  2  0
 23 24  1  0
 24 25  2  0
 25 11  1  0
 17 12  1  0
 25 20  1  0
  1 26  1  0
  1 27  1  0
  1 28  1  0
  2 29  1  0
  2 30  1  0
  3 31  1  0
  3 32  1  0
  4 33  1  0
  4 34  1  0
  5 35  1  0
  5 36  1  0
  6 37  1  0
  6 38  1  0
  8 39  1  0
  8 40  1  0
  9 41  1  0
  9 42  1  0
 10 43  1  0
 13 44  1  0
 14 45  1  0
 15 46  1  0
 16 47  1  0
 19 48  1  0
 19 49  1  0
 19 50  1  0
 21 51  1  0
 22 52  1  0
 23 53  1  0
 24 54  1  0
M  CHG  2   4   1  18   1
M  END
>  <UniqueID>  (10) 
10

>  <SMILES>  (10) 
CCC[NH2+]CCOCCNc1c2ccccc2[n+](C)c2ccccc12

>  <Energy>  (10) 
77.80615531236586

>  <Genealogy>  (10) 
CCC[NH2+]CCOCCNc1c2ccccc2[n+](C)c2ccccc12 (protonated)
CCC[NH2+]CCOCCNc1c2ccccc2[n+](C)c2ccccc12 (3D coordinates assigned)
CCC[NH2+]CCOCCNc1c2ccccc2[n+](C)c2ccccc12 (optimized conformer: 77.80615531236586 kcal/mol)

>  <smiles>  (10) 
CCCNCCOCCNc1c2ccccc2[n+](C)c2ccccc12

>  <score_type>  (10) 
oracle

>  <origin>  (10) 
adg

>  <m_score__min__energy>  (10) 
-8.5600000000000005

>  <m_primary>  (10) 
energy

$$$$
10:0
     RDKit          3D

 47 50  0  0  0  0  0  0  0  0999 V2000
   -2.5710   17.5220  -34.3180 C   0  0  0  0  0  0  0  0  0  0  0  0
   -4.0050   17.1530  -34.7370 C   0  0  0  0  0  0  0  0  0  0  0  0
   -5.0940   17.7560  -33.9080 N   0  0  2  0  0  0  0  0  0  0  0  0
   -4.5960   18.2150  -32.5810 C   0  0  0  0  0  0  0  0  0  0  0  0
   -5.7710   18.7300  -31.7090 C   0  0  0  0  0  0  0  0  0  0  0  0
   -7.0490   18.6890  -32.4750 N   0  0  2  0  0  0  0  0  0  0  0  0
   -8.1930   19.2830  -31.7120 C   0  0  0  0  0  0  0  0  0  0  0  0
   -8.6250   20.7170  -32.1130 C   0  0  0  0  0  0  0  0  0  0  0  0
   -7.6700   21.7760  -31.6400 C   0  0  0  0  0  0  0  0  0  0  0  0
   -8.0370   23.0470  -31.2040 C   0  0  0  0  0  0  0  0  0  0  0  0
   -6.8430   23.6550  -30.8920 C   0  0  0  0  0  0  0  0  0  0  0  0
   -6.5680   24.9290  -30.3980 C   0  0  0  0  0  0  0  0  0  0  0  0
   -5.2180   25.2670  -30.1770 C   0  0  0  0  0  0  0  0  0  0  0  0
   -4.1930   24.3350  -30.4520 C   0  0  0  0  0  0  0  0  0  0  0  0
   -4.5050   23.0560  -30.9500 C   0  0  0  0  0  0  0  0  0  0  0  0
   -5.8480   22.7510  -31.1560 C   0  0  0  0  0  0  0  0  0  0  0  0
   -6.3550   21.6300  -31.6090 O   0  0  0  0  0  0  0  0  0  0  0  0
   -7.3220   17.2800  -32.8660 C   0  0  0  0  0  0  0  0  0  0  0  0
   -6.1370   16.7130  -33.6880 C   0  0  0  0  0  0  0  0  0  0  0  0
   -6.8740   19.4850  -33.7260 C   0  0  0  0  0  0  0  0  0  0  0  0
   -5.7360   18.9040  -34.6000 C   0  0  0  0  0  0  0  0  0  0  0  0
   -2.5028   17.5396  -33.2203 H   0  0  0  0  0  0  0  0  0  0  0  0
   -1.8688   16.7753  -34.7171 H   0  0  0  0  0  0  0  0  0  0  0  0
   -2.3164   18.5149  -34.7171 H   0  0  0  0  0  0  0  0  0  0  0  0
   -4.1493   17.4817  -35.7768 H   0  0  0  0  0  0  0  0  0  0  0  0
   -4.0888   16.0648  -34.5999 H   0  0  0  0  0  0  0  0  0  0  0  0
   -4.1055   17.3747  -32.0679 H   0  0  0  0  0  0  0  0  0  0  0  0
   -3.8798   19.0357  -32.7340 H   0  0  0  0  0  0  0  0  0  0  0  0
   -5.8641   18.0946  -30.8159 H   0  0  0  0  0  0  0  0  0  0  0  0
   -5.5661   19.7702  -31.4158 H   0  0  0  0  0  0  0  0  0  0  0  0
   -9.0624   18.6227  -31.8464 H   0  0  0  0  0  0  0  0  0  0  0  0
   -7.8372   19.3668  -30.6745 H   0  0  0  0  0  0  0  0  0  0  0  0
   -8.6896   20.7690  -33.2099 H   0  0  0  0  0  0  0  0  0  0  0  0
   -9.5950   20.9129  -31.6326 H   0  0  0  0  0  0  0  0  0  0  0  0
   -9.0502   23.4684  -31.1268 H   0  0  0  0  0  0  0  0  0  0  0  0
   -7.3761   25.6452  -30.1881 H   0  0  0  0  0  0  0  0  0  0  0  0
   -4.9608   26.2632  -29.7878 H   0  0  0  0  0  0  0  0  0  0  0  0
   -3.1428   24.6108  -30.2756 H   0  0  0  0  0  0  0  0  0  0  0  0
   -3.7150   22.3225  -31.1690 H   0  0  0  0  0  0  0  0  0  0  0  0
   -7.4596   16.6717  -31.9599 H   0  0  0  0  0  0  0  0  0  0  0  0
   -8.2331   17.2486  -33.4816 H   0  0  0  0  0  0  0  0  0  0  0  0
   -5.6918   15.8681  -33.1422 H   0  0  0  0  0  0  0  0  0  0  0  0
   -6.5148   16.3822  -34.6667 H   0  0  0  0  0  0  0  0  0  0  0  0
   -7.8129   19.4655  -34.2988 H   0  0  0  0  0  0  0  0  0  0  0  0
   -6.6114   20.5170  -33.4503 H   0  0  0  0  0  0  0  0  0  0  0  0
   -6.1522   18.5635  -35.5596 H   0  0  0  0  0  0  0  0  0  0  0  0
   -4.9821   19.6857  -34.7746 H   0  0  0  0  0  0  0  0  0  0  0  0
  1  2  1  0
  3  2  1  6
  3  4  1  0
  4  5  1  0
  5  6  1  0
  6  7  1  1
  7  8  1  0
  8  9  1  0
  9 10  2  0
 10 11  1  0
 11 12  2  0
 12 13  1  0
 13 14  2  0
 14 15  1  0
 15 16  2  0
 16 17  1  0
  6 18  1  0
 18 19  1  0
  6 20  1  0
 20 21  1  0
 19  3  1  0
 21  3  1  0
 17  9  1  0
 16 11  1  0
  1 22  1  0
  1 23  1  0
  1 24  1  0
  2 25  1  0
  2 26  1  0
  4 27  1  0
  4 28  1  0
  5 29  1  0
  5 30  1  0
  7 31  1  0
  7 32  1  0
  8 33  1  0
  8 34  1  0
 10 35  1  0
 12 36  1  0
 13 37  1  0
 14 38  1  0
 15 39  1  0
 18 40  1  0
 18 41  1  0
 19 42  1  0
 19 43  1  0
 20 44  1  0
 20 45  1  0
 21 46  1  0
 21 47  1  0
M  CHG  2   3   1   6   1
M  END
>  <UniqueID>  (11) 
11

>  <SMILES>  (11) 
CC[N+]12CC[N+](CCc3cc4ccccc4o3)(CC1)CC2

>  <Energy>  (11) 
110.8920344793497

>  <Genealogy>  (11) 
CC[N+]12CC[N+](CCc3cc4ccccc4o3)(CC1)CC2 (3D coordinates assigned)
CC[N+]12CC[N+](CCc3cc4ccccc4o3)(CC1)CC2 (nonaromatic ring conformer: 110.8920344793497 kcal/mol)

>  <smiles>  (11) 
CC[N+]12CC[N+](CCc3cc4ccccc4o3)(CC1)CC2

>  <score_type>  (11) 
oracle

>  <origin>  (11) 
adg

>  <m_score__min__energy>  (11) 
-6.0700000000000003

>  <m_primary>  (11) 
energy

$$$$
11:0
     RDKit          3D

 65 68  0  0  0  0  0  0  0  0999 V2000
   -6.6610   24.8070  -29.8720 C   0  0  0  0  0  0  0  0  0  0  0  0
   -5.6130   25.7500  -30.4520 C   0  0  0  0  0  0  0  0  0  0  0  0
   -4.6000   24.9870  -31.1890 N   0  0  0  0  0  0  0  0  0  0  0  0
   -3.8650   24.0970  -30.2820 C   0  0  0  0  0  0  0  0  0  0  0  0
   -3.9790   22.6420  -30.7480 C   0  0  0  0  0  0  0  0  0  0  0  0
   -4.6130   22.5350  -32.0670 N   0  0  0  0  0  0  0  0  0  0  0  0
   -5.2620   21.3290  -32.5010 C   0  0  0  0  0  0  0  0  0  0  0  0
   -6.6590   21.2350  -32.3670 C   0  0  0  0  0  0  0  0  0  0  0  0
   -7.4340   22.3800  -32.0750 C   0  0  0  0  0  0  0  0  0  0  0  0
   -8.8090   22.2820  -31.8860 C   0  0  0  0  0  0  0  0  0  0  0  0
   -9.4350   21.0460  -31.9730 C   0  0  0  0  0  0  0  0  0  0  0  0
   -8.6950   19.9060  -32.2810 C   0  0  0  0  0  0  0  0  0  0  0  0
   -7.2980   19.9810  -32.5240 C   0  0  0  0  0  0  0  0  0  0  0  0
   -6.5610   18.8680  -32.8730 N   0  0  0  0  0  0  0  0  0  0  0  0
   -7.2540   17.6230  -33.2770 C   0  0  0  0  0  0  0  0  0  0  0  0
   -5.1800   18.9290  -32.9040 C   0  0  0  0  0  0  0  0  0  0  0  0
   -4.4040   17.7470  -32.9610 C   0  0  0  0  0  0  0  0  0  0  0  0
   -3.0270   17.7980  -33.1070 C   0  0  0  0  0  0  0  0  0  0  0  0
   -2.3890   19.0170  -33.2600 C   0  0  0  0  0  0  0  0  0  0  0  0
   -3.1030   20.2260  -33.1840 C   0  0  0  0  0  0  0  0  0  0  0  0
   -2.4030   21.4370  -33.5780 N   0  0  0  0  0  0  0  0  0  0  0  0
   -1.0540   21.5270  -32.9840 C   0  0  0  0  0  0  0  0  0  0  0  0
   -1.0720   21.5350  -31.4370 C   0  0  0  0  0  0  0  0  0  0  0  0
   -0.3240   20.3500  -30.7980 C   0  0  0  0  0  0  0  0  0  0  0  0
   -0.8790   20.0020  -29.4800 N   0  0  0  0  0  0  0  0  0  0  0  0
   -0.2650   19.0450  -28.7190 C   0  0  0  0  0  0  0  0  0  0  0  0
   -0.7840   18.6900  -27.4710 C   0  0  0  0  0  0  0  0  0  0  0  0
   -1.9330   19.3230  -27.0020 C   0  0  0  0  0  0  0  0  0  0  0  0
   -2.5470   20.3050  -27.7780 C   0  0  0  0  0  0  0  0  0  0  0  0
   -1.9990   20.6380  -29.0180 C   0  0  0  0  0  0  0  0  0  0  0  0
   -4.5060   20.1860  -32.8660 C   0  0  0  0  0  0  0  0  0  0  0  0
   -6.6198   24.8441  -28.7734 H   0  0  0  0  0  0  0  0  0  0  0  0
   -7.6605   25.1159  -30.2120 H   0  0  0  0  0  0  0  0  0  0  0  0
   -6.4590   23.7806  -30.2120 H   0  0  0  0  0  0  0  0  0  0  0  0
   -6.1014   26.4605  -31.1351 H   0  0  0  0  0  0  0  0  0  0  0  0
   -5.1255   26.2950  -29.6303 H   0  0  0  0  0  0  0  0  0  0  0  0
   -3.9150   25.6650  -31.5980 H   0  0  0  0  0  0  0  0  0  0  0  0
   -2.8049   24.3903  -30.2675 H   0  0  0  0  0  0  0  0  0  0  0  0
   -4.2962   24.1822  -29.2736 H   0  0  0  0  0  0  0  0  0  0  0  0
   -2.9703   22.2065  -30.8025 H   0  0  0  0  0  0  0  0  0  0  0  0
   -4.6072   22.1019  -30.0244 H   0  0  0  0  0  0  0  0  0  0  0  0
   -4.8010   23.4170  -32.5940 H   0  0  0  0  0  0  0  0  0  0  0  0
   -6.9438   23.3616  -31.9961 H   0  0  0  0  0  0  0  0  0  0  0  0
   -9.3999   23.1838  -31.6677 H   0  0  0  0  0  0  0  0  0  0  0  0
  -10.5181   20.9662  -31.7983 H   0  0  0  0  0  0  0  0  0  0  0  0
   -9.2018   18.9313  -32.3368 H   0  0  0  0  0  0  0  0  0  0  0  0
   -7.5632   17.0676  -32.3793 H   0  0  0  0  0  0  0  0  0  0  0  0
   -8.1415   17.8752  -33.8759 H   0  0  0  0  0  0  0  0  0  0  0  0
   -6.5720   17.0015  -33.8759 H   0  0  0  0  0  0  0  0  0  0  0  0
   -4.9032   16.7695  -32.8880 H   0  0  0  0  0  0  0  0  0  0  0  0
   -2.4396   16.8680  -33.1013 H   0  0  0  0  0  0  0  0  0  0  0  0
   -1.3048   19.0402  -33.4442 H   0  0  0  0  0  0  0  0  0  0  0  0
   -2.3510   21.5240  -34.6130 H   0  0  0  0  0  0  0  0  0  0  0  0
   -2.9420   22.2870  -33.2920 H   0  0  0  0  0  0  0  0  0  0  0  0
   -0.4638   20.6628  -33.3229 H   0  0  0  0  0  0  0  0  0  0  0  0
   -0.6138   22.4802  -33.3121 H   0  0  0  0  0  0  0  0  0  0  0  0
   -0.6036   22.4679  -31.0900 H   0  0  0  0  0  0  0  0  0  0  0  0
   -2.1248   21.4512  -31.1295 H   0  0  0  0  0  0  0  0  0  0  0  0
   -0.4071   19.4766  -31.4615 H   0  0  0  0  0  0  0  0  0  0  0  0
    0.7275   20.6425  -30.6606 H   0  0  0  0  0  0  0  0  0  0  0  0
    0.6442   18.5512  -29.0924 H   0  0  0  0  0  0  0  0  0  0  0  0
   -0.2895   17.9173  -26.8641 H   0  0  0  0  0  0  0  0  0  0  0  0
   -2.3540   19.0491  -26.0234 H   0  0  0  0  0  0  0  0  0  0  0  0
   -3.4539   20.8122  -27.4170 H   0  0  0  0  0  0  0  0  0  0  0  0
   -2.4725   21.4198  -29.6300 H   0  0  0  0  0  0  0  0  0  0  0  0
  1  2  1  0
  2  3  1  0
  3  4  1  0
  4  5  1  0
  5  6  1  0
  6  7  1  0
  7  8  2  0
  8  9  1  0
  9 10  2  0
 10 11  1  0
 11 12  2  0
 12 13  1  0
 13 14  2  0
 14 15  1  0
 14 16  1  0
 16 17  2  0
 17 18  1  0
 18 19  2  0
 19 20  1  0
 20 21  1  0
 21 22  1  0
 22 23  1  0
 23 24  1  0
 24 25  1  0
 25 26  2  0
 26 27  1  0
 27 28  2  0
 28 29  1  0
 29 30  2  0
 20 31  2  0
 31  7  1  0
 13  8  1  0
 31 16  1  0
 30 25  1  0
  1 32  1  0
  1 33  1  0
  1 34  1  0
  2 35  1  0
  2 36  1  0
  3 37  1  0
  4 38  1  0
  4 39  1  0
  5 40  1  0
  5 41  1  0
  6 42  1  0
  9 43  1  0
 10 44  1  0
 11 45  1  0
 12 46  1  0
 15 47  1  0
 15 48  1  0
 15 49  1  0
 17 50  1  0
 18 51  1  0
 19 52  1  0
 21 53  1  0
 21 54  1  0
 22 55  1  0
 22 56  1  0
 23 57  1  0
 23 58  1  0
 24 59  1  0
 24 60  1  0
 26 61  1  0
 27 62  1  0
 28 63  1  0
 29 64  1  0
 30 65  1  0
M  CHG  3  14   1  21   1  25   1
M  END
>  <UniqueID>  (12) 
12

>  <SMILES>  (12) 
CCNCCNc1c2ccccc2[n+](C)c2cccc([NH2+]CCC[n+]3ccccc3)c12

>  <Energy>  (12) 
95.4692528527703

>  <Genealogy>  (12) 
CCNCCNc1c2ccccc2[n+](C)c2cccc([NH2+]CCC[n+]3ccccc3)c12 (protonated)
CCNCCNc1c2ccccc2[n+](C)c2cccc([NH2+]CCC[n+]3ccccc3)c12 (3D coordinates assigned)
CCNCCNc1c2ccccc2[n+](C)c2cccc([NH2+]CCC[n+]3ccccc3)c12 (optimized conformer: 95.4692528527703 kcal/mol)

>  <smiles>  (12) 
CCNCCNc1c2ccccc2[n+](C)c2cccc(NCCC[n+]3ccccc3)c12

>  <score_type>  (12) 
oracle

>  <origin>  (12) 
adg

>  <m_score__min__energy>  (12) 
-8.4100000000000001

>  <m_primary>  (12) 
energy

$$$$
12:0
     RDKit          3D

 51 53  0  0  0  0  0  0  0  0999 V2000
   -6.3340   25.3220  -29.6910 C   0  0  0  0  0  0  0  0  0  0  0  0
   -5.3490   25.6170  -30.8260 C   0  0  0  0  0  0  0  0  0  0  0  0
   -3.9660   25.2460  -30.4790 N   0  0  0  0  0  0  0  0  0  0  0  0
   -3.8990   24.2240  -29.4230 C   0  0  0  0  0  0  0  0  0  0  0  0
   -3.1850   22.9720  -29.9460 C   0  0  0  0  0  0  0  0  0  0  0  0
   -4.0070   22.2090  -30.9980 C   0  0  0  0  0  0  0  0  0  0  0  0
   -3.3010   22.1400  -32.3640 C   0  0  0  0  0  0  0  0  0  0  0  0
   -4.2470   21.8950  -33.4710 N   0  0  0  0  0  0  0  0  0  0  0  0
   -5.3540   21.0430  -33.0710 C   0  0  0  0  0  0  0  0  0  0  0  0
   -6.5470   21.6100  -32.5930 C   0  0  0  0  0  0  0  0  0  0  0  0
   -7.6220   20.8290  -32.2560 C   0  0  0  0  0  0  0  0  0  0  0  0
   -7.5920   19.4610  -32.3570 N   0  0  0  0  0  0  0  0  0  0  0  0
   -8.7800   18.6640  -31.9910 C   0  0  0  0  0  0  0  0  0  0  0  0
   -6.4300   18.8430  -32.7850 C   0  0  0  0  0  0  0  0  0  0  0  0
   -6.3380   17.4300  -32.8730 C   0  0  0  0  0  0  0  0  0  0  0  0
   -5.1630   16.8100  -33.2910 C   0  0  0  0  0  0  0  0  0  0  0  0
   -4.0500   17.5710  -33.6240 C   0  0  0  0  0  0  0  0  0  0  0  0
   -4.1030   18.9610  -33.5510 C   0  0  0  0  0  0  0  0  0  0  0  0
   -5.2840   19.6240  -33.1440 C   0  0  0  0  0  0  0  0  0  0  0  0
   -8.7660   21.6530  -31.7680 C   0  0  0  0  0  0  0  0  0  0  0  0
   -8.2640   23.1010  -31.8370 C   0  0  0  0  0  0  0  0  0  0  0  0
   -6.8180   23.0540  -32.3460 C   0  0  0  0  0  0  0  0  0  0  0  0
   -5.8335   25.4719  -28.7230 H   0  0  0  0  0  0  0  0  0  0  0  0
   -7.1956   26.0015  -29.7674 H   0  0  0  0  0  0  0  0  0  0  0  0
   -6.6803   24.2807  -29.7674 H   0  0  0  0  0  0  0  0  0  0  0  0
   -5.6548   25.0478  -31.7162 H   0  0  0  0  0  0  0  0  0  0  0  0
   -5.3687   26.7005  -31.0145 H   0  0  0  0  0  0  0  0  0  0  0  0
   -3.4710   24.8930  -31.3320 H   0  0  0  0  0  0  0  0  0  0  0  0
   -3.3446   24.6261  -28.5622 H   0  0  0  0  0  0  0  0  0  0  0  0
   -4.9208   23.9545  -29.1174 H   0  0  0  0  0  0  0  0  0  0  0  0
   -2.2303   23.2764  -30.3998 H   0  0  0  0  0  0  0  0  0  0  0  0
   -3.0352   22.2964  -29.0910 H   0  0  0  0  0  0  0  0  0  0  0  0
   -4.1769   21.1839  -30.6369 H   0  0  0  0  0  0  0  0  0  0  0  0
   -4.9536   22.7513  -31.1390 H   0  0  0  0  0  0  0  0  0  0  0  0
   -2.7849   23.0945  -32.5442 H   0  0  0  0  0  0  0  0  0  0  0  0
   -2.5918   21.2996  -32.3347 H   0  0  0  0  0  0  0  0  0  0  0  0
   -3.7240   21.4910  -34.2820 H   0  0  0  0  0  0  0  0  0  0  0  0
   -4.6180   22.8060  -33.8240 H   0  0  0  0  0  0  0  0  0  0  0  0
   -8.8615   18.6093  -30.8954 H   0  0  0  0  0  0  0  0  0  0  0  0
   -9.6821   19.1403  -32.4025 H   0  0  0  0  0  0  0  0  0  0  0  0
   -8.6814   17.6486  -32.4025 H   0  0  0  0  0  0  0  0  0  0  0  0
   -7.2094   16.8137  -32.6066 H   0  0  0  0  0  0  0  0  0  0  0  0
   -5.1163   15.7130  -33.3577 H   0  0  0  0  0  0  0  0  0  0  0  0
   -3.1231   17.0742  -33.9466 H   0  0  0  0  0  0  0  0  0  0  0  0
   -3.2131   19.5517  -33.8138 H   0  0  0  0  0  0  0  0  0  0  0  0
   -9.6454   21.5166  -32.4146 H   0  0  0  0  0  0  0  0  0  0  0  0
   -9.0779   21.3698  -30.7519 H   0  0  0  0  0  0  0  0  0  0  0  0
   -8.8888   23.6842  -32.5294 H   0  0  0  0  0  0  0  0  0  0  0  0
   -8.3153   23.5804  -30.8483 H   0  0  0  0  0  0  0  0  0  0  0  0
   -6.7159   23.6319  -33.2764 H   0  0  0  0  0  0  0  0  0  0  0  0
   -6.1105   23.4916  -31.6263 H   0  0  0  0  0  0  0  0  0  0  0  0
  1  2  1  0
  2  3  1  0
  3  4  1  0
  4  5  1  0
  5  6  1  0
  6  7  1  0
  7  8  1  0
  8  9  1  0
  9 10  2  0
 10 11  1  0
 11 12  2  0
 12 13  1  0
 12 14  1  0
 14 15  2  0
 15 16  1  0
 16 17  2  0
 17 18  1  0
 18 19  2  0
 11 20  1  0
 20 21  1  0
 21 22  1  0
 19  9  1  0
 22 10  1  0
 19 14  1  0
  1 23  1  0
  1 24  1  0
  1 25  1  0
  2 26  1  0
  2 27  1  0
  3 28  1  0
  4 29  1  0
  4 30  1  0
  5 31  1  0
  5 32  1  0
  6 33  1  0
  6 34  1  0
  7 35  1  0
  7 36  1  0
  8 37  1  0
  8 38  1  0
 13 39  1  0
 13 40  1  0
 13 41  1  0
 15 42  1  0
 16 43  1  0
 17 44  1  0
 18 45  1  0
 20 46  1  0
 20 47  1  0
 21 48  1  0
 21 49  1  0
 22 50  1  0
 22 51  1  0
M  CHG  2   8   1  12   1
M  END
>  <UniqueID>  (13) 
13

>  <SMILES>  (13) 
CCNCCCC[NH2+]c1c2c([n+](C)c3ccccc13)CCC2

>  <Energy>  (13) 
67.28801394748199

>  <Genealogy>  (13) 
CCNCCCC[NH2+]c1c2c([n+](C)c3ccccc13)CCC2 (protonated)
CCNCCCC[NH2+]c1c2c([n+](C)c3ccccc13)CCC2 (3D coordinates assigned)
CCNCCCC[NH2+]c1c2c([n+](C)c3ccccc13)CCC2 (nonaromatic ring conformer: 67.28801394748199 kcal/mol)

>  <smiles>  (13) 
CCNCCCCNc1c2c([n+](C)c3ccccc13)CCC2

>  <score_type>  (13) 
oracle

>  <origin>  (13) 
adg

>  <m_score__min__energy>  (13) 
-8.5199999999999996

>  <m_primary>  (13) 
energy

$$$$
13:0
     RDKit          3D

 71 74  0  0  0  0  0  0  0  0999 V2000
   -2.2970   21.3510  -28.1300 C   0  0  0  0  0  0  0  0  0  0  0  0
   -3.2000   21.7030  -29.3280 C   0  0  2  0  0  0  0  0  0  0  0  0
   -3.4610   20.4460  -30.1800 C   0  0  0  0  0  0  0  0  0  0  0  0
   -3.7850   20.7780  -31.5710 N   0  0  0  0  0  0  0  0  0  0  0  0
   -5.0840   20.4790  -32.1110 C   0  0  0  0  0  0  0  0  0  0  0  0
   -6.0990   21.4440  -31.9960 C   0  0  0  0  0  0  0  0  0  0  0  0
   -5.7880   22.8060  -31.8090 C   0  0  0  0  0  0  0  0  0  0  0  0
   -6.7970   23.7570  -31.6890 C   0  0  0  0  0  0  0  0  0  0  0  0
   -8.1300   23.3720  -31.7660 C   0  0  0  0  0  0  0  0  0  0  0  0
   -8.4590   22.0320  -31.9620 C   0  0  0  0  0  0  0  0  0  0  0  0
   -7.4520   21.0400  -32.0670 C   0  0  0  0  0  0  0  0  0  0  0  0
   -7.7590   19.7070  -32.2310 N   0  0  0  0  0  0  0  0  0  0  0  0
   -9.1300   19.2260  -31.9530 C   0  0  0  0  0  0  0  0  0  0  0  0
   -6.7880   18.8300  -32.6760 C   0  0  0  0  0  0  0  0  0  0  0  0
   -7.1480   17.5700  -33.2090 C   0  0  0  0  0  0  0  0  0  0  0  0
   -6.1940   16.6970  -33.7020 C   0  0  0  0  0  0  0  0  0  0  0  0
   -4.8590   17.0580  -33.7110 C   0  0  0  0  0  0  0  0  0  0  0  0
   -4.4280   18.2870  -33.1860 C   0  0  0  0  0  0  0  0  0  0  0  0
   -3.0260   18.6150  -33.3540 N   0  0  0  0  0  0  0  0  0  0  0  0
   -2.2170   17.4360  -33.7220 C   0  0  0  0  0  0  0  0  0  0  0  0
   -0.6910   17.6380  -33.5490 C   0  0  0  0  0  0  0  0  0  0  0  0
   -0.0690   18.5540  -34.6130 C   0  0  0  0  0  0  0  0  0  0  0  0
    0.7470   19.6170  -33.9720 N   0  0  0  0  0  0  0  0  0  0  0  0
    0.5220   20.9440  -34.5770 C   0  0  0  0  0  0  0  0  0  0  0  0
   -0.8530   21.5280  -34.1760 C   0  0  0  0  0  0  0  0  0  0  0  0
   -1.5140   20.7380  -33.2040 O   0  0  0  0  0  0  0  0  0  0  0  0
   -0.6590   20.5210  -32.1020 C   0  0  0  0  0  0  0  0  0  0  0  0
    0.5690   19.6740  -32.5060 C   0  0  0  0  0  0  0  0  0  0  0  0
   -5.4030   19.1960  -32.6360 C   0  0  0  0  0  0  0  0  0  0  0  0
   -2.6790   22.8260  -30.1590 N   0  0  0  0  0  0  0  0  0  0  0  0
   -1.2270   23.0570  -30.0390 C   0  0  0  0  0  0  0  0  0  0  0  0
   -3.4130   24.0810  -29.9230 C   0  0  0  0  0  0  0  0  0  0  0  0
   -2.8334   21.5601  -27.1927 H   0  0  0  0  0  0  0  0  0  0  0  0
   -2.0327   20.2840  -28.1711 H   0  0  0  0  0  0  0  0  0  0  0  0
   -1.3803   21.9576  -28.1711 H   0  0  0  0  0  0  0  0  0  0  0  0
   -4.1527   22.0650  -28.9140 H   0  0  0  0  0  0  0  0  0  0  0  0
   -2.5597   19.8155  -30.1668 H   0  0  0  0  0  0  0  0  0  0  0  0
   -4.3244   19.9185  -29.7485 H   0  0  0  0  0  0  0  0  0  0  0  0
   -3.1950   21.4930  -32.0540 H   0  0  0  0  0  0  0  0  0  0  0  0
   -4.7353   23.1210  -31.7573 H   0  0  0  0  0  0  0  0  0  0  0  0
   -6.5390   24.8149  -31.5330 H   0  0  0  0  0  0  0  0  0  0  0  0
   -8.9260   24.1254  -31.6722 H   0  0  0  0  0  0  0  0  0  0  0  0
   -9.5168   21.7396  -32.0364 H   0  0  0  0  0  0  0  0  0  0  0  0
   -9.2859   19.1713  -30.8655 H   0  0  0  0  0  0  0  0  0  0  0  0
   -9.8591   19.9220  -32.3934 H   0  0  0  0  0  0  0  0  0  0  0  0
   -9.2644   18.2270  -32.3934 H   0  0  0  0  0  0  0  0  0  0  0  0
   -8.2083   17.2781  -33.2321 H   0  0  0  0  0  0  0  0  0  0  0  0
   -6.4985   15.7129  -34.0879 H   0  0  0  0  0  0  0  0  0  0  0  0
   -4.1181   16.3668  -34.1391 H   0  0  0  0  0  0  0  0  0  0  0  0
   -2.6530   19.0630  -32.4910 H   0  0  0  0  0  0  0  0  0  0  0  0
   -2.9180   19.3610  -34.0800 H   0  0  0  0  0  0  0  0  0  0  0  0
   -2.5279   16.5922  -33.0885 H   0  0  0  0  0  0  0  0  0  0  0  0
   -2.3935   17.2512  -34.7919 H   0  0  0  0  0  0  0  0  0  0  0  0
   -0.5086   18.0810  -32.5588 H   0  0  0  0  0  0  0  0  0  0  0  0
   -0.2198   16.6500  -33.6577 H   0  0  0  0  0  0  0  0  0  0  0  0
    0.5729   17.9551  -35.2757 H   0  0  0  0  0  0  0  0  0  0  0  0
   -0.8765   19.0260  -35.1920 H   0  0  0  0  0  0  0  0  0  0  0  0
    1.3131   21.6292  -34.2385 H   0  0  0  0  0  0  0  0  0  0  0  0
    0.5414   20.8306  -35.6710 H   0  0  0  0  0  0  0  0  0  0  0  0
   -0.7018   22.5378  -33.7668 H   0  0  0  0  0  0  0  0  0  0  0  0
   -1.4839   21.5476  -35.0769 H   0  0  0  0  0  0  0  0  0  0  0  0
   -0.3143   21.4926  -31.7185 H   0  0  0  0  0  0  0  0  0  0  0  0
   -1.2193   19.9755  -31.3284 H   0  0  0  0  0  0  0  0  0  0  0  0
    1.4695   20.1178  -32.0564 H   0  0  0  0  0  0  0  0  0  0  0  0
    0.4066   18.6479  -32.1443 H   0  0  0  0  0  0  0  0  0  0  0  0
   -0.9494   23.1012  -28.9755 H   0  0  0  0  0  0  0  0  0  0  0  0
   -0.6833   22.2341  -30.5260 H   0  0  0  0  0  0  0  0  0  0  0  0
   -0.9655   24.0080  -30.5260 H   0  0  0  0  0  0  0  0  0  0  0  0
   -3.5118   24.2500  -28.8406 H   0  0  0  0  0  0  0  0  0  0  0  0
   -2.8624   24.9186  -30.3761 H   0  0  0  0  0  0  0  0  0  0  0  0
   -4.4130   24.0117  -30.3761 H   0  0  0  0  0  0  0  0  0  0  0  0
  1  2  1  0
  2  3  1  0
  3  4  1  0
  4  5  1  0
  5  6  2  0
  6  7  1  0
  7  8  2  0
  8  9  1  0
  9 10  2  0
 10 11  1  0
 11 12  2  0
 12 13  1  0
 12 14  1  0
 14 15  2  0
 15 16  1  0
 16 17  2  0
 17 18  1  0
 18 19  1  0
 19 20  1  0
 20 21  1  0
 21 22  1  0
 22 23  1  0
 23 24  1  0
 24 25  1  0
 25 26  1  0
 26 27  1  0
 27 28  1  0
 18 29  2  0
  2 30  1  0
 30 31  1  0
 30 32  1  0
 29  5  1  0
 11  6  1  0
 29 14  1  0
 28 23  1  0
  1 33  1  0
  1 34  1  0
  1 35  1  0
  2 36  1  1
  3 37  1  0
  3 38  1  0
  4 39  1  0
  7 40  1  0
  8 41  1  0
  9 42  1  0
 10 43  1  0
 13 44  1  0
 13 45  1  0
 13 46  1  0
 15 47  1  0
 16 48  1  0
 17 49  1  0
 19 50  1  0
 19 51  1  0
 20 52  1  0
 20 53  1  0
 21 54  1  0
 21 55  1  0
 22 56  1  0
 22 57  1  0
 24 58  1  0
 24 59  1  0
 25 60  1  0
 25 61  1  0
 27 62  1  0
 27 63  1  0
 28 64  1  0
 28 65  1  0
 31 66  1  0
 31 67  1  0
 31 68  1  0
 32 69  1  0
 32 70  1  0
 32 71  1  0
M  CHG  2  12   1  19   1
M  END
>  <UniqueID>  (14) 
14

>  <SMILES>  (14) 
C[C@H](CNc1c2ccccc2[n+](C)c2cccc([NH2+]CCCN3CCOCC3)c12)N(C)C

>  <Energy>  (14) 
126.501393085565

>  <Genealogy>  (14) 
CC(CNc1c2ccccc2[n+](C)c2cccc([NH2+]CCCN3CCOCC3)c12)N(C)C (protonated)
C[C@H](CNc1c2ccccc2[n+](C)c2cccc([NH2+]CCCN3CCOCC3)c12)N(C)C (chirality)
C[C@H](CNc1c2ccccc2[n+](C)c2cccc([NH2+]CCCN3CCOCC3)c12)N(C)C (3D coordinates assigned)
C[C@H](CNc1c2ccccc2[n+](C)c2cccc([NH2+]CCCN3CCOCC3)c12)N(C)C (nonaromatic ring conformer: 126.501393085565 kcal/mol)

>  <smiles>  (14) 
CC(CNc1c2ccccc2[n+](C)c2cccc(NCCCN3CCOCC3)c12)N(C)C

>  <score_type>  (14) 
oracle

>  <origin>  (14) 
adg

>  <m_score__min__energy>  (14) 
-8.5899999999999999

>  <m_primary>  (14) 
energy

$$$$
14:0
     RDKit          3D

 70 72  0  0  0  0  0  0  0  0999 V2000
    1.2570   24.7540  -27.4470 C   0  0  0  0  0  0  0  0  0  0  0  0
    0.0550   25.6090  -26.9890 C   0  0  0  0  0  0  0  0  0  0  0  0
   -0.8380   24.9800  -25.9480 N   0  0  0  0  0  0  0  0  0  0  0  0
   -0.0060   24.3110  -24.8690 C   0  0  0  0  0  0  0  0  0  0  0  0
   -0.4550   22.9250  -24.3530 C   0  0  0  0  0  0  0  0  0  0  0  0
   -1.7460   26.0050  -25.3140 C   0  0  0  0  0  0  0  0  0  0  0  0
   -1.1780   26.8300  -24.1500 C   0  0  0  0  0  0  0  0  0  0  0  0
   -1.7630   23.9790  -26.6520 C   0  0  0  0  0  0  0  0  0  0  0  0
   -2.5940   24.4240  -27.8880 C   0  0  0  0  0  0  0  0  0  0  0  0
   -3.9650   23.7080  -28.0010 C   0  0  0  0  0  0  0  0  0  0  0  0
   -4.2540   23.0880  -29.3140 N   0  0  0  0  0  0  0  0  0  0  0  0
   -3.4560   21.8800  -29.5740 C   0  0  0  0  0  0  0  0  0  0  0  0
   -4.2510   24.0180  -30.4620 C   0  0  0  0  0  0  0  0  0  0  0  0
   -5.6110   24.0700  -31.1860 C   0  0  0  0  0  0  0  0  0  0  0  0
   -5.6100   23.3060  -32.4410 N   0  0  0  0  0  0  0  0  0  0  0  0
   -5.6900   21.8670  -32.4750 C   0  0  0  0  0  0  0  0  0  0  0  0
   -6.9360   21.2360  -32.3170 C   0  0  0  0  0  0  0  0  0  0  0  0
   -8.0790   21.9820  -31.9600 C   0  0  0  0  0  0  0  0  0  0  0  0
   -9.3350   21.3840  -31.9140 C   0  0  0  0  0  0  0  0  0  0  0  0
   -9.4780   20.0410  -32.2390 C   0  0  0  0  0  0  0  0  0  0  0  0
   -8.3610   19.2790  -32.5770 C   0  0  0  0  0  0  0  0  0  0  0  0
   -7.0600   19.8450  -32.5850 C   0  0  0  0  0  0  0  0  0  0  0  0
   -5.9380   19.0920  -32.8830 N   0  0  0  0  0  0  0  0  0  0  0  0
   -6.0300   17.6150  -32.9270 C   0  0  0  0  0  0  0  0  0  0  0  0
   -4.7230   19.7150  -33.1060 C   0  0  0  0  0  0  0  0  0  0  0  0
   -3.6070   19.0120  -33.6350 C   0  0  0  0  0  0  0  0  0  0  0  0
   -2.3650   19.6310  -33.7710 C   0  0  0  0  0  0  0  0  0  0  0  0
   -2.2000   20.9560  -33.3880 C   0  0  0  0  0  0  0  0  0  0  0  0
   -3.2880   21.6870  -32.9190 C   0  0  0  0  0  0  0  0  0  0  0  0
   -4.5670   21.0980  -32.8260 C   0  0  0  0  0  0  0  0  0  0  0  0
    1.7929   24.3728  -26.5653 H   0  0  0  0  0  0  0  0  0  0  0  0
    0.8965   23.9083  -28.0510 H   0  0  0  0  0  0  0  0  0  0  0  0
    1.9376   25.3720  -28.0510 H   0  0  0  0  0  0  0  0  0  0  0  0
    0.4478   26.5488  -26.5737 H   0  0  0  0  0  0  0  0  0  0  0  0
   -0.5741   25.7433  -27.8813 H   0  0  0  0  0  0  0  0  0  0  0  0
    1.0128   24.1960  -25.2674 H   0  0  0  0  0  0  0  0  0  0  0  0
   -0.1094   24.9727  -23.9964 H   0  0  0  0  0  0  0  0  0  0  0  0
   -0.4548   22.9256  -23.2530 H   0  0  0  0  0  0  0  0  0  0  0  0
   -1.4693   22.7083  -24.7194 H   0  0  0  0  0  0  0  0  0  0  0  0
    0.2396   22.1547  -24.7194 H   0  0  0  0  0  0  0  0  0  0  0  0
   -2.0476   26.7107  -26.1020 H   0  0  0  0  0  0  0  0  0  0  0  0
   -2.5642   25.4190  -24.8699 H   0  0  0  0  0  0  0  0  0  0  0  0
   -1.4882   26.3795  -23.1956 H   0  0  0  0  0  0  0  0  0  0  0  0
   -0.0797   26.8414  -24.2103 H   0  0  0  0  0  0  0  0  0  0  0  0
   -1.5593   27.8601  -24.2103 H   0  0  0  0  0  0  0  0  0  0  0  0
   -1.1319   23.1396  -26.9793 H   0  0  0  0  0  0  0  0  0  0  0  0
   -2.5314   23.7687  -25.8935 H   0  0  0  0  0  0  0  0  0  0  0  0
   -2.7716   25.5072  -27.8167 H   0  0  0  0  0  0  0  0  0  0  0  0
   -2.0133   24.1549  -28.7826 H   0  0  0  0  0  0  0  0  0  0  0  0
   -3.9978   22.9164  -27.2379 H   0  0  0  0  0  0  0  0  0  0  0  0
   -4.7263   24.4897  -27.8621 H   0  0  0  0  0  0  0  0  0  0  0  0
   -3.1560   21.4259  -28.6180 H   0  0  0  0  0  0  0  0  0  0  0  0
   -4.0570   21.1603  -30.1492 H   0  0  0  0  0  0  0  0  0  0  0  0
   -2.5582   22.1504  -30.1492 H   0  0  0  0  0  0  0  0  0  0  0  0
   -4.0070   25.0268  -30.0976 H   0  0  0  0  0  0  0  0  0  0  0  0
   -3.5034   23.6553  -31.1828 H   0  0  0  0  0  0  0  0  0  0  0  0
   -6.3812   23.6536  -30.5202 H   0  0  0  0  0  0  0  0  0  0  0  0
   -5.8170   25.1214  -31.4350 H   0  0  0  0  0  0  0  0  0  0  0  0
   -5.5070   23.8220  -33.3460 H   0  0  0  0  0  0  0  0  0  0  0  0
   -7.9763   23.0494  -31.7150 H   0  0  0  0  0  0  0  0  0  0  0  0
  -10.2149   21.9752  -31.6201 H   0  0  0  0  0  0  0  0  0  0  0  0
  -10.4756   19.5776  -32.2296 H   0  0  0  0  0  0  0  0  0  0  0  0
   -8.4905   18.2194  -32.8424 H   0  0  0  0  0  0  0  0  0  0  0  0
   -6.0547   17.2184  -31.9013 H   0  0  0  0  0  0  0  0  0  0  0  0
   -6.9482   17.3204  -33.4562 H   0  0  0  0  0  0  0  0  0  0  0  0
   -5.1554   17.2087  -33.4562 H   0  0  0  0  0  0  0  0  0  0  0  0
   -3.7249   17.9624  -33.9422 H   0  0  0  0  0  0  0  0  0  0  0  0
   -1.5138   19.0687  -34.1826 H   0  0  0  0  0  0  0  0  0  0  0  0
   -1.2087   21.4281  -33.4553 H   0  0  0  0  0  0  0  0  0  0  0  0
   -3.1491   22.7357  -32.6175 H   0  0  0  0  0  0  0  0  0  0  0  0
  1  2  1  0
  2  3  1  0
  3  4  1  0
  4  5  1  0
  3  6  1  0
  6  7  1  0
  3  8  1  0
  8  9  1  0
  9 10  1  0
 10 11  1  0
 11 12  1  0
 11 13  1  0
 13 14  1  0
 14 15  1  0
 15 16  1  0
 16 17  2  0
 17 18  1  0
 18 19  2  0
 19 20  1  0
 20 21  2  0
 21 22  1  0
 22 23  2  0
 23 24  1  0
 23 25  1  0
 25 26  2  0
 26 27  1  0
 27 28  2  0
 28 29  1  0
 29 30  2  0
 30 16  1  0
 22 17  1  0
 30 25  1  0
  1 31  1  0
  1 32  1  0
  1 33  1  0
  2 34  1  0
  2 35  1  0
  4 36  1  0
  4 37  1  0
  5 38  1  0
  5 39  1  0
  5 40  1  0
  6 41  1  0
  6 42  1  0
  7 43  1  0
  7 44  1  0
  7 45  1  0
  8 46  1  0
  8 47  1  0
  9 48  1  0
  9 49  1  0
 10 50  1  0
 10 51  1  0
 12 52  1  0
 12 53  1  0
 12 54  1  0
 13 55  1  0
 13 56  1  0
 14 57  1  0
 14 58  1  0
 15 59  1  0
 18 60  1  0
 19 61  1  0
 20 62  1  0
 21 63  1  0
 24 64  1  0
 24 65  1  0
 24 66  1  0
 26 67  1  0
 27 68  1  0
 28 69  1  0
 29 70  1  0
M  CHG  2   3   1  23   1
M  END
>  <UniqueID>  (15) 
15

>  <SMILES>  (15) 
CC[N+](CC)(CC)CCCN(C)CCNc1c2ccccc2[n+](C)c2ccccc12

>  <Energy>  (15) 
135.54142480117966

>  <Genealogy>  (15) 
CC[N+](CC)(CC)CCCN(C)CCNc1c2ccccc2[n+](C)c2ccccc12 (3D coordinates assigned)
CC[N+](CC)(CC)CCCN(C)CCNc1c2ccccc2[n+](C)c2ccccc12 (optimized conformer: 135.54142480117966 kcal/mol)

>  <smiles>  (15) 
CC[N+](CC)(CC)CCCN(C)CCNc1c2ccccc2[n+](C)c2ccccc12

>  <score_type>  (15) 
oracle

>  <origin>  (15) 
adg

>  <m_score__min__energy>  (15) 
-7.7000000000000002

>  <m_primary>  (15) 
energy

$$$$
15:0
     RDKit          3D

 30 31  0  0  0  0  0  0  0  0999 V2000
   -9.0680   19.8900  -31.8710 C   0  0  0  0  0  0  0  0  0  0  0  0
   -8.4980   20.8980  -31.2080 C   0  0  0  0  0  0  0  0  0  0  0  0
   -8.0840   22.1560  -31.9180 C   0  0  0  0  0  0  0  0  0  0  0  0
   -6.6230   22.2480  -32.0060 N   0  0  0  0  0  0  0  0  0  0  0  0
   -5.8190   23.2890  -31.6570 C   0  0  0  0  0  0  0  0  0  0  0  0
   -6.4130   24.8280  -30.9450 S   0  0  0  0  0  0  0  0  0  0  0  0
   -5.5820   24.6200  -29.3290 C   0  0  0  0  0  0  0  0  0  0  0  0
   -4.0780   24.3680  -29.4720 C   0  0  0  0  0  0  0  0  0  0  0  0
   -3.4960   25.3000  -30.3420 O   0  0  0  0  0  0  0  0  0  0  0  0
   -4.5080   23.0830  -31.9440 N   0  0  0  0  0  0  0  0  0  0  0  0
   -4.5080   21.8510  -32.4860 C   0  0  0  0  0  0  0  0  0  0  0  0
   -3.4150   21.1400  -32.9730 C   0  0  0  0  0  0  0  0  0  0  0  0
   -3.6550   19.8670  -33.5240 C   0  0  0  0  0  0  0  0  0  0  0  0
   -4.9670   19.3460  -33.5770 C   0  0  0  0  0  0  0  0  0  0  0  0
   -6.0510   20.0920  -33.0780 C   0  0  0  0  0  0  0  0  0  0  0  0
   -5.7750   21.3470  -32.5320 C   0  0  0  0  0  0  0  0  0  0  0  0
   -9.3645   18.9767  -31.3344 H   0  0  0  0  0  0  0  0  0  0  0  0
   -9.2414   19.9724  -32.9541 H   0  0  0  0  0  0  0  0  0  0  0  0
   -8.3286   20.8067  -30.1250 H   0  0  0  0  0  0  0  0  0  0  0  0
   -8.5069   22.1528  -32.9335 H   0  0  0  0  0  0  0  0  0  0  0  0
   -8.4580   23.0206  -31.3500 H   0  0  0  0  0  0  0  0  0  0  0  0
   -5.7319   25.5336  -28.7349 H   0  0  0  0  0  0  0  0  0  0  0  0
   -6.0232   23.7409  -28.8365 H   0  0  0  0  0  0  0  0  0  0  0  0
   -3.6030   24.4523  -28.4835 H   0  0  0  0  0  0  0  0  0  0  0  0
   -3.9280   23.3596  -29.8851 H   0  0  0  0  0  0  0  0  0  0  0  0
   -3.5780   24.9260  -31.2580 H   0  0  0  0  0  0  0  0  0  0  0  0
   -2.3986   21.5584  -32.9288 H   0  0  0  0  0  0  0  0  0  0  0  0
   -2.8154   19.2741  -33.9158 H   0  0  0  0  0  0  0  0  0  0  0  0
   -5.1425   18.3507  -34.0112 H   0  0  0  0  0  0  0  0  0  0  0  0
   -7.0783   19.7006  -33.1167 H   0  0  0  0  0  0  0  0  0  0  0  0
  1  2  2  0
  2  3  1  0
  3  4  1  0
  4  5  1  0
  5  6  1  0
  6  7  1  0
  7  8  1  0
  8  9  1  0
  5 10  2  0
 10 11  1  0
 11 12  2  0
 12 13  1  0
 13 14  2  0
 14 15  1  0
 15 16  2  0
 16  4  1  0
 16 11  1  0
  1 17  1  0
  1 18  1  0
  2 19  1  0
  3 20  1  0
  3 21  1  0
  7 22  1  0
  7 23  1  0
  8 24  1  0
  8 25  1  0
  9 26  1  0
 12 27  1  0
 13 28  1  0
 14 29  1  0
 15 30  1  0
M  END
>  <UniqueID>  (16) 
16

>  <SMILES>  (16) 
C=CCn1c(SCCO)nc2ccccc21

>  <Energy>  (16) 
59.70046042942483

>  <Genealogy>  (16) 
C=CCn1c(SCCO)nc2ccccc21 (3D coordinates assigned)
C=CCn1c(SCCO)nc2ccccc21 (optimized conformer: 59.70046042942483 kcal/mol)

>  <smiles>  (16) 
C=CCn1c(SCCO)nc2ccccc21

>  <score_type>  (16) 
oracle

>  <origin>  (16) 
adg

>  <m_score__min__energy>  (16) 
-7.1900000000000004

>  <m_primary>  (16) 
energy

$$$$
16:0
     RDKit          3D

 55 57  0  0  0  0  0  0  0  0999 V2000
   -6.6850   25.6700  -29.5110 C   0  0  0  0  0  0  0  0  0  0  0  0
   -5.3820   24.9180  -29.8210 C   0  0  0  0  0  0  0  0  0  0  0  0
   -5.2370   23.6600  -29.0430 N   0  0  2  0  0  0  0  0  0  0  0  0
   -4.1530   23.7840  -28.0470 C   0  0  0  0  0  0  0  0  0  0  0  0
   -4.9670   22.5350  -29.9770 C   0  0  0  0  0  0  0  0  0  0  0  0
   -4.1850   22.9570  -31.2470 C   0  0  0  0  0  0  0  0  0  0  0  0
   -4.8810   22.5520  -32.4720 N   0  0  0  0  0  0  0  0  0  0  0  0
   -5.1860   21.1700  -32.7050 C   0  0  0  0  0  0  0  0  0  0  0  0
   -4.1290   20.2890  -32.9920 C   0  0  0  0  0  0  0  0  0  0  0  0
   -4.3670   18.9100  -33.0760 C   0  0  0  0  0  0  0  0  0  0  0  0
   -5.6520   18.4180  -33.0290 N   0  0  0  0  0  0  0  0  0  0  0  0
   -5.9050   17.0190  -33.4320 C   0  0  0  0  0  0  0  0  0  0  0  0
   -6.6950   19.2440  -32.6480 C   0  0  0  0  0  0  0  0  0  0  0  0
   -7.9680   18.7050  -32.3270 C   0  0  0  0  0  0  0  0  0  0  0  0
   -9.0400   19.5280  -32.0090 C   0  0  0  0  0  0  0  0  0  0  0  0
   -8.8850   20.9050  -32.0060 C   0  0  0  0  0  0  0  0  0  0  0  0
   -7.6410   21.4870  -32.2710 C   0  0  0  0  0  0  0  0  0  0  0  0
   -7.6400   23.2890  -32.3260 S   0  0  0  0  0  0  0  0  0  0  0  0
   -9.4540   23.4090  -32.3390 C   0  0  0  0  0  0  0  0  0  0  0  0
   -6.5020   20.6590  -32.5390 C   0  0  0  0  0  0  0  0  0  0  0  0
   -3.1340   18.0170  -33.1040 C   0  0  0  0  0  0  0  0  0  0  0  0
   -2.1420   18.4710  -34.1880 C   0  0  0  0  0  0  0  0  0  0  0  0
   -2.0140   20.0090  -34.3130 C   0  0  0  0  0  0  0  0  0  0  0  0
   -2.7030   20.7780  -33.1730 C   0  0  0  0  0  0  0  0  0  0  0  0
   -6.8148   25.7449  -28.4212 H   0  0  0  0  0  0  0  0  0  0  0  0
   -6.6377   26.6797  -29.9449 H   0  0  0  0  0  0  0  0  0  0  0  0
   -7.5356   25.1239  -29.9449 H   0  0  0  0  0  0  0  0  0  0  0  0
   -5.3667   24.6708  -30.8928 H   0  0  0  0  0  0  0  0  0  0  0  0
   -4.5474   25.5767  -29.5389 H   0  0  0  0  0  0  0  0  0  0  0  0
   -6.1370   23.4700  -28.5420 H   0  0  0  0  0  0  0  0  0  0  0  0
   -4.5786   23.7353  -27.0339 H   0  0  0  0  0  0  0  0  0  0  0  0
   -3.4345   22.9622  -28.1828 H   0  0  0  0  0  0  0  0  0  0  0  0
   -3.6387   24.7468  -28.1828 H   0  0  0  0  0  0  0  0  0  0  0  0
   -4.3791   21.7736  -29.4435 H   0  0  0  0  0  0  0  0  0  0  0  0
   -5.9425   22.1520  -30.3112 H   0  0  0  0  0  0  0  0  0  0  0  0
   -4.0697   24.0509  -31.2476 H   0  0  0  0  0  0  0  0  0  0  0  0
   -3.2052   22.4573  -31.2282 H   0  0  0  0  0  0  0  0  0  0  0  0
   -4.9440   23.2070  -33.2830 H   0  0  0  0  0  0  0  0  0  0  0  0
   -6.0181   16.3935  -32.5342 H   0  0  0  0  0  0  0  0  0  0  0  0
   -6.8264   16.9709  -34.0309 H   0  0  0  0  0  0  0  0  0  0  0  0
   -5.0588   16.6512  -34.0309 H   0  0  0  0  0  0  0  0  0  0  0  0
   -8.1081   17.6140  -32.3302 H   0  0  0  0  0  0  0  0  0  0  0  0
  -10.0155   19.0855  -31.7586 H   0  0  0  0  0  0  0  0  0  0  0  0
   -9.7512   21.5485  -31.7925 H   0  0  0  0  0  0  0  0  0  0  0  0
   -9.8273   23.4337  -31.3046 H   0  0  0  0  0  0  0  0  0  0  0  0
   -9.7569   24.3291  -32.8602 H   0  0  0  0  0  0  0  0  0  0  0  0
   -9.8754   22.5368  -32.8602 H   0  0  0  0  0  0  0  0  0  0  0  0
   -2.6378   18.0598  -32.1232 H   0  0  0  0  0  0  0  0  0  0  0  0
   -3.4535   16.9896  -33.3330 H   0  0  0  0  0  0  0  0  0  0  0  0
   -1.1512   18.0590  -33.9459 H   0  0  0  0  0  0  0  0  0  0  0  0
   -2.5276   18.1023  -35.1500 H   0  0  0  0  0  0  0  0  0  0  0  0
   -0.9455   20.2703  -34.3129 H   0  0  0  0  0  0  0  0  0  0  0  0
   -2.5153   20.2999  -35.2479 H   0  0  0  0  0  0  0  0  0  0  0  0
   -2.1440   20.6195  -32.2390 H   0  0  0  0  0  0  0  0  0  0  0  0
   -2.7218   21.8487  -33.4247 H   0  0  0  0  0  0  0  0  0  0  0  0
  1  2  1  0
  2  3  1  0
  3  4  1  0
  3  5  1  0
  5  6  1  0
  6  7  1  0
  7  8  1  0
  8  9  2  0
  9 10  1  0
 10 11  2  0
 11 12  1  0
 11 13  1  0
 13 14  2  0
 14 15  1  0
 15 16  2  0
 16 17  1  0
 17 18  1  0
 18 19  1  0
 17 20  2  0
 10 21  1  0
 21 22  1  0
 22 23  1  0
 23 24  1  0
 20  8  1  0
 24  9  1  0
 20 13  1  0
  1 25  1  0
  1 26  1  0
  1 27  1  0
  2 28  1  0
  2 29  1  0
  3 30  1  1
  4 31  1  0
  4 32  1  0
  4 33  1  0
  5 34  1  0
  5 35  1  0
  6 36  1  0
  6 37  1  0
  7 38  1  0
 12 39  1  0
 12 40  1  0
 12 41  1  0
 14 42  1  0
 15 43  1  0
 16 44  1  0
 19 45  1  0
 19 46  1  0
 19 47  1  0
 21 48  1  0
 21 49  1  0
 22 50  1  0
 22 51  1  0
 23 52  1  0
 23 53  1  0
 24 54  1  0
 24 55  1  0
M  CHG  2   3   1  11   1
M  END
>  <UniqueID>  (17) 
17

>  <SMILES>  (17) 
CC[N@H+](C)CCNc1c2c([n+](C)c3cccc(SC)c13)CCCC2

>  <Energy>  (17) 
87.49640287311445

>  <Genealogy>  (17) 
CC[NH+](C)CCNc1c2c([n+](C)c3cccc(SC)c13)CCCC2 (protonated)
CC[N@H+](C)CCNc1c2c([n+](C)c3cccc(SC)c13)CCCC2 (chirality)
CC[N@H+](C)CCNc1c2c([n+](C)c3cccc(SC)c13)CCCC2 (3D coordinates assigned)
CC[N@H+](C)CCNc1c2c([n+](C)c3cccc(SC)c13)CCCC2 (nonaromatic ring conformer: 87.49640287311445 kcal/mol)

>  <smiles>  (17) 
CCN(C)CCNc1c2c([n+](C)c3cccc(SC)c13)CCCC2

>  <score_type>  (17) 
oracle

>  <origin>  (17) 
adg

>  <m_score__min__energy>  (17) 
-7.2000000000000002

>  <m_primary>  (17) 
energy

$$$$
17:0
     RDKit          3D

 50 51  0  0  0  0  0  0  0  0999 V2000
   -0.4940   25.9070  -36.8410 C   0  0  0  0  0  0  0  0  0  0  0  0
    0.5650   25.0880  -36.0990 C   0  0  0  0  0  0  0  0  0  0  0  0
    0.3280   23.6380  -36.2130 N   0  0  0  0  0  0  0  0  0  0  0  0
    1.4020   22.8410  -35.5990 C   0  0  0  0  0  0  0  0  0  0  0  0
    0.8920   21.4410  -35.2510 C   0  0  0  0  0  0  0  0  0  0  0  0
   -0.4600   21.5300  -34.6830 N   0  0  0  0  0  0  0  0  0  0  0  0
   -0.4910   21.0960  -33.2800 C   0  0  0  0  0  0  0  0  0  0  0  0
   -1.8970   21.2090  -32.7400 C   0  0  0  0  0  0  0  0  0  0  0  0
   -2.9770   21.1160  -33.6340 C   0  0  0  0  0  0  0  0  0  0  0  0
   -4.2890   21.2660  -33.1830 C   0  0  0  0  0  0  0  0  0  0  0  0
   -4.5430   21.5150  -31.8310 C   0  0  0  0  0  0  0  0  0  0  0  0
   -5.9280   21.6820  -31.3530 C   0  0  0  0  0  0  0  0  0  0  0  0
   -6.8740   20.7020  -31.6750 C   0  0  0  0  0  0  0  0  0  0  0  0
   -8.1880   20.8220  -31.2290 C   0  0  0  0  0  0  0  0  0  0  0  0
   -8.5480   21.9240  -30.4580 C   0  0  0  0  0  0  0  0  0  0  0  0
   -7.6250   22.8710  -30.1420 N   0  0  0  0  0  0  0  0  0  0  0  0
   -6.3260   22.7850  -30.5610 C   0  0  0  0  0  0  0  0  0  0  0  0
   -5.1760   24.0440  -30.0690 S   0  0  0  0  0  0  0  0  0  0  0  0
   -4.2280   23.5160  -28.6550 C   0  0  0  0  0  0  0  0  0  0  0  0
   -5.9220   25.2920  -29.6900 O   0  0  0  0  0  0  0  0  0  0  0  0
   -4.2530   24.3680  -31.2110 O   0  0  0  0  0  0  0  0  0  0  0  0
   -3.4790   21.5810  -30.9240 C   0  0  0  0  0  0  0  0  0  0  0  0
   -2.1510   21.4620  -31.3670 C   0  0  0  0  0  0  0  0  0  0  0  0
   -1.0380   21.5570  -30.3560 C   0  0  0  0  0  0  0  0  0  0  0  0
   -1.1454   26.4108  -36.1117 H   0  0  0  0  0  0  0  0  0  0  0  0
    0.0006   26.6599  -37.4723 H   0  0  0  0  0  0  0  0  0  0  0  0
   -1.0983   25.2389  -37.4723 H   0  0  0  0  0  0  0  0  0  0  0  0
    1.5533   25.3198  -36.5228 H   0  0  0  0  0  0  0  0  0  0  0  0
    0.5136   25.3558  -35.0333 H   0  0  0  0  0  0  0  0  0  0  0  0
   -0.5870   23.3930  -35.7650 H   0  0  0  0  0  0  0  0  0  0  0  0
    2.2405   22.7564  -36.3059 H   0  0  0  0  0  0  0  0  0  0  0  0
    1.7352   23.3398  -34.6770 H   0  0  0  0  0  0  0  0  0  0  0  0
    0.8654   20.8253  -36.1621 H   0  0  0  0  0  0  0  0  0  0  0  0
    1.5663   20.9823  -34.5128 H   0  0  0  0  0  0  0  0  0  0  0  0
   -0.7560   22.5330  -34.7190 H   0  0  0  0  0  0  0  0  0  0  0  0
   -0.1575   20.0498  -33.2140 H   0  0  0  0  0  0  0  0  0  0  0  0
    0.1782   21.7367  -32.6870 H   0  0  0  0  0  0  0  0  0  0  0  0
   -2.7864   20.9230  -34.7000 H   0  0  0  0  0  0  0  0  0  0  0  0
   -5.1255   21.1881  -33.8931 H   0  0  0  0  0  0  0  0  0  0  0  0
   -6.5786   19.8339  -32.2825 H   0  0  0  0  0  0  0  0  0  0  0  0
   -8.9335   20.0542  -31.4832 H   0  0  0  0  0  0  0  0  0  0  0  0
   -9.5838   22.0290  -30.1029 H   0  0  0  0  0  0  0  0  0  0  0  0
   -7.9330   23.6780  -29.5560 H   0  0  0  0  0  0  0  0  0  0  0  0
   -4.7518   23.8077  -27.7327 H   0  0  0  0  0  0  0  0  0  0  0  0
   -4.1106   22.4226  -28.6798 H   0  0  0  0  0  0  0  0  0  0  0  0
   -3.2366   23.9919  -28.6798 H   0  0  0  0  0  0  0  0  0  0  0  0
   -3.6846   21.7275  -29.8534 H   0  0  0  0  0  0  0  0  0  0  0  0
   -1.4605   21.5209  -29.3410 H   0  0  0  0  0  0  0  0  0  0  0  0
   -0.3440   20.7148  -30.4944 H   0  0  0  0  0  0  0  0  0  0  0  0
   -0.4968   22.5046  -30.4944 H   0  0  0  0  0  0  0  0  0  0  0  0
  1  2  1  0
  2  3  1  0
  3  4  1  0
  4  5  1  0
  5  6  1  0
  6  7  1  0
  7  8  1  0
  8  9  2  0
  9 10  1  0
 10 11  2  0
 11 12  1  0
 12 13  2  0
 13 14  1  0
 14 15  2  0
 15 16  1  0
 16 17  2  0
 17 18  1  0
 18 19  1  0
 18 20  2  0
 18 21  2  0
 11 22  1  0
 22 23  2  0
 23 24  1  0
 23  8  1  0
 17 12  1  0
  1 25  1  0
  1 26  1  0
  1 27  1  0
  2 28  1  0
  2 29  1  0
  3 30  1  0
  4 31  1  0
  4 32  1  0
  5 33  1  0
  5 34  1  0
  6 35  1  0
  7 36  1  0
  7 37  1  0
  9 38  1  0
 10 39  1  0
 13 40  1  0
 14 41  1  0
 15 42  1  0
 16 43  1  0
 19 44  1  0
 19 45  1  0
 19 46  1  0
 22 47  1  0
 24 48  1  0
 24 49  1  0
 24 50  1  0
M  CHG  1  16   1
M  END
>  <UniqueID>  (18) 
18

>  <SMILES>  (18) 
CCNCCNCc1ccc(-c2ccc[nH+]c2S(C)(=O)=O)cc1C

>  <Energy>  (18) 
50.88947077801837

>  <Genealogy>  (18) 
CCNCCNCc1ccc(-c2ccc[nH+]c2S(C)(=O)=O)cc1C (protonated)
CCNCCNCc1ccc(-c2ccc[nH+]c2S(C)(=O)=O)cc1C (3D coordinates assigned)
CCNCCNCc1ccc(-c2ccc[nH+]c2S(C)(=O)=O)cc1C (optimized conformer: 50.88947077801837 kcal/mol)

>  <smiles>  (18) 
CCNCCNCc1ccc(-c2cccnc2S(C)(=O)=O)cc1C

>  <score_type>  (18) 
oracle

>  <origin>  (18) 
adg

>  <m_score__min__energy>  (18) 
-7.8799999999999999

>  <m_primary>  (18) 
energy

$$$$
