0:0
     RDKit          3D

 64 66  0  0  0  0  0  0  0  0999 V2000
   -3.5250   18.5460  -25.8650 C   0  0  0  0  0  0  0  0  0  0  0  0
   -2.2880   18.8920  -26.7070 C   0  0  0  0  0  0  0  0  0  0  0  0
   -2.2760   20.2880  -27.2040 N   0  0  0  0  0  0  0  0  0  0  0  0
   -1.3560   21.1560  -26.4380 C   0  0  0  0  0  0  0  0  0  0  0  0
   -0.1920   21.6210  -27.3100 C   0  0  0  0  0  0  0  0  0  0  0  0
   -2.0830   20.3740  -28.6710 C   0  0  0  0  0  0  0  0  0  0  0  0
   -3.1310   21.3060  -29.2750 C   0  0  0  0  0  0  0  0  0  0  0  0
   -2.5230   22.0710  -30.2910 O   0  0  0  0  0  0  0  0  0  0  0  0
   -2.1770   23.3490  -29.7970 C   0  0  0  0  0  0  0  0  0  0  0  0
   -3.4550   24.1510  -29.5880 C   0  0  0  0  0  0  0  0  0  0  0  0
   -4.0720   24.3580  -30.8440 O   0  0  0  0  0  0  0  0  0  0  0  0
   -5.4790   24.4510  -30.7180 C   0  0  0  0  0  0  0  0  0  0  0  0
   -6.1670   23.1330  -31.1070 C   0  0  0  0  0  0  0  0  0  0  0  0
   -5.5770   22.5660  -32.3210 N   0  0  0  0  0  0  0  0  0  0  0  0
   -5.7100   21.1680  -32.6270 C   0  0  0  0  0  0  0  0  0  0  0  0
   -6.9710   20.5580  -32.5060 C   0  0  0  0  0  0  0  0  0  0  0  0
   -8.1020   21.3090  -32.1120 C   0  0  0  0  0  0  0  0  0  0  0  0
   -9.3420   20.6980  -31.9500 C   0  0  0  0  0  0  0  0  0  0  0  0
   -9.4770   19.3310  -32.1540 C   0  0  0  0  0  0  0  0  0  0  0  0
   -8.3750   18.5680  -32.5390 C   0  0  0  0  0  0  0  0  0  0  0  0
   -7.1060   19.1660  -32.7500 C   0  0  0  0  0  0  0  0  0  0  0  0
   -6.0120   18.4250  -33.1500 N   0  0  0  0  0  0  0  0  0  0  0  0
   -6.2020   17.0530  -33.6730 C   0  0  0  0  0  0  0  0  0  0  0  0
   -4.7440   18.9720  -33.0880 C   0  0  0  0  0  0  0  0  0  0  0  0
   -3.5890   18.1560  -33.1910 C   0  0  0  0  0  0  0  0  0  0  0  0
   -2.3140   18.7110  -33.2050 C   0  0  0  0  0  0  0  0  0  0  0  0
   -2.1520   20.0870  -33.1310 C   0  0  0  0  0  0  0  0  0  0  0  0
   -3.2610   20.9250  -32.9910 C   0  0  0  0  0  0  0  0  0  0  0  0
   -3.0460   22.3020  -32.9680 O   0  0  0  0  0  0  0  0  0  0  0  0
   -4.5700   20.3730  -32.8980 C   0  0  0  0  0  0  0  0  0  0  0  0
   -3.2728   18.6166  -24.7966 H   0  0  0  0  0  0  0  0  0  0  0  0
   -4.3360   19.2518  -26.0977 H   0  0  0  0  0  0  0  0  0  0  0  0
   -3.8522   17.5219  -26.0977 H   0  0  0  0  0  0  0  0  0  0  0  0
   -1.3921   18.7362  -26.0880 H   0  0  0  0  0  0  0  0  0  0  0  0
   -2.3075   18.2369  -27.5904 H   0  0  0  0  0  0  0  0  0  0  0  0
   -1.9085   22.0356  -26.0761 H   0  0  0  0  0  0  0  0  0  0  0  0
   -0.9528   20.5803  -25.5919 H   0  0  0  0  0  0  0  0  0  0  0  0
    0.6375   21.9524  -26.6681 H   0  0  0  0  0  0  0  0  0  0  0  0
    0.1457   20.7887  -27.9451 H   0  0  0  0  0  0  0  0  0  0  0  0
   -0.5207   22.4569  -27.9451 H   0  0  0  0  0  0  0  0  0  0  0  0
   -1.0780   20.7666  -28.8850 H   0  0  0  0  0  0  0  0  0  0  0  0
   -2.1901   19.3718  -29.1116 H   0  0  0  0  0  0  0  0  0  0  0  0
   -3.9533   20.7121  -29.7006 H   0  0  0  0  0  0  0  0  0  0  0  0
   -3.5354   21.9700  -28.4968 H   0  0  0  0  0  0  0  0  0  0  0  0
   -1.6441   23.2448  -28.8403 H   0  0  0  0  0  0  0  0  0  0  0  0
   -1.5224   23.8650  -30.5148 H   0  0  0  0  0  0  0  0  0  0  0  0
   -4.1370   23.5950  -28.9279 H   0  0  0  0  0  0  0  0  0  0  0  0
   -3.2176   25.1194  -29.1233 H   0  0  0  0  0  0  0  0  0  0  0  0
   -5.7294   24.6905  -29.6740 H   0  0  0  0  0  0  0  0  0  0  0  0
   -5.8352   25.2400  -31.3967 H   0  0  0  0  0  0  0  0  0  0  0  0
   -6.0545   22.4128  -30.2832 H   0  0  0  0  0  0  0  0  0  0  0  0
   -7.2302   23.3388  -31.2998 H   0  0  0  0  0  0  0  0  0  0  0  0
   -5.3130   23.2030  -33.1050 H   0  0  0  0  0  0  0  0  0  0  0  0
   -8.0008   22.3893  -31.9313 H   0  0  0  0  0  0  0  0  0  0  0  0
  -10.2165   21.2989  -31.6599 H   0  0  0  0  0  0  0  0  0  0  0  0
  -10.4554   18.8489  -32.0116 H   0  0  0  0  0  0  0  0  0  0  0  0
   -8.4918   17.4835  -32.6816 H   0  0  0  0  0  0  0  0  0  0  0  0
   -6.2993   16.3503  -32.8323 H   0  0  0  0  0  0  0  0  0  0  0  0
   -7.1136   17.0179  -34.2876 H   0  0  0  0  0  0  0  0  0  0  0  0
   -5.3343   16.7715  -34.2876 H   0  0  0  0  0  0  0  0  0  0  0  0
   -3.7036   17.0642  -33.2611 H   0  0  0  0  0  0  0  0  0  0  0  0
   -1.4319   18.0576  -33.2749 H   0  0  0  0  0  0  0  0  0  0  0  0
   -1.1427   20.5214  -33.1830 H   0  0  0  0  0  0  0  0  0  0  0  0
   -3.2250   22.8610  -32.1430 H   0  0  0  0  0  0  0  0  0  0  0  0
  1  2  1  0
  2  3  1  0
  3  4  1  0
  4  5  1  0
  3  6  1  0
  6  7  1  0
  7  8  1  0
  8  9  1  0
  9 10  1  0
 10 11  1  0
 11 12  1  0
 12 13  1  0
 13 14  1  0
 14 15  1  0
 15 16  2  0
 16 17  1  0
 17 18  2  0
 18 19  1  0
 19 20  2  0
 20 21  1  0
 21 22  2  0
 22 23  1  0
 22 24  1  0
 24 25  2  0
 25 26  1  0
 26 27  2  0
 27 28  1  0
 28 29  1  0
 28 30  2  0
 30 15  1  0
 21 16  1  0
 30 24  1  0
  1 31  1  0
  1 32  1  0
  1 33  1  0
  2 34  1  0
  2 35  1  0
  4 36  1  0
  4 37  1  0
  5 38  1  0
  5 39  1  0
  5 40  1  0
  6 41  1  0
  6 42  1  0
  7 43  1  0
  7 44  1  0
  9 45  1  0
  9 46  1  0
 10 47  1  0
 10 48  1  0
 12 49  1  0
 12 50  1  0
 13 51  1  0
 13 52  1  0
 14 53  1  0
 17 54  1  0
 18 55  1  0
 19 56  1  0
 20 57  1  0
 23 58  1  0
 23 59  1  0
 23 60  1  0
 25 61  1  0
 26 62  1  0
 27 63  1  0
 29 64  1  0
M  CHG  1  22   1
M  END
>  <UniqueID>  (1) 
1

>  <SMILES>  (1) 
CCN(CC)CCOCCOCCNc1c2ccccc2[n+](C)c2cccc(O)c12

>  <Energy>  (1) 
91.33288554470816

>  <Genealogy>  (1) 
CCN(CC)CCOCCOCCNc1c2ccccc2[n+](C)c2cccc(O)c12 (3D coordinates assigned)
CCN(CC)CCOCCOCCNc1c2ccccc2[n+](C)c2cccc(O)c12 (optimized conformer: 91.33288554470816 kcal/mol)

>  <smiles>  (1) 
CCN(CC)CCOCCOCCNc1c2ccccc2[n+](C)c2cccc(O)c12

>  <score_type>  (1) 
oracle

>  <origin>  (1) 
adg

>  <m_score__min__energy>  (1) 
-8.5899999999999999

>  <m_primary>  (1) 
energy

$$$$
1:0
     RDKit          3D

 79 83  0  0  0  0  0  0  0  0999 V2000
   -1.2660   25.7230  -27.4930 C   0  0  0  0  0  0  0  0  0  0  0  0
   -0.9680   24.7340  -28.6220 C   0  0  0  0  0  0  0  0  0  0  0  0
   -2.1320   23.8540  -28.8850 N   0  0  0  0  0  0  0  0  0  0  0  0
   -3.2610   24.1740  -27.9780 C   0  0  0  0  0  0  0  0  0  0  0  0
   -4.2370   23.0000  -27.8500 C   0  0  0  0  0  0  0  0  0  0  0  0
   -1.7610   22.4160  -28.7790 C   0  0  0  0  0  0  0  0  0  0  0  0
   -0.6900   22.0560  -29.8150 C   0  0  0  0  0  0  0  0  0  0  0  0
   -1.1760   22.2340  -31.1500 O   0  0  0  0  0  0  0  0  0  0  0  0
   -1.8850   21.2840  -31.9020 C   0  0  0  0  0  0  0  0  0  0  0  0
   -1.3850   20.9360  -33.1630 C   0  0  0  0  0  0  0  0  0  0  0  0
   -2.0290   19.9720  -33.9430 C   0  0  0  0  0  0  0  0  0  0  0  0
   -3.1790   19.3210  -33.4690 C   0  0  0  0  0  0  0  0  0  0  0  0
   -3.8290   18.2510  -34.3230 C   0  0  0  0  0  0  0  0  0  0  0  0
   -4.3830   17.1550  -33.5150 N   0  0  0  0  0  0  0  0  0  0  0  0
   -5.5350   17.1150  -32.7770 C   0  0  0  0  0  0  0  0  0  0  0  0
   -6.5170   18.2200  -32.6370 C   0  0  0  0  0  0  0  0  0  0  0  0
   -6.5600   19.2940  -33.5390 C   0  0  0  0  0  0  0  0  0  0  0  0
   -7.5070   20.3070  -33.3950 C   0  0  0  0  0  0  0  0  0  0  0  0
   -8.4600   20.2490  -32.3750 C   0  0  0  0  0  0  0  0  0  0  0  0
   -9.4050   21.2840  -32.2920 O   0  0  0  0  0  0  0  0  0  0  0  0
   -9.1430   22.6090  -31.8260 C   0  0  0  0  0  0  0  0  0  0  0  0
   -7.9020   22.6420  -30.9190 C   0  0  0  0  0  0  0  0  0  0  0  0
   -6.9850   23.7330  -31.3170 N   0  0  0  0  0  0  0  0  0  0  0  0
   -6.6870   24.6110  -30.1700 C   0  0  0  0  0  0  0  0  0  0  0  0
   -5.4900   25.5220  -30.4930 C   0  0  0  0  0  0  0  0  0  0  0  0
   -4.2920   24.8330  -30.8300 O   0  0  0  0  0  0  0  0  0  0  0  0
   -4.4890   23.4690  -31.1650 C   0  0  0  0  0  0  0  0  0  0  0  0
   -5.7620   23.2350  -31.9960 C   0  0  0  0  0  0  0  0  0  0  0  0
   -8.4420   19.1630  -31.4800 C   0  0  0  0  0  0  0  0  0  0  0  0
   -7.4820   18.1570  -31.6160 C   0  0  0  0  0  0  0  0  0  0  0  0
   -5.6820   15.9560  -32.0820 N   0  0  0  0  0  0  0  0  0  0  0  0
   -4.5860   15.2530  -32.4090 C   0  0  0  0  0  0  0  0  0  0  0  0
   -4.2320   13.9820  -31.9630 C   0  0  0  0  0  0  0  0  0  0  0  0
   -3.0160   13.4440  -32.4200 C   0  0  0  0  0  0  0  0  0  0  0  0
   -2.1950   14.1810  -33.3030 C   0  0  0  0  0  0  0  0  0  0  0  0
   -2.5820   15.4630  -33.7350 C   0  0  0  0  0  0  0  0  0  0  0  0
   -3.7970   15.9680  -33.2610 C   0  0  0  0  0  0  0  0  0  0  0  0
   -3.7120   19.7070  -32.2260 C   0  0  0  0  0  0  0  0  0  0  0  0
   -3.0700   20.6750  -31.4490 C   0  0  0  0  0  0  0  0  0  0  0  0
   -1.1167   25.2273  -26.5224 H   0  0  0  0  0  0  0  0  0  0  0  0
   -0.5878   26.5854  -27.5725 H   0  0  0  0  0  0  0  0  0  0  0  0
   -2.3077   26.0672  -27.5725 H   0  0  0  0  0  0  0  0  0  0  0  0
   -0.7287   25.2956  -29.5371 H   0  0  0  0  0  0  0  0  0  0  0  0
   -0.1176   24.1055  -28.3191 H   0  0  0  0  0  0  0  0  0  0  0  0
   -2.8607   24.4147  -26.9821 H   0  0  0  0  0  0  0  0  0  0  0  0
   -3.8081   25.0295  -28.4010 H   0  0  0  0  0  0  0  0  0  0  0  0
   -4.4152   22.7857  -26.7859 H   0  0  0  0  0  0  0  0  0  0  0  0
   -5.1889   23.2599  -28.3361 H   0  0  0  0  0  0  0  0  0  0  0  0
   -3.8076   22.1115  -28.3361 H   0  0  0  0  0  0  0  0  0  0  0  0
   -1.3693   22.2173  -27.7705 H   0  0  0  0  0  0  0  0  0  0  0  0
   -2.6558   21.8046  -28.9676 H   0  0  0  0  0  0  0  0  0  0  0  0
    0.1866   22.7031  -29.6637 H   0  0  0  0  0  0  0  0  0  0  0  0
   -0.4206   20.9978  -29.6821 H   0  0  0  0  0  0  0  0  0  0  0  0
   -0.4766   21.4262  -33.5431 H   0  0  0  0  0  0  0  0  0  0  0  0
   -1.6313   19.7209  -34.9374 H   0  0  0  0  0  0  0  0  0  0  0  0
   -4.6428   18.7083  -34.9049 H   0  0  0  0  0  0  0  0  0  0  0  0
   -3.0552   17.8277  -34.9803 H   0  0  0  0  0  0  0  0  0  0  0  0
   -5.8389   19.3371  -34.3685 H   0  0  0  0  0  0  0  0  0  0  0  0
   -7.5038   21.1593  -34.0904 H   0  0  0  0  0  0  0  0  0  0  0  0
   -8.9733   23.2670  -32.6910 H   0  0  0  0  0  0  0  0  0  0  0  0
  -10.0106   22.9521  -31.2433 H   0  0  0  0  0  0  0  0  0  0  0  0
   -8.2208   22.8013  -29.8783 H   0  0  0  0  0  0  0  0  0  0  0  0
   -7.3706   21.6838  -31.0160 H   0  0  0  0  0  0  0  0  0  0  0  0
   -7.5675   25.2327  -29.9503 H   0  0  0  0  0  0  0  0  0  0  0  0
   -6.4385   23.9888  -29.2976 H   0  0  0  0  0  0  0  0  0  0  0  0
   -5.7670   26.1632  -31.3428 H   0  0  0  0  0  0  0  0  0  0  0  0
   -5.2745   26.0887  -29.5751 H   0  0  0  0  0  0  0  0  0  0  0  0
   -3.6219   23.1213  -31.7457 H   0  0  0  0  0  0  0  0  0  0  0  0
   -4.6016   22.9107  -30.2239 H   0  0  0  0  0  0  0  0  0  0  0  0
   -5.6557   23.7570  -32.9584 H   0  0  0  0  0  0  0  0  0  0  0  0
   -5.8755   22.1497  -32.1344 H   0  0  0  0  0  0  0  0  0  0  0  0
   -9.1856   19.1061  -30.6714 H   0  0  0  0  0  0  0  0  0  0  0  0
   -7.4810   17.3072  -30.9175 H   0  0  0  0  0  0  0  0  0  0  0  0
   -4.8813   13.4185  -31.2769 H   0  0  0  0  0  0  0  0  0  0  0  0
   -2.7019   12.4434  -32.0882 H   0  0  0  0  0  0  0  0  0  0  0  0
   -1.2465   13.7494  -33.6552 H   0  0  0  0  0  0  0  0  0  0  0  0
   -1.9513   16.0473  -34.4212 H   0  0  0  0  0  0  0  0  0  0  0  0
   -4.6411   19.2435  -31.8628 H   0  0  0  0  0  0  0  0  0  0  0  0
   -3.4942   20.9631  -30.4758 H   0  0  0  0  0  0  0  0  0  0  0  0
  1  2  1  0
  2  3  1  0
  3  4  1  0
  4  5  1  0
  3  6  1  0
  6  7  1  0
  7  8  1  0
  8  9  1  0
  9 10  2  0
 10 11  1  0
 11 12  2  0
 12 13  1  0
 13 14  1  0
 14 15  1  0
 15 16  1  0
 16 17  2  0
 17 18  1  0
 18 19  2  0
 19 20  1  0
 20 21  1  0
 21 22  1  0
 22 23  1  0
 23 24  1  0
 24 25  1  0
 25 26  1  0
 26 27  1  0
 27 28  1  0
 19 29  1  0
 29 30  2  0
 15 31  2  0
 31 32  1  0
 32 33  2  0
 33 34  1  0
 34 35  2  0
 35 36  1  0
 36 37  2  0
 12 38  1  0
 38 39  2  0
 39  9  1  0
 37 14  1  0
 30 16  1  0
 37 32  1  0
 28 23  1  0
  1 40  1  0
  1 41  1  0
  1 42  1  0
  2 43  1  0
  2 44  1  0
  4 45  1  0
  4 46  1  0
  5 47  1  0
  5 48  1  0
  5 49  1  0
  6 50  1  0
  6 51  1  0
  7 52  1  0
  7 53  1  0
 10 54  1  0
 11 55  1  0
 13 56  1  0
 13 57  1  0
 17 58  1  0
 18 59  1  0
 21 60  1  0
 21 61  1  0
 22 62  1  0
 22 63  1  0
 24 64  1  0
 24 65  1  0
 25 66  1  0
 25 67  1  0
 27 68  1  0
 27 69  1  0
 28 70  1  0
 28 71  1  0
 29 72  1  0
 30 73  1  0
 33 74  1  0
 34 75  1  0
 35 76  1  0
 36 77  1  0
 38 78  1  0
 39 79  1  0
M  END
>  <UniqueID>  (2) 
2

>  <SMILES>  (2) 
CCN(CC)CCOc1ccc(Cn2c(-c3ccc(OCCN4CCOCC4)cc3)nc3ccccc32)cc1

>  <Energy>  (2) 
136.97686981206692

>  <Genealogy>  (2) 
CCN(CC)CCOc1ccc(Cn2c(-c3ccc(OCCN4CCOCC4)cc3)nc3ccccc32)cc1 (3D coordinates assigned)
CCN(CC)CCOc1ccc(Cn2c(-c3ccc(OCCN4CCOCC4)cc3)nc3ccccc32)cc1 (nonaromatic ring conformer: 136.97686981206692 kcal/mol)

>  <smiles>  (2) 
CCN(CC)CCOc1ccc(Cn2c(-c3ccc(OCCN4CCOCC4)cc3)nc3ccccc32)cc1

>  <score_type>  (2) 
oracle

>  <origin>  (2) 
adg

>  <m_score__min__energy>  (2) 
-9.9399999999999995

>  <m_primary>  (2) 
energy

$$$$
2:0
     RDKit          3D

 62 65  0  0  0  0  0  0  0  0999 V2000
   -3.0220   21.3330  -27.6480 C   0  0  0  0  0  0  0  0  0  0  0  0
   -4.1760   22.3160  -27.8160 C   0  0  0  0  0  0  0  0  0  0  0  0
   -4.4350   22.5580  -29.2410 N   0  0  0  0  0  0  0  0  0  0  0  0
   -3.2460   23.0980  -29.9220 C   0  0  0  0  0  0  0  0  0  0  0  0
   -3.4840   24.5520  -30.3300 C   0  0  0  0  0  0  0  0  0  0  0  0
   -4.8310   24.7130  -30.8900 N   0  0  0  0  0  0  0  0  0  0  0  0
   -5.6050   25.6770  -30.0980 C   0  0  0  0  0  0  0  0  0  0  0  0
   -7.0320   25.1640  -29.8300 C   0  0  0  0  0  0  0  0  0  0  0  0
   -7.1930   23.7230  -30.0710 N   0  0  0  0  0  0  0  0  0  0  0  0
   -7.9670   23.4230  -31.2830 C   0  0  0  0  0  0  0  0  0  0  0  0
   -7.0510   22.8080  -32.3510 C   0  0  0  0  0  0  0  0  0  0  0  0
   -5.8900   22.1500  -31.7430 N   0  0  0  0  0  0  0  0  0  0  0  0
   -5.2370   20.9910  -32.3010 C   0  0  0  0  0  0  0  0  0  0  0  0
   -3.9070   21.0750  -32.6990 C   0  0  0  0  0  0  0  0  0  0  0  0
   -3.2360   19.9730  -33.2620 C   0  0  0  0  0  0  0  0  0  0  0  0
   -1.8460   20.0560  -33.5880 C   0  0  0  0  0  0  0  0  0  0  0  0
   -1.0050   21.1210  -33.1760 C   0  0  0  0  0  0  0  0  0  0  0  0
    0.3410   21.1590  -33.5510 C   0  0  0  0  0  0  0  0  0  0  0  0
    0.8840   20.1390  -34.3290 C   0  0  0  0  0  0  0  0  0  0  0  0
    2.7200   20.2070  -34.8500 Br  0  0  0  0  0  0  0  0  0  0  0  0
    0.0890   19.0630  -34.7140 C   0  0  0  0  0  0  0  0  0  0  0  0
   -1.2620   19.0090  -34.3370 C   0  0  0  0  0  0  0  0  0  0  0  0
   -2.0360   17.9230  -34.7160 C   0  0  0  0  0  0  0  0  0  0  0  0
   -3.3620   17.8400  -34.3180 C   0  0  0  0  0  0  0  0  0  0  0  0
   -3.9560   18.8180  -33.5490 N   0  0  0  0  0  0  0  0  0  0  0  0
   -5.2620   18.6780  -33.0920 C   0  0  0  0  0  0  0  0  0  0  0  0
   -5.9770   17.4470  -33.1800 C   0  0  0  0  0  0  0  0  0  0  0  0
   -7.2880   17.3320  -32.7190 C   0  0  0  0  0  0  0  0  0  0  0  0
   -7.9190   18.4160  -32.1290 C   0  0  0  0  0  0  0  0  0  0  0  0
   -7.2430   19.6230  -31.9820 C   0  0  0  0  0  0  0  0  0  0  0  0
   -5.9220   19.7760  -32.4640 C   0  0  0  0  0  0  0  0  0  0  0  0
   -2.8315   21.1708  -26.5768 H   0  0  0  0  0  0  0  0  0  0  0  0
   -3.2835   20.3759  -28.1230 H   0  0  0  0  0  0  0  0  0  0  0  0
   -2.1187   21.7434  -28.1230 H   0  0  0  0  0  0  0  0  0  0  0  0
   -5.0798   21.8981  -27.3486 H   0  0  0  0  0  0  0  0  0  0  0  0
   -3.9087   23.2679  -27.3339 H   0  0  0  0  0  0  0  0  0  0  0  0
   -5.2070   23.2630  -29.3110 H   0  0  0  0  0  0  0  0  0  0  0  0
   -2.3837   23.0486  -29.2408 H   0  0  0  0  0  0  0  0  0  0  0  0
   -3.0477   22.5007  -30.8241 H   0  0  0  0  0  0  0  0  0  0  0  0
   -3.3796   25.1981  -29.4459 H   0  0  0  0  0  0  0  0  0  0  0  0
   -2.7443   24.8336  -31.0939 H   0  0  0  0  0  0  0  0  0  0  0  0
   -5.3110   23.7870  -30.8380 H   0  0  0  0  0  0  0  0  0  0  0  0
   -5.0967   25.8407  -29.1363 H   0  0  0  0  0  0  0  0  0  0  0  0
   -5.6749   26.6162  -30.6663 H   0  0  0  0  0  0  0  0  0  0  0  0
   -7.2849   25.3716  -28.7798 H   0  0  0  0  0  0  0  0  0  0  0  0
   -7.6999   25.6855  -30.5314 H   0  0  0  0  0  0  0  0  0  0  0  0
   -6.2560   23.2560  -30.1260 H   0  0  0  0  0  0  0  0  0  0  0  0
   -8.7686   22.7112  -31.0366 H   0  0  0  0  0  0  0  0  0  0  0  0
   -8.4029   24.3545  -31.6734 H   0  0  0  0  0  0  0  0  0  0  0  0
   -7.6218   22.0658  -32.9283 H   0  0  0  0  0  0  0  0  0  0  0  0
   -6.6894   23.6154  -33.0047 H   0  0  0  0  0  0  0  0  0  0  0  0
   -5.5080   22.5780  -30.8710 H   0  0  0  0  0  0  0  0  0  0  0  0
   -3.3669   22.0247  -32.5709 H   0  0  0  0  0  0  0  0  0  0  0  0
   -1.4176   21.9281  -32.5528 H   0  0  0  0  0  0  0  0  0  0  0  0
    0.9748   21.9988  -33.2301 H   0  0  0  0  0  0  0  0  0  0  0  0
    0.5218   18.2510  -35.3167 H   0  0  0  0  0  0  0  0  0  0  0  0
   -1.5975   17.1254  -35.3337 H   0  0  0  0  0  0  0  0  0  0  0  0
   -3.9576   16.9677  -34.6251 H   0  0  0  0  0  0  0  0  0  0  0  0
   -5.4832   16.5687  -33.6214 H   0  0  0  0  0  0  0  0  0  0  0  0
   -7.8237   16.3770  -32.8240 H   0  0  0  0  0  0  0  0  0  0  0  0
   -8.9566   18.3217  -31.7762 H   0  0  0  0  0  0  0  0  0  0  0  0
   -7.7416   20.4683  -31.4851 H   0  0  0  0  0  0  0  0  0  0  0  0
  1  2  1  0
  2  3  1  0
  3  4  1  0
  4  5  1  0
  5  6  1  0
  6  7  1  0
  7  8  1  0
  8  9  1  0
  9 10  1  0
 10 11  1  0
 11 12  1  0
 12 13  1  0
 13 14  2  0
 14 15  1  0
 15 16  2  0
 16 17  1  0
 17 18  2  0
 18 19  1  0
 19 20  1  0
 19 21  2  0
 21 22  1  0
 22 23  2  0
 23 24  1  0
 24 25  2  0
 25 26  1  0
 26 27  2  0
 27 28  1  0
 28 29  2  0
 29 30  1  0
 30 31  2  0
 31 13  1  0
 25 15  1  0
 31 26  1  0
 22 16  1  0
  1 32  1  0
  1 33  1  0
  1 34  1  0
  2 35  1  0
  2 36  1  0
  3 37  1  0
  4 38  1  0
  4 39  1  0
  5 40  1  0
  5 41  1  0
  6 42  1  0
  7 43  1  0
  7 44  1  0
  8 45  1  0
  8 46  1  0
  9 47  1  0
 10 48  1  0
 10 49  1  0
 11 50  1  0
 11 51  1  0
 12 52  1  0
 14 53  1  0
 17 54  1  0
 18 55  1  0
 21 56  1  0
 23 57  1  0
 24 58  1  0
 27 59  1  0
 28 60  1  0
 29 61  1  0
 30 62  1  0
M  CHG  1  25   1
M  END
>  <UniqueID>  (3) 
3

>  <SMILES>  (3) 
CCNCCNCCNCCNc1cc2c3ccc(Br)cc3cc[n+]2c2ccccc12

>  <Energy>  (3) 
85.51157883419576

>  <Genealogy>  (3) 
CCNCCNCCNCCNc1cc2c3ccc(Br)cc3cc[n+]2c2ccccc12 (3D coordinates assigned)
CCNCCNCCNCCNc1cc2c3ccc(Br)cc3cc[n+]2c2ccccc12 (optimized conformer: 85.51157883419576 kcal/mol)

>  <smiles>  (3) 
CCNCCNCCNCCNc1cc2c3ccc(Br)cc3cc[n+]2c2ccccc12

>  <score_type>  (3) 
oracle

>  <origin>  (3) 
adg

>  <m_score__min__energy>  (3) 
-9.7100000000000009

>  <m_primary>  (3) 
energy

$$$$
3:0
     RDKit          3D

 57 60  0  0  0  0  0  0  0  0999 V2000
   -3.3500   13.0180  -31.2060 C   0  0  0  0  0  0  0  0  0  0  0  0
   -4.6460   12.6490  -31.9220 C   0  0  0  0  0  0  0  0  0  0  0  0
   -5.1860   13.7970  -32.6650 N   0  0  0  0  0  0  0  0  0  0  0  0
   -4.3000   14.2410  -33.7570 C   0  0  0  0  0  0  0  0  0  0  0  0
   -4.8730   15.5110  -34.4080 C   0  0  2  0  0  0  0  0  0  0  0  0
   -4.1640   16.7930  -33.9300 C   0  0  0  0  0  0  0  0  0  0  0  0
   -5.1890   17.6200  -33.2930 N   0  0  0  0  0  0  0  0  0  0  0  0
   -4.9380   18.9450  -32.7950 C   0  0  0  0  0  0  0  0  0  0  0  0
   -5.9860   19.6990  -32.2470 C   0  0  0  0  0  0  0  0  0  0  0  0
   -5.7680   21.0000  -31.7390 C   0  0  0  0  0  0  0  0  0  0  0  0
   -4.4670   21.5560  -31.8370 C   0  0  0  0  0  0  0  0  0  0  0  0
   -3.4190   20.7880  -32.3800 C   0  0  0  0  0  0  0  0  0  0  0  0
   -3.6510   19.4950  -32.8490 C   0  0  0  0  0  0  0  0  0  0  0  0
   -2.6070   18.7730  -33.3260 F   0  0  0  0  0  0  0  0  0  0  0  0
   -4.2430   22.8720  -31.3980 C   0  0  0  0  0  0  0  0  0  0  0  0
   -3.0850   23.3710  -31.4690 O   0  0  0  0  0  0  0  0  0  0  0  0
   -5.3120   23.6360  -30.8940 C   0  0  0  0  0  0  0  0  0  0  0  0
   -5.1410   25.0470  -30.4510 C   0  0  0  0  0  0  0  0  0  0  0  0
   -6.1190   25.7200  -30.0320 O   0  0  0  0  0  0  0  0  0  0  0  0
   -3.8880   25.6480  -30.4910 O   0  0  0  0  0  0  0  0  0  0  0  0
   -6.5790   23.0400  -30.8110 C   0  0  0  0  0  0  0  0  0  0  0  0
   -6.7870   21.7370  -31.1710 N   0  0  0  0  0  0  0  0  0  0  0  0
   -8.1490   21.1910  -31.0250 C   0  0  0  0  0  0  0  0  0  0  0  0
   -8.8480   20.8220  -32.3350 C   0  0  0  0  0  0  0  0  0  0  0  0
   -9.2440   22.0860  -31.5990 C   0  0  0  0  0  0  0  0  0  0  0  0
   -6.5130   17.0200  -33.3220 C   0  0  0  0  0  0  0  0  0  0  0  0
   -6.2940   15.7260  -34.0090 C   0  0  0  0  0  0  0  0  0  0  0  0
   -7.2410   14.8870  -34.2910 N   0  0  0  0  0  0  0  0  0  0  0  0
   -6.9790   13.7090  -34.9540 O   0  0  0  0  0  0  0  0  0  0  0  0
   -8.0410   12.8550  -35.3460 C   0  0  0  0  0  0  0  0  0  0  0  0
   -8.4460   11.9700  -34.1780 C   0  0  0  0  0  0  0  0  0  0  0  0
   -3.5066   12.9734  -30.1181 H   0  0  0  0  0  0  0  0  0  0  0  0
   -2.5586   12.3095  -31.4919 H   0  0  0  0  0  0  0  0  0  0  0  0
   -3.0505   14.0371  -31.4919 H   0  0  0  0  0  0  0  0  0  0  0  0
   -4.4462   11.8275  -32.6257 H   0  0  0  0  0  0  0  0  0  0  0  0
   -5.3859   12.3414  -31.1684 H   0  0  0  0  0  0  0  0  0  0  0  0
   -6.0980   13.4990  -33.0830 H   0  0  0  0  0  0  0  0  0  0  0  0
   -3.3006   14.4574  -33.3515 H   0  0  0  0  0  0  0  0  0  0  0  0
   -4.2284   13.4454  -34.5133 H   0  0  0  0  0  0  0  0  0  0  0  0
   -4.7435   15.3489  -35.4882 H   0  0  0  0  0  0  0  0  0  0  0  0
   -3.3734   16.5433  -33.2071 H   0  0  0  0  0  0  0  0  0  0  0  0
   -3.6898   17.3226  -34.7694 H   0  0  0  0  0  0  0  0  0  0  0  0
   -6.9980   19.2693  -32.2118 H   0  0  0  0  0  0  0  0  0  0  0  0
   -2.4058   21.2126  -32.4349 H   0  0  0  0  0  0  0  0  0  0  0  0
   -7.4282   23.6366  -30.4466 H   0  0  0  0  0  0  0  0  0  0  0  0
   -7.9690   20.6773  -30.0691 H   0  0  0  0  0  0  0  0  0  0  0  0
   -8.3015   20.8889  -33.2873 H   0  0  0  0  0  0  0  0  0  0  0  0
   -9.3869   19.9376  -32.7057 H   0  0  0  0  0  0  0  0  0  0  0  0
   -8.9854   23.0694  -32.0186 H   0  0  0  0  0  0  0  0  0  0  0  0
  -10.1901   22.4964  -31.2163 H   0  0  0  0  0  0  0  0  0  0  0  0
   -6.8958   16.8637  -32.3027 H   0  0  0  0  0  0  0  0  0  0  0  0
   -7.2577   17.6520  -33.8280 H   0  0  0  0  0  0  0  0  0  0  0  0
   -8.9023   13.4632  -35.6596 H   0  0  0  0  0  0  0  0  0  0  0  0
   -7.7098   12.2233  -36.1834 H   0  0  0  0  0  0  0  0  0  0  0  0
   -8.2121   12.4810  -33.2324 H   0  0  0  0  0  0  0  0  0  0  0  0
   -9.5261   11.7681  -34.2283 H   0  0  0  0  0  0  0  0  0  0  0  0
   -7.8928   11.0206  -34.2283 H   0  0  0  0  0  0  0  0  0  0  0  0
  1  2  1  0
  2  3  1  0
  3  4  1  0
  4  5  1  0
  5  6  1  0
  6  7  1  0
  7  8  1  0
  8  9  2  0
  9 10  1  0
 10 11  2  0
 11 12  1  0
 12 13  2  0
 13 14  1  0
 11 15  1  0
 15 16  2  0
 15 17  1  0
 17 18  1  0
 18 19  2  0
 18 20  1  0
 17 21  2  0
 21 22  1  0
 22 23  1  0
 23 24  1  0
 24 25  1  0
  7 26  1  0
 26 27  1  0
 27 28  2  3
 28 29  1  0
 29 30  1  0
 30 31  1  0
 27  5  1  0
 13  8  1  0
 25 23  1  0
 22 10  1  0
  1 32  1  0
  1 33  1  0
  1 34  1  0
  2 35  1  0
  2 36  1  0
  3 37  1  0
  4 38  1  0
  4 39  1  0
  5 40  1  6
  6 41  1  0
  6 42  1  0
  9 43  1  0
 12 44  1  0
 21 45  1  0
 23 46  1  0
 24 47  1  0
 24 48  1  0
 25 49  1  0
 25 50  1  0
 26 51  1  0
 26 52  1  0
 30 53  1  0
 30 54  1  0
 31 55  1  0
 31 56  1  0
 31 57  1  0
M  CHG  1  20  -1
M  END
>  <UniqueID>  (4) 
4

>  <SMILES>  (4) 
CCNC[C@@H]1CN(c2cc3c(cc2F)c(=O)c(C(=O)[O-])cn3C2CC2)CC1=NOCC

>  <Energy>  (4) 
332.43408375752114

>  <Genealogy>  (4) 
CCNCC1CN(c2cc3c(cc2F)c(=O)c(C(=O)[O-])cn3C2CC2)CC1=NOCC (protonated)
CCNC[C@@H]1CN(c2cc3c(cc2F)c(=O)c(C(=O)[O-])cn3C2CC2)CC1=NOCC (chirality)
CCNC[C@@H]1CN(c2cc3c(cc2F)c(=O)c(C(=O)[O-])cn3C2CC2)CC1=NOCC (3D coordinates assigned)
CCNC[C@@H]1CN(c2cc3c(cc2F)c(=O)c(C(=O)[O-])cn3C2CC2)CC1=NOCC (nonaromatic ring conformer: 332.43408375752114 kcal/mol)

>  <smiles>  (4) 
CCNCC1CN(c2cc3c(cc2F)c(=O)c(C(=O)O)cn3C2CC2)CC1=NOCC

>  <score_type>  (4) 
oracle

>  <origin>  (4) 
adg

>  <m_score__min__energy>  (4) 
-10.199999999999999

>  <m_primary>  (4) 
energy

$$$$
4:0
     RDKit          3D

 78 79  0  0  0  0  0  0  0  0999 V2000
   -2.5360   19.2720  -26.3540 C   0  0  0  0  0  0  0  0  0  0  0  0
   -1.7980   19.3150  -27.4650 C   0  0  0  0  0  0  0  0  0  0  0  0
   -0.7520   20.3850  -27.6590 C   0  0  0  0  0  0  0  0  0  0  0  0
   -1.0590   21.3770  -28.8270 C   0  0  2  0  0  0  0  0  0  0  0  0
   -0.8340   20.7290  -30.2520 C   0  0  0  0  0  0  0  0  0  0  0  0
   -1.0900   21.5750  -31.5290 C   0  0  0  0  0  0  0  0  0  0  0  0
   -2.2310   21.1090  -32.4490 C   0  0  0  0  0  0  0  0  0  0  0  0
   -3.4980   21.9690  -32.3090 C   0  0  0  0  0  0  0  0  0  0  0  0
   -4.7420   21.1820  -32.7100 C   0  0  0  0  0  0  0  0  0  0  0  0
   -0.1580   22.6430  -28.7560 C   0  0  0  0  0  0  0  0  0  0  0  0
   -0.3130   23.4330  -27.4470 C   0  0  1  0  0  0  0  0  0  0  0  0
    0.6030   24.6460  -27.4520 C   0  0  0  0  0  0  0  0  0  0  0  0
    1.7570   24.5400  -27.8410 O   0  0  0  0  0  0  0  0  0  0  0  0
    0.1320   25.9710  -26.9210 C   0  0  0  0  0  0  0  0  0  0  0  0
   -0.9940   25.7930  -25.8770 C   0  0  0  0  0  0  0  0  0  0  0  0
   -0.4380   25.2060  -24.5610 C   0  0  0  0  0  0  0  0  0  0  0  0
   -1.6130   27.1740  -25.5750 C   0  0  0  0  0  0  0  0  0  0  0  0
   -2.0610   24.8730  -26.4350 C   0  0  0  0  0  0  0  0  0  0  0  0
   -1.7730   23.8040  -27.2170 C   0  0  0  0  0  0  0  0  0  0  0  0
   -2.8280   22.9810  -27.8020 N   0  0  0  0  0  0  0  0  0  0  0  0
   -4.2600   23.3250  -27.6460 C   0  0  0  0  0  0  0  0  0  0  0  0
   -4.7310   24.3160  -28.7260 C   0  0  0  0  0  0  0  0  0  0  0  0
   -3.7210   24.4740  -29.8630 C   0  0  0  0  0  0  0  0  0  0  0  0
   -4.2330   25.3890  -30.8070 O   0  0  0  0  0  0  0  0  0  0  0  0
   -5.6430   25.3420  -30.8010 C   0  0  0  0  0  0  0  0  0  0  0  0
   -6.1300   24.1290  -31.5970 C   0  0  0  0  0  0  0  0  0  0  0  0
   -7.3700   23.5760  -31.0000 N   0  0  0  0  0  0  0  0  0  0  0  0
   -7.0480   22.4370  -30.1210 C   0  0  0  0  0  0  0  0  0  0  0  0
   -8.3380   23.1680  -32.0460 C   0  0  0  0  0  0  0  0  0  0  0  0
   -9.0470   21.8730  -31.6540 C   0  0  0  0  0  0  0  0  0  0  0  0
   -2.4920   21.8610  -28.6650 C   0  0  0  0  0  0  0  0  0  0  0  0
   -3.4160   21.2590  -29.2750 O   0  0  0  0  0  0  0  0  0  0  0  0
   -3.2946   18.4855  -26.2277 H   0  0  0  0  0  0  0  0  0  0  0  0
   -2.3857   20.0231  -25.5645 H   0  0  0  0  0  0  0  0  0  0  0  0
   -1.9543   18.5603  -28.2499 H   0  0  0  0  0  0  0  0  0  0  0  0
   -0.6734   20.9636  -26.7268 H   0  0  0  0  0  0  0  0  0  0  0  0
    0.1835   19.8687  -27.9205 H   0  0  0  0  0  0  0  0  0  0  0  0
    0.2151   20.4006  -30.2915 H   0  0  0  0  0  0  0  0  0  0  0  0
   -1.6054   19.9465  -30.3032 H   0  0  0  0  0  0  0  0  0  0  0  0
   -1.3189   22.6020  -31.2081 H   0  0  0  0  0  0  0  0  0  0  0  0
   -0.1745   21.4748  -32.1305 H   0  0  0  0  0  0  0  0  0  0  0  0
   -1.8849   21.1602  -33.4919 H   0  0  0  0  0  0  0  0  0  0  0  0
   -2.4939   20.0817  -32.1565 H   0  0  0  0  0  0  0  0  0  0  0  0
   -3.5991   22.2923  -31.2625 H   0  0  0  0  0  0  0  0  0  0  0  0
   -3.4051   22.8396  -32.9749 H   0  0  0  0  0  0  0  0  0  0  0  0
   -5.2713   20.8471  -31.8057 H   0  0  0  0  0  0  0  0  0  0  0  0
   -5.4060   21.8247  -33.3067 H   0  0  0  0  0  0  0  0  0  0  0  0
   -4.4456   20.3067  -33.3067 H   0  0  0  0  0  0  0  0  0  0  0  0
    0.8919   22.3289  -28.8509 H   0  0  0  0  0  0  0  0  0  0  0  0
   -0.4699   23.3085  -29.5744 H   0  0  0  0  0  0  0  0  0  0  0  0
   -0.0072   22.7996  -26.6013 H   0  0  0  0  0  0  0  0  0  0  0  0
    0.9796   26.4887  -26.4482 H   0  0  0  0  0  0  0  0  0  0  0  0
   -0.2654   26.5590  -27.7615 H   0  0  0  0  0  0  0  0  0  0  0  0
   -0.9137   25.7082  -23.7057 H   0  0  0  0  0  0  0  0  0  0  0  0
   -0.6542   24.1282  -24.5200 H   0  0  0  0  0  0  0  0  0  0  0  0
    0.6499   25.3635  -24.5200 H   0  0  0  0  0  0  0  0  0  0  0  0
   -1.6771   27.3169  -24.4862 H   0  0  0  0  0  0  0  0  0  0  0  0
   -0.9820   27.9621  -26.0118 H   0  0  0  0  0  0  0  0  0  0  0  0
   -2.6212   27.2274  -26.0118 H   0  0  0  0  0  0  0  0  0  0  0  0
   -3.1141   25.0816  -26.1952 H   0  0  0  0  0  0  0  0  0  0  0  0
   -4.8576   22.4047  -27.7223 H   0  0  0  0  0  0  0  0  0  0  0  0
   -4.3920   23.8018  -26.6636 H   0  0  0  0  0  0  0  0  0  0  0  0
   -5.6804   23.9530  -29.1466 H   0  0  0  0  0  0  0  0  0  0  0  0
   -4.8478   25.2991  -28.2465 H   0  0  0  0  0  0  0  0  0  0  0  0
   -2.7693   24.8520  -29.4613 H   0  0  0  0  0  0  0  0  0  0  0  0
   -3.5476   23.5004  -30.3447 H   0  0  0  0  0  0  0  0  0  0  0  0
   -6.0004   25.2642  -29.7636 H   0  0  0  0  0  0  0  0  0  0  0  0
   -6.0367   26.2590  -31.2637 H   0  0  0  0  0  0  0  0  0  0  0  0
   -6.3333   24.4350  -32.6338 H   0  0  0  0  0  0  0  0  0  0  0  0
   -5.3497   23.3540  -31.5749 H   0  0  0  0  0  0  0  0  0  0  0  0
   -7.1361   22.7487  -29.0698 H   0  0  0  0  0  0  0  0  0  0  0  0
   -7.7481   21.6119  -30.3187 H   0  0  0  0  0  0  0  0  0  0  0  0
   -6.0195   22.1006  -30.3187 H   0  0  0  0  0  0  0  0  0  0  0  0
   -9.0862   23.9639  -32.1750 H   0  0  0  0  0  0  0  0  0  0  0  0
   -7.7915   23.0000  -32.9857 H   0  0  0  0  0  0  0  0  0  0  0  0
   -9.0894   21.7956  -30.5575 H   0  0  0  0  0  0  0  0  0  0  0  0
  -10.0689   21.8767  -32.0611 H   0  0  0  0  0  0  0  0  0  0  0  0
   -8.4933   21.0141  -32.0611 H   0  0  0  0  0  0  0  0  0  0  0  0
  1  2  2  0
  2  3  1  0
  4  3  1  1
  4  5  1  0
  5  6  1  0
  6  7  1  0
  7  8  1  0
  8  9  1  0
  4 10  1  0
 10 11  1  0
 11 12  1  0
 12 13  2  0
 12 14  1  0
 14 15  1  0
 15 16  1  0
 15 17  1  0
 15 18  1  0
 18 19  2  0
 19 20  1  0
 20 21  1  0
 21 22  1  0
 22 23  1  0
 23 24  1  0
 24 25  1  0
 25 26  1  0
 26 27  1  0
 27 28  1  0
 27 29  1  0
 29 30  1  0
 20 31  1  0
 31 32  2  0
 31  4  1  0
 19 11  1  0
  1 33  1  0
  1 34  1  0
  2 35  1  0
  3 36  1  0
  3 37  1  0
  5 38  1  0
  5 39  1  0
  6 40  1  0
  6 41  1  0
  7 42  1  0
  7 43  1  0
  8 44  1  0
  8 45  1  0
  9 46  1  0
  9 47  1  0
  9 48  1  0
 10 49  1  0
 10 50  1  0
 11 51  1  1
 14 52  1  0
 14 53  1  0
 16 54  1  0
 16 55  1  0
 16 56  1  0
 17 57  1  0
 17 58  1  0
 17 59  1  0
 18 60  1  0
 21 61  1  0
 21 62  1  0
 22 63  1  0
 22 64  1  0
 23 65  1  0
 23 66  1  0
 25 67  1  0
 25 68  1  0
 26 69  1  0
 26 70  1  0
 28 71  1  0
 28 72  1  0
 28 73  1  0
 29 74  1  0
 29 75  1  0
 30 76  1  0
 30 77  1  0
 30 78  1  0
M  END
>  <UniqueID>  (5) 
5

>  <SMILES>  (5) 
C=CC[C@]1(CCCCC)C[C@H]2C(=O)CC(C)(C)C=C2N(CCCOCCN(C)CC)C1=O

>  <Energy>  (5) 
75.29860233851926

>  <Genealogy>  (5) 
C=CC[C@]1(CCCCC)C[C@H]2C(=O)CC(C)(C)C=C2N(CCCOCCN(C)CC)C1=O (chirality)
C=CC[C@]1(CCCCC)C[C@H]2C(=O)CC(C)(C)C=C2N(CCCOCCN(C)CC)C1=O (3D coordinates assigned)
C=CC[C@]1(CCCCC)C[C@H]2C(=O)CC(C)(C)C=C2N(CCCOCCN(C)CC)C1=O (nonaromatic ring conformer: 75.29860233851926 kcal/mol)

>  <smiles>  (5) 
C=CCC1(CCCCC)CC2C(=O)CC(C)(C)C=C2N(CCCOCCN(C)CC)C1=O

>  <score_type>  (5) 
oracle

>  <origin>  (5) 
adg

>  <m_score__min__energy>  (5) 
-8.75

>  <m_primary>  (5) 
energy

$$$$
5:0
     RDKit          3D

 51 53  0  0  0  0  0  0  0  0999 V2000
   -7.8300   19.0100  -32.6810 C   0  0  0  0  0  0  0  0  0  0  0  0
   -6.5150   19.1020  -33.4520 C   0  0  0  0  0  0  0  0  0  0  0  0
   -5.3830   18.6790  -32.5970 N   0  0  0  0  0  0  0  0  0  0  0  0
   -5.5660   17.2960  -32.1020 C   0  0  0  0  0  0  0  0  0  0  0  0
   -5.7370   16.3280  -33.2720 C   0  0  0  0  0  0  0  0  0  0  0  0
   -4.0750   18.8550  -33.2810 C   0  0  0  0  0  0  0  0  0  0  0  0
   -3.2760   19.9740  -32.6030 C   0  0  0  0  0  0  0  0  0  0  0  0
   -3.6460   20.1280  -31.1870 N   0  0  0  0  0  0  0  0  0  0  0  0
   -3.7420   21.5360  -30.8370 C   0  0  0  0  0  0  0  0  0  0  0  0
   -4.9130   22.2840  -31.1420 C   0  0  0  0  0  0  0  0  0  0  0  0
   -6.0830   21.6800  -31.6630 C   0  0  0  0  0  0  0  0  0  0  0  0
   -7.2050   22.4440  -31.9790 C   0  0  0  0  0  0  0  0  0  0  0  0
   -7.1950   23.8200  -31.7780 C   0  0  0  0  0  0  0  0  0  0  0  0
   -6.0660   24.4380  -31.2440 C   0  0  0  0  0  0  0  0  0  0  0  0
   -4.9200   23.6860  -30.9100 C   0  0  0  0  0  0  0  0  0  0  0  0
   -3.8300   24.3040  -30.3610 N   0  0  0  0  0  0  0  0  0  0  0  0
   -3.8610   25.6690  -30.1630 O   0  0  0  0  0  0  0  0  0  0  0  0
   -2.7250   23.5960  -29.9760 C   0  0  0  0  0  0  0  0  0  0  0  0
   -1.6390   24.2580  -29.3630 C   0  0  0  0  0  0  0  0  0  0  0  0
   -0.5060   23.5470  -28.9340 C   0  0  0  0  0  0  0  0  0  0  0  0
    0.5910   24.1720  -28.3210 O   0  0  0  0  0  0  0  0  0  0  0  0
    0.7580   24.3080  -26.9140 C   0  0  0  0  0  0  0  0  0  0  0  0
   -0.4630   22.1670  -29.1150 C   0  0  0  0  0  0  0  0  0  0  0  0
   -1.5200   21.4950  -29.7250 C   0  0  0  0  0  0  0  0  0  0  0  0
   -2.6610   22.1940  -30.1850 C   0  0  0  0  0  0  0  0  0  0  0  0
   -7.6234   19.0245  -31.6007 H   0  0  0  0  0  0  0  0  0  0  0  0
   -8.4696   19.8656  -32.9435 H   0  0  0  0  0  0  0  0  0  0  0  0
   -8.3442   18.0737  -32.9435 H   0  0  0  0  0  0  0  0  0  0  0  0
   -6.5663   18.4478  -34.3348 H   0  0  0  0  0  0  0  0  0  0  0  0
   -6.3564   20.1453  -33.7624 H   0  0  0  0  0  0  0  0  0  0  0  0
   -4.6837   17.0019  -31.5146 H   0  0  0  0  0  0  0  0  0  0  0  0
   -6.4685   17.2589  -31.4743 H   0  0  0  0  0  0  0  0  0  0  0  0
   -5.9162   15.3138  -32.8856 H   0  0  0  0  0  0  0  0  0  0  0  0
   -6.5934   16.6429  -33.8863 H   0  0  0  0  0  0  0  0  0  0  0  0
   -4.8245   16.3305  -33.8863 H   0  0  0  0  0  0  0  0  0  0  0  0
   -3.5055   17.9155  -33.2256 H   0  0  0  0  0  0  0  0  0  0  0  0
   -4.2506   19.1229  -34.3333 H   0  0  0  0  0  0  0  0  0  0  0  0
   -2.2041   19.7355  -32.6672 H   0  0  0  0  0  0  0  0  0  0  0  0
   -3.5023   20.9179  -33.1205 H   0  0  0  0  0  0  0  0  0  0  0  0
   -4.5470   19.6440  -30.9820 H   0  0  0  0  0  0  0  0  0  0  0  0
   -2.9600   19.6330  -30.5770 H   0  0  0  0  0  0  0  0  0  0  0  0
   -6.1067   20.5916  -31.8207 H   0  0  0  0  0  0  0  0  0  0  0  0
   -8.1019   21.9567  -32.3890 H   0  0  0  0  0  0  0  0  0  0  0  0
   -8.0784   24.4206  -32.0406 H   0  0  0  0  0  0  0  0  0  0  0  0
   -6.0683   25.5258  -31.0808 H   0  0  0  0  0  0  0  0  0  0  0  0
   -1.6808   25.3477  -29.2191 H   0  0  0  0  0  0  0  0  0  0  0  0
    0.0061   23.6957  -26.3946 H   0  0  0  0  0  0  0  0  0  0  0  0
    1.7656   23.9703  -26.6300 H   0  0  0  0  0  0  0  0  0  0  0  0
    0.6313   25.3631  -26.6300 H   0  0  0  0  0  0  0  0  0  0  0  0
    0.4157   21.6009  -28.7724 H   0  0  0  0  0  0  0  0  0  0  0  0
   -1.4667   20.4035  -29.8510 H   0  0  0  0  0  0  0  0  0  0  0  0
  1  2  1  0
  2  3  1  0
  3  4  1  0
  4  5  1  0
  3  6  1  0
  6  7  1  0
  7  8  1  0
  8  9  1  0
  9 10  2  0
 10 11  1  0
 11 12  2  0
 12 13  1  0
 13 14  2  0
 14 15  1  0
 15 16  2  0
 16 17  1  0
 16 18  1  0
 18 19  2  0
 19 20  1  0
 20 21  1  0
 21 22  1  0
 20 23  2  0
 23 24  1  0
 24 25  2  0
 25  9  1  0
 15 10  1  0
 25 18  1  0
  1 26  1  0
  1 27  1  0
  1 28  1  0
  2 29  1  0
  2 30  1  0
  4 31  1  0
  4 32  1  0
  5 33  1  0
  5 34  1  0
  5 35  1  0
  6 36  1  0
  6 37  1  0
  7 38  1  0
  7 39  1  0
  8 40  1  0
  8 41  1  0
 11 42  1  0
 12 43  1  0
 13 44  1  0
 14 45  1  0
 19 46  1  0
 22 47  1  0
 22 48  1  0
 22 49  1  0
 23 50  1  0
 24 51  1  0
M  CHG  3   8   1  16   1  17  -1
M  END
>  <UniqueID>  (6) 
6

>  <SMILES>  (6) 
CCN(CC)CC[NH2+]c1c2ccccc2[n+]([O-])c2cc(OC)ccc12

>  <Energy>  (6) 
67.47351830885727

>  <Genealogy>  (6) 
CCN(CC)CC[NH2+]c1c2ccccc2[n+]([O-])c2cc(OC)ccc12 (protonated)
CCN(CC)CC[NH2+]c1c2ccccc2[n+]([O-])c2cc(OC)ccc12 (3D coordinates assigned)
CCN(CC)CC[NH2+]c1c2ccccc2[n+]([O-])c2cc(OC)ccc12 (optimized conformer: 67.47351830885727 kcal/mol)

>  <smiles>  (6) 
CCN(CC)CCNc1c2ccccc2[n+]([O-])c2cc(OC)ccc12

>  <score_type>  (6) 
oracle

>  <origin>  (6) 
adg

>  <m_score__min__energy>  (6) 
-7.5899999999999999

>  <m_primary>  (6) 
energy

$$$$
6:0
     RDKit          3D

 47 50  0  0  0  0  0  0  0  0999 V2000
   -6.6130   24.6520  -29.7560 C   0  0  0  0  0  0  0  0  0  0  0  0
   -5.6330   25.6620  -30.3410 C   0  0  0  0  0  0  0  0  0  0  0  0
   -4.6050   24.9730  -31.1380 N   0  0  0  0  0  0  0  0  0  0  0  0
   -3.7970   24.0390  -30.3340 C   0  0  0  0  0  0  0  0  0  0  0  0
   -4.0350   22.5750  -30.7350 C   0  0  0  0  0  0  0  0  0  0  0  0
   -4.5090   22.4870  -32.1140 N   0  0  0  0  0  0  0  0  0  0  0  0
   -4.6240   21.2150  -32.7580 C   0  0  0  0  0  0  0  0  0  0  0  0
   -3.4850   20.5360  -33.2280 C   0  0  0  0  0  0  0  0  0  0  0  0
   -2.2030   21.1100  -33.1220 C   0  0  0  0  0  0  0  0  0  0  0  0
   -1.0780   20.4090  -33.5510 C   0  0  0  0  0  0  0  0  0  0  0  0
   -1.2100   19.1300  -34.0820 C   0  0  0  0  0  0  0  0  0  0  0  0
   -2.4720   18.5450  -34.2080 C   0  0  0  0  0  0  0  0  0  0  0  0
   -3.6410   19.2400  -33.8090 C   0  0  0  0  0  0  0  0  0  0  0  0
   -4.9030   18.6890  -33.9540 N   0  0  0  0  0  0  0  0  0  0  0  0
   -5.1010   17.3970  -34.6400 C   0  0  0  0  0  0  0  0  0  0  0  0
   -5.9730   19.3720  -33.4350 C   0  0  0  0  0  0  0  0  0  0  0  0
   -7.2570   18.9250  -33.3970 N   0  0  0  0  0  0  0  0  0  0  0  0
   -7.9320   19.9300  -32.8100 C   0  0  0  0  0  0  0  0  0  0  0  0
   -9.2940   19.9870  -32.5250 C   0  0  0  0  0  0  0  0  0  0  0  0
   -9.7860   21.1480  -31.9040 C   0  0  0  0  0  0  0  0  0  0  0  0
   -8.9140   22.2130  -31.5890 C   0  0  0  0  0  0  0  0  0  0  0  0
   -7.5420   22.1270  -31.8860 C   0  0  0  0  0  0  0  0  0  0  0  0
   -7.0760   20.9560  -32.4960 C   0  0  0  0  0  0  0  0  0  0  0  0
   -5.8300   20.5990  -32.8790 N   0  0  0  0  0  0  0  0  0  0  0  0
   -6.5716   24.6947  -28.6576 H   0  0  0  0  0  0  0  0  0  0  0  0
   -7.6320   24.8916  -30.0941 H   0  0  0  0  0  0  0  0  0  0  0  0
   -6.3428   23.6407  -30.0941 H   0  0  0  0  0  0  0  0  0  0  0  0
   -6.1794   26.3670  -30.9848 H   0  0  0  0  0  0  0  0  0  0  0  0
   -5.1442   26.2045  -29.5183 H   0  0  0  0  0  0  0  0  0  0  0  0
   -3.9800   25.6860  -31.5830 H   0  0  0  0  0  0  0  0  0  0  0  0
   -2.7327   24.2773  -30.4769 H   0  0  0  0  0  0  0  0  0  0  0  0
   -4.0942   24.1542  -29.2812 H   0  0  0  0  0  0  0  0  0  0  0  0
   -3.0916   22.0172  -30.6413 H   0  0  0  0  0  0  0  0  0  0  0  0
   -4.7998   22.1466  -30.0705 H   0  0  0  0  0  0  0  0  0  0  0  0
   -4.8020   23.3410  -32.6410 H   0  0  0  0  0  0  0  0  0  0  0  0
   -2.0894   22.1185  -32.6977 H   0  0  0  0  0  0  0  0  0  0  0  0
   -0.0819   20.8685  -33.4695 H   0  0  0  0  0  0  0  0  0  0  0  0
   -0.3157   18.5765  -34.4043 H   0  0  0  0  0  0  0  0  0  0  0  0
   -2.5599   17.5301  -34.6230 H   0  0  0  0  0  0  0  0  0  0  0  0
   -5.2232   16.5997  -33.8921 H   0  0  0  0  0  0  0  0  0  0  0  0
   -6.0015   17.4503  -35.2695 H   0  0  0  0  0  0  0  0  0  0  0  0
   -4.2259   17.1782  -35.2695 H   0  0  0  0  0  0  0  0  0  0  0  0
   -7.6600   18.0130  -33.7040 H   0  0  0  0  0  0  0  0  0  0  0  0
   -9.9627   19.1509  -32.7776 H   0  0  0  0  0  0  0  0  0  0  0  0
  -10.8561   21.2274  -31.6621 H   0  0  0  0  0  0  0  0  0  0  0  0
   -9.3115   23.1183  -31.1069 H   0  0  0  0  0  0  0  0  0  0  0  0
   -6.8567   22.9535  -31.6467 H   0  0  0  0  0  0  0  0  0  0  0  0
  1  2  1  0
  2  3  1  0
  3  4  1  0
  4  5  1  0
  5  6  1  0
  6  7  1  0
  7  8  2  0
  8  9  1  0
  9 10  2  0
 10 11  1  0
 11 12  2  0
 12 13  1  0
 13 14  2  0
 14 15  1  0
 14 16  1  0
 16 17  2  0
 17 18  1  0
 18 19  2  0
 19 20  1  0
 20 21  2  0
 21 22  1  0
 22 23  2  0
 23 24  1  0
 24  7  1  0
 13  8  1  0
 24 16  1  0
 23 18  1  0
  1 25  1  0
  1 26  1  0
  1 27  1  0
  2 28  1  0
  2 29  1  0
  3 30  1  0
  4 31  1  0
  4 32  1  0
  5 33  1  0
  5 34  1  0
  6 35  1  0
  9 36  1  0
 10 37  1  0
 11 38  1  0
 12 39  1  0
 15 40  1  0
 15 41  1  0
 15 42  1  0
 17 43  1  0
 19 44  1  0
 20 45  1  0
 21 46  1  0
 22 47  1  0
M  CHG  2  14   1  17   1
M  END
>  <UniqueID>  (7) 
7

>  <SMILES>  (7) 
CCNCCNc1c2ccccc2[n+](C)c2[nH+]c3ccccc3n12

>  <Energy>  (7) 
109.70809162084943

>  <Genealogy>  (7) 
CCNCCNc1c2ccccc2[n+](C)c2[nH+]c3ccccc3n12 (protonated)
CCNCCNc1c2ccccc2[n+](C)c2[nH+]c3ccccc3n12 (3D coordinates assigned)
CCNCCNc1c2ccccc2[n+](C)c2[nH+]c3ccccc3n12 (optimized conformer: 109.70809162084943 kcal/mol)

>  <smiles>  (7) 
CCNCCNc1c2ccccc2[n+](C)c2nc3ccccc3n12

>  <score_type>  (7) 
oracle

>  <origin>  (7) 
adg

>  <m_score__min__energy>  (7) 
-8.3300000000000001

>  <m_primary>  (7) 
energy

$$$$
7:0
     RDKit          3D

 46 49  0  0  0  0  0  0  0  0999 V2000
   -9.0060   18.5800  -31.8980 C   0  0  0  0  0  0  0  0  0  0  0  0
   -8.9270   19.9540  -33.0880 S   0  0  0  0  0  0  0  0  0  0  0  0
   -7.3520   20.5630  -32.4600 C   0  0  0  0  0  0  0  0  0  0  0  0
   -7.3860   21.4630  -31.4390 N   0  0  0  0  0  0  0  0  0  0  0  0
   -6.2300   21.9620  -30.9550 C   0  0  0  0  0  0  0  0  0  0  0  0
   -6.0710   23.0650  -29.7080 S   0  0  0  0  0  0  0  0  0  0  0  0
   -4.3800   23.1110  -29.7770 C   0  0  0  0  0  0  0  0  0  0  0  0
   -3.5540   23.9050  -28.8450 C   0  0  0  0  0  0  0  0  0  0  0  0
   -3.9480   24.0950  -27.5120 C   0  0  0  0  0  0  0  0  0  0  0  0
   -3.1690   24.8740  -26.6550 C   0  0  0  0  0  0  0  0  0  0  0  0
   -1.9920   25.4670  -27.1360 C   0  0  0  0  0  0  0  0  0  0  0  0
   -1.1720   26.2860  -26.2810 N   0  0  0  0  0  0  0  0  0  0  0  0
   -0.8260   25.8290  -24.9290 C   0  0  0  0  0  0  0  0  0  0  0  0
   -0.4850   27.0330  -24.0470 C   0  0  0  0  0  0  0  0  0  0  0  0
    0.5020   27.8410  -24.6590 O   0  0  0  0  0  0  0  0  0  0  0  0
   -0.0140   28.4060  -25.8490 C   0  0  0  0  0  0  0  0  0  0  0  0
   -0.3190   27.3160  -26.8820 C   0  0  0  0  0  0  0  0  0  0  0  0
   -1.6480   25.2960  -28.4430 N   0  0  0  0  0  0  0  0  0  0  0  0
   -2.3910   24.5430  -29.2960 C   0  0  0  0  0  0  0  0  0  0  0  0
   -3.9300   22.2700  -30.8150 C   0  0  0  0  0  0  0  0  0  0  0  0
   -2.4880   22.1330  -31.2230 C   0  0  0  0  0  0  0  0  0  0  0  0
   -5.0010   21.6040  -31.4590 C   0  0  0  0  0  0  0  0  0  0  0  0
   -4.9630   20.6640  -32.4990 C   0  0  0  0  0  0  0  0  0  0  0  0
   -3.8550   20.2950  -32.9780 O   0  0  0  0  0  0  0  0  0  0  0  0
   -6.1450   20.1400  -32.9830 N   0  0  0  0  0  0  0  0  0  0  0  0
   -6.1320   19.1500  -34.0720 C   0  0  0  0  0  0  0  0  0  0  0  0
   -8.9830   18.9803  -30.8737 H   0  0  0  0  0  0  0  0  0  0  0  0
   -9.9381   18.0160  -32.0504 H   0  0  0  0  0  0  0  0  0  0  0  0
   -8.1447   17.9129  -32.0504 H   0  0  0  0  0  0  0  0  0  0  0  0
   -4.8729   23.6290  -27.1414 H   0  0  0  0  0  0  0  0  0  0  0  0
   -3.4759   25.0221  -25.6091 H   0  0  0  0  0  0  0  0  0  0  0  0
   -1.6810   25.2893  -24.4958 H   0  0  0  0  0  0  0  0  0  0  0  0
    0.0453   25.1597  -24.9833 H   0  0  0  0  0  0  0  0  0  0  0  0
   -1.3936   27.6322  -23.8878 H   0  0  0  0  0  0  0  0  0  0  0  0
   -0.0945   26.6666  -23.0861 H   0  0  0  0  0  0  0  0  0  0  0  0
   -0.9403   28.9519  -25.6168 H   0  0  0  0  0  0  0  0  0  0  0  0
    0.7384   29.0894  -26.2696 H   0  0  0  0  0  0  0  0  0  0  0  0
   -0.8381   27.7635  -27.7424 H   0  0  0  0  0  0  0  0  0  0  0  0
    0.6238   26.8575  -27.2150 H   0  0  0  0  0  0  0  0  0  0  0  0
   -2.0781   24.4339  -30.3449 H   0  0  0  0  0  0  0  0  0  0  0  0
   -1.8567   22.0730  -30.3242 H   0  0  0  0  0  0  0  0  0  0  0  0
   -2.3616   21.2188  -31.8215 H   0  0  0  0  0  0  0  0  0  0  0  0
   -2.1917   23.0070  -31.8215 H   0  0  0  0  0  0  0  0  0  0  0  0
   -6.1187   18.1361  -33.6456 H   0  0  0  0  0  0  0  0  0  0  0  0
   -7.0319   19.2752  -34.6921 H   0  0  0  0  0  0  0  0  0  0  0  0
   -5.2357   19.2988  -34.6921 H   0  0  0  0  0  0  0  0  0  0  0  0
  1  2  1  0
  2  3  1  0
  3  4  2  0
  4  5  1  0
  5  6  1  0
  6  7  1  0
  7  8  1  0
  8  9  2  0
  9 10  1  0
 10 11  2  0
 11 12  1  0
 12 13  1  0
 13 14  1  0
 14 15  1  0
 15 16  1  0
 16 17  1  0
 11 18  1  0
 18 19  2  0
  7 20  2  0
 20 21  1  0
 20 22  1  0
 22 23  1  0
 23 24  2  0
 23 25  1  0
 25 26  1  0
 25  3  1  0
 22  5  2  0
 19  8  1  0
 17 12  1  0
  1 27  1  0
  1 28  1  0
  1 29  1  0
  9 30  1  0
 10 31  1  0
 13 32  1  0
 13 33  1  0
 14 34  1  0
 14 35  1  0
 16 36  1  0
 16 37  1  0
 17 38  1  0
 17 39  1  0
 19 40  1  0
 21 41  1  0
 21 42  1  0
 21 43  1  0
 26 44  1  0
 26 45  1  0
 26 46  1  0
M  END
>  <UniqueID>  (8) 
8

>  <SMILES>  (8) 
CSc1nc2sc(-c3ccc(N4CCOCC4)nc3)c(C)c2c(=O)n1C

>  <Energy>  (8) 
93.89526724708652

>  <Genealogy>  (8) 
CSc1nc2sc(-c3ccc(N4CCOCC4)nc3)c(C)c2c(=O)n1C (3D coordinates assigned)
CSc1nc2sc(-c3ccc(N4CCOCC4)nc3)c(C)c2c(=O)n1C (nonaromatic ring conformer: 93.89526724708652 kcal/mol)

>  <smiles>  (8) 
CSc1nc2sc(-c3ccc(N4CCOCC4)nc3)c(C)c2c(=O)n1C

>  <score_type>  (8) 
oracle

>  <origin>  (8) 
adg

>  <m_score__min__energy>  (8) 
-7.71

>  <m_primary>  (8) 
energy

$$$$
8:0
     RDKit          3D

 23 23  0  0  0  0  0  0  0  0999 V2000
   -4.7160   24.9000  -30.8180 C   0  0  0  0  0  0  0  0  0  0  0  0
   -5.9400   24.4790  -30.4710 C   0  0  0  0  0  0  0  0  0  0  0  0
   -6.8550   25.4060  -29.7190 C   0  0  0  0  0  0  0  0  0  0  0  0
   -6.3760   23.0940  -30.7850 C   0  0  0  0  0  0  0  0  0  0  0  0
   -6.7000   22.3110  -29.8490 O   0  0  0  0  0  0  0  0  0  0  0  0
   -6.4450   22.6340  -32.1450 N   0  0  0  0  0  0  0  0  0  0  0  0
   -6.7370   21.2680  -32.4700 C   0  0  0  0  0  0  0  0  0  0  0  0
   -8.0440   20.7600  -32.3210 C   0  0  0  0  0  0  0  0  0  0  0  0
   -9.4680   21.8380  -31.6230 Br  0  0  0  0  0  0  0  0  0  0  0  0
   -8.3160   19.4270  -32.6370 C   0  0  0  0  0  0  0  0  0  0  0  0
   -7.2960   18.5900  -33.0910 C   0  0  0  0  0  0  0  0  0  0  0  0
   -5.9920   19.0730  -33.2270 C   0  0  0  0  0  0  0  0  0  0  0  0
   -4.6360   17.8690  -33.8470 Br  0  0  0  0  0  0  0  0  0  0  0  0
   -5.7050   20.4150  -32.9110 C   0  0  0  0  0  0  0  0  0  0  0  0
   -3.9190   21.1020  -33.1160 Br  0  0  0  0  0  0  0  0  0  0  0  0
   -4.0392   24.2297  -31.3681 H   0  0  0  0  0  0  0  0  0  0  0  0
   -4.3881   25.9159  -30.5527 H   0  0  0  0  0  0  0  0  0  0  0  0
   -6.7138   25.2629  -28.6375 H   0  0  0  0  0  0  0  0  0  0  0  0
   -6.6210   26.4475  -29.9847 H   0  0  0  0  0  0  0  0  0  0  0  0
   -7.8994   25.1856  -29.9847 H   0  0  0  0  0  0  0  0  0  0  0  0
   -6.4540   23.3310  -32.9220 H   0  0  0  0  0  0  0  0  0  0  0  0
   -9.3381   19.0355  -32.5276 H   0  0  0  0  0  0  0  0  0  0  0  0
   -7.5200   17.5431  -33.3435 H   0  0  0  0  0  0  0  0  0  0  0  0
  1  2  2  0
  2  3  1  0
  2  4  1  0
  4  5  2  0
  4  6  1  0
  6  7  1  0
  7  8  2  0
  8  9  1  0
  8 10  1  0
 10 11  2  0
 11 12  1  0
 12 13  1  0
 12 14  2  0
 14 15  1  0
 14  7  1  0
  1 16  1  0
  1 17  1  0
  3 18  1  0
  3 19  1  0
  3 20  1  0
  6 21  1  0
 10 22  1  0
 11 23  1  0
M  END
>  <UniqueID>  (9) 
9

>  <SMILES>  (9) 
C=C(C)C(=O)Nc1c(Br)ccc(Br)c1Br

>  <Energy>  (9) 
28.801403998164176

>  <Genealogy>  (9) 
C=C(C)C(=O)Nc1c(Br)ccc(Br)c1Br (3D coordinates assigned)
C=C(C)C(=O)Nc1c(Br)ccc(Br)c1Br (optimized conformer: 28.801403998164176 kcal/mol)

>  <smiles>  (9) 
C=C(C)C(=O)Nc1c(Br)ccc(Br)c1Br

>  <score_type>  (9) 
oracle

>  <origin>  (9) 
adg

>  <m_score__min__energy>  (9) 
-7.46

>  <m_primary>  (9) 
energy

$$$$
9:0
     RDKit          3D

 71 73  0  0  0  0  0  0  0  0999 V2000
   -4.2470   24.8850  -26.4440 C   0  0  0  0  0  0  0  0  0  0  0  0
   -2.7530   24.9360  -26.7420 C   0  0  0  0  0  0  0  0  0  0  0  0
   -2.4080   23.9040  -27.7560 N   0  0  0  0  0  0  0  0  0  0  0  0
   -1.0800   24.1480  -28.3650 C   0  0  0  0  0  0  0  0  0  0  0  0
   -0.9330   23.4060  -29.6940 C   0  0  0  0  0  0  0  0  0  0  0  0
   -2.4830   22.5360  -27.1910 C   0  0  0  0  0  0  0  0  0  0  0  0
   -3.2920   21.6130  -28.1160 C   0  0  0  0  0  0  0  0  0  0  0  0
   -2.6280   20.3800  -28.3300 O   0  0  0  0  0  0  0  0  0  0  0  0
   -2.0700   19.8780  -27.1300 C   0  0  0  0  0  0  0  0  0  0  0  0
   -1.1430   18.7040  -27.4480 C   0  0  0  0  0  0  0  0  0  0  0  0
   -0.7040   18.7720  -28.7930 O   0  0  0  0  0  0  0  0  0  0  0  0
    0.2870   19.7690  -28.9810 C   0  0  0  0  0  0  0  0  0  0  0  0
    0.1710   20.3440  -30.3930 C   0  0  0  0  0  0  0  0  0  0  0  0
   -1.2320   20.5970  -30.7580 N   0  0  0  0  0  0  0  0  0  0  0  0
   -1.4770   20.4890  -32.2070 C   0  0  0  0  0  0  0  0  0  0  0  0
   -2.9800   20.5550  -32.4840 C   0  0  0  0  0  0  0  0  0  0  0  0
   -3.7250   20.7960  -31.2500 N   0  0  0  0  0  0  0  0  0  0  0  0
   -5.0570   21.3270  -31.3020 C   0  0  0  0  0  0  0  0  0  0  0  0
   -6.1340   20.4930  -31.6430 C   0  0  0  0  0  0  0  0  0  0  0  0
   -5.9320   19.1180  -31.8900 C   0  0  0  0  0  0  0  0  0  0  0  0
   -7.0070   18.2820  -32.1810 C   0  0  0  0  0  0  0  0  0  0  0  0
   -8.2990   18.7970  -32.2190 C   0  0  0  0  0  0  0  0  0  0  0  0
   -8.5190   20.1570  -31.9970 C   0  0  0  0  0  0  0  0  0  0  0  0
   -7.4410   21.0420  -31.7410 C   0  0  0  0  0  0  0  0  0  0  0  0
   -7.6340   22.4020  -31.5760 N   0  0  0  0  0  0  0  0  0  0  0  0
   -8.9250   23.0180  -31.9570 C   0  0  0  0  0  0  0  0  0  0  0  0
   -6.6140   23.1910  -31.0740 C   0  0  0  0  0  0  0  0  0  0  0  0
   -6.8420   24.5250  -30.6430 C   0  0  0  0  0  0  0  0  0  0  0  0
   -5.7970   25.3190  -30.1680 C   0  0  0  0  0  0  0  0  0  0  0  0
   -4.5080   24.8040  -30.0870 C   0  0  0  0  0  0  0  0  0  0  0  0
   -4.2580   23.4860  -30.4660 C   0  0  0  0  0  0  0  0  0  0  0  0
   -5.3000   22.6660  -30.9550 C   0  0  0  0  0  0  0  0  0  0  0  0
   -4.4037   24.8796  -25.3552 H   0  0  0  0  0  0  0  0  0  0  0  0
   -4.7383   25.7669  -26.8809 H   0  0  0  0  0  0  0  0  0  0  0  0
   -4.6771   23.9717  -26.8809 H   0  0  0  0  0  0  0  0  0  0  0  0
   -2.4914   25.9315  -27.1300 H   0  0  0  0  0  0  0  0  0  0  0  0
   -2.1904   24.7401  -25.8173 H   0  0  0  0  0  0  0  0  0  0  0  0
   -0.9598   25.2270  -28.5419 H   0  0  0  0  0  0  0  0  0  0  0  0
   -0.3081   23.7784  -27.6739 H   0  0  0  0  0  0  0  0  0  0  0  0
   -0.7226   22.3439  -29.4997 H   0  0  0  0  0  0  0  0  0  0  0  0
   -1.8664   23.4956  -30.2692 H   0  0  0  0  0  0  0  0  0  0  0  0
   -0.1043   23.8447  -30.2692 H   0  0  0  0  0  0  0  0  0  0  0  0
   -1.4650   22.1344  -27.0798 H   0  0  0  0  0  0  0  0  0  0  0  0
   -2.9822   22.5833  -26.2119 H   0  0  0  0  0  0  0  0  0  0  0  0
   -4.2718   21.4161  -27.6563 H   0  0  0  0  0  0  0  0  0  0  0  0
   -3.4088   22.1150  -29.0878 H   0  0  0  0  0  0  0  0  0  0  0  0
   -1.4960   20.6734  -26.6322 H   0  0  0  0  0  0  0  0  0  0  0  0
   -2.8778   19.5366  -26.4659 H   0  0  0  0  0  0  0  0  0  0  0  0
   -0.2701   18.7400  -26.7795 H   0  0  0  0  0  0  0  0  0  0  0  0
   -1.6942   17.7637  -27.2996 H   0  0  0  0  0  0  0  0  0  0  0  0
    0.1421   20.5733  -28.2447 H   0  0  0  0  0  0  0  0  0  0  0  0
    1.2842   19.3242  -28.8473 H   0  0  0  0  0  0  0  0  0  0  0  0
    0.7291   21.2907  -30.4405 H   0  0  0  0  0  0  0  0  0  0  0  0
    0.5849   19.6099  -31.1000 H   0  0  0  0  0  0  0  0  0  0  0  0
   -1.8140   19.8710  -30.2730 H   0  0  0  0  0  0  0  0  0  0  0  0
   -0.9732   21.3181  -32.7255 H   0  0  0  0  0  0  0  0  0  0  0  0
   -1.0819   19.5295  -32.5719 H   0  0  0  0  0  0  0  0  0  0  0  0
   -3.1807   21.3726  -33.1920 H   0  0  0  0  0  0  0  0  0  0  0  0
   -3.3029   19.5930  -32.9086 H   0  0  0  0  0  0  0  0  0  0  0  0
   -3.3580   20.4630  -30.3280 H   0  0  0  0  0  0  0  0  0  0  0  0
   -4.9143   18.7023  -31.8522 H   0  0  0  0  0  0  0  0  0  0  0  0
   -6.8347   17.2141  -32.3809 H   0  0  0  0  0  0  0  0  0  0  0  0
   -9.1494   18.1302  -32.4246 H   0  0  0  0  0  0  0  0  0  0  0  0
   -9.5464   20.5493  -32.0210 H   0  0  0  0  0  0  0  0  0  0  0  0
   -9.4857   23.2855  -31.0492 H   0  0  0  0  0  0  0  0  0  0  0  0
   -8.7375   23.9237  -32.5524 H   0  0  0  0  0  0  0  0  0  0  0  0
   -9.5111   22.3025  -32.5524 H   0  0  0  0  0  0  0  0  0  0  0  0
   -7.8600   24.9397  -30.6843 H   0  0  0  0  0  0  0  0  0  0  0  0
   -5.9938   26.3555  -29.8567 H   0  0  0  0  0  0  0  0  0  0  0  0
   -3.6850   25.4370  -29.7236 H   0  0  0  0  0  0  0  0  0  0  0  0
   -3.2390   23.0800  -30.3836 H   0  0  0  0  0  0  0  0  0  0  0  0
  1  2  1  0
  2  3  1  0
  3  4  1  0
  4  5  1  0
  3  6  1  0
  6  7  1  0
  7  8  1  0
  8  9  1  0
  9 10  1  0
 10 11  1  0
 11 12  1  0
 12 13  1  0
 13 14  1  0
 14 15  1  0
 15 16  1  0
 16 17  1  0
 17 18  1  0
 18 19  2  0
 19 20  1  0
 20 21  2  0
 21 22  1  0
 22 23  2  0
 23 24  1  0
 24 25  2  0
 25 26  1  0
 25 27  1  0
 27 28  2  0
 28 29  1  0
 29 30  2  0
 30 31  1  0
 31 32  2  0
 32 18  1  0
 24 19  1  0
 32 27  1  0
  1 33  1  0
  1 34  1  0
  1 35  1  0
  2 36  1  0
  2 37  1  0
  4 38  1  0
  4 39  1  0
  5 40  1  0
  5 41  1  0
  5 42  1  0
  6 43  1  0
  6 44  1  0
  7 45  1  0
  7 46  1  0
  9 47  1  0
  9 48  1  0
 10 49  1  0
 10 50  1  0
 12 51  1  0
 12 52  1  0
 13 53  1  0
 13 54  1  0
 14 55  1  0
 15 56  1  0
 15 57  1  0
 16 58  1  0
 16 59  1  0
 17 60  1  0
 20 61  1  0
 21 62  1  0
 22 63  1  0
 23 64  1  0
 26 65  1  0
 26 66  1  0
 26 67  1  0
 28 68  1  0
 29 69  1  0
 30 70  1  0
 31 71  1  0
M  CHG  1  25   1
M  END
>  <UniqueID>  (10) 
10

>  <SMILES>  (10) 
CCN(CC)CCOCCOCCNCCNc1c2ccccc2[n+](C)c2ccccc12

>  <Energy>  (10) 
99.06423435581723

>  <Genealogy>  (10) 
CCN(CC)CCOCCOCCNCCNc1c2ccccc2[n+](C)c2ccccc12 (3D coordinates assigned)
CCN(CC)CCOCCOCCNCCNc1c2ccccc2[n+](C)c2ccccc12 (optimized conformer: 99.06423435581723 kcal/mol)

>  <smiles>  (10) 
CCN(CC)CCOCCOCCNCCNc1c2ccccc2[n+](C)c2ccccc12

>  <score_type>  (10) 
oracle

>  <origin>  (10) 
adg

>  <m_score__min__energy>  (10) 
-9.8499999999999996

>  <m_primary>  (10) 
energy

$$$$
10:0
     RDKit          3D

 42 44  0  0  0  0  0  0  0  0999 V2000
   -5.7630   17.8770  -34.9130 C   0  0  0  0  0  0  0  0  0  0  0  0
   -4.8860   17.4920  -33.7180 C   0  0  0  0  0  0  0  0  0  0  0  0
   -5.6680   17.2370  -32.4930 N   0  0  0  0  0  0  0  0  0  0  0  0
   -5.8250   18.4000  -31.5940 C   0  0  0  0  0  0  0  0  0  0  0  0
   -4.9130   19.6080  -31.9180 C   0  0  0  0  0  0  0  0  0  0  0  0
   -5.4360   20.6380  -32.9700 C   0  0  2  0  0  0  0  0  0  0  0  0
   -4.4070   21.7900  -33.1180 C   0  0  0  0  0  0  0  0  0  0  0  0
   -4.0950   22.4490  -31.7920 C   0  0  0  0  0  0  0  0  0  0  0  0
   -2.9330   22.1150  -31.0750 C   0  0  0  0  0  0  0  0  0  0  0  0
   -2.7290   22.6210  -29.7870 C   0  0  0  0  0  0  0  0  0  0  0  0
   -3.6840   23.4570  -29.2030 C   0  0  0  0  0  0  0  0  0  0  0  0
   -4.8380   23.8030  -29.9140 C   0  0  0  0  0  0  0  0  0  0  0  0
   -5.0350   23.3060  -31.2070 C   0  0  0  0  0  0  0  0  0  0  0  0
   -6.4330   23.8300  -32.1720 S   0  0  0  0  0  0  0  0  0  0  0  0
   -7.3090   22.2640  -32.0320 C   0  0  0  0  0  0  0  0  0  0  0  0
   -8.5980   22.3580  -31.4870 C   0  0  0  0  0  0  0  0  0  0  0  0
   -9.5210   21.3300  -31.6580 C   0  0  0  0  0  0  0  0  0  0  0  0
   -9.1780   20.2100  -32.4050 C   0  0  0  0  0  0  0  0  0  0  0  0
   -7.8860   20.0780  -32.9140 C   0  0  0  0  0  0  0  0  0  0  0  0
   -6.8950   21.0520  -32.6710 C   0  0  0  0  0  0  0  0  0  0  0  0
   -6.7140   18.2945  -34.5505 H   0  0  0  0  0  0  0  0  0  0  0  0
   -5.2415   18.6289  -35.5234 H   0  0  0  0  0  0  0  0  0  0  0  0
   -5.9635   16.9841  -35.5234 H   0  0  0  0  0  0  0  0  0  0  0  0
   -4.3251   16.5807  -33.9729 H   0  0  0  0  0  0  0  0  0  0  0  0
   -4.2159   18.3398  -33.5125 H   0  0  0  0  0  0  0  0  0  0  0  0
   -5.1990   16.4720  -31.9520 H   0  0  0  0  0  0  0  0  0  0  0  0
   -6.6060   16.8680  -32.7640 H   0  0  0  0  0  0  0  0  0  0  0  0
   -6.8705   18.7370  -31.6522 H   0  0  0  0  0  0  0  0  0  0  0  0
   -5.5313   18.0544  -30.5918 H   0  0  0  0  0  0  0  0  0  0  0  0
   -4.7409   20.1536  -30.9785 H   0  0  0  0  0  0  0  0  0  0  0  0
   -4.0139   19.1689  -32.3750 H   0  0  0  0  0  0  0  0  0  0  0  0
   -5.5060   20.1833  -33.9692 H   0  0  0  0  0  0  0  0  0  0  0  0
   -3.4762   21.3821  -33.5390 H   0  0  0  0  0  0  0  0  0  0  0  0
   -4.8445   22.5518  -33.7800 H   0  0  0  0  0  0  0  0  0  0  0  0
   -2.1809   21.4529  -31.5287 H   0  0  0  0  0  0  0  0  0  0  0  0
   -1.8152   22.3603  -29.2330 H   0  0  0  0  0  0  0  0  0  0  0  0
   -3.5286   23.8429  -28.1847 H   0  0  0  0  0  0  0  0  0  0  0  0
   -5.5890   24.4645  -29.4575 H   0  0  0  0  0  0  0  0  0  0  0  0
   -8.8830   23.2549  -30.9175 H   0  0  0  0  0  0  0  0  0  0  0  0
  -10.5196   21.4043  -31.2027 H   0  0  0  0  0  0  0  0  0  0  0  0
   -9.9261   19.4264  -32.5953 H   0  0  0  0  0  0  0  0  0  0  0  0
   -7.6342   19.1943  -33.5186 H   0  0  0  0  0  0  0  0  0  0  0  0
  1  2  1  0
  2  3  1  0
  3  4  1  0
  4  5  1  0
  5  6  1  0
  6  7  1  0
  7  8  1  0
  8  9  2  0
  9 10  1  0
 10 11  2  0
 11 12  1  0
 12 13  2  0
 13 14  1  0
 14 15  1  0
 15 16  2  0
 16 17  1  0
 17 18  2  0
 18 19  1  0
 19 20  2  0
 20  6  1  0
 13  8  1  0
 20 15  1  0
  1 21  1  0
  1 22  1  0
  1 23  1  0
  2 24  1  0
  2 25  1  0
  3 26  1  0
  3 27  1  0
  4 28  1  0
  4 29  1  0
  5 30  1  0
  5 31  1  0
  6 32  1  6
  7 33  1  0
  7 34  1  0
  9 35  1  0
 10 36  1  0
 11 37  1  0
 12 38  1  0
 16 39  1  0
 17 40  1  0
 18 41  1  0
 19 42  1  0
M  CHG  1   3   1
M  END
>  <UniqueID>  (11) 
11

>  <SMILES>  (11) 
CC[NH2+]CC[C@@H]1Cc2ccccc2Sc2ccccc21

>  <Energy>  (11) 
61.74542627275895

>  <Genealogy>  (11) 
CC[NH2+]CCC1Cc2ccccc2Sc2ccccc21 (protonated)
CC[NH2+]CC[C@@H]1Cc2ccccc2Sc2ccccc21 (chirality)
CC[NH2+]CC[C@@H]1Cc2ccccc2Sc2ccccc21 (3D coordinates assigned)
CC[NH2+]CC[C@@H]1Cc2ccccc2Sc2ccccc21 (nonaromatic ring conformer: 61.74542627275895 kcal/mol)

>  <smiles>  (11) 
CCNCCC1Cc2ccccc2Sc2ccccc21

>  <score_type>  (11) 
oracle

>  <origin>  (11) 
adg

>  <m_score__min__energy>  (11) 
-5.8499999999999996

>  <m_primary>  (11) 
energy

$$$$
11:0
     RDKit          3D

 53 55  0  0  0  0  0  0  0  0999 V2000
   -2.3550   23.2390  -29.3500 C   0  0  0  0  0  0  0  0  0  0  0  0
   -3.8220   22.8540  -29.0980 C   0  0  0  0  0  0  0  0  0  0  0  0
   -4.6120   23.8910  -28.3850 N   0  0  1  0  0  0  0  0  0  0  0  0
   -3.8230   24.5190  -27.3050 C   0  0  0  0  0  0  0  0  0  0  0  0
   -5.1820   24.9080  -29.3160 C   0  0  0  0  0  0  0  0  0  0  0  0
   -5.1890   24.4490  -30.7880 C   0  0  0  0  0  0  0  0  0  0  0  0
   -6.4190   23.6080  -31.1510 C   0  0  0  0  0  0  0  0  0  0  0  0
   -6.2420   22.9720  -32.4560 N   0  0  0  0  0  0  0  0  0  0  0  0
   -6.1040   21.5490  -32.5930 C   0  0  0  0  0  0  0  0  0  0  0  0
   -7.2350   20.7220  -32.5020 C   0  0  0  0  0  0  0  0  0  0  0  0
   -8.5290   21.2690  -32.3790 C   0  0  0  0  0  0  0  0  0  0  0  0
   -9.6440   20.4400  -32.2720 C   0  0  0  0  0  0  0  0  0  0  0  0
   -9.4870   19.0570  -32.2870 C   0  0  0  0  0  0  0  0  0  0  0  0
   -8.2150   18.4960  -32.3980 C   0  0  0  0  0  0  0  0  0  0  0  0
   -7.0650   19.3150  -32.4950 C   0  0  0  0  0  0  0  0  0  0  0  0
   -5.7990   18.7730  -32.5670 N   0  0  0  0  0  0  0  0  0  0  0  0
   -5.5760   17.4190  -32.0200 C   0  0  0  0  0  0  0  0  0  0  0  0
   -4.7310   19.5590  -32.9650 C   0  0  0  0  0  0  0  0  0  0  0  0
   -3.5070   19.0180  -33.4810 C   0  0  0  0  0  0  0  0  0  0  0  0
   -3.3750   17.6080  -34.0060 C   0  0  0  0  0  0  0  0  0  0  0  0
   -2.3980   19.8590  -33.6560 C   0  0  0  0  0  0  0  0  0  0  0  0
   -2.5040   21.2290  -33.4570 C   0  0  0  0  0  0  0  0  0  0  0  0
   -3.7270   21.7900  -33.1160 C   0  0  0  0  0  0  0  0  0  0  0  0
   -4.8510   20.9750  -32.8790 C   0  0  0  0  0  0  0  0  0  0  0  0
   -1.8407   23.3740  -28.3870 H   0  0  0  0  0  0  0  0  0  0  0  0
   -1.8594   22.4405  -29.9216 H   0  0  0  0  0  0  0  0  0  0  0  0
   -2.3153   24.1780  -29.9216 H   0  0  0  0  0  0  0  0  0  0  0  0
   -4.3004   22.6643  -30.0702 H   0  0  0  0  0  0  0  0  0  0  0  0
   -3.8078   21.9664  -28.4483 H   0  0  0  0  0  0  0  0  0  0  0  0
   -5.3940   23.3720  -27.9180 H   0  0  0  0  0  0  0  0  0  0  0  0
   -4.2203   24.2028  -26.3292 H   0  0  0  0  0  0  0  0  0  0  0  0
   -2.7713   24.2081  -27.3909 H   0  0  0  0  0  0  0  0  0  0  0  0
   -3.8900   25.6136  -27.3909 H   0  0  0  0  0  0  0  0  0  0  0  0
   -6.2175   25.1195  -29.0110 H   0  0  0  0  0  0  0  0  0  0  0  0
   -4.5424   25.8009  -29.2555 H   0  0  0  0  0  0  0  0  0  0  0  0
   -5.1719   25.3402  -31.4325 H   0  0  0  0  0  0  0  0  0  0  0  0
   -4.3028   23.8148  -30.9376 H   0  0  0  0  0  0  0  0  0  0  0  0
   -6.5633   22.8303  -30.3866 H   0  0  0  0  0  0  0  0  0  0  0  0
   -7.2985   24.2672  -31.1946 H   0  0  0  0  0  0  0  0  0  0  0  0
   -6.2380   23.5640  -33.3170 H   0  0  0  0  0  0  0  0  0  0  0  0
   -8.6595   22.3612  -32.3674 H   0  0  0  0  0  0  0  0  0  0  0  0
  -10.6482   20.8785  -32.1757 H   0  0  0  0  0  0  0  0  0  0  0  0
  -10.3692   18.4043  -32.2110 H   0  0  0  0  0  0  0  0  0  0  0  0
   -8.1041   17.4017  -32.4103 H   0  0  0  0  0  0  0  0  0  0  0  0
   -5.5831   17.4618  -30.9209 H   0  0  0  0  0  0  0  0  0  0  0  0
   -6.3757   16.7475  -32.3659 H   0  0  0  0  0  0  0  0  0  0  0  0
   -4.6032   17.0394  -32.3659 H   0  0  0  0  0  0  0  0  0  0  0  0
   -3.3094   16.9068  -33.1610 H   0  0  0  0  0  0  0  0  0  0  0  0
   -4.2540   17.3614  -34.6197 H   0  0  0  0  0  0  0  0  0  0  0  0
   -2.4655   17.5289  -34.6197 H   0  0  0  0  0  0  0  0  0  0  0  0
   -1.4314   19.4273  -33.9549 H   0  0  0  0  0  0  0  0  0  0  0  0
   -1.6177   21.8706  -33.5697 H   0  0  0  0  0  0  0  0  0  0  0  0
   -3.8193   22.8827  -33.0299 H   0  0  0  0  0  0  0  0  0  0  0  0
  1  2  1  0
  2  3  1  0
  3  4  1  0
  3  5  1  0
  5  6  1  0
  6  7  1  0
  7  8  1  0
  8  9  1  0
  9 10  2  0
 10 11  1  0
 11 12  2  0
 12 13  1  0
 13 14  2  0
 14 15  1  0
 15 16  2  0
 16 17  1  0
 16 18  1  0
 18 19  2  0
 19 20  1  0
 19 21  1  0
 21 22  2  0
 22 23  1  0
 23 24  2  0
 24  9  1  0
 15 10  1  0
 24 18  1  0
  1 25  1  0
  1 26  1  0
  1 27  1  0
  2 28  1  0
  2 29  1  0
  3 30  1  1
  4 31  1  0
  4 32  1  0
  4 33  1  0
  5 34  1  0
  5 35  1  0
  6 36  1  0
  6 37  1  0
  7 38  1  0
  7 39  1  0
  8 40  1  0
 11 41  1  0
 12 42  1  0
 13 43  1  0
 14 44  1  0
 17 45  1  0
 17 46  1  0
 17 47  1  0
 20 48  1  0
 20 49  1  0
 20 50  1  0
 21 51  1  0
 22 52  1  0
 23 53  1  0
M  CHG  2   3   1  16   1
M  END
>  <UniqueID>  (12) 
12

>  <SMILES>  (12) 
CC[N@@H+](C)CCCNc1c2ccccc2[n+](C)c2c(C)cccc12

>  <Energy>  (12) 
91.58591731672975

>  <Genealogy>  (12) 
CC[NH+](C)CCCNc1c2ccccc2[n+](C)c2c(C)cccc12 (protonated)
CC[N@@H+](C)CCCNc1c2ccccc2[n+](C)c2c(C)cccc12 (chirality)
CC[N@@H+](C)CCCNc1c2ccccc2[n+](C)c2c(C)cccc12 (3D coordinates assigned)
CC[N@@H+](C)CCCNc1c2ccccc2[n+](C)c2c(C)cccc12 (optimized conformer: 91.58591731672975 kcal/mol)

>  <smiles>  (12) 
CCN(C)CCCNc1c2ccccc2[n+](C)c2c(C)cccc12

>  <score_type>  (12) 
oracle

>  <origin>  (12) 
adg

>  <m_score__min__energy>  (12) 
-7.5999999999999996

>  <m_primary>  (12) 
energy

$$$$
12:0
     RDKit          3D

 46 47  0  0  0  0  0  0  0  0999 V2000
   -4.7930   15.7940  -32.7990 C   0  0  0  0  0  0  0  0  0  0  0  0
   -4.7880   16.5840  -34.1050 C   0  0  0  0  0  0  0  0  0  0  0  0
   -4.8570   18.0220  -33.8410 N   0  0  0  0  0  0  0  0  0  0  0  0
   -6.0150   18.7080  -33.3210 C   0  0  0  0  0  0  0  0  0  0  0  0
   -7.2210   18.0370  -33.0560 C   0  0  0  0  0  0  0  0  0  0  0  0
   -8.3180   18.7320  -32.5520 C   0  0  0  0  0  0  0  0  0  0  0  0
   -8.2330   20.1040  -32.2830 C   0  0  0  0  0  0  0  0  0  0  0  0
   -7.0310   20.8010  -32.5450 C   0  0  0  0  0  0  0  0  0  0  0  0
   -5.9310   20.0850  -33.0610 C   0  0  0  0  0  0  0  0  0  0  0  0
   -6.9490   22.2240  -32.2600 N   0  0  0  0  0  0  0  0  0  0  0  0
   -5.6650   22.9280  -32.1060 C   0  0  0  0  0  0  0  0  0  0  0  0
   -4.8750   22.3540  -30.9160 C   0  0  0  0  0  0  0  0  0  0  0  0
   -4.9960   23.1990  -29.7120 N   0  0  0  0  0  0  0  0  0  0  0  0
   -6.1090   24.1720  -29.7970 C   0  0  0  0  0  0  0  0  0  0  0  0
   -5.6740   25.5160  -30.4040 C   0  0  0  0  0  0  0  0  0  0  0  0
   -4.2280   25.5650  -30.5910 N   0  0  0  0  0  0  0  0  0  0  0  0
   -8.1960   22.9700  -32.0360 C   0  0  0  0  0  0  0  0  0  0  0  0
   -9.1240   22.1650  -31.1320 C   0  0  0  0  0  0  0  0  0  0  0  0
   -9.4650   20.8260  -31.7880 C   0  0  0  0  0  0  0  0  0  0  0  0
   -4.7886   16.4916  -31.9485 H   0  0  0  0  0  0  0  0  0  0  0  0
   -5.6951   15.1662  -32.7537 H   0  0  0  0  0  0  0  0  0  0  0  0
   -3.8989   15.1549  -32.7537 H   0  0  0  0  0  0  0  0  0  0  0  0
   -3.8629   16.3624  -34.6573 H   0  0  0  0  0  0  0  0  0  0  0  0
   -5.6667   16.2912  -34.6984 H   0  0  0  0  0  0  0  0  0  0  0  0
   -3.9960   18.5810  -34.0400 H   0  0  0  0  0  0  0  0  0  0  0  0
   -7.2992   16.9567  -33.2477 H   0  0  0  0  0  0  0  0  0  0  0  0
   -9.2609   18.1978  -32.3633 H   0  0  0  0  0  0  0  0  0  0  0  0
   -4.9891   20.6157  -33.2637 H   0  0  0  0  0  0  0  0  0  0  0  0
   -5.0733   22.8072  -33.0254 H   0  0  0  0  0  0  0  0  0  0  0  0
   -5.8636   23.9939  -31.9203 H   0  0  0  0  0  0  0  0  0  0  0  0
   -5.2604   21.3499  -30.6852 H   0  0  0  0  0  0  0  0  0  0  0  0
   -3.8128   22.3174  -31.1997 H   0  0  0  0  0  0  0  0  0  0  0  0
   -4.0980   23.7170  -29.5620 H   0  0  0  0  0  0  0  0  0  0  0  0
   -5.1190   22.5770  -28.8780 H   0  0  0  0  0  0  0  0  0  0  0  0
   -6.9047   23.7433  -30.4240 H   0  0  0  0  0  0  0  0  0  0  0  0
   -6.4602   24.3669  -28.7730 H   0  0  0  0  0  0  0  0  0  0  0  0
   -6.1668   25.6461  -31.3788 H   0  0  0  0  0  0  0  0  0  0  0  0
   -5.9642   26.3213  -29.7132 H   0  0  0  0  0  0  0  0  0  0  0  0
   -3.8670   26.4280  -30.1210 H   0  0  0  0  0  0  0  0  0  0  0  0
   -4.0420   25.6840  -31.6120 H   0  0  0  0  0  0  0  0  0  0  0  0
   -7.9646   23.9329  -31.5572 H   0  0  0  0  0  0  0  0  0  0  0  0
   -8.6924   23.1462  -33.0017 H   0  0  0  0  0  0  0  0  0  0  0  0
   -8.6250   21.9818  -30.1690 H   0  0  0  0  0  0  0  0  0  0  0  0
  -10.0517   22.7335  -30.9705 H   0  0  0  0  0  0  0  0  0  0  0  0
   -9.9763   20.1899  -31.0504 H   0  0  0  0  0  0  0  0  0  0  0  0
  -10.1096   21.0290  -32.6559 H   0  0  0  0  0  0  0  0  0  0  0  0
  1  2  1  0
  2  3  1  0
  3  4  1  0
  4  5  2  0
  5  6  1  0
  6  7  2  0
  7  8  1  0
  8  9  2  0
  8 10  1  0
 10 11  1  0
 11 12  1  0
 12 13  1  0
 13 14  1  0
 14 15  1  0
 15 16  1  0
 10 17  1  0
 17 18  1  0
 18 19  1  0
  9  4  1  0
 19  7  1  0
  1 20  1  0
  1 21  1  0
  1 22  1  0
  2 23  1  0
  2 24  1  0
  3 25  1  0
  5 26  1  0
  6 27  1  0
  9 28  1  0
 11 29  1  0
 11 30  1  0
 12 31  1  0
 12 32  1  0
 13 33  1  0
 13 34  1  0
 14 35  1  0
 14 36  1  0
 15 37  1  0
 15 38  1  0
 16 39  1  0
 16 40  1  0
 17 41  1  0
 17 42  1  0
 18 43  1  0
 18 44  1  0
 19 45  1  0
 19 46  1  0
M  CHG  1  13   1
M  END
>  <UniqueID>  (13) 
13

>  <SMILES>  (13) 
CCNc1ccc2c(c1)N(CC[NH2+]CCN)CCC2

>  <Energy>  (13) 
40.508644474326594

>  <Genealogy>  (13) 
CCNc1ccc2c(c1)N(CC[NH2+]CCN)CCC2 (protonated)
CCNc1ccc2c(c1)N(CC[NH2+]CCN)CCC2 (3D coordinates assigned)
CCNc1ccc2c(c1)N(CC[NH2+]CCN)CCC2 (nonaromatic ring conformer: 40.508644474326594 kcal/mol)

>  <smiles>  (13) 
CCNc1ccc2c(c1)N(CCNCCN)CCC2

>  <score_type>  (13) 
oracle

>  <origin>  (13) 
adg

>  <m_score__min__energy>  (13) 
-7.0099999999999998

>  <m_primary>  (13) 
energy

$$$$
13:0
     RDKit          3D

 46 48  0  0  0  0  0  0  0  0999 V2000
   -2.4520   24.9530  -26.8960 C   0  0  0  0  0  0  0  0  0  0  0  0
   -1.6180   24.8190  -28.1670 C   0  0  0  0  0  0  0  0  0  0  0  0
   -2.3640   25.2970  -29.3280 N   0  0  0  0  0  0  0  0  0  0  0  0
   -3.5240   24.6840  -29.9080 C   0  0  0  0  0  0  0  0  0  0  0  0
   -4.1170   25.2880  -30.8410 O   0  0  0  0  0  0  0  0  0  0  0  0
   -4.0690   23.3610  -29.4370 C   0  0  0  0  0  0  0  0  0  0  0  0
   -5.4320   23.1150  -30.0180 C   0  0  0  0  0  0  0  0  0  0  0  0
   -6.5220   23.8240  -29.6720 N   0  0  0  0  0  0  0  0  0  0  0  0
   -7.5250   23.4450  -30.4450 N   0  0  0  0  0  0  0  0  0  0  0  0
   -7.0330   22.4990  -31.2710 C   0  0  0  0  0  0  0  0  0  0  0  0
   -7.8650   21.8420  -32.3350 C   0  0  0  0  0  0  0  0  0  0  0  0
   -7.8430   20.3900  -32.1800 N   0  0  0  0  0  0  0  0  0  0  0  0
   -8.5100   19.7290  -31.2370 N   0  0  0  0  0  0  0  0  0  0  0  0
   -8.3090   18.4160  -31.3380 N   0  0  0  0  0  0  0  0  0  0  0  0
   -7.4880   18.2530  -32.3900 C   0  0  0  0  0  0  0  0  0  0  0  0
   -6.9530   17.0750  -32.9020 C   0  0  0  0  0  0  0  0  0  0  0  0
   -6.0890   17.1830  -34.0080 C   0  0  0  0  0  0  0  0  0  0  0  0
   -5.7890   18.4500  -34.5650 C   0  0  0  0  0  0  0  0  0  0  0  0
   -6.3490   19.6220  -34.0190 C   0  0  0  0  0  0  0  0  0  0  0  0
   -7.1990   19.4730  -32.9220 C   0  0  0  0  0  0  0  0  0  0  0  0
   -5.7190   22.2600  -31.0270 N   0  0  0  0  0  0  0  0  0  0  0  0
   -4.8210   21.3110  -31.6950 C   0  0  0  0  0  0  0  0  0  0  0  0
   -4.0440   21.9740  -32.8360 C   0  0  0  0  0  0  0  0  0  0  0  0
   -3.4760   20.9880  -33.6700 O   0  0  0  0  0  0  0  0  0  0  0  0
   -2.9480   19.9490  -32.8790 C   0  0  0  0  0  0  0  0  0  0  0  0
   -1.7996   24.8482  -26.0166 H   0  0  0  0  0  0  0  0  0  0  0  0
   -2.9363   25.9405  -26.8776 H   0  0  0  0  0  0  0  0  0  0  0  0
   -3.2213   24.1669  -26.8776 H   0  0  0  0  0  0  0  0  0  0  0  0
   -0.6983   25.4128  -28.0595 H   0  0  0  0  0  0  0  0  0  0  0  0
   -1.3721   23.7575  -28.3178 H   0  0  0  0  0  0  0  0  0  0  0  0
   -3.3897   22.5562  -29.7547 H   0  0  0  0  0  0  0  0  0  0  0  0
   -4.1487   23.3800  -28.3401 H   0  0  0  0  0  0  0  0  0  0  0  0
   -6.5840   24.5680  -28.9430 H   0  0  0  0  0  0  0  0  0  0  0  0
   -8.9025   22.1986  -32.2545 H   0  0  0  0  0  0  0  0  0  0  0  0
   -7.4497   22.1002  -33.3203 H   0  0  0  0  0  0  0  0  0  0  0  0
   -7.1958   16.0975  -32.4597 H   0  0  0  0  0  0  0  0  0  0  0  0
   -5.6434   16.2763  -34.4430 H   0  0  0  0  0  0  0  0  0  0  0  0
   -5.1137   18.5197  -35.4305 H   0  0  0  0  0  0  0  0  0  0  0  0
   -6.1255   20.6134  -34.4399 H   0  0  0  0  0  0  0  0  0  0  0  0
   -4.1056   20.9178  -30.9578 H   0  0  0  0  0  0  0  0  0  0  0  0
   -5.4325   20.5020  -32.1211 H   0  0  0  0  0  0  0  0  0  0  0  0
   -4.7283   22.6006  -33.4268 H   0  0  0  0  0  0  0  0  0  0  0  0
   -3.2409   22.5951  -32.4127 H   0  0  0  0  0  0  0  0  0  0  0  0
   -3.0744   20.1977  -31.8150 H   0  0  0  0  0  0  0  0  0  0  0  0
   -3.4793   19.0120  -33.1021 H   0  0  0  0  0  0  0  0  0  0  0  0
   -1.8779   19.8258  -33.1021 H   0  0  0  0  0  0  0  0  0  0  0  0
  1  2  1  0
  2  3  1  0
  3  4  1  0
  4  5  2  0
  4  6  1  0
  6  7  1  0
  7  8  2  0
  8  9  1  0
  9 10  2  0
 10 11  1  0
 11 12  1  0
 12 13  1  0
 13 14  2  0
 14 15  1  0
 15 16  2  0
 16 17  1  0
 17 18  2  0
 18 19  1  0
 19 20  2  0
 10 21  1  0
 21 22  1  0
 22 23  1  0
 23 24  1  0
 24 25  1  0
 21  7  1  0
 20 12  1  0
 20 15  1  0
  1 26  1  0
  1 27  1  0
  1 28  1  0
  2 29  1  0
  2 30  1  0
  6 31  1  0
  6 32  1  0
  8 33  1  0
 11 34  1  0
 11 35  1  0
 16 36  1  0
 17 37  1  0
 18 38  1  0
 19 39  1  0
 22 40  1  0
 22 41  1  0
 23 42  1  0
 23 43  1  0
 25 44  1  0
 25 45  1  0
 25 46  1  0
M  CHG  2   3  -1   8   1
M  END
>  <UniqueID>  (14) 
14

>  <SMILES>  (14) 
CC[N-]C(=O)Cc1[nH+]nc(Cn2nnc3ccccc32)n1CCOC

>  <Energy>  (14) 
117.30438832317967

>  <Genealogy>  (14) 
CC[N-]C(=O)Cc1[nH+]nc(Cn2nnc3ccccc32)n1CCOC (protonated)
CC[N-]C(=O)Cc1[nH+]nc(Cn2nnc3ccccc32)n1CCOC (3D coordinates assigned)
CC[N-]C(=O)Cc1[nH+]nc(Cn2nnc3ccccc32)n1CCOC (optimized conformer: 117.30438832317967 kcal/mol)

>  <smiles>  (14) 
CCNC(=O)Cc1nnc(Cn2nnc3ccccc32)n1CCOC

>  <score_type>  (14) 
oracle

>  <origin>  (14) 
adg

>  <m_score__min__energy>  (14) 
-10.1

>  <m_primary>  (14) 
energy

$$$$
14:0
     RDKit          3D

 48 50  0  0  0  0  0  0  0  0999 V2000
   -0.3150   24.9040  -27.8310 C   0  0  0  0  0  0  0  0  0  0  0  0
   -1.5370   25.4460  -28.5880 C   0  0  0  0  0  0  0  0  0  0  0  0
   -2.3380   24.3950  -29.2580 N   0  0  0  0  0  0  0  0  0  0  0  0
   -3.6060   24.0950  -28.5530 C   0  0  0  0  0  0  0  0  0  0  0  0
   -3.3740   22.9790  -27.5430 C   0  0  0  0  0  0  0  0  0  0  0  0
   -1.5430   23.1920  -29.5870 C   0  0  0  0  0  0  0  0  0  0  0  0
   -2.2540   22.3220  -30.6330 C   0  0  0  0  0  0  0  0  0  0  0  0
   -3.2920   23.0710  -31.3480 N   0  0  0  0  0  0  0  0  0  0  0  0
   -4.4670   22.4310  -31.8720 C   0  0  0  0  0  0  0  0  0  0  0  0
   -4.3670   21.2530  -32.6490 C   0  0  0  0  0  0  0  0  0  0  0  0
   -3.1160   20.7920  -33.1040 C   0  0  0  0  0  0  0  0  0  0  0  0
   -3.0180   19.6260  -33.8580 C   0  0  0  0  0  0  0  0  0  0  0  0
   -4.1620   18.9040  -34.1840 C   0  0  0  0  0  0  0  0  0  0  0  0
   -5.4150   19.3350  -33.7510 C   0  0  0  0  0  0  0  0  0  0  0  0
   -5.5520   20.5070  -32.9680 C   0  0  0  0  0  0  0  0  0  0  0  0
   -6.7900   20.9310  -32.5090 N   0  0  0  0  0  0  0  0  0  0  0  0
   -8.0100   20.1440  -32.7640 C   0  0  0  0  0  0  0  0  0  0  0  0
   -6.8540   22.1220  -31.8330 C   0  0  0  0  0  0  0  0  0  0  0  0
   -7.9540   22.8060  -31.3340 C   0  0  0  0  0  0  0  0  0  0  0  0
   -7.5400   23.9310  -30.7900 O   0  0  0  0  0  0  0  0  0  0  0  0
   -6.2320   24.0170  -30.9140 C   0  0  0  0  0  0  0  0  0  0  0  0
   -5.4940   25.1780  -30.5160 N   0  0  0  0  0  0  0  0  0  0  0  0
   -4.4130   25.4620  -31.0700 O   0  0  0  0  0  0  0  0  0  0  0  0
   -6.1110   26.1270  -29.7350 O   0  0  0  0  0  0  0  0  0  0  0  0
   -5.7480   22.8750  -31.5420 C   0  0  0  0  0  0  0  0  0  0  0  0
   -0.4905   24.9818  -26.7479 H   0  0  0  0  0  0  0  0  0  0  0  0
   -0.1539   23.8500  -28.1015 H   0  0  0  0  0  0  0  0  0  0  0  0
    0.5744   25.4921  -28.1015 H   0  0  0  0  0  0  0  0  0  0  0  0
   -2.1846   25.9716  -27.8708 H   0  0  0  0  0  0  0  0  0  0  0  0
   -1.1567   26.1116  -29.3769 H   0  0  0  0  0  0  0  0  0  0  0  0
   -3.9564   24.9966  -28.0291 H   0  0  0  0  0  0  0  0  0  0  0  0
   -4.3648   23.7767  -29.2830 H   0  0  0  0  0  0  0  0  0  0  0  0
   -3.4581   23.3837  -26.5236 H   0  0  0  0  0  0  0  0  0  0  0  0
   -4.1275   22.1908  -27.6879 H   0  0  0  0  0  0  0  0  0  0  0  0
   -2.3688   22.5564  -27.6879 H   0  0  0  0  0  0  0  0  0  0  0  0
   -0.5669   23.5056  -29.9856 H   0  0  0  0  0  0  0  0  0  0  0  0
   -1.4165   22.5981  -28.6698 H   0  0  0  0  0  0  0  0  0  0  0  0
   -1.5115   21.9601  -31.3595 H   0  0  0  0  0  0  0  0  0  0  0  0
   -2.7361   21.4830  -30.1099 H   0  0  0  0  0  0  0  0  0  0  0  0
   -3.1120   24.0700  -31.5890 H   0  0  0  0  0  0  0  0  0  0  0  0
   -2.2060   21.3601  -32.8606 H   0  0  0  0  0  0  0  0  0  0  0  0
   -2.0326   19.2741  -34.1974 H   0  0  0  0  0  0  0  0  0  0  0  0
   -4.0771   17.9878  -34.7869 H   0  0  0  0  0  0  0  0  0  0  0  0
   -6.3105   18.7562  -34.0215 H   0  0  0  0  0  0  0  0  0  0  0  0
   -8.4642   19.8510  -31.8060 H   0  0  0  0  0  0  0  0  0  0  0  0
   -8.7250   20.7516  -33.3382 H   0  0  0  0  0  0  0  0  0  0  0  0
   -7.7512   19.2421  -33.3382 H   0  0  0  0  0  0  0  0  0  0  0  0
   -8.9984   22.4646  -31.3847 H   0  0  0  0  0  0  0  0  0  0  0  0
  1  2  1  0
  2  3  1  0
  3  4  1  0
  4  5  1  0
  3  6  1  0
  6  7  1  0
  7  8  1  0
  8  9  1  0
  9 10  2  0
 10 11  1  0
 11 12  2  0
 12 13  1  0
 13 14  2  0
 14 15  1  0
 15 16  2  0
 16 17  1  0
 16 18  1  0
 18 19  2  0
 19 20  1  0
 20 21  1  0
 21 22  1  0
 22 23  2  0
 22 24  1  0
 21 25  2  0
 25  9  1  0
 15 10  1  0
 25 18  1  0
  1 26  1  0
  1 27  1  0
  1 28  1  0
  2 29  1  0
  2 30  1  0
  4 31  1  0
  4 32  1  0
  5 33  1  0
  5 34  1  0
  5 35  1  0
  6 36  1  0
  6 37  1  0
  7 38  1  0
  7 39  1  0
  8 40  1  0
 11 41  1  0
 12 42  1  0
 13 43  1  0
 14 44  1  0
 17 45  1  0
 17 46  1  0
 17 47  1  0
 19 48  1  0
M  CHG  3  16   1  22   1  24  -1
M  END
>  <UniqueID>  (15) 
15

>  <SMILES>  (15) 
CCN(CC)CCNc1c2ccccc2[n+](C)c2coc([N+](=O)[O-])c12

>  <Energy>  (15) 
102.0932353834905

>  <Genealogy>  (15) 
CCN(CC)CCNc1c2ccccc2[n+](C)c2coc([N+](=O)[O-])c12 (3D coordinates assigned)
CCN(CC)CCNc1c2ccccc2[n+](C)c2coc([N+](=O)[O-])c12 (optimized conformer: 102.0932353834905 kcal/mol)

>  <smiles>  (15) 
CCN(CC)CCNc1c2ccccc2[n+](C)c2coc([N+](=O)[O-])c12

>  <score_type>  (15) 
oracle

>  <origin>  (15) 
adg

>  <m_score__min__energy>  (15) 
-7.7000000000000002

>  <m_primary>  (15) 
energy

$$$$
15:0
     RDKit          3D

 40 40  0  0  0  0  0  0  0  0999 V2000
   -6.1850   25.6240  -29.7240 C   0  0  0  0  0  0  0  0  0  0  0  0
   -5.2210   25.2970  -30.8610 C   0  0  0  0  0  0  0  0  0  0  0  0
   -5.2300   23.8450  -31.1510 N   0  0  0  0  0  0  0  0  0  0  0  0
   -5.6150   23.0710  -29.9470 C   0  0  0  0  0  0  0  0  0  0  0  0
   -4.3830   22.7890  -29.0930 C   0  0  0  0  0  0  0  0  0  0  0  0
   -6.1190   23.5380  -32.2970 C   0  0  0  0  0  0  0  0  0  0  0  0
   -7.4780   23.0070  -31.8240 C   0  0  0  0  0  0  0  0  0  0  0  0
   -7.4860   21.2220  -31.7100 S   0  0  0  0  0  0  0  0  0  0  0  0
   -9.0020   20.5200  -32.3330 C   0  0  0  0  0  0  0  0  0  0  0  0
   -9.1130   19.0540  -31.9400 C   0  0  0  0  0  0  0  0  0  0  0  0
   -6.1040   20.5110  -32.5270 C   0  0  0  0  0  0  0  0  0  0  0  0
   -6.2860   19.4560  -33.4290 C   0  0  0  0  0  0  0  0  0  0  0  0
   -5.1760   18.9100  -34.0740 C   0  0  0  0  0  0  0  0  0  0  0  0
   -3.9020   19.4160  -33.8120 C   0  0  0  0  0  0  0  0  0  0  0  0
   -2.8160   18.8940  -34.4340 F   0  0  0  0  0  0  0  0  0  0  0  0
   -3.7570   20.4640  -32.9000 C   0  0  0  0  0  0  0  0  0  0  0  0
   -4.8500   20.9840  -32.2780 N   0  0  0  0  0  0  0  0  0  0  0  0
   -5.6849   25.4544  -28.7591 H   0  0  0  0  0  0  0  0  0  0  0  0
   -6.4940   26.6772  -29.7967 H   0  0  0  0  0  0  0  0  0  0  0  0
   -7.0710   24.9761  -29.7967 H   0  0  0  0  0  0  0  0  0  0  0  0
   -5.5260   25.8476  -31.7631 H   0  0  0  0  0  0  0  0  0  0  0  0
   -4.2049   25.5921  -30.5602 H   0  0  0  0  0  0  0  0  0  0  0  0
   -6.3416   23.6503  -29.3584 H   0  0  0  0  0  0  0  0  0  0  0  0
   -6.0644   22.1168  -30.2592 H   0  0  0  0  0  0  0  0  0  0  0  0
   -4.6529   22.8508  -28.0284 H   0  0  0  0  0  0  0  0  0  0  0  0
   -4.0042   21.7809  -29.3174 H   0  0  0  0  0  0  0  0  0  0  0  0
   -3.6034   23.5319  -29.3174 H   0  0  0  0  0  0  0  0  0  0  0  0
   -6.2774   24.4554  -32.8830 H   0  0  0  0  0  0  0  0  0  0  0  0
   -5.6381   22.7616  -32.9101 H   0  0  0  0  0  0  0  0  0  0  0  0
   -7.7003   23.4287  -30.8327 H   0  0  0  0  0  0  0  0  0  0  0  0
   -8.2389   23.3076  -32.5593 H   0  0  0  0  0  0  0  0  0  0  0  0
   -9.8557   21.0726  -31.9137 H   0  0  0  0  0  0  0  0  0  0  0  0
   -9.0033   20.5946  -33.4305 H   0  0  0  0  0  0  0  0  0  0  0  0
   -9.1195   18.9678  -30.8434 H   0  0  0  0  0  0  0  0  0  0  0  0
  -10.0454   18.6351  -32.3463 H   0  0  0  0  0  0  0  0  0  0  0  0
   -8.2543   18.4994  -32.3463 H   0  0  0  0  0  0  0  0  0  0  0  0
   -7.2936   19.0617  -33.6271 H   0  0  0  0  0  0  0  0  0  0  0  0
   -5.3046   18.0826  -34.7874 H   0  0  0  0  0  0  0  0  0  0  0  0
   -2.7576   20.8697  -32.6842 H   0  0  0  0  0  0  0  0  0  0  0  0
   -4.7180   21.7640  -31.5950 H   0  0  0  0  0  0  0  0  0  0  0  0
  1  2  1  0
  2  3  1  0
  3  4  1  0
  4  5  1  0
  3  6  1  0
  6  7  1  0
  8  7  1  6
  8  9  1  0
  9 10  1  0
  8 11  1  0
 11 12  2  0
 12 13  1  0
 13 14  2  0
 14 15  1  0
 14 16  1  0
 16 17  2  0
 17 11  1  0
  1 18  1  0
  1 19  1  0
  1 20  1  0
  2 21  1  0
  2 22  1  0
  4 23  1  0
  4 24  1  0
  5 25  1  0
  5 26  1  0
  5 27  1  0
  6 28  1  0
  6 29  1  0
  7 30  1  0
  7 31  1  0
  9 32  1  0
  9 33  1  0
 10 34  1  0
 10 35  1  0
 10 36  1  0
 12 37  1  0
 13 38  1  0
 16 39  1  0
 17 40  1  0
M  CHG  2   8   1  17   1
M  END
>  <UniqueID>  (16) 
16

>  <SMILES>  (16) 
CCN(CC)CC[S@@+](CC)c1ccc(F)c[nH+]1

>  <Energy>  (16) 
22.03777088414693

>  <Genealogy>  (16) 
CCN(CC)CC[S+](CC)c1ccc(F)c[nH+]1 (protonated)
CCN(CC)CC[S@@+](CC)c1ccc(F)c[nH+]1 (chirality)
CCN(CC)CC[S@@+](CC)c1ccc(F)c[nH+]1 (3D coordinates assigned)
CCN(CC)CC[S@@+](CC)c1ccc(F)c[nH+]1 (optimized conformer: 22.03777088414693 kcal/mol)

>  <smiles>  (16) 
CCN(CC)CC[S+](CC)c1ccc(F)cn1

>  <score_type>  (16) 
oracle

>  <origin>  (16) 
adg

>  <m_score__min__energy>  (16) 
-5.1799999999999997

>  <m_primary>  (16) 
energy

$$$$
16:0
     RDKit          3D

 58 61  0  0  0  0  0  0  0  0999 V2000
    0.0080   25.6530  -36.4760 C   0  0  0  0  0  0  0  0  0  0  0  0
    1.3490   24.9760  -36.2000 C   0  0  0  0  0  0  0  0  0  0  0  0
    1.3620   23.6510  -36.7320 O   0  0  0  0  0  0  0  0  0  0  0  0
    1.2420   22.4690  -35.9850 C   0  0  0  0  0  0  0  0  0  0  0  0
    2.1830   22.0870  -35.0050 C   0  0  0  0  0  0  0  0  0  0  0  0
    2.0120   20.9000  -34.2890 C   0  0  0  0  0  0  0  0  0  0  0  0
    0.9090   20.0770  -34.5410 C   0  0  0  0  0  0  0  0  0  0  0  0
    0.6640   18.5780  -33.5910 S   0  0  0  0  0  0  0  0  0  0  0  0
   -1.0610   18.9590  -33.2870 C   0  0  0  0  0  0  0  0  0  0  0  0
   -1.4050   19.9290  -32.3440 C   0  0  0  0  0  0  0  0  0  0  0  0
   -2.7450   20.2420  -32.1140 C   0  0  0  0  0  0  0  0  0  0  0  0
   -3.7730   19.5900  -32.8330 C   0  0  0  0  0  0  0  0  0  0  0  0
   -3.4120   18.6160  -33.7980 C   0  0  0  0  0  0  0  0  0  0  0  0
   -2.0620   18.2950  -34.0010 C   0  0  0  0  0  0  0  0  0  0  0  0
   -4.4650   17.8580  -34.5660 C   0  0  0  0  0  0  0  0  0  0  0  0
   -5.7720   18.6460  -34.6540 C   0  0  0  0  0  0  0  0  0  0  0  0
   -6.2130   19.0840  -33.2590 C   0  0  0  0  0  0  0  0  0  0  0  0
   -5.1770   19.9140  -32.6250 N   0  0  0  0  0  0  0  0  0  0  0  0
   -5.6080   20.9550  -31.6760 C   0  0  0  0  0  0  0  0  0  0  0  0
   -5.6440   22.3300  -32.3780 C   0  0  0  0  0  0  0  0  0  0  0  0
   -5.0290   23.4320  -31.6090 N   0  0  0  0  0  0  0  0  0  0  0  0
   -5.9920   24.4690  -31.1910 C   0  0  0  0  0  0  0  0  0  0  0  0
   -5.2770   25.5690  -30.3810 C   0  0  0  0  0  0  0  0  0  0  0  0
   -3.8690   25.4300  -30.4630 O   0  0  0  0  0  0  0  0  0  0  0  0
   -3.4660   24.2060  -29.8660 C   0  0  0  0  0  0  0  0  0  0  0  0
   -4.2010   22.9930  -30.4740 C   0  0  0  0  0  0  0  0  0  0  0  0
   -0.0260   20.4490  -35.5130 C   0  0  0  0  0  0  0  0  0  0  0  0
    0.1450   21.6340  -36.2340 C   0  0  0  0  0  0  0  0  0  0  0  0
   -0.4812   25.9000  -35.5222 H   0  0  0  0  0  0  0  0  0  0  0  0
    0.1745   26.5751  -37.0523 H   0  0  0  0  0  0  0  0  0  0  0  0
   -0.6351   24.9715  -37.0523 H   0  0  0  0  0  0  0  0  0  0  0  0
    2.1531   25.5619  -36.6693 H   0  0  0  0  0  0  0  0  0  0  0  0
    1.5021   24.9228  -35.1120 H   0  0  0  0  0  0  0  0  0  0  0  0
    3.0549   22.7269  -34.8042 H   0  0  0  0  0  0  0  0  0  0  0  0
    2.7476   20.6111  -33.5238 H   0  0  0  0  0  0  0  0  0  0  0  0
   -0.6164   20.4487  -31.7800 H   0  0  0  0  0  0  0  0  0  0  0  0
   -3.0046   21.0046  -31.3649 H   0  0  0  0  0  0  0  0  0  0  0  0
   -1.7892   17.5152  -34.7273 H   0  0  0  0  0  0  0  0  0  0  0  0
   -4.0951   17.6649  -35.5838 H   0  0  0  0  0  0  0  0  0  0  0  0
   -4.6661   16.9152  -34.0363 H   0  0  0  0  0  0  0  0  0  0  0  0
   -5.6197   19.5350  -35.2837 H   0  0  0  0  0  0  0  0  0  0  0  0
   -6.5506   18.0058  -35.0943 H   0  0  0  0  0  0  0  0  0  0  0  0
   -7.1429   19.6659  -33.3400 H   0  0  0  0  0  0  0  0  0  0  0  0
   -6.3769   18.1885  -32.6415 H   0  0  0  0  0  0  0  0  0  0  0  0
   -6.6129   20.7117  -31.3005 H   0  0  0  0  0  0  0  0  0  0  0  0
   -4.8958   20.9964  -30.8387 H   0  0  0  0  0  0  0  0  0  0  0  0
   -5.1095   22.2402  -33.3352 H   0  0  0  0  0  0  0  0  0  0  0  0
   -6.7061   22.5898  -32.4982 H   0  0  0  0  0  0  0  0  0  0  0  0
   -6.4526   24.9173  -32.0837 H   0  0  0  0  0  0  0  0  0  0  0  0
   -6.7649   24.0057  -30.5601 H   0  0  0  0  0  0  0  0  0  0  0  0
   -5.5646   26.5530  -30.7798 H   0  0  0  0  0  0  0  0  0  0  0  0
   -5.5762   25.4764  -29.3265 H   0  0  0  0  0  0  0  0  0  0  0  0
   -2.3841   24.0772  -30.0171 H   0  0  0  0  0  0  0  0  0  0  0  0
   -3.7173   24.2525  -28.7961 H   0  0  0  0  0  0  0  0  0  0  0  0
   -3.4630   22.2559  -30.8234 H   0  0  0  0  0  0  0  0  0  0  0  0
   -4.8454   22.5365  -29.7083 H   0  0  0  0  0  0  0  0  0  0  0  0
   -0.8975   19.8075  -35.7102 H   0  0  0  0  0  0  0  0  0  0  0  0
   -0.5887   21.9137  -37.0043 H   0  0  0  0  0  0  0  0  0  0  0  0
  1  2  1  0
  2  3  1  0
  3  4  1  0
  4  5  2  0
  5  6  1  0
  6  7  2  0
  7  8  1  0
  8  9  1  0
  9 10  2  0
 10 11  1  0
 11 12  2  0
 12 13  1  0
 13 14  2  0
 13 15  1  0
 15 16  1  0
 16 17  1  0
 17 18  1  0
 18 19  1  0
 19 20  1  0
 20 21  1  0
 21 22  1  0
 22 23  1  0
 23 24  1  0
 24 25  1  0
 25 26  1  0
  7 27  1  0
 27 28  2  0
 28  4  1  0
 14  9  1  0
 26 21  1  0
 18 12  1  0
  1 29  1  0
  1 30  1  0
  1 31  1  0
  2 32  1  0
  2 33  1  0
  5 34  1  0
  6 35  1  0
 10 36  1  0
 11 37  1  0
 14 38  1  0
 15 39  1  0
 15 40  1  0
 16 41  1  0
 16 42  1  0
 17 43  1  0
 17 44  1  0
 19 45  1  0
 19 46  1  0
 20 47  1  0
 20 48  1  0
 22 49  1  0
 22 50  1  0
 23 51  1  0
 23 52  1  0
 25 53  1  0
 25 54  1  0
 26 55  1  0
 26 56  1  0
 27 57  1  0
 28 58  1  0
M  END
>  <UniqueID>  (17) 
17

>  <SMILES>  (17) 
CCOc1ccc(Sc2ccc3c(c2)CCCN3CCN2CCOCC2)cc1

>  <Energy>  (17) 
65.36889647796703

>  <Genealogy>  (17) 
CCOc1ccc(Sc2ccc3c(c2)CCCN3CCN2CCOCC2)cc1 (3D coordinates assigned)
CCOc1ccc(Sc2ccc3c(c2)CCCN3CCN2CCOCC2)cc1 (nonaromatic ring conformer: 65.36889647796703 kcal/mol)

>  <smiles>  (17) 
CCOc1ccc(Sc2ccc3c(c2)CCCN3CCN2CCOCC2)cc1

>  <score_type>  (17) 
oracle

>  <origin>  (17) 
adg

>  <m_score__min__energy>  (17) 
-9.4600000000000009

>  <m_primary>  (17) 
energy

$$$$
17:0
     RDKit          3D

 52 56  0  0  0  0  0  0  0  0999 V2000
   -1.9770   25.9940  -25.5230 C   0  0  0  0  0  0  0  0  0  0  0  0
   -0.9340   25.7390  -26.6060 C   0  0  0  0  0  0  0  0  0  0  0  0
   -1.4780   24.8490  -27.6450 N   0  0  0  0  0  0  0  0  0  0  0  0
   -2.8140   24.5560  -27.6310 C   0  0  0  0  0  0  0  0  0  0  0  0
   -3.3680   23.7010  -28.5840 C   0  0  0  0  0  0  0  0  0  0  0  0
   -2.5470   23.1370  -29.5610 C   0  0  0  0  0  0  0  0  0  0  0  0
   -3.1130   22.2370  -30.5730 C   0  0  0  0  0  0  0  0  0  0  0  0
   -2.3460   21.2120  -31.0320 N   0  0  0  0  0  0  0  0  0  0  0  0
   -2.8100   20.3430  -31.9670 C   0  0  0  0  0  0  0  0  0  0  0  0
   -2.0150   19.2900  -32.4240 C   0  0  0  0  0  0  0  0  0  0  0  0
   -2.5040   18.4260  -33.3520 N   0  0  0  0  0  0  0  0  0  0  0  0
   -3.7580   18.5540  -33.8630 C   0  0  0  0  0  0  0  0  0  0  0  0
   -4.5950   19.6030  -33.4460 C   0  0  0  0  0  0  0  0  0  0  0  0
   -6.0010   19.7130  -33.9910 C   0  0  0  0  0  0  0  0  0  0  0  0
   -7.0430   19.1750  -33.0020 C   0  0  0  0  0  0  0  0  0  0  0  0
   -7.8570   20.2820  -32.3990 C   0  0  0  0  0  0  0  0  0  0  0  0
   -8.8870   20.0580  -31.4900 C   0  0  0  0  0  0  0  0  0  0  0  0
   -9.4760   21.5590  -31.0150 S   0  0  0  0  0  0  0  0  0  0  0  0
   -8.4020   22.4230  -31.9750 C   0  0  0  0  0  0  0  0  0  0  0  0
   -7.5870   21.5920  -32.6570 N   0  0  0  0  0  0  0  0  0  0  0  0
   -4.1100   20.5010  -32.4770 C   0  0  0  0  0  0  0  0  0  0  0  0
   -4.8760   21.5260  -32.0170 N   0  0  0  0  0  0  0  0  0  0  0  0
   -4.4200   22.3990  -31.0790 C   0  0  0  0  0  0  0  0  0  0  0  0
   -5.2850   23.4510  -30.6400 N   0  0  0  0  0  0  0  0  0  0  0  0
   -5.4930   24.9000  -30.8340 C   0  0  0  0  0  0  0  0  0  0  0  0
   -6.6610   25.0180  -29.9160 C   0  0  0  0  0  0  0  0  0  0  0  0
   -6.4390   23.5550  -29.7300 C   0  0  0  0  0  0  0  0  0  0  0  0
   -1.1780   23.4160  -29.5540 C   0  0  0  0  0  0  0  0  0  0  0  0
   -0.6540   24.2780  -28.5850 C   0  0  0  0  0  0  0  0  0  0  0  0
    0.5840   24.5190  -28.5880 O   0  0  0  0  0  0  0  0  0  0  0  0
   -1.5124   25.8804  -24.5324 H   0  0  0  0  0  0  0  0  0  0  0  0
   -2.3722   27.0152  -25.6277 H   0  0  0  0  0  0  0  0  0  0  0  0
   -2.7988   25.2703  -25.6277 H   0  0  0  0  0  0  0  0  0  0  0  0
   -0.6459   26.6967  -27.0640 H   0  0  0  0  0  0  0  0  0  0  0  0
   -0.0563   25.2584  -26.1492 H   0  0  0  0  0  0  0  0  0  0  0  0
   -3.4595   25.0000  -26.8588 H   0  0  0  0  0  0  0  0  0  0  0  0
   -4.4440   23.4732  -28.5653 H   0  0  0  0  0  0  0  0  0  0  0  0
   -0.9948   19.1601  -32.0336 H   0  0  0  0  0  0  0  0  0  0  0  0
   -4.1199   17.8307  -34.6086 H   0  0  0  0  0  0  0  0  0  0  0  0
   -6.2203   20.7709  -34.1978 H   0  0  0  0  0  0  0  0  0  0  0  0
   -6.0587   19.1087  -34.9084 H   0  0  0  0  0  0  0  0  0  0  0  0
   -7.7161   18.4856  -33.5328 H   0  0  0  0  0  0  0  0  0  0  0  0
   -6.5110   18.6580  -32.1898 H   0  0  0  0  0  0  0  0  0  0  0  0
   -9.2492   19.0781  -31.1455 H   0  0  0  0  0  0  0  0  0  0  0  0
   -8.3678   23.5206  -32.0391 H   0  0  0  0  0  0  0  0  0  0  0  0
   -4.6320   25.5001  -30.5045 H   0  0  0  0  0  0  0  0  0  0  0  0
   -5.6310   25.2518  -31.8671 H   0  0  0  0  0  0  0  0  0  0  0  0
   -6.5017   25.6397  -29.0226 H   0  0  0  0  0  0  0  0  0  0  0  0
   -7.6259   25.4613  -30.2034 H   0  0  0  0  0  0  0  0  0  0  0  0
   -6.1854   23.2933  -28.6921 H   0  0  0  0  0  0  0  0  0  0  0  0
   -7.2932   22.8910  -29.9286 H   0  0  0  0  0  0  0  0  0  0  0  0
   -0.5165   22.9607  -30.3057 H   0  0  0  0  0  0  0  0  0  0  0  0
  1  2  1  0
  2  3  1  0
  3  4  1  0
  4  5  2  0
  5  6  1  0
  6  7  1  0
  7  8  2  0
  8  9  1  0
  9 10  2  0
 10 11  1  0
 11 12  2  0
 12 13  1  0
 13 14  1  0
 14 15  1  0
 15 16  1  0
 16 17  2  0
 17 18  1  0
 18 19  1  0
 19 20  2  0
 13 21  2  0
 21 22  1  0
 22 23  2  0
 23 24  1  0
 24 25  1  0
 25 26  1  0
 26 27  1  0
  6 28  2  0
 28 29  1  0
 29 30  2  0
 29  3  1  0
 23  7  1  0
 27 24  1  0
 21  9  1  0
 20 16  1  0
  1 31  1  0
  1 32  1  0
  1 33  1  0
  2 34  1  0
  2 35  1  0
  4 36  1  0
  5 37  1  0
 10 38  1  0
 12 39  1  0
 14 40  1  0
 14 41  1  0
 15 42  1  0
 15 43  1  0
 17 44  1  0
 19 45  1  0
 25 46  1  0
 25 47  1  0
 26 48  1  0
 26 49  1  0
 27 50  1  0
 27 51  1  0
 28 52  1  0
M  END
>  <UniqueID>  (18) 
18

>  <SMILES>  (18) 
CCn1ccc(-c2nc3cncc(CCc4cscn4)c3nc2N2CCC2)cc1=O

>  <Energy>  (18) 
137.40715652992571

>  <Genealogy>  (18) 
CCn1ccc(-c2nc3cncc(CCc4cscn4)c3nc2N2CCC2)cc1=O (3D coordinates assigned)
CCn1ccc(-c2nc3cncc(CCc4cscn4)c3nc2N2CCC2)cc1=O (nonaromatic ring conformer: 137.40715652992571 kcal/mol)

>  <smiles>  (18) 
CCn1ccc(-c2nc3cncc(CCc4cscn4)c3nc2N2CCC2)cc1=O

>  <score_type>  (18) 
oracle

>  <origin>  (18) 
adg

>  <m_score__min__energy>  (18) 
-8.9900000000000002

>  <m_primary>  (18) 
energy

$$$$
18:0
     RDKit          3D

 68 70  0  0  0  0  0  0  0  0999 V2000
   -3.0880   24.5200  -28.0740 C   0  0  0  0  0  0  0  0  0  0  0  0
   -4.3720   24.2750  -28.8600 C   0  0  0  0  0  0  0  0  0  0  0  0
   -4.1000   24.4300  -30.3070 N   0  0  0  0  0  0  0  0  0  0  0  0
   -3.2450   23.3420  -30.8440 C   0  0  0  0  0  0  0  0  0  0  0  0
   -3.3740   22.0110  -30.0870 C   0  0  0  0  0  0  0  0  0  0  0  0
   -5.3270   24.7070  -31.0880 C   0  0  0  0  0  0  0  0  0  0  0  0
   -6.1680   23.4400  -31.2940 C   0  0  0  0  0  0  0  0  0  0  0  0
   -5.8240   22.7870  -32.5560 N   0  0  0  0  0  0  0  0  0  0  0  0
   -5.8520   21.3560  -32.6540 C   0  0  0  0  0  0  0  0  0  0  0  0
   -7.0540   20.6620  -32.4510 C   0  0  0  0  0  0  0  0  0  0  0  0
   -8.2600   21.3600  -32.2280 C   0  0  0  0  0  0  0  0  0  0  0  0
   -9.4620   20.6710  -32.0810 C   0  0  0  0  0  0  0  0  0  0  0  0
   -9.4830   19.2840  -32.1620 C   0  0  0  0  0  0  0  0  0  0  0  0
   -8.3010   18.5730  -32.3640 C   0  0  0  0  0  0  0  0  0  0  0  0
   -7.0550   19.2430  -32.4820 C   0  0  0  0  0  0  0  0  0  0  0  0
   -5.8650   18.5530  -32.6370 N   0  0  0  0  0  0  0  0  0  0  0  0
   -5.8200   17.0930  -32.3940 C   0  0  0  0  0  0  0  0  0  0  0  0
   -4.7180   19.2300  -33.0110 C   0  0  0  0  0  0  0  0  0  0  0  0
   -3.5490   18.5470  -33.4290 C   0  0  0  0  0  0  0  0  0  0  0  0
   -2.3900   19.2410  -33.7730 C   0  0  0  0  0  0  0  0  0  0  0  0
   -2.3580   20.6350  -33.7460 C   0  0  0  0  0  0  0  0  0  0  0  0
   -1.1570   21.3200  -34.1460 N   0  0  0  0  0  0  0  0  0  0  0  0
    0.1860   20.8100  -33.8580 C   0  0  0  0  0  0  0  0  0  0  0  0
    1.0550   20.7640  -35.1250 C   0  0  0  0  0  0  0  0  0  0  0  0
    0.7990   21.9590  -36.0730 C   0  0  0  0  0  0  0  0  0  0  0  0
    1.0040   23.2580  -35.3940 N   0  0  0  0  0  0  0  0  0  0  0  0
    0.2950   24.3410  -36.1000 C   0  0  0  0  0  0  0  0  0  0  0  0
    2.4400   23.5760  -35.3480 C   0  0  0  0  0  0  0  0  0  0  0  0
   -3.5100   21.3340  -33.3550 C   0  0  0  0  0  0  0  0  0  0  0  0
   -4.6910   20.6480  -32.9990 C   0  0  0  0  0  0  0  0  0  0  0  0
   -3.3043   24.4787  -26.9963 H   0  0  0  0  0  0  0  0  0  0  0  0
   -2.3485   23.7468  -28.3294 H   0  0  0  0  0  0  0  0  0  0  0  0
   -2.6852   25.5112  -28.3294 H   0  0  0  0  0  0  0  0  0  0  0  0
   -4.7347   23.2556  -28.6619 H   0  0  0  0  0  0  0  0  0  0  0  0
   -5.1370   25.0021  -28.5500 H   0  0  0  0  0  0  0  0  0  0  0  0
   -3.5233   23.1704  -31.8943 H   0  0  0  0  0  0  0  0  0  0  0  0
   -2.2020   23.6723  -30.7293 H   0  0  0  0  0  0  0  0  0  0  0  0
   -3.3555   22.2019  -29.0039 H   0  0  0  0  0  0  0  0  0  0  0  0
   -4.3234   21.5258  -30.3576 H   0  0  0  0  0  0  0  0  0  0  0  0
   -2.5355   21.3525  -30.3576 H   0  0  0  0  0  0  0  0  0  0  0  0
   -5.9313   25.4522  -30.5498 H   0  0  0  0  0  0  0  0  0  0  0  0
   -5.0259   25.0828  -32.0770 H   0  0  0  0  0  0  0  0  0  0  0  0
   -5.9790   22.7430  -30.4642 H   0  0  0  0  0  0  0  0  0  0  0  0
   -7.2305   23.7233  -31.3222 H   0  0  0  0  0  0  0  0  0  0  0  0
   -5.6280   23.3460  -33.4160 H   0  0  0  0  0  0  0  0  0  0  0  0
   -8.2510   22.4584  -32.1697 H   0  0  0  0  0  0  0  0  0  0  0  0
  -10.3949   21.2253  -31.9007 H   0  0  0  0  0  0  0  0  0  0  0  0
  -10.4368   18.7445  -32.0663 H   0  0  0  0  0  0  0  0  0  0  0  0
   -8.3343   17.4757  -32.4330 H   0  0  0  0  0  0  0  0  0  0  0  0
   -5.8141   16.9016  -31.3108 H   0  0  0  0  0  0  0  0  0  0  0  0
   -6.7040   16.6188  -32.8453 H   0  0  0  0  0  0  0  0  0  0  0  0
   -4.9085   16.6741  -32.8453 H   0  0  0  0  0  0  0  0  0  0  0  0
   -3.5562   17.4484  -33.4831 H   0  0  0  0  0  0  0  0  0  0  0  0
   -1.4899   18.6824  -34.0693 H   0  0  0  0  0  0  0  0  0  0  0  0
   -1.2580   22.2660  -34.5860 H   0  0  0  0  0  0  0  0  0  0  0  0
    0.6669   21.4672  -33.1185 H   0  0  0  0  0  0  0  0  0  0  0  0
    0.0899   19.7859  -33.4681 H   0  0  0  0  0  0  0  0  0  0  0  0
    2.1134   20.7739  -34.8255 H   0  0  0  0  0  0  0  0  0  0  0  0
    0.7934   19.8462  -35.6720 H   0  0  0  0  0  0  0  0  0  0  0  0
    1.4907   21.8907  -36.9256 H   0  0  0  0  0  0  0  0  0  0  0  0
   -0.2483   21.9108  -36.4060 H   0  0  0  0  0  0  0  0  0  0  0  0
   -0.1533   25.0258  -35.3651 H   0  0  0  0  0  0  0  0  0  0  0  0
    1.0061   24.8945  -36.7308 H   0  0  0  0  0  0  0  0  0  0  0  0
   -0.4968   23.9106  -36.7308 H   0  0  0  0  0  0  0  0  0  0  0  0
    2.7662   23.6482  -34.3000 H   0  0  0  0  0  0  0  0  0  0  0  0
    3.0078   22.7818  -35.8548 H   0  0  0  0  0  0  0  0  0  0  0  0
    2.6195   24.5356  -35.8548 H   0  0  0  0  0  0  0  0  0  0  0  0
   -3.4925   22.4335  -33.3255 H   0  0  0  0  0  0  0  0  0  0  0  0
  1  2  1  0
  2  3  1  0
  3  4  1  0
  4  5  1  0
  3  6  1  0
  6  7  1  0
  7  8  1  0
  8  9  1  0
  9 10  2  0
 10 11  1  0
 11 12  2  0
 12 13  1  0
 13 14  2  0
 14 15  1  0
 15 16  2  0
 16 17  1  0
 16 18  1  0
 18 19  2  0
 19 20  1  0
 20 21  2  0
 21 22  1  0
 22 23  1  0
 23 24  1  0
 24 25  1  0
 25 26  1  0
 26 27  1  0
 26 28  1  0
 21 29  1  0
 29 30  2  0
 30  9  1  0
 15 10  1  0
 30 18  1  0
  1 31  1  0
  1 32  1  0
  1 33  1  0
  2 34  1  0
  2 35  1  0
  4 36  1  0
  4 37  1  0
  5 38  1  0
  5 39  1  0
  5 40  1  0
  6 41  1  0
  6 42  1  0
  7 43  1  0
  7 44  1  0
  8 45  1  0
 11 46  1  0
 12 47  1  0
 13 48  1  0
 14 49  1  0
 17 50  1  0
 17 51  1  0
 17 52  1  0
 19 53  1  0
 20 54  1  0
 22 55  1  0
 23 56  1  0
 23 57  1  0
 24 58  1  0
 24 59  1  0
 25 60  1  0
 25 61  1  0
 27 62  1  0
 27 63  1  0
 27 64  1  0
 28 65  1  0
 28 66  1  0
 28 67  1  0
 29 68  1  0
M  CHG  1  16   1
M  END
>  <UniqueID>  (19) 
19

>  <SMILES>  (19) 
CCN(CC)CCNc1c2ccccc2[n+](C)c2ccc(NCCCN(C)C)cc12

>  <Energy>  (19) 
95.39563619974375

>  <Genealogy>  (19) 
CCN(CC)CCNc1c2ccccc2[n+](C)c2ccc(NCCCN(C)C)cc12 (3D coordinates assigned)
CCN(CC)CCNc1c2ccccc2[n+](C)c2ccc(NCCCN(C)C)cc12 (optimized conformer: 95.39563619974375 kcal/mol)

>  <smiles>  (19) 
CCN(CC)CCNc1c2ccccc2[n+](C)c2ccc(NCCCN(C)C)cc12

>  <score_type>  (19) 
oracle

>  <origin>  (19) 
adg

>  <m_score__min__energy>  (19) 
-9.0899999999999999

>  <m_primary>  (19) 
energy

$$$$
19:0
     RDKit          3D

 35 37  0  0  0  0  0  0  0  0999 V2000
   -2.8000   23.6580  -29.7160 C   0  0  0  0  0  0  0  0  0  0  0  0
   -4.1240   24.3980  -29.5480 C   0  0  0  0  0  0  0  0  0  0  0  0
   -4.6200   24.8660  -30.8500 N   0  0  0  0  0  0  0  0  0  0  0  0
   -6.0790   24.7360  -30.9480 C   0  0  0  0  0  0  0  0  0  0  0  0
   -6.4280   23.3950  -31.5320 C   0  0  0  0  0  0  0  0  0  0  0  0
   -7.7860   23.0090  -31.6600 C   0  0  0  0  0  0  0  0  0  0  0  0
   -8.1330   21.7730  -32.2370 C   0  0  0  0  0  0  0  0  0  0  0  0
   -7.1040   20.9490  -32.6850 C   0  0  0  0  0  0  0  0  0  0  0  0
   -7.2250   19.7370  -33.2690 N   0  0  0  0  0  0  0  0  0  0  0  0
   -5.9540   19.3510  -33.5260 C   0  0  0  0  0  0  0  0  0  0  0  0
   -5.5160   18.1690  -34.1280 C   0  0  0  0  0  0  0  0  0  0  0  0
   -6.4750   17.1160  -34.5870 C   0  0  0  0  0  0  0  0  0  0  0  0
   -4.1690   17.9930  -34.2890 N   0  0  0  0  0  0  0  0  0  0  0  0
   -3.2530   18.9280  -33.8840 C   0  0  0  0  0  0  0  0  0  0  0  0
   -3.6750   20.1240  -33.2780 C   0  0  0  0  0  0  0  0  0  0  0  0
   -5.0450   20.3000  -33.1150 C   0  0  0  0  0  0  0  0  0  0  0  0
   -5.7820   21.3280  -32.5730 C   0  0  0  0  0  0  0  0  0  0  0  0
   -5.4050   22.5440  -32.0080 C   0  0  0  0  0  0  0  0  0  0  0  0
   -2.3822   23.4245  -28.7256 H   0  0  0  0  0  0  0  0  0  0  0  0
   -2.9699   22.7240  -30.2718 H   0  0  0  0  0  0  0  0  0  0  0  0
   -2.0935   24.2920  -30.2718 H   0  0  0  0  0  0  0  0  0  0  0  0
   -4.8646   23.7183  -29.1014 H   0  0  0  0  0  0  0  0  0  0  0  0
   -3.9652   25.2679  -28.8938 H   0  0  0  0  0  0  0  0  0  0  0  0
   -4.2010   24.2540  -31.5900 H   0  0  0  0  0  0  0  0  0  0  0  0
   -6.5226   24.8253  -29.9454 H   0  0  0  0  0  0  0  0  0  0  0  0
   -6.4737   25.5312  -31.5976 H   0  0  0  0  0  0  0  0  0  0  0  0
   -8.5784   23.6838  -31.3040 H   0  0  0  0  0  0  0  0  0  0  0  0
   -9.1854   21.4672  -32.3312 H   0  0  0  0  0  0  0  0  0  0  0  0
   -8.1080   19.2170  -33.4760 H   0  0  0  0  0  0  0  0  0  0  0  0
   -6.9242   16.6228  -33.7124 H   0  0  0  0  0  0  0  0  0  0  0  0
   -7.2669   17.5803  -35.1930 H   0  0  0  0  0  0  0  0  0  0  0  0
   -5.9389   16.3708  -35.1930 H   0  0  0  0  0  0  0  0  0  0  0  0
   -2.1794   18.7413  -34.0342 H   0  0  0  0  0  0  0  0  0  0  0  0
   -2.9542   20.8864  -32.9476 H   0  0  0  0  0  0  0  0  0  0  0  0
   -4.3460   22.8324  -31.9347 H   0  0  0  0  0  0  0  0  0  0  0  0
  1  2  1  0
  2  3  1  0
  3  4  1  0
  4  5  1  0
  5  6  2  0
  6  7  1  0
  7  8  2  0
  8  9  1  0
  9 10  1  0
 10 11  2  0
 11 12  1  0
 11 13  1  0
 13 14  2  0
 14 15  1  0
 15 16  2  0
 16 17  1  0
 17 18  2  0
 18  5  1  0
 17  8  1  0
 16 10  1  0
  1 19  1  0
  1 20  1  0
  1 21  1  0
  2 22  1  0
  2 23  1  0
  3 24  1  0
  4 25  1  0
  4 26  1  0
  6 27  1  0
  7 28  1  0
  9 29  1  0
 12 30  1  0
 12 31  1  0
 12 32  1  0
 14 33  1  0
 15 34  1  0
 18 35  1  0
M  END
>  <UniqueID>  (20) 
20

>  <SMILES>  (20) 
CCNCc1ccc2[nH]c3c(C)nccc3c2c1

>  <Energy>  (20) 
73.98593914075866

>  <Genealogy>  (20) 
CCNCc1ccc2[nH]c3c(C)nccc3c2c1 (3D coordinates assigned)
CCNCc1ccc2[nH]c3c(C)nccc3c2c1 (optimized conformer: 73.98593914075866 kcal/mol)

>  <smiles>  (20) 
CCNCc1ccc2[nH]c3c(C)nccc3c2c1

>  <score_type>  (20) 
oracle

>  <origin>  (20) 
adg

>  <m_score__min__energy>  (20) 
-7.71

>  <m_primary>  (20) 
energy

$$$$
20:0
     RDKit          3D

 53 56  0  0  0  0  0  0  0  0999 V2000
   -5.9350   25.5940  -30.1590 C   0  0  0  0  0  0  0  0  0  0  0  0
   -5.4190   24.1830  -29.8410 C   0  0  0  0  0  0  0  0  0  0  0  0
   -4.0250   23.9200  -30.2790 N   0  0  0  0  0  0  0  0  0  0  0  0
   -3.0400   24.4630  -29.3300 C   0  0  0  0  0  0  0  0  0  0  0  0
   -3.7270   22.5030  -30.5860 C   0  0  0  0  0  0  0  0  0  0  0  0
   -3.3120   22.3080  -32.0510 C   0  0  0  0  0  0  0  0  0  0  0  0
   -4.4850   22.2070  -32.9220 N   0  0  0  0  0  0  0  0  0  0  0  0
   -5.4890   21.1950  -32.7390 C   0  0  0  0  0  0  0  0  0  0  0  0
   -5.1600   19.8410  -32.9290 C   0  0  0  0  0  0  0  0  0  0  0  0
   -6.1670   18.8530  -32.8470 C   0  0  0  0  0  0  0  0  0  0  0  0
   -7.4170   19.1960  -32.3640 N   0  0  0  0  0  0  0  0  0  0  0  0
   -8.3200   18.1580  -31.8240 C   0  0  0  0  0  0  0  0  0  0  0  0
   -7.7890   20.5260  -32.2890 C   0  0  0  0  0  0  0  0  0  0  0  0
   -9.1370   20.9120  -32.0740 C   0  0  0  0  0  0  0  0  0  0  0  0
   -9.4840   22.2530  -31.9190 C   0  0  0  0  0  0  0  0  0  0  0  0
   -8.5060   23.2390  -31.9750 C   0  0  0  0  0  0  0  0  0  0  0  0
   -7.1810   22.8930  -32.2270 C   0  0  0  0  0  0  0  0  0  0  0  0
   -6.8140   21.5460  -32.4330 C   0  0  0  0  0  0  0  0  0  0  0  0
   -5.8330   17.4780  -33.3770 C   0  0  0  0  0  0  0  0  0  0  0  0
   -6.7450   16.4640  -33.3460 N   0  0  0  0  0  0  0  0  0  0  0  0
   -6.4930   15.2280  -33.8510 C   0  0  0  0  0  0  0  0  0  0  0  0
   -5.2670   14.9600  -34.4530 C   0  0  0  0  0  0  0  0  0  0  0  0
   -4.3180   15.9740  -34.5430 C   0  0  0  0  0  0  0  0  0  0  0  0
   -4.5880   17.2410  -34.0070 C   0  0  0  0  0  0  0  0  0  0  0  0
   -3.6180   18.3650  -34.2340 C   0  0  0  0  0  0  0  0  0  0  0  0
   -3.7220   19.4070  -33.1280 C   0  0  0  0  0  0  0  0  0  0  0  0
   -6.1320   26.1326  -29.2203 H   0  0  0  0  0  0  0  0  0  0  0  0
   -5.1778   26.1385  -30.7422 H   0  0  0  0  0  0  0  0  0  0  0  0
   -6.8648   25.5216  -30.7422 H   0  0  0  0  0  0  0  0  0  0  0  0
   -5.4695   24.0368  -28.7519 H   0  0  0  0  0  0  0  0  0  0  0  0
   -6.0581   23.4844  -30.4009 H   0  0  0  0  0  0  0  0  0  0  0  0
   -3.3803   24.2754  -28.3009 H   0  0  0  0  0  0  0  0  0  0  0  0
   -2.0681   23.9732  -29.4899 H   0  0  0  0  0  0  0  0  0  0  0  0
   -2.9353   25.5463  -29.4899 H   0  0  0  0  0  0  0  0  0  0  0  0
   -2.9069   22.1635  -29.9362 H   0  0  0  0  0  0  0  0  0  0  0  0
   -4.6415   21.9173  -30.4106 H   0  0  0  0  0  0  0  0  0  0  0  0
   -2.7014   23.1660  -32.3687 H   0  0  0  0  0  0  0  0  0  0  0  0
   -2.7366   21.3738  -32.1299 H   0  0  0  0  0  0  0  0  0  0  0  0
   -4.6350   22.9320  -33.6590 H   0  0  0  0  0  0  0  0  0  0  0  0
   -8.2953   18.1864  -30.7246 H   0  0  0  0  0  0  0  0  0  0  0  0
   -9.3460   18.3470  -32.1727 H   0  0  0  0  0  0  0  0  0  0  0  0
   -7.9908   17.1681  -32.1727 H   0  0  0  0  0  0  0  0  0  0  0  0
   -9.9204   20.1412  -32.0289 H   0  0  0  0  0  0  0  0  0  0  0  0
  -10.5349   22.5318  -31.7519 H   0  0  0  0  0  0  0  0  0  0  0  0
   -8.7789   24.2933  -31.8202 H   0  0  0  0  0  0  0  0  0  0  0  0
   -6.4118   23.6783  -32.2659 H   0  0  0  0  0  0  0  0  0  0  0  0
   -7.2573   14.4398  -33.7841 H   0  0  0  0  0  0  0  0  0  0  0  0
   -5.0507   13.9584  -34.8530 H   0  0  0  0  0  0  0  0  0  0  0  0
   -3.3538   15.7809  -35.0359 H   0  0  0  0  0  0  0  0  0  0  0  0
   -2.5955   17.9598  -34.2516 H   0  0  0  0  0  0  0  0  0  0  0  0
   -3.8579   18.8468  -35.1933 H   0  0  0  0  0  0  0  0  0  0  0  0
   -3.3426   18.9758  -32.1898 H   0  0  0  0  0  0  0  0  0  0  0  0
   -3.1257   20.2857  -33.4151 H   0  0  0  0  0  0  0  0  0  0  0  0
  1  2  1  0
  2  3  1  0
  3  4  1  0
  3  5  1  0
  5  6  1  0
  6  7  1  0
  7  8  1  0
  8  9  2  0
  9 10  1  0
 10 11  2  0
 11 12  1  0
 11 13  1  0
 13 14  2  0
 14 15  1  0
 15 16  2  0
 16 17  1  0
 17 18  2  0
 10 19  1  0
 19 20  2  0
 20 21  1  0
 21 22  2  0
 22 23  1  0
 23 24  2  0
 24 25  1  0
 25 26  1  0
 18  8  1  0
 24 19  1  0
 26  9  1  0
 18 13  1  0
  1 27  1  0
  1 28  1  0
  1 29  1  0
  2 30  1  0
  2 31  1  0
  4 32  1  0
  4 33  1  0
  4 34  1  0
  5 35  1  0
  5 36  1  0
  6 37  1  0
  6 38  1  0
  7 39  1  0
 12 40  1  0
 12 41  1  0
 12 42  1  0
 14 43  1  0
 15 44  1  0
 16 45  1  0
 17 46  1  0
 21 47  1  0
 22 48  1  0
 23 49  1  0
 25 50  1  0
 25 51  1  0
 26 52  1  0
 26 53  1  0
M  CHG  1  11   1
M  END
>  <UniqueID>  (21) 
21

>  <SMILES>  (21) 
CCN(C)CCNc1c2c([n+](C)c3ccccc13)-c1ncccc1CC2

>  <Energy>  (21) 
89.08354884385292

>  <Genealogy>  (21) 
CCN(C)CCNc1c2c([n+](C)c3ccccc13)-c1ncccc1CC2 (3D coordinates assigned)
CCN(C)CCNc1c2c([n+](C)c3ccccc13)-c1ncccc1CC2 (nonaromatic ring conformer: 89.08354884385292 kcal/mol)

>  <smiles>  (21) 
CCN(C)CCNc1c2c([n+](C)c3ccccc13)-c1ncccc1CC2

>  <score_type>  (21) 
oracle

>  <origin>  (21) 
adg

>  <m_score__min__energy>  (21) 
-9.1500000000000004

>  <m_primary>  (21) 
energy

$$$$
21:0
     RDKit          3D

 48 49  0  0  0  0  0  0  0  0999 V2000
   -9.4960   23.4200  -32.3460 C   0  0  0  0  0  0  0  0  0  0  0  0
   -9.4760   22.0550  -31.6610 C   0  0  0  0  0  0  0  0  0  0  0  0
   -8.3640   21.2310  -32.1600 N   0  0  0  0  0  0  0  0  0  0  0  0
   -8.6470   19.9010  -32.7230 C   0  0  0  0  0  0  0  0  0  0  0  0
   -8.4290   18.8010  -31.6790 C   0  0  0  0  0  0  0  0  0  0  0  0
   -7.1140   18.2820  -31.7520 O   0  0  0  0  0  0  0  0  0  0  0  0
   -6.9080   17.6360  -32.9890 C   0  0  0  0  0  0  0  0  0  0  0  0
   -7.0040   21.7070  -32.0590 C   0  0  0  0  0  0  0  0  0  0  0  0
   -6.7270   22.8640  -31.4070 N   0  0  0  0  0  0  0  0  0  0  0  0
   -5.4530   23.3150  -31.3080 C   0  0  0  0  0  0  0  0  0  0  0  0
   -5.1800   24.6150  -30.6090 C   0  0  0  0  0  0  0  0  0  0  0  0
   -3.7900   24.8720  -30.5750 O   0  0  0  0  0  0  0  0  0  0  0  0
   -3.1970   24.2000  -29.4840 C   0  0  0  0  0  0  0  0  0  0  0  0
   -4.4400   22.6130  -31.8850 N   0  0  0  0  0  0  0  0  0  0  0  0
   -4.7030   21.4440  -32.5370 C   0  0  0  0  0  0  0  0  0  0  0  0
   -3.6450   20.6700  -33.1430 N   0  0  0  0  0  0  0  0  0  0  0  0
   -2.3420   21.2810  -33.4410 C   0  0  0  0  0  0  0  0  0  0  0  0
   -1.2450   20.2110  -33.4610 C   0  0  0  0  0  0  0  0  0  0  0  0
   -1.6090   19.1300  -34.2970 O   0  0  0  0  0  0  0  0  0  0  0  0
   -2.7290   18.4660  -33.7470 C   0  0  0  0  0  0  0  0  0  0  0  0
   -3.9610   19.3740  -33.7590 C   0  0  0  0  0  0  0  0  0  0  0  0
   -5.9860   21.0060  -32.6210 N   0  0  0  0  0  0  0  0  0  0  0  0
   -9.5076   24.2128  -31.5835 H   0  0  0  0  0  0  0  0  0  0  0  0
   -8.5993   23.5283  -32.9739 H   0  0  0  0  0  0  0  0  0  0  0  0
  -10.3954   23.5020  -32.9739 H   0  0  0  0  0  0  0  0  0  0  0  0
   -9.3591   22.1983  -30.5767 H   0  0  0  0  0  0  0  0  0  0  0  0
  -10.4217   21.5382  -31.8817 H   0  0  0  0  0  0  0  0  0  0  0  0
   -9.6924   19.8704  -33.0638 H   0  0  0  0  0  0  0  0  0  0  0  0
   -7.9602   19.7248  -33.5640 H   0  0  0  0  0  0  0  0  0  0  0  0
   -8.5945   19.2202  -30.6756 H   0  0  0  0  0  0  0  0  0  0  0  0
   -9.1383   17.9844  -31.8788 H   0  0  0  0  0  0  0  0  0  0  0  0
   -6.5782   16.6016  -32.8120 H   0  0  0  0  0  0  0  0  0  0  0  0
   -7.8483   17.6284  -33.5598 H   0  0  0  0  0  0  0  0  0  0  0  0
   -6.1369   18.1742  -33.5598 H   0  0  0  0  0  0  0  0  0  0  0  0
   -5.6865   25.4297  -31.1473 H   0  0  0  0  0  0  0  0  0  0  0  0
   -5.5574   24.5526  -29.5777 H   0  0  0  0  0  0  0  0  0  0  0  0
   -3.5732   24.6264  -28.5424 H   0  0  0  0  0  0  0  0  0  0  0  0
   -3.4513   23.1308  -29.5298 H   0  0  0  0  0  0  0  0  0  0  0  0
   -2.1045   24.3193  -29.5298 H   0  0  0  0  0  0  0  0  0  0  0  0
   -3.4680   22.9940  -31.8390 H   0  0  0  0  0  0  0  0  0  0  0  0
   -2.3879   21.7721  -34.4242 H   0  0  0  0  0  0  0  0  0  0  0  0
   -2.1067   22.0202  -32.6612 H   0  0  0  0  0  0  0  0  0  0  0  0
   -0.3126   20.6582  -33.8361 H   0  0  0  0  0  0  0  0  0  0  0  0
   -1.1052   19.8321  -32.4378 H   0  0  0  0  0  0  0  0  0  0  0  0
   -2.9403   17.5640  -34.3402 H   0  0  0  0  0  0  0  0  0  0  0  0
   -2.5013   18.1955  -32.7054 H   0  0  0  0  0  0  0  0  0  0  0  0
   -4.2830   19.5351  -34.7984 H   0  0  0  0  0  0  0  0  0  0  0  0
   -4.7665   18.8920  -33.1855 H   0  0  0  0  0  0  0  0  0  0  0  0
  1  2  1  0
  2  3  1  0
  3  4  1  0
  4  5  1  0
  5  6  1  0
  6  7  1  0
  3  8  1  0
  8  9  2  0
  9 10  1  0
 10 11  1  0
 11 12  1  0
 12 13  1  0
 10 14  2  0
 14 15  1  0
 15 16  1  0
 16 17  1  0
 17 18  1  0
 18 19  1  0
 19 20  1  0
 20 21  1  0
 15 22  2  0
 22  8  1  0
 21 16  1  0
  1 23  1  0
  1 24  1  0
  1 25  1  0
  2 26  1  0
  2 27  1  0
  4 28  1  0
  4 29  1  0
  5 30  1  0
  5 31  1  0
  7 32  1  0
  7 33  1  0
  7 34  1  0
 11 35  1  0
 11 36  1  0
 13 37  1  0
 13 38  1  0
 13 39  1  0
 14 40  1  0
 17 41  1  0
 17 42  1  0
 18 43  1  0
 18 44  1  0
 20 45  1  0
 20 46  1  0
 21 47  1  0
 21 48  1  0
M  CHG  1  14   1
M  END
>  <UniqueID>  (22) 
22

>  <SMILES>  (22) 
CCN(CCOC)c1nc(COC)[nH+]c(N2CCOCC2)n1

>  <Energy>  (22) 
45.66101139444564

>  <Genealogy>  (22) 
CCN(CCOC)c1nc(COC)[nH+]c(N2CCOCC2)n1 (protonated)
CCN(CCOC)c1nc(COC)[nH+]c(N2CCOCC2)n1 (3D coordinates assigned)
CCN(CCOC)c1nc(COC)[nH+]c(N2CCOCC2)n1 (nonaromatic ring conformer: 45.66101139444564 kcal/mol)

>  <smiles>  (22) 
CCN(CCOC)c1nc(COC)nc(N2CCOCC2)n1

>  <score_type>  (22) 
oracle

>  <origin>  (22) 
adg

>  <m_score__min__energy>  (22) 
-5.7699999999999996

>  <m_primary>  (22) 
energy

$$$$
22:0
     RDKit          3D

 41 41  0  0  0  0  0  0  0  0999 V2000
   -7.2160   17.7970  -31.5590 C   0  0  0  0  0  0  0  0  0  0  0  0
   -8.2910   18.5300  -32.3690 C   0  0  0  0  0  0  0  0  0  0  0  0
   -7.7500   19.6790  -33.1420 N   0  0  0  0  0  0  0  0  0  0  0  0
   -7.5930   20.8800  -32.2760 C   0  0  0  0  0  0  0  0  0  0  0  0
   -8.9330   21.3860  -31.7290 C   0  0  0  0  0  0  0  0  0  0  0  0
   -6.4890   19.3610  -33.8670 C   0  0  0  0  0  0  0  0  0  0  0  0
   -5.1820   19.6650  -33.0900 C   0  0  0  0  0  0  0  0  0  0  0  0
   -4.7880   21.0730  -33.1960 N   0  0  0  0  0  0  0  0  0  0  0  0
   -4.0790   21.8150  -32.1730 C   0  0  0  0  0  0  0  0  0  0  0  0
   -2.9210   21.2810  -31.5960 C   0  0  0  0  0  0  0  0  0  0  0  0
   -2.2260   22.0160  -30.6460 C   0  0  0  0  0  0  0  0  0  0  0  0
   -1.1990   21.5100  -30.1170 O   0  0  0  0  0  0  0  0  0  0  0  0
   -2.6500   23.2680  -30.2970 N   0  0  0  0  0  0  0  0  0  0  0  0
   -1.9140   24.0390  -29.2790 C   0  0  0  0  0  0  0  0  0  0  0  0
   -3.8040   23.7750  -30.8410 C   0  0  0  0  0  0  0  0  0  0  0  0
   -4.2070   24.9190  -30.4850 O   0  0  0  0  0  0  0  0  0  0  0  0
   -4.5240   23.0520  -31.7650 N   0  0  0  0  0  0  0  0  0  0  0  0
   -5.7650   23.6130  -32.3320 C   0  0  0  0  0  0  0  0  0  0  0  0
   -7.4117   17.9304  -30.4848 H   0  0  0  0  0  0  0  0  0  0  0  0
   -7.2384   16.7252  -31.8054 H   0  0  0  0  0  0  0  0  0  0  0  0
   -6.2264   18.2093  -31.8054 H   0  0  0  0  0  0  0  0  0  0  0  0
   -8.7473   17.8177  -33.0721 H   0  0  0  0  0  0  0  0  0  0  0  0
   -9.0269   18.9294  -31.6556 H   0  0  0  0  0  0  0  0  0  0  0  0
   -8.4510   19.9140  -33.8860 H   0  0  0  0  0  0  0  0  0  0  0  0
   -6.9406   20.6217  -31.4288 H   0  0  0  0  0  0  0  0  0  0  0  0
   -7.1576   21.6817  -32.8905 H   0  0  0  0  0  0  0  0  0  0  0  0
   -8.9073   21.3763  -30.6293 H   0  0  0  0  0  0  0  0  0  0  0  0
   -9.1092   22.4126  -32.0826 H   0  0  0  0  0  0  0  0  0  0  0  0
   -9.7438   20.7321  -32.0826 H   0  0  0  0  0  0  0  0  0  0  0  0
   -6.4981   18.2882  -34.1098 H   0  0  0  0  0  0  0  0  0  0  0  0
   -6.4748   20.0137  -34.7523 H   0  0  0  0  0  0  0  0  0  0  0  0
   -5.3357   19.4193  -32.0289 H   0  0  0  0  0  0  0  0  0  0  0  0
   -4.3787   19.0561  -33.5303 H   0  0  0  0  0  0  0  0  0  0  0  0
   -4.9780   21.5300  -34.1150 H   0  0  0  0  0  0  0  0  0  0  0  0
   -2.5638   20.2842  -31.8939 H   0  0  0  0  0  0  0  0  0  0  0  0
   -2.2255   23.7127  -28.2758 H   0  0  0  0  0  0  0  0  0  0  0  0
   -0.8339   23.8697  -29.4007 H   0  0  0  0  0  0  0  0  0  0  0  0
   -2.1333   25.1100  -29.4007 H   0  0  0  0  0  0  0  0  0  0  0  0
   -6.4367   23.9166  -31.5155 H   0  0  0  0  0  0  0  0  0  0  0  0
   -5.5219   24.4887  -32.9516 H   0  0  0  0  0  0  0  0  0  0  0  0
   -6.2618   22.8519  -32.9516 H   0  0  0  0  0  0  0  0  0  0  0  0
  1  2  1  0
  2  3  1  0
  3  4  1  0
  4  5  1  0
  3  6  1  0
  6  7  1  0
  7  8  1  0
  8  9  1  0
  9 10  2  0
 10 11  1  0
 11 12  2  0
 11 13  1  0
 13 14  1  0
 13 15  1  0
 15 16  2  0
 15 17  1  0
 17 18  1  0
 17  9  1  0
  1 19  1  0
  1 20  1  0
  1 21  1  0
  2 22  1  0
  2 23  1  0
  3 24  1  0
  4 25  1  0
  4 26  1  0
  5 27  1  0
  5 28  1  0
  5 29  1  0
  6 30  1  0
  6 31  1  0
  7 32  1  0
  7 33  1  0
  8 34  1  0
 10 35  1  0
 14 36  1  0
 14 37  1  0
 14 38  1  0
 18 39  1  0
 18 40  1  0
 18 41  1  0
M  CHG  1   3   1
M  END
>  <UniqueID>  (23) 
23

>  <SMILES>  (23) 
CC[NH+](CC)CCNc1cc(=O)n(C)c(=O)n1C

>  <Energy>  (23) 
49.88963808312501

>  <Genealogy>  (23) 
CC[NH+](CC)CCNc1cc(=O)n(C)c(=O)n1C (protonated)
CC[NH+](CC)CCNc1cc(=O)n(C)c(=O)n1C (3D coordinates assigned)
CC[NH+](CC)CCNc1cc(=O)n(C)c(=O)n1C (optimized conformer: 49.88963808312501 kcal/mol)

>  <smiles>  (23) 
CCN(CC)CCNc1cc(=O)n(C)c(=O)n1C

>  <score_type>  (23) 
oracle

>  <origin>  (23) 
adg

>  <m_score__min__energy>  (23) 
-5.2300000000000004

>  <m_primary>  (23) 
energy

$$$$
23:0
     RDKit          3D

 55 57  0  0  0  0  0  0  0  0999 V2000
   -3.0260   24.5310  -27.5670 C   0  0  0  0  0  0  0  0  0  0  0  0
   -2.6570   24.9010  -28.9420 N   0  0  0  0  0  0  0  0  0  0  0  0
   -1.4400   24.1710  -29.3390 C   0  0  0  0  0  0  0  0  0  0  0  0
   -3.7780   24.6200  -29.8680 C   0  0  0  0  0  0  0  0  0  0  0  0
   -5.0700   24.2870  -29.1070 C   0  0  0  0  0  0  0  0  0  0  0  0
   -5.5750   22.8780  -29.4340 C   0  0  0  0  0  0  0  0  0  0  0  0
   -4.9260   22.3700  -30.6480 N   0  0  0  0  0  0  0  0  0  0  0  0
   -5.3340   22.5310  -31.9400 C   0  0  0  0  0  0  0  0  0  0  0  0
   -6.5910   23.2400  -32.3740 C   0  0  0  0  0  0  0  0  0  0  0  0
   -7.8510   22.4630  -31.9720 C   0  0  0  0  0  0  0  0  0  0  0  0
   -7.6700   20.9790  -32.1540 C   0  0  0  0  0  0  0  0  0  0  0  0
   -6.9410   20.4850  -33.2490 C   0  0  0  0  0  0  0  0  0  0  0  0
   -6.8410   19.1070  -33.4640 C   0  0  0  0  0  0  0  0  0  0  0  0
   -7.4690   18.2140  -32.5920 C   0  0  0  0  0  0  0  0  0  0  0  0
   -8.1980   18.6980  -31.5010 C   0  0  0  0  0  0  0  0  0  0  0  0
   -8.3020   20.0740  -31.2830 C   0  0  0  0  0  0  0  0  0  0  0  0
   -4.4920   21.9460  -32.8260 N   0  0  0  0  0  0  0  0  0  0  0  0
   -3.5150   21.4280  -32.0600 C   0  0  0  0  0  0  0  0  0  0  0  0
   -3.7630   21.6870  -30.7530 C   0  0  0  0  0  0  0  0  0  0  0  0
   -2.8640   21.2650  -29.7780 C   0  0  0  0  0  0  0  0  0  0  0  0
   -3.0790   21.5010  -28.5580 O   0  0  0  0  0  0  0  0  0  0  0  0
   -1.7330   20.5890  -30.1800 N   0  0  0  0  0  0  0  0  0  0  0  0
   -0.7780   20.0980  -29.1720 C   0  0  0  0  0  0  0  0  0  0  0  0
   -1.5260   20.3060  -31.5200 C   0  0  0  0  0  0  0  0  0  0  0  0
   -0.5100   19.6410  -31.8680 O   0  0  0  0  0  0  0  0  0  0  0  0
   -2.4190   20.7390  -32.4780 N   0  0  0  0  0  0  0  0  0  0  0  0
   -2.2210   20.4790  -33.9120 C   0  0  0  0  0  0  0  0  0  0  0  0
   -2.4334   25.1252  -26.8558 H   0  0  0  0  0  0  0  0  0  0  0  0
   -4.0962   24.7298  -27.4085 H   0  0  0  0  0  0  0  0  0  0  0  0
   -2.8243   23.4613  -27.4085 H   0  0  0  0  0  0  0  0  0  0  0  0
   -0.8976   23.8456  -28.4390 H   0  0  0  0  0  0  0  0  0  0  0  0
   -1.7190   23.2910  -29.9372 H   0  0  0  0  0  0  0  0  0  0  0  0
   -0.7950   24.8314  -29.9372 H   0  0  0  0  0  0  0  0  0  0  0  0
   -3.9522   25.5056  -30.4968 H   0  0  0  0  0  0  0  0  0  0  0  0
   -3.5065   23.7491  -30.4827 H   0  0  0  0  0  0  0  0  0  0  0  0
   -4.8742   24.3534  -28.0266 H   0  0  0  0  0  0  0  0  0  0  0  0
   -5.8429   25.0072  -29.4134 H   0  0  0  0  0  0  0  0  0  0  0  0
   -5.3462   22.2069  -28.5930 H   0  0  0  0  0  0  0  0  0  0  0  0
   -6.6615   22.9186  -29.6010 H   0  0  0  0  0  0  0  0  0  0  0  0
   -6.6200   24.2337  -31.9030 H   0  0  0  0  0  0  0  0  0  0  0  0
   -6.5756   23.3226  -33.4708 H   0  0  0  0  0  0  0  0  0  0  0  0
   -8.0745   22.6682  -30.9147 H   0  0  0  0  0  0  0  0  0  0  0  0
   -8.6778   22.7903  -32.6195 H   0  0  0  0  0  0  0  0  0  0  0  0
   -6.4473   21.1847  -33.9394 H   0  0  0  0  0  0  0  0  0  0  0  0
   -6.2669   18.7253  -34.3212 H   0  0  0  0  0  0  0  0  0  0  0  0
   -7.3900   17.1303  -32.7636 H   0  0  0  0  0  0  0  0  0  0  0  0
   -8.6902   17.9943  -30.8136 H   0  0  0  0  0  0  0  0  0  0  0  0
   -8.8805   20.4509  -30.4267 H   0  0  0  0  0  0  0  0  0  0  0  0
   -4.5860   21.9170  -33.8660 H   0  0  0  0  0  0  0  0  0  0  0  0
   -1.1715   20.3003  -28.1649 H   0  0  0  0  0  0  0  0  0  0  0  0
   -0.6353   19.0147  -29.2991 H   0  0  0  0  0  0  0  0  0  0  0  0
    0.1860   20.6122  -29.2991 H   0  0  0  0  0  0  0  0  0  0  0  0
   -1.5590   19.6097  -34.0391 H   0  0  0  0  0  0  0  0  0  0  0  0
   -3.1925   20.2723  -34.3847 H   0  0  0  0  0  0  0  0  0  0  0  0
   -1.7634   21.3606  -34.3847 H   0  0  0  0  0  0  0  0  0  0  0  0
  1  2  1  0
  2  3  1  0
  2  4  1  0
  4  5  1  0
  5  6  1  0
  6  7  1  0
  7  8  1  0
  8  9  1  0
  9 10  1  0
 10 11  1  0
 11 12  2  0
 12 13  1  0
 13 14  2  0
 14 15  1  0
 15 16  2  0
  8 17  2  0
 17 18  1  0
 18 19  2  0
 19 20  1  0
 20 21  2  0
 20 22  1  0
 22 23  1  0
 22 24  1  0
 24 25  2  0
 24 26  1  0
 26 27  1  0
 19  7  1  0
 16 11  1  0
 26 18  1  0
  1 28  1  0
  1 29  1  0
  1 30  1  0
  3 31  1  0
  3 32  1  0
  3 33  1  0
  4 34  1  0
  4 35  1  0
  5 36  1  0
  5 37  1  0
  6 38  1  0
  6 39  1  0
  9 40  1  0
  9 41  1  0
 10 42  1  0
 10 43  1  0
 12 44  1  0
 13 45  1  0
 14 46  1  0
 15 47  1  0
 16 48  1  0
 17 49  1  0
 23 50  1  0
 23 51  1  0
 23 52  1  0
 27 53  1  0
 27 54  1  0
 27 55  1  0
M  CHG  1  17   1
M  END
>  <UniqueID>  (24) 
24

>  <SMILES>  (24) 
CN(C)CCCn1c(CCc2ccccc2)[nH+]c2c1c(=O)n(C)c(=O)n2C

>  <Energy>  (24) 
94.01153063922123

>  <Genealogy>  (24) 
CN(C)CCCn1c(CCc2ccccc2)[nH+]c2c1c(=O)n(C)c(=O)n2C (protonated)
CN(C)CCCn1c(CCc2ccccc2)[nH+]c2c1c(=O)n(C)c(=O)n2C (3D coordinates assigned)
CN(C)CCCn1c(CCc2ccccc2)[nH+]c2c1c(=O)n(C)c(=O)n2C (optimized conformer: 94.01153063922123 kcal/mol)

>  <smiles>  (24) 
CN(C)CCCn1c(CCc2ccccc2)nc2c1c(=O)n(C)c(=O)n2C

>  <score_type>  (24) 
oracle

>  <origin>  (24) 
adg

>  <m_score__min__energy>  (24) 
-7.0800000000000001

>  <m_primary>  (24) 
energy

$$$$
24:0
     RDKit          3D

 68 72  0  0  0  0  0  0  0  0999 V2000
    0.6640   17.1730  -29.1640 C   0  0  0  0  0  0  0  0  0  0  0  0
    0.6040   18.0620  -27.9070 C   0  0  0  0  0  0  0  0  0  0  0  0
   -0.2650   19.2770  -28.0290 N   0  0  0  0  0  0  0  0  0  0  0  0
   -0.7770   19.3710  -29.4280 C   0  0  0  0  0  0  0  0  0  0  0  0
   -1.4140   19.0920  -27.0920 C   0  0  0  0  0  0  0  0  0  0  0  0
   -2.3580   20.3180  -27.0160 C   0  0  0  0  0  0  0  0  0  0  0  0
   -1.7180   21.5510  -27.5220 N   0  0  0  0  0  0  0  0  0  0  0  0
   -2.4930   22.7550  -27.1630 C   0  0  0  0  0  0  0  0  0  0  0  0
   -3.5170   23.0890  -28.2690 C   0  0  0  0  0  0  0  0  0  0  0  0
   -3.2090   24.4030  -28.9960 C   0  0  0  0  0  0  0  0  0  0  0  0
   -3.4690   24.2570  -30.3940 O   0  0  0  0  0  0  0  0  0  0  0  0
   -3.2400   23.0850  -31.1210 C   0  0  0  0  0  0  0  0  0  0  0  0
   -2.0810   22.3060  -31.1030 C   0  0  0  0  0  0  0  0  0  0  0  0
   -2.1860   21.2070  -31.9590 C   0  0  0  0  0  0  0  0  0  0  0  0
   -1.2090   20.2900  -32.1780 N   0  0  0  0  0  0  0  0  0  0  0  0
   -1.4150   19.2650  -33.0580 C   0  0  0  0  0  0  0  0  0  0  0  0
   -2.6430   19.1390  -33.7370 C   0  0  0  0  0  0  0  0  0  0  0  0
   -3.6710   20.0600  -33.4860 C   0  0  0  0  0  0  0  0  0  0  0  0
   -4.9280   19.9050  -34.0790 O   0  0  0  0  0  0  0  0  0  0  0  0
   -5.9730   19.1910  -33.4680 C   0  0  0  0  0  0  0  0  0  0  0  0
   -6.0090   17.7850  -33.5300 C   0  0  0  0  0  0  0  0  0  0  0  0
   -7.0530   17.0720  -32.9380 C   0  0  0  0  0  0  0  0  0  0  0  0
   -8.0650   17.7470  -32.2540 C   0  0  0  0  0  0  0  0  0  0  0  0
   -8.0500   19.1460  -32.1840 C   0  0  0  0  0  0  0  0  0  0  0  0
   -9.0550   19.8350  -31.4980 C   0  0  0  0  0  0  0  0  0  0  0  0
   -9.0260   21.2260  -31.4340 C   0  0  0  0  0  0  0  0  0  0  0  0
   -7.9900   21.9290  -32.0630 C   0  0  0  0  0  0  0  0  0  0  0  0
   -7.9520   23.4270  -31.9710 C   0  0  0  0  0  0  0  0  0  0  0  0
   -7.0050   21.2480  -32.7210 N   0  0  0  0  0  0  0  0  0  0  0  0
   -7.0080   19.8820  -32.8030 C   0  0  0  0  0  0  0  0  0  0  0  0
   -3.4020   21.1120  -32.6110 C   0  0  0  0  0  0  0  0  0  0  0  0
   -4.3770   22.4110  -32.1750 S   0  0  0  0  0  0  0  0  0  0  0  0
   -0.3340   21.6370  -27.0440 C   0  0  0  0  0  0  0  0  0  0  0  0
    0.5150   20.5040  -27.6570 C   0  0  0  0  0  0  0  0  0  0  0  0
    0.7353   16.1173  -28.8634 H   0  0  0  0  0  0  0  0  0  0  0  0
   -0.2463   17.3230  -29.7630 H   0  0  0  0  0  0  0  0  0  0  0  0
    1.5459   17.4440  -29.7630 H   0  0  0  0  0  0  0  0  0  0  0  0
    0.2216   17.4515  -27.0757 H   0  0  0  0  0  0  0  0  0  0  0  0
    1.6270   18.4319  -27.7441 H   0  0  0  0  0  0  0  0  0  0  0  0
   -1.8588   19.5696  -29.4100 H   0  0  0  0  0  0  0  0  0  0  0  0
   -0.2626   20.1897  -29.9525 H   0  0  0  0  0  0  0  0  0  0  0  0
   -0.5869   18.4230  -29.9525 H   0  0  0  0  0  0  0  0  0  0  0  0
   -1.9993   18.2231  -27.4272 H   0  0  0  0  0  0  0  0  0  0  0  0
   -0.9901   18.9494  -26.0870 H   0  0  0  0  0  0  0  0  0  0  0  0
   -3.2548   20.1119  -27.6188 H   0  0  0  0  0  0  0  0  0  0  0  0
   -2.6135   20.4810  -25.9586 H   0  0  0  0  0  0  0  0  0  0  0  0
   -3.0267   22.5735  -26.2184 H   0  0  0  0  0  0  0  0  0  0  0  0
   -1.8012   23.6029  -27.0510 H   0  0  0  0  0  0  0  0  0  0  0  0
   -3.5154   22.2724  -29.0059 H   0  0  0  0  0  0  0  0  0  0  0  0
   -4.4978   23.2041  -27.7844 H   0  0  0  0  0  0  0  0  0  0  0  0
   -3.8442   25.2032  -28.5883 H   0  0  0  0  0  0  0  0  0  0  0  0
   -2.1493   24.6589  -28.8491 H   0  0  0  0  0  0  0  0  0  0  0  0
   -1.1951   22.5301  -30.4906 H   0  0  0  0  0  0  0  0  0  0  0  0
   -0.6149   18.5318  -33.2378 H   0  0  0  0  0  0  0  0  0  0  0  0
   -2.7948   18.3235  -34.4595 H   0  0  0  0  0  0  0  0  0  0  0  0
   -5.2060   17.2425  -34.0504 H   0  0  0  0  0  0  0  0  0  0  0  0
   -7.0781   15.9747  -33.0109 H   0  0  0  0  0  0  0  0  0  0  0  0
   -8.8743   17.1806  -31.7700 H   0  0  0  0  0  0  0  0  0  0  0  0
   -9.8682   19.2786  -31.0091 H   0  0  0  0  0  0  0  0  0  0  0  0
   -9.8132   21.7704  -30.8919 H   0  0  0  0  0  0  0  0  0  0  0  0
   -7.9443   23.7293  -30.9134 H   0  0  0  0  0  0  0  0  0  0  0  0
   -7.0441   23.8019  -32.4661 H   0  0  0  0  0  0  0  0  0  0  0  0
   -8.8398   23.8474  -32.4661 H   0  0  0  0  0  0  0  0  0  0  0  0
   -6.2310   21.7920  -33.1670 H   0  0  0  0  0  0  0  0  0  0  0  0
    0.0914   22.6083  -27.3366 H   0  0  0  0  0  0  0  0  0  0  0  0
   -0.3267   21.5373  -25.9485 H   0  0  0  0  0  0  0  0  0  0  0  0
    1.0013   20.8909  -28.5646 H   0  0  0  0  0  0  0  0  0  0  0  0
    1.2340   20.1965  -26.8834 H   0  0  0  0  0  0  0  0  0  0  0  0
  1  2  1  0
  2  3  1  0
  3  4  1  0
  3  5  1  0
  5  6  1  0
  6  7  1  0
  7  8  1  0
  8  9  1  0
  9 10  1  0
 10 11  1  0
 11 12  1  0
 12 13  2  0
 13 14  1  0
 14 15  2  0
 15 16  1  0
 16 17  2  0
 17 18  1  0
 18 19  1  0
 19 20  1  0
 20 21  2  0
 21 22  1  0
 22 23  2  0
 23 24  1  0
 24 25  2  0
 25 26  1  0
 26 27  2  0
 27 28  1  0
 27 29  1  0
 29 30  2  0
 18 31  2  0
 31 32  1  0
  7 33  1  0
 33 34  1  0
 34  3  1  0
 32 12  1  0
 31 14  1  0
 30 20  1  0
 30 24  1  0
  1 35  1  0
  1 36  1  0
  1 37  1  0
  2 38  1  0
  2 39  1  0
  4 40  1  0
  4 41  1  0
  4 42  1  0
  5 43  1  0
  5 44  1  0
  6 45  1  0
  6 46  1  0
  8 47  1  0
  8 48  1  0
  9 49  1  0
  9 50  1  0
 10 51  1  0
 10 52  1  0
 13 53  1  0
 16 54  1  0
 17 55  1  0
 21 56  1  0
 22 57  1  0
 23 58  1  0
 25 59  1  0
 26 60  1  0
 28 61  1  0
 28 62  1  0
 28 63  1  0
 29 64  1  0
 33 65  1  0
 33 66  1  0
 34 67  1  0
 34 68  1  0
M  CHG  2   3   1  29   1
M  END
>  <UniqueID>  (25) 
25

>  <SMILES>  (25) 
CC[N+]1(C)CCN(CCCOc2cc3nccc(Oc4cccc5ccc(C)[nH+]c45)c3s2)CC1

>  <Energy>  (25) 
133.7728146395963

>  <Genealogy>  (25) 
CC[N+]1(C)CCN(CCCOc2cc3nccc(Oc4cccc5ccc(C)[nH+]c45)c3s2)CC1 (protonated)
CC[N+]1(C)CCN(CCCOc2cc3nccc(Oc4cccc5ccc(C)[nH+]c45)c3s2)CC1 (3D coordinates assigned)
CC[N+]1(C)CCN(CCCOc2cc3nccc(Oc4cccc5ccc(C)[nH+]c45)c3s2)CC1 (nonaromatic ring conformer: 133.7728146395963 kcal/mol)

>  <smiles>  (25) 
CC[N+]1(C)CCN(CCCOc2cc3nccc(Oc4cccc5ccc(C)nc45)c3s2)CC1

>  <score_type>  (25) 
oracle

>  <origin>  (25) 
adg

>  <m_score__min__energy>  (25) 
-9.0700000000000003

>  <m_primary>  (25) 
energy

$$$$
25:0
     RDKit          3D

 82 83  0  0  0  0  0  0  0  0999 V2000
   -5.9020   25.3020  -30.4540 C   0  0  0  0  0  0  0  0  0  0  0  0
   -5.9470   23.8330  -30.0600 C   0  0  0  0  0  0  0  0  0  0  0  0
   -4.6620   23.1360  -30.4270 C   0  0  0  0  0  0  0  0  0  0  0  0
   -4.6880   22.1100  -31.3780 C   0  0  0  0  0  0  0  0  0  0  0  0
   -3.5210   21.4110  -31.7410 C   0  0  0  0  0  0  0  0  0  0  0  0
   -2.2990   21.7670  -31.1140 C   0  0  0  0  0  0  0  0  0  0  0  0
   -2.2420   22.8930  -30.2510 C   0  0  0  0  0  0  0  0  0  0  0  0
   -0.9160   23.4050  -29.7310 C   0  0  0  0  0  0  0  0  0  0  0  0
   -3.4370   23.5400  -29.8730 C   0  0  0  0  0  0  0  0  0  0  0  0
   -3.4160   24.6050  -28.9700 O   0  0  0  0  0  0  0  0  0  0  0  0
   -3.5020   24.3980  -27.5630 C   0  0  0  0  0  0  0  0  0  0  0  0
   -2.4970   25.3010  -26.8440 C   0  0  0  0  0  0  0  0  0  0  0  0
   -1.6070   25.9140  -27.7590 O   0  0  0  0  0  0  0  0  0  0  0  0
   -0.4000   26.2770  -27.1220 C   0  0  0  0  0  0  0  0  0  0  0  0
    0.2370   25.0470  -26.4660 C   0  0  0  0  0  0  0  0  0  0  0  0
   -0.2680   24.8740  -25.0810 N   0  0  0  0  0  0  0  0  0  0  0  0
   -0.0810   23.4920  -24.5830 C   0  0  0  0  0  0  0  0  0  0  0  0
   -0.4890   22.4090  -25.5930 C   0  0  0  0  0  0  0  0  0  0  0  0
    0.2590   25.9240  -24.1730 C   0  0  0  0  0  0  0  0  0  0  0  0
   -0.8520   26.8220  -23.6270 C   0  0  0  0  0  0  0  0  0  0  0  0
   -1.0590   20.9630  -31.4140 C   0  0  0  0  0  0  0  0  0  0  0  0
   -1.4300   19.5180  -31.7210 C   0  0  0  0  0  0  0  0  0  0  0  0
   -2.3940   19.4280  -32.9280 C   0  0  0  0  0  0  0  0  0  0  0  0
   -2.8660   17.9570  -33.0260 C   0  0  0  0  0  0  0  0  0  0  0  0
   -1.6290   19.8030  -34.2310 C   0  0  0  0  0  0  0  0  0  0  0  0
   -3.5610   20.3390  -32.7400 N   0  0  0  0  0  0  0  0  0  0  0  0
   -4.6430   20.3230  -33.7550 C   0  0  0  0  0  0  0  0  0  0  0  0
   -5.8760   19.5220  -33.2780 C   0  0  0  0  0  0  0  0  0  0  0  0
   -7.1080   20.4370  -33.1090 C   0  0  0  0  0  0  0  0  0  0  0  0
   -8.3360   19.6710  -32.7630 N   0  0  0  0  0  0  0  0  0  0  0  0
   -9.2710   20.5250  -32.0030 C   0  0  0  0  0  0  0  0  0  0  0  0
   -8.0210   18.4630  -31.9750 C   0  0  0  0  0  0  0  0  0  0  0  0
   -5.8829   25.9244  -29.5472 H   0  0  0  0  0  0  0  0  0  0  0  0
   -4.9975   25.4943  -31.0498 H   0  0  0  0  0  0  0  0  0  0  0  0
   -6.7930   25.5493  -31.0498 H   0  0  0  0  0  0  0  0  0  0  0  0
   -6.1002   23.7565  -28.9734 H   0  0  0  0  0  0  0  0  0  0  0  0
   -6.7744   23.3502  -30.6006 H   0  0  0  0  0  0  0  0  0  0  0  0
   -5.6433   21.8431  -31.8535 H   0  0  0  0  0  0  0  0  0  0  0  0
   -0.9272   23.4007  -28.6311 H   0  0  0  0  0  0  0  0  0  0  0  0
   -0.1051   22.7554  -30.0920 H   0  0  0  0  0  0  0  0  0  0  0  0
   -0.7521   24.4311  -30.0920 H   0  0  0  0  0  0  0  0  0  0  0  0
   -4.5192   24.6380  -27.2200 H   0  0  0  0  0  0  0  0  0  0  0  0
   -3.2729   23.3464  -27.3358 H   0  0  0  0  0  0  0  0  0  0  0  0
   -3.0450   26.0836  -26.2988 H   0  0  0  0  0  0  0  0  0  0  0  0
   -1.9089   24.6816  -26.1508 H   0  0  0  0  0  0  0  0  0  0  0  0
    0.2942   26.6931  -27.8669 H   0  0  0  0  0  0  0  0  0  0  0  0
   -0.6122   27.0297  -26.3484 H   0  0  0  0  0  0  0  0  0  0  0  0
   -0.0120   24.1527  -27.0561 H   0  0  0  0  0  0  0  0  0  0  0  0
    1.3274   25.1880  -26.4312 H   0  0  0  0  0  0  0  0  0  0  0  0
    0.9819   23.3532  -24.3359 H   0  0  0  0  0  0  0  0  0  0  0  0
   -0.7354   23.3758  -23.7065 H   0  0  0  0  0  0  0  0  0  0  0  0
   -0.8268   21.5123  -25.0527 H   0  0  0  0  0  0  0  0  0  0  0  0
   -1.3067   22.7862  -26.2248 H   0  0  0  0  0  0  0  0  0  0  0  0
    0.3743   22.1529  -26.2248 H   0  0  0  0  0  0  0  0  0  0  0  0
    0.7703   25.4388  -23.3285 H   0  0  0  0  0  0  0  0  0  0  0  0
    0.9518   26.5544  -24.7497 H   0  0  0  0  0  0  0  0  0  0  0  0
   -0.8304   26.8045  -22.5274 H   0  0  0  0  0  0  0  0  0  0  0  0
   -0.6978   27.8522  -23.9805 H   0  0  0  0  0  0  0  0  0  0  0  0
   -1.8269   26.4552  -23.9805 H   0  0  0  0  0  0  0  0  0  0  0  0
   -0.5451   21.3987  -32.2835 H   0  0  0  0  0  0  0  0  0  0  0  0
   -0.3964   20.9845  -30.5362 H   0  0  0  0  0  0  0  0  0  0  0  0
   -0.5140   18.9543  -31.9515 H   0  0  0  0  0  0  0  0  0  0  0  0
   -1.9364   19.0956  -30.8406 H   0  0  0  0  0  0  0  0  0  0  0  0
   -2.9979   17.5461  -32.0142 H   0  0  0  0  0  0  0  0  0  0  0  0
   -3.8230   17.9142  -33.5667 H   0  0  0  0  0  0  0  0  0  0  0  0
   -2.1126   17.3654  -33.5667 H   0  0  0  0  0  0  0  0  0  0  0  0
   -0.6694   20.2734  -33.9703 H   0  0  0  0  0  0  0  0  0  0  0  0
   -1.4432   18.8938  -34.8217 H   0  0  0  0  0  0  0  0  0  0  0  0
   -2.2339   20.5068  -34.8217 H   0  0  0  0  0  0  0  0  0  0  0  0
   -4.9510   21.3586  -33.9615 H   0  0  0  0  0  0  0  0  0  0  0  0
   -4.2515   19.8351  -34.6598 H   0  0  0  0  0  0  0  0  0  0  0  0
   -6.1068   18.7437  -34.0203 H   0  0  0  0  0  0  0  0  0  0  0  0
   -5.6414   19.0717  -32.3022 H   0  0  0  0  0  0  0  0  0  0  0  0
   -6.9041   21.1604  -32.3058 H   0  0  0  0  0  0  0  0  0  0  0  0
   -7.2860   20.9432  -34.0693 H   0  0  0  0  0  0  0  0  0  0  0  0
   -8.8230   19.3800  -33.6440 H   0  0  0  0  0  0  0  0  0  0  0  0
   -9.1091   20.3771  -30.9251 H   0  0  0  0  0  0  0  0  0  0  0  0
   -9.0945   21.5801  -32.2589 H   0  0  0  0  0  0  0  0  0  0  0  0
  -10.3059   20.2538  -32.2589 H   0  0  0  0  0  0  0  0  0  0  0  0
   -8.0824   18.6986  -30.9023 H   0  0  0  0  0  0  0  0  0  0  0  0
   -8.7420   17.6685  -32.2178 H   0  0  0  0  0  0  0  0  0  0  0  0
   -7.0038   18.1218  -32.2178 H   0  0  0  0  0  0  0  0  0  0  0  0
  1  2  1  0
  2  3  1  0
  3  4  2  0
  4  5  1  0
  5  6  2  0
  6  7  1  0
  7  8  1  0
  7  9  2  0
  9 10  1  0
 10 11  1  0
 11 12  1  0
 12 13  1  0
 13 14  1  0
 14 15  1  0
 15 16  1  0
 16 17  1  0
 17 18  1  0
 16 19  1  0
 19 20  1  0
  6 21  1  0
 21 22  1  0
 22 23  1  0
 23 24  1  0
 23 25  1  0
 23 26  1  0
 26 27  1  0
 27 28  1  0
 28 29  1  0
 29 30  1  0
 30 31  1  0
 30 32  1  0
  9  3  1  0
 26  5  1  0
  1 33  1  0
  1 34  1  0
  1 35  1  0
  2 36  1  0
  2 37  1  0
  4 38  1  0
  8 39  1  0
  8 40  1  0
  8 41  1  0
 11 42  1  0
 11 43  1  0
 12 44  1  0
 12 45  1  0
 14 46  1  0
 14 47  1  0
 15 48  1  0
 15 49  1  0
 17 50  1  0
 17 51  1  0
 18 52  1  0
 18 53  1  0
 18 54  1  0
 19 55  1  0
 19 56  1  0
 20 57  1  0
 20 58  1  0
 20 59  1  0
 21 60  1  0
 21 61  1  0
 22 62  1  0
 22 63  1  0
 24 64  1  0
 24 65  1  0
 24 66  1  0
 25 67  1  0
 25 68  1  0
 25 69  1  0
 27 70  1  0
 27 71  1  0
 28 72  1  0
 28 73  1  0
 29 74  1  0
 29 75  1  0
 30 76  1  0
 31 77  1  0
 31 78  1  0
 31 79  1  0
 32 80  1  0
 32 81  1  0
 32 82  1  0
M  CHG  1  30   1
M  END
>  <UniqueID>  (26) 
26

>  <SMILES>  (26) 
CCc1cc2c(c(C)c1OCCOCCN(CC)CC)CCC(C)(C)N2CCC[NH+](C)C

>  <Energy>  (26) 
90.18574272086377

>  <Genealogy>  (26) 
CCc1cc2c(c(C)c1OCCOCCN(CC)CC)CCC(C)(C)N2CCC[NH+](C)C (protonated)
CCc1cc2c(c(C)c1OCCOCCN(CC)CC)CCC(C)(C)N2CCC[NH+](C)C (3D coordinates assigned)
CCc1cc2c(c(C)c1OCCOCCN(CC)CC)CCC(C)(C)N2CCC[NH+](C)C (nonaromatic ring conformer: 90.18574272086377 kcal/mol)

>  <smiles>  (26) 
CCc1cc2c(c(C)c1OCCOCCN(CC)CC)CCC(C)(C)N2CCCN(C)C

>  <score_type>  (26) 
oracle

>  <origin>  (26) 
adg

>  <m_score__min__energy>  (26) 
-8.2599999999999998

>  <m_primary>  (26) 
energy

$$$$
